drugbank_target|Q14145 Kelch-like ECH-associated protein 1 (DB08908)
 OpenBabel12092120583D

  0  0  0     0  0            999 V3000
M  V30 BEGIN CTAB
M  V30 COUNTS 9600 9707 0 0 0
M  V30 BEGIN ATOM
M  V30 1 H -0.908 1.98254 -0.117106 0
M  V30 2 N 0 1.576 0 0
M  V30 3 C 0.933 2.03868 1.02534 0
M  V30 4 C 1.911 0.928543 1.3348 0
M  V30 5 O 3.095 1.19667 1.45644 0
M  V30 6 C 0.222 2.43627 2.35294 0
M  V30 7 C -0.732 3.65373 2.2001 0
M  V30 8 S 0.101 5.13292 1.52614 0
M  V30 9 C 1.257 5.56322 2.86805 0
M  V30 10 H 1.49 2.90518 0.631377 0
M  V30 11 H -0.977 1.52953 0.210867 0
M  V30 12 H 0.981 2.67203 3.11629 0
M  V30 13 H -0.358 1.57376 2.7183 0
M  V30 14 H -1.165 3.90944 3.18086 0
M  V30 15 H -1.563 3.418 1.51819 0
M  V30 16 H 0.729 5.58782 3.83104 0
M  V30 17 H 1.672 6.56266 2.65933 0
M  V30 18 H 2.08 4.83886 2.90714 0
M  V30 19 N 1.4781 -0.272755 1.55222 0
M  V30 20 C 2.4101 -1.35946 1.8453 0
M  V30 21 C 3.4231 -1.45525 0.729818 0
M  V30 22 O 4.6121 -1.47337 1.00767 0
M  V30 23 C 1.7121 -2.74069 1.99347 0
M  V30 24 C 0.8851 -2.87079 3.30007 0
M  V30 25 C -0.0559 -4.05879 3.34886 0
M  V30 26 O -1.0299 -3.96626 4.08261 0
M  V30 27 N 0.1721 -5.17857 2.62307 0
M  V30 28 H 2.9371 -1.11149 2.78327 0
M  V30 29 H 0.4981 -0.462869 1.55142 0
M  V30 30 H 2.4901 -3.51838 1.99981 0
M  V30 31 H 1.0601 -2.91688 1.12415 0
M  V30 32 H 0.2801 -1.96193 3.41909 0
M  V30 33 H 1.5681 -2.92701 4.16177 0
M  V30 34 H 0.9661 -5.28261 2.02377 0
M  V30 35 H -0.4769 -5.93855 2.68663 0
M  V30 36 N 2.9562 -1.48159 -0.537278 0
M  V30 37 C 4.3672 -1.49429 -1.11928 0
M  V30 38 C 4.7182 -0.26 -1.9447 0
M  V30 39 O 3.8432 0.633489 -2.0692 0
M  V30 40 C 4.4382 -2.70758 -2.03656 0
M  V30 41 C 2.9972 -2.74923 -2.57088 0
M  V30 42 C 2.1442 -2.42835 -1.3389 0
M  V30 43 H 5.0952 -1.55381 -0.322886 0
M  V30 44 H 5.1162 -2.48861 -2.87834 0
M  V30 45 H 4.6282 -3.60575 -1.43553 0
M  V30 46 H 2.7292 -1.89296 -3.20933 0
M  V30 47 H 2.8422 -3.76157 -2.9672 0
M  V30 48 H 1.2062 -1.93836 -1.65226 0
M  V30 49 H 1.9892 -3.34884 -0.755504 0
M  V30 50 N 4.4343 0.785586 -1.36625 0
M  V30 51 C 5.7113 1.53198 -1.21613 0
M  V30 52 C 6.0913 2.10187 0.196113 0
M  V30 53 O 5.4393 1.94318 1.20219 0
M  V30 54 C 5.6493 2.62388 -2.30116 0
M  V30 55 C 6.9973 3.30167 -2.66974 0
M  V30 56 O 8.0213 2.72674 -2.29188 0
M  V30 57 O 6.8803 4.34077 -3.32023 0
M  V30 58 H 3.9743 0.677865 -0.473738 0
M  V30 59 H 6.5203 0.823739 -1.48367 0
M  V30 60 H 5.2923 2.18299 -3.24748 0
M  V30 61 H 4.9153 3.40827 -2.0475 0
M  V30 62 N 5.9124 1.20967 1.01018 0
M  V30 63 C 7.3234 1.02319 1.56165 0
M  V30 64 C 7.6744 -0.418546 1.91684 0
M  V30 65 O 6.7994 -1.30096 1.72928 0
M  V30 66 C 7.3944 1.85109 2.8376 0
M  V30 67 C 5.9534 1.70809 3.35412 0
M  V30 68 C 5.1004 1.82643 2.08655 0
M  V30 69 H 8.0514 1.35065 0.833255 0
M  V30 70 H 8.0724 1.35827 3.55431 0
M  V30 71 H 7.5844 2.90035 2.57878 0
M  V30 72 H 5.6854 0.685464 3.66241 0
M  V30 73 H 5.7984 2.52467 4.07182 0
M  V30 74 H 4.1624 1.25896 2.21409 0
M  V30 75 H 4.9454 2.89066 1.85191 0
M  V30 76 N 7.3905 -1.2043 1.01659 0
M  V30 77 C 8.8065 -1.41852 0.731442 0
M  V30 78 C 9.0065 -1.89358 -0.688898 0
M  V30 79 O 8.0625 -2.06247 -1.45666 0
M  V30 80 C 9.3755 -2.44019 1.75714 0
M  V30 81 C 10.9235 -2.57785 1.77527 0
M  V30 82 C 11.3985 -3.63194 2.79023 0
M  V30 83 N 12.8895 -3.70678 2.77763 0
M  V30 84 C 13.6245 -4.51897 3.52954 0
M  V30 85 N 13.1205 -5.36921 4.37821 0
M  V30 86 N 14.9135 -4.4643 3.41551 0
M  V30 87 H 7.0645 -0.879093 1.93354 0
M  V30 88 H 9.3275 -0.448425 0.835236 0
M  V30 89 H 9.0335 -2.1611 2.77469 0
M  V30 90 H 8.9075 -3.43007 1.56927 0
M  V30 91 H 11.2945 -2.85023 0.764569 0
M  V30 92 H 11.3755 -1.58992 2.00387 0
M  V30 93 H 11.0195 -3.36699 3.80258 0
M  V30 94 H 10.9495 -4.61609 2.53425 0
M  V30 95 H 13.4405 -3.09944 2.16201 0
M  V30 96 H 13.7535 -5.95981 4.91962 0
M  V30 97 H 12.0985 -5.36424 4.41899 0
M  V30 98 H 15.2895 -3.79042 2.74672 0
M  V30 99 H 15.4625 -5.09491 4.00404 0
M  V30 100 N 8.8686 -0.792821 -1.36206 0
M  V30 101 C 10.2796 -0.429513 -1.81692 0
M  V30 102 C 10.6306 1.04695 -1.65932 0
M  V30 103 O 9.7556 1.81256 -1.18218 0
M  V30 104 C 10.3506 -0.772831 -3.29868 0
M  V30 105 C 8.9096 -0.462307 -3.7355 0
M  V30 106 C 8.0566 -1.00569 -2.5842 0
M  V30 107 H 11.0076 -0.985672 -1.24379 0
M  V30 108 H 11.0286 -0.0651928 -3.80444 0
M  V30 109 H 10.5406 -1.84747 -3.41307 0
M  V30 110 H 8.6416 0.604158 -3.67669 0
M  V30 111 H 8.7546 -0.985299 -4.68859 0
M  V30 112 H 7.1186 -0.428734 -2.51066 0
M  V30 113 H 7.9016 -2.08616 -2.72643 0
M  V30 114 N 10.3467 1.47872 -0.545128 0
M  V30 115 C 11.5717 2.07391 -0.0190611 0
M  V30 116 C 11.9967 1.39688 1.25971 0
M  V30 117 O 11.3547 0.467816 1.7516 0
M  V30 118 C 11.4027 3.60188 0.172335 0
M  V30 119 O 10.5067 3.9339 1.23766 0
M  V30 120 H 9.8477 0.662411 -0.0459059 0
M  V30 121 H 12.3777 1.90066 -0.757365 0
M  V30 122 H 12.3877 4.06129 0.390305 0
M  V30 123 H 11.0627 4.08865 -0.761725 0
M  V30 124 H 9.6397 3.5921 1.00114 0
M  V30 125 N 11.8248 0.280983 1.55075 0
M  V30 126 C 13.0728 -0.333455 1.9933 0
M  V30 127 C 13.3938 -1.55937 1.17085 0
M  V30 128 O 12.6638 -1.94143 0.261805 0
M  V30 129 H 11.2438 -0.126197 0.736263 0
M  V30 130 H 13.9058 0.387678 1.91005 0
M  V30 131 H 13.0018 -0.619292 3.05894 0
M  V30 132 N 13.3029 -1.57598 0.00835791 0
M  V30 133 C 14.2659 -2.07884 -0.965242 0
M  V30 134 C 15.2659 -0.989825 -1.26725 0
M  V30 135 O 16.4559 -1.25218 -1.21104 0
M  V30 136 C 13.5879 -2.52731 -2.28779 0
M  V30 137 H 14.7809 -2.95178 -0.530112 0
M  V30 138 H 12.3339 -1.54458 -0.239283 0
M  V30 139 H 13.0689 -1.68705 -2.76964 0
M  V30 140 H 12.8539 -3.32272 -2.08177 0
M  V30 141 H 14.3439 -2.91933 -2.98605 0
M  V30 142 N 14.781 0.264519 -1.55364 0
M  V30 143 C 16.029 0.993021 -1.76021 0
M  V30 144 C 16.35 1.86511 -0.569099 0
M  V30 145 O 15.62 1.91438 0.415735 0
M  V30 146 H 14.2 0.369639 -0.649135 0
M  V30 147 H 16.862 0.286707 -1.9278 0
M  V30 148 H 15.958 1.62502 -2.66457 0
M  V30 149 N 16.2591 1.48442 0.529413 0
M  V30 150 C 17.2221 1.62524 1.61612 0
M  V30 151 C 18.2221 0.498509 1.52877 0
M  V30 152 O 19.4121 0.76431 1.56537 0
M  V30 153 C 16.5441 1.59597 3.01233 0
M  V30 154 H 17.7371 2.59423 1.50465 0
M  V30 155 H 15.2901 1.37047 0.751514 0
M  V30 156 H 16.0251 0.641781 3.17886 0
M  V30 157 H 15.8101 2.41397 3.08982 0
M  V30 158 H 17.3001 1.72646 3.80241 0
M  V30 159 N 17.7372 -0.778329 1.37039 0
M  V30 160 C 18.9772 -1.54973 1.33276 0
M  V30 161 C 19.3412 -1.91816 -0.0839376 0
M  V30 162 O 20.5422 -2.6767 -0.246228 0
M  V30 163 C 18.8132 -2.78517 2.23971 0
M  V30 164 S 20.3722 -3.6865 2.37997 0
M  V30 165 H 17.1902 -0.530639 0.473226 0
M  V30 166 H 19.7922 -0.915806 1.72723 0
M  V30 167 H 18.4962 -2.4952 3.25835 0
M  V30 168 H 18.0272 -3.46875 1.85584 0
M  V30 169 H 20.0422 -4.70182 1.58567 0
M  V30 170 N 19.2153 -1.21501 -1.00376 0
M  V30 171 C 20.4553 -1.04444 -1.75701 0
M  V30 172 C 20.8193 0.414644 -1.87469 0
M  V30 173 O 22.0203 0.705763 -2.59369 0
M  V30 174 C 20.2913 -1.72389 -3.13077 0
M  V30 175 S 21.8503 -1.70604 -4.04277 0
M  V30 176 H 18.6683 -0.374249 -0.604532 0
M  V30 177 H 21.2703 -1.54267 -1.20091 0
M  V30 178 H 19.9743 -2.77734 -3.02146 0
M  V30 179 H 19.5053 -1.22751 -3.73759 0
M  V30 180 H 21.5203 -0.748012 -4.9053 0
M  V30 181 N 20.6934 1.19889 -1.02296 0
M  V30 182 C 22.1094 1.41462 -0.738954 0
M  V30 183 C 22.3094 1.89721 0.678846 0
M  V30 184 O 21.3654 2.07016 1.4457 0
M  V30 185 C 22.6784 2.43083 -1.77005 0
M  V30 186 C 24.2264 2.5684 -1.78892 0
M  V30 187 C 24.7014 3.61709 -2.80945 0
M  V30 188 N 26.1924 3.69199 -2.79725 0
M  V30 189 C 26.9274 4.50019 -3.55345 0
M  V30 190 N 26.4234 5.34592 -4.40662 0
M  V30 191 N 28.2164 4.44612 -3.43914 0
M  V30 192 H 20.3674 0.868827 -1.93817 0
M  V30 193 H 22.6304 0.44399 -0.837602 0
M  V30 194 H 22.3364 2.14636 -2.78612 0
M  V30 195 H 22.2104 3.4217 -1.58744 0
M  V30 196 H 24.5974 2.84614 -0.779674 0
M  V30 197 H 24.6784 1.57927 -2.01228 0
M  V30 198 H 24.3224 3.34678 -3.82038 0
M  V30 199 H 24.2524 4.60259 -2.5587 0
M  V30 200 H 26.7434 3.08794 -2.17842 0
M  V30 201 H 27.0564 5.93363 -4.95116 0
M  V30 202 H 25.4014 5.34073 -4.44737 0
M  V30 203 H 28.5924 3.7758 -2.76679 0
M  V30 204 H 28.7654 5.0736 -4.031 0
M  V30 205 N 22.1715 0.800033 1.35784 0
M  V30 206 C 23.4185 0.377342 1.98953 0
M  V30 207 C 23.7465 -1.05378 1.6348 0
M  V30 208 O 23.0015 -1.74459 0.886707 0
M  V30 209 C 23.3005 0.500276 3.53881 0
M  V30 210 C 22.9665 1.89375 4.09204 0
M  V30 211 C 21.6285 2.27499 4.24025 0
M  V30 212 C 23.9805 2.8057 4.39238 0
M  V30 213 C 21.3085 3.562 4.66195 0
M  V30 214 C 23.6605 4.0871 4.82844 0
M  V30 215 C 22.3245 4.46843 4.95871 0
M  V30 216 H 21.5945 0.138079 0.728021 0
M  V30 217 H 24.2415 1.01955 1.62103 0
M  V30 218 H 22.5465 -0.225405 3.91151 0
M  V30 219 H 24.2435 0.154097 4.00704 0
M  V30 220 H 20.8335 1.58753 3.98115 0
M  V30 221 H 25.0175 2.52367 4.27346 0
M  V30 222 H 20.2735 3.85602 4.74469 0
M  V30 223 H 24.4475 4.79481 5.05046 0
M  V30 224 H 22.0745 5.46623 5.28306 0
M  V30 225 N 23.6496 -1.47581 0.552962 0
M  V30 226 C 24.5796 -2.32762 -0.185451 0
M  V30 227 C 25.5606 -1.43527 -0.912905 0
M  V30 228 O 26.7456 -1.72388 -0.894201 0
M  V30 229 C 23.8756 -3.25219 -1.21859 0
M  V30 230 C 22.8296 -4.23661 -0.607864 0
M  V30 231 C 22.1556 -5.05413 -1.74533 0
M  V30 232 C 23.4556 -5.20481 0.435582 0
M  V30 233 H 25.1496 -2.94749 0.525684 0
M  V30 234 H 22.6956 -1.41738 0.254251 0
M  V30 235 H 24.6486 -3.8365 -1.7433 0
M  V30 236 H 23.3726 -2.61279 -1.95961 0
M  V30 237 H 22.0316 -3.66451 -0.104489 0
M  V30 238 H 21.6796 -4.3788 -2.47529 0
M  V30 239 H 21.3796 -5.72059 -1.34249 0
M  V30 240 H 22.9036 -5.66701 -2.27338 0
M  V30 241 H 24.3176 -5.733 -0.00290157 0
M  V30 242 H 22.7146 -5.95305 0.757067 0
M  V30 243 H 23.7846 -4.66217 1.33303 0
M  V30 244 N 25.1277 -0.289203 -1.54924 0
M  V30 245 C 26.5387 0.205791 -1.85562 0
M  V30 246 C 26.8897 1.54351 -1.2112 0
M  V30 247 O 26.0147 2.10435 -0.504601 0
M  V30 248 C 26.6097 0.380177 -3.3666 0
M  V30 249 C 25.1687 0.819395 -3.67373 0
M  V30 250 C 24.3157 -0.079159 -2.77187 0
M  V30 251 H 27.2667 -0.510577 -1.50262 0
M  V30 252 H 27.2877 1.21659 -3.60526 0
M  V30 253 H 26.7997 -0.593589 -3.83534 0
M  V30 254 H 24.9007 1.80413 -3.26009 0
M  V30 255 H 25.0137 0.646957 -4.74712 0
M  V30 256 H 23.3777 0.439565 -2.50878 0
M  V30 257 H 24.1607 -1.04906 -3.26878 0
M  V30 258 N 26.6058 1.57591 -0.0167156 0
M  V30 259 C 27.5358 2.12496 0.967858 0
M  V30 260 C 28.5168 1.03807 1.34752 0
M  V30 261 O 29.7018 1.31577 1.42833 0
M  V30 262 C 26.8318 2.64194 2.25431 0
M  V30 263 C 25.7858 3.77559 2.01576 0
M  V30 264 C 25.1118 4.15636 3.36379 0
M  V30 265 C 26.4118 5.04151 1.36489 0
M  V30 266 H 28.1058 2.95013 0.510643 0
M  V30 267 H 25.6518 1.41915 0.244181 0
M  V30 268 H 27.6048 3.01236 2.94678 0
M  V30 269 H 26.3288 1.78821 2.73296 0
M  V30 270 H 24.9878 3.40937 1.34751 0
M  V30 271 H 24.6358 3.27263 3.81979 0
M  V30 272 H 24.3358 4.92022 3.21229 0
M  V30 273 H 25.8598 4.5525 4.06915 0
M  V30 274 H 27.2738 5.38857 1.95718 0
M  V30 275 H 25.6708 5.85453 1.31776 0
M  V30 276 H 26.7408 4.83733 0.336219 0
M  V30 277 N 28.0839 -0.256276 1.55502 0
M  V30 278 C 29.0159 -1.33981 1.85962 0
M  V30 279 C 30.0289 -1.44743 0.745212 0
M  V30 280 O 31.2179 -1.4626 1.02324 0
M  V30 281 C 28.3179 -2.7194 2.02242 0
M  V30 282 C 27.4909 -2.83562 3.33033 0
M  V30 283 C 26.5499 -4.02304 3.39172 0
M  V30 284 O 25.5759 -3.92273 4.12444 0
M  V30 285 N 26.7779 -5.15045 2.67784 0
M  V30 286 H 29.5429 -1.08191 2.7949 0
M  V30 287 H 27.1039 -0.446388 1.55624 0
M  V30 288 H 29.0959 -3.49697 2.03701 0
M  V30 289 H 27.6659 -2.90479 1.15502 0
M  V30 290 H 26.8859 -1.92555 3.43971 0
M  V30 291 H 28.1739 -2.88271 4.19258 0
M  V30 292 H 27.5719 -5.26085 2.07968 0
M  V30 293 H 26.1289 -5.90972 2.74947 0
M  V30 294 N 29.562 -1.4872 -0.521534 0
M  V30 295 C 30.787 -1.61101 -1.30618 0
M  V30 296 C 31.212 -0.274611 -1.86085 0
M  V30 297 O 30.57 0.754937 -1.64834 0
M  V30 298 C 30.618 -2.66709 -2.4269 0
M  V30 299 O 29.722 -2.24456 -3.45967 0
M  V30 300 H 29.063 -0.539921 -0.386499 0
M  V30 301 H 31.593 -1.94767 -0.626645 0
M  V30 302 H 31.603 -2.88245 -2.88754 0
M  V30 303 H 30.278 -3.63727 -2.01682 0
M  V30 304 H 28.855 -2.13168 -3.05964 0
M  V30 305 N 31.0401 0.771051 -1.3745 0
M  V30 306 C 31.9721 1.89352 -1.29146 0
M  V30 307 C 32.9851 1.61477 -0.207124 0
M  V30 308 O 34.1741 1.72382 -0.463324 0
M  V30 309 C 31.2741 3.24596 -0.974195 0
M  V30 310 C 30.4471 3.80111 -2.16413 0
M  V30 311 C 29.5061 4.93832 -1.81703 0
M  V30 312 O 28.5321 5.09382 -2.54006 0
M  V30 313 N 29.7341 5.75483 -0.761573 0
M  V30 314 H 32.4991 1.96991 -2.25864 0
M  V30 315 H 30.0601 0.950191 -1.31084 0
M  V30 316 H 32.0521 3.98193 -0.722828 0
M  V30 317 H 30.6221 3.12454 -0.0955527 0
M  V30 318 H 29.8421 2.98284 -2.57721 0
M  V30 319 H 31.1301 4.13932 -2.95867 0
M  V30 320 H 30.5281 5.65469 -0.161609 0
M  V30 321 H 29.0851 6.49302 -0.570064 0
M  V30 322 N 32.5182 1.22032 0.997298 0
M  V30 323 C 33.7582 1.05375 1.75144 0
M  V30 324 C 34.1222 -0.404696 1.87686 0
M  V30 325 O 35.3232 -0.691998 2.5974 0
M  V30 326 C 33.5942 1.74046 3.12158 0
M  V30 327 S 35.1532 1.72745 4.03366 0
M  V30 328 H 31.9712 0.377449 0.602539 0
M  V30 329 H 34.5732 1.54902 1.19272 0
M  V30 330 H 33.2772 2.79332 3.00669 0
M  V30 331 H 32.8082 1.24731 3.73103 0
M  V30 332 H 34.8232 0.774015 4.90126 0
M  V30 333 N 33.9963 -1.19345 1.0293 0
M  V30 334 C 35.4073 -1.70725 0.755633 0
M  V30 335 C 35.7583 -1.82326 -0.724676 0
M  V30 336 O 34.8833 -1.49471 -1.56484 0
M  V30 337 C 35.4783 -3.10084 1.36503 0
M  V30 338 C 34.0373 -3.58723 1.13994 0
M  V30 339 C 33.1843 -2.35577 1.46283 0
M  V30 340 H 36.1353 -1.0418 1.19718 0
M  V30 341 H 36.1563 -3.72787 0.762217 0
M  V30 342 H 35.6683 -3.01609 2.44241 0
M  V30 343 H 33.7693 -3.72512 0.0807901 0
M  V30 344 H 33.8823 -4.42816 1.82894 0
M  V30 345 H 32.2463 -2.38935 0.88217 0
M  V30 346 H 33.0293 -2.29731 2.55105 0
M  V30 347 N 35.4744 -0.807222 -1.35358 0
M  V30 348 C 36.3844 -0.219594 -2.3357 0
M  V30 349 C 37.4004 0.637734 -1.61892 0
M  V30 350 O 38.5764 0.549336 -1.93763 0
M  V30 351 C 35.6414 0.62158 -3.41083 0
M  V30 352 C 34.7024 -0.256315 -4.28534 0
M  V30 353 C 33.9354 0.544807 -5.30912 0
M  V30 354 O 34.1584 1.77944 -5.41934 0
M  V30 355 O 33.0924 -0.0646478 -6.01865 0
M  V30 356 H 36.9184 -1.03208 -2.85625 0
M  V30 357 H 34.5034 -0.569025 -1.38139 0
M  V30 358 H 36.3854 1.10067 -4.06772 0
M  V30 359 H 35.0604 1.41165 -2.91297 0
M  V30 360 H 33.9674 -0.782559 -3.65823 0
M  V30 361 H 35.3004 -1.01034 -4.81719 0
M  V30 362 N 36.9525 1.47285 -0.560781 0
M  V30 363 C 38.2005 2.02064 -0.0379868 0
M  V30 364 C 38.5215 1.43711 1.31803 0
M  V30 365 O 37.7915 0.61362 1.86042 0
M  V30 366 H 36.3715 0.746918 -0.0110531 0
M  V30 367 H 39.0335 1.80648 -0.731598 0
M  V30 368 H 38.1295 3.12064 0.0474463 0
M  V30 369 N 38.4306 0.297415 1.54768 0
M  V30 370 C 39.3936 -0.567375 2.22066 0
M  V30 371 C 40.3936 -1.06409 1.20556 0
M  V30 372 O 41.5836 -0.960691 1.45315 0
M  V30 373 C 38.7156 -1.78517 2.90421 0
M  V30 374 H 39.9086 0.0205534 2.99893 0
M  V30 375 H 37.4616 0.0482163 1.56226 0
M  V30 376 H 38.1966 -2.41303 2.16664 0
M  V30 377 H 37.9816 -1.43669 3.64831 0
M  V30 378 H 39.4716 -2.39964 3.41771 0
M  V30 379 N 39.9087 -1.5758 0.0250728 0
M  V30 380 C 41.1567 -1.91255 -0.653151 0
M  V30 381 C 41.4777 -0.901691 -1.729 0
M  V30 382 O 40.7477 0.0573785 -1.95816 0
M  V30 383 H 39.3277 -0.705942 -0.244243 0
M  V30 384 H 41.9897 -1.94767 0.0719209 0
M  V30 385 H 41.0857 -2.91752 -1.10847 0
M  V30 386 N 41.3868 0.248026 -1.55636 0
M  V30 387 C 42.6638 0.998988 -1.68165 0
M  V30 388 C 43.0438 2.03409 -0.564621 0
M  V30 389 O 42.3918 2.24378 0.432076 0
M  V30 390 C 42.6018 1.63334 -3.0842 0
M  V30 391 C 43.9498 2.13562 -3.66983 0
M  V30 392 O 44.9738 1.73277 -3.11213 0
M  V30 393 O 43.8328 2.87526 -4.64749 0
M  V30 394 H 40.9268 0.464933 -0.683935 0
M  V30 395 H 43.4728 0.241902 -1.67967 0
M  V30 396 H 42.2448 0.884583 -3.8117 0
M  V30 397 H 41.8678 2.45666 -3.12624 0
M  V30 398 N 42.8649 1.48995 0.513639 0
M  V30 399 C 43.8279 1.64229 1.59879 0
M  V30 400 C 44.8279 0.514696 1.5234 0
M  V30 401 O 46.0179 0.78087 1.55718 0
M  V30 402 C 43.1499 1.62783 2.99524 0
M  V30 403 H 44.3429 2.61004 1.47705 0
M  V30 404 H 41.8959 1.37837 0.736936 0
M  V30 405 H 42.6309 0.675461 3.17188 0
M  V30 406 H 42.4159 2.4466 3.06404 0
M  V30 407 H 43.9059 1.76669 3.78388 0
M  V30 408 N 44.343 -0.763751 1.37857 0
M  V30 409 C 45.589 -1.52483 1.33704 0
M  V30 410 C 45.922 -1.94051 -0.0759612 0
M  V30 411 O 45.197 -1.64675 -1.03501 0
M  V30 412 C 45.48 -2.78441 2.28348 0
M  V30 413 C 45.333 -2.43075 3.78463 0
M  V30 414 C 46.652 -3.80415 2.21298 0
M  V30 415 H 43.771 -0.553169 0.487005 0
M  V30 416 H 46.413 -0.875562 1.68624 0
M  V30 417 H 44.563 -3.33842 1.987 0
M  V30 418 H 46.235 -1.93527 4.18742 0
M  V30 419 H 44.478 -1.75666 3.96641 0
M  V30 420 H 45.149 -3.33149 4.40132 0
M  V30 421 H 47.625 -3.34527 2.47449 0
M  V30 422 H 46.501 -4.66257 2.89647 0
M  V30 423 H 46.762 -4.25262 1.20849 0
M  V30 424 N 45.8211 -1.22559 -0.990812 0
M  V30 425 C 46.7541 -0.940773 -2.07905 0
M  V30 426 C 47.7321 0.117082 -1.62178 0
M  V30 427 O 48.9161 -0.0149506 -1.88494 0
M  V30 428 C 46.0431 -0.415321 -3.36144 0
M  V30 429 C 45.0891 -1.45818 -4.00799 0
M  V30 430 S 45.9221 -3.03219 -4.41382 0
M  V30 431 C 47.0781 -2.52317 -5.72789 0
M  V30 432 H 47.3111 -1.8623 -2.31745 0
M  V30 433 H 44.8441 -1.05688 -1.12558 0
M  V30 434 H 46.8021 -0.118747 -4.10328 0
M  V30 435 H 45.4631 0.485121 -3.10331 0
M  V30 436 H 44.6561 -1.04044 -4.93144 0
M  V30 437 H 44.2581 -1.70356 -3.32949 0
M  V30 438 H 46.5501 -1.93688 -6.49224 0
M  V30 439 H 47.4931 -3.43161 -6.19392 0
M  V30 440 H 47.9011 -1.93529 -5.30289 0
M  V30 441 N 47.2992 1.18797 -1.03562 0
M  V30 442 C 48.5292 1.92319 -0.754773 0
M  V30 443 C 48.9372 1.7612 0.691248 0
M  V30 444 O 48.2802 1.08491 1.48241 0
M  V30 445 C 48.3422 3.44284 -1.03484 0
M  V30 446 C 48.0062 3.84258 -2.47376 0
M  V30 447 C 49.0032 3.88459 -3.45537 0
M  V30 448 C 46.6882 4.15701 -2.81954 0
M  V30 449 C 48.6822 4.23545 -4.76328 0
M  V30 450 C 46.3692 4.50458 -4.12954 0
M  V30 451 C 47.3672 4.54356 -5.09951 0
M  V30 452 O 47.0552 4.88305 -6.38603 0
M  V30 453 H 46.7872 0.617527 -0.275021 0
M  V30 454 H 49.3412 1.51683 -1.38497 0
M  V30 455 H 47.5712 3.85135 -0.347513 0
M  V30 456 H 49.2602 3.99049 -0.7426 0
M  V30 457 H 50.0262 3.6431 -3.20162 0
M  V30 458 H 45.9052 4.11847 -2.0713 0
M  V30 459 H 49.4492 4.26502 -5.52035 0
M  V30 460 H 45.3462 4.74067 -4.38099 0
M  V30 461 H 46.1142 5.06227 -6.43177 0
M  V30 462 N 48.7773 0.814389 1.34928 0
M  V30 463 C 49.7403 0.235759 2.27984 0
M  V30 464 C 50.7403 -0.581412 1.49921 0
M  V30 465 O 51.9303 -0.398758 1.69575 0
M  V30 466 C 49.0623 -0.670433 3.34242 0
M  V30 467 H 50.2553 1.05659 2.80671 0
M  V30 468 H 47.8083 0.585614 1.44915 0
M  V30 469 H 48.5433 -1.51466 2.86755 0
M  V30 470 H 48.3283 -0.0860822 3.92005 0
M  V30 471 H 49.8183 -1.06935 4.03676 0
M  V30 472 N 50.2554 -1.46986 0.568584 0
M  V30 473 C 51.4804 -2.07335 0.0520528 0
M  V30 474 C 51.9054 -1.41675 -1.23733 0
M  V30 475 O 51.2634 -0.495623 -1.74394 0
M  V30 476 C 51.3114 -3.60417 -0.11501 0
M  V30 477 O 50.4154 -3.95309 -1.17492 0
M  V30 478 H 49.7564 -0.661597 0.0564385 0
M  V30 479 H 52.2864 -1.88837 0.787507 0
M  V30 480 H 52.2964 -4.06698 -0.325644 0
M  V30 481 H 50.9714 -4.07601 0.826675 0
M  V30 482 H 49.5484 -3.60757 -0.943869 0
M  V30 483 N 51.7335 -0.305618 -1.54608 0
M  V30 484 C 52.9615 0.304775 -2.04643 0
M  V30 485 C 53.3765 1.47167 -1.18268 0
M  V30 486 O 52.7335 1.81296 -0.209328 0
M  V30 487 C 52.7845 0.756564 -3.53495 0
M  V30 488 O 52.5055 -0.36389 -4.36586 0
M  V30 489 C 54.0065 1.43163 -4.19546 0
M  V30 490 H 51.2265 0.0655481 -0.667791 0
M  V30 491 H 53.7705 -0.446592 -1.99564 0
M  V30 492 H 51.9255 1.45794 -3.58919 0
M  V30 493 H 52.3395 -0.0113121 -5.24499 0
M  V30 494 H 53.8135 1.69886 -5.25207 0
M  V30 495 H 54.2905 2.37318 -3.69563 0
M  V30 496 H 54.8965 0.773307 -4.18211 0
M  V30 497 N 53.2116 1.57565 -0.0334293 0
M  V30 498 C 54.1216 2.13943 0.962572 0
M  V30 499 C 55.1376 1.09276 1.35406 0
M  V30 500 O 56.3136 1.41355 1.4346 0
M  V30 501 C 53.3786 2.65887 2.22497 0
M  V30 502 C 52.4396 3.85286 1.8935 0
M  V30 503 C 51.6726 4.34743 3.09571 0
M  V30 504 O 51.8956 3.83352 4.22371 0
M  V30 505 O 50.8296 5.26538 2.91618 0
M  V30 506 H 54.6556 2.99333 0.513169 0
M  V30 507 H 52.2406 1.4822 0.18743 0
M  V30 508 H 54.1226 2.99346 2.96598 0
M  V30 509 H 52.7976 1.83578 2.6661 0
M  V30 510 H 51.7046 3.56746 1.1262 0
M  V30 511 H 53.0376 4.68771 1.5005 0
M  V30 512 N 54.6897 -0.239769 1.55765 0
M  V30 513 C 55.9297 -0.974076 1.79697 0
M  V30 514 C 56.2937 -1.82249 0.604088 0
M  V30 515 O 57.4947 -2.58913 0.722324 0
M  V30 516 C 55.7657 -1.80595 3.08416 0
M  V30 517 S 57.3247 -2.59838 3.53596 0
M  V30 518 H 54.1427 -0.327524 0.63107 0
M  V30 519 H 56.7447 -0.241277 1.94005 0
M  V30 520 H 55.4487 -1.17249 3.93295 0
M  V30 521 H 54.9797 -2.58137 2.96865 0
M  V30 522 H 56.9947 -3.82987 3.15492 0
M  V30 523 N 56.1678 -1.49265 -0.50573 0
M  V30 524 C 57.1148 -1.65585 -1.6078 0
M  V30 525 C 58.0848 -0.497396 -1.58478 0
M  V30 526 O 59.2698 -0.72385 -1.76536 0
M  V30 527 C 56.4098 -1.72408 -2.98948 0
M  V30 528 C 55.5228 -2.99525 -3.11301 0
M  V30 529 C 54.6578 -2.97356 -4.40174 0
M  V30 530 C 53.6968 -4.19074 -4.46143 0
M  V30 531 N 52.8338 -4.14841 -5.66437 0
M  V30 532 H 57.6738 -2.59688 -1.46172 0
M  V30 533 H 55.2108 -1.28761 -0.711261 0
M  V30 534 H 57.1688 -1.74344 -3.79025 0
M  V30 535 H 55.7988 -0.817753 -3.1227 0
M  V30 536 H 54.8508 -3.07222 -2.24318 0
M  V30 537 H 56.1628 -3.89518 -3.11572 0
M  V30 538 H 55.3168 -2.97829 -5.28567 0
M  V30 539 H 54.0558 -2.05133 -4.42461 0
M  V30 540 H 53.0608 -4.1885 -3.56153 0
M  V30 541 H 54.2858 -5.12483 -4.45575 0
M  V30 542 H 52.2318 -3.25453 -5.69575 0
M  V30 543 H 52.1488 -4.98564 -5.68304 0
M  V30 544 H 53.4168 -4.1941 -6.57051 0
M  V30 545 N 57.6459 0.756429 -1.3826 0
M  V30 546 C 58.6089 1.85176 -1.35065 0
M  V30 547 C 59.6089 1.58818 -0.251703 0
M  V30 548 O 60.7989 1.66615 -0.508433 0
M  V30 549 C 57.9309 3.22596 -1.10201 0
M  V30 550 H 59.1239 1.89417 -2.3251 0
M  V30 551 H 56.6769 0.95783 -1.23512 0
M  V30 552 H 57.4119 3.24025 -0.133504 0
M  V30 553 H 57.1969 3.43122 -1.89762 0
M  V30 554 H 58.6869 4.02673 -1.10654 0
M  V30 555 N 59.124 1.23083 0.984299 0
M  V30 556 C 60.034 1.02515 2.11016 0
M  V30 557 C 61.05 -0.0291702 1.73976 0
M  V30 558 O 62.226 0.165434 2.00719 0
M  V30 559 C 59.291 0.614673 3.41208 0
M  V30 560 C 58.352 1.74359 3.92297 0
M  V30 561 C 57.585 1.35261 5.16275 0
M  V30 562 O 57.808 0.235136 5.69915 0
M  V30 563 O 56.742 2.17227 5.61334 0
M  V30 564 H 60.568 1.96862 2.31255 0
M  V30 565 H 58.153 1.01753 1.09392 0
M  V30 566 H 60.035 0.396518 4.1953 0
M  V30 567 H 58.71 -0.299851 3.22308 0
M  V30 568 H 57.617 2.01635 3.1511 0
M  V30 569 H 58.95 2.63629 4.15645 0
M  V30 570 N 60.6021 -1.18246 1.0419 0
M  V30 571 C 61.8481 -1.88536 0.747122 0
M  V30 572 C 62.1811 -1.80223 -0.723409 0
M  V30 573 O 61.4561 -1.20337 -1.52804 0
M  V30 574 C 61.7391 -3.38968 1.21544 0
M  V30 575 C 61.5921 -3.56084 2.74816 0
M  V30 576 C 62.9111 -4.32648 0.806482 0
M  V30 577 H 60.0301 -0.684619 0.272883 0
M  V30 578 H 62.6721 -1.39113 1.29413 0
M  V30 579 H 60.8221 -3.8119 0.750081 0
M  V30 580 H 62.4941 -3.22946 3.29399 0
M  V30 581 H 60.7371 -2.98699 3.14582 0
M  V30 582 H 61.4081 -4.61639 3.02644 0
M  V30 583 H 63.8841 -3.98211 1.20695 0
M  V30 584 H 62.7601 -5.36462 1.1619 0
M  V30 585 H 63.0211 -4.41146 -0.29029 0
M  V30 586 N 62.0802 -0.821533 -1.34494 0
M  V30 587 C 63.3082 -0.421884 -2.02553 0
M  V30 588 C 63.7232 0.971745 -1.61872 0
M  V30 589 O 63.0802 1.62864 -0.823496 0
M  V30 590 C 63.1312 -0.51285 -3.57844 0
M  V30 591 O 62.8522 -1.85155 -3.97051 0
M  V30 592 C 64.3532 -0.107921 -4.43169 0
M  V30 593 H 61.5732 -0.169482 -0.649243 0
M  V30 594 H 64.1172 -1.1093 -1.71798 0
M  V30 595 H 62.2722 0.126474 -3.87193 0
M  V30 596 H 62.6862 -1.82482 -4.91732 0
M  V30 597 H 64.1602 -0.222657 -5.51551 0
M  V30 598 H 64.6372 0.948401 -4.28838 0
M  V30 599 H 65.2432 -0.720989 -4.19144 0
M  V30 600 N 63.5583 1.46682 -0.576371 0
M  V30 601 C 64.9693 1.86112 -0.148091 0
M  V30 602 C 65.3203 1.48073 1.2872 0
M  V30 603 O 64.4453 0.892656 1.97131 0
M  V30 604 C 65.0403 3.37786 -0.261982 0
M  V30 605 C 63.5993 3.76235 0.111384 0
M  V30 606 C 62.7463 2.70713 -0.60083 0
M  V30 607 H 65.6973 1.37927 -0.78497 0
M  V30 608 H 65.7183 3.77007 0.514364 0
M  V30 609 H 65.2303 3.6544 -1.30671 0
M  V30 610 H 63.3313 3.54198 1.15649 0
M  V30 611 H 63.4443 4.78391 -0.26052 0
M  V30 612 H 61.8083 2.54666 -0.0417783 0
M  V30 613 H 62.5913 3.01208 -1.64708 0
M  V30 614 N 65.0364 0.313813 1.54444 0
M  V30 615 C 66.2614 -0.296681 2.05267 0
M  V30 616 C 66.6864 -1.45757 1.18897 0
M  V30 617 O 66.0444 -1.80239 0.195886 0
M  V30 618 C 66.0924 -0.71831 3.53373 0
M  V30 619 O 65.1964 -1.82175 3.69981 0
M  V30 620 H 64.5374 -0.0554061 0.661684 0
M  V30 621 H 67.0674 0.459387 1.99376 0
M  V30 622 H 67.0774 -1.00364 3.95463 0
M  V30 623 H 65.7524 0.130821 4.15694 0
M  V30 624 H 64.3294 -1.53598 3.39797 0
M  V30 625 N 66.5145 -1.57545 0.0417849 0
M  V30 626 C 67.4465 -2.07904 -0.964799 0
M  V30 627 C 68.4595 -1.00497 -1.28079 0
M  V30 628 O 69.6485 -1.28087 -1.24322 0
M  V30 629 C 66.7485 -2.49928 -2.28887 0
M  V30 630 C 65.9215 -3.80562 -2.15619 0
M  V30 631 C 64.9805 -4.08999 -3.31069 0
M  V30 632 O 64.0065 -4.79061 -3.0739 0
M  V30 633 N 65.2085 -3.6017 -4.55256 0
M  V30 634 H 67.9735 -2.94886 -0.535029 0
M  V30 635 H 65.5345 -1.61252 -0.144681 0
M  V30 636 H 67.5265 -2.66034 -3.04972 0
M  V30 637 H 66.0965 -1.68245 -2.63463 0
M  V30 638 H 65.3165 -3.74129 -1.24183 0
M  V30 639 H 66.6045 -4.66126 -2.03971 0
M  V30 640 H 66.0025 -3.03512 -4.77386 0
M  V30 641 H 64.5595 -3.81532 -5.28466 0
M  V30 642 N 67.9926 0.231505 -1.5589 0
M  V30 643 C 68.9426 1.29007 -1.87993 0
M  V30 644 C 69.9266 1.42764 -0.742102 0
M  V30 645 O 71.1186 1.45747 -1.00433 0
M  V30 646 C 68.2476 2.6425 -2.1915 0
M  V30 647 C 67.3336 2.54435 -3.39299 0
M  V30 648 N 67.7246 2.14262 -4.58176 0
M  V30 649 C 66.0226 2.85416 -3.42715 0
M  V30 650 C 66.7236 2.15455 -5.40328 0
M  V30 651 N 65.6996 2.55558 -4.79783 0
M  V30 652 H 69.5016 0.970213 -2.77424 0
M  V30 653 H 67.0156 0.440097 -1.56323 0
M  V30 654 H 69.0126 3.40665 -2.40319 0
M  V30 655 H 67.6726 2.9709 -1.31025 0
M  V30 656 H 68.6836 1.85554 -4.83518 0
M  V30 657 H 65.3606 3.22693 -2.64906 0
M  V30 658 H 66.7506 1.86605 -6.45467 0
M  V30 659 N 69.4707 1.49531 0.497807 0
M  V30 660 C 70.7187 1.58865 1.24926 0
M  V30 661 C 71.0397 0.278721 1.92998 0
M  V30 662 O 70.3097 -0.702144 1.82885 0
M  V30 663 H 68.8897 0.585343 0.464094 0
M  V30 664 H 71.5517 1.86174 0.57666 0
M  V30 665 H 70.6477 2.38633 2.01149 0
M  V30 666 N 70.9488 -0.749086 1.3866 0
M  V30 667 C 71.8968 -1.88428 1.36373 0
M  V30 668 C 72.8908 -1.67561 0.248929 0
M  V30 669 O 74.0968 -1.75074 0.41821 0
M  V30 670 H 70.4718 -0.620023 0.42553 0
M  V30 671 H 72.4428 -1.87473 2.32156 0
M  V30 672 C 71.1918 -3.25961 1.21014 0
M  V30 673 H 70.5148 -3.42607 2.06059 0
M  V30 674 H 71.9548 -4.05625 1.23469 0
M  V30 675 C 70.4138 -3.36799 -0.0825941 0
M  V30 676 O 70.9438 -3.87517 -1.05797 0
M  V30 677 N 69.1498 -2.90258 -0.140939 0
M  V30 678 H 68.6968 -2.49174 0.653477 0
M  V30 679 H 68.6548 -2.97889 -1.00545 0
M  V30 680 N 72.4269 -1.23603 -0.977757 0
M  V30 681 C 73.8429 -0.999251 -1.24447 0
M  V30 682 C 74.0429 0.298053 -1.99283 0
M  V30 683 O 73.0989 1.01681 -2.31122 0
M  V30 684 C 74.4119 -2.20784 -2.04144 0
M  V30 685 C 75.9599 -2.25303 -2.17273 0
M  V30 686 C 76.4349 -3.45755 -3.00362 0
M  V30 687 N 77.9259 -3.4601 -3.07947 0
M  V30 688 C 78.6609 -4.35868 -3.72568 0
M  V30 689 N 78.1569 -5.35966 -4.38991 0
M  V30 690 N 79.9499 -4.23605 -3.6948 0
M  V30 691 H 72.1009 -2.06986 -0.476483 0
M  V30 692 H 74.3639 -0.907801 -0.273134 0
M  V30 693 H 74.0699 -3.14945 -1.56533 0
M  V30 694 H 73.9439 -2.22085 -3.04891 0
M  V30 695 H 76.3309 -1.3168 -2.64092 0
M  V30 696 H 76.4119 -2.28033 -1.15907 0
M  V30 697 H 76.0559 -4.39687 -2.5424 0
M  V30 698 H 75.9859 -3.40266 -4.01904 0
M  V30 699 H 78.4769 -2.73588 -2.60688 0
M  V30 700 H 78.7899 -6.00783 -4.86086 0
M  V30 701 H 77.1349 -5.39863 -4.37691 0
M  V30 702 H 80.3259 -3.44647 -3.16759 0
M  V30 703 H 80.4989 -4.93836 -4.1956 0
M  V30 704 N 73.905 1.17692 -1.04816 0
M  V30 705 C 75.133 1.91786 -0.776254 0
M  V30 706 C 75.548 1.76604 0.667577 0
M  V30 707 O 74.905 1.10067 1.45573 0
M  V30 708 C 74.956 3.42967 -1.14263 0
M  V30 709 O 74.677 3.57678 -2.52978 0
M  V30 710 C 76.178 4.34144 -0.896311 0
M  V30 711 H 73.398 0.608624 -0.282519 0
M  V30 712 H 75.942 1.49268 -1.39783 0
M  V30 713 H 74.097 3.83245 -0.565874 0
M  V30 714 H 74.511 4.51319 -2.67229 0
M  V30 715 H 75.985 5.38744 -1.20244 0
M  V30 716 H 76.462 4.38876 0.168636 0
M  V30 717 H 77.068 3.99574 -1.45672 0
M  V30 718 N 75.3831 0.828654 1.34056 0
M  V30 719 C 76.6301 0.419458 1.98108 0
M  V30 720 C 76.9581 -1.01886 1.65679 0
M  V30 721 O 76.2131 -1.72539 0.923512 0
M  V30 722 C 76.5121 0.575226 3.52741 0
M  V30 723 C 76.1781 1.98012 4.05095 0
M  V30 724 C 74.8401 2.36442 4.19104 0
M  V30 725 C 77.1921 2.89824 4.33188 0
M  V30 726 C 74.5201 3.66009 4.58535 0
M  V30 727 C 76.8721 4.1886 4.74066 0
M  V30 728 C 75.5361 4.5726 4.86281 0
M  V30 729 H 74.8061 0.153491 0.724929 0
M  V30 730 H 77.4531 1.05371 1.59904 0
M  V30 731 H 75.7581 -0.142385 3.91541 0
M  V30 732 H 77.4551 0.239057 4.00287 0
M  V30 733 H 74.0451 1.67162 3.94658 0
M  V30 734 H 78.2291 2.61375 4.21897 0
M  V30 735 H 73.4851 3.95579 4.66184 0
M  V30 736 H 77.6591 4.90086 4.94761 0
M  V30 737 H 75.2861 5.57707 5.16592 0
M  V30 738 N 76.8612 -1.46375 0.584142 0
M  V30 739 C 78.0862 -2.07268 0.0740405 0
M  V30 740 C 78.5112 -1.42979 -1.22223 0
M  V30 741 O 77.8692 -0.514092 -1.73859 0
M  V30 742 C 77.9172 -3.60518 -0.0767769 0
M  V30 743 O 77.0212 -3.96533 -1.13292 0
M  V30 744 H 76.3622 -0.660961 0.0634524 0
M  V30 745 H 78.8922 -1.87991 0.807492 0
M  V30 746 H 78.9022 -4.07021 -0.282489 0
M  V30 747 H 77.5772 -4.06702 0.86986 0
M  V30 748 H 76.1542 -3.61738 -0.905553 0
M  V30 749 N 78.3393 -0.321999 -1.54275 0
M  V30 750 C 79.5693 0.282642 -2.04658 0
M  V30 751 C 79.9773 1.46453 -1.19784 0
M  V30 752 O 79.3203 1.82367 -0.220932 0
M  V30 753 C 79.3823 0.781857 -3.50895 0
M  V30 754 C 79.0463 -0.277517 -4.56157 0
M  V30 755 C 80.0433 -1.11307 -5.07845 0
M  V30 756 C 77.7283 -0.425256 -5.00497 0
M  V30 757 C 79.7223 -2.08211 -6.02434 0
M  V30 758 C 77.4093 -1.39771 -5.94901 0
M  V30 759 C 78.4073 -2.2246 -6.45756 0
M  V30 760 O 78.0953 -3.18054 -7.38307 0
M  V30 761 H 77.8273 0.0622636 -0.673126 0
M  V30 762 H 80.3813 -0.465792 -2.00049 0
M  V30 763 H 78.6113 1.58118 -3.52896 0
M  V30 764 H 80.3003 1.30467 -3.84361 0
M  V30 765 H 81.0663 -1.00991 -4.74369 0
M  V30 766 H 76.9453 0.20847 -4.60528 0
M  V30 767 H 80.4893 -2.72791 -6.42052 0
M  V30 768 H 76.3863 -1.50152 -6.27794 0
M  V30 769 H 77.1543 -3.13275 -7.56175 0
M  V30 770 N 79.8174 1.5752 -0.0501392 0
M  V30 771 C 81.0454 1.96963 0.633492 0
M  V30 772 C 81.4604 0.927631 1.6444 0
M  V30 773 O 80.8174 -0.0882665 1.82286 0
M  V30 774 C 80.8684 3.36487 1.32132 0
M  V30 775 O 80.5894 4.36693 0.350894 0
M  V30 776 C 82.0904 3.90682 2.09481 0
M  V30 777 H 79.3104 0.648244 0.173266 0
M  V30 778 H 81.8544 2.0417 -0.116134 0
M  V30 779 H 80.0094 3.30434 2.02218 0
M  V30 780 H 80.4234 5.17702 0.841735 0
M  V30 781 H 81.8974 4.90591 2.5303 0
M  V30 782 H 82.3744 3.26053 2.94255 0
M  V30 783 H 82.9804 4.00069 1.44307 0
M  V30 784 N 81.2955 -0.223234 1.56011 0
M  V30 785 C 82.2255 -1.27988 1.95298 0
M  V30 786 C 83.2065 -1.48976 0.820979 0
M  V30 787 O 84.3915 -1.61188 1.08315 0
M  V30 788 C 81.5215 -2.63 2.26822 0
M  V30 789 C 80.4755 -2.56671 3.42497 0
M  V30 790 C 79.8015 -3.95697 3.59622 0
M  V30 791 C 81.1015 -2.11601 4.77517 0
M  V30 792 H 82.7955 -0.953525 2.8381 0
M  V30 793 H 80.3415 -0.457244 1.36548 0
M  V30 794 H 82.2945 -3.37077 2.52898 0
M  V30 795 H 81.0185 -2.9732 1.35161 0
M  V30 796 H 79.6775 -1.85051 3.16467 0
M  V30 797 H 79.3255 -4.27322 2.6534 0
M  V30 798 H 79.0255 -3.92345 4.37424 0
M  V30 799 H 80.5495 -4.71438 3.88044 0
M  V30 800 H 81.9635 -2.7542 5.02809 0
M  V30 801 H 80.3605 -2.19311 5.5859 0
M  V30 802 H 81.4305 -1.06824 4.72987 0
M  V30 803 N 82.7736 -1.49793 -0.48987 0
M  V30 804 C 83.6836 -1.70036 -1.61632 0
M  V30 805 C 84.6996 -0.583102 -1.63939 0
M  V30 806 O 85.8756 -0.859169 -1.82154 0
M  V30 807 C 82.9406 -1.77277 -2.97949 0
M  V30 808 C 82.0016 -3.00918 -3.06181 0
M  V30 809 C 81.2346 -3.07804 -4.35996 0
M  V30 810 O 81.4576 -2.21982 -5.25433 0
M  V30 811 O 80.3916 -4.00369 -4.49431 0
M  V30 812 H 84.2176 -2.65486 -1.47482 0
M  V30 813 H 81.8026 -1.33666 -0.667362 0
M  V30 814 H 83.6846 -1.84329 -3.78947 0
M  V30 815 H 82.3596 -0.850076 -3.12339 0
M  V30 816 H 81.2666 -2.99377 -2.2433 0
M  V30 817 H 82.5996 -3.92704 -2.96723 0
M  V30 818 N 84.2517 0.741722 -1.39055 0
M  V30 819 C 85.5287 1.49252 -1.26425 0
M  V30 820 C 85.9087 2.10705 0.129144 0
M  V30 821 O 85.2567 1.98045 1.13976 0
M  V30 822 C 85.4667 2.54934 -2.38347 0
M  V30 823 C 86.8147 3.21506 -2.77343 0
M  V30 824 O 87.8387 2.65245 -2.37747 0
M  V30 825 O 86.6977 4.23294 -3.45665 0
M  V30 826 H 83.7917 0.662451 -0.495064 0
M  V30 827 H 86.3377 0.776121 -1.50912 0
M  V30 828 H 85.1097 2.07857 -3.31529 0
M  V30 829 H 84.7327 3.34141 -2.15489 0
M  V30 830 N 85.7298 1.2412 0.971189 0
M  V30 831 C 86.6798 0.997551 2.05019 0
M  V30 832 C 87.6638 -0.0597747 1.60789 0
M  V30 833 O 88.8558 0.153516 1.76333 0
M  V30 834 C 85.9848 0.600557 3.38006 0
M  V30 835 C 85.0708 1.69377 3.88809 0
M  V30 836 N 85.4618 2.92586 4.12586 0
M  V30 837 C 83.7598 1.57048 4.17435 0
M  V30 838 C 84.4608 3.63431 4.54195 0
M  V30 839 N 83.4368 2.90979 4.59165 0
M  V30 840 H 87.2388 1.93316 2.21374 0
M  V30 841 H 84.7528 1.14194 1.1547 0
M  V30 842 H 86.7498 0.40725 4.14906 0
M  V30 843 H 85.4098 -0.327903 3.2304 0
M  V30 844 H 86.4208 3.288 4.00139 0
M  V30 845 H 83.0978 0.709798 4.11422 0
M  V30 846 H 84.4878 4.69102 4.81033 0
M  V30 847 N 87.2079 -1.17134 1.05439 0
M  V30 848 C 88.4359 -1.91372 0.786414 0
M  V30 849 C 88.8509 -1.76955 -0.658202 0
M  V30 850 O 88.2079 -1.10838 -1.44987 0
M  V30 851 C 88.2589 -3.42356 1.1608 0
M  V30 852 O 87.9799 -3.56332 2.54871 0
M  V30 853 C 89.4809 -4.33663 0.919322 0
M  V30 854 H 86.7009 -0.607118 0.285743 0
M  V30 855 H 89.2449 -1.48525 1.40572 0
M  V30 856 H 87.3999 -3.82939 0.586191 0
M  V30 857 H 87.8139 -4.49896 2.69618 0
M  V30 858 H 89.2879 -5.38099 1.231 0
M  V30 859 H 89.7649 -4.38959 -0.145359 0
M  V30 860 H 90.3709 -3.98796 1.47789 0
M  V30 861 N 88.686 -0.835752 -1.33615 0
M  V30 862 C 89.633 -0.26473 -2.29277 0
M  V30 863 C 90.603 0.617712 -1.54187 0
M  V30 864 O 91.788 0.556641 -1.825 0
M  V30 865 C 88.928 0.556777 -3.40579 0
M  V30 866 C 88.041 -0.349339 -4.30585 0
M  V30 867 C 87.176 0.482969 -5.29 0
M  V30 868 C 86.215 -0.421732 -6.10645 0
M  V30 869 N 85.352 0.372262 -7.01112 0
M  V30 870 H 90.192 -1.08582 -2.77514 0
M  V30 871 H 87.729 -0.546927 -1.36554 0
M  V30 872 H 89.687 1.04852 -4.03809 0
M  V30 873 H 88.317 1.34286 -2.93542 0
M  V30 874 H 87.369 -0.959372 -3.68104 0
M  V30 875 H 88.681 -1.04445 -4.87742 0
M  V30 876 H 87.835 1.03866 -5.97743 0
M  V30 877 H 86.574 1.21153 -4.72412 0
M  V30 878 H 85.579 -0.989464 -5.40823 0
M  V30 879 H 86.804 -1.14861 -6.69316 0
M  V30 880 H 84.75 1.08426 -6.46977 0
M  V30 881 H 84.667 -0.264198 -7.55538 0
M  V30 882 H 85.935 0.910293 -7.74167 0
M  V30 883 N 90.1641 1.46063 -0.591896 0
M  V30 884 C 91.0961 2.28539 0.174001 0
M  V30 885 C 92.1091 1.39047 0.846753 0
M  V30 886 O 93.2981 1.63564 0.714774 0
M  V30 887 C 90.3981 3.14347 1.26645 0
M  V30 888 C 89.5711 4.32021 0.683856 0
M  V30 889 C 88.6301 4.99157 1.66518 0
M  V30 890 O 87.6561 5.56458 1.19763 0
M  V30 891 N 88.8581 4.97005 2.99943 0
M  V30 892 H 91.6231 2.94911 -0.533633 0
M  V30 893 H 89.1841 1.56077 -0.430294 0
M  V30 894 H 91.1761 3.56125 1.92242 0
M  V30 895 H 89.7461 2.49988 1.87682 0
M  V30 896 H 88.9661 3.93915 -0.1498 0
M  V30 897 H 90.2541 5.08059 0.274567 0
M  V30 898 H 89.6521 4.51714 3.40545 0
M  V30 899 H 88.2091 5.42696 3.61004 0
M  V30 900 N 91.6422 0.330177 1.54103 0
M  V30 901 C 92.6052 -0.520144 2.2322 0
M  V30 902 C 93.6052 -1.03828 1.22786 0
M  V30 903 O 94.7952 -0.929652 1.4732 0
M  V30 904 C 91.9272 -1.72317 2.94142 0
M  V30 905 H 93.1202 0.0841605 2.99782 0
M  V30 906 H 90.6732 0.0813433 1.56088 0
M  V30 907 H 91.4082 -2.36653 2.21734 0
M  V30 908 H 91.1932 -1.35898 3.67796 0
M  V30 909 H 92.6832 -2.3266 3.46784 0
M  V30 910 N 93.1203 -1.57491 0.0584922 0
M  V30 911 C 94.3673 -1.92978 -0.613648 0
M  V30 912 C 94.6953 -0.937461 -1.70417 0
M  V30 913 O 93.9503 0.049078 -1.95638 0
M  V30 914 C 94.2493 -3.3513 -1.24188 0
M  V30 915 C 93.9153 -4.50037 -0.278826 0
M  V30 916 C 92.5773 -4.81198 -0.0138447 0
M  V30 917 C 94.9293 -5.19807 0.380777 0
M  V30 918 C 92.2573 -5.79473 0.918052 0
M  V30 919 C 94.6093 -6.19079 1.30091 0
M  V30 920 C 93.2733 -6.48665 1.57449 0
M  V30 921 H 92.5433 -0.706157 -0.22455 0
M  V30 922 H 95.1903 -1.91082 0.126533 0
M  V30 923 H 93.4953 -3.33429 -2.05749 0
M  V30 924 H 95.1923 -3.59871 -1.769 0
M  V30 925 H 91.7823 -4.25726 -0.495539 0
M  V30 926 H 95.9663 -4.95939 0.189158 0
M  V30 927 H 91.2223 -6.00727 1.1374 0
M  V30 928 H 95.3963 -6.7225 1.81804 0
M  V30 929 H 93.0233 -7.24628 2.29822 0
M  V30 930 N 94.5984 0.214957 -1.56127 0
M  V30 931 C 95.8464 0.936518 -1.79091 0
M  V30 932 C 96.1674 1.84606 -0.628148 0
M  V30 933 O 95.4374 1.92664 0.35462 0
M  V30 934 H 94.0174 0.3488 -0.660566 0
M  V30 935 H 96.6794 0.22523 -1.93594 0
M  V30 936 H 95.7754 1.53943 -2.71492 0
M  V30 937 N 96.0765 1.50051 0.48192 0
M  V30 938 C 97.3255 1.59741 1.23149 0
M  V30 939 C 97.6385 0.298163 1.93314 0
M  V30 940 O 98.8445 0.273835 2.70116 0
M  V30 941 C 97.3005 2.81926 2.23708 0
M  V30 942 C 96.9085 4.18685 1.59396 0
M  V30 943 C 98.6525 3.00956 2.99375 0
M  V30 944 C 96.5595 5.3207 2.58178 0
M  V30 945 H 95.4895 0.594838 0.46334 0
M  V30 946 H 98.1405 1.76467 0.503169 0
M  V30 947 H 96.5225 2.58736 2.99786 0
M  V30 948 H 97.6965 4.52088 0.891811 0
M  V30 949 H 96.0115 4.05171 0.960503 0
M  V30 950 H 98.6085 3.82836 3.73283 0
M  V30 951 H 98.9515 2.12258 3.58123 0
M  V30 952 H 99.4845 3.24277 2.30411 0
M  V30 953 H 96.2235 6.22888 2.04184 0
M  V30 954 H 95.7435 5.03098 3.26577 0
M  V30 955 H 97.4225 5.62196 3.20225 0
M  V30 956 N 97.5546 -0.734337 1.39446 0
M  V30 957 C 98.4876 -1.85715 1.32609 0
M  V30 958 C 99.4656 -1.6137 0.199636 0
M  V30 959 O 100.65 -1.84626 0.380195 0
M  V30 960 C 97.7766 -3.21709 1.05929 0
M  V30 961 C 96.8226 -3.64913 2.20773 0
M  V30 962 S 97.6556 -3.74203 3.83056 0
M  V30 963 C 98.8116 -5.12986 3.58603 0
M  V30 964 H 99.0446 -1.91232 2.27635 0
M  V30 965 H 96.5776 -0.899263 1.25509 0
M  V30 966 H 98.5356 -4.00236 0.912203 0
M  V30 967 H 97.1966 -3.13848 0.125883 0
M  V30 968 H 96.3896 -4.63606 1.97699 0
M  V30 969 H 95.9916 -2.93593 2.31688 0
M  V30 970 H 98.2836 -5.99339 3.15909 0
M  V30 971 H 99.2266 -5.41088 4.5676 0
M  V30 972 H 99.6346 -4.82694 2.9269 0
M  V30 973 N 99.0327 -1.24633 -0.964593 0
M  V30 974 C 99.9807 -1.03917 -2.08096 0
M  V30 975 C 100.975 0.0268581 -1.69379 0
M  V30 976 O 102.181 -0.127952 -1.79545 0
M  V30 977 H 98.5557 -0.319044 -0.680966 0
M  V30 978 H 100.527 -1.98581 -2.22729 0
M  V30 979 C 99.2757 -0.663983 -3.41301 0
M  V30 980 H 98.5987 -1.47605 -3.71555 0
M  V30 981 H 100.039 -0.558663 -4.20303 0
M  V30 982 C 98.4977 0.629169 -3.30973 0
M  V30 983 O 99.0277 1.67404 -3.65156 0
M  V30 984 N 97.2337 0.611057 -2.84103 0
M  V30 985 H 96.7807 -0.239593 -2.56483 0
M  V30 986 H 96.7387 1.47647 -2.77575 0
M  V30 987 N 100.511 1.16574 -1.06058 0
M  V30 988 C 101.421 2.2452 -0.680282 0
M  V30 989 C 102.437 1.71348 0.302604 0
M  V30 990 O 103.613 2.00822 0.152513 0
M  V30 991 C 100.678 3.46629 -0.0700315 0
M  V30 992 C 99.7388 4.14849 -1.10448 0
M  V30 993 C 98.9718 5.31129 -0.523256 0
M  V30 994 O 99.1948 5.66514 0.664709 0
M  V30 995 O 98.1288 5.88526 -1.26179 0
M  V30 996 H 101.955 2.59355 -1.58015 0
M  V30 997 H 99.5398 1.24043 -0.832694 0
M  V30 998 H 101.422 4.20543 0.268667 0
M  V30 999 H 100.097 3.13573 0.803353 0
M  V30 1000 H 99.0038 3.42916 -1.49532 0
M  V30 1001 H 100.337 4.51954 -1.94931 0
M  V30 1002 N 101.989 0.842826 1.3317 0
M  V30 1003 C 102.919 0.294028 2.31641 0
M  V30 1004 C 103.9 -0.600401 1.59151 0
M  V30 1005 O 105.085 -0.523124 1.87022 0
M  V30 1006 C 102.215 -0.528416 3.43257 0
M  V30 1007 C 101.169 0.27056 4.27144 0
M  V30 1008 C 100.495 -0.675881 5.30411 0
M  V30 1009 C 101.795 1.48981 5.00602 0
M  V30 1010 H 103.489 1.11681 2.77791 0
M  V30 1011 H 101.035 0.538478 1.33553 0
M  V30 1012 H 102.988 -0.922674 4.11175 0
M  V30 1013 H 101.712 -1.38445 2.95805 0
M  V30 1014 H 100.371 0.646427 3.60856 0
M  V30 1015 H 100.019 -1.52842 4.79216 0
M  V30 1016 H 99.7189 -0.145374 5.8742 0
M  V30 1017 H 101.243 -1.06757 6.01195 0
M  V30 1018 H 102.657 1.16849 5.61266 0
M  V30 1019 H 101.054 1.95739 5.6728 0
M  V30 1020 H 102.124 2.25746 4.29147 0
M  V30 1021 N 103.467 -1.45747 0.599634 0
M  V30 1022 C 104.883 -1.57424 0.26264 0
M  V30 1023 C 105.083 -1.59222 -1.23493 0
M  V30 1024 O 104.139 -1.51825 -2.01756 0
M  V30 1025 C 105.452 -2.86061 0.926795 0
M  V30 1026 C 107 -2.99722 0.901967 0
M  V30 1027 C 107.475 -4.31119 1.54598 0
M  V30 1028 N 108.966 -4.37858 1.5111 0
M  V30 1029 C 109.701 -5.3818 1.97863 0
M  V30 1030 N 109.197 -6.45083 2.52666 0
M  V30 1031 N 110.99 -5.29487 1.88679 0
M  V30 1032 H 103.141 -1.42823 1.57211 0
M  V30 1033 H 105.404 -0.68235 0.658105 0
M  V30 1034 H 105.11 -2.90605 1.98095 0
M  V30 1035 H 104.984 -3.74563 0.445238 0
M  V30 1036 H 107.371 -2.9475 -0.143617 0
M  V30 1037 H 107.452 -2.12652 1.42171 0
M  V30 1038 H 107.096 -4.36849 2.59085 0
M  V30 1039 H 107.026 -5.16992 1.00132 0
M  V30 1040 H 109.517 -3.61209 1.11068 0
M  V30 1041 H 109.83 -7.17869 2.86155 0
M  V30 1042 H 108.175 -6.45856 2.56701 0
M  V30 1043 H 111.366 -4.44877 1.4561 0
M  V30 1044 H 111.539 -6.07524 2.25429 0
M  V30 1045 N 104.945 -0.338344 -1.53925 0
M  V30 1046 C 105.875 0.51328 -2.27789 0
M  V30 1047 C 106.856 1.107 -1.29149 0
M  V30 1048 O 108.041 1.12937 -1.57984 0
M  V30 1049 C 105.171 1.66697 -3.04679 0
M  V30 1050 C 104.125 1.20183 -4.1078 0
M  V30 1051 C 103.451 2.44363 -4.75595 0
M  V30 1052 C 104.751 0.30605 -5.21403 0
M  V30 1053 H 106.445 -0.102883 -2.99223 0
M  V30 1054 H 103.991 -0.0509219 -1.4391 0
M  V30 1055 H 105.944 2.26915 -3.55088 0
M  V30 1056 H 104.668 2.30995 -2.30887 0
M  V30 1057 H 103.327 0.622499 -3.61276 0
M  V30 1058 H 102.975 3.07057 -3.98403 0
M  V30 1059 H 102.675 2.13925 -5.47275 0
M  V30 1060 H 104.199 3.05317 -5.28786 0
M  V30 1061 H 105.613 0.814929 -5.67478 0
M  V30 1062 H 104.01 0.0937929 -6.00027 0
M  V30 1063 H 105.08 -0.65921 -4.80398 0
M  V30 1064 N 106.423 1.57458 -0.0668435 0
M  V30 1065 C 107.648 1.9804 0.616027 0
M  V30 1066 C 108.073 0.944771 1.62652 0
M  V30 1067 O 107.431 -0.0902094 1.81075 0
M  V30 1068 C 107.479 3.37665 1.26549 0
M  V30 1069 O 106.583 3.36701 2.38131 0
M  V30 1070 H 105.924 0.644719 0.158849 0
M  V30 1071 H 108.454 2.04121 -0.139891 0
M  V30 1072 H 108.464 3.7474 1.6135 0
M  V30 1073 H 107.139 4.12573 0.525016 0
M  V30 1074 H 105.716 3.1139 2.0516 0
M  V30 1075 N 107.901 -0.206675 1.56239 0
M  V30 1076 C 108.833 -1.27997 1.9013 0
M  V30 1077 C 109.846 -1.42299 0.790883 0
M  V30 1078 O 111.035 -1.42931 1.06925 0
M  V30 1079 C 108.135 -2.65368 2.10792 0
M  V30 1080 C 107.308 -2.72824 3.41886 0
M  V30 1081 C 106.367 -3.9131 3.51799 0
M  V30 1082 O 105.393 -3.78953 4.24716 0
M  V30 1083 N 106.595 -5.06265 2.84035 0
M  V30 1084 H 109.36 -0.992444 2.82791 0
M  V30 1085 H 106.921 -0.396652 1.56966 0
M  V30 1086 H 108.913 -3.43039 2.14724 0
M  V30 1087 H 107.483 -2.86657 1.24685 0
M  V30 1088 H 106.703 -1.81515 3.49923 0
M  V30 1089 H 107.991 -2.74786 4.28217 0
M  V30 1090 H 107.389 -5.19203 2.246 0
M  V30 1091 H 105.946 -5.81925 2.93609 0
M  V30 1092 N 109.379 -1.50304 -0.473955 0
M  V30 1093 C 110.311 -1.65109 -1.58971 0
M  V30 1094 C 111.324 -0.532676 -1.53839 0
M  V30 1095 O 112.513 -0.805751 -1.59279 0
M  V30 1096 C 109.613 -1.61684 -2.97845 0
M  V30 1097 C 108.786 -2.8951 -3.27876 0
M  V30 1098 C 107.845 -2.78768 -4.4629 0
M  V30 1099 O 106.871 -3.52722 -4.46739 0
M  V30 1100 N 108.073 -1.9213 -5.47783 0
M  V30 1101 H 110.838 -2.61347 -1.46689 0
M  V30 1102 H 108.399 -1.47732 -0.662324 0
M  V30 1103 H 110.391 -1.52114 -3.75024 0
M  V30 1104 H 108.961 -0.731925 -3.03911 0
M  V30 1105 H 108.181 -3.13228 -2.39336 0
M  V30 1106 H 109.469 -3.74199 -3.4475 0
M  V30 1107 H 108.867 -1.31353 -5.50239 0
M  V30 1108 H 107.424 -1.88466 -6.23958 0
M  V30 1109 N 110.857 0.726932 -1.39834 0
M  V30 1110 C 111.787 1.85405 -1.41941 0
M  V30 1111 C 112.768 1.67751 -0.281728 0
M  V30 1112 O 113.953 1.8795 -0.488717 0
M  V30 1113 C 111.083 3.23243 -1.2701 0
M  V30 1114 C 110.037 3.55549 -2.38262 0
M  V30 1115 C 109.363 4.9241 -2.08415 0
M  V30 1116 C 110.663 3.577 -3.80589 0
M  V30 1117 H 112.357 1.83899 -2.36266 0
M  V30 1118 H 109.903 0.883349 -1.13723 0
M  V30 1119 H 111.856 4.01775 -1.27103 0
M  V30 1120 H 110.58 3.25296 -0.291564 0
M  V30 1121 H 109.239 2.79351 -2.37399 0
M  V30 1122 H 108.887 4.91052 -1.0898 0
M  V30 1123 H 108.587 5.14992 -2.82943 0
M  V30 1124 H 110.111 5.73289 -2.10171 0
M  V30 1125 H 111.525 4.26293 -3.83337 0
M  V30 1126 H 109.922 3.91804 -4.54543 0
M  V30 1127 H 110.992 2.57328 -4.10987 0
M  V30 1128 N 112.336 1.25143 0.95797 0
M  V30 1129 C 113.576 1.10893 1.71703 0
M  V30 1130 C 113.94 -0.34478 1.88879 0
M  V30 1131 O 115.141 -0.609014 2.6181 0
M  V30 1132 C 113.412 1.83889 3.06463 0
M  V30 1133 S 114.971 1.85491 3.97666 0
M  V30 1134 H 111.789 0.396428 0.590226 0
M  V30 1135 H 114.391 1.58618 1.14283 0
M  V30 1136 H 113.095 2.88756 2.9163 0
M  V30 1137 H 112.626 1.36538 3.68946 0
M  V30 1138 H 114.641 0.929553 4.87415 0
M  V30 1139 N 113.814 -1.1601 1.06675 0
M  V30 1140 C 115.091 -1.82679 0.699114 0
M  V30 1141 C 115.471 -1.94559 -0.819137 0
M  V30 1142 O 114.819 -1.49169 -1.73092 0
M  V30 1143 C 115.029 -3.19445 1.40555 0
M  V30 1144 C 116.377 -3.95171 1.55323 0
M  V30 1145 O 117.401 -3.28976 1.36577 0
M  V30 1146 O 116.26 -5.13833 1.86112 0
M  V30 1147 H 113.354 -0.788954 0.247951 0
M  V30 1148 H 115.9 -1.23179 1.16726 0
M  V30 1149 H 114.672 -3.05856 2.44065 0
M  V30 1150 H 114.295 -3.86625 0.927733 0
M  V30 1151 N 115.292 -0.849877 -1.32721 0
M  V30 1152 C 116.538 -0.451591 -1.97708 0
M  V30 1153 C 116.871 0.989175 -1.6712 0
M  V30 1154 O 116.146 1.69334 -0.956891 0
M  V30 1155 C 116.429 -0.685598 -3.53513 0
M  V30 1156 C 116.282 -2.17444 -3.93749 0
M  V30 1157 C 117.601 -0.138874 -4.39881 0
M  V30 1158 H 114.72 -0.16555 -0.718166 0
M  V30 1159 H 117.362 -1.06742 -1.57182 0
M  V30 1160 H 115.512 -0.161416 -3.88165 0
M  V30 1161 H 117.184 -2.76433 -3.693 0
M  V30 1162 H 115.427 -2.65476 -3.43081 0
M  V30 1163 H 116.098 -2.28888 -5.02309 0
M  V30 1164 H 118.574 -0.587068 -4.11938 0
M  V30 1165 H 117.45 -0.332213 -5.47894 0
M  V30 1166 H 117.711 0.95806 -4.31594 0
M  V30 1167 N 116.77 1.45427 -0.607355 0
M  V30 1168 C 117.998 2.06614 -0.108814 0
M  V30 1169 C 118.413 1.45204 1.2067 0
M  V30 1170 O 117.77 0.566132 1.73497 0
M  V30 1171 C 117.821 3.61481 0.0375347 0
M  V30 1172 O 117.542 4.20598 -1.22593 0
M  V30 1173 C 119.043 4.39652 0.567561 0
M  V30 1174 H 116.263 0.66747 -0.0687351 0
M  V30 1175 H 118.807 1.86675 -0.835022 0
M  V30 1176 H 116.962 3.80762 0.714068 0
M  V30 1177 H 117.376 5.1377 -1.05547 0
M  V30 1178 H 118.85 5.48518 0.61905 0
M  V30 1179 H 119.327 4.09417 1.58978 0
M  V30 1180 H 119.933 4.25234 -0.0749202 0
M  V30 1181 N 118.248 0.346503 1.53744 0
M  V30 1182 C 119.178 -0.501193 2.28058 0
M  V30 1183 C 120.159 -1.10014 1.29734 0
M  V30 1184 O 121.344 -1.12097 1.58581 0
M  V30 1185 C 118.474 -1.65078 3.05559 0
M  V30 1186 C 117.428 -1.18003 4.11411 0
M  V30 1187 C 116.754 -2.41837 4.76884 0
M  V30 1188 C 118.054 -0.278394 5.21558 0
M  V30 1189 H 119.748 0.11875 2.99164 0
M  V30 1190 H 117.294 0.0585531 1.43881 0
M  V30 1191 H 119.247 -2.25028 3.56287 0
M  V30 1192 H 117.971 -2.29767 2.32109 0
M  V30 1193 H 116.63 -0.603331 3.61601 0
M  V30 1194 H 116.278 -3.0494 4.00026 0
M  V30 1195 H 115.978 -2.1102 5.48402 0
M  V30 1196 H 117.502 -3.02508 5.30397 0
M  V30 1197 H 118.916 -0.784823 5.67903 0
M  V30 1198 H 117.313 -0.0619707 6.00068 0
M  V30 1199 H 118.383 0.684677 4.80042 0
M  V30 1200 N 119.726 -1.57421 0.075193 0
M  V30 1201 C 120.658 -2.09904 -0.920483 0
M  V30 1202 C 121.671 -1.03191 -1.25918 0
M  V30 1203 O 122.86 -1.30695 -1.21577 0
M  V30 1204 C 119.96 -2.54726 -2.23534 0
M  V30 1205 C 119.133 -3.8505 -2.07498 0
M  V30 1206 C 118.192 -4.15929 -3.22319 0
M  V30 1207 O 117.218 -4.85474 -2.9716 0
M  V30 1208 N 118.42 -3.69745 -4.47514 0
M  V30 1209 H 121.185 -2.95954 -0.472359 0
M  V30 1210 H 118.746 -1.61523 -0.110444 0
M  V30 1211 H 120.738 -2.72443 -2.9926 0
M  V30 1212 H 119.308 -1.73795 -2.59835 0
M  V30 1213 H 118.528 -3.76679 -1.16219 0
M  V30 1214 H 119.816 -4.70348 -1.94038 0
M  V30 1215 H 119.214 -3.13569 -4.7084 0
M  V30 1216 H 117.771 -3.92655 -5.20255 0
M  V30 1217 N 121.204 0.198386 -1.56346 0
M  V30 1218 C 122.45 0.920648 -1.80698 0
M  V30 1219 C 122.783 1.83045 -0.648697 0
M  V30 1220 O 122.058 1.91308 0.350925 0
M  V30 1221 C 122.341 1.73971 -3.15287 0
M  V30 1222 C 122.194 0.85485 -4.41602 0
M  V30 1223 C 123.513 2.71296 -3.46535 0
M  V30 1224 H 120.632 0.333261 -0.657348 0
M  V30 1225 H 123.274 0.188198 -1.89066 0
M  V30 1226 H 121.424 2.36416 -3.08285 0
M  V30 1227 H 123.096 0.245362 -4.60647 0
M  V30 1228 H 121.339 0.161398 -4.335 0
M  V30 1229 H 122.01 1.46286 -5.32264 0
M  V30 1230 H 124.486 2.18983 -3.53816 0
M  V30 1231 H 123.362 3.2569 -4.41834 0
M  V30 1232 H 123.623 3.5018 -2.69864 0
M  V30 1233 N 122.682 1.50554 0.465978 0
M  V30 1234 C 123.629 1.6979 1.56333 0
M  V30 1235 C 124.599 0.539239 1.57103 0
M  V30 1236 O 125.784 0.770401 1.74555 0
M  V30 1237 C 122.924 1.80273 2.94271 0
M  V30 1238 C 122.037 3.07674 3.0325 0
M  V30 1239 C 121.172 3.08922 4.32135 0
M  V30 1240 C 120.211 4.30755 4.34875 0
M  V30 1241 N 119.348 4.29714 5.55239 0
M  V30 1242 H 124.188 2.63472 1.39235 0
M  V30 1243 H 121.725 1.30602 0.676873 0
M  V30 1244 H 123.683 1.84332 3.74269 0
M  V30 1245 H 122.313 0.900258 3.09992 0
M  V30 1246 H 121.365 3.13062 2.16094 0
M  V30 1247 H 122.677 3.97642 3.01135 0
M  V30 1248 H 121.831 3.11738 5.20485 0
M  V30 1249 H 120.57 2.16792 4.36866 0
M  V30 1250 H 119.575 4.28146 3.44922 0
M  V30 1251 H 120.8 5.24117 4.31831 0
M  V30 1252 H 118.746 3.4044 5.60746 0
M  V30 1253 H 118.663 5.13456 5.54886 0
M  V30 1254 H 119.931 4.36683 6.457 0
M  V30 1255 N 124.16 -0.719506 1.40217 0
M  V30 1256 C 125.39 -1.50646 1.41384 0
M  V30 1257 C 125.798 -1.89197 0.0107743 0
M  V30 1258 O 125.141 -1.55709 -0.974708 0
M  V30 1259 C 125.203 -2.81405 2.23722 0
M  V30 1260 C 124.867 -2.65199 3.72181 0
M  V30 1261 C 125.864 -2.32717 4.64907 0
M  V30 1262 C 123.549 -2.81586 4.1595 0
M  V30 1263 C 125.543 -2.16827 5.99387 0
M  V30 1264 C 123.23 -2.65313 5.50502 0
M  V30 1265 C 124.228 -2.32981 6.42035 0
M  V30 1266 O 123.916 -2.16827 7.74107 0
M  V30 1267 H 123.648 -0.471606 0.484318 0
M  V30 1268 H 126.202 -0.895456 1.84853 0
M  V30 1269 H 124.432 -3.44823 1.75026 0
M  V30 1270 H 126.121 -3.43102 2.16878 0
M  V30 1271 H 126.887 -2.19694 4.32388 0
M  V30 1272 H 122.766 -3.0574 3.45027 0
M  V30 1273 H 126.31 -1.91513 6.70797 0
M  V30 1274 H 122.207 -2.7792 5.82607 0
M  V30 1275 H 122.975 -2.31778 7.84998 0
M  V30 1276 N 125.638 -1.25649 -0.95132 0
M  V30 1277 C 126.57 -1.02112 -2.05197 0
M  V30 1278 C 127.583 0.0150571 -1.62793 0
M  V30 1279 O 128.772 -0.223874 -1.77091 0
M  V30 1280 C 125.872 -0.522361 -3.3485 0
M  V30 1281 C 125.045 -1.62546 -4.06076 0
M  V30 1282 C 124.104 -1.12649 -5.14001 0
M  V30 1283 O 123.13 -1.82156 -5.39266 0
M  V30 1284 N 124.332 0.03047 -5.80492 0
M  V30 1285 H 127.097 -1.96885 -2.25957 0
M  V30 1286 H 124.658 -1.16899 -1.1201 0
M  V30 1287 H 126.65 -0.172961 -4.0433 0
M  V30 1288 H 125.22 0.33151 -3.10837 0
M  V30 1289 H 124.44 -2.14628 -3.30649 0
M  V30 1290 H 125.728 -2.36644 -4.50419 0
M  V30 1291 H 125.126 0.611169 -5.62389 0
M  V30 1292 H 123.683 0.320875 -6.5101 0
M  V30 1293 N 127.117 1.15442 -1.07289 0
M  V30 1294 C 128.394 1.82306 -0.708792 0
M  V30 1295 C 128.774 1.94991 0.808807 0
M  V30 1296 O 128.122 1.50085 1.72298 0
M  V30 1297 C 128.332 3.18695 -1.42247 0
M  V30 1298 C 129.68 3.94341 -1.57417 0
M  V30 1299 O 130.704 3.28247 -1.38319 0
M  V30 1300 O 129.563 5.12839 -1.88834 0
M  V30 1301 H 126.657 0.787628 -0.252132 0
M  V30 1302 H 129.203 1.22559 -1.17377 0
M  V30 1303 H 127.975 3.04557 -2.45684 0
M  V30 1304 H 127.598 3.86128 -0.948223 0
M  V30 1305 N 128.595 0.856903 1.32268 0
M  V30 1306 C 129.558 0.308171 2.27119 0
M  V30 1307 C 130.558 -0.533421 1.51695 0
M  V30 1308 O 131.748 -0.344607 1.70757 0
M  V30 1309 C 128.88 -0.563757 3.36206 0
M  V30 1310 H 130.073 1.14535 2.77167 0
M  V30 1311 H 127.626 0.631421 1.42978 0
M  V30 1312 H 128.361 -1.42266 2.91429 0
M  V30 1313 H 128.146 0.0386749 3.92081 0
M  V30 1314 H 129.636 -0.940386 4.06874 0
M  V30 1315 N 130.073 -1.45103 0.615059 0
M  V30 1316 C 131.484 -1.85654 0.197383 0
M  V30 1317 C 131.835 -1.51433 -1.24749 0
M  V30 1318 O 130.96 -0.944608 -1.94695 0
M  V30 1319 C 131.555 -3.36972 0.351448 0
M  V30 1320 C 130.114 -3.76398 -0.011593 0
M  V30 1321 C 129.261 -2.69024 0.672394 0
M  V30 1322 H 132.212 -1.35797 0.821263 0
M  V30 1323 H 132.233 -3.78239 -0.414227 0
M  V30 1324 H 131.745 -3.61847 1.40314 0
M  V30 1325 H 129.846 -3.5714 -1.06217 0
M  V30 1326 H 129.959 -4.77532 0.387265 0
M  V30 1327 H 128.323 -2.54465 0.109284 0
M  V30 1328 H 129.106 -2.96735 1.72636 0
M  V30 1329 N 131.551 -0.354651 -1.53558 0
M  V30 1330 C 132.514 0.484566 -2.24019 0
M  V30 1331 C 133.514 1.01861 -1.24422 0
M  V30 1332 O 134.704 0.906097 -1.4878 0
M  V30 1333 C 131.836 1.67615 -2.96847 0
M  V30 1334 H 133.029 -0.131843 -2.9961 0
M  V30 1335 H 130.582 -0.106165 -1.55939 0
M  V30 1336 H 131.317 2.33095 -2.25471 0
M  V30 1337 H 131.102 1.30029 -3.69912 0
M  V30 1338 H 132.592 2.27114 -3.50441 0
M  V30 1339 N 133.029 1.57378 -0.0835403 0
M  V30 1340 C 133.992 2.12252 0.864959 0
M  V30 1341 C 134.992 1.04916 1.21858 0
M  V30 1342 O 136.182 1.30853 1.14991 0
M  V30 1343 C 133.314 2.63358 2.16461 0
M  V30 1344 H 134.507 2.97371 0.388676 0
M  V30 1345 H 132.06 1.55423 0.165317 0
M  V30 1346 H 132.795 1.81727 2.686 0
M  V30 1347 H 132.58 3.41826 1.92087 0
M  V30 1348 H 134.07 3.05847 2.84337 0
M  V30 1349 N 134.507 -0.190092 1.56449 0
M  V30 1350 C 135.439 -1.25973 1.91477 0
M  V30 1351 C 136.452 -1.41452 0.805931 0
M  V30 1352 O 137.641 -1.41789 1.08435 0
M  V30 1353 C 134.741 -2.63117 2.13594 0
M  V30 1354 C 133.914 -2.69182 3.4476 0
M  V30 1355 C 132.973 -3.87557 3.5593 0
M  V30 1356 O 131.999 -3.74427 4.28711 0
M  V30 1357 N 133.201 -5.03224 2.89388 0
M  V30 1358 H 135.966 -0.962394 2.83828 0
M  V30 1359 H 133.527 -0.379981 1.57378 0
M  V30 1360 H 135.519 -3.40742 2.1835 0
M  V30 1361 H 134.089 -2.85319 1.27719 0
M  V30 1362 H 133.309 -1.77793 3.51828 0
M  V30 1363 H 134.597 -2.70229 4.31107 0
M  V30 1364 H 133.995 -5.16791 2.30094 0
M  V30 1365 H 132.552 -5.78778 2.99764 0
M  V30 1366 N 135.985 -1.50799 -0.457987 0
M  V30 1367 C 137.232 -1.62442 -1.20908 0
M  V30 1368 C 137.56 -0.330865 -1.91665 0
M  V30 1369 O 136.815 0.68401 -1.83357 0
M  V30 1370 C 137.114 -2.76358 -2.2663 0
M  V30 1371 C 136.78 -4.16378 -1.73033 0
M  V30 1372 C 135.442 -4.54473 -1.58138 0
M  V30 1373 C 137.794 -5.03836 -1.33413 0
M  V30 1374 C 135.122 -5.77754 -1.02065 0
M  V30 1375 C 137.474 -6.27676 -0.78778 0
M  V30 1376 C 136.138 -6.64562 -0.625561 0
M  V30 1377 H 135.408 -0.594417 -0.442435 0
M  V30 1378 H 138.055 -1.84772 -0.503136 0
M  V30 1379 H 136.36 -2.48167 -3.03184 0
M  V30 1380 H 138.057 -2.82568 -2.84528 0
M  V30 1381 H 134.647 -3.86331 -1.85598 0
M  V30 1382 H 138.831 -4.75026 -1.4375 0
M  V30 1383 H 134.087 -6.04997 -0.882547 0
M  V30 1384 H 138.261 -6.94797 -0.472177 0
M  V30 1385 H 135.888 -7.59965 -0.188926 0
M  V30 1386 N 137.463 0.71206 -1.40597 0
M  V30 1387 C 138.396 1.83582 -1.35546 0
M  V30 1388 C 139.374 1.61032 -0.225284 0
M  V30 1389 O 140.558 1.83998 -0.409519 0
M  V30 1390 C 137.685 3.19983 -1.11034 0
M  V30 1391 C 136.731 3.61355 -2.2655 0
M  V30 1392 S 137.564 3.68062 -3.88961 0
M  V30 1393 C 138.72 5.07216 -3.66719 0
M  V30 1394 H 138.953 1.87586 -2.30648 0
M  V30 1395 H 136.486 0.879182 -1.26924 0
M  V30 1396 H 138.444 3.98734 -0.975761 0
M  V30 1397 H 137.105 3.13608 -0.175798 0
M  V30 1398 H 136.298 4.60403 -2.0505 0
M  V30 1399 H 135.9 2.8987 -2.36329 0
M  V30 1400 H 138.192 5.94238 -3.25404 0
M  V30 1401 H 139.135 5.33753 -4.6531 0
M  V30 1402 H 139.543 4.77976 -3.00332 0
M  V30 1403 N 138.941 1.26152 0.944643 0
M  V30 1404 C 139.904 1.07474 2.0244 0
M  V30 1405 C 140.904 0.0242064 1.60782 0
M  V30 1406 O 142.094 0.267302 1.72137 0
M  V30 1407 C 139.226 0.633956 3.34953 0
M  V30 1408 H 140.419 2.03336 2.20442 0
M  V30 1409 H 137.972 1.087 1.12312 0
M  V30 1410 H 138.707 -0.326811 3.22649 0
M  V30 1411 H 138.492 1.39247 3.66542 0
M  V30 1412 H 139.982 0.52501 4.14287 0
M  V30 1413 N 140.419 -1.14872 1.07899 0
M  V30 1414 C 141.369 -2.17809 0.674027 0
M  V30 1415 C 142.353 -1.58008 -0.303699 0
M  V30 1416 O 143.545 -1.76616 -0.11654 0
M  V30 1417 C 140.674 -3.43208 0.0793318 0
M  V30 1418 C 139.76 -4.10051 1.08253 0
M  V30 1419 N 140.151 -4.52296 2.2641 0
M  V30 1420 C 138.449 -4.36469 0.917124 0
M  V30 1421 C 139.15 -5.04199 2.901 0
M  V30 1422 N 138.126 -4.98088 2.17736 0
M  V30 1423 H 141.928 -2.48207 1.57386 0
M  V30 1424 H 139.442 -1.315 0.952976 0
M  V30 1425 H 141.439 -4.16272 -0.228719 0
M  V30 1426 H 140.099 -3.14291 -0.815551 0
M  V30 1427 H 141.11 -4.45504 2.64096 0
M  V30 1428 H 137.787 -4.17432 0.0756078 0
M  V30 1429 H 139.177 -5.46802 3.90458 0
M  V30 1430 N 141.898 -0.863906 -1.31812 0
M  V30 1431 C 142.845 -0.313303 -2.28664 0
M  V30 1432 C 143.815 0.584868 -1.55462 0
M  V30 1433 O 145 0.517805 -1.83639 0
M  V30 1434 C 142.14 0.48441 -3.41683 0
M  V30 1435 C 141.253 -0.440594 -4.29747 0
M  V30 1436 C 140.388 0.370652 -5.29905 0
M  V30 1437 C 139.427 -0.551164 -6.09613 0
M  V30 1438 N 138.564 0.223462 -7.01744 0
M  V30 1439 H 143.404 -1.14444 -2.75148 0
M  V30 1440 H 140.941 -0.575769 -1.35364 0
M  V30 1441 H 142.899 0.962627 -4.05943 0
M  V30 1442 H 141.529 1.28029 -2.96325 0
M  V30 1443 H 140.581 -1.03724 -3.65986 0
M  V30 1444 H 141.893 -1.14767 -4.85417 0
M  V30 1445 H 141.047 0.911638 -5.99812 0
M  V30 1446 H 139.786 1.11105 -4.74876 0
M  V30 1447 H 138.791 -1.10396 -5.38603 0
M  V30 1448 H 140.016 -1.29032 -6.66729 0
M  V30 1449 H 137.962 0.946787 -6.49132 0
M  V30 1450 H 137.879 -0.424399 -7.54808 0
M  V30 1451 H 139.147 0.745876 -7.75923 0
M  V30 1452 N 143.376 1.44774 -0.622745 0
M  V30 1453 C 144.622 2.0242 -0.124083 0
M  V30 1454 C 144.955 1.4881 1.24777 0
M  V30 1455 O 144.23 0.668799 1.8264 0
M  V30 1456 C 144.513 3.59957 -0.101619 0
M  V30 1457 C 144.366 4.23867 -1.50521 0
M  V30 1458 C 145.685 4.36284 0.578272 0
M  V30 1459 H 142.804 0.735528 -0.0465645 0
M  V30 1460 H 145.446 1.72447 -0.797617 0
M  V30 1461 H 143.596 3.85623 0.471934 0
M  V30 1462 H 145.268 4.09336 -2.12701 0
M  V30 1463 H 143.511 3.81684 -2.06154 0
M  V30 1464 H 144.182 5.32843 -1.4416 0
M  V30 1465 H 146.658 4.16001 0.0906057 0
M  V30 1466 H 145.534 5.46004 0.563149 0
M  V30 1467 H 145.795 4.10271 1.64713 0
M  V30 1468 N 144.854 0.36279 1.53368 0
M  V30 1469 C 146.1 -0.228113 2.01513 0
M  V30 1470 C 146.433 -1.48648 1.2497 0
M  V30 1471 O 145.708 -1.91459 0.342616 0
M  V30 1472 C 145.991 -0.522884 3.56284 0
M  V30 1473 C 145.844 0.74892 4.43521 0
M  V30 1474 C 147.163 -1.32461 4.19693 0
M  V30 1475 H 144.282 -0.0814343 0.732487 0
M  V30 1476 H 146.924 0.48713 1.83649 0
M  V30 1477 H 145.074 -1.1322 3.71636 0
M  V30 1478 H 146.746 1.38648 4.39971 0
M  V30 1479 H 144.989 1.36986 4.11603 0
M  V30 1480 H 145.66 0.497667 5.49752 0
M  V30 1481 H 148.136 -0.809203 4.08156 0
M  V30 1482 H 147.012 -1.49961 5.28018 0
M  V30 1483 H 147.273 -2.33232 3.75573 0
M  V30 1484 N 146.332 -1.57332 0.0918853 0
M  V30 1485 C 147.262 -2.16872 -0.865371 0
M  V30 1486 C 148.243 -1.10118 -1.29646 0
M  V30 1487 O 149.428 -1.38242 -1.36392 0
M  V30 1488 C 146.558 -2.74649 -2.12569 0
M  V30 1489 C 145.512 -3.86747 -1.83333 0
M  V30 1490 C 144.838 -4.31212 -3.16166 0
M  V30 1491 C 146.138 -5.10089 -1.1228 0
M  V30 1492 H 147.832 -2.97114 -0.369307 0
M  V30 1493 H 145.378 -1.42918 -0.176194 0
M  V30 1494 H 147.331 -3.14952 -2.7997 0
M  V30 1495 H 146.055 -1.91657 -2.64452 0
M  V30 1496 H 144.714 -3.46978 -1.18331 0
M  V30 1497 H 144.362 -3.45115 -3.6593 0
M  V30 1498 H 144.062 -5.06788 -2.97388 0
M  V30 1499 H 145.586 -4.74146 -3.84731 0
M  V30 1500 H 147 -5.47582 -1.69785 0
M  V30 1501 H 145.397 -5.91073 -1.03693 0
M  V30 1502 H 146.467 -4.84786 -0.105041 0
M  V30 1503 N 147.81 0.181792 -1.56548 0
M  V30 1504 C 148.773 1.20894 -1.94724 0
M  V30 1505 C 149.773 1.37738 -0.829747 0
M  V30 1506 O 150.963 1.35323 -1.09697 0
M  V30 1507 C 148.095 2.57593 -2.23291 0
M  V30 1508 H 149.288 0.882275 -2.86629 0
M  V30 1509 H 146.841 0.423838 -1.50444 0
M  V30 1510 H 147.576 2.95291 -1.34067 0
M  V30 1511 H 147.361 2.46735 -3.04736 0
M  V30 1512 H 148.851 3.31637 -2.53785 0
M  V30 1513 N 149.288 1.51039 0.449983 0
M  V30 1514 C 150.513 1.6715 1.22783 0
M  V30 1515 C 150.938 0.363081 1.84563 0
M  V30 1516 O 150.296 -0.675433 1.68249 0
M  V30 1517 C 150.344 2.77985 2.29689 0
M  V30 1518 O 149.448 2.40707 3.34864 0
M  V30 1519 H 148.789 0.557746 0.360299 0
M  V30 1520 H 151.319 1.97535 0.533005 0
M  V30 1521 H 151.329 3.01693 2.74673 0
M  V30 1522 H 150.004 3.72935 1.84098 0
M  V30 1523 H 148.581 2.27523 2.95445 0
M  V30 1524 N 150.766 -0.704594 1.40972 0
M  V30 1525 C 151.991 -1.49858 1.43378 0
M  V30 1526 C 152.416 -1.88061 0.038184 0
M  V30 1527 O 151.774 -1.5402 -0.956425 0
M  V30 1528 C 151.822 -2.74333 2.34038 0
M  V30 1529 O 150.926 -3.7147 1.7912 0
M  V30 1530 H 150.267 -0.45139 0.486974 0
M  V30 1531 H 152.797 -0.866832 1.8533 0
M  V30 1532 H 152.807 -3.22741 2.49604 0
M  V30 1533 H 151.482 -2.45863 3.35446 0
M  V30 1534 H 150.059 -3.30363 1.72958 0
M  V30 1535 N 152.244 -1.26651 -0.937939 0
M  V30 1536 C 153.469 -1.15279 -1.72411 0
M  V30 1537 C 153.894 0.287866 -1.85884 0
M  V30 1538 O 153.252 1.20855 -1.35143 0
M  V30 1539 C 153.3 -1.83028 -3.10698 0
M  V30 1540 O 152.404 -1.12128 -3.96864 0
M  V30 1541 H 151.745 -0.401504 -0.528858 0
M  V30 1542 H 154.275 -1.67531 -1.1745 0
M  V30 1543 H 154.285 -1.89981 -3.6107 0
M  V30 1544 H 152.96 -2.87833 -3.00208 0
M  V30 1545 H 151.537 -1.13173 -3.55312 0
M  V30 1546 N 153.722 1.14298 -1.08507 0
M  V30 1547 C 155.133 1.66926 -0.836227 0
M  V30 1548 C 155.484 1.85576 0.63686 0
M  V30 1549 O 154.609 1.56767 1.49175 0
M  V30 1550 C 155.204 3.03219 -1.51142 0
M  V30 1551 C 153.763 3.52876 -1.30979 0
M  V30 1552 C 152.91 2.2833 -1.57356 0
M  V30 1553 H 155.861 0.983491 -1.24552 0
M  V30 1554 H 155.882 3.68726 -0.939211 0
M  V30 1555 H 155.394 2.89612 -2.58353 0
M  V30 1556 H 153.495 3.71703 -0.258429 0
M  V30 1557 H 153.608 4.33586 -2.03814 0
M  V30 1558 H 151.972 2.34454 -0.995164 0
M  V30 1559 H 152.755 2.17298 -2.65775 0
M  V30 1560 N 155.201 0.870884 1.31352 0
M  V30 1561 C 156.447 0.482987 1.96965 0
M  V30 1562 C 156.78 -0.962462 1.68672 0
M  V30 1563 O 156.055 -1.6779 0.98371 0
M  V30 1564 C 156.338 0.741752 3.52378 0
M  V30 1565 C 156.191 2.2368 3.9024 0
M  V30 1566 C 157.51 0.208838 4.39604 0
M  V30 1567 H 154.629 0.176955 0.715441 0
M  V30 1568 H 157.271 1.09229 1.55464 0
M  V30 1569 H 155.421 0.223149 3.87859 0
M  V30 1570 H 157.093 2.82273 3.64856 0
M  V30 1571 H 155.336 2.70901 3.38814 0
M  V30 1572 H 156.007 2.3685 4.98604 0
M  V30 1573 H 158.483 0.652529 4.10952 0
M  V30 1574 H 157.359 0.419336 5.47296 0
M  V30 1575 H 157.62 -0.889275 4.33064 0
M  V30 1576 N 156.679 -1.44442 0.630414 0
M  V30 1577 C 157.926 -2.02052 0.134617 0
M  V30 1578 C 158.254 -1.49576 -1.24327 0
M  V30 1579 O 157.509 -0.669806 -1.83881 0
M  V30 1580 C 157.808 -3.57332 0.0697835 0
M  V30 1581 C 157.474 -4.29058 1.38635 0
M  V30 1582 C 156.136 -4.4837 1.74694 0
M  V30 1583 C 158.488 -4.69872 2.25543 0
M  V30 1584 C 155.816 -5.05756 2.97369 0
M  V30 1585 C 158.168 -5.28616 3.47487 0
M  V30 1586 C 156.832 -5.46147 3.8377 0
M  V30 1587 H 156.102 -0.739361 0.0492598 0
M  V30 1588 H 158.749 -1.73217 0.816586 0
M  V30 1589 H 157.054 -3.85577 -0.695553 0
M  V30 1590 H 158.751 -3.99637 -0.330344 0
M  V30 1591 H 155.341 -4.14357 1.09574 0
M  V30 1592 H 159.525 -4.54666 1.98979 0
M  V30 1593 H 154.781 -5.17515 3.25558 0
M  V30 1594 H 158.955 -5.59192 4.15063 0
M  V30 1595 H 156.582 -5.9038 4.7891 0
M  V30 1596 N 158.157 -0.370918 -1.53173 0
M  V30 1597 C 159.104 0.473035 -2.259 0
M  V30 1598 C 160.074 1.07311 -1.26781 0
M  V30 1599 O 161.259 1.1046 -1.55574 0
M  V30 1600 C 158.399 1.60405 -3.05556 0
M  V30 1601 C 157.512 1.02863 -4.19575 0
M  V30 1602 C 156.647 2.12918 -4.86661 0
M  V30 1603 C 155.686 1.52869 -5.92704 0
M  V30 1604 N 154.823 2.56779 -6.53459 0
M  V30 1605 H 159.663 -0.153649 -2.97604 0
M  V30 1606 H 157.2 -0.0875946 -1.46839 0
M  V30 1607 H 159.158 2.27034 -3.50016 0
M  V30 1608 H 157.788 2.20131 -2.36097 0
M  V30 1609 H 156.84 0.252465 -3.79561 0
M  V30 1610 H 158.152 0.549642 -4.95762 0
M  V30 1611 H 157.306 2.87356 -5.34333 0
M  V30 1612 H 156.045 2.6417 -4.09958 0
M  V30 1613 H 155.05 0.769479 -5.44389 0
M  V30 1614 H 156.275 1.02435 -6.7133 0
M  V30 1615 H 154.221 3.07235 -5.79606 0
M  V30 1616 H 154.138 2.13583 -7.25202 0
M  V30 1617 H 155.406 3.30903 -7.05779 0
M  V30 1618 N 159.635 1.57281 -0.100228 0
M  V30 1619 C 160.598 2.13158 0.842398 0
M  V30 1620 C 161.598 1.06202 1.20738 0
M  V30 1621 O 162.788 1.32066 1.13597 0
M  V30 1622 C 159.92 2.65639 2.13655 0
M  V30 1623 H 161.113 2.97766 0.357114 0
M  V30 1624 H 158.666 1.5559 0.148823 0
M  V30 1625 H 159.401 1.84566 2.66657 0
M  V30 1626 H 159.186 3.43844 1.88451 0
M  V30 1627 H 160.676 3.08846 2.81077 0
M  V30 1628 N 161.113 -0.173488 1.56642 0
M  V30 1629 C 162.046 -1.24353 1.91342 0
M  V30 1630 C 163.024 -1.4289 0.775965 0
M  V30 1631 O 164.208 -1.57932 1.02907 0
M  V30 1632 C 161.335 -2.60683 2.16245 0
M  V30 1633 C 160.381 -2.58894 3.38934 0
M  V30 1634 S 161.214 -2.0819 4.93373 0
M  V30 1635 C 162.37 -3.46302 5.21369 0
M  V30 1636 H 162.603 -0.947345 2.81803 0
M  V30 1637 H 160.136 -0.377958 1.49703 0
M  V30 1638 H 162.094 -3.39149 2.31275 0
M  V30 1639 H 160.755 -2.87502 1.26496 0
M  V30 1640 H 159.948 -3.59188 3.53553 0
M  V30 1641 H 159.55 -1.88522 3.2301 0
M  V30 1642 H 161.842 -4.42287 5.13214 0
M  V30 1643 H 162.785 -3.3656 6.23003 0
M  V30 1644 H 163.193 -3.42214 4.48943 0
M  V30 1645 N 162.591 -1.51276 -0.441967 0
M  V30 1646 C 163.838 -1.63715 -1.19179 0
M  V30 1647 C 164.166 -0.351175 -1.91303 0
M  V30 1648 O 163.421 0.664524 -1.84072 0
M  V30 1649 C 163.72 -2.78746 -2.23686 0
M  V30 1650 C 163.386 -4.18189 -1.68607 0
M  V30 1651 C 162.048 -4.56125 -1.53308 0
M  V30 1652 C 164.4 -5.05222 -1.28062 0
M  V30 1653 C 161.728 -5.78804 -0.959317 0
M  V30 1654 C 164.08 -6.28476 -0.721162 0
M  V30 1655 C 162.744 -6.65188 -0.55504 0
M  V30 1656 H 162.014 -0.599076 -0.436106 0
M  V30 1657 H 164.661 -1.85296 -0.48351 0
M  V30 1658 H 162.966 -2.51369 -3.00535 0
M  V30 1659 H 164.663 -2.8557 -2.81515 0
M  V30 1660 H 161.253 -3.88277 -1.8149 0
M  V30 1661 H 165.437 -4.76524 -1.38704 0
M  V30 1662 H 160.693 -6.05899 -0.81833 0
M  V30 1663 H 164.867 -6.95259 -0.398458 0
M  V30 1664 H 162.494 -7.60123 -0.108311 0
M  V30 1665 N 164.069 0.697108 -1.41344 0
M  V30 1666 C 165.297 1.48593 -1.43972 0
M  V30 1667 C 165.712 1.88747 -0.0445612 0
M  V30 1668 O 165.069 1.56682 0.935785 0
M  V30 1669 C 165.12 2.74946 -2.34706 0
M  V30 1670 O 164.841 2.36484 -3.68791 0
M  V30 1671 C 166.342 3.687 -2.46121 0
M  V30 1672 H 163.562 0.457964 -0.490418 0
M  V30 1673 H 166.106 0.858429 -1.8561 0
M  V30 1674 H 164.261 3.33937 -1.9638 0
M  V30 1675 H 164.675 3.17918 -4.17167 0
M  V30 1676 H 166.149 4.54145 -3.13777 0
M  V30 1677 H 166.626 4.13081 -1.49199 0
M  V30 1678 H 167.232 3.15613 -2.85076 0
M  V30 1679 N 165.547 1.27147 0.931209 0
M  V30 1680 C 166.495 1.09398 2.05268 0
M  V30 1681 C 167.489 0.0180591 1.6939 0
M  V30 1682 O 168.695 0.17551 1.79142 0
M  V30 1683 H 165.07 0.336986 0.672268 0
M  V30 1684 H 167.041 2.04416 2.17386 0
M  V30 1685 C 165.79 0.75424 3.39421 0
M  V30 1686 H 165.113 1.57404 3.67511 0
M  V30 1687 H 166.553 0.669903 4.18674 0
M  V30 1688 C 165.012 -0.541197 3.32525 0
M  V30 1689 O 165.542 -1.57664 3.69466 0
M  V30 1690 N 163.748 -0.535517 2.85623 0
M  V30 1691 H 163.295 0.307511 2.55758 0
M  V30 1692 H 163.253 -1.40236 2.81392 0
M  V30 1693 N 167.025 -1.13721 1.09112 0
M  V30 1694 C 168.273 -1.84559 0.823562 0
M  V30 1695 C 168.594 -1.83754 -0.652658 0
M  V30 1696 O 167.864 -1.29102 -1.47342 0
M  V30 1697 H 166.444 -0.683376 0.301673 0
M  V30 1698 H 169.106 -1.37771 1.37859 0
M  V30 1699 H 168.202 -2.8917 1.17419 0
M  V30 1700 N 168.503 -0.877838 -1.30888 0
M  V30 1701 C 169.433 -0.35534 -2.3078 0
M  V30 1702 C 170.414 0.557994 -1.60687 0
M  V30 1703 O 171.599 0.473355 -1.88343 0
M  V30 1704 C 168.729 0.437221 -3.44537 0
M  V30 1705 C 167.683 -0.383715 -4.26276 0
M  V30 1706 C 167.009 0.535014 -5.32017 0
M  V30 1707 C 168.309 -1.62201 -4.96476 0
M  V30 1708 H 170.003 -1.19007 -2.74732 0
M  V30 1709 H 167.549 -0.573698 -1.32078 0
M  V30 1710 H 169.502 0.813334 -4.13477 0
M  V30 1711 H 168.226 1.30553 -2.99372 0
M  V30 1712 H 166.885 -0.741874 -3.59015 0
M  V30 1713 H 166.533 1.40083 -4.831 0
M  V30 1714 H 166.233 -0.0104211 -5.87599 0
M  V30 1715 H 167.757 0.907799 -6.03814 0
M  V30 1716 H 169.171 -1.31689 -5.5797 0
M  V30 1717 H 167.568 -2.10711 -5.61891 0
M  V30 1718 H 168.638 -2.37044 -4.23011 0
M  V30 1719 N 169.982 1.44106 -0.638065 0
M  V30 1720 C 171.398 1.56672 -0.304286 0
M  V30 1721 C 171.598 1.6244 1.19228 0
M  V30 1722 O 170.654 1.57121 1.9766 0
M  V30 1723 C 171.967 2.83503 -1.00231 0
M  V30 1724 C 173.515 2.97226 -0.981116 0
M  V30 1725 C 173.99 4.26868 -1.65974 0
M  V30 1726 N 175.481 4.33698 -1.62666 0
M  V30 1727 C 176.216 5.32745 -2.12063 0
M  V30 1728 N 175.712 6.38157 -2.6968 0
M  V30 1729 N 177.505 5.24299 -2.02651 0
M  V30 1730 H 169.656 1.38605 -1.60942 0
M  V30 1731 H 171.919 0.664661 -0.675965 0
M  V30 1732 H 171.625 2.85251 -2.0573 0
M  V30 1733 H 171.499 3.73251 -0.54439 0
M  V30 1734 H 173.886 2.95027 0.0654188 0
M  V30 1735 H 173.967 2.08808 -1.47759 0
M  V30 1736 H 173.611 4.29826 -2.70576 0
M  V30 1737 H 173.541 5.14156 -1.13804 0
M  V30 1738 H 176.032 3.58138 -1.20606 0
M  V30 1739 H 176.345 7.10029 -3.05087 0
M  V30 1740 H 174.69 6.38823 -2.73734 0
M  V30 1741 H 177.881 4.4086 -1.57353 0
M  V30 1742 H 178.054 6.01334 -2.41457 0
M  V30 1743 N 171.46 0.379036 1.52974 0
M  V30 1744 C 172.37 -0.468639 2.29872 0
M  V30 1745 C 173.386 -1.08067 1.36373 0
M  V30 1746 O 174.562 -1.08871 1.69438 0
M  V30 1747 C 171.627 -1.58594 3.083 0
M  V30 1748 C 170.688 -1.00007 4.17489 0
M  V30 1749 C 169.921 -2.06413 4.92168 0
M  V30 1750 O 170.144 -3.27751 4.66835 0
M  V30 1751 O 169.078 -1.68717 5.7777 0
M  V30 1752 H 172.904 0.157508 3.03291 0
M  V30 1753 H 170.489 0.143035 1.48714 0
M  V30 1754 H 172.371 -2.23525 3.57232 0
M  V30 1755 H 171.046 -2.19724 2.37703 0
M  V30 1756 H 169.953 -0.314299 3.72777 0
M  V30 1757 H 171.286 -0.433135 4.90291 0
M  V30 1758 N 172.938 -1.57226 0.108567 0
M  V30 1759 C 173.87 -2.11809 -0.875752 0
M  V30 1760 C 174.883 -1.05839 -1.23701 0
M  V30 1761 O 176.072 -1.33245 -1.18778 0
M  V30 1762 C 173.172 -2.59411 -2.18081 0
M  V30 1763 C 172.345 -3.89364 -1.99284 0
M  V30 1764 C 171.404 -4.22672 -3.13424 0
M  V30 1765 O 170.43 -4.91668 -2.86795 0
M  V30 1766 N 171.632 -3.79154 -4.3957 0
M  V30 1767 H 174.397 -2.9689 -0.409477 0
M  V30 1768 H 171.958 -1.61721 -0.076158 0
M  V30 1769 H 173.95 -2.7873 -2.93414 0
M  V30 1770 H 172.52 -1.79268 -2.5609 0
M  V30 1771 H 171.74 -3.79059 -1.08203 0
M  V30 1772 H 173.028 -4.74358 -1.84017 0
M  V30 1773 H 172.426 -3.23486 -4.64083 0
M  V30 1774 H 170.983 -4.03602 -5.11809 0
M  V30 1775 N 174.416 0.165178 -1.56732 0
M  V30 1776 C 175.664 0.879068 -1.8198 0
M  V30 1777 C 175.985 1.82514 -0.686561 0
M  V30 1778 O 175.255 1.93694 0.293146 0
M  V30 1779 H 173.835 0.327608 -0.671329 0
M  V30 1780 H 176.497 0.163526 -1.94213 0
M  V30 1781 H 175.593 1.45228 -2.76252 0
M  V30 1782 N 175.894 1.51508 0.433938 0
M  V30 1783 C 176.827 1.67756 1.54704 0
M  V30 1784 C 177.805 0.525127 1.53887 0
M  V30 1785 O 178.989 0.749393 1.72963 0
M  V30 1786 C 176.116 1.69424 2.9328 0
M  V30 1787 C 175.162 2.90673 3.12108 0
M  V30 1788 S 175.995 4.51431 2.88046 0
M  V30 1789 C 177.151 4.55849 4.28897 0
M  V30 1790 H 177.384 2.61904 1.40689 0
M  V30 1791 H 174.917 1.41235 0.62386 0
M  V30 1792 H 176.875 1.7107 3.73156 0
M  V30 1793 H 175.536 0.764464 3.04655 0
M  V30 1794 H 174.729 2.88251 4.13434 0
M  V30 1795 H 174.331 2.86786 2.40062 0
M  V30 1796 H 176.623 4.31699 5.22152 0
M  V30 1797 H 177.566 5.57676 4.36351 0
M  V30 1798 H 177.974 3.85137 4.12711 0
M  V30 1799 N 177.372 -0.689602 1.41712 0
M  V30 1800 C 178.282 -1.83314 1.46401 0
M  V30 1801 C 179.298 -1.7036 0.35405 0
M  V30 1802 O 180.474 -1.92171 0.602692 0
M  V30 1803 C 177.539 -3.19344 1.34982 0
M  V30 1804 C 176.6 -3.44363 2.56344 0
M  V30 1805 C 175.833 -4.73904 2.45461 0
M  V30 1806 O 176.056 -5.508 1.48241 0
M  V30 1807 O 174.99 -4.99839 3.35328 0
M  V30 1808 H 178.816 -1.82314 2.42889 0
M  V30 1809 H 176.401 -0.843438 1.23315 0
M  V30 1810 H 178.283 -4.00547 1.3092 0
M  V30 1811 H 176.958 -3.21014 0.41612 0
M  V30 1812 H 175.865 -2.63067 2.65982 0
M  V30 1813 H 177.198 -3.47512 3.48563 0
M  V30 1814 N 178.85 -1.27639 -0.924453 0
M  V30 1815 C 180.096 -1.14336 -1.67497 0
M  V30 1816 C 180.429 0.309465 -1.91718 0
M  V30 1817 O 179.704 1.22608 -1.50989 0
M  V30 1818 C 179.987 -1.93096 -3.0395 0
M  V30 1819 C 179.84 -3.46381 -2.8695 0
M  V30 1820 C 181.159 -1.73798 -4.0433 0
M  V30 1821 H 178.278 -0.416728 -0.607871 0
M  V30 1822 H 180.92 -1.56832 -1.07256 0
M  V30 1823 H 179.07 -1.56982 -3.55372 0
M  V30 1824 H 180.742 -3.92343 -2.42621 0
M  V30 1825 H 178.985 -3.72557 -2.22225 0
M  V30 1826 H 179.656 -3.96735 -3.83804 0
M  V30 1827 H 182.132 -2.05293 -3.61931 0
M  V30 1828 H 181.008 -2.31294 -4.97789 0
M  V30 1829 H 181.269 -0.686725 -4.36734 0
M  V30 1830 N 180.328 1.1314 -1.09713 0
M  V30 1831 C 181.574 1.84757 -0.836224 0
M  V30 1832 C 181.907 1.8347 0.636598 0
M  V30 1833 O 181.182 1.27491 1.46889 0
M  V30 1834 C 181.465 3.32782 -1.37578 0
M  V30 1835 C 181.318 3.42567 -2.91493 0
M  V30 1836 C 182.637 4.28307 -1.01198 0
M  V30 1837 H 179.756 0.67082 -0.305236 0
M  V30 1838 H 182.398 1.3278 -1.35903 0
M  V30 1839 H 180.548 3.77177 -0.931097 0
M  V30 1840 H 182.22 3.06862 -3.44432 0
M  V30 1841 H 180.463 2.83349 -3.28475 0
M  V30 1842 H 181.134 4.46674 -3.24324 0
M  V30 1843 H 183.61 3.91999 -1.39556 0
M  V30 1844 H 182.486 5.30307 -1.41653 0
M  V30 1845 H 182.747 4.42029 0.0794833 0
M  V30 1846 N 181.806 0.884767 1.30421 0
M  V30 1847 C 183.031 0.517288 2.00845 0
M  V30 1848 C 183.456 -0.886779 1.65885 0
M  V30 1849 O 182.814 -1.58768 0.875354 0
M  V30 1850 C 182.862 0.698994 3.5376 0
M  V30 1851 O 181.966 -0.255208 4.1161 0
M  V30 1852 H 181.307 0.203872 0.631927 0
M  V30 1853 H 183.837 1.19225 1.66272 0
M  V30 1854 H 183.847 0.597912 4.03595 0
M  V30 1855 H 182.522 1.72271 3.78544 0
M  V30 1856 H 181.099 -0.10784 3.72744 0
M  V30 1857 N 183.284 -1.43765 0.645699 0
M  V30 1858 C 184.533 -2.01116 0.153412 0
M  V30 1859 C 184.846 -1.51493 -1.23731 0
M  V30 1860 O 186.052 -2.01067 -1.8244 0
M  V30 1861 C 184.508 -3.59206 0.223473 0
M  V30 1862 C 184.116 -4.17823 1.61642 0
M  V30 1863 C 185.86 -4.23972 -0.211597 0
M  V30 1864 C 183.767 -5.68183 1.64081 0
M  V30 1865 H 182.697 -0.752093 0.0535891 0
M  V30 1866 H 185.348 -1.6482 0.806633 0
M  V30 1867 H 183.73 -3.92867 -0.497118 0
M  V30 1868 H 184.904 -3.95674 2.36176 0
M  V30 1869 H 183.219 -3.65399 1.99681 0
M  V30 1870 H 185.816 -5.34275 -0.213112 0
M  V30 1871 H 186.159 -3.97352 -1.24165 0
M  V30 1872 H 186.692 -3.95166 0.456988 0
M  V30 1873 H 183.431 -5.99559 2.64971 0
M  V30 1874 H 182.951 -5.9241 0.938611 0
M  V30 1875 H 184.63 -6.32085 1.3812 0
M  V30 1876 N 184.763 -0.387143 -1.52771 0
M  V30 1877 C 185.673 0.456442 -2.30117 0
M  V30 1878 C 186.689 1.07342 -1.36944 0
M  V30 1879 O 187.865 1.07971 -1.70013 0
M  V30 1880 C 184.93 1.56957 -3.09136 0
M  V30 1881 C 183.991 0.977916 -4.18014 0
M  V30 1882 C 183.224 2.038 -4.93256 0
M  V30 1883 O 183.447 3.25271 -4.68567 0
M  V30 1884 O 182.381 1.6565 -5.78657 0
M  V30 1885 H 186.207 -0.17359 -3.03203 0
M  V30 1886 H 183.792 -0.150919 -1.48636 0
M  V30 1887 H 185.674 2.21628 -3.58412 0
M  V30 1888 H 184.349 2.18461 -2.38865 0
M  V30 1889 H 183.256 0.294525 -3.72939 0
M  V30 1890 H 184.589 0.407128 -4.90513 0
M  V30 1891 N 186.241 1.57166 -0.116904 0
M  V30 1892 C 187.489 1.94737 0.540533 0
M  V30 1893 C 187.81 1.00096 1.67349 0
M  V30 1894 O 187.08 0.0568854 1.95817 0
M  V30 1895 H 185.66 0.718981 0.202669 0
M  V30 1896 H 188.322 1.94017 -0.185353 0
M  V30 1897 H 187.418 2.97719 0.936483 0
M  V30 1898 N 187.719 -0.156864 1.56817 0
M  V30 1899 C 188.968 -0.869504 1.81996 0
M  V30 1900 C 189.281 -1.82777 0.696545 0
M  V30 1901 O 190.487 -2.58384 0.833658 0
M  V30 1902 C 188.943 -1.59679 3.22538 0
M  V30 1903 C 188.551 -0.681431 4.42787 0
M  V30 1904 C 190.295 -2.2968 3.56997 0
M  V30 1905 C 188.202 -1.40978 5.74351 0
M  V30 1906 H 187.132 -0.328438 0.678708 0
M  V30 1907 H 189.783 -0.1223 1.83092 0
M  V30 1908 H 188.165 -2.38927 3.158 0
M  V30 1909 H 189.339 0.0751166 4.60739 0
M  V30 1910 H 187.654 -0.0903431 4.16302 0
M  V30 1911 H 190.251 -2.84794 4.52544 0
M  V30 1912 H 190.594 -3.05707 2.82576 0
M  V30 1913 H 191.127 -1.57361 3.65352 0
M  V30 1914 H 187.866 -0.691561 6.51842 0
M  V30 1915 H 187.386 -2.13929 5.60352 0
M  V30 1916 H 189.065 -1.95337 6.16808 0
M  V30 1917 N 189.197 -1.51736 -0.425897 0
M  V30 1918 C 190.147 -1.70258 -1.51645 0
M  V30 1919 C 191.131 -0.556488 -1.5097 0
M  V30 1920 O 192.323 -0.812879 -1.5723 0
M  V30 1921 C 189.452 -1.84143 -2.89735 0
M  V30 1922 C 188.538 -3.04572 -2.95122 0
M  V30 1923 N 188.929 -4.2756 -2.70233 0
M  V30 1924 C 187.227 -3.04061 -3.26286 0
M  V30 1925 C 187.928 -5.08908 -2.81757 0
M  V30 1926 N 186.904 -4.43797 -3.13919 0
M  V30 1927 H 190.706 -2.63004 -1.31172 0
M  V30 1928 H 188.22 -1.4954 -0.633375 0
M  V30 1929 H 190.217 -1.95525 -3.68206 0
M  V30 1930 H 188.877 -0.925857 -3.1122 0
M  V30 1931 H 189.888 -4.56315 -2.44943 0
M  V30 1932 H 186.565 -2.22179 -3.53473 0
M  V30 1933 H 187.955 -6.16843 -2.66372 0
M  V30 1934 N 190.675 0.682077 -1.42076 0
M  V30 1935 C 192.086 1.26246 -1.37546 0
M  V30 1936 C 192.437 1.96092 -0.0651481 0
M  V30 1937 O 191.562 1.99587 0.836297 0
M  V30 1938 C 192.157 2.29594 -2.49143 0
M  V30 1939 C 190.716 2.83175 -2.47969 0
M  V30 1940 C 189.863 1.57395 -2.28303 0
M  V30 1941 H 192.814 0.475937 -1.51395 0
M  V30 1942 H 192.835 3.11175 -2.18976 0
M  V30 1943 H 192.347 1.78729 -3.44496 0
M  V30 1944 H 190.448 3.3818 -1.56413 0
M  V30 1945 H 190.561 3.32687 -3.44755 0
M  V30 1946 H 188.925 1.83699 -1.76428 0
M  V30 1947 H 189.708 1.08507 -3.25701 0
M  V30 1948 N 192.153 1.28127 0.917671 0
M  V30 1949 C 193.1 1.11717 2.0196 0
M  V30 1950 C 194.07 0.0153929 1.66093 0
M  V30 1951 O 195.255 0.179596 1.89953 0
M  V30 1952 C 192.395 0.780927 3.36148 0
M  V30 1953 C 191.508 1.96135 3.84909 0
M  V30 1954 C 190.643 1.56609 5.0759 0
M  V30 1955 C 189.682 2.71339 5.48673 0
M  V30 1956 N 188.819 2.32332 6.62545 0
M  V30 1957 H 193.659 2.06003 2.15329 0
M  V30 1958 H 191.196 1.02535 1.05475 0
M  V30 1959 H 193.154 0.56675 4.13333 0
M  V30 1960 H 191.784 -0.124998 3.22558 0
M  V30 1961 H 190.836 2.28777 3.03916 0
M  V30 1962 H 192.148 2.82165 4.1132 0
M  V30 1963 H 191.302 1.31374 5.92305 0
M  V30 1964 H 190.041 0.677014 4.82978 0
M  V30 1965 H 189.046 2.97276 4.62501 0
M  V30 1966 H 190.271 3.60882 5.75274 0
M  V30 1967 H 188.217 1.45889 6.39572 0
M  V30 1968 H 188.134 3.11899 6.88662 0
M  V30 1969 H 189.402 2.10371 7.50576 0
M  V30 1970 N 193.631 -1.12557 1.10312 0
M  V30 1971 C 194.877 -1.84311 0.846011 0
M  V30 1972 C 195.21 -1.83805 -0.626859 0
M  V30 1973 O 194.485 -1.28268 -1.46211 0
M  V30 1974 C 194.768 -3.32048 1.39341 0
M  V30 1975 C 194.621 -3.41016 2.93305 0
M  V30 1976 C 195.94 -4.27764 1.03468 0
M  V30 1977 H 193.059 -0.669192 0.30879 0
M  V30 1978 H 195.701 -1.32057 1.36605 0
M  V30 1979 H 193.851 -3.76678 0.951087 0
M  V30 1980 H 195.523 -3.05031 3.46055 0
M  V30 1981 H 193.766 -2.81603 3.29973 0
M  V30 1982 H 194.437 -4.44948 3.26689 0
M  V30 1983 H 196.913 -3.91253 1.41633 0
M  V30 1984 H 195.789 -5.29549 1.44463 0
M  V30 1985 H 196.05 -4.42064 -0.0560404 0
M  V30 1986 N 195.109 -0.891671 -1.2995 0
M  V30 1987 C 196.042 -0.307994 -2.26112 0
M  V30 1988 C 197.02 0.575262 -1.52084 0
M  V30 1989 O 198.204 0.523864 -1.81074 0
M  V30 1990 C 195.331 0.561734 -3.34009 0
M  V30 1991 C 194.377 -0.253107 -4.25748 0
M  V30 1992 S 195.21 -1.64572 -5.09584 0
M  V30 1993 C 196.366 -0.782699 -6.20987 0
M  V30 1994 H 196.599 -1.12309 -2.75271 0
M  V30 1995 H 194.132 -0.691509 -1.38049 0
M  V30 1996 H 196.09 1.05777 -3.96638 0
M  V30 1997 H 194.751 1.35099 -2.83561 0
M  V30 1998 H 193.944 0.410908 -5.02322 0
M  V30 1999 H 193.546 -0.682004 -3.67729 0
M  V30 2000 H 195.838 -0.00257476 -6.775 0
M  V30 2001 H 196.781 -1.52026 -6.91588 0
M  V30 2002 H 197.189 -0.340638 -5.63471 0
M  V30 2003 N 196.587 1.43421 -0.653314 0
M  V30 2004 C 197.497 2.34568 0.0388565 0
M  V30 2005 C 198.513 1.53888 0.81207 0
M  V30 2006 O 199.689 1.86539 0.759294 0
M  V30 2007 C 196.754 3.32167 0.993269 0
M  V30 2008 C 195.815 4.28751 0.216977 0
M  V30 2009 C 195.048 5.21688 1.12593 0
M  V30 2010 O 195.271 5.19052 2.36519 0
M  V30 2011 O 194.205 5.98919 0.598284 0
M  V30 2012 H 198.031 2.95251 -0.711386 0
M  V30 2013 H 195.616 1.43564 -0.413502 0
M  V30 2014 H 197.498 3.92183 1.54176 0
M  V30 2015 H 196.173 2.73987 1.72374 0
M  V30 2016 H 195.08 3.72215 -0.375101 0
M  V30 2017 H 196.413 4.89913 -0.473924 0
M  V30 2018 N 198.065 0.39524 1.52563 0
M  V30 2019 C 199.481 0.0454682 1.59535 0
M  V30 2020 C 199.681 -1.44056 1.4089 0
M  V30 2021 O 198.737 -2.20579 1.22888 0
M  V30 2022 C 200.05 0.527963 2.96029 0
M  V30 2023 C 201.598 0.484733 3.09224 0
M  V30 2024 C 202.073 0.943512 4.48176 0
M  V30 2025 N 203.564 0.899765 4.54377 0
M  V30 2026 C 204.299 1.22609 5.60138 0
M  V30 2027 N 203.795 1.62319 6.73516 0
M  V30 2028 N 205.588 1.14696 5.50274 0
M  V30 2029 H 197.739 1.36261 1.62931 0
M  V30 2030 H 200.002 0.558887 0.765735 0
M  V30 2031 H 199.708 1.56607 3.14908 0
M  V30 2032 H 199.582 -0.0698056 3.77135 0
M  V30 2033 H 201.969 -0.544298 2.90037 0
M  V30 2034 H 202.05 1.11838 2.30056 0
M  V30 2035 H 201.694 1.9708 4.68104 0
M  V30 2036 H 201.624 0.286817 5.25818 0
M  V30 2037 H 204.115 0.607632 3.72983 0
M  V30 2038 H 204.428 1.85567 7.5019 0
M  V30 2039 H 202.773 1.66211 6.74833 0
M  V30 2040 H 205.964 0.835701 4.6058 0
M  V30 2041 H 206.137 1.40459 6.32594 0
M  V30 2042 N 199.544 -1.57102 0.125237 0
M  V30 2043 C 200.474 -2.18659 -0.819174 0
M  V30 2044 C 201.455 -1.12843 -1.27281 0
M  V30 2045 O 202.64 -1.41104 -1.33429 0
M  V30 2046 C 199.77 -2.79096 -2.06695 0
M  V30 2047 C 198.724 -3.90548 -1.75088 0
M  V30 2048 C 198.05 -4.37821 -3.06948 0
M  V30 2049 C 199.35 -5.12356 -1.01435 0
M  V30 2050 H 201.044 -2.9783 -0.306202 0
M  V30 2051 H 198.59 -1.4326 -0.145839 0
M  V30 2052 H 200.543 -3.2082 -2.73226 0
M  V30 2053 H 199.267 -1.97223 -2.60328 0
M  V30 2054 H 197.926 -3.49409 -1.10944 0
M  V30 2055 H 197.574 -3.52799 -3.58527 0
M  V30 2056 H 197.274 -5.12982 -2.86571 0
M  V30 2057 H 198.798 -4.822 -3.74587 0
M  V30 2058 H 200.212 -5.5106 -1.58132 0
M  V30 2059 H 198.609 -5.9314 -0.911319 0
M  V30 2060 H 199.679 -4.849 -0.00218681 0
M  V30 2061 N 201.022 0.148545 -1.56898 0
M  V30 2062 C 202.271 0.85984 -1.82454 0
M  V30 2063 C 202.584 1.82406 -0.706229 0
M  V30 2064 O 203.79 2.57938 -0.847349 0
M  V30 2065 C 202.246 1.57967 -3.2338 0
M  V30 2066 C 201.854 0.65794 -4.43142 0
M  V30 2067 C 203.598 2.27784 -3.58211 0
M  V30 2068 C 201.505 1.3793 -5.75091 0
M  V30 2069 H 200.435 0.324834 -0.68044 0
M  V30 2070 H 203.086 0.112588 -1.83154 0
M  V30 2071 H 201.468 2.37249 -3.17063 0
M  V30 2072 H 202.642 -0.0995497 -4.60692 0
M  V30 2073 H 200.957 0.0682643 -4.16344 0
M  V30 2074 H 203.554 2.8239 -4.54048 0
M  V30 2075 H 203.897 3.04204 -2.84193 0
M  V30 2076 H 204.43 1.55421 -3.66182 0
M  V30 2077 H 201.169 0.656982 -6.52199 0
M  V30 2078 H 200.689 2.10954 -5.61479 0
M  V30 2079 H 202.368 1.92063 -6.17835 0
M  V30 2080 N 202.5 1.5196 0.417844 0
M  V30 2081 C 203.41 1.77554 1.53336 0
M  V30 2082 C 204.426 0.660655 1.6097 0
M  V30 2083 O 205.602 0.945099 1.77848 0
M  V30 2084 C 202.667 1.91291 2.89152 0
M  V30 2085 C 201.728 3.15183 2.91475 0
M  V30 2086 C 200.961 3.28256 4.20813 0
M  V30 2087 O 201.184 2.46798 5.14244 0
M  V30 2088 O 200.118 4.21356 4.29817 0
M  V30 2089 H 203.944 2.7222 1.34647 0
M  V30 2090 H 201.529 1.36698 0.602828 0
M  V30 2091 H 203.411 2.02199 3.69721 0
M  V30 2092 H 202.086 0.998129 3.07927 0
M  V30 2093 H 200.993 3.09739 2.09791 0
M  V30 2094 H 202.326 4.06414 2.77648 0
M  V30 2095 N 203.978 -0.674533 1.42435 0
M  V30 2096 C 205.225 -1.43459 1.42919 0
M  V30 2097 C 205.553 -1.94446 0.0457312 0
M  V30 2098 O 204.808 -1.7132 -0.94593 0
M  V30 2099 C 205.107 -2.64767 2.40069 0
M  V30 2100 C 204.773 -2.3232 3.86443 0
M  V30 2101 C 203.435 -2.23182 4.26314 0
M  V30 2102 C 205.787 -2.05977 4.78773 0
M  V30 2103 C 203.115 -1.85827 5.56494 0
M  V30 2104 C 205.467 -1.70125 6.09295 0
M  V30 2105 C 204.131 -1.59498 6.48164 0
M  V30 2106 H 203.401 -0.524952 0.522978 0
M  V30 2107 H 206.048 -0.769097 1.75377 0
M  V30 2108 H 204.353 -3.36349 2.00939 0
M  V30 2109 H 206.05 -3.22949 2.37707 0
M  V30 2110 H 202.64 -2.40334 3.54877 0
M  V30 2111 H 206.824 -2.11969 4.48757 0
M  V30 2112 H 202.08 -1.76168 5.8547 0
M  V30 2113 H 206.254 -1.48767 6.80324 0
M  V30 2114 H 203.881 -1.30322 7.48946 0
M  V30 2115 N 205.456 -1.28612 -0.910864 0
M  V30 2116 C 206.419 -1.12803 -1.9952 0
M  V30 2117 C 207.419 -0.0668264 -1.60661 0
M  V30 2118 O 208.609 -0.312847 -1.71368 0
M  V30 2119 C 205.741 -0.72254 -3.33155 0
M  V30 2120 H 206.934 -2.09109 -2.14973 0
M  V30 2121 H 204.487 -1.11639 -1.09391 0
M  V30 2122 H 205.222 0.241152 -3.23402 0
M  V30 2123 H 205.007 -1.48916 -3.62721 0
M  V30 2124 H 206.497 -0.634666 -4.12749 0
M  V30 2125 N 206.934 1.1197 -1.10907 0
M  V30 2126 C 208.164 1.8713 -0.875553 0
M  V30 2127 C 208.572 1.8016 0.577843 0
M  V30 2128 O 207.915 1.17699 1.41042 0
M  V30 2129 C 207.977 3.37005 -1.2517 0
M  V30 2130 C 207.641 3.67748 -2.71313 0
M  V30 2131 C 208.638 3.65698 -3.69542 0
M  V30 2132 C 206.323 3.96928 -3.07821 0
M  V30 2133 C 208.317 3.92395 -5.023 0
M  V30 2134 C 206.004 4.23284 -4.40765 0
M  V30 2135 C 207.002 4.21005 -5.37814 0
M  V30 2136 O 206.69 4.46704 -6.68364 0
M  V30 2137 H 206.422 0.598786 -0.313737 0
M  V30 2138 H 208.976 1.42568 -1.47863 0
M  V30 2139 H 207.206 3.82146 -0.591741 0
M  V30 2140 H 208.895 3.93519 -0.994877 0
M  V30 2141 H 209.661 3.43211 -3.42682 0
M  V30 2142 H 205.54 3.97841 -2.32902 0
M  V30 2143 H 209.084 3.90531 -5.78041 0
M  V30 2144 H 204.981 4.45246 -4.67361 0
M  V30 2145 H 205.749 4.64299 -6.74069 0
M  V30 2146 N 208.412 0.89855 1.29475 0
M  V30 2147 C 209.64 0.539261 1.99749 0
M  V30 2148 C 210.055 -0.875716 1.67262 0
M  V30 2149 O 209.412 -1.57786 0.917049 0
M  V30 2150 C 209.463 0.72061 3.54245 0
M  V30 2151 O 209.184 2.07989 3.8558 0
M  V30 2152 C 210.685 0.366118 4.41786 0
M  V30 2153 H 207.905 0.207047 0.638258 0
M  V30 2154 H 210.449 1.20758 1.65039 0
M  V30 2155 H 208.604 0.0994862 3.87272 0
M  V30 2156 H 209.018 2.10841 4.80257 0
M  V30 2157 H 210.492 0.543848 5.49314 0
M  V30 2158 H 210.969 -0.696763 4.33638 0
M  V30 2159 H 211.575 0.964135 4.14228 0
M  V30 2160 N 209.89 -1.43072 0.660911 0
M  V30 2161 C 210.853 -2.29194 -0.0166406 0
M  V30 2162 C 211.853 -1.42609 -0.742912 0
M  V30 2163 O 213.043 -1.64155 -0.583004 0
M  V30 2164 C 210.175 -3.24831 -1.0343 0
M  V30 2165 H 211.368 -2.90596 0.741208 0
M  V30 2166 H 208.921 -1.5048 0.422532 0
M  V30 2167 H 209.656 -2.68339 -1.82111 0
M  V30 2168 H 209.441 -3.88676 -0.517082 0
M  V30 2169 H 210.931 -3.89451 -1.50723 0
M  V30 2170 N 211.368 -0.403325 -1.52352 0
M  V30 2171 C 212.593 0.176499 -2.06648 0
M  V30 2172 C 213.018 1.38577 -1.27193 0
M  V30 2173 O 212.376 1.7879 -0.300637 0
M  V30 2174 C 212.424 0.511061 -3.5696 0
M  V30 2175 O 211.528 1.60294 -3.79973 0
M  V30 2176 H 210.869 0.0167337 -0.663789 0
M  V30 2177 H 213.399 -0.574848 -1.96359 0
M  V30 2178 H 213.409 0.771362 -4.00642 0
M  V30 2179 H 212.084 -0.37296 -4.14224 0
M  V30 2180 H 210.661 1.33526 -3.48174 0
M  V30 2181 N 212.846 1.57033 -0.133567 0
M  V30 2182 C 214.095 1.94861 0.520768 0
M  V30 2183 C 214.408 1.02012 1.66892 0
M  V30 2184 O 215.614 1.29365 2.38699 0
M  V30 2185 C 214.07 3.46362 0.977809 0
M  V30 2186 C 213.678 4.47773 -0.142674 0
M  V30 2187 C 215.422 3.93083 1.60269 0
M  V30 2188 C 213.329 5.90468 0.331883 0
M  V30 2189 H 212.259 0.727453 0.198315 0
M  V30 2190 H 214.91 1.82227 -0.215759 0
M  V30 2191 H 213.292 3.54282 1.7692 0
M  V30 2192 H 214.466 4.51536 -0.919317 0
M  V30 2193 H 212.781 4.10891 -0.675124 0
M  V30 2194 H 215.378 4.97121 1.96914 0
M  V30 2195 H 215.721 3.33876 2.48662 0
M  V30 2196 H 216.254 3.88025 0.876453 0
M  V30 2197 H 212.993 6.53463 -0.516341 0
M  V30 2198 H 212.513 5.90094 1.07469 0
M  V30 2199 H 214.192 6.42179 0.788332 0
M  V30 2200 N 214.325 -0.140222 1.56975 0
M  V30 2201 C 215.55 -0.870414 1.88251 0
M  V30 2202 C 215.975 -1.73637 0.723312 0
M  V30 2203 O 215.333 -1.78329 -0.32689 0
M  V30 2204 C 215.381 -1.69737 3.18154 0
M  V30 2205 O 214.485 -2.80229 3.02565 0
M  V30 2206 H 213.826 -0.242025 0.61832 0
M  V30 2207 H 216.356 -0.128999 2.04193 0
M  V30 2208 H 216.366 -2.09099 3.50345 0
M  V30 2209 H 215.041 -1.06152 4.02125 0
M  V30 2210 H 213.618 -2.44224 2.81796 0
M  V30 2211 N 215.803 -1.52179 -0.40978 0
M  V30 2212 C 216.736 -1.70196 -1.52015 0
M  V30 2213 C 217.714 -0.549542 -1.53032 0
M  V30 2214 O 218.898 -0.776815 -1.71749 0
M  V30 2215 C 216.025 -1.74069 -2.90547 0
M  V30 2216 C 215.071 -2.95601 -3.07445 0
M  V30 2217 S 215.904 -4.55956 -2.80827 0
M  V30 2218 C 217.06 -4.62614 -4.21591 0
M  V30 2219 H 217.293 -2.64109 -1.36504 0
M  V30 2220 H 214.826 -1.4221 -0.601312 0
M  V30 2221 H 216.784 -1.76985 -3.70387 0
M  V30 2222 H 215.445 -0.812835 -3.034 0
M  V30 2223 H 214.638 -2.94791 -4.08796 0
M  V30 2224 H 214.24 -2.90569 -2.35469 0
M  V30 2225 H 216.532 -4.39951 -5.15218 0
M  V30 2226 H 217.475 -5.64548 -4.27424 0
M  V30 2227 H 217.883 -3.91654 -4.06531 0
M  V30 2228 N 217.281 0.66697 -1.42791 0
M  V30 2229 C 218.529 1.42417 -1.43394 0
M  V30 2230 C 218.85 1.94925 -0.0542373 0
M  V30 2231 O 218.12 1.73564 0.908415 0
M  V30 2232 H 216.7 0.528515 -0.527902 0
M  V30 2233 H 219.362 0.787562 -1.78279 0
M  V30 2234 H 218.458 2.27333 -2.13837 0
M  V30 2235 N 218.759 1.29093 0.90403 0
M  V30 2236 C 219.669 1.15727 2.0407 0
M  V30 2237 C 220.685 0.0815308 1.73809 0
M  V30 2238 O 221.861 0.292749 1.99261 0
M  V30 2239 C 218.926 0.830424 3.36608 0
M  V30 2240 C 217.987 1.98955 3.80415 0
M  V30 2241 C 217.22 1.6782 5.06628 0
M  V30 2242 O 217.443 0.597105 5.67266 0
M  V30 2243 O 216.377 2.52486 5.46383 0
M  V30 2244 H 220.203 2.11171 2.18267 0
M  V30 2245 H 217.788 1.08504 1.027 0
M  V30 2246 H 219.67 0.662521 4.16159 0
M  V30 2247 H 218.345 -0.0942678 3.23563 0
M  V30 2248 H 217.252 2.21267 3.01648 0
M  V30 2249 H 218.585 2.89529 3.98037 0
M  V30 2250 N 220.237 -1.11381 1.11499 0
M  V30 2251 C 221.184 -2.17439 0.773887 0
M  V30 2252 C 222.154 -1.64132 -0.254899 0
M  V30 2253 O 223.339 -1.90345 -0.13168 0
M  V30 2254 C 220.479 -3.44373 0.223917 0
M  V30 2255 C 219.592 -4.1168 1.30934 0
M  V30 2256 C 218.727 -5.263 0.71984 0
M  V30 2257 C 217.766 -5.85493 1.78507 0
M  V30 2258 N 216.903 -6.91507 1.21502 0
M  V30 2259 H 221.743 -2.45962 1.68246 0
M  V30 2260 H 219.28 -1.20744 0.840191 0
M  V30 2261 H 221.238 -4.17047 -0.112921 0
M  V30 2262 H 219.868 -3.16232 -0.647851 0
M  V30 2263 H 218.92 -3.37073 1.76312 0
M  V30 2264 H 220.232 -4.51729 2.11524 0
M  V30 2265 H 219.386 -6.05785 0.333094 0
M  V30 2266 H 218.125 -4.87559 -0.117377 0
M  V30 2267 H 217.13 -5.04686 2.18111 0
M  V30 2268 H 218.355 -6.26301 2.62533 0
M  V30 2269 H 216.301 -6.54783 0.399455 0
M  V30 2270 H 216.218 -7.30214 1.95763 0
M  V30 2271 H 217.486 -7.74795 0.855181 0
M  V30 2272 N 221.715 -0.905404 -1.28997 0
M  V30 2273 C 222.955 -0.541232 -1.97104 0
M  V30 2274 C 223.319 0.896841 -1.69767 0
M  V30 2275 O 224.52 1.36817 -2.31375 0
M  V30 2276 C 222.791 -0.832134 -3.47578 0
M  V30 2277 S 224.35 -0.573127 -4.35041 0
M  V30 2278 H 221.168 -0.200576 -0.682122 0
M  V30 2279 H 223.77 -1.16906 -1.56694 0
M  V30 2280 H 222.474 -1.87687 -3.64968 0
M  V30 2281 H 222.005 -0.192636 -3.92928 0
M  V30 2282 H 224.02 0.579297 -4.92807 0
M  V30 2283 N 223.193 1.4272 -0.668489 0
M  V30 2284 C 224.439 2.01923 -0.188419 0
M  V30 2285 C 224.772 1.52704 1.19979 0
M  V30 2286 O 224.047 0.726566 1.8042 0
M  V30 2287 C 224.33 3.59451 -0.216085 0
M  V30 2288 C 224.183 4.18864 -1.6393 0
M  V30 2289 C 225.502 4.37903 0.439179 0
M  V30 2290 H 222.621 0.733674 -0.0699412 0
M  V30 2291 H 225.263 1.69822 -0.852076 0
M  V30 2292 H 223.413 3.86929 0.349012 0
M  V30 2293 H 225.085 4.02362 -2.25616 0
M  V30 2294 H 223.328 3.74933 -2.18193 0
M  V30 2295 H 223.999 5.27987 -1.61039 0
M  V30 2296 H 226.475 4.16079 -0.0417878 0
M  V30 2297 H 225.351 5.47519 0.389157 0
M  V30 2298 H 225.612 4.15303 1.51577 0
M  V30 2299 N 224.671 0.411399 1.52136 0
M  V30 2300 C 225.601 -0.404015 2.29978 0
M  V30 2301 C 226.582 -1.04412 1.34284 0
M  V30 2302 O 227.767 -1.0527 1.63192 0
M  V30 2303 C 224.897 -1.5197 3.12286 0
M  V30 2304 C 223.851 -1.00448 4.16046 0
M  V30 2305 C 223.177 -2.21393 4.86712 0
M  V30 2306 C 224.477 -0.0569336 5.22269 0
M  V30 2307 H 226.171 0.245529 2.98392 0
M  V30 2308 H 223.717 0.119525 1.43503 0
M  V30 2309 H 225.67 -2.09715 3.6551 0
M  V30 2310 H 224.394 -2.19716 2.41646 0
M  V30 2311 H 223.053 -0.449421 3.63835 0
M  V30 2312 H 222.701 -2.87699 4.12599 0
M  V30 2313 H 222.401 -1.87571 5.56858 0
M  V30 2314 H 223.925 -2.7974 5.4275 0
M  V30 2315 H 225.339 -0.54325 5.7072 0
M  V30 2316 H 223.736 0.192594 5.99791 0
M  V30 2317 H 224.806 0.887663 4.76706 0
M  V30 2318 N 226.149 -1.5696 0.141893 0
M  V30 2319 C 227.099 -2.13074 -0.811383 0
M  V30 2320 C 228.083 -1.05726 -1.21288 0
M  V30 2321 O 229.275 -1.31914 -1.18015 0
M  V30 2322 C 226.404 -2.75186 -2.0525 0
M  V30 2323 C 225.49 -3.8965 -1.67432 0
M  V30 2324 N 225.881 -4.95733 -1.0041 0
M  V30 2325 C 224.179 -4.00262 -1.96739 0
M  V30 2326 C 224.88 -5.75858 -0.822345 0
M  V30 2327 N 223.856 -5.26452 -1.3546 0
M  V30 2328 H 227.658 -2.92465 -0.290031 0
M  V30 2329 H 225.172 -1.6229 -0.0598218 0
M  V30 2330 H 227.169 -3.13745 -2.74535 0
M  V30 2331 H 225.829 -1.97266 -2.57907 0
M  V30 2332 H 226.84 -5.13607 -0.665441 0
M  V30 2333 H 223.517 -3.33412 -2.51282 0
M  V30 2334 H 224.907 -6.71254 -0.294496 0
M  V30 2335 N 227.627 0.131896 -1.57047 0
M  V30 2336 C 228.873 0.843179 -1.84441 0
M  V30 2337 C 229.206 1.80129 -0.725749 0
M  V30 2338 O 228.481 1.92624 0.269469 0
M  V30 2339 C 228.764 1.60442 -3.22382 0
M  V30 2340 C 228.617 0.666782 -4.4483 0
M  V30 2341 C 229.936 2.56354 -3.5773 0
M  V30 2342 H 227.055 0.305081 -0.670891 0
M  V30 2343 H 229.697 0.107839 -1.89694 0
M  V30 2344 H 227.847 2.23128 -3.18035 0
M  V30 2345 H 229.519 0.0497646 -4.61273 0
M  V30 2346 H 227.762 -0.022609 -4.33794 0
M  V30 2347 H 228.433 1.23579 -5.37989 0
M  V30 2348 H 230.909 2.0378 -3.62785 0
M  V30 2349 H 229.785 3.06657 -4.5525 0
M  V30 2350 H 230.046 3.38419 -2.84473 0
M  V30 2351 N 229.106 1.52395 0.401703 0
M  V30 2352 C 230.039 1.70999 1.51111 0
M  V30 2353 C 231.017 0.55765 1.52738 0
M  V30 2354 O 232.201 0.785912 1.71335 0
M  V30 2355 C 229.328 1.75607 2.8962 0
M  V30 2356 C 228.374 2.97227 3.05873 0
M  V30 2357 S 229.207 4.57439 2.78405 0
M  V30 2358 C 230.363 4.64844 4.19131 0
M  V30 2359 H 230.596 2.6483 1.35102 0
M  V30 2360 H 228.129 1.42527 0.593762 0
M  V30 2361 H 230.087 1.78947 3.69443 0
M  V30 2362 H 228.748 0.828914 3.02965 0
M  V30 2363 H 227.941 2.96955 4.07227 0
M  V30 2364 H 227.543 2.91813 2.33925 0
M  V30 2365 H 229.835 4.42677 5.12877 0
M  V30 2366 H 230.778 5.66807 4.24424 0
M  V30 2367 H 231.186 3.93804 4.04448 0
M  V30 2368 N 230.584 -0.659388 1.43143 0
M  V30 2369 C 231.532 -1.79374 1.4808 0
M  V30 2370 C 232.526 -1.65639 0.354988 0
M  V30 2371 O 233.732 -1.7206 0.528704 0
M  V30 2372 H 230.107 -0.591705 0.4641 0
M  V30 2373 H 232.078 -1.72329 2.43609 0
M  V30 2374 C 230.827 -3.17606 1.41499 0
M  V30 2375 H 230.15 -3.28809 2.27431 0
M  V30 2376 H 231.59 -3.96951 1.49015 0
M  V30 2377 C 230.049 -3.36642 0.131765 0
M  V30 2378 O 230.579 -3.93461 -0.809386 0
M  V30 2379 N 228.785 -2.90567 0.0439396 0
M  V30 2380 H 228.332 -2.44513 0.810619 0
M  V30 2381 H 228.29 -3.03681 -0.813969 0
M  V30 2382 N 232.062 -1.29571 -0.897171 0
M  V30 2383 C 233.31 -1.17456 -1.64464 0
M  V30 2384 C 233.631 0.273698 -1.9307 0
M  V30 2385 O 232.901 1.18684 -1.55855 0
M  V30 2386 H 231.481 -0.431706 -0.609622 0
M  V30 2387 H 234.143 -1.62531 -1.07562 0
M  V30 2388 H 233.239 -1.72648 -2.59998 0
M  V30 2389 N 233.54 1.10788 -1.12088 0
M  V30 2390 C 234.503 2.15207 -0.788577 0
M  V30 2391 C 235.503 1.59609 0.195317 0
M  V30 2392 O 236.693 1.74174 -0.0300193 0
M  V30 2393 C 233.825 3.4047 -0.171174 0
M  V30 2394 H 235.018 2.46116 -1.71368 0
M  V30 2395 H 232.571 1.26089 -0.923652 0
M  V30 2396 H 233.306 3.15176 0.763832 0
M  V30 2397 H 233.091 3.82109 -0.879514 0
M  V30 2398 H 234.581 4.17576 0.04496 0
M  V30 2399 N 235.018 0.912232 1.28515 0
M  V30 2400 C 236.264 0.545405 1.95328 0
M  V30 2401 C 236.597 -0.908313 1.71649 0
M  V30 2402 O 235.872 -1.64575 1.03659 0
M  V30 2403 C 236.155 0.853483 3.4984 0
M  V30 2404 C 236.008 2.35982 3.82926 0
M  V30 2405 C 237.327 0.348589 4.38717 0
M  V30 2406 H 234.446 0.199626 0.709449 0
M  V30 2407 H 237.088 1.1412 1.5191 0
M  V30 2408 H 235.238 0.34643 3.86952 0
M  V30 2409 H 236.91 2.93738 3.55691 0
M  V30 2410 H 235.153 2.81543 3.30024 0
M  V30 2411 H 235.824 2.52593 4.90816 0
M  V30 2412 H 238.3 0.78294 4.08668 0
M  V30 2413 H 237.176 0.593242 5.45685 0
M  V30 2414 H 237.437 -0.751049 4.35674 0
M  V30 2415 N 236.496 -1.42363 0.676048 0
M  V30 2416 C 237.429 -2.28141 -0.0516916 0
M  V30 2417 C 238.407 -1.41135 -0.807439 0
M  V30 2418 O 239.591 -1.70573 -0.802305 0
M  V30 2419 C 236.718 -3.21007 -1.08039 0
M  V30 2420 C 235.764 -4.24426 -0.420076 0
M  V30 2421 S 236.597 -5.29134 0.823246 0
M  V30 2422 C 237.753 -6.25566 -0.204344 0
M  V30 2423 H 237.986 -2.89515 0.675884 0
M  V30 2424 H 235.519 -1.47211 0.465635 0
M  V30 2425 H 237.477 -3.75048 -1.66881 0
M  V30 2426 H 236.138 -2.58766 -1.78042 0
M  V30 2427 H 235.331 -4.89596 -1.19633 0
M  V30 2428 H 234.933 -3.7388 0.0947845 0
M  V30 2429 H 237.225 -6.69098 -1.06369 0
M  V30 2430 H 238.168 -7.06895 0.412915 0
M  V30 2431 H 238.576 -5.61811 -0.55038 0
M  V30 2432 N 237.974 -0.419461 -1.51915 0
M  V30 2433 C 239.204 0.151915 -2.06041 0
M  V30 2434 C 239.612 1.38539 -1.28855 0
M  V30 2435 O 238.955 1.80592 -0.336463 0
M  V30 2436 C 239.017 0.557119 -3.55157 0
M  V30 2437 C 238.681 -0.567054 -4.53468 0
M  V30 2438 C 239.678 -1.43379 -4.99738 0
M  V30 2439 C 237.363 -0.742693 -4.96779 0
M  V30 2440 C 239.357 -2.46102 -5.87973 0
M  V30 2441 C 237.044 -1.77322 -5.84808 0
M  V30 2442 C 238.042 -2.63078 -6.30301 0
M  V30 2443 O 237.73 -3.64364 -7.16585 0
M  V30 2444 H 237.462 0.0193293 -0.675724 0
M  V30 2445 H 240.016 -0.592073 -1.96682 0
M  V30 2446 H 238.246 1.35355 -3.62238 0
M  V30 2447 H 239.935 1.05759 -3.9188 0
M  V30 2448 H 240.701 -1.30954 -4.66986 0
M  V30 2449 H 236.58 -0.0848307 -4.60922 0
M  V30 2450 H 240.124 -3.13071 -6.23404 0
M  V30 2451 H 236.021 -1.89773 -6.16974 0
M  V30 2452 H 236.789 -3.60731 -7.34721 0
M  V30 2453 N 239.452 1.56882 -0.150215 0
M  V30 2454 C 240.384 2.14057 0.819286 0
M  V30 2455 C 241.397 1.09082 1.20851 0
M  V30 2456 O 242.586 1.36347 1.15203 0
M  V30 2457 C 239.686 2.65102 2.11127 0
M  V30 2458 C 238.859 3.94511 1.88891 0
M  V30 2459 C 237.918 4.30834 3.02107 0
M  V30 2460 O 236.944 4.99099 2.73659 0
M  V30 2461 N 238.146 3.90676 4.29363 0
M  V30 2462 H 240.911 2.97871 0.330618 0
M  V30 2463 H 238.472 1.61866 0.0332538 0
M  V30 2464 H 240.464 2.86411 2.85921 0
M  V30 2465 H 239.034 1.85994 2.51247 0
M  V30 2466 H 238.254 3.81795 0.981152 0
M  V30 2467 H 239.542 4.7907 1.71376 0
M  V30 2468 H 238.94 3.35677 4.55343 0
M  V30 2469 H 237.497 4.1703 5.00928 0
M  V30 2470 N 240.93 -0.123565 1.57115 0
M  V30 2471 C 242.179 -0.830704 1.83799 0
M  V30 2472 C 242.492 -1.81259 0.735158 0
M  V30 2473 O 243.698 -2.56558 0.888278 0
M  V30 2474 C 242.154 -1.52802 3.25852 0
M  V30 2475 C 241.762 -0.587356 4.44133 0
M  V30 2476 C 243.506 -2.22056 3.61789 0
M  V30 2477 C 241.413 -1.28764 5.77212 0
M  V30 2478 H 240.343 -0.313967 0.685522 0
M  V30 2479 H 242.994 -0.0834359 1.8331 0
M  V30 2480 H 241.376 -2.32175 3.20797 0
M  V30 2481 H 242.55 0.172829 4.60476 0
M  V30 2482 H 240.865 -0.00201892 4.164 0
M  V30 2483 H 243.462 -2.75131 4.58483 0
M  V30 2484 H 243.805 -2.99644 2.88997 0
M  V30 2485 H 244.338 -1.49576 3.68608 0
M  V30 2486 H 241.077 -0.55314 6.53162 0
M  V30 2487 H 240.597 -2.01995 5.64764 0
M  V30 2488 H 242.276 -1.8221 6.20813 0
M  V30 2489 N 242.408 -1.52605 -0.393616 0
M  V30 2490 C 243.685 -1.58001 -1.15304 0
M  V30 2491 C 244.065 -0.370385 -2.07825 0
M  V30 2492 O 243.413 0.641638 -2.19306 0
M  V30 2493 C 243.623 -2.91652 -1.91677 0
M  V30 2494 C 244.971 -3.4522 -2.47201 0
M  V30 2495 O 245.995 -2.93495 -2.01839 0
M  V30 2496 O 244.854 -4.35579 -3.3005 0
M  V30 2497 H 241.948 -0.637068 -0.527327 0
M  V30 2498 H 244.494 -1.64939 -0.399141 0
M  V30 2499 H 243.266 -3.71136 -1.23992 0
M  V30 2500 H 242.889 -2.88077 -2.74039 0
M  V30 2501 N 243.887 0.651787 -1.4349 0
M  V30 2502 C 245.112 1.44434 -1.48841 0
M  V30 2503 C 245.537 1.8779 -0.107955 0
M  V30 2504 O 244.895 1.57464 0.898602 0
M  V30 2505 C 244.943 2.65458 -2.44059 0
M  V30 2506 O 244.047 3.64566 -1.92784 0
M  V30 2507 H 243.388 0.433005 -0.503391 0
M  V30 2508 H 245.918 0.797451 -1.88419 0
M  V30 2509 H 245.928 3.13255 -2.6141 0
M  V30 2510 H 244.603 2.33244 -3.4434 0
M  V30 2511 H 243.18 3.23716 -1.851 0
M  V30 2512 N 245.365 1.30045 0.890287 0
M  V30 2513 C 246.611 1.18737 1.64406 0
M  V30 2514 C 246.944 -0.258525 1.92472 0
M  V30 2515 O 246.219 -1.18562 1.54186 0
M  V30 2516 C 246.502 2.01087 2.98724 0
M  V30 2517 C 246.355 3.53867 2.77665 0
M  V30 2518 C 247.674 1.84457 3.9958 0
M  V30 2519 H 244.793 0.432698 0.596608 0
M  V30 2520 H 247.435 1.5962 1.0306 0
M  V30 2521 H 245.585 1.66349 3.51084 0
M  V30 2522 H 247.257 3.98637 2.32133 0
M  V30 2523 H 245.5 3.78318 2.12269 0
M  V30 2524 H 246.171 4.06772 3.7315 0
M  V30 2525 H 248.647 2.14817 3.56361 0
M  V30 2526 H 247.523 2.44411 4.91482 0
M  V30 2527 H 247.784 0.802276 4.3476 0
M  V30 2528 N 246.843 -1.10192 1.12674 0
M  V30 2529 C 248.089 -1.82475 0.884915 0
M  V30 2530 C 248.422 -1.85093 -0.58773 0
M  V30 2531 O 247.697 -1.3134 -1.43457 0
M  V30 2532 C 247.98 -3.29018 1.46353 0
M  V30 2533 C 247.833 -3.34718 3.00473 0
M  V30 2534 C 249.152 -4.25473 1.12519 0
M  V30 2535 H 246.271 -0.662492 0.322915 0
M  V30 2536 H 248.913 -1.2913 1.39375 0
M  V30 2537 H 247.063 -3.74576 1.03077 0
M  V30 2538 H 248.735 -2.97622 3.52447 0
M  V30 2539 H 246.978 -2.74541 3.35872 0
M  V30 2540 H 247.649 -4.37918 3.36053 0
M  V30 2541 H 250.125 -3.88161 1.499 0
M  V30 2542 H 249.001 -5.26365 1.55663 0
M  V30 2543 H 249.262 -4.42084 0.0377407 0
M  V30 2544 N 248.321 -0.919034 -1.28029 0
M  V30 2545 C 249.737 -0.617972 -1.4715 0
M  V30 2546 C 249.937 0.835242 -1.83374 0
M  V30 2547 O 248.993 1.61388 -1.94191 0
M  V30 2548 C 250.306 -1.56041 -2.57044 0
M  V30 2549 C 251.854 -1.56769 -2.7091 0
M  V30 2550 C 252.329 -2.49688 -3.83953 0
M  V30 2551 N 253.82 -2.47845 -3.91314 0
M  V30 2552 C 254.555 -3.16437 -4.78179 0
M  V30 2553 N 254.051 -3.94376 -5.69596 0
M  V30 2554 N 255.844 -3.05498 -4.71834 0
M  V30 2555 H 247.995 -1.85866 -1.02798 0
M  V30 2556 H 250.258 -0.797506 -0.512531 0
M  V30 2557 H 249.964 -2.59671 -2.372 0
M  V30 2558 H 249.838 -1.29551 -3.54255 0
M  V30 2559 H 252.225 -0.538745 -2.90141 0
M  V30 2560 H 252.306 -1.87305 -1.74214 0
M  V30 2561 H 251.95 -3.52688 -3.65477 0
M  V30 2562 H 251.88 -2.16453 -4.80058 0
M  V30 2563 H 254.371 -1.91234 -3.25941 0
M  V30 2564 H 254.684 -4.43721 -6.32718 0
M  V30 2565 H 253.029 -3.98481 -5.69419 0
M  V30 2566 H 256.22 -2.44108 -3.99411 0
M  V30 2567 H 256.393 -3.59225 -5.39316 0
M  V30 2568 N 249.799 1.42003 -0.683588 0
M  V30 2569 C 250.762 2.29191 -0.0198243 0
M  V30 2570 C 251.762 1.43773 0.72013 0
M  V30 2571 O 252.952 1.65061 0.556815 0
M  V30 2572 C 250.084 3.26435 0.982487 0
M  V30 2573 H 251.277 2.8938 -0.787345 0
M  V30 2574 H 248.83 1.49789 -0.446418 0
M  V30 2575 H 249.565 2.71203 1.77819 0
M  V30 2576 H 249.35 3.89449 0.455182 0
M  V30 2577 H 250.84 3.918 1.44508 0
M  V30 2578 N 251.277 0.427512 1.51691 0
M  V30 2579 C 252.517 -0.141524 2.03909 0
M  V30 2580 C 252.881 -1.40811 1.30523 0
M  V30 2581 O 254.082 -2.05676 1.73063 0
M  V30 2582 C 252.353 -0.364962 3.55532 0
M  V30 2583 S 253.912 -0.898812 4.29496 0
M  V30 2584 H 250.73 -0.0364542 0.710065 0
M  V30 2585 H 253.332 0.584659 1.86553 0
M  V30 2586 H 252.036 0.56336 4.06515 0
M  V30 2587 H 251.567 -1.1185 3.77164 0
M  V30 2588 H 253.582 -2.17747 4.45871 0
M  V30 2589 N 252.755 -1.56801 0.158532 0
M  V30 2590 C 253.98 -2.01295 -0.499516 0
M  V30 2591 C 254.405 -1.03799 -1.56867 0
M  V30 2592 O 253.763 -0.0155162 -1.81293 0
M  V30 2593 C 253.811 -3.44469 -1.06647 0
M  V30 2594 O 252.915 -3.50012 -2.18095 0
M  V30 2595 H 252.256 -0.652884 -0.12099 0
M  V30 2596 H 254.786 -2.02958 0.258661 0
M  V30 2597 H 254.796 -3.8351 -1.39227 0
M  V30 2598 H 253.471 -4.14932 -0.283581 0
M  V30 2599 H 252.048 -3.22822 -1.86656 0
M  V30 2600 N 254.233 0.115231 -1.57178 0
M  V30 2601 C 255.51 0.852873 -1.76027 0
M  V30 2602 C 255.89 1.97892 -0.73498 0
M  V30 2603 O 255.238 2.27232 0.24036 0
M  V30 2604 C 255.448 1.36608 -3.21153 0
M  V30 2605 C 256.796 1.81692 -3.83762 0
M  V30 2606 O 257.82 1.46278 -3.24779 0
M  V30 2607 O 256.679 2.47104 -4.87444 0
M  V30 2608 H 253.773 0.405296 -0.720877 0
M  V30 2609 H 256.319 0.0986785 -1.69413 0
M  V30 2610 H 255.091 0.558357 -3.87296 0
M  V30 2611 H 254.714 2.18287 -3.3232 0
M  V30 2612 N 255.711 1.52812 0.385517 0
M  V30 2613 C 256.958 1.68026 1.1302 0
M  V30 2614 C 257.286 0.421934 1.89868 0
M  V30 2615 O 256.541 -0.595749 1.86412 0
M  V30 2616 C 256.84 2.86856 2.13187 0
M  V30 2617 C 256.506 4.24159 1.5297 0
M  V30 2618 C 255.168 4.61501 1.36274 0
M  V30 2619 C 257.52 5.09627 1.09223 0
M  V30 2620 C 254.848 5.81966 0.743837 0
M  V30 2621 C 257.2 6.30719 0.487411 0
M  V30 2622 C 255.864 6.6679 0.307777 0
M  V30 2623 H 255.134 0.614849 0.413571 0
M  V30 2624 H 257.781 1.86962 0.414405 0
M  V30 2625 H 256.086 2.6235 2.90998 0
M  V30 2626 H 257.783 2.95821 2.70722 0
M  V30 2627 H 254.373 3.94746 1.66954 0
M  V30 2628 H 258.557 4.81343 1.20922 0
M  V30 2629 H 253.813 6.08519 0.592891 0
M  V30 2630 H 257.987 6.96259 0.140143 0
M  V30 2631 H 255.614 7.60001 -0.173879 0
M  V30 2632 N 257.189 -0.644168 1.43834 0
M  V30 2633 C 258.119 -1.76814 1.52509 0
M  V30 2634 C 259.1 -1.65823 0.379052 0
M  V30 2635 O 260.285 -1.84781 0.597466 0
M  V30 2636 C 257.415 -3.15288 1.4564 0
M  V30 2637 C 256.369 -3.41053 2.58586 0
M  V30 2638 C 255.695 -4.79421 2.36769 0
M  V30 2639 C 256.995 -3.34902 4.00797 0
M  V30 2640 H 258.689 -1.69812 2.46586 0
M  V30 2641 H 256.235 -0.815542 1.1868 0
M  V30 2642 H 258.188 -3.93681 1.50311 0
M  V30 2643 H 256.912 -3.23043 0.480725 0
M  V30 2644 H 255.571 -2.65035 2.53282 0
M  V30 2645 H 255.219 -4.83863 1.37424 0
M  V30 2646 H 254.919 -4.9762 3.12487 0
M  V30 2647 H 256.443 -5.6006 2.43238 0
M  V30 2648 H 257.857 -4.03218 4.07539 0
M  V30 2649 H 256.254 -3.64637 4.76613 0
M  V30 2650 H 257.324 -2.32928 4.25291 0
M  V30 2651 N 258.668 -1.30515 -0.883378 0
M  V30 2652 C 259.914 -1.19607 -1.63774 0
M  V30 2653 C 260.247 0.248314 -1.92606 0
M  V30 2654 O 259.522 1.17742 -1.54813 0
M  V30 2655 C 259.805 -2.02669 -2.97653 0
M  V30 2656 C 259.658 -3.55335 -2.75784 0
M  V30 2657 C 260.977 -1.86573 -3.98596 0
M  V30 2658 H 258.096 -0.435856 -0.594305 0
M  V30 2659 H 260.738 -1.60165 -1.02212 0
M  V30 2660 H 258.888 -1.68208 -3.50197 0
M  V30 2661 H 260.56 -3.99863 -2.30016 0
M  V30 2662 H 258.803 -3.79438 -2.1026 0
M  V30 2663 H 259.474 -4.08745 -3.70988 0
M  V30 2664 H 261.95 -2.16703 -3.55217 0
M  V30 2665 H 260.826 -2.47014 -4.90179 0
M  V30 2666 H 261.087 -0.825321 -4.34328 0
M  V30 2667 N 260.146 1.09593 -1.13257 0
M  V30 2668 C 261.078 2.16015 -0.766167 0
M  V30 2669 C 262.091 1.61423 0.211303 0
M  V30 2670 O 263.28 1.78498 -0.00863946 0
M  V30 2671 C 260.38 3.38706 -0.114662 0
M  V30 2672 C 259.553 4.22717 -1.12379 0
M  V30 2673 C 258.612 5.23835 -0.498301 0
M  V30 2674 O 257.638 5.573 -1.15781 0
M  V30 2675 N 258.84 5.75886 0.730417 0
M  V30 2676 H 261.605 2.48055 -1.68193 0
M  V30 2677 H 259.166 1.25292 -1.02535 0
M  V30 2678 H 261.158 4.03464 0.315991 0
M  V30 2679 H 259.728 3.04569 0.704011 0
M  V30 2680 H 258.948 3.54122 -1.73179 0
M  V30 2681 H 260.236 4.75673 -1.80589 0
M  V30 2682 H 259.634 5.50911 1.28504 0
M  V30 2683 H 258.191 6.42387 1.10376 0
M  V30 2684 N 261.624 0.925811 1.2754 0
M  V30 2685 C 262.556 0.380753 2.26015 0
M  V30 2686 C 263.569 -0.487485 1.5533 0
M  V30 2687 O 264.758 -0.300413 1.75954 0
M  V30 2688 C 261.858 -0.473259 3.35579 0
M  V30 2689 C 261.031 0.375249 4.35787 0
M  V30 2690 C 260.09 -0.415809 5.24555 0
M  V30 2691 O 259.116 0.175834 5.68928 0
M  V30 2692 N 260.318 -1.71607 5.54555 0
M  V30 2693 H 263.083 1.22725 2.73421 0
M  V30 2694 H 260.644 0.793037 1.41147 0
M  V30 2695 H 262.636 -1.00949 3.91907 0
M  V30 2696 H 261.206 -1.2205 2.87789 0
M  V30 2697 H 260.426 1.09279 3.7875 0
M  V30 2698 H 261.714 0.955399 4.99749 0
M  V30 2699 H 261.112 -2.2191 5.20358 0
M  V30 2700 H 259.669 -2.19887 6.1359 0
M  V30 2701 N 263.102 -1.41638 0.69111 0
M  V30 2702 C 264.032 -2.3347 0.037248 0
M  V30 2703 C 265.013 -1.51575 -0.771947 0
M  V30 2704 O 266.198 -1.80126 -0.72582 0
M  V30 2705 C 263.328 -3.35354 -0.903064 0
M  V30 2706 C 262.282 -4.27526 -0.201288 0
M  V30 2707 C 261.608 -5.19747 -1.25565 0
M  V30 2708 C 262.908 -5.13959 0.929689 0
M  V30 2709 H 264.602 -2.88397 0.804227 0
M  V30 2710 H 262.148 -1.38669 0.388189 0
M  V30 2711 H 264.101 -3.98519 -1.36969 0
M  V30 2712 H 262.825 -2.78767 -1.70166 0
M  V30 2713 H 261.484 -3.65779 0.245265 0
M  V30 2714 H 261.132 -4.59479 -2.04666 0
M  V30 2715 H 260.832 -5.8225 -0.791128 0
M  V30 2716 H 262.356 -5.85789 -1.72288 0
M  V30 2717 H 263.77 -5.70718 0.543546 0
M  V30 2718 H 262.167 -5.85379 1.32103 0
M  V30 2719 H 263.237 -4.51389 1.77133 0
M  V30 2720 N 264.58 -0.43555 -1.51462 0
M  V30 2721 C 265.857 0.191364 -1.94662 0
M  V30 2722 C 266.237 1.60254 -1.37411 0
M  V30 2723 O 265.585 2.2152 -0.560458 0
M  V30 2724 C 265.795 0.17091 -3.48581 0
M  V30 2725 C 267.143 0.377357 -4.2292 0
M  V30 2726 O 268.167 0.249104 -3.55328 0
M  V30 2727 O 267.026 0.63247 -5.42828 0
M  V30 2728 H 264.12 0.130932 -0.816569 0
M  V30 2729 H 266.666 -0.4934 -1.62369 0
M  V30 2730 H 265.438 -0.815738 -3.82703 0
M  V30 2731 H 265.061 0.898659 -3.87311 0
M  V30 2732 N 266.058 1.56714 -0.166846 0
M  V30 2733 C 267.469 1.83378 0.350646 0
M  V30 2734 C 267.82 1.08646 1.63372 0
M  V30 2735 O 266.945 0.338058 2.13743 0
M  V30 2736 C 267.54 3.32643 0.642963 0
M  V30 2737 C 266.099 3.59818 1.10491 0
M  V30 2738 C 265.246 2.76954 0.138411 0
M  V30 2739 H 268.197 1.53803 -0.391193 0
M  V30 2740 H 268.218 3.49878 1.49551 0
M  V30 2741 H 267.73 3.87007 -0.291055 0
M  V30 2742 H 265.831 3.1086 2.05418 0
M  V30 2743 H 265.944 4.68178 1.01716 0
M  V30 2744 H 264.308 2.4666 0.634911 0
M  V30 2745 H 265.091 3.34097 -0.789549 0
M  V30 2746 N 267.536 -0.106894 1.57237 0
M  V30 2747 C 268.761 -0.830287 1.90055 0
M  V30 2748 C 269.186 -1.72064 0.75998 0
M  V30 2749 O 268.544 -1.78982 -0.288991 0
M  V30 2750 C 268.592 -1.6295 3.21683 0
M  V30 2751 O 267.696 -2.73748 3.08441 0
M  V30 2752 H 267.037 -0.228855 0.623315 0
M  V30 2753 H 269.567 -0.085658 2.04421 0
M  V30 2754 H 269.577 -2.01621 3.54701 0
M  V30 2755 H 268.252 -0.975989 4.04286 0
M  V30 2756 H 266.829 -2.38192 2.86913 0
M  V30 2757 N 269.014 -1.53014 -0.377408 0
M  V30 2758 C 269.962 -1.7927 -1.48206 0
M  V30 2759 C 270.956 -0.661195 -1.55963 0
M  V30 2760 O 272.162 -0.843908 -1.58991 0
M  V30 2761 H 268.537 -0.567425 -0.493491 0
M  V30 2762 H 270.508 -2.71753 -1.2326 0
M  V30 2763 C 269.257 -1.98894 -2.85196 0
M  V30 2764 H 268.58 -2.85395 -2.79981 0
M  V30 2765 H 270.02 -2.21249 -3.61698 0
M  V30 2766 C 268.479 -0.764691 -3.28107 0
M  V30 2767 O 269.009 0.0523226 -4.01666 0
M  V30 2768 N 267.215 -0.591493 -2.84517 0
M  V30 2769 H 266.762 -1.25749 -2.24822 0
M  V30 2770 H 266.72 0.226253 -3.13585 0
M  V30 2771 N 270.492 0.636531 -1.44174 0
M  V30 2772 C 271.455 1.73063 -1.50273 0
M  V30 2773 C 272.455 1.56113 -0.385397 0
M  V30 2774 O 273.645 1.61707 -0.64781 0
M  V30 2775 C 270.777 3.12096 -1.37145 0
M  V30 2776 H 271.97 1.69031 -2.47727 0
M  V30 2777 H 269.523 0.849706 -1.31186 0
M  V30 2778 H 270.258 3.21728 -0.407636 0
M  V30 2779 H 270.043 3.25805 -2.18159 0
M  V30 2780 H 271.533 3.91846 -1.44382 0
M  V30 2781 N 271.97 1.30982 0.876444 0
M  V30 2782 C 273.219 1.19658 1.62373 0
M  V30 2783 C 273.532 -0.245636 1.94052 0
M  V30 2784 O 274.738 -0.48049 2.67214 0
M  V30 2785 C 273.194 2.09433 2.92687 0
M  V30 2786 C 272.802 3.58613 2.68516 0
M  V30 2787 C 274.546 2.06893 3.70669 0
M  V30 2788 C 272.453 4.40416 3.94699 0
M  V30 2789 H 271.383 0.444268 0.609214 0
M  V30 2790 H 274.034 1.55791 0.969605 0
M  V30 2791 H 272.416 1.66191 3.59439 0
M  V30 2792 H 273.59 4.10058 2.10212 0
M  V30 2793 H 271.905 3.63063 2.03898 0
M  V30 2794 H 274.502 2.65258 4.64265 0
M  V30 2795 H 274.845 1.05448 4.02724 0
M  V30 2796 H 275.378 2.48301 3.10792 0
M  V30 2797 H 272.117 5.42591 3.67798 0
M  V30 2798 H 271.637 3.93731 4.52477 0
M  V30 2799 H 273.316 4.52294 4.62644 0
M  V30 2800 N 273.449 -1.08991 1.13837 0
M  V30 2801 C 274.697 -1.80899 0.901098 0
M  V30 2802 C 275.018 -1.86356 -0.574134 0
M  V30 2803 O 274.288 -1.35235 -1.41733 0
M  V30 2804 H 272.868 -0.669966 0.330386 0
M  V30 2805 H 275.53 -1.318 1.43578 0
M  V30 2806 H 274.626 -2.83929 1.29578 0
M  V30 2807 N 274.927 -0.932562 -1.27047 0
M  V30 2808 C 276.176 -0.571351 -1.93439 0
M  V30 2809 C 276.489 0.892467 -1.74053 0
M  V30 2810 O 277.695 1.36267 -2.34826 0
M  V30 2811 C 276.151 -0.97106 -3.46552 0
M  V30 2812 C 275.759 -2.4559 -3.74686 0
M  V30 2813 C 277.503 -0.681333 -4.18997 0
M  V30 2814 C 275.41 -2.79475 -5.21198 0
M  V30 2815 H 274.34 -0.209966 -0.724176 0
M  V30 2816 H 276.991 -1.13403 -1.44263 0
M  V30 2817 H 275.373 -0.336983 -3.94564 0
M  V30 2818 H 276.547 -3.13829 -3.37414 0
M  V30 2819 H 274.862 -2.71802 -3.15456 0
M  V30 2820 H 277.459 -0.910939 -5.26883 0
M  V30 2821 H 277.802 0.381628 -4.14547 0
M  V30 2822 H 278.335 -1.27473 -3.76823 0
M  V30 2823 H 275.074 -3.847 -5.30741 0
M  V30 2824 H 274.594 -2.1589 -5.596 0
M  V30 2825 H 276.273 -2.67478 -5.89122 0
M  V30 2826 N 276.405 1.4127 -0.698611 0
M  V30 2827 C 277.368 2.29158 -0.044132 0
M  V30 2828 C 278.368 1.44529 0.704841 0
M  V30 2829 O 279.558 1.65643 0.539276 0
M  V30 2830 C 276.69 3.27459 0.947809 0
M  V30 2831 H 277.883 2.88529 -0.817994 0
M  V30 2832 H 275.436 1.49307 -0.46228 0
M  V30 2833 H 276.171 2.73073 1.74933 0
M  V30 2834 H 275.956 3.8991 0.41385 0
M  V30 2835 H 277.446 3.93311 1.40344 0
M  V30 2836 N 277.883 0.443576 1.51229 0
M  V30 2837 C 278.831 -0.37904 2.29491 0
M  V30 2838 C 279.825 -1.0153 1.35603 0
M  V30 2839 O 281.031 -0.94955 1.52917 0
M  V30 2840 H 277.406 -0.141053 0.738653 0
M  V30 2841 H 279.377 0.301799 2.9687 0
M  V30 2842 C 278.126 -1.46426 3.15364 0
M  V30 2843 H 277.449 -0.984037 3.87501 0
M  V30 2844 H 278.889 -2.01297 3.7317 0
M  V30 2845 C 277.348 -2.45099 2.31146 0
M  V30 2846 O 277.878 -3.49773 1.9754 0
M  V30 2847 N 276.084 -2.16139 1.94249 0
M  V30 2848 H 275.631 -1.31044 2.21777 0
M  V30 2849 H 275.589 -2.82398 1.38198 0
M  V30 2850 N 279.361 -1.56624 0.175154 0
M  V30 2851 C 280.608 -1.96999 -0.468811 0
M  V30 2852 C 280.936 -1.06129 -1.62994 0
M  V30 2853 O 280.191 -0.0961771 -1.95464 0
M  V30 2854 C 280.49 -3.43419 -0.989864 0
M  V30 2855 C 280.156 -4.50866 0.0557687 0
M  V30 2856 C 278.818 -4.79975 0.343134 0
M  V30 2857 C 281.17 -5.15551 0.765308 0
M  V30 2858 C 278.498 -5.71066 1.34536 0
M  V30 2859 C 280.85 -6.07724 1.75654 0
M  V30 2860 C 279.514 -6.35199 2.05132 0
M  V30 2861 H 278.784 -0.720869 -0.17155 0
M  V30 2862 H 281.431 -1.89616 0.267924 0
M  V30 2863 H 279.736 -3.47772 -1.80449 0
M  V30 2864 H 281.433 -3.72002 -1.49719 0
M  V30 2865 H 278.023 -4.28229 -0.178381 0
M  V30 2866 H 282.207 -4.9317 0.556513 0
M  V30 2867 H 277.463 -5.90635 1.57988 0
M  V30 2868 H 281.637 -6.56912 2.31169 0
M  V30 2869 H 279.264 -7.05584 2.8294 0
M  V30 2870 N 280.839 0.0985539 -1.57292 0
M  V30 2871 C 281.802 1.10402 -2.00858 0
M  V30 2872 C 282.802 1.33146 -0.901593 0
M  V30 2873 O 283.992 1.29318 -1.16716 0
M  V30 2874 C 281.124 2.45394 -2.36632 0
M  V30 2875 H 282.317 0.729099 -2.90902 0
M  V30 2876 H 279.87 0.343495 -1.52479 0
M  V30 2877 H 280.605 2.87769 -1.49531 0
M  V30 2878 H 280.39 2.30235 -3.17387 0
M  V30 2879 H 281.88 3.17718 -2.71007 0
M  V30 2880 N 282.317 1.53212 0.369288 0
M  V30 2881 C 283.227 1.82342 1.47609 0
M  V30 2882 C 284.243 0.711532 1.58787 0
M  V30 2883 O 285.419 1.0012 1.74751 0
M  V30 2884 C 282.484 2.00393 2.8292 0
M  V30 2885 C 281.545 3.24297 2.81301 0
M  V30 2886 C 280.778 3.41478 4.10157 0
M  V30 2887 O 281.001 2.63033 5.06132 0
M  V30 2888 O 279.935 4.34817 4.16194 0
M  V30 2889 H 283.761 2.76366 1.25918 0
M  V30 2890 H 281.346 1.38547 0.559034 0
M  V30 2891 H 283.228 2.13859 3.63101 0
M  V30 2892 H 281.903 1.09559 3.04596 0
M  V30 2893 H 280.81 3.16257 1.99831 0
M  V30 2894 H 282.143 4.15041 2.64578 0
M  V30 2895 N 283.795 -0.628877 1.44509 0
M  V30 2896 C 284.727 -1.754 1.47538 0
M  V30 2897 C 285.74 -1.58575 0.368506 0
M  V30 2898 O 286.929 -1.66847 0.634376 0
M  V30 2899 C 284.029 -3.1315 1.29577 0
M  V30 2900 C 283.202 -3.56413 2.53551 0
M  V30 2901 C 282.261 -4.7305 2.30457 0
M  V30 2902 O 281.287 -4.81247 3.03957 0
M  V30 2903 N 282.489 -5.64903 1.3366 0
M  V30 2904 H 285.254 -1.73272 2.44534 0
M  V30 2905 H 282.815 -0.813512 1.39977 0
M  V30 2906 H 284.807 -3.88902 1.11971 0
M  V30 2907 H 283.377 -3.09908 0.409371 0
M  V30 2908 H 282.597 -2.70847 2.86419 0
M  V30 2909 H 283.885 -3.82071 3.36005 0
M  V30 2910 H 283.283 -5.60975 0.729604 0
M  V30 2911 H 281.84 -6.40275 1.22032 0
M  V30 2912 N 285.273 -1.31445 -0.869486 0
M  V30 2913 C 286.522 -1.20517 -1.61736 0
M  V30 2914 C 286.835 0.235341 -1.94179 0
M  V30 2915 O 288.041 0.466312 -2.67465 0
M  V30 2916 C 286.497 -2.10982 -2.91573 0
M  V30 2917 C 286.105 -3.60032 -2.66611 0
M  V30 2918 C 287.849 -2.08856 -3.69567 0
M  V30 2919 C 285.756 -4.42503 -3.92358 0
M  V30 2920 H 284.686 -0.447493 -0.606849 0
M  V30 2921 H 287.337 -1.56303 -0.96133 0
M  V30 2922 H 285.719 -1.68095 -3.58553 0
M  V30 2923 H 286.893 -4.11167 -2.08035 0
M  V30 2924 H 285.208 -3.64139 -2.0197 0
M  V30 2925 H 287.805 -2.67716 -4.62852 0
M  V30 2926 H 288.148 -1.07582 -4.02159 0
M  V30 2927 H 288.681 -2.49945 -3.09471 0
M  V30 2928 H 285.42 -5.44533 -3.64916 0
M  V30 2929 H 284.94 -3.96125 -4.50383 0
M  V30 2930 H 286.619 -4.54741 -4.60238 0
M  V30 2931 N 286.751 1.08385 -1.14413 0
M  V30 2932 C 287.999 1.80419 -0.910679 0
M  V30 2933 C 288.32 1.86658 0.564243 0
M  V30 2934 O 287.59 1.35985 1.41014 0
M  V30 2935 H 286.17 0.668204 -0.333934 0
M  V30 2936 H 288.832 1.31037 -1.44275 0
M  V30 2937 H 287.928 2.83238 -1.31082 0
M  V30 2938 N 288.23 0.939286 1.26551 0
M  V30 2939 C 289.47 0.5933 1.956 0
M  V30 2940 C 289.834 -0.851515 1.72085 0
M  V30 2941 O 291.035 -1.30634 2.34921 0
M  V30 2942 C 289.306 0.923996 3.45249 0
M  V30 2943 S 290.865 0.688269 4.33369 0
M  V30 2944 H 287.683 0.218591 0.676564 0
M  V30 2945 H 290.285 1.2102 1.5354 0
M  V30 2946 H 288.989 1.97297 3.59864 0
M  V30 2947 H 288.52 0.296746 3.92279 0
M  V30 2948 H 290.535 -0.448434 4.9417 0
M  V30 2949 N 289.708 -1.40897 0.706093 0
M  V30 2950 C 290.954 -2.01352 0.241889 0
M  V30 2951 C 291.287 -1.55832 -1.15888 0
M  V30 2952 O 290.562 -0.774145 -1.7843 0
M  V30 2953 C 290.845 -3.58752 0.311311 0
M  V30 2954 C 290.698 -4.1437 1.74978 0
M  V30 2955 C 292.017 -4.38914 -0.322922 0
M  V30 2956 H 289.136 -0.731562 0.0893687 0
M  V30 2957 H 291.778 -1.67504 0.896802 0
M  V30 2958 H 289.928 -3.87718 -0.246302 0
M  V30 2959 H 291.6 -3.96239 2.36205 0
M  V30 2960 H 289.843 -3.69016 2.28057 0
M  V30 2961 H 290.514 -5.23532 1.74981 0
M  V30 2962 H 292.99 -4.15822 0.152089 0
M  V30 2963 H 291.866 -5.48358 -0.243855 0
M  V30 2964 H 292.127 -4.19176 -1.40513 0
M  V30 2965 N 291.186 -0.45159 -1.50991 0
M  V30 2966 C 292.096 0.358431 -2.31846 0
M  V30 2967 C 293.112 1.01438 -1.41373 0
M  V30 2968 O 294.288 1.00663 -1.74439 0
M  V30 2969 C 291.353 1.43704 -3.15515 0
M  V30 2970 C 290.414 0.799742 -4.21785 0
M  V30 2971 C 289.647 1.82696 -5.01456 0
M  V30 2972 O 289.87 3.05105 -4.81941 0
M  V30 2973 O 288.804 1.40958 -5.85162 0
M  V30 2974 H 292.63 -0.302032 -3.02194 0
M  V30 2975 H 290.215 -0.213825 -1.47862 0
M  V30 2976 H 292.097 2.06227 -3.67489 0
M  V30 2977 H 290.772 2.08133 -2.47916 0
M  V30 2978 H 289.679 0.136084 -3.73852 0
M  V30 2979 H 291.012 0.198718 -4.91799 0
M  V30 2980 N 292.664 1.56529 -0.183458 0
M  V30 2981 C 293.594 2.21549 0.737456 0
M  V30 2982 C 294.575 1.17489 1.23005 0
M  V30 2983 O 295.76 1.45959 1.281 0
M  V30 2984 C 292.89 2.86575 1.96194 0
M  V30 2985 C 291.844 3.96778 1.60473 0
M  V30 2986 C 291.17 4.48911 2.90487 0
M  V30 2987 C 292.47 5.15767 0.823497 0
M  V30 2988 H 294.164 2.98761 0.195453 0
M  V30 2989 H 291.71 1.43702 0.0925686 0
M  V30 2990 H 293.663 3.30739 2.61131 0
M  V30 2991 H 292.387 2.06749 2.52828 0
M  V30 2992 H 291.046 3.53286 0.978997 0
M  V30 2993 H 290.694 3.65862 3.45186 0
M  V30 2994 H 290.394 5.23265 2.67335 0
M  V30 2995 H 291.918 4.95771 3.56432 0
M  V30 2996 H 293.332 5.56549 1.37571 0
M  V30 2997 H 291.729 5.96114 0.690551 0
M  V30 2998 H 292.799 4.84574 -0.177782 0
M  V30 2999 N 294.142 -0.090211 1.57342 0
M  V30 3000 C 295.092 -1.11557 1.98844 0
M  V30 3001 C 296.076 -1.35503 0.867624 0
M  V30 3002 O 297.268 -1.36113 1.13148 0
M  V30 3003 C 294.397 -2.43446 2.42051 0
M  V30 3004 C 293.483 -2.22853 3.60828 0
M  V30 3005 N 293.874 -1.72141 4.75606 0
M  V30 3006 C 292.172 -2.53401 3.67021 0
M  V30 3007 C 292.873 -1.65932 5.57531 0
M  V30 3008 N 291.849 -2.11323 5.00843 0
M  V30 3009 H 295.651 -0.716499 2.85032 0
M  V30 3010 H 293.165 -0.297567 1.59651 0
M  V30 3011 H 295.162 -3.17644 2.70014 0
M  V30 3012 H 293.822 -2.84087 1.57241 0
M  V30 3013 H 294.833 -1.41268 4.98261 0
M  V30 3014 H 291.51 -2.97532 2.92884 0
M  V30 3015 H 292.9 -1.27733 6.59647 0
M  V30 3016 N 295.62 -1.53406 -0.361157 0
M  V30 3017 C 296.552 -1.76446 -1.46286 0
M  V30 3018 C 297.565 -0.645322 -1.49464 0
M  V30 3019 O 298.754 -0.921681 -1.52864 0
M  V30 3020 C 295.854 -1.83332 -2.85031 0
M  V30 3021 C 295.027 -3.13033 -3.05498 0
M  V30 3022 C 294.086 -3.11104 -4.24383 0
M  V30 3023 O 293.112 -3.84888 -4.19344 0
M  V30 3024 N 294.314 -2.32234 -5.32022 0
M  V30 3025 H 297.079 -2.71508 -1.26899 0
M  V30 3026 H 294.64 -1.52238 -0.550915 0
M  V30 3027 H 296.632 -1.79514 -3.62708 0
M  V30 3028 H 295.202 -0.955342 -2.97644 0
M  V30 3029 H 294.422 -3.30119 -2.15442 0
M  V30 3030 H 295.71 -3.9874 -3.16044 0
M  V30 3031 H 295.108 -1.71807 -5.38979 0
M  V30 3032 H 293.665 -2.3423 -6.08259 0
M  V30 3033 N 297.098 0.621204 -1.44841 0
M  V30 3034 C 298.514 0.94048 -1.28946 0
M  V30 3035 C 298.714 2.00154 -0.23249 0
M  V30 3036 O 297.77 2.49651 0.378237 0
M  V30 3037 C 299.083 1.39433 -2.66419 0
M  V30 3038 C 300.631 1.50927 -2.74208 0
M  V30 3039 C 301.106 1.99692 -4.12174 0
M  V30 3040 N 302.597 2.06947 -4.144 0
M  V30 3041 C 303.332 2.45871 -5.1801 0
M  V30 3042 N 302.828 2.83862 -6.31977 0
M  V30 3043 N 304.621 2.46092 -5.05366 0
M  V30 3044 H 296.772 -0.0803548 -2.12248 0
M  V30 3045 H 299.035 0.0266913 -0.947624 0
M  V30 3046 H 298.741 0.688925 -3.44887 0
M  V30 3047 H 298.615 2.36347 -2.93973 0
M  V30 3048 H 301.002 2.20561 -1.96053 0
M  V30 3049 H 301.083 0.523627 -2.50383 0
M  V30 3050 H 300.727 1.30649 -4.90809 0
M  V30 3051 H 300.657 2.99146 -4.33381 0
M  V30 3052 H 303.148 1.80232 -3.32152 0
M  V30 3053 H 303.461 3.12405 -7.0684 0
M  V30 3054 H 301.806 2.8159 -6.35399 0
M  V30 3055 H 304.997 2.1581 -4.15384 0
M  V30 3056 H 305.17 2.76102 -5.86235 0
M  V30 3057 N 298.576 1.31904 0.862503 0
M  V30 3058 C 299.539 1.20131 1.95195 0
M  V30 3059 C 300.539 0.126409 1.60302 0
M  V30 3060 O 301.729 0.376234 1.70089 0
M  V30 3061 C 298.861 0.845691 3.30244 0
M  V30 3062 H 300.054 2.16943 2.07064 0
M  V30 3063 H 297.607 1.15622 1.05172 0
M  V30 3064 H 298.342 -0.120957 3.24074 0
M  V30 3065 H 298.127 1.62276 3.56944 0
M  V30 3066 H 299.617 0.787418 4.10109 0
M  V30 3067 N 300.054 -1.07777 1.14986 0
M  V30 3068 C 301.47 -1.32373 0.891596 0
M  V30 3069 C 301.67 -1.9609 -0.463788 0
M  V30 3070 O 300.726 -2.21801 -1.20667 0
M  V30 3071 C 302.039 -2.21905 2.02925 0
M  V30 3072 C 303.587 -2.35367 2.06329 0
M  V30 3073 C 304.062 -3.28245 3.19405 0
M  V30 3074 N 305.553 -3.35824 3.19024 0
M  V30 3075 C 306.288 -4.07739 4.03158 0
M  V30 3076 N 305.784 -4.82306 4.97346 0
M  V30 3077 N 307.577 -4.03635 3.91197 0
M  V30 3078 H 299.728 -0.648039 2.02273 0
M  V30 3079 H 301.991 -0.348149 0.881757 0
M  V30 3080 H 301.697 -1.82342 3.0074 0
M  V30 3081 H 301.571 -3.22407 1.95789 0
M  V30 3082 H 303.958 -2.74186 1.09116 0
M  V30 3083 H 304.039 -1.34585 2.17533 0
M  V30 3084 H 303.683 -2.90146 4.16867 0
M  V30 3085 H 303.613 -4.28971 3.05437 0
M  V30 3086 H 306.104 -2.8267 2.50811 0
M  V30 3087 H 306.417 -5.34661 5.57994 0
M  V30 3088 H 304.762 -4.81337 5.01338 0
M  V30 3089 H 307.953 -3.44491 3.16928 0
M  V30 3090 H 308.126 -4.59417 4.5699 0
M  V30 3091 N 301.532 -0.945985 -1.26051 0
M  V30 3092 C 302.442 -0.465633 -2.29933 0
M  V30 3093 C 303.458 0.462761 -1.67733 0
M  V30 3094 O 304.634 0.341118 -1.9849 0
M  V30 3095 C 301.699 0.256994 -3.45746 0
M  V30 3096 C 300.76 -0.708549 -4.23412 0
M  V30 3097 C 299.993 -0.0203135 -5.33696 0
M  V30 3098 O 300.216 1.19571 -5.57726 0
M  V30 3099 O 299.15 -0.701459 -5.97799 0
M  V30 3100 H 302.976 -1.32866 -2.73094 0
M  V30 3101 H 300.561 -0.712071 -1.31339 0
M  V30 3102 H 302.443 0.663852 -4.16138 0
M  V30 3103 H 301.118 1.09533 -3.04605 0
M  V30 3104 H 300.025 -1.16545 -3.55483 0
M  V30 3105 H 301.358 -1.51465 -4.68315 0
M  V30 3106 N 303.011 1.40521 -0.713556 0
M  V30 3107 C 304.241 2.0494 -0.261395 0
M  V30 3108 C 304.649 1.53861 1.10107 0
M  V30 3109 O 303.992 0.689321 1.70276 0
M  V30 3110 C 304.054 3.59138 -0.161227 0
M  V30 3111 C 303.718 4.33096 -1.45865 0
M  V30 3112 C 304.715 4.61182 -2.40016 0
M  V30 3113 C 302.4 4.72043 -1.71701 0
M  V30 3114 C 304.394 5.27196 -3.58251 0
M  V30 3115 C 302.081 5.37789 -2.90218 0
M  V30 3116 C 303.079 5.65295 -3.83315 0
M  V30 3117 O 302.767 6.29683 -4.99754 0
M  V30 3118 H 302.499 0.666041 -0.115608 0
M  V30 3119 H 305.053 1.80954 -0.971849 0
M  V30 3120 H 303.283 3.81936 0.605153 0
M  V30 3121 H 304.972 4.05091 0.256105 0
M  V30 3122 H 305.738 4.31559 -2.21318 0
M  V30 3123 H 301.617 4.50003 -1.00092 0
M  V30 3124 H 305.161 5.48582 -4.30934 0
M  V30 3125 H 301.058 5.66831 -3.08825 0
M  V30 3126 H 301.826 6.4818 -4.99805 0
M  V30 3127 N 304.489 0.459591 1.5075 0
M  V30 3128 C 305.738 -0.100971 2.01447 0
M  V30 3129 C 306.051 -1.41816 1.34713 0
M  V30 3130 O 307.257 -2.06299 1.76502 0
M  V30 3131 C 305.713 -0.23047 3.59161 0
M  V30 3132 C 305.321 1.0776 4.34847 0
M  V30 3133 C 307.065 -0.743608 4.17936 0
M  V30 3134 C 304.972 0.91253 5.84317 0
M  V30 3135 H 303.902 -0.0415102 0.752856 0
M  V30 3136 H 306.553 0.592742 1.73663 0
M  V30 3137 H 304.935 -0.987703 3.83485 0
M  V30 3138 H 306.109 1.8449 4.22256 0
M  V30 3139 H 304.424 1.52097 3.87628 0
M  V30 3140 H 307.021 -0.883959 5.27343 0
M  V30 3141 H 307.364 -1.73196 3.78562 0
M  V30 3142 H 307.897 -0.04408 3.97776 0
M  V30 3143 H 304.636 1.87391 6.28144 0
M  V30 3144 H 304.156 0.185422 5.99513 0
M  V30 3145 H 305.835 0.574547 6.44444 0
M  V30 3146 N 305.967 -1.56429 0.191757 0
M  V30 3147 C 307.197 -2.01574 -0.452928 0
M  V30 3148 C 307.605 -1.07107 -1.55964 0
M  V30 3149 O 306.948 -0.067534 -1.83576 0
M  V30 3150 C 307.01 -3.43121 -1.07278 0
M  V30 3151 C 306.674 -4.56879 -0.105214 0
M  V30 3152 C 307.671 -5.15379 0.684149 0
M  V30 3153 C 305.356 -5.023 0.00489824 0
M  V30 3154 C 307.35 -6.17746 1.57062 0
M  V30 3155 C 305.037 -6.04511 0.894935 0
M  V30 3156 C 306.035 -6.62108 1.67637 0
M  V30 3157 O 305.723 -7.62335 2.55149 0
M  V30 3158 H 305.455 -0.665554 -0.118379 0
M  V30 3159 H 308.009 -2.03245 0.296737 0
M  V30 3160 H 306.239 -3.38425 -1.87097 0
M  V30 3161 H 307.928 -3.72093 -1.62177 0
M  V30 3162 H 308.694 -4.81157 0.609365 0
M  V30 3163 H 304.573 -4.57168 -0.593156 0
M  V30 3164 H 308.117 -6.6263 2.181 0
M  V30 3165 H 304.014 -6.38157 0.970847 0
M  V30 3166 H 304.782 -7.79741 2.48892 0
M  V30 3167 N 307.445 0.0818655 -1.57387 0
M  V30 3168 C 308.378 1.12986 -1.98266 0
M  V30 3169 C 309.356 1.38123 -0.857954 0
M  V30 3170 O 310.54 1.51663 -1.1194 0
M  V30 3171 C 307.667 2.47632 -2.31076 0
M  V30 3172 C 306.713 2.38693 -3.53452 0
M  V30 3173 S 307.546 1.79071 -5.04672 0
M  V30 3174 C 308.702 3.15316 -5.40673 0
M  V30 3175 H 308.935 0.781435 -2.86846 0
M  V30 3176 H 306.468 0.290034 -1.51651 0
M  V30 3177 H 308.426 3.25089 -2.50654 0
M  V30 3178 H 307.087 2.79638 -1.43043 0
M  V30 3179 H 306.28 3.37964 -3.73893 0
M  V30 3180 H 305.882 1.69369 -3.33452 0
M  V30 3181 H 308.174 4.11613 -5.38127 0
M  V30 3182 H 309.117 2.99664 -6.41566 0
M  V30 3183 H 309.525 3.15457 -4.68132 0
M  V30 3184 N 308.923 1.53595 0.353017 0
M  V30 3185 C 309.873 1.77299 1.43349 0
M  V30 3186 C 310.857 0.627884 1.48143 0
M  V30 3187 O 312.049 0.88697 1.53173 0
M  V30 3188 C 309.178 1.97757 2.80619 0
M  V30 3189 C 308.264 3.18305 2.80254 0
M  V30 3190 N 308.655 4.39967 2.49526 0
M  V30 3191 C 306.953 3.19283 3.11407 0
M  V30 3192 C 307.654 5.21772 2.57156 0
M  V30 3193 N 306.63 4.58269 2.92388 0
M  V30 3194 H 310.432 2.68963 1.18474 0
M  V30 3195 H 307.946 1.52391 0.561306 0
M  V30 3196 H 309.943 2.1287 3.58458 0
M  V30 3197 H 308.603 1.07329 3.06448 0
M  V30 3198 H 309.614 4.67482 2.22893 0
M  V30 3199 H 306.291 2.3879 3.4247 0
M  V30 3200 H 307.681 6.2885 2.36638 0
M  V30 3201 N 310.401 -0.613514 1.45168 0
M  V30 3202 C 311.648 -1.37268 1.48875 0
M  V30 3203 C 311.976 -1.94077 0.128161 0
M  V30 3204 O 311.231 -1.75178 -0.872416 0
M  V30 3205 C 311.53 -2.54347 2.51083 0
M  V30 3206 C 311.196 -2.1572 3.95949 0
M  V30 3207 C 309.858 -2.04899 4.35396 0
M  V30 3208 C 312.21 -1.85485 4.87078 0
M  V30 3209 C 309.538 -1.62057 5.63875 0
M  V30 3210 C 311.89 -1.4413 6.15962 0
M  V30 3211 C 310.554 -1.31863 6.54346 0
M  V30 3212 H 309.824 -0.502299 0.544773 0
M  V30 3213 H 312.471 -0.694021 1.78481 0
M  V30 3214 H 310.776 -3.27524 2.15024 0
M  V30 3215 H 312.473 -3.12577 2.51191 0
M  V30 3216 H 309.063 -2.25066 3.64751 0
M  V30 3217 H 313.247 -1.92745 4.57343 0
M  V30 3218 H 308.503 -1.51177 5.92415 0
M  V30 3219 H 312.677 -1.19778 6.86022 0
M  V30 3220 H 310.304 -0.984392 7.538 0
M  V30 3221 N 311.879 -1.3236 -0.855495 0
M  V30 3222 C 313.127 -1.22629 -1.60644 0
M  V30 3223 C 313.448 0.212136 -1.93843 0
M  V30 3224 O 312.718 1.13666 -1.59552 0
M  V30 3225 H 311.298 -0.450882 -0.595579 0
M  V30 3226 H 313.96 -1.65871 -1.02337 0
M  V30 3227 H 313.056 -1.80832 -2.54374 0
M  V30 3228 N 313.357 1.07166 -1.15556 0
M  V30 3229 C 314.267 2.17947 -0.868116 0
M  V30 3230 C 315.283 1.73297 0.156297 0
M  V30 3231 O 316.459 2.01392 -0.0182327 0
M  V30 3232 C 313.524 3.44789 -0.36355 0
M  V30 3233 C 312.585 4.03996 -1.45209 0
M  V30 3234 C 311.818 5.24783 -0.971508 0
M  V30 3235 O 312.041 5.70109 0.182194 0
M  V30 3236 O 310.975 5.75715 -1.75603 0
M  V30 3237 H 314.801 2.4503 -1.79427 0
M  V30 3238 H 312.386 1.16539 -0.934824 0
M  V30 3239 H 314.268 4.21307 -0.0887113 0
M  V30 3240 H 312.943 3.19253 0.534708 0
M  V30 3241 H 311.85 3.29009 -1.78056 0
M  V30 3242 H 313.183 4.33808 -2.32533 0
M  V30 3243 N 314.835 0.952656 1.25548 0
M  V30 3244 C 316.081 0.607272 1.93494 0
M  V30 3245 C 316.414 -0.853245 1.74452 0
M  V30 3246 O 315.689 -1.61194 1.08843 0
M  V30 3247 C 315.972 0.96435 3.46947 0
M  V30 3248 C 315.825 2.48045 3.75225 0
M  V30 3249 C 317.144 0.487987 4.37386 0
M  V30 3250 H 314.263 0.222096 0.702739 0
M  V30 3251 H 316.905 1.18895 1.48203 0
M  V30 3252 H 315.055 0.469361 3.85654 0
M  V30 3253 H 316.727 3.04905 3.46166 0
M  V30 3254 H 314.97 2.919 3.209 0
M  V30 3255 H 315.641 2.6808 4.82532 0
M  V30 3256 H 318.117 0.912558 4.0597 0
M  V30 3257 H 316.993 0.766547 5.43521 0
M  V30 3258 H 317.254 -0.612063 4.37843 0
M  V30 3259 N 316.313 -1.40141 0.720998 0
M  V30 3260 C 317.276 -2.29058 0.0805834 0
M  V30 3261 C 318.276 -1.45632 -0.681758 0
M  V30 3262 O 319.466 -1.6648 -0.512856 0
M  V30 3263 C 316.598 -3.28925 -0.895593 0
M  V30 3264 H 317.791 -2.87191 0.863793 0
M  V30 3265 H 315.344 -1.48553 0.485975 0
M  V30 3266 H 316.079 -2.75822 -1.70566 0
M  V30 3267 H 315.864 -3.90519 -0.351766 0
M  V30 3268 H 317.354 -3.95494 -1.34069 0
M  V30 3269 N 317.792 -0.46758 -1.50504 0
M  V30 3270 C 318.739 0.328413 -2.28452 0
M  V30 3271 C 319.709 0.990313 -1.33349 0
M  V30 3272 O 320.894 1.00343 -1.62284 0
M  V30 3273 C 318.034 1.40648 -3.15138 0
M  V30 3274 C 317.147 0.759709 -4.25267 0
M  V30 3275 C 316.282 1.81537 -4.99217 0
M  V30 3276 C 315.321 1.14866 -6.01226 0
M  V30 3277 N 314.458 2.14702 -6.68467 0
M  V30 3278 H 319.298 -0.342603 -2.96024 0
M  V30 3279 H 316.835 -0.180801 -1.45985 0
M  V30 3280 H 318.793 2.04315 -3.63746 0
M  V30 3281 H 317.423 2.04671 -2.49619 0
M  V30 3282 H 316.475 0.0105671 -3.80399 0
M  V30 3283 H 317.787 0.233243 -4.98254 0
M  V30 3284 H 316.941 2.52793 -5.51526 0
M  V30 3285 H 315.68 2.37564 -4.25928 0
M  V30 3286 H 314.685 0.42171 -5.4818 0
M  V30 3287 H 315.91 0.595334 -6.76485 0
M  V30 3288 H 313.856 2.69752 -5.97972 0
M  V30 3289 H 313.773 1.6703 -7.37317 0
M  V30 3290 H 315.041 2.85348 -7.25394 0
M  V30 3291 N 319.27 1.56325 -0.20005 0
M  V30 3292 C 320.202 2.16555 0.750771 0
M  V30 3293 C 321.215 1.12871 1.1732 0
M  V30 3294 O 322.404 1.39943 1.10807 0
M  V30 3295 C 319.504 2.71684 2.02586 0
M  V30 3296 C 318.677 4.00321 1.76244 0
M  V30 3297 C 317.736 4.40227 2.88248 0
M  V30 3298 O 316.762 5.07552 2.57642 0
M  V30 3299 N 317.964 4.04138 4.16717 0
M  V30 3300 H 320.729 2.98772 0.235685 0
M  V30 3301 H 318.29 1.6189 -0.0182594 0
M  V30 3302 H 320.282 2.95363 2.76664 0
M  V30 3303 H 318.852 1.93893 2.45202 0
M  V30 3304 H 318.072 3.84723 0.85919 0
M  V30 3305 H 319.36 4.84279 1.56048 0
M  V30 3306 H 318.758 3.49993 4.44434 0
M  V30 3307 H 317.315 4.32756 4.87407 0
M  V30 3308 N 320.748 -0.0735177 1.57428 0
M  V30 3309 C 321.658 -1.10547 2.06922 0
M  V30 3310 C 322.674 -1.42506 0.998402 0
M  V30 3311 O 323.85 -1.52717 1.31299 0
M  V30 3312 C 320.915 -2.40019 2.50184 0
M  V30 3313 C 319.976 -2.15046 3.71556 0
M  V30 3314 C 319.209 -3.38345 4.12745 0
M  V30 3315 O 319.432 -4.47399 3.53822 0
M  V30 3316 O 318.366 -3.2666 5.05546 0
M  V30 3317 H 322.192 -0.715013 2.95163 0
M  V30 3318 H 319.777 -0.287531 1.46607 0
M  V30 3319 H 321.659 -3.16218 2.78539 0
M  V30 3320 H 320.334 -2.78447 1.65072 0
M  V30 3321 H 319.241 -1.36558 3.48285 0
M  V30 3322 H 320.574 -1.81499 4.57514 0
M  V30 3323 N 322.226 -1.5378 -0.344866 0
M  V30 3324 C 323.136 -1.84667 -1.4469 0
M  V30 3325 C 324.152 -0.736704 -1.57635 0
M  V30 3326 O 325.328 -1.02888 -1.73136 0
M  V30 3327 C 322.393 -2.04869 -2.79696 0
M  V30 3328 C 321.454 -3.28731 -2.76106 0
M  V30 3329 C 320.687 -3.4796 -4.04673 0
M  V30 3330 O 320.91 -2.71052 -5.01883 0
M  V30 3331 O 319.844 -4.41383 -4.09224 0
M  V30 3332 H 323.67 -2.78334 -1.21506 0
M  V30 3333 H 321.255 -1.39418 -0.536921 0
M  V30 3334 H 323.137 -2.19609 -3.59652 0
M  V30 3335 H 321.812 -1.14391 -3.02814 0
M  V30 3336 H 320.719 -3.19396 -1.94774 0
M  V30 3337 H 322.052 -4.19198 -2.57941 0
M  V30 3338 N 323.704 0.605807 -1.45491 0
M  V30 3339 C 324.951 1.36476 -1.49601 0
M  V30 3340 C 325.279 1.94007 -0.138452 0
M  V30 3341 O 324.534 1.75638 0.863114 0
M  V30 3342 C 324.833 2.53012 -2.52428 0
M  V30 3343 C 324.499 2.13617 -3.97087 0
M  V30 3344 C 323.161 2.02587 -4.36477 0
M  V30 3345 C 325.513 1.82899 -4.88055 0
M  V30 3346 C 322.841 1.59064 -5.64726 0
M  V30 3347 C 325.193 1.40861 -6.16718 0
M  V30 3348 C 323.857 1.28391 -6.55036 0
M  V30 3349 H 323.127 0.499402 -0.547429 0
M  V30 3350 H 325.774 0.684546 -1.78847 0
M  V30 3351 H 324.079 3.26379 -2.16758 0
M  V30 3352 H 325.776 3.1124 -2.52845 0
M  V30 3353 H 322.366 2.23129 -3.65939 0
M  V30 3354 H 326.55 1.90317 -4.58359 0
M  V30 3355 H 321.806 1.48034 -5.93208 0
M  V30 3356 H 325.98 1.16138 -6.86648 0
M  V30 3357 H 323.607 0.944403 -7.54311 0
M  V30 3358 N 325.182 1.32811 0.848464 0
M  V30 3359 C 326.429 1.23724 1.60308 0
M  V30 3360 C 326.757 -0.1994 1.93475 0
M  V30 3361 O 326.012 -1.15406 1.5805 0
M  V30 3362 C 326.311 2.04831 2.92881 0
M  V30 3363 C 325.977 3.54125 2.79117 0
M  V30 3364 C 324.639 3.94829 2.7507 0
M  V30 3365 C 326.991 4.49036 2.64606 0
M  V30 3366 C 324.319 5.28675 2.544 0
M  V30 3367 C 326.671 5.83033 2.4547 0
M  V30 3368 C 325.335 6.22931 2.39819 0
M  V30 3369 H 324.605 0.452737 0.586609 0
M  V30 3370 H 327.252 1.64301 0.983743 0
M  V30 3371 H 325.557 1.57001 3.58968 0
M  V30 3372 H 327.254 1.95164 3.50303 0
M  V30 3373 H 323.844 3.21801 2.83094 0
M  V30 3374 H 328.028 4.18505 2.66772 0
M  V30 3375 H 323.284 5.58637 2.48465 0
M  V30 3376 H 327.458 6.56186 2.33222 0
M  V30 3377 H 325.085 7.26584 2.23562 0
M  V30 3378 N 326.66 -1.06551 1.16123 0
M  V30 3379 C 327.608 -2.16063 0.861371 0
M  V30 3380 C 328.602 -1.6856 -0.168517 0
M  V30 3381 O 329.808 -1.79986 -0.0227579 0
M  V30 3382 H 326.183 -0.705278 0.260934 0
M  V30 3383 H 328.154 -2.38567 1.79244 0
M  V30 3384 C 326.903 -3.45661 0.376018 0
M  V30 3385 H 326.226 -3.82604 1.15992 0
M  V30 3386 H 327.666 -4.23504 0.204951 0
M  V30 3387 C 326.125 -3.24546 -0.903954 0
M  V30 3388 O 326.655 -3.49865 -1.97377 0
M  V30 3389 N 324.861 -2.77992 -0.846679 0
M  V30 3390 H 324.408 -2.57589 0.0241017 0
M  V30 3391 H 324.366 -2.64244 -1.70359 0
M  V30 3392 N 328.138 -0.959301 -1.25041 0
M  V30 3393 C 329.068 -0.501388 -2.28053 0
M  V30 3394 C 330.049 0.454673 -1.63911 0
M  V30 3395 O 331.234 0.352618 -1.90972 0
M  V30 3396 C 328.364 0.217224 -3.4662 0
M  V30 3397 C 327.318 -0.654034 -4.22973 0
M  V30 3398 C 326.644 0.195589 -5.34342 0
M  V30 3399 C 327.944 -1.93447 -4.85155 0
M  V30 3400 H 329.638 -1.36238 -2.66608 0
M  V30 3401 H 327.184 -0.656534 -1.28163 0
M  V30 3402 H 329.137 0.548732 -4.17812 0
M  V30 3403 H 327.861 1.1125 -3.07068 0
M  V30 3404 H 326.52 -0.968693 -3.5357 0
M  V30 3405 H 326.168 1.09076 -4.91031 0
M  V30 3406 H 325.868 -0.384091 -5.86343 0
M  V30 3407 H 327.392 0.521958 -6.08365 0
M  V30 3408 H 328.806 -1.66908 -5.48466 0
M  V30 3409 H 327.203 -2.46018 -5.47353 0
M  V30 3410 H 328.273 -2.63466 -4.07079 0
M  V30 3411 N 329.616 1.39756 -0.72842 0
M  V30 3412 C 330.841 2.05472 -0.282159 0
M  V30 3413 C 331.266 1.54549 1.07221 0
M  V30 3414 O 330.624 0.686372 1.67805 0
M  V30 3415 C 330.672 3.59462 -0.286264 0
M  V30 3416 O 329.776 4.05918 0.728298 0
M  V30 3417 H 329.117 0.651226 -0.129618 0
M  V30 3418 H 331.647 1.78915 -0.992499 0
M  V30 3419 H 331.657 4.07798 -0.128373 0
M  V30 3420 H 330.332 3.95889 -1.27456 0
M  V30 3421 H 328.909 3.69012 0.537081 0
M  V30 3422 N 331.094 0.475555 1.50254 0
M  V30 3423 C 332.044 -0.335025 2.25525 0
M  V30 3424 C 333.028 -0.957625 1.29299 0
M  V30 3425 O 334.22 -0.869436 1.54175 0
M  V30 3426 C 331.349 -1.41385 3.12834 0
M  V30 3427 C 330.435 -0.798762 4.1651 0
M  V30 3428 N 330.826 0.0835815 5.05731 0
M  V30 3429 C 329.124 -1.06221 4.33166 0
M  V30 3430 C 329.825 0.433113 5.80085 0
M  V30 3431 N 328.801 -0.1928 5.43258 0
M  V30 3432 H 332.603 0.344612 2.91873 0
M  V30 3433 H 330.117 0.289986 1.5979 0
M  V30 3434 H 332.114 -2.00777 3.65368 0
M  V30 3435 H 330.774 -2.09543 2.48036 0
M  V30 3436 H 331.785 0.452715 5.15918 0
M  V30 3437 H 328.462 -1.73844 3.79585 0
M  V30 3438 H 329.852 1.15346 6.61925 0
M  V30 3439 N 332.573 -1.56217 0.208337 0
M  V30 3440 C 333.813 -1.99849 -0.428927 0
M  V30 3441 C 334.177 -1.09262 -1.57879 0
M  V30 3442 O 335.378 -1.42185 -2.28116 0
M  V30 3443 C 333.649 -3.46777 -0.864879 0
M  V30 3444 S 335.208 -4.12434 -1.49811 0
M  V30 3445 H 332.026 -0.697742 -0.136665 0
M  V30 3446 H 334.628 -1.92953 0.314519 0
M  V30 3447 H 333.332 -4.10396 -0.0181326 0
M  V30 3448 H 332.863 -3.57518 -1.64147 0
M  V30 3449 H 334.878 -4.10532 -2.78707 0
M  V30 3450 N 334.051 0.0651679 -1.57465 0
M  V30 3451 C 334.983 1.10359 -2.00882 0
M  V30 3452 C 335.996 1.346 -0.915788 0
M  V30 3453 O 337.185 1.32723 -1.1936 0
M  V30 3454 C 334.285 2.45312 -2.33828 0
M  V30 3455 C 333.458 2.40934 -3.65061 0
M  V30 3456 C 332.517 3.58047 -3.85602 0
M  V30 3457 O 331.543 3.39175 -4.57109 0
M  V30 3458 N 332.745 4.78637 -3.28462 0
M  V30 3459 H 335.51 0.733807 -2.90578 0
M  V30 3460 H 333.071 0.253719 -1.599 0
M  V30 3461 H 335.063 3.22314 -2.44737 0
M  V30 3462 H 333.633 2.74267 -1.49988 0
M  V30 3463 H 332.853 1.49273 -3.64844 0
M  V30 3464 H 334.141 2.35117 -4.51218 0
M  V30 3465 H 333.539 4.96872 -2.70433 0
M  V30 3466 H 332.096 5.53127 -3.44809 0
M  V30 3467 N 335.529 1.53961 0.336706 0
M  V30 3468 C 336.459 1.85417 1.41925 0
M  V30 3469 C 337.44 0.709856 1.5458 0
M  V30 3470 O 338.625 0.962396 1.68676 0
M  V30 3471 C 335.755 2.06985 2.78881 0
M  V30 3472 C 334.709 3.22813 2.81026 0
M  V30 3473 C 334.035 3.29727 4.20932 0
M  V30 3474 C 335.335 4.60767 2.45949 0
M  V30 3475 H 337.029 2.76079 1.15848 0
M  V30 3476 H 334.575 1.32839 0.555859 0
M  V30 3477 H 336.528 2.27575 3.54665 0
M  V30 3478 H 335.252 1.13061 3.06406 0
M  V30 3479 H 333.911 3.0209 2.07695 0
M  V30 3480 H 333.559 2.33385 4.45579 0
M  V30 3481 H 333.259 4.07566 4.23277 0
M  V30 3482 H 334.783 3.52536 4.98549 0
M  V30 3483 H 336.197 4.81325 3.11446 0
M  V30 3484 H 334.594 5.4106 2.59566 0
M  V30 3485 H 335.664 4.6391 1.41122 0
M  V30 3486 N 337.007 -0.598083 1.45811 0
M  V30 3487 C 338.253 -1.35882 1.50545 0
M  V30 3488 C 338.586 -1.93616 0.150445 0
M  V30 3489 O 337.861 -1.75604 -0.83628 0
M  V30 3490 C 338.144 -2.49966 2.59208 0
M  V30 3491 C 337.997 -1.97367 4.04186 0
M  V30 3492 C 339.316 -3.52068 2.64076 0
M  V30 3493 H 336.435 -0.492717 0.548087 0
M  V30 3494 H 339.077 -0.673319 1.77669 0
M  V30 3495 H 337.227 -3.08443 2.3621 0
M  V30 3496 H 338.899 -1.43466 4.38423 0
M  V30 3497 H 337.142 -1.283 4.14393 0
M  V30 3498 H 337.813 -2.79649 4.75921 0
M  V30 3499 H 340.289 -3.03448 2.84708 0
M  V30 3500 H 339.165 -4.2937 3.41954 0
M  V30 3501 H 339.426 -4.08304 1.69531 0
M  V30 3502 N 338.485 -1.33259 -0.841409 0
M  V30 3503 C 339.713 -1.27605 -1.62864 0
M  V30 3504 C 340.128 0.153507 -1.88175 0
M  V30 3505 O 339.485 1.09485 -1.46011 0
M  V30 3506 C 339.536 -2.04596 -2.98031 0
M  V30 3507 O 339.257 -3.41975 -2.73834 0
M  V30 3508 C 340.758 -2.06122 -3.92465 0
M  V30 3509 H 337.978 -0.439718 -0.506842 0
M  V30 3510 H 340.522 -1.75591 -1.04824 0
M  V30 3511 H 338.677 -1.60299 -3.5268 0
M  V30 3512 H 339.091 -3.81549 -3.59889 0
M  V30 3513 H 340.565 -2.64451 -4.84531 0
M  V30 3514 H 341.042 -1.05083 -4.26444 0
M  V30 3515 H 341.648 -2.50427 -3.43753 0
M  V30 3516 N 339.963 1.05934 -1.16686 0
M  V30 3517 C 340.893 2.1546 -0.899949 0
M  V30 3518 C 341.874 1.69391 0.155154 0
M  V30 3519 O 343.059 1.94199 0.00648693 0
M  V30 3520 C 340.189 3.44939 -0.404241 0
M  V30 3521 C 339.143 4.04536 -1.39767 0
M  V30 3522 C 338.469 5.29268 -0.760216 0
M  V30 3523 C 339.769 4.42893 -2.76845 0
M  V30 3524 H 341.463 2.38046 -1.81588 0
M  V30 3525 H 339.009 1.14404 -0.874514 0
M  V30 3526 H 340.962 4.20901 -0.204971 0
M  V30 3527 H 339.686 3.21983 0.547206 0
M  V30 3528 H 338.345 3.30635 -1.58355 0
M  V30 3529 H 337.993 5.02611 0.197831 0
M  V30 3530 H 337.693 5.70101 -1.42332 0
M  V30 3531 H 339.217 6.07924 -0.57105 0
M  V30 3532 H 340.631 5.09921 -2.62019 0
M  V30 3533 H 339.028 4.94721 -3.39663 0
M  V30 3534 H 340.098 3.53584 -3.31823 0
M  V30 3535 N 341.441 0.965919 1.2453 0
M  V30 3536 C 342.69 0.622437 1.91856 0
M  V30 3537 C 343.003 -0.846006 1.76358 0
M  V30 3538 O 344.209 -1.29993 2.38357 0
M  V30 3539 C 342.665 1.0626 3.43856 0
M  V30 3540 C 342.273 2.55437 3.68043 0
M  V30 3541 C 344.017 0.792183 4.17043 0
M  V30 3542 C 341.924 2.93196 5.13605 0
M  V30 3543 H 340.854 0.229092 0.718354 0
M  V30 3544 H 343.505 1.17189 1.41206 0
M  V30 3545 H 341.887 0.441476 3.93531 0
M  V30 3546 H 343.061 3.22665 3.28974 0
M  V30 3547 H 341.376 2.8007 3.08139 0
M  V30 3548 H 343.973 1.05031 5.24283 0
M  V30 3549 H 344.316 -0.271584 4.15413 0
M  V30 3550 H 344.849 1.37419 3.73311 0
M  V30 3551 H 341.588 3.98636 5.20355 0
M  V30 3552 H 341.108 2.30651 5.53679 0
M  V30 3553 H 342.787 2.83004 5.81823 0
M  V30 3554 N 342.919 -1.39368 0.735821 0
M  V30 3555 C 344.144 -2.05319 0.293052 0
M  V30 3556 C 344.569 -1.55115 -1.064 0
M  V30 3557 O 343.927 -0.695261 -1.67439 0
M  V30 3558 C 343.975 -3.59305 0.305323 0
M  V30 3559 O 343.079 -4.06299 -0.706761 0
M  V30 3560 H 342.42 -0.650529 0.13307 0
M  V30 3561 H 344.95 -1.78386 1.00197 0
M  V30 3562 H 344.96 -4.07724 0.149997 0
M  V30 3563 H 343.635 -3.95207 1.29553 0
M  V30 3564 H 342.212 -3.69292 -0.517504 0
M  V30 3565 N 344.397 -0.483516 -1.5 0
M  V30 3566 C 345.813 -0.138404 -1.58999 0
M  V30 3567 C 346.013 1.35597 -1.4905 0
M  V30 3568 O 345.069 2.13039 -1.35539 0
M  V30 3569 C 346.382 -0.699658 -2.92447 0
M  V30 3570 C 347.93 -0.664195 -3.05872 0
M  V30 3571 C 348.405 -1.20321 -4.41913 0
M  V30 3572 N 349.896 -1.16315 -4.48358 0
M  V30 3573 C 350.631 -1.55058 -5.52037 0
M  V30 3574 N 350.127 -2.01311 -6.62907 0
M  V30 3575 N 351.92 -1.46584 -5.42651 0
M  V30 3576 H 344.071 -1.45529 -1.5471 0
M  V30 3577 H 346.334 -0.60258 -0.731848 0
M  V30 3578 H 346.04 -1.747 -3.05242 0
M  V30 3579 H 345.914 -0.150194 -3.76901 0
M  V30 3580 H 348.301 0.374272 -2.92717 0
M  V30 3581 H 348.382 -1.25061 -2.23144 0
M  V30 3582 H 348.026 -2.24037 -4.55818 0
M  V30 3583 H 347.956 -0.592896 -5.23252 0
M  V30 3584 H 350.447 -0.824058 -3.68806 0
M  V30 3585 H 350.76 -2.2899 -7.38095 0
M  V30 3586 H 349.105 -2.05273 -6.63994 0
M  V30 3587 H 352.296 -1.10281 -4.54924 0
M  V30 3588 H 352.469 -1.77103 -6.23329 0
M  V30 3589 N 345.875 1.56104 -0.216619 0
M  V30 3590 C 347.152 1.89988 0.465165 0
M  V30 3591 C 347.532 1.13326 1.78102 0
M  V30 3592 O 346.88 0.241033 2.27225 0
M  V30 3593 C 347.09 3.42646 0.662939 0
M  V30 3594 C 348.438 4.13311 0.972602 0
M  V30 3595 O 349.462 3.48217 0.749901 0
M  V30 3596 O 348.321 5.28396 1.39499 0
M  V30 3597 H 345.415 0.78979 0.245276 0
M  V30 3598 H 347.961 1.67721 -0.258436 0
M  V30 3599 H 346.733 3.90399 -0.26543 0
M  V30 3600 H 346.356 3.70677 1.43821 0
M  V30 3601 N 347.353 -0.0568162 1.57498 0
M  V30 3602 C 348.63 -0.786954 1.79071 0
M  V30 3603 C 349.01 -1.95028 0.80792 0
M  V30 3604 O 348.358 -2.27968 -0.155858 0
M  V30 3605 C 348.568 -1.24594 3.26002 0
M  V30 3606 C 349.916 -1.67323 3.90241 0
M  V30 3607 O 350.94 -1.34124 3.29984 0
M  V30 3608 O 349.799 -2.28842 4.9628 0
M  V30 3609 H 346.893 -0.378262 0.735423 0
M  V30 3610 H 349.439 -0.035734 1.69662 0
M  V30 3611 H 348.211 -0.41423 3.89101 0
M  V30 3612 H 347.834 -2.05803 3.40192 0
M  V30 3613 N 348.832 -1.54138 -0.328536 0
M  V30 3614 C 349.762 -1.86167 -1.40939 0
M  V30 3615 C 350.743 -0.718044 -1.54202 0
M  V30 3616 O 351.928 -0.971328 -1.68163 0
M  V30 3617 C 349.058 -2.08461 -2.77779 0
M  V30 3618 C 348.012 -3.24299 -2.7931 0
M  V30 3619 C 347.338 -3.31955 -4.19178 0
M  V30 3620 C 348.638 -4.62065 -2.43502 0
M  V30 3621 H 350.332 -2.76689 -1.14383 0
M  V30 3622 H 347.878 -1.33132 -0.548806 0
M  V30 3623 H 349.831 -2.29453 -3.53454 0
M  V30 3624 H 348.555 -1.14684 -3.05802 0
M  V30 3625 H 347.214 -3.03187 -2.0609 0
M  V30 3626 H 346.862 -2.35745 -4.44335 0
M  V30 3627 H 346.562 -4.09805 -4.2111 0
M  V30 3628 H 348.086 -3.55175 -4.96672 0
M  V30 3629 H 349.5 -4.8297 -3.08889 0
M  V30 3630 H 347.897 -5.42429 -2.56693 0
M  V30 3631 H 348.967 -4.64652 -1.38659 0
M  V30 3632 N 350.31 0.590341 -1.46126 0
M  V30 3633 C 351.258 1.72105 -1.5647 0
M  V30 3634 C 352.252 1.63756 -0.433612 0
M  V30 3635 O 353.458 1.69342 -0.610194 0
M  V30 3636 H 349.833 0.568889 -0.491802 0
M  V30 3637 H 351.804 1.6051 -2.51553 0
M  V30 3638 C 350.553 3.10493 -1.56491 0
M  V30 3639 H 349.876 3.17583 -2.4286 0
M  V30 3640 H 351.316 3.8939 -1.67785 0
M  V30 3641 C 349.775 3.3563 -0.292231 0
M  V30 3642 O 350.305 3.96875 0.620739 0
M  V30 3643 N 348.511 2.90026 -0.182523 0
M  V30 3644 H 348.058 2.40367 -0.926356 0
M  V30 3645 H 348.016 3.07218 0.668152 0
M  V30 3646 N 351.788 1.33704 0.83433 0
M  V30 3647 C 353.034 1.25603 1.59222 0
M  V30 3648 C 353.367 -0.176659 1.93395 0
M  V30 3649 O 352.642 -1.11915 1.59076 0
M  V30 3650 C 352.925 2.13576 2.89926 0
M  V30 3651 C 352.778 3.65326 2.62406 0
M  V30 3652 C 354.097 2.01238 3.91397 0
M  V30 3653 H 351.216 0.457613 0.577719 0
M  V30 3654 H 353.858 1.63848 0.961972 0
M  V30 3655 H 352.008 1.8109 3.43713 0
M  V30 3656 H 353.68 4.08124 2.15017 0
M  V30 3657 H 351.923 3.8698 1.96033 0
M  V30 3658 H 352.594 4.22232 3.55562 0
M  V30 3659 H 355.07 2.29738 3.46929 0
M  V30 3660 H 353.946 2.65036 4.80673 0
M  V30 3661 H 354.207 0.985951 4.30966 0
M  V30 3662 N 353.266 -1.05314 1.17247 0
M  V30 3663 C 354.682 -1.30452 0.919473 0
M  V30 3664 C 354.882 -1.9703 -0.42209 0
M  V30 3665 O 353.938 -2.24311 -1.15935 0
M  V30 3666 C 355.251 -2.17551 2.07586 0
M  V30 3667 C 356.799 -2.30937 2.11275 0
M  V30 3668 C 357.274 -3.21396 3.26296 0
M  V30 3669 N 358.765 -3.28981 3.26076 0
M  V30 3670 C 359.5 -3.99095 4.11716 0
M  V30 3671 N 358.996 -4.71648 5.07465 0
M  V30 3672 N 360.789 -3.95247 3.9967 0
M  V30 3673 H 352.94 -0.604988 2.03602 0
M  V30 3674 H 355.203 -0.329368 0.888944 0
M  V30 3675 H 354.909 -1.75921 3.0454 0
M  V30 3676 H 354.783 -3.18182 2.02584 0
M  V30 3677 H 357.17 -2.71809 1.14907 0
M  V30 3678 H 357.251 -1.2994 2.20339 0
M  V30 3679 H 356.895 -2.81238 4.22927 0
M  V30 3680 H 356.825 -4.22395 3.14467 0
M  V30 3681 H 359.316 -2.77286 2.5675 0
M  V30 3682 H 359.629 -5.22705 5.6921 0
M  V30 3683 H 357.974 -4.70594 5.11435 0
M  V30 3684 H 361.165 -3.37691 3.24164 0
M  V30 3685 H 361.338 -4.4962 4.66632 0
M  V30 3686 N 354.744 -0.972509 -1.24016 0
M  V30 3687 C 355.984 -0.644951 -1.93958 0
M  V30 3688 C 356.348 0.80559 -1.74282 0
M  V30 3689 O 357.549 1.2436 -2.38302 0
M  V30 3690 C 355.82 -1.01521 -3.42678 0
M  V30 3691 S 357.379 -0.802927 -4.31391 0
M  V30 3692 H 354.197 -0.236452 -0.670531 0
M  V30 3693 H 356.799 -1.25048 -1.50277 0
M  V30 3694 H 355.503 -2.06769 -3.54506 0
M  V30 3695 H 355.034 -0.400648 -3.91355 0
M  V30 3696 H 357.049 0.317256 -4.95185 0
M  V30 3697 N 356.222 1.38976 -0.743202 0
M  V30 3698 C 357.132 2.3434 -0.110399 0
M  V30 3699 C 358.148 1.58741 0.712559 0
M  V30 3700 O 359.324 1.9099 0.639125 0
M  V30 3701 C 356.389 3.37812 0.780012 0
M  V30 3702 C 355.45 4.29263 -0.0561319 0
M  V30 3703 C 354.683 5.27793 0.791875 0
M  V30 3704 O 354.906 5.33043 2.03031 0
M  V30 3705 O 353.84 6.01512 0.216183 0
M  V30 3706 H 357.666 2.90129 -0.897714 0
M  V30 3707 H 355.251 1.40643 -0.503966 0
M  V30 3708 H 357.133 4.01194 1.28923 0
M  V30 3709 H 355.808 2.84395 1.546 0
M  V30 3710 H 354.715 3.69076 -0.611056 0
M  V30 3711 H 356.048 4.85907 -0.784531 0
M  V30 3712 N 357.7 0.491464 1.49741 0
M  V30 3713 C 358.925 -0.0557177 2.07325 0
M  V30 3714 C 359.35 -1.30925 1.35056 0
M  V30 3715 O 358.708 -1.76733 0.404365 0
M  V30 3716 C 358.756 -0.302074 3.59333 0
M  V30 3717 O 357.86 -1.37868 3.88672 0
M  V30 3718 H 357.201 0.0219956 0.663636 0
M  V30 3719 H 359.731 0.688352 1.92673 0
M  V30 3720 H 359.741 -0.536464 4.04458 0
M  V30 3721 H 358.416 0.61383 4.11345 0
M  V30 3722 H 356.993 -1.12999 3.55367 0
M  V30 3723 N 359.178 -1.55987 0.224894 0
M  V30 3724 C 360.088 -2.24066 -0.69511 0
M  V30 3725 C 361.104 -1.24939 -1.21104 0
M  V30 3726 O 362.28 -1.5776 -1.25195 0
M  V30 3727 C 359.345 -2.90983 -1.88493 0
M  V30 3728 C 358.406 -4.05462 -1.41064 0
M  V30 3729 C 357.639 -4.69179 -2.54375 0
M  V30 3730 O 357.862 -4.31895 -3.72589 0
M  V30 3731 O 356.796 -5.58108 -2.25386 0
M  V30 3732 H 360.622 -3.03353 -0.145149 0
M  V30 3733 H 358.207 -1.49399 -0.00569476 0
M  V30 3734 H 360.089 -3.33209 -2.57972 0
M  V30 3735 H 358.764 -2.14653 -2.42293 0
M  V30 3736 H 357.671 -3.67798 -0.683774 0
M  V30 3737 H 359.004 -4.83545 -0.918985 0
M  V30 3738 N 360.656 0.0484629 -1.57525 0
M  V30 3739 C 361.902 0.744226 -1.88651 0
M  V30 3740 C 362.235 1.76029 -0.820212 0
M  V30 3741 O 361.51 1.93782 0.166985 0
M  V30 3742 C 361.793 1.43128 -3.30434 0
M  V30 3743 C 361.646 0.43005 -4.47739 0
M  V30 3744 C 362.965 2.37031 -3.70816 0
M  V30 3745 H 360.084 0.269089 -0.68612 0
M  V30 3746 H 362.726 0.00713532 -1.89999 0
M  V30 3747 H 360.876 2.05956 -3.29415 0
M  V30 3748 H 362.548 -0.194816 -4.60888 0
M  V30 3749 H 360.791 -0.252522 -4.33064 0
M  V30 3750 H 361.462 0.948874 -5.43783 0
M  V30 3751 H 363.938 1.84263 -3.73077 0
M  V30 3752 H 362.814 2.82094 -4.70865 0
M  V30 3753 H 363.075 3.22864 -3.02012 0
M  V30 3754 N 362.134 1.5431 0.320358 0
M  V30 3755 C 363.381 1.72668 1.05792 0
M  V30 3756 C 363.709 0.502084 1.87908 0
M  V30 3757 O 362.964 -0.516149 1.88771 0
M  V30 3758 C 363.263 2.95639 2.00828 0
M  V30 3759 C 362.929 4.30265 1.34843 0
M  V30 3760 C 361.591 4.66865 1.16578 0
M  V30 3761 C 363.943 5.13801 0.875095 0
M  V30 3762 C 361.271 5.84597 0.496336 0
M  V30 3763 C 363.623 6.32219 0.219463 0
M  V30 3764 C 362.287 6.67495 0.0246915 0
M  V30 3765 H 361.557 0.631837 0.387121 0
M  V30 3766 H 364.204 1.88552 0.334735 0
M  V30 3767 H 362.509 2.74456 2.79609 0
M  V30 3768 H 364.206 3.07038 2.57932 0
M  V30 3769 H 360.796 4.01472 1.50061 0
M  V30 3770 H 364.98 4.86039 1.00398 0
M  V30 3771 H 360.236 6.10486 0.334264 0
M  V30 3772 H 364.41 6.96227 -0.155291 0
M  V30 3773 H 362.037 7.5858 -0.496065 0
M  V30 3774 N 363.613 -0.582584 1.46437 0
M  V30 3775 C 364.563 -1.68654 1.53426 0
M  V30 3776 C 365.547 -1.55971 0.395194 0
M  V30 3777 O 366.739 -1.64884 0.643612 0
M  V30 3778 C 363.868 -3.07439 1.52762 0
M  V30 3779 C 362.954 -3.25418 2.71963 0
M  V30 3780 N 363.345 -3.13556 3.96883 0
M  V30 3781 C 361.643 -3.56357 2.68189 0
M  V30 3782 C 362.344 -3.33543 4.76575 0
M  V30 3783 N 361.32 -3.58704 4.08451 0
M  V30 3784 H 365.122 -1.58014 2.47808 0
M  V30 3785 H 362.636 -0.786617 1.42078 0
M  V30 3786 H 364.633 -3.86671 1.55857 0
M  V30 3787 H 363.293 -3.1921 0.594573 0
M  V30 3788 H 364.304 -2.9142 4.28129 0
M  V30 3789 H 360.981 -3.74812 1.83908 0
M  V30 3790 H 362.371 -3.29555 5.85528 0
M  V30 3791 N 365.091 -1.34144 -0.827227 0
M  V30 3792 C 366.054 -1.25264 -1.91942 0
M  V30 3793 C 367.054 -0.168866 -1.59911 0
M  V30 3794 O 368.244 -0.421198 -1.69031 0
M  V30 3795 C 365.376 -0.932952 -3.27885 0
M  V30 3796 H 366.569 -2.22357 -2.0124 0
M  V30 3797 H 364.122 -1.1837 -1.0207 0
M  V30 3798 H 364.857 0.0349917 -3.24281 0
M  V30 3799 H 364.642 -1.71682 -3.52516 0
M  V30 3800 H 366.132 -0.895874 -4.07877 0
M  V30 3801 N 366.569 1.04691 -1.17803 0
M  V30 3802 C 367.809 1.79352 -0.980423 0
M  V30 3803 C 368.173 1.85853 0.481958 0
M  V30 3804 O 369.374 2.56656 0.798809 0
M  V30 3805 C 367.645 3.19088 -1.6099 0
M  V30 3806 S 369.204 4.10164 -1.55918 0
M  V30 3807 H 366.022 0.617631 -0.352211 0
M  V30 3808 H 368.624 1.25575 -1.49837 0
M  V30 3809 H 367.328 3.11962 -2.66661 0
M  V30 3810 H 366.859 3.77941 -1.09197 0
M  V30 3811 H 368.874 4.92907 -0.570685 0
M  V30 3812 N 368.047 0.979072 1.23499 0
M  V30 3813 C 369.296 0.642751 1.91185 0
M  V30 3814 C 369.609 -0.827253 1.77245 0
M  V30 3815 O 370.815 -1.27458 2.39722 0
M  V30 3816 C 369.271 1.09901 3.42709 0
M  V30 3817 C 368.879 2.59327 3.65313 0
M  V30 3818 C 370.623 0.836371 4.16179 0
M  V30 3819 C 368.53 2.98627 5.10467 0
M  V30 3820 H 367.46 0.236698 0.715884 0
M  V30 3821 H 370.111 1.1868 1.39955 0
M  V30 3822 H 368.493 0.48319 3.93041 0
M  V30 3823 H 369.667 3.26136 3.25533 0
M  V30 3824 H 367.982 2.83323 3.05151 0
M  V30 3825 H 370.579 1.10586 5.23139 0
M  V30 3826 H 370.922 -0.227509 4.15678 0
M  V30 3827 H 371.455 1.41371 3.71832 0
M  V30 3828 H 368.194 4.04133 5.16098 0
M  V30 3829 H 367.714 2.3651 5.51201 0
M  V30 3830 H 369.393 2.89159 5.78788 0
M  V30 3831 N 369.525 -1.3858 0.750561 0
M  V30 3832 C 370.473 -2.32339 0.110162 0
M  V30 3833 C 371.467 -1.53864 -0.708674 0
M  V30 3834 O 372.673 -1.69417 -0.608112 0
M  V30 3835 H 369.048 -0.751812 0.0168275 0
M  V30 3836 H 371.019 -2.83959 0.917053 0
M  V30 3837 C 369.768 -3.39043 -0.771067 0
M  V30 3838 H 369.091 -3.99517 -0.150374 0
M  V30 3839 H 370.531 -4.07061 -1.1865 0
M  V30 3840 C 368.99 -2.77365 -1.91234 0
M  V30 3841 O 369.52 -2.66434 -3.00626 0
M  V30 3842 N 367.726 -2.35219 -1.70646 0
M  V30 3843 H 367.273 -2.4431 -0.81673 0
M  V30 3844 H 367.231 -1.94294 -2.47178 0
M  V30 3845 N 371.003 -0.499398 -1.49478 0
M  V30 3846 C 372.249 0.0377587 -2.03365 0
M  V30 3847 C 372.604 1.3484 -1.37244 0
M  V30 3848 O 371.897 1.85 -0.498547 0
M  V30 3849 C 372.091 0.248424 -3.56536 0
M  V30 3850 C 371.92 -1.04025 -4.37503 0
M  V30 3851 C 370.69 -1.59159 -4.79579 0
M  V30 3852 C 372.888 -1.9431 -4.76181 0
M  V30 3853 N 370.87 -2.82634 -5.44969 0
M  V30 3854 C 372.241 -3.02364 -5.41272 0
M  V30 3855 C 374.296 -1.95008 -4.58123 0
M  V30 3856 C 372.999 -4.1114 -5.90217 0
M  V30 3857 C 375.025 -3.02758 -5.08027 0
M  V30 3858 C 374.387 -4.09531 -5.73118 0
M  V30 3859 H 370.486 -0.026923 -0.781536 0
M  V30 3860 H 373.07 -0.673901 -1.82665 0
M  V30 3861 H 371.241 0.929139 -3.77123 0
M  V30 3862 H 372.973 0.782445 -3.97064 0
M  V30 3863 H 369.728 -1.13696 -4.5975 0
M  V30 3864 H 370.152 -3.45416 -5.82252 0
M  V30 3865 H 374.794 -1.13766 -4.07207 0
M  V30 3866 H 372.512 -4.93181 -6.40155 0
M  V30 3867 H 376.098 -3.04315 -4.95866 0
M  V30 3868 H 374.978 -4.91534 -6.11035 0
M  V30 3869 N 372.481 1.55866 -0.233164 0
M  V30 3870 C 373.727 1.98897 0.395959 0
M  V30 3871 C 374.06 1.12091 1.58585 0
M  V30 3872 O 373.335 0.181182 1.93654 0
M  V30 3873 C 373.618 3.50658 0.819224 0
M  V30 3874 C 373.471 4.48233 -0.375109 0
M  V30 3875 C 374.79 4.07135 1.67121 0
M  V30 3876 H 371.909 0.723102 0.142451 0
M  V30 3877 H 374.551 1.87082 -0.331725 0
M  V30 3878 H 372.701 3.60857 1.43925 0
M  V30 3879 H 374.373 4.50031 -1.01341 0
M  V30 3880 H 372.616 4.21624 -1.02058 0
M  V30 3881 H 373.287 5.51988 -0.0358328 0
M  V30 3882 H 375.763 3.99952 1.14795 0
M  V30 3883 H 374.639 5.13615 1.93625 0
M  V30 3884 H 374.9 3.54736 2.63846 0
M  V30 3885 N 373.959 -0.0401083 1.57549 0
M  V30 3886 C 374.906 -1.04413 2.05831 0
M  V30 3887 C 375.876 -1.36585 0.945184 0
M  V30 3888 O 377.061 -1.47112 1.21502 0
M  V30 3889 C 374.201 -2.34336 2.53339 0
M  V30 3890 C 373.314 -2.08419 3.78398 0
M  V30 3891 C 372.449 -3.32133 4.14561 0
M  V30 3892 C 371.488 -3.01721 5.3257 0
M  V30 3893 N 370.625 -4.17855 5.64218 0
M  V30 3894 H 375.465 -0.625442 2.91363 0
M  V30 3895 H 373.002 -0.297218 1.44066 0
M  V30 3896 H 374.96 -3.10234 2.78946 0
M  V30 3897 H 373.59 -2.73948 1.7074 0
M  V30 3898 H 372.642 -1.23069 3.59942 0
M  V30 3899 H 373.954 -1.81978 4.64419 0
M  V30 3900 H 373.108 -4.16406 4.41238 0
M  V30 3901 H 371.847 -3.61678 3.2717 0
M  V30 3902 H 370.852 -2.15849 5.05657 0
M  V30 3903 H 372.077 -2.73466 6.21605 0
M  V30 3904 H 370.023 -4.47372 4.79786 0
M  V30 3905 H 369.94 -3.94798 6.44725 0
M  V30 3906 H 371.208 -5.03033 5.95465 0
M  V30 3907 N 375.437 -1.54477 -0.31217 0
M  V30 3908 C 376.667 -1.76948 -1.06645 0
M  V30 3909 C 377.075 -0.523593 -1.81811 0
M  V30 3910 O 376.418 0.51578 -1.76311 0
M  V30 3911 C 376.48 -2.91668 -2.10166 0
M  V30 3912 C 376.144 -4.30165 -1.54296 0
M  V30 3913 C 377.141 -5.10603 -0.978793 0
M  V30 3914 C 374.826 -4.76738 -1.58196 0
M  V30 3915 C 376.82 -6.3573 -0.461048 0
M  V30 3916 C 374.507 -6.01831 -1.06034 0
M  V30 3917 C 375.505 -6.81161 -0.500844 0
M  V30 3918 O 375.193 -8.03899 0.0128958 0
M  V30 3919 H 374.925 -0.594088 -0.322546 0
M  V30 3920 H 377.479 -2.02213 -0.360441 0
M  V30 3921 H 375.709 -2.62001 -2.84416 0
M  V30 3922 H 377.398 -3.01817 -2.71406 0
M  V30 3923 H 378.164 -4.75771 -0.941651 0
M  V30 3924 H 374.043 -4.15027 -2.00683 0
M  V30 3925 H 377.587 -6.97596 -0.0236894 0
M  V30 3926 H 373.484 -6.36152 -1.09459 0
M  V30 3927 H 374.252 -8.18437 -0.101457 0
M  V30 3928 N 376.915 0.57481 -1.46744 0
M  V30 3929 C 378.192 1.3352 -1.4294 0
M  V30 3930 C 378.572 2.10775 -0.117009 0
M  V30 3931 O 377.92 2.09966 0.901474 0
M  V30 3932 C 378.13 2.25456 -2.66403 0
M  V30 3933 C 379.478 2.87035 -3.12883 0
M  V30 3934 O 380.502 2.35766 -2.67007 0
M  V30 3935 O 379.361 3.80179 -3.92589 0
M  V30 3936 H 376.455 0.600318 -0.568812 0
M  V30 3937 H 379.001 0.595171 -1.58921 0
M  V30 3938 H 377.773 1.67851 -3.53471 0
M  V30 3939 H 377.396 3.06785 -2.52921 0
M  V30 3940 N 378.394 1.34581 0.820102 0
M  V30 3941 C 379.634 1.28448 1.58998 0
M  V30 3942 C 379.998 -0.142883 1.91468 0
M  V30 3943 O 381.199 -0.328422 2.66786 0
M  V30 3944 C 379.47 2.153 2.85273 0
M  V30 3945 S 381.029 2.26548 3.75794 0
M  V30 3946 H 377.847 0.456685 0.54494 0
M  V30 3947 H 380.449 1.69825 0.968487 0
M  V30 3948 H 379.153 3.18008 2.59421 0
M  V30 3949 H 378.684 1.7483 3.52417 0
M  V30 3950 H 380.699 1.44034 4.74835 0
M  V30 3951 N 379.872 -1.04064 1.18357 0
M  V30 3952 C 380.782 -2.15569 0.925596 0
M  V30 3953 C 381.798 -1.7365 -0.110295 0
M  V30 3954 O 382.974 -2.01273 0.0716218 0
M  V30 3955 C 380.039 -3.43704 0.454836 0
M  V30 3956 C 379.1 -4.00004 1.55869 0
M  V30 3957 C 378.333 -5.22023 1.1103 0
M  V30 3958 O 378.556 -5.70392 -0.0309756 0
M  V30 3959 O 377.49 -5.70856 1.90805 0
M  V30 3960 H 381.316 -2.40187 1.8586 0
M  V30 3961 H 378.901 -1.1402 0.965394 0
M  V30 3962 H 380.783 -4.20923 0.200382 0
M  V30 3963 H 379.458 -3.20559 -0.449876 0
M  V30 3964 H 378.365 -3.24172 1.86716 0
M  V30 3965 H 379.698 -4.2749 2.43953 0
M  V30 3966 N 381.35 -0.985608 -1.22978 0
M  V30 3967 C 382.282 -0.488154 -2.23941 0
M  V30 3968 C 383.295 0.41282 -1.57479 0
M  V30 3969 O 384.484 0.216121 -1.77187 0
M  V30 3970 C 381.584 0.312611 -3.37455 0
M  V30 3971 C 380.757 -0.582741 -4.33501 0
M  V30 3972 C 379.816 0.165064 -5.25941 0
M  V30 3973 O 378.842 -0.447077 -5.67442 0
M  V30 3974 N 380.044 1.44953 -5.62111 0
M  V30 3975 H 382.809 -1.3563 -2.67254 0
M  V30 3976 H 380.37 -0.859477 -1.37203 0
M  V30 3977 H 382.362 0.821357 -3.96277 0
M  V30 3978 H 380.932 1.0818 -2.93285 0
M  V30 3979 H 380.152 -1.27225 -3.73105 0
M  V30 3980 H 381.44 -1.19275 -4.94622 0
M  V30 3981 H 380.838 1.9683 -5.30353 0
M  V30 3982 H 379.395 1.90361 -6.23383 0
M  V30 3983 N 382.828 1.3818 -0.7579 0
M  V30 3984 C 384.244 1.5353 -0.435972 0
M  V30 3985 C 384.444 1.71961 1.05032 0
M  V30 3986 O 383.5 1.73307 1.83633 0
M  V30 3987 C 384.813 2.73989 -1.23898 0
M  V30 3988 C 386.361 2.87841 -1.22949 0
M  V30 3989 C 386.836 4.11266 -2.01554 0
M  V30 3990 N 388.327 4.18352 -1.98837 0
M  V30 3991 C 389.062 5.12856 -2.5645 0
M  V30 3992 N 388.558 6.13005 -3.22794 0
M  V30 3993 N 390.351 5.05238 -2.46356 0
M  V30 3994 H 382.502 1.24467 -1.7211 0
M  V30 3995 H 384.765 0.604982 -0.729864 0
M  V30 3996 H 384.471 2.66789 -2.29165 0
M  V30 3997 H 384.345 3.67294 -0.858764 0
M  V30 3998 H 386.732 2.9452 -0.184854 0
M  V30 3999 H 386.813 1.95534 -1.64924 0
M  V30 4000 H 386.457 4.05349 -3.06031 0
M  V30 4001 H 386.387 5.02661 -1.5697 0
M  V30 4002 H 388.878 3.46628 -1.50524 0
M  V30 4003 H 389.191 6.81619 -3.64165 0
M  V30 4004 H 387.536 6.13325 -3.2689 0
M  V30 4005 H 390.727 4.25938 -1.9415 0
M  V30 4006 H 390.9 5.78707 -2.91552 0
M  V30 4007 N 384.306 0.507319 1.49211 0
M  V30 4008 C 385.722 0.163682 1.58758 0
M  V30 4009 C 385.922 -1.33208 1.51188 0
M  V30 4010 O 384.978 -2.10855 1.38911 0
M  V30 4011 C 386.291 0.746095 2.91297 0
M  V30 4012 C 387.839 0.712773 3.04776 0
M  V30 4013 C 388.314 1.27336 4.39943 0
M  V30 4014 N 389.805 1.23433 4.46451 0
M  V30 4015 C 390.54 1.63821 5.495 0
M  V30 4016 N 390.036 2.11832 6.5962 0
M  V30 4017 N 391.829 1.55198 5.4025 0
M  V30 4018 H 383.98 1.47972 1.52375 0
M  V30 4019 H 386.243 0.614147 0.722168 0
M  V30 4020 H 385.949 1.79534 3.02424 0
M  V30 4021 H 385.823 0.210137 3.76614 0
M  V30 4022 H 388.21 -0.327656 2.93275 0
M  V30 4023 H 388.291 1.28595 2.21127 0
M  V30 4024 H 387.935 2.3126 4.52196 0
M  V30 4025 H 387.865 0.676066 5.22242 0
M  V30 4026 H 390.356 0.882627 3.67448 0
M  V30 4027 H 390.669 2.40703 7.34358 0
M  V30 4028 H 389.014 2.1581 6.60644 0
M  V30 4029 H 392.205 1.17505 4.53112 0
M  V30 4030 H 392.378 1.86997 6.20432 0
M  V30 4031 N 385.784 -1.5574 0.241426 0
M  V30 4032 C 387.031 -1.9881 -0.384836 0
M  V30 4033 C 387.359 -1.12947 -1.58346 0
M  V30 4034 O 386.614 -0.178993 -1.9488 0
M  V30 4035 C 386.913 -3.47308 -0.843317 0
M  V30 4036 C 386.579 -4.50223 0.246946 0
M  V30 4037 C 385.241 -4.78088 0.546399 0
M  V30 4038 C 387.593 -5.11841 0.983282 0
M  V30 4039 C 384.921 -5.64846 1.58636 0
M  V30 4040 C 387.273 -5.99727 2.01272 0
M  V30 4041 C 385.937 -6.25927 2.31888 0
M  V30 4042 H 385.207 -0.727496 -0.140821 0
M  V30 4043 H 387.854 -1.8831 0.348106 0
M  V30 4044 H 386.159 -3.55112 -1.65537 0
M  V30 4045 H 387.856 -3.78017 -1.33806 0
M  V30 4046 H 384.446 -4.286 0.00340639 0
M  V30 4047 H 388.63 -4.90366 0.765182 0
M  V30 4048 H 383.886 -5.83403 1.82896 0
M  V30 4049 H 388.06 -6.46517 2.58823 0
M  V30 4050 H 385.687 -6.92949 3.12611 0
M  V30 4051 N 387.262 0.0317525 -1.57568 0
M  V30 4052 C 388.492 0.733884 -1.93126 0
M  V30 4053 C 388.9 1.69563 -0.839352 0
M  V30 4054 O 388.243 1.82681 0.193175 0
M  V30 4055 C 388.305 1.54798 -3.24465 0
M  V30 4056 C 387.969 0.751304 -4.50782 0
M  V30 4057 C 388.966 0.0527632 -5.19873 0
M  V30 4058 C 386.651 0.706639 -4.97305 0
M  V30 4059 C 388.645 -0.679774 -6.33765 0
M  V30 4060 C 386.332 -0.0296449 -6.11093 0
M  V30 4061 C 387.33 -0.721614 -6.79177 0
M  V30 4062 O 387.018 -1.44595 -7.90789 0
M  V30 4063 H 386.75 0.211459 -0.642076 0
M  V30 4064 H 389.304 -0.00585615 -2.05399 0
M  V30 4065 H 387.534 2.33147 -3.08512 0
M  V30 4066 H 389.223 2.13247 -3.4537 0
M  V30 4067 H 389.989 0.0783188 -4.84937 0
M  V30 4068 H 385.868 1.23474 -4.44157 0
M  V30 4069 H 389.412 -1.22042 -6.86842 0
M  V30 4070 H 385.309 -0.0571331 -6.45475 0
M  V30 4071 H 386.077 -1.35935 -8.07133 0
M  V30 4072 N 388.74 1.54641 0.303973 0
M  V30 4073 C 389.986 1.74038 1.04109 0
M  V30 4074 C 390.319 0.523051 1.87024 0
M  V30 4075 O 389.594 -0.479874 1.88487 0
M  V30 4076 C 389.877 3.02761 1.94955 0
M  V30 4077 C 389.73 4.34787 1.1524 0
M  V30 4078 C 391.049 3.27336 2.94175 0
M  V30 4079 H 388.168 0.63323 0.377079 0
M  V30 4080 H 390.81 1.87354 0.316001 0
M  V30 4081 H 388.96 2.9154 2.56782 0
M  V30 4082 H 390.632 4.57922 0.557236 0
M  V30 4083 H 388.875 4.31407 0.455053 0
M  V30 4084 H 389.546 5.21116 1.8205 0
M  V30 4085 H 392.022 3.38148 2.42477 0
M  V30 4086 H 390.898 4.18726 3.54908 0
M  V30 4087 H 391.159 2.45491 3.67677 0
M  V30 4088 N 390.218 -0.567019 1.47046 0
M  V30 4089 C 391.15 -1.68985 1.54844 0
M  V30 4090 C 392.163 -1.56869 0.435431 0
M  V30 4091 O 393.352 -1.64006 0.70457 0
M  V30 4092 C 390.452 -3.07373 1.42742 0
M  V30 4093 C 389.625 -3.45339 2.6844 0
M  V30 4094 C 388.684 -4.62849 2.50314 0
M  V30 4095 O 387.71 -4.67922 3.24095 0
M  V30 4096 N 388.912 -5.58726 1.57499 0
M  V30 4097 H 391.677 -1.62745 2.51663 0
M  V30 4098 H 389.238 -0.753411 1.43302 0
M  V30 4099 H 391.23 -3.83803 1.28365 0
M  V30 4100 H 389.8 -3.07893 0.540445 0
M  V30 4101 H 389.02 -2.58455 2.97648 0
M  V30 4102 H 390.308 -3.67476 3.51907 0
M  V30 4103 H 389.706 -5.57376 0.966876 0
M  V30 4104 H 388.263 -6.34523 1.49078 0
M  V30 4105 N 391.696 -1.35014 -0.812953 0
M  V30 4106 C 392.659 -1.27292 -1.90602 0
M  V30 4107 C 393.659 -0.185817 -1.59723 0
M  V30 4108 O 394.849 -0.439102 -1.68575 0
M  V30 4109 C 391.981 -0.967676 -3.26877 0
M  V30 4110 H 393.174 -2.24479 -1.9887 0
M  V30 4111 H 390.727 -1.19446 -1.00808 0
M  V30 4112 H 391.462 0.0005954 -3.243 0
M  V30 4113 H 391.247 -1.75412 -3.50675 0
M  V30 4114 H 392.737 -0.939085 -4.06904 0
M  V30 4115 N 393.175 1.03435 -1.18907 0
M  V30 4116 C 394.105 2.13503 -0.945448 0
M  V30 4117 C 395.086 1.69682 0.119189 0
M  V30 4118 O 396.271 1.94169 -0.034707 0
M  V30 4119 C 393.401 3.44004 -0.477316 0
M  V30 4120 C 392.355 4.0148 -1.48316 0
M  V30 4121 C 391.681 5.27537 -0.872311 0
M  V30 4122 C 392.981 4.36921 -2.86177 0
M  V30 4123 H 394.675 2.34141 -1.86597 0
M  V30 4124 H 392.221 1.12523 -0.898584 0
M  V30 4125 H 394.174 4.20372 -0.294204 0
M  V30 4126 H 392.898 3.23072 0.478786 0
M  V30 4127 H 391.557 3.27201 -1.65332 0
M  V30 4128 H 391.205 5.02917 0.0911752 0
M  V30 4129 H 390.905 5.66954 -1.54393 0
M  V30 4130 H 392.429 6.06576 -0.699871 0
M  V30 4131 H 393.843 5.04248 -2.72776 0
M  V30 4132 H 392.24 4.87405 -3.50081 0
M  V30 4133 H 393.31 3.46466 -3.39248 0
M  V30 4134 N 394.653 0.992116 1.22453 0
M  V30 4135 C 395.583 0.561677 2.26644 0
M  V30 4136 C 396.564 -0.411055 1.65059 0
M  V30 4137 O 397.749 -0.301861 1.9184 0
M  V30 4138 C 394.879 -0.125247 3.47074 0
M  V30 4139 C 393.833 0.765948 4.21091 0
M  V30 4140 C 393.159 -0.0538484 5.34673 0
M  V30 4141 C 394.459 2.06242 4.79856 0
M  V30 4142 H 396.153 1.43259 2.62902 0
M  V30 4143 H 393.699 0.690283 1.26377 0
M  V30 4144 H 395.652 -0.437764 4.1912 0
M  V30 4145 H 394.376 -1.03069 3.0991 0
M  V30 4146 H 393.035 1.0621 3.50878 0
M  V30 4147 H 392.683 -0.960188 4.9375 0
M  V30 4148 H 392.383 0.539415 5.85119 0
M  V30 4149 H 393.907 -0.360477 6.09535 0
M  V30 4150 H 395.321 1.8139 5.43848 0
M  V30 4151 H 393.718 2.60444 5.40638 0
M  V30 4152 H 394.788 2.74167 3.99951 0
M  V30 4153 N 396.131 -1.37776 0.765217 0
M  V30 4154 C 397.547 -1.53297 0.444108 0
M  V30 4155 C 397.747 -1.72515 -1.04119 0
M  V30 4156 O 396.803 -1.74278 -1.82711 0
M  V30 4157 C 398.116 -2.73328 1.25349 0
M  V30 4158 C 399.664 -2.87185 1.24473 0
M  V30 4159 C 400.139 -4.10191 2.03733 0
M  V30 4160 N 401.63 -4.17291 2.01053 0
M  V30 4161 C 402.365 -5.11488 2.59166 0
M  V30 4162 N 401.861 -6.11285 3.26041 0
M  V30 4163 N 403.654 -5.03924 2.49032 0
M  V30 4164 H 395.805 -1.23552 1.72768 0
M  V30 4165 H 398.068 -0.601103 0.733062 0
M  V30 4166 H 397.774 -2.6557 2.30577 0
M  V30 4167 H 397.648 -3.66834 0.87823 0
M  V30 4168 H 400.035 -2.94418 0.20047 0
M  V30 4169 H 400.116 -1.94657 1.65959 0
M  V30 4170 H 399.76 -4.0372 3.08176 0
M  V30 4171 H 399.69 -5.01821 1.59633 0
M  V30 4172 H 402.181 -3.45825 1.5236 0
M  V30 4173 H 402.494 -6.79678 3.67774 0
M  V30 4174 H 400.839 -6.11583 3.30138 0
M  V30 4175 H 404.03 -4.24902 1.96407 0
M  V30 4176 H 404.203 -5.77152 2.94617 0
M  V30 4177 N 397.609 -0.515225 -1.4894 0
M  V30 4178 C 398.572 0.244681 -2.2789 0
M  V30 4179 C 399.572 0.881166 -1.34507 0
M  V30 4180 O 400.762 0.743497 -1.57537 0
M  V30 4181 C 397.894 1.35247 -3.12923 0
M  V30 4182 H 399.087 -0.448289 -2.96531 0
M  V30 4183 H 396.64 -0.270656 -1.53939 0
M  V30 4184 H 397.375 2.07916 -2.48881 0
M  V30 4185 H 397.16 0.901374 -3.81599 0
M  V30 4186 H 398.65 1.88737 -3.72516 0
M  V30 4187 N 399.087 1.5561 -0.249682 0
M  V30 4188 C 400.333 1.99306 0.374841 0
M  V30 4189 C 400.666 1.13767 1.57387 0
M  V30 4190 O 399.941 0.201711 1.93451 0
M  V30 4191 C 400.224 3.51507 0.781986 0
M  V30 4192 C 400.077 4.4781 -0.422629 0
M  V30 4193 C 401.396 4.08884 1.62793 0
M  V30 4194 H 398.515 0.724572 0.134773 0
M  V30 4195 H 401.157 1.86719 -0.351549 0
M  V30 4196 H 399.307 3.62363 1.4009 0
M  V30 4197 H 400.979 4.48931 -1.06108 0
M  V30 4198 H 399.222 4.20518 -1.06524 0
M  V30 4199 H 399.893 5.51919 -0.0943766 0
M  V30 4200 H 402.369 4.01147 1.10547 0
M  V30 4201 H 401.245 5.1564 1.88166 0
M  V30 4202 H 401.506 3.57515 2.60068 0
M  V30 4203 N 400.565 -0.0233959 1.57583 0
M  V30 4204 C 401.981 -0.379134 1.55031 0
M  V30 4205 C 402.181 -1.76255 0.976548 0
M  V30 4206 O 401.237 -2.45266 0.600078 0
M  V30 4207 C 402.55 -0.275792 2.99433 0
M  V30 4208 C 404.098 -0.352458 3.11009 0
M  V30 4209 C 404.573 -0.278501 4.57152 0
M  V30 4210 N 406.064 -0.337123 4.61972 0
M  V30 4211 C 406.799 -0.302876 5.726 0
M  V30 4212 N 406.295 -0.220589 6.92449 0
M  V30 4213 N 408.088 -0.353023 5.6099 0
M  V30 4214 H 400.239 0.881869 1.93227 0
M  V30 4215 H 402.502 0.335867 0.886509 0
M  V30 4216 H 402.208 0.675108 3.4516 0
M  V30 4217 H 402.082 -1.06721 3.61788 0
M  V30 4218 H 404.469 -1.29379 2.65226 0
M  V30 4219 H 404.55 0.468409 2.51475 0
M  V30 4220 H 404.194 0.659189 5.03604 0
M  V30 4221 H 404.124 -1.11755 5.14605 0
M  V30 4222 H 406.615 -0.403002 3.75745 0
M  V30 4223 H 406.928 -0.199713 7.72542 0
M  V30 4224 H 405.273 -0.186555 6.9475 0
M  V30 4225 H 408.464 -0.415339 4.66254 0
M  V30 4226 H 408.637 -0.322866 6.47195 0
M  V30 4227 N 402.043 -1.548 -0.295768 0
M  V30 4228 C 403.283 -1.76069 -1.03823 0
M  V30 4229 C 403.647 -0.537992 -1.84309 0
M  V30 4230 O 404.848 -0.628514 -2.61349 0
M  V30 4231 C 403.119 -3.01705 -1.91596 0
M  V30 4232 S 404.678 -3.43998 -2.72416 0
M  V30 4233 H 401.496 -0.618852 -0.350062 0
M  V30 4234 H 404.098 -1.93009 -0.31106 0
M  V30 4235 H 402.802 -3.88812 -1.31351 0
M  V30 4236 H 402.333 -2.87366 -2.68671 0
M  V30 4237 H 404.348 -3.0148 -3.94112 0
M  V30 4238 N 403.521 0.559213 -1.47345 0
M  V30 4239 C 404.471 1.66192 -1.5609 0
M  V30 4240 C 405.455 1.55323 -0.419957 0
M  V30 4241 O 406.647 1.63839 -0.669762 0
M  V30 4242 C 403.776 3.0497 -1.57634 0
M  V30 4243 C 402.862 3.2105 -2.77106 0
M  V30 4244 N 403.253 3.07203 -4.01821 0
M  V30 4245 C 401.551 3.52046 -2.73825 0
M  V30 4246 C 402.252 3.25919 -4.81821 0
M  V30 4247 N 401.228 3.52161 -4.14106 0
M  V30 4248 H 405.03 1.54052 -2.5029 0
M  V30 4249 H 402.544 0.763914 -1.43311 0
M  V30 4250 H 404.541 3.84142 -1.61989 0
M  V30 4251 H 403.201 3.18224 -0.645281 0
M  V30 4252 H 404.212 2.84572 -4.32711 0
M  V30 4253 H 400.889 3.71839 -1.89848 0
M  V30 4254 H 402.279 3.20198 -5.90697 0
M  V30 4255 N 404.999 1.35443 0.805782 0
M  V30 4256 C 406.224 1.32037 1.59941 0
M  V30 4257 C 406.649 -0.0994215 1.87837 0
M  V30 4258 O 406.007 -1.06648 1.46615 0
M  V30 4259 C 406.055 2.13354 2.90711 0
M  V30 4260 O 405.159 1.5148 3.83572 0
M  V30 4261 H 404.5 0.452666 0.485787 0
M  V30 4262 H 407.03 1.78496 1.00002 0
M  V30 4263 H 407.04 2.25338 3.40128 0
M  V30 4264 H 405.715 3.16572 2.69732 0
M  V30 4265 H 404.292 1.4834 3.42125 0
M  V30 4266 N 406.477 -1.02803 1.19454 0
M  V30 4267 C 407.407 -2.12999 0.956758 0
M  V30 4268 C 408.388 -1.69743 -0.110188 0
M  V30 4269 O 409.573 -1.94148 0.0450038 0
M  V30 4270 C 406.703 -3.43746 0.495553 0
M  V30 4271 C 405.657 -4.00688 1.50443 0
M  V30 4272 C 404.983 -5.27067 0.900275 0
M  V30 4273 C 406.283 -4.35397 2.8849 0
M  V30 4274 H 407.977 -2.33148 1.87836 0
M  V30 4275 H 405.523 -1.12045 0.904539 0
M  V30 4276 H 407.476 -4.2021 0.316493 0
M  V30 4277 H 406.2 -3.23321 -0.461646 0
M  V30 4278 H 404.859 -3.2632 1.67065 0
M  V30 4279 H 404.507 -5.02959 -0.064503 0
M  V30 4280 H 404.207 -5.66127 1.57397 0
M  V30 4281 H 405.731 -6.06196 0.73203 0
M  V30 4282 H 407.145 -5.02795 2.75446 0
M  V30 4283 H 405.542 -4.85541 3.52661 0
M  V30 4284 H 406.612 -3.44662 3.41081 0
M  V30 4285 N 407.956 -0.998596 -1.21925 0
M  V30 4286 C 409.184 -0.696286 -1.94832 0
M  V30 4287 C 409.599 0.740032 -1.73692 0
M  V30 4288 O 408.956 1.5 -1.03953 0
M  V30 4289 C 409.007 -0.999833 -3.47398 0
M  V30 4290 O 408.728 -2.37972 -3.67833 0
M  V30 4291 C 410.229 -0.716025 -4.37479 0
M  V30 4292 H 407.449 -0.257111 -0.619786 0
M  V30 4293 H 409.993 -1.33491 -1.54921 0
M  V30 4294 H 408.148 -0.406918 -3.85257 0
M  V30 4295 H 408.562 -2.48338 -4.61983 0
M  V30 4296 H 410.036 -0.978642 -5.43256 0
M  V30 4297 H 410.513 0.349968 -4.37803 0
M  V30 4298 H 411.119 -1.29025 -4.05256 0
M  V30 4299 N 409.434 1.37368 -0.772513 0
M  V30 4300 C 410.845 1.8231 -0.402493 0
M  V30 4301 C 411.196 1.6436 1.07146 0
M  V30 4302 O 410.321 1.15514 1.82991 0
M  V30 4303 C 410.916 3.30979 -0.723776 0
M  V30 4304 C 409.475 3.74195 -0.406802 0
M  V30 4305 C 408.622 2.59885 -0.967218 0
M  V30 4306 H 411.573 1.25829 -0.967099 0
M  V30 4307 H 411.594 3.80499 -0.00870832 0
M  V30 4308 H 411.106 3.44011 -1.7966 0
M  V30 4309 H 409.207 3.66732 0.658673 0
M  V30 4310 H 409.32 4.7027 -0.915588 0
M  V30 4311 H 407.684 2.51674 -0.391416 0
M  V30 4312 H 408.467 2.7571 -2.04546 0
M  V30 4313 N 410.912 0.523116 1.48665 0
M  V30 4314 C 411.86 -0.256859 2.31177 0
M  V30 4315 C 412.854 -0.94199 1.40794 0
M  V30 4316 O 414.06 -0.867157 1.57735 0
M  V30 4317 H 410.435 -0.1017 0.745091 0
M  V30 4318 H 412.406 0.458739 2.94853 0
M  V30 4319 C 411.155 -1.29503 3.22683 0
M  V30 4320 H 410.478 -0.777248 3.92172 0
M  V30 4321 H 411.918 -1.81233 3.83315 0
M  V30 4322 C 410.377 -2.32501 2.43813 0
M  V30 4323 O 410.907 -3.3881 2.15803 0
M  V30 4324 N 409.113 -2.05538 2.05432 0
M  V30 4325 H 408.66 -1.19104 2.28412 0
M  V30 4326 H 408.618 -2.74676 1.52973 0
M  V30 4327 N 412.39 -1.55475 0.257931 0
M  V30 4328 C 413.637 -1.99207 -0.363728 0
M  V30 4329 C 413.965 -1.1462 -1.57139 0
M  V30 4330 O 413.22 -0.199653 -1.94679 0
M  V30 4331 C 413.519 -3.48183 -0.806433 0
M  V30 4332 C 413.185 -4.49936 0.294684 0
M  V30 4333 C 411.847 -4.77481 0.597076 0
M  V30 4334 C 414.199 -5.10769 1.03751 0
M  V30 4335 C 411.527 -5.63132 1.64618 0
M  V30 4336 C 413.879 -5.97558 2.07622 0
M  V30 4337 C 412.543 -6.23432 2.38514 0
M  V30 4338 H 411.813 -0.728949 -0.133097 0
M  V30 4339 H 414.46 -1.8793 0.368059 0
M  V30 4340 H 412.765 -3.56848 -1.61761 0
M  V30 4341 H 414.462 -3.79415 -1.29789 0
M  V30 4342 H 411.052 -4.28572 0.0488649 0
M  V30 4343 H 415.236 -4.89527 0.817149 0
M  V30 4344 H 410.492 -5.8143 1.89074 0
M  V30 4345 H 414.666 -6.43735 2.65666 0
M  V30 4346 H 412.293 -6.89594 3.19943 0
M  V30 4347 N 413.868 0.0150385 -1.57593 0
M  V30 4348 C 414.798 1.01047 -2.10503 0
M  V30 4349 C 415.779 1.36816 -1.01071 0
M  V30 4350 O 416.964 1.45455 -1.28672 0
M  V30 4351 C 414.094 2.30708 -2.59598 0
M  V30 4352 C 413.048 2.09142 -3.73421 0
M  V30 4353 C 412.374 3.44685 -4.08774 0
M  V30 4354 C 413.674 1.46619 -5.01298 0
M  V30 4355 H 415.368 0.569978 -2.93925 0
M  V30 4356 H 412.914 0.272724 -1.41394 0
M  V30 4357 H 414.867 3.00687 -2.95238 0
M  V30 4358 H 413.591 2.76843 -1.73279 0
M  V30 4359 H 412.25 1.41592 -3.38153 0
M  V30 4360 H 411.898 3.88495 -3.195 0
M  V30 4361 H 411.598 3.31077 -4.8545 0
M  V30 4362 H 413.122 4.16004 -4.4696 0
M  V30 4363 H 414.536 2.06535 -5.34805 0
M  V30 4364 H 412.933 1.43544 -5.82679 0
M  V30 4365 H 414.003 0.433611 -4.82957 0
M  V30 4366 N 415.346 1.54954 0.287554 0
M  V30 4367 C 416.278 1.83224 1.37701 0
M  V30 4368 C 417.291 0.715898 1.46215 0
M  V30 4369 O 418.48 0.993565 1.48292 0
M  V30 4370 C 415.58 1.96723 2.75959 0
M  V30 4371 C 414.753 3.27253 2.90215 0
M  V30 4372 C 413.812 3.30998 4.09056 0
M  V30 4373 O 412.838 4.04457 4.00503 0
M  V30 4374 N 414.04 2.57353 5.20336 0
M  V30 4375 H 416.805 2.77254 1.138 0
M  V30 4376 H 414.366 1.54694 0.477652 0
M  V30 4377 H 416.358 1.96615 3.5373 0
M  V30 4378 H 414.928 1.09626 2.92747 0
M  V30 4379 H 414.148 3.40022 1.99447 0
M  V30 4380 H 415.436 4.13365 2.96659 0
M  V30 4381 H 414.834 1.97327 5.30169 0
M  V30 4382 H 413.391 2.62984 5.96391 0
M  V30 4383 N 416.824 -0.551391 1.4764 0
M  V30 4384 C 417.757 -1.6738 1.5511 0
M  V30 4385 C 418.735 -1.5753 0.402856 0
M  V30 4386 O 419.919 -1.78307 0.611475 0
M  V30 4387 C 417.046 -3.05661 1.45908 0
M  V30 4388 C 416.092 -3.33938 2.65307 0
M  V30 4389 S 416.925 -3.22553 4.27457 0
M  V30 4390 C 418.081 -4.63317 4.20818 0
M  V30 4391 H 418.314 -1.6079 2.50068 0
M  V30 4392 H 415.847 -0.732674 1.35909 0
M  V30 4393 H 417.805 -3.8542 1.41286 0
M  V30 4394 H 416.466 -3.09711 0.523248 0
M  V30 4395 H 415.659 -4.34761 2.54948 0
M  V30 4396 H 415.261 -2.61809 2.67081 0
M  V30 4397 H 417.553 -5.54391 3.89431 0
M  V30 4398 H 418.496 -4.78732 5.21748 0
M  V30 4399 H 418.904 -4.41636 3.51593 0
M  V30 4400 N 418.302 -1.35869 -0.798587 0
M  V30 4401 C 419.234 -1.25305 -1.91915 0
M  V30 4402 C 420.247 -0.174548 -1.61862 0
M  V30 4403 O 421.436 -0.428499 -1.73281 0
M  V30 4404 C 418.536 -0.9086 -3.26493 0
M  V30 4405 C 417.709 -2.08711 -3.84394 0
M  V30 4406 C 416.768 -1.71717 -4.97393 0
M  V30 4407 O 415.794 -2.43692 -5.14396 0
M  V30 4408 N 416.996 -0.645473 -5.769 0
M  V30 4409 H 419.761 -2.21849 -2.01502 0
M  V30 4410 H 417.322 -1.29143 -0.976408 0
M  V30 4411 H 419.314 -0.642455 -3.99568 0
M  V30 4412 H 417.884 -0.0325815 -3.12583 0
M  V30 4413 H 417.104 -2.51659 -3.03416 0
M  V30 4414 H 418.392 -2.87468 -4.19809 0
M  V30 4415 H 417.79 -0.047648 -5.6568 0
M  V30 4416 H 416.347 -0.43913 -6.50319 0
M  V30 4417 N 419.78 1.02168 -1.19998 0
M  V30 4418 C 420.71 2.12488 -0.96804 0
M  V30 4419 C 421.691 1.69799 0.101185 0
M  V30 4420 O 422.876 1.94121 -0.0552993 0
M  V30 4421 C 420.006 3.43479 -0.513776 0
M  V30 4422 C 418.96 3.99884 -1.52566 0
M  V30 4423 C 418.286 5.26582 -0.928214 0
M  V30 4424 C 419.586 4.33861 -2.90795 0
M  V30 4425 H 421.28 2.32149 -1.89069 0
M  V30 4426 H 418.826 1.11564 -0.910468 0
M  V30 4427 H 420.779 4.20036 -0.338774 0
M  V30 4428 H 419.503 3.23561 0.444493 0
M  V30 4429 H 418.162 3.25429 -1.68794 0
M  V30 4430 H 417.81 5.02986 0.0378289 0
M  V30 4431 H 417.51 5.65284 -1.60397 0
M  V30 4432 H 419.034 6.05799 -0.764167 0
M  V30 4433 H 420.448 5.01327 -2.78109 0
M  V30 4434 H 418.845 4.83664 -3.55231 0
M  V30 4435 H 419.915 3.42848 -3.42904 0
M  V30 4436 N 421.258 1.00505 1.21394 0
M  V30 4437 C 422.19 0.52372 2.23136 0
M  V30 4438 C 423.203 -0.387714 1.58116 0
M  V30 4439 O 424.392 -0.187905 1.77508 0
M  V30 4440 C 421.492 -0.258885 3.3791 0
M  V30 4441 C 420.665 0.651634 4.32519 0
M  V30 4442 C 419.724 -0.0813705 5.26137 0
M  V30 4443 O 418.75 0.537295 5.66658 0
M  V30 4444 N 419.952 -1.35992 5.64346 0
M  V30 4445 H 422.717 1.39865 2.65062 0
M  V30 4446 H 420.278 0.881196 1.35818 0
M  V30 4447 H 422.27 -0.758208 3.97534 0
M  V30 4448 H 420.84 -1.035 2.94968 0
M  V30 4449 H 420.06 1.33145 3.71034 0
M  V30 4450 H 421.348 1.27129 4.92662 0
M  V30 4451 H 420.746 -1.88368 5.33417 0
M  V30 4452 H 419.303 -1.8042 6.26332 0
M  V30 4453 N 422.737 -1.36956 0.779787 0
M  V30 4454 C 423.684 -2.30175 0.169697 0
M  V30 4455 C 424.654 -1.51501 -0.68094 0
M  V30 4456 O 425.839 -1.80042 -0.631629 0
M  V30 4457 C 422.979 -3.37985 -0.697131 0
M  V30 4458 C 422.092 -4.31661 0.170992 0
M  V30 4459 C 421.227 -5.2655 -0.701298 0
M  V30 4460 C 420.266 -6.11867 0.168869 0
M  V30 4461 N 419.403 -6.98973 -0.661855 0
M  V30 4462 H 424.243 -2.81767 0.970135 0
M  V30 4463 H 421.78 -1.38699 0.489994 0
M  V30 4464 H 423.738 -3.99128 -1.2146 0
M  V30 4465 H 422.368 -2.87739 -1.46309 0
M  V30 4466 H 421.42 -3.71756 0.80634 0
M  V30 4467 H 422.732 -4.91644 0.841875 0
M  V30 4468 H 421.886 -5.92937 -1.28494 0
M  V30 4469 H 420.625 -4.66998 -1.40584 0
M  V30 4470 H 419.63 -5.44452 0.764986 0
M  V30 4471 H 420.855 -6.73493 0.870863 0
M  V30 4472 H 418.801 -6.41941 -1.35086 0
M  V30 4473 H 418.718 -7.55984 -0.0484447 0
M  V30 4474 H 419.986 -7.6974 -1.22963 0
M  V30 4475 N 424.215 -0.530993 -1.48385 0
M  V30 4476 C 425.455 0.000718982 -2.044 0
M  V30 4477 C 425.819 1.31485 -1.39913 0
M  V30 4478 O 427.02 1.93265 -1.86821 0
M  V30 4479 C 425.291 0.119177 -3.57201 0
M  V30 4480 S 426.85 0.600806 -4.34667 0
M  V30 4481 H 423.668 -0.0125473 -0.710889 0
M  V30 4482 H 426.27 -0.711783 -1.82082 0
M  V30 4483 H 424.974 -0.842061 -4.01668 0
M  V30 4484 H 424.505 0.856026 -3.83974 0
M  V30 4485 H 426.52 1.86514 -4.59812 0
M  V30 4486 N 425.693 1.55336 -0.266172 0
M  V30 4487 C 426.603 2.2583 0.635458 0
M  V30 4488 C 427.619 1.28106 1.17749 0
M  V30 4489 O 428.795 1.61024 1.20968 0
M  V30 4490 C 425.86 2.95879 1.80712 0
M  V30 4491 C 424.921 4.09059 1.30265 0
M  V30 4492 C 424.154 4.75759 2.41846 0
M  V30 4493 O 424.377 4.41622 3.61007 0
M  V30 4494 O 423.311 5.63888 2.1051 0
M  V30 4495 H 427.137 3.03631 0.0646693 0
M  V30 4496 H 424.722 1.49361 -0.0339177 0
M  V30 4497 H 426.604 3.39932 2.49047 0
M  V30 4498 H 425.279 2.21002 2.36516 0
M  V30 4499 H 424.186 3.69482 0.586019 0
M  V30 4500 H 425.519 4.85811 0.790458 0
M  V30 4501 N 427.171 -0.0066808 1.57599 0
M  V30 4502 C 428.42 -0.692078 1.89455 0
M  V30 4503 C 428.733 -1.75306 0.867586 0
M  V30 4504 O 429.939 -2.49262 1.07614 0
M  V30 4505 C 428.395 -1.2821 3.36289 0
M  V30 4506 C 428.003 -0.256291 4.47266 0
M  V30 4507 C 429.747 -1.94608 3.77264 0
M  V30 4508 C 427.654 -0.855927 5.85173 0
M  V30 4509 H 426.584 -0.262252 0.706923 0
M  V30 4510 H 429.235 0.052769 1.83424 0
M  V30 4511 H 427.617 -2.0774 3.37135 0
M  V30 4512 H 428.791 0.513923 4.57925 0
M  V30 4513 H 427.106 0.306862 4.15268 0
M  V30 4514 H 429.703 -2.40364 4.77629 0
M  V30 4515 H 430.046 -2.77382 3.10427 0
M  V30 4516 H 430.579 -1.21822 3.78688 0
M  V30 4517 H 427.318 -0.0671161 6.55466 0
M  V30 4518 H 426.838 -1.59546 5.78191 0
M  V30 4519 H 428.517 -1.35658 6.32618 0
M  V30 4520 N 428.649 -1.55105 -0.279332 0
M  V30 4521 C 429.579 -1.90557 -1.34945 0
M  V30 4522 C 430.56 -0.766738 -1.51839 0
M  V30 4523 O 431.745 -1.02434 -1.64988 0
M  V30 4524 C 428.875 -2.17193 -2.71006 0
M  V30 4525 C 427.829 -3.33021 -2.68851 0
M  V30 4526 C 427.155 -3.45123 -4.08405 0
M  V30 4527 C 428.455 -4.69578 -2.28678 0
M  V30 4528 H 430.149 -2.80188 -1.05522 0
M  V30 4529 H 427.695 -1.34811 -0.506173 0
M  V30 4530 H 429.648 -2.40581 -3.45975 0
M  V30 4531 H 428.372 -1.24355 -3.01999 0
M  V30 4532 H 427.031 -3.0959 -1.9634 0
M  V30 4533 H 426.679 -2.49762 -4.3661 0
M  V30 4534 H 426.379 -4.22995 -4.07859 0
M  V30 4535 H 427.903 -3.70796 -4.85121 0
M  V30 4536 H 429.317 -4.92553 -2.93368 0
M  V30 4537 H 427.714 -5.5032 -2.39306 0
M  V30 4538 H 428.784 -4.68828 -1.23807 0
M  V30 4539 N 430.127 0.543554 -1.4793 0
M  V30 4540 C 431.059 1.665 -1.57513 0
M  V30 4541 C 432.072 1.56156 -0.460333 0
M  V30 4542 O 433.261 1.62865 -0.730573 0
M  V30 4543 C 430.361 3.05063 -1.47614 0
M  V30 4544 C 429.534 3.41024 -2.739 0
M  V30 4545 C 428.593 4.58809 -2.57645 0
M  V30 4546 O 427.619 4.62707 -3.31498 0
M  V30 4547 N 428.821 5.56149 -1.66368 0
M  V30 4548 H 431.586 1.5872 -2.5422 0
M  V30 4549 H 429.147 0.730517 -1.44482 0
M  V30 4550 H 431.139 3.81712 -1.34455 0
M  V30 4551 H 429.709 3.06994 -0.589359 0
M  V30 4552 H 428.929 2.53687 -3.01723 0
M  V30 4553 H 430.217 3.61831 -3.57709 0
M  V30 4554 H 429.615 5.55767 -1.05543 0
M  V30 4555 H 428.172 6.32071 -1.59154 0
M  V30 4556 N 431.605 1.3629 0.791371 0
M  V30 4557 C 432.83 1.33726 1.58531 0
M  V30 4558 C 433.255 -0.0794933 1.87932 0
M  V30 4559 O 432.613 -1.05087 1.47738 0
M  V30 4560 C 432.661 2.16425 2.88431 0
M  V30 4561 O 431.765 1.5554 3.81944 0
M  V30 4562 H 431.106 0.457793 0.480959 0
M  V30 4563 H 433.636 1.79547 0.981031 0
M  V30 4564 H 433.646 2.28933 3.37718 0
M  V30 4565 H 432.321 3.19415 2.66359 0
M  V30 4566 H 430.898 1.51961 3.40532 0
M  V30 4567 N 433.083 -1.0153 1.20538 0
M  V30 4568 C 434.36 -1.72327 0.925343 0
M  V30 4569 C 434.74 -2.03383 -0.565547 0
M  V30 4570 O 434.088 -1.69934 -1.52757 0
M  V30 4571 C 434.298 -2.9902 1.79967 0
M  V30 4572 C 435.646 -3.72258 2.04228 0
M  V30 4573 O 436.67 -3.08979 1.77231 0
M  V30 4574 O 435.529 -4.86053 2.4983 0
M  V30 4575 H 432.623 -0.751099 0.346092 0
M  V30 4576 H 435.169 -1.07366 1.31417 0
M  V30 4577 H 433.941 -2.72402 2.80915 0
M  V30 4578 H 433.564 -3.71721 1.41099 0
M  V30 4579 N 434.561 -1.01147 -1.20859 0
M  V30 4580 C 435.786 -0.716698 -1.94623 0
M  V30 4581 C 436.211 0.715415 -1.73964 0
M  V30 4582 O 435.569 1.49157 -1.03062 0
M  V30 4583 C 435.617 -1.0513 -3.44935 0
M  V30 4584 O 434.721 -0.160131 -4.12089 0
M  V30 4585 H 434.062 -0.266404 -0.608214 0
M  V30 4586 H 436.592 -1.35346 -1.53436 0
M  V30 4587 H 436.602 -1.00086 -3.95533 0
M  V30 4588 H 435.277 -2.09475 -3.59295 0
M  V30 4589 H 433.854 -0.267657 -3.71938 0
M  V30 4590 N 436.039 1.36541 -0.78704 0
M  V30 4591 C 437.455 1.52571 -0.46844 0
M  V30 4592 C 437.655 1.7415 1.01361 0
M  V30 4593 O 436.711 1.77163 1.79915 0
M  V30 4594 C 438.024 2.71299 -1.29682 0
M  V30 4595 C 439.572 2.85169 -1.29027 0
M  V30 4596 C 440.047 4.06898 -2.10233 0
M  V30 4597 N 441.538 4.1404 -2.07666 0
M  V30 4598 C 442.273 5.07301 -2.67271 0
M  V30 4599 N 441.769 6.06021 -3.35724 0
M  V30 4600 N 443.562 4.99898 -2.57018 0
M  V30 4601 H 435.713 1.20788 -1.74711 0
M  V30 4602 H 437.976 0.589364 -0.742532 0
M  V30 4603 H 437.682 2.61868 -2.34773 0
M  V30 4604 H 437.556 3.6539 -0.936479 0
M  V30 4605 H 439.943 2.94062 -0.247284 0
M  V30 4606 H 440.024 1.91992 -1.69035 0
M  V30 4607 H 439.668 3.98766 -3.1456 0
M  V30 4608 H 439.598 4.99218 -1.67597 0
M  V30 4609 H 442.089 3.43357 -1.57843 0
M  V30 4610 H 442.402 6.73741 -3.78541 0
M  V30 4611 H 440.747 6.06253 -3.39826 0
M  V30 4612 H 443.938 4.21724 -2.03142 0
M  V30 4613 H 444.111 5.72392 -3.03761 0
M  V30 4614 N 437.518 0.538854 1.48102 0
M  V30 4615 C 438.758 0.0101209 2.04397 0
M  V30 4616 C 439.122 -1.30741 1.40609 0
M  V30 4617 O 440.323 -1.92272 1.87843 0
M  V30 4618 C 438.594 -0.100232 3.57259 0
M  V30 4619 S 440.153 -0.577746 4.3498 0
M  V30 4620 H 436.971 0.0163171 0.710813 0
M  V30 4621 H 439.573 0.721429 1.81702 0
M  V30 4622 H 438.277 0.863351 4.01216 0
M  V30 4623 H 437.808 -0.835651 3.84422 0
M  V30 4624 H 439.823 -1.84073 4.60794 0
M  V30 4625 N 438.996 -1.55193 0.274407 0
M  V30 4626 C 439.943 -2.225 -0.613374 0
M  V30 4627 C 440.913 -1.19823 -1.15029 0
M  V30 4628 O 442.098 -1.48362 -1.19973 0
M  V30 4629 C 439.238 -2.94927 -1.79199 0
M  V30 4630 C 438.351 -4.12322 -1.28899 0
M  V30 4631 C 437.486 -4.72394 -2.42934 0
M  V30 4632 C 436.525 -5.81984 -1.89634 0
M  V30 4633 N 435.662 -6.36123 -2.9714 0
M  V30 4634 H 440.502 -2.97982 -0.032756 0
M  V30 4635 H 438.039 -1.47099 -0.00440146 0
M  V30 4636 H 439.997 -3.35134 -2.48478 0
M  V30 4637 H 438.627 -2.2187 -2.34465 0
M  V30 4638 H 437.679 -3.7724 -0.489327 0
M  V30 4639 H 438.991 -4.91355 -0.858587 0
M  V30 4640 H 438.145 -5.15317 -3.20208 0
M  V30 4641 H 436.884 -3.92636 -2.8929 0
M  V30 4642 H 435.889 -5.38511 -1.1084 0
M  V30 4643 H 437.114 -6.6361 -1.44215 0
M  V30 4644 H 435.06 -5.59259 -3.42878 0
M  V30 4645 H 434.977 -7.10427 -2.58515 0
M  V30 4646 H 436.245 -6.83704 -3.74391 0
M  V30 4647 N 440.474 -0.00167713 -1.576 0
M  V30 4648 C 441.751 0.719951 -1.81868 0
M  V30 4649 C 442.131 1.91895 -0.879747 0
M  V30 4650 O 441.479 2.28389 0.0711423 0
M  V30 4651 C 441.689 1.12409 -3.30402 0
M  V30 4652 C 443.037 1.52724 -3.96182 0
M  V30 4653 O 444.061 1.21784 -3.34734 0
M  V30 4654 O 442.92 2.10265 -5.04431 0
M  V30 4655 H 440.014 0.350707 -0.748955 0
M  V30 4656 H 442.56 -0.0272597 -1.69678 0
M  V30 4657 H 441.332 0.269532 -3.90371 0
M  V30 4658 H 440.955 1.93035 -3.47596 0
M  V30 4659 N 441.952 1.55251 0.271103 0
M  V30 4660 C 443.182 1.79713 1.01916 0
M  V30 4661 C 443.59 0.571613 1.80359 0
M  V30 4662 O 442.933 -0.468853 1.77616 0
M  V30 4663 C 442.995 2.97138 2.02359 0
M  V30 4664 C 442.659 4.34104 1.42837 0
M  V30 4665 C 443.656 5.13019 0.843071 0
M  V30 4666 C 441.341 4.80765 1.455 0
M  V30 4667 C 443.335 6.36729 0.292333 0
M  V30 4668 C 441.022 6.0443 0.900402 0
M  V30 4669 C 442.02 6.8225 0.32007 0
M  V30 4670 O 441.708 8.03582 -0.226031 0
M  V30 4671 H 441.44 0.602431 0.306681 0
M  V30 4672 H 443.994 2.03097 0.306701 0
M  V30 4673 H 442.224 2.6945 2.77369 0
M  V30 4674 H 443.913 3.08907 2.63309 0
M  V30 4675 H 444.679 4.781 0.815178 0
M  V30 4676 H 440.558 4.20202 1.89609 0
M  V30 4677 H 444.102 6.97414 -0.161274 0
M  V30 4678 H 439.999 6.3883 0.925541 0
M  V30 4679 H 440.767 8.18418 -0.115572 0
M  V30 4680 N 443.43 -0.535701 1.48216 0
M  V30 4681 C 444.36 -1.65014 1.65204 0
M  V30 4682 C 445.341 -1.62554 0.501011 0
M  V30 4683 O 446.526 -1.7984 0.732886 0
M  V30 4684 C 443.656 -3.03616 1.68626 0
M  V30 4685 C 442.61 -3.20932 2.83172 0
M  V30 4686 C 441.936 -4.60537 2.71679 0
M  V30 4687 C 443.236 -3.04249 4.24535 0
M  V30 4688 H 444.93 -1.51053 2.58502 0
M  V30 4689 H 442.476 -0.725262 1.24402 0
M  V30 4690 H 444.429 -3.81446 1.79099 0
M  V30 4691 H 443.153 -3.18587 0.719026 0
M  V30 4692 H 441.812 -2.45517 2.72244 0
M  V30 4693 H 441.46 -4.72336 1.72937 0
M  V30 4694 H 441.16 -4.73069 3.48538 0
M  V30 4695 H 442.684 -5.40475 2.84112 0
M  V30 4696 H 444.098 -3.71877 4.36326 0
M  V30 4697 H 442.495 -3.28278 5.02348 0
M  V30 4698 H 443.565 -2.00739 4.41397 0
M  V30 4699 N 444.908 -1.36708 -0.784132 0
M  V30 4700 C 446.154 -1.31426 -1.54451 0
M  V30 4701 C 446.487 0.10476 -1.93917 0
M  V30 4702 O 445.762 1.05934 -1.6312 0
M  V30 4703 C 446.045 -2.24189 -2.818 0
M  V30 4704 C 445.898 -3.74813 -2.48667 0
M  V30 4705 C 447.217 -2.15626 -3.83658 0
M  V30 4706 H 444.336 -0.478739 -0.560337 0
M  V30 4707 H 446.978 -1.67305 -0.900498 0
M  V30 4708 H 445.128 -1.93722 -3.36755 0
M  V30 4709 H 446.8 -4.15823 -1.99722 0
M  V30 4710 H 445.043 -3.93989 -1.81535 0
M  V30 4711 H 445.714 -4.35138 -3.39646 0
M  V30 4712 H 448.19 -2.42456 -3.38163 0
M  V30 4713 H 447.066 -2.82694 -4.70506 0
M  V30 4714 H 447.327 -1.14522 -4.27009 0
M  V30 4715 N 446.386 1.0089 -1.21074 0
M  V30 4716 C 447.333 2.09588 -0.966512 0
M  V30 4717 C 448.303 1.65761 0.106089 0
M  V30 4718 O 449.488 1.90758 -0.0402287 0
M  V30 4719 C 446.628 3.40958 -0.533058 0
M  V30 4720 C 445.741 3.9822 -1.67467 0
M  V30 4721 C 444.876 5.17682 -1.19076 0
M  V30 4722 C 443.915 5.67043 -2.30496 0
M  V30 4723 N 443.052 6.77759 -1.83267 0
M  V30 4724 H 447.892 2.29815 -1.89708 0
M  V30 4725 H 445.429 1.12689 -0.945489 0
M  V30 4726 H 447.387 4.1637 -0.263019 0
M  V30 4727 H 446.017 3.20781 0.360505 0
M  V30 4728 H 445.069 3.1983 -2.05944 0
M  V30 4729 H 446.381 4.3085 -2.51336 0
M  V30 4730 H 445.535 6.00326 -0.877151 0
M  V30 4731 H 444.274 4.86635 -0.322066 0
M  V30 4732 H 443.279 4.82999 -2.62664 0
M  V30 4733 H 444.504 6.00121 -3.17855 0
M  V30 4734 H 442.45 6.48527 -0.987356 0
M  V30 4735 H 442.367 7.09624 -2.60711 0
M  V30 4736 H 443.635 7.63949 -1.54928 0
M  V30 4737 N 447.864 1.01787 1.20321 0
M  V30 4738 C 449.113 0.703249 1.89043 0
M  V30 4739 C 449.426 -0.770445 1.79787 0
M  V30 4740 O 450.632 -1.19767 2.43656 0
M  V30 4741 C 449.088 1.20749 3.3904 0
M  V30 4742 C 448.696 2.70817 3.56878 0
M  V30 4743 C 450.44 0.968352 4.13308 0
M  V30 4744 C 448.347 3.14716 5.00708 0
M  V30 4745 H 447.277 0.259354 0.707991 0
M  V30 4746 H 449.928 1.23072 1.36108 0
M  V30 4747 H 448.31 0.607989 3.91305 0
M  V30 4748 H 449.484 3.36327 3.14993 0
M  V30 4749 H 447.799 2.92888 2.95983 0
M  V30 4750 H 450.396 1.27173 5.19356 0
M  V30 4751 H 450.739 -0.095149 4.16191 0
M  V30 4752 H 451.272 1.53129 3.67146 0
M  V30 4753 H 448.011 4.20347 5.02979 0
M  V30 4754 H 447.531 2.53927 5.43398 0
M  V30 4755 H 449.21 3.07426 5.69296 0
M  V30 4756 N 449.342 -1.36122 0.79427 0
M  V30 4757 C 450.589 -1.99111 0.368905 0
M  V30 4758 C 450.917 -1.63032 -1.0607 0
M  V30 4759 O 450.172 -0.879303 -1.74833 0
M  V30 4760 C 450.471 -3.5409 0.48527 0
M  V30 4761 C 450.137 -4.10003 1.87638 0
M  V30 4762 C 448.799 -4.24986 2.257 0
M  V30 4763 C 451.151 -4.40423 2.78706 0
M  V30 4764 C 448.479 -4.67701 3.54221 0
M  V30 4765 C 450.831 -4.84573 4.0666 0
M  V30 4766 C 449.495 -4.97761 4.44737 0
M  V30 4767 H 448.765 -0.7286 0.134992 0
M  V30 4768 H 451.412 -1.62534 1.01267 0
M  V30 4769 H 449.717 -3.91052 -0.241984 0
M  V30 4770 H 451.414 -4.00766 0.137109 0
M  V30 4771 H 448.004 -3.98784 1.57064 0
M  V30 4772 H 452.188 -4.28412 2.50553 0
M  V30 4773 H 447.444 -4.761 3.83587 0
M  V30 4774 H 451.618 -5.07074 4.77336 0
M  V30 4775 H 449.245 -5.30618 5.44379 0
M  V30 4776 N 450.82 -0.546701 -1.47814 0
M  V30 4777 C 451.73 0.21026 -2.33656 0
M  V30 4778 C 452.746 0.922413 -1.47538 0
M  V30 4779 O 453.922 0.893652 -1.80488 0
M  V30 4780 C 450.987 1.23348 -3.24016 0
M  V30 4781 C 450.048 0.529883 -4.26017 0
M  V30 4782 C 449.281 1.50435 -5.12059 0
M  V30 4783 O 449.504 2.73837 -5.00369 0
M  V30 4784 O 448.438 1.03459 -5.92942 0
M  V30 4785 H 452.264 -0.493605 -2.99662 0
M  V30 4786 H 449.849 -0.307427 -1.46203 0
M  V30 4787 H 451.731 1.82438 -3.79861 0
M  V30 4788 H 450.406 1.91945 -2.60651 0
M  V30 4789 H 449.313 -0.101948 -3.73961 0
M  V30 4790 H 450.646 -0.11445 -4.92067 0
M  V30 4791 N 452.299 1.55045 -0.282633 0
M  V30 4792 C 453.209 2.26491 0.61147 0
M  V30 4793 C 454.225 1.29348 1.16384 0
M  V30 4794 O 455.401 1.62298 1.19253 0
M  V30 4795 C 452.466 2.97779 1.77563 0
M  V30 4796 C 451.527 4.10418 1.25919 0
M  V30 4797 C 450.76 4.78297 2.36786 0
M  V30 4798 O 450.983 4.45426 3.56303 0
M  V30 4799 O 449.917 5.66089 2.04517 0
M  V30 4800 H 453.743 3.03683 0.0324615 0
M  V30 4801 H 451.328 1.49317 -0.0497576 0
M  V30 4802 H 453.21 3.42554 2.45427 0
M  V30 4803 H 451.885 2.23498 2.34159 0
M  V30 4804 H 450.792 3.70082 0.546797 0
M  V30 4805 H 452.125 4.86622 0.738887 0
M  V30 4806 N 453.777 0.010035 1.57597 0
M  V30 4807 C 454.707 -0.976857 2.12084 0
M  V30 4808 C 455.688 -1.35191 1.03235 0
M  V30 4809 O 456.873 -1.43389 1.3097 0
M  V30 4810 C 454.003 -2.26548 2.63236 0
M  V30 4811 C 452.957 -2.03175 3.76701 0
M  V30 4812 C 452.283 -3.38138 4.14206 0
M  V30 4813 C 453.583 -1.38625 5.03568 0
M  V30 4814 H 455.277 -0.523145 2.94794 0
M  V30 4815 H 452.823 -0.250195 1.4181 0
M  V30 4816 H 454.776 -2.95952 2.99984 0
M  V30 4817 H 453.5 -2.74051 1.77661 0
M  V30 4818 H 452.159 -1.36195 3.40362 0
M  V30 4819 H 451.807 -3.83363 3.25641 0
M  V30 4820 H 451.507 -3.23312 4.90656 0
M  V30 4821 H 453.031 -4.08841 4.53521 0
M  V30 4822 H 454.445 -1.98 5.38023 0
M  V30 4823 H 452.842 -1.34256 5.84889 0
M  V30 4824 H 453.912 -0.356722 4.83586 0
M  V30 4825 N 455.255 -1.55392 -0.262866 0
M  V30 4826 C 456.483 -1.80513 -1.01108 0
M  V30 4827 C 456.898 -0.583533 -1.79556 0
M  V30 4828 O 456.255 0.447585 -1.76926 0
M  V30 4829 C 456.306 -3.03648 -1.96164 0
M  V30 4830 O 456.027 -4.2109 -1.20893 0
M  V30 4831 C 457.528 -3.41448 -2.82715 0
M  V30 4832 H 454.748 -0.601079 -0.298236 0
M  V30 4833 H 457.292 -2.02425 -0.290582 0
M  V30 4834 H 455.447 -2.83832 -2.63663 0
M  V30 4835 H 455.861 -4.90771 -1.85051 0
M  V30 4836 H 457.335 -4.30751 -3.45192 0
M  V30 4837 H 457.812 -2.61308 -3.53008 0
M  V30 4838 H 458.418 -3.63559 -2.20693 0
M  V30 4839 N 456.733 0.527833 -1.48498 0
M  V30 4840 C 457.663 1.64136 -1.66077 0
M  V30 4841 C 458.644 1.62286 -0.509625 0
M  V30 4842 O 459.829 1.79449 -0.742413 0
M  V30 4843 C 456.959 3.02717 -1.70234 0
M  V30 4844 C 455.913 3.19426 -2.8487 0
M  V30 4845 C 455.239 4.5909 -2.74118 0
M  V30 4846 C 456.539 3.01993 -4.26142 0
M  V30 4847 H 458.233 1.4968 -2.593 0
M  V30 4848 H 455.779 0.718654 -1.24785 0
M  V30 4849 H 457.732 3.80491 -1.8112 0
M  V30 4850 H 456.456 3.18201 -0.735911 0
M  V30 4851 H 455.115 2.4407 -2.73542 0
M  V30 4852 H 454.763 4.71413 -1.7544 0
M  V30 4853 H 454.463 4.71214 -3.51042 0
M  V30 4854 H 455.987 5.3896 -2.86974 0
M  V30 4855 H 457.401 3.69558 -4.38292 0
M  V30 4856 H 455.798 3.2561 -5.04082 0
M  V30 4857 H 456.868 1.98396 -4.42456 0
M  V30 4858 N 458.211 1.37122 0.776871 0
M  V30 4859 C 459.161 1.28989 1.88005 0
M  V30 4860 C 460.145 0.178765 1.59904 0
M  V30 4861 O 461.337 0.412705 1.72121 0
M  V30 4862 C 458.466 1.09402 3.25402 0
M  V30 4863 C 457.552 2.25036 3.59471 0
M  V30 4864 N 457.943 3.50407 3.64759 0
M  V30 4865 C 456.241 2.17078 3.89607 0
M  V30 4866 C 456.942 4.26628 3.95428 0
M  V30 4867 N 455.918 3.55709 4.11062 0
M  V30 4868 H 459.72 2.2394 1.90337 0
M  V30 4869 H 457.234 1.30021 0.973052 0
M  V30 4870 H 459.231 1.01661 4.04315 0
M  V30 4871 H 457.891 0.153632 3.24336 0
M  V30 4872 H 458.902 3.8438 3.47091 0
M  V30 4873 H 455.579 1.31067 3.96393 0
M  V30 4874 H 456.969 5.35107 4.06338 0
M  V30 4875 N 459.689 -1.00246 1.21608 0
M  V30 4876 C 460.636 -2.09073 0.977613 0
M  V30 4877 C 461.606 -1.65815 -0.097297 0
M  V30 4878 O 462.791 -1.90734 0.0503445 0
M  V30 4879 C 459.931 -3.40671 0.551133 0
M  V30 4880 C 459.044 -3.97326 1.69576 0
M  V30 4881 C 458.179 -5.17043 1.2182 0
M  V30 4882 C 457.218 -5.65813 2.335 0
M  V30 4883 N 456.355 -6.76778 1.86859 0
M  V30 4884 H 461.195 -2.28806 1.90924 0
M  V30 4885 H 458.732 -1.12186 0.951452 0
M  V30 4886 H 460.69 -4.16225 0.285097 0
M  V30 4887 H 459.32 -3.20967 -0.343489 0
M  V30 4888 H 458.372 -3.18734 2.07637 0
M  V30 4889 H 459.684 -4.29511 2.53617 0
M  V30 4890 H 458.838 -5.99852 0.908975 0
M  V30 4891 H 457.577 -4.86458 0.347869 0
M  V30 4892 H 456.582 -4.81599 2.65222 0
M  V30 4893 H 457.807 -5.98427 3.21033 0
M  V30 4894 H 455.753 -6.47994 1.02174 0
M  V30 4895 H 455.67 -7.08231 2.64471 0
M  V30 4896 H 456.938 -7.63116 1.58978 0
M  V30 4897 N 461.167 -1.02423 -1.1978 0
M  V30 4898 C 462.578 -0.748389 -1.71044 0
M  V30 4899 C 462.929 0.732398 -1.82017 0
M  V30 4900 O 462.054 1.57116 -1.48807 0
M  V30 4901 C 462.649 -1.35187 -3.1066 0
M  V30 4902 C 461.208 -1.12472 -3.59203 0
M  V30 4903 C 460.355 -1.45283 -2.36195 0
M  V30 4904 H 463.306 -1.19275 -1.04686 0
M  V30 4905 H 463.327 -0.746408 -3.73107 0
M  V30 4906 H 462.839 -2.4296 -3.02642 0
M  V30 4907 H 460.94 -0.0649983 -3.72543 0
M  V30 4908 H 461.053 -1.81016 -4.43588 0
M  V30 4909 H 459.417 -0.872034 -2.39307 0
M  V30 4910 H 460.2 -2.54129 -2.30811 0
M  V30 4911 N 462.645 1.35699 -0.801477 0
M  V30 4912 C 463.873 2.03157 -0.391768 0
M  V30 4913 C 464.288 1.60412 0.995668 0
M  V30 4914 O 463.645 0.799228 1.64069 0
M  V30 4915 C 463.696 3.58566 -0.459671 0
M  V30 4916 O 463.417 3.99756 -1.7924 0
M  V30 4917 C 464.918 4.4328 -0.0421205 0
M  V30 4918 H 462.138 0.651688 -0.159825 0
M  V30 4919 H 464.682 1.73426 -1.08368 0
M  V30 4920 H 462.837 3.86963 0.183939 0
M  V30 4921 H 463.251 4.94387 -1.75162 0
M  V30 4922 H 464.725 5.51821 -0.140754 0
M  V30 4923 H 465.202 4.27383 1.01196 0
M  V30 4924 H 465.808 4.20168 -0.658687 0
M  V30 4925 N 464.123 0.554532 1.47522 0
M  V30 4926 C 465.055 -0.232106 2.28022 0
M  V30 4927 C 466.068 -0.881865 1.36847 0
M  V30 4928 O 467.257 -0.756168 1.61692 0
M  V30 4929 C 464.357 -1.34604 3.11022 0
M  V30 4930 C 463.53 -0.793582 4.30141 0
M  V30 4931 C 462.589 -1.79168 4.94758 0
M  V30 4932 O 461.615 -1.33886 5.5323 0
M  V30 4933 N 462.817 -3.12495 4.89211 0
M  V30 4934 H 465.582 0.458407 2.96173 0
M  V30 4935 H 463.143 0.390433 1.57122 0
M  V30 4936 H 465.135 -2.01243 3.51118 0
M  V30 4937 H 463.705 -1.93983 2.45131 0
M  V30 4938 H 462.925 0.0495025 3.94169 0
M  V30 4939 H 464.213 -0.403776 5.07195 0
M  V30 4940 H 463.611 -3.51931 4.42901 0
M  V30 4941 H 462.168 -3.74698 5.33333 0
M  V30 4942 N 465.601 -1.54893 0.290851 0
M  V30 4943 C 466.847 -2.0023 -0.321867 0
M  V30 4944 C 467.18 -1.179 -1.54316 0
M  V30 4945 O 466.455 -0.25293 -1.92848 0
M  V30 4946 C 466.738 -3.53456 -0.688515 0
M  V30 4947 C 466.591 -4.46532 0.541209 0
M  V30 4948 C 467.91 -4.13057 -1.51895 0
M  V30 4949 H 465.029 -0.727891 -0.115515 0
M  V30 4950 H 467.671 -1.85722 0.400931 0
M  V30 4951 H 465.821 -3.6595 -1.30433 0
M  V30 4952 H 467.493 -4.4596 1.17973 0
M  V30 4953 H 465.736 -4.17545 1.17636 0
M  V30 4954 H 466.407 -5.51475 0.240675 0
M  V30 4955 H 468.883 -4.03937 -0.99872 0
M  V30 4956 H 467.759 -5.20448 -1.74429 0
M  V30 4957 H 468.02 -3.64284 -2.50498 0
M  V30 4958 N 467.08 -0.0183926 -1.57589 0
M  V30 4959 C 468.013 1.00148 -2.0505 0
M  V30 4960 C 468.991 1.32387 -0.944058 0
M  V30 4961 O 470.175 1.44237 -1.21358 0
M  V30 4962 C 467.302 2.32435 -2.46357 0
M  V30 4963 C 466.348 2.15731 -3.67916 0
M  V30 4964 S 467.181 1.46613 -5.15039 0
M  V30 4965 C 468.337 2.80293 -5.59631 0
M  V30 4966 H 468.57 0.597429 -2.91235 0
M  V30 4967 H 466.103 0.193002 -1.53189 0
M  V30 4968 H 468.061 3.0849 -2.70822 0
M  V30 4969 H 466.722 2.69975 -1.60537 0
M  V30 4970 H 465.915 3.13502 -3.9463 0
M  V30 4971 H 465.517 1.4782 -3.43548 0
M  V30 4972 H 467.809 3.76557 -5.63215 0
M  V30 4973 H 468.752 2.58256 -6.59325 0
M  V30 4974 H 469.16 2.85047 -4.87246 0
M  V30 4975 N 468.558 1.5553 0.254621 0
M  V30 4976 C 469.969 1.67518 0.824286 0
M  V30 4977 C 470.32 0.614429 1.86331 0
M  V30 4978 O 469.445 -0.240736 2.15057 0
M  V30 4979 C 470.04 3.03692 1.50189 0
M  V30 4980 C 468.599 3.17646 2.01935 0
M  V30 4981 C 467.746 2.63373 0.867746 0
M  V30 4982 H 470.697 1.58671 0.0305843 0
M  V30 4983 H 470.718 2.97706 2.36962 0
M  V30 4984 H 470.23 3.80874 0.745431 0
M  V30 4985 H 468.331 2.45273 2.80485 0
M  V30 4986 H 468.444 4.24455 2.22204 0
M  V30 4987 H 466.808 2.20999 1.26616 0
M  V30 4988 H 467.591 3.43074 0.124498 0
M  V30 4989 N 470.036 -0.519951 1.48776 0
M  V30 4990 C 471.276 -1.2856 1.58908 0
M  V30 4991 C 471.64 -1.90212 0.261418 0
M  V30 4992 O 472.841 -2.67746 0.237791 0
M  V30 4993 C 471.112 -2.33836 2.70288 0
M  V30 4994 S 472.671 -3.19992 3.0025 0
M  V30 4995 H 469.489 -0.43717 0.560717 0
M  V30 4996 H 472.091 -0.591205 1.86346 0
M  V30 4997 H 470.795 -1.87041 3.653 0
M  V30 4998 H 470.326 -3.07969 2.44783 0
M  V30 4999 H 472.341 -4.34122 2.40317 0
M  V30 5000 N 471.514 -1.37532 -0.769588 0
M  V30 5001 C 472.93 -1.18379 -1.07045 0
M  V30 5002 C 473.13 -0.0214312 -2.01489 0
M  V30 5003 O 472.186 0.637809 -2.44312 0
M  V30 5004 C 473.499 -2.50338 -1.66588 0
M  V30 5005 C 475.047 -2.56879 -1.78835 0
M  V30 5006 C 475.522 -3.88974 -2.41792 0
M  V30 5007 N 477.013 -3.90428 -2.4924 0
M  V30 5008 C 477.748 -4.89388 -2.98809 0
M  V30 5009 N 477.244 -5.98745 -3.48535 0
M  V30 5010 N 479.037 -4.76791 -2.97703 0
M  V30 5011 H 471.188 -2.11921 -0.142541 0
M  V30 5012 H 473.451 -0.939608 -0.125863 0
M  V30 5013 H 473.157 -3.35767 -1.0466 0
M  V30 5014 H 473.031 -2.67583 -2.65856 0
M  V30 5015 H 475.418 -1.71856 -2.39895 0
M  V30 5016 H 475.499 -2.43516 -0.783166 0
M  V30 5017 H 475.143 -4.74412 -1.81371 0
M  V30 5018 H 475.073 -3.99641 -3.4292 0
M  V30 5019 H 477.564 -3.11433 -2.14052 0
M  V30 5020 H 477.877 -6.70205 -3.84767 0
M  V30 5021 H 476.222 -6.02387 -3.46634 0
M  V30 5022 H 479.413 -3.90478 -2.58157 0
M  V30 5023 H 479.586 -5.54069 -3.36024 0
M  V30 5024 N 472.992 0.995999 -1.22138 0
M  V30 5025 C 473.955 2.06711 -0.990109 0
M  V30 5026 C 474.955 1.60744 0.0422978 0
M  V30 5027 O 476.145 1.73095 -0.195895 0
M  V30 5028 C 473.277 3.37288 -0.49491 0
M  V30 5029 H 474.47 2.28661 -1.94047 0
M  V30 5030 H 472.023 1.16711 -1.03963 0
M  V30 5031 H 472.758 3.21022 0.459948 0
M  V30 5032 H 472.543 3.71986 -1.23971 0
M  V30 5033 H 474.033 4.16103 -0.353253 0
M  V30 5034 N 474.47 1.03057 1.19235 0
M  V30 5035 C 475.881 0.757449 1.70645 0
M  V30 5036 C 476.232 -0.722735 1.82403 0
M  V30 5037 O 475.357 -1.56325 1.49638 0
M  V30 5038 C 475.952 1.36833 3.09939 0
M  V30 5039 C 474.511 1.14375 3.58602 0
M  V30 5040 C 473.658 1.46533 2.35422 0
M  V30 5041 H 476.609 1.19828 1.04052 0
M  V30 5042 H 476.63 0.766184 3.72706 0
M  V30 5043 H 476.142 2.44562 3.01349 0
M  V30 5044 H 474.243 0.0847542 3.72504 0
M  V30 5045 H 474.356 1.83366 4.42622 0
M  V30 5046 H 472.72 0.884712 2.38841 0
M  V30 5047 H 473.503 2.55349 2.2946 0
M  V30 5048 N 475.948 -1.35272 0.808662 0
M  V30 5049 C 476.895 -2.29764 0.218482 0
M  V30 5050 C 477.865 -1.52911 -0.648652 0
M  V30 5051 O 479.05 -1.81341 -0.593297 0
M  V30 5052 C 476.19 -3.39388 -0.625282 0
M  V30 5053 C 475.303 -4.31202 0.262516 0
M  V30 5054 C 474.438 -5.27919 -0.589451 0
M  V30 5055 C 473.477 -6.11371 0.298617 0
M  V30 5056 N 472.614 -7.0022 -0.513443 0
M  V30 5057 H 477.454 -2.79645 1.02968 0
M  V30 5058 H 474.991 -1.37629 0.519303 0
M  V30 5059 H 476.949 -4.01615 -1.12966 0
M  V30 5060 H 475.579 -2.90777 -1.40173 0
M  V30 5061 H 474.631 -3.69962 0.885013 0
M  V30 5062 H 475.943 -4.89748 0.945971 0
M  V30 5063 H 475.097 -5.95529 -1.15888 0
M  V30 5064 H 473.836 -4.69875 -1.30647 0
M  V30 5065 H 472.841 -5.42707 0.880301 0
M  V30 5066 H 474.066 -6.71494 1.01352 0
M  V30 5067 H 472.012 -6.44662 -1.21439 0
M  V30 5068 H 471.929 -7.55917 0.111922 0
M  V30 5069 H 473.197 -7.72175 -1.06608 0
M  V30 5070 N 477.426 -0.562348 -1.47226 0
M  V30 5071 C 478.672 -0.0402761 -2.0276 0
M  V30 5072 C 479.005 1.30823 -1.43523 0
M  V30 5073 O 478.28 1.85249 -0.592705 0
M  V30 5074 C 478.563 0.047311 -3.60069 0
M  V30 5075 C 478.416 -1.32865 -4.29729 0
M  V30 5076 C 479.735 0.758182 -4.3352 0
M  V30 5077 H 476.854 -0.0161105 -0.736824 0
M  V30 5078 H 479.496 -0.725628 -1.75598 0
M  V30 5079 H 477.646 0.630986 -3.83342 0
M  V30 5080 H 479.318 -1.95593 -4.17781 0
M  V30 5081 H 477.561 -1.90195 -3.89882 0
M  V30 5082 H 478.232 -1.22004 -5.38349 0
M  V30 5083 H 480.708 0.262546 -4.15271 0
M  V30 5084 H 479.584 0.78844 -5.43208 0
M  V30 5085 H 479.845 1.81537 -4.03109 0
M  V30 5086 N 478.904 1.54736 -0.299062 0
M  V30 5087 C 480.152 1.99706 0.31017 0
M  V30 5088 C 480.473 1.18896 1.54559 0
M  V30 5089 O 479.743 0.284445 1.93824 0
M  V30 5090 H 478.323 0.737686 0.117596 0
M  V30 5091 H 480.985 1.9054 -0.409943 0
M  V30 5092 H 480.081 3.06596 0.58355 0
M  V30 5093 N 480.382 0.0267497 1.57577 0
M  V30 5094 C 481.798 -0.32962 1.56159 0
M  V30 5095 C 481.998 -1.73059 1.03213 0
M  V30 5096 O 481.054 -2.43233 0.677804 0
M  V30 5097 C 482.367 -0.18039 3.00158 0
M  V30 5098 C 483.915 -0.253334 3.11973 0
M  V30 5099 C 484.39 -0.132921 4.57807 0
M  V30 5100 N 485.881 -0.189979 4.6281 0
M  V30 5101 C 486.616 -0.120554 5.73273 0
M  V30 5102 N 486.112 -0.000180315 6.928 0
M  V30 5103 N 487.905 -0.174369 5.61829 0
M  V30 5104 H 480.056 0.942896 1.90324 0
M  V30 5105 H 482.319 0.3639 0.875375 0
M  V30 5106 H 482.025 0.784576 3.42837 0
M  V30 5107 H 481.899 -0.951565 3.65 0
M  V30 5108 H 484.286 -1.20876 2.69208 0
M  V30 5109 H 484.367 0.548177 2.49857 0
M  V30 5110 H 484.011 0.819073 5.01252 0
M  V30 5111 H 483.941 -0.953264 5.179 0
M  V30 5112 H 486.432 -0.283257 3.76837 0
M  V30 5113 H 486.745 0.0461666 7.72786 0
M  V30 5114 H 485.09 0.034569 6.94991 0
M  V30 5115 H 488.281 -0.266794 4.67339 0
M  V30 5116 H 488.454 -0.116802 6.47895 0
M  V30 5117 N 481.861 -1.55662 -0.24637 0
M  V30 5118 C 482.791 -1.93377 -1.30873 0
M  V30 5119 C 483.772 -0.798773 -1.50179 0
M  V30 5120 O 484.957 -1.0591 -1.62778 0
M  V30 5121 C 482.087 -2.22893 -2.66338 0
M  V30 5122 C 481.041 -3.38649 -2.61727 0
M  V30 5123 C 480.367 -3.53708 -4.00992 0
M  V30 5124 C 481.667 -4.74323 -2.18666 0
M  V30 5125 H 483.361 -2.82363 -0.995552 0
M  V30 5126 H 480.907 -1.35854 -0.477464 0
M  V30 5127 H 482.86 -2.47866 -3.40794 0
M  V30 5128 H 481.584 -1.30733 -2.99293 0
M  V30 5129 H 480.243 -3.13685 -1.89729 0
M  V30 5130 H 479.891 -2.58967 -4.31214 0
M  V30 5131 H 479.591 -4.31551 -3.98795 0
M  V30 5132 H 481.115 -3.81003 -4.77147 0
M  V30 5133 H 482.529 -4.98665 -2.82854 0
M  V30 5134 H 480.926 -5.55273 -2.27579 0
M  V30 5135 H 481.996 -4.71349 -1.13834 0
M  V30 5136 N 483.339 0.512053 -1.4905 0
M  V30 5137 C 484.588 1.26343 -1.57227 0
M  V30 5138 C 484.901 1.93876 -0.259155 0
M  V30 5139 O 486.107 2.70612 -0.219358 0
M  V30 5140 C 484.563 2.29343 -2.77362 0
M  V30 5141 C 484.171 1.67799 -4.15388 0
M  V30 5142 C 485.915 3.05378 -2.94864 0
M  V30 5143 C 483.822 2.68845 -5.2676 0
M  V30 5144 H 482.752 0.475231 -0.585382 0
M  V30 5145 H 485.403 0.53862 -1.75417 0
M  V30 5146 H 483.785 3.04938 -2.52643 0
M  V30 5147 H 484.959 0.982715 -4.50199 0
M  V30 5148 H 483.274 1.04194 -4.03153 0
M  V30 5149 H 485.871 3.80921 -3.75238 0
M  V30 5150 H 486.214 3.62327 -2.05 0
M  V30 5151 H 486.747 2.36898 -3.19569 0
M  V30 5152 H 483.486 2.16692 -6.18647 0
M  V30 5153 H 483.006 3.36647 -4.96416 0
M  V30 5154 H 484.685 3.31487 -5.5563 0
M  V30 5155 N 484.817 1.37938 0.762283 0
M  V30 5156 C 486.047 1.36685 1.54922 0
M  V30 5157 C 486.455 -0.0474099 1.89141 0
M  V30 5158 O 485.798 -1.02213 1.52638 0
M  V30 5159 C 485.86 2.14963 2.88152 0
M  V30 5160 C 485.524 3.6385 2.76518 0
M  V30 5161 C 486.521 4.57531 2.46904 0
M  V30 5162 C 484.206 4.07095 2.94243 0
M  V30 5163 C 486.2 5.92436 2.35156 0
M  V30 5164 C 483.887 5.42083 2.82116 0
M  V30 5165 C 484.885 6.34567 2.52614 0
M  V30 5166 O 484.573 7.67073 2.40529 0
M  V30 5167 H 484.305 0.469586 0.486276 0
M  V30 5168 H 486.859 1.82012 0.951876 0
M  V30 5169 H 485.089 1.6434 3.50042 0
M  V30 5170 H 486.778 2.06224 3.49609 0
M  V30 5171 H 487.544 4.25428 2.32886 0
M  V30 5172 H 483.423 3.35462 3.16206 0
M  V30 5173 H 486.967 6.64591 2.12049 0
M  V30 5174 H 482.864 5.73785 2.95704 0
M  V30 5175 H 483.632 7.77499 2.55807 0
M  V30 5176 N 486.295 -0.989507 1.22664 0
M  V30 5177 C 487.523 -1.76496 1.07967 0
M  V30 5178 C 487.938 -1.85148 -0.369543 0
M  V30 5179 O 487.295 -1.32408 -1.25596 0
M  V30 5180 C 487.346 -3.19642 1.68853 0
M  V30 5181 O 487.067 -3.11453 3.08105 0
M  V30 5182 C 488.568 -4.13621 1.59475 0
M  V30 5183 H 485.788 -0.55418 0.378319 0
M  V30 5184 H 488.332 -1.24378 1.62328 0
M  V30 5185 H 486.487 -3.68816 1.18547 0
M  V30 5186 H 486.901 -4.01499 3.37489 0
M  V30 5187 H 488.375 -5.11801 2.06795 0
M  V30 5188 H 488.852 -4.35718 0.55191 0
M  V30 5189 H 489.458 -3.70346 2.09103 0
M  V30 5190 N 487.773 -1.03688 -1.18687 0
M  V30 5191 C 488.736 -0.629115 -2.20397 0
M  V30 5192 C 489.736 0.311495 -1.57754 0
M  V30 5193 O 490.926 0.0974107 -1.73927 0
M  V30 5194 C 488.058 0.0782231 -3.4081 0
M  V30 5195 H 489.251 -1.52915 -2.57987 0
M  V30 5196 H 486.804 -0.828988 -1.32505 0
M  V30 5197 H 487.539 0.992233 -3.08748 0
M  V30 5198 H 487.324 -0.597776 -3.87517 0
M  V30 5199 H 488.814 0.350156 -4.16129 0
M  V30 5200 N 489.251 1.34841 -0.815825 0
M  V30 5201 C 490.499 1.98107 -0.399744 0
M  V30 5202 C 490.82 1.65019 1.03894 0
M  V30 5203 O 490.09 0.937311 1.72021 0
M  V30 5204 H 488.67 0.732827 -0.144823 0
M  V30 5205 H 491.332 1.64599 -1.0437 0
M  V30 5206 H 490.428 3.07856 -0.512965 0
M  V30 5207 N 490.729 0.570148 1.46925 0
M  V30 5208 C 491.977 0.0508523 2.02036 0
M  V30 5209 C 492.298 -1.30885 1.44548 0
M  V30 5210 O 491.568 -1.85647 0.625453 0
M  V30 5211 H 490.148 0.0158088 0.746833 0
M  V30 5212 H 492.81 0.743086 1.80178 0
M  V30 5213 H 491.906 -0.027575 3.12088 0
M  V30 5214 N 492.207 -1.54576 0.307264 0
M  V30 5215 C 493.437 -2.04378 -0.302158 0
M  V30 5216 C 493.845 -1.18381 -1.47589 0
M  V30 5217 O 493.188 -0.20352 -1.82569 0
M  V30 5218 C 493.25 -3.50133 -0.815305 0
M  V30 5219 C 492.914 -4.56401 0.233977 0
M  V30 5220 C 493.911 -5.08884 1.06456 0
M  V30 5221 C 491.596 -5.0088 0.377478 0
M  V30 5222 C 493.59 -6.04394 2.02452 0
M  V30 5223 C 491.277 -5.96208 1.34088 0
M  V30 5224 C 492.275 -6.47849 2.16288 0
M  V30 5225 O 491.963 -7.41308 3.10994 0
M  V30 5226 H 491.695 -0.672502 -0.0686839 0
M  V30 5227 H 494.249 -2.00484 0.446682 0
M  V30 5228 H 492.479 -3.51371 -1.61478 0
M  V30 5229 H 494.168 -3.83098 -1.34129 0
M  V30 5230 H 494.934 -4.75311 0.964596 0
M  V30 5231 H 490.813 -4.60309 -0.252405 0
M  V30 5232 H 494.357 -6.44626 2.66652 0
M  V30 5233 H 490.254 -6.29198 1.44154 0
M  V30 5234 H 491.022 -7.5913 3.06045 0
M  V30 5235 N 493.685 -0.035106 -1.57561 0
M  V30 5236 C 494.932 0.642229 -1.92046 0
M  V30 5237 C 495.26 1.7179 -0.91206 0
M  V30 5238 O 494.515 1.95544 0.0781153 0
M  V30 5239 C 494.814 1.29149 -3.3325 0
M  V30 5240 C 494.48 0.345604 -4.49574 0
M  V30 5241 C 493.142 0.0852775 -4.81124 0
M  V30 5242 C 495.494 -0.303569 -5.20315 0
M  V30 5243 C 492.822 -0.831927 -5.80772 0
M  V30 5244 C 495.174 -1.20886 -6.20942 0
M  V30 5245 C 493.838 -1.47802 -6.50931 0
M  V30 5246 H 493.108 0.235008 -0.702746 0
M  V30 5247 H 495.755 -0.0981529 -1.91248 0
M  V30 5248 H 494.06 2.10676 -3.30337 0
M  V30 5249 H 495.757 1.82223 -3.57205 0
M  V30 5250 H 492.347 0.558683 -4.24943 0
M  V30 5251 H 496.531 -0.115515 -4.96166 0
M  V30 5252 H 491.787 -1.0481 -6.02349 0
M  V30 5253 H 495.961 -1.71804 -6.74875 0
M  V30 5254 H 493.588 -2.19039 -7.2796 0
M  V30 5255 N 495.163 1.55791 0.238111 0
M  V30 5256 C 496.579 1.48411 0.587045 0
M  V30 5257 C 496.779 0.72702 1.87927 0
M  V30 5258 O 495.835 0.259942 2.51158 0
M  V30 5259 C 497.148 2.92873 0.681623 0
M  V30 5260 C 498.696 3.03295 0.773363 0
M  V30 5261 C 499.171 4.49082 0.899428 0
M  V30 5262 N 500.662 4.53056 0.964075 0
M  V30 5263 C 501.397 5.63117 1.08104 0
M  V30 5264 N 500.893 6.82969 1.16299 0
M  V30 5265 N 502.686 5.50933 1.11488 0
M  V30 5266 H 494.837 2.0345 -0.610076 0
M  V30 5267 H 497.1 0.924034 -0.211813 0
M  V30 5268 H 496.806 3.51142 -0.19802 0
M  V30 5269 H 496.68 3.43851 1.55069 0
M  V30 5270 H 499.067 2.45101 1.64346 0
M  V30 5271 H 499.148 2.55513 -0.121034 0
M  V30 5272 H 498.792 5.07889 0.0338586 0
M  V30 5273 H 498.722 4.94553 1.809 0
M  V30 5274 H 501.213 3.66737 0.91173 0
M  V30 5275 H 501.526 7.62598 1.25155 0
M  V30 5276 H 499.871 6.85712 1.13241 0
M  V30 5277 H 503.062 4.56231 1.0474 0
M  V30 5278 H 503.235 6.36743 1.20259 0
M  V30 5279 N 496.642 -0.504142 1.49319 0
M  V30 5280 C 497.574 -1.62265 1.61872 0
M  V30 5281 C 498.587 -1.54881 0.501573 0
M  V30 5282 O 499.776 -1.6087 0.773497 0
M  V30 5283 C 496.876 -3.01042 1.55651 0
M  V30 5284 C 496.049 -3.33642 2.82845 0
M  V30 5285 C 495.108 -4.51816 2.69719 0
M  V30 5286 O 494.134 -4.53755 3.4365 0
M  V30 5287 N 495.336 -5.51543 1.81055 0
M  V30 5288 H 498.101 -1.51924 2.58339 0
M  V30 5289 H 495.662 -0.691954 1.46368 0
M  V30 5290 H 497.654 -3.78013 1.44528 0
M  V30 5291 H 496.224 -3.05323 0.670546 0
M  V30 5292 H 495.444 -2.45598 3.08343 0
M  V30 5293 H 496.732 -3.5222 3.67177 0
M  V30 5294 H 496.13 -5.52774 1.20241 0
M  V30 5295 H 494.687 -6.27629 1.75856 0
M  V30 5296 N 498.12 -1.38341 -0.754957 0
M  V30 5297 C 499.345 -1.37882 -1.5493 0
M  V30 5298 C 499.77 0.0296385 -1.88077 0
M  V30 5299 O 499.128 1.01133 -1.50472 0
M  V30 5300 C 499.176 -2.23996 -2.82592 0
M  V30 5301 O 498.28 -1.65612 -3.77686 0
M  V30 5302 H 497.621 -0.470384 -0.468652 0
M  V30 5303 H 500.151 -1.82084 -0.933082 0
M  V30 5304 H 500.161 -2.37806 -3.3153 0
M  V30 5305 H 498.836 -3.26365 -2.57796 0
M  V30 5306 H 497.413 -1.60936 -3.36384 0
M  V30 5307 N 499.598 0.982988 -1.23187 0
M  V30 5308 C 500.528 2.09301 -1.03515 0
M  V30 5309 C 501.509 1.70035 0.0471136 0
M  V30 5310 O 502.694 1.93847 -0.117029 0
M  V30 5311 C 499.824 3.4167 -0.622791 0
M  V30 5312 C 498.778 3.94828 -1.65211 0
M  V30 5313 C 498.104 5.23362 -1.09527 0
M  V30 5314 C 499.404 4.2439 -3.04451 0
M  V30 5315 H 501.098 2.26016 -1.96359 0
M  V30 5316 H 498.644 1.08611 -0.945501 0
M  V30 5317 H 500.597 4.18746 -0.472233 0
M  V30 5318 H 499.321 3.24811 0.341329 0
M  V30 5319 H 497.98 3.19895 -1.79061 0
M  V30 5320 H 497.628 5.02852 -0.122211 0
M  V30 5321 H 497.328 5.59895 -1.783 0
M  V30 5322 H 498.852 6.03062 -0.956511 0
M  V30 5323 H 500.266 4.92225 -2.93917 0
M  V30 5324 H 498.663 4.72118 -3.70438 0
M  V30 5325 H 499.733 3.31765 -3.53638 0
M  V30 5326 N 501.076 1.04316 1.18135 0
M  V30 5327 C 502.301 0.768047 1.92655 0
M  V30 5328 C 502.726 -0.66904 1.758 0
M  V30 5329 O 502.084 -1.46372 1.06981 0
M  V30 5330 C 502.132 1.14239 3.42026 0
M  V30 5331 O 501.236 0.269333 4.1152 0
M  V30 5332 H 500.577 0.282436 0.600937 0
M  V30 5333 H 503.107 1.39367 1.49793 0
M  V30 5334 H 503.117 1.10538 3.92741 0
M  V30 5335 H 501.792 2.18928 3.53615 0
M  V30 5336 H 500.369 0.366175 3.71098 0
M  V30 5337 N 502.554 -1.34406 0.822964 0
M  V30 5338 C 503.784 -2.02214 0.423424 0
M  V30 5339 C 504.192 -1.62124 -0.975322 0
M  V30 5340 O 503.535 -0.822452 -1.6426 0
M  V30 5341 C 503.597 -3.56721 0.446107 0
M  V30 5342 C 503.261 -4.20136 1.79819 0
M  V30 5343 C 504.258 -4.4065 2.75904 0
M  V30 5344 C 501.943 -4.56906 2.08669 0
M  V30 5345 C 503.937 -4.9706 3.99012 0
M  V30 5346 C 501.624 -5.13026 3.32036 0
M  V30 5347 C 502.622 -5.33047 4.27024 0
M  V30 5348 O 502.31 -5.87979 5.48211 0
M  V30 5349 H 502.042 -0.654748 0.168169 0
M  V30 5350 H 504.596 -1.72659 1.11257 0
M  V30 5351 H 502.826 -3.85537 -0.299734 0
M  V30 5352 H 504.515 -4.05845 0.0666114 0
M  V30 5353 H 505.281 -4.12607 2.54912 0
M  V30 5354 H 501.16 -4.40626 1.35535 0
M  V30 5355 H 504.704 -5.12603 4.73164 0
M  V30 5356 H 500.601 -5.40498 3.52891 0
M  V30 5357 H 501.369 -6.06413 5.49732 0
M  V30 5358 N 504.032 -0.577932 -1.46621 0
M  V30 5359 C 504.962 0.145917 -2.33044 0
M  V30 5360 C 505.943 0.888412 -1.45056 0
M  V30 5361 O 507.128 0.864812 -1.73881 0
M  V30 5362 C 504.258 1.16322 -3.27241 0
M  V30 5363 C 503.212 0.535868 -4.24632 0
M  V30 5364 C 502.538 1.65929 -5.08303 0
M  V30 5365 C 503.838 -0.523861 -5.19666 0
M  V30 5366 H 505.532 -0.575636 -2.93814 0
M  V30 5367 H 503.078 -0.278272 -1.41286 0
M  V30 5368 H 505.031 1.67793 -3.86553 0
M  V30 5369 H 503.755 1.91498 -2.64567 0
M  V30 5370 H 502.414 0.0422759 -3.66576 0
M  V30 5371 H 502.062 2.40061 -4.42018 0
M  V30 5372 H 501.762 1.2452 -5.74255 0
M  V30 5373 H 503.286 2.17686 -5.70478 0
M  V30 5374 H 504.7 -0.0944059 -5.73222 0
M  V30 5375 H 503.097 -0.858 -5.93935 0
M  V30 5376 H 504.167 -1.41197 -4.63887 0
M  V30 5377 N 505.51 1.54411 -0.315457 0
M  V30 5378 C 506.42 2.27737 0.56329 0
M  V30 5379 C 507.436 1.31787 1.13614 0
M  V30 5380 O 508.612 1.64791 1.15784 0
M  V30 5381 C 505.677 3.01478 1.71207 0
M  V30 5382 C 504.738 4.12997 1.17185 0
M  V30 5383 C 503.971 4.83212 2.26588 0
M  V30 5384 O 504.194 4.52884 3.46775 0
M  V30 5385 O 503.128 5.70299 1.92463 0
M  V30 5386 H 506.954 3.03683 -0.0319614 0
M  V30 5387 H 504.539 1.49178 -0.0814188 0
M  V30 5388 H 506.421 3.47683 2.38106 0
M  V30 5389 H 505.096 2.28414 2.29366 0
M  V30 5390 H 504.003 3.71159 0.468174 0
M  V30 5391 H 505.336 4.8808 0.635501 0
M  V30 5392 N 506.988 0.0434614 1.5754 0
M  V30 5393 C 507.951 -0.918696 2.09982 0
M  V30 5394 C 508.951 -1.24488 1.01781 0
M  V30 5395 O 510.141 -1.18284 1.27885 0
M  V30 5396 C 507.273 -2.23093 2.57764 0
M  V30 5397 H 508.466 -0.464229 2.96285 0
M  V30 5398 H 506.019 -0.204818 1.54952 0
M  V30 5399 H 506.754 -2.73137 1.74832 0
M  V30 5400 H 506.539 -2.00724 3.36827 0
M  V30 5401 H 508.029 -2.92028 2.98512 0
M  V30 5402 N 508.466 -1.55915 -0.229846 0
M  V30 5403 C 509.696 -1.82352 -0.971152 0
M  V30 5404 C 510.104 -0.619231 -1.7878 0
M  V30 5405 O 509.447 0.421597 -1.78797 0
M  V30 5406 C 509.509 -3.02399 -1.9441 0
M  V30 5407 C 509.173 -4.37739 -1.31277 0
M  V30 5408 C 510.17 -5.15074 -0.706757 0
M  V30 5409 C 507.855 -4.84454 -1.32702 0
M  V30 5410 C 509.849 -6.37281 -0.123413 0
M  V30 5411 C 507.536 -6.06605 -0.739831 0
M  V30 5412 C 508.534 -6.82858 -0.139071 0
M  V30 5413 O 508.222 -8.027 0.439007 0
M  V30 5414 H 507.954 -0.61035 -0.290601 0
M  V30 5415 H 510.508 -2.03839 -0.252746 0
M  V30 5416 H 508.738 -2.76709 -2.70128 0
M  V30 5417 H 510.427 -3.15779 -2.55026 0
M  V30 5418 H 511.193 -4.80093 -0.688131 0
M  V30 5419 H 507.072 -4.25081 -1.78402 0
M  V30 5420 H 510.616 -6.96741 0.346124 0
M  V30 5421 H 506.513 -6.4106 -0.755841 0
M  V30 5422 H 507.281 -8.17824 0.332521 0
M  V30 5423 N 509.944 0.496216 -1.49584 0
M  V30 5424 C 510.892 1.61805 -1.67098 0
M  V30 5425 C 511.886 1.60667 -0.536877 0
M  V30 5426 O 513.092 1.65118 -0.716654 0
M  V30 5427 H 509.467 0.53646 -0.526986 0
M  V30 5428 H 511.438 1.44187 -2.61252 0
M  V30 5429 C 510.187 2.99912 -1.75921 0
M  V30 5430 H 509.51 3.01496 -2.62565 0
M  V30 5431 H 510.95 3.77931 -1.92209 0
M  V30 5432 C 509.409 3.33092 -0.505088 0
M  V30 5433 O 509.939 4.00019 0.367085 0
M  V30 5434 N 508.145 2.88278 -0.366599 0
M  V30 5435 H 507.692 2.33989 -1.07735 0
M  V30 5436 H 507.65 3.10846 0.47142 0
M  V30 5437 N 511.423 1.38739 0.74761 0
M  V30 5438 C 512.834 1.31507 1.32524 0
M  V30 5439 C 513.185 -0.0263963 1.96182 0
M  V30 5440 O 512.31 -0.92849 1.95469 0
M  V30 5441 C 512.905 2.38162 2.40966 0
M  V30 5442 C 511.464 2.34489 2.94434 0
M  V30 5443 C 510.611 2.20712 1.67873 0
M  V30 5444 H 513.562 1.4901 0.546043 0
M  V30 5445 H 513.583 2.04222 3.21051 0
M  V30 5446 H 513.095 3.35783 1.94605 0
M  V30 5447 H 511.196 1.40467 3.45108 0
M  V30 5448 H 511.309 3.28861 3.48407 0
M  V30 5449 H 509.673 1.67667 1.91729 0
M  V30 5450 H 510.456 3.20285 1.23582 0
M  V30 5451 N 512.901 -0.976442 1.23707 0
M  V30 5452 C 514.126 -1.75875 1.09922 0
M  V30 5453 C 514.551 -1.84911 -0.34489 0
M  V30 5454 O 513.909 -1.31363 -1.24954 0
M  V30 5455 C 513.957 -3.16179 1.73388 0
M  V30 5456 O 513.061 -4.00124 0.99871 0
M  V30 5457 H 512.402 -0.540954 0.385052 0
M  V30 5458 H 514.932 -1.22546 1.6384 0
M  V30 5459 H 514.942 -3.66741 1.78788 0
M  V30 5460 H 513.617 -3.08917 2.78466 0
M  V30 5461 H 512.194 -3.58624 1.02193 0
M  V30 5462 N 514.379 -1.04941 -1.1758 0
M  V30 5463 C 515.656 -0.671918 -1.83697 0
M  V30 5464 C 516.036 0.847929 -1.93322 0
M  V30 5465 O 515.384 1.75287 -1.46583 0
M  V30 5466 C 515.594 -1.35797 -3.21497 0
M  V30 5467 C 516.942 -1.4944 -3.97433 0
M  V30 5468 O 517.966 -1.31678 -3.30967 0
M  V30 5469 O 516.825 -1.78463 -5.1654 0
M  V30 5470 H 513.919 -0.236212 -0.792548 0
M  V30 5471 H 516.465 -1.14884 -1.24899 0
M  V30 5472 H 515.237 -2.39498 -3.09446 0
M  V30 5473 H 514.86 -0.870236 -3.8796 0
M  V30 5474 N 515.857 1.33968 -0.830081 0
M  V30 5475 C 517.105 1.97672 -0.420734 0
M  V30 5476 C 517.426 1.66111 1.02138 0
M  V30 5477 O 516.696 0.955503 1.71017 0
M  V30 5478 H 515.276 0.73125 -0.152587 0
M  V30 5479 H 517.938 1.63483 -1.0611 0
M  V30 5480 H 517.034 3.07294 -0.545588 0
M  V30 5481 N 517.335 0.585699 1.46312 0
M  V30 5482 C 518.563 0.0781299 2.06752 0
M  V30 5483 C 518.978 -1.22812 1.43396 0
M  V30 5484 O 518.335 -1.74318 0.540314 0
M  V30 5485 C 518.386 -0.0911927 3.61385 0
M  V30 5486 O 518.107 1.16336 4.22371 0
M  V30 5487 C 519.608 -0.632765 4.38761 0
M  V30 5488 H 516.828 0.0588188 0.668417 0
M  V30 5489 H 519.372 0.807218 1.87894 0
M  V30 5490 H 517.527 -0.770514 3.7966 0
M  V30 5491 H 517.941 0.979082 5.15281 0
M  V30 5492 H 519.415 -0.70041 5.47538 0
M  V30 5493 H 519.892 -1.65039 4.07012 0
M  V30 5494 H 520.498 0.0117856 4.25298 0
M  V30 5495 N 518.813 -1.54241 0.323641 0
M  V30 5496 C 520.059 -2.01572 -0.272089 0
M  V30 5497 C 520.414 -1.20774 -1.49771 0
M  V30 5498 O 519.707 -0.281821 -1.89516 0
M  V30 5499 C 519.901 -3.5129 -0.658031 0
M  V30 5500 C 519.73 -4.46582 0.528645 0
M  V30 5501 C 518.5 -4.94737 1.02777 0
M  V30 5502 C 520.698 -4.95416 1.38086 0
M  V30 5503 N 518.68 -5.73933 2.17885 0
M  V30 5504 C 520.051 -5.72537 2.3791 0
M  V30 5505 C 522.106 -4.77559 1.40861 0
M  V30 5506 C 520.809 -6.33702 3.40314 0
M  V30 5507 C 522.835 -5.39559 2.42136 0
M  V30 5508 C 522.197 -6.16532 3.40688 0
M  V30 5509 H 518.296 -0.779425 -0.0634072 0
M  V30 5510 H 520.88 -1.8922 0.458697 0
M  V30 5511 H 519.051 -3.63888 -1.35795 0
M  V30 5512 H 520.783 -3.85388 -1.23524 0
M  V30 5513 H 517.538 -4.69796 0.599046 0
M  V30 5514 H 517.962 -6.18209 2.75947 0
M  V30 5515 H 522.604 -4.17611 0.660352 0
M  V30 5516 H 520.322 -6.9277 4.16047 0
M  V30 5517 H 523.908 -5.27659 2.45086 0
M  V30 5518 H 522.788 -6.63655 4.1777 0
M  V30 5519 N 520.291 -0.0518155 -1.57515 0
M  V30 5520 C 521.221 0.920283 -2.146 0
M  V30 5521 C 522.202 1.32406 -1.06783 0
M  V30 5522 O 523.387 1.39866 -1.34726 0
M  V30 5523 C 520.517 2.1949 -2.6915 0
M  V30 5524 C 519.471 1.93116 -3.81956 0
M  V30 5525 C 518.797 3.27037 -4.23026 0
M  V30 5526 C 520.097 1.25225 -5.07066 0
M  V30 5527 H 521.791 0.444801 -2.96077 0
M  V30 5528 H 519.337 0.212508 -1.42423 0
M  V30 5529 H 521.29 2.87894 -3.07725 0
M  V30 5530 H 520.014 2.69244 -1.84865 0
M  V30 5531 H 518.673 1.27123 -3.43854 0
M  V30 5532 H 518.321 3.74595 -3.3569 0
M  V30 5533 H 518.021 3.10189 -4.99056 0
M  V30 5534 H 519.545 3.96673 -4.64202 0
M  V30 5535 H 520.959 1.83666 -5.43083 0
M  V30 5536 H 519.356 1.18702 -5.88243 0
M  V30 5537 H 520.426 0.228382 -4.84362 0
M  V30 5538 N 521.769 1.56035 0.221574 0
M  V30 5539 C 523.185 1.49026 0.571271 0
M  V30 5540 C 523.385 0.746912 1.87146 0
M  V30 5541 O 522.441 0.286566 2.50869 0
M  V30 5542 C 523.754 2.93579 0.650522 0
M  V30 5543 C 525.302 3.04099 0.741151 0
M  V30 5544 C 525.777 4.5001 0.851747 0
M  V30 5545 N 527.268 4.54053 0.915968 0
M  V30 5546 C 528.003 5.64232 1.02125 0
M  V30 5547 N 527.499 6.84164 1.09049 0
M  V30 5548 N 529.292 5.52084 1.05639 0
M  V30 5549 H 521.443 2.02791 -0.63162 0
M  V30 5550 H 523.706 0.921736 -0.221602 0
M  V30 5551 H 523.412 3.50912 -0.235253 0
M  V30 5552 H 523.286 3.45476 1.51413 0
M  V30 5553 H 525.673 2.4683 1.61737 0
M  V30 5554 H 525.754 2.55371 -0.148128 0
M  V30 5555 H 525.398 5.07896 -0.0200117 0
M  V30 5556 H 525.328 4.96444 1.75644 0
M  V30 5557 H 527.819 3.67683 0.872782 0
M  V30 5558 H 528.132 7.63883 1.1706 0
M  V30 5559 H 526.477 6.86875 1.05962 0
M  V30 5560 H 529.668 4.57317 0.998953 0
M  V30 5561 H 529.841 6.37983 1.13498 0
M  V30 5562 N 523.247 -0.488276 1.49845 0
M  V30 5563 C 524.177 -1.59675 1.70371 0
M  V30 5564 C 525.158 -1.60878 0.552473 0
M  V30 5565 O 526.343 -1.77417 0.78973 0
M  V30 5566 C 523.473 -2.98098 1.782 0
M  V30 5567 C 522.427 -3.11761 2.93239 0
M  V30 5568 C 521.753 -4.51661 2.86193 0
M  V30 5569 C 523.053 -2.90589 4.33999 0
M  V30 5570 H 524.747 -1.42752 2.63177 0
M  V30 5571 H 522.293 -0.685317 1.26647 0
M  V30 5572 H 524.246 -3.75555 1.91144 0
M  V30 5573 H 522.97 -3.16138 0.820018 0
M  V30 5574 H 521.629 -2.36732 2.79917 0
M  V30 5575 H 521.277 -4.66595 1.87877 0
M  V30 5576 H 520.977 -4.61742 3.63412 0
M  V30 5577 H 522.501 -5.31162 3.01163 0
M  V30 5578 H 523.915 -3.57807 4.47936 0
M  V30 5579 H 522.312 -3.1213 5.12538 0
M  V30 5580 H 523.382 -1.86595 4.4756 0
M  V30 5581 N 524.725 -1.39134 -0.740242 0
M  V30 5582 C 525.688 -1.37217 -1.83587 0
M  V30 5583 C 526.688 -0.270221 -1.58513 0
M  V30 5584 O 527.878 -0.527843 -1.6601 0
M  V30 5585 C 525.01 -1.13959 -3.21288 0
M  V30 5586 H 526.203 -2.34705 -1.86691 0
M  V30 5587 H 523.756 -1.24622 -0.94335 0
M  V30 5588 H 524.491 -0.17131 -3.23847 0
M  V30 5589 H 524.276 -1.93754 -3.40884 0
M  V30 5590 H 525.766 -1.15346 -4.01354 0
M  V30 5591 N 526.204 0.969867 -1.24223 0
M  V30 5592 C 527.481 1.68774 -0.988664 0
M  V30 5593 C 527.861 2.05342 0.489673 0
M  V30 5594 O 527.209 1.75486 1.46345 0
M  V30 5595 C 527.419 2.92135 -1.90941 0
M  V30 5596 C 528.767 3.64422 -2.17903 0
M  V30 5597 O 529.791 3.02188 -1.88576 0
M  V30 5598 O 528.65 4.76446 -2.67697 0
M  V30 5599 H 525.744 0.737736 -0.37373 0
M  V30 5600 H 528.29 1.02415 -1.35312 0
M  V30 5601 H 527.062 2.61788 -2.90831 0
M  V30 5602 H 526.685 3.66228 -1.54798 0
M  V30 5603 N 527.682 1.05563 1.17022 0
M  V30 5604 C 528.612 0.681026 2.23348 0
M  V30 5605 C 529.593 -0.322983 1.67005 0
M  V30 5606 O 530.778 -0.199746 1.9317 0
M  V30 5607 C 527.908 0.0589053 3.4725 0
M  V30 5608 C 526.862 0.988082 4.16438 0
M  V30 5609 C 526.188 0.229646 5.34207 0
M  V30 5610 C 527.488 2.31388 4.68249 0
M  V30 5611 H 529.182 1.56993 2.54938 0
M  V30 5612 H 526.728 0.756302 1.2254 0
M  V30 5613 H 528.681 -0.214982 4.20851 0
M  V30 5614 H 527.405 -0.864968 3.14938 0
M  V30 5615 H 526.064 1.24659 3.44754 0
M  V30 5616 H 525.712 -0.697111 4.98146 0
M  V30 5617 H 525.412 0.848815 5.81437 0
M  V30 5618 H 526.936 -0.0368694 6.10589 0
M  V30 5619 H 528.35 2.09964 5.33468 0
M  V30 5620 H 526.747 2.88736 5.26072 0
M  V30 5621 H 527.817 2.94982 3.84855 0
M  V30 5622 N 529.16 -1.33526 0.837174 0
M  V30 5623 C 530.092 -2.28077 0.226579 0
M  V30 5624 C 531.105 -1.51666 -0.591717 0
M  V30 5625 O 532.294 -1.73511 -0.419064 0
M  V30 5626 C 529.394 -3.31597 -0.69978 0
M  V30 5627 C 528.567 -4.37329 0.0788067 0
M  V30 5628 C 527.626 -5.20526 -0.770637 0
M  V30 5629 O 526.652 -5.68811 -0.210453 0
M  V30 5630 N 527.854 -5.41639 -2.08825 0
M  V30 5631 H 530.619 -2.81115 1.03897 0
M  V30 5632 H 528.18 -1.46201 0.695476 0
M  V30 5633 H 530.172 -3.84158 -1.27298 0
M  V30 5634 H 528.742 -2.78848 -1.41288 0
M  V30 5635 H 527.962 -3.8529 0.833381 0
M  V30 5636 H 529.25 -5.05079 0.614238 0
M  V30 5637 H 528.648 -5.04108 -2.56693 0
M  V30 5638 H 527.205 -5.97263 -2.60998 0
M  V30 5639 N 530.638 -0.59345 -1.46 0
M  V30 5640 C 531.884 -0.0832754 -2.02629 0
M  V30 5641 C 532.217 1.27749 -1.46266 0
M  V30 5642 O 531.492 1.8395 -0.631866 0
M  V30 5643 C 531.775 -0.0290756 -3.60088 0
M  V30 5644 C 531.628 -1.41951 -4.26814 0
M  V30 5645 C 532.947 0.666055 -4.35031 0
M  V30 5646 H 530.066 -0.031736 -0.736316 0
M  V30 5647 H 532.708 -0.762711 -1.74019 0
M  V30 5648 H 530.858 0.549532 -3.84594 0
M  V30 5649 H 532.53 -2.04411 -4.13538 0
M  V30 5650 H 530.773 -1.98422 -3.8576 0
M  V30 5651 H 531.444 -1.33395 -5.3564 0
M  V30 5652 H 533.92 0.174401 -4.15734 0
M  V30 5653 H 532.796 0.673041 -5.44758 0
M  V30 5654 H 533.057 1.72946 -4.06869 0
M  V30 5655 N 532.116 1.54067 -0.331816 0
M  V30 5656 C 533.527 1.86059 0.15454 0
M  V30 5657 C 533.878 1.25331 1.50952 0
M  V30 5658 O 533.003 0.562441 2.08963 0
M  V30 5659 C 533.598 3.37581 0.287192 0
M  V30 5660 C 532.157 3.69493 0.717773 0
M  V30 5661 C 531.304 2.76863 -0.155569 0
M  V30 5662 H 534.255 1.48797 -0.55182 0
M  V30 5663 H 534.276 3.63744 1.11671 0
M  V30 5664 H 533.788 3.81751 -0.699131 0
M  V30 5665 H 531.889 3.3086 1.71354 0
M  V30 5666 H 532.002 4.76315 0.5158 0
M  V30 5667 H 530.366 2.51995 0.370213 0
M  V30 5668 H 531.149 3.23861 -1.13881 0
M  V30 5669 N 533.594 0.0601682 1.57485 0
M  V30 5670 C 535.01 -0.296422 1.56823 0
M  V30 5671 C 535.21 -1.70831 1.0686 0
M  V30 5672 O 534.266 -2.4174 0.729245 0
M  V30 5673 C 535.579 -0.116681 3.00474 0
M  V30 5674 C 537.127 -0.187103 3.1244 0
M  V30 5675 C 537.602 -0.035783 4.57986 0
M  V30 5676 N 539.093 -0.0917676 4.63109 0
M  V30 5677 C 539.828 0.00107251 5.734 0
M  V30 5678 N 539.324 0.146773 6.92645 0
M  V30 5679 N 541.117 -0.0551577 5.62073 0
M  V30 5680 H 533.268 0.983055 1.88281 0
M  V30 5681 H 535.531 0.382386 0.867459 0
M  V30 5682 H 535.237 0.85712 3.41096 0
M  V30 5683 H 535.111 -0.873929 3.66936 0
M  V30 5684 H 537.498 -1.15138 2.71712 0
M  V30 5685 H 537.579 0.601052 2.48638 0
M  V30 5686 H 537.223 0.925212 4.99402 0
M  V30 5687 H 537.153 -0.843196 5.19806 0
M  V30 5688 H 539.644 -0.203261 3.77353 0
M  V30 5689 H 539.957 0.210076 7.72514 0
M  V30 5690 H 538.302 0.181979 6.94762 0
M  V30 5691 H 541.493 -0.167605 4.678 0
M  V30 5692 H 541.666 0.020652 6.47997 0
M  V30 5693 N 535.072 -1.5615 -0.213296 0
M  V30 5694 C 536.297 -1.83986 -0.957282 0
M  V30 5695 C 536.722 -0.641526 -1.76822 0
M  V30 5696 O 536.08 0.409722 -1.7661 0
M  V30 5697 C 536.128 -3.09889 -1.84393 0
M  V30 5698 O 535.232 -2.89163 -2.94038 0
M  V30 5699 H 534.573 -0.606357 -0.270605 0
M  V30 5700 H 537.103 -2.03369 -0.224111 0
M  V30 5701 H 537.113 -3.40209 -2.25215 0
M  V30 5702 H 535.788 -3.96735 -1.24795 0
M  V30 5703 H 534.365 -2.70097 -2.57103 0
M  V30 5704 N 536.55 0.480323 -1.50102 0
M  V30 5705 C 537.798 1.23063 -1.60312 0
M  V30 5706 C 538.119 1.92659 -0.301226 0
M  V30 5707 O 537.389 1.83691 0.680753 0
M  V30 5708 H 535.969 0.457231 -0.590719 0
M  V30 5709 H 538.631 0.554893 -1.86834 0
M  V30 5710 H 537.727 1.9835 -2.40964 0
M  V30 5711 N 538.028 1.39524 0.732853 0
M  V30 5712 C 538.958 1.41153 1.86005 0
M  V30 5713 C 539.939 0.274614 1.67869 0
M  V30 5714 O 541.124 0.480745 1.88155 0
M  V30 5715 C 538.254 1.25638 3.23778 0
M  V30 5716 C 537.208 2.36752 3.56556 0
M  V30 5717 C 536.534 2.06326 4.93289 0
M  V30 5718 C 537.834 3.79069 3.5931 0
M  V30 5719 H 539.528 2.35484 1.84899 0
M  V30 5720 H 537.074 1.13348 0.888162 0
M  V30 5721 H 539.027 1.25398 4.0231 0
M  V30 5722 H 537.751 0.277772 3.25417 0
M  V30 5723 H 536.41 2.36213 2.80355 0
M  V30 5724 H 536.058 1.06897 4.9151 0
M  V30 5725 H 535.758 2.80757 5.16187 0
M  V30 5726 H 537.282 2.07739 5.74175 0
M  V30 5727 H 538.696 3.81526 4.27914 0
M  V30 5728 H 537.093 4.52878 3.93728 0
M  V30 5729 H 538.163 4.09893 2.59068 0
M  V30 5730 N 539.506 -0.963266 1.24736 0
M  V30 5731 C 540.469 -2.04013 1.04457 0
M  V30 5732 C 541.469 -1.608 0.000335555 0
M  V30 5733 O 542.659 -1.72515 0.241719 0
M  V30 5734 C 539.791 -3.35858 0.584162 0
M  V30 5735 H 540.984 -2.23436 2.00041 0
M  V30 5736 H 538.537 -1.13914 1.07021 0
M  V30 5737 H 539.272 -3.22128 -0.374673 0
M  V30 5738 H 539.057 -3.68568 1.3379 0
M  V30 5739 H 540.547 -4.1502 0.463451 0
M  V30 5740 N 540.985 -1.06182 -1.16461 0
M  V30 5741 C 542.233 -0.776326 -1.86595 0
M  V30 5742 C 542.554 0.69921 -1.82033 0
M  V30 5743 O 541.824 1.50579 -1.2531 0
M  V30 5744 H 540.404 -0.284184 -0.690832 0
M  V30 5745 H 543.066 -1.34308 -1.41235 0
M  V30 5746 H 542.162 -1.10022 -2.92064 0
M  V30 5747 N 542.463 1.3308 -0.844243 0
M  V30 5748 C 543.703 1.99414 -0.448697 0
M  V30 5749 C 544.067 1.65398 0.975058 0
M  V30 5750 O 545.268 2.24741 1.47461 0
M  V30 5751 C 543.539 3.51081 -0.669089 0
M  V30 5752 S 545.098 4.37241 -0.369564 0
M  V30 5753 H 541.916 0.690736 -0.168538 0
M  V30 5754 H 544.518 1.61977 -1.0947 0
M  V30 5755 H 543.222 3.73326 -1.70457 0
M  V30 5756 H 542.753 3.93399 -0.00913211 0
M  V30 5757 H 544.768 4.89568 0.808552 0
M  V30 5758 N 543.941 0.601185 1.45683 0
M  V30 5759 C 545.187 0.0940202 2.02582 0
M  V30 5760 C 545.52 -1.26972 1.46941 0
M  V30 5761 O 544.795 -1.83613 0.641612 0
M  V30 5762 C 545.078 0.0481715 3.60068 0
M  V30 5763 C 544.931 1.44212 4.26055 0
M  V30 5764 C 546.25 -0.642975 4.35378 0
M  V30 5765 H 543.369 0.0356404 0.736138 0
M  V30 5766 H 546.011 0.771929 1.73612 0
M  V30 5767 H 544.161 -0.529128 3.8488 0
M  V30 5768 H 545.833 2.06601 4.12449 0
M  V30 5769 H 544.076 2.00465 3.84703 0
M  V30 5770 H 544.747 1.36234 5.34925 0
M  V30 5771 H 547.223 -0.152351 4.15821 0
M  V30 5772 H 546.099 -0.644141 5.45107 0
M  V30 5773 H 546.36 -1.70785 4.0778 0
M  V30 5774 N 545.419 -1.53889 0.339982 0
M  V30 5775 C 546.665 -2.01152 -0.258003 0
M  V30 5776 C 546.998 -1.22749 -1.50487 0
M  V30 5777 O 546.273 -0.314156 -1.91946 0
M  V30 5778 C 546.556 -3.55468 -0.575717 0
M  V30 5779 C 546.409 -4.44584 0.682996 0
M  V30 5780 C 547.728 -4.1768 -1.38677 0
M  V30 5781 H 544.847 -0.731198 -0.0922992 0
M  V30 5782 H 547.489 -1.84352 0.459814 0
M  V30 5783 H 545.639 -3.69914 -1.18725 0
M  V30 5784 H 547.311 -4.41981 1.32102 0
M  V30 5785 H 545.554 -4.13592 1.3086 0
M  V30 5786 H 546.225 -5.5043 0.416001 0
M  V30 5787 H 548.701 -4.0691 -0.869705 0
M  V30 5788 H 547.577 -5.25734 -1.57783 0
M  V30 5789 H 547.838 -3.72069 -2.38782 0
M  V30 5790 N 546.897 -0.0685191 -1.57451 0
M  V30 5791 C 548.145 0.60016 -1.92983 0
M  V30 5792 C 548.466 1.70348 -0.949028 0
M  V30 5793 O 547.736 1.959 0.00335647 0
M  V30 5794 H 546.316 0.224682 -0.712409 0
M  V30 5795 H 548.978 -0.125605 -1.94495 0
M  V30 5796 H 548.074 1.02759 -2.94698 0
M  V30 5797 N 548.375 1.56261 0.205012 0
M  V30 5798 C 549.623 1.79684 0.925096 0
M  V30 5799 C 549.944 0.63989 1.84202 0
M  V30 5800 O 549.214 -0.342345 1.92885 0
M  V30 5801 H 547.794 0.662774 0.344587 0
M  V30 5802 H 550.456 1.93734 0.212899 0
M  V30 5803 H 549.552 2.72467 1.52211 0
M  V30 5804 N 549.853 -0.472356 1.50355 0
M  V30 5805 C 550.783 -1.57859 1.72055 0
M  V30 5806 C 551.764 -1.60283 0.569505 0
M  V30 5807 O 552.949 -1.7657 0.808503 0
M  V30 5808 C 550.079 -2.96191 1.81351 0
M  V30 5809 C 549.033 -3.08633 2.96529 0
M  V30 5810 C 548.359 -4.486 2.90968 0
M  V30 5811 C 549.659 -2.85969 4.37057 0
M  V30 5812 H 551.353 -1.39953 2.64676 0
M  V30 5813 H 548.899 -0.671846 1.27367 0
M  V30 5814 H 550.852 -3.73507 1.95117 0
M  V30 5815 H 549.576 -3.15251 0.853502 0
M  V30 5816 H 548.235 -2.33749 2.82413 0
M  V30 5817 H 547.883 -4.64577 1.92815 0
M  V30 5818 H 547.583 -4.57861 3.68289 0
M  V30 5819 H 549.107 -5.27938 3.0678 0
M  V30 5820 H 550.521 -3.53036 4.51706 0
M  V30 5821 H 548.918 -3.06677 5.15819 0
M  V30 5822 H 549.988 -1.81838 4.49514 0
M  V30 5823 N 551.331 -1.39911 -0.725443 0
M  V30 5824 C 552.261 -1.42138 -1.85254 0
M  V30 5825 C 553.242 -0.283513 -1.67721 0
M  V30 5826 O 554.427 -0.490717 -1.87898 0
M  V30 5827 C 551.557 -1.27354 -3.23107 0
M  V30 5828 C 550.511 -2.3864 -3.55296 0
M  V30 5829 C 549.837 -2.08939 -4.92188 0
M  V30 5830 C 551.137 -3.8097 -3.57295 0
M  V30 5831 H 552.831 -2.36461 -1.83648 0
M  V30 5832 H 550.377 -1.13817 -0.882138 0
M  V30 5833 H 552.33 -1.2753 -4.01639 0
M  V30 5834 H 551.054 -0.295025 -3.25265 0
M  V30 5835 H 549.713 -2.37696 -2.79099 0
M  V30 5836 H 549.361 -1.09502 -4.90936 0
M  V30 5837 H 549.061 -2.83491 -5.14691 0
M  V30 5838 H 550.585 -2.10781 -5.73065 0
M  V30 5839 H 551.999 -3.8379 -4.25885 0
M  V30 5840 H 550.396 -4.5496 -3.9132 0
M  V30 5841 H 551.466 -4.11261 -2.5689 0
M  V30 5842 N 552.809 0.956637 -1.25245 0
M  V30 5843 C 554.039 1.7332 -1.12445 0
M  V30 5844 C 554.447 1.86392 0.324732 0
M  V30 5845 O 553.79 1.35967 1.23526 0
M  V30 5846 C 553.852 3.16603 -1.70303 0
M  V30 5847 C 553.516 3.26966 -3.19284 0
M  V30 5848 C 554.513 3.11434 -4.16299 0
M  V30 5849 C 552.198 3.50851 -3.59456 0
M  V30 5850 C 554.192 3.1963 -5.51467 0
M  V30 5851 C 551.879 3.58684 -4.94761 0
M  V30 5852 C 552.877 3.43087 -5.90576 0
M  V30 5853 O 552.565 3.50598 -7.2342 0
M  V30 5854 H 552.297 0.549981 -0.393061 0
M  V30 5855 H 554.851 1.20892 -1.66055 0
M  V30 5856 H 553.081 3.70385 -1.11138 0
M  V30 5857 H 554.77 3.76109 -1.52632 0
M  V30 5858 H 555.536 2.92853 -3.86604 0
M  V30 5859 H 551.415 3.62053 -2.85375 0
M  V30 5860 H 554.959 3.07373 -6.26233 0
M  V30 5861 H 550.856 3.76782 -5.24124 0
M  V30 5862 H 551.624 3.67242 -7.31489 0
M  V30 5863 N 554.287 1.06798 1.15896 0
M  V30 5864 C 555.25 0.687328 2.18651 0
M  V30 5865 C 556.25 -0.269559 1.58524 0
M  V30 5866 O 557.44 -0.0512627 1.74125 0
M  V30 5867 C 554.572 0.0121642 3.40898 0
M  V30 5868 H 555.765 1.59701 2.53842 0
M  V30 5869 H 553.318 0.863828 1.3026 0
M  V30 5870 H 554.053 -0.910025 3.1127 0
M  V30 5871 H 553.838 0.700309 3.85795 0
M  V30 5872 H 555.328 -0.239703 4.16911 0
M  V30 5873 N 555.766 -1.3263 0.851289 0
M  V30 5874 C 557.012 -1.9766 0.453694 0
M  V30 5875 C 557.345 -1.67225 -0.987396 0
M  V30 5876 O 556.62 -0.958693 -1.69232 0
M  V30 5877 C 556.903 -3.5344 0.68936 0
M  V30 5878 C 556.756 -3.93517 2.17862 0
M  V30 5879 C 558.075 -4.39866 0.143555 0
M  V30 5880 H 555.194 -0.717989 0.166314 0
M  V30 5881 H 557.836 -1.57068 1.06909 0
M  V30 5882 H 555.986 -3.88147 0.165546 0
M  V30 5883 H 557.658 -3.69006 2.76826 0
M  V30 5884 H 555.901 -3.42798 2.65841 0
M  V30 5885 H 556.572 -5.02065 2.29422 0
M  V30 5886 H 559.048 -4.11875 0.591451 0
M  V30 5887 H 557.924 -5.47858 0.338043 0
M  V30 5888 H 558.185 -4.31696 -0.953466 0
M  V30 5889 N 557.244 -0.608902 -1.45362 0
M  V30 5890 C 558.492 -0.104401 -2.0183 0
M  V30 5891 C 558.813 1.27007 -1.47967 0
M  V30 5892 O 558.083 1.83924 -0.674455 0
M  V30 5893 H 556.663 -0.0356042 -0.746151 0
M  V30 5894 H 559.325 -0.790596 -1.78145 0
M  V30 5895 H 558.421 -0.0551793 -3.12051 0
M  V30 5896 N 558.722 1.53707 -0.348139 0
M  V30 5897 C 559.97 2.00591 0.246478 0
M  V30 5898 C 560.291 1.23753 1.50699 0
M  V30 5899 O 559.561 0.345964 1.92821 0
M  V30 5900 H 558.141 0.741053 0.0940679 0
M  V30 5901 H 560.803 1.89139 -0.470354 0
M  V30 5902 H 559.899 3.08297 0.485714 0
M  V30 5903 N 560.2 0.0768682 1.57412 0
M  V30 5904 C 561.616 -0.279772 1.57129 0
M  V30 5905 C 561.816 -1.69688 1.08666 0
M  V30 5906 O 560.872 -2.40953 0.754843 0
M  V30 5907 C 562.185 -0.0848055 3.0058 0
M  V30 5908 C 563.733 -0.153954 3.12621 0
M  V30 5909 C 564.208 0.0127946 4.57998 0
M  V30 5910 N 565.699 -0.0426435 4.6318 0
M  V30 5911 C 566.434 0.0618892 5.73367 0
M  V30 5912 N 565.93 0.220229 6.9245 0
M  V30 5913 N 567.723 0.00446072 5.621 0
M  V30 5914 H 559.874 1.00297 1.87228 0
M  V30 5915 H 562.137 0.391565 0.863354 0
M  V30 5916 H 561.843 0.89325 3.40168 0
M  V30 5917 H 561.717 -0.834961 3.67843 0
M  V30 5918 H 564.104 -1.1225 2.72917 0
M  V30 5919 H 564.185 0.627389 2.47987 0
M  V30 5920 H 563.829 0.978128 4.98392 0
M  V30 5921 H 563.759 -0.788016 5.20671 0
M  V30 5922 H 566.25 -0.163226 3.77547 0
M  V30 5923 H 566.563 0.291999 7.72248 0
M  V30 5924 H 564.908 0.255658 6.9453 0
M  V30 5925 H 568.099 -0.117979 4.67951 0
M  V30 5926 H 568.272 0.0893796 6.47938 0
M  V30 5927 N 561.678 -1.56367 -0.196722 0
M  V30 5928 C 562.626 -1.95304 -1.2633 0
M  V30 5929 C 563.62 -0.838252 -1.47206 0
M  V30 5930 O 564.826 -1.02325 -1.48087 0
M  V30 5931 H 561.201 -0.621013 -0.424083 0
M  V30 5932 H 563.172 -2.84254 -0.907879 0
M  V30 5933 C 561.921 -2.3074 -2.60104 0
M  V30 5934 H 561.244 -3.16047 -2.44856 0
M  V30 5935 H 562.684 -2.61849 -3.33484 0
M  V30 5936 C 561.143 -1.14143 -3.16975 0
M  V30 5937 O 561.673 -0.415602 -3.99544 0
M  V30 5938 N 559.879 -0.91867 -2.75697 0
M  V30 5939 H 559.426 -1.51065 -2.08656 0
M  V30 5940 H 559.384 -0.140321 -3.14087 0
M  V30 5941 N 563.156 0.464375 -1.50603 0
M  V30 5942 C 564.104 1.58224 -1.70493 0
M  V30 5943 C 565.098 1.59492 -0.570836 0
M  V30 5944 O 566.304 1.63561 -0.751517 0
M  V30 5945 H 562.679 0.525161 -0.538247 0
M  V30 5946 H 564.65 1.38613 -2.64252 0
M  V30 5947 C 563.399 2.96113 -1.82243 0
M  V30 5948 H 562.722 2.95858 -2.68901 0
M  V30 5949 H 564.162 3.73769 -2.00182 0
M  V30 5950 C 562.621 3.31946 -0.575628 0
M  V30 5951 O 563.151 4.00708 0.282152 0
M  V30 5952 N 561.357 2.87436 -0.427665 0
M  V30 5953 H 560.904 2.31652 -1.12674 0
M  V30 5954 H 560.862 3.11776 0.405379 0
M  V30 5955 N 564.634 1.40294 0.718013 0
M  V30 5956 C 565.859 1.41941 1.5122 0
M  V30 5957 C 566.284 0.0202371 1.88089 0
M  V30 5958 O 565.642 -0.971078 1.53101 0
M  V30 5959 C 565.69 2.3141 2.76554 0
M  V30 5960 O 564.794 1.75567 3.73162 0
M  V30 5961 H 564.135 0.482644 0.456016 0
M  V30 5962 H 566.665 1.84494 0.884478 0
M  V30 5963 H 566.675 2.46513 3.25108 0
M  V30 5964 H 565.35 3.33085 2.49053 0
M  V30 5965 H 563.927 1.69798 3.31999 0
M  V30 5966 N 566.112 -0.949982 1.2575 0
M  V30 5967 C 567.523 -1.50989 1.09815 0
M  V30 5968 C 567.874 -1.93497 -0.324556 0
M  V30 5969 O 566.999 -1.79068 -1.21506 0
M  V30 5970 C 567.594 -2.74394 1.98729 0
M  V30 5971 C 566.153 -3.26682 1.86965 0
M  V30 5972 C 565.3 -1.99498 1.92603 0
M  V30 5973 H 568.251 -0.766387 1.38968 0
M  V30 5974 H 568.272 -3.48383 1.53001 0
M  V30 5975 H 567.784 -2.43425 3.02268 0
M  V30 5976 H 565.885 -3.62461 0.863279 0
M  V30 5977 H 565.998 -3.94383 2.72027 0
M  V30 5978 H 564.362 -2.15005 1.36546 0
M  V30 5979 H 565.145 -1.70871 2.97755 0
M  V30 5980 N 567.59 -1.07411 -1.15328 0
M  V30 5981 C 568.867 -0.710732 -1.82231 0
M  V30 5982 C 569.247 0.806732 -1.95077 0
M  V30 5983 O 568.595 1.72139 -1.50268 0
M  V30 5984 C 568.805 -1.42586 -3.18544 0
M  V30 5985 C 570.153 -1.57836 -3.94174 0
M  V30 5986 O 571.177 -1.38669 -3.281 0
M  V30 5987 O 570.036 -1.8938 -5.12638 0
M  V30 5988 H 567.13 -0.25297 -0.78736 0
M  V30 5989 H 569.676 -1.17508 -1.22434 0
M  V30 5990 H 568.448 -2.46008 -3.04296 0
M  V30 5991 H 568.071 -0.952332 -3.86026 0
M  V30 5992 N 569.068 1.32177 -0.85831 0
M  V30 5993 C 570.316 1.96735 -0.462568 0
M  V30 5994 C 570.637 1.6824 0.985911 0
M  V30 5995 O 569.907 0.991564 1.68952 0
M  V30 5996 H 568.487 0.727849 -0.168064 0
M  V30 5997 H 571.149 1.61195 -1.09554 0
M  V30 5998 H 570.245 3.06068 -0.610647 0
M  V30 5999 N 570.547 0.616602 1.45037 0
M  V30 6000 C 571.495 -0.109318 2.32343 0
M  V30 6001 C 572.489 -0.850543 1.465 0
M  V30 6002 O 573.695 -0.765088 1.62931 0
M  V30 6003 H 570.07 -0.0541091 0.750051 0
M  V30 6004 H 572.041 0.645326 2.91338 0
M  V30 6005 C 570.79 -1.0872 3.30266 0
M  V30 6006 H 570.113 -0.526267 3.96321 0
M  V30 6007 H 571.553 -1.56489 3.94065 0
M  V30 6008 C 570.012 -2.16525 2.58105 0
M  V30 6009 O 570.542 -3.244 2.36913 0
M  V30 6010 N 568.748 -1.92057 2.18088 0
M  V30 6011 H 568.295 -1.04337 2.35524 0
M  V30 6012 H 568.253 -2.64391 1.70131 0
M  V30 6013 N 572.025 -1.5352 0.356285 0
M  V30 6014 C 573.253 -2.05534 -0.237328 0
M  V30 6015 C 573.668 -1.23043 -1.43199 0
M  V30 6016 O 573.025 -0.268821 -1.80509 0
M  V30 6017 C 573.076 -3.55791 -0.639933 0
M  V30 6018 O 572.797 -4.35154 0.507233 0
M  V30 6019 C 574.298 -4.24027 -1.29292 0
M  V30 6020 H 571.518 -0.669585 -0.0435572 0
M  V30 6021 H 574.062 -1.97988 0.511963 0
M  V30 6022 H 572.217 -3.63518 -1.33915 0
M  V30 6023 H 572.631 -5.24178 0.18375 0
M  V30 6024 H 574.105 -5.30509 -1.52527 0
M  V30 6025 H 574.582 -3.77166 -2.25039 0
M  V30 6026 H 575.188 -4.20527 -0.63539 0
M  V30 6027 N 573.503 -0.0852151 -1.57369 0
M  V30 6028 C 574.78 0.622534 -1.85429 0
M  V30 6029 C 575.16 1.86962 -0.980229 0
M  V30 6030 O 574.508 2.28445 -0.0500219 0
M  V30 6031 C 574.718 0.947374 -3.35896 0
M  V30 6032 C 576.066 1.31509 -4.03721 0
M  V30 6033 O 577.09 1.03869 -3.40719 0
M  V30 6034 O 575.949 1.83231 -5.14868 0
M  V30 6035 H 573.043 0.310513 -0.766492 0
M  V30 6036 H 575.589 -0.117164 -1.69295 0
M  V30 6037 H 574.361 0.0622264 -3.91251 0
M  V30 6038 H 573.984 1.74338 -3.5734 0
M  V30 6039 N 574.981 1.5647 0.188427 0
M  V30 6040 C 576.206 1.85486 0.927891 0
M  V30 6041 C 576.631 0.669575 1.75779 0
M  V30 6042 O 575.989 -0.381573 1.77239 0
M  V30 6043 C 576.037 3.12784 1.7944 0
M  V30 6044 O 575.141 2.93805 2.894 0
M  V30 6045 H 574.482 0.610585 0.260925 0
M  V30 6046 H 577.012 2.037 0.191729 0
M  V30 6047 H 577.022 3.43749 2.19774 0
M  V30 6048 H 575.697 3.98671 1.18468 0
M  V30 6049 H 574.274 2.74153 2.52774 0
M  V30 6050 N 576.459 -0.456382 1.50847 0
M  V30 6051 C 577.684 -1.2349 1.66628 0
M  V30 6052 C 578.109 -1.84715 0.355254 0
M  V30 6053 O 577.467 -1.67961 -0.682559 0
M  V30 6054 C 577.515 -2.30865 2.77009 0
M  V30 6055 O 576.619 -3.35882 2.39285 0
M  V30 6056 H 575.96 -0.36266 0.556214 0
M  V30 6057 H 578.49 -0.541374 1.97308 0
M  V30 6058 H 578.5 -2.75949 3.00526 0
M  V30 6059 H 577.175 -1.85677 3.72152 0
M  V30 6060 H 575.752 -2.96406 2.26269 0
M  V30 6061 N 577.937 -1.40673 -0.710563 0
M  V30 6062 C 578.9 -1.4108 -1.80635 0
M  V30 6063 C 579.9 -0.303783 -1.57904 0
M  V30 6064 O 581.09 -0.562937 -1.64853 0
M  V30 6065 C 578.222 -1.20748 -3.18799 0
M  V30 6066 H 579.415 -2.38612 -1.81671 0
M  V30 6067 H 576.968 -1.26595 -0.916704 0
M  V30 6068 H 577.703 -0.239964 -3.23411 0
M  V30 6069 H 577.488 -2.00941 -3.36698 0
M  V30 6070 H 578.978 -1.23833 -3.98817 0
M  V30 6071 N 579.415 0.9433 -1.26252 0
M  V30 6072 C 580.345 2.05902 -1.10122 0
M  V30 6073 C 581.326 1.70099 -0.00700552 0
M  V30 6074 O 582.511 1.93377 -0.178641 0
M  V30 6075 C 579.641 3.39516 -0.731175 0
M  V30 6076 C 578.595 3.89372 -1.77688 0
M  V30 6077 C 577.921 5.19613 -1.26122 0
M  V30 6078 C 579.221 4.14489 -3.17799 0
M  V30 6079 H 580.915 2.19655 -2.03451 0
M  V30 6080 H 578.461 1.05548 -0.979576 0
M  V30 6081 H 580.414 4.17031 -0.605215 0
M  V30 6082 H 579.138 3.25733 0.23782 0
M  V30 6083 H 577.797 3.14036 -1.89148 0
M  V30 6084 H 577.445 5.02208 -0.282128 0
M  V30 6085 H 577.145 5.53939 -1.96023 0
M  V30 6086 H 578.669 5.99713 -1.14789 0
M  V30 6087 H 580.083 4.82625 -3.09428 0
M  V30 6088 H 578.48 4.60094 -3.85271 0
M  V30 6089 H 579.55 3.20347 -3.64014 0
M  V30 6090 N 580.893 1.08022 1.14757 0
M  V30 6091 C 582.17 0.720386 1.81851 0
M  V30 6092 C 582.55 -0.796375 1.95502 0
M  V30 6093 O 581.898 -1.71339 1.51179 0
M  V30 6094 C 582.108 1.44273 3.17783 0
M  V30 6095 C 583.456 1.59925 3.93331 0
M  V30 6096 O 584.48 1.40407 3.2736 0
M  V30 6097 O 583.339 1.92096 5.11626 0
M  V30 6098 H 580.433 0.257142 0.786007 0
M  V30 6099 H 582.979 1.18155 1.21809 0
M  V30 6100 H 581.751 2.47618 3.02987 0
M  V30 6101 H 581.374 0.97279 3.85516 0
M  V30 6102 N 582.371 -1.3172 0.865308 0
M  V30 6103 C 583.611 -1.98675 0.480365 0
M  V30 6104 C 583.975 -1.66929 -0.948621 0
M  V30 6105 O 585.176 -2.27059 -1.43867 0
M  V30 6106 C 583.447 -3.49972 0.724858 0
M  V30 6107 S 585.006 -4.36598 0.439078 0
M  V30 6108 H 581.824 -0.687967 0.179506 0
M  V30 6109 H 584.426 -1.60215 1.12033 0
M  V30 6110 H 583.13 -3.70567 1.76375 0
M  V30 6111 H 582.661 -3.93335 0.0717173 0
M  V30 6112 H 584.676 -4.90792 -0.730564 0
M  V30 6113 N 583.85 -0.624285 -1.44708 0
M  V30 6114 C 585.08 -0.132726 -2.06173 0
M  V30 6115 C 585.488 1.19513 -1.46674 0
M  V30 6116 O 584.831 1.74254 -0.581491 0
M  V30 6117 C 584.893 0.0636732 -3.59444 0
M  V30 6118 C 584.557 -1.18496 -4.4137 0
M  V30 6119 C 585.553 -2.10706 -4.75288 0
M  V30 6120 C 583.239 -1.41846 -4.81856 0
M  V30 6121 C 585.233 -3.24582 -5.48567 0
M  V30 6122 C 582.92 -2.5602 -5.54885 0
M  V30 6123 C 583.918 -3.47215 -5.88159 0
M  V30 6124 O 583.606 -4.59399 -6.59703 0
M  V30 6125 H 583.338 -0.0737313 -0.671967 0
M  V30 6126 H 585.892 -0.856789 -1.86677 0
M  V30 6127 H 584.122 0.842809 -3.77404 0
M  V30 6128 H 585.811 0.508924 -4.02697 0
M  V30 6129 H 586.577 -1.93898 -4.44554 0
M  V30 6130 H 582.456 -0.717556 -4.55381 0
M  V30 6131 H 586 -3.95785 -5.74456 0
M  V30 6132 H 581.897 -2.72774 -5.85034 0
M  V30 6133 H 582.665 -4.58293 -6.78166 0
M  V30 6134 N 585.328 1.53329 -0.364422 0
M  V30 6135 C 586.276 2.27212 0.497737 0
M  V30 6136 C 587.27 1.30146 1.08437 0
M  V30 6137 O 588.476 1.47778 1.0277 0
M  V30 6138 H 584.851 0.730329 0.179232 0
M  V30 6139 H 586.822 2.98037 -0.147182 0
M  V30 6140 C 585.571 3.07333 1.6261 0
M  V30 6141 H 584.894 3.81866 1.184 0
M  V30 6142 H 586.334 3.62209 2.20409 0
M  V30 6143 C 584.793 2.18102 2.56775 0
M  V30 6144 O 585.323 1.79104 3.59562 0
M  V30 6145 N 583.529 1.82759 2.25937 0
M  V30 6146 H 583.076 2.14671 1.42387 0
M  V30 6147 H 583.034 1.23342 2.89196 0
M  V30 6148 N 586.806 0.0935595 1.57322 0
M  V30 6149 C 588.217 -0.435807 1.81542 0
M  V30 6150 C 588.568 -1.68263 1.00907 0
M  V30 6151 O 587.693 -2.15087 0.237983 0
M  V30 6152 C 588.288 -0.797436 3.29282 0
M  V30 6153 C 586.847 -1.27155 3.54272 0
M  V30 6154 C 585.994 -0.267455 2.76007 0
M  V30 6155 H 588.945 0.31902 1.5546 0
M  V30 6156 H 588.966 -1.6571 3.42521 0
M  V30 6157 H 588.478 0.110206 3.87943 0
M  V30 6158 H 586.579 -2.19696 3.00939 0
M  V30 6159 H 586.692 -1.23445 4.62923 0
M  V30 6160 H 585.056 -0.749282 2.43429 0
M  V30 6161 H 585.839 0.632839 3.37417 0
M  V30 6162 N 588.284 -1.56567 -0.180126 0
M  V30 6163 C 589.217 -1.90813 -1.25163 0
M  V30 6164 C 590.195 -0.7699 -1.43218 0
M  V30 6165 O 591.379 -1.02236 -1.58367 0
M  V30 6166 C 588.506 -2.15138 -2.61597 0
M  V30 6167 C 587.552 -3.37834 -2.60328 0
M  V30 6168 S 588.385 -4.92486 -2.1028 0
M  V30 6169 C 589.541 -5.19896 -3.48509 0
M  V30 6170 H 589.774 -2.81398 -0.959283 0
M  V30 6171 H 587.307 -1.49541 -0.3843 0
M  V30 6172 H 589.265 -2.29835 -3.40127 0
M  V30 6173 H 587.926 -1.25276 -2.88036 0
M  V30 6174 H 587.119 -3.52027 -3.60684 0
M  V30 6175 H 586.721 -3.22208 -1.8989 0
M  V30 6176 H 589.013 -5.11334 -4.44459 0
M  V30 6177 H 589.956 -6.21571 -3.39198 0
M  V30 6178 H 590.364 -4.47489 -3.44114 0
M  V30 6179 N 589.762 0.448376 -1.51087 0
M  V30 6180 C 590.99 1.22143 -1.66999 0
M  V30 6181 C 591.405 1.85283 -0.362699 0
M  V30 6182 O 590.762 1.70236 0.65772 0
M  V30 6183 C 590.813 2.31357 -2.7777 0
M  V30 6184 O 590.534 1.70801 -4.03434 0
M  V30 6185 C 592.035 3.21836 -3.04855 0
M  V30 6186 H 589.255 0.368558 -0.560719 0
M  V30 6187 H 591.799 0.532618 -1.97442 0
M  V30 6188 H 589.954 2.95973 -2.49958 0
M  V30 6189 H 590.368 2.42895 -4.64868 0
M  V30 6190 H 591.842 3.94627 -3.85971 0
M  V30 6191 H 592.319 3.81949 -2.16821 0
M  V30 6192 H 592.925 2.62933 -3.34285 0
M  V30 6193 N 591.24 1.41047 0.703093 0
M  V30 6194 C 592.188 1.42494 1.83843 0
M  V30 6195 C 593.182 0.303885 1.66652 0
M  V30 6196 O 594.388 0.475544 1.73605 0
M  V30 6197 H 590.763 0.445685 0.605697 0
M  V30 6198 H 592.734 2.38194 1.79739 0
M  V30 6199 C 591.483 1.31666 3.21807 0
M  V30 6200 H 590.806 2.17212 3.35647 0
M  V30 6201 H 592.246 1.36738 4.01346 0
M  V30 6202 C 590.705 0.0281828 3.36888 0
M  V30 6203 O 591.235 -0.929995 3.90786 0
M  V30 6204 N 589.441 -0.0454322 2.90564 0
M  V30 6205 H 588.988 0.735046 2.4689 0
M  V30 6206 H 588.946 -0.906968 3.01034 0
M  V30 6207 N 592.718 -0.936591 1.26751 0
M  V30 6208 C 593.65 -2.03991 1.045 0
M  V30 6209 C 594.663 -1.628 0.00394261 0
M  V30 6210 O 595.852 -1.76817 0.244526 0
M  V30 6211 C 592.952 -3.34218 0.561403 0
M  V30 6212 C 592.125 -4.04151 1.67274 0
M  V30 6213 C 591.184 -5.12651 1.1864 0
M  V30 6214 O 590.21 -5.37104 1.88437 0
M  V30 6215 N 591.412 -5.80488 0.037278 0
M  V30 6216 H 594.177 -2.23644 1.99508 0
M  V30 6217 H 591.738 -1.10638 1.18198 0
M  V30 6218 H 593.73 -4.04101 0.220136 0
M  V30 6219 H 592.3 -3.11203 -0.295211 0
M  V30 6220 H 591.52 -3.28121 2.18472 0
M  V30 6221 H 592.808 -4.47626 2.41885 0
M  V30 6222 H 592.206 -5.63064 -0.545494 0
M  V30 6223 H 590.763 -6.5134 -0.244877 0
M  V30 6224 N 594.196 -1.08629 -1.14182 0
M  V30 6225 C 595.442 -0.828415 -1.85766 0
M  V30 6226 C 595.797 0.638947 -1.81481 0
M  V30 6227 O 595.09 1.46386 -1.23619 0
M  V30 6228 C 595.284 -1.28734 -3.3341 0
M  V30 6229 C 595.113 -2.79778 -3.52071 0
M  V30 6230 C 593.883 -3.47554 -3.66789 0
M  V30 6231 C 596.081 -3.77945 -3.48801 0
M  V30 6232 N 594.063 -4.87107 -3.73631 0
M  V30 6233 C 595.434 -5.03406 -3.61914 0
M  V30 6234 C 597.489 -3.70917 -3.32152 0
M  V30 6235 C 596.192 -6.22673 -3.60098 0
M  V30 6236 C 598.218 -4.89662 -3.31641 0
M  V30 6237 C 597.58 -6.13962 -3.45296 0
M  V30 6238 H 593.679 -0.355884 -0.696327 0
M  V30 6239 H 596.263 -1.38508 -1.36834 0
M  V30 6240 H 594.434 -0.75822 -3.80927 0
M  V30 6241 H 596.166 -0.975649 -3.92764 0
M  V30 6242 H 592.921 -2.97972 -3.68116 0
M  V30 6243 H 593.345 -5.59775 -3.80763 0
M  V30 6244 H 597.987 -2.75749 -3.20504 0
M  V30 6245 H 595.705 -7.1815 -3.70522 0
M  V30 6246 H 599.291 -4.85914 -3.19968 0
M  V30 6247 H 598.171 -7.04307 -3.44851 0
M  V30 6248 N 595.674 1.31259 -0.872281 0
M  V30 6249 C 596.899 2.0133 -0.498099 0
M  V30 6250 C 597.324 1.65031 0.902568 0
M  V30 6251 O 596.682 0.860164 1.59596 0
M  V30 6252 C 596.73 3.54411 -0.665205 0
M  V30 6253 O 595.834 4.11347 0.294473 0
M  V30 6254 H 595.175 0.633844 -0.197832 0
M  V30 6255 H 597.705 1.67402 -1.17633 0
M  V30 6256 H 597.715 4.04147 -0.559373 0
M  V30 6257 H 596.39 3.80171 -1.68651 0
M  V30 6258 H 594.967 3.72624 0.143403 0
M  V30 6259 N 597.152 0.631951 1.44375 0
M  V30 6260 C 598.563 0.219036 1.85411 0
M  V30 6261 C 598.914 -1.22974 1.52879 0
M  V30 6262 O 598.039 -1.93579 0.967266 0
M  V30 6263 C 598.634 0.39075 3.36539 0
M  V30 6264 C 597.193 0.0323351 3.76386 0
M  V30 6265 C 596.34 0.703744 2.68221 0
M  V30 6266 H 599.291 0.837056 1.3483 0
M  V30 6267 H 599.312 -0.370056 3.78696 0
M  V30 6268 H 598.824 1.44527 3.60185 0
M  V30 6269 H 596.925 -1.02042 3.58355 0
M  V30 6270 H 597.038 0.442969 4.77048 0
M  V30 6271 H 595.402 0.138974 2.54321 0
M  V30 6272 H 596.185 1.76088 2.947 0
M  V30 6273 N 598.631 -1.53133 0.372548 0
M  V30 6274 C 599.871 -2.03267 -0.214943 0
M  V30 6275 C 600.235 -1.25362 -1.45425 0
M  V30 6276 O 601.436 -1.65536 -2.11781 0
M  V30 6277 C 599.707 -3.53985 -0.492897 0
M  V30 6278 S 601.266 -4.25977 -1.05307 0
M  V30 6279 H 598.084 -0.708289 -0.062029 0
M  V30 6280 H 600.686 -1.88539 0.517025 0
M  V30 6281 H 599.39 -4.08282 0.416442 0
M  V30 6282 H 598.921 -3.72887 -1.25375 0
M  V30 6283 H 600.936 -4.37731 -2.33679 0
M  V30 6284 N 600.109 -0.101901 -1.5727 0
M  V30 6285 C 601.072 0.840129 -2.13247 0
M  V30 6286 C 602.072 1.20625 -1.06331 0
M  V30 6287 O 603.262 1.13456 -1.32186 0
M  V30 6288 C 600.394 2.13372 -2.65867 0
M  V30 6289 H 601.587 0.353945 -2.97804 0
M  V30 6290 H 599.14 0.147167 -1.55606 0
M  V30 6291 H 599.875 2.66461 -1.84849 0
M  V30 6292 H 599.66 1.88085 -3.44044 0
M  V30 6293 H 601.15 2.80748 -3.09145 0
M  V30 6294 N 601.587 1.56661 0.17182 0
M  V30 6295 C 602.998 1.71652 0.734329 0
M  V30 6296 C 603.349 0.712335 1.82812 0
M  V30 6297 O 602.474 -0.126401 2.16031 0
M  V30 6298 C 603.069 3.11226 1.3388 0
M  V30 6299 C 601.628 3.27904 1.84813 0
M  V30 6300 C 600.775 2.67603 0.726917 0
M  V30 6301 H 603.726 1.5861 -0.0535665 0
M  V30 6302 H 603.747 3.09849 2.20849 0
M  V30 6303 H 603.259 3.8429 0.54249 0
M  V30 6304 H 601.36 2.59796 2.6709 0
M  V30 6305 H 601.473 4.35637 1.99392 0
M  V30 6306 H 599.837 2.274 1.14723 0
M  V30 6307 H 600.62 3.43252 -0.0575334 0
M  V30 6308 N 603.065 -0.440357 1.51323 0
M  V30 6309 C 603.998 -1.55414 1.67098 0
M  V30 6310 C 604.976 -1.54108 0.518599 0
M  V30 6311 O 606.16 -1.7328 0.742054 0
M  V30 6312 C 603.287 -2.93996 1.68179 0
M  V30 6313 C 602.333 -3.13338 2.89347 0
M  V30 6314 S 603.166 -2.89957 4.50206 0
M  V30 6315 C 604.322 -4.30826 4.54027 0
M  V30 6316 H 604.555 -1.41798 2.61306 0
M  V30 6317 H 602.088 -0.629841 1.40969 0
M  V30 6318 H 604.046 -3.73878 1.69487 0
M  V30 6319 H 602.707 -3.04976 0.751542 0
M  V30 6320 H 601.9 -4.14652 2.86495 0
M  V30 6321 H 601.502 -2.41276 2.85766 0
M  V30 6322 H 603.794 -5.23977 4.29481 0
M  V30 6323 H 604.737 -4.38712 5.55822 0
M  V30 6324 H 605.145 -4.1434 3.83384 0
M  V30 6325 N 604.543 -1.41418 -0.695603 0
M  V30 6326 C 605.768 -1.44329 -1.48942 0
M  V30 6327 C 606.193 -0.0501579 -1.88033 0
M  V30 6328 O 605.551 0.946598 -1.54626 0
M  V30 6329 C 605.599 -2.3578 -2.72837 0
M  V30 6330 O 604.703 -1.81482 -3.70322 0
M  V30 6331 H 604.044 -0.489838 -0.44828 0
M  V30 6332 H 606.574 -1.85878 -0.855014 0
M  V30 6333 H 606.584 -2.51654 -3.21145 0
M  V30 6334 H 605.259 -3.37005 -2.43722 0
M  V30 6335 H 603.836 -1.75058 -3.29255 0
M  V30 6336 N 606.021 0.929856 -1.27246 0
M  V30 6337 C 607.267 1.6798 -1.13625 0
M  V30 6338 C 607.6 1.91586 0.317589 0
M  V30 6339 O 606.875 1.50467 1.23247 0
M  V30 6340 C 607.158 3.04766 -1.91806 0
M  V30 6341 C 607.011 2.88415 -3.45162 0
M  V30 6342 C 608.33 4.05063 -1.72082 0
M  V30 6343 H 605.449 0.609632 -0.414147 0
M  V30 6344 H 608.091 1.0792 -1.56376 0
M  V30 6345 H 606.241 3.56034 -1.55474 0
M  V30 6346 H 607.913 2.44282 -3.91311 0
M  V30 6347 H 606.156 2.23802 -3.71611 0
M  V30 6348 H 606.827 3.85482 -3.95105 0
M  V30 6349 H 609.303 3.62798 -2.03757 0
M  V30 6350 H 608.179 4.98765 -2.29182 0
M  V30 6351 H 608.44 4.37021 -0.668206 0
M  V30 6352 N 607.499 1.09233 1.13605 0
M  V30 6353 C 608.91 0.846839 1.6639 0
M  V30 6354 C 609.261 -0.625031 1.85978 0
M  V30 6355 O 608.386 -1.48173 1.57714 0
M  V30 6356 C 608.981 1.5307 3.0225 0
M  V30 6357 C 607.54 1.33223 3.52035 0
M  V30 6358 C 606.687 1.58806 2.27323 0
M  V30 6359 H 609.638 1.25175 0.975541 0
M  V30 6360 H 609.659 0.96267 3.68121 0
M  V30 6361 H 609.171 2.60192 2.87961 0
M  V30 6362 H 607.272 0.282091 3.71531 0
M  V30 6363 H 607.385 2.0657 4.32279 0
M  V30 6364 H 605.749 1.01007 2.33815 0
M  V30 6365 H 606.532 2.67153 2.15602 0
M  V30 6366 N 608.977 -1.30795 0.87923 0
M  V30 6367 C 610.393 -1.48981 0.57243 0
M  V30 6368 C 610.593 -1.80719 -0.891236 0
M  V30 6369 O 609.649 -1.89136 -1.67283 0
M  V30 6370 C 610.962 -2.61721 1.48063 0
M  V30 6371 C 612.51 -2.75603 1.48365 0
M  V30 6372 C 612.985 -3.91449 2.37763 0
M  V30 6373 N 614.476 -3.98751 2.35695 0
M  V30 6374 C 615.211 -4.87684 3.01583 0
M  V30 6375 N 614.707 -5.81454 3.76674 0
M  V30 6376 N 616.5 -4.81005 2.90844 0
M  V30 6377 H 608.651 -1.08465 1.82617 0
M  V30 6378 H 610.914 -0.536813 0.781368 0
M  V30 6379 H 610.62 -2.45073 2.52254 0
M  V30 6380 H 610.494 -3.58071 1.18596 0
M  V30 6381 H 612.881 -2.9166 0.44927 0
M  V30 6382 H 612.962 -1.79891 1.81859 0
M  V30 6383 H 612.606 -3.76149 3.41283 0
M  V30 6384 H 612.536 -4.86487 2.01589 0
M  V30 6385 H 615.027 -3.31668 1.81121 0
M  V30 6386 H 615.34 -6.46063 4.24054 0
M  V30 6387 H 613.685 -5.81403 3.80782 0
M  V30 6388 H 616.876 -4.06728 2.31711 0
M  V30 6389 H 617.049 -5.50107 3.42471 0
M  V30 6390 N 610.455 -0.639598 -1.44038 0
M  V30 6391 C 611.403 0.0723409 -2.32487 0
M  V30 6392 C 612.397 0.827129 -1.47834 0
M  V30 6393 O 613.603 0.73907 -1.64127 0
M  V30 6394 H 609.978 0.0421696 -0.750817 0
M  V30 6395 H 611.949 -0.691593 -2.90275 0
M  V30 6396 C 610.698 1.03452 -3.31953 0
M  V30 6397 H 610.021 0.46315 -3.97108 0
M  V30 6398 H 611.461 1.502 -3.96505 0
M  V30 6399 C 609.92 2.12392 -2.61518 0
M  V30 6400 O 610.45 3.2059 -2.42044 0
M  V30 6401 N 608.656 1.88563 -2.21116 0
M  V30 6402 H 608.203 1.00577 -2.37154 0
M  V30 6403 H 608.161 2.61651 -1.74316 0
M  V30 6404 N 611.933 1.52934 -0.380664 0
M  V30 6405 C 613.349 1.59571 -0.0302429 0
M  V30 6406 C 613.549 1.39509 1.45394 0
M  V30 6407 O 612.605 1.20777 2.21741 0
M  V30 6408 C 613.918 2.96519 -0.499691 0
M  V30 6409 C 615.466 3.09672 -0.455204 0
M  V30 6410 C 615.941 4.49056 -0.900703 0
M  V30 6411 N 617.432 4.55215 -0.856367 0
M  V30 6412 C 618.167 5.61282 -1.17259 0
M  V30 6413 N 617.663 6.75035 -1.55885 0
M  V30 6414 N 619.456 5.51343 -1.0944 0
M  V30 6415 H 611.607 1.64224 -1.347 0
M  V30 6416 H 613.87 0.771033 -0.551554 0
M  V30 6417 H 613.576 3.16388 -1.53595 0
M  V30 6418 H 613.45 3.77052 0.105789 0
M  V30 6419 H 615.837 2.89504 0.571949 0
M  V30 6420 H 615.918 2.31113 -1.09638 0
M  V30 6421 H 615.562 4.69964 -1.92604 0
M  V30 6422 H 615.492 5.26068 -0.236629 0
M  V30 6423 H 617.983 3.73546 -0.572013 0
M  V30 6424 H 618.296 7.51926 -1.784 0
M  V30 6425 H 616.641 6.76388 -1.59764 0
M  V30 6426 H 619.832 4.61356 -0.791713 0
M  V30 6427 H 620.005 6.33905 -1.34417 0
M  V30 6428 N 613.412 0.11024 1.57214 0
M  V30 6429 C 614.661 -0.549638 1.94067 0
M  V30 6430 C 614.974 -1.68388 0.995234 0
M  V30 6431 O 616.18 -2.40593 1.25807 0
M  V30 6432 C 614.636 -1.02912 3.44873 0
M  V30 6433 C 614.244 0.0761861 4.47935 0
M  V30 6434 C 615.988 -1.66087 3.9066 0
M  V30 6435 C 613.895 -0.419502 5.8991 0
M  V30 6436 H 612.825 -0.209092 0.724428 0
M  V30 6437 H 615.476 0.188683 1.82527 0
M  V30 6438 H 613.858 -1.82159 3.51616 0
M  V30 6439 H 615.032 0.852185 4.52851 0
M  V30 6440 H 613.347 0.614052 4.11847 0
M  V30 6441 H 615.944 -2.04272 4.94143 0
M  V30 6442 H 616.287 -2.53591 3.30148 0
M  V30 6443 H 616.82 -0.933959 3.86681 0
M  V30 6444 H 613.559 0.419277 6.54158 0
M  V30 6445 H 613.079 -1.16217 5.88433 0
M  V30 6446 H 614.758 -0.883577 6.40938 0
M  V30 6447 N 614.89 -1.56749 -0.16351 0
M  V30 6448 C 616.138 -1.82074 -0.87713 0
M  V30 6449 C 616.459 -0.688503 -1.82441 0
M  V30 6450 O 615.729 0.291085 -1.93725 0
M  V30 6451 H 614.309 -0.671677 -0.326893 0
M  V30 6452 H 616.971 -1.9423 -0.161459 0
M  V30 6453 H 616.067 -2.76407 -1.44934 0
M  V30 6454 N 616.368 0.432326 -1.51554 0
M  V30 6455 C 617.614 1.18309 -1.64714 0
M  V30 6456 C 617.947 1.90745 -0.364696 0
M  V30 6457 O 617.222 1.8381 0.635936 0
M  V30 6458 C 617.505 2.1961 -2.85383 0
M  V30 6459 C 617.358 1.51223 -4.23617 0
M  V30 6460 C 618.677 3.20538 -3.01569 0
M  V30 6461 H 615.796 0.428751 -0.599451 0
M  V30 6462 H 618.438 0.471689 -1.84052 0
M  V30 6463 H 616.588 2.8028 -2.69027 0
M  V30 6464 H 618.26 0.938516 -4.51652 0
M  V30 6465 H 616.503 0.814501 -4.26085 0
M  V30 6466 H 617.174 2.25024 -5.04052 0
M  V30 6467 H 619.65 2.69926 -3.16669 0
M  V30 6468 H 618.526 3.88706 -3.87555 0
M  V30 6469 H 618.787 3.86933 -2.13859 0
M  V30 6470 N 617.846 1.41785 0.688094 0
M  V30 6471 C 619.094 1.41264 1.4453 0
M  V30 6472 C 619.415 0.0252946 1.94984 0
M  V30 6473 O 618.685 -0.934081 1.72197 0
M  V30 6474 H 617.265 0.519998 0.536294 0
M  V30 6475 H 619.927 1.7709 0.813941 0
M  V30 6476 H 619.023 2.10439 2.30482 0
M  V30 6477 N 619.324 -0.923095 1.27737 0
M  V30 6478 C 620.57 -1.67375 1.14514 0
M  V30 6479 C 620.903 -1.91751 -0.307424 0
M  V30 6480 O 620.178 -1.51119 -1.22447 0
M  V30 6481 C 620.461 -3.03745 1.9342 0
M  V30 6482 C 620.314 -2.86581 3.46686 0
M  V30 6483 C 621.633 -4.04144 1.74228 0
M  V30 6484 H 618.752 -0.607427 0.417374 0
M  V30 6485 H 621.394 -1.07089 1.56946 0
M  V30 6486 H 619.544 -3.55204 1.5736 0
M  V30 6487 H 621.216 -2.42203 3.92601 0
M  V30 6488 H 619.459 -2.21829 3.72793 0
M  V30 6489 H 620.13 -3.83381 3.97143 0
M  V30 6490 H 622.606 -3.61712 2.05678 0
M  V30 6491 H 621.482 -4.97543 2.31824 0
M  V30 6492 H 621.743 -4.36661 0.691373 0
M  V30 6493 N 620.802 -1.09834 -1.13024 0
M  V30 6494 C 622.051 -0.831806 -1.83749 0
M  V30 6495 C 622.364 0.644763 -1.84668 0
M  V30 6496 O 623.57 1.02697 -2.51327 0
M  V30 6497 C 622.026 -1.43817 -3.29916 0
M  V30 6498 C 621.634 -2.94759 -3.37374 0
M  V30 6499 C 623.378 -1.25077 -4.05655 0
M  V30 6500 C 621.285 -3.48461 -4.77838 0
M  V30 6501 H 620.215 -0.30751 -0.688443 0
M  V30 6502 H 622.866 -1.32156 -1.27307 0
M  V30 6503 H 621.248 -0.876106 -3.86187 0
M  V30 6504 H 622.422 -3.57228 -2.91076 0
M  V30 6505 H 620.737 -3.12581 -2.75103 0
M  V30 6506 H 623.334 -1.62649 -5.09362 0
M  V30 6507 H 623.677 -0.191782 -4.15858 0
M  V30 6508 H 624.21 -1.78057 -3.55725 0
M  V30 6509 H 620.949 -4.53998 -4.72828 0
M  V30 6510 H 620.469 -2.90757 -5.24615 0
M  V30 6511 H 622.148 -3.45914 -5.46766 0
M  V30 6512 N 622.28 1.30327 -0.886154 0
M  V30 6513 C 623.557 1.90922 -0.425217 0
M  V30 6514 C 623.937 1.80533 1.09413 0
M  V30 6515 O 623.285 1.2233 1.92996 0
M  V30 6516 C 623.495 3.36529 -0.924638 0
M  V30 6517 C 624.843 4.13598 -0.960305 0
M  V30 6518 O 625.867 3.45377 -0.871382 0
M  V30 6519 O 624.726 5.35482 -1.09184 0
M  V30 6520 H 621.82 0.81668 -0.130238 0
M  V30 6521 H 624.366 1.38886 -0.975132 0
M  V30 6522 H 623.138 3.38181 -1.96849 0
M  V30 6523 H 622.761 3.96021 -0.353955 0
M  V30 6524 N 623.758 0.647228 1.43697 0
M  V30 6525 C 625.006 0.157876 2.01482 0
M  V30 6526 C 625.327 -1.23039 1.51282 0
M  V30 6527 O 624.597 -1.82071 0.722982 0
M  V30 6528 H 623.177 0.0553745 0.744945 0
M  V30 6529 H 625.839 0.83755 1.75986 0
M  V30 6530 H 624.935 0.137895 3.11795 0
M  V30 6531 N 625.236 -1.5273 0.388769 0
M  V30 6532 C 626.186 -2.23238 -0.463567 0
M  V30 6533 C 627.17 -1.23606 -1.03007 0
M  V30 6534 O 628.362 -1.48945 -0.956261 0
M  V30 6535 C 625.491 -3.04228 -1.5906 0
M  V30 6536 C 624.577 -4.11255 -1.03587 0
M  V30 6537 N 624.968 -5.0538 -0.206038 0
M  V30 6538 C 623.266 -4.26376 -1.30841 0
M  V30 6539 C 623.967 -5.81613 0.100359 0
M  V30 6540 N 622.943 -5.41264 -0.503447 0
M  V30 6541 H 626.745 -2.93367 0.176978 0
M  V30 6542 H 624.259 -1.61188 0.198046 0
M  V30 6543 H 626.256 -3.53277 -2.21362 0
M  V30 6544 H 624.916 -2.35634 -2.23398 0
M  V30 6545 H 625.927 -5.17663 0.156659 0
M  V30 6546 H 622.604 -3.69011 -1.95287 0
M  V30 6547 H 623.994 -6.67442 0.772676 0
M  V30 6548 N 626.714 -0.118576 -1.57153 0
M  V30 6549 C 627.963 0.539339 -1.94355 0
M  V30 6550 C 628.276 1.67858 -1.00415 0
M  V30 6551 O 629.482 2.39922 -1.27081 0
M  V30 6552 C 627.938 1.01082 -3.45414 0
M  V30 6553 C 627.546 -0.0999402 -4.47889 0
M  V30 6554 C 629.29 1.64013 -3.91535 0
M  V30 6555 C 627.197 0.388212 -5.90124 0
M  V30 6556 H 626.127 0.205247 -0.725527 0
M  V30 6557 H 628.778 -0.19836 -1.82425 0
M  V30 6558 H 627.16 1.80292 -3.52577 0
M  V30 6559 H 628.334 -0.876189 -4.52393 0
M  V30 6560 H 626.649 -0.635885 -4.11516 0
M  V30 6561 H 629.246 2.01649 -4.95219 0
M  V30 6562 H 629.589 2.51836 -3.31488 0
M  V30 6563 H 630.122 0.913439 -3.87171 0
M  V30 6564 H 626.861 -0.453963 -6.53926 0
M  V30 6565 H 626.381 1.13095 -5.89041 0
M  V30 6566 H 628.06 0.849574 -6.41398 0
M  V30 6567 N 628.193 1.56834 0.155195 0
M  V30 6568 C 629.423 1.86778 0.883044 0
M  V30 6569 C 629.831 0.703824 1.75622 0
M  V30 6570 O 629.174 -0.33581 1.80605 0
M  V30 6571 C 629.236 3.1133 1.79761 0
M  V30 6572 C 628.9 4.43504 1.10242 0
M  V30 6573 C 629.897 5.17859 0.460204 0
M  V30 6574 C 627.582 4.90233 1.09437 0
M  V30 6575 C 629.576 6.37144 -0.180782 0
M  V30 6576 C 627.263 6.09444 0.449569 0
M  V30 6577 C 628.261 6.82744 -0.186888 0
M  V30 6578 O 627.949 7.99692 -0.821486 0
M  V30 6579 H 627.681 0.62352 0.261149 0
M  V30 6580 H 630.235 2.04813 0.155204 0
M  V30 6581 H 628.465 2.89282 2.56618 0
M  V30 6582 H 630.154 3.27587 2.39669 0
M  V30 6583 H 630.92 4.8283 0.458289 0
M  V30 6584 H 626.799 4.33109 1.57917 0
M  V30 6585 H 630.343 6.94296 -0.678154 0
M  V30 6586 H 626.24 6.43936 0.449123 0
M  V30 6587 H 627.008 8.15306 -0.722337 0
M  V30 6588 N 629.671 -0.424282 1.51781 0
M  V30 6589 C 630.634 -1.49848 1.73431 0
M  V30 6590 C 631.634 -1.49016 0.604225 0
M  V30 6591 O 632.824 -1.50808 0.871935 0
M  V30 6592 C 629.956 -2.89332 1.80277 0
M  V30 6593 H 631.149 -1.3195 2.69312 0
M  V30 6594 H 628.702 -0.653809 1.41968 0
M  V30 6595 H 629.437 -3.12618 0.862568 0
M  V30 6596 H 629.222 -2.9134 2.62419 0
M  V30 6597 H 630.712 -3.67233 1.98821 0
M  V30 6598 N 631.149 -1.42148 -0.680565 0
M  V30 6599 C 632.395 -1.42521 -1.44277 0
M  V30 6600 C 632.728 -0.0393718 -1.9416 0
M  V30 6601 O 632.003 0.935425 -1.70529 0
M  V30 6602 C 632.286 -2.44475 -2.64394 0
M  V30 6603 C 632.139 -3.92226 -2.20179 0
M  V30 6604 C 633.458 -2.43491 -3.66606 0
M  V30 6605 H 630.577 -0.518985 -0.523282 0
M  V30 6606 H 633.219 -1.73524 -0.773914 0
M  V30 6607 H 631.369 -2.18168 -3.21458 0
M  V30 6608 H 633.041 -4.29493 -1.68327 0
M  V30 6609 H 631.284 -4.0637 -1.5181 0
M  V30 6610 H 631.955 -4.59133 -3.06433 0
M  V30 6611 H 634.431 -2.66872 -3.19247 0
M  V30 6612 H 633.307 -3.16816 -4.4824 0
M  V30 6613 H 633.568 -1.45881 -4.17338 0
M  V30 6614 N 632.627 0.916307 -1.28225 0
M  V30 6615 C 633.875 1.6619 -1.15002 0
M  V30 6616 C 634.196 1.92642 0.302329 0
M  V30 6617 O 633.466 1.54076 1.20985 0
M  V30 6618 H 632.046 0.615964 -0.422608 0
M  V30 6619 H 634.708 1.09963 -1.60917 0
M  V30 6620 H 633.804 2.62533 -1.68769 0
M  V30 6621 N 634.105 1.10431 1.1244 0
M  V30 6622 C 635.353 0.845045 1.83585 0
M  V30 6623 C 635.674 -0.631168 1.84503 0
M  V30 6624 O 634.944 -1.45825 1.30813 0
M  V30 6625 H 633.524 0.309628 0.679809 0
M  V30 6626 H 636.186 1.39458 1.36153 0
M  V30 6627 H 635.282 1.20786 2.8778 0
M  V30 6628 N 635.583 -1.29855 0.893053 0
M  V30 6629 C 636.808 -2.00512 0.530066 0
M  V30 6630 C 637.233 -1.66446 -0.876199 0
M  V30 6631 O 636.591 -0.885446 -1.58207 0
M  V30 6632 C 636.639 -3.53308 0.721505 0
M  V30 6633 O 635.743 -4.11764 -0.228994 0
M  V30 6634 H 635.084 -0.630617 0.207891 0
M  V30 6635 H 637.614 -1.6551 1.20282 0
M  V30 6636 H 637.624 -4.03206 0.623599 0
M  V30 6637 H 636.299 -3.77439 1.74678 0
M  V30 6638 H 634.876 -3.72805 -0.0841034 0
M  V30 6639 N 637.061 -0.65484 -1.43351 0
M  V30 6640 C 638.011 0.0581325 -2.27926 0
M  V30 6641 C 638.995 0.793188 -1.3999 0
M  V30 6642 O 640.187 0.675387 -1.63608 0
M  V30 6643 C 637.316 1.02272 -3.27712 0
M  V30 6644 C 636.402 0.286048 -4.23134 0
M  V30 6645 N 636.793 -0.698298 -5.00957 0
M  V30 6646 C 635.091 0.527272 -4.42872 0
M  V30 6647 C 635.792 -1.1357 -5.70506 0
M  V30 6648 N 634.768 -0.469631 -5.41568 0
M  V30 6649 H 638.57 -0.697182 -2.85511 0
M  V30 6650 H 636.084 -0.482252 -1.55074 0
M  V30 6651 H 638.081 1.5483 -3.87083 0
M  V30 6652 H 636.741 1.77807 -2.71688 0
M  V30 6653 H 637.752 -1.07708 -5.06576 0
M  V30 6654 H 634.429 1.26367 -3.97916 0
M  V30 6655 H 635.819 -1.95027 -6.42973 0
M  V30 6656 N 638.539 1.52521 -0.396863 0
M  V30 6657 C 639.787 2.01274 0.182536 0
M  V30 6658 C 640.108 1.28485 1.46685 0
M  V30 6659 O 639.378 0.407134 1.91623 0
M  V30 6660 H 637.958 0.743671 0.0704442 0
M  V30 6661 H 640.62 1.87547 -0.530289 0
M  V30 6662 H 639.716 3.09687 0.387385 0
M  V30 6663 N 640.017 0.126909 1.57088 0
M  V30 6664 C 641.257 -0.53216 1.97351 0
M  V30 6665 C 641.621 -1.63342 1.00913 0
M  V30 6666 O 642.822 -2.35194 1.30144 0
M  V30 6667 C 641.093 -1.04385 3.41817 0
M  V30 6668 S 642.652 -1.71033 4.04095 0
M  V30 6669 H 639.47 -0.172724 0.689701 0
M  V30 6670 H 642.072 0.213865 1.94327 0
M  V30 6671 H 640.776 -0.231289 4.09748 0
M  V30 6672 H 640.307 -1.82496 3.48509 0
M  V30 6673 H 642.322 -2.99656 3.95501 0
M  V30 6674 N 641.495 -1.56914 -0.146875 0
M  V30 6675 C 642.744 -1.82546 -0.857898 0
M  V30 6676 C 643.057 -0.708169 -1.8233 0
M  V30 6677 O 644.263 -0.850093 -2.57848 0
M  V30 6678 C 642.719 -3.23548 -1.57623 0
M  V30 6679 C 642.327 -4.43212 -0.653224 0
M  V30 6680 C 644.071 -3.58453 -2.27402 0
M  V30 6681 C 641.978 -5.75237 -1.37318 0
M  V30 6682 H 640.908 -0.680786 -0.32411 0
M  V30 6683 H 643.559 -1.83166 -0.110639 0
M  V30 6684 H 641.941 -3.17315 -2.36912 0
M  V30 6685 H 643.115 -4.60682 0.104452 0
M  V30 6686 H 641.43 -4.16351 -0.0638336 0
M  V30 6687 H 644.027 -4.54349 -2.81907 0
M  V30 6688 H 644.37 -2.84516 -3.03901 0
M  V30 6689 H 644.903 -3.66347 -1.55032 0
M  V30 6690 H 641.642 -6.52269 -0.650041 0
M  V30 6691 H 641.162 -5.61703 -2.10357 0
M  V30 6692 H 642.841 -6.18039 -1.91406 0
M  V30 6693 N 642.974 0.416227 -1.52004 0
M  V30 6694 C 643.924 1.50558 -1.7122 0
M  V30 6695 C 644.908 1.50613 -0.56609 0
M  V30 6696 O 646.1 1.56709 -0.822874 0
M  V30 6697 C 643.229 2.88556 -1.85984 0
M  V30 6698 C 642.315 2.93177 -3.06445 0
M  V30 6699 N 642.706 2.67505 -4.29272 0
M  V30 6700 C 641.004 3.24343 -3.06133 0
M  V30 6701 C 641.705 2.78511 -5.10692 0
M  V30 6702 N 640.681 3.11087 -4.45787 0
M  V30 6703 H 644.483 1.29494 -2.63834 0
M  V30 6704 H 641.997 0.62384 -1.4994 0
M  V30 6705 H 643.994 3.66954 -1.97865 0
M  V30 6706 H 642.654 3.10624 -0.945654 0
M  V30 6707 H 643.665 2.42033 -4.57865 0
M  V30 6708 H 640.342 3.52051 -2.24425 0
M  V30 6709 H 641.732 2.62438 -6.18527 0
M  V30 6710 N 644.452 1.42507 0.673017 0
M  V30 6711 C 645.402 1.4258 1.77919 0
M  V30 6712 C 646.386 0.296885 1.58137 0
M  V30 6713 O 647.578 0.539243 1.68586 0
M  V30 6714 C 644.707 1.33238 3.1639 0
M  V30 6715 C 643.793 2.51081 3.41788 0
M  V30 6716 N 644.184 3.76498 3.37761 0
M  V30 6717 C 642.482 2.4538 3.72431 0
M  V30 6718 C 643.183 4.54784 3.62693 0
M  V30 6719 N 642.159 3.8522 3.83544 0
M  V30 6720 H 645.961 2.37442 1.73201 0
M  V30 6721 H 643.475 1.36881 0.873924 0
M  V30 6722 H 645.472 1.31372 3.9566 0
M  V30 6723 H 644.132 0.393794 3.22303 0
M  V30 6724 H 645.143 4.09068 3.17622 0
M  V30 6725 H 641.82 1.60109 3.85579 0
M  V30 6726 H 643.21 5.63774 3.65525 0
M  V30 6727 N 645.93 -0.909495 1.28709 0
M  V30 6728 C 646.878 -2.03381 1.12866 0
M  V30 6729 C 647.872 -1.69335 0.0468074 0
M  V30 6730 O 649.078 -1.78819 0.205891 0
M  V30 6731 H 645.453 -0.666452 0.348348 0
M  V30 6732 H 647.424 -2.13885 2.08077 0
M  V30 6733 C 646.173 -3.38092 0.811742 0
M  V30 6734 H 645.496 -3.64786 1.63619 0
M  V30 6735 H 646.936 -4.17477 0.740869 0
M  V30 6736 C 645.395 -3.33395 -0.484679 0
M  V30 6737 O 645.925 -3.72089 -1.5137 0
M  V30 6738 N 644.131 -2.86491 -0.486961 0
M  V30 6739 H 643.678 -2.55199 0.350877 0
M  V30 6740 H 643.636 -2.83731 -1.3544 0
M  V30 6741 N 647.408 -1.11026 -1.11852 0
M  V30 6742 C 648.633 -0.879064 -1.87849 0
M  V30 6743 C 649.058 0.565406 -1.79401 0
M  V30 6744 O 648.416 1.39886 -1.15333 0
M  V30 6745 C 648.464 -1.33985 -3.34784 0
M  V30 6746 O 647.568 -0.508803 -4.09249 0
M  V30 6747 H 646.909 -0.316992 -0.583448 0
M  V30 6748 H 649.439 -1.47863 -1.41413 0
M  V30 6749 H 649.449 -1.33248 -3.85628 0
M  V30 6750 H 648.124 -2.39172 -3.40249 0
M  V30 6751 H 646.701 -0.581913 -3.68332 0
M  V30 6752 N 648.886 1.2938 -0.899927 0
M  V30 6753 C 650.132 1.9584 -0.526742 0
M  V30 6754 C 650.465 1.70774 0.924651 0
M  V30 6755 O 649.74 1.02084 1.65557 0
M  V30 6756 C 650.023 3.50638 -0.820062 0
M  V30 6757 C 649.876 3.85161 -2.32317 0
M  V30 6758 C 651.195 4.3903 -0.30671 0
M  V30 6759 H 648.314 0.711322 -0.192848 0
M  V30 6760 H 650.956 1.52992 -1.12665 0
M  V30 6761 H 649.106 3.87265 -0.309491 0
M  V30 6762 H 650.778 3.58477 -2.9033 0
M  V30 6763 H 649.021 3.32696 -2.78381 0
M  V30 6764 H 649.692 4.93204 -2.47898 0
M  V30 6765 H 652.168 4.09396 -0.743908 0
M  V30 6766 H 651.044 5.46226 -0.541144 0
M  V30 6767 H 651.305 4.34937 0.792588 0
M  V30 6768 N 650.364 0.662433 1.43002 0
M  V30 6769 C 651.274 -0.0239199 2.34588 0
M  V30 6770 C 652.29 -0.802255 1.54402 0
M  V30 6771 O 653.466 -0.747401 1.87018 0
M  V30 6772 C 650.531 -0.972098 3.32793 0
M  V30 6773 C 649.592 -0.189673 4.28881 0
M  V30 6774 C 648.825 -1.09269 5.22395 0
M  V30 6775 O 649.048 -2.33209 5.20547 0
M  V30 6776 O 647.982 -0.560136 5.99288 0
M  V30 6777 H 651.808 0.730171 2.94792 0
M  V30 6778 H 649.393 0.422635 1.43297 0
M  V30 6779 H 651.275 -1.51676 3.93157 0
M  V30 6780 H 649.95 -1.70626 2.75079 0
M  V30 6781 H 648.857 0.398794 3.71968 0
M  V30 6782 H 650.19 0.50511 4.89601 0
M  V30 6783 N 651.842 -1.52309 0.404946 0
M  V30 6784 C 653.258 -1.59503 0.0556255 0
M  V30 6785 C 653.458 -1.41805 -1.43156 0
M  V30 6786 O 652.514 -1.2429 -2.19792 0
M  V30 6787 C 653.827 -2.95687 0.546801 0
M  V30 6788 C 655.375 -3.08909 0.504413 0
M  V30 6789 C 655.85 -4.47566 0.97203 0
M  V30 6790 N 657.341 -4.53795 0.928679 0
M  V30 6791 C 658.076 -5.59346 1.26174 0
M  V30 6792 N 657.572 -6.72469 1.66604 0
M  V30 6793 N 659.365 -5.49532 1.18198 0
M  V30 6794 H 651.516 -1.6206 1.37296 0
M  V30 6795 H 653.779 -0.762161 0.563751 0
M  V30 6796 H 653.485 -3.13905 1.58609 0
M  V30 6797 H 653.359 -3.77172 -0.0457905 0
M  V30 6798 H 655.746 -2.90378 -0.525819 0
M  V30 6799 H 655.827 -2.2934 1.13301 0
M  V30 6800 H 655.471 -4.6684 2.00057 0
M  V30 6801 H 655.401 -5.25625 0.320292 0
M  V30 6802 H 657.892 -3.72588 0.631369 0
M  V30 6803 H 658.205 -7.48993 1.9034 0
M  V30 6804 H 656.55 -6.73761 1.70504 0
M  V30 6805 H 659.741 -4.60038 0.865011 0
M  V30 6806 H 659.914 -6.31687 1.44485 0
M  V30 6807 N 653.32 -0.135238 -1.57019 0
M  V30 6808 C 654.55 0.525303 -1.9981 0
M  V30 6809 C 654.958 1.59724 -1.01415 0
M  V30 6810 O 654.301 1.837 -0.00130938 0
M  V30 6811 C 654.363 1.19578 -3.3903 0
M  V30 6812 C 654.027 0.269855 -4.56203 0
M  V30 6813 C 655.024 -0.497905 -5.1751 0
M  V30 6814 C 652.709 0.176188 -5.01991 0
M  V30 6815 C 654.703 -1.3469 -6.23007 0
M  V30 6816 C 652.39 -0.676422 -6.07345 0
M  V30 6817 C 653.388 -1.43658 -6.67721 0
M  V30 6818 O 653.076 -2.27501 -7.71037 0
M  V30 6819 H 652.808 0.142296 -0.660854 0
M  V30 6820 H 655.362 -0.223272 -2.04183 0
M  V30 6821 H 653.592 1.99176 -3.3146 0
M  V30 6822 H 655.281 1.75486 -3.66005 0
M  V30 6823 H 656.047 -0.435507 -4.83041 0
M  V30 6824 H 651.926 0.757583 -4.54733 0
M  V30 6825 H 655.47 -1.9407 -6.70062 0
M  V30 6826 H 651.367 -0.740154 -6.41243 0
M  V30 6827 H 652.135 -2.20619 -7.88206 0
M  V30 6828 N 654.798 1.5699 0.138552 0
M  V30 6829 C 655.708 2.02174 1.19008 0
M  V30 6830 C 656.724 0.938622 1.46512 0
M  V30 6831 O 657.9 1.24872 1.58016 0
M  V30 6832 C 654.965 2.40045 2.50159 0
M  V30 6833 C 654.026 3.62346 2.30226 0
M  V30 6834 C 653.259 3.98401 3.55123 0
M  V30 6835 O 653.482 3.35019 4.61647 0
M  V30 6836 O 652.416 4.91606 3.47285 0
M  V30 6837 H 656.242 2.91954 0.836452 0
M  V30 6838 H 653.827 1.45293 0.347907 0
M  V30 6839 H 655.709 2.65225 3.27465 0
M  V30 6840 H 654.384 1.53417 2.85035 0
M  V30 6841 H 653.291 3.42341 1.50843 0
M  V30 6842 H 654.624 4.49617 2.00262 0
M  V30 6843 N 656.276 -0.40816 1.52223 0
M  V30 6844 C 657.687 -0.986929 1.58482 0
M  V30 6845 C 658.038 -1.91521 0.425917 0
M  V30 6846 O 657.163 -2.11593 -0.453593 0
M  V30 6847 C 657.758 -1.7967 2.87235 0
M  V30 6848 C 656.317 -2.32549 2.9597 0
M  V30 6849 C 655.464 -1.12558 2.53428 0
M  V30 6850 H 658.415 -0.188362 1.57578 0
M  V30 6851 H 658.436 -2.65417 2.72642 0
M  V30 6852 H 657.948 -1.12082 3.71563 0
M  V30 6853 H 656.049 -3.03505 2.16137 0
M  V30 6854 H 656.162 -2.63348 4.00231 0
M  V30 6855 H 654.526 -1.47984 2.07299 0
M  V30 6856 H 655.309 -0.465351 3.40131 0
M  V30 6857 N 657.755 -1.42862 -0.66545 0
M  V30 6858 C 658.665 -1.49491 -1.80803 0
M  V30 6859 C 659.681 -0.382914 -1.69734 0
M  V30 6860 O 660.857 -0.635223 -1.9112 0
M  V30 6861 C 657.922 -1.40383 -3.17007 0
M  V30 6862 C 656.983 -2.62152 -3.39963 0
M  V30 6863 C 656.216 -2.53469 -4.69669 0
M  V30 6864 O 656.439 -1.57568 -5.48205 0
M  V30 6865 O 655.373 -3.43763 -4.94075 0
M  V30 6866 H 659.199 -2.45949 -1.78165 0
M  V30 6867 H 656.784 -1.24728 -0.822387 0
M  V30 6868 H 658.666 -1.377 -3.98267 0
M  V30 6869 H 657.341 -0.470546 -3.20262 0
M  V30 6870 H 656.248 -2.70409 -2.58515 0
M  V30 6871 H 657.581 -3.54411 -3.41546 0
M  V30 6872 N 659.233 0.902656 -1.29189 0
M  V30 6873 C 660.649 1.18296 -1.07137 0
M  V30 6874 C 660.849 2.00701 0.179223 0
M  V30 6875 O 659.905 2.3675 0.877812 0
M  V30 6876 C 661.218 1.90677 -2.32514 0
M  V30 6877 C 662.766 2.03515 -2.37804 0
M  V30 6878 C 663.241 2.79307 -3.62976 0
M  V30 6879 N 664.732 2.86862 -3.63681 0
M  V30 6880 C 665.467 3.46035 -4.57217 0
M  V30 6881 N 664.963 4.06399 -5.61081 0
M  V30 6882 N 666.756 3.43681 -4.44792 0
M  V30 6883 H 658.907 0.352765 -2.0945 0
M  V30 6884 H 661.17 0.21876 -0.922414 0
M  V30 6885 H 660.876 1.3756 -3.23682 0
M  V30 6886 H 660.75 2.91169 -2.39793 0
M  V30 6887 H 663.137 2.55809 -1.47125 0
M  V30 6888 H 663.218 1.02166 -2.34512 0
M  V30 6889 H 662.862 2.2769 -4.54004 0
M  V30 6890 H 662.792 3.80995 -3.63525 0
M  V30 6891 H 665.283 2.43987 -2.88581 0
M  V30 6892 H 665.596 4.49564 -6.2858 0
M  V30 6893 H 663.941 4.0487 -5.64894 0
M  V30 6894 H 667.132 2.9574 -3.62843 0
M  V30 6895 H 667.305 3.89503 -5.17872 0
M  V30 6896 N 660.711 1.11618 1.11262 0
M  V30 6897 C 661.988 0.777876 1.79467 0
M  V30 6898 C 662.368 -0.733774 1.97937 0
M  V30 6899 O 661.716 -1.66443 1.56554 0
M  V30 6900 C 661.926 1.5431 3.13032 0
M  V30 6901 C 663.274 1.72357 3.88044 0
M  V30 6902 O 664.298 1.5075 3.22727 0
M  V30 6903 O 663.157 2.08276 5.05256 0
M  V30 6904 H 660.251 0.282018 0.777428 0
M  V30 6905 H 662.797 1.21971 1.17988 0
M  V30 6906 H 661.569 2.57132 2.94956 0
M  V30 6907 H 661.192 1.09495 3.82226 0
M  V30 6908 N 662.189 -1.289 0.906776 0
M  V30 6909 C 663.099 -2.31256 0.394707 0
M  V30 6910 C 664.115 -1.66231 -0.514121 0
M  V30 6911 O 665.291 -1.97347 -0.401994 0
M  V30 6912 C 662.356 -3.44792 -0.363191 0
M  V30 6913 C 661.417 -4.25391 0.578012 0
M  V30 6914 C 660.65 -5.33506 -0.143811 0
M  V30 6915 O 660.873 -5.53786 -1.36665 0
M  V30 6916 O 659.807 -5.99673 0.5173 0
M  V30 6917 H 663.633 -2.77051 1.24405 0
M  V30 6918 H 661.218 -1.33466 0.671346 0
M  V30 6919 H 663.1 -4.139 -0.791503 0
M  V30 6920 H 661.775 -3.01093 -1.18848 0
M  V30 6921 H 660.682 -3.58899 1.05558 0
M  V30 6922 H 662.015 -4.72752 1.36992 0
M  V30 6923 N 663.667 -0.670007 -1.42649 0
M  V30 6924 C 664.913 -0.19923 -2.02422 0
M  V30 6925 C 665.268 1.17947 -1.52007 0
M  V30 6926 O 664.561 1.77939 -0.710512 0
M  V30 6927 C 664.755 -0.168298 -3.57004 0
M  V30 6928 C 664.584 -1.54246 -4.22419 0
M  V30 6929 C 663.354 -2.13904 -4.57792 0
M  V30 6930 C 665.552 -2.4842 -4.50324 0
M  V30 6931 N 663.534 -3.44151 -5.08364 0
M  V30 6932 C 664.905 -3.63317 -5.02395 0
M  V30 6933 C 666.96 -2.47011 -4.32308 0
M  V30 6934 C 665.663 -4.77051 -5.38345 0
M  V30 6935 C 667.689 -3.59838 -4.6933 0
M  V30 6936 C 667.051 -4.73462 -5.21549 0
M  V30 6937 H 663.15 -0.117717 -0.773089 0
M  V30 6938 H 665.734 -0.881955 -1.73579 0
M  V30 6939 H 663.905 0.483824 -3.85375 0
M  V30 6940 H 665.637 0.314914 -4.03473 0
M  V30 6941 H 662.392 -1.66441 -4.4339 0
M  V30 6942 H 662.816 -4.10846 -5.38084 0
M  V30 6943 H 667.458 -1.60394 -3.91195 0
M  V30 6944 H 665.176 -5.64347 -5.78393 0
M  V30 6945 H 668.762 -3.59969 -4.57071 0
M  V30 6946 H 667.642 -5.59321 -5.49663 0
M  V30 6947 N 665.145 1.52092 -0.413018 0
M  V30 6948 C 666.095 2.23947 0.427993 0
M  V30 6949 C 667.079 1.25229 1.01027 0
M  V30 6950 O 668.271 1.50448 0.932444 0
M  V30 6951 C 665.4 3.0672 1.542 0
M  V30 6952 C 664.486 4.12851 0.970307 0
M  V30 6953 N 664.877 5.05644 0.125611 0
M  V30 6954 C 663.175 4.28404 1.24042 0
M  V30 6955 C 663.876 5.8138 -0.192876 0
M  V30 6956 N 662.852 5.41996 0.417273 0
M  V30 6957 H 666.654 2.93048 -0.223628 0
M  V30 6958 H 664.168 1.60852 -0.223664 0
M  V30 6959 H 666.165 3.56754 2.15714 0
M  V30 6960 H 664.825 2.39159 2.19621 0
M  V30 6961 H 665.836 5.17348 -0.238995 0
M  V30 6962 H 662.513 3.72071 1.89391 0
M  V30 6963 H 663.903 6.66129 -0.878762 0
M  V30 6964 N 666.623 0.143563 1.56945 0
M  V30 6965 C 667.553 -0.7936 2.196 0
M  V30 6966 C 668.534 -1.25955 1.14321 0
M  V30 6967 O 669.719 -1.31773 1.42651 0
M  V30 6968 C 666.849 -2.03424 2.81489 0
M  V30 6969 C 665.803 -1.70519 3.92565 0
M  V30 6970 C 665.129 -3.01817 4.41373 0
M  V30 6971 C 666.429 -0.95449 5.13504 0
M  V30 6972 H 668.123 -0.271423 2.98167 0
M  V30 6973 H 665.669 -0.12911 1.4342 0
M  V30 6974 H 667.622 -2.69463 3.23987 0
M  V30 6975 H 666.346 -2.58008 2.00248 0
M  V30 6976 H 665.005 -1.06859 3.5068 0
M  V30 6977 H 664.653 -3.54386 3.56959 0
M  V30 6978 H 664.353 -2.80565 5.16292 0
M  V30 6979 H 665.877 -3.68934 4.86539 0
M  V30 6980 H 667.291 -1.5169 5.52868 0
M  V30 6981 H 665.688 -0.842035 5.94163 0
M  V30 6982 H 666.758 0.0544033 4.84869 0
M  V30 6983 N 668.101 -1.57061 -0.130224 0
M  V30 6984 C 669.347 -1.8453 -0.841216 0
M  V30 6985 C 669.68 -0.727666 -1.80052 0
M  V30 6986 O 668.955 0.267419 -1.92653 0
M  V30 6987 C 669.238 -3.22553 -1.60099 0
M  V30 6988 C 669.091 -4.44901 -0.662048 0
M  V30 6989 C 670.41 -3.58003 -2.55973 0
M  V30 6990 H 667.529 -0.671215 -0.304366 0
M  V30 6991 H 670.171 -1.89705 -0.105821 0
M  V30 6992 H 668.321 -3.18272 -2.22789 0
M  V30 6993 H 669.993 -4.61278 -0.0448559 0
M  V30 6994 H 668.236 -4.33791 0.0272253 0
M  V30 6995 H 668.907 -5.3812 -1.23006 0
M  V30 6996 H 671.383 -3.63002 -2.03393 0
M  V30 6997 H 670.259 -4.55576 -3.06172 0
M  V30 6998 H 670.52 -2.84833 -3.38116 0
M  V30 6999 N 669.579 0.400081 -1.52437 0
M  V30 7000 C 670.542 1.4707 -1.75793 0
M  V30 7001 C 671.542 1.48036 -0.627856 0
M  V30 7002 O 672.732 1.49401 -0.895817 0
M  V30 7003 C 669.864 2.86427 -1.84858 0
M  V30 7004 H 671.057 1.27649 -2.71377 0
M  V30 7005 H 668.61 0.631141 -1.42991 0
M  V30 7006 H 669.345 3.11207 -0.912194 0
M  V30 7007 H 669.13 2.87128 -2.6702 0
M  V30 7008 H 670.62 3.64023 -2.04638 0
M  V30 7009 N 671.057 1.43213 0.657864 0
M  V30 7010 C 672.468 1.39669 1.23893 0
M  V30 7011 C 672.819 0.0984217 1.95953 0
M  V30 7012 O 671.944 -0.8023 2.00978 0
M  V30 7013 C 672.539 2.53004 2.25332 0
M  V30 7014 C 671.098 2.5274 2.78926 0
M  V30 7015 C 670.245 2.30941 1.53497 0
M  V30 7016 H 673.196 1.52181 0.450172 0
M  V30 7017 H 673.217 2.24226 3.07413 0
M  V30 7018 H 672.729 3.4748 1.72856 0
M  V30 7019 H 670.83 1.6213 3.35477 0
M  V30 7020 H 670.943 3.50352 3.26787 0
M  V30 7021 H 669.307 1.7952 1.80678 0
M  V30 7022 H 670.09 3.27496 1.02963 0
M  V30 7023 N 672.536 -0.895792 1.29666 0
M  V30 7024 C 673.469 -2.00238 1.09453 0
M  V30 7025 C 674.447 -1.62599 0.00527044 0
M  V30 7026 O 675.631 -1.87847 0.156729 0
M  V30 7027 C 672.758 -3.32066 0.667054 0
M  V30 7028 C 671.804 -3.88691 1.7556 0
M  V30 7029 S 672.637 -4.17317 3.35569 0
M  V30 7030 C 673.793 -5.52181 2.94698 0
M  V30 7031 H 674.026 -2.17076 2.03138 0
M  V30 7032 H 671.559 -1.04287 1.13858 0
M  V30 7033 H 673.517 -4.08272 0.427136 0
M  V30 7034 H 672.178 -3.13101 -0.250256 0
M  V30 7035 H 671.371 -4.83918 1.40853 0
M  V30 7036 H 670.973 -3.19187 1.94924 0
M  V30 7037 H 673.265 -6.3281 2.41986 0
M  V30 7038 H 674.208 -5.91817 3.88791 0
M  V30 7039 H 674.616 -5.14225 2.32879 0
M  V30 7040 N 674.014 -1.12206 -1.10668 0
M  V30 7041 C 674.944 -0.810086 -2.18997 0
M  V30 7042 C 675.925 0.225065 -1.68604 0
M  V30 7043 O 677.11 0.086783 -1.94006 0
M  V30 7044 C 674.24 -0.261262 -3.46316 0
M  V30 7045 C 673.194 -1.2292 -4.09969 0
M  V30 7046 C 672.52 -0.540713 -5.31959 0
M  V30 7047 C 673.82 -2.58295 -4.53962 0
M  V30 7048 H 675.514 -1.7159 -2.45352 0
M  V30 7049 H 673.06 -0.82646 -1.17922 0
M  V30 7050 H 675.013 -0.0307522 -4.21389 0
M  V30 7051 H 673.737 0.679879 -3.19445 0
M  V30 7052 H 672.396 -1.44548 -3.369 0
M  V30 7053 H 672.044 0.405492 -5.01363 0
M  V30 7054 H 671.744 -1.18637 -5.75499 0
M  V30 7055 H 673.268 -0.319184 -6.09765 0
M  V30 7056 H 674.682 -2.40709 -5.20319 0
M  V30 7057 H 673.079 -3.18916 -5.08343 0
M  V30 7058 H 674.149 -3.16918 -3.67002 0
M  V30 7059 N 675.492 1.28418 -0.913599 0
M  V30 7060 C 676.72 1.99106 -0.562536 0
M  V30 7061 C 677.135 1.68273 0.856137 0
M  V30 7062 O 676.492 0.935401 1.56705 0
M  V30 7063 C 676.543 3.5338 -0.761903 0
M  V30 7064 O 676.264 3.83127 -2.12475 0
M  V30 7065 C 677.765 4.41328 -0.417651 0
M  V30 7066 H 674.985 0.635798 -0.214481 0
M  V30 7067 H 677.529 1.63618 -1.22676 0
M  V30 7068 H 675.684 3.8713 -0.144676 0
M  V30 7069 H 676.098 4.77763 -2.16431 0
M  V30 7070 H 677.572 5.48642 -0.607919 0
M  V30 7071 H 678.049 4.34422 0.646108 0
M  V30 7072 H 678.655 4.13074 -1.01241 0
M  V30 7073 N 676.97 0.677563 1.42291 0
M  V30 7074 C 678.386 0.347376 1.55774 0
M  V30 7075 C 678.586 -1.14703 1.65667 0
M  V30 7076 O 677.642 -1.93252 1.62512 0
M  V30 7077 C 678.955 1.08011 2.80631 0
M  V30 7078 C 680.503 1.06271 2.94407 0
M  V30 7079 C 680.978 1.77683 4.22129 0
M  V30 7080 N 682.469 1.74564 4.29047 0
M  V30 7081 C 683.204 2.26673 5.26694 0
M  V30 7082 N 682.7 2.87176 6.30477 0
M  V30 7083 N 684.493 2.17032 5.18511 0
M  V30 7084 H 676.644 1.64703 1.34114 0
M  V30 7085 H 678.907 0.694038 0.645768 0
M  V30 7086 H 678.613 2.13518 2.79469 0
M  V30 7087 H 678.487 0.647115 3.71608 0
M  V30 7088 H 680.874 0.0159658 2.95096 0
M  V30 7089 H 680.955 1.53461 2.04654 0
M  V30 7090 H 680.599 2.82327 4.22201 0
M  V30 7091 H 680.529 1.2794 5.10822 0
M  V30 7092 H 683.02 1.30436 3.54676 0
M  V30 7093 H 683.333 3.24551 7.01346 0
M  V30 7094 H 681.678 2.91247 6.31031 0
M  V30 7095 H 684.869 1.69451 4.36353 0
M  V30 7096 H 685.042 2.57948 5.94446 0
M  V30 7097 N 678.448 -1.51871 0.421078 0
M  V30 7098 C 679.864 -1.59435 0.0725398 0
M  V30 7099 C 680.064 -1.43315 -1.41644 0
M  V30 7100 O 679.12 -1.26614 -2.18461 0
M  V30 7101 C 680.433 -2.9509 0.578132 0
M  V30 7102 C 681.981 -3.08356 0.537149 0
M  V30 7103 C 682.456 -4.4651 1.01945 0
M  V30 7104 N 683.947 -4.52784 0.976758 0
M  V30 7105 C 684.682 -5.57976 1.32099 0
M  V30 7106 N 684.178 -6.70664 1.73727 0
M  V30 7107 N 685.971 -5.48248 1.2402 0
M  V30 7108 H 678.122 -1.60595 1.39007 0
M  V30 7109 H 680.385 -0.756138 0.571803 0
M  V30 7110 H 680.091 -3.12205 1.61929 0
M  V30 7111 H 679.965 -3.772 -0.00578374 0
M  V30 7112 H 682.352 -2.90919 -0.494991 0
M  V30 7113 H 682.433 -2.28125 1.15727 0
M  V30 7114 H 682.077 -4.64692 2.04997 0
M  V30 7115 H 682.007 -5.25256 0.376023 0
M  V30 7116 H 684.498 -3.71898 0.670851 0
M  V30 7117 H 684.811 -7.46932 1.98274 0
M  V30 7118 H 683.156 -6.71914 1.77641 0
M  V30 7119 H 686.347 -4.59095 0.913756 0
M  V30 7120 H 686.52 -6.30119 1.51176 0
M  V30 7121 N 679.926 -0.151884 -1.56866 0
M  V30 7122 C 681.175 0.497992 -1.95456 0
M  V30 7123 C 681.488 1.6569 -1.03953 0
M  V30 7124 O 682.694 2.37173 -1.32142 0
M  V30 7125 C 681.15 0.93732 -3.4748 0
M  V30 7126 C 680.758 -0.194921 -4.47576 0
M  V30 7127 C 682.502 1.55671 -3.94926 0
M  V30 7128 C 680.409 0.26295 -5.90815 0
M  V30 7129 H 679.339 0.189811 -0.729717 0
M  V30 7130 H 681.99 -0.237011 -1.81963 0
M  V30 7131 H 680.372 1.72773 -3.56322 0
M  V30 7132 H 681.546 -0.971951 -4.50433 0
M  V30 7133 H 679.861 -0.72303 -4.10075 0
M  V30 7134 H 682.458 1.91099 -4.99385 0
M  V30 7135 H 682.801 2.44748 -3.36755 0
M  V30 7136 H 683.334 0.831109 -3.89021 0
M  V30 7137 H 680.073 -0.592568 -6.52816 0
M  V30 7138 H 679.593 1.00575 -5.91308 0
M  V30 7139 H 681.272 0.713333 -6.43056 0
M  V30 7140 N 681.404 1.57128 0.121893 0
M  V30 7141 C 682.652 1.84335 0.828548 0
M  V30 7142 C 682.973 0.736632 1.80551 0
M  V30 7143 O 682.243 -0.23962 1.94429 0
M  V30 7144 H 680.823 0.680108 0.30897 0
M  V30 7145 H 683.485 1.9459 0.109906 0
M  V30 7146 H 682.581 2.80152 1.37554 0
M  V30 7147 N 682.882 -0.391992 1.52647 0
M  V30 7148 C 684.128 -1.139 1.67793 0
M  V30 7149 C 684.461 -1.89711 0.41514 0
M  V30 7150 O 683.736 -1.85431 -0.586979 0
M  V30 7151 C 684.019 -2.11966 2.91105 0
M  V30 7152 C 683.872 -1.39939 4.27478 0
M  V30 7153 C 685.191 -3.1243 3.09961 0
M  V30 7154 H 682.31 -0.412707 0.610608 0
M  V30 7155 H 684.952 -0.422725 1.85238 0
M  V30 7156 H 683.102 -2.73048 2.76364 0
M  V30 7157 H 684.774 -0.818439 4.53982 0
M  V30 7158 H 683.017 -0.701246 4.28095 0
M  V30 7159 H 683.688 -2.1158 5.09841 0
M  V30 7160 H 686.164 -2.61435 3.23714 0
M  V30 7161 H 685.04 -3.78294 3.97725 0
M  V30 7162 H 685.301 -3.81127 2.24042 0
M  V30 7163 N 684.36 -1.4356 -0.65026 0
M  V30 7164 C 685.608 -1.45046 -1.40734 0
M  V30 7165 C 685.929 -0.0769822 -1.94848 0
M  V30 7166 O 685.199 0.888098 -1.74613 0
M  V30 7167 H 683.779 -0.534034 -0.522318 0
M  V30 7168 H 686.441 -1.79186 -0.766703 0
M  V30 7169 H 685.537 -2.16476 -2.24822 0
M  V30 7170 N 685.838 0.888903 -1.30139 0
M  V30 7171 C 687.084 1.6428 -1.18912 0
M  V30 7172 C 687.417 1.92499 0.256477 0
M  V30 7173 O 686.692 1.54312 1.18397 0
M  V30 7174 C 686.975 2.9851 -2.01405 0
M  V30 7175 C 686.828 2.77288 -3.54163 0
M  V30 7176 C 688.147 3.99383 -1.84882 0
M  V30 7177 H 685.266 0.596148 -0.433333 0
M  V30 7178 H 687.908 1.0289 -1.5973 0
M  V30 7179 H 686.058 3.50907 -1.66722 0
M  V30 7180 H 687.73 2.31709 -3.98884 0
M  V30 7181 H 685.973 2.11867 -3.78543 0
M  V30 7182 H 686.644 3.72717 -4.07168 0
M  V30 7183 H 689.12 3.56132 -2.15196 0
M  V30 7184 H 687.996 4.91222 -2.44934 0
M  V30 7185 H 688.257 4.34674 -0.806902 0
M  V30 7186 N 687.317 1.12792 1.10072 0
M  V30 7187 C 688.28 0.802264 2.14701 0
M  V30 7188 C 689.28 -0.18515 1.59731 0
M  V30 7189 O 690.47 0.041109 1.74151 0
M  V30 7190 C 687.602 0.19285 3.40354 0
M  V30 7191 H 688.795 1.72932 2.45019 0
M  V30 7192 H 686.348 0.931662 1.25498 0
M  V30 7193 H 687.083 -0.743748 3.15656 0
M  V30 7194 H 686.868 0.903827 3.81541 0
M  V30 7195 H 688.358 -0.0183704 4.17596 0
M  V30 7196 N 688.795 -1.27931 0.920396 0
M  V30 7197 C 690.041 -1.94977 0.557832 0
M  V30 7198 C 690.374 -1.72224 -0.897365 0
M  V30 7199 O 689.649 -1.04705 -1.63912 0
M  V30 7200 C 689.932 -3.49289 0.875741 0
M  V30 7201 C 689.785 -3.81416 2.38416 0
M  V30 7202 C 691.104 -4.38486 0.376517 0
M  V30 7203 H 688.223 -0.708164 0.20414 0
M  V30 7204 H 690.865 -1.5118 1.15085 0
M  V30 7205 H 689.015 -3.86724 0.371062 0
M  V30 7206 H 690.687 -3.53813 2.95997 0
M  V30 7207 H 688.93 -3.28225 2.83639 0
M  V30 7208 H 689.601 -4.89198 2.55713 0
M  V30 7209 H 692.077 -4.08161 0.808945 0
M  V30 7210 H 690.953 -5.45296 0.627976 0
M  V30 7211 H 691.214 -4.36143 -0.723293 0
M  V30 7212 N 690.273 -0.685099 -1.4193 0
M  V30 7213 C 691.203 -0.0273506 -2.33484 0
M  V30 7214 C 692.184 0.778366 -1.51246 0
M  V30 7215 O 693.369 0.733449 -1.79817 0
M  V30 7216 C 690.499 0.917272 -3.34968 0
M  V30 7217 C 689.453 0.21941 -4.27437 0
M  V30 7218 C 688.779 1.27768 -5.1921 0
M  V30 7219 C 690.079 -0.907894 -5.14349 0
M  V30 7220 H 691.773 -0.791994 -2.88735 0
M  V30 7221 H 689.319 -0.382308 -1.38832 0
M  V30 7222 H 691.272 1.38657 -3.97935 0
M  V30 7223 H 689.996 1.71346 -2.78043 0
M  V30 7224 H 688.655 -0.229757 -3.65879 0
M  V30 7225 H 688.303 2.06612 -4.58607 0
M  V30 7226 H 688.003 0.815803 -5.81909 0
M  V30 7227 H 689.527 1.7477 -5.85054 0
M  V30 7228 H 690.941 -0.519348 -5.70943 0
M  V30 7229 H 689.338 -1.2962 -5.85934 0
M  V30 7230 H 690.408 -1.75218 -4.52136 0
M  V30 7231 N 691.751 1.51645 -0.429126 0
M  V30 7232 C 692.699 2.29119 0.400921 0
M  V30 7233 C 693.693 1.34628 1.02819 0
M  V30 7234 O 694.899 1.52004 0.964098 0
M  V30 7235 H 691.274 0.737273 0.148095 0
M  V30 7236 H 693.245 2.97144 -0.273457 0
M  V30 7237 C 691.994 3.13953 1.49429 0
M  V30 7238 H 691.317 3.86544 1.02097 0
M  V30 7239 H 692.757 3.71232 2.04849 0
M  V30 7240 C 691.216 2.28796 2.47293 0
M  V30 7241 O 691.746 1.94193 3.51642 0
M  V30 7242 N 689.952 1.92177 2.17982 0
M  V30 7243 H 689.499 2.20517 1.33154 0
M  V30 7244 H 689.457 1.35497 2.83704 0
M  V30 7245 N 693.229 0.160201 1.56784 0
M  V30 7246 C 694.645 -0.196089 1.58391 0
M  V30 7247 C 694.845 -1.63689 1.17508 0
M  V30 7248 O 693.901 -2.36613 0.881506 0
M  V30 7249 C 695.214 0.0746449 3.00607 0
M  V30 7250 C 696.762 0.0119762 3.12998 0
M  V30 7251 C 697.237 0.255551 4.57286 0
M  V30 7252 N 698.728 0.202938 4.62755 0
M  V30 7253 C 699.463 0.365731 5.72232 0
M  V30 7254 N 698.959 0.586972 6.90309 0
M  V30 7255 N 700.752 0.302411 5.61286 0
M  V30 7256 H 692.903 1.1008 1.81648 0
M  V30 7257 H 695.166 0.436779 0.841384 0
M  V30 7258 H 694.872 1.07231 3.34954 0
M  V30 7259 H 694.746 -0.638802 3.71751 0
M  V30 7260 H 697.133 -0.976254 2.78484 0
M  V30 7261 H 697.214 0.75796 2.44313 0
M  V30 7262 H 696.858 1.24094 4.92507 0
M  V30 7263 H 696.788 -0.510912 5.24116 0
M  V30 7264 H 699.279 0.0371328 3.77882 0
M  V30 7265 H 699.592 0.700941 7.69615 0
M  V30 7266 H 697.937 0.623453 6.92198 0
M  V30 7267 H 701.128 0.130238 4.67919 0
M  V30 7268 H 701.301 0.432712 6.46554 0
M  V30 7269 N 694.707 -1.5719 -0.113559 0
M  V30 7270 C 695.637 -2.03772 -1.14013 0
M  V30 7271 C 696.618 -0.923176 -1.42869 0
M  V30 7272 O 697.803 -1.19325 -1.53216 0
M  V30 7273 C 694.933 -2.44663 -2.4649 0
M  V30 7274 C 693.887 -3.59612 -2.32085 0
M  V30 7275 C 693.213 -3.8642 -3.69573 0
M  V30 7276 C 694.513 -4.91149 -1.7768 0
M  V30 7277 H 696.207 -2.89785 -0.752665 0
M  V30 7278 H 693.753 -1.39412 -0.360609 0
M  V30 7279 H 695.706 -2.75857 -3.18561 0
M  V30 7280 H 694.43 -1.55628 -2.87137 0
M  V30 7281 H 693.089 -3.28636 -1.62461 0
M  V30 7282 H 692.737 -2.94581 -4.07715 0
M  V30 7283 H 692.437 -4.63797 -3.60786 0
M  V30 7284 H 693.961 -4.2007 -4.4314 0
M  V30 7285 H 695.375 -5.20843 -2.39574 0
M  V30 7286 H 693.772 -5.72562 -1.79701 0
M  V30 7287 H 694.842 -4.79301 -0.734776 0
M  V30 7288 N 696.185 0.383891 -1.52853 0
M  V30 7289 C 697.115 1.47559 -1.80965 0
M  V30 7290 C 698.096 1.5669 -0.661986 0
M  V30 7291 O 699.281 1.71556 -0.910072 0
M  V30 7292 C 696.411 2.85114 -1.98312 0
M  V30 7293 C 695.365 2.9082 -3.14019 0
M  V30 7294 C 694.691 4.30873 -3.16627 0
M  V30 7295 C 695.991 2.60001 -4.52986 0
M  V30 7296 H 697.685 1.24283 -2.72386 0
M  V30 7297 H 695.231 0.596445 -1.31067 0
M  V30 7298 H 697.184 3.61496 -2.16561 0
M  V30 7299 H 695.908 3.09738 -1.03585 0
M  V30 7300 H 694.567 2.16886 -2.9556 0
M  V30 7301 H 694.215 4.52545 -2.19573 0
M  V30 7302 H 693.915 4.3561 -3.94357 0
M  V30 7303 H 695.439 5.09154 -3.37038 0
M  V30 7304 H 696.853 3.261 -4.71521 0
M  V30 7305 H 695.25 2.76081 -5.32822 0
M  V30 7306 H 696.32 1.5532 -4.59351 0
M  V30 7307 N 697.663 1.43903 0.642637 0
M  V30 7308 C 698.893 1.49323 1.4278 0
M  V30 7309 C 699.301 0.113058 1.88862 0
M  V30 7310 O 698.644 -0.889089 1.60751 0
M  V30 7311 C 698.706 2.3861 2.68897 0
M  V30 7312 C 698.37 3.85976 2.44687 0
M  V30 7313 C 699.367 4.7681 2.07239 0
M  V30 7314 C 697.052 4.30567 2.58683 0
M  V30 7315 C 699.046 6.10234 1.841 0
M  V30 7316 C 696.733 5.64042 2.35159 0
M  V30 7317 C 697.731 6.53693 1.97925 0
M  V30 7318 O 697.419 7.84698 1.74654 0
M  V30 7319 H 697.151 0.509109 0.444729 0
M  V30 7320 H 699.705 1.89425 0.794195 0
M  V30 7321 H 697.935 1.93415 3.34855 0
M  V30 7322 H 699.624 2.35112 3.30873 0
M  V30 7323 H 700.39 4.43635 1.95993 0
M  V30 7324 H 696.269 3.61054 2.86637 0
M  V30 7325 H 699.813 6.80171 1.54962 0
M  V30 7326 H 695.71 5.96782 2.46011 0
M  V30 7327 H 696.478 7.96382 1.88993 0
M  V30 7328 N 699.141 -0.881989 1.30609 0
M  V30 7329 C 700.104 -1.96957 1.1722 0
M  V30 7330 C 701.104 -1.60472 0.102598 0
M  V30 7331 O 702.294 -1.70628 0.350943 0
M  V30 7332 C 699.426 -3.31463 0.796572 0
M  V30 7333 H 700.619 -2.10262 2.13846 0
M  V30 7334 H 698.172 -1.06877 1.14048 0
M  V30 7335 H 698.907 -3.23859 -0.169053 0
M  V30 7336 H 698.692 -3.59314 1.56959 0
M  V30 7337 H 700.182 -4.11233 0.72645 0
M  V30 7338 N 700.619 -1.13374 -1.09472 0
M  V30 7339 C 701.865 -0.896516 -1.81908 0
M  V30 7340 C 702.198 0.575933 -1.85463 0
M  V30 7341 O 701.473 1.42618 -1.32251 0
M  V30 7342 C 701.756 -1.48445 -3.28079 0
M  V30 7343 C 701.609 -3.02598 -3.32798 0
M  V30 7344 C 702.928 -1.15226 -4.24748 0
M  V30 7345 H 700.047 -0.327127 -0.660422 0
M  V30 7346 H 702.689 -1.40195 -1.2824 0
M  V30 7347 H 700.839 -1.0546 -3.73912 0
M  V30 7348 H 702.511 -3.54335 -2.95372 0
M  V30 7349 H 700.754 -3.37613 -2.72397 0
M  V30 7350 H 701.425 -3.38835 -4.3577 0
M  V30 7351 H 703.901 -1.52369 -3.87199 0
M  V30 7352 H 702.777 -1.59012 -5.25363 0
M  V30 7353 H 703.038 -0.0658891 -4.42051 0
M  V30 7354 N 702.098 1.27442 -0.927168 0
M  V30 7355 C 703.346 1.94007 -0.566203 0
M  V30 7356 C 703.667 1.7323 0.895345 0
M  V30 7357 O 702.937 1.07973 1.63459 0
M  V30 7358 H 701.517 0.717917 -0.206409 0
M  V30 7359 H 704.179 1.55161 -1.17945 0
M  V30 7360 H 703.275 3.02401 -0.772028 0
M  V30 7361 N 703.576 0.692616 1.41565 0
M  V30 7362 C 704.824 0.221896 2.00878 0
M  V30 7363 C 705.145 -1.18164 1.5512 0
M  V30 7364 O 704.415 -1.79679 0.78054 0
M  V30 7365 H 702.995 0.0790463 0.742806 0
M  V30 7366 H 705.657 0.893115 1.73232 0
M  V30 7367 H 704.753 0.23702 3.11199 0
M  V30 7368 N 705.054 -1.51416 0.437162 0
M  V30 7369 C 706.301 -2.02086 -0.129364 0
M  V30 7370 C 706.629 -1.32133 -1.42728 0
M  V30 7371 O 705.884 -0.424916 -1.91031 0
M  V30 7372 C 706.183 -3.55203 -0.39564 0
M  V30 7373 C 705.849 -4.43447 0.81644 0
M  V30 7374 C 704.511 -4.67285 1.14884 0
M  V30 7375 C 706.863 -4.95219 1.62503 0
M  V30 7376 C 704.191 -5.40141 2.29052 0
M  V30 7377 C 706.543 -5.69327 2.7577 0
M  V30 7378 C 705.207 -5.91429 3.09464 0
M  V30 7379 H 704.477 -0.739486 -0.0473375 0
M  V30 7380 H 707.124 -1.82368 0.584321 0
M  V30 7381 H 705.429 -3.73252 -1.19121 0
M  V30 7382 H 707.126 -3.91944 -0.847399 0
M  V30 7383 H 703.716 -4.2509 0.547422 0
M  V30 7384 H 707.9 -4.76686 1.38144 0
M  V30 7385 H 703.156 -5.55468 2.55471 0
M  V30 7386 H 707.33 -6.08433 3.38795 0
M  V30 7387 H 704.957 -6.47662 3.98042 0
M  V30 7388 N 706.532 -0.168513 -1.56696 0
M  V30 7389 C 707.809 0.523367 -1.88468 0
M  V30 7390 C 708.189 1.81503 -1.07796 0
M  V30 7391 O 707.537 2.27859 -0.171045 0
M  V30 7392 C 707.747 0.767991 -3.40445 0
M  V30 7393 C 709.095 1.09924 -4.10124 0
M  V30 7394 O 710.119 0.856625 -3.45746 0
M  V30 7395 O 708.978 1.55681 -5.23856 0
M  V30 7396 H 706.072 0.269447 -0.781874 0
M  V30 7397 H 708.618 -0.206739 -1.68436 0
M  V30 7398 H 707.39 -0.145254 -3.9103 0
M  V30 7399 H 707.013 1.55151 -3.66079 0
M  V30 7400 N 708.01 1.57248 0.105221 0
M  V30 7401 C 709.258 1.85204 0.808951 0
M  V30 7402 C 709.579 0.75574 1.7976 0
M  V30 7403 O 708.849 -0.218984 1.94672 0
M  V30 7404 H 707.429 0.683346 0.301739 0
M  V30 7405 H 710.091 1.94695 0.0892605 0
M  V30 7406 H 709.187 2.81595 1.34575 0
M  V30 7407 N 709.488 -0.375779 1.53054 0
M  V30 7408 C 710.716 -1.14036 1.72637 0
M  V30 7409 C 711.131 -1.83342 0.450687 0
M  V30 7410 O 710.488 -1.7318 -0.575749 0
M  V30 7411 C 710.539 -2.17841 2.88492 0
M  V30 7412 O 710.26 -1.51358 4.11123 0
M  V30 7413 C 711.761 -3.06924 3.19863 0
M  V30 7414 H 708.981 -0.341386 0.577665 0
M  V30 7415 H 711.525 -0.437809 1.99759 0
M  V30 7416 H 709.68 -2.8371 2.63794 0
M  V30 7417 H 710.094 -2.20439 4.75928 0
M  V30 7418 H 711.568 -3.75763 4.04359 0
M  V30 7419 H 712.045 -3.71169 2.34798 0
M  V30 7420 H 712.651 -2.46684 3.46449 0
M  V30 7421 N 710.966 -1.44241 -0.634997 0
M  V30 7422 C 711.914 -1.51103 -1.76835 0
M  V30 7423 C 712.908 -0.383051 -1.65012 0
M  V30 7424 O 714.114 -0.557832 -1.71138 0
M  V30 7425 H 710.489 -0.474076 -0.583743 0
M  V30 7426 H 712.46 -2.46499 -1.68169 0
M  V30 7427 C 711.209 -1.4687 -3.15158 0
M  V30 7428 H 710.532 -2.32979 -3.24901 0
M  V30 7429 H 711.972 -1.55731 -3.94365 0
M  V30 7430 C 710.431 -0.188884 -3.3637 0
M  V30 7431 O 710.961 0.742487 -3.94778 0
M  V30 7432 N 709.167 -0.0932516 -2.9045 0
M  V30 7433 H 708.714 -0.852004 -2.43102 0
M  V30 7434 H 708.672 0.762308 -3.05018 0
M  V30 7435 N 712.444 0.87505 -1.31075 0
M  V30 7436 C 713.86 1.15997 -1.09622 0
M  V30 7437 C 714.06 2.01036 0.136611 0
M  V30 7438 O 713.116 2.38559 0.827397 0
M  V30 7439 C 714.429 1.85702 -2.36506 0
M  V30 7440 C 715.977 1.98425 -2.42067 0
M  V30 7441 C 716.452 2.71544 -3.68819 0
M  V30 7442 N 717.943 2.79084 -3.69684 0
M  V30 7443 C 718.678 3.36259 -4.64454 0
M  V30 7444 N 718.174 3.94406 -5.69575 0
M  V30 7445 N 719.967 3.34169 -4.51982 0
M  V30 7446 H 712.118 0.308258 -2.10151 0
M  V30 7447 H 714.381 0.199145 -0.926847 0
M  V30 7448 H 714.087 1.30663 -3.26527 0
M  V30 7449 H 713.961 2.86017 -2.45915 0
M  V30 7450 H 716.348 2.5263 -1.52518 0
M  V30 7451 H 716.429 0.971682 -2.36626 0
M  V30 7452 H 716.073 2.18008 -4.58732 0
M  V30 7453 H 716.003 3.73198 -3.71525 0
M  V30 7454 H 718.494 2.3781 -2.93691 0
M  V30 7455 H 718.807 4.36129 -6.37974 0
M  V30 7456 H 717.152 3.92797 -5.73355 0
M  V30 7457 H 720.343 2.87977 -3.69035 0
M  V30 7458 H 720.516 3.78431 -5.26017 0
M  V30 7459 N 713.922 1.13953 1.08869 0
M  V30 7460 C 714.852 0.844824 2.17681 0
M  V30 7461 C 715.833 -0.198213 1.68941 0
M  V30 7462 O 717.018 -0.0559073 1.9412 0
M  V30 7463 C 714.148 0.316325 3.45856 0
M  V30 7464 C 713.102 1.29426 4.07962 0
M  V30 7465 C 712.428 0.625275 5.31031 0
M  V30 7466 C 713.728 2.65484 4.49795 0
M  V30 7467 H 715.422 1.75471 2.42591 0
M  V30 7468 H 712.968 0.845116 1.16592 0
M  V30 7469 H 714.921 0.0977876 4.21287 0
M  V30 7470 H 713.645 -0.628972 3.20486 0
M  V30 7471 H 712.304 1.49889 3.34558 0
M  V30 7472 H 711.952 -0.325678 5.01945 0
M  V30 7473 H 711.652 1.27777 5.73539 0
M  V30 7474 H 713.176 0.416152 6.0918 0
M  V30 7475 H 714.59 2.48957 5.16424 0
M  V30 7476 H 712.987 3.26963 5.03205 0
M  V30 7477 H 714.057 3.22717 3.61914 0
M  V30 7478 N 715.4 -1.26948 0.933913 0
M  V30 7479 C 716.348 -2.2862 0.428463 0
M  V30 7480 C 717.342 -1.62144 -0.490464 0
M  V30 7481 O 718.548 -1.76167 -0.36948 0
M  V30 7482 H 714.923 -0.742363 0.120003 0
M  V30 7483 H 716.894 -2.68659 1.29865 0
M  V30 7484 C 715.643 -3.46423 -0.29774 0
M  V30 7485 H 714.966 -3.97792 0.400183 0
M  V30 7486 H 716.406 -4.19505 -0.615736 0
M  V30 7487 C 714.865 -3.01017 -1.51295 0
M  V30 7488 O 715.395 -3.05226 -2.61151 0
M  V30 7489 N 713.601 -2.56442 -1.36696 0
M  V30 7490 H 713.148 -2.53217 -0.473178 0
M  V30 7491 H 713.106 -2.26424 -2.18127 0
M  V30 7492 N 716.879 -0.700114 -1.41195 0
M  V30 7493 C 718.104 -0.240704 -2.05998 0
M  V30 7494 C 718.529 1.10313 -1.52357 0
M  V30 7495 O 717.887 1.69154 -0.652424 0
M  V30 7496 C 717.935 -0.213783 -3.59966 0
M  V30 7497 O 717.039 0.809933 -4.04368 0
M  V30 7498 H 716.38 -0.116471 -0.653705 0
M  V30 7499 H 718.91 -0.956251 -1.80878 0
M  V30 7500 H 718.92 -0.0461852 -4.07974 0
M  V30 7501 H 717.595 -1.19454 -3.98376 0
M  V30 7502 H 716.172 0.611319 -3.67855 0
M  V30 7503 N 718.357 1.51182 -0.445186 0
M  V30 7504 C 719.32 2.26501 0.350722 0
M  V30 7505 C 720.32 1.3025 0.942952 0
M  V30 7506 O 721.51 1.53897 0.816175 0
M  V30 7507 C 718.642 3.06274 1.49697 0
M  V30 7508 H 719.835 2.98299 -0.309474 0
M  V30 7509 H 717.388 1.55034 -0.198551 0
M  V30 7510 H 718.123 2.38911 2.19299 0
M  V30 7511 H 717.908 3.76979 1.0784 0
M  V30 7512 H 719.398 3.63306 2.05909 0
M  V30 7513 N 719.835 0.176821 1.56605 0
M  V30 7514 C 720.745 -0.763682 2.21822 0
M  V30 7515 C 721.761 -1.24889 1.21156 0
M  V30 7516 O 722.937 -1.29987 1.53836 0
M  V30 7517 C 720.002 -1.97352 2.8505 0
M  V30 7518 C 719.063 -1.53466 4.00932 0
M  V30 7519 C 718.296 -2.68682 4.61135 0
M  V30 7520 O 718.519 -3.85694 4.20234 0
M  V30 7521 O 717.453 -2.42442 5.50913 0
M  V30 7522 H 721.279 -0.238363 3.02763 0
M  V30 7523 H 718.864 -0.0516331 1.49311 0
M  V30 7524 H 720.746 -2.68096 3.25119 0
M  V30 7525 H 719.421 -2.48779 2.07101 0
M  V30 7526 H 718.328 -0.796551 3.65521 0
M  V30 7527 H 719.661 -1.06724 4.8049 0
M  V30 7528 N 721.313 -1.57302 -0.09688 0
M  V30 7529 C 722.553 -1.87823 -0.806334 0
M  V30 7530 C 722.917 -0.767593 -1.75989 0
M  V30 7531 O 724.118 -0.955173 -2.51257 0
M  V30 7532 C 722.389 -3.23585 -1.51749 0
M  V30 7533 S 723.948 -3.75795 -2.26547 0
M  V30 7534 H 720.766 -0.658281 -0.268676 0
M  V30 7535 H 723.368 -1.95397 -0.0635476 0
M  V30 7536 H 722.072 -4.0234 -0.809348 0
M  V30 7537 H 721.603 -3.19145 -2.30021 0
M  V30 7538 H 723.618 -3.49068 -3.52656 0
M  V30 7539 N 722.791 0.367657 -1.53252 0
M  V30 7540 C 724.021 1.12955 -1.72988 0
M  V30 7541 C 724.429 1.8358 -0.457708 0
M  V30 7542 O 723.772 1.74336 0.579006 0
M  V30 7543 C 723.834 2.20545 -2.83902 0
M  V30 7544 C 723.498 1.69704 -4.24323 0
M  V30 7545 C 724.495 1.16223 -5.06743 0
M  V30 7546 C 722.18 1.7528 -4.70725 0
M  V30 7547 C 724.174 0.689935 -6.33655 0
M  V30 7548 C 721.861 1.27662 -5.97617 0
M  V30 7549 C 722.859 0.746083 -6.78913 0
M  V30 7550 O 722.547 0.276925 -8.03423 0
M  V30 7551 H 722.279 0.343753 -0.582074 0
M  V30 7552 H 724.833 0.433106 -2.00782 0
M  V30 7553 H 723.063 2.93676 -2.51577 0
M  V30 7554 H 724.752 2.82111 -2.91836 0
M  V30 7555 H 725.518 1.11256 -4.72067 0
M  V30 7556 H 721.397 2.15515 -4.07522 0
M  V30 7557 H 724.941 0.275164 -6.97057 0
M  V30 7558 H 720.838 1.32322 -6.31792 0
M  V30 7559 H 721.606 0.396445 -8.17539 0
M  V30 7560 N 724.269 1.44576 0.627338 0
M  V30 7561 C 725.499 1.50829 1.41189 0
M  V30 7562 C 725.907 0.133083 1.88731 0
M  V30 7563 O 725.25 -0.87199 1.61685 0
M  V30 7564 C 725.312 2.41449 2.66351 0
M  V30 7565 C 724.976 3.88549 2.40579 0
M  V30 7566 C 725.973 4.78981 2.0217 0
M  V30 7567 C 723.658 4.33287 2.54102 0
M  V30 7568 C 725.652 6.12153 1.77618 0
M  V30 7569 C 723.339 5.66505 2.29163 0
M  V30 7570 C 724.337 6.55756 1.9098 0
M  V30 7571 O 724.025 7.86506 1.66321 0
M  V30 7572 H 723.757 0.513797 0.439304 0
M  V30 7573 H 726.311 1.90256 0.774059 0
M  V30 7574 H 724.541 1.96955 3.32784 0
M  V30 7575 H 726.23 2.38608 3.28361 0
M  V30 7576 H 726.996 4.45689 1.91277 0
M  V30 7577 H 722.875 3.64074 2.82792 0
M  V30 7578 H 726.419 6.81776 1.47739 0
M  V30 7579 H 722.316 5.99358 2.39668 0
M  V30 7580 H 723.084 7.98341 1.80536 0
M  V30 7581 N 725.747 -0.868086 1.31537 0
M  V30 7582 C 727.158 -1.437 1.19195 0
M  V30 7583 C 727.509 -1.95169 -0.200842 0
M  V30 7584 O 726.634 -1.86432 -1.09872 0
M  V30 7585 C 727.229 -2.612 2.15778 0
M  V30 7586 C 725.788 -3.1413 2.07363 0
M  V30 7587 C 724.935 -1.86845 2.049 0
M  V30 7588 H 727.886 -0.676457 1.43561 0
M  V30 7589 H 727.907 -3.37948 1.74847 0
M  V30 7590 H 727.419 -2.23709 3.17137 0
M  V30 7591 H 725.52 -3.56238 1.09204 0
M  V30 7592 H 725.633 -3.76285 2.96557 0
M  V30 7593 H 723.997 -2.05886 1.49943 0
M  V30 7594 H 724.78 -1.51589 3.08019 0
M  V30 7595 N 727.225 -1.14528 -1.08264 0
M  V30 7596 C 728.135 -0.84728 -2.18765 0
M  V30 7597 C 729.151 0.172826 -1.7314 0
M  V30 7598 O 730.327 0.000985336 -2.014 0
M  V30 7599 C 727.392 -0.330633 -3.4512 0
M  V30 7600 C 726.453 -1.41348 -4.05363 0
M  V30 7601 C 725.686 -0.921387 -5.25686 0
M  V30 7602 O 725.909 0.236587 -5.69909 0
M  V30 7603 O 724.843 -1.70101 -5.77364 0
M  V30 7604 H 728.669 -1.7708 -2.46731 0
M  V30 7605 H 726.254 -0.923661 -1.17426 0
M  V30 7606 H 728.136 -0.0485053 -4.21372 0
M  V30 7607 H 726.811 0.565147 -3.18728 0
M  V30 7608 H 725.718 -1.74908 -3.30693 0
M  V30 7609 H 727.051 -2.28383 -4.36007 0
M  V30 7610 N 728.703 1.26451 -0.940633 0
M  V30 7611 C 730.119 1.4608 -0.642859 0
M  V30 7612 C 730.319 1.84765 0.803998 0
M  V30 7613 O 729.375 1.96902 1.58069 0
M  V30 7614 C 730.688 2.54359 -1.60381 0
M  V30 7615 C 732.236 2.6821 -1.61345 0
M  V30 7616 C 732.711 3.79659 -2.56169 0
M  V30 7617 N 734.202 3.87051 -2.54452 0
M  V30 7618 C 734.937 4.72739 -3.24507 0
M  V30 7619 N 734.433 5.6282 -4.03987 0
M  V30 7620 N 736.226 4.66581 -3.13462 0
M  V30 7621 H 728.377 0.996289 -1.87584 0
M  V30 7622 H 730.64 0.498921 -0.80609 0
M  V30 7623 H 730.346 2.32758 -2.6366 0
M  V30 7624 H 730.22 3.52005 -1.35545 0
M  V30 7625 H 732.607 2.89184 -0.587913 0
M  V30 7626 H 732.688 1.7101 -1.90235 0
M  V30 7627 H 732.332 3.59438 -3.58841 0
M  V30 7628 H 732.262 4.76315 -2.2457 0
M  V30 7629 H 734.753 3.22649 -1.96739 0
M  V30 7630 H 735.066 6.25095 -4.54396 0
M  V30 7631 H 733.411 5.62574 -4.08088 0
M  V30 7632 H 736.602 3.9521 -2.50852 0
M  V30 7633 H 736.775 5.33141 -3.68327 0
M  V30 7634 N 730.181 0.707592 1.40822 0
M  V30 7635 C 731.129 0.0386643 2.32568 0
M  V30 7636 C 732.123 -0.755653 1.51612 0
M  V30 7637 O 733.329 -0.659921 1.67467 0
M  V30 7638 H 729.704 -0.00629912 0.751974 0
M  V30 7639 H 731.675 0.8293 2.86645 0
M  V30 7640 C 730.424 -0.87496 3.36511 0
M  V30 7641 H 729.747 -0.273157 3.98866 0
M  V30 7642 H 731.187 -1.31111 4.03219 0
M  V30 7643 C 729.646 -1.99672 2.71353 0
M  V30 7644 O 730.176 -3.08676 2.57064 0
M  V30 7645 N 728.382 -1.77799 2.29861 0
M  V30 7646 H 727.929 -0.89147 2.41683 0
M  V30 7647 H 727.887 -2.53036 1.86601 0
M  V30 7648 N 731.66 -1.50943 0.453197 0
M  V30 7649 C 732.57 -2.31884 -0.355963 0
M  V30 7650 C 733.586 -1.41481 -1.01287 0
M  V30 7651 O 734.762 -1.74546 -1.00477 0
M  V30 7652 C 731.827 -3.15668 -1.43369 0
M  V30 7653 C 730.888 -4.2187 -0.795253 0
M  V30 7654 C 730.121 -5.0165 -1.82162 0
M  V30 7655 O 730.344 -4.82266 -3.04592 0
M  V30 7656 O 729.278 -5.85311 -1.40336 0
M  V30 7657 H 733.104 -3.02162 0.305248 0
M  V30 7658 H 730.689 -1.47839 0.215398 0
M  V30 7659 H 732.571 -3.67709 -2.05836 0
M  V30 7660 H 731.246 -2.48137 -2.07869 0
M  V30 7661 H 730.153 -3.73867 -0.132106 0
M  V30 7662 H 731.486 -4.9182 -0.193484 0
M  V30 7663 N 733.138 -0.185124 -1.56509 0
M  V30 7664 C 734.384 0.450356 -1.98352 0
M  V30 7665 C 734.739 1.59923 -1.06969 0
M  V30 7666 O 734.032 1.91272 -0.112084 0
M  V30 7667 C 734.226 0.967977 -3.44042 0
M  V30 7668 C 734.055 -0.129208 -4.49514 0
M  V30 7669 C 732.825 -0.58351 -5.0192 0
M  V30 7670 C 735.023 -0.93459 -5.05737 0
M  V30 7671 N 733.005 -1.65956 -5.91043 0
M  V30 7672 C 734.376 -1.86026 -5.91434 0
M  V30 7673 C 736.431 -0.978125 -4.88198 0
M  V30 7674 C 735.134 -2.82582 -6.61468 0
M  V30 7675 C 737.16 -1.93169 -5.58963 0
M  V30 7676 C 736.522 -2.84481 -6.44399 0
M  V30 7677 H 732.621 0.132504 -0.770692 0
M  V30 7678 H 735.205 -0.288523 -1.9255 0
M  V30 7679 H 733.376 1.67633 -3.50362 0
M  V30 7680 H 735.108 1.57323 -3.72869 0
M  V30 7681 H 731.863 -0.178676 -4.73263 0
M  V30 7682 H 732.287 -2.19848 -6.40309 0
M  V30 7683 H 736.929 -0.286169 -4.2183 0
M  V30 7684 H 734.647 -3.52758 -7.2704 0
M  V30 7685 H 738.233 -1.97166 -5.47373 0
M  V30 7686 H 737.113 -3.57065 -6.98194 0
M  V30 7687 N 734.616 1.57351 0.0885366 0
M  V30 7688 C 736.032 1.53331 0.442916 0
M  V30 7689 C 736.232 0.902831 1.80142 0
M  V30 7690 O 735.288 0.498147 2.47537 0
M  V30 7691 C 736.601 2.98036 0.399372 0
M  V30 7692 C 738.149 3.09286 0.480759 0
M  V30 7693 C 738.624 4.5561 0.467296 0
M  V30 7694 N 740.115 4.60182 0.52786 0
M  V30 7695 C 740.85 5.70857 0.539388 0
M  V30 7696 N 740.346 6.90944 0.506729 0
M  V30 7697 N 742.139 5.59051 0.584691 0
M  V30 7698 H 734.29 1.96709 -0.801215 0
M  V30 7699 H 736.553 0.899639 -0.298922 0
M  V30 7700 H 736.259 3.47656 -0.531806 0
M  V30 7701 H 736.133 3.57066 1.21589 0
M  V30 7702 H 738.52 2.5965 1.40236 0
M  V30 7703 H 738.601 2.53197 -0.364023 0
M  V30 7704 H 738.245 5.05899 -0.450384 0
M  V30 7705 H 738.175 5.09544 1.32938 0
M  V30 7706 H 740.666 3.73757 0.558028 0
M  V30 7707 H 740.979 7.71055 0.518989 0
M  V30 7708 H 739.324 6.93384 0.473675 0
M  V30 7709 H 742.515 4.64138 0.607781 0
M  V30 7710 H 742.688 6.45307 0.590206 0
M  V30 7711 N 736.094 -0.359525 1.53444 0
M  V30 7712 C 737.027 -1.46338 1.75101 0
M  V30 7713 C 738.005 -1.51142 0.599559 0
M  V30 7714 O 739.189 -1.69102 0.832862 0
M  V30 7715 C 736.316 -2.84667 1.83527 0
M  V30 7716 C 735.362 -2.9756 3.05549 0
M  V30 7717 S 736.195 -2.65685 4.64943 0
M  V30 7718 C 737.351 -4.06153 4.76225 0
M  V30 7719 H 737.584 -1.27747 2.68455 0
M  V30 7720 H 735.117 -0.554231 1.4411 0
M  V30 7721 H 737.075 -3.64368 1.89067 0
M  V30 7722 H 735.736 -3.00564 0.912147 0
M  V30 7723 H 734.929 -3.98883 3.08072 0
M  V30 7724 H 734.531 -2.25789 2.98153 0
M  V30 7725 H 736.823 -5.00475 4.56652 0
M  V30 7726 H 737.766 -4.08632 5.78295 0
M  V30 7727 H 738.174 -3.93435 4.04808 0
M  V30 7728 N 737.572 -1.44907 -0.619662 0
M  V30 7729 C 738.821 -1.47569 -1.37501 0
M  V30 7730 C 739.134 -0.116707 -1.95252 0
M  V30 7731 O 740.34 -0.020909 -2.71492 0
M  V30 7732 C 738.796 -2.59851 -2.49009 0
M  V30 7733 C 738.404 -4.02008 -1.97722 0
M  V30 7734 C 740.148 -2.71746 -3.2612 0
M  V30 7735 C 738.055 -5.05693 -3.0664 0
M  V30 7736 H 736.985 -0.549068 -0.51676 0
M  V30 7737 H 739.636 -1.71009 -0.665437 0
M  V30 7738 H 738.018 -2.29671 -3.22594 0
M  V30 7739 H 739.192 -4.41809 -1.30925 0
M  V30 7740 H 737.507 -3.94456 -1.33392 0
M  V30 7741 H 740.104 -3.46382 -4.07337 0
M  V30 7742 H 740.447 -1.77959 -3.76346 0
M  V30 7743 H 740.98 -3.01392 -2.5963 0
M  V30 7744 H 737.719 -6.01148 -2.61345 0
M  V30 7745 H 737.239 -4.70473 -3.72042 0
M  V30 7746 H 738.918 -5.29906 -3.71226 0
M  V30 7747 N 739.05 0.861098 -1.31996 0
M  V30 7748 C 740.278 1.6474 -1.25173 0
M  V30 7749 C 740.693 1.87926 0.181425 0
M  V30 7750 O 740.05 1.4437 1.1164 0
M  V30 7751 C 740.101 3.01036 -2.0015 0
M  V30 7752 O 739.822 2.7888 -3.37872 0
M  V30 7753 C 741.323 3.95481 -2.00273 0
M  V30 7754 H 738.543 0.513314 -0.432146 0
M  V30 7755 H 741.087 1.07419 -1.74016 0
M  V30 7756 H 739.242 3.55021 -1.55046 0
M  V30 7757 H 739.656 3.65514 -3.76165 0
M  V30 7758 H 741.13 4.88403 -2.57229 0
M  V30 7759 H 741.607 4.27957 -0.987407 0
M  V30 7760 H 742.213 3.47433 -2.45296 0
M  V30 7761 N 740.528 1.15101 1.07655 0
M  V30 7762 C 741.491 0.847625 2.12951 0
M  V30 7763 C 742.491 -0.151227 1.60087 0
M  V30 7764 O 743.681 0.0780399 1.74025 0
M  V30 7765 C 740.813 0.265 3.39868 0
M  V30 7766 H 742.006 1.7809 2.41296 0
M  V30 7767 H 739.559 0.958072 1.23494 0
M  V30 7768 H 740.294 -0.676625 3.17163 0
M  V30 7769 H 740.079 0.984554 3.79538 0
M  V30 7770 H 741.569 0.0702121 4.17541 0
M  V30 7771 N 742.006 -1.2595 0.947325 0
M  V30 7772 C 742.939 -2.24559 0.406009 0
M  V30 7773 C 743.917 -1.54441 -0.508598 0
M  V30 7774 O 745.101 -1.83181 -0.444644 0
M  V30 7775 C 742.228 -3.36136 -0.415987 0
M  V30 7776 C 741.274 -4.24245 0.437969 0
M  V30 7777 S 742.107 -5.01948 1.86572 0
M  V30 7778 C 743.263 -6.16997 1.05194 0
M  V30 7779 H 743.496 -2.70128 1.24171 0
M  V30 7780 H 741.029 -1.34912 0.750874 0
M  V30 7781 H 742.987 -4.00861 -0.88433 0
M  V30 7782 H 741.648 -2.89167 -1.22643 0
M  V30 7783 H 740.841 -5.03634 -0.192127 0
M  V30 7784 H 740.443 -3.64416 0.841235 0
M  V30 7785 H 742.735 -6.76848 0.297126 0
M  V30 7786 H 743.678 -6.84324 1.8195 0
M  V30 7787 H 744.086 -5.61458 0.585294 0
M  V30 7788 N 743.484 -0.715051 -1.40445 0
M  V30 7789 C 744.432 -0.0509974 -2.32544 0
M  V30 7790 C 745.426 0.747602 -1.52011 0
M  V30 7791 O 746.632 0.651031 -1.67814 0
M  V30 7792 H 743.007 0.00231113 -0.751996 0
M  V30 7793 H 744.978 -0.84449 -2.86201 0
M  V30 7794 C 743.727 0.857101 -3.3697 0
M  V30 7795 H 743.05 0.252 -3.99005 0
M  V30 7796 H 744.49 1.28971 -4.03909 0
M  V30 7797 C 742.949 1.98231 -2.72408 0
M  V30 7798 O 743.479 3.07309 -2.58697 0
M  V30 7799 N 741.685 1.76577 -2.308 0
M  V30 7800 H 741.232 0.878641 -2.42152 0
M  V30 7801 H 741.19 2.52043 -1.87941 0
M  V30 7802 N 744.962 1.50701 -0.461195 0
M  V30 7803 C 746.19 2.06681 0.0951756 0
M  V30 7804 C 746.605 1.32615 1.34382 0
M  V30 7805 O 745.962 0.392531 1.78229 0
M  V30 7806 C 746.013 3.59354 0.393316 0
M  V30 7807 O 745.734 4.30626 -0.805797 0
M  V30 7808 C 747.235 4.31926 0.997744 0
M  V30 7809 H 744.455 0.670995 -0.00267259 0
M  V30 7810 H 746.999 1.93991 -0.647137 0
M  V30 7811 H 745.154 3.7188 1.08555 0
M  V30 7812 H 745.568 5.21667 -0.544409 0
M  V30 7813 H 747.042 5.39756 1.15619 0
M  V30 7814 H 747.519 3.91772 1.98523 0
M  V30 7815 H 748.125 4.23905 0.344188 0
M  V30 7816 N 746.441 0.193421 1.56409 0
M  V30 7817 C 747.69 -0.445995 1.96707 0
M  V30 7818 C 748.003 -1.62876 1.08309 0
M  V30 7819 O 749.209 -2.33586 1.38383 0
M  V30 7820 C 747.665 -0.844863 3.49843 0
M  V30 7821 C 747.273 0.31352 4.46902 0
M  V30 7822 C 749.017 -1.45146 3.98915 0
M  V30 7823 C 746.924 -0.106214 5.91305 0
M  V30 7824 H 745.854 -0.170398 0.734493 0
M  V30 7825 H 748.505 0.285172 1.81271 0
M  V30 7826 H 746.887 -1.63265 3.60778 0
M  V30 7827 H 748.061 1.09103 4.47698 0
M  V30 7828 H 746.376 0.8315 4.08014 0
M  V30 7829 H 748.973 -1.77792 5.04276 0
M  V30 7830 H 749.316 -2.35734 3.43126 0
M  V30 7831 H 749.849 -0.727675 3.91088 0
M  V30 7832 H 746.588 0.765442 6.51016 0
M  V30 7833 H 746.108 -0.848623 5.93766 0
M  V30 7834 H 747.787 -0.542588 6.44721 0
M  V30 7835 N 747.919 -1.57396 -0.0801906 0
M  V30 7836 C 749.335 -1.53564 -0.434778 0
M  V30 7837 C 749.535 -0.912372 -1.79661 0
M  V30 7838 O 748.591 -0.511268 -2.4727 0
M  V30 7839 C 749.904 -2.98244 -0.383561 0
M  V30 7840 C 751.452 -3.09536 -0.46435 0
M  V30 7841 C 751.927 -4.55851 -0.443128 0
M  V30 7842 N 753.418 -4.60456 -0.503448 0
M  V30 7843 C 754.153 -5.71135 -0.509106 0
M  V30 7844 N 753.649 -6.91203 -0.47008 0
M  V30 7845 N 755.442 -5.59353 -0.555035 0
M  V30 7846 H 747.593 -1.96281 0.811635 0
M  V30 7847 H 749.856 -0.898041 0.303689 0
M  V30 7848 H 749.562 -3.47369 0.550236 0
M  V30 7849 H 749.436 -3.57705 -1.19694 0
M  V30 7850 H 751.823 -2.6039 -1.38857 0
M  V30 7851 H 751.904 -2.53 0.377445 0
M  V30 7852 H 751.548 -5.05653 0.477207 0
M  V30 7853 H 751.478 -5.10242 -1.30234 0
M  V30 7854 H 753.969 -3.74048 -0.538199 0
M  V30 7855 H 754.282 -7.7132 -0.478091 0
M  V30 7856 H 752.627 -6.93625 -0.436897 0
M  V30 7857 H 755.818 -4.64453 -0.583158 0
M  V30 7858 H 755.991 -6.4561 -0.555976 0
M  V30 7859 N 749.397 0.351382 -1.53633 0
M  V30 7860 C 750.622 1.11718 -1.74739 0
M  V30 7861 C 751.047 1.81829 -0.481657 0
M  V30 7862 O 750.405 1.72264 0.565233 0
M  V30 7863 C 750.453 2.11234 -2.92254 0
M  V30 7864 O 749.557 3.186 -2.61855 0
M  V30 7865 H 748.898 0.323482 -0.579875 0
M  V30 7866 H 751.428 0.404167 -2.00568 0
M  V30 7867 H 751.438 2.54591 -3.18822 0
M  V30 7868 H 750.113 1.59599 -3.84058 0
M  V30 7869 H 748.69 2.80115 -2.4615 0
M  V30 7870 N 750.875 1.45233 0.611969 0
M  V30 7871 C 752.123 1.48727 1.36838 0
M  V30 7872 C 752.444 0.128616 1.94575 0
M  V30 7873 O 751.714 -0.84149 1.76906 0
M  V30 7874 H 750.294 0.547695 0.507976 0
M  V30 7875 H 752.956 1.81156 0.718925 0
M  V30 7876 H 752.052 2.2236 2.19003 0
M  V30 7877 N 752.353 -0.854086 1.3245 0
M  V30 7878 C 753.316 -1.94427 1.21371 0
M  V30 7879 C 754.316 -1.60219 0.136613 0
M  V30 7880 O 755.506 -1.69846 0.387057 0
M  V30 7881 C 752.638 -3.29698 0.866701 0
M  V30 7882 H 753.831 -2.05679 2.18257 0
M  V30 7883 H 751.384 -1.04434 1.1629 0
M  V30 7884 H 752.119 -3.24145 -0.100319 0
M  V30 7885 H 751.904 -3.55903 1.64545 0
M  V30 7886 H 753.394 -4.09599 0.813515 0
M  V30 7887 N 753.831 -1.1567 -1.07043 0
M  V30 7888 C 755.079 -0.931673 -1.79344 0
M  V30 7889 C 755.4 0.542421 -1.87304 0
M  V30 7890 O 754.67 1.39418 -1.37621 0
M  V30 7891 H 753.25 -0.34171 -0.664262 0
M  V30 7892 H 755.912 -1.45795 -1.29344 0
M  V30 7893 H 755.008 -1.34379 -2.81689 0
M  V30 7894 N 755.309 1.25446 -0.953992 0
M  V30 7895 C 756.555 1.9343 -0.60933 0
M  V30 7896 C 756.888 1.74542 0.851388 0
M  V30 7897 O 756.163 1.09014 1.61078 0
M  V30 7898 C 756.446 3.46844 -0.968041 0
M  V30 7899 C 756.299 3.74961 -2.48444 0
M  V30 7900 C 757.618 4.37334 -0.492641 0
M  V30 7901 H 754.737 0.702502 -0.222844 0
M  V30 7902 H 757.379 1.48076 -1.19053 0
M  V30 7903 H 755.529 3.85604 -0.473465 0
M  V30 7904 H 757.201 3.45841 -3.05273 0
M  V30 7905 H 755.444 3.20589 -2.92241 0
M  V30 7906 H 756.115 4.82246 -2.68594 0
M  V30 7907 H 758.591 4.05873 -0.916878 0
M  V30 7908 H 757.467 5.43439 -0.772331 0
M  V30 7909 H 757.728 4.37908 0.607403 0
M  V30 7910 N 756.787 0.722489 1.40064 0
M  V30 7911 C 758.027 0.269491 2.02616 0
M  V30 7912 C 758.391 -1.11835 1.56067 0
M  V30 7913 O 759.592 -1.66873 2.1073 0
M  V30 7914 C 757.863 0.354066 3.55642 0
M  V30 7915 S 759.422 -0.0209309 4.38795 0
M  V30 7916 H 756.24 0.106412 0.702992 0
M  V30 7917 H 758.842 0.946237 1.71075 0
M  V30 7918 H 757.546 1.36565 3.87012 0
M  V30 7919 H 757.077 -0.340925 3.9192 0
M  V30 7920 H 759.092 -1.24093 4.80432 0
M  V30 7921 N 758.265 -1.50454 0.469181 0
M  V30 7922 C 759.511 -2.02615 -0.0865971 0
M  V30 7923 C 759.844 -1.35062 -1.39542 0
M  V30 7924 O 759.119 -0.475701 -1.88593 0
M  V30 7925 C 759.402 -3.59068 -0.272385 0
M  V30 7926 C 759.255 -4.37196 1.05733 0
M  V30 7927 C 760.574 -4.2793 -1.0278 0
M  V30 7928 H 757.693 -0.736389 -0.0299977 0
M  V30 7929 H 760.335 -1.79792 0.614399 0
M  V30 7930 H 758.485 -3.78646 -0.869471 0
M  V30 7931 H 760.157 -4.29195 1.69084 0
M  V30 7932 H 758.4 -4.01013 1.65442 0
M  V30 7933 H 759.071 -5.44924 0.880997 0
M  V30 7934 H 761.547 -4.12816 -0.521718 0
M  V30 7935 H 760.423 -5.37214 -1.12659 0
M  V30 7936 H 760.684 -3.90968 -2.0639 0
M  V30 7937 N 759.743 -0.201713 -1.56304 0
M  V30 7938 C 760.673 0.71155 -2.22394 0
M  V30 7939 C 761.654 1.21625 -1.18917 0
M  V30 7940 O 762.839 1.26388 -1.47444 0
M  V30 7941 C 759.969 1.92837 -2.88845 0
M  V30 7942 C 758.923 1.55831 -3.98623 0
M  V30 7943 C 758.249 2.85228 -4.52271 0
M  V30 7944 C 759.549 0.763249 -5.16693 0
M  V30 7945 H 761.243 0.160573 -2.98969 0
M  V30 7946 H 758.789 0.0757916 -1.438 0
M  V30 7947 H 760.742 2.57253 -3.33764 0
M  V30 7948 H 759.466 2.50398 -2.09686 0
M  V30 7949 H 758.125 0.9377 -3.54405 0
M  V30 7950 H 757.773 3.40893 -3.69866 0
M  V30 7951 H 757.473 2.6121 -5.26349 0
M  V30 7952 H 758.997 3.50622 -4.99897 0
M  V30 7953 H 760.411 1.31066 -5.58117 0
M  V30 7954 H 758.808 0.620935 -5.96879 0
M  V30 7955 H 759.878 -0.234322 -4.84334 0
M  V30 7956 N 761.222 1.57436 0.0718424 0
M  V30 7957 C 762.172 2.00132 1.09229 0
M  V30 7958 C 763.156 0.883379 1.34481 0
M  V30 7959 O 764.348 1.14728 1.34783 0
M  V30 7960 C 761.477 2.44876 2.40605 0
M  V30 7961 C 760.563 3.63405 2.18627 0
M  V30 7962 N 760.954 4.77583 1.66579 0
M  V30 7963 C 759.252 3.69953 2.491 0
M  V30 7964 C 759.953 5.5943 1.59415 0
M  V30 7965 N 758.929 5.03275 2.05464 0
M  V30 7966 H 762.731 2.85849 0.683185 0
M  V30 7967 H 760.245 1.59987 0.278914 0
M  V30 7968 H 762.242 2.73703 3.14471 0
M  V30 7969 H 760.902 1.60546 2.82232 0
M  V30 7970 H 761.913 4.99875 1.35443 0
M  V30 7971 H 758.59 2.96336 2.94094 0
M  V30 7972 H 759.98 6.61093 1.20026 0
M  V30 7973 N 762.7 -0.34323 1.53817 0
M  V30 7974 C 763.648 -1.44176 1.82527 0
M  V30 7975 C 764.642 -1.54452 0.695772 0
M  V30 7976 O 765.848 -1.57072 0.879114 0
M  V30 7977 H 762.223 -0.480729 0.578277 0
M  V30 7978 H 764.194 -1.17176 2.74431 0
M  V30 7979 C 762.943 -2.80695 2.05197 0
M  V30 7980 H 762.266 -2.73554 2.91561 0
M  V30 7981 H 763.706 -3.56679 2.29251 0
M  V30 7982 C 762.165 -3.26322 0.837589 0
M  V30 7983 O 762.695 -4.01683 0.0371631 0
M  V30 7984 N 760.901 -2.83128 0.654724 0
M  V30 7985 H 760.448 -2.21965 1.30725 0
M  V30 7986 H 760.406 -3.14011 -0.156345 0
M  V30 7987 N 764.178 -1.45556 -0.604258 0
M  V30 7988 C 765.418 -1.51289 -1.37445 0
M  V30 7989 C 765.782 -0.152112 -1.91397 0
M  V30 7990 O 766.983 -0.0841419 -2.68668 0
M  V30 7991 C 765.254 -2.5646 -2.48924 0
M  V30 7992 S 766.813 -2.81442 -3.36654 0
M  V30 7993 H 763.631 -0.534774 -0.468549 0
M  V30 7994 H 766.233 -1.82657 -0.696902 0
M  V30 7995 H 764.937 -3.53995 -2.07644 0
M  V30 7996 H 764.468 -2.26753 -3.21476 0
M  V30 7997 H 766.483 -2.15074 -4.47166 0
M  V30 7998 N 765.656 0.84705 -1.32902 0
M  V30 7999 C 766.905 1.59667 -1.23245 0
M  V30 8000 C 767.218 1.94551 0.202349 0
M  V30 8001 O 768.424 2.68218 0.420847 0
M  V30 8002 C 766.88 2.8795 -2.15901 0
M  V30 8003 C 766.488 2.60461 -3.64505 0
M  V30 8004 C 768.232 3.65968 -2.15098 0
M  V30 8005 C 766.139 3.84791 -4.49099 0
M  V30 8006 H 765.069 0.599167 -0.457728 0
M  V30 8007 H 767.72 0.934662 -1.57912 0
M  V30 8008 H 766.102 3.55648 -1.74157 0
M  V30 8009 H 767.276 2.01026 -4.14639 0
M  V30 8010 H 765.591 1.9576 -3.67515 0
M  V30 8011 H 768.188 4.58241 -2.75534 0
M  V30 8012 H 768.531 4.00275 -1.14392 0
M  V30 8013 H 769.064 3.05184 -2.55162 0
M  V30 8014 H 765.803 3.55621 -5.50649 0
M  V30 8015 H 765.323 4.43594 -4.03713 0
M  V30 8016 H 767.002 4.52454 -4.62487 0
M  V30 8017 N 767.134 1.16236 1.06428 0
M  V30 8018 C 768.364 0.965782 1.82637 0
M  V30 8019 C 768.772 -0.489284 1.82764 0
M  V30 8020 O 768.115 -1.35133 1.24438 0
M  V30 8021 C 768.177 1.41458 3.30499 0
M  V30 8022 C 767.841 2.88926 3.54077 0
M  V30 8023 C 768.838 3.86939 3.47238 0
M  V30 8024 C 766.523 3.26814 3.81442 0
M  V30 8025 C 768.517 5.20841 3.67428 0
M  V30 8026 C 766.204 4.60886 4.01282 0
M  V30 8027 C 767.202 5.57708 3.94272 0
M  V30 8028 O 766.89 6.89357 4.13573 0
M  V30 8029 H 766.622 0.342569 0.582772 0
M  V30 8030 H 769.176 1.54641 1.35187 0
M  V30 8031 H 767.406 0.777426 3.78805 0
M  V30 8032 H 769.095 1.18563 3.88198 0
M  V30 8033 H 769.861 3.59014 3.26089 0
M  V30 8034 H 765.74 2.5203 3.86008 0
M  V30 8035 H 769.284 5.96401 3.61873 0
M  V30 8036 H 765.181 4.88522 4.21921 0
M  V30 8037 H 765.949 6.95913 4.30869 0
M  V30 8038 N 768.612 -1.24939 0.960631 0
M  V30 8039 C 769.575 -2.239 0.49006 0
M  V30 8040 C 770.575 -1.55497 -0.409535 0
M  V30 8041 O 771.765 -1.72978 -0.205984 0
M  V30 8042 C 768.897 -3.39654 -0.291193 0
M  V30 8043 H 770.09 -2.67044 1.36482 0
M  V30 8044 H 767.643 -1.37429 0.744505 0
M  V30 8045 H 768.378 -3.01939 -1.18336 0
M  V30 8046 H 768.163 -3.90496 0.354276 0
M  V30 8047 H 769.653 -4.13125 -0.609693 0
M  V30 8048 N 770.09 -0.729906 -1.39679 0
M  V30 8049 C 771.053 -0.0951668 -2.29002 0
M  V30 8050 C 772.053 0.672471 -1.46063 0
M  V30 8051 O 773.243 0.502245 -1.66803 0
M  V30 8052 C 770.375 0.874631 -3.29489 0
M  V30 8053 H 771.568 -0.882062 -2.86635 0
M  V30 8054 H 769.121 -0.495424 -1.4824 0
M  V30 8055 H 769.856 1.68807 -2.76902 0
M  V30 8056 H 769.641 0.326893 -3.90735 0
M  V30 8057 H 771.131 1.31548 -3.96339 0
M  V30 8058 N 771.568 1.50203 -0.477153 0
M  V30 8059 C 772.816 2.01959 0.0755889 0
M  V30 8060 C 773.137 1.3608 1.39668 0
M  V30 8061 O 772.407 0.508136 1.89195 0
M  V30 8062 H 770.987 0.74636 0.0309248 0
M  V30 8063 H 773.649 1.84473 -0.628959 0
M  V30 8064 H 772.745 3.11305 0.222683 0
M  V30 8065 N 773.046 0.209999 1.56195 0
M  V30 8066 C 774.294 -0.423974 1.97603 0
M  V30 8067 C 774.615 -1.61112 1.09854 0
M  V30 8068 O 773.885 -1.95134 0.173032 0
M  V30 8069 H 772.465 -0.159629 0.729745 0
M  V30 8070 H 775.127 0.300205 1.92574 0
M  V30 8071 H 774.223 -0.75809 3.02753 0
M  V30 8072 N 774.524 -1.57472 -0.0634922 0
M  V30 8073 C 775.754 -1.91608 -0.772645 0
M  V30 8074 C 776.162 -0.805019 -1.71219 0
M  V30 8075 O 775.505 0.229941 -1.82255 0
M  V30 8076 C 775.567 -3.21281 -1.61304 0
M  V30 8077 C 775.231 -4.49177 -0.841973 0
M  V30 8078 C 776.228 -5.19661 -0.157494 0
M  V30 8079 C 773.913 -4.9578 -0.80669 0
M  V30 8080 C 775.907 -6.35006 0.551948 0
M  V30 8081 C 773.594 -6.11028 -0.0934812 0
M  V30 8082 C 774.592 -6.80493 0.58463 0
M  V30 8083 O 774.28 -7.93542 1.28633 0
M  V30 8084 H 774.012 -0.637685 -0.224352 0
M  V30 8085 H 776.566 -2.05369 -0.0355279 0
M  V30 8086 H 774.796 -3.03752 -2.39315 0
M  V30 8087 H 776.485 -3.41003 -2.20162 0
M  V30 8088 H 777.251 -4.84681 -0.176006 0
M  V30 8089 H 773.13 -4.41579 -1.32397 0
M  V30 8090 H 776.674 -6.89161 1.0818 0
M  V30 8091 H 772.571 -6.45459 -0.0729258 0
M  V30 8092 H 773.339 -8.09708 1.19646 0
M  V30 8093 N 776.003 0.335068 -1.53997 0
M  V30 8094 C 777.28 1.09188 -1.62288 0
M  V30 8095 C 777.66 2.0626 -0.449458 0
M  V30 8096 O 777.008 2.21596 0.557444 0
M  V30 8097 C 777.218 1.80403 -2.98757 0
M  V30 8098 C 778.566 2.33841 -3.54406 0
M  V30 8099 O 779.59 1.90487 -3.00987 0
M  V30 8100 O 778.449 3.1318 -4.47862 0
M  V30 8101 H 775.543 0.502621 -0.656736 0
M  V30 8102 H 778.089 0.33588 -1.66343 0
M  V30 8103 H 776.861 1.09732 -3.75599 0
M  V30 8104 H 776.484 2.62841 -2.9833 0
M  V30 8105 N 777.481 1.45874 0.596531 0
M  V30 8106 C 778.729 1.5017 1.35253 0
M  V30 8107 C 779.05 0.149246 1.94428 0
M  V30 8108 O 778.32 -0.82268 1.77789 0
M  V30 8109 H 776.9 0.553052 0.502138 0
M  V30 8110 H 779.562 1.81908 0.699671 0
M  V30 8111 H 778.658 2.24671 2.16632 0
M  V30 8112 N 778.959 -0.83999 1.33349 0
M  V30 8113 C 779.891 -1.95678 1.19344 0
M  V30 8114 C 780.904 -1.62322 0.124692 0
M  V30 8115 O 782.093 -1.74516 0.375012 0
M  V30 8116 C 779.193 -3.29133 0.807771 0
M  V30 8117 C 778.366 -3.9063 1.96792 0
M  V30 8118 C 777.425 -5.02438 1.56341 0
M  V30 8119 O 776.451 -5.21646 2.27759 0
M  V30 8120 N 777.653 -5.78612 0.467767 0
M  V30 8121 H 780.418 -2.08229 2.15548 0
M  V30 8122 H 777.979 -1.01566 1.26079 0
M  V30 8123 H 779.971 -4.01355 0.519282 0
M  V30 8124 H 778.541 -3.12535 -0.063555 0
M  V30 8125 H 777.761 -3.11011 2.4221 0
M  V30 8126 H 779.049 -4.2845 2.74422 0
M  V30 8127 H 778.447 -5.65559 -0.126324 0
M  V30 8128 H 777.004 -6.51362 0.238945 0
M  V30 8129 N 780.437 -1.16799 -1.0581 0
M  V30 8130 C 781.714 -0.862616 -1.75551 0
M  V30 8131 C 782.094 0.6385 -2.01212 0
M  V30 8132 O 781.442 1.58784 -1.64317 0
M  V30 8133 C 781.652 -1.6907 -3.05314 0
M  V30 8134 C 783 -1.90675 -3.79379 0
M  V30 8135 O 784.024 -1.65976 -3.15167 0
M  V30 8136 O 782.883 -2.32145 -4.94743 0
M  V30 8137 H 779.977 -0.318789 -0.763088 0
M  V30 8138 H 782.523 -1.27461 -1.12034 0
M  V30 8139 H 781.295 -2.70912 -2.82352 0
M  V30 8140 H 780.918 -1.27606 -3.76567 0
M  V30 8141 N 781.915 1.24427 -0.967243 0
M  V30 8142 C 782.847 2.24641 -0.454856 0
M  V30 8143 C 783.86 1.56849 0.436152 0
M  V30 8144 O 785.049 1.76846 0.242401 0
M  V30 8145 C 782.149 3.36954 0.362672 0
M  V30 8146 C 781.322 4.34318 -0.518324 0
M  V30 8147 C 780.381 5.25638 0.243122 0
M  V30 8148 O 779.407 5.68043 -0.362791 0
M  V30 8149 N 780.609 5.59897 1.53282 0
M  V30 8150 H 783.374 2.69238 -1.31648 0
M  V30 8151 H 780.935 1.38464 -0.839015 0
M  V30 8152 H 782.927 3.95014 0.880094 0
M  V30 8153 H 781.497 2.91646 1.12522 0
M  V30 8154 H 780.717 3.74953 -1.21672 0
M  V30 8155 H 782.005 4.96338 -1.11919 0
M  V30 8156 H 781.403 5.27373 2.04682 0
M  V30 8157 H 779.96 6.20488 1.99594 0
M  V30 8158 N 783.393 0.737304 1.3929 0
M  V30 8159 C 784.323 0.113988 2.33222 0
M  V30 8160 C 785.304 -0.721695 1.54031 0
M  V30 8161 O 786.489 -0.666206 1.82415 0
M  V30 8162 C 783.619 -0.792319 3.38141 0
M  V30 8163 C 782.573 -0.0606178 4.27957 0
M  V30 8164 C 781.899 -1.08409 5.23595 0
M  V30 8165 C 783.199 1.09817 5.10625 0
M  V30 8166 H 784.893 0.898611 2.85596 0
M  V30 8167 H 782.439 0.433571 1.37318 0
M  V30 8168 H 784.392 -1.23793 4.02807 0
M  V30 8169 H 783.116 -1.60908 2.84211 0
M  V30 8170 H 781.775 0.365393 3.64775 0
M  V30 8171 H 781.423 -1.89449 4.6596 0
M  V30 8172 H 781.123 -0.599269 5.84536 0
M  V30 8173 H 782.647 -1.52936 5.91137 0
M  V30 8174 H 784.061 0.730892 5.68622 0
M  V30 8175 H 782.458 1.51278 5.80719 0
M  V30 8176 H 783.528 1.91878 4.45321 0
M  V30 8177 N 784.871 -1.49948 0.485112 0
M  V30 8178 C 785.819 -2.30449 -0.315609 0
M  V30 8179 C 786.813 -1.38351 -0.977516 0
M  V30 8180 O 788.019 -1.55477 -0.907019 0
M  V30 8181 H 784.394 -0.742262 -0.120629 0
M  V30 8182 H 786.365 -2.95925 0.383552 0
M  V30 8183 C 785.114 -3.19283 -1.37673 0
M  V30 8184 H 784.437 -3.90067 -0.876801 0
M  V30 8185 H 785.877 -3.78579 -1.90929 0
M  V30 8186 C 784.336 -2.37817 -2.38631 0
M  V30 8187 O 784.866 -2.0711 -3.44192 0
M  V30 8188 N 783.072 -2.00135 -2.107 0
M  V30 8189 H 782.619 -2.25307 -1.24878 0
M  V30 8190 H 782.577 -1.45933 -2.7848 0
M  V30 8191 N 786.349 -0.21828 -1.56081 0
M  V30 8192 C 787.574 0.422302 -2.03055 0
M  V30 8193 C 787.999 1.5279 -1.09713 0
M  V30 8194 O 787.357 1.81102 -0.0847187 0
M  V30 8195 C 787.405 0.934177 -3.48289 0
M  V30 8196 O 786.509 2.04574 -3.58083 0
M  V30 8197 H 785.85 0.0959764 -0.657027 0
M  V30 8198 H 788.38 -0.335958 -2.01823 0
M  V30 8199 H 788.39 1.24484 -3.88546 0
M  V30 8200 H 787.065 0.124963 -4.15712 0
M  V30 8201 H 785.642 1.74196 -3.29712 0
M  V30 8202 N 787.827 1.57504 0.0551401 0
M  V30 8203 C 789.073 1.88334 0.752216 0
M  V30 8204 C 789.406 0.812742 1.76375 0
M  V30 8205 O 788.681 -0.175198 1.93709 0
M  V30 8206 C 788.964 3.29824 1.44528 0
M  V30 8207 C 788.817 4.47553 0.449026 0
M  V30 8208 C 790.136 3.69808 2.38601 0
M  V30 8209 H 787.255 0.684973 0.271995 0
M  V30 8210 H 789.897 1.89994 0.0151895 0
M  V30 8211 H 788.047 3.28539 2.07351 0
M  V30 8212 H 789.719 4.60967 -0.175277 0
M  V30 8213 H 787.962 4.33168 -0.234162 0
M  V30 8214 H 788.633 5.43376 0.971917 0
M  V30 8215 H 791.109 3.72293 1.85842 0
M  V30 8216 H 789.985 4.69665 2.84088 0
M  V30 8217 H 790.246 3.00641 3.24141 0
M  V30 8218 N 789.305 -0.326896 1.54172 0
M  V30 8219 C 790.215 -1.42525 1.86343 0
M  V30 8220 C 791.231 -1.56764 0.75505 0
M  V30 8221 O 792.407 -1.71924 1.04901 0
M  V30 8222 C 789.472 -2.77286 2.08119 0
M  V30 8223 C 788.533 -2.7225 3.31931 0
M  V30 8224 C 787.766 -4.00584 3.52659 0
M  V30 8225 O 787.989 -4.98686 2.76891 0
M  V30 8226 O 786.923 -4.04045 4.46129 0
M  V30 8227 H 790.749 -1.18249 2.79734 0
M  V30 8228 H 788.334 -0.520614 1.40036 0
M  V30 8229 H 790.216 -3.57065 2.23791 0
M  V30 8230 H 788.891 -3.01459 1.17917 0
M  V30 8231 H 787.798 -1.91033 3.21647 0
M  V30 8232 H 789.131 -2.53032 4.2218 0
M  V30 8233 N 790.784 -1.46188 -0.588786 0
M  V30 8234 C 792.2 -1.31009 -0.911524 0
M  V30 8235 C 792.4 -0.277017 -1.99587 0
M  V30 8236 O 791.456 0.322532 -2.50432 0
M  V30 8237 C 792.769 -2.69459 -1.33463 0
M  V30 8238 C 794.317 -2.77502 -1.44782 0
M  V30 8239 C 794.792 -4.1652 -1.90461 0
M  V30 8240 N 796.283 -4.18907 -1.97665 0
M  V30 8241 C 797.018 -5.23359 -2.34271 0
M  V30 8242 N 796.514 -6.38143 -2.69714 0
M  V30 8243 N 798.307 -5.10723 -2.34774 0
M  V30 8244 H 790.458 -2.12016 0.127614 0
M  V30 8245 H 792.721 -0.947984 -0.00557599 0
M  V30 8246 H 792.427 -3.46336 -0.611929 0
M  V30 8247 H 792.301 -2.99165 -2.2974 0
M  V30 8248 H 794.688 -2.00917 -2.1614 0
M  V30 8249 H 794.769 -2.51488 -0.467724 0
M  V30 8250 H 794.413 -4.93597 -1.19684 0
M  V30 8251 H 794.343 -4.39937 -2.89418 0
M  V30 8252 H 796.834 -3.36084 -1.72789 0
M  V30 8253 H 797.147 -7.13624 -2.96582 0
M  V30 8254 H 795.492 -6.41514 -2.67366 0
M  V30 8255 H 798.683 -4.20088 -2.06503 0
M  V30 8256 H 798.856 -5.9224 -2.62975 0
M  V30 8257 N 792.262 0.832906 -1.33792 0
M  V30 8258 C 793.492 1.61813 -1.28453 0
M  V30 8259 C 793.9 1.88639 0.145595 0
M  V30 8260 O 793.243 1.47122 1.10004 0
M  V30 8261 C 793.305 2.98929 -1.99704 0
M  V30 8262 C 792.969 2.95045 -3.48995 0
M  V30 8263 C 793.966 2.70337 -4.44088 0
M  V30 8264 C 791.651 3.14993 -3.91261 0
M  V30 8265 C 793.645 2.65612 -5.79421 0
M  V30 8266 C 791.332 3.09893 -5.26697 0
M  V30 8267 C 792.33 2.85235 -6.20588 0
M  V30 8268 O 792.018 2.8005 -7.53543 0
M  V30 8269 H 791.75 0.510013 -0.443693 0
M  V30 8270 H 794.304 1.04514 -1.76822 0
M  V30 8271 H 792.534 3.58106 -1.45935 0
M  V30 8272 H 794.223 3.59849 -1.87786 0
M  V30 8273 H 794.989 2.54671 -4.12756 0
M  V30 8274 H 790.868 3.33204 -3.18584 0
M  V30 8275 H 794.412 2.46285 -6.52679 0
M  V30 8276 H 790.309 3.2511 -5.5765 0
M  V30 8277 H 791.077 2.95849 -7.63162 0
M  V30 8278 N 793.74 1.17359 1.05189 0
M  V30 8279 C 795.017 0.871914 1.75091 0
M  V30 8280 C 795.397 -0.627821 2.01548 0
M  V30 8281 O 794.745 -1.5791 1.65156 0
M  V30 8282 C 794.955 1.70687 3.04413 0
M  V30 8283 C 796.303 1.92684 3.78362 0
M  V30 8284 O 797.327 1.67645 3.14282 0
M  V30 8285 O 796.186 2.34765 4.93505 0
M  V30 8286 H 793.28 0.322831 0.761386 0
M  V30 8287 H 795.826 1.28054 1.11357 0
M  V30 8288 H 794.598 2.72405 2.80911 0
M  V30 8289 H 794.221 1.29602 3.75884 0
M  V30 8290 N 795.218 -1.23913 0.973828 0
M  V30 8291 C 796.464 -1.92436 0.640026 0
M  V30 8292 C 796.797 -1.75875 -0.823512 0
M  V30 8293 O 796.072 -1.11563 -1.59323 0
M  V30 8294 C 796.355 -3.4526 1.0231 0
M  V30 8295 C 796.208 -3.70961 2.54378 0
M  V30 8296 C 797.527 -4.36495 0.562155 0
M  V30 8297 H 794.646 -0.698868 0.233992 0
M  V30 8298 H 797.288 -1.46163 1.21393 0
M  V30 8299 H 795.438 -3.84802 0.534751 0
M  V30 8300 H 797.11 -3.40941 3.10737 0
M  V30 8301 H 795.353 -3.15899 2.97305 0
M  V30 8302 H 796.024 -4.77912 2.76232 0
M  V30 8303 H 798.5 -4.04363 0.981333 0
M  V30 8304 H 797.376 -5.42142 0.858689 0
M  V30 8305 H 797.637 -4.38818 -0.537659 0
M  V30 8306 N 796.696 -0.74468 -1.38897 0
M  V30 8307 C 797.606 -0.112892 -2.34328 0
M  V30 8308 C 798.622 0.71087 -1.58816 0
M  V30 8309 O 799.798 0.637092 -1.91058 0
M  V30 8310 C 796.863 0.776417 -3.37894 0
M  V30 8311 C 795.924 -0.0606999 -4.29257 0
M  V30 8312 C 795.157 0.786258 -5.27877 0
M  V30 8313 O 795.38 2.02463 -5.33259 0
M  V30 8314 O 794.314 0.209781 -6.01534 0
M  V30 8315 H 798.14 -0.900801 -2.90033 0
M  V30 8316 H 795.725 -0.505462 -1.4059 0
M  V30 8317 H 797.607 1.28496 -4.01331 0
M  V30 8318 H 796.282 1.54297 -2.84559 0
M  V30 8319 H 795.189 -0.614984 -3.69011 0
M  V30 8320 H 796.522 -0.789702 -4.85824 0
M  V30 8321 N 798.174 1.49689 -0.493057 0
M  V30 8322 C 799.402 2.06836 0.0513141 0
M  V30 8323 C 799.817 1.35436 1.31539 0
M  V30 8324 O 799.174 0.430248 1.77356 0
M  V30 8325 C 799.225 3.60107 0.317003 0
M  V30 8326 O 798.946 4.2882 -0.896957 0
M  V30 8327 C 800.447 4.33945 0.905902 0
M  V30 8328 H 797.667 0.670787 -0.0169048 0
M  V30 8329 H 800.211 1.92574 -0.688139 0
M  V30 8330 H 798.366 3.74099 1.00642 0
M  V30 8331 H 798.78 5.20395 -0.654939 0
M  V30 8332 H 800.254 5.42087 1.04144 0
M  V30 8333 H 800.731 3.95895 1.90168 0
M  V30 8334 H 801.337 4.2454 0.254195 0
M  V30 8335 N 799.652 0.226554 1.55963 0
M  V30 8336 C 800.562 -0.692725 2.24139 0
M  V30 8337 C 801.578 -1.20971 1.25068 0
M  V30 8338 O 802.754 -1.25027 1.57893 0
M  V30 8339 C 799.819 -1.88183 2.91184 0
M  V30 8340 C 798.88 -1.40633 4.05612 0
M  V30 8341 C 798.113 -2.53875 4.6945 0
M  V30 8342 O 798.336 -3.72129 4.32292 0
M  V30 8343 O 797.27 -2.24792 5.58348 0
M  V30 8344 H 801.096 -0.141921 3.03368 0
M  V30 8345 H 798.681 -0.0041049 1.49399 0
M  V30 8346 H 800.563 -2.57617 3.33484 0
M  V30 8347 H 799.238 -2.42064 2.14911 0
M  V30 8348 H 798.145 -0.67986 3.67871 0
M  V30 8349 H 799.478 -0.913838 4.83642 0
M  V30 8350 N 801.13 -1.57531 -0.0467866 0
M  V30 8351 C 802.358 -1.92696 -0.753371 0
M  V30 8352 C 802.773 -0.824792 -1.69831 0
M  V30 8353 O 802.13 0.200155 -1.81399 0
M  V30 8354 C 802.181 -3.27728 -1.52566 0
M  V30 8355 O 801.902 -4.3371 -0.618674 0
M  V30 8356 C 803.403 -3.77066 -2.33101 0
M  V30 8357 H 800.623 -0.636367 -0.212788 0
M  V30 8358 H 803.167 -2.04498 -0.00959361 0
M  V30 8359 H 801.322 -3.17378 -2.22148 0
M  V30 8360 H 801.736 -5.11548 -1.15839 0
M  V30 8361 H 803.21 -4.74109 -2.82709 0
M  V30 8362 H 803.687 -3.07348 -3.13741 0
M  V30 8363 H 804.293 -3.90442 -1.68628 0
M  V30 8364 N 802.608 0.318715 -1.54344 0
M  V30 8365 C 803.854 1.05383 -1.73971 0
M  V30 8366 C 804.209 1.85524 -0.509781 0
M  V30 8367 O 803.502 1.8502 0.49782 0
M  V30 8368 C 803.696 2.00514 -2.95853 0
M  V30 8369 C 803.525 1.29728 -4.30582 0
M  V30 8370 C 802.295 1.03177 -4.94654 0
M  V30 8371 C 804.493 0.710718 -5.09366 0
M  V30 8372 N 802.475 0.29232 -6.13204 0
M  V30 8373 C 803.846 0.103132 -6.19914 0
M  V30 8374 C 805.901 0.614011 -4.94099 0
M  V30 8375 C 804.604 -0.591782 -7.16862 0
M  V30 8376 C 806.63 -0.0672115 -5.91362 0
M  V30 8377 C 805.992 -0.663721 -7.01266 0
M  V30 8378 H 802.091 0.369157 -0.689382 0
M  V30 8379 H 804.675 0.334453 -1.91806 0
M  V30 8380 H 802.846 2.69719 -2.79475 0
M  V30 8381 H 804.578 2.67046 -3.04086 0
M  V30 8382 H 801.333 1.32536 -4.54677 0
M  V30 8383 H 801.757 -0.0634005 -6.7697 0
M  V30 8384 H 806.399 1.06091 -4.09273 0
M  V30 8385 H 804.117 -1.0505 -8.01243 0
M  V30 8386 H 807.703 -0.141742 -5.81627 0
M  V30 8387 H 806.583 -1.18248 -7.75234 0
M  V30 8388 N 804.086 1.46499 0.581025 0
M  V30 8389 C 805.314 1.5547 1.36517 0
M  V30 8390 C 805.729 0.196407 1.87776 0
M  V30 8391 O 805.086 -0.806577 1.63709 0
M  V30 8392 C 805.137 2.56084 2.55154 0
M  V30 8393 O 804.858 3.86637 2.06018 0
M  V30 8394 C 806.359 2.75011 3.47683 0
M  V30 8395 H 803.579 0.525703 0.416986 0
M  V30 8396 H 806.123 1.9192 0.706177 0
M  V30 8397 H 804.278 2.22633 3.17039 0
M  V30 8398 H 804.692 4.41413 2.83292 0
M  V30 8399 H 806.166 3.49329 4.27403 0
M  V30 8400 H 806.643 1.81978 3.99726 0
M  V30 8401 H 807.249 3.09565 2.91632 0
M  V30 8402 N 805.565 -0.825799 1.34232 0
M  V30 8403 C 806.812 -1.58185 1.26427 0
M  V30 8404 C 807.14 -1.93786 -0.166533 0
M  V30 8405 O 806.395 -1.59986 -1.12707 0
M  V30 8406 C 806.694 -2.89362 2.09772 0
M  V30 8407 C 806.36 -2.73066 3.58812 0
M  V30 8408 C 805.022 -2.68329 3.99441 0
M  V30 8409 C 807.374 -2.56946 4.53462 0
M  V30 8410 C 804.702 -2.4539 5.32917 0
M  V30 8411 C 807.054 -2.35538 5.87115 0
M  V30 8412 C 805.718 -2.29212 6.26912 0
M  V30 8413 H 804.988 -0.57884 0.462629 0
M  V30 8414 H 807.635 -0.955714 1.65947 0
M  V30 8415 H 805.94 -3.56251 1.63071 0
M  V30 8416 H 807.637 -3.4694 2.01081 0
M  V30 8417 H 804.227 -2.77591 3.26559 0
M  V30 8418 H 808.411 -2.59631 4.22972 0
M  V30 8419 H 803.667 -2.38947 5.62774 0
M  V30 8420 H 807.841 -2.22051 6.6005 0
M  V30 8421 H 805.468 -2.11197 7.30274 0
M  V30 8422 N 807.043 -1.17915 -1.04565 0
M  V30 8423 C 808.289 -0.972863 -1.77942 0
M  V30 8424 C 808.622 0.496753 -1.87739 0
M  V30 8425 O 807.897 1.3688 -1.38181 0
M  V30 8426 C 808.18 -1.62227 -3.21488 0
M  V30 8427 C 808.033 -3.16441 -3.19664 0
M  V30 8428 C 809.352 -1.33137 -4.19479 0
M  V30 8429 H 806.471 -0.354843 -0.645953 0
M  V30 8430 H 809.113 -1.45508 -1.22178 0
M  V30 8431 H 807.263 -1.21224 -3.69103 0
M  V30 8432 H 808.935 -3.66544 -2.80077 0
M  V30 8433 H 807.178 -3.48863 -2.57832 0
M  V30 8434 H 807.849 -3.57012 -4.21006 0
M  V30 8435 H 810.325 -1.68654 -3.80388 0
M  V30 8436 H 809.201 -1.81151 -5.18146 0
M  V30 8437 H 809.462 -0.253319 -4.41374 0
M  V30 8438 N 808.521 1.23394 -0.980386 0
M  V30 8439 C 809.484 2.23092 -0.525619 0
M  V30 8440 C 810.484 1.56129 0.384745 0
M  V30 8441 O 811.674 1.73284 0.178439 0
M  V30 8442 C 808.806 3.40074 0.23712 0
M  V30 8443 H 809.999 2.64839 -1.40714 0
M  V30 8444 H 807.552 1.36227 -0.766275 0
M  V30 8445 H 808.287 3.03783 1.13518 0
M  V30 8446 H 808.072 3.89883 -0.416356 0
M  V30 8447 H 809.562 4.14043 0.543892 0
M  V30 8448 N 809.999 0.752036 1.385 0
M  V30 8449 C 811.41 0.375385 1.82887 0
M  V30 8450 C 811.761 -1.09575 1.62751 0
M  V30 8451 O 810.886 -1.84685 1.12785 0
M  V30 8452 C 811.481 0.674563 3.32017 0
M  V30 8453 C 810.04 0.351208 3.74758 0
M  V30 8454 C 809.187 0.928531 2.61292 0
M  V30 8455 H 812.138 0.948313 1.27251 0
M  V30 8456 H 812.159 -0.0477781 3.8047 0
M  V30 8457 H 811.671 1.74533 3.46641 0
M  V30 8458 H 809.772 -0.713042 3.65714 0
M  V30 8459 H 809.885 0.845675 4.71577 0
M  V30 8460 H 808.249 0.354012 2.52228 0
M  V30 8461 H 809.032 2.0043 2.78716 0
M  V30 8462 N 811.477 -1.49425 0.500989 0
M  V30 8463 C 812.41 -2.25887 -0.324087 0
M  V30 8464 C 813.388 -1.30469 -0.970388 0
M  V30 8465 O 814.572 -1.59758 -1.00049 0
M  V30 8466 C 811.699 -3.05787 -1.45643 0
M  V30 8467 C 810.745 -4.16359 -0.924508 0
M  V30 8468 S 811.578 -5.35181 0.184707 0
M  V30 8469 C 812.734 -6.18636 -0.950806 0
M  V30 8470 H 812.967 -2.95519 0.324891 0
M  V30 8471 H 810.5 -1.51723 0.286289 0
M  V30 8472 H 812.458 -3.52405 -2.10525 0
M  V30 8473 H 811.119 -2.35624 -2.07703 0
M  V30 8474 H 810.312 -4.71781 -1.77311 0
M  V30 8475 H 809.914 -3.72331 -0.352907 0
M  V30 8476 H 812.206 -6.51581 -1.85603 0
M  V30 8477 H 813.149 -7.06761 -0.435212 0
M  V30 8478 H 813.557 -5.512 -1.21813 0
M  V30 8479 N 812.955 -0.234822 -1.55841 0
M  V30 8480 C 813.902 0.6698 -2.20867 0
M  V30 8481 C 814.872 1.18042 -1.16856 0
M  V30 8482 O 816.057 1.23709 -1.45261 0
M  V30 8483 C 813.197 1.86646 -2.90271 0
M  V30 8484 C 812.31 1.39351 -4.08908 0
M  V30 8485 C 811.445 2.54878 -4.66059 0
M  V30 8486 C 810.484 2.04384 -5.76969 0
M  V30 8487 N 809.621 3.13233 -6.28355 0
M  V30 8488 H 814.461 0.10858 -2.97802 0
M  V30 8489 H 811.998 0.041836 -1.4704 0
M  V30 8490 H 813.956 2.56926 -3.28702 0
M  V30 8491 H 812.586 2.40035 -2.15831 0
M  V30 8492 H 811.638 0.585173 -3.75872 0
M  V30 8493 H 812.95 0.983356 -4.89011 0
M  V30 8494 H 812.104 3.33219 -5.07001 0
M  V30 8495 H 810.843 2.99188 -3.85146 0
M  V30 8496 H 809.848 1.24509 -5.35516 0
M  V30 8497 H 811.073 1.61057 -6.59725 0
M  V30 8498 H 809.019 3.57 -5.50352 0
M  V30 8499 H 808.936 2.76511 -7.03618 0
M  V30 8500 H 810.204 3.91669 -6.73955 0
M  V30 8501 N 814.433 1.57553 0.0384317 0
M  V30 8502 C 815.383 2.02404 1.0496 0
M  V30 8503 C 816.367 0.911705 1.32577 0
M  V30 8504 O 817.559 1.17561 1.32319 0
M  V30 8505 C 814.688 2.49924 2.35357 0
M  V30 8506 C 813.774 3.6796 2.1087 0
M  V30 8507 N 814.165 4.81009 1.56411 0
M  V30 8508 C 812.463 3.75153 2.41197 0
M  V30 8509 C 813.164 5.62686 1.47512 0
M  V30 8510 N 812.14 5.0752 1.94742 0
M  V30 8511 H 815.942 2.87234 0.622399 0
M  V30 8512 H 813.456 1.60543 0.244916 0
M  V30 8513 H 815.453 2.80312 3.08595 0
M  V30 8514 H 814.113 1.66496 2.78763 0
M  V30 8515 H 815.124 5.02636 1.2481 0
M  V30 8516 H 811.801 3.02507 2.87742 0
M  V30 8517 H 813.191 6.6349 1.05976 0
M  V30 8518 N 815.911 -0.310526 1.54511 0
M  V30 8519 C 817.327 -0.655637 1.45511 0
M  V30 8520 C 817.527 -1.91114 0.638564 0
M  V30 8521 O 816.583 -2.52098 0.142497 0
M  V30 8522 C 817.896 -0.817501 2.89374 0
M  V30 8523 C 819.444 -0.914003 2.99358 0
M  V30 8524 C 819.919 -1.10794 4.44397 0
M  V30 8525 N 821.41 -1.17437 4.48066 0
M  V30 8526 C 822.145 -1.34255 5.57461 0
M  V30 8527 N 821.641 -1.48032 6.768 0
M  V30 8528 N 823.434 -1.37067 5.45132 0
M  V30 8529 H 815.585 0.514506 2.06074 0
M  V30 8530 H 817.848 0.168478 0.932909 0
M  V30 8531 H 817.554 0.034003 3.51684 0
M  V30 8532 H 817.428 -1.7094 3.36243 0
M  V30 8533 H 819.815 -1.756 2.37168 0
M  V30 8534 H 819.896 0.00170958 2.558 0
M  V30 8535 H 819.54 -0.270743 5.07178 0
M  V30 8536 H 819.47 -2.03773 4.85576 0
M  V30 8537 H 821.961 -1.08181 3.62084 0
M  V30 8538 H 822.274 -1.60593 7.5593 0
M  V30 8539 H 820.619 -1.45105 6.79683 0
M  V30 8540 H 823.81 -1.25909 4.50849 0
M  V30 8541 H 823.983 -1.49831 6.3044 0
M  V30 8542 N 817.389 -1.46805 -0.573248 0
M  V30 8543 C 818.805 -1.31969 -0.897577 0
M  V30 8544 C 819.005 -0.298171 -1.99282 0
M  V30 8545 O 818.061 0.295953 -2.5076 0
M  V30 8546 C 819.374 -2.70859 -1.30598 0
M  V30 8547 C 820.922 -2.79022 -1.4183 0
M  V30 8548 C 821.397 -4.18516 -1.86033 0
M  V30 8549 N 822.888 -4.2098 -1.9321 0
M  V30 8550 C 823.623 -5.25814 -2.28707 0
M  V30 8551 N 823.119 -6.40968 -2.6293 0
M  V30 8552 N 824.912 -5.13184 -2.29343 0
M  V30 8553 H 817.063 -2.11869 0.150094 0
M  V30 8554 H 819.326 -0.947989 0.00447895 0
M  V30 8555 H 819.032 -3.46965 -0.575161 0
M  V30 8556 H 818.906 -3.01585 -2.26554 0
M  V30 8557 H 821.293 -2.03198 -2.13996 0
M  V30 8558 H 821.374 -2.51969 -0.441024 0
M  V30 8559 H 821.018 -4.94839 -1.14442 0
M  V30 8560 H 820.948 -4.42982 -2.84735 0
M  V30 8561 H 823.439 -3.37898 -1.69214 0
M  V30 8562 H 823.752 -7.16729 -2.88996 0
M  V30 8563 H 822.097 -6.44314 -2.60547 0
M  V30 8564 H 825.288 -4.22255 -2.02036 0
M  V30 8565 H 825.461 -5.94996 -2.56679 0
M  V30 8566 N 818.867 0.818669 -1.34668 0
M  V30 8567 C 820.092 1.61193 -1.30505 0
M  V30 8568 C 820.517 1.87734 0.117341 0
M  V30 8569 O 819.875 1.45591 1.08042 0
M  V30 8570 C 819.923 2.92733 -2.1057 0
M  V30 8571 O 819.027 3.85 -1.47813 0
M  V30 8572 H 818.368 0.490085 -0.44801 0
M  V30 8573 H 820.898 1.01701 -1.77534 0
M  V30 8574 H 820.908 3.42262 -2.22082 0
M  V30 8575 H 819.583 2.7274 -3.13984 0
M  V30 8576 H 818.16 3.43525 -1.45069 0
M  V30 8577 N 820.346 1.18468 1.03938 0
M  V30 8578 C 821.309 0.914944 2.10146 0
M  V30 8579 C 822.309 -0.10022 1.60487 0
M  V30 8580 O 823.499 0.133365 1.73689 0
M  V30 8581 C 820.631 0.372993 3.38853 0
M  V30 8582 H 821.824 1.85677 2.35508 0
M  V30 8583 H 819.377 0.996876 1.20383 0
M  V30 8584 H 820.112 -0.57538 3.19155 0
M  V30 8585 H 819.897 1.1048 3.76213 0
M  V30 8586 H 821.387 0.203014 4.17106 0
M  V30 8587 N 821.824 -1.22873 0.986916 0
M  V30 8588 C 822.754 -2.2688 0.552064 0
M  V30 8589 C 823.735 -1.64883 -0.418048 0
M  V30 8590 O 824.92 -1.9171 -0.30999 0
M  V30 8591 C 822.05 -3.47018 -0.139959 0
M  V30 8592 C 821.004 -4.21411 0.748091 0
M  V30 8593 C 820.33 -5.34645 -0.0765132 0
M  V30 8594 C 821.63 -4.80726 2.04206 0
M  V30 8595 H 823.324 -2.63507 1.42143 0
M  V30 8596 H 820.87 -1.26668 0.68492 0
M  V30 8597 H 822.823 -4.18931 -0.455527 0
M  V30 8598 H 821.547 -3.0947 -1.04382 0
M  V30 8599 H 820.206 -3.51325 1.04721 0
M  V30 8600 H 819.854 -4.93339 -0.981109 0
M  V30 8601 H 819.554 -5.85342 0.514606 0
M  V30 8602 H 821.078 -6.09377 -0.386313 0
M  V30 8603 H 822.492 -5.44612 1.79083 0
M  V30 8604 H 820.889 -5.41737 2.5815 0
M  V30 8605 H 821.959 -4.01109 2.72469 0
M  V30 8606 N 823.302 -0.75937 -1.38099 0
M  V30 8607 C 824.55 -0.317485 -1.99591 0
M  V30 8608 C 824.871 1.10628 -1.60581 0
M  V30 8609 O 824.141 1.7575 -0.865378 0
M  V30 8610 H 822.721 -0.114397 -0.738189 0
M  V30 8611 H 825.383 -0.974749 -1.68774 0
M  V30 8612 H 824.479 -0.385227 -3.09713 0
M  V30 8613 N 824.78 1.49157 -0.508906 0
M  V30 8614 C 826.029 2.0167 0.0346854 0
M  V30 8615 C 826.342 1.39302 1.37311 0
M  V30 8616 O 827.548 1.83189 2.00385 0
M  V30 8617 C 826.004 3.59725 0.112261 0
M  V30 8618 C 825.612 4.31069 -1.21999 0
M  V30 8619 C 827.356 4.20155 0.605798 0
M  V30 8620 C 825.263 5.81001 -1.10415 0
M  V30 8621 H 824.193 0.753814 0.0167355 0
M  V30 8622 H 826.844 1.7162 -0.649518 0
M  V30 8623 H 825.226 3.86525 0.861087 0
M  V30 8624 H 826.4 4.15962 -1.98273 0
M  V30 8625 H 824.715 3.82418 -1.64759 0
M  V30 8626 H 827.312 5.29964 0.710102 0
M  V30 8627 H 827.655 3.84051 1.60656 0
M  V30 8628 H 828.188 3.97705 -0.0867239 0
M  V30 8629 H 824.927 6.21643 -2.07941 0
M  V30 8630 H 824.447 5.9858 -0.382428 0
M  V30 8631 H 826.126 6.42207 -0.786116 0
M  V30 8632 N 826.258 0.243083 1.55714 0
M  V30 8633 C 827.486 -0.386971 2.03249 0
M  V30 8634 C 827.901 -1.51812 1.12243 0
M  V30 8635 O 827.258 -1.81992 0.136119 0
M  V30 8636 C 827.309 -0.898361 3.5016 0
M  V30 8637 O 827.03 0.187708 4.37698 0
M  V30 8638 C 828.531 -1.59949 4.13438 0
M  V30 8639 H 825.751 -0.0923981 0.664608 0
M  V30 8640 H 828.295 0.365832 2.01201 0
M  V30 8641 H 826.45 -1.60136 3.52754 0
M  V30 8642 H 826.864 -0.200001 5.24119 0
M  V30 8643 H 828.338 -1.90907 5.17937 0
M  V30 8644 H 828.815 -2.52014 3.59702 0
M  V30 8645 H 829.421 -0.941163 4.14756 0
M  V30 8646 N 827.736 -1.57571 -0.0300757 0
M  V30 8647 C 828.982 -1.89506 -0.722159 0
M  V30 8648 C 829.315 -0.840699 -1.7506 0
M  V30 8649 O 828.59 0.144358 -1.93964 0
M  V30 8650 C 828.873 -3.32081 -1.39262 0
M  V30 8651 C 828.726 -4.48211 -0.377768 0
M  V30 8652 C 830.045 -3.73557 -2.32687 0
M  V30 8653 H 827.164 -0.689213 -0.261064 0
M  V30 8654 H 829.806 -1.89994 0.0150388 0
M  V30 8655 H 827.956 -3.31796 -2.02098 0
M  V30 8656 H 829.628 -4.6063 0.248591 0
M  V30 8657 H 827.871 -4.3274 0.303045 0
M  V30 8658 H 828.542 -5.44854 -0.885347 0
M  V30 8659 H 831.018 -3.75202 -1.79896 0
M  V30 8660 H 829.894 -4.74125 -2.7658 0
M  V30 8661 H 830.155 -3.05759 -3.19317 0
M  V30 8662 N 829.214 0.302327 -1.54673 0
M  V30 8663 C 830.164 1.37443 -1.81916 0
M  V30 8664 C 831.148 1.45999 -0.676251 0
M  V30 8665 O 832.34 1.50174 -0.93685 0
M  V30 8666 C 829.469 2.73966 -2.06876 0
M  V30 8667 C 828.555 2.69637 -3.27348 0
M  V30 8668 N 828.946 2.34926 -4.47933 0
M  V30 8669 C 827.244 3.00742 -3.29348 0
M  V30 8670 C 827.945 2.39862 -5.29944 0
M  V30 8671 N 826.921 2.77163 -4.67634 0
M  V30 8672 H 830.723 1.09567 -2.72713 0
M  V30 8673 H 828.237 0.5109 -1.54154 0
M  V30 8674 H 830.234 3.51265 -2.2454 0
M  V30 8675 H 828.894 3.02754 -1.17346 0
M  V30 8676 H 829.905 2.07403 -4.74557 0
M  V30 8677 H 826.582 3.34434 -2.49921 0
M  V30 8678 H 827.972 2.15835 -6.3629 0
M  V30 8679 N 830.692 1.47107 0.565454 0
M  V30 8680 C 831.624 1.55024 1.6882 0
M  V30 8681 C 832.637 0.4371 1.56822 0
M  V30 8682 O 833.826 0.706315 1.63931 0
M  V30 8683 C 830.926 1.43069 3.0722 0
M  V30 8684 C 830.099 2.68807 3.45053 0
M  V30 8685 C 829.158 2.50806 4.62583 0
M  V30 8686 O 828.184 3.24593 4.67577 0
M  V30 8687 N 829.386 1.58093 5.58558 0
M  V30 8688 H 832.151 2.51836 1.62477 0
M  V30 8689 H 829.712 1.43382 0.751885 0
M  V30 8690 H 831.704 1.28773 3.83666 0
M  V30 8691 H 830.274 0.543721 3.07835 0
M  V30 8692 H 829.494 2.97923 2.58138 0
M  V30 8693 H 830.782 3.52298 3.67101 0
M  V30 8694 H 830.18 0.972807 5.57273 0
M  V30 8695 H 828.737 1.49753 6.34364 0
M  V30 8696 N 832.17 -0.811516 1.35101 0
M  V30 8697 C 833.418 -1.56525 1.27845 0
M  V30 8698 C 833.739 -1.94435 -0.14829 0
M  V30 8699 O 833.009 -1.63203 -1.08359 0
M  V30 8700 H 831.589 -0.580433 0.47022 0
M  V30 8701 H 834.251 -0.968277 1.69146 0
M  V30 8702 H 833.347 -2.48291 1.89097 0
M  V30 8703 N 833.648 -1.19017 -1.03309 0
M  V30 8704 C 835.064 -0.941483 -1.28873 0
M  V30 8705 C 835.264 0.388587 -1.97718 0
M  V30 8706 O 834.32 1.12111 -2.26246 0
M  V30 8707 C 835.633 -2.11249 -2.13996 0
M  V30 8708 C 837.181 -2.15164 -2.27318 0
M  V30 8709 C 837.656 -3.31704 -3.15811 0
M  V30 8710 N 839.147 -3.31613 -3.23399 0
M  V30 8711 C 839.882 -4.18431 -3.9205 0
M  V30 8712 N 839.378 -5.15397 -4.62966 0
M  V30 8713 N 841.171 -4.06321 -3.88406 0
M  V30 8714 H 833.322 -2.04599 -0.570343 0
M  V30 8715 H 835.585 -0.894406 -0.314232 0
M  V30 8716 H 835.291 -3.07482 -1.70727 0
M  V30 8717 H 835.165 -2.07955 -3.14697 0
M  V30 8718 H 837.552 -1.19504 -2.6982 0
M  V30 8719 H 837.633 -2.22513 -1.26182 0
M  V30 8720 H 837.277 -4.2764 -2.74019 0
M  V30 8721 H 837.207 -3.21592 -4.16997 0
M  V30 8722 H 839.698 -2.6142 -2.72888 0
M  V30 8723 H 840.011 -5.78 -5.12968 0
M  V30 8724 H 838.356 -5.19349 -4.61846 0
M  V30 8725 H 841.547 -3.29849 -3.3214 0
M  V30 8726 H 841.72 -4.74196 -4.41635 0
M  V30 8727 N 835.127 1.22348 -0.993418 0
M  V30 8728 C 836.376 1.90422 -0.665019 0
M  V30 8729 C 836.689 1.78199 0.806512 0
M  V30 8730 O 837.895 2.41193 1.24652 0
M  V30 8731 C 836.351 3.41403 -1.13893 0
M  V30 8732 C 835.959 3.62262 -2.63572 0
M  V30 8733 C 837.703 4.15175 -0.884884 0
M  V30 8734 C 835.61 5.06947 -3.04564 0
M  V30 8735 H 834.54 0.713073 -0.245037 0
M  V30 8736 H 837.191 1.3856 -1.20305 0
M  V30 8737 H 835.573 3.9245 -0.529027 0
M  V30 8738 H 836.747 3.21705 -3.29913 0
M  V30 8739 H 835.062 3.01824 -2.86865 0
M  V30 8740 H 837.659 5.21813 -1.16684 0
M  V30 8741 H 838.002 4.15915 0.178982 0
M  V30 8742 H 838.535 3.70157 -1.45701 0
M  V30 8743 H 835.274 5.11346 -4.10128 0
M  V30 8744 H 834.794 5.48404 -2.42927 0
M  V30 8745 H 836.473 5.75374 -2.95894 0
M  V30 8746 N 836.605 0.766683 1.37694 0
M  V30 8747 C 837.835 0.339446 2.03792 0
M  V30 8748 C 838.243 -1.04153 1.57952 0
M  V30 8749 O 837.586 -1.67521 0.753826 0
M  V30 8750 C 837.648 0.29822 3.58261 0
M  V30 8751 C 837.312 1.62293 4.27212 0
M  V30 8752 C 838.309 2.57447 4.51682 0
M  V30 8753 C 835.994 1.89597 4.65143 0
M  V30 8754 C 837.988 3.78117 5.13134 0
M  V30 8755 C 835.675 3.10538 5.26317 0
M  V30 8756 C 836.673 4.04617 5.50249 0
M  V30 8757 O 836.361 5.23429 6.10145 0
M  V30 8758 H 836.093 0.140952 0.661142 0
M  V30 8759 H 838.647 1.04022 1.77111 0
M  V30 8760 H 836.877 -0.458897 3.83967 0
M  V30 8761 H 838.566 -0.101263 4.05774 0
M  V30 8762 H 839.332 2.37633 4.22795 0
M  V30 8763 H 835.211 1.17199 4.45854 0
M  V30 8764 H 838.755 4.51563 5.3173 0
M  V30 8765 H 834.652 3.3024 5.54628 0
M  V30 8766 H 835.42 5.24187 6.28626 0
M  V30 8767 N 838.083 -1.48885 0.516809 0
M  V30 8768 C 839.329 -2.02788 -0.0220928 0
M  V30 8769 C 839.662 -1.39433 -1.35175 0
M  V30 8770 O 838.937 -0.535459 -1.86984 0
M  V30 8771 C 839.22 -3.59753 -0.158012 0
M  V30 8772 C 839.073 -4.33611 1.19588 0
M  V30 8773 C 840.392 -4.30984 -0.891133 0
M  V30 8774 H 837.511 -0.736971 -0.00655488 0
M  V30 8775 H 840.153 -1.77746 0.671287 0
M  V30 8776 H 838.303 -3.8122 -0.748568 0
M  V30 8777 H 839.975 -4.23598 1.82653 0
M  V30 8778 H 838.218 -3.95547 1.78116 0
M  V30 8779 H 838.889 -5.41846 1.05391 0
M  V30 8780 H 841.365 -4.14267 -0.39012 0
M  V30 8781 H 840.241 -5.40527 -0.955107 0
M  V30 8782 H 840.502 -3.97336 -1.93847 0
M  V30 8783 N 839.561 -0.251338 -1.55583 0
M  V30 8784 C 840.491 0.640437 -2.24545 0
M  V30 8785 C 841.472 1.17781 -1.22726 0
M  V30 8786 O 842.657 1.21633 -1.5139 0
M  V30 8787 C 839.787 1.8355 -2.94834 0
M  V30 8788 C 838.741 1.4307 -4.03379 0
M  V30 8789 C 838.067 2.70695 -4.61116 0
M  V30 8790 C 839.367 0.59848 -5.1886 0
M  V30 8791 H 841.061 0.0653772 -2.99329 0
M  V30 8792 H 838.607 0.0300042 -1.43969 0
M  V30 8793 H 840.56 2.46505 -3.4178 0
M  V30 8794 H 839.284 2.43601 -2.17546 0
M  V30 8795 H 837.943 0.824474 -3.57209 0
M  V30 8796 H 837.591 3.28954 -3.80524 0
M  V30 8797 H 837.291 2.44332 -5.34393 0
M  V30 8798 H 838.815 3.34541 -5.10798 0
M  V30 8799 H 840.229 1.13244 -5.62004 0
M  V30 8800 H 838.626 0.430728 -5.98552 0
M  V30 8801 H 839.696 -0.38829 -4.83343 0
M  V30 8802 N 841.039 1.57585 0.0217189 0
M  V30 8803 C 842.287 1.89231 0.709641 0
M  V30 8804 C 842.608 0.849964 1.75501 0
M  V30 8805 O 841.878 -0.115485 1.95559 0
M  V30 8806 H 840.458 0.69838 0.265092 0
M  V30 8807 H 843.12 1.94895 -0.0140688 0
M  V30 8808 H 842.216 2.88333 1.19459 0
M  V30 8809 N 842.517 -0.29412 1.54831 0
M  V30 8810 C 843.765 -1.02643 1.74094 0
M  V30 8811 C 844.086 -1.87563 0.533402 0
M  V30 8812 O 843.356 -1.9061 -0.452192 0
M  V30 8813 H 841.936 -0.381959 0.641963 0
M  V30 8814 H 844.598 -0.323444 1.92197 0
M  V30 8815 H 843.694 -1.67558 2.63307 0
M  V30 8816 N 843.995 -1.47404 -0.557645 0
M  V30 8817 C 845.225 -1.57393 -1.33832 0
M  V30 8818 C 845.633 -0.222978 -1.87881 0
M  V30 8819 O 844.976 0.793854 -1.65661 0
M  V30 8820 C 845.038 -2.53882 -2.54528 0
M  V30 8821 C 844.702 -3.99585 -2.21767 0
M  V30 8822 C 845.699 -4.88082 -1.79087 0
M  V30 8823 C 843.384 -4.44917 -2.3314 0
M  V30 8824 C 845.378 -6.1993 -1.48209 0
M  V30 8825 C 843.065 -5.76793 -2.01874 0
M  V30 8826 C 844.063 -6.64121 -1.59476 0
M  V30 8827 O 843.751 -7.93546 -1.28607 0
M  V30 8828 H 843.483 -0.534172 -0.41429 0
M  V30 8829 H 846.037 -1.93733 -0.682404 0
M  V30 8830 H 844.267 -2.12609 -3.23009 0
M  V30 8831 H 845.956 -2.54003 -3.16603 0
M  V30 8832 H 846.722 -4.54307 -1.69794 0
M  V30 8833 H 842.601 -3.77152 -2.65099 0
M  V30 8834 H 846.145 -6.88049 -1.15043 0
M  V30 8835 H 842.042 -6.1011 -2.10799 0
M  V30 8836 H 842.81 -8.06046 -1.42241 0
M  V30 8837 N 845.473 0.80434 -1.35529 0
M  V30 8838 C 846.75 1.5486 -1.1949 0
M  V30 8839 C 847.13 2.09897 0.22506 0
M  V30 8840 O 846.478 1.92643 1.22886 0
M  V30 8841 C 846.688 2.65535 -2.26478 0
M  V30 8842 C 848.036 3.33814 -2.62399 0
M  V30 8843 O 849.06 2.75807 -2.25409 0
M  V30 8844 O 847.919 4.38612 -3.26009 0
M  V30 8845 H 845.013 0.68433 -0.464351 0
M  V30 8846 H 847.559 0.844107 -1.47217 0
M  V30 8847 H 846.331 2.22754 -3.21709 0
M  V30 8848 H 845.954 3.43617 -2.00033 0
M  V30 8849 N 846.951 1.19563 1.02676 0
M  V30 8850 C 848.199 0.997593 1.75763 0
M  V30 8851 C 848.52 -0.47253 1.89188 0
M  V30 8852 O 847.79 -1.34214 1.42701 0
M  V30 8853 H 846.37 0.366128 0.651122 0
M  V30 8854 H 849.032 1.50495 1.23844 0
M  V30 8855 H 848.128 1.44741 2.76508 0
M  V30 8856 N 848.429 -1.21819 0.999893 0
M  V30 8857 C 849.379 -2.21823 0.527104 0
M  V30 8858 C 850.363 -1.55628 -0.408515 0
M  V30 8859 O 851.555 -1.75444 -0.234196 0
M  V30 8860 C 848.684 -3.42972 -0.149986 0
M  V30 8861 C 847.77 -4.16364 0.806349 0
M  V30 8862 N 848.161 -4.66403 1.95708 0
M  V30 8863 C 846.459 -4.41618 0.623672 0
M  V30 8864 C 847.16 -5.22443 2.5579 0
M  V30 8865 N 846.136 -5.11514 1.83995 0
M  V30 8866 H 849.938 -2.58161 1.40464 0
M  V30 8867 H 847.452 -1.37569 0.863054 0
M  V30 8868 H 849.449 -4.13816 -0.50613 0
M  V30 8869 H 848.109 -3.08145 -1.02357 0
M  V30 8870 H 849.12 -4.62142 2.33763 0
M  V30 8871 H 845.797 -4.17005 -0.203257 0
M  V30 8872 H 847.187 -5.7165 3.5308 0
M  V30 8873 N 849.908 -0.773975 -1.37286 0
M  V30 8874 C 851.136 -0.350758 -2.03905 0
M  V30 8875 C 851.551 1.02779 -1.58373 0
M  V30 8876 O 850.908 1.65646 -0.766009 0
M  V30 8877 C 850.959 -0.387335 -3.59419 0
M  V30 8878 O 850.68 -1.7115 -4.03286 0
M  V30 8879 C 852.181 0.047198 -4.43275 0
M  V30 8880 H 849.401 -0.146663 -0.654775 0
M  V30 8881 H 851.945 -1.04852 -1.75574 0
M  V30 8882 H 850.1 0.261865 -3.86514 0
M  V30 8883 H 850.514 -1.65166 -4.97816 0
M  V30 8884 H 851.988 -0.0295474 -5.51992 0
M  V30 8885 H 852.465 1.09786 -4.25257 0
M  V30 8886 H 853.071 -0.573899 -4.2141 0
M  V30 8887 N 851.386 1.48609 -0.524698 0
M  V30 8888 C 852.633 2.02497 0.0113214 0
M  V30 8889 C 852.961 1.40229 1.34781 0
M  V30 8890 O 852.216 0.53557 1.88229 0
M  V30 8891 C 852.515 3.56906 0.187873 0
M  V30 8892 C 852.181 4.37932 -1.07359 0
M  V30 8893 C 850.843 4.59792 -1.41933 0
M  V30 8894 C 853.195 4.84902 -1.911 0
M  V30 8895 C 850.523 5.25868 -2.60154 0
M  V30 8896 C 852.875 5.52281 -3.08495 0
M  V30 8897 C 851.539 5.7238 -3.4342 0
M  V30 8898 H 850.809 0.740988 0.0041428 0
M  V30 8899 H 853.456 1.78651 -0.689652 0
M  V30 8900 H 851.761 3.79563 0.971572 0
M  V30 8901 H 853.458 3.96218 0.617443 0
M  V30 8902 H 850.048 4.21175 -0.794331 0
M  V30 8903 H 854.232 4.67821 -1.65701 0
M  V30 8904 H 849.488 5.39628 -2.87422 0
M  V30 8905 H 853.662 5.87645 -3.73692 0
M  V30 8906 H 851.289 6.23354 -4.35126 0
M  V30 8907 N 852.864 0.259585 1.55447 0
M  V30 8908 C 853.794 -0.62852 2.24882 0
M  V30 8909 C 854.775 -1.17128 1.23349 0
M  V30 8910 O 855.96 -1.20829 1.52033 0
M  V30 8911 C 853.09 -1.81983 2.95803 0
M  V30 8912 C 852.044 -1.40929 4.04132 0
M  V30 8913 C 851.37 -2.68246 4.62545 0
M  V30 8914 C 852.67 -0.570956 5.1917 0
M  V30 8915 H 854.364 -0.0495021 2.99359 0
M  V30 8916 H 851.91 -0.0223688 1.43983 0
M  V30 8917 H 853.863 -2.44689 3.43082 0
M  V30 8918 H 852.587 -2.42444 2.18835 0
M  V30 8919 H 851.246 -0.805519 3.57641 0
M  V30 8920 H 850.894 -3.26931 3.82263 0
M  V30 8921 H 850.594 -2.41495 5.35681 0
M  V30 8922 H 852.118 -3.31827 5.12565 0
M  V30 8923 H 853.532 -1.10262 5.62597 0
M  V30 8924 H 851.929 -0.398979 5.98772 0
M  V30 8925 H 852.999 0.413918 4.8313 0
M  V30 8926 N 854.342 -1.57594 -0.0133615 0
M  V30 8927 C 855.619 -1.81173 -0.737273 0
M  V30 8928 C 855.999 -0.861395 -1.92726 0
M  V30 8929 O 855.347 0.0929324 -2.28311 0
M  V30 8930 C 855.557 -3.29314 -1.15557 0
M  V30 8931 C 856.905 -3.94707 -1.56498 0
M  V30 8932 O 857.929 -3.33557 -1.24973 0
M  V30 8933 O 856.788 -5.02402 -2.15069 0
M  V30 8934 H 853.882 -0.745575 -0.357837 0
M  V30 8935 H 856.428 -1.69696 0.0110674 0
M  V30 8936 H 855.2 -3.90096 -0.30677 0
M  V30 8937 H 854.823 -3.45739 -1.96343 0
M  V30 8938 N 855.82 0.285905 -1.54985 0
M  V30 8939 C 857.045 1.04207 -1.7932 0
M  V30 8940 C 857.47 1.79622 -0.558343 0
M  V30 8941 O 856.828 1.74506 0.491661 0
M  V30 8942 C 856.876 1.98648 -3.0095 0
M  V30 8943 O 855.98 3.07207 -2.75132 0
M  V30 8944 H 855.321 0.298596 -0.593074 0
M  V30 8945 H 857.851 0.318736 -2.02102 0
M  V30 8946 H 857.861 2.4084 -3.29333 0
M  V30 8947 H 856.536 1.43167 -3.90482 0
M  V30 8948 H 855.113 2.69423 -2.57809 0
M  V30 8949 N 857.298 1.47698 0.54982 0
M  V30 8950 C 858.544 1.54931 1.30859 0
M  V30 8951 C 858.877 0.214021 1.93017 0
M  V30 8952 O 858.152 -0.778093 1.78258 0
M  V30 8953 C 858.435 2.67286 2.41309 0
M  V30 8954 C 858.288 4.10457 1.83971 0
M  V30 8955 C 859.607 2.75509 3.43195 0
M  V30 8956 H 856.726 0.56399 0.474431 0
M  V30 8957 H 859.368 1.79787 0.614541 0
M  V30 8958 H 857.518 2.46224 3.0051 0
M  V30 8959 H 859.19 4.42903 1.28974 0
M  V30 8960 H 857.433 4.18387 1.14606 0
M  V30 8961 H 858.104 4.84857 2.63851 0
M  V30 8962 H 860.58 2.94531 2.93923 0
M  V30 8963 H 859.456 3.55886 4.17895 0
M  V30 8964 H 859.717 1.82863 4.02509 0
M  V30 8965 N 858.776 -0.797141 1.35954 0
M  V30 8966 C 859.686 -1.94088 1.31784 0
M  V30 8967 C 860.702 -1.72588 0.221227 0
M  V30 8968 O 861.878 -1.96256 0.452255 0
M  V30 8969 C 858.943 -3.28828 1.09878 0
M  V30 8970 C 858.004 -3.63158 2.28942 0
M  V30 8971 C 857.237 -4.91469 2.08072 0
M  V30 8972 O 857.46 -5.60616 1.05196 0
M  V30 8973 O 856.394 -5.24277 2.95664 0
M  V30 8974 H 860.22 -2.00554 2.28061 0
M  V30 8975 H 857.805 -0.936288 1.16422 0
M  V30 8976 H 859.687 -4.09473 0.995485 0
M  V30 8977 H 858.362 -3.23271 0.16659 0
M  V30 8978 H 857.269 -2.82851 2.44839 0
M  V30 8979 H 858.602 -3.7343 3.20641 0
M  V30 8980 N 860.254 -1.20106 -1.0204 0
M  V30 8981 C 861.494 -1.02013 -1.77123 0
M  V30 8982 C 861.858 0.440439 -1.8688 0
M  V30 8983 O 863.059 0.74144 -2.58372 0
M  V30 8984 C 861.33 -1.68058 -3.15423 0
M  V30 8985 S 862.889 -1.65016 -4.0659 0
M  V30 8986 H 859.707 -0.365882 -0.609632 0
M  V30 8987 H 862.309 -1.52597 -1.22206 0
M  V30 8988 H 861.013 -2.73544 -3.05944 0
M  V30 8989 H 860.544 -1.17589 -3.75415 0
M  V30 8990 H 862.559 -0.680341 -4.91514 0
M  V30 8991 N 861.732 1.21287 -1.00634 0
M  V30 8992 C 862.962 1.94103 -0.70765 0
M  V30 8993 C 863.37 1.74382 0.733991 0
M  V30 8994 O 862.713 1.04843 1.50843 0
M  V30 8995 C 862.775 3.46705 -0.950581 0
M  V30 8996 C 862.439 3.90176 -2.37932 0
M  V30 8997 C 863.436 3.96769 -3.35961 0
M  V30 8998 C 861.121 4.22453 -2.71733 0
M  V30 8999 C 863.115 4.35034 -4.65858 0
M  V30 9000 C 860.802 4.60394 -4.01846 0
M  V30 9001 C 861.8 4.66656 -4.9872 0
M  V30 9002 O 861.488 5.03732 -6.26505 0
M  V30 9003 H 861.22 0.62405 -0.259881 0
M  V30 9004 H 863.774 1.55015 -1.34757 0
M  V30 9005 H 862.004 3.85868 -0.253492 0
M  V30 9006 H 863.693 4.00741 -0.645069 0
M  V30 9007 H 864.459 3.72009 -3.11182 0
M  V30 9008 H 860.338 4.16776 -1.97025 0
M  V30 9009 H 863.882 4.39836 -5.4147 0
M  V30 9010 H 859.779 4.84609 -4.26409 0
M  V30 9011 H 860.547 5.21761 -6.30641 0
M  V30 9012 N 863.21 0.781244 1.36873 0
M  V30 9013 C 864.487 0.274217 1.93668 0
M  V30 9014 C 864.867 -1.2323 1.71399 0
M  V30 9015 O 864.215 -2.01993 1.06822 0
M  V30 9016 C 864.425 0.657939 3.42742 0
M  V30 9017 C 865.773 0.63307 4.19854 0
M  V30 9018 O 866.797 0.597909 3.51146 0
M  V30 9019 O 865.656 0.668636 5.42394 0
M  V30 9020 H 862.75 0.0658059 0.824378 0
M  V30 9021 H 865.296 0.863238 1.46104 0
M  V30 9022 H 864.068 1.69728 3.52573 0
M  V30 9023 H 863.691 0.0423678 3.97577 0
M  V30 9024 N 864.689 -1.48329 0.532571 0
M  V30 9025 C 866.1 -1.86469 0.0927749 0
M  V30 9026 C 866.451 -1.44186 -1.3306 0
M  V30 9027 O 865.576 -0.833741 -1.99694 0
M  V30 9028 C 866.171 -3.38414 0.161588 0
M  V30 9029 C 864.73 -3.75739 -0.223028 0
M  V30 9030 C 863.877 -2.72377 0.520199 0
M  V30 9031 H 866.828 -1.40197 0.743678 0
M  V30 9032 H 866.849 -3.75314 -0.626059 0
M  V30 9033 H 866.361 -3.69159 1.19765 0
M  V30 9034 H 864.462 -3.50608 -1.26113 0
M  V30 9035 H 864.575 -4.78954 0.118385 0
M  V30 9036 H 862.939 -2.54678 -0.0338425 0
M  V30 9037 H 863.722 -3.05965 1.55694 0
M  V30 9038 N 866.167 -0.267825 -1.55308 0
M  V30 9039 C 867.444 0.402449 -1.91415 0
M  V30 9040 C 867.824 1.7428 -1.1912 0
M  V30 9041 O 867.172 2.2631 -0.315609 0
M  V30 9042 C 867.382 0.549926 -3.4464 0
M  V30 9043 C 868.73 0.836188 -4.16285 0
M  V30 9044 O 869.754 0.635009 -3.50494 0
M  V30 9045 O 868.613 1.22051 -5.32697 0
M  V30 9046 H 865.707 0.219177 -0.797427 0
M  V30 9047 H 868.253 -0.313439 -1.6678 0
M  V30 9048 H 867.025 -0.393641 -3.89315 0
M  V30 9049 H 866.648 1.31556 -3.75205 0
M  V30 9050 N 867.645 1.57599 0.00500368 0
M  V30 9051 C 868.873 1.94626 0.702016 0
M  V30 9052 C 869.288 0.86953 1.67585 0
M  V30 9053 O 868.645 -0.15199 1.81866 0
M  V30 9054 C 868.696 3.31658 1.43824 0
M  V30 9055 O 868.417 4.35197 0.503467 0
M  V30 9056 C 869.918 3.83114 2.23021 0
M  V30 9057 H 867.138 0.641785 0.195841 0
M  V30 9058 H 869.682 2.04451 -0.0446287 0
M  V30 9059 H 867.837 3.23156 2.13655 0
M  V30 9060 H 868.251 5.1444 1.02235 0
M  V30 9061 H 869.725 4.81438 2.7004 0
M  V30 9062 H 870.202 3.15559 3.05482 0
M  V30 9063 H 870.808 3.94775 1.58216 0
M  V30 9064 N 869.123 -0.277682 1.55134 0
M  V30 9065 C 870.4 -1.0309 1.66228 0
M  V30 9066 C 870.78 -2.0445 0.525701 0
M  V30 9067 O 870.128 -2.23512 -0.474816 0
M  V30 9068 C 870.338 -1.6919 3.05247 0
M  V30 9069 C 871.686 -2.20526 3.62841 0
M  V30 9070 O 872.71 -1.79185 3.07849 0
M  V30 9071 O 871.569 -2.96342 4.59177 0
M  V30 9072 H 868.663 -0.4779 0.674937 0
M  V30 9073 H 871.209 -0.273912 1.67475 0
M  V30 9074 H 869.981 -0.957163 3.79413 0
M  V30 9075 H 869.604 -2.51587 3.07879 0
M  V30 9076 N 870.601 -1.47988 -0.541979 0
M  V30 9077 C 871.829 -1.59034 -1.32347 0
M  V30 9078 C 872.244 -0.246123 -1.87189 0
M  V30 9079 O 871.601 0.762889 -1.6579 0
M  V30 9080 C 871.652 -2.62759 -2.48274 0
M  V30 9081 O 871.373 -3.91963 -1.95695 0
M  V30 9082 C 872.874 -2.84133 -3.4027 0
M  V30 9083 H 870.094 -0.536574 -0.402901 0
M  V30 9084 H 872.638 -1.93725 -0.655045 0
M  V30 9085 H 870.793 -2.3096 -3.11025 0
M  V30 9086 H 871.207 -4.48769 -2.7149 0
M  V30 9087 H 872.681 -3.60538 -4.17991 0
M  V30 9088 H 873.158 -1.92512 -3.9476 0
M  V30 9089 H 873.764 -3.17188 -2.83322 0
M  V30 9090 N 872.079 0.78992 -1.36375 0
M  V30 9091 C 873.325 1.54939 -1.31778 0
M  V30 9092 C 873.68 1.92128 0.102327 0
M  V30 9093 O 872.973 1.59823 1.05675 0
M  V30 9094 C 873.167 2.83698 -2.17371 0
M  V30 9095 C 872.996 2.59093 -3.67561 0
M  V30 9096 C 871.766 2.5414 -4.36739 0
M  V30 9097 C 873.964 2.28325 -4.60838 0
M  V30 9098 N 871.946 2.21427 -5.72576 0
M  V30 9099 C 873.317 2.05596 -5.84919 0
M  V30 9100 C 875.372 2.14328 -4.49409 0
M  V30 9101 C 874.075 1.70285 -6.98853 0
M  V30 9102 C 876.101 1.80415 -5.63209 0
M  V30 9103 C 875.463 1.58533 -6.86328 0
M  V30 9104 H 871.562 0.568011 -0.537483 0
M  V30 9105 H 874.146 0.923183 -1.71422 0
M  V30 9106 H 872.317 3.44187 -1.79972 0
M  V30 9107 H 874.049 3.49425 -2.04167 0
M  V30 9108 H 870.804 2.69368 -3.89535 0
M  V30 9109 H 871.228 2.07818 -6.44314 0
M  V30 9110 H 875.87 2.29935 -3.54809 0
M  V30 9111 H 873.588 1.53415 -7.93404 0
M  V30 9112 H 877.174 1.70269 -5.56327 0
M  V30 9113 H 876.054 1.32677 -7.72895 0
M  V30 9114 N 873.557 1.20646 1.01402 0
M  V30 9115 C 874.782 1.04462 1.79172 0
M  V30 9116 C 875.207 -0.401588 1.83763 0
M  V30 9117 O 874.565 -1.28934 1.27459 0
M  V30 9118 C 874.613 1.63583 3.21361 0
M  V30 9119 O 873.717 0.875198 4.03006 0
M  V30 9120 H 873.058 0.368235 0.552539 0
M  V30 9121 H 875.588 1.59994 1.27526 0
M  V30 9122 H 875.598 1.67426 3.72065 0
M  V30 9123 H 874.273 2.68835 3.17334 0
M  V30 9124 H 872.85 0.911172 3.61597 0
M  V30 9125 N 875.035 -1.20752 1.01276 0
M  V30 9126 C 875.945 -2.27079 0.589277 0
M  V30 9127 C 876.961 -1.6999 -0.371389 0
M  V30 9128 O 878.137 -2.00044 -0.233294 0
M  V30 9129 C 875.202 -3.4663 -0.0696715 0
M  V30 9130 C 874.263 -4.18962 0.936454 0
M  V30 9131 C 873.496 -5.32806 0.308856 0
M  V30 9132 O 873.719 -5.63376 -0.8924 0
M  V30 9133 O 872.653 -5.93131 1.02367 0
M  V30 9134 H 876.479 -2.6551 1.47438 0
M  V30 9135 H 874.064 -1.27297 0.782045 0
M  V30 9136 H 875.946 -4.19119 -0.437873 0
M  V30 9137 H 874.621 -3.10082 -0.929029 0
M  V30 9138 H 873.528 -3.48661 1.35595 0
M  V30 9139 H 874.861 -4.59441 1.76565 0
M  V30 9140 N 876.513 -0.788492 -1.36457 0
M  V30 9141 C 877.759 -0.360995 -1.99561 0
M  V30 9142 C 878.092 1.06433 -1.62437 0
M  V30 9143 O 877.367 1.7352 -0.878705 0
M  V30 9144 C 877.65 -0.523735 -3.56271 0
M  V30 9145 C 877.503 -1.99268 -4.03252 0
M  V30 9146 C 878.822 0.0617908 -4.40057 0
M  V30 9147 H 875.941 -0.13264 -0.724966 0
M  V30 9148 H 878.583 -0.994659 -1.61884 0
M  V30 9149 H 876.733 0.0156979 -3.88497 0
M  V30 9150 H 878.405 -2.59311 -3.81518 0
M  V30 9151 H 876.648 -2.49561 -3.54826 0
M  V30 9152 H 877.319 -2.05752 -5.12221 0
M  V30 9153 H 879.795 -0.398674 -4.14186 0
M  V30 9154 H 878.671 -0.0821089 -5.48839 0
M  V30 9155 H 878.932 1.15381 -4.26778 0
M  V30 9156 N 877.991 1.48044 -0.54043 0
M  V30 9157 C 879.219 2.06895 -0.0145153 0
M  V30 9158 C 879.634 1.39552 1.27164 0
M  V30 9159 O 878.991 0.486454 1.75897 0
M  V30 9160 C 879.042 3.60934 0.202278 0
M  V30 9161 O 878.763 4.25749 -1.03293 0
M  V30 9162 C 880.264 4.36607 0.767387 0
M  V30 9163 H 877.484 0.66991 -0.0382368 0
M  V30 9164 H 880.028 1.90288 -0.749057 0
M  V30 9165 H 878.183 3.77111 0.886897 0
M  V30 9166 H 878.597 5.18048 -0.820167 0
M  V30 9167 H 880.071 5.45126 0.86845 0
M  V30 9168 H 880.548 4.01745 1.77477 0
M  V30 9169 H 881.154 4.25133 0.119002 0
M  V30 9170 N 879.47 0.276058 1.55163 0
M  V30 9171 C 880.886 -0.0780579 1.59409 0
M  V30 9172 C 881.086 -1.54521 1.29327 0
M  V30 9173 O 880.142 -2.29422 1.05459 0
M  V30 9174 C 881.455 0.297422 2.99225 0
M  V30 9175 C 883.003 0.244117 3.12047 0
M  V30 9176 C 883.478 0.594051 4.54131 0
M  V30 9177 N 884.969 0.54564 4.59975 0
M  V30 9178 C 885.704 0.789192 5.67943 0
M  V30 9179 N 885.2 1.09741 6.84053 0
M  V30 9180 N 886.993 0.717926 5.57496 0
M  V30 9181 H 879.144 1.23251 1.72982 0
M  V30 9182 H 881.407 0.497988 0.806667 0
M  V30 9183 H 881.113 1.31782 3.26077 0
M  V30 9184 H 880.987 -0.361286 3.75466 0
M  V30 9185 H 883.374 -0.766992 2.84958 0
M  V30 9186 H 883.455 0.937097 2.38017 0
M  V30 9187 H 883.099 1.60285 4.81945 0
M  V30 9188 H 883.029 -0.120728 5.26462 0
M  V30 9189 H 885.52 0.317334 3.76565 0
M  V30 9190 H 885.833 1.26989 7.62295 0
M  V30 9191 H 884.178 1.13519 6.85666 0
M  V30 9192 H 887.369 0.47697 4.65664 0
M  V30 9193 H 887.542 0.911118 6.41563 0
M  V30 9194 N 880.948 -1.576 0.00335426 0
M  V30 9195 C 881.881 -2.04085 -1.021 0
M  V30 9196 C 882.859 -0.931382 -1.33282 0
M  V30 9197 O 884.043 -1.19976 -1.45389 0
M  V30 9198 C 881.17 -2.44128 -2.34775 0
M  V30 9199 C 880.216 -3.65841 -2.19232 0
M  V30 9200 S 881.049 -5.13616 -1.51521 0
M  V30 9201 C 882.205 -5.56931 -2.8562 0
M  V30 9202 H 882.438 -2.90652 -0.625192 0
M  V30 9203 H 879.971 -1.52998 -0.207611 0
M  V30 9204 H 881.929 -2.67866 -3.1106 0
M  V30 9205 H 880.59 -1.57954 -2.71495 0
M  V30 9206 H 879.783 -3.9162 -3.17253 0
M  V30 9207 H 879.385 -3.42122 -1.51091 0
M  V30 9208 H 881.677 -5.59596 -3.81914 0
M  V30 9209 H 882.62 -6.5683 -2.64536 0
M  V30 9210 H 883.028 -4.84504 -2.89683 0
M  V30 9211 N 882.426 0.269451 -1.5528 0
M  V30 9212 C 883.654 1.01872 -1.80082 0
M  V30 9213 C 884.069 1.79802 -0.575917 0
M  V30 9214 O 883.426 1.76735 0.455081 0
M  V30 9215 C 883.477 1.9745 -3.02813 0
M  V30 9216 O 883.198 1.22677 -4.20573 0
M  V30 9217 C 884.699 2.8416 -3.40247 0
M  V30 9218 H 881.919 0.300781 -0.59981 0
M  V30 9219 H 884.463 0.29916 -2.023 0
M  V30 9220 H 882.618 2.64864 -2.82712 0
M  V30 9221 H 883.032 1.87129 -4.89982 0
M  V30 9222 H 884.506 3.47014 -4.29284 0
M  V30 9223 H 884.983 3.54113 -2.59809 0
M  V30 9224 H 885.589 2.22232 -3.6262 0
M  V30 9225 N 883.904 1.48273 0.534124 0
M  V30 9226 C 885.129 1.59988 1.31979 0
M  V30 9227 C 885.554 0.258824 1.86311 0
M  V30 9228 O 884.912 -0.768885 1.64188 0
M  V30 9229 C 884.96 2.64642 2.44943 0
M  V30 9230 O 884.064 2.21515 3.47858 0
M  V30 9231 H 883.405 0.536625 0.391063 0
M  V30 9232 H 885.935 1.94229 0.643135 0
M  V30 9233 H 885.945 2.85786 2.91187 0
M  V30 9234 H 884.62 3.62004 2.04758 0
M  V30 9235 H 883.197 2.10567 3.0776 0
M  V30 9236 N 885.382 -0.782676 1.36792 0
M  V30 9237 C 886.63 -1.53778 1.31136 0
M  V30 9238 C 886.951 -1.94706 -0.107014 0
M  V30 9239 O 886.221 -1.65465 -1.04872 0
M  V30 9240 H 884.801 -0.570328 0.482426 0
M  V30 9241 H 887.463 -0.932181 1.71162 0
M  V30 9242 H 886.559 -2.44224 1.94321 0
M  V30 9243 N 886.86 -1.21182 -1.00761 0
M  V30 9244 C 888.276 -0.968607 -1.26847 0
M  V30 9245 C 888.476 0.346561 -1.98497 0
M  V30 9246 O 887.532 1.07287 -2.28573 0
M  V30 9247 C 888.845 -2.1574 -2.09467 0
M  V30 9248 C 890.393 -2.19937 -2.22703 0
M  V30 9249 C 890.868 -3.38328 -3.08704 0
M  V30 9250 N 892.359 -3.38398 -3.16293 0
M  V30 9251 C 893.094 -4.26653 -3.83086 0
M  V30 9252 N 892.59 -5.25101 -4.5193 0
M  V30 9253 N 894.383 -4.14469 -3.797 0
M  V30 9254 H 886.534 -2.05763 -0.526816 0
M  V30 9255 H 888.797 -0.90087 -0.29519 0
M  V30 9256 H 888.503 -3.11034 -1.64167 0
M  V30 9257 H 888.377 -2.14584 -3.10216 0
M  V30 9258 H 890.764 -1.25201 -2.67224 0
M  V30 9259 H 890.845 -2.25139 -1.21433 0
M  V30 9260 H 890.489 -4.33356 -2.64886 0
M  V30 9261 H 890.419 -3.30364 -4.10082 0
M  V30 9262 H 892.91 -2.67149 -2.67282 0
M  V30 9263 H 893.223 -5.8875 -5.00592 0
M  V30 9264 H 891.568 -5.29029 -4.50726 0
M  V30 9265 H 894.759 -3.3682 -3.25069 0
M  V30 9266 H 894.932 -4.83458 -4.31477 0
M  V30 9267 N 888.338 1.20213 -1.01915 0
M  V30 9268 C 889.563 1.94163 -0.729076 0
M  V30 9269 C 889.988 1.74416 0.704323 0
M  V30 9270 O 889.346 1.0401 1.48498 0
M  V30 9271 C 889.394 3.44258 -1.07324 0
M  V30 9272 O 888.498 4.11979 -0.186367 0
M  V30 9273 H 887.839 0.606506 -0.270272 0
M  V30 9274 H 890.369 1.52571 -1.3632 0
M  V30 9275 H 890.379 3.94888 -1.02603 0
M  V30 9276 H 889.054 3.57954 -2.11759 0
M  V30 9277 H 887.631 3.7176 -0.291334 0
M  V30 9278 N 889.816 0.795718 1.36037 0
M  V30 9279 C 891.064 0.370291 1.98679 0
M  V30 9280 C 891.385 -1.06332 1.63458 0
M  V30 9281 O 890.655 -1.73394 0.911671 0
M  V30 9282 H 889.235 0.133928 0.734896 0
M  V30 9283 H 891.897 1.01915 1.6613 0
M  V30 9284 H 890.993 0.467207 3.08583 0
M  V30 9285 N 891.294 -1.47756 0.548274 0
M  V30 9286 C 892.54 -2.02789 0.0209265 0
M  V30 9287 C 892.873 -1.42268 -1.32187 0
M  V30 9288 O 892.148 -0.575001 -1.85806 0
M  V30 9289 C 892.431 -3.60007 -0.0816674 0
M  V30 9290 C 892.284 -4.30977 1.28759 0
M  V30 9291 C 893.603 -4.32777 -0.799515 0
M  V30 9292 H 890.722 -0.736944 0.00907884 0
M  V30 9293 H 893.364 -1.76282 0.708839 0
M  V30 9294 H 891.514 -3.82722 -0.667537 0
M  V30 9295 H 893.186 -4.19629 1.91597 0
M  V30 9296 H 891.429 -3.9168 1.86466 0
M  V30 9297 H 892.1 -5.39488 1.16861 0
M  V30 9298 H 894.576 -4.15001 -0.30216 0
M  V30 9299 H 893.452 -5.42431 -0.840239 0
M  V30 9300 H 893.713 -4.01358 -1.85375 0
M  V30 9301 N 892.772 -0.284283 -1.55015 0
M  V30 9302 C 894.02 0.329212 -1.99401 0
M  V30 9303 C 894.341 1.55687 -1.17416 0
M  V30 9304 O 893.611 1.94087 -0.265937 0
M  V30 9305 H 892.191 0.12463 -0.73653 0
M  V30 9306 H 894.853 -0.391743 -1.90922 0
M  V30 9307 H 893.949 0.61278 -3.06025 0
M  V30 9308 N 894.251 1.57596 -0.0117121 0
M  V30 9309 C 895.497 1.91355 0.671661 0
M  V30 9310 C 895.83 0.886818 1.72769 0
M  V30 9311 O 895.105 -0.0928813 1.94278 0
M  V30 9312 C 895.388 3.35657 1.30409 0
M  V30 9313 C 895.241 4.49055 0.2588 0
M  V30 9314 C 896.56 3.79595 2.22701 0
M  V30 9315 H 893.679 0.695893 0.242698 0
M  V30 9316 H 896.321 1.89887 -0.0654071 0
M  V30 9317 H 894.471 3.37038 1.9323 0
M  V30 9318 H 896.143 4.59809 -0.370631 0
M  V30 9319 H 894.386 4.31785 -0.417672 0
M  V30 9320 H 895.057 5.4701 0.740578 0
M  V30 9321 H 897.533 3.7984 1.69885 0
M  V30 9322 H 896.409 4.81292 2.63912 0
M  V30 9323 H 896.67 3.14118 3.11098 0
M  V30 9324 N 895.729 -0.261212 1.5542 0
M  V30 9325 C 896.692 -1.30645 1.8832 0
M  V30 9326 C 897.692 -1.41782 0.758588 0
M  V30 9327 O 898.882 -1.40729 1.02669 0
M  V30 9328 C 896.014 -2.6862 2.09895 0
M  V30 9329 H 897.207 -1.02698 2.81768 0
M  V30 9330 H 894.76 -0.499838 1.48092 0
M  V30 9331 H 895.495 -3.0173 1.18868 0
M  V30 9332 H 895.28 -2.61921 2.91787 0
M  V30 9333 H 896.77 -3.44121 2.36581 0
M  V30 9334 N 897.207 -1.48554 -0.526253 0
M  V30 9335 C 898.453 -1.56994 -1.28378 0
M  V30 9336 C 898.786 -0.244701 -1.92652 0
M  V30 9337 O 898.061 0.749636 -1.79473 0
M  V30 9338 C 898.344 -2.71092 -2.37026 0
M  V30 9339 C 898.197 -4.13331 -1.77418 0
M  V30 9340 C 899.516 -2.80934 -3.38769 0
M  V30 9341 H 896.635 -0.571466 -0.465398 0
M  V30 9342 H 899.277 -1.80742 -0.585861 0
M  V30 9343 H 897.427 -2.50973 -2.96555 0
M  V30 9344 H 899.099 -4.44899 -1.21912 0
M  V30 9345 H 897.342 -4.20158 -1.07936 0
M  V30 9346 H 898.013 -4.88994 -2.56104 0
M  V30 9347 H 900.489 -2.9917 -2.892 0
M  V30 9348 H 899.365 -3.62489 -4.12181 0
M  V30 9349 H 899.626 -1.89244 -3.99549 0
M  V30 9350 N 898.685 0.775411 -1.37205 0
M  V30 9351 C 899.913 1.56446 -1.35397 0
M  V30 9352 C 900.328 1.887 0.0615437 0
M  V30 9353 O 899.685 1.51178 1.02233 0
M  V30 9354 C 899.736 2.87697 -2.18889 0
M  V30 9355 O 899.457 2.56828 -3.54924 0
M  V30 9356 C 900.958 3.81944 -2.25019 0
M  V30 9357 H 898.178 0.484792 -0.463916 0
M  V30 9358 H 900.722 0.961346 -1.80495 0
M  V30 9359 H 898.877 3.44442 -1.7731 0
M  V30 9360 H 899.291 3.40851 -3.98649 0
M  V30 9361 H 900.765 4.71055 -2.87769 0
M  V30 9362 H 901.242 4.20811 -1.25757 0
M  V30 9363 H 901.848 3.3113 -2.66895 0
M  V30 9364 N 900.163 1.21714 1.00117 0
M  V30 9365 C 901.096 0.923113 2.08696 0
M  V30 9366 C 902.074 -0.130827 1.62073 0
M  V30 9367 O 903.258 -0.00103064 1.885 0
M  V30 9368 C 900.385 0.386807 3.36484 0
M  V30 9369 C 899.431 1.42414 4.0202 0
M  V30 9370 S 900.264 2.99466 4.43937 0
M  V30 9371 C 901.42 2.47452 5.74907 0
M  V30 9372 H 901.653 1.84258 2.33315 0
M  V30 9373 H 899.186 1.0473 1.1345 0
M  V30 9374 H 901.144 0.0839547 4.10414 0
M  V30 9375 H 899.805 -0.511413 3.09909 0
M  V30 9376 H 898.998 0.998593 4.94008 0
M  V30 9377 H 898.6 1.67527 3.34381 0
M  V30 9378 H 900.892 1.88177 6.50842 0
M  V30 9379 H 901.835 3.37898 6.22279 0
M  V30 9380 H 902.243 1.89027 5.31911 0
M  V30 9381 N 901.641 -1.19671 1.02551 0
M  V30 9382 C 902.551 -2.26441 0.613329 0
M  V30 9383 C 903.567 -1.70375 -0.353339 0
M  V30 9384 O 904.743 -2.0028 -0.212064 0
M  V30 9385 C 901.808 -3.46684 -0.0329028 0
M  V30 9386 C 900.869 -4.17945 0.980837 0
M  V30 9387 C 900.102 -5.32448 0.36535 0
M  V30 9388 O 900.325 -5.64291 -0.832596 0
M  V30 9389 O 899.259 -5.92012 1.08652 0
M  V30 9390 H 903.085 -2.63932 1.50246 0
M  V30 9391 H 900.67 -1.2646 0.795502 0
M  V30 9392 H 902.552 -4.1956 -0.393395 0
M  V30 9393 H 901.227 -3.1105 -0.896089 0
M  V30 9394 H 900.134 -3.47204 1.39286 0
M  V30 9395 H 901.467 -4.57542 1.81428 0
M  V30 9396 N 903.119 -0.802921 -1.35613 0
M  V30 9397 C 904.53 -0.443004 -1.81368 0
M  V30 9398 C 904.881 1.03459 -1.66706 0
M  V30 9399 O 904.006 1.80372 -1.19561 0
M  V30 9400 C 904.601 -0.797324 -3.29284 0
M  V30 9401 C 903.16 -0.490055 -3.73196 0
M  V30 9402 C 902.307 -1.02487 -2.57666 0
M  V30 9403 H 905.258 -0.994888 -1.23643 0
M  V30 9404 H 905.279 -0.0934638 -3.80385 0
M  V30 9405 H 904.791 -1.87278 -3.39924 0
M  V30 9406 H 902.892 0.576818 -3.68108 0
M  V30 9407 H 903.005 -1.02012 -4.68114 0
M  V30 9408 H 901.369 -0.44738 -2.5074 0
M  V30 9409 H 902.152 -2.10636 -2.71085 0
M  V30 9410 N 904.597 1.47463 -0.556102 0
M  V30 9411 C 905.837 2.04372 -0.0339743 0
M  V30 9412 C 906.201 1.42125 1.29091 0
M  V30 9413 O 907.402 1.90074 1.90066 0
M  V30 9414 C 905.673 3.57352 0.0585316 0
M  V30 9415 S 907.232 4.35625 0.526943 0
M  V30 9416 H 904.05 0.710574 -0.0246115 0
M  V30 9417 H 906.652 1.80848 -0.742585 0
M  V30 9418 H 905.356 4.00181 -0.910116 0
M  V30 9419 H 904.887 3.85371 0.790731 0
M  V30 9420 H 906.902 4.62911 1.78683 0
M  V30 9421 N 906.075 0.2925 1.54862 0
M  V30 9422 C 907.491 -0.0611461 1.59483 0
M  V30 9423 C 907.691 -1.53141 1.30958 0
M  V30 9424 O 906.747 -2.28291 1.07887 0
M  V30 9425 C 908.06 0.329143 2.98893 0
M  V30 9426 C 909.608 0.2772 3.1177 0
M  V30 9427 C 910.083 0.642185 4.53475 0
M  V30 9428 N 911.574 0.594396 4.5937 0
M  V30 9429 C 912.309 0.849385 5.67074 0
M  V30 9430 N 911.805 1.1699 6.82851 0
M  V30 9431 N 913.598 0.777016 5.56704 0
M  V30 9432 H 905.749 1.25079 1.71665 0
M  V30 9433 H 908.012 0.506516 0.80134 0
M  V30 9434 H 907.718 1.35233 3.24661 0
M  V30 9435 H 907.592 -0.321442 3.75828 0
M  V30 9436 H 909.979 -0.736725 2.85756 0
M  V30 9437 H 910.06 0.962289 2.3701 0
M  V30 9438 H 909.704 1.65388 4.80218 0
M  V30 9439 H 909.634 -0.0648831 5.2656 0
M  V30 9440 H 912.125 0.357256 3.76208 0
M  V30 9441 H 912.438 1.35067 7.60905 0
M  V30 9442 H 910.783 1.20785 6.84424 0
M  V30 9443 H 913.974 0.526333 4.65132 0
M  V30 9444 H 914.147 0.979113 6.4056 0
M  V30 9445 N 907.553 -1.57587 0.0200696 0
M  V30 9446 C 908.5 -2.09667 -0.964791 0
M  V30 9447 C 909.47 -0.99664 -1.32877 0
M  V30 9448 O 910.655 -1.2703 -1.42366 0
M  V30 9449 C 907.795 -2.62101 -2.24493 0
M  V30 9450 C 906.908 -3.8608 -1.93821 0
M  V30 9451 C 906.043 -4.26939 -3.16064 0
M  V30 9452 C 905.082 -5.43701 -2.81169 0
M  V30 9453 N 904.219 -5.79759 -3.9601 0
M  V30 9454 H 909.059 -2.93538 -0.513751 0
M  V30 9455 H 906.596 -1.45096 -0.242 0
M  V30 9456 H 908.554 -2.90587 -2.99358 0
M  V30 9457 H 907.184 -1.81074 -2.6723 0
M  V30 9458 H 906.236 -3.64378 -1.09237 0
M  V30 9459 H 907.548 -4.71028 -1.64115 0
M  V30 9460 H 906.702 -4.56814 -3.99257 0
M  V30 9461 H 905.441 -3.40739 -3.48924 0
M  V30 9462 H 904.446 -5.13529 -1.96387 0
M  V30 9463 H 905.671 -6.31593 -2.49535 0
M  V30 9464 H 903.617 -4.96516 -4.28729 0
M  V30 9465 H 903.534 -6.59327 -3.69896 0
M  V30 9466 H 904.802 -6.14235 -4.79933 0
M  V30 9467 N 909.032 0.252966 -1.55557 0
M  V30 9468 C 909.964 1.33585 -1.86246 0
M  V30 9469 C 910.977 1.44584 -0.748291 0
M  V30 9470 O 912.166 1.46042 -1.02635 0
M  V30 9471 C 909.266 2.71509 -2.02821 0
M  V30 9472 C 908.439 2.82853 -3.33636 0
M  V30 9473 C 907.498 4.01581 -3.40028 0
M  V30 9474 O 906.524 3.91394 -4.13278 0
M  V30 9475 N 907.726 5.14474 -2.6888 0
M  V30 9476 H 910.491 1.07596 -2.7972 0
M  V30 9477 H 908.052 0.443075 -1.55719 0
M  V30 9478 H 910.044 3.49262 -2.04445 0
M  V30 9479 H 908.614 2.90232 -1.1612 0
M  V30 9480 H 907.834 1.91823 -3.4438 0
M  V30 9481 H 909.122 2.87378 -4.19871 0
M  V30 9482 H 908.52 5.25641 -2.09087 0
M  V30 9483 H 907.077 5.90385 -2.76204 0
M  V30 9484 N 910.51 1.48831 0.518367 0
M  V30 9485 C 911.759 1.5669 1.27008 0
M  V30 9486 C 912.072 0.250934 1.93984 0
M  V30 9487 O 913.278 0.207884 2.70703 0
M  V30 9488 C 911.734 2.76387 2.30517 0
M  V30 9489 C 911.342 4.14673 1.69559 0
M  V30 9490 C 913.086 2.93566 3.06625 0
M  V30 9491 C 910.993 5.25616 2.71076 0
M  V30 9492 H 909.923 0.583362 0.477708 0
M  V30 9493 H 912.574 1.75187 0.546052 0
M  V30 9494 H 910.956 2.51348 3.06006 0
M  V30 9495 H 912.13 4.49779 1.00179 0
M  V30 9496 H 910.445 4.02708 1.05902 0
M  V30 9497 H 913.042 3.7362 3.82508 0
M  V30 9498 H 913.385 2.03462 3.63193 0
M  V30 9499 H 913.918 3.18562 2.38251 0
M  V30 9500 H 910.657 6.17723 2.19313 0
M  V30 9501 H 910.177 4.94985 3.38748 0
M  V30 9502 H 911.856 5.5422 3.3384 0
M  V30 9503 N 911.988 -0.768124 1.37614 0
M  V30 9504 C 913.265 -1.51637 1.23554 0
M  V30 9505 C 913.645 -2.1042 -0.169331 0
M  V30 9506 O 912.993 -1.95834 -1.17735 0
M  V30 9507 C 913.203 -2.59436 2.33439 0
M  V30 9508 C 914.551 -3.2674 2.71157 0
M  V30 9509 O 915.575 -2.69733 2.32642 0
M  V30 9510 O 914.434 -4.29814 3.37524 0
M  V30 9511 H 911.528 -0.671778 0.482332 0
M  V30 9512 H 914.074 -0.804779 1.49403 0
M  V30 9513 H 912.846 -2.14146 3.27502 0
M  V30 9514 H 912.469 -3.38192 2.09073 0
M  V30 9515 N 913.466 -1.22244 -0.994698 0
M  V30 9516 C 914.398 -0.948706 -2.08644 0
M  V30 9517 C 915.411 0.0720049 -1.62641 0
M  V30 9518 O 916.6 -0.161778 -1.77765 0
M  V30 9519 C 913.7 -0.404885 -3.36473 0
M  V30 9520 C 912.873 -1.48239 -4.11514 0
M  V30 9521 C 911.932 -0.94597 -5.17627 0
M  V30 9522 O 910.958 -1.63177 -5.45309 0
M  V30 9523 N 912.16 0.23355 -5.8003 0
M  V30 9524 H 914.925 -1.88858 -2.32707 0
M  V30 9525 H 912.486 -1.12908 -1.16032 0
M  V30 9526 H 914.478 -0.0313903 -4.04688 0
M  V30 9527 H 913.048 0.440061 -3.09487 0
M  V30 9528 H 912.268 -2.02928 -3.37955 0
M  V30 9529 H 913.556 -2.20741 -4.58422 0
M  V30 9530 H 912.954 0.80756 -5.59906 0
M  V30 9531 H 911.511 0.54845 -6.49488 0
M  V30 9532 N 914.944 1.19125 -1.03184 0
M  V30 9533 C 915.876 2.21914 -0.573294 0
M  V30 9534 C 916.889 1.5894 0.352397 0
M  V30 9535 O 918.078 1.77883 0.148318 0
M  V30 9536 C 915.178 3.38403 0.18355 0
M  V30 9537 C 914.351 4.3096 -0.747817 0
M  V30 9538 C 913.41 5.26188 -0.0358489 0
M  V30 9539 O 912.436 5.65321 -0.663388 0
M  V30 9540 N 913.638 5.67235 1.23387 0
M  V30 9541 H 916.403 2.61881 -1.45734 0
M  V30 9542 H 913.964 1.33821 -0.911231 0
M  V30 9543 H 915.956 3.99124 0.669468 0
M  V30 9544 H 914.526 2.97201 0.969043 0
M  V30 9545 H 913.746 3.67976 -1.41377 0
M  V30 9546 H 915.034 4.89708 -1.38071 0
M  V30 9547 H 914.432 5.37481 1.76439 0
M  V30 9548 H 912.989 6.30196 1.66423 0
M  V30 9549 N 916.422 0.810101 1.35185 0
M  V30 9550 C 917.37 0.211071 2.3164 0
M  V30 9551 C 918.364 -0.641109 1.568 0
M  V30 9552 O 919.57 -0.533881 1.719 0
M  V30 9553 H 915.945 0.0494978 0.750369 0
M  V30 9554 H 917.916 1.03964 2.79703 0
M  V30 9555 C 916.665 -0.622933 3.42074 0
M  V30 9556 H 915.988 0.0234648 3.99793 0
M  V30 9557 H 917.428 -1.0084 4.11834 0
M  V30 9558 C 915.887 -1.78994 2.85417 0
M  V30 9559 O 916.417 -2.88758 2.79252 0
M  V30 9560 N 914.623 -1.60259 2.42416 0
M  V30 9561 H 914.17 -0.70974 2.4763 0
M  V30 9562 H 914.128 -2.38498 2.04857 0
M  V30 9563 N 917.9 -1.47166 0.563914 0
M  V30 9564 C 919.14 -2.04351 0.0448121 0
M  V30 9565 C 919.504 -1.42808 -1.28336 0
M  V30 9566 O 920.705 -1.91079 -1.89056 0
M  V30 9567 C 918.976 -3.57378 -0.0395795 0
M  V30 9568 S 920.535 -4.35898 -0.503833 0
M  V30 9569 H 917.353 -0.710433 0.0283795 0
M  V30 9570 H 919.955 -1.80451 0.752166 0
M  V30 9571 H 918.659 -3.99693 0.931326 0
M  V30 9572 H 918.19 -3.85785 -0.770282 0
M  V30 9573 H 920.205 -4.63852 -1.76225 0
M  V30 9574 N 919.378 -0.300708 -1.54705 0
M  V30 9575 C 920.606 0.31127 -2.04545 0
M  V30 9576 C 921.021 1.47542 -1.178 0
M  V30 9577 O 920.378 1.81361 -0.203571 0
M  V30 9578 C 920.429 0.767783 -3.53253 0
M  V30 9579 O 920.15 -0.350027 -4.36699 0
M  V30 9580 C 921.651 1.44494 -4.1909 0
M  V30 9581 H 918.871 0.067668 -0.667579 0
M  V30 9582 H 921.415 -0.440254 -1.99705 0
M  V30 9583 H 919.57 1.46933 -3.58454 0
M  V30 9584 H 919.984 0.00534038 -5.245 0
M  V30 9585 H 921.458 1.71553 -5.24665 0
M  V30 9586 H 921.935 2.3849 -3.68808 0
M  V30 9587 H 922.541 0.786581 -4.17963 0
M  V30 9588 N 920.856 1.57574 -0.0284266 0
M  V30 9589 C 922.096 1.93637 0.65453 0
M  V30 9590 C 922.46 0.905015 1.69332 0
M  V30 9591 O 923.661 1.15181 2.42872 0
M  V30 9592 C 921.932 3.3462 1.25555 0
M  V30 9593 S 923.491 3.92609 1.95968 0
M  V30 9594 H 920.309 0.67755 0.215516 0
M  V30 9595 H 922.911 1.95284 -0.0919257 0
M  V30 9596 H 921.615 4.07499 0.487069 0
M  V30 9597 H 921.146 3.36415 2.03933 0
M  V30 9598 H 923.161 3.75988 3.23802 0
M  V30 9599 O 922.373 -0.113224 1.61103 0
M  V30 9600 H 923.064 -0.743881 1.78847 0
M  V30 END ATOM
M  V30 BEGIN BOND
M  V30 END BOND
M  V30 END CTAB
M  END
$$$$
