drugbank_target|Q13523 Serine/threonine-protein kinase PRP4 homolog (DB12010)
 OpenBabel12092121183D

  0  0  0     0  0            999 V3000
M  V30 BEGIN CTAB
M  V30 COUNTS 16654 16769 0 0 0
M  V30 BEGIN ATOM
M  V30 1 H -0.908 1.98254 -0.117106 0
M  V30 2 N 0 1.576 0 0
M  V30 3 C 0.933 2.03868 1.02534 0
M  V30 4 C 1.911 0.928543 1.3348 0
M  V30 5 O 3.095 1.19667 1.45644 0
M  V30 6 C 0.222 2.43627 2.35294 0
M  V30 7 C -0.732 3.65373 2.2001 0
M  V30 8 S 0.101 5.13292 1.52614 0
M  V30 9 C 1.257 5.56322 2.86805 0
M  V30 10 H 1.49 2.90518 0.631377 0
M  V30 11 H -0.977 1.52953 0.210867 0
M  V30 12 H 0.981 2.67203 3.11629 0
M  V30 13 H -0.358 1.57376 2.7183 0
M  V30 14 H -1.165 3.90944 3.18086 0
M  V30 15 H -1.563 3.418 1.51819 0
M  V30 16 H 0.729 5.58782 3.83104 0
M  V30 17 H 1.672 6.56266 2.65933 0
M  V30 18 H 2.08 4.83886 2.90714 0
M  V30 19 N 1.4781 -0.272755 1.55222 0
M  V30 20 C 2.4411 -1.32041 1.87344 0
M  V30 21 C 3.4411 -1.42342 0.74803 0
M  V30 22 O 4.6311 -1.41488 1.0162 0
M  V30 23 C 1.7631 -2.70173 2.07893 0
M  V30 24 H 2.9561 -1.04789 2.80997 0
M  V30 25 H 0.5091 -0.51083 1.47717 0
M  V30 26 H 1.2441 -3.02605 1.16622 0
M  V30 27 H 1.0291 -2.64082 2.89833 0
M  V30 28 H 2.5191 -3.45869 2.34017 0
M  V30 29 N 2.9562 -1.48159 -0.537278 0
M  V30 30 C 3.9192 -1.61665 -1.62472 0
M  V30 31 C 4.9192 -0.490395 -1.5314 0
M  V30 32 O 6.1092 -0.755998 -1.5694 0
M  V30 33 C 3.2412 -1.57997 -3.02076 0
M  V30 34 H 4.4342 -2.58621 -1.51839 0
M  V30 35 H 1.9872 -1.36647 -0.758771 0
M  V30 36 H 2.7222 -0.624913 -3.18222 0
M  V30 37 H 2.5072 -2.39755 -3.10258 0
M  V30 38 H 3.9972 -1.70627 -3.81151 0
M  V30 39 N 4.4343 0.785586 -1.36625 0
M  V30 40 C 5.3973 1.87999 -1.31107 0
M  V30 41 C 6.3973 1.59316 -0.217959 0
M  V30 42 O 7.5873 1.67656 -0.472977 0
M  V30 43 C 4.7193 3.24861 -1.03334 0
M  V30 44 H 5.9123 1.94307 -2.2844 0
M  V30 45 H 3.4653 0.983813 -1.21453 0
M  V30 46 H 4.2003 3.24235 -0.0647432 0
M  V30 47 H 3.9853 3.4707 -1.82441 0
M  V30 48 H 5.4753 4.04929 -1.02088 0
M  V30 49 N 5.9124 1.20967 1.01018 0
M  V30 50 C 6.8224 0.980157 2.13143 0
M  V30 51 C 7.8384 -0.0660665 1.73875 0
M  V30 52 O 9.0144 0.122821 2.01025 0
M  V30 53 C 6.0794 0.54216 3.42435 0
M  V30 54 C 5.1404 1.65999 3.95908 0
M  V30 55 C 4.3734 1.2428 5.19028 0
M  V30 56 O 4.5964 0.114196 5.70286 0
M  V30 57 O 3.5304 2.05271 5.65816 0
M  V30 58 H 7.3564 1.91913 2.35379 0
M  V30 59 H 4.9414 0.994099 1.11526 0
M  V30 60 H 6.8234 0.30744 4.20277 0
M  V30 61 H 5.4984 -0.36815 3.216 0
M  V30 62 H 4.4054 1.94906 3.19316 0
M  V30 63 H 5.7384 2.54753 4.21143 0
M  V30 64 N 7.3905 -1.2043 1.01659 0
M  V30 65 C 8.6185 -1.93777 0.725132 0
M  V30 66 C 9.0335 -1.74772 -0.714166 0
M  V30 67 O 8.3905 -1.06169 -1.4844 0
M  V30 68 C 8.4415 -3.45876 1.05129 0
M  V30 69 O 8.1625 -3.6426 2.43406 0
M  V30 70 C 9.6635 -4.36368 0.780891 0
M  V30 71 H 6.8835 -0.615901 0.266284 0
M  V30 72 H 9.4275 -1.52922 1.35776 0
M  V30 73 H 7.5825 -3.8461 0.464065 0
M  V30 74 H 7.9965 -4.58246 2.55169 0
M  V30 75 H 9.4705 -5.41743 1.05918 0
M  V30 76 H 9.9475 -4.38275 -0.284937 0
M  V30 77 H 10.5535 -4.03296 1.35027 0
M  V30 78 N 8.8686 -0.792821 -1.36206 0
M  V30 79 C 9.8006 -0.151469 -2.28699 0
M  V30 80 C 10.8136 0.641262 -1.49638 0
M  V30 81 O 12.0026 0.475885 -1.72039 0
M  V30 82 C 9.1026 0.808424 -3.29117 0
M  V30 83 C 8.2756 0.0650202 -4.37352 0
M  V30 84 C 7.3346 0.941358 -5.17711 0
M  V30 85 O 6.3606 0.397352 -5.67811 0
M  V30 86 N 7.5626 2.2652 -5.3448 0
M  V30 87 H 10.3276 -0.945982 -2.84379 0
M  V30 88 H 7.8886 -0.647032 -1.48409 0
M  V30 89 H 9.8806 1.3986 -3.79765 0
M  V30 90 H 8.4506 1.5038 -2.74052 0
M  V30 91 H 7.6706 -0.706255 -3.87822 0
M  V30 92 H 8.9586 -0.447847 -5.06825 0
M  V30 93 H 8.3566 2.73128 -4.95396 0
M  V30 94 H 6.9136 2.80493 -5.88359 0
M  V30 95 N 10.3467 1.47872 -0.545128 0
M  V30 96 C 11.5717 2.07391 -0.0190611 0
M  V30 97 C 11.9967 1.39688 1.25971 0
M  V30 98 O 11.3547 0.467816 1.7516 0
M  V30 99 C 11.4027 3.60188 0.172335 0
M  V30 100 O 10.5067 3.9339 1.23766 0
M  V30 101 H 9.8477 0.662411 -0.0459059 0
M  V30 102 H 12.3777 1.90066 -0.757365 0
M  V30 103 H 12.3877 4.06129 0.390305 0
M  V30 104 H 11.0627 4.08865 -0.761725 0
M  V30 105 H 9.6397 3.5921 1.00114 0
M  V30 106 N 11.8248 0.280983 1.55075 0
M  V30 107 C 12.7548 -0.597469 2.25727 0
M  V30 108 C 13.7358 -1.15417 1.24952 0
M  V30 109 O 14.9208 -1.18722 1.53684 0
M  V30 110 C 12.0508 -1.7789 2.98283 0
M  V30 111 C 11.0048 -1.35347 4.06036 0
M  V30 112 C 10.3308 -2.61846 4.66198 0
M  V30 113 C 11.6308 -0.499354 5.19907 0
M  V30 114 H 13.3248 -0.00824265 2.99399 0
M  V30 115 H 10.8708 -0.0025244 1.44 0
M  V30 116 H 12.8238 -2.39937 3.46422 0
M  V30 117 H 11.5478 -2.39405 2.22155 0
M  V30 118 H 10.2068 -0.756156 3.58717 0
M  V30 119 H 9.8548 -3.21632 3.86732 0
M  V30 120 H 9.5548 -2.3409 5.38958 0
M  V30 121 H 11.0788 -3.24732 5.1709 0
M  V30 122 H 12.4928 -1.02498 5.64063 0
M  V30 123 H 10.8898 -0.316424 5.99265 0
M  V30 124 H 11.9598 0.480459 4.82514 0
M  V30 125 N 13.3029 -1.57598 0.00835791 0
M  V30 126 C 14.7189 -1.55764 -0.347822 0
M  V30 127 C 14.9189 -1.01186 -1.74252 0
M  V30 128 O 13.9749 -0.649371 -2.44007 0
M  V30 129 C 15.2879 -2.99927 -0.215407 0
M  V30 130 C 16.8359 -3.11656 -0.289725 0
M  V30 131 C 17.3109 -4.57621 -0.18634 0
M  V30 132 N 18.8019 -4.62557 -0.243978 0
M  V30 133 C 19.5369 -5.73094 -0.18745 0
M  V30 134 N 19.0329 -6.92753 -0.0810331 0
M  V30 135 N 20.8259 -5.61588 -0.239925 0
M  V30 136 H 12.9769 -1.91411 0.92062 0
M  V30 137 H 15.2399 -0.879562 0.353659 0
M  V30 138 H 14.9459 -3.43729 0.744512 0
M  V30 139 H 14.8199 -3.63865 -0.994097 0
M  V30 140 H 17.2069 -2.67779 -1.24009 0
M  V30 141 H 17.2879 -2.5048 0.51898 0
M  V30 142 H 16.9319 -5.02174 0.760519 0
M  V30 143 H 16.8619 -5.16752 -1.01364 0
M  V30 144 H 19.3529 -3.76481 -0.327217 0
M  V30 145 H 19.6659 -7.72787 -0.0440241 0
M  V30 146 H 18.0109 -6.94984 -0.0465419 0
M  V30 147 H 21.2019 -4.66996 -0.321317 0
M  V30 148 H 21.3749 -6.47714 -0.192407 0
M  V30 149 N 14.781 0.264519 -1.55364 0
M  V30 150 C 15.691 1.34902 -1.91934 0
M  V30 151 C 16.707 1.53595 -0.817593 0
M  V30 152 O 17.883 1.67558 -1.11742 0
M  V30 153 C 14.948 2.68676 -2.19121 0
M  V30 154 C 14.009 2.58657 -3.4263 0
M  V30 155 C 13.242 3.86051 -3.68511 0
M  V30 156 O 13.465 4.87126 -2.96757 0
M  V30 157 O 12.399 3.85744 -4.62045 0
M  V30 158 H 16.225 1.06883 -2.8427 0
M  V30 159 H 13.81 0.463775 -1.42019 0
M  V30 160 H 15.692 3.47759 -2.37995 0
M  V30 161 H 14.367 2.96463 -1.29966 0
M  V30 162 H 13.274 1.7792 -3.29082 0
M  V30 163 H 14.607 2.35818 -4.32031 0
M  V30 164 N 16.2591 1.48442 0.529413 0
M  V30 165 C 17.1911 1.59095 1.64989 0
M  V30 166 C 18.2041 0.475212 1.5571 0
M  V30 167 O 19.3931 0.746081 1.6216 0
M  V30 168 C 16.4931 1.50518 3.0364 0
M  V30 169 C 15.6661 2.77142 3.38395 0
M  V30 170 C 14.7251 2.62012 4.56329 0
M  V30 171 O 13.7511 3.35898 4.59522 0
M  V30 172 N 14.9531 1.71667 5.54536 0
M  V30 173 H 17.7181 2.55723 1.56287 0
M  V30 174 H 15.2791 1.45173 0.716697 0
M  V30 175 H 17.2711 1.38091 3.80412 0
M  V30 176 H 15.8411 0.618627 3.06418 0
M  V30 177 H 15.0611 3.0413 2.50796 0
M  V30 178 H 16.3491 3.61146 3.58401 0
M  V30 179 H 15.7471 1.10841 5.54735 0
M  V30 180 H 14.3041 1.65178 6.30523 0
M  V30 181 N 17.7372 -0.778329 1.37039 0
M  V30 182 C 19.1482 -1.35421 1.28523 0
M  V30 183 C 19.4992 -1.96075 -0.0700901 0
M  V30 184 O 18.6242 -1.93352 -0.971801 0
M  V30 185 C 19.2192 -2.46211 2.32735 0
M  V30 186 C 17.7782 -2.99585 2.27873 0
M  V30 187 C 16.9252 -1.72748 2.16918 0
M  V30 188 H 19.8762 -0.5791 1.47757 0
M  V30 189 H 19.8972 -3.2552 1.9702 0
M  V30 190 H 19.4092 -2.02036 3.31365 0
M  V30 191 H 17.5102 -3.48152 1.32745 0
M  V30 192 H 17.6232 -3.55646 3.21018 0
M  V30 193 H 15.9872 -1.95416 1.63354 0
M  V30 194 H 16.7702 -1.30686 3.17452 0
M  V30 195 N 19.2153 -1.21501 -1.00376 0
M  V30 196 C 20.1253 -0.991447 -2.12621 0
M  V30 197 C 21.1413 0.0568446 -1.73907 0
M  V30 198 O 22.3173 -0.13348 -2.00957 0
M  V30 199 C 19.3823 -0.560312 -3.42142 0
M  V30 200 C 18.4433 -1.68096 -3.95022 0
M  V30 201 C 17.6763 -1.2703 -5.18362 0
M  V30 202 O 17.8993 -0.144438 -5.70217 0
M  V30 203 O 16.8333 -2.08269 -5.64719 0
M  V30 204 H 20.6593 -1.93158 -2.34358 0
M  V30 205 H 18.2443 -0.999999 -1.10997 0
M  V30 206 H 20.1263 -0.329724 -4.20108 0
M  V30 207 H 18.8013 0.351089 -3.2179 0
M  V30 208 H 17.7083 -1.96597 -3.18278 0
M  V30 209 H 19.0413 -2.56983 -4.19786 0
M  V30 210 N 20.6934 1.19889 -1.02296 0
M  V30 211 C 21.6264 2.21639 -0.543282 0
M  V30 212 C 22.6044 1.57275 0.412698 0
M  V30 213 O 23.7884 1.85568 0.331198 0
M  V30 214 C 20.9154 3.38057 0.208571 0
M  V30 215 C 19.9614 4.20751 -0.697933 0
M  V30 216 S 20.7944 4.89529 -2.17075 0
M  V30 217 C 21.9504 6.09363 -1.42923 0
M  V30 218 H 22.1834 2.61984 -1.40541 0
M  V30 219 H 19.7164 1.30041 -0.832387 0
M  V30 220 H 21.6744 4.05539 0.63624 0
M  V30 221 H 20.3354 2.96159 1.04635 0
M  V30 222 H 19.5284 5.03862 -0.117831 0
M  V30 223 H 19.1304 3.58556 -1.06366 0
M  V30 224 H 21.4224 6.73742 -0.712637 0
M  V30 225 H 22.3654 6.71845 -2.23673 0
M  V30 226 H 22.7734 5.56798 -0.929327 0
M  V30 227 N 22.1715 0.800033 1.35784 0
M  V30 228 C 23.0815 0.207204 2.33683 0
M  V30 229 C 24.0975 -0.64631 1.61551 0
M  V30 230 O 25.2735 -0.559604 1.93469 0
M  V30 231 C 22.3385 -0.639659 3.40748 0
M  V30 232 C 21.3995 0.233585 4.28664 0
M  V30 233 C 20.6325 -0.572954 5.30616 0
M  V30 234 O 20.8555 -1.80816 5.40982 0
M  V30 235 O 19.7895 0.0327285 6.01891 0
M  V30 236 H 23.6155 1.01692 2.86169 0
M  V30 237 H 21.2005 0.561691 1.38439 0
M  V30 238 H 23.0825 -1.12223 4.06182 0
M  V30 239 H 21.7575 -1.42708 2.90544 0
M  V30 240 H 20.6645 0.763147 3.66233 0
M  V30 241 H 21.9975 0.984784 4.82248 0
M  V30 242 N 23.6496 -1.47581 0.552962 0
M  V30 243 C 24.9266 -1.95563 -0.0381515 0
M  V30 244 C 25.3066 -1.49552 -1.48988 0
M  V30 245 O 24.6546 -0.732414 -2.16444 0
M  V30 246 C 24.8646 -3.48848 0.102919 0
M  V30 247 C 26.2126 -4.24577 -0.0446082 0
M  V30 248 O 27.2366 -3.56187 0.0302548 0
M  V30 249 O 26.0956 -5.46116 -0.204923 0
M  V30 250 H 23.1896 -0.824321 -0.0665067 0
M  V30 251 H 25.7356 -1.58001 0.619186 0
M  V30 252 H 24.5076 -3.75129 1.11328 0
M  V30 253 H 24.1306 -3.93165 -0.592224 0
M  V30 254 N 25.1277 -0.289203 -1.54924 0
M  V30 255 C 26.0907 0.579144 -2.21762 0
M  V30 256 C 27.0907 1.07047 -1.1999 0
M  V30 257 O 28.2807 0.968384 -1.44803 0
M  V30 258 C 25.4127 1.80055 -2.8947 0
M  V30 259 H 26.6057 -0.00464908 -2.999 0
M  V30 260 H 24.1587 -0.0399306 -1.56249 0
M  V30 261 H 24.8937 2.42449 -2.15381 0
M  V30 262 H 24.6787 1.45602 -3.64064 0
M  V30 263 H 26.1687 2.41773 -3.40493 0
M  V30 264 N 26.6058 1.57591 -0.0167156 0
M  V30 265 C 27.5538 2.10604 0.987353 0
M  V30 266 C 28.5478 1.02977 1.34507 0
M  V30 267 O 29.7538 1.21425 1.32875 0
M  V30 268 H 26.1288 0.672695 0.336134 0
M  V30 269 H 28.0998 2.93925 0.514817 0
M  V30 270 C 26.8488 2.6382 2.26483 0
M  V30 271 H 26.1718 3.46278 1.99829 0
M  V30 272 H 27.6118 3.04573 2.94977 0
M  V30 273 C 26.0708 1.55992 2.9861 0
M  V30 274 O 26.6008 0.952521 3.90243 0
M  V30 275 N 24.8068 1.28335 2.60727 0
M  V30 276 H 24.3538 1.77914 1.86291 0
M  V30 277 H 24.3118 0.564115 3.09298 0
M  V30 278 N 28.0839 -0.256276 1.55502 0
M  V30 279 C 29.3089 -1.00766 1.81276 0
M  V30 280 C 29.7339 -1.78524 0.59252 0
M  V30 281 O 29.0919 -1.75413 -0.45827 0
M  V30 282 C 29.1399 -1.92869 3.04687 0
M  V30 283 O 28.2439 -3.019 2.80945 0
M  V30 284 H 27.5849 -0.287224 0.598664 0
M  V30 285 H 30.1149 -0.280109 2.02674 0
M  V30 286 H 30.1249 -2.34511 3.33869 0
M  V30 287 H 28.7999 -1.35689 3.93143 0
M  V30 288 H 27.3769 -2.64454 2.62904 0
M  V30 289 N 29.562 -1.4872 -0.521534 0
M  V30 290 C 30.472 -1.66569 -1.65203 0
M  V30 291 C 31.488 -0.548197 -1.65139 0
M  V30 292 O 32.664 -0.820339 -1.83936 0
M  V30 293 C 29.729 -1.70917 -3.01642 0
M  V30 294 C 28.79 -2.94356 -3.12495 0
M  V30 295 C 28.023 -2.98487 -4.42426 0
M  V30 296 O 28.246 -2.10786 -5.30024 0
M  V30 297 O 27.18 -3.90746 -4.57822 0
M  V30 298 H 31.006 -2.62298 -1.5308 0
M  V30 299 H 28.591 -1.3222 -0.695565 0
M  V30 300 H 30.473 -1.7625 -3.82771 0
M  V30 301 H 29.148 -0.783633 -3.14071 0
M  V30 302 H 28.055 -2.94552 -2.3063 0
M  V30 303 H 29.388 -3.86322 -3.04986 0
M  V30 304 N 31.0401 0.771051 -1.3745 0
M  V30 305 C 31.9871 1.88435 -1.3327 0
M  V30 306 C 32.9571 1.64914 -0.198136 0
M  V30 307 O 34.1421 1.86821 -0.387606 0
M  V30 308 C 31.2821 3.25509 -1.14622 0
M  V30 309 C 30.3951 3.60979 -2.37314 0
M  V30 310 C 29.5301 4.87265 -2.11533 0
M  V30 311 C 28.5691 5.15469 -3.30088 0
M  V30 312 N 27.7061 6.32944 -3.03853 0
M  V30 313 H 32.5461 1.91344 -2.28455 0
M  V30 314 H 30.0831 0.935466 -1.13523 0
M  V30 315 H 32.0411 4.04582 -1.01831 0
M  V30 316 H 30.6711 3.21974 -0.230837 0
M  V30 317 H 29.7231 2.76885 -2.60842 0
M  V30 318 H 31.0351 3.77759 -3.25729 0
M  V30 319 H 30.1891 5.74244 -1.95777 0
M  V30 320 H 28.9281 4.7259 -1.20457 0
M  V30 321 H 27.9331 4.26966 -3.46382 0
M  V30 322 H 29.1581 5.32052 -4.22016 0
M  V30 323 H 27.1041 6.19625 -2.15407 0
M  V30 324 H 27.0211 6.50143 -3.85812 0
M  V30 325 H 28.2891 7.22857 -2.91716 0
M  V30 326 N 32.5182 1.22032 0.997298 0
M  V30 327 C 33.7432 1.06921 1.77715 0
M  V30 328 C 34.1682 -0.376226 1.84299 0
M  V30 329 O 33.5262 -1.27165 1.29223 0
M  V30 330 C 33.5742 1.67996 3.19076 0
M  V30 331 O 32.6782 0.930653 4.01762 0
M  V30 332 H 32.0192 0.375814 0.547412 0
M  V30 333 H 34.5492 1.61737 1.25309 0
M  V30 334 H 34.5592 1.72538 3.69723 0
M  V30 335 H 33.2342 2.73182 3.13599 0
M  V30 336 H 31.8112 0.960917 3.60307 0
M  V30 337 N 33.9963 -1.19345 1.0293 0
M  V30 338 C 35.2453 -1.88363 0.721256 0
M  V30 339 C 35.5583 -1.80514 -0.753254 0
M  V30 340 O 36.7643 -2.44788 -1.17436 0
M  V30 341 C 35.2203 -3.37872 1.23978 0
M  V30 342 C 34.8283 -3.54278 2.74211 0
M  V30 343 C 36.5723 -4.12365 1.00775 0
M  V30 344 C 34.4793 -4.97682 3.19479 0
M  V30 345 H 33.4093 -0.705484 0.266098 0
M  V30 346 H 36.0603 -1.34928 1.24365 0
M  V30 347 H 34.4423 -3.90707 0.6453 0
M  V30 348 H 35.6163 -3.11769 3.39318 0
M  V30 349 H 33.9313 -2.93174 2.95699 0
M  V30 350 H 36.5283 -5.18119 1.32123 0
M  V30 351 H 36.8713 -4.16263 -0.0554308 0
M  V30 352 H 37.4043 -3.65668 1.56625 0
M  V30 353 H 34.1433 -4.98945 4.25128 0
M  V30 354 H 33.6633 -5.4095 2.591 0
M  V30 355 H 35.3423 -5.66337 3.12845 0
M  V30 356 N 35.4744 -0.807222 -1.35358 0
M  V30 357 C 36.4224 -0.20614 -2.31685 0
M  V30 358 C 37.4164 0.644445 -1.56663 0
M  V30 359 O 38.6224 0.537538 -1.71786 0
M  V30 360 H 34.9974 -0.0479006 -0.750473 0
M  V30 361 H 36.9684 -1.03369 -2.79924 0
M  V30 362 C 35.7174 0.630212 -3.41941 0
M  V30 363 H 35.0404 -0.0149558 -3.99797 0
M  V30 364 H 36.4804 1.01716 -4.11619 0
M  V30 365 C 34.9394 1.79601 -2.85035 0
M  V30 366 O 35.4694 2.89351 -2.78637 0
M  V30 367 N 33.6754 1.60774 -2.42074 0
M  V30 368 H 33.2224 0.715009 -2.47478 0
M  V30 369 H 33.1804 2.38933 -2.04349 0
M  V30 370 N 36.9525 1.47285 -0.560781 0
M  V30 371 C 37.8625 2.33846 0.187954 0
M  V30 372 C 38.8785 1.48412 0.908293 0
M  V30 373 O 40.0545 1.81332 0.876388 0
M  V30 374 C 37.1195 3.25178 1.2025 0
M  V30 375 C 36.1805 4.26504 0.489208 0
M  V30 376 C 35.4135 5.13472 1.45542 0
M  V30 377 O 35.6365 5.02959 2.6905 0
M  V30 378 O 34.5705 5.93902 0.977963 0
M  V30 379 H 38.3965 2.99177 -0.522177 0
M  V30 380 H 35.9815 1.45903 -0.321364 0
M  V30 381 H 37.8635 3.81584 1.78805 0
M  V30 382 H 36.5385 2.6247 1.89449 0
M  V30 383 H 35.4455 3.73847 -0.137627 0
M  V30 384 H 36.7785 4.91935 -0.161399 0
M  V30 385 N 38.4306 0.297415 1.54768 0
M  V30 386 C 39.3406 -0.58983 2.27064 0
M  V30 387 C 40.3566 -1.15144 1.30453 0
M  V30 388 O 41.5326 -1.17699 1.63428 0
M  V30 389 C 38.5976 -1.74714 2.9946 0
M  V30 390 C 37.6586 -1.21997 4.11601 0
M  V30 391 C 36.8916 -2.32212 4.80535 0
M  V30 392 O 37.1146 -3.52036 4.48806 0
M  V30 393 O 36.0486 -1.99106 5.68014 0
M  V30 394 H 39.8746 -0.00348199 3.037 0
M  V30 395 H 37.4596 0.0640035 1.49263 0
M  V30 396 H 39.3416 -2.42147 3.44881 0
M  V30 397 H 38.0166 -2.32016 2.25722 0
M  V30 398 H 36.9236 -0.511458 3.70587 0
M  V30 399 H 38.2566 -0.692419 4.87305 0
M  V30 400 N 39.9087 -1.5758 0.0250728 0
M  V30 401 C 40.8567 -2.11125 -0.97617 0
M  V30 402 C 41.8507 -1.03689 -1.33959 0
M  V30 403 O 43.0567 -1.22128 -1.3223 0
M  V30 404 H 39.4317 -0.674468 -0.332561 0
M  V30 405 H 41.4027 -2.94194 -0.499223 0
M  V30 406 C 40.1517 -2.65017 -2.2508 0
M  V30 407 H 39.4747 -3.47333 -1.9799 0
M  V30 408 H 40.9147 -3.06133 -2.93357 0
M  V30 409 C 39.3737 -1.57574 -2.97779 0
M  V30 410 O 39.9037 -0.973203 -3.89733 0
M  V30 411 N 38.1097 -1.29716 -2.60043 0
M  V30 412 H 37.6567 -1.789 -1.85345 0
M  V30 413 H 37.6147 -0.58051 -3.08994 0
M  V30 414 N 41.3868 0.248026 -1.55636 0
M  V30 415 C 42.6348 0.974295 -1.77065 0
M  V30 416 C 42.9558 1.85897 -0.588849 0
M  V30 417 O 42.2258 1.91868 0.395407 0
M  V30 418 H 40.8058 0.362733 -0.653019 0
M  V30 419 H 43.4678 0.266244 -1.93073 0
M  V30 420 H 42.5638 1.59667 -2.68166 0
M  V30 421 N 42.8649 1.48995 0.513639 0
M  V30 422 C 43.7749 1.67443 1.64317 0
M  V30 423 C 44.7909 0.556947 1.64846 0
M  V30 424 O 45.9669 0.830082 1.83498 0
M  V30 425 C 43.0319 1.72515 3.00732 0
M  V30 426 C 42.0929 2.96009 3.1093 0
M  V30 427 C 41.3259 3.00829 4.40837 0
M  V30 428 O 41.5489 2.13594 5.28898 0
M  V30 429 O 40.4829 3.93168 4.55744 0
M  V30 430 H 44.3089 2.63106 1.51687 0
M  V30 431 H 41.8939 1.32588 0.688543 0
M  V30 432 H 43.7759 1.78277 3.81831 0
M  V30 433 H 42.4509 0.800278 3.13651 0
M  V30 434 H 41.3579 2.9577 2.29065 0
M  V30 435 H 42.6909 3.87934 3.02933 0
M  V30 436 N 44.343 -0.763751 1.37857 0
M  V30 437 C 45.589 -1.52483 1.33704 0
M  V30 438 C 45.922 -1.94051 -0.0759612 0
M  V30 439 O 45.197 -1.64675 -1.03501 0
M  V30 440 C 45.48 -2.78441 2.28348 0
M  V30 441 C 45.333 -2.43075 3.78463 0
M  V30 442 C 46.652 -3.80415 2.21298 0
M  V30 443 H 43.771 -0.553169 0.487005 0
M  V30 444 H 46.413 -0.875562 1.68624 0
M  V30 445 H 44.563 -3.33842 1.987 0
M  V30 446 H 46.235 -1.93527 4.18742 0
M  V30 447 H 44.478 -1.75666 3.96641 0
M  V30 448 H 45.149 -3.33149 4.40132 0
M  V30 449 H 47.625 -3.34527 2.47449 0
M  V30 450 H 46.501 -4.66257 2.89647 0
M  V30 451 H 46.762 -4.25262 1.20849 0
M  V30 452 N 45.8211 -1.22559 -0.990812 0
M  V30 453 C 47.0461 -1.07862 -1.77145 0
M  V30 454 C 47.4711 0.366447 -1.84496 0
M  V30 455 O 46.8291 1.26478 -1.29896 0
M  V30 456 C 46.8771 -1.69686 -3.18181 0
M  V30 457 O 45.9811 -0.951946 -4.01263 0
M  V30 458 H 45.3221 -0.378712 -0.545411 0
M  V30 459 H 47.8521 -1.62399 -1.2445 0
M  V30 460 H 47.8621 -1.74496 -3.68802 0
M  V30 461 H 46.5371 -2.74841 -3.12146 0
M  V30 462 H 45.1141 -0.980011 -3.59792 0
M  V30 463 N 47.2992 1.18797 -1.03562 0
M  V30 464 C 48.2092 2.25913 -0.632505 0
M  V30 465 C 49.2252 1.70668 0.338882 0
M  V30 466 O 50.4012 2.00453 0.195076 0
M  V30 467 C 47.4662 3.467 0.00350942 0
M  V30 468 C 46.5272 4.17098 -1.01624 0
M  V30 469 C 45.7602 5.32119 -0.410478 0
M  V30 470 O 45.9832 5.64976 0.784725 0
M  V30 471 O 44.9172 5.9107 -1.13667 0
M  V30 472 H 48.7432 2.62648 -1.52478 0
M  V30 473 H 46.3282 1.25781 -0.806195 0
M  V30 474 H 48.2102 4.19878 0.35781 0
M  V30 475 H 46.8852 3.11798 0.869686 0
M  V30 476 H 45.7922 3.4601 -1.42224 0
M  V30 477 H 47.1252 4.55987 -1.85301 0
M  V30 478 N 48.7773 0.814389 1.34928 0
M  V30 479 C 50.0543 0.321363 1.92942 0
M  V30 480 C 50.4343 -1.19014 1.74353 0
M  V30 481 O 49.7823 -1.99328 1.11716 0
M  V30 482 C 49.9923 0.741323 3.41036 0
M  V30 483 C 51.3403 0.735266 4.18185 0
M  V30 484 O 52.3643 0.68336 3.49584 0
M  V30 485 O 51.2233 0.800703 5.40602 0
M  V30 486 H 48.3173 0.0858893 0.822528 0
M  V30 487 H 50.8633 0.898609 1.43955 0
M  V30 488 H 49.6353 1.78276 3.4833 0
M  V30 489 H 49.2583 0.139307 3.97356 0
M  V30 490 N 50.2554 -1.46986 0.568584 0
M  V30 491 C 51.1874 -2.28233 -0.210337 0
M  V30 492 C 52.2004 -1.37682 -0.868767 0
M  V30 493 O 53.3894 -1.62406 -0.740705 0
M  V30 494 C 50.4894 -3.12293 -1.3163 0
M  V30 495 C 49.6624 -4.30878 -0.7525 0
M  V30 496 C 48.7214 -4.96445 -1.74439 0
M  V30 497 O 47.7474 -5.54482 -1.286 0
M  V30 498 N 48.9494 -4.92171 -3.07812 0
M  V30 499 H 51.7144 -2.95723 0.486648 0
M  V30 500 H 49.2754 -1.56742 0.405409 0
M  V30 501 H 51.2674 -3.53022 -1.97883 0
M  V30 502 H 49.8374 -2.46971 -1.91636 0
M  V30 503 H 49.0574 -3.94104 0.0871128 0
M  V30 504 H 50.3454 -5.07558 -0.35536 0
M  V30 505 H 49.7434 -4.46239 -3.47688 0
M  V30 506 H 48.3004 -5.36884 -3.69592 0
M  V30 507 N 51.7335 -0.305618 -1.54608 0
M  V30 508 C 52.9585 0.307562 -2.05107 0
M  V30 509 C 53.3835 1.46385 -1.18123 0
M  V30 510 O 52.7415 1.8034 -0.186324 0
M  V30 511 C 52.7895 0.73704 -3.52987 0
M  V30 512 O 51.8935 1.84134 -3.6901 0
M  V30 513 H 51.2345 0.0589143 -0.661381 0
M  V30 514 H 53.7645 -0.448807 -1.99617 0
M  V30 515 H 53.7745 1.02459 -3.94925 0
M  V30 516 H 52.4495 -0.108773 -4.15758 0
M  V30 517 H 51.0265 1.55398 -3.38978 0
M  V30 518 N 53.2116 1.57565 -0.0334293 0
M  V30 519 C 54.1436 2.0739 0.975811 0
M  V30 520 C 55.1566 0.998166 1.2861 0
M  V30 521 O 56.3456 1.27426 1.25 0
M  V30 522 C 53.4456 2.4871 2.30209 0
M  V30 523 C 52.6186 3.79413 2.17634 0
M  V30 524 C 51.6776 4.07237 3.33233 0
M  V30 525 O 50.7036 4.77425 3.09927 0
M  V30 526 N 51.9056 3.5775 4.5716 0
M  V30 527 H 54.6706 2.94598 0.55066 0
M  V30 528 H 52.2316 1.61173 0.15323 0
M  V30 529 H 54.2236 2.64413 3.06378 0
M  V30 530 H 52.7936 1.66845 2.64351 0
M  V30 531 H 52.0136 3.73465 1.26165 0
M  V30 532 H 53.3016 4.65038 2.0644 0
M  V30 533 H 52.6996 3.00976 4.78989 0
M  V30 534 H 51.2566 3.78724 5.30482 0
M  V30 535 N 54.6897 -0.239769 1.55765 0
M  V30 536 C 55.6377 -1.31668 1.91745 0
M  V30 537 C 56.6317 -1.49462 0.797338 0
M  V30 538 O 57.8377 -1.50852 0.982021 0
M  V30 539 H 54.2127 -0.441048 0.609082 0
M  V30 540 H 56.1837 -0.985923 2.81642 0
M  V30 541 C 54.9327 -2.66368 2.2348 0
M  V30 542 H 54.2557 -2.53478 3.09175 0
M  V30 543 H 55.6957 -3.40578 2.52553 0
M  V30 544 C 54.1547 -3.20002 1.05359 0
M  V30 545 O 54.6847 -4.00538 0.305261 0
M  V30 546 N 52.8907 -2.78126 0.842292 0
M  V30 547 H 52.4377 -2.12742 1.45253 0
M  V30 548 H 52.3957 -3.14354 0.053652 0
M  V30 549 N 56.1678 -1.49265 -0.50573 0
M  V30 550 C 57.1148 -1.65585 -1.6078 0
M  V30 551 C 58.0848 -0.497396 -1.58478 0
M  V30 552 O 59.2698 -0.72385 -1.76536 0
M  V30 553 C 56.4098 -1.72408 -2.98948 0
M  V30 554 C 55.5228 -2.99525 -3.11301 0
M  V30 555 C 54.6578 -2.97356 -4.40174 0
M  V30 556 C 53.6968 -4.19074 -4.46143 0
M  V30 557 N 52.8338 -4.14841 -5.66437 0
M  V30 558 H 57.6738 -2.59688 -1.46172 0
M  V30 559 H 55.2108 -1.28761 -0.711261 0
M  V30 560 H 57.1688 -1.74344 -3.79025 0
M  V30 561 H 55.7988 -0.817753 -3.1227 0
M  V30 562 H 54.8508 -3.07222 -2.24318 0
M  V30 563 H 56.1628 -3.89518 -3.11572 0
M  V30 564 H 55.3168 -2.97829 -5.28567 0
M  V30 565 H 54.0558 -2.05133 -4.42461 0
M  V30 566 H 53.0608 -4.1885 -3.56153 0
M  V30 567 H 54.2858 -5.12483 -4.45575 0
M  V30 568 H 52.2318 -3.25453 -5.69575 0
M  V30 569 H 52.1488 -4.98564 -5.68304 0
M  V30 570 H 53.4168 -4.1941 -6.57051 0
M  V30 571 N 57.6459 0.756429 -1.3826 0
M  V30 572 C 58.5959 1.86069 -1.31766 0
M  V30 573 C 59.5799 1.59621 -0.202483 0
M  V30 574 O 60.7719 1.7149 -0.438211 0
M  V30 575 C 57.9009 3.23742 -1.1422 0
M  V30 576 C 56.9869 3.56091 -2.30348 0
M  V30 577 N 57.3779 3.59517 -3.55783 0
M  V30 578 C 55.6759 3.86341 -2.22838 0
M  V30 579 C 56.3769 3.89052 -4.32451 0
M  V30 580 N 55.3529 4.05736 -3.61772 0
M  V30 581 H 59.1549 1.86992 -2.26741 0
M  V30 582 H 56.6689 0.953643 -1.31451 0
M  V30 583 H 58.6659 4.02761 -1.07652 0
M  V30 584 H 57.3259 3.24073 -0.201763 0
M  V30 585 H 58.3369 3.41347 -3.89491 0
M  V30 586 H 55.0139 3.94404 -1.36937 0
M  V30 587 H 56.4039 3.98349 -5.4108 0
M  V30 588 N 59.124 1.23083 0.984299 0
M  V30 589 C 60.349 1.088 1.76571 0
M  V30 590 C 60.774 -0.356657 1.84688 0
M  V30 591 O 60.132 -1.25788 1.30565 0
M  V30 592 C 60.18 1.71371 3.17277 0
M  V30 593 O 59.284 0.973213 4.00752 0
M  V30 594 H 58.625 0.381599 0.543395 0
M  V30 595 H 61.155 1.63057 1.23587 0
M  V30 596 H 61.165 1.76449 3.67872 0
M  V30 597 H 59.84 2.76493 3.10684 0
M  V30 598 H 58.417 0.999078 3.59267 0
M  V30 599 N 60.6021 -1.18246 1.0419 0
M  V30 600 C 62.0181 -1.40269 0.761366 0
M  V30 601 C 62.2181 -1.90777 -0.648578 0
M  V30 602 O 61.2741 -2.0929 -1.41258 0
M  V30 603 C 62.5871 -2.40237 1.8085 0
M  V30 604 C 64.1351 -2.53961 1.82955 0
M  V30 605 C 64.6101 -3.57194 2.86664 0
M  V30 606 N 66.1011 -3.64702 2.85563 0
M  V30 607 C 66.8361 -4.44309 3.6246 0
M  V30 608 N 66.3321 -5.27514 4.49111 0
M  V30 609 N 68.1251 -4.39084 3.50944 0
M  V30 610 H 60.2761 -0.837882 1.95175 0
M  V30 611 H 62.5391 -0.430608 0.84456 0
M  V30 612 H 62.2451 -2.10176 2.81991 0
M  V30 613 H 62.1191 -3.39601 1.64168 0
M  V30 614 H 64.5061 -2.83338 0.824855 0
M  V30 615 H 64.5871 -1.54706 2.03715 0
M  V30 616 H 64.2311 -3.28558 3.87314 0
M  V30 617 H 64.1611 -4.5613 2.6316 0
M  V30 618 H 66.6521 -3.05289 2.22727 0
M  V30 619 H 66.9651 -5.85411 5.04493 0
M  V30 620 H 65.3101 -5.2693 4.53178 0
M  V30 621 H 68.5011 -3.7313 2.82651 0
M  V30 622 H 68.6741 -5.00883 4.11121 0
M  V30 623 N 62.0802 -0.821533 -1.34494 0
M  V30 624 C 63.0302 -0.214793 -2.26986 0
M  V30 625 C 64.0142 0.620125 -1.4847 0
M  V30 626 O 65.2062 0.474933 -1.70509 0
M  V30 627 C 62.3352 0.623566 -3.37589 0
M  V30 628 C 61.4212 -0.221904 -4.23519 0
M  V30 629 N 61.8122 -1.29223 -4.89014 0
M  V30 630 C 60.1102 -0.00600922 -4.46 0
M  V30 631 C 60.8112 -1.80965 -5.52835 0
M  V30 632 N 59.7872 -1.11376 -5.32068 0
M  V30 633 H 63.5892 -1.03354 -2.75128 0
M  V30 634 H 61.1032 -0.6642 -1.48196 0
M  V30 635 H 63.1002 1.0744 -4.02818 0
M  V30 636 H 61.7602 1.44049 -2.90998 0
M  V30 637 H 62.7712 -1.67502 -4.90065 0
M  V30 638 H 59.4482 0.77886 -4.10171 0
M  V30 639 H 60.8382 -2.70502 -6.15043 0
M  V30 640 N 63.5583 1.46682 -0.576371 0
M  V30 641 C 64.5053 2.30241 0.160499 0
M  V30 642 C 65.4753 1.40233 0.890162 0
M  V30 643 O 66.6603 1.69186 0.882084 0
M  V30 644 C 63.8003 3.24578 1.1723 0
M  V30 645 C 62.9133 4.29684 0.446736 0
M  V30 646 C 62.0483 5.11154 1.44551 0
M  V30 647 C 61.0873 6.08015 0.70599 0
M  V30 648 N 60.2243 6.82376 1.65251 0
M  V30 649 H 65.0643 2.92727 -0.558127 0
M  V30 650 H 62.6013 1.44272 -0.287056 0
M  V30 651 H 64.5593 3.77711 1.77172 0
M  V30 652 H 63.1893 2.63916 1.85872 0
M  V30 653 H 62.2413 3.79458 -0.267594 0
M  V30 654 H 63.5533 4.98626 -0.131686 0
M  V30 655 H 62.7073 5.68533 2.11791 0
M  V30 656 H 61.4463 4.42158 2.05786 0
M  V30 657 H 60.4513 5.49796 0.0197725 0
M  V30 658 H 61.6763 6.79028 0.09912 0
M  V30 659 H 59.6223 6.16094 2.25308 0
M  V30 660 H 59.5393 7.47556 1.12673 0
M  V30 661 H 60.8073 7.44316 2.31546 0
M  V30 662 N 65.0364 0.313813 1.54444 0
M  V30 663 C 65.9834 -0.55655 2.23989 0
M  V30 664 C 66.9534 -1.11943 1.22711 0
M  V30 665 O 68.1384 -1.16158 1.51367 0
M  V30 666 C 65.2784 -1.71635 2.99392 0
M  V30 667 C 64.3914 -1.18364 4.15468 0
M  V30 668 C 63.5264 -2.30834 4.78424 0
M  V30 669 C 62.5654 -1.74762 5.86622 0
M  V30 670 N 61.7024 -2.80855 6.43479 0
M  V30 671 H 66.5424 0.0430893 2.97969 0
M  V30 672 H 64.0794 0.0330359 1.47063 0
M  V30 673 H 66.0374 -2.39868 3.41349 0
M  V30 674 H 64.6674 -2.28742 2.27765 0
M  V30 675 H 63.7194 -0.393163 3.78363 0
M  V30 676 H 65.0314 -0.733262 4.93381 0
M  V30 677 H 64.1854 -3.0699 5.23299 0
M  V30 678 H 62.9244 -2.79204 3.99871 0
M  V30 679 H 61.9294 -0.970995 5.41158 0
M  V30 680 H 63.1544 -1.2728 6.67066 0
M  V30 681 H 61.1004 -3.28535 5.67804 0
M  V30 682 H 61.0174 -2.40351 7.16776 0
M  V30 683 H 62.2854 -3.5687 6.93011 0
M  V30 684 N 66.5145 -1.57545 0.0417849 0
M  V30 685 C 67.4615 -2.10977 -0.935805 0
M  V30 686 C 68.4315 -1.01486 -1.31491 0
M  V30 687 O 69.6165 -1.2898 -1.40602 0
M  V30 688 C 66.7565 -2.65169 -2.2086 0
M  V30 689 C 65.8695 -3.88714 -1.88482 0
M  V30 690 C 65.0045 -4.31254 -3.1015 0
M  V30 691 C 64.0435 -5.47524 -2.7365 0
M  V30 692 N 63.1805 -5.85162 -3.87982 0
M  V30 693 H 68.0205 -2.94218 -0.473249 0
M  V30 694 H 65.5575 -1.45415 -0.221981 0
M  V30 695 H 67.5155 -2.94685 -2.95325 0
M  V30 696 H 66.1455 -1.8474 -2.64709 0
M  V30 697 H 65.1975 -3.65849 -1.04205 0
M  V30 698 H 66.5095 -4.73245 -1.57608 0
M  V30 699 H 65.6635 -4.62273 -3.92923 0
M  V30 700 H 64.4025 -3.45516 -3.44195 0
M  V30 701 H 63.4075 -5.16187 -1.89291 0
M  V30 702 H 64.6325 -6.34971 -2.40807 0
M  V30 703 H 62.5785 -5.02377 -4.21846 0
M  V30 704 H 62.4955 -6.64362 -3.60775 0
M  V30 705 H 63.7635 -6.20791 -4.71422 0
M  V30 706 N 67.9926 0.231505 -1.5589 0
M  V30 707 C 68.9396 1.28682 -1.91598 0
M  V30 708 C 69.9096 1.47071 -0.771974 0
M  V30 709 O 71.0946 1.60802 -1.027 0
M  V30 710 C 68.2346 2.6342 -2.22944 0
M  V30 711 C 67.3476 2.52912 -3.50228 0
M  V30 712 C 66.4826 3.80106 -3.7107 0
M  V30 713 C 65.5216 3.64279 -4.91902 0
M  V30 714 N 64.6586 4.834 -5.09184 0
M  V30 715 H 69.4986 0.975305 -2.81588 0
M  V30 716 H 67.0356 0.470299 -1.39379 0
M  V30 717 H 68.9936 3.41869 -2.39126 0
M  V30 718 H 67.6236 2.92687 -1.36139 0
M  V30 719 H 66.6756 1.6595 -3.42294 0
M  V30 720 H 67.9876 2.37133 -4.38827 0
M  V30 721 H 67.1416 4.66999 -3.87295 0
M  V30 722 H 65.8806 3.98799 -2.80733 0
M  V30 723 H 64.8856 2.7577 -4.75637 0
M  V30 724 H 66.1106 3.47067 -5.83714 0
M  V30 725 H 64.0566 5.02425 -4.21788 0
M  V30 726 H 63.9736 4.70311 -5.91898 0
M  V30 727 H 65.2416 5.71747 -5.29835 0
M  V30 728 N 69.4707 1.49531 0.497807 0
M  V30 729 C 70.4207 1.62829 1.59596 0
M  V30 730 C 71.4047 0.483824 1.53453 0
M  V30 731 O 72.5967 0.736937 1.60929 0
M  V30 732 C 69.7257 1.7011 2.98191 0
M  V30 733 C 68.8117 2.90144 3.09317 0
M  V30 734 N 69.2027 4.1418 2.90324 0
M  V30 735 C 67.5007 2.88148 3.40422 0
M  V30 736 C 68.2017 4.94886 3.05717 0
M  V30 737 N 67.1777 4.28314 3.34736 0
M  V30 738 H 70.9797 2.56446 1.4357 0
M  V30 739 H 68.4937 1.46347 0.704001 0
M  V30 740 H 70.4907 1.77735 3.77115 0
M  V30 741 H 69.1507 0.776315 3.15283 0
M  V30 742 H 70.1617 4.44109 2.66436 0
M  V30 743 H 66.8387 2.05061 3.63671 0
M  V30 744 H 68.2287 6.03432 2.95499 0
M  V30 745 N 70.9488 -0.749086 1.3866 0
M  V30 746 C 71.8958 -1.86291 1.36251 0
M  V30 747 C 72.8658 -1.64578 0.224347 0
M  V30 748 O 74.0508 -1.86181 0.417279 0
M  V30 749 C 71.1908 -3.23644 1.19786 0
M  V30 750 C 70.3038 -3.57158 2.43027 0
M  V30 751 C 69.4388 -4.83838 2.19258 0
M  V30 752 C 68.4778 -5.10152 3.38247 0
M  V30 753 N 67.6148 -6.28029 3.13884 0
M  V30 754 H 72.4548 -1.87685 2.3147 0
M  V30 755 H 69.9918 -0.917287 1.14997 0
M  V30 756 H 71.9498 -4.0291 1.08254 0
M  V30 757 H 70.5798 -3.21566 0.282031 0
M  V30 758 H 69.6318 -2.72701 2.65214 0
M  V30 759 H 70.9438 -3.7253 3.31697 0
M  V30 760 H 70.0978 -5.71057 2.04888 0
M  V30 761 H 68.8368 -4.70614 1.2796 0
M  V30 762 H 67.8418 -4.21401 3.53131 0
M  V30 763 H 69.0668 -5.25271 4.30427 0
M  V30 764 H 67.0128 -6.1612 2.25238 0
M  V30 765 H 66.9298 -6.43922 3.96106 0
M  V30 766 H 68.1978 -7.18124 3.03179 0
M  V30 767 N 72.4269 -1.23603 -0.977757 0
M  V30 768 C 73.3769 -0.986664 -2.05545 0
M  V30 769 C 74.3609 0.0683009 -1.60755 0
M  V30 770 O 75.5529 -0.144162 -1.76412 0
M  V30 771 C 72.6819 -0.582623 -3.3832 0
M  V30 772 C 71.7679 -1.67313 -3.89701 0
M  V30 773 N 72.1589 -2.90394 -4.14132 0
M  V30 774 C 70.4569 -1.54832 -4.18262 0
M  V30 775 C 71.1579 -3.61017 -4.56116 0
M  V30 776 N 70.1339 -2.8854 -4.60701 0
M  V30 777 H 73.9359 -1.92139 -2.22396 0
M  V30 778 H 71.4499 -1.1358 -1.16074 0
M  V30 779 H 73.4469 -0.38524 -4.15116 0
M  V30 780 H 72.1069 0.34503 -3.22862 0
M  V30 781 H 73.1179 -3.26673 -4.01877 0
M  V30 782 H 69.7949 -0.687969 -4.11793 0
M  V30 783 H 71.1849 -4.66544 -4.83514 0
M  V30 784 N 73.905 1.17692 -1.04816 0
M  V30 785 C 75.321 1.39863 -0.768794 0
M  V30 786 C 75.521 1.91118 0.638451 0
M  V30 787 O 74.577 2.10036 1.40146 0
M  V30 788 C 75.89 2.39274 -1.82122 0
M  V30 789 C 77.438 2.52987 -1.843 0
M  V30 790 C 77.913 3.55669 -2.88555 0
M  V30 791 N 79.404 3.63183 -2.87493 0
M  V30 792 C 80.139 4.42381 -3.64811 0
M  V30 793 N 79.635 5.25125 -4.51903 0
M  V30 794 N 81.428 4.37217 -3.53267 0
M  V30 795 H 73.579 0.82752 -1.95617 0
M  V30 796 H 75.842 0.426123 -0.846831 0
M  V30 797 H 75.548 2.08678 -2.83102 0
M  V30 798 H 75.422 3.38725 -1.65967 0
M  V30 799 H 77.809 2.82896 -0.839869 0
M  V30 800 H 77.89 1.53623 -2.04532 0
M  V30 801 H 77.534 3.26499 -3.89051 0
M  V30 802 H 77.464 4.54728 -2.65575 0
M  V30 803 H 79.955 3.04103 -2.24343 0
M  V30 804 H 80.268 5.82728 -5.07591 0
M  V30 805 H 78.613 5.24519 -4.55966 0
M  V30 806 H 81.804 3.71626 -2.84625 0
M  V30 807 H 81.977 4.98696 -4.13771 0
M  V30 808 N 75.3831 0.828654 1.34056 0
M  V30 809 C 76.6081 0.431637 2.02859 0
M  V30 810 C 77.0331 -0.956339 1.61975 0
M  V30 811 O 76.3911 -1.62338 0.807228 0
M  V30 812 C 76.4391 0.548323 3.56407 0
M  V30 813 O 75.5431 -0.429556 4.10157 0
M  V30 814 H 74.8841 0.176886 0.640006 0
M  V30 815 H 77.4141 1.12066 1.71179 0
M  V30 816 H 77.4241 0.426196 4.05768 0
M  V30 817 H 76.0991 1.5606 3.8551 0
M  V30 818 H 74.6761 -0.265836 3.71951 0
M  V30 819 N 76.8612 -1.46375 0.584142 0
M  V30 820 C 77.8082 -2.30323 -0.148286 0
M  V30 821 C 78.7782 -1.40703 -0.882713 0
M  V30 822 O 79.9632 -1.69651 -0.873099 0
M  V30 823 C 77.1032 -3.25196 -1.15507 0
M  V30 824 C 76.2162 -4.29915 -0.423943 0
M  V30 825 C 75.3512 -5.11914 -1.41838 0
M  V30 826 C 74.3902 -6.08381 -0.673736 0
M  V30 827 N 73.5272 -6.83242 -1.6163 0
M  V30 828 H 78.3672 -2.92427 0.573644 0
M  V30 829 H 75.9042 -1.44118 0.294703 0
M  V30 830 H 77.8622 -3.78646 -1.75166 0
M  V30 831 H 76.4922 -2.64898 -1.8447 0
M  V30 832 H 75.5442 -3.7931 0.287714 0
M  V30 833 H 76.8562 -4.98549 0.158128 0
M  V30 834 H 76.0102 -5.69648 -2.08773 0
M  V30 835 H 74.7492 -4.43243 -2.03438 0
M  V30 836 H 73.7542 -5.49799 0.00938483 0
M  V30 837 H 74.9792 -6.79071 -0.0631082 0
M  V30 838 H 72.9252 -6.1728 -2.22038 0
M  V30 839 H 72.8422 -7.48144 -1.08707 0
M  V30 840 H 74.1102 -7.45534 -2.27596 0
M  V30 841 N 78.3393 -0.321999 -1.54275 0
M  V30 842 C 79.2893 0.560185 -2.21011 0
M  V30 843 C 80.2733 1.08283 -1.19011 0
M  V30 844 O 81.4653 1.02011 -1.44647 0
M  V30 845 C 78.5943 1.72137 -2.97025 0
M  V30 846 C 77.6803 1.21369 -4.06363 0
M  V30 847 N 78.0713 0.425566 -5.04007 0
M  V30 848 C 76.3693 1.49255 -4.20284 0
M  V30 849 C 77.0703 0.152601 -5.815 0
M  V30 850 N 76.0463 0.738294 -5.38563 0
M  V30 851 H 79.8483 -0.049265 -2.93859 0
M  V30 852 H 77.3623 -0.127779 -1.61897 0
M  V30 853 H 79.3593 2.36512 -3.43319 0
M  V30 854 H 78.0193 2.33431 -2.25699 0
M  V30 855 H 79.0303 0.068551 -5.17855 0
M  V30 856 H 75.7073 2.11145 -3.60172 0
M  V30 857 H 77.0973 -0.481764 -6.70171 0
M  V30 858 N 79.8174 1.5752 -0.0501392 0
M  V30 859 C 80.7644 2.1147 0.924603 0
M  V30 860 C 81.7344 1.02182 1.30951 0
M  V30 861 O 82.9194 1.29723 1.39916 0
M  V30 862 C 80.0594 2.66337 2.19451 0
M  V30 863 C 79.1724 3.89708 1.86418 0
M  V30 864 C 78.3074 4.32893 3.07859 0
M  V30 865 C 77.3464 5.48967 2.70742 0
M  V30 866 N 76.4834 5.87211 3.84874 0
M  V30 867 H 81.3234 2.94465 0.457639 0
M  V30 868 H 78.8604 1.45531 0.214266 0
M  V30 869 H 80.8184 2.96247 2.93758 0
M  V30 870 H 79.4484 1.86141 2.63726 0
M  V30 871 H 78.5004 3.66396 1.02264 0
M  V30 872 H 79.8124 4.74074 1.55096 0
M  V30 873 H 78.9664 4.6435 3.90466 0
M  V30 874 H 77.7054 3.47336 3.42358 0
M  V30 875 H 76.7104 5.17183 1.86551 0
M  V30 876 H 77.9354 6.3624 2.37436 0
M  V30 877 H 75.8814 5.04607 4.19175 0
M  V30 878 H 75.7984 6.66266 3.57247 0
M  V30 879 H 77.0664 6.23282 4.68123 0
M  V30 880 N 81.2955 -0.223234 1.56011 0
M  V30 881 C 82.2425 -1.27664 1.92277 0
M  V30 882 C 83.2125 -1.46659 0.779763 0
M  V30 883 O 84.3975 -1.60256 1.03551 0
M  V30 884 C 81.5375 -2.62234 2.24338 0
M  V30 885 C 80.6505 -2.51051 3.51564 0
M  V30 886 C 79.7855 -3.78133 3.7308 0
M  V30 887 C 78.8245 -3.61665 4.93827 0
M  V30 888 N 77.9615 -4.80693 5.11741 0
M  V30 889 H 82.8015 -0.960358 2.82101 0
M  V30 890 H 80.3385 -0.462901 1.39627 0
M  V30 891 H 82.2965 -3.40596 2.40936 0
M  V30 892 H 80.9265 -2.91961 1.3769 0
M  V30 893 H 79.9785 -1.64132 3.43169 0
M  V30 894 H 81.2905 -2.34803 4.40079 0
M  V30 895 H 80.4445 -4.64938 3.89766 0
M  V30 896 H 79.1835 -3.97304 2.82844 0
M  V30 897 H 78.1885 -2.73244 4.77093 0
M  V30 898 H 79.4135 -3.43966 5.85546 0
M  V30 899 H 77.3595 -5.00181 4.24446 0
M  V30 900 H 77.2765 -4.67165 5.94384 0
M  V30 901 H 78.5445 -5.6893 5.3286 0
M  V30 902 N 82.7736 -1.49793 -0.48987 0
M  V30 903 C 83.7236 -1.63673 -1.5873 0
M  V30 904 C 84.7076 -0.491956 -1.53195 0
M  V30 905 O 85.8996 -0.745461 -1.60536 0
M  V30 906 C 83.0286 -1.71689 -2.97284 0
M  V30 907 C 82.1146 -2.91781 -3.07774 0
M  V30 908 N 82.5056 -4.15714 -2.88124 0
M  V30 909 C 80.8036 -2.89949 -3.38889 0
M  V30 910 C 81.5046 -4.965 -3.03088 0
M  V30 911 N 80.4806 -4.30083 -3.3246 0
M  V30 912 H 84.2826 -2.57204 -1.42208 0
M  V30 913 H 81.7966 -1.46719 -0.69623 0
M  V30 914 H 83.7936 -1.79732 -3.76168 0
M  V30 915 H 82.4536 -0.793024 -3.14867 0
M  V30 916 H 83.4646 -4.45515 -2.64077 0
M  V30 917 H 80.1416 -2.06987 -3.62578 0
M  V30 918 H 81.5316 -6.04991 -2.92294 0
M  V30 919 N 84.2517 0.741722 -1.39055 0
M  V30 920 C 85.1987 1.85566 -1.37237 0
M  V30 921 C 86.1687 1.64457 -0.233072 0
M  V30 922 O 87.3537 1.85957 -0.427147 0
M  V30 923 C 84.4937 3.23004 -1.215 0
M  V30 924 C 83.6067 3.55864 -2.44918 0
M  V30 925 C 82.7417 4.82669 -2.21821 0
M  V30 926 C 81.7807 5.08351 -3.40948 0
M  V30 927 N 80.9177 6.26356 -3.17211 0
M  V30 928 H 85.7577 1.86455 -2.32462 0
M  V30 929 H 83.2947 0.911176 -1.15482 0
M  V30 930 H 85.2527 4.02331 -1.10389 0
M  V30 931 H 83.8827 3.21411 -0.29908 0
M  V30 932 H 82.9347 2.7129 -2.66657 0
M  V30 933 H 84.2467 3.70765 -3.33668 0
M  V30 934 H 83.4007 5.69962 -2.07914 0
M  V30 935 H 82.1397 4.69929 -1.30454 0
M  V30 936 H 81.1447 4.19522 -3.55361 0
M  V30 937 H 82.3697 5.22981 -4.33207 0
M  V30 938 H 80.3157 6.14917 -2.28502 0
M  V30 939 H 80.2327 6.41813 -3.99515 0
M  V30 940 H 81.5007 7.16506 -3.06984 0
M  V30 941 N 85.7298 1.2412 0.971189 0
M  V30 942 C 86.6798 0.997551 2.05019 0
M  V30 943 C 87.6638 -0.0597747 1.60789 0
M  V30 944 O 88.8558 0.153516 1.76333 0
M  V30 945 C 85.9848 0.600557 3.38006 0
M  V30 946 C 85.0708 1.69377 3.88809 0
M  V30 947 N 85.4618 2.92586 4.12586 0
M  V30 948 C 83.7598 1.57048 4.17435 0
M  V30 949 C 84.4608 3.63431 4.54195 0
M  V30 950 N 83.4368 2.90979 4.59165 0
M  V30 951 H 87.2388 1.93316 2.21374 0
M  V30 952 H 84.7528 1.14194 1.1547 0
M  V30 953 H 86.7498 0.40725 4.14906 0
M  V30 954 H 85.4098 -0.327903 3.2304 0
M  V30 955 H 86.4208 3.288 4.00139 0
M  V30 956 H 83.0978 0.709798 4.11422 0
M  V30 957 H 84.4878 4.69102 4.81033 0
M  V30 958 N 87.2079 -1.17134 1.05439 0
M  V30 959 C 88.4329 -1.91913 0.786396 0
M  V30 960 C 88.8579 -1.7643 -0.652234 0
M  V30 961 O 88.2159 -1.08372 -1.45345 0
M  V30 962 C 88.2639 -3.40921 1.17497 0
M  V30 963 O 87.3679 -4.11244 0.308589 0
M  V30 964 H 86.7089 -0.598215 0.288158 0
M  V30 965 H 89.2389 -1.48457 1.4079 0
M  V30 966 H 89.2489 -3.91668 1.14281 0
M  V30 967 H 87.9239 -3.5151 2.22292 0
M  V30 968 H 86.5009 -3.70731 0.40157 0
M  V30 969 N 88.686 -0.835752 -1.33615 0
M  V30 970 C 89.911 -0.442389 -2.02627 0
M  V30 971 C 90.336 0.947735 -1.62479 0
M  V30 972 O 89.694 1.61907 -0.815826 0
M  V30 973 C 89.742 -0.567216 -3.56111 0
M  V30 974 O 88.846 0.407799 -4.10379 0
M  V30 975 H 88.187 -0.180278 -0.639059 0
M  V30 976 H 90.717 -1.12972 -1.70583 0
M  V30 977 H 90.727 -0.447708 -4.05536 0
M  V30 978 H 89.402 -1.58103 -3.84677 0
M  V30 979 H 87.979 0.246107 -3.72087 0
M  V30 980 N 90.1641 1.46063 -0.591896 0
M  V30 981 C 91.0741 2.34192 0.13831 0
M  V30 982 C 92.0901 1.50305 0.876608 0
M  V30 983 O 93.2661 1.8315 0.837728 0
M  V30 984 C 90.3311 3.27656 1.13326 0
M  V30 985 C 89.3921 4.27445 0.39863 0
M  V30 986 C 88.6251 5.16443 1.34618 0
M  V30 987 O 88.8481 5.08553 2.58321 0
M  V30 988 O 87.7821 5.95843 0.851768 0
M  V30 989 H 91.6081 2.98002 -0.58552 0
M  V30 990 H 89.1931 1.45188 -0.352239 0
M  V30 991 H 91.0751 3.85291 1.70671 0
M  V30 992 H 89.7501 2.6643 1.83839 0
M  V30 993 H 88.6571 3.73471 -0.216895 0
M  V30 994 H 89.9901 4.91482 -0.265709 0
M  V30 995 N 91.6422 0.330177 1.54103 0
M  V30 996 C 92.5522 -0.541534 2.28264 0
M  V30 997 C 93.5682 -1.12351 1.32866 0
M  V30 998 O 94.7442 -1.14206 1.65888 0
M  V30 999 C 91.8092 -1.68322 3.03098 0
M  V30 1000 C 90.8702 -1.13238 4.14096 0
M  V30 1001 C 90.1032 -2.21966 4.85352 0
M  V30 1002 O 90.3262 -3.42437 4.56172 0
M  V30 1003 O 89.2602 -1.87013 5.7211 0
M  V30 1004 H 93.0862 0.060938 3.03639 0
M  V30 1005 H 90.6712 0.09565 1.49093 0
M  V30 1006 H 92.5532 -2.34777 3.49939 0
M  V30 1007 H 91.2282 -2.27176 2.30593 0
M  V30 1008 H 90.1352 -0.432736 3.71589 0
M  V30 1009 H 91.4682 -0.588898 4.88664 0
M  V30 1010 N 93.1203 -1.57491 0.0584922 0
M  V30 1011 C 94.3973 -1.84346 -0.653918 0
M  V30 1012 C 94.7773 -0.948355 -1.88599 0
M  V30 1013 O 94.1253 -0.0112403 -2.28497 0
M  V30 1014 C 94.3353 -3.34239 -1.00425 0
M  V30 1015 C 95.6833 -4.01431 -1.38342 0
M  V30 1016 O 96.7073 -3.38907 -1.09637 0
M  V30 1017 O 95.5663 -5.11683 -1.91943 0
M  V30 1018 H 92.6603 -0.761112 -0.323478 0
M  V30 1019 H 95.2063 -1.6947 0.0884125 0
M  V30 1020 H 93.9783 -3.91089 -0.128625 0
M  V30 1021 H 93.6013 -3.54329 -1.80378 0
M  V30 1022 N 94.5984 0.214957 -1.56127 0
M  V30 1023 C 95.5454 1.26642 -1.92952 0
M  V30 1024 C 96.5154 1.46244 -0.78753 0
M  V30 1025 O 97.7004 1.59704 -1.04399 0
M  V30 1026 C 94.8404 2.6104 -2.25726 0
M  V30 1027 C 93.9534 2.49183 -3.52891 0
M  V30 1028 C 93.0884 3.76149 -3.7508 0
M  V30 1029 C 92.1274 3.59041 -4.95738 0
M  V30 1030 N 91.2644 4.77972 -5.14283 0
M  V30 1031 H 96.1044 0.945384 -2.82607 0
M  V30 1032 H 93.6414 0.455489 -1.3987 0
M  V30 1033 H 95.5994 3.39313 -2.42739 0
M  V30 1034 H 94.2294 2.91227 -1.39236 0
M  V30 1035 H 93.2814 1.6231 -3.44034 0
M  V30 1036 H 94.5934 2.32466 -4.41318 0
M  V30 1037 H 93.7474 4.62865 -3.92226 0
M  V30 1038 H 92.4864 3.95799 -2.84947 0
M  V30 1039 H 91.4914 2.7071 -4.78535 0
M  V30 1040 H 92.7164 3.40856 -5.87362 0
M  V30 1041 H 90.6624 4.97923 -4.27093 0
M  V30 1042 H 90.5794 4.64006 -5.96853 0
M  V30 1043 H 91.8474 5.66096 -5.35869 0
M  V30 1044 N 96.0765 1.50051 0.48192 0
M  V30 1045 C 97.3535 1.51009 1.2432 0
M  V30 1046 C 97.7335 0.248587 2.09631 0
M  V30 1047 O 97.0815 -0.768409 2.15192 0
M  V30 1048 C 97.2915 2.79981 2.08355 0
M  V30 1049 C 98.6395 3.3022 2.66908 0
M  V30 1050 O 99.6635 2.81228 2.18607 0
M  V30 1051 O 98.5225 4.15595 3.54884 0
M  V30 1052 H 95.6165 0.605239 0.563573 0
M  V30 1053 H 98.1625 1.62332 0.494627 0
M  V30 1054 H 96.9345 3.63275 1.45419 0
M  V30 1055 H 96.5575 2.7161 2.90368 0
M  V30 1056 N 97.5546 -0.734337 1.39446 0
M  V30 1057 C 98.5016 -1.84835 1.38219 0
M  V30 1058 C 99.4716 -1.64331 0.24179 0
M  V30 1059 O 100.657 -1.85728 0.437002 0
M  V30 1060 C 97.7966 -3.22355 1.23212 0
M  V30 1061 C 96.9096 -3.5456 2.46801 0
M  V30 1062 C 96.0446 -4.81485 2.24377 0
M  V30 1063 C 95.0836 -5.06536 3.43639 0
M  V30 1064 N 94.2206 -6.24665 3.20528 0
M  V30 1065 H 99.0606 -1.85219 2.33448 0
M  V30 1066 H 96.5976 -0.905039 1.15963 0
M  V30 1067 H 98.5556 -4.0174 1.12522 0
M  V30 1068 H 97.1856 -3.21248 0.316121 0
M  V30 1069 H 96.2376 -2.69872 2.68092 0
M  V30 1070 H 97.5496 -3.6899 3.3563 0
M  V30 1071 H 96.7036 -5.68852 2.10933 0
M  V30 1072 H 95.4426 -4.6923 1.32944 0
M  V30 1073 H 94.4476 -4.17632 3.5758 0
M  V30 1074 H 95.6726 -5.20676 4.35974 0
M  V30 1075 H 93.6186 -6.13696 2.3176 0
M  V30 1076 H 93.5356 -6.39685 4.02913 0
M  V30 1077 H 94.8036 -7.14868 3.10779 0
M  V30 1078 N 99.0327 -1.24633 -0.964593 0
M  V30 1079 C 99.9797 -1.04144 -2.05968 0
M  V30 1080 C 100.95 0.046262 -1.66036 0
M  V30 1081 O 102.135 -0.108972 -1.90489 0
M  V30 1082 C 99.2747 -0.65563 -3.38815 0
M  V30 1083 C 98.3877 -1.81714 -3.91923 0
M  V30 1084 C 97.5227 -1.37662 -5.13052 0
M  V30 1085 C 96.5617 -2.50788 -5.58365 0
M  V30 1086 N 95.6987 -2.07582 -6.70712 0
M  V30 1087 H 100.539 -1.9787 -2.22827 0
M  V30 1088 H 98.0757 -0.9855 -1.09208 0
M  V30 1089 H 100.034 -0.412954 -4.15151 0
M  V30 1090 H 98.6637 0.244627 -3.21872 0
M  V30 1091 H 97.7157 -2.1734 -3.12198 0
M  V30 1092 H 99.0277 -2.66705 -4.21509 0
M  V30 1093 H 98.1817 -1.093 -5.96773 0
M  V30 1094 H 96.9207 -0.497293 -4.85158 0
M  V30 1095 H 95.9257 -2.79906 -4.73215 0
M  V30 1096 H 97.1507 -3.39283 -5.88272 0
M  V30 1097 H 95.0967 -1.22051 -6.44546 0
M  V30 1098 H 95.0137 -2.86125 -6.99763 0
M  V30 1099 H 96.2817 -1.82369 -7.57867 0
M  V30 1100 N 100.511 1.16574 -1.06058 0
M  V30 1101 C 101.461 2.18854 -0.63929 0
M  V30 1102 C 102.445 1.57505 0.328798 0
M  V30 1103 O 103.637 1.76408 0.144623 0
M  V30 1104 C 100.766 3.43291 -0.0247203 0
M  V30 1105 C 99.8518 4.11722 -1.01716 0
M  V30 1106 N 100.243 4.55841 -2.19186 0
M  V30 1107 C 98.5408 4.37872 -0.847569 0
M  V30 1108 C 99.2418 5.08751 -2.82042 0
M  V30 1109 N 98.2178 5.01489 -2.09784 0
M  V30 1110 H 102.02 2.5068 -1.53417 0
M  V30 1111 H 99.5338 1.32999 -0.931935 0
M  V30 1112 H 101.531 4.15856 0.294915 0
M  V30 1113 H 100.191 3.12954 0.865448 0
M  V30 1114 H 101.202 4.49649 -2.56975 0
M  V30 1115 H 97.8788 4.17499 -0.00918848 0
M  V30 1116 H 99.2688 5.52944 -3.81709 0
M  V30 1117 N 101.989 0.842826 1.3317 0
M  V30 1118 C 102.936 0.276885 2.29133 0
M  V30 1119 C 103.906 -0.609527 1.54512 0
M  V30 1120 O 105.091 -0.546955 1.82792 0
M  V30 1121 C 102.231 -0.538707 3.40869 0
M  V30 1122 C 101.344 0.372169 4.30394 0
M  V30 1123 C 100.479 -0.454908 5.29249 0
M  V30 1124 C 99.5179 0.45411 6.10413 0
M  V30 1125 N 98.6549 -0.335075 7.013 0
M  V30 1126 H 103.495 1.10052 2.76934 0
M  V30 1127 H 101.032 0.554161 1.36262 0
M  V30 1128 H 102.99 -1.02709 4.0436 0
M  V30 1129 H 101.62 -1.32727 2.9425 0
M  V30 1130 H 100.672 0.97888 3.6759 0
M  V30 1131 H 101.984 1.0703 4.87182 0
M  V30 1132 H 101.138 -1.00695 5.98285 0
M  V30 1133 H 99.8769 -1.18646 4.73048 0
M  V30 1134 H 98.8819 1.01813 5.40291 0
M  V30 1135 H 100.107 1.18409 6.68697 0
M  V30 1136 H 98.0529 -1.04994 6.47543 0
M  V30 1137 H 97.9699 0.304262 7.55387 0
M  V30 1138 H 99.2379 -0.869224 7.74638 0
M  V30 1139 N 103.467 -1.45747 0.599634 0
M  V30 1140 C 104.417 -2.27538 -0.145107 0
M  V30 1141 C 105.401 -1.3686 -0.846055 0
M  V30 1142 O 106.593 -1.6091 -0.737357 0
M  V30 1143 C 103.722 -3.23569 -1.14708 0
M  V30 1144 C 102.808 -4.21734 -0.447383 0
M  V30 1145 N 103.199 -5.03257 0.506535 0
M  V30 1146 C 101.497 -4.40536 -0.695966 0
M  V30 1147 C 102.198 -5.74426 0.917068 0
M  V30 1148 N 101.174 -5.42966 0.26253 0
M  V30 1149 H 104.976 -2.87965 0.587672 0
M  V30 1150 H 102.49 -1.56803 0.422697 0
M  V30 1151 H 104.487 -3.8089 -1.69495 0
M  V30 1152 H 103.147 -2.64702 -1.8805 0
M  V30 1153 H 104.158 -5.10319 0.882899 0
M  V30 1154 H 100.835 -3.92802 -1.41467 0
M  V30 1155 H 102.225 -6.4995 1.70338 0
M  V30 1156 N 104.945 -0.338344 -1.53925 0
M  V30 1157 C 105.892 0.520845 -2.24846 0
M  V30 1158 C 106.862 1.09976 -1.24477 0
M  V30 1159 O 108.047 1.13735 -1.53196 0
M  V30 1160 C 105.187 1.6685 -3.02084 0
M  V30 1161 C 104.3 1.11739 -4.17299 0
M  V30 1162 C 103.435 2.23193 -4.82036 0
M  V30 1163 C 102.474 1.65407 -5.89328 0
M  V30 1164 N 101.611 2.70582 -6.47866 0
M  V30 1165 H 106.451 -0.0904881 -2.97863 0
M  V30 1166 H 103.988 -0.0564282 -1.46992 0
M  V30 1167 H 105.946 2.34407 -3.45122 0
M  V30 1168 H 104.576 2.2509 -2.31375 0
M  V30 1169 H 103.628 0.332919 -3.7894 0
M  V30 1170 H 104.94 0.654677 -4.94485 0
M  V30 1171 H 104.094 2.98626 -5.28117 0
M  V30 1172 H 102.833 2.72807 -4.04262 0
M  V30 1173 H 101.838 0.884779 -5.42634 0
M  V30 1174 H 103.063 1.16652 -6.69006 0
M  V30 1175 H 101.009 3.1946 -5.72959 0
M  V30 1176 H 100.926 2.28917 -7.20509 0
M  V30 1177 H 102.194 3.45799 -6.98601 0
M  V30 1178 N 106.423 1.57458 -0.0668435 0
M  V30 1179 C 107.373 2.0896 0.912119 0
M  V30 1180 C 108.357 0.998186 1.26195 0
M  V30 1181 O 109.549 1.26133 1.24175 0
M  V30 1182 C 106.678 2.6508 2.18145 0
M  V30 1183 C 105.764 3.81218 1.85832 0
M  V30 1184 N 106.155 4.90378 1.23948 0
M  V30 1185 C 104.453 3.9042 2.15612 0
M  V30 1186 C 105.154 5.71279 1.09616 0
M  V30 1187 N 104.13 5.19389 1.60423 0
M  V30 1188 H 107.932 2.90749 0.42924 0
M  V30 1189 H 105.446 1.6182 0.137184 0
M  V30 1190 H 107.443 3.0029 2.89192 0
M  V30 1191 H 106.103 1.84736 2.67025 0
M  V30 1192 H 107.114 5.09847 0.909731 0
M  V30 1193 H 103.791 3.21043 2.66903 0
M  V30 1194 H 105.181 6.69085 0.614425 0
M  V30 1195 N 107.901 -0.206675 1.56239 0
M  V30 1196 C 108.848 -1.25617 1.93621 0
M  V30 1197 C 109.818 -1.45824 0.795274 0
M  V30 1198 O 111.003 -1.59148 1.05245 0
M  V30 1199 C 108.143 -2.59839 2.27107 0
M  V30 1200 C 107.256 -2.47308 3.54207 0
M  V30 1201 C 106.391 -3.74155 3.7707 0
M  V30 1202 C 105.43 -3.56407 4.97635 0
M  V30 1203 N 104.567 -4.75238 5.1681 0
M  V30 1204 H 109.407 -0.930383 2.83104 0
M  V30 1205 H 106.944 -0.448065 1.4011 0
M  V30 1206 H 108.902 -3.38021 2.44535 0
M  V30 1207 H 107.532 -2.90485 1.40778 0
M  V30 1208 H 106.584 -1.60483 3.4489 0
M  V30 1209 H 107.896 -2.30122 4.42544 0
M  V30 1210 H 107.05 -4.60778 3.94675 0
M  V30 1211 H 105.789 -3.94282 2.87042 0
M  V30 1212 H 104.794 -2.68168 4.79964 0
M  V30 1213 H 106.019 -3.37736 5.89161 0
M  V30 1214 H 103.965 -4.95651 4.29728 0
M  V30 1215 H 103.882 -4.60835 5.99306 0
M  V30 1216 H 105.15 -5.63246 5.38864 0
M  V30 1217 N 109.379 -1.50304 -0.473955 0
M  V30 1218 C 110.329 -1.65347 -1.56985 0
M  V30 1219 C 111.313 -0.508176 -1.52664 0
M  V30 1220 O 112.505 -0.762446 -1.59737 0
M  V30 1221 C 109.634 -1.74832 -2.95447 0
M  V30 1222 C 108.72 -2.95028 -3.04662 0
M  V30 1223 N 109.111 -4.18747 -2.83698 0
M  V30 1224 C 107.409 -2.93527 -3.35795 0
M  V30 1225 C 108.11 -4.99687 -2.97805 0
M  V30 1226 N 107.086 -4.33585 -3.2788 0
M  V30 1227 H 110.888 -2.58698 -1.39472 0
M  V30 1228 H 108.402 -1.47449 -0.680629 0
M  V30 1229 H 110.399 -1.83712 -3.7424 0
M  V30 1230 H 109.059 -0.826376 -3.14008 0
M  V30 1231 H 110.07 -4.48291 -2.59337 0
M  V30 1232 H 106.747 -2.10821 -3.60362 0
M  V30 1233 H 108.137 -6.08057 -2.85861 0
M  V30 1234 N 110.857 0.726932 -1.39834 0
M  V30 1235 C 111.804 1.841 -1.39197 0
M  V30 1236 C 112.774 1.642 -0.250502 0
M  V30 1237 O 113.959 1.85494 -0.446846 0
M  V30 1238 C 111.099 3.21697 -1.24919 0
M  V30 1239 C 110.212 3.53247 -2.48678 0
M  V30 1240 C 109.347 4.80289 -2.26928 0
M  V30 1241 C 108.386 5.04707 -3.4632 0
M  V30 1242 N 107.523 6.22956 -3.23836 0
M  V30 1243 H 112.363 1.83979 -2.34427 0
M  V30 1244 H 109.9 0.898876 -1.16442 0
M  V30 1245 H 111.858 4.01137 -1.1465 0
M  V30 1246 H 110.488 3.21076 -0.333153 0
M  V30 1247 H 109.54 2.68447 -2.69519 0
M  V30 1248 H 110.852 3.67205 -3.37582 0
M  V30 1249 H 110.006 5.67725 -2.13947 0
M  V30 1250 H 108.745 4.68519 -1.35431 0
M  V30 1251 H 107.75 4.1573 -3.5979 0
M  V30 1252 H 108.975 5.18357 -4.38729 0
M  V30 1253 H 106.921 6.12459 -2.35011 0
M  V30 1254 H 106.838 6.37539 -4.063 0
M  V30 1255 H 108.106 7.1321 -3.14566 0
M  V30 1256 N 112.336 1.25143 0.95797 0
M  V30 1257 C 113.283 1.05235 2.05412 0
M  V30 1258 C 114.253 -0.0374561 1.66058 0
M  V30 1259 O 115.438 0.119073 1.90428 0
M  V30 1260 C 112.578 0.673589 3.38462 0
M  V30 1261 C 111.691 1.8379 3.90954 0
M  V30 1262 C 110.826 1.40381 5.12315 0
M  V30 1263 C 109.865 2.53746 5.57027 0
M  V30 1264 N 109.002 2.11136 6.69601 0
M  V30 1265 H 113.842 1.99048 2.21774 0
M  V30 1266 H 111.379 0.991277 1.08683 0
M  V30 1267 H 113.337 0.434964 4.14926 0
M  V30 1268 H 111.967 -0.227554 3.21997 0
M  V30 1269 H 111.019 2.18992 3.11041 0
M  V30 1270 H 112.331 2.68937 4.20089 0
M  V30 1271 H 111.485 1.12464 5.96185 0
M  V30 1272 H 110.224 0.523015 4.84887 0
M  V30 1273 H 109.229 2.82412 4.71724 0
M  V30 1274 H 110.454 3.42398 5.86464 0
M  V30 1275 H 108.4 1.25468 6.4389 0
M  V30 1276 H 108.317 2.89832 6.98236 0
M  V30 1277 H 109.585 1.86385 7.56889 0
M  V30 1278 N 113.814 -1.1601 1.06675 0
M  V30 1279 C 114.764 -2.18512 0.650888 0
M  V30 1280 C 115.748 -1.57677 -0.320441 0
M  V30 1281 O 116.94 -1.76482 -0.135266 0
M  V30 1282 C 114.069 -3.43273 0.0429255 0
M  V30 1283 C 113.155 -4.11176 1.03898 0
M  V30 1284 N 113.546 -4.54672 2.216 0
M  V30 1285 C 111.844 -4.37417 0.870779 0
M  V30 1286 C 112.545 -5.07248 2.84736 0
M  V30 1287 N 111.521 -5.0037 2.12441 0
M  V30 1288 H 115.323 -2.49863 1.54745 0
M  V30 1289 H 112.837 -1.32503 0.938975 0
M  V30 1290 H 114.834 -4.16006 -0.272857 0
M  V30 1291 H 113.494 -3.13408 -0.84884 0
M  V30 1292 H 114.505 -4.4828 2.59356 0
M  V30 1293 H 111.182 -4.17488 0.0313293 0
M  V30 1294 H 112.572 -5.50912 3.84636 0
M  V30 1295 N 115.292 -0.849877 -1.32721 0
M  V30 1296 C 116.239 -0.289033 -2.28983 0
M  V30 1297 C 117.209 0.601324 -1.54833 0
M  V30 1298 O 118.394 0.537253 -1.8308 0
M  V30 1299 C 115.534 0.520623 -3.4115 0
M  V30 1300 C 114.647 -0.394989 -4.3019 0
M  V30 1301 C 113.782 0.426834 -5.29482 0
M  V30 1302 C 112.821 -0.486476 -6.10164 0
M  V30 1303 N 111.958 0.297879 -7.01468 0
M  V30 1304 H 116.798 -1.11519 -2.76347 0
M  V30 1305 H 114.335 -0.56138 -1.35967 0
M  V30 1306 H 116.293 1.00563 -4.04899 0
M  V30 1307 H 114.923 1.31165 -2.9495 0
M  V30 1308 H 113.975 -0.99836 -3.67065 0
M  V30 1309 H 115.287 -1.09612 -4.86607 0
M  V30 1310 H 114.441 0.975205 -5.98811 0
M  V30 1311 H 113.18 1.16136 -4.73671 0
M  V30 1312 H 112.185 -1.04677 -5.39743 0
M  V30 1313 H 113.41 -1.21953 -6.6806 0
M  V30 1314 H 111.356 1.01558 -6.48091 0
M  V30 1315 H 111.273 -0.344318 -7.55216 0
M  V30 1316 H 112.541 0.828131 -7.75089 0
M  V30 1317 N 116.77 1.45427 -0.607355 0
M  V30 1318 C 118.186 1.57283 -0.270985 0
M  V30 1319 C 118.386 1.59875 1.22647 0
M  V30 1320 O 117.442 1.52893 2.00948 0
M  V30 1321 C 118.755 2.85566 -0.941952 0
M  V30 1322 C 120.303 2.9924 -0.917849 0
M  V30 1323 C 120.778 4.30293 -1.56882 0
M  V30 1324 N 122.269 4.37051 -1.5343 0
M  V30 1325 C 123.004 5.37123 -2.00715 0
M  V30 1326 N 122.5 6.43734 -2.56084 0
M  V30 1327 N 124.293 5.28479 -1.91484 0
M  V30 1328 H 116.444 1.41988 -1.57966 0
M  V30 1329 H 118.707 0.67885 -0.661715 0
M  V30 1330 H 118.413 2.8955 -1.99633 0
M  V30 1331 H 118.287 3.74322 -0.465096 0
M  V30 1332 H 120.674 2.94822 0.127984 0
M  V30 1333 H 120.755 2.11895 -1.43297 0
M  V30 1334 H 120.399 4.35469 -2.61398 0
M  V30 1335 H 120.329 5.16454 -1.02873 0
M  V30 1336 H 122.82 3.60615 -1.12982 0
M  V30 1337 H 123.133 7.16341 -2.89958 0
M  V30 1338 H 121.478 6.44485 -2.60122 0
M  V30 1339 H 124.669 4.44098 -1.47967 0
M  V30 1340 H 124.842 6.0632 -2.28648 0
M  V30 1341 N 118.248 0.346503 1.53744 0
M  V30 1342 C 119.195 -0.508914 2.25119 0
M  V30 1343 C 120.165 -1.09315 1.25058 0
M  V30 1344 O 121.35 -1.12921 1.53797 0
M  V30 1345 C 118.49 -1.65246 3.02965 0
M  V30 1346 C 117.603 -1.09525 4.17886 0
M  V30 1347 C 116.738 -2.20634 4.83212 0
M  V30 1348 C 115.777 -1.62279 5.90196 0
M  V30 1349 N 114.914 -2.67143 6.49291 0
M  V30 1350 H 119.754 0.106283 2.9781 0
M  V30 1351 H 117.291 0.0642227 1.4696 0
M  V30 1352 H 119.249 -2.32574 3.4636 0
M  V30 1353 H 117.879 -2.2386 2.32565 0
M  V30 1354 H 116.931 -0.312818 3.79112 0
M  V30 1355 H 118.243 -0.628444 4.94825 0
M  V30 1356 H 117.397 -2.95821 5.29693 0
M  V30 1357 H 116.136 -2.70659 4.05703 0
M  V30 1358 H 115.141 -0.855989 5.43096 0
M  V30 1359 H 116.366 -1.13102 6.69615 0
M  V30 1360 H 114.312 -3.16417 5.74645 0
M  V30 1361 H 114.229 -2.25093 7.21713 0
M  V30 1362 H 115.497 -3.4209 7.00425 0
M  V30 1363 N 119.726 -1.57421 0.075193 0
M  V30 1364 C 120.636 -2.1642 -0.905511 0
M  V30 1365 C 121.652 -1.12828 -1.32461 0
M  V30 1366 O 122.828 -1.45109 -1.39661 0
M  V30 1367 C 119.893 -2.71693 -2.15369 0
M  V30 1368 C 118.954 -3.90171 -1.79068 0
M  V30 1369 C 118.187 -4.42798 -2.97936 0
M  V30 1370 O 118.41 -3.94416 -4.12058 0
M  V30 1371 O 117.344 -5.34085 -2.77555 0
M  V30 1372 H 121.17 -3.00588 -0.433626 0
M  V30 1373 H 118.755 -1.48664 -0.148067 0
M  V30 1374 H 120.637 -3.07104 -2.88557 0
M  V30 1375 H 119.312 -1.90582 -2.61649 0
M  V30 1376 H 118.219 -3.59606 -1.03122 0
M  V30 1377 H 119.552 -4.72584 -1.37569 0
M  V30 1378 N 121.204 0.198386 -1.56346 0
M  V30 1379 C 122.453 0.917451 -1.79627 0
M  V30 1380 C 122.766 1.8456 -0.64784 0
M  V30 1381 O 123.972 2.60504 -0.764859 0
M  V30 1382 C 122.428 1.68175 -3.18191 0
M  V30 1383 C 122.036 0.798589 -4.40825 0
M  V30 1384 C 123.78 2.39065 -3.50782 0
M  V30 1385 C 121.687 1.56157 -5.70411 0
M  V30 1386 H 120.617 0.346317 -0.669762 0
M  V30 1387 H 123.268 0.170801 -1.82703 0
M  V30 1388 H 121.65 2.47216 -3.09354 0
M  V30 1389 H 122.824 0.0470665 -4.60776 0
M  V30 1390 H 121.139 0.200686 -4.15916 0
M  V30 1391 H 123.736 2.96692 -4.44835 0
M  V30 1392 H 124.079 3.13091 -2.74371 0
M  V30 1393 H 124.612 1.66993 -3.61052 0
M  V30 1394 H 121.351 0.864142 -6.49779 0
M  V30 1395 H 120.871 2.2871 -5.54483 0
M  V30 1396 H 122.55 2.11622 -6.11412 0
M  V30 1397 N 122.682 1.50554 0.465978 0
M  V30 1398 C 123.931 1.61038 1.21448 0
M  V30 1399 C 124.244 0.31865 1.92987 0
M  V30 1400 O 125.45 0.302469 2.6981 0
M  V30 1401 C 123.906 2.84283 2.20706 0
M  V30 1402 C 123.514 4.20352 1.54946 0
M  V30 1403 C 125.258 3.04115 2.96166 0
M  V30 1404 C 123.165 5.34778 2.5252 0
M  V30 1405 H 122.095 0.599718 0.457005 0
M  V30 1406 H 124.746 1.7699 0.484424 0
M  V30 1407 H 123.128 2.61901 2.97025 0
M  V30 1408 H 124.302 4.53008 0.843811 0
M  V30 1409 H 122.617 4.06167 0.917475 0
M  V30 1410 H 125.214 3.86774 3.69202 0
M  V30 1411 H 125.557 2.16045 3.55852 0
M  V30 1412 H 126.09 3.26702 2.26959 0
M  V30 1413 H 122.829 6.25018 1.97566 0
M  V30 1414 H 122.349 5.06534 3.21222 0
M  V30 1415 H 124.028 5.65561 3.14245 0
M  V30 1416 N 124.16 -0.719506 1.40217 0
M  V30 1417 C 125.437 -1.47221 1.28784 0
M  V30 1418 C 125.817 -2.10883 -0.0956067 0
M  V30 1419 O 125.165 -1.99833 -1.10811 0
M  V30 1420 C 125.375 -2.5111 2.42373 0
M  V30 1421 C 126.723 -3.17053 2.82423 0
M  V30 1422 O 127.747 -2.61429 2.41937 0
M  V30 1423 O 126.606 -4.17742 3.52355 0
M  V30 1424 H 123.7 -0.654491 0.50554 0
M  V30 1425 H 126.246 -0.752014 1.52128 0
M  V30 1426 H 125.018 -2.02556 3.34793 0
M  V30 1427 H 124.641 -3.3067 2.20778 0
M  V30 1428 N 125.638 -1.25649 -0.95132 0
M  V30 1429 C 126.601 -1.06399 -2.03007 0
M  V30 1430 C 127.601 -0.0156794 -1.60792 0
M  V30 1431 O 128.791 -0.25817 -1.72276 0
M  V30 1432 C 125.923 -0.616184 -3.35285 0
M  V30 1433 H 127.116 -2.02164 -2.21517 0
M  V30 1434 H 124.669 -1.08103 -1.12887 0
M  V30 1435 H 125.404 0.343917 -3.22471 0
M  V30 1436 H 125.189 -1.37301 -3.67275 0
M  V30 1437 H 126.679 -0.503032 -4.14559 0
M  V30 1438 N 127.117 1.15442 -1.07289 0
M  V30 1439 C 128.342 1.90638 -0.816828 0
M  V30 1440 C 128.767 1.77445 0.624083 0
M  V30 1441 O 128.125 1.10671 1.43602 0
M  V30 1442 C 128.173 3.39008 -1.22906 0
M  V30 1443 O 127.277 4.10701 -0.373975 0
M  V30 1444 H 126.618 0.593555 -0.297638 0
M  V30 1445 H 129.148 1.46198 -1.43134 0
M  V30 1446 H 129.158 3.89801 -1.20497 0
M  V30 1447 H 127.833 3.47929 -2.27856 0
M  V30 1448 H 126.41 3.70046 -0.460499 0
M  V30 1449 N 128.595 0.856903 1.32268 0
M  V30 1450 C 129.872 0.382583 1.91822 0
M  V30 1451 C 130.252 -1.13407 1.78051 0
M  V30 1452 O 129.6 -1.95673 1.18001 0
M  V30 1453 C 129.81 0.849446 3.38505 0
M  V30 1454 C 131.158 0.867936 4.15634 0
M  V30 1455 O 132.182 0.794232 3.47232 0
M  V30 1456 O 131.041 0.972286 5.37781 0
M  V30 1457 H 128.135 0.112014 0.819379 0
M  V30 1458 H 130.681 0.943952 1.41024 0
M  V30 1459 H 129.453 1.89267 3.42482 0
M  V30 1460 H 129.076 0.265652 3.96712 0
M  V30 1461 N 130.073 -1.45103 0.615059 0
M  V30 1462 C 131.02 -2.30586 -0.0993978 0
M  V30 1463 C 131.99 -1.42544 -0.852669 0
M  V30 1464 O 133.175 -1.71465 -0.836917 0
M  V30 1465 C 130.315 -3.27572 -1.08583 0
M  V30 1466 C 129.428 -4.30717 -0.332656 0
M  V30 1467 C 128.563 -5.14807 -1.30947 0
M  V30 1468 C 127.602 -6.09673 -0.544538 0
M  V30 1469 N 126.739 -6.86517 -1.47101 0
M  V30 1470 H 131.579 -2.91144 0.635542 0
M  V30 1471 H 129.116 -1.4346 0.325206 0
M  V30 1472 H 131.074 -3.82276 -1.67095 0
M  V30 1473 H 129.704 -2.68751 -1.78809 0
M  V30 1474 H 128.756 -3.78615 0.368107 0
M  V30 1475 H 130.068 -4.98102 0.263842 0
M  V30 1476 H 129.222 -5.73948 -1.96643 0
M  V30 1477 H 127.961 -4.47458 -1.9399 0
M  V30 1478 H 126.966 -5.49656 0.126003 0
M  V30 1479 H 128.191 -6.79052 0.080947 0
M  V30 1480 H 126.137 -6.21851 -2.08895 0
M  V30 1481 H 126.054 -7.50281 -0.928137 0
M  V30 1482 H 127.322 -7.50194 -2.11731 0
M  V30 1483 N 131.551 -0.354651 -1.53558 0
M  V30 1484 C 132.461 0.50515 -2.29097 0
M  V30 1485 C 133.477 1.10223 -1.34636 0
M  V30 1486 O 134.653 1.11553 -1.67684 0
M  V30 1487 C 131.718 1.63479 -3.05738 0
M  V30 1488 C 130.779 1.06636 -4.15845 0
M  V30 1489 C 130.012 2.14217 -4.88822 0
M  V30 1490 O 130.235 3.35137 -4.61562 0
M  V30 1491 O 129.169 1.77887 -5.75013 0
M  V30 1492 H 132.995 -0.109237 -3.03503 0
M  V30 1493 H 130.58 -0.119357 -1.48922 0
M  V30 1494 H 132.462 2.2918 -3.5363 0
M  V30 1495 H 131.137 2.23478 -2.34178 0
M  V30 1496 H 130.044 0.373565 -3.7223 0
M  V30 1497 H 131.377 0.511081 -4.89539 0
M  V30 1498 N 133.029 1.57378 -0.0835403 0
M  V30 1499 C 134.277 1.93547 0.581718 0
M  V30 1500 C 134.598 0.96524 1.69435 0
M  V30 1501 O 133.868 0.0153369 1.95894 0
M  V30 1502 H 132.448 0.714521 0.217874 0
M  V30 1503 H 135.11 1.94366 -0.144158 0
M  V30 1504 H 134.206 2.95665 0.999423 0
M  V30 1505 N 134.507 -0.190092 1.56449 0
M  V30 1506 C 135.44 -1.26375 1.90012 0
M  V30 1507 C 136.418 -1.43705 0.760765 0
M  V30 1508 O 137.602 -1.59014 1.01226 0
M  V30 1509 C 134.729 -2.62962 2.13468 0
M  V30 1510 C 133.775 -2.62474 3.36169 0
M  V30 1511 S 134.608 -2.13412 4.91137 0
M  V30 1512 C 135.764 -3.51812 5.17667 0
M  V30 1513 H 135.997 -0.977181 2.80782 0
M  V30 1514 H 133.53 -0.393814 1.49293 0
M  V30 1515 H 135.488 -3.41583 2.27664 0
M  V30 1516 H 134.149 -2.88828 1.23439 0
M  V30 1517 H 133.342 -3.62918 3.49723 0
M  V30 1518 H 132.944 -1.91937 3.20992 0
M  V30 1519 H 135.236 -4.47706 5.08494 0
M  V30 1520 H 136.179 -3.43148 6.19399 0
M  V30 1521 H 136.587 -3.46956 4.45288 0
M  V30 1522 N 135.985 -1.50799 -0.457987 0
M  V30 1523 C 137.21 -1.66496 -1.23668 0
M  V30 1524 C 137.635 -0.353288 -1.84752 0
M  V30 1525 O 136.993 0.684346 -1.67888 0
M  V30 1526 C 137.041 -2.76763 -2.3116 0
M  V30 1527 O 136.145 -2.38928 -3.36136 0
M  V30 1528 H 135.486 -0.555828 -0.363252 0
M  V30 1529 H 138.016 -1.9725 -0.543474 0
M  V30 1530 H 138.026 -3.00232 -2.76269 0
M  V30 1531 H 136.701 -3.71954 -1.86073 0
M  V30 1532 H 135.278 -2.25953 -2.96647 0
M  V30 1533 N 137.463 0.71206 -1.40597 0
M  V30 1534 C 138.874 1.29135 -1.34837 0
M  V30 1535 C 139.225 1.96186 -0.0235395 0
M  V30 1536 O 138.35 1.97768 0.878444 0
M  V30 1537 C 138.945 2.34827 -2.44217 0
M  V30 1538 C 137.504 2.88371 -2.41907 0
M  V30 1539 C 136.651 1.62202 -2.24913 0
M  V30 1540 H 139.602 0.507944 -1.50352 0
M  V30 1541 H 139.623 3.15749 -2.12327 0
M  V30 1542 H 139.135 1.85996 -3.40627 0
M  V30 1543 H 137.236 3.41422 -1.49204 0
M  V30 1544 H 137.349 3.39925 -3.37621 0
M  V30 1545 H 135.713 1.874 -1.72492 0
M  V30 1546 H 136.496 1.15391 -3.23326 0
M  V30 1547 N 138.941 1.26152 0.944643 0
M  V30 1548 C 139.904 1.07474 2.0244 0
M  V30 1549 C 140.904 0.0242064 1.60782 0
M  V30 1550 O 142.094 0.267302 1.72137 0
M  V30 1551 C 139.226 0.633956 3.34953 0
M  V30 1552 H 140.419 2.03336 2.20442 0
M  V30 1553 H 137.972 1.087 1.12312 0
M  V30 1554 H 138.707 -0.326811 3.22649 0
M  V30 1555 H 138.492 1.39247 3.66542 0
M  V30 1556 H 139.982 0.52501 4.14287 0
M  V30 1557 N 140.419 -1.14872 1.07899 0
M  V30 1558 C 141.366 -2.19791 0.704319 0
M  V30 1559 C 142.336 -1.63238 -0.306987 0
M  V30 1560 O 143.521 -1.8983 -0.192171 0
M  V30 1561 C 140.661 -3.44911 0.114244 0
M  V30 1562 C 139.774 -4.15637 1.1777 0
M  V30 1563 C 138.909 -5.28324 0.552037 0
M  V30 1564 C 137.948 -5.90875 1.59789 0
M  V30 1565 N 137.085 -6.95022 0.994404 0
M  V30 1566 H 141.925 -2.5119 1.60336 0
M  V30 1567 H 139.462 -1.23356 0.801352 0
M  V30 1568 H 141.42 -4.16477 -0.245544 0
M  V30 1569 H 140.05 -3.14011 -0.74813 0
M  V30 1570 H 139.102 -3.42512 1.65499 0
M  V30 1571 H 140.414 -4.5823 1.97046 0
M  V30 1572 H 139.568 -6.06538 0.1402 0
M  V30 1573 H 138.307 -4.86939 -0.272431 0
M  V30 1574 H 137.312 -5.11369 2.01945 0
M  V30 1575 H 138.537 -6.34337 2.42474 0
M  V30 1576 H 136.483 -6.55722 0.190939 0
M  V30 1577 H 136.4 -7.36073 1.72432 0
M  V30 1578 H 137.668 -7.77123 0.608253 0
M  V30 1579 N 141.898 -0.863906 -1.31812 0
M  V30 1580 C 143.314 -0.555004 -1.49639 0
M  V30 1581 C 143.514 0.912266 -1.79666 0
M  V30 1582 O 142.57 1.69479 -1.87171 0
M  V30 1583 C 143.883 -1.44998 -2.63431 0
M  V30 1584 C 145.431 -1.45138 -2.77316 0
M  V30 1585 C 145.906 -2.33179 -3.94197 0
M  V30 1586 N 147.397 -2.31025 -4.01474 0
M  V30 1587 C 148.132 -2.95871 -4.9117 0
M  V30 1588 N 147.628 -3.69863 -5.8581 0
M  V30 1589 N 149.421 -2.85211 -4.84367 0
M  V30 1590 H 141.572 -1.81339 -1.10589 0
M  V30 1591 H 143.835 -0.77505 -0.545895 0
M  V30 1592 H 143.541 -2.49377 -2.48 0
M  V30 1593 H 143.415 -1.14409 -3.59431 0
M  V30 1594 H 145.802 -0.415201 -2.92164 0
M  V30 1595 H 145.883 -1.79747 -1.82001 0
M  V30 1596 H 145.527 -3.3687 -3.80107 0
M  V30 1597 H 145.457 -1.95897 -4.88807 0
M  V30 1598 H 147.948 -1.77238 -3.33759 0
M  V30 1599 H 148.261 -4.16486 -6.50968 0
M  V30 1600 H 146.606 -3.73971 -5.85808 0
M  V30 1601 H 149.797 -2.26948 -4.09405 0
M  V30 1602 H 149.97 -3.36027 -5.54066 0
M  V30 1603 N 143.376 1.44774 -0.622745 0
M  V30 1604 C 144.604 2.06487 -0.130722 0
M  V30 1605 C 145.019 1.46476 1.19123 0
M  V30 1606 O 144.376 0.584502 1.72887 0
M  V30 1607 C 144.427 3.615 -0.000807207 0
M  V30 1608 O 144.148 4.19274 -1.27048 0
M  V30 1609 C 145.649 4.40229 0.520898 0
M  V30 1610 H 142.869 0.666704 -0.0758106 0
M  V30 1611 H 145.413 1.85779 -0.854774 0
M  V30 1612 H 143.568 3.81498 0.673643 0
M  V30 1613 H 143.982 5.12622 -1.1099 0
M  V30 1614 H 145.456 5.49144 0.560838 0
M  V30 1615 H 145.933 4.1108 1.54627 0
M  V30 1616 H 146.539 4.25131 -0.120018 0
M  V30 1617 N 144.854 0.36279 1.53368 0
M  V30 1618 C 145.801 -0.485008 2.25646 0
M  V30 1619 C 146.771 -1.07982 1.2621 0
M  V30 1620 O 147.956 -1.11284 1.54986 0
M  V30 1621 C 145.096 -1.62023 3.04701 0
M  V30 1622 C 144.209 -1.05086 4.19024 0
M  V30 1623 C 143.344 -2.15496 4.85525 0
M  V30 1624 C 142.383 -1.5601 5.91884 0
M  V30 1625 N 141.52 -2.60241 6.52088 0
M  V30 1626 H 146.36 0.137864 2.97681 0
M  V30 1627 H 143.897 0.0798061 1.46883 0
M  V30 1628 H 145.855 -2.28887 3.48807 0
M  V30 1629 H 144.485 -2.2138 2.34927 0
M  V30 1630 H 143.537 -0.27259 3.79422 0
M  V30 1631 H 144.849 -0.575926 4.95464 0
M  V30 1632 H 144.003 -2.90186 5.32801 0
M  V30 1633 H 142.742 -2.66341 4.08551 0
M  V30 1634 H 141.747 -0.798338 5.43973 0
M  V30 1635 H 142.972 -1.05994 6.70777 0
M  V30 1636 H 140.918 -3.10304 5.77968 0
M  V30 1637 H 140.835 -2.17426 7.24059 0
M  V30 1638 H 142.103 -3.34641 7.04014 0
M  V30 1639 N 146.332 -1.57332 0.0918853 0
M  V30 1640 C 147.262 -2.16872 -0.865371 0
M  V30 1641 C 148.243 -1.10118 -1.29646 0
M  V30 1642 O 149.428 -1.38242 -1.36392 0
M  V30 1643 C 146.558 -2.74649 -2.12569 0
M  V30 1644 C 145.512 -3.86747 -1.83333 0
M  V30 1645 C 144.838 -4.31212 -3.16166 0
M  V30 1646 C 146.138 -5.10089 -1.1228 0
M  V30 1647 H 147.832 -2.97114 -0.369307 0
M  V30 1648 H 145.378 -1.42918 -0.176194 0
M  V30 1649 H 147.331 -3.14952 -2.7997 0
M  V30 1650 H 146.055 -1.91657 -2.64452 0
M  V30 1651 H 144.714 -3.46978 -1.18331 0
M  V30 1652 H 144.362 -3.45115 -3.6593 0
M  V30 1653 H 144.062 -5.06788 -2.97388 0
M  V30 1654 H 145.586 -4.74146 -3.84731 0
M  V30 1655 H 147 -5.47582 -1.69785 0
M  V30 1656 H 145.397 -5.91073 -1.03693 0
M  V30 1657 H 146.467 -4.84786 -0.105041 0
M  V30 1658 N 147.81 0.181792 -1.56548 0
M  V30 1659 C 149.087 0.926765 -1.72251 0
M  V30 1660 C 149.467 2.00831 -0.650386 0
M  V30 1661 O 148.815 2.26008 0.336521 0
M  V30 1662 C 149.025 1.50106 -3.1507 0
M  V30 1663 C 150.373 1.97805 -3.75711 0
M  V30 1664 O 151.397 1.59922 -3.18282 0
M  V30 1665 O 150.256 2.67555 -4.76525 0
M  V30 1666 H 147.35 0.435506 -0.703039 0
M  V30 1667 H 149.896 0.170443 -1.68842 0
M  V30 1668 H 148.668 0.72212 -3.84579 0
M  V30 1669 H 148.291 2.32186 -3.22763 0
M  V30 1670 N 149.288 1.51039 0.449983 0
M  V30 1671 C 150.565 1.53612 1.21089 0
M  V30 1672 C 150.945 0.292997 2.09057 0
M  V30 1673 O 150.293 -0.72259 2.16774 0
M  V30 1674 C 150.503 2.84337 2.0237 0
M  V30 1675 C 151.851 3.35807 2.59843 0
M  V30 1676 O 152.875 2.85802 2.12593 0
M  V30 1677 O 151.734 4.23029 3.45989 0
M  V30 1678 H 148.828 0.617057 0.550608 0
M  V30 1679 H 151.374 1.63344 0.460082 0
M  V30 1680 H 150.146 3.66278 1.37681 0
M  V30 1681 H 149.769 2.77708 2.84542 0
M  V30 1682 N 150.766 -0.704594 1.40972 0
M  V30 1683 C 151.696 -1.83124 1.44872 0
M  V30 1684 C 152.677 -1.67281 0.30838 0
M  V30 1685 O 153.862 -1.87149 0.518556 0
M  V30 1686 C 150.992 -3.21181 1.32136 0
M  V30 1687 C 149.946 -3.51714 2.43888 0
M  V30 1688 C 149.272 -4.89032 2.16222 0
M  V30 1689 C 150.572 -3.516 3.86232 0
M  V30 1690 H 152.266 -1.80117 2.39161 0
M  V30 1691 H 149.812 -0.865145 1.15114 0
M  V30 1692 H 151.765 -3.99702 1.33479 0
M  V30 1693 H 150.489 -3.24791 0.343279 0
M  V30 1694 H 149.148 -2.75539 2.41813 0
M  V30 1695 H 148.796 -4.89256 1.16778 0
M  V30 1696 H 148.496 -5.10426 2.911 0
M  V30 1697 H 150.02 -5.69873 2.19265 0
M  V30 1698 H 151.434 -4.2014 3.9007 0
M  V30 1699 H 149.831 -3.84523 4.60719 0
M  V30 1700 H 150.901 -2.50757 4.15029 0
M  V30 1701 N 152.244 -1.26651 -0.937939 0
M  V30 1702 C 153.207 -1.08546 -2.01867 0
M  V30 1703 C 154.207 -0.0327327 -1.60767 0
M  V30 1704 O 155.397 -0.276427 -1.71993 0
M  V30 1705 C 152.529 -0.651711 -3.34613 0
M  V30 1706 H 153.722 -2.04502 -2.1936 0
M  V30 1707 H 151.275 -1.09294 -1.11734 0
M  V30 1708 H 152.01 0.309696 -3.22818 0
M  V30 1709 H 151.795 -1.41189 -3.65798 0
M  V30 1710 H 153.285 -0.546973 -4.14002 0
M  V30 1711 N 153.722 1.14298 -1.08507 0
M  V30 1712 C 154.652 2.21542 -0.737646 0
M  V30 1713 C 155.633 1.67773 0.280377 0
M  V30 1714 O 156.818 1.93616 0.150521 0
M  V30 1715 C 153.948 3.46988 -0.147259 0
M  V30 1716 C 152.902 4.13789 -1.09374 0
M  V30 1717 C 152.228 5.33449 -0.365524 0
M  V30 1718 C 153.528 4.62208 -2.4323 0
M  V30 1719 H 155.222 2.5086 -1.6343 0
M  V30 1720 H 152.768 1.20576 -0.787243 0
M  V30 1721 H 154.721 4.21262 0.107808 0
M  V30 1722 H 153.445 3.17037 0.784538 0
M  V30 1723 H 152.104 3.4147 -1.33393 0
M  V30 1724 H 151.752 4.99759 0.57011 0
M  V30 1725 H 151.452 5.79088 -0.996512 0
M  V30 1726 H 152.976 6.10485 -0.118534 0
M  V30 1727 H 154.39 5.27952 -2.23472 0
M  V30 1728 H 152.787 5.18553 -3.02031 0
M  V30 1729 H 153.857 3.77224 -3.04681 0
M  V30 1730 N 155.201 0.870884 1.31352 0
M  V30 1731 C 156.131 0.343096 2.30966 0
M  V30 1732 C 157.112 -0.566507 1.60389 0
M  V30 1733 O 158.297 -0.483336 1.88089 0
M  V30 1734 C 155.427 -0.455487 3.443 0
M  V30 1735 C 154.381 0.361103 4.26474 0
M  V30 1736 C 153.707 -0.563221 5.31725 0
M  V30 1737 C 155.007 1.59566 4.97329 0
M  V30 1738 H 156.701 1.17548 2.75359 0
M  V30 1739 H 154.247 0.566686 1.32381 0
M  V30 1740 H 156.2 -0.83525 4.13039 0
M  V30 1741 H 154.924 -1.32139 2.98675 0
M  V30 1742 H 153.583 0.722825 3.59403 0
M  V30 1743 H 153.231 -1.42643 4.82351 0
M  V30 1744 H 152.931 -0.0207409 5.87596 0
M  V30 1745 H 154.455 -0.939808 6.03324 0
M  V30 1746 H 155.869 1.28728 5.58661 0
M  V30 1747 H 154.266 2.07728 5.63 0
M  V30 1748 H 155.336 2.34798 4.24262 0
M  V30 1749 N 156.679 -1.44442 0.630414 0
M  V30 1750 C 157.589 -2.34476 -0.0761693 0
M  V30 1751 C 158.605 -1.52576 -0.836449 0
M  V30 1752 O 159.781 -1.85307 -0.788874 0
M  V30 1753 C 156.846 -3.30545 -1.04599 0
M  V30 1754 C 155.907 -4.28352 -0.28516 0
M  V30 1755 C 155.14 -5.19831 -1.20878 0
M  V30 1756 O 155.363 -5.15223 -2.44747 0
M  V30 1757 O 154.297 -5.97892 -0.693491 0
M  V30 1758 H 158.123 -2.96345 0.664324 0
M  V30 1759 H 155.708 -1.44203 0.39061 0
M  V30 1760 H 157.59 -3.89681 -1.60396 0
M  V30 1761 H 156.265 -2.7121 -1.76711 0
M  V30 1762 H 155.172 -3.72764 0.315837 0
M  V30 1763 H 156.505 -4.90605 0.395924 0
M  V30 1764 N 158.157 -0.370918 -1.53173 0
M  V30 1765 C 159.434 0.273754 -1.93675 0
M  V30 1766 C 159.814 1.65938 -1.3049 0
M  V30 1767 O 159.162 2.23698 -0.465999 0
M  V30 1768 C 159.372 0.318602 -3.47543 0
M  V30 1769 C 160.72 0.556392 -4.20939 0
M  V30 1770 O 161.744 0.399587 -3.53952 0
M  V30 1771 O 160.603 0.862133 -5.39657 0
M  V30 1772 H 157.697 0.165448 -0.810281 0
M  V30 1773 H 160.243 -0.42409 -1.64315 0
M  V30 1774 H 159.015 -0.652687 -3.85818 0
M  V30 1775 H 158.638 1.06212 -3.83151 0
M  V30 1776 N 159.635 1.57281 -0.100228 0
M  V30 1777 C 160.565 2.17328 0.853857 0
M  V30 1778 C 161.546 1.10804 1.2906 0
M  V30 1779 O 162.731 1.38963 1.35657 0
M  V30 1780 C 159.861 2.75772 2.11109 0
M  V30 1781 C 158.815 3.87713 1.81279 0
M  V30 1782 C 158.141 4.32882 3.13874 0
M  V30 1783 C 159.441 5.10677 1.09574 0
M  V30 1784 H 161.135 2.97305 0.353545 0
M  V30 1785 H 158.681 1.43009 0.168612 0
M  V30 1786 H 160.634 3.16433 2.78296 0
M  V30 1787 H 159.358 1.93057 2.63432 0
M  V30 1788 H 158.017 3.476 1.16489 0
M  V30 1789 H 157.665 3.47051 3.64095 0
M  V30 1790 H 157.365 5.08358 2.94696 0
M  V30 1791 H 158.889 4.7618 3.82211 0
M  V30 1792 H 160.303 5.48474 1.66879 0
M  V30 1793 H 158.7 5.91615 1.00557 0
M  V30 1794 H 159.77 4.84835 0.0793299 0
M  V30 1795 N 161.113 -0.173488 1.56642 0
M  V30 1796 C 162.023 -1.23482 1.99473 0
M  V30 1797 C 163.039 -1.48567 0.905752 0
M  V30 1798 O 164.215 -1.60758 1.21321 0
M  V30 1799 C 161.28 -2.55444 2.34413 0
M  V30 1800 C 160.341 -2.38241 3.57127 0
M  V30 1801 C 159.574 -3.63909 3.90392 0
M  V30 1802 O 159.797 -4.68996 3.24653 0
M  V30 1803 O 158.731 -3.58149 4.83749 0
M  V30 1804 H 162.557 -0.901279 2.90018 0
M  V30 1805 H 160.142 -0.380185 1.44482 0
M  V30 1806 H 162.024 -3.33292 2.57865 0
M  V30 1807 H 160.699 -2.88382 1.4703 0
M  V30 1808 H 159.606 -1.58431 3.38896 0
M  V30 1809 H 160.939 -2.10228 4.45045 0
M  V30 1810 N 162.591 -1.51276 -0.441967 0
M  V30 1811 C 163.538 -1.72256 -1.53612 0
M  V30 1812 C 164.508 -0.564164 -1.56225 0
M  V30 1813 O 165.693 -0.798074 -1.73307 0
M  V30 1814 C 162.833 -1.84932 -2.91366 0
M  V30 1815 C 161.946 -3.12459 -2.98317 0
M  V30 1816 C 161.081 -3.15758 -4.27166 0
M  V30 1817 C 160.12 -4.37619 -4.27967 0
M  V30 1818 N 159.257 -4.38493 -5.48333 0
M  V30 1819 H 164.097 -2.65654 -1.35026 0
M  V30 1820 H 161.634 -1.31662 -0.656009 0
M  V30 1821 H 163.592 -1.90263 -3.7129 0
M  V30 1822 H 162.222 -0.949461 -3.08521 0
M  V30 1823 H 161.274 -3.1646 -2.11086 0
M  V30 1824 H 162.586 -4.02382 -2.94771 0
M  V30 1825 H 161.74 -3.19979 -5.15459 0
M  V30 1826 H 160.479 -2.23715 -4.33362 0
M  V30 1827 H 159.484 -4.33579 -3.38067 0
M  V30 1828 H 160.709 -5.30921 -4.23438 0
M  V30 1829 H 158.655 -3.49318 -5.55259 0
M  V30 1830 H 158.572 -5.22219 -5.46647 0
M  V30 1831 H 159.84 -4.469 -6.38671 0
M  V30 1832 N 164.069 0.697108 -1.41344 0
M  V30 1833 C 165.001 1.8224 -1.39001 0
M  V30 1834 C 166.014 1.60152 -0.292428 0
M  V30 1835 O 167.203 1.69684 -0.554048 0
M  V30 1836 C 164.303 3.18976 -1.14489 0
M  V30 1837 C 163.476 3.68105 -2.36258 0
M  V30 1838 C 162.535 4.83506 -2.07625 0
M  V30 1839 O 161.561 4.95201 -2.8065 0
M  V30 1840 N 162.763 5.70637 -1.06555 0
M  V30 1841 H 165.528 1.84742 -2.35988 0
M  V30 1842 H 163.089 0.87937 -1.35936 0
M  V30 1843 H 165.081 3.93801 -0.932885 0
M  V30 1844 H 163.651 3.11508 -0.261043 0
M  V30 1845 H 162.871 2.84204 -2.7317 0
M  V30 1846 H 164.159 3.97667 -3.17393 0
M  V30 1847 H 163.557 5.63817 -0.461125 0
M  V30 1848 H 162.114 6.45368 -0.913444 0
M  V30 1849 N 165.547 1.27147 0.931209 0
M  V30 1850 C 166.963 1.04475 1.20653 0
M  V30 1851 C 167.163 -0.223885 2.00252 0
M  V30 1852 O 166.219 -0.930332 2.34736 0
M  V30 1853 C 167.532 2.28209 1.95809 0
M  V30 1854 C 169.08 2.33211 2.08762 0
M  V30 1855 C 169.555 3.56665 2.87323 0
M  V30 1856 N 171.046 3.57201 2.94892 0
M  V30 1857 C 171.781 4.49395 3.56134 0
M  V30 1858 N 171.277 5.51889 4.18796 0
M  V30 1859 N 173.07 4.37026 3.53504 0
M  V30 1860 H 165.221 2.08612 0.399333 0
M  V30 1861 H 167.484 0.917312 0.239253 0
M  V30 1862 H 167.19 3.20538 1.44736 0
M  V30 1863 H 167.064 2.33247 2.96438 0
M  V30 1864 H 169.451 1.41391 2.59023 0
M  V30 1865 H 169.532 2.32178 1.07364 0
M  V30 1866 H 169.176 4.4882 2.37746 0
M  V30 1867 H 169.106 3.54948 3.88998 0
M  V30 1868 H 171.597 2.83074 2.50354 0
M  V30 1869 H 171.91 6.18409 4.63454 0
M  V30 1870 H 170.255 5.55735 4.17353 0
M  V30 1871 H 173.446 3.56166 3.03749 0
M  V30 1872 H 173.619 5.09067 4.00942 0
M  V30 1873 N 167.025 -1.13721 1.09112 0
M  V30 1874 C 167.988 -2.17222 0.731241 0
M  V30 1875 C 168.988 -1.59035 -0.237566 0
M  V30 1876 O 170.178 -1.74192 -0.0161704 0
M  V30 1877 C 167.31 -3.40804 0.0808443 0
M  V30 1878 H 168.503 -2.50573 1.64783 0
M  V30 1879 H 166.056 -1.28493 0.889897 0
M  V30 1880 H 166.791 -3.1304 -0.847127 0
M  V30 1881 H 166.576 -3.84306 0.777896 0
M  V30 1882 H 168.066 -4.1731 -0.155657 0
M  V30 1883 N 168.503 -0.877838 -1.30888 0
M  V30 1884 C 169.433 -0.35534 -2.3078 0
M  V30 1885 C 170.414 0.557994 -1.60687 0
M  V30 1886 O 171.599 0.473355 -1.88343 0
M  V30 1887 C 168.729 0.437221 -3.44537 0
M  V30 1888 C 167.683 -0.383715 -4.26276 0
M  V30 1889 C 167.009 0.535014 -5.32017 0
M  V30 1890 C 168.309 -1.62201 -4.96476 0
M  V30 1891 H 170.003 -1.19007 -2.74732 0
M  V30 1892 H 167.549 -0.573698 -1.32078 0
M  V30 1893 H 169.502 0.813334 -4.13477 0
M  V30 1894 H 168.226 1.30553 -2.99372 0
M  V30 1895 H 166.885 -0.741874 -3.59015 0
M  V30 1896 H 166.533 1.40083 -4.831 0
M  V30 1897 H 166.233 -0.0104211 -5.87599 0
M  V30 1898 H 167.757 0.907799 -6.03814 0
M  V30 1899 H 169.171 -1.31689 -5.5797 0
M  V30 1900 H 167.568 -2.10711 -5.61891 0
M  V30 1901 H 168.638 -2.37044 -4.23011 0
M  V30 1902 N 169.982 1.44106 -0.638065 0
M  V30 1903 C 171.231 2.01194 -0.142744 0
M  V30 1904 C 171.544 1.50835 1.24532 0
M  V30 1905 O 172.75 2.00096 1.83504 0
M  V30 1906 C 171.206 3.59319 -0.20442 0
M  V30 1907 C 170.814 4.18674 -1.59423 0
M  V30 1908 C 172.558 4.23854 0.234079 0
M  V30 1909 C 170.465 5.69045 -1.61065 0
M  V30 1910 H 169.395 0.752367 -0.0495998 0
M  V30 1911 H 172.046 1.65246 -0.797881 0
M  V30 1912 H 170.428 3.92598 0.517946 0
M  V30 1913 H 171.602 3.96921 -2.34074 0
M  V30 1914 H 169.917 3.66453 -1.97741 0
M  V30 1915 H 172.514 5.34155 0.241443 0
M  V30 1916 H 172.857 3.96688 1.2627 0
M  V30 1917 H 173.39 3.95403 -0.436025 0
M  V30 1918 H 170.129 6.00956 -2.61787 0
M  V30 1919 H 169.649 5.929 -0.90718 0
M  V30 1920 H 171.328 6.32809 -1.34766 0
M  V30 1921 N 171.46 0.379036 1.52974 0
M  V30 1922 C 172.407 -0.461048 2.26148 0
M  V30 1923 C 173.377 -1.06637 1.27349 0
M  V30 1924 O 174.562 -1.09633 1.56157 0
M  V30 1925 C 171.702 -1.58782 3.06402 0
M  V30 1926 C 170.815 -1.00636 4.20115 0
M  V30 1927 C 169.95 -2.10334 4.87784 0
M  V30 1928 C 168.989 -1.49724 5.93506 0
M  V30 1929 N 168.126 -2.5331 6.54812 0
M  V30 1930 H 172.966 0.169429 2.97518 0
M  V30 1931 H 170.503 0.0953806 1.4679 0
M  V30 1932 H 172.461 -2.25174 3.51215 0
M  V30 1933 H 171.091 -2.18876 2.37261 0
M  V30 1934 H 170.143 -0.232332 3.7969 0
M  V30 1935 H 171.455 -0.523343 4.96047 0
M  V30 1936 H 170.609 -2.84519 5.35849 0
M  V30 1937 H 169.348 -2.61992 4.11353 0
M  V30 1938 H 168.353 -0.740598 5.44789 0
M  V30 1939 H 169.578 -0.988732 6.71864 0
M  V30 1940 H 167.524 -3.04156 5.81227 0
M  V30 1941 H 167.441 -2.09734 7.26325 0
M  V30 1942 H 168.709 -3.27155 7.07524 0
M  V30 1943 N 172.938 -1.57226 0.108567 0
M  V30 1944 C 173.901 -2.13602 -0.831082 0
M  V30 1945 C 174.901 -1.06841 -1.20173 0
M  V30 1946 O 176.091 -1.32666 -1.12895 0
M  V30 1947 C 173.223 -2.66769 -2.12243 0
M  V30 1948 H 174.416 -2.97951 -0.341317 0
M  V30 1949 H 171.969 -1.55667 -0.14057 0
M  V30 1950 H 172.704 -1.85977 -2.65675 0
M  V30 1951 H 172.489 -3.44839 -1.86625 0
M  V30 1952 H 173.979 -3.10332 -2.79435 0
M  V30 1953 N 174.416 0.165178 -1.56732 0
M  V30 1954 C 175.326 1.22423 -2.00125 0
M  V30 1955 C 176.342 1.48084 -0.913619 0
M  V30 1956 O 177.518 1.60112 -1.22172 0
M  V30 1957 C 174.583 2.54197 -2.35764 0
M  V30 1958 C 173.644 2.36343 -3.58386 0
M  V30 1959 C 172.877 3.61834 -3.92316 0
M  V30 1960 O 173.1 4.67267 -3.27135 0
M  V30 1961 O 172.034 3.55579 -4.85641 0
M  V30 1962 H 175.86 0.885886 -2.90492 0
M  V30 1963 H 173.445 0.372518 -1.44681 0
M  V30 1964 H 175.327 3.3192 -2.59629 0
M  V30 1965 H 174.002 2.87598 -1.48557 0
M  V30 1966 H 172.909 1.56632 -3.39731 0
M  V30 1967 H 174.242 2.07865 -4.46154 0
M  V30 1968 N 175.894 1.51508 0.433938 0
M  V30 1969 C 176.824 1.76016 1.53429 0
M  V30 1970 C 177.805 0.610112 1.58782 0
M  V30 1971 O 178.99 0.853177 1.74455 0
M  V30 1972 C 176.12 1.88831 2.9148 0
M  V30 1973 C 175.074 3.04288 3.00987 0
M  V30 1974 C 174.4 3.0229 4.4105 0
M  V30 1975 C 175.7 4.44193 2.74754 0
M  V30 1976 H 177.394 2.68152 1.33171 0
M  V30 1977 H 174.94 1.29035 0.639214 0
M  V30 1978 H 176.893 2.04559 3.6842 0
M  V30 1979 H 175.617 0.933455 3.12976 0
M  V30 1980 H 174.276 2.8827 2.26486 0
M  V30 1981 H 173.924 2.04576 4.59519 0
M  V30 1982 H 173.624 3.79822 4.4834 0
M  V30 1983 H 175.148 3.20116 5.1996 0
M  V30 1984 H 176.562 4.60544 3.41426 0
M  V30 1985 H 174.959 5.23457 2.9345 0
M  V30 1986 H 176.029 4.53996 1.70339 0
M  V30 1987 N 177.372 -0.689602 1.41712 0
M  V30 1988 C 178.649 -1.44457 1.31877 0
M  V30 1989 C 179.029 -2.11039 -0.0508537 0
M  V30 1990 O 178.377 -2.02138 -1.06547 0
M  V30 1991 C 178.587 -2.45913 2.47645 0
M  V30 1992 C 179.935 -3.10991 2.89084 0
M  V30 1993 O 180.959 -2.56238 2.47428 0
M  V30 1994 O 179.818 -4.10174 3.61137 0
M  V30 1995 H 176.912 -0.64362 0.519309 0
M  V30 1996 H 179.458 -0.719576 1.53689 0
M  V30 1997 H 178.23 -1.95409 3.39015 0
M  V30 1998 H 177.853 -3.25913 2.27742 0
M  V30 1999 N 178.85 -1.27639 -0.924453 0
M  V30 2000 C 179.798 -1.10485 -2.04685 0
M  V30 2001 C 180.792 -0.0270421 -1.69378 0
M  V30 2002 O 181.998 -0.185008 -1.79047 0
M  V30 2003 H 178.373 -0.340546 -0.670472 0
M  V30 2004 H 180.344 -2.05566 -2.16298 0
M  V30 2005 C 179.093 -0.772229 -3.39016 0
M  V30 2006 H 178.416 -1.59351 -3.66671 0
M  V30 2007 H 179.856 -0.692097 -4.18313 0
M  V30 2008 C 178.315 0.523554 -3.32807 0
M  V30 2009 O 178.845 1.55702 -3.70297 0
M  V30 2010 N 177.051 0.520363 -2.85903 0
M  V30 2011 H 176.598 -0.32107 -2.55591 0
M  V30 2012 H 176.556 1.38742 -2.82131 0
M  V30 2013 N 180.328 1.1314 -1.09713 0
M  V30 2014 C 181.238 2.22242 -0.751367 0
M  V30 2015 C 182.254 1.72224 0.247938 0
M  V30 2016 O 183.43 2.01205 0.0885463 0
M  V30 2017 C 180.495 3.46231 -0.180274 0
M  V30 2018 C 179.556 4.11125 -1.2359 0
M  V30 2019 C 178.789 5.29195 -0.691966 0
M  V30 2020 O 179.012 5.68342 0.48414 0
M  V30 2021 O 177.946 5.84214 -1.44838 0
M  V30 2022 H 181.772 2.54197 -1.66186 0
M  V30 2023 H 179.357 1.21331 -0.871735 0
M  V30 2024 H 181.239 4.21185 0.134739 0
M  V30 2025 H 179.914 3.1597 0.703185 0
M  V30 2026 H 178.821 3.37985 -1.60366 0
M  V30 2027 H 180.154 4.45524 -2.09211 0
M  V30 2028 N 181.806 0.884767 1.30421 0
M  V30 2029 C 182.736 0.367574 2.30589 0
M  V30 2030 C 183.717 -0.549464 1.60981 0
M  V30 2031 O 184.902 -0.46336 1.88591 0
M  V30 2032 C 182.032 -0.418944 3.44764 0
M  V30 2033 C 180.986 0.406316 4.26067 0
M  V30 2034 C 180.312 -0.506793 5.32293 0
M  V30 2035 C 181.612 1.64832 4.95608 0
M  V30 2036 H 183.306 1.20462 2.74097 0
M  V30 2037 H 180.852 0.580695 1.31772 0
M  V30 2038 H 182.805 -0.791395 4.13902 0
M  V30 2039 H 181.529 -1.28964 3.0006 0
M  V30 2040 H 180.188 0.760903 3.58617 0
M  V30 2041 H 179.836 -1.37519 4.83836 0
M  V30 2042 H 179.536 0.0415828 5.87585 0
M  V30 2043 H 181.06 -0.875764 6.04287 0
M  V30 2044 H 182.474 1.34646 5.57264 0
M  V30 2045 H 180.871 2.13688 5.60765 0
M  V30 2046 H 181.941 2.39284 4.21748 0
M  V30 2047 N 183.284 -1.43765 0.645699 0
M  V30 2048 C 184.217 -2.2798 -0.100072 0
M  V30 2049 C 185.195 -1.39391 -0.837194 0
M  V30 2050 O 186.379 -1.68833 -0.838306 0
M  V30 2051 C 183.506 -3.18643 -1.14823 0
M  V30 2052 C 182.552 -4.2344 -0.510009 0
M  V30 2053 S 183.385 -5.30761 0.710824 0
M  V30 2054 C 184.541 -6.24992 -0.33699 0
M  V30 2055 H 184.774 -2.90884 0.614322 0
M  V30 2056 H 182.307 -1.48166 0.434304 0
M  V30 2057 H 184.265 -3.71424 -1.74799 0
M  V30 2058 H 182.926 -2.54932 -1.8349 0
M  V30 2059 H 182.119 -4.86948 -1.29991 0
M  V30 2060 H 181.721 -3.73997 0.0154577 0
M  V30 2061 H 184.013 -6.66691 -1.20537 0
M  V30 2062 H 184.956 -7.07612 0.262879 0
M  V30 2063 H 185.364 -5.60517 -0.669425 0
M  V30 2064 N 184.763 -0.387143 -1.52771 0
M  V30 2065 C 185.673 0.456442 -2.30117 0
M  V30 2066 C 186.689 1.07342 -1.36944 0
M  V30 2067 O 187.865 1.07971 -1.70013 0
M  V30 2068 C 184.93 1.56957 -3.09136 0
M  V30 2069 C 183.991 0.977916 -4.18014 0
M  V30 2070 C 183.224 2.038 -4.93256 0
M  V30 2071 O 183.447 3.25271 -4.68567 0
M  V30 2072 O 182.381 1.6565 -5.78657 0
M  V30 2073 H 186.207 -0.17359 -3.03203 0
M  V30 2074 H 183.792 -0.150919 -1.48636 0
M  V30 2075 H 185.674 2.21628 -3.58412 0
M  V30 2076 H 184.349 2.18461 -2.38865 0
M  V30 2077 H 183.256 0.294525 -3.72939 0
M  V30 2078 H 184.589 0.407128 -4.90513 0
M  V30 2079 N 186.241 1.57166 -0.116904 0
M  V30 2080 C 187.489 1.94737 0.540533 0
M  V30 2081 C 187.81 1.00096 1.67349 0
M  V30 2082 O 187.08 0.0568854 1.95817 0
M  V30 2083 H 185.66 0.718981 0.202669 0
M  V30 2084 H 188.322 1.94017 -0.185353 0
M  V30 2085 H 187.418 2.97719 0.936483 0
M  V30 2086 N 187.719 -0.156864 1.56817 0
M  V30 2087 C 188.666 -1.19394 1.97519 0
M  V30 2088 C 189.636 -1.4322 0.841265 0
M  V30 2089 O 190.821 -1.55719 1.10255 0
M  V30 2090 C 187.961 -2.52483 2.35258 0
M  V30 2091 C 187.074 -2.35914 3.61896 0
M  V30 2092 C 186.209 -3.61969 3.88782 0
M  V30 2093 C 185.248 -3.40395 5.08722 0
M  V30 2094 N 184.385 -4.58556 5.31668 0
M  V30 2095 H 189.225 -0.839845 2.85921 0
M  V30 2096 H 186.762 -0.403264 1.41464 0
M  V30 2097 H 188.72 -3.30071 2.55165 0
M  V30 2098 H 187.35 -2.85859 1.49949 0
M  V30 2099 H 186.402 -1.49429 3.49821 0
M  V30 2100 H 187.714 -2.15926 4.49641 0
M  V30 2101 H 186.868 -4.47989 4.09135 0
M  V30 2102 H 185.607 -3.84951 2.9944 0
M  V30 2103 H 184.612 -2.52763 4.88253 0
M  V30 2104 H 185.837 -3.18822 5.99608 0
M  V30 2105 H 183.783 -4.81729 4.45279 0
M  V30 2106 H 183.7 -4.41535 6.13664 0
M  V30 2107 H 184.968 -5.45817 5.5651 0
M  V30 2108 N 189.197 -1.51736 -0.425897 0
M  V30 2109 C 190.443 -1.65214 -1.1761 0
M  V30 2110 C 190.776 -0.372778 -1.90589 0
M  V30 2111 O 190.051 0.628139 -1.84078 0
M  V30 2112 C 190.334 -2.86312 -2.18398 0
M  V30 2113 C 190.187 -4.24254 -1.49426 0
M  V30 2114 C 191.506 -3.02925 -3.19256 0
M  V30 2115 H 188.625 -0.601263 -0.426206 0
M  V30 2116 H 191.267 -1.8425 -0.463882 0
M  V30 2117 H 189.417 -2.70213 -2.79137 0
M  V30 2118 H 191.089 -4.52046 -0.919362 0
M  V30 2119 H 189.332 -4.26426 -0.796432 0
M  V30 2120 H 190.003 -5.05001 -2.22885 0
M  V30 2121 H 192.479 -3.1781 -2.68581 0
M  V30 2122 H 191.355 -3.89199 -3.8706 0
M  V30 2123 H 191.616 -2.15497 -3.86023 0
M  V30 2124 N 190.675 0.682077 -1.42076 0
M  V30 2125 C 191.607 1.80755 -1.40926 0
M  V30 2126 C 192.62 1.59833 -0.309398 0
M  V30 2127 O 193.809 1.69087 -0.572014 0
M  V30 2128 C 190.909 3.17744 -1.17865 0
M  V30 2129 C 190.082 3.65578 -2.40149 0
M  V30 2130 C 189.141 4.81277 -2.12742 0
M  V30 2131 O 188.167 4.92197 -2.85887 0
M  V30 2132 N 189.369 5.69474 -1.12602 0
M  V30 2133 H 192.134 1.82229 -2.37935 0
M  V30 2134 H 189.695 0.864903 -1.36861 0
M  V30 2135 H 191.687 3.9279 -0.9746 0
M  V30 2136 H 190.257 3.11214 -0.294068 0
M  V30 2137 H 189.477 2.81291 -2.76169 0
M  V30 2138 H 190.765 3.94278 -3.21593 0
M  V30 2139 H 190.163 5.63297 -0.520899 0
M  V30 2140 H 188.72 6.44363 -0.981842 0
M  V30 2141 N 192.153 1.28127 0.917671 0
M  V30 2142 C 193.378 1.18007 1.70555 0
M  V30 2143 C 193.803 -0.258257 1.86319 0
M  V30 2144 O 193.161 -1.1869 1.37049 0
M  V30 2145 C 193.209 1.87948 3.07746 0
M  V30 2146 O 192.313 1.18427 3.9503 0
M  V30 2147 H 191.654 0.409867 0.522403 0
M  V30 2148 H 194.184 1.69379 1.1477 0
M  V30 2149 H 194.194 1.95701 3.58001 0
M  V30 2150 H 192.869 2.92573 2.95591 0
M  V30 2151 H 191.446 1.18811 3.53466 0
M  V30 2152 N 193.631 -1.12557 1.10312 0
M  V30 2153 C 194.879 -1.83675 0.843091 0
M  V30 2154 C 195.2 -1.84435 -0.633131 0
M  V30 2155 O 194.47 -1.30657 -1.45964 0
M  V30 2156 H 193.05 -0.680138 0.308904 0
M  V30 2157 H 195.712 -1.36301 1.39313 0
M  V30 2158 H 194.808 -2.87908 1.2048 0
M  V30 2159 N 195.109 -0.891671 -1.2995 0
M  V30 2160 C 196.042 -0.307994 -2.26112 0
M  V30 2161 C 197.02 0.575262 -1.52084 0
M  V30 2162 O 198.204 0.523864 -1.81074 0
M  V30 2163 C 195.331 0.561734 -3.34009 0
M  V30 2164 C 194.377 -0.253107 -4.25748 0
M  V30 2165 S 195.21 -1.64572 -5.09584 0
M  V30 2166 C 196.366 -0.782699 -6.20987 0
M  V30 2167 H 196.599 -1.12309 -2.75271 0
M  V30 2168 H 194.132 -0.691509 -1.38049 0
M  V30 2169 H 196.09 1.05777 -3.96638 0
M  V30 2170 H 194.751 1.35099 -2.83561 0
M  V30 2171 H 193.944 0.410908 -5.02322 0
M  V30 2172 H 193.546 -0.682004 -3.67729 0
M  V30 2173 H 195.838 -0.00257476 -6.775 0
M  V30 2174 H 196.781 -1.52026 -6.91588 0
M  V30 2175 H 197.189 -0.340638 -5.63471 0
M  V30 2176 N 196.587 1.43421 -0.653314 0
M  V30 2177 C 197.835 2.01414 -0.166415 0
M  V30 2178 C 198.156 1.51803 1.22397 0
M  V30 2179 O 197.426 0.730693 1.81763 0
M  V30 2180 H 196.006 0.744703 -0.0585319 0
M  V30 2181 H 198.668 1.75629 -0.845003 0
M  V30 2182 H 197.764 3.11734 -0.151111 0
M  V30 2183 N 198.065 0.39524 1.52563 0
M  V30 2184 C 198.995 -0.428384 2.29537 0
M  V30 2185 C 199.976 -1.05831 1.33169 0
M  V30 2186 O 201.161 -1.06995 1.62067 0
M  V30 2187 C 198.291 -1.55274 3.10656 0
M  V30 2188 C 197.245 -1.04855 4.14957 0
M  V30 2189 C 196.571 -2.26543 4.84337 0
M  V30 2190 C 197.871 -0.112324 5.22179 0
M  V30 2191 H 199.565 0.213867 2.98635 0
M  V30 2192 H 197.111 0.104298 1.43622 0
M  V30 2193 H 199.064 -2.1358 3.63265 0
M  V30 2194 H 197.788 -2.22266 2.39302 0
M  V30 2195 H 196.447 -0.487985 3.63338 0
M  V30 2196 H 196.095 -2.92059 4.09525 0
M  V30 2197 H 195.795 -1.93466 5.54837 0
M  V30 2198 H 197.319 -2.85481 5.39753 0
M  V30 2199 H 198.733 -0.603752 5.70112 0
M  V30 2200 H 197.13 0.128968 5.99961 0
M  V30 2201 H 198.2 0.837052 4.77621 0
M  V30 2202 N 199.544 -1.57102 0.125237 0
M  V30 2203 C 200.793 -1.94582 -0.531095 0
M  V30 2204 C 201.106 -1.01126 -1.6743 0
M  V30 2205 O 202.312 -1.28097 -2.39381 0
M  V30 2206 C 200.768 -3.45839 -0.996164 0
M  V30 2207 C 200.376 -4.47842 0.118926 0
M  V30 2208 C 202.12 -3.92227 -1.62352 0
M  V30 2209 C 200.027 -5.90284 -0.363192 0
M  V30 2210 H 198.957 -0.726391 -0.20217 0
M  V30 2211 H 201.608 -1.82339 0.206092 0
M  V30 2212 H 199.99 -3.53338 -1.78796 0
M  V30 2213 H 201.164 -4.52018 0.895358 0
M  V30 2214 H 199.479 -4.11243 0.653324 0
M  V30 2215 H 202.076 -4.96069 -1.99548 0
M  V30 2216 H 202.419 -3.32552 -2.50429 0
M  V30 2217 H 202.952 -3.87554 -0.897019 0
M  V30 2218 H 199.691 -6.53728 0.481679 0
M  V30 2219 H 199.211 -5.89515 -1.10597 0
M  V30 2220 H 200.89 -6.41752 -0.822377 0
M  V30 2221 N 201.022 0.148545 -1.56898 0
M  V30 2222 C 201.952 1.18524 -2.01182 0
M  V30 2223 C 202.933 1.4489 -0.891123 0
M  V30 2224 O 204.118 1.55836 -1.15882 0
M  V30 2225 C 201.248 2.51879 -2.39112 0
M  V30 2226 C 200.202 2.40038 -3.54353 0
M  V30 2227 C 199.528 3.78089 -3.78091 0
M  V30 2228 C 200.828 1.88577 -4.87069 0
M  V30 2229 H 202.522 0.817029 -2.88036 0
M  V30 2230 H 200.068 0.391575 -1.38574 0
M  V30 2231 H 202.021 3.24627 -2.68692 0
M  V30 2232 H 200.745 2.90532 -1.49193 0
M  V30 2233 H 199.404 1.69742 -3.24936 0
M  V30 2234 H 199.052 4.14175 -2.85426 0
M  V30 2235 H 198.752 3.71028 -4.55645 0
M  V30 2236 H 200.276 4.52387 -4.10095 0
M  V30 2237 H 201.69 2.51117 -5.15377 0
M  V30 2238 H 200.087 1.9241 -5.68417 0
M  V30 2239 H 201.157 0.84136 -4.77545 0
M  V30 2240 N 202.5 1.5196 0.417844 0
M  V30 2241 C 203.432 1.70895 1.52733 0
M  V30 2242 C 204.445 0.589405 1.51756 0
M  V30 2243 O 205.634 0.864312 1.56179 0
M  V30 2244 C 202.734 1.72627 2.91639 0
M  V30 2245 C 201.907 3.01479 3.16905 0
M  V30 2246 C 200.966 2.95139 4.35637 0
M  V30 2247 O 199.992 3.69059 4.3334 0
M  V30 2248 N 201.194 2.12328 5.40275 0
M  V30 2249 H 203.959 2.66612 1.36888 0
M  V30 2250 H 201.52 1.50089 0.607037 0
M  V30 2251 H 203.512 1.65928 3.6912 0
M  V30 2252 H 202.082 0.844216 3.00985 0
M  V30 2253 H 201.302 3.21895 2.27546 0
M  V30 2254 H 202.59 3.86736 3.30625 0
M  V30 2255 H 201.988 1.51685 5.44985 0
M  V30 2256 H 200.545 2.11494 6.16534 0
M  V30 2257 N 203.978 -0.674533 1.42435 0
M  V30 2258 C 205.226 -1.43175 1.42637 0
M  V30 2259 C 205.547 -1.94951 0.0438992 0
M  V30 2260 O 204.817 -1.7308 -0.917607 0
M  V30 2261 H 203.397 -0.531307 0.525092 0
M  V30 2262 H 206.059 -0.797006 1.77859 0
M  V30 2263 H 205.155 -2.28463 2.12629 0
M  V30 2264 N 205.456 -1.28612 -0.910864 0
M  V30 2265 C 206.686 -1.1862 -1.69153 0
M  V30 2266 C 207.094 0.257324 -1.87442 0
M  V30 2267 O 206.437 1.18543 -1.40332 0
M  V30 2268 C 206.499 -1.81606 -3.10257 0
M  V30 2269 C 206.163 -3.30864 -3.15243 0
M  V30 2270 C 207.16 -4.27256 -2.96223 0
M  V30 2271 C 204.845 -3.71871 -3.37664 0
M  V30 2272 C 206.839 -5.62631 -2.99541 0
M  V30 2273 C 204.526 -5.07371 -3.40614 0
M  V30 2274 C 205.524 -6.02561 -3.21573 0
M  V30 2275 O 205.212 -7.35589 -3.2429 0
M  V30 2276 H 204.944 -0.412633 -0.535453 0
M  V30 2277 H 207.498 -1.70306 -1.14827 0
M  V30 2278 H 205.728 -1.24418 -3.66138 0
M  V30 2279 H 207.417 -1.66092 -3.70362 0
M  V30 2280 H 208.183 -3.9691 -2.78725 0
M  V30 2281 H 204.062 -2.98241 -3.5153 0
M  V30 2282 H 207.606 -6.36907 -2.84597 0
M  V30 2283 H 203.503 -5.37366 -3.57642 0
M  V30 2284 H 204.271 -7.44252 -3.40633 0
M  V30 2285 N 206.934 1.1197 -1.10907 0
M  V30 2286 C 207.844 2.21433 -0.774896 0
M  V30 2287 C 208.86 1.72478 0.229657 0
M  V30 2288 O 210.036 2.01288 0.0672008 0
M  V30 2289 C 207.101 3.4602 -0.216986 0
M  V30 2290 C 206.162 4.09791 -1.27944 0
M  V30 2291 C 205.395 5.28431 -0.748055 0
M  V30 2292 O 205.618 5.68823 0.423833 0
M  V30 2293 O 204.552 5.82644 -1.51027 0
M  V30 2294 H 208.378 2.5242 -1.68873 0
M  V30 2295 H 205.963 1.20399 -0.884555 0
M  V30 2296 H 207.845 4.21304 0.090059 0
M  V30 2297 H 206.52 3.16698 0.669633 0
M  V30 2298 H 205.427 3.36265 -1.63941 0
M  V30 2299 H 206.76 4.4328 -2.13925 0
M  V30 2300 N 208.412 0.89855 1.29475 0
M  V30 2301 C 209.637 0.538561 2.00285 0
M  V30 2302 C 210.062 -0.869135 1.66816 0
M  V30 2303 O 209.42 -1.57831 0.892145 0
M  V30 2304 C 209.468 0.736475 3.52999 0
M  V30 2305 O 208.572 -0.211537 4.11857 0
M  V30 2306 H 207.913 0.210563 0.62973 0
M  V30 2307 H 210.443 1.20982 1.64998 0
M  V30 2308 H 210.453 0.640685 4.02938 0
M  V30 2309 H 209.128 1.76276 3.76696 0
M  V30 2310 H 207.705 -0.0682991 3.72837 0
M  V30 2311 N 209.89 -1.43072 0.660911 0
M  V30 2312 C 211.138 -2.01323 0.177094 0
M  V30 2313 C 211.459 -1.5245 -1.2159 0
M  V30 2314 O 210.729 -0.740322 -1.81373 0
M  V30 2315 H 209.309 -0.744382 0.0624804 0
M  V30 2316 H 211.971 -1.75179 0.854305 0
M  V30 2317 H 211.067 -3.11649 0.167641 0
M  V30 2318 N 211.368 -0.403325 -1.52352 0
M  V30 2319 C 212.593 0.176499 -2.06648 0
M  V30 2320 C 213.018 1.38577 -1.27193 0
M  V30 2321 O 212.376 1.7879 -0.300637 0
M  V30 2322 C 212.424 0.511061 -3.5696 0
M  V30 2323 O 211.528 1.60294 -3.79973 0
M  V30 2324 H 210.869 0.0167337 -0.663789 0
M  V30 2325 H 213.399 -0.574848 -1.96359 0
M  V30 2326 H 213.409 0.771362 -4.00642 0
M  V30 2327 H 212.084 -0.37296 -4.14224 0
M  V30 2328 H 210.661 1.33526 -3.48174 0
M  V30 2329 N 212.846 1.57033 -0.133567 0
M  V30 2330 C 213.756 2.19632 0.824564 0
M  V30 2331 C 214.772 1.17666 1.28182 0
M  V30 2332 O 215.948 1.50193 1.3418 0
M  V30 2333 C 213.013 2.79499 2.05137 0
M  V30 2334 C 212.074 3.96548 1.64464 0
M  V30 2335 C 211.307 4.5355 2.81297 0
M  V30 2336 O 211.53 4.09438 3.97136 0
M  V30 2337 O 210.464 5.44018 2.57542 0
M  V30 2338 H 214.29 3.01991 0.321766 0
M  V30 2339 H 211.875 1.49112 0.0927889 0
M  V30 2340 H 213.757 3.17602 2.7696 0
M  V30 2341 H 212.432 2.00162 2.54395 0
M  V30 2342 H 211.339 3.63186 0.897048 0
M  V30 2343 H 212.672 4.77364 1.19934 0
M  V30 2344 N 214.325 -0.140222 1.56975 0
M  V30 2345 C 215.235 -1.19223 2.02047 0
M  V30 2346 C 216.251 -1.46612 0.937062 0
M  V30 2347 O 217.427 -1.58148 1.24704 0
M  V30 2348 C 214.492 -2.50414 2.39778 0
M  V30 2349 C 213.553 -2.30612 3.621 0
M  V30 2350 C 212.786 -3.55547 3.98023 0
M  V30 2351 O 213.009 -4.62004 3.34528 0
M  V30 2352 O 211.943 -3.47808 4.91237 0
M  V30 2353 H 215.769 -0.839559 2.91865 0
M  V30 2354 H 213.354 -0.349453 1.45256 0
M  V30 2355 H 215.236 -3.27747 2.64877 0
M  V30 2356 H 213.911 -2.85198 1.53114 0
M  V30 2357 H 212.818 -1.51207 3.4218 0
M  V30 2358 H 214.151 -2.00741 4.49404 0
M  V30 2359 N 215.803 -1.52179 -0.40978 0
M  V30 2360 C 216.713 -1.78364 -1.52392 0
M  V30 2361 C 217.729 -0.669183 -1.60617 0
M  V30 2362 O 218.905 -0.954518 -1.77344 0
M  V30 2363 C 215.97 -1.92822 -2.88133 0
M  V30 2364 C 215.031 -3.16725 -2.898 0
M  V30 2365 C 214.264 -3.30483 -4.19067 0
M  V30 2366 O 214.487 -2.49522 -5.12928 0
M  V30 2367 O 213.421 -4.2363 -4.27576 0
M  V30 2368 H 217.247 -2.72931 -1.33201 0
M  V30 2369 H 214.832 -1.37016 -0.59557 0
M  V30 2370 H 216.714 -2.04157 -3.68643 0
M  V30 2371 H 215.389 -1.01444 -3.07393 0
M  V30 2372 H 214.296 -3.10848 -2.08146 0
M  V30 2373 H 215.629 -4.07881 -2.75489 0
M  V30 2374 N 217.281 0.66697 -1.42791 0
M  V30 2375 C 218.529 1.42417 -1.43394 0
M  V30 2376 C 218.85 1.94925 -0.0542373 0
M  V30 2377 O 218.12 1.73564 0.908415 0
M  V30 2378 H 216.7 0.528515 -0.527902 0
M  V30 2379 H 219.362 0.787562 -1.78279 0
M  V30 2380 H 218.458 2.27333 -2.13837 0
M  V30 2381 N 218.759 1.29093 0.90403 0
M  V30 2382 C 219.669 1.15727 2.0407 0
M  V30 2383 C 220.685 0.0815308 1.73809 0
M  V30 2384 O 221.861 0.292749 1.99261 0
M  V30 2385 C 218.926 0.830424 3.36608 0
M  V30 2386 C 217.987 1.98955 3.80415 0
M  V30 2387 C 217.22 1.6782 5.06628 0
M  V30 2388 O 217.443 0.597105 5.67266 0
M  V30 2389 O 216.377 2.52486 5.46383 0
M  V30 2390 H 220.203 2.11171 2.18267 0
M  V30 2391 H 217.788 1.08504 1.027 0
M  V30 2392 H 219.67 0.662521 4.16159 0
M  V30 2393 H 218.345 -0.0942678 3.23563 0
M  V30 2394 H 217.252 2.21267 3.01648 0
M  V30 2395 H 218.585 2.89529 3.98037 0
M  V30 2396 N 220.237 -1.11381 1.11499 0
M  V30 2397 C 221.486 -1.82494 0.858993 0
M  V30 2398 C 221.799 -1.85605 -0.617278 0
M  V30 2399 O 223.005 -2.52824 -0.989552 0
M  V30 2400 C 221.461 -3.27745 1.48699 0
M  V30 2401 C 221.069 -3.32961 2.99735 0
M  V30 2402 C 222.813 -4.03754 1.31085 0
M  V30 2403 C 220.72 -4.72612 3.55516 0
M  V30 2404 H 219.65 -0.683802 0.317696 0
M  V30 2405 H 222.301 -1.25331 1.34031 0
M  V30 2406 H 220.683 -3.84844 0.933339 0
M  V30 2407 H 221.857 -2.85741 3.61509 0
M  V30 2408 H 220.172 -2.70433 3.16631 0
M  V30 2409 H 222.769 -5.06891 1.70192 0
M  V30 2410 H 223.112 -4.15527 0.253496 0
M  V30 2411 H 223.645 -3.53043 1.83318 0
M  V30 2412 H 220.384 -4.66036 4.60967 0
M  V30 2413 H 219.904 -5.2024 2.98513 0
M  V30 2414 H 221.583 -5.4157 3.53992 0
M  V30 2415 N 221.715 -0.905404 -1.28997 0
M  V30 2416 C 222.665 -0.358713 -2.25161 0
M  V30 2417 C 223.649 0.524449 -1.52113 0
M  V30 2418 O 224.841 0.365534 -1.73184 0
M  V30 2419 C 221.97 0.407609 -3.40872 0
M  V30 2420 C 221.056 -0.490797 -4.21251 0
M  V30 2421 N 221.447 -1.60061 -4.79806 0
M  V30 2422 C 219.745 -0.289636 -4.45059 0
M  V30 2423 C 220.446 -2.15757 -5.40207 0
M  V30 2424 N 219.422 -1.44988 -5.23908 0
M  V30 2425 H 223.224 -1.20642 -2.67998 0
M  V30 2426 H 220.738 -0.757103 -1.43672 0
M  V30 2427 H 222.735 0.816046 -4.08835 0
M  V30 2428 H 221.395 1.25251 -2.9957 0
M  V30 2429 H 222.406 -1.98329 -4.7842 0
M  V30 2430 H 219.083 0.51643 -4.14294 0
M  V30 2431 H 220.473 -3.09069 -5.96595 0
M  V30 2432 N 223.193 1.4272 -0.668489 0
M  V30 2433 C 224.103 2.34596 0.0139753 0
M  V30 2434 C 225.119 1.5474 0.795703 0
M  V30 2435 O 226.295 1.87334 0.739466 0
M  V30 2436 C 223.36 3.33202 0.957982 0
M  V30 2437 C 222.421 4.28957 0.17149 0
M  V30 2438 C 221.654 5.22853 1.07053 0
M  V30 2439 O 221.877 5.21531 2.31001 0
M  V30 2440 O 220.811 5.9952 0.534727 0
M  V30 2441 H 224.637 2.9448 -0.742661 0
M  V30 2442 H 222.222 1.43117 -0.428705 0
M  V30 2443 H 224.104 3.93796 1.50008 0
M  V30 2444 H 222.779 2.758 1.69458 0
M  V30 2445 H 221.686 3.71796 -0.414558 0
M  V30 2446 H 223.019 4.89383 -0.52586 0
M  V30 2447 N 224.671 0.411399 1.52136 0
M  V30 2448 C 225.618 -0.412975 2.27075 0
M  V30 2449 C 226.588 -1.03912 1.29582 0
M  V30 2450 O 227.773 -1.06296 1.58448 0
M  V30 2451 C 224.913 -1.52247 3.09701 0
M  V30 2452 C 224.026 -0.917021 4.22155 0
M  V30 2453 C 223.161 -1.9994 4.92135 0
M  V30 2454 C 222.2 -1.37101 5.96548 0
M  V30 2455 N 221.337 -2.39364 6.60038 0
M  V30 2456 H 226.177 0.232499 2.97092 0
M  V30 2457 H 223.714 0.126496 1.46555 0
M  V30 2458 H 225.672 -2.17674 3.55913 0
M  V30 2459 H 224.302 -2.13794 2.41851 0
M  V30 2460 H 223.354 -0.151742 3.80097 0
M  V30 2461 H 224.666 -0.418006 4.97045 0
M  V30 2462 H 223.82 -2.73088 5.41763 0
M  V30 2463 H 222.559 -2.53208 4.16818 0
M  V30 2464 H 221.564 -0.624873 5.46237 0
M  V30 2465 H 222.789 -0.845998 6.7381 0
M  V30 2466 H 220.735 -2.91759 5.87548 0
M  V30 2467 H 220.652 -1.9428 7.3061 0
M  V30 2468 H 221.92 -3.12074 7.14304 0
M  V30 2469 N 226.149 -1.5696 0.141893 0
M  V30 2470 C 227.112 -2.15316 -0.785587 0
M  V30 2471 C 228.112 -1.09366 -1.1788 0
M  V30 2472 O 229.302 -1.35031 -1.10056 0
M  V30 2473 C 226.434 -2.71211 -2.06537 0
M  V30 2474 H 227.627 -2.98608 -0.278041 0
M  V30 2475 H 225.18 -1.5593 -0.107519 0
M  V30 2476 H 225.915 -1.91571 -2.6167 0
M  V30 2477 H 225.7 -3.4872 -1.79268 0
M  V30 2478 H 227.19 -3.16189 -2.72789 0
M  V30 2479 N 227.627 0.131896 -1.57047 0
M  V30 2480 C 229.043 0.485031 -1.52051 0
M  V30 2481 C 229.243 1.82563 -0.85281 0
M  V30 2482 O 228.299 2.48817 -0.429694 0
M  V30 2483 C 229.612 0.481409 -2.96821 0
M  V30 2484 C 231.16 0.565868 -3.07842 0
M  V30 2485 C 231.635 0.592762 -4.54148 0
M  V30 2486 N 233.126 0.654564 -4.58552 0
M  V30 2487 C 233.861 0.696608 -5.69153 0
M  V30 2488 N 233.357 0.697078 -6.89284 0
M  V30 2489 N 235.15 0.738639 -5.57226 0
M  V30 2490 H 227.301 -0.746664 -1.98843 0
M  V30 2491 H 229.564 -0.273999 -0.90754 0
M  V30 2492 H 229.27 -0.435731 -3.4899 0
M  V30 2493 H 229.144 1.3139 -3.53577 0
M  V30 2494 H 231.531 1.47343 -2.55684 0
M  V30 2495 H 231.612 -0.29406 -2.54104 0
M  V30 2496 H 231.256 -0.310701 -5.06949 0
M  V30 2497 H 231.186 1.46939 -5.05684 0
M  V30 2498 H 233.677 0.660887 -3.72076 0
M  V30 2499 H 233.99 0.731426 -7.69331 0
M  V30 2500 H 232.335 0.66471 -6.91814 0
M  V30 2501 H 235.526 0.735545 -4.62285 0
M  V30 2502 H 235.699 0.767938 -6.43434 0
M  V30 2503 N 229.106 1.52395 0.401703 0
M  V30 2504 C 230.054 1.7689 1.51039 0
M  V30 2505 C 231.048 0.636298 1.56996 0
M  V30 2506 O 232.254 0.818507 1.60314 0
M  V30 2507 H 228.629 0.559502 0.502456 0
M  V30 2508 H 230.6 2.69757 1.27568 0
M  V30 2509 C 229.349 1.94331 2.88324 0
M  V30 2510 H 228.672 2.80905 2.84486 0
M  V30 2511 H 230.112 2.15466 3.65172 0
M  V30 2512 C 228.571 0.712396 3.29282 0
M  V30 2513 O 229.101 -0.116218 4.01532 0
M  V30 2514 N 227.307 0.546154 2.85422 0
M  V30 2515 H 226.854 1.22156 2.26794 0
M  V30 2516 H 226.812 -0.276113 3.13185 0
M  V30 2517 N 230.584 -0.659388 1.43143 0
M  V30 2518 C 231.832 -1.41654 1.44147 0
M  V30 2519 C 232.153 -1.94893 0.0645739 0
M  V30 2520 O 231.423 -1.74044 -0.899198 0
M  V30 2521 H 230.003 -0.525708 0.530697 0
M  V30 2522 H 232.665 -0.778097 1.78694 0
M  V30 2523 H 231.761 -2.26195 2.1504 0
M  V30 2524 N 232.062 -1.29571 -0.897171 0
M  V30 2525 C 233.01 -1.14802 -2.02295 0
M  V30 2526 C 234.004 -0.0629637 -1.69283 0
M  V30 2527 O 235.21 -0.222945 -1.78614 0
M  V30 2528 H 231.585 -0.354692 -0.663097 0
M  V30 2529 H 233.556 -2.10108 -2.11889 0
M  V30 2530 C 232.305 -0.843966 -3.37302 0
M  V30 2531 H 231.628 -1.67093 -3.63208 0
M  V30 2532 H 233.068 -0.780672 -4.16751 0
M  V30 2533 C 231.527 0.452843 -3.33843 0
M  V30 2534 O 232.057 1.47813 -3.73516 0
M  V30 2535 N 230.263 0.459601 -2.86943 0
M  V30 2536 H 229.81 -0.375213 -2.54853 0
M  V30 2537 H 229.768 1.32726 -2.85011 0
M  V30 2538 N 233.54 1.10788 -1.12088 0
M  V30 2539 C 234.956 1.34691 -0.856186 0
M  V30 2540 C 235.156 1.94791 0.515615 0
M  V30 2541 O 234.212 2.18524 1.26505 0
M  V30 2542 C 235.525 2.27208 -1.9697 0
M  V30 2543 C 237.073 2.40755 -2.00016 0
M  V30 2544 C 237.548 3.36598 -3.1059 0
M  V30 2545 N 239.039 3.44164 -3.10008 0
M  V30 2546 C 239.774 4.18284 -3.92206 0
M  V30 2547 N 239.27 4.95322 -4.84384 0
M  V30 2548 N 241.063 4.13865 -3.80357 0
M  V30 2549 H 233.214 0.70144 -2.00483 0
M  V30 2550 H 235.477 0.371405 -0.872217 0
M  V30 2551 H 235.183 1.90251 -2.958 0
M  V30 2552 H 235.057 3.27485 -1.87172 0
M  V30 2553 H 237.444 2.76982 -1.01808 0
M  V30 2554 H 237.525 1.40305 -2.13888 0
M  V30 2555 H 237.169 3.01096 -4.09028 0
M  V30 2556 H 237.099 4.36918 -2.93956 0
M  V30 2557 H 239.59 2.8922 -2.43228 0
M  V30 2558 H 239.903 5.49267 -5.43623 0
M  V30 2559 H 238.248 4.94459 -4.884 0
M  V30 2560 H 241.439 3.52773 -3.07683 0
M  V30 2561 H 241.612 4.71372 -4.44649 0
M  V30 2562 N 235.018 0.912232 1.28515 0
M  V30 2563 C 236.243 0.559774 1.99703 0
M  V30 2564 C 236.668 -0.851393 1.67729 0
M  V30 2565 O 236.026 -1.56875 0.908834 0
M  V30 2566 C 236.074 0.773874 3.52198 0
M  V30 2567 O 235.178 -0.167842 4.12058 0
M  V30 2568 H 234.519 0.21723 0.627461 0
M  V30 2569 H 237.049 1.22725 1.63706 0
M  V30 2570 H 237.059 0.683386 4.02236 0
M  V30 2571 H 235.734 1.80261 3.74805 0
M  V30 2572 H 234.311 -0.0287509 3.72889 0
M  V30 2573 N 236.496 -1.42363 0.676048 0
M  V30 2574 C 237.721 -2.06377 0.205705 0
M  V30 2575 C 238.146 -1.50463 -1.12883 0
M  V30 2576 O 237.504 -0.623619 -1.70237 0
M  V30 2577 C 237.552 -3.60277 0.152655 0
M  V30 2578 O 236.656 -4.02935 -0.87845 0
M  V30 2579 H 235.997 -0.655588 0.105359 0
M  V30 2580 H 238.527 -1.82475 0.925412 0
M  V30 2581 H 238.537 -4.07993 -0.0230675 0
M  V30 2582 H 237.212 -4.00346 1.12675 0
M  V30 2583 H 235.789 -3.66764 -0.673668 0
M  V30 2584 N 237.974 -0.419461 -1.51915 0
M  V30 2585 C 239.202 0.152136 -2.0634 0
M  V30 2586 C 239.617 1.37988 -1.28859 0
M  V30 2587 O 238.974 1.79243 -0.343232 0
M  V30 2588 C 239.025 0.492266 -3.58133 0
M  V30 2589 O 238.746 -0.686736 -4.32684 0
M  V30 2590 C 240.247 1.11648 -4.2901 0
M  V30 2591 H 237.467 0.0158325 -0.670813 0
M  V30 2592 H 240.011 -0.593394 -1.95702 0
M  V30 2593 H 238.166 1.18769 -3.68745 0
M  V30 2594 H 238.58 -0.400341 -5.2297 0
M  V30 2595 H 240.054 1.3046 -5.36362 0
M  V30 2596 H 240.531 2.09251 -3.86148 0
M  V30 2597 H 241.137 0.460958 -4.22795 0
M  V30 2598 N 239.452 1.56882 -0.150215 0
M  V30 2599 C 240.868 1.58263 0.20617 0
M  V30 2600 C 241.068 1.16464 1.64434 0
M  V30 2601 O 240.124 0.866422 2.3717 0
M  V30 2602 C 241.437 3.00649 -0.0555025 0
M  V30 2603 C 242.985 3.12999 0.00795388 0
M  V30 2604 C 243.46 4.5744 -0.226429 0
M  V30 2605 N 244.951 4.62875 -0.173469 0
M  V30 2606 C 245.686 5.72454 -0.329288 0
M  V30 2607 N 245.182 6.90669 -0.543005 0
M  V30 2608 N 246.975 5.61467 -0.266666 0
M  V30 2609 H 239.126 1.82345 -1.08922 0
M  V30 2610 H 241.389 0.844149 -0.431413 0
M  V30 2611 H 241.095 3.3563 -1.05096 0
M  V30 2612 H 240.969 3.71337 0.66246 0
M  V30 2613 H 243.356 2.77857 0.993966 0
M  V30 2614 H 243.437 2.4479 -0.742388 0
M  V30 2615 H 243.081 4.93287 -1.20956 0
M  V30 2616 H 243.011 5.2378 0.544274 0
M  V30 2617 H 245.502 3.77898 -0.0130709 0
M  V30 2618 H 245.815 7.70045 -0.651922 0
M  V30 2619 H 244.16 6.92581 -0.579366 0
M  V30 2620 H 247.351 4.67992 -0.100441 0
M  V30 2621 H 247.524 6.46816 -0.391535 0
M  V30 2622 N 240.93 -0.123565 1.57115 0
M  V30 2623 C 242.155 -0.850398 1.89164 0
M  V30 2624 C 242.58 -1.7286 0.741688 0
M  V30 2625 O 241.938 -1.78665 -0.307958 0
M  V30 2626 C 241.986 -1.66353 3.19936 0
M  V30 2627 O 241.09 -2.77004 3.0552 0
M  V30 2628 H 240.431 -0.235454 0.620852 0
M  V30 2629 H 242.961 -0.107335 2.04318 0
M  V30 2630 H 242.971 -2.05372 3.52543 0
M  V30 2631 H 241.646 -1.01881 4.03228 0
M  V30 2632 H 240.223 -2.41221 2.84371 0
M  V30 2633 N 242.408 -1.52605 -0.393616 0
M  V30 2634 C 243.633 -1.71592 -1.16495 0
M  V30 2635 C 244.058 -0.43133 -1.83088 0
M  V30 2636 O 243.416 0.612523 -1.7064 0
M  V30 2637 C 243.464 -2.86318 -2.19213 0
M  V30 2638 O 242.568 -2.52969 -3.257 0
M  V30 2639 H 241.909 -0.570734 -0.33935 0
M  V30 2640 H 244.439 -1.99377 -0.459324 0
M  V30 2641 H 244.449 -3.1168 -2.63286 0
M  V30 2642 H 243.124 -3.79511 -1.7013 0
M  V30 2643 H 241.701 -2.38332 -2.86797 0
M  V30 2644 N 243.887 0.651787 -1.4349 0
M  V30 2645 C 245.112 1.44434 -1.48841 0
M  V30 2646 C 245.537 1.8779 -0.107955 0
M  V30 2647 O 244.895 1.57464 0.898602 0
M  V30 2648 C 244.943 2.65458 -2.44059 0
M  V30 2649 O 244.047 3.64566 -1.92784 0
M  V30 2650 H 243.388 0.433005 -0.503391 0
M  V30 2651 H 245.918 0.797451 -1.88419 0
M  V30 2652 H 245.928 3.13255 -2.6141 0
M  V30 2653 H 244.603 2.33244 -3.4434 0
M  V30 2654 H 243.18 3.23716 -1.851 0
M  V30 2655 N 245.365 1.30045 0.890287 0
M  V30 2656 C 246.593 1.21472 1.67487 0
M  V30 2657 C 247.008 -0.223241 1.87476 0
M  V30 2658 O 246.365 -1.14828 1.41847 0
M  V30 2659 C 246.416 1.93394 3.05419 0
M  V30 2660 O 246.137 3.31576 2.86337 0
M  V30 2661 C 247.638 1.91414 3.99844 0
M  V30 2662 H 244.858 0.420604 0.522813 0
M  V30 2663 H 247.402 1.7158 1.11268 0
M  V30 2664 H 245.557 1.47099 3.58386 0
M  V30 2665 H 245.971 3.67929 3.73802 0
M  V30 2666 H 247.445 2.46285 4.94012 0
M  V30 2667 H 247.922 0.891833 4.3005 0
M  V30 2668 H 248.528 2.37496 3.52811 0
M  V30 2669 N 246.843 -1.10192 1.12674 0
M  V30 2670 C 247.79 -2.16606 0.796906 0
M  V30 2671 C 248.76 -1.64394 -0.237476 0
M  V30 2672 O 249.945 -1.90474 -0.111484 0
M  V30 2673 C 247.085 -3.44116 0.26043 0
M  V30 2674 C 246.198 -4.10268 1.35293 0
M  V30 2675 C 245.333 -5.25507 0.775621 0
M  V30 2676 C 244.372 -5.83567 1.84706 0
M  V30 2677 N 243.509 -6.90179 1.28829 0
M  V30 2678 H 248.349 -2.44163 1.70846 0
M  V30 2679 H 245.886 -1.19846 0.85295 0
M  V30 2680 H 247.844 -4.17143 -0.0686814 0
M  V30 2681 H 246.474 -3.16901 -0.614274 0
M  V30 2682 H 245.526 -3.35184 1.79877 0
M  V30 2683 H 246.838 -4.4946 2.16303 0
M  V30 2684 H 245.992 -6.05398 0.397327 0
M  V30 2685 H 244.731 -4.87656 -0.0656581 0
M  V30 2686 H 243.736 -5.02344 2.23452 0
M  V30 2687 H 244.961 -6.23482 2.69161 0
M  V30 2688 H 242.907 -6.54322 0.468881 0
M  V30 2689 H 242.824 -7.28097 2.03497 0
M  V30 2690 H 244.092 -7.73844 0.937311 0
M  V30 2691 N 248.321 -0.919034 -1.28029 0
M  V30 2692 C 249.569 -0.553838 -1.94363 0
M  V30 2693 C 249.89 0.906357 -1.72656 0
M  V30 2694 O 249.16 1.64143 -1.0693 0
M  V30 2695 H 247.74 -0.201834 -0.719216 0
M  V30 2696 H 250.402 -1.16954 -1.55909 0
M  V30 2697 H 249.498 -0.752758 -3.02886 0
M  V30 2698 N 249.799 1.42003 -0.683588 0
M  V30 2699 C 250.746 2.30798 -0.0107309 0
M  V30 2700 C 251.716 1.4645 0.783688 0
M  V30 2701 O 252.901 1.75263 0.754156 0
M  V30 2702 C 250.041 3.3238 0.928306 0
M  V30 2703 C 249.154 4.31814 0.126776 0
M  V30 2704 C 248.289 5.20468 1.06236 0
M  V30 2705 C 247.328 6.11577 0.253035 0
M  V30 2706 N 246.465 6.92754 1.14179 0
M  V30 2707 H 251.305 2.8778 -0.773727 0
M  V30 2708 H 248.842 1.41745 -0.393283 0
M  V30 2709 H 250.8 3.89813 1.48666 0
M  V30 2710 H 249.43 2.76976 1.65783 0
M  V30 2711 H 248.482 3.76427 -0.54833 0
M  V30 2712 H 249.794 4.96276 -0.501192 0
M  V30 2713 H 248.948 5.82677 1.69035 0
M  V30 2714 H 247.687 4.56204 1.7242 0
M  V30 2715 H 246.692 5.48428 -0.388108 0
M  V30 2716 H 247.917 6.77892 -0.404839 0
M  V30 2717 H 245.863 6.3111 1.78987 0
M  V30 2718 H 245.78 7.53855 0.569111 0
M  V30 2719 H 247.048 7.59441 1.75697 0
M  V30 2720 N 251.277 0.427512 1.51691 0
M  V30 2721 C 252.207 -0.3796 2.30394 0
M  V30 2722 C 253.188 -1.02982 1.35384 0
M  V30 2723 O 254.373 -1.03534 1.643 0
M  V30 2724 C 251.503 -1.48649 3.1388 0
M  V30 2725 C 250.457 -0.960294 4.17088 0
M  V30 2726 C 249.783 -2.16219 4.89033 0
M  V30 2727 C 251.083 -0.00153679 5.223 0
M  V30 2728 H 252.777 0.277164 2.98114 0
M  V30 2729 H 250.323 0.134739 1.43368 0
M  V30 2730 H 252.276 -2.05826 3.67714 0
M  V30 2731 H 251 -2.1714 2.43962 0
M  V30 2732 H 249.659 -0.410806 3.64291 0
M  V30 2733 H 249.307 -2.83307 4.15628 0
M  V30 2734 H 249.007 -1.81654 5.58816 0
M  V30 2735 H 250.531 -2.73968 5.45687 0
M  V30 2736 H 251.945 -0.482687 5.71264 0
M  V30 2737 H 250.342 0.256199 5.99553 0
M  V30 2738 H 251.412 0.938174 4.75738 0
M  V30 2739 N 252.755 -1.56801 0.158532 0
M  V30 2740 C 253.665 -2.20916 -0.789518 0
M  V30 2741 C 254.681 -1.1969 -1.26294 0
M  V30 2742 O 255.857 -1.52308 -1.31773 0
M  V30 2743 C 252.922 -2.82727 -2.00665 0
M  V30 2744 C 251.983 -3.99114 -1.58134 0
M  V30 2745 C 251.216 -4.57968 -2.74045 0
M  V30 2746 O 251.439 -4.15704 -3.90572 0
M  V30 2747 O 250.373 -5.48047 -2.48855 0
M  V30 2748 H 254.199 -3.02464 -0.273681 0
M  V30 2749 H 251.784 -1.4924 -0.0690548 0
M  V30 2750 H 253.666 -3.21968 -2.71872 0
M  V30 2751 H 252.341 -2.04184 -2.51179 0
M  V30 2752 H 251.248 -3.64567 -0.839155 0
M  V30 2753 H 252.581 -4.79212 -1.12325 0
M  V30 2754 N 254.233 0.115231 -1.57178 0
M  V30 2755 C 255.163 1.1423 -2.03651 0
M  V30 2756 C 256.144 1.42967 -0.921655 0
M  V30 2757 O 257.329 1.53343 -1.19162 0
M  V30 2758 C 254.459 2.4675 -2.44401 0
M  V30 2759 C 253.413 2.32467 -3.59365 0
M  V30 2760 C 252.739 3.69984 -3.86026 0
M  V30 2761 C 254.039 1.78203 -4.90959 0
M  V30 2762 H 255.733 0.755749 -2.89705 0
M  V30 2763 H 253.279 0.362093 -1.39373 0
M  V30 2764 H 255.232 3.18854 -2.75517 0
M  V30 2765 H 253.956 2.87302 -1.55322 0
M  V30 2766 H 252.615 1.62811 -3.28463 0
M  V30 2767 H 252.263 4.08028 -2.94147 0
M  V30 2768 H 251.963 3.61279 -4.63412 0
M  V30 2769 H 253.487 4.43587 -4.19599 0
M  V30 2770 H 254.901 2.40128 -5.20587 0
M  V30 2771 H 253.298 1.8031 -5.72371 0
M  V30 2772 H 254.368 0.739876 -4.79222 0
M  V30 2773 N 255.711 1.52812 0.385517 0
M  V30 2774 C 256.957 1.68275 1.13188 0
M  V30 2775 C 257.29 0.423179 1.89533 0
M  V30 2776 O 256.565 -0.579113 1.85679 0
M  V30 2777 C 256.848 2.92001 2.1073 0
M  V30 2778 C 256.701 4.28067 1.38125 0
M  V30 2779 C 258.02 3.11283 3.11113 0
M  V30 2780 H 255.139 0.612352 0.410115 0
M  V30 2781 H 257.781 1.85415 0.414869 0
M  V30 2782 H 255.931 2.77519 2.71874 0
M  V30 2783 H 257.603 4.54324 0.799187 0
M  V30 2784 H 255.846 4.28388 0.683092 0
M  V30 2785 H 256.517 5.10733 2.09417 0
M  V30 2786 H 258.993 3.2482 2.6006 0
M  V30 2787 H 257.869 3.99325 3.76605 0
M  V30 2788 H 258.13 2.25656 3.80173 0
M  V30 2789 N 257.189 -0.644168 1.43834 0
M  V30 2790 C 258.466 -1.40188 1.36406 0
M  V30 2791 C 258.846 -2.11094 0.0163124 0
M  V30 2792 O 258.194 -2.05426 -1.00062 0
M  V30 2793 C 258.404 -2.3791 2.55343 0
M  V30 2794 C 259.752 -3.01637 2.98832 0
M  V30 2795 O 260.776 -2.48237 2.55455 0
M  V30 2796 O 259.635 -3.98477 3.74003 0
M  V30 2797 H 256.729 -0.626773 0.539523 0
M  V30 2798 H 259.275 -0.670317 1.559 0
M  V30 2799 H 258.047 -1.84525 3.4506 0
M  V30 2800 H 257.67 -3.18503 2.37995 0
M  V30 2801 N 258.668 -1.30515 -0.883378 0
M  V30 2802 C 259.616 -1.16941 -2.01066 0
M  V30 2803 C 260.61 -0.0809148 -1.69207 0
M  V30 2804 O 261.816 -0.241877 -1.78367 0
M  V30 2805 H 258.191 -0.361705 -0.659298 0
M  V30 2806 H 260.162 -2.12344 -2.09649 0
M  V30 2807 C 258.911 -0.879694 -3.36388 0
M  V30 2808 H 258.234 -1.70936 -3.61415 0
M  V30 2809 H 259.674 -0.82483 -4.159 0
M  V30 2810 C 258.133 0.417409 -3.34304 0
M  V30 2811 O 258.663 1.43843 -3.75063 0
M  V30 2812 N 256.869 0.429141 -2.87414 0
M  V30 2813 H 256.416 -0.402222 -2.5444 0
M  V30 2814 H 256.374 1.29696 -2.86403 0
M  V30 2815 N 260.146 1.09593 -1.13257 0
M  V30 2816 C 261.093 2.1618 -0.808381 0
M  V30 2817 C 262.063 1.64517 0.228754 0
M  V30 2818 O 263.248 1.9053 0.101381 0
M  V30 2819 C 260.388 3.43973 -0.278675 0
M  V30 2820 C 259.501 4.09545 -1.37466 0
M  V30 2821 C 258.636 5.25088 -0.803479 0
M  V30 2822 C 257.675 5.82579 -1.87799 0
M  V30 2823 N 256.812 6.89486 -1.32488 0
M  V30 2824 H 261.652 2.43254 -1.72138 0
M  V30 2825 H 259.189 1.19392 -0.859294 0
M  V30 2826 H 261.147 4.17174 0.0465583 0
M  V30 2827 H 259.777 3.17223 0.597459 0
M  V30 2828 H 258.829 3.34226 -1.81652 0
M  V30 2829 H 260.141 4.48307 -2.18684 0
M  V30 2830 H 259.295 6.05178 -0.429427 0
M  V30 2831 H 258.034 4.87684 0.0397956 0
M  V30 2832 H 257.039 5.01152 -2.26113 0
M  V30 2833 H 258.264 6.22045 -2.72463 0
M  V30 2834 H 256.21 6.54064 -0.503575 0
M  V30 2835 H 256.127 7.27007 -2.07355 0
M  V30 2836 H 257.395 7.73336 -0.978336 0
M  V30 2837 N 261.624 0.925811 1.2754 0
M  V30 2838 C 262.873 0.561084 1.93739 0
M  V30 2839 C 263.186 -0.901685 1.73577 0
M  V30 2840 O 264.392 -1.37511 2.34101 0
M  V30 2841 C 262.848 0.952668 3.47062 0
M  V30 2842 C 262.456 2.43599 3.75983 0
M  V30 2843 C 264.2 0.659103 4.19352 0
M  V30 2844 C 262.107 2.76707 5.22673 0
M  V30 2845 H 261.037 0.206122 0.725279 0
M  V30 2846 H 263.688 1.12637 1.44863 0
M  V30 2847 H 262.07 0.316053 3.94737 0
M  V30 2848 H 263.244 3.12035 3.39073 0
M  V30 2849 H 261.559 2.70125 3.16893 0
M  V30 2850 H 264.156 0.882985 5.27359 0
M  V30 2851 H 264.499 -0.403607 4.14339 0
M  V30 2852 H 265.032 1.25473 3.77494 0
M  V30 2853 H 261.771 3.8188 5.32774 0
M  V30 2854 H 261.291 2.12919 5.60737 0
M  V30 2855 H 262.97 2.6435 5.90532 0
M  V30 2856 N 263.102 -1.41638 0.69111 0
M  V30 2857 C 264.33 -2.05628 0.22909 0
M  V30 2858 C 264.745 -1.51992 -1.11999 0
M  V30 2859 O 264.102 -0.666322 -1.69901 0
M  V30 2860 C 264.153 -3.61084 0.173283 0
M  V30 2861 O 263.874 -4.12735 1.46907 0
M  V30 2862 C 265.375 -4.42213 -0.310266 0
M  V30 2863 H 262.595 -0.662327 0.107534 0
M  V30 2864 H 265.139 -1.81489 0.942438 0
M  V30 2865 H 263.294 -3.84278 -0.490858 0
M  V30 2866 H 263.708 -5.06743 1.35322 0
M  V30 2867 H 265.182 -5.51194 -0.298196 0
M  V30 2868 H 265.659 -4.1799 -1.34838 0
M  V30 2869 H 266.265 -4.24074 0.322716 0
M  V30 2870 N 264.58 -0.43555 -1.51462 0
M  V30 2871 C 265.808 0.130242 -2.0649 0
M  V30 2872 C 266.223 1.36614 -1.30315 0
M  V30 2873 O 265.58 1.78869 -0.362223 0
M  V30 2874 C 265.631 0.454253 -3.58635 0
M  V30 2875 O 265.352 -0.73259 -4.31931 0
M  V30 2876 C 266.853 1.07091 -4.3017 0
M  V30 2877 H 264.073 0.00871669 -0.670943 0
M  V30 2878 H 266.617 -0.614117 -1.95061 0
M  V30 2879 H 264.772 1.14851 -3.69984 0
M  V30 2880 H 265.186 -0.455787 -5.22516 0
M  V30 2881 H 266.66 1.24764 -5.37716 0
M  V30 2882 H 267.137 2.05144 -3.88346 0
M  V30 2883 H 267.743 0.416089 -4.2326 0
M  V30 2884 N 266.058 1.56714 -0.166846 0
M  V30 2885 C 267.005 2.17746 0.765193 0
M  V30 2886 C 267.975 1.11614 1.23011 0
M  V30 2887 O 269.16 1.39745 1.29908 0
M  V30 2888 C 266.3 2.81882 1.9909 0
M  V30 2889 C 265.413 4.02462 1.56997 0
M  V30 2890 C 264.548 4.54537 2.749 0
M  V30 2891 C 263.587 5.67538 2.29275 0
M  V30 2892 N 262.724 6.14142 3.40255 0
M  V30 2893 H 267.564 2.97048 0.237952 0
M  V30 2894 H 265.101 1.4672 0.105725 0
M  V30 2895 H 267.059 3.17221 2.70974 0
M  V30 2896 H 265.689 2.05191 2.49192 0
M  V30 2897 H 264.741 3.72973 0.748037 0
M  V30 2898 H 266.053 4.84273 1.19503 0
M  V30 2899 H 265.207 4.92035 3.54946 0
M  V30 2900 H 263.946 3.71774 3.1565 0
M  V30 2901 H 262.951 5.29597 1.47674 0
M  V30 2902 H 264.176 6.52099 1.89588 0
M  V30 2903 H 262.122 5.3431 3.8059 0
M  V30 2904 H 262.039 6.9093 3.06841 0
M  V30 2905 H 263.307 6.56289 4.206 0
M  V30 2906 N 267.536 -0.106894 1.57237 0
M  V30 2907 C 268.483 -1.13049 2.01217 0
M  V30 2908 C 269.453 -1.40471 0.886403 0
M  V30 2909 O 270.638 -1.52133 1.15153 0
M  V30 2910 C 267.778 -2.4487 2.43172 0
M  V30 2911 C 266.891 -2.24281 3.69218 0
M  V30 2912 C 266.026 -3.49417 4.00101 0
M  V30 2913 C 265.065 -3.24038 5.19294 0
M  V30 2914 N 264.202 -4.41409 5.45988 0
M  V30 2915 H 269.042 -0.748456 2.88448 0
M  V30 2916 H 266.579 -0.358054 1.42676 0
M  V30 2917 H 268.537 -3.21786 2.65537 0
M  V30 2918 H 267.167 -2.80944 1.58967 0
M  V30 2919 H 266.219 -1.38224 3.54398 0
M  V30 2920 H 267.531 -2.01512 4.56283 0
M  V30 2921 H 266.685 -4.34746 4.2318 0
M  V30 2922 H 265.424 -3.75229 3.11535 0
M  V30 2923 H 264.429 -2.37102 4.96047 0
M  V30 2924 H 265.654 -2.99584 6.09447 0
M  V30 2925 H 263.6 -4.67319 4.60379 0
M  V30 2926 H 263.517 -4.21788 6.274 0
M  V30 2927 H 264.785 -5.27836 5.73593 0
M  V30 2928 N 269.014 -1.53014 -0.377408 0
M  V30 2929 C 270.43 -1.42523 -0.718281 0
M  V30 2930 C 270.63 -0.55487 -1.9371 0
M  V30 2931 O 269.686 -0.0327593 -2.52479 0
M  V30 2932 C 270.999 -2.85546 -0.942539 0
M  V30 2933 C 272.547 -2.95101 -1.04329 0
M  V30 2934 C 273.022 -4.3916 -1.3001 0
M  V30 2935 N 274.513 -4.42536 -1.36806 0
M  V30 2936 C 275.248 -5.51097 -1.58364 0
M  V30 2937 N 274.744 -6.69724 -1.77317 0
M  V30 2938 N 276.537 -5.38657 -1.60638 0
M  V30 2939 H 268.688 -2.08116 0.424426 0
M  V30 2940 H 270.951 -0.939352 0.127759 0
M  V30 2941 H 270.657 -3.51499 -0.118929 0
M  V30 2942 H 270.531 -3.28493 -1.85397 0
M  V30 2943 H 272.918 -2.29309 -1.85745 0
M  V30 2944 H 272.999 -2.55566 -0.109505 0
M  V30 2945 H 272.643 -5.05521 -0.490991 0
M  V30 2946 H 272.573 -4.76258 -2.24691 0
M  V30 2947 H 275.064 -3.57039 -1.23821 0
M  V30 2948 H 275.377 -7.48233 -1.93306 0
M  V30 2949 H 273.722 -6.72732 -1.74518 0
M  V30 2950 H 276.913 -4.44948 -1.45391 0
M  V30 2951 H 277.086 -6.2333 -1.77098 0
M  V30 2952 N 270.492 0.636531 -1.44174 0
M  V30 2953 C 271.717 1.42847 -1.50364 0
M  V30 2954 C 272.142 1.87665 -0.127867 0
M  V30 2955 O 271.5 1.58408 0.88185 0
M  V30 2956 C 271.548 2.62854 -2.4686 0
M  V30 2957 O 270.652 3.62501 -1.9664 0
M  V30 2958 H 269.993 0.427642 -0.507955 0
M  V30 2959 H 272.523 0.777422 -1.89255 0
M  V30 2960 H 272.533 3.10465 -2.64718 0
M  V30 2961 H 271.208 2.29578 -3.46795 0
M  V30 2962 H 269.785 3.21735 -1.88523 0
M  V30 2963 N 271.97 1.30982 0.876444 0
M  V30 2964 C 272.917 1.18085 1.98304 0
M  V30 2965 C 273.887 0.0682263 1.6596 0
M  V30 2966 O 275.072 0.239937 1.89285 0
M  V30 2967 C 272.212 0.887475 3.33493 0
M  V30 2968 C 271.325 2.08281 3.78475 0
M  V30 2969 C 270.46 1.72678 5.0235 0
M  V30 2970 C 269.499 2.88657 5.39762 0
M  V30 2971 N 268.636 2.53292 6.54819 0
M  V30 2972 H 273.476 2.1275 2.08666 0
M  V30 2973 H 271.013 1.05839 1.02159 0
M  V30 2974 H 272.971 0.697961 4.1132 0
M  V30 2975 H 271.601 -0.022315 3.22792 0
M  V30 2976 H 270.653 2.3833 2.96484 0
M  V30 2977 H 271.965 2.95108 4.02135 0
M  V30 2978 H 271.119 1.50151 5.87826 0
M  V30 2979 H 269.858 0.830327 4.8058 0
M  V30 2980 H 268.863 3.1184 4.52809 0
M  V30 2981 H 270.088 3.79002 5.63502 0
M  V30 2982 H 268.034 1.66163 6.34607 0
M  V30 2983 H 267.951 3.3365 6.7839 0
M  V30 2984 H 269.219 2.34143 7.43503 0
M  V30 2985 N 273.449 -1.08991 1.13837 0
M  V30 2986 C 274.674 -1.85551 0.926585 0
M  V30 2987 C 275.099 -1.80782 -0.519566 0
M  V30 2988 O 274.457 -1.18855 -1.36906 0
M  V30 2989 C 274.505 -3.31266 1.42462 0
M  V30 2990 O 273.609 -4.07822 0.612789 0
M  V30 2991 H 272.95 -0.575192 0.331738 0
M  V30 2992 H 275.48 -1.37604 1.51414 0
M  V30 2993 H 275.49 -3.82112 1.43019 0
M  V30 2994 H 274.165 -3.34052 2.47754 0
M  V30 2995 H 272.742 -3.66731 0.675463 0
M  V30 2996 N 274.927 -0.932562 -1.27047 0
M  V30 2997 C 276.343 -0.633544 -1.46487 0
M  V30 2998 C 276.543 0.815746 -1.84249 0
M  V30 2999 O 275.599 1.59319 -1.95892 0
M  V30 3000 C 276.912 -1.58758 -2.55375 0
M  V30 3001 C 278.46 -1.59634 -2.69232 0
M  V30 3002 C 278.935 -2.53747 -3.81283 0
M  V30 3003 N 280.426 -2.51982 -3.88664 0
M  V30 3004 C 281.161 -3.21491 -4.74796 0
M  V30 3005 N 280.657 -4.00395 -5.65381 0
M  V30 3006 N 282.45 -3.10485 -4.68568 0
M  V30 3007 H 274.601 -1.86946 -1.00821 0
M  V30 3008 H 276.864 -0.802897 -0.504044 0
M  V30 3009 H 276.57 -2.62172 -2.34432 0
M  V30 3010 H 276.444 -1.33301 -3.52861 0
M  V30 3011 H 278.831 -0.569488 -2.89553 0
M  V30 3012 H 278.912 -1.89142 -1.72218 0
M  V30 3013 H 278.556 -3.56545 -3.61715 0
M  V30 3014 H 278.486 -2.21532 -4.77735 0
M  V30 3015 H 280.977 -1.94681 -3.23895 0
M  V30 3016 H 281.29 -4.50406 -6.27976 0
M  V30 3017 H 279.635 -4.04498 -5.65161 0
M  V30 3018 H 282.826 -2.48331 -3.96799 0
M  V30 3019 H 282.999 -3.64925 -5.35475 0
M  V30 3020 N 276.405 1.4127 -0.698611 0
M  V30 3021 C 277.63 2.06024 -0.238512 0
M  V30 3022 C 278.055 1.5224 1.10475 0
M  V30 3023 O 277.413 0.650623 1.69223 0
M  V30 3024 C 277.461 3.59988 -0.209952 0
M  V30 3025 O 276.565 4.04282 0.814235 0
M  V30 3026 H 275.906 0.653829 -0.115775 0
M  V30 3027 H 278.436 1.8098 -0.954326 0
M  V30 3028 H 278.446 4.07979 -0.0418436 0
M  V30 3029 H 277.121 3.98503 -1.1903 0
M  V30 3030 H 275.698 3.6779 0.615234 0
M  V30 3031 N 277.883 0.443576 1.51229 0
M  V30 3032 C 278.83 -0.364716 2.279 0
M  V30 3033 C 279.8 -1.0114 1.31757 0
M  V30 3034 O 280.985 -1.02912 1.60667 0
M  V30 3035 C 278.125 -1.45644 3.12861 0
M  V30 3036 C 277.238 -0.827269 4.24005 0
M  V30 3037 C 276.373 -1.89456 4.96266 0
M  V30 3038 C 275.412 -1.24416 5.99322 0
M  V30 3039 N 274.549 -2.25309 6.64966 0
M  V30 3040 H 279.389 0.295464 2.96532 0
M  V30 3041 H 276.926 0.157554 1.46254 0
M  V30 3042 H 278.884 -2.10076 3.6045 0
M  V30 3043 H 277.514 -2.08616 2.46331 0
M  V30 3044 H 276.566 -0.0710839 3.80334 0
M  V30 3045 H 277.878 -0.312481 4.9782 0
M  V30 3046 H 277.032 -2.61535 5.47434 0
M  V30 3047 H 275.771 -2.4431 4.22095 0
M  V30 3048 H 274.776 -0.508868 5.4744 0
M  V30 3049 H 276.001 -0.702882 6.75453 0
M  V30 3050 H 273.947 -2.79231 5.93604 0
M  V30 3051 H 273.864 -1.78739 7.34567 0
M  V30 3052 H 275.132 -2.96853 7.20763 0
M  V30 3053 N 279.361 -1.56624 0.175154 0
M  V30 3054 C 280.271 -2.21741 -0.766042 0
M  V30 3055 C 281.287 -1.21023 -1.25018 0
M  V30 3056 O 282.463 -1.53697 -1.3015 0
M  V30 3057 C 279.528 -2.84839 -1.97655 0
M  V30 3058 C 278.589 -4.00769 -1.53892 0
M  V30 3059 C 277.822 -4.60849 -2.69173 0
M  V30 3060 O 278.045 -4.19823 -3.86141 0
M  V30 3061 O 276.979 -5.50655 -2.43028 0
M  V30 3062 H 280.805 -3.02738 -0.241585 0
M  V30 3063 H 278.39 -1.49305 -0.053222 0
M  V30 3064 H 280.272 -3.24834 -2.68442 0
M  V30 3065 H 278.947 -2.06836 -2.48999 0
M  V30 3066 H 277.854 -3.65436 -0.80044 0
M  V30 3067 H 279.187 -4.80376 -1.07236 0
M  V30 3068 N 280.839 0.0985539 -1.57292 0
M  V30 3069 C 282.255 0.45267 -1.53046 0
M  V30 3070 C 282.455 1.80713 -0.891342 0
M  V30 3071 O 281.511 2.4785 -0.482375 0
M  V30 3072 C 282.824 0.418341 -2.97776 0
M  V30 3073 C 284.372 0.500443 -3.08973 0
M  V30 3074 C 284.847 0.496297 -4.55303 0
M  V30 3075 N 286.338 0.557151 -4.59837 0
M  V30 3076 C 287.073 0.575726 -5.70502 0
M  V30 3077 N 286.569 0.550714 -6.90608 0
M  V30 3078 N 288.362 0.620277 -5.58667 0
M  V30 3079 H 280.513 -0.788673 -1.97215 0
M  V30 3080 H 282.776 -0.293188 -0.901524 0
M  V30 3081 H 282.482 -0.509659 -3.47988 0
M  V30 3082 H 282.356 1.2386 -3.56284 0
M  V30 3083 H 284.743 1.41886 -2.58751 0
M  V30 3084 H 284.824 -0.347894 -2.53423 0
M  V30 3085 H 284.468 -0.418162 -5.06176 0
M  V30 3086 H 284.398 1.3618 -5.08687 0
M  V30 3087 H 286.889 0.581816 -3.73394 0
M  V30 3088 H 287.202 0.568075 -7.70709 0
M  V30 3089 H 285.547 0.517816 -6.93068 0
M  V30 3090 H 288.738 0.637322 -4.63741 0
M  V30 3091 H 288.911 0.631283 -6.44918 0
M  V30 3092 N 282.317 1.53212 0.369288 0
M  V30 3093 C 283.545 1.73119 1.13303 0
M  V30 3094 C 283.96 0.458455 1.83149 0
M  V30 3095 O 283.317 -0.568403 1.73423 0
M  V30 3096 C 283.368 2.89413 2.16616 0
M  V30 3097 O 283.089 4.11761 1.49614 0
M  V30 3098 C 284.59 3.21161 3.05566 0
M  V30 3099 H 281.81 0.579107 0.338934 0
M  V30 3100 H 284.354 1.99942 0.429338 0
M  V30 3101 H 282.509 2.64994 2.82589 0
M  V30 3102 H 282.923 4.76858 2.18419 0
M  V30 3103 H 284.397 4.05949 3.74045 0
M  V30 3104 H 284.874 2.36369 3.70171 0
M  V30 3105 H 285.48 3.47492 2.45213 0
M  V30 3106 N 283.795 -0.628877 1.44509 0
M  V30 3107 C 285.211 -0.947305 1.28446 0
M  V30 3108 C 285.411 -2.00275 0.221872 0
M  V30 3109 O 284.467 -2.49447 -0.391471 0
M  V30 3110 C 285.78 -1.40843 2.65676 0
M  V30 3111 C 287.328 -1.52379 2.73404 0
M  V30 3112 C 287.803 -2.01875 4.11109 0
M  V30 3113 N 289.294 -2.09142 4.13296 0
M  V30 3114 C 290.029 -2.48615 5.16699 0
M  V30 3115 N 289.525 -2.87209 6.30462 0
M  V30 3116 N 291.318 -2.48768 5.04054 0
M  V30 3117 H 283.469 0.0690977 2.12288 0
M  V30 3118 H 285.732 -0.0317164 0.947469 0
M  V30 3119 H 285.438 -0.707206 3.44516 0
M  V30 3120 H 285.312 -2.37902 2.92716 0
M  V30 3121 H 287.699 -2.21598 1.9488 0
M  V30 3122 H 287.78 -0.536898 2.50102 0
M  V30 3123 H 287.424 -1.3325 4.90109 0
M  V30 3124 H 287.354 -3.0144 4.31789 0
M  V30 3125 H 289.845 -1.81991 3.31191 0
M  V30 3126 H 290.158 -3.16149 7.05174 0
M  V30 3127 H 288.503 -2.84955 6.33897 0
M  V30 3128 H 291.694 -2.18009 4.14234 0
M  V30 3129 H 291.867 -2.79207 5.84763 0
M  V30 3130 N 285.273 -1.31445 -0.869486 0
M  V30 3131 C 286.223 -1.15731 -1.96444 0
M  V30 3132 C 287.207 -0.0681855 -1.60755 0
M  V30 3133 O 288.399 -0.293154 -1.74555 0
M  V30 3134 C 285.528 -0.867255 -3.32165 0
M  V30 3135 C 284.614 -1.99738 -3.74119 0
M  V30 3136 N 285.005 -3.24447 -3.88031 0
M  V30 3137 C 283.303 -1.89723 -4.03635 0
M  V30 3138 C 284.004 -3.98374 -4.23879 0
M  V30 3139 N 282.98 -3.26547 -4.3459 0
M  V30 3140 H 286.782 -2.10296 -2.05312 0
M  V30 3141 H 284.296 -1.23009 -1.06031 0
M  V30 3142 H 286.293 -0.735668 -4.10358 0
M  V30 3143 H 284.953 0.0701614 -3.24624 0
M  V30 3144 H 285.964 -3.59557 -3.72746 0
M  V30 3145 H 282.641 -1.03449 -4.04481 0
M  V30 3146 H 284.031 -5.05844 -4.42235 0
M  V30 3147 N 286.751 1.08385 -1.14413 0
M  V30 3148 C 288.167 1.32844 -0.884563 0
M  V30 3149 C 288.367 1.95841 0.474181 0
M  V30 3150 O 287.423 2.21158 1.21842 0
M  V30 3151 C 288.736 2.22978 -2.01745 0
M  V30 3152 C 290.284 2.36458 -2.05077 0
M  V30 3153 C 290.759 3.29934 -3.1766 0
M  V30 3154 N 292.25 3.37511 -3.17239 0
M  V30 3155 C 292.985 4.09871 -4.0099 0
M  V30 3156 N 292.481 4.84936 -4.94781 0
M  V30 3157 N 294.274 4.05704 -3.89051 0
M  V30 3158 H 286.425 0.658756 -2.01926 0
M  V30 3159 H 288.688 0.352821 -0.879899 0
M  V30 3160 H 288.394 1.83934 -2.99769 0
M  V30 3161 H 288.268 3.23441 -1.94077 0
M  V30 3162 H 290.655 2.7476 -1.0766 0
M  V30 3163 H 290.736 1.35736 -2.16816 0
M  V30 3164 H 290.38 2.92352 -4.15322 0
M  V30 3165 H 290.31 4.30584 -3.03158 0
M  V30 3166 H 292.801 2.83996 -2.49308 0
M  V30 3167 H 293.114 5.37612 -5.55151 0
M  V30 3168 H 291.459 4.83988 -4.98779 0
M  V30 3169 H 294.65 3.46167 -3.15097 0
M  V30 3170 H 294.823 4.61834 -4.54547 0
M  V30 3171 N 288.23 0.939286 1.26551 0
M  V30 3172 C 289.455 0.602008 1.98471 0
M  V30 3173 C 289.88 -0.815624 1.69497 0
M  V30 3174 O 289.238 -1.54912 0.941905 0
M  V30 3175 C 289.286 0.848407 3.50477 0
M  V30 3176 O 288.39 -0.0804009 4.12322 0
M  V30 3177 H 287.731 0.23049 0.622712 0
M  V30 3178 H 290.261 1.2617 1.61066 0
M  V30 3179 H 290.271 0.768553 4.00696 0
M  V30 3180 H 288.946 1.88171 3.70897 0
M  V30 3181 H 287.523 0.0503508 3.72866 0
M  V30 3182 N 289.708 -1.40897 0.706093 0
M  V30 3183 C 290.985 -1.94868 0.169099 0
M  V30 3184 C 291.365 -1.64485 -1.32318 0
M  V30 3185 O 290.713 -0.95744 -2.07474 0
M  V30 3186 C 290.923 -3.45798 0.471654 0
M  V30 3187 C 292.271 -4.22663 0.405127 0
M  V30 3188 O 293.295 -3.53865 0.407168 0
M  V30 3189 O 292.154 -5.45216 0.374383 0
M  V30 3190 H 289.248 -0.82673 0.0211352 0
M  V30 3191 H 291.794 -1.50558 0.782976 0
M  V30 3192 H 290.566 -3.61235 1.50416 0
M  V30 3193 H 290.189 -3.97225 -0.172666 0
M  V30 3194 N 291.186 -0.45159 -1.50991 0
M  V30 3195 C 292.133 0.352625 -2.2809 0
M  V30 3196 C 293.103 1.0044 -1.32291 0
M  V30 3197 O 294.288 1.02058 -1.6121 0
M  V30 3198 C 291.428 1.43983 -3.13629 0
M  V30 3199 C 290.541 0.804772 -4.24438 0
M  V30 3200 C 289.676 1.86822 -4.97263 0
M  V30 3201 C 288.715 1.21236 -5.99973 0
M  V30 3202 N 287.852 2.2178 -6.66152 0
M  V30 3203 H 292.692 -0.311186 -2.96371 0
M  V30 3204 H 290.229 -0.165308 -1.46168 0
M  V30 3205 H 292.187 2.08161 -3.61559 0
M  V30 3206 H 290.817 2.07307 -2.47434 0
M  V30 3207 H 289.869 0.0509129 -3.80366 0
M  V30 3208 H 291.181 0.286076 -4.97979 0
M  V30 3209 H 290.335 2.58628 -5.48813 0
M  V30 3210 H 289.074 2.42068 -4.23385 0
M  V30 3211 H 288.079 0.479828 -5.47702 0
M  V30 3212 H 289.304 0.667051 -6.75816 0
M  V30 3213 H 287.25 2.76079 -5.95077 0
M  V30 3214 H 287.167 1.74841 -7.35504 0
M  V30 3215 H 288.435 2.93026 -7.22327 0
M  V30 3216 N 292.664 1.56529 -0.183458 0
M  V30 3217 C 293.611 2.18546 0.742055 0
M  V30 3218 C 294.581 1.12912 1.2182 0
M  V30 3219 O 295.766 1.41115 1.28418 0
M  V30 3220 C 292.906 2.83977 1.96089 0
M  V30 3221 C 292.019 4.04105 1.52719 0
M  V30 3222 C 291.154 4.57427 2.70063 0
M  V30 3223 C 290.193 5.69938 2.23243 0
M  V30 3224 N 289.33 6.17717 3.33722 0
M  V30 3225 H 294.17 2.97284 0.206432 0
M  V30 3226 H 291.707 1.46823 0.0901571 0
M  V30 3227 H 293.665 3.20077 2.67594 0
M  V30 3228 H 292.295 2.07822 2.47002 0
M  V30 3229 H 291.347 3.73745 0.708436 0
M  V30 3230 H 292.659 4.85513 1.1436 0
M  V30 3231 H 291.813 4.95772 3.49708 0
M  V30 3232 H 290.552 3.75101 3.11689 0
M  V30 3233 H 289.557 5.31133 1.42048 0
M  V30 3234 H 290.782 6.54073 1.82661 0
M  V30 3235 H 288.728 5.38317 3.74902 0
M  V30 3236 H 288.645 6.94146 2.99495 0
M  V30 3237 H 289.913 6.60713 4.13616 0
M  V30 3238 N 294.142 -0.090211 1.57342 0
M  V30 3239 C 295.089 -1.10909 2.02405 0
M  V30 3240 C 296.059 -1.39523 0.901252 0
M  V30 3241 O 297.244 -1.50903 1.1676 0
M  V30 3242 C 294.384 -2.42277 2.45755 0
M  V30 3243 C 293.497 -2.20352 3.71576 0
M  V30 3244 C 292.632 -3.45154 4.03785 0
M  V30 3245 C 291.671 -3.18512 5.22701 0
M  V30 3246 N 290.808 -4.35593 5.50639 0
M  V30 3247 H 295.648 -0.71782 2.89225 0
M  V30 3248 H 293.185 -0.342901 1.43048 0
M  V30 3249 H 295.143 -3.18951 2.68935 0
M  V30 3250 H 293.773 -2.79242 1.61938 0
M  V30 3251 H 292.825 -1.34458 3.55844 0
M  V30 3252 H 294.137 -1.96661 4.58395 0
M  V30 3253 H 293.291 -4.30233 4.27767 0
M  V30 3254 H 292.03 -3.71904 3.15498 0
M  V30 3255 H 291.035 -2.31827 4.98534 0
M  V30 3256 H 292.26 -2.93103 6.12591 0
M  V30 3257 H 290.206 -4.6241 4.6531 0
M  V30 3258 H 290.123 -4.1511 6.31838 0
M  V30 3259 H 291.391 -5.21723 5.7916 0
M  V30 3260 N 295.62 -1.53406 -0.361157 0
M  V30 3261 C 296.845 -1.74024 -1.12829 0
M  V30 3262 C 297.27 -0.470069 -1.82132 0
M  V30 3263 O 296.628 0.57619 -1.719 0
M  V30 3264 C 296.676 -2.90903 -2.13091 0
M  V30 3265 O 295.78 -2.59821 -3.20261 0
M  V30 3266 H 295.121 -0.577804 -0.327168 0
M  V30 3267 H 297.651 -2.00307 -0.41693 0
M  V30 3268 H 297.661 -3.17194 -2.56616 0
M  V30 3269 H 296.336 -3.83034 -1.62042 0
M  V30 3270 H 294.913 -2.44362 -2.81677 0
M  V30 3271 N 297.098 0.621204 -1.44841 0
M  V30 3272 C 298.045 1.73267 -1.5247 0
M  V30 3273 C 299.015 1.6189 -0.371611 0
M  V30 3274 O 300.2 1.81668 -0.58321 0
M  V30 3275 C 297.34 3.11545 -1.48438 0
M  V30 3276 C 296.453 3.33827 -2.74196 0
M  V30 3277 C 295.588 4.62133 -2.61929 0
M  V30 3278 C 294.627 4.77627 -3.82804 0
M  V30 3279 N 293.764 5.97219 -3.69153 0
M  V30 3280 H 298.604 1.66082 -2.47428 0
M  V30 3281 H 296.141 0.810026 -1.22788 0
M  V30 3282 H 298.099 3.91528 -1.4409 0
M  V30 3283 H 296.729 3.1772 -0.570402 0
M  V30 3284 H 295.781 2.47715 -2.88689 0
M  V30 3285 H 297.093 3.41153 -3.6389 0
M  V30 3286 H 296.247 5.50291 -2.5547 0
M  V30 3287 H 294.986 4.57182 -1.69811 0
M  V30 3288 H 293.991 3.87896 -3.89637 0
M  V30 3289 H 295.216 4.84385 -4.75971 0
M  V30 3290 H 293.162 5.93339 -2.79794 0
M  V30 3291 H 293.079 6.05644 -4.52472 0
M  V30 3292 H 294.347 6.87912 -3.66603 0
M  V30 3293 N 298.576 1.31904 0.862503 0
M  V30 3294 C 299.824 1.21776 1.61292 0
M  V30 3295 C 300.145 -0.222413 1.93727 0
M  V30 3296 O 299.415 -1.1451 1.58947 0
M  V30 3297 H 297.995 0.447717 0.597962 0
M  V30 3298 H 300.657 1.65326 1.03215 0
M  V30 3299 H 299.753 1.7948 2.5533 0
M  V30 3300 N 300.054 -1.07777 1.14986 0
M  V30 3301 C 301.302 -1.79934 0.920235 0
M  V30 3302 C 301.623 -1.86955 -0.554336 0
M  V30 3303 O 300.893 -1.36731 -1.40291 0
M  V30 3304 H 299.473 -0.666424 0.337473 0
M  V30 3305 H 302.135 -1.3027 1.44968 0
M  V30 3306 H 301.231 -2.82539 1.32583 0
M  V30 3307 N 301.532 -0.945985 -1.26051 0
M  V30 3308 C 302.781 -0.591836 -1.92822 0
M  V30 3309 C 303.094 0.873956 -1.7499 0
M  V30 3310 O 304.3 1.33769 -2.36259 0
M  V30 3311 C 302.756 -1.00776 -3.45503 0
M  V30 3312 C 302.364 -2.4955 -3.7206 0
M  V30 3313 C 304.108 -0.725735 -4.1825 0
M  V30 3314 C 302.015 -2.84988 -5.18205 0
M  V30 3315 H 300.945 -0.217635 -0.721908 0
M  V30 3316 H 303.596 -1.14927 -1.43052 0
M  V30 3317 H 301.978 -0.378812 -3.94184 0
M  V30 3318 H 303.152 -3.1739 -3.34066 0
M  V30 3319 H 301.467 -2.75133 -3.12555 0
M  V30 3320 H 304.064 -0.966771 -5.25887 0
M  V30 3321 H 304.407 0.337639 -4.14929 0
M  V30 3322 H 304.94 -1.31463 -3.7545 0
M  V30 3323 H 301.679 -3.90307 -5.26631 0
M  V30 3324 H 301.199 -2.21813 -5.57278 0
M  V30 3325 H 302.878 -2.73712 -5.86252 0
M  V30 3326 N 303.011 1.40521 -0.713556 0
M  V30 3327 C 303.921 2.34522 -0.0606667 0
M  V30 3328 C 304.937 1.57193 0.74607 0
M  V30 3329 O 306.113 1.89591 0.679493 0
M  V30 3330 C 303.178 3.36081 0.851491 0
M  V30 3331 C 302.239 4.29286 0.0349339 0
M  V30 3332 C 301.472 5.25994 0.903649 0
M  V30 3333 O 301.695 5.28616 2.14292 0
M  V30 3334 O 300.629 6.00918 0.343723 0
M  V30 3335 H 304.455 2.91968 -0.835972 0
M  V30 3336 H 302.04 1.41681 -0.47402 0
M  V30 3337 H 303.922 3.98369 1.37404 0
M  V30 3338 H 302.597 2.81052 1.60598 0
M  V30 3339 H 301.504 3.70289 -0.532633 0
M  V30 3340 H 302.837 4.87462 -0.681287 0
M  V30 3341 N 304.489 0.459591 1.5075 0
M  V30 3342 C 305.738 -0.100971 2.01447 0
M  V30 3343 C 306.051 -1.41816 1.34713 0
M  V30 3344 O 307.257 -2.06299 1.76502 0
M  V30 3345 C 305.713 -0.23047 3.59161 0
M  V30 3346 C 305.321 1.0776 4.34847 0
M  V30 3347 C 307.065 -0.743608 4.17936 0
M  V30 3348 C 304.972 0.91253 5.84317 0
M  V30 3349 H 303.902 -0.0415102 0.752856 0
M  V30 3350 H 306.553 0.592742 1.73663 0
M  V30 3351 H 304.935 -0.987703 3.83485 0
M  V30 3352 H 306.109 1.8449 4.22256 0
M  V30 3353 H 304.424 1.52097 3.87628 0
M  V30 3354 H 307.021 -0.883959 5.27343 0
M  V30 3355 H 307.364 -1.73196 3.78562 0
M  V30 3356 H 307.897 -0.04408 3.97776 0
M  V30 3357 H 304.636 1.87391 6.28144 0
M  V30 3358 H 304.156 0.185422 5.99513 0
M  V30 3359 H 305.835 0.574547 6.44444 0
M  V30 3360 N 305.967 -1.56429 0.191757 0
M  V30 3361 C 307.213 -1.97777 -0.448554 0
M  V30 3362 C 307.546 -1.07847 -1.61501 0
M  V30 3363 O 306.821 -0.129774 -1.94067 0
M  V30 3364 C 307.104 -3.48362 -0.911906 0
M  V30 3365 C 306.957 -4.4907 0.256136 0
M  V30 3366 C 308.276 -4.02561 -1.77857 0
M  V30 3367 H 305.395 -0.719071 -0.161572 0
M  V30 3368 H 308.037 -1.87896 0.282007 0
M  V30 3369 H 306.187 -3.56914 -1.53442 0
M  V30 3370 H 307.859 -4.5256 0.893733 0
M  V30 3371 H 306.102 -4.24181 0.908436 0
M  V30 3372 H 306.773 -5.51889 -0.11053 0
M  V30 3373 H 309.249 -3.96767 -1.25359 0
M  V30 3374 H 308.125 -5.08301 -2.07174 0
M  V30 3375 H 308.386 -3.47616 -2.73158 0
M  V30 3376 N 307.445 0.0818655 -1.57387 0
M  V30 3377 C 308.392 1.09834 -2.0299 0
M  V30 3378 C 309.362 1.39043 -0.908639 0
M  V30 3379 O 310.547 1.50282 -1.17559 0
M  V30 3380 C 307.687 2.40971 -2.47037 0
M  V30 3381 C 306.8 2.18379 -3.7274 0
M  V30 3382 C 305.935 3.43008 -4.0561 0
M  V30 3383 C 304.974 3.15736 -5.24383 0
M  V30 3384 N 304.111 4.32667 -5.52941 0
M  V30 3385 H 308.951 0.702472 -2.89602 0
M  V30 3386 H 306.488 0.33531 -1.43227 0
M  V30 3387 H 308.446 3.1752 -2.70623 0
M  V30 3388 H 307.076 2.78379 -1.63417 0
M  V30 3389 H 306.128 1.32569 -3.56552 0
M  V30 3390 H 307.44 1.94227 -4.59431 0
M  V30 3391 H 306.594 4.27958 -4.30043 0
M  V30 3392 H 305.333 3.70225 -3.17466 0
M  V30 3393 H 304.338 2.2918 -4.99757 0
M  V30 3394 H 305.563 2.8985 -6.14136 0
M  V30 3395 H 303.509 4.59935 -4.67756 0
M  V30 3396 H 303.426 4.11753 -6.34031 0
M  V30 3397 H 304.694 5.18644 -5.81918 0
M  V30 3398 N 308.923 1.53595 0.353017 0
M  V30 3399 C 309.833 1.83897 1.45667 0
M  V30 3400 C 310.849 0.728334 1.58023 0
M  V30 3401 O 312.025 1.01968 1.73679 0
M  V30 3402 C 309.09 2.03383 2.80778 0
M  V30 3403 C 308.151 3.27262 2.77845 0
M  V30 3404 C 307.384 3.45809 4.06512 0
M  V30 3405 O 307.607 2.68387 5.03314 0
M  V30 3406 O 306.541 4.39207 4.11559 0
M  V30 3407 H 310.367 2.77686 1.2298 0
M  V30 3408 H 307.952 1.39132 0.544308 0
M  V30 3409 H 309.834 2.17698 3.60812 0
M  V30 3410 H 308.509 1.12783 3.03417 0
M  V30 3411 H 307.416 3.18359 1.96465 0
M  V30 3412 H 308.749 4.17824 2.60161 0
M  V30 3413 N 310.401 -0.613514 1.45168 0
M  V30 3414 C 311.348 -1.72456 1.53387 0
M  V30 3415 C 312.318 -1.6169 0.380191 0
M  V30 3416 O 313.503 -1.81356 0.592836 0
M  V30 3417 C 310.643 -3.10753 1.50088 0
M  V30 3418 C 309.756 -3.32368 2.75963 0
M  V30 3419 C 308.891 -4.60737 2.64376 0
M  V30 3420 C 307.93 -4.7559 3.85332 0
M  V30 3421 N 307.067 -5.95253 3.72315 0
M  V30 3422 H 311.907 -1.64768 2.48305 0
M  V30 3423 H 309.444 -0.803503 1.23216 0
M  V30 3424 H 311.402 -3.90758 1.46164 0
M  V30 3425 H 310.032 -3.17413 0.587243 0
M  V30 3426 H 309.084 -2.4618 2.89999 0
M  V30 3427 H 310.396 -3.39218 3.65695 0
M  V30 3428 H 309.55 -5.48928 2.58385 0
M  V30 3429 H 308.289 -4.56275 1.72233 0
M  V30 3430 H 307.294 -3.85824 3.91688 0
M  V30 3431 H 308.519 -4.81854 4.78533 0
M  V30 3432 H 306.465 -5.91847 2.82937 0
M  V30 3433 H 306.382 -6.03236 4.55677 0
M  V30 3434 H 307.65 -6.85958 3.70246 0
M  V30 3435 N 311.879 -1.3236 -0.855495 0
M  V30 3436 C 313.107 -1.2587 -1.64208 0
M  V30 3437 C 313.522 0.173457 -1.88002 0
M  V30 3438 O 312.879 1.11027 -1.44842 0
M  V30 3439 C 312.93 -2.01424 -3.00184 0
M  V30 3440 O 312.651 -3.39051 -2.77445 0
M  V30 3441 C 314.152 -2.01948 -3.94629 0
M  V30 3442 H 311.372 -0.434318 -0.511477 0
M  V30 3443 H 313.916 -1.74469 -1.0668 0
M  V30 3444 H 312.071 -1.56549 -3.5436 0
M  V30 3445 H 312.485 -3.77711 -3.63916 0
M  V30 3446 H 313.959 -2.59297 -4.87308 0
M  V30 3447 H 314.436 -1.00554 -4.27534 0
M  V30 3448 H 315.042 -2.46767 -3.4639 0
M  V30 3449 N 313.357 1.07166 -1.15556 0
M  V30 3450 C 314.585 1.83514 -0.955519 0
M  V30 3451 C 315 1.82163 0.49621 0
M  V30 3452 O 314.357 1.23441 1.34419 0
M  V30 3453 C 314.408 3.30515 -1.46432 0
M  V30 3454 O 314.129 3.31937 -2.85918 0
M  V30 3455 C 315.63 4.23625 -1.30603 0
M  V30 3456 H 312.85 0.578926 -0.339244 0
M  V30 3457 H 315.394 1.35265 -1.53374 0
M  V30 3458 H 313.549 3.76106 -0.928584 0
M  V30 3459 H 313.963 4.23794 -3.09029 0
M  V30 3460 H 315.437 5.24831 -1.71047 0
M  V30 3461 H 315.914 4.38485 -0.250441 0
M  V30 3462 H 316.52 3.83871 -1.83094 0
M  V30 3463 N 314.835 0.952656 1.25548 0
M  V30 3464 C 316.251 0.656769 1.4546 0
M  V30 3465 C 316.451 -0.78633 1.85524 0
M  V30 3466 O 315.507 -1.56183 1.98402 0
M  V30 3467 C 316.82 1.62801 2.52817 0
M  V30 3468 C 318.368 1.63897 2.66659 0
M  V30 3469 C 318.843 2.5978 3.77198 0
M  V30 3470 N 320.334 2.58133 3.84606 0
M  V30 3471 C 321.069 3.29003 4.69621 0
M  V30 3472 N 320.565 4.09339 5.58939 0
M  V30 3473 N 322.358 3.179 4.63569 0
M  V30 3474 H 314.509 1.88526 0.978344 0
M  V30 3475 H 316.772 0.810815 0.491206 0
M  V30 3476 H 316.478 2.65869 2.30232 0
M  V30 3477 H 316.352 1.38898 3.50695 0
M  V30 3478 H 318.739 0.615481 2.8861 0
M  V30 3479 H 318.82 1.91858 1.69187 0
M  V30 3480 H 318.464 3.62254 3.55997 0
M  V30 3481 H 318.394 2.29105 4.7415 0
M  V30 3482 H 320.885 1.99809 3.20757 0
M  V30 3483 H 321.198 4.6034 6.20731 0
M  V30 3484 H 319.543 4.13438 5.58654 0
M  V30 3485 H 322.734 2.54612 3.92798 0
M  V30 3486 H 322.907 3.73398 5.29602 0
M  V30 3487 N 316.313 -1.40141 0.720998 0
M  V30 3488 C 317.538 -2.05618 0.271258 0
M  V30 3489 C 317.963 -1.53978 -1.08039 0
M  V30 3490 O 317.321 -0.677463 -1.68167 0
M  V30 3491 C 317.369 -3.59609 0.267197 0
M  V30 3492 O 316.473 -4.05526 -0.749814 0
M  V30 3493 H 315.814 -0.651904 0.126162 0
M  V30 3494 H 318.344 -1.79439 0.982997 0
M  V30 3495 H 318.354 -4.0786 0.106744 0
M  V30 3496 H 317.029 -3.96559 1.25354 0
M  V30 3497 H 315.606 -3.68722 -0.556644 0
M  V30 3498 N 317.792 -0.46758 -1.50504 0
M  V30 3499 C 318.739 0.328413 -2.28452 0
M  V30 3500 C 319.709 0.990313 -1.33349 0
M  V30 3501 O 320.894 1.00343 -1.62284 0
M  V30 3502 C 318.034 1.40648 -3.15138 0
M  V30 3503 C 317.147 0.759709 -4.25267 0
M  V30 3504 C 316.282 1.81537 -4.99217 0
M  V30 3505 C 315.321 1.14866 -6.01226 0
M  V30 3506 N 314.458 2.14702 -6.68467 0
M  V30 3507 H 319.298 -0.342603 -2.96024 0
M  V30 3508 H 316.835 -0.180801 -1.45985 0
M  V30 3509 H 318.793 2.04315 -3.63746 0
M  V30 3510 H 317.423 2.04671 -2.49619 0
M  V30 3511 H 316.475 0.0105671 -3.80399 0
M  V30 3512 H 317.787 0.233243 -4.98254 0
M  V30 3513 H 316.941 2.52793 -5.51526 0
M  V30 3514 H 315.68 2.37564 -4.25928 0
M  V30 3515 H 314.685 0.42171 -5.4818 0
M  V30 3516 H 315.91 0.595334 -6.76485 0
M  V30 3517 H 313.856 2.69752 -5.97972 0
M  V30 3518 H 313.773 1.6703 -7.37317 0
M  V30 3519 H 315.041 2.85348 -7.25394 0
M  V30 3520 N 319.27 1.56325 -0.20005 0
M  V30 3521 C 320.495 2.02548 0.44597 0
M  V30 3522 C 320.92 1.07922 1.5406 0
M  V30 3523 O 320.278 0.0635775 1.81188 0
M  V30 3524 C 320.326 3.47175 0.974761 0
M  V30 3525 O 319.43 3.55671 2.08739 0
M  V30 3526 H 318.771 0.655862 0.103638 0
M  V30 3527 H 321.301 2.02201 -0.312381 0
M  V30 3528 H 321.311 3.87067 1.2901 0
M  V30 3529 H 319.986 4.15538 0.17347 0
M  V30 3530 H 318.563 3.27657 1.78032 0
M  V30 3531 N 320.748 -0.0735177 1.57428 0
M  V30 3532 C 321.695 -1.08756 2.0357 0
M  V30 3533 C 322.665 -1.38559 0.916 0
M  V30 3534 O 323.85 -1.49656 1.18354 0
M  V30 3535 C 320.99 -2.39657 2.48311 0
M  V30 3536 C 320.103 -2.16399 3.73892 0
M  V30 3537 C 319.238 -3.40852 4.07423 0
M  V30 3538 C 318.277 -3.1295 5.2605 0
M  V30 3539 N 317.414 -4.29729 5.55228 0
M  V30 3540 H 322.254 -0.687104 2.8997 0
M  V30 3541 H 319.791 -0.327709 1.43403 0
M  V30 3542 H 321.749 -3.16081 2.72303 0
M  V30 3543 H 320.379 -2.77508 1.64891 0
M  V30 3544 H 319.431 -1.30676 3.57251 0
M  V30 3545 H 320.743 -1.91788 4.60455 0
M  V30 3546 H 319.897 -4.25671 4.32306 0
M  V30 3547 H 318.636 -3.68537 3.19425 0
M  V30 3548 H 317.641 -2.26526 5.00965 0
M  V30 3549 H 318.866 -2.86589 6.15665 0
M  V30 3550 H 316.812 -4.57448 4.70188 0
M  V30 3551 H 316.729 -4.08385 6.36206 0
M  V30 3552 H 317.997 -5.1555 5.84661 0
M  V30 3553 N 322.226 -1.5378 -0.344866 0
M  V30 3554 C 323.136 -1.84667 -1.4469 0
M  V30 3555 C 324.152 -0.736704 -1.57635 0
M  V30 3556 O 325.328 -1.02888 -1.73136 0
M  V30 3557 C 322.393 -2.04869 -2.79696 0
M  V30 3558 C 321.454 -3.28731 -2.76106 0
M  V30 3559 C 320.687 -3.4796 -4.04673 0
M  V30 3560 O 320.91 -2.71052 -5.01883 0
M  V30 3561 O 319.844 -4.41383 -4.09224 0
M  V30 3562 H 323.67 -2.78334 -1.21506 0
M  V30 3563 H 321.255 -1.39418 -0.536921 0
M  V30 3564 H 323.137 -2.19609 -3.59652 0
M  V30 3565 H 321.812 -1.14391 -3.02814 0
M  V30 3566 H 320.719 -3.19396 -1.94774 0
M  V30 3567 H 322.052 -4.19198 -2.57941 0
M  V30 3568 N 323.704 0.605807 -1.45491 0
M  V30 3569 C 325.12 0.926751 -1.29936 0
M  V30 3570 C 325.32 1.99896 -0.253706 0
M  V30 3571 O 324.376 2.50038 0.351737 0
M  V30 3572 C 325.689 1.36599 -2.67883 0
M  V30 3573 C 327.237 1.4801 -2.75793 0
M  V30 3574 C 327.712 1.95309 -4.14268 0
M  V30 3575 N 329.203 2.0254 -4.16571 0
M  V30 3576 C 329.938 2.40363 -5.20589 0
M  V30 3577 N 329.434 2.77143 -6.34952 0
M  V30 3578 N 331.227 2.40718 -5.07948 0
M  V30 3579 H 323.378 -0.102862 -2.12151 0
M  V30 3580 H 325.641 0.016639 -0.947854 0
M  V30 3581 H 325.347 0.652306 -3.45598 0
M  V30 3582 H 325.221 2.33215 -2.96463 0
M  V30 3583 H 327.608 2.1847 -1.98381 0
M  V30 3584 H 327.689 0.497041 -2.50925 0
M  V30 3585 H 327.333 1.25436 -4.92167 0
M  V30 3586 H 327.263 2.94532 -4.3653 0
M  V30 3587 H 329.754 1.76699 -3.34045 0
M  V30 3588 H 330.067 3.0489 -7.10114 0
M  V30 3589 H 328.412 2.74834 -6.3835 0
M  V30 3590 H 331.603 2.11392 -4.1765 0
M  V30 3591 H 331.776 2.69869 -5.89131 0
M  V30 3592 N 325.182 1.32811 0.848464 0
M  V30 3593 C 326.129 1.22265 1.95755 0
M  V30 3594 C 327.099 0.103413 1.65778 0
M  V30 3595 O 328.284 0.280033 1.88734 0
M  V30 3596 C 325.424 0.958014 3.31536 0
M  V30 3597 C 324.537 2.16262 3.73971 0
M  V30 3598 C 323.672 1.83295 4.98575 0
M  V30 3599 C 322.711 3.00041 5.33518 0
M  V30 3600 N 321.848 2.67125 6.49299 0
M  V30 3601 H 326.688 2.17128 2.04107 0
M  V30 3602 H 324.225 1.07982 0.998913 0
M  V30 3603 H 326.183 0.785052 4.09747 0
M  V30 3604 H 324.813 0.046159 3.22767 0
M  V30 3605 H 323.865 2.44565 2.91362 0
M  V30 3606 H 325.177 3.03572 3.95785 0
M  V30 3607 H 324.331 1.62586 5.84509 0
M  V30 3608 H 323.07 0.932078 4.7871 0
M  V30 3609 H 322.075 3.21374 4.46093 0
M  V30 3610 H 323.3 3.90869 5.55336 0
M  V30 3611 H 321.246 1.79586 6.3094 0
M  V30 3612 H 321.163 3.47965 6.71161 0
M  V30 3613 H 322.431 2.49861 7.3837 0
M  V30 3614 N 326.66 -1.06551 1.16123 0
M  V30 3615 C 327.607 -2.13961 0.865414 0
M  V30 3616 C 328.577 -1.65066 -0.185055 0
M  V30 3617 O 329.762 -1.90732 -0.05083 0
M  V30 3618 C 326.902 -3.43113 0.369776 0
M  V30 3619 C 326.015 -4.05756 1.48276 0
M  V30 3620 C 325.15 -5.22773 0.942414 0
M  V30 3621 C 324.189 -5.77395 2.03179 0
M  V30 3622 N 323.326 -6.85731 1.50721 0
M  V30 3623 H 328.166 -2.38605 1.78527 0
M  V30 3624 H 325.703 -1.17072 0.890646 0
M  V30 3625 H 327.661 -4.17151 0.0640643 0
M  V30 3626 H 326.291 -3.18695 -0.513143 0
M  V30 3627 H 325.343 -3.29292 1.9045 0
M  V30 3628 H 326.655 -4.42351 2.30493 0
M  V30 3629 H 325.809 -6.03827 0.589729 0
M  V30 3630 H 324.548 -4.87618 0.0895191 0
M  V30 3631 H 323.553 -4.94981 2.3932 0
M  V30 3632 H 324.778 -6.14603 2.8886 0
M  V30 3633 H 322.724 -6.52499 0.676811 0
M  V30 3634 H 322.641 -7.21254 2.26557 0
M  V30 3635 H 323.909 -7.7047 1.18303 0
M  V30 3636 N 328.138 -0.959301 -1.25041 0
M  V30 3637 C 329.363 -0.633507 -1.97488 0
M  V30 3638 C 329.788 0.788555 -1.70773 0
M  V30 3639 O 329.146 1.53394 -0.966431 0
M  V30 3640 C 329.194 -0.904057 -3.49083 0
M  V30 3641 O 328.298 0.0147939 -4.12397 0
M  V30 3642 H 327.639 -0.240368 -0.618966 0
M  V30 3643 H 330.169 -1.28717 -1.59038 0
M  V30 3644 H 330.179 -0.832203 -3.99423 0
M  V30 3645 H 328.854 -1.94048 -3.67856 0
M  V30 3646 H 327.431 -0.109664 -3.72739 0
M  V30 3647 N 329.616 1.39756 -0.72842 0
M  V30 3648 C 330.563 2.30647 -0.0841519 0
M  V30 3649 C 331.533 1.48869 0.7367 0
M  V30 3650 O 332.718 1.77574 0.698015 0
M  V30 3651 C 329.858 3.35165 0.822091 0
M  V30 3652 C 328.971 4.31999 -0.0106663 0
M  V30 3653 C 328.106 5.23585 0.896241 0
M  V30 3654 C 327.145 6.12072 0.0583381 0
M  V30 3655 N 326.282 6.96035 0.920818 0
M  V30 3656 H 331.122 2.85173 -0.864891 0
M  V30 3657 H 328.659 1.40422 -0.438179 0
M  V30 3658 H 330.617 3.94345 1.36189 0
M  V30 3659 H 329.247 2.8211 1.56888 0
M  V30 3660 H 328.299 3.74492 -0.66781 0
M  V30 3661 H 329.611 4.9443 -0.658825 0
M  V30 3662 H 328.765 5.87759 1.50412 0
M  V30 3663 H 327.504 4.61459 1.57819 0
M  V30 3664 H 326.509 5.46916 -0.562389 0
M  V30 3665 H 327.734 6.76261 -0.6203 0
M  V30 3666 H 325.68 6.36485 1.58818 0
M  V30 3667 H 325.597 7.55284 0.32899 0
M  V30 3668 H 326.865 7.64646 1.51447 0
M  V30 3669 N 331.094 0.475555 1.50254 0
M  V30 3670 C 332.319 -0.0777042 2.07254 0
M  V30 3671 C 332.744 -1.3235 1.3366 0
M  V30 3672 O 332.102 -1.77152 0.385597 0
M  V30 3673 C 332.15 -0.340169 3.58992 0
M  V30 3674 O 331.254 -1.41982 3.87188 0
M  V30 3675 H 330.595 0.0149556 0.663832 0
M  V30 3676 H 333.125 0.667878 1.93392 0
M  V30 3677 H 333.135 -0.579332 4.03866 0
M  V30 3678 H 331.81 0.570167 4.11973 0
M  V30 3679 H 330.387 -1.16762 3.54148 0
M  V30 3680 N 332.573 -1.56217 0.208337 0
M  V30 3681 C 333.984 -1.84243 -0.301904 0
M  V30 3682 C 334.335 -1.12939 -1.60434 0
M  V30 3683 O 333.46 -0.39461 -2.12772 0
M  V30 3684 C 334.055 -3.34231 -0.554543 0
M  V30 3685 C 332.614 -3.62621 -1.00912 0
M  V30 3686 C 331.761 -2.77224 -0.064933 0
M  V30 3687 H 334.712 -1.52712 0.431833 0
M  V30 3688 H 334.733 -3.5372 -1.40223 0
M  V30 3689 H 334.245 -3.86099 0.393561 0
M  V30 3690 H 332.346 -3.16197 -1.97104 0
M  V30 3691 H 332.459 -4.7071 -0.892674 0
M  V30 3692 H 330.823 -2.48256 -0.56929 0
M  V30 3693 H 331.606 -3.31887 0.877851 0
M  V30 3694 N 334.051 0.0651679 -1.57465 0
M  V30 3695 C 335.276 0.779605 -1.9219 0
M  V30 3696 C 335.701 1.69988 -0.805333 0
M  V30 3697 O 335.059 1.79685 0.241435 0
M  V30 3698 C 335.107 1.54364 -3.2589 0
M  V30 3699 O 334.211 2.65474 -3.1559 0
M  V30 3700 H 333.552 0.212249 -0.629163 0
M  V30 3701 H 336.082 0.0314294 -2.04576 0
M  V30 3702 H 336.092 1.92146 -3.59922 0
M  V30 3703 H 334.767 0.868457 -4.06732 0
M  V30 3704 H 333.344 2.30501 -2.93128 0
M  V30 3705 N 335.529 1.53961 0.336706 0
M  V30 3706 C 336.476 1.82428 1.41381 0
M  V30 3707 C 337.446 0.670444 1.51968 0
M  V30 3708 O 338.631 0.915565 1.67398 0
M  V30 3709 C 335.771 2.04564 2.77934 0
M  V30 3710 C 334.884 3.32267 2.76084 0
M  V30 3711 C 334.019 3.44434 4.04399 0
M  V30 3712 C 333.058 4.66061 3.96804 0
M  V30 3713 N 332.195 4.75224 5.16823 0
M  V30 3714 H 337.035 2.74324 1.16405 0
M  V30 3715 H 334.572 1.35869 0.563752 0
M  V30 3716 H 336.53 2.15388 3.57301 0
M  V30 3717 H 335.16 1.15974 3.01247 0
M  V30 3718 H 334.212 3.3025 1.88784 0
M  V30 3719 H 335.524 4.21733 2.66351 0
M  V30 3720 H 334.678 3.54728 4.92192 0
M  V30 3721 H 333.417 2.53037 4.16921 0
M  V30 3722 H 332.422 4.55838 3.07396 0
M  V30 3723 H 333.647 5.58829 3.85858 0
M  V30 3724 H 331.593 3.86739 5.29876 0
M  V30 3725 H 331.51 5.58636 5.09374 0
M  V30 3726 H 332.778 4.89835 6.06367 0
M  V30 3727 N 337.007 -0.598083 1.45811 0
M  V30 3728 C 338.423 -0.919847 1.30426 0
M  V30 3729 C 338.623 -1.99759 0.264303 0
M  V30 3730 O 337.679 -2.50221 -0.338472 0
M  V30 3731 C 338.992 -1.35176 2.68603 0
M  V30 3732 C 340.54 -1.46546 2.76574 0
M  V30 3733 C 341.015 -1.9311 4.15298 0
M  V30 3734 N 342.506 -2.00328 4.1764 0
M  V30 3735 C 343.241 -2.37599 5.21856 0
M  V30 3736 N 342.737 -2.73771 6.36413 0
M  V30 3737 N 344.53 -2.38021 5.09218 0
M  V30 3738 H 336.681 0.114111 2.12093 0
M  V30 3739 H 338.944 -0.0116121 0.947929 0
M  V30 3740 H 338.65 -0.633969 3.45939 0
M  V30 3741 H 338.524 -2.3164 2.97696 0
M  V30 3742 H 340.911 -2.17415 1.99537 0
M  V30 3743 H 340.992 -0.483727 2.51185 0
M  V30 3744 H 340.636 -1.22824 4.92825 0
M  V30 3745 H 340.566 -2.92213 4.38086 0
M  V30 3746 H 343.057 -1.74925 3.34977 0
M  V30 3747 H 343.37 -3.0112 7.11721 0
M  V30 3748 H 341.715 -2.71445 6.39799 0
M  V30 3749 H 344.906 -2.09174 4.18765 0
M  V30 3750 H 345.079 -2.66741 5.90554 0
M  V30 3751 N 338.485 -1.33259 -0.841409 0
M  V30 3752 C 339.71 -1.2775 -1.63385 0
M  V30 3753 C 340.135 0.149188 -1.87507 0
M  V30 3754 O 339.493 1.10498 -1.43736 0
M  V30 3755 C 339.541 -2.05571 -2.96265 0
M  V30 3756 O 338.645 -1.41257 -3.87453 0
M  V30 3757 H 337.986 -0.439627 -0.497618 0
M  V30 3758 H 340.516 -1.75782 -1.04699 0
M  V30 3759 H 340.526 -2.16241 -3.45982 0
M  V30 3760 H 339.201 -3.09309 -2.7803 0
M  V30 3761 H 337.778 -1.39217 -3.45938 0
M  V30 3762 N 339.963 1.05934 -1.16686 0
M  V30 3763 C 340.91 2.13499 -0.876748 0
M  V30 3764 C 341.88 1.65162 0.176299 0
M  V30 3765 O 343.065 1.90757 0.0407143 0
M  V30 3766 C 340.205 3.42912 -0.387967 0
M  V30 3767 C 339.318 4.04964 -1.50426 0
M  V30 3768 C 338.453 5.22266 -0.970125 0
M  V30 3769 C 337.492 5.76309 -2.06238 0
M  V30 3770 N 336.629 6.84922 -1.54356 0
M  V30 3771 H 341.469 2.37654 -1.7979 0
M  V30 3772 H 339.006 1.16598 -0.896843 0
M  V30 3773 H 340.964 4.17111 -0.086186 0
M  V30 3774 H 339.594 3.18963 0.496235 0
M  V30 3775 H 338.646 3.28277 -1.92193 0
M  V30 3776 H 339.958 4.41122 -2.32836 0
M  V30 3777 H 339.112 6.03506 -0.621743 0
M  V30 3778 H 337.851 4.87564 -0.115377 0
M  V30 3779 H 336.856 4.93704 -2.41942 0
M  V30 3780 H 338.081 6.13062 -2.92115 0
M  V30 3781 H 336.027 6.52131 -0.711406 0
M  V30 3782 H 335.944 7.20043 -2.30379 0
M  V30 3783 H 337.212 7.69832 -1.22387 0
M  V30 3784 N 341.441 0.965919 1.2453 0
M  V30 3785 C 342.666 0.643971 1.97149 0
M  V30 3786 C 343.091 -0.779487 1.71189 0
M  V30 3787 O 342.449 -1.5288 0.974553 0
M  V30 3788 C 342.497 0.922557 3.48599 0
M  V30 3789 O 341.601 0.00707672 4.12399 0
M  V30 3790 H 340.942 0.243647 0.617683 0
M  V30 3791 H 343.472 1.29558 1.58353 0
M  V30 3792 H 343.482 0.853373 3.98976 0
M  V30 3793 H 342.157 1.95996 3.66822 0
M  V30 3794 H 340.734 0.12943 3.72675 0
M  V30 3795 N 342.919 -1.39368 0.735821 0
M  V30 3796 C 343.851 -2.2913 0.0567723 0
M  V30 3797 C 344.864 -1.46859 -0.702589 0
M  V30 3798 O 346.053 -1.69925 -0.546616 0
M  V30 3799 C 343.153 -3.25492 -0.943823 0
M  V30 3800 C 342.326 -4.36709 -0.24581 0
M  V30 3801 C 341.385 -5.13376 -1.15463 0
M  V30 3802 O 340.411 -5.65683 -0.631803 0
M  V30 3803 N 341.613 -5.24656 -2.48427 0
M  V30 3804 H 344.378 -2.88047 0.827582 0
M  V30 3805 H 341.939 -1.50957 0.585112 0
M  V30 3806 H 343.931 -3.73657 -1.55443 0
M  V30 3807 H 342.501 -2.676 -1.61583 0
M  V30 3808 H 341.721 -3.9041 0.545286 0
M  V30 3809 H 343.009 -5.08244 0.237891 0
M  V30 3810 H 342.407 -4.83679 -2.93379 0
M  V30 3811 H 340.964 -5.76258 -3.04582 0
M  V30 3812 N 344.397 -0.483516 -1.5 0
M  V30 3813 C 345.674 0.129337 -1.95172 0
M  V30 3814 C 346.054 1.55802 -1.4244 0
M  V30 3815 O 345.402 2.19625 -0.630649 0
M  V30 3816 C 345.612 0.0599251 -3.48949 0
M  V30 3817 C 346.96 0.242617 -4.23906 0
M  V30 3818 O 347.984 0.135933 -3.55941 0
M  V30 3819 O 346.843 0.459454 -5.44565 0
M  V30 3820 H 343.937 0.104887 -0.820322 0
M  V30 3821 H 346.483 -0.544807 -1.60717 0
M  V30 3822 H 345.255 -0.937079 -3.79914 0
M  V30 3823 H 344.878 0.774984 -3.89974 0
M  V30 3824 N 345.875 1.56104 -0.216619 0
M  V30 3825 C 346.807 2.17339 0.72776 0
M  V30 3826 C 347.82 1.14109 1.16116 0
M  V30 3827 O 349.009 1.4111 1.09317 0
M  V30 3828 C 346.109 2.73818 1.99693 0
M  V30 3829 C 345.282 4.02168 1.71988 0
M  V30 3830 C 344.341 4.43259 2.83562 0
M  V30 3831 O 343.367 5.10257 2.52244 0
M  V30 3832 N 344.569 4.08535 4.12407 0
M  V30 3833 H 347.334 2.99005 0.203983 0
M  V30 3834 H 344.895 1.61861 -0.0354289 0
M  V30 3835 H 346.887 2.9828 2.73516 0
M  V30 3836 H 345.457 1.96483 2.43132 0
M  V30 3837 H 344.677 3.85612 0.818337 0
M  V30 3838 H 345.965 4.85907 1.50903 0
M  V30 3839 H 345.363 3.54687 4.40696 0
M  V30 3840 H 343.92 4.37901 4.8279 0
M  V30 3841 N 347.353 -0.0568162 1.57498 0
M  V30 3842 C 348.316 -1.05038 2.03715 0
M  V30 3843 C 349.316 -1.30709 0.936577 0
M  V30 3844 O 350.506 -1.26178 1.20103 0
M  V30 3845 C 347.638 -2.39034 2.43055 0
M  V30 3846 H 348.831 -0.651715 2.92733 0
M  V30 3847 H 346.384 -0.302947 1.53336 0
M  V30 3848 H 347.119 -2.83703 1.57108 0
M  V30 3849 H 346.904 -2.21739 3.2338 0
M  V30 3850 H 348.394 -3.10421 2.79336 0
M  V30 3851 N 348.832 -1.54138 -0.328536 0
M  V30 3852 C 350.248 -1.44736 -0.672574 0
M  V30 3853 C 350.448 -0.616217 -1.91846 0
M  V30 3854 O 349.504 -0.113067 -2.52247 0
M  V30 3855 C 350.817 -2.884 -0.851217 0
M  V30 3856 C 352.365 -2.98271 -0.948877 0
M  V30 3857 C 352.84 -4.43074 -1.15973 0
M  V30 3858 N 354.331 -4.46665 -1.22658 0
M  V30 3859 C 355.066 -5.55857 -1.40751 0
M  V30 3860 N 354.562 -6.75026 -1.5592 0
M  V30 3861 N 356.355 -5.43495 -1.4342 0
M  V30 3862 H 348.506 -2.06661 0.490421 0
M  V30 3863 H 350.769 -0.934812 0.157579 0
M  V30 3864 H 350.475 -3.51699 -0.00704236 0
M  V30 3865 H 350.349 -3.34225 -1.74853 0
M  V30 3866 H 352.736 -2.35102 -1.78356 0
M  V30 3867 H 352.817 -2.55785 -0.0281435 0
M  V30 3868 H 352.461 -5.06827 -0.329915 0
M  V30 3869 H 352.391 -4.83165 -2.09426 0
M  V30 3870 H 354.882 -3.60797 -1.124 0
M  V30 3871 H 355.195 -7.54004 -1.69404 0
M  V30 3872 H 353.54 -6.77944 -1.53027 0
M  V30 3873 H 356.731 -4.49349 -1.31162 0
M  V30 3874 H 356.904 -6.28649 -1.57178 0
M  V30 3875 N 350.31 0.590341 -1.46126 0
M  V30 3876 C 351.257 1.69994 -1.56111 0
M  V30 3877 C 352.227 1.61065 -0.405867 0
M  V30 3878 O 353.412 1.8039 -0.621613 0
M  V30 3879 C 350.552 3.08326 -1.55013 0
M  V30 3880 C 349.665 3.27936 -2.81215 0
M  V30 3881 C 348.8 4.56473 -2.71673 0
M  V30 3882 C 347.839 4.694 -3.92849 0
M  V30 3883 N 346.976 5.89254 -3.81738 0
M  V30 3884 H 351.816 1.60797 -2.50895 0
M  V30 3885 H 349.353 0.783799 -1.24479 0
M  V30 3886 H 351.311 3.88383 -1.52362 0
M  V30 3887 H 349.941 3.16439 -0.637667 0
M  V30 3888 H 348.993 2.41536 -2.93879 0
M  V30 3889 H 350.305 3.33357 -3.71045 0
M  V30 3890 H 349.459 5.44748 -2.67085 0
M  V30 3891 H 348.198 4.53477 -1.7947 0
M  V30 3892 H 347.203 3.79544 -3.97777 0
M  V30 3893 H 348.428 4.7418 -4.86138 0
M  V30 3894 H 346.374 5.87271 -2.92317 0
M  V30 3895 H 346.291 5.95911 -4.65217 0
M  V30 3896 H 347.559 6.79981 -3.81112 0
M  V30 3897 N 351.788 1.33704 0.83433 0
M  V30 3898 C 353.013 1.28615 1.62705 0
M  V30 3899 C 353.438 -0.139242 1.87584 0
M  V30 3900 O 352.796 -1.09734 1.4432 0
M  V30 3901 C 352.844 2.07139 2.95171 0
M  V30 3902 O 351.948 1.4331 3.86699 0
M  V30 3903 H 351.289 0.44226 0.49528 0
M  V30 3904 H 353.819 1.76335 1.03766 0
M  V30 3905 H 353.829 2.18073 3.44831 0
M  V30 3906 H 352.504 3.10779 2.76386 0
M  V30 3907 H 351.081 1.4105 3.45195 0
M  V30 3908 N 353.266 -1.05314 1.17247 0
M  V30 3909 C 354.213 -2.13031 0.888058 0
M  V30 3910 C 355.183 -1.65253 -0.167537 0
M  V30 3911 O 356.368 -1.90775 -0.0305974 0
M  V30 3912 C 353.508 -3.42702 0.406147 0
M  V30 3913 C 352.621 -4.04161 1.52572 0
M  V30 3914 C 351.756 -5.21744 0.997808 0
M  V30 3915 C 350.795 -5.75207 2.09291 0
M  V30 3916 N 349.932 -6.84094 1.57986 0
M  V30 3917 H 354.772 -2.36698 1.81048 0
M  V30 3918 H 352.309 -1.16121 0.903013 0
M  V30 3919 H 354.267 -4.17059 0.108305 0
M  V30 3920 H 352.897 -3.19222 -0.479313 0
M  V30 3921 H 351.949 -3.27253 1.93931 0
M  V30 3922 H 353.261 -4.39881 2.35172 0
M  V30 3923 H 352.415 -6.03168 0.653739 0
M  V30 3924 H 351.154 -4.87495 0.141232 0
M  V30 3925 H 350.159 -4.92414 2.44557 0
M  V30 3926 H 351.384 -6.11505 2.95362 0
M  V30 3927 H 349.33 -6.51745 0.74598 0
M  V30 3928 H 349.247 -7.18811 2.34195 0
M  V30 3929 H 350.515 -7.69172 1.26468 0
M  V30 3930 N 354.744 -0.972509 -1.24016 0
M  V30 3931 C 355.969 -0.654417 -1.96805 0
M  V30 3932 C 356.394 0.770398 -1.716 0
M  V30 3933 O 355.752 1.52361 -0.982647 0
M  V30 3934 C 355.8 -0.941031 -3.48105 0
M  V30 3935 O 354.904 -0.0289472 -4.1239 0
M  V30 3936 H 354.245 -0.24692 -0.616382 0
M  V30 3937 H 356.775 -1.30396 -1.57664 0
M  V30 3938 H 356.785 -0.87452 -3.98517 0
M  V30 3939 H 355.46 -1.97939 -3.65777 0
M  V30 3940 H 354.037 -0.149192 -3.72601 0
M  V30 3941 N 356.222 1.38976 -0.743202 0
M  V30 3942 C 357.633 1.83123 -0.363732 0
M  V30 3943 C 357.984 1.6205 1.10609 0
M  V30 3944 O 357.109 1.11606 1.854 0
M  V30 3945 C 357.704 3.32439 -0.653408 0
M  V30 3946 C 356.263 3.74974 -0.327338 0
M  V30 3947 C 355.41 2.61878 -0.911875 0
M  V30 3948 H 358.361 1.27852 -0.940191 0
M  V30 3949 H 358.382 3.80432 0.0720031 0
M  V30 3950 H 357.894 3.47745 -1.72323 0
M  V30 3951 H 355.995 3.65252 0.736314 0
M  V30 3952 H 356.108 4.72106 -0.815631 0
M  V30 3953 H 354.472 2.52448 -0.337944 0
M  V30 3954 H 355.255 2.79987 -1.98651 0
M  V30 3955 N 357.7 0.491464 1.49741 0
M  V30 3956 C 358.928 -0.0535151 2.06831 0
M  V30 3957 C 359.343 -1.31683 1.35296 0
M  V30 3958 O 358.7 -1.77402 0.42836 0
M  V30 3959 C 358.751 -0.320835 3.60073 0
M  V30 3960 O 358.472 0.892394 4.28915 0
M  V30 3961 C 359.973 -0.910519 4.33848 0
M  V30 3962 H 357.193 0.0161909 0.670805 0
M  V30 3963 H 359.737 0.68609 1.92647 0
M  V30 3964 H 357.892 -1.0104 3.73991 0
M  V30 3965 H 358.306 0.649401 5.20464 0
M  V30 3966 H 359.78 -1.04721 5.41976 0
M  V30 3967 H 360.257 -1.90589 3.95692 0
M  V30 3968 H 360.863 -0.258712 4.24512 0
M  V30 3969 N 359.178 -1.55987 0.224894 0
M  V30 3970 C 360.108 -2.23426 -0.678457 0
M  V30 3971 C 361.089 -1.20709 -1.19847 0
M  V30 3972 O 362.274 -1.49304 -1.24186 0
M  V30 3973 C 359.404 -2.91676 -1.88527 0
M  V30 3974 C 358.358 -4.00893 -1.49896 0
M  V30 3975 C 357.684 -4.56455 -2.78483 0
M  V30 3976 C 358.984 -5.17769 -0.686461 0
M  V30 3977 H 360.678 -2.99175 -0.116173 0
M  V30 3978 H 358.224 -1.43897 -0.054436 0
M  V30 3979 H 360.177 -3.37547 -2.5227 0
M  V30 3980 H 358.901 -2.1338 -2.47258 0
M  V30 3981 H 357.56 -3.55758 -0.884985 0
M  V30 3982 H 357.208 -3.74886 -3.35365 0
M  V30 3983 H 356.908 -5.30169 -2.53368 0
M  V30 3984 H 358.432 -5.05047 -3.43162 0
M  V30 3985 H 359.846 -5.60001 -1.22767 0
M  V30 3986 H 358.243 -5.97735 -0.532259 0
M  V30 3987 H 359.313 -4.83932 0.306196 0
M  V30 3988 N 360.656 0.0484629 -1.57525 0
M  V30 3989 C 362.072 0.40375 -1.54409 0
M  V30 3990 C 362.272 1.77786 -0.948384 0
M  V30 3991 O 361.328 2.46189 -0.560983 0
M  V30 3992 C 362.641 0.323394 -2.98956 0
M  V30 3993 C 364.189 0.401892 -3.10409 0
M  V30 3994 C 364.664 0.351195 -4.56652 0
M  V30 3995 N 366.155 0.410576 -4.61377 0
M  V30 3996 C 366.89 0.393933 -5.72045 0
M  V30 3997 N 366.386 0.330724 -6.9201 0
M  V30 3998 N 368.179 0.442227 -5.60358 0
M  V30 3999 H 360.33 -0.851016 -1.94606 0
M  V30 4000 H 362.593 -0.321721 -0.89174 0
M  V30 4001 H 362.299 -0.62011 -3.4619 0
M  V30 4002 H 362.173 1.12463 -3.60044 0
M  V30 4003 H 364.56 1.33582 -2.63134 0
M  V30 4004 H 364.641 -0.428342 -2.52188 0
M  V30 4005 H 364.285 -0.578987 -5.04589 0
M  V30 4006 H 364.215 1.19928 -5.12762 0
M  V30 4007 H 366.706 0.462729 -3.75056 0
M  V30 4008 H 367.019 0.322592 -7.72126 0
M  V30 4009 H 365.364 0.29706 -6.94365 0
M  V30 4010 H 368.555 0.489464 -4.65534 0
M  V30 4011 H 368.728 0.425788 -6.466 0
M  V30 4012 N 362.134 1.5431 0.320358 0
M  V30 4013 C 363.55 1.45091 0.664889 0
M  V30 4014 C 363.75 0.626382 1.91517 0
M  V30 4015 O 362.806 0.126443 2.52183 0
M  V30 4016 C 364.119 2.88848 0.83591 0
M  V30 4017 C 365.667 2.9877 0.933046 0
M  V30 4018 C 366.142 4.43683 1.13621 0
M  V30 4019 N 367.633 4.47309 1.20287 0
M  V30 4020 C 368.368 5.56595 1.37801 0
M  V30 4021 N 367.864 6.75844 1.52338 0
M  V30 4022 N 369.657 5.44248 1.40535 0
M  V30 4023 H 361.808 2.06398 -0.501374 0
M  V30 4024 H 364.071 0.933963 -0.162534 0
M  V30 4025 H 363.777 3.51698 -0.0116092 0
M  V30 4026 H 363.651 3.35148 1.73078 0
M  V30 4027 H 366.038 2.36045 1.77107 0
M  V30 4028 H 366.119 2.55796 0.0145782 0
M  V30 4029 H 365.763 5.06995 0.303032 0
M  V30 4030 H 365.693 4.84269 2.0686 0
M  V30 4031 H 368.184 3.61388 1.10485 0
M  V30 4032 H 368.497 7.54892 1.65403 0
M  V30 4033 H 366.842 6.78746 1.4943 0
M  V30 4034 H 370.033 4.50038 1.28777 0
M  V30 4035 H 370.206 6.29473 1.53842 0
M  V30 4036 N 363.613 -0.582584 1.46437 0
M  V30 4037 C 365.029 -0.905962 1.31394 0
M  V30 4038 C 365.229 -1.99468 0.285476 0
M  V30 4039 O 364.285 -2.50566 -0.311914 0
M  V30 4040 C 365.598 -1.3232 2.70022 0
M  V30 4041 C 367.146 -1.43604 2.78113 0
M  V30 4042 C 367.621 -1.88694 4.17323 0
M  V30 4043 N 369.112 -1.95887 4.19741 0
M  V30 4044 C 369.847 -2.32051 5.24347 0
M  V30 4045 N 369.343 -2.67006 6.39281 0
M  V30 4046 N 371.136 -2.32606 5.11713 0
M  V30 4047 H 363.287 0.1366 2.1196 0
M  V30 4048 H 365.55 -0.00155736 0.947999 0
M  V30 4049 H 365.256 -0.597242 3.46592 0
M  V30 4050 H 365.13 -2.28469 3.00136 0
M  V30 4051 H 367.517 -2.15286 2.01832 0
M  V30 4052 H 367.598 -0.457059 2.51684 0
M  V30 4053 H 367.242 -1.1759 4.941 0
M  V30 4054 H 367.172 -2.8755 4.4116 0
M  V30 4055 H 369.663 -1.71362 3.36814 0
M  V30 4056 H 369.976 -2.93554 7.14875 0
M  V30 4057 H 368.321 -2.64644 6.42642 0
M  V30 4058 H 371.512 -2.04721 4.2096 0
M  V30 4059 H 371.685 -2.60462 5.93349 0
M  V30 4060 N 365.091 -1.34144 -0.827227 0
M  V30 4061 C 366.316 -1.29476 -1.62021 0
M  V30 4062 C 366.741 0.129292 -1.87655 0
M  V30 4063 O 366.099 1.08967 -1.449 0
M  V30 4064 C 366.147 -2.08702 -2.94068 0
M  V30 4065 O 365.251 -1.45359 -3.85933 0
M  V30 4066 H 364.592 -0.444881 -0.492927 0
M  V30 4067 H 367.122 -1.76882 -1.02829 0
M  V30 4068 H 367.132 -2.19898 -3.43669 0
M  V30 4069 H 365.807 -3.12241 -2.74734 0
M  V30 4070 H 364.384 -1.42879 -3.44442 0
M  V30 4071 N 366.569 1.04691 -1.17803 0
M  V30 4072 C 367.501 2.12571 -0.857097 0
M  V30 4073 C 368.514 1.62174 0.142647 0
M  V30 4074 O 369.703 1.78301 -0.0843387 0
M  V30 4075 C 366.803 3.37915 -0.258216 0
M  V30 4076 C 365.976 4.1757 -1.30207 0
M  V30 4077 C 365.035 5.2125 -0.720029 0
M  V30 4078 O 364.061 5.51888 -1.39314 0
M  V30 4079 N 365.263 5.78466 0.485507 0
M  V30 4080 H 368.028 2.40698 -1.78562 0
M  V30 4081 H 365.589 1.20831 -1.07757 0
M  V30 4082 H 367.581 4.04442 0.144584 0
M  V30 4083 H 366.151 3.07281 0.574199 0
M  V30 4084 H 365.371 3.46458 -1.88043 0
M  V30 4085 H 366.659 4.67586 -2.00601 0
M  V30 4086 H 366.057 5.55866 1.05022 0
M  V30 4087 H 364.614 6.4649 0.830307 0
M  V30 4088 N 368.047 0.979072 1.23499 0
M  V30 4089 C 368.957 0.526431 2.28617 0
M  V30 4090 C 369.973 -0.418126 1.68901 0
M  V30 4091 O 371.149 -0.288372 1.99325 0
M  V30 4092 C 368.214 -0.165235 3.46306 0
M  V30 4093 C 367.275 0.82056 4.21385 0
M  V30 4094 C 366.508 0.161807 5.33455 0
M  V30 4095 O 366.731 -1.04742 5.60701 0
M  V30 4096 O 365.665 0.859708 5.95729 0
M  V30 4097 H 369.491 1.4006 2.69475 0
M  V30 4098 H 367.076 0.746643 1.29405 0
M  V30 4099 H 368.958 -0.553287 4.17752 0
M  V30 4100 H 367.633 -1.01419 3.07402 0
M  V30 4101 H 366.54 1.25929 3.52268 0
M  V30 4102 H 367.873 1.63828 4.64135 0
M  V30 4103 N 369.525 -1.3858 0.750561 0
M  V30 4104 C 370.472 -2.30483 0.120835 0
M  V30 4105 C 371.442 -1.50022 -0.712923 0
M  V30 4106 O 372.627 -1.78662 -0.669676 0
M  V30 4107 C 369.767 -3.36431 -0.768666 0
M  V30 4108 C 368.88 -4.31927 0.0793922 0
M  V30 4109 C 368.015 -5.24944 -0.81283 0
M  V30 4110 C 367.054 -6.12088 0.0390447 0
M  V30 4111 N 366.191 -6.97412 -0.809969 0
M  V30 4112 H 371.031 -2.83761 0.91015 0
M  V30 4113 H 368.568 -1.39707 0.460463 0
M  V30 4114 H 370.526 -3.96462 -1.29898 0
M  V30 4115 H 369.156 -2.8457 -1.5238 0
M  V30 4116 H 368.208 -3.73382 0.727303 0
M  V30 4117 H 369.52 -4.93319 0.737401 0
M  V30 4118 H 368.674 -5.90078 -1.41042 0
M  V30 4119 H 367.413 -4.63911 -1.50458 0
M  V30 4120 H 366.418 -5.45952 0.649328 0
M  V30 4121 H 367.643 -6.75189 0.727809 0
M  V30 4122 H 365.589 -6.38931 -1.48672 0
M  V30 4123 H 365.506 -7.55712 -0.208789 0
M  V30 4124 H 366.774 -7.66959 -1.39263 0
M  V30 4125 N 371.003 -0.499398 -1.49478 0
M  V30 4126 C 372.252 0.0475259 -2.01644 0
M  V30 4127 C 372.565 1.38195 -1.38425 0
M  V30 4128 O 373.771 2.01547 -1.8191 0
M  V30 4129 C 372.227 0.135164 -3.59646 0
M  V30 4130 C 371.835 -1.19252 -4.31837 0
M  V30 4131 C 373.579 0.632538 -4.19761 0
M  V30 4132 C 371.486 -1.06713 -5.81693 0
M  V30 4133 H 370.416 0.0215349 -0.753692 0
M  V30 4134 H 373.067 -0.638577 -1.7203 0
M  V30 4135 H 371.449 0.885681 -3.85969 0
M  V30 4136 H 372.623 -1.9562 -4.17216 0
M  V30 4137 H 370.938 -1.62321 -3.83459 0
M  V30 4138 H 373.535 0.743833 -5.29501 0
M  V30 4139 H 373.878 1.63098 -3.83021 0
M  V30 4140 H 374.411 -0.0613987 -3.97753 0
M  V30 4141 H 371.15 -2.03979 -6.22955 0
M  V30 4142 H 370.67 -0.344307 -5.98811 0
M  V30 4143 H 372.349 -0.745208 -6.42694 0
M  V30 4144 N 372.481 1.55866 -0.233164 0
M  V30 4145 C 373.729 1.9821 0.394593 0
M  V30 4146 C 374.05 1.12234 1.59463 0
M  V30 4147 O 373.32 0.201981 1.94856 0
M  V30 4148 H 371.9 0.732034 0.148778 0
M  V30 4149 H 374.562 1.92107 -0.32876 0
M  V30 4150 H 373.658 3.03845 0.713063 0
M  V30 4151 N 373.959 -0.0401083 1.57549 0
M  V30 4152 C 374.906 -1.04413 2.05831 0
M  V30 4153 C 375.876 -1.36585 0.945184 0
M  V30 4154 O 377.061 -1.47112 1.21502 0
M  V30 4155 C 374.201 -2.34336 2.53339 0
M  V30 4156 C 373.314 -2.08419 3.78398 0
M  V30 4157 C 372.449 -3.32133 4.14561 0
M  V30 4158 C 371.488 -3.01721 5.3257 0
M  V30 4159 N 370.625 -4.17855 5.64218 0
M  V30 4160 H 375.465 -0.625442 2.91363 0
M  V30 4161 H 373.002 -0.297218 1.44066 0
M  V30 4162 H 374.96 -3.10234 2.78946 0
M  V30 4163 H 373.59 -2.73948 1.7074 0
M  V30 4164 H 372.642 -1.23069 3.59942 0
M  V30 4165 H 373.954 -1.81978 4.64419 0
M  V30 4166 H 373.108 -4.16406 4.41238 0
M  V30 4167 H 371.847 -3.61678 3.2717 0
M  V30 4168 H 370.852 -2.15849 5.05657 0
M  V30 4169 H 372.077 -2.73466 6.21605 0
M  V30 4170 H 370.023 -4.47372 4.79786 0
M  V30 4171 H 369.94 -3.94798 6.44725 0
M  V30 4172 H 371.208 -5.03033 5.95465 0
M  V30 4173 N 375.437 -1.54477 -0.31217 0
M  V30 4174 C 376.4 -1.83923 -1.36766 0
M  V30 4175 C 377.4 -0.711563 -1.44199 0
M  V30 4176 O 378.59 -0.979866 -1.44029 0
M  V30 4177 C 375.722 -2.0095 -2.75376 0
M  V30 4178 H 376.915 -2.78239 -1.11906 0
M  V30 4179 H 374.468 -1.46369 -0.548257 0
M  V30 4180 H 375.203 -1.08883 -3.05475 0
M  V30 4181 H 374.988 -2.83018 -2.71373 0
M  V30 4182 H 376.478 -2.2514 -3.51713 0
M  V30 4183 N 376.915 0.57481 -1.46744 0
M  V30 4184 C 378.331 0.898981 -1.31873 0
M  V30 4185 C 378.531 1.99313 -0.29605 0
M  V30 4186 O 377.587 2.50728 0.298621 0
M  V30 4187 C 378.9 1.30886 -2.7072 0
M  V30 4188 C 380.448 1.42127 -2.78871 0
M  V30 4189 C 380.923 1.86478 -4.18318 0
M  V30 4190 N 382.414 1.93658 -4.20774 0
M  V30 4191 C 383.149 2.29267 -5.2557 0
M  V30 4192 N 382.645 2.63612 -6.40688 0
M  V30 4193 N 384.438 2.29889 -5.1294 0
M  V30 4194 H 376.589 -0.147839 -2.11885 0
M  V30 4195 H 378.852 -0.00347013 -0.947994 0
M  V30 4196 H 378.558 0.578853 -3.46904 0
M  V30 4197 H 378.432 2.26874 -3.01343 0
M  V30 4198 H 380.819 2.14213 -2.0297 0
M  V30 4199 H 380.9 0.443705 -2.51922 0
M  V30 4200 H 380.544 1.14968 -4.94717 0
M  V30 4201 H 380.474 2.85207 -4.42679 0
M  V30 4202 H 382.965 1.69574 -3.37718 0
M  V30 4203 H 383.278 2.89759 -7.16421 0
M  V30 4204 H 381.623 2.61232 -6.44036 0
M  V30 4205 H 384.814 2.02485 -4.22039 0
M  V30 4206 H 384.987 2.57312 -5.94722 0
M  V30 4207 N 378.394 1.34581 0.820102 0
M  V30 4208 C 379.619 1.30333 1.61332 0
M  V30 4209 C 380.044 -0.119339 1.87721 0
M  V30 4210 O 379.402 -1.08197 1.45475 0
M  V30 4211 C 379.45 2.10258 2.92957 0
M  V30 4212 O 378.554 1.47404 3.85157 0
M  V30 4213 H 377.895 0.447488 0.490561 0
M  V30 4214 H 380.425 1.77425 1.01889 0
M  V30 4215 H 380.435 2.21718 3.42498 0
M  V30 4216 H 379.11 3.13693 2.73074 0
M  V30 4217 H 377.687 1.44703 3.43679 0
M  V30 4218 N 379.872 -1.04064 1.18357 0
M  V30 4219 C 381.283 -1.58719 0.98312 0
M  V30 4220 C 381.634 -1.90556 -0.467193 0
M  V30 4221 O 380.759 -1.69561 -1.34454 0
M  V30 4222 C 381.354 -2.88379 1.77828 0
M  V30 4223 C 379.913 -3.3965 1.62218 0
M  V30 4224 C 379.06 -2.13235 1.77274 0
M  V30 4225 H 382.011 -0.867359 1.32901 0
M  V30 4226 H 382.032 -3.58773 1.26737 0
M  V30 4227 H 381.544 -2.65176 2.83379 0
M  V30 4228 H 379.645 -3.67866 0.592036 0
M  V30 4229 H 379.758 -4.13475 2.42023 0
M  V30 4230 H 378.122 -2.24542 1.20221 0
M  V30 4231 H 378.905 -1.92487 2.8426 0
M  V30 4232 N 381.35 -0.985608 -1.22978 0
M  V30 4233 C 382.578 -0.675582 -1.95559 0
M  V30 4234 C 382.993 0.758413 -1.72897 0
M  V30 4235 O 382.35 1.51094 -1.02357 0
M  V30 4236 C 382.401 -0.96293 -3.48439 0
M  V30 4237 O 382.122 -2.34057 -3.70336 0
M  V30 4238 C 383.623 -0.669585 -4.38214 0
M  V30 4239 H 380.843 -0.250523 -0.622478 0
M  V30 4240 H 383.387 -1.3184 -1.56328 0
M  V30 4241 H 381.542 -0.366033 -3.85667 0
M  V30 4242 H 381.956 -2.43424 -4.64591 0
M  V30 4243 H 383.43 -0.920967 -5.44263 0
M  V30 4244 H 383.907 0.396383 -4.37408 0
M  V30 4245 H 384.513 -1.2472 -4.06602 0
M  V30 4246 N 382.828 1.3818 -0.7579 0
M  V30 4247 C 384.105 1.94106 -0.241306 0
M  V30 4248 C 384.485 1.69282 1.26122 0
M  V30 4249 O 383.833 1.03378 2.03777 0
M  V30 4250 C 384.043 3.43809 -0.59967 0
M  V30 4251 C 385.391 4.20868 -0.561717 0
M  V30 4252 O 386.415 3.5211 -0.538222 0
M  V30 4253 O 385.274 5.43451 -0.576478 0
M  V30 4254 H 382.368 0.825376 -0.0518042 0
M  V30 4255 H 384.914 1.47548 -0.838315 0
M  V30 4256 H 383.686 3.55403 -1.6372 0
M  V30 4257 H 383.309 3.97592 0.0251197 0
M  V30 4258 N 384.306 0.507319 1.49211 0
M  V30 4259 C 385.583 -0.0982702 1.95353 0
M  V30 4260 C 385.963 -1.53516 1.449 0
M  V30 4261 O 385.311 -2.18594 0.66551 0
M  V30 4262 C 385.521 -0.00440283 3.49 0
M  V30 4263 C 386.869 -0.175147 4.24239 0
M  V30 4264 O 387.893 -0.0792891 3.56112 0
M  V30 4265 O 386.752 -0.37276 5.45227 0
M  V30 4266 H 383.846 -0.0918236 0.821887 0
M  V30 4267 H 386.392 0.570307 1.5983 0
M  V30 4268 H 385.164 0.997402 3.78375 0
M  V30 4269 H 384.787 -0.712845 3.91158 0
M  V30 4270 N 385.784 -1.5574 0.241426 0
M  V30 4271 C 386.731 -2.21149 -0.660432 0
M  V30 4272 C 387.701 -1.17356 -1.17545 0
M  V30 4273 O 388.886 -1.45784 -1.23093 0
M  V30 4274 C 386.026 -2.91059 -1.85414 0
M  V30 4275 C 385.139 -4.09495 -1.37616 0
M  V30 4276 C 384.274 -4.67135 -2.529 0
M  V30 4277 C 383.313 -5.77831 -2.01936 0
M  V30 4278 N 382.45 -6.29677 -3.10566 0
M  V30 4279 H 387.29 -2.97845 -0.095955 0
M  V30 4280 H 384.827 -1.47057 -0.0356024 0
M  V30 4281 H 386.785 -3.29788 -2.5553 0
M  V30 4282 H 385.415 -2.16846 -2.39118 0
M  V30 4283 H 384.467 -3.76117 -0.569235 0
M  V30 4284 H 385.779 -4.89423 -0.962618 0
M  V30 4285 H 384.933 -5.08409 -3.31067 0
M  V30 4286 H 383.672 -3.86411 -2.97553 0
M  V30 4287 H 382.677 -5.36039 -1.22238 0
M  V30 4288 H 383.902 -6.60402 -1.58259 0
M  V30 4289 H 381.848 -5.5186 -3.54664 0
M  V30 4290 H 381.765 -7.04783 -2.73526 0
M  V30 4291 H 383.033 -6.75609 -3.88809 0
M  V30 4292 N 387.262 0.0317525 -1.57568 0
M  V30 4293 C 388.508 0.724175 -1.8943 0
M  V30 4294 C 388.841 1.75149 -0.838836 0
M  V30 4295 O 388.116 1.93948 0.146422 0
M  V30 4296 C 388.399 1.39615 -3.31933 0
M  V30 4297 C 388.252 0.382537 -4.4817 0
M  V30 4298 C 389.571 2.33084 -3.73309 0
M  V30 4299 H 386.69 0.261797 -0.688935 0
M  V30 4300 H 389.332 -0.013017 -1.89996 0
M  V30 4301 H 387.482 2.02451 -3.31581 0
M  V30 4302 H 389.154 -0.243689 -4.60656 0
M  V30 4303 H 387.397 -0.29844 -4.32772 0
M  V30 4304 H 388.068 0.891145 -5.44759 0
M  V30 4305 H 390.544 1.80295 -3.7501 0
M  V30 4306 H 389.42 2.77084 -4.73831 0
M  V30 4307 H 389.681 3.19643 -3.05419 0
M  V30 4308 N 388.74 1.54641 0.303973 0
M  V30 4309 C 389.687 1.85386 1.37479 0
M  V30 4310 C 390.657 0.702528 1.50512 0
M  V30 4311 O 391.842 0.950867 1.65418 0
M  V30 4312 C 388.982 2.10413 2.73533 0
M  V30 4313 C 388.095 3.38049 2.68974 0
M  V30 4314 C 387.23 3.52934 3.97002 0
M  V30 4315 C 386.269 4.74373 3.86829 0
M  V30 4316 N 385.406 4.8608 5.06627 0
M  V30 4317 H 390.246 2.76732 1.1056 0
M  V30 4318 H 387.783 1.37034 0.534805 0
M  V30 4319 H 389.741 2.22919 3.52652 0
M  V30 4320 H 388.371 1.22338 2.98719 0
M  V30 4321 H 387.423 3.3418 1.81736 0
M  V30 4322 H 388.735 4.27288 2.57346 0
M  V30 4323 H 387.889 3.65088 4.84557 0
M  V30 4324 H 386.628 2.61824 4.1146 0
M  V30 4325 H 385.633 4.62255 2.97658 0
M  V30 4326 H 386.858 5.66888 3.73918 0
M  V30 4327 H 384.804 3.97891 5.21554 0
M  V30 4328 H 384.721 5.69315 4.9741 0
M  V30 4329 H 385.989 5.02587 5.95841 0
M  V30 4330 N 390.218 -0.567019 1.47046 0
M  V30 4331 C 391.467 -1.32091 1.5243 0
M  V30 4332 C 391.78 -1.94704 0.187021 0
M  V30 4333 O 392.986 -2.7124 0.118771 0
M  V30 4334 C 391.442 -2.39479 2.68659 0
M  V30 4335 C 391.05 -1.831 4.08874 0
M  V30 4336 C 392.794 -3.16111 2.83327 0
M  V30 4337 C 390.701 -2.8821 5.16419 0
M  V30 4338 H 389.631 -0.496629 0.56734 0
M  V30 4339 H 392.282 -0.603354 1.73297 0
M  V30 4340 H 390.664 -3.14105 2.41152 0
M  V30 4341 H 391.838 -1.14913 4.46242 0
M  V30 4342 H 390.153 -1.19085 3.99008 0
M  V30 4343 H 392.75 -3.94585 3.60842 0
M  V30 4344 H 393.093 -3.69686 1.91411 0
M  V30 4345 H 393.626 -2.48595 3.10556 0
M  V30 4346 H 390.365 -2.39504 6.10179 0
M  V30 4347 H 389.885 -3.54839 4.8358 0
M  V30 4348 H 391.564 -3.51881 5.42945 0
M  V30 4349 N 391.696 -1.35014 -0.812953 0
M  V30 4350 C 392.606 -1.2951 -1.95613 0
M  V30 4351 C 393.622 -0.20107 -1.72834 0
M  V30 4352 O 394.798 -0.42932 -1.96771 0
M  V30 4353 C 391.863 -1.06033 -3.30088 0
M  V30 4354 C 390.924 -2.24688 -3.65805 0
M  V30 4355 C 390.157 -2.02322 -4.93864 0
M  V30 4356 O 390.38 -0.986464 -5.61805 0
M  V30 4357 O 389.314 -2.89525 -5.27692 0
M  V30 4358 H 393.14 -2.25705 -2.03202 0
M  V30 4359 H 390.725 -1.15321 -0.949811 0
M  V30 4360 H 392.607 -0.94763 -4.10607 0
M  V30 4361 H 391.282 -0.128852 -3.23443 0
M  V30 4362 H 390.189 -2.41521 -2.85689 0
M  V30 4363 H 391.522 -3.16261 -3.77147 0
M  V30 4364 N 393.175 1.03435 -1.18907 0
M  V30 4365 C 394.452 1.73778 -0.89781 0
M  V30 4366 C 394.832 2.02458 0.597832 0
M  V30 4367 O 394.18 1.67482 1.55441 0
M  V30 4368 C 394.39 3.01845 -1.75187 0
M  V30 4369 C 395.738 3.7546 -1.9828 0
M  V30 4370 O 396.762 3.11759 -1.72293 0
M  V30 4371 O 395.621 4.89966 -2.42065 0
M  V30 4372 H 392.715 0.75651 -0.334098 0
M  V30 4373 H 395.261 1.09444 -1.29693 0
M  V30 4374 H 394.033 2.76836 -2.76545 0
M  V30 4375 H 393.656 3.73919 -1.35167 0
M  V30 4376 N 394.653 0.992116 1.22453 0
M  V30 4377 C 395.6 0.541731 2.24352 0
M  V30 4378 C 396.57 -0.425519 1.60557 0
M  V30 4379 O 397.755 -0.330453 1.87917 0
M  V30 4380 C 394.895 -0.138248 3.44823 0
M  V30 4381 C 394.008 0.870649 4.23136 0
M  V30 4382 C 393.143 0.164269 5.30946 0
M  V30 4383 C 392.182 1.16159 6.00977 0
M  V30 4384 N 391.319 0.483568 7.00433 0
M  V30 4385 H 396.159 1.41541 2.62241 0
M  V30 4386 H 393.696 0.709013 1.28885 0
M  V30 4387 H 395.654 -0.5494 4.13567 0
M  V30 4388 H 394.284 -0.975721 3.077 0
M  V30 4389 H 393.336 1.40013 3.53696 0
M  V30 4390 H 394.648 1.63014 4.7141 0
M  V30 4391 H 393.802 -0.303653 6.0594 0
M  V30 4392 H 392.541 -0.627733 4.83643 0
M  V30 4393 H 391.546 1.64015 5.24766 0
M  V30 4394 H 392.771 1.95445 6.50368 0
M  V30 4395 H 390.717 -0.289012 6.55363 0
M  V30 4396 H 390.634 1.18152 7.4671 0
M  V30 4397 H 391.902 0.0384219 7.79491 0
M  V30 4398 N 396.131 -1.37776 0.765217 0
M  V30 4399 C 397.356 -2.04651 0.336537 0
M  V30 4400 C 397.781 -1.57337 -1.03086 0
M  V30 4401 O 397.139 -0.730621 -1.65927 0
M  V30 4402 C 397.187 -3.58577 0.381468 0
M  V30 4403 O 396.291 -4.07706 -0.62042 0
M  V30 4404 H 395.632 -0.64756 0.146838 0
M  V30 4405 H 398.162 -1.76221 1.03959 0
M  V30 4406 H 398.172 -4.07314 0.236448 0
M  V30 4407 H 396.847 -3.9237 1.37907 0
M  V30 4408 H 395.424 -3.70306 -0.439056 0
M  V30 4409 N 397.609 -0.515225 -1.4894 0
M  V30 4410 C 398.556 0.255567 -2.29381 0
M  V30 4411 C 399.526 0.947387 -1.36432 0
M  V30 4412 O 400.711 0.951288 -1.65394 0
M  V30 4413 C 397.851 1.30551 -3.19453 0
M  V30 4414 C 396.964 0.624029 -4.27469 0
M  V30 4415 C 396.099 1.65563 -5.0474 0
M  V30 4416 C 395.138 0.956802 -6.04576 0
M  V30 4417 N 394.275 1.93326 -6.74959 0
M  V30 4418 H 399.115 -0.436607 -2.94784 0
M  V30 4419 H 396.652 -0.227154 -1.45336 0
M  V30 4420 H 398.61 1.92639 -3.70062 0
M  V30 4421 H 397.24 1.96626 -2.56004 0
M  V30 4422 H 396.292 -0.110459 -3.8024 0
M  V30 4423 H 397.604 0.0746092 -4.98744 0
M  V30 4424 H 396.758 2.35119 -5.59289 0
M  V30 4425 H 395.497 2.23893 -4.3327 0
M  V30 4426 H 394.502 0.247097 -5.49244 0
M  V30 4427 H 395.727 0.379814 -6.78037 0
M  V30 4428 H 393.673 2.50591 -6.06251 0
M  V30 4429 H 393.59 1.43489 -7.42258 0
M  V30 4430 H 394.858 2.62126 -7.34105 0
M  V30 4431 N 399.087 1.5561 -0.249682 0
M  V30 4432 C 400.312 2.03865 0.381305 0
M  V30 4433 C 400.737 1.12769 1.50548 0
M  V30 4434 O 400.095 0.121189 1.80895 0
M  V30 4435 C 400.143 3.50101 0.863816 0
M  V30 4436 O 399.247 3.62132 1.97318 0
M  V30 4437 H 398.588 0.658827 0.0827194 0
M  V30 4438 H 401.118 2.01105 -0.376552 0
M  V30 4439 H 401.128 3.90975 1.1663 0
M  V30 4440 H 399.803 4.1588 0.0411816 0
M  V30 4441 H 398.38 3.33155 1.67517 0
M  V30 4442 N 400.565 -0.0233959 1.57583 0
M  V30 4443 C 401.512 -1.02224 2.06927 0
M  V30 4444 C 402.482 -1.35575 0.959617 0
M  V30 4445 O 403.667 -1.45815 1.23055 0
M  V30 4446 C 400.807 -2.31636 2.5581 0
M  V30 4447 C 399.92 -2.04394 3.80588 0
M  V30 4448 C 399.055 -3.27717 4.18061 0
M  V30 4449 C 398.094 -2.96056 5.3574 0
M  V30 4450 N 397.231 -4.11847 5.68618 0
M  V30 4451 H 402.071 -0.594504 2.9201 0
M  V30 4452 H 399.608 -0.281921 1.44373 0
M  V30 4453 H 401.566 -3.07258 2.82221 0
M  V30 4454 H 400.196 -2.72122 1.73636 0
M  V30 4455 H 399.248 -1.19244 3.61227 0
M  V30 4456 H 400.56 -1.77042 4.66323 0
M  V30 4457 H 399.714 -4.11702 4.4563 0
M  V30 4458 H 398.453 -3.58188 3.30988 0
M  V30 4459 H 397.458 -2.10474 5.07918 0
M  V30 4460 H 398.683 -2.66857 6.24471 0
M  V30 4461 H 396.629 -4.42258 4.84504 0
M  V30 4462 H 396.546 -3.87938 6.48876 0
M  V30 4463 H 397.814 -4.96689 6.00766 0
M  V30 4464 N 402.043 -1.548 -0.295768 0
M  V30 4465 C 403.32 -1.65014 -1.05023 0
M  V30 4466 C 403.7 -0.501805 -2.05049 0
M  V30 4467 O 403.048 0.500869 -2.22943 0
M  V30 4468 C 403.258 -3.03252 -1.72741 0
M  V30 4469 C 404.606 -3.60242 -2.24746 0
M  V30 4470 O 405.63 -3.05737 -1.82765 0
M  V30 4471 O 404.489 -4.55687 -3.01681 0
M  V30 4472 H 401.583 -0.669314 -0.485744 0
M  V30 4473 H 404.129 -1.67144 -0.293438 0
M  V30 4474 H 402.901 -3.7827 -1.00138 0
M  V30 4475 H 402.524 -3.04922 -2.55163 0
M  V30 4476 N 403.521 0.559213 -1.47345 0
M  V30 4477 C 404.937 0.884943 -1.32819 0
M  V30 4478 C 405.137 1.98988 -0.317173 0
M  V30 4479 O 404.193 2.51031 0.272011 0
M  V30 4480 C 405.506 1.28007 -2.72093 0
M  V30 4481 C 407.054 1.39161 -2.80363 0
M  V30 4482 C 407.529 1.82031 -4.20272 0
M  V30 4483 N 409.02 1.89185 -4.22804 0
M  V30 4484 C 409.755 2.2368 -5.27973 0
M  V30 4485 N 409.251 2.56802 -6.43447 0
M  V30 4486 N 411.044 2.24436 -5.15349 0
M  V30 4487 H 403.195 -0.170304 -2.11716 0
M  V30 4488 H 405.458 -0.0135247 -0.947904 0
M  V30 4489 H 405.164 0.542027 -3.47498 0
M  V30 4490 H 405.038 2.23665 -3.03733 0
M  V30 4491 H 407.425 2.12048 -2.05231 0
M  V30 4492 H 407.506 0.41696 -2.52379 0
M  V30 4493 H 407.15 1.09715 -4.95908 0
M  V30 4494 H 407.08 2.80495 -4.45679 0
M  V30 4495 H 409.571 1.65982 -3.39497 0
M  V30 4496 H 409.884 2.82144 -7.19454 0
M  V30 4497 H 408.229 2.54387 -6.46771 0
M  V30 4498 H 411.42 1.97998 -4.24163 0
M  V30 4499 H 411.593 2.50989 -5.97418 0
M  V30 4500 N 404.999 1.35443 0.805782 0
M  V30 4501 C 405.946 1.28431 1.91766 0
M  V30 4502 C 406.916 0.156102 1.65365 0
M  V30 4503 O 408.101 0.339936 1.87747 0
M  V30 4504 C 405.241 1.06301 3.2832 0
M  V30 4505 C 404.354 2.2805 3.66902 0
M  V30 4506 C 403.489 1.99064 4.92491 0
M  V30 4507 C 402.528 3.16863 5.23703 0
M  V30 4508 N 401.665 2.87647 6.40471 0
M  V30 4509 H 406.505 2.23511 1.97096 0
M  V30 4510 H 404.042 1.11105 0.964054 0
M  V30 4511 H 406 0.915012 4.07042 0
M  V30 4512 H 404.63 0.148822 3.22457 0
M  V30 4513 H 403.682 2.53711 2.83434 0
M  V30 4514 H 404.994 3.1601 3.85927 0
M  V30 4515 H 404.148 1.81099 5.7904 0
M  V30 4516 H 402.887 1.0839 4.75503 0
M  V30 4517 H 401.892 3.35404 4.35642 0
M  V30 4518 H 403.117 4.08339 5.4262 0
M  V30 4519 H 401.063 1.99568 6.24907 0
M  V30 4520 H 400.98 3.69141 6.59751 0
M  V30 4521 H 402.248 2.73226 7.30047 0
M  V30 4522 N 406.477 -1.02803 1.19454 0
M  V30 4523 C 407.424 -2.11099 0.933046 0
M  V30 4524 C 408.394 -1.65571 -0.132447 0
M  V30 4525 O 409.579 -1.90797 0.00987576 0
M  V30 4526 C 406.719 -3.41763 0.478747 0
M  V30 4527 C 405.832 -4.00833 1.6111 0
M  V30 4528 C 404.967 -5.19511 1.10825 0
M  V30 4529 C 404.006 -5.70639 2.21445 0
M  V30 4530 N 403.143 -6.80589 1.72461 0
M  V30 4531 H 407.983 -2.32804 1.86028 0
M  V30 4532 H 405.52 -1.14179 0.927441 0
M  V30 4533 H 407.478 -4.16736 0.196745 0
M  V30 4534 H 406.108 -3.20166 -0.411493 0
M  V30 4535 H 405.16 -3.23066 2.00829 0
M  V30 4536 H 406.472 -4.34794 2.4445 0
M  V30 4537 H 405.626 -6.01645 0.781533 0
M  V30 4538 H 404.365 -4.87086 0.244606 0
M  V30 4539 H 403.37 -4.87116 2.54947 0
M  V30 4540 H 404.595 -6.05102 3.08267 0
M  V30 4541 H 402.541 -6.50016 0.884056 0
M  V30 4542 H 402.458 -7.13681 2.49389 0
M  V30 4543 H 403.726 -7.66317 1.42755 0
M  V30 4544 N 407.956 -0.998596 -1.21925 0
M  V30 4545 C 409.181 -0.696015 -1.95372 0
M  V30 4546 C 409.606 0.733826 -1.73195 0
M  V30 4547 O 408.964 1.50242 -1.01474 0
M  V30 4548 C 409.012 -1.01466 -3.4603 0
M  V30 4549 O 408.116 -0.116415 -4.12236 0
M  V30 4550 H 407.457 -0.259938 -0.611006 0
M  V30 4551 H 409.987 -1.33711 -1.54863 0
M  V30 4552 H 409.997 -0.958855 -3.96573 0
M  V30 4553 H 408.672 -2.05653 -3.61497 0
M  V30 4554 H 407.249 -0.228193 -3.72201 0
M  V30 4555 N 409.434 1.37368 -0.772513 0
M  V30 4556 C 410.845 1.8231 -0.402493 0
M  V30 4557 C 411.196 1.6436 1.07146 0
M  V30 4558 O 410.321 1.15514 1.82991 0
M  V30 4559 C 410.916 3.30979 -0.723776 0
M  V30 4560 C 409.475 3.74195 -0.406802 0
M  V30 4561 C 408.622 2.59885 -0.967218 0
M  V30 4562 H 411.573 1.25829 -0.967099 0
M  V30 4563 H 411.594 3.80499 -0.00870832 0
M  V30 4564 H 411.106 3.44011 -1.7966 0
M  V30 4565 H 409.207 3.66732 0.658673 0
M  V30 4566 H 409.32 4.7027 -0.915588 0
M  V30 4567 H 407.684 2.51674 -0.391416 0
M  V30 4568 H 408.467 2.7571 -2.04546 0
M  V30 4569 N 410.912 0.523116 1.48665 0
M  V30 4570 C 412.161 -0.01544 2.01694 0
M  V30 4571 C 412.474 -1.35975 1.40606 0
M  V30 4572 O 413.68 -1.98627 1.85093 0
M  V30 4573 C 412.136 -0.0779303 3.59816 0
M  V30 4574 C 411.744 1.26107 4.29885 0
M  V30 4575 C 413.488 -0.565678 4.20714 0
M  V30 4576 C 411.395 1.15954 5.79921 0
M  V30 4577 H 410.325 -0.00954163 0.75394 0
M  V30 4578 H 412.976 0.665865 1.70993 0
M  V30 4579 H 411.358 -0.824165 3.87329 0
M  V30 4580 H 412.532 2.02233 4.14051 0
M  V30 4581 H 410.847 1.68401 3.80828 0
M  V30 4582 H 413.444 -0.6595 5.30617 0
M  V30 4583 H 413.787 -1.56984 3.85567 0
M  V30 4584 H 414.32 0.12467 3.97605 0
M  V30 4585 H 411.059 2.13864 6.19631 0
M  V30 4586 H 410.579 0.439529 5.98187 0
M  V30 4587 H 412.258 0.847361 6.41427 0
M  V30 4588 N 412.39 -1.55475 0.257931 0
M  V30 4589 C 413.639 -1.98383 -0.364275 0
M  V30 4590 C 413.952 -1.14952 -1.58258 0
M  V30 4591 O 415.158 -1.47924 -2.27664 0
M  V30 4592 C 413.614 -3.53037 -0.699479 0
M  V30 4593 C 413.222 -4.45223 0.498046 0
M  V30 4594 C 414.966 -4.04575 -1.28526 0
M  V30 4595 C 412.873 -5.91238 0.138383 0
M  V30 4596 H 411.803 -0.740911 -0.13988 0
M  V30 4597 H 414.454 -1.79936 0.359883 0
M  V30 4598 H 412.836 -3.6722 -1.48207 0
M  V30 4599 H 414.01 -4.42803 1.27522 0
M  V30 4600 H 412.325 -4.04226 0.999503 0
M  V30 4601 H 414.922 -5.11196 -1.56788 0
M  V30 4602 H 415.265 -3.5258 -2.21344 0
M  V30 4603 H 415.798 -3.93762 -0.565337 0
M  V30 4604 H 412.537 -6.47294 1.03398 0
M  V30 4605 H 412.057 -5.96768 -0.602374 0
M  V30 4606 H 413.736 -6.46413 -0.27553 0
M  V30 4607 N 413.868 0.0150385 -1.57593 0
M  V30 4608 C 414.816 1.02958 -2.08572 0
M  V30 4609 C 415.81 1.36554 -1.00246 0
M  V30 4610 O 417.016 1.35295 -1.18724 0
M  V30 4611 H 413.391 0.349619 -0.665786 0
M  V30 4612 H 415.362 0.573932 -2.92829 0
M  V30 4613 C 414.111 2.31752 -2.59203 0
M  V30 4614 H 413.434 2.06765 -3.42182 0
M  V30 4615 H 414.874 3.01053 -2.98568 0
M  V30 4616 C 413.333 3.01692 -1.49945 0
M  V30 4617 O 413.863 3.92083 -0.873704 0
M  V30 4618 N 412.069 2.6326 -1.23056 0
M  V30 4619 H 411.616 1.89838 -1.74125 0
M  V30 4620 H 411.574 3.10372 -0.501685 0
M  V30 4621 N 415.346 1.54954 0.287554 0
M  V30 4622 C 416.256 1.8991 1.37736 0
M  V30 4623 C 417.272 0.794701 1.54792 0
M  V30 4624 O 418.448 1.09243 1.69198 0
M  V30 4625 C 415.513 2.15108 2.71899 0
M  V30 4626 C 414.574 3.38752 2.63715 0
M  V30 4627 C 413.807 3.62739 3.91479 0
M  V30 4628 O 414.03 2.89492 4.91478 0
M  V30 4629 O 412.964 4.56267 3.92561 0
M  V30 4630 H 416.79 2.82652 1.11092 0
M  V30 4631 H 414.375 1.41315 0.484807 0
M  V30 4632 H 416.257 2.32806 3.51254 0
M  V30 4633 H 414.932 1.25551 2.9836 0
M  V30 4634 H 413.839 3.26405 1.82786 0
M  V30 4635 H 415.172 4.28483 2.42205 0
M  V30 4636 N 416.824 -0.551391 1.4764 0
M  V30 4637 C 418.049 -1.33837 1.58437 0
M  V30 4638 C 418.474 -1.866 0.237063 0
M  V30 4639 O 417.832 -1.6328 -0.787994 0
M  V30 4640 C 417.88 -2.48014 2.61766 0
M  V30 4641 O 416.984 -3.50419 2.1744 0
M  V30 4642 H 416.325 -0.397299 0.532024 0
M  V30 4643 H 418.855 -0.665759 1.93465 0
M  V30 4644 H 418.865 -2.94503 2.82369 0
M  V30 4645 H 417.54 -2.08969 3.5959 0
M  V30 4646 H 416.117 -3.10196 2.06961 0
M  V30 4647 N 418.302 -1.35869 -0.798587 0
M  V30 4648 C 419.718 -1.16082 -1.09532 0
M  V30 4649 C 419.918 0.0213124 -2.01489 0
M  V30 4650 O 418.974 0.689488 -2.42904 0
M  V30 4651 C 420.287 -2.46748 -1.7186 0
M  V30 4652 C 421.835 -2.53028 -1.84244 0
M  V30 4653 C 422.31 -3.83758 -2.49988 0
M  V30 4654 N 423.801 -3.85053 -2.57465 0
M  V30 4655 C 424.536 -4.8294 -3.09122 0
M  V30 4656 N 424.032 -5.91217 -3.61157 0
M  V30 4657 N 425.825 -4.70369 -3.0775 0
M  V30 4658 H 417.976 -2.11571 -0.187461 0
M  V30 4659 H 420.239 -0.936726 -0.145765 0
M  V30 4660 H 419.945 -3.33471 -1.11759 0
M  V30 4661 H 419.819 -2.61883 -2.71472 0
M  V30 4662 H 422.206 -1.66729 -2.43486 0
M  V30 4663 H 422.287 -2.418 -0.834643 0
M  V30 4664 H 421.931 -4.70459 -1.91393 0
M  V30 4665 H 421.861 -3.92278 -3.5132 0
M  V30 4666 H 424.352 -3.06822 -2.20609 0
M  V30 4667 H 424.665 -6.61892 -3.98896 0
M  V30 4668 H 423.01 -5.94899 -3.59333 0
M  V30 4669 H 426.201 -3.84914 -2.66381 0
M  V30 4670 H 426.374 -5.46816 -3.47701 0
M  V30 4671 N 419.78 1.02168 -1.19998 0
M  V30 4672 C 421.005 1.79833 -1.03319 0
M  V30 4673 C 421.43 1.83504 0.413281 0
M  V30 4674 O 420.788 1.26635 1.29743 0
M  V30 4675 C 420.836 3.22396 -1.61533 0
M  V30 4676 O 419.94 4.03555 -0.849519 0
M  V30 4677 H 419.281 0.554872 -0.364709 0
M  V30 4678 H 421.811 1.28542 -1.59179 0
M  V30 4679 H 421.821 3.73124 -1.65054 0
M  V30 4680 H 420.496 3.19039 -2.66809 0
M  V30 4681 H 419.073 3.62169 -0.888129 0
M  V30 4682 N 421.258 1.00505 1.21394 0
M  V30 4683 C 422.674 0.717873 1.42544 0
M  V30 4684 C 422.874 -0.706936 1.88692 0
M  V30 4685 O 421.93 -1.47627 2.04847 0
M  V30 4686 C 423.243 1.73377 2.45684 0
M  V30 4687 C 424.791 1.75059 2.59467 0
M  V30 4688 C 425.266 2.75545 3.6584 0
M  V30 4689 N 426.757 2.74213 3.73311 0
M  V30 4690 C 427.492 3.48626 4.55245 0
M  V30 4691 N 426.988 4.32678 5.41075 0
M  V30 4692 N 428.781 3.37276 4.49668 0
M  V30 4693 H 420.932 1.92506 0.897503 0
M  V30 4694 H 423.195 0.830919 0.456375 0
M  V30 4695 H 422.901 2.75395 2.18748 0
M  V30 4696 H 422.775 1.53647 3.44489 0
M  V30 4697 H 425.162 0.737337 2.8574 0
M  V30 4698 H 425.243 1.98861 1.60897 0
M  V30 4699 H 424.887 3.77028 3.40313 0
M  V30 4700 H 424.817 2.49009 4.64007 0
M  V30 4701 H 427.308 2.13234 3.11993 0
M  V30 4702 H 427.621 4.86253 6.00648 0
M  V30 4703 H 425.966 4.3676 5.40616 0
M  V30 4704 H 429.157 2.71043 3.81646 0
M  V30 4705 H 429.33 3.95524 5.13288 0
M  V30 4706 N 422.737 -1.36956 0.779787 0
M  V30 4707 C 424.014 -1.93697 0.272156 0
M  V30 4708 C 424.394 -1.71267 -1.23413 0
M  V30 4709 O 423.742 -1.06607 -2.02107 0
M  V30 4710 C 423.952 -3.42812 0.654291 0
M  V30 4711 C 425.3 -4.19921 0.628602 0
M  V30 4712 O 426.324 -3.51209 0.594172 0
M  V30 4713 O 425.183 -5.42465 0.662864 0
M  V30 4714 H 422.277 -0.824447 0.0649286 0
M  V30 4715 H 424.823 -1.46196 0.861682 0
M  V30 4716 H 423.595 -3.52754 1.69353 0
M  V30 4717 H 423.218 -3.97582 0.0381369 0
M  V30 4718 N 424.215 -0.530993 -1.48385 0
M  V30 4719 C 425.631 -0.188919 -1.58478 0
M  V30 4720 C 425.831 1.30786 -1.53288 0
M  V30 4721 O 424.887 2.08619 -1.42248 0
M  V30 4722 C 426.2 -0.792343 -2.90073 0
M  V30 4723 C 427.748 -0.76117 -3.03604 0
M  V30 4724 C 428.223 -1.34319 -4.37861 0
M  V30 4725 N 429.714 -1.3052 -4.44431 0
M  V30 4726 C 430.449 -1.72543 -5.46824 0
M  V30 4727 N 429.945 -2.22299 -6.56167 0
M  V30 4728 N 431.738 -1.63773 -5.37712 0
M  V30 4729 H 423.889 -1.50377 -1.50002 0
M  V30 4730 H 426.152 -0.625559 -0.712306 0
M  V30 4731 H 425.858 -1.84323 -2.99529 0
M  V30 4732 H 425.732 -0.270026 -3.76232 0
M  V30 4733 H 428.119 0.280957 -2.93759 0
M  V30 4734 H 428.2 -1.32097 -2.19053 0
M  V30 4735 H 427.844 -2.38425 -4.4846 0
M  V30 4736 H 427.774 -0.759064 -5.21101 0
M  V30 4737 H 430.265 -0.940973 -3.65997 0
M  V30 4738 H 430.578 -2.52356 -7.30436 0
M  V30 4739 H 428.923 -2.26293 -6.57127 0
M  V30 4740 H 432.114 -1.24698 -4.51185 0
M  V30 4741 H 432.287 -1.96844 -6.17379 0
M  V30 4742 N 425.693 1.55336 -0.266172 0
M  V30 4743 C 426.941 1.99003 0.35246 0
M  V30 4744 C 427.262 1.15591 1.57047 0
M  V30 4745 O 426.532 0.243268 1.94384 0
M  V30 4746 H 425.112 0.735025 0.133217 0
M  V30 4747 H 427.774 1.91367 -0.369434 0
M  V30 4748 H 426.87 3.05289 0.648453 0
M  V30 4749 N 427.171 -0.0066808 1.57599 0
M  V30 4750 C 428.118 -1.00024 2.08 0
M  V30 4751 C 429.088 -1.34549 0.973943 0
M  V30 4752 O 430.273 -1.44502 1.24595 0
M  V30 4753 C 427.413 -2.2891 2.58252 0
M  V30 4754 C 426.526 -2.00346 3.82734 0
M  V30 4755 C 425.661 -3.23265 4.21513 0
M  V30 4756 C 424.7 -2.90357 5.3885 0
M  V30 4757 N 423.837 -4.05793 5.72954 0
M  V30 4758 H 428.677 -0.563499 2.92624 0
M  V30 4759 H 426.214 -0.266592 1.44664 0
M  V30 4760 H 428.172 -3.04247 2.85464 0
M  V30 4761 H 426.802 -2.70265 1.76512 0
M  V30 4762 H 425.854 -1.15406 3.62471 0
M  V30 4763 H 427.166 -1.72086 4.68175 0
M  V30 4764 H 426.32 -4.06953 4.49971 0
M  V30 4765 H 425.059 -3.54657 3.34768 0
M  V30 4766 H 424.064 -2.05075 5.10122 0
M  V30 4767 H 425.289 -2.60219 6.27266 0
M  V30 4768 H 423.235 -4.37094 4.89167 0
M  V30 4769 H 423.152 -3.81034 6.52954 0
M  V30 4770 H 424.42 -4.90289 6.06001 0
M  V30 4771 N 428.649 -1.55105 -0.279332 0
M  V30 4772 C 429.596 -1.8755 -1.34513 0
M  V30 4773 C 430.566 -0.726384 -1.49375 0
M  V30 4774 O 431.751 -0.977063 -1.63884 0
M  V30 4775 C 428.891 -2.14738 -2.70151 0
M  V30 4776 C 428.004 -3.42285 -2.63562 0
M  V30 4777 C 427.139 -3.59206 -3.91337 0
M  V30 4778 C 426.178 -4.80467 -3.79233 0
M  V30 4779 N 425.315 -4.94079 -4.98829 0
M  V30 4780 H 430.155 -2.78456 -1.06143 0
M  V30 4781 H 427.692 -1.37867 -0.512936 0
M  V30 4782 H 429.65 -2.28501 -3.49061 0
M  V30 4783 H 428.28 -1.27075 -2.96735 0
M  V30 4784 H 427.332 -3.37029 -1.76397 0
M  V30 4785 H 428.644 -4.31328 -2.50515 0
M  V30 4786 H 427.798 -3.72751 -4.78687 0
M  V30 4787 H 426.537 -2.68337 -4.07243 0
M  V30 4788 H 425.542 -4.66932 -2.90266 0
M  V30 4789 H 426.767 -5.72765 -3.64852 0
M  V30 4790 H 424.713 -4.06139 -5.15158 0
M  V30 4791 H 424.63 -5.77156 -4.8829 0
M  V30 4792 H 425.898 -5.12003 -5.8777 0
M  V30 4793 N 430.127 0.543554 -1.4793 0
M  V30 4794 C 431.352 1.32995 -1.59145 0
M  V30 4795 C 431.777 1.86472 -0.246956 0
M  V30 4796 O 431.135 1.63696 0.779324 0
M  V30 4797 C 431.183 2.46623 -2.63077 0
M  V30 4798 O 430.287 3.49261 -2.19295 0
M  V30 4799 H 429.628 0.394472 -0.534124 0
M  V30 4800 H 432.158 0.655489 -1.93816 0
M  V30 4801 H 432.168 2.93001 -2.83926 0
M  V30 4802 H 430.843 2.07059 -3.60693 0
M  V30 4803 H 429.42 3.09094 -2.08603 0
M  V30 4804 N 431.605 1.3629 0.791371 0
M  V30 4805 C 433.021 1.16661 1.08914 0
M  V30 4806 C 433.221 -0.0106266 2.01497 0
M  V30 4807 O 432.277 -0.676596 2.43266 0
M  V30 4808 C 433.59 2.47656 1.70549 0
M  V30 4809 C 435.138 2.54002 1.82899 0
M  V30 4810 C 435.613 3.85078 2.47949 0
M  V30 4811 N 437.104 3.86413 2.5542 0
M  V30 4812 C 437.839 4.84572 3.06557 0
M  V30 4813 N 437.335 5.93124 3.58016 0
M  V30 4814 N 439.128 4.71994 3.05251 0
M  V30 4815 H 431.279 2.11668 0.176238 0
M  V30 4816 H 433.542 0.937486 0.140796 0
M  V30 4817 H 433.248 3.34059 1.09989 0
M  V30 4818 H 433.122 2.63319 2.70079 0
M  V30 4819 H 435.509 1.68018 2.42598 0
M  V30 4820 H 435.59 2.42239 0.821808 0
M  V30 4821 H 435.234 4.71467 1.88895 0
M  V30 4822 H 435.164 3.94135 3.49235 0
M  V30 4823 H 437.655 3.07988 2.18979 0
M  V30 4824 H 437.968 6.63999 3.95381 0
M  V30 4825 H 436.313 5.96796 3.56173 0
M  V30 4826 H 439.504 3.86321 2.64336 0
M  V30 4827 H 439.677 5.48653 3.44796 0
M  V30 4828 N 433.083 -1.0153 1.20538 0
M  V30 4829 C 434.308 -1.79283 1.04271 0
M  V30 4830 C 434.733 -1.8372 -0.403544 0
M  V30 4831 O 434.091 -1.27321 -1.2907 0
M  V30 4832 C 434.139 -3.21535 1.63241 0
M  V30 4833 O 433.243 -4.03099 0.870908 0
M  V30 4834 H 432.584 -0.55293 0.367647 0
M  V30 4835 H 435.114 -1.27696 1.59859 0
M  V30 4836 H 435.124 -3.72243 1.6703 0
M  V30 4837 H 433.799 -3.1762 2.68497 0
M  V30 4838 H 432.376 -3.61693 0.907323 0
M  V30 4839 N 434.561 -1.01147 -1.20859 0
M  V30 4840 C 435.972 -0.730205 -1.71828 0
M  V30 4841 C 436.323 0.751662 -1.8123 0
M  V30 4842 O 435.448 1.58686 -1.47132 0
M  V30 4843 C 436.043 -1.31885 -3.12077 0
M  V30 4844 C 434.602 -1.08656 -3.60376 0
M  V30 4845 C 433.749 -1.42769 -2.37723 0
M  V30 4846 H 436.7 -1.18158 -1.05945 0
M  V30 4847 H 436.721 -0.706793 -3.73878 0
M  V30 4848 H 436.233 -2.39737 -3.05201 0
M  V30 4849 H 434.334 -0.0254814 -3.72591 0
M  V30 4850 H 434.447 -1.76301 -4.45483 0
M  V30 4851 H 432.811 -0.846603 -2.40218 0
M  V30 4852 H 433.594 -2.51666 -2.33493 0
M  V30 4853 N 436.039 1.36541 -0.78704 0
M  V30 4854 C 437.285 1.99599 -0.358872 0
M  V30 4855 C 437.618 1.62323 1.06606 0
M  V30 4856 O 436.893 0.876858 1.73613 0
M  V30 4857 C 437.176 3.56327 -0.519944 0
M  V30 4858 C 437.029 4.03464 -1.98839 0
M  V30 4859 C 438.348 4.4005 0.0664737 0
M  V30 4860 H 435.467 0.725107 -0.131869 0
M  V30 4861 H 438.109 1.6199 -0.992936 0
M  V30 4862 H 436.259 3.88495 0.0198321 0
M  V30 4863 H 437.931 3.81793 -2.58905 0
M  V30 4864 H 436.174 3.55092 -2.49183 0
M  V30 4865 H 436.845 5.12439 -2.05207 0
M  V30 4866 H 439.321 4.14228 -0.394267 0
M  V30 4867 H 438.197 5.48847 -0.0762682 0
M  V30 4868 H 438.458 4.26655 1.15835 0
M  V30 4869 N 437.518 0.538854 1.48102 0
M  V30 4870 C 438.795 -0.0568108 1.95517 0
M  V30 4871 C 439.175 -1.50408 1.48124 0
M  V30 4872 O 438.523 -2.17133 0.711727 0
M  V30 4873 C 438.733 0.0696262 3.48931 0
M  V30 4874 C 440.081 -0.0851202 4.24515 0
M  V30 4875 O 441.105 -0.0037347 3.562 0
M  V30 4876 O 439.964 -0.257025 5.45895 0
M  V30 4877 H 437.058 -0.0743695 0.823649 0
M  V30 4878 H 439.604 0.604081 1.58584 0
M  V30 4879 H 438.376 1.07744 3.76174 0
M  V30 4880 H 437.999 -0.629714 3.92582 0
M  V30 4881 N 438.996 -1.55193 0.274407 0
M  V30 4882 C 439.926 -2.25471 -0.607032 0
M  V30 4883 C 440.907 -1.24461 -1.15946 0
M  V30 4884 O 442.092 -1.53179 -1.19373 0
M  V30 4885 C 439.222 -2.97526 -1.79153 0
M  V30 4886 C 438.176 -4.05459 -1.37067 0
M  V30 4887 C 437.502 -4.65084 -2.6382 0
M  V30 4888 C 438.802 -5.19691 -0.521389 0
M  V30 4889 H 440.496 -2.99393 -0.0209343 0
M  V30 4890 H 438.042 -1.43997 -0.00862866 0
M  V30 4891 H 439.995 -3.45402 -2.41404 0
M  V30 4892 H 438.719 -2.21138 -2.40344 0
M  V30 4893 H 437.378 -3.58393 -0.771355 0
M  V30 4894 H 437.026 -3.85365 -3.23268 0
M  V30 4895 H 436.726 -5.37961 -2.36372 0
M  V30 4896 H 438.25 -5.15708 -3.26921 0
M  V30 4897 H 439.664 -5.63623 -1.04889 0
M  V30 4898 H 438.061 -5.99126 -0.341825 0
M  V30 4899 H 439.131 -4.82713 0.46 0
M  V30 4900 N 440.474 -0.00167713 -1.576 0
M  V30 4901 C 441.89 0.354422 -1.55615 0
M  V30 4902 C 442.09 1.74679 -1.00447 0
M  V30 4903 O 441.146 2.4428 -0.639022 0
M  V30 4904 C 442.459 0.22812 -2.99833 0
M  V30 4905 C 444.007 0.302934 -3.11531 0
M  V30 4906 C 444.482 0.205737 -4.57538 0
M  V30 4907 N 445.973 0.263584 -4.62449 0
M  V30 4908 C 446.708 0.211742 -5.73009 0
M  V30 4909 N 446.204 0.110399 -6.92712 0
M  V30 4910 N 447.997 0.263729 -5.61481 0
M  V30 4911 H 440.148 -0.912498 -1.918 0
M  V30 4912 H 442.411 -0.349928 -0.881053 0
M  V30 4913 H 442.117 -0.729934 -3.44042 0
M  V30 4914 H 441.991 1.00951 -3.6344 0
M  V30 4915 H 444.378 1.25143 -2.67251 0
M  V30 4916 H 444.459 -0.508357 -2.50698 0
M  V30 4917 H 444.103 -0.739225 -5.02492 0
M  V30 4918 H 444.033 1.03554 -5.16318 0
M  V30 4919 H 446.524 0.343173 -3.76339 0
M  V30 4920 H 446.837 0.0767828 -7.72762 0
M  V30 4921 H 445.182 0.0760025 -6.94958 0
M  V30 4922 H 448.373 0.34111 -4.66855 0
M  V30 4923 H 448.546 0.219862 -6.47627 0
M  V30 4924 N 441.952 1.55251 0.271103 0
M  V30 4925 C 443.2 1.75599 1.00047 0
M  V30 4926 C 443.521 0.561188 1.8675 0
M  V30 4927 O 442.791 -0.423846 1.9126 0
M  V30 4928 H 441.371 0.647562 0.372387 0
M  V30 4929 H 444.033 1.92656 0.294876 0
M  V30 4930 H 443.129 2.65766 1.6363 0
M  V30 4931 N 443.43 -0.535701 1.48216 0
M  V30 4932 C 444.377 -1.64083 1.62312 0
M  V30 4933 C 445.347 -1.59448 0.465365 0
M  V30 4934 O 446.532 -1.77959 0.688135 0
M  V30 4935 C 443.672 -3.0236 1.66349 0
M  V30 4936 C 442.785 -3.17273 2.93193 0
M  V30 4937 C 441.92 -4.46075 2.88427 0
M  V30 4938 C 440.959 -4.54496 4.1 0
M  V30 4939 N 440.096 -5.7468 4.03345 0
M  V30 4940 H 444.936 -1.51374 2.5669 0
M  V30 4941 H 442.473 -0.737059 1.27302 0
M  V30 4942 H 444.431 -3.82461 1.66672 0
M  V30 4943 H 443.061 -3.13854 0.754672 0
M  V30 4944 H 442.113 -2.30462 3.02641 0
M  V30 4945 H 443.425 -3.19357 3.83162 0
M  V30 4946 H 442.579 -5.3446 2.87119 0
M  V30 4947 H 441.318 -4.46504 1.96177 0
M  V30 4948 H 440.323 -3.64519 4.11589 0
M  V30 4949 H 441.548 -4.5581 5.03402 0
M  V30 4950 H 439.494 -5.76017 3.13912 0
M  V30 4951 H 439.411 -5.78234 4.87013 0
M  V30 4952 H 440.679 -6.65367 4.06087 0
M  V30 4953 N 444.908 -1.36708 -0.784132 0
M  V30 4954 C 446.133 -1.34565 -1.5782 0
M  V30 4955 C 446.558 0.0695257 -1.87971 0
M  V30 4956 O 445.916 1.04302 -1.48293 0
M  V30 4957 C 445.964 -2.17952 -2.87279 0
M  V30 4958 O 445.068 -1.57563 -3.81114 0
M  V30 4959 H 444.409 -0.460337 -0.478524 0
M  V30 4960 H 446.939 -1.80064 -0.971495 0
M  V30 4961 H 446.949 -2.30721 -3.365 0
M  V30 4962 H 445.624 -3.20823 -2.64661 0
M  V30 4963 H 444.201 -1.53764 -3.39722 0
M  V30 4964 N 446.386 1.0089 -1.21074 0
M  V30 4965 C 447.333 2.09588 -0.966512 0
M  V30 4966 C 448.303 1.65761 0.106089 0
M  V30 4967 O 449.488 1.90758 -0.0402287 0
M  V30 4968 C 446.628 3.40958 -0.533058 0
M  V30 4969 C 445.741 3.9822 -1.67467 0
M  V30 4970 C 444.876 5.17682 -1.19076 0
M  V30 4971 C 443.915 5.67043 -2.30496 0
M  V30 4972 N 443.052 6.77759 -1.83267 0
M  V30 4973 H 447.892 2.29815 -1.89708 0
M  V30 4974 H 445.429 1.12689 -0.945489 0
M  V30 4975 H 447.387 4.1637 -0.263019 0
M  V30 4976 H 446.017 3.20781 0.360505 0
M  V30 4977 H 445.069 3.1983 -2.05944 0
M  V30 4978 H 446.381 4.3085 -2.51336 0
M  V30 4979 H 445.535 6.00326 -0.877151 0
M  V30 4980 H 444.274 4.86635 -0.322066 0
M  V30 4981 H 443.279 4.82999 -2.62664 0
M  V30 4982 H 444.504 6.00121 -3.17855 0
M  V30 4983 H 442.45 6.48527 -0.987356 0
M  V30 4984 H 442.367 7.09624 -2.60711 0
M  V30 4985 H 443.635 7.63949 -1.54928 0
M  V30 4986 N 447.864 1.01787 1.20321 0
M  V30 4987 C 449.141 0.622978 1.85414 0
M  V30 4988 C 449.521 -0.898887 1.91006 0
M  V30 4989 O 448.869 -1.79112 1.41884 0
M  V30 4990 C 449.079 1.27226 3.24984 0
M  V30 4991 C 450.427 1.3885 4.01255 0
M  V30 4992 O 451.451 1.22857 3.34342 0
M  V30 4993 O 450.31 1.64705 5.2109 0
M  V30 4994 H 447.404 0.215116 0.798533 0
M  V30 4995 H 449.95 1.11533 1.27901 0
M  V30 4996 H 448.722 2.31209 3.15687 0
M  V30 4997 H 448.345 0.767069 3.90131 0
M  V30 4998 N 449.342 -1.36122 0.79427 0
M  V30 4999 C 450.758 -1.5232 0.476525 0
M  V30 5000 C 450.958 -1.74685 -1.00436 0
M  V30 5001 O 450.014 -1.78115 -1.78973 0
M  V30 5002 C 451.327 -2.70607 1.31119 0
M  V30 5003 C 452.875 -2.8448 1.30537 0
M  V30 5004 C 453.35 -4.05778 2.12387 0
M  V30 5005 N 454.841 -4.12933 2.09859 0
M  V30 5006 C 455.576 -5.05876 2.69957 0
M  V30 5007 N 455.072 -6.04232 3.38934 0
M  V30 5008 N 456.865 -4.98528 2.59665 0
M  V30 5009 H 449.016 -1.1986 1.75349 0
M  V30 5010 H 451.279 -0.585418 0.745647 0
M  V30 5011 H 450.985 -2.60619 2.36158 0
M  V30 5012 H 450.859 -3.64888 0.955843 0
M  V30 5013 H 453.246 -2.93927 0.262876 0
M  V30 5014 H 453.327 -1.91093 1.70051 0
M  V30 5015 H 452.971 -3.97092 3.1667 0
M  V30 5016 H 452.901 -4.98323 1.70242 0
M  V30 5017 H 455.392 -3.42515 1.59662 0
M  V30 5018 H 455.705 -6.71724 3.82109 0
M  V30 5019 H 454.05 -6.04443 3.43036 0
M  V30 5020 H 457.241 -4.20641 2.05375 0
M  V30 5021 H 457.414 -5.70773 3.06793 0
M  V30 5022 N 450.82 -0.546701 -1.47814 0
M  V30 5023 C 452.236 -0.205717 -1.58269 0
M  V30 5024 C 452.436 1.29153 -1.54667 0
M  V30 5025 O 451.492 2.07098 -1.44453 0
M  V30 5026 C 452.805 -0.823065 -2.89216 0
M  V30 5027 C 454.353 -0.793328 -3.02779 0
M  V30 5028 C 454.828 -1.38955 -4.36412 0
M  V30 5029 N 456.319 -1.35227 -4.43021 0
M  V30 5030 C 457.054 -1.78333 -5.44963 0
M  V30 5031 N 456.55 -2.29246 -6.53772 0
M  V30 5032 N 458.343 -1.69467 -5.35945 0
M  V30 5033 H 450.494 -1.5196 -1.48398 0
M  V30 5034 H 452.757 -0.633078 -0.705632 0
M  V30 5035 H 452.463 -1.8749 -2.97558 0
M  V30 5036 H 452.337 -0.309915 -3.75925 0
M  V30 5037 H 454.724 0.249784 -2.94041 0
M  V30 5038 H 454.805 -1.34412 -2.17639 0
M  V30 5039 H 454.449 -2.43168 -4.45906 0
M  V30 5040 H 454.379 -0.814291 -5.20266 0
M  V30 5041 H 456.87 -0.979739 -3.64979 0
M  V30 5042 H 457.183 -2.60089 -7.27718 0
M  V30 5043 H 455.528 -2.3325 -6.5469 0
M  V30 5044 H 458.719 -1.29477 -4.49837 0
M  V30 5045 H 458.892 -2.03381 -6.15256 0
M  V30 5046 N 452.299 1.55045 -0.282633 0
M  V30 5047 C 453.524 2.04628 0.337977 0
M  V30 5048 C 453.949 1.15937 1.48123 0
M  V30 5049 O 453.307 0.159532 1.80597 0
M  V30 5050 C 453.355 3.51854 0.78936 0
M  V30 5051 O 452.459 3.66236 1.89592 0
M  V30 5052 H 451.8 0.660434 0.0687261 0
M  V30 5053 H 454.33 2.00261 -0.419124 0
M  V30 5054 H 454.34 3.93361 1.08311 0
M  V30 5055 H 453.015 4.15873 -0.0470419 0
M  V30 5056 H 451.592 3.36633 1.60413 0
M  V30 5057 N 453.777 0.010035 1.57597 0
M  V30 5058 C 455.193 -0.346164 1.55801 0
M  V30 5059 C 455.393 -1.74144 1.01371 0
M  V30 5060 O 454.449 -2.43938 0.651968 0
M  V30 5061 C 455.762 -0.212216 2.9995 0
M  V30 5062 C 457.31 -0.286409 3.11687 0
M  V30 5063 C 457.785 -0.18147 4.5764 0
M  V30 5064 N 459.276 -0.239056 4.62583 0
M  V30 5065 C 460.011 -0.181351 5.73113 0
M  V30 5066 N 459.507 -0.073661 6.92761 0
M  V30 5067 N 461.3 -0.233949 5.61613 0
M  V30 5068 H 453.451 0.922657 1.91313 0
M  V30 5069 H 455.714 0.354595 0.879185 0
M  V30 5070 H 455.42 0.748169 3.4365 0
M  V30 5071 H 455.294 -0.990224 3.6397 0
M  V30 5072 H 457.681 -1.23724 2.67911 0
M  V30 5073 H 457.762 0.521645 2.50425 0
M  V30 5074 H 457.406 0.765863 5.02093 0
M  V30 5075 H 457.336 -1.00814 5.1686 0
M  V30 5076 H 459.827 -0.32321 3.76515 0
M  V30 5077 H 460.14 -0.0358003 7.72792 0
M  V30 5078 H 458.485 -0.0391461 6.94989 0
M  V30 5079 H 461.676 -0.316347 4.6703 0
M  V30 5080 H 461.849 -0.185514 6.47734 0
M  V30 5081 N 455.255 -1.55392 -0.262866 0
M  V30 5082 C 456.48 -1.80847 -1.01533 0
M  V30 5083 C 456.905 -0.584946 -1.78774 0
M  V30 5084 O 456.263 0.465701 -1.75217 0
M  V30 5085 C 456.311 -3.03866 -1.94159 0
M  V30 5086 O 455.415 -2.79662 -3.03089 0
M  V30 5087 H 454.756 -0.597441 -0.289759 0
M  V30 5088 H 457.286 -2.02553 -0.288698 0
M  V30 5089 H 457.296 -3.32872 -2.35924 0
M  V30 5090 H 455.971 -3.92564 -1.37354 0
M  V30 5091 H 454.548 -2.61781 -2.65566 0
M  V30 5092 N 456.733 0.527833 -1.48498 0
M  V30 5093 C 457.68 1.6322 -1.6318 0
M  V30 5094 C 458.65 1.59199 -0.473815 0
M  V30 5095 O 459.835 1.77591 -0.697563 0
M  V30 5096 C 456.975 3.01474 -1.67951 0
M  V30 5097 C 456.088 3.15713 -2.94871 0
M  V30 5098 C 455.223 4.44539 -2.90789 0
M  V30 5099 C 454.262 4.52315 -4.12404 0
M  V30 5100 N 453.399 5.72533 -4.06387 0
M  V30 5101 H 458.239 1.50011 -2.57489 0
M  V30 5102 H 455.776 0.730298 -1.27691 0
M  V30 5103 H 457.734 3.81572 -1.68698 0
M  V30 5104 H 456.364 3.1345 -0.771306 0
M  V30 5105 H 455.416 2.28854 -3.03859 0
M  V30 5106 H 456.728 3.1732 -3.8485 0
M  V30 5107 H 455.882 5.3293 -2.89949 0
M  V30 5108 H 454.621 4.45457 -1.98542 0
M  V30 5109 H 453.626 3.62331 -4.13517 0
M  V30 5110 H 454.851 4.53134 -5.05812 0
M  V30 5111 H 452.797 5.74344 -3.16962 0
M  V30 5112 H 452.714 5.75643 -4.90073 0
M  V30 5113 H 453.982 6.63204 -4.0961 0
M  V30 5114 N 458.211 1.37122 0.776871 0
M  V30 5115 C 459.121 1.34651 1.9211 0
M  V30 5116 C 460.137 0.246824 1.7224 0
M  V30 5117 O 461.313 0.48134 1.95563 0
M  V30 5118 C 458.378 1.14748 3.2716 0
M  V30 5119 C 457.439 2.34308 3.5972 0
M  V30 5120 C 456.672 2.15345 4.88326 0
M  V30 5121 O 456.895 1.13507 5.58992 0
M  V30 5122 O 455.829 3.03414 5.1983 0
M  V30 5123 H 459.655 2.31013 1.97146 0
M  V30 5124 H 457.24 1.17799 0.918901 0
M  V30 5125 H 459.122 1.05616 4.0795 0
M  V30 5126 H 457.797 0.214562 3.22988 0
M  V30 5127 H 456.704 2.49011 2.79185 0
M  V30 5128 H 458.037 3.26149 3.68629 0
M  V30 5129 N 459.689 -1.00246 1.21608 0
M  V30 5130 C 461.105 -1.26435 0.973975 0
M  V30 5131 C 461.305 -1.98642 -0.338143 0
M  V30 5132 O 460.361 -2.29026 -1.06317 0
M  V30 5133 C 461.674 -2.08551 2.16626 0
M  V30 5134 C 463.222 -2.21769 2.20879 0
M  V30 5135 C 463.697 -3.07267 3.39633 0
M  V30 5136 N 465.188 -3.14855 3.39736 0
M  V30 5137 C 465.923 -3.81274 4.28273 0
M  V30 5138 N 465.419 -4.497 5.27012 0
M  V30 5139 N 467.212 -3.7794 4.16074 0
M  V30 5140 H 459.363 -0.518089 2.05984 0
M  V30 5141 H 461.626 -0.291368 0.902113 0
M  V30 5142 H 461.332 -1.62847 3.11727 0
M  V30 5143 H 461.206 -3.09303 2.15897 0
M  V30 5144 H 463.593 -2.66691 1.26332 0
M  V30 5145 H 463.674 -1.20478 2.25652 0
M  V30 5146 H 463.318 -2.63047 4.34475 0
M  V30 5147 H 463.248 -4.08678 3.321 0
M  V30 5148 H 465.739 -2.66147 2.6828 0
M  V30 5149 H 466.052 -4.98092 5.90867 0
M  V30 5150 H 464.397 -4.48479 5.30935 0
M  V30 5151 H 467.588 -3.23638 3.38195 0
M  V30 5152 H 467.761 -4.29424 4.85282 0
M  V30 5153 N 461.167 -1.02423 -1.1978 0
M  V30 5154 C 462.114 -0.601023 -2.22837 0
M  V30 5155 C 463.084 0.382801 -1.61629 0
M  V30 5156 O 464.269 0.280514 -1.88727 0
M  V30 5157 C 461.409 0.0467755 -3.45068 0
M  V30 5158 C 460.522 -0.98253 -4.20678 0
M  V30 5159 C 459.657 -0.304982 -5.30324 0
M  V30 5160 C 458.696 -1.32052 -5.97686 0
M  V30 5161 N 457.833 -0.669105 -6.98904 0
M  V30 5162 H 462.673 -1.48444 -2.58396 0
M  V30 5163 H 460.21 -0.742936 -1.2696 0
M  V30 5164 H 462.168 0.439556 -4.14878 0
M  V30 5165 H 460.798 0.893796 -3.10179 0
M  V30 5166 H 459.85 -1.49341 -3.49859 0
M  V30 5167 H 461.162 -1.75455 -4.66923 0
M  V30 5168 H 460.316 0.142893 -6.06532 0
M  V30 5169 H 459.055 0.499283 -4.85138 0
M  V30 5170 H 458.06 -1.7787 -5.20233 0
M  V30 5171 H 459.285 -2.1262 -6.44957 0
M  V30 5172 H 457.231 0.115152 -6.55899 0
M  V30 5173 H 457.148 -1.37908 -7.43315 0
M  V30 5174 H 458.416 -0.245076 -7.79115 0
M  V30 5175 N 462.645 1.35699 -0.801477 0
M  V30 5176 C 463.87 2.03687 -0.390678 0
M  V30 5177 C 464.295 1.60015 0.988778 0
M  V30 5178 O 463.653 0.774357 1.63931 0
M  V30 5179 C 463.701 3.57439 -0.476404 0
M  V30 5180 O 462.805 4.09208 0.512106 0
M  V30 5181 H 462.146 0.64344 -0.163956 0
M  V30 5182 H 464.676 1.73403 -1.08594 0
M  V30 5183 H 464.686 4.06544 -0.344357 0
M  V30 5184 H 463.361 3.88576 -1.48262 0
M  V30 5185 H 461.938 3.7134 0.340721 0
M  V30 5186 N 464.123 0.554532 1.47522 0
M  V30 5187 C 465.07 -0.19466 2.29978 0
M  V30 5188 C 466.04 -0.910882 1.38896 0
M  V30 5189 O 467.225 -0.907102 1.67858 0
M  V30 5190 C 464.365 -1.22035 3.22802 0
M  V30 5191 C 463.478 -0.510474 4.28973 0
M  V30 5192 C 462.613 -1.52123 5.08952 0
M  V30 5193 C 461.652 -0.796173 6.069 0
M  V30 5194 N 460.789 -1.75363 6.79847 0
M  V30 5195 H 465.629 0.51461 2.93523 0
M  V30 5196 H 463.166 0.265607 1.44682 0
M  V30 5197 H 465.124 -1.8276 3.7504 0
M  V30 5198 H 463.754 -1.89769 2.61127 0
M  V30 5199 H 462.806 0.211234 3.79813 0
M  V30 5200 H 464.118 0.0576503 4.98767 0
M  V30 5201 H 463.272 -2.20207 5.65326 0
M  V30 5202 H 462.011 -2.12327 4.39054 0
M  V30 5203 H 461.016 -0.101388 5.49707 0
M  V30 5204 H 462.241 -0.199911 6.78806 0
M  V30 5205 H 460.187 -2.3443 6.12682 0
M  V30 5206 H 460.104 -1.23759 7.45801 0
M  V30 5207 H 461.372 -2.4257 7.40797 0
M  V30 5208 N 465.601 -1.54893 0.290851 0
M  V30 5209 C 467.017 -1.59476 -0.0628432 0
M  V30 5210 C 467.217 -1.30795 -1.5328 0
M  V30 5211 O 466.273 -1.07644 -2.28406 0
M  V30 5212 C 467.586 -2.98928 0.325962 0
M  V30 5213 C 469.134 -3.11799 0.273882 0
M  V30 5214 C 469.609 -4.53544 0.637359 0
M  V30 5215 N 471.1 -4.59433 0.589507 0
M  V30 5216 C 471.835 -5.67164 0.84335 0
M  V30 5217 N 471.331 -6.82975 1.16263 0
M  V30 5218 N 473.124 -5.56786 0.771091 0
M  V30 5219 H 465.275 -1.71798 1.24896 0
M  V30 5220 H 467.538 -0.801879 0.505663 0
M  V30 5221 H 467.244 -3.24805 1.34887 0
M  V30 5222 H 467.118 -3.75793 -0.325441 0
M  V30 5223 H 469.505 -2.85677 -0.739765 0
M  V30 5224 H 469.586 -2.37112 0.959766 0
M  V30 5225 H 469.23 -4.80394 1.64877 0
M  V30 5226 H 469.16 -5.26553 -0.0704866 0
M  V30 5227 H 471.651 -3.76245 0.353252 0
M  V30 5228 H 471.964 -7.61048 1.34257 0
M  V30 5229 H 470.309 -6.84552 1.20057 0
M  V30 5230 H 473.5 -4.65187 0.521383 0
M  V30 5231 H 473.673 -6.40664 0.972295 0
M  V30 5232 N 467.08 -0.0183926 -1.57589 0
M  V30 5233 C 468.305 0.676634 -1.96052 0
M  V30 5234 C 468.73 1.6548 -0.894307 0
M  V30 5235 O 468.088 1.80712 0.145849 0
M  V30 5236 C 468.136 1.36872 -3.33614 0
M  V30 5237 O 467.24 2.48372 -3.29219 0
M  V30 5238 H 466.581 0.1786 -0.63953 0
M  V30 5239 H 469.111 -0.077056 -2.04455 0
M  V30 5240 H 469.121 1.72797 -3.69601 0
M  V30 5241 H 467.796 0.651636 -4.10763 0
M  V30 5242 H 466.373 2.14639 -3.04934 0
M  V30 5243 N 468.558 1.5553 0.254621 0
M  V30 5244 C 469.468 1.92789 1.33677 0
M  V30 5245 C 470.484 0.827356 1.53071 0
M  V30 5246 O 471.66 1.12807 1.66843 0
M  V30 5247 C 468.725 2.20827 2.67275 0
M  V30 5248 C 467.786 3.4427 2.5647 0
M  V30 5249 C 467.019 3.70961 3.83697 0
M  V30 5250 O 467.242 2.99852 4.85227 0
M  V30 5251 O 466.176 4.64491 3.82794 0
M  V30 5252 H 470.002 2.84945 1.05071 0
M  V30 5253 H 467.587 1.42312 0.454723 0
M  V30 5254 H 469.469 2.40204 3.46237 0
M  V30 5255 H 468.144 1.31851 2.9563 0
M  V30 5256 H 467.051 3.30209 1.75821 0
M  V30 5257 H 468.384 4.33524 2.33062 0
M  V30 5258 N 470.036 -0.519951 1.48776 0
M  V30 5259 C 471.264 -1.29971 1.60982 0
M  V30 5260 C 471.679 -1.86803 0.273885 0
M  V30 5261 O 471.036 -1.66904 -0.738193 0
M  V30 5262 C 471.087 -2.44346 2.66415 0
M  V30 5263 O 470.808 -1.89855 3.94825 0
M  V30 5264 C 472.309 -3.36014 2.89153 0
M  V30 5265 H 469.529 -0.394891 0.542496 0
M  V30 5266 H 472.073 -0.626214 1.94676 0
M  V30 5267 H 470.228 -3.07562 2.35552 0
M  V30 5268 H 470.642 -2.64798 4.5275 0
M  V30 5269 H 472.116 -4.12593 3.66703 0
M  V30 5270 H 472.593 -3.91859 1.98351 0
M  V30 5271 H 473.199 -2.78582 3.21359 0
M  V30 5272 N 471.514 -1.37532 -0.769588 0
M  V30 5273 C 472.791 -1.23392 -1.51768 0
M  V30 5274 C 473.171 0.17157 -2.10402 0
M  V30 5275 O 472.519 1.17943 -1.95708 0
M  V30 5276 C 472.729 -2.33163 -2.59685 0
M  V30 5277 C 474.077 -2.70809 -3.27028 0
M  V30 5278 O 475.101 -2.32355 -2.69981 0
M  V30 5279 O 473.96 -3.37066 -4.30173 0
M  V30 5280 H 471.054 -0.481617 -0.67229 0
M  V30 5281 H 473.6 -1.49318 -0.806368 0
M  V30 5282 H 472.372 -3.27273 -2.14494 0
M  V30 5283 H 471.995 -2.08713 -3.38415 0
M  V30 5284 N 472.992 0.995999 -1.22138 0
M  V30 5285 C 473.939 2.08551 -0.988687 0
M  V30 5286 C 474.909 1.65864 0.0885021 0
M  V30 5287 O 476.094 1.90704 -0.0604589 0
M  V30 5288 C 473.234 3.40374 -0.569191 0
M  V30 5289 C 472.347 3.96421 -1.71681 0
M  V30 5290 C 471.482 5.1639 -1.2456 0
M  V30 5291 C 470.521 5.64567 -2.36497 0
M  V30 5292 N 469.658 6.75777 -1.90445 0
M  V30 5293 H 474.498 2.2779 -1.92135 0
M  V30 5294 H 472.035 1.1168 -0.957388 0
M  V30 5295 H 473.993 4.16068 -0.307166 0
M  V30 5296 H 472.623 3.21145 0.326462 0
M  V30 5297 H 471.675 3.17628 -2.09324 0
M  V30 5298 H 472.987 4.2816 -2.55891 0
M  V30 5299 H 472.141 5.99362 -0.940774 0
M  V30 5300 H 470.88 4.86266 -0.373662 0
M  V30 5301 H 469.885 4.80185 -2.67772 0
M  V30 5302 H 471.11 5.96716 -3.24202 0
M  V30 5303 H 469.056 6.47443 -1.05609 0
M  V30 5304 H 468.973 7.06818 -2.68223 0
M  V30 5305 H 470.241 7.62262 -1.63022 0
M  V30 5306 N 474.47 1.03057 1.19235 0
M  V30 5307 C 475.38 0.622922 2.26179 0
M  V30 5308 C 476.396 -0.346113 1.70523 0
M  V30 5309 O 477.572 -0.203572 2.00369 0
M  V30 5310 C 474.637 -0.0182063 3.46695 0
M  V30 5311 C 473.698 0.998546 4.17526 0
M  V30 5312 C 472.931 0.387917 5.32288 0
M  V30 5313 O 473.154 -0.808668 5.64639 0
M  V30 5314 O 472.088 1.1116 5.91546 0
M  V30 5315 H 475.914 1.51363 2.63292 0
M  V30 5316 H 473.499 0.800856 1.26122 0
M  V30 5317 H 475.381 -0.375606 4.19723 0
M  V30 5318 H 474.056 -0.882895 3.11427 0
M  V30 5319 H 472.963 1.40756 3.4661 0
M  V30 5320 H 474.296 1.83366 4.56769 0
M  V30 5321 N 475.948 -1.35272 0.808662 0
M  V30 5322 C 476.895 -2.29764 0.218482 0
M  V30 5323 C 477.865 -1.52911 -0.648652 0
M  V30 5324 O 479.05 -1.81341 -0.593297 0
M  V30 5325 C 476.19 -3.39388 -0.625282 0
M  V30 5326 C 475.303 -4.31202 0.262516 0
M  V30 5327 C 474.438 -5.27919 -0.589451 0
M  V30 5328 C 473.477 -6.11371 0.298617 0
M  V30 5329 N 472.614 -7.0022 -0.513443 0
M  V30 5330 H 477.454 -2.79645 1.02968 0
M  V30 5331 H 474.991 -1.37629 0.519303 0
M  V30 5332 H 476.949 -4.01615 -1.12966 0
M  V30 5333 H 475.579 -2.90777 -1.40173 0
M  V30 5334 H 474.631 -3.69962 0.885013 0
M  V30 5335 H 475.943 -4.89748 0.945971 0
M  V30 5336 H 475.097 -5.95529 -1.15888 0
M  V30 5337 H 473.836 -4.69875 -1.30647 0
M  V30 5338 H 472.841 -5.42707 0.880301 0
M  V30 5339 H 474.066 -6.71494 1.01352 0
M  V30 5340 H 472.012 -6.44662 -1.21439 0
M  V30 5341 H 471.929 -7.55917 0.111922 0
M  V30 5342 H 473.197 -7.72175 -1.06608 0
M  V30 5343 N 477.426 -0.562348 -1.47226 0
M  V30 5344 C 478.373 0.182461 -2.30078 0
M  V30 5345 C 479.343 0.903503 -1.39377 0
M  V30 5346 O 480.528 0.898188 -1.68337 0
M  V30 5347 C 477.668 1.20322 -3.23445 0
M  V30 5348 C 476.781 0.487717 -4.29238 0
M  V30 5349 C 475.916 1.49422 -5.09752 0
M  V30 5350 C 474.955 0.763976 -6.07314 0
M  V30 5351 N 474.092 1.71755 -6.80768 0
M  V30 5352 H 478.932 -0.530169 -2.93246 0
M  V30 5353 H 476.469 -0.273276 -1.44539 0
M  V30 5354 H 478.427 1.80768 -3.76004 0
M  V30 5355 H 477.057 1.88382 -2.6213 0
M  V30 5356 H 476.109 -0.231374 -3.79696 0
M  V30 5357 H 477.421 -0.0841003 -4.98729 0
M  V30 5358 H 476.575 2.17206 -5.66486 0
M  V30 5359 H 475.314 2.09995 -4.40174 0
M  V30 5360 H 474.319 0.0722344 -5.49753 0
M  V30 5361 H 475.544 0.16391 -6.78902 0
M  V30 5362 H 473.49 2.31177 -6.13916 0
M  V30 5363 H 473.407 1.19802 -7.46447 0
M  V30 5364 H 474.675 2.38638 -7.42073 0
M  V30 5365 N 478.904 1.54736 -0.299062 0
M  V30 5366 C 480.315 1.8569 0.193971 0
M  V30 5367 C 480.666 1.22101 1.53577 0
M  V30 5368 O 479.791 0.51799 2.10109 0
M  V30 5369 C 480.386 3.36895 0.358733 0
M  V30 5370 C 478.945 3.67887 0.795986 0
M  V30 5371 C 478.092 2.77131 -0.096807 0
M  V30 5372 H 481.043 1.49934 -0.520134 0
M  V30 5373 H 481.064 3.61294 1.19361 0
M  V30 5374 H 480.576 3.83148 -0.617998 0
M  V30 5375 H 478.677 3.27151 1.78334 0
M  V30 5376 H 478.79 4.75114 0.616718 0
M  V30 5377 H 477.154 2.51153 0.423581 0
M  V30 5378 H 477.937 3.26204 -1.06986 0
M  V30 5379 N 480.382 0.0267497 1.57577 0
M  V30 5380 C 481.631 -0.651736 1.9088 0
M  V30 5381 C 481.944 -1.73427 0.904576 0
M  V30 5382 O 483.15 -2.46923 1.12877 0
M  V30 5383 C 481.606 -1.21048 3.38933 0
M  V30 5384 C 481.214 -0.161362 4.47709 0
M  V30 5385 C 482.958 -1.86562 3.81307 0
M  V30 5386 C 480.865 -0.731611 5.86857 0
M  V30 5387 H 479.795 -0.247198 0.712326 0
M  V30 5388 H 482.446 0.0916641 1.83271 0
M  V30 5389 H 480.828 -2.00542 3.41466 0
M  V30 5390 H 482.002 0.61094 4.56732 0
M  V30 5391 H 480.317 0.394877 4.14523 0
M  V30 5392 H 482.914 -2.30178 4.8262 0
M  V30 5393 H 483.257 -2.70735 3.16241 0
M  V30 5394 H 483.79 -1.13762 3.81186 0
M  V30 5395 H 480.529 0.0719329 6.55461 0
M  V30 5396 H 480.049 -1.47245 5.81445 0
M  V30 5397 H 481.728 -1.22208 6.35354 0
M  V30 5398 N 481.861 -1.55662 -0.24637 0
M  V30 5399 C 482.808 -1.90361 -1.30504 0
M  V30 5400 C 483.778 -0.757905 -1.47801 0
M  V30 5401 O 484.963 -1.01161 -1.61775 0
M  V30 5402 C 482.103 -2.2042 -2.65535 0
M  V30 5403 C 481.216 -3.47799 -2.56242 0
M  V30 5404 C 480.351 -3.67426 -3.8363 0
M  V30 5405 C 479.39 -4.88403 -3.68956 0
M  V30 5406 N 478.527 -5.04548 -4.88237 0
M  V30 5407 H 483.367 -2.80645 -1.00213 0
M  V30 5408 H 480.904 -1.38924 -0.483577 0
M  V30 5409 H 482.862 -2.35853 -3.44135 0
M  V30 5410 H 481.492 -1.3334 -2.93973 0
M  V30 5411 H 480.544 -3.40694 -1.69208 0
M  V30 5412 H 481.856 -4.36544 -2.4131 0
M  V30 5413 H 481.01 -3.82821 -4.70673 0
M  V30 5414 H 479.749 -2.76914 -4.01459 0
M  V30 5415 H 478.754 -4.72984 -2.80296 0
M  V30 5416 H 479.979 -5.80375 -3.52621 0
M  V30 5417 H 477.925 -4.16974 -5.06427 0
M  V30 5418 H 477.842 -5.87384 -4.75937 0
M  V30 5419 H 479.11 -5.24355 -5.76777 0
M  V30 5420 N 483.339 0.512053 -1.4905 0
M  V30 5421 C 484.564 1.2959 -1.6193 0
M  V30 5422 C 484.989 1.85906 -0.286454 0
M  V30 5423 O 484.347 1.65312 0.744426 0
M  V30 5424 C 484.395 2.40987 -2.68249 0
M  V30 5425 O 483.499 3.44531 -2.26654 0
M  V30 5426 H 482.84 0.383053 -0.542371 0
M  V30 5427 H 485.37 0.614231 -1.95162 0
M  V30 5428 H 485.38 2.86913 -2.90078 0
M  V30 5429 H 484.055 1.99361 -3.65004 0
M  V30 5430 H 482.632 3.046 -2.15112 0
M  V30 5431 N 484.817 1.37938 0.762283 0
M  V30 5432 C 486.228 1.30094 1.33912 0
M  V30 5433 C 486.579 -0.0472026 1.96143 0
M  V30 5434 O 485.704 -0.94917 1.94473 0
M  V30 5435 C 486.299 2.35592 2.43478 0
M  V30 5436 C 484.858 2.31353 2.96905 0
M  V30 5437 C 484.005 2.18919 1.70205 0
M  V30 5438 H 486.956 1.48423 0.561816 0
M  V30 5439 H 486.977 2.00806 3.23199 0
M  V30 5440 H 486.489 3.33701 1.98155 0
M  V30 5441 H 484.59 1.36799 3.46579 0
M  V30 5442 H 484.703 3.25147 3.51875 0
M  V30 5443 H 483.067 1.65624 1.93496 0
M  V30 5444 H 483.85 3.18956 1.26973 0
M  V30 5445 N 486.295 -0.989507 1.22664 0
M  V30 5446 C 487.52 -1.77031 1.08051 0
M  V30 5447 C 487.945 -1.84535 -0.364483 0
M  V30 5448 O 487.303 -1.3003 -1.2634 0
M  V30 5449 C 487.351 -3.18 1.70024 0
M  V30 5450 O 486.455 -4.01161 0.956216 0
M  V30 5451 H 485.796 -0.545008 0.379292 0
M  V30 5452 H 488.326 -1.24277 1.62531 0
M  V30 5453 H 488.336 -3.68616 1.74888 0
M  V30 5454 H 487.011 -3.11853 2.75174 0
M  V30 5455 H 485.588 -3.59687 0.98384 0
M  V30 5456 N 487.773 -1.03688 -1.18687 0
M  V30 5457 C 488.72 -0.624624 -2.22187 0
M  V30 5458 C 489.69 0.365636 -1.62026 0
M  V30 5459 O 490.875 0.260481 -1.89014 0
M  V30 5460 C 488.015 0.0101738 -3.45099 0
M  V30 5461 C 487.128 -1.02709 -4.19613 0
M  V30 5462 C 486.263 -0.361213 -5.2997 0
M  V30 5463 C 485.302 -1.38384 -5.96252 0
M  V30 5464 N 484.439 -0.743196 -6.98155 0
M  V30 5465 H 489.279 -1.51176 -2.56807 0
M  V30 5466 H 486.816 -0.75636 -1.26165 0
M  V30 5467 H 488.774 0.395528 -4.15321 0
M  V30 5468 H 487.404 0.860848 -3.1111 0
M  V30 5469 H 486.456 -1.53043 -3.48256 0
M  V30 5470 H 487.768 -1.80398 -4.65036 0
M  V30 5471 H 486.922 0.0785537 -6.06649 0
M  V30 5472 H 485.661 0.447799 -4.8564 0
M  V30 5473 H 484.666 -1.83378 -5.18317 0
M  V30 5474 H 485.891 -2.19448 -6.42666 0
M  V30 5475 H 483.837 0.0455789 -6.55984 0
M  V30 5476 H 483.754 -1.45784 -7.41811 0
M  V30 5477 H 485.022 -0.327698 -7.78811 0
M  V30 5478 N 489.251 1.34841 -0.815825 0
M  V30 5479 C 490.528 1.92908 -0.323416 0
M  V30 5480 C 490.908 1.74479 1.18828 0
M  V30 5481 O 490.256 1.11928 1.99209 0
M  V30 5482 C 490.466 3.40957 -0.744952 0
M  V30 5483 C 491.814 4.18107 -0.739716 0
M  V30 5484 O 492.838 3.49511 -0.68708 0
M  V30 5485 O 491.697 5.40517 -0.806456 0
M  V30 5486 H 488.791 0.822436 -0.0867646 0
M  V30 5487 H 491.337 1.4386 -0.90014 0
M  V30 5488 H 490.109 3.4814 -1.78646 0
M  V30 5489 H 489.732 3.97341 -0.143535 0
M  V30 5490 N 490.729 0.570148 1.46925 0
M  V30 5491 C 491.692 -0.159933 2.28641 0
M  V30 5492 C 492.692 -0.830638 1.37685 0
M  V30 5493 O 493.882 -0.684516 1.60187 0
M  V30 5494 C 491.014 -1.2354 3.17727 0
M  V30 5495 H 492.207 0.558035 2.94662 0
M  V30 5496 H 489.76 0.327603 1.52828 0
M  V30 5497 H 490.495 -1.98535 2.56426 0
M  V30 5498 H 490.28 -0.759125 3.84681 0
M  V30 5499 H 491.77 -1.74782 3.79264 0
M  V30 5500 N 492.207 -1.54576 0.307264 0
M  V30 5501 C 493.432 -2.05139 -0.305379 0
M  V30 5502 C 493.857 -1.18278 -1.46259 0
M  V30 5503 O 493.215 -0.188243 -1.8032 0
M  V30 5504 C 493.263 -3.53066 -0.733283 0
M  V30 5505 O 492.367 -3.69206 -1.83741 0
M  V30 5506 H 491.708 -0.661444 -0.0582105 0
M  V30 5507 H 494.238 -1.99569 0.450931 0
M  V30 5508 H 494.248 -3.95034 -1.02039 0
M  V30 5509 H 492.923 -4.15746 0.113198 0
M  V30 5510 H 491.5 -3.39143 -1.55037 0
M  V30 5511 N 493.685 -0.035106 -1.57561 0
M  V30 5512 C 494.91 0.655802 -1.96759 0
M  V30 5513 C 495.335 1.64523 -0.911809 0
M  V30 5514 O 494.693 1.80857 0.126673 0
M  V30 5515 C 494.741 1.33326 -3.35047 0
M  V30 5516 O 493.845 2.44866 -3.31835 0
M  V30 5517 H 493.186 0.171807 -0.641388 0
M  V30 5518 H 495.716 -0.0987369 -2.04362 0
M  V30 5519 H 495.726 1.68867 -3.71413 0
M  V30 5520 H 494.401 0.608033 -4.11431 0
M  V30 5521 H 492.978 2.11392 -3.07193 0
M  V30 5522 N 495.163 1.55791 0.238111 0
M  V30 5523 C 496.411 1.77681 0.963001 0
M  V30 5524 C 496.732 0.600674 1.85518 0
M  V30 5525 O 496.002 -0.383182 1.92116 0
M  V30 5526 H 494.582 0.655315 0.358568 0
M  V30 5527 H 497.244 1.93239 0.253945 0
M  V30 5528 H 496.34 2.69177 1.57956 0
M  V30 5529 N 496.642 -0.504142 1.49319 0
M  V30 5530 C 497.589 -1.60603 1.65756 0
M  V30 5531 C 498.559 -1.58425 0.499082 0
M  V30 5532 O 499.744 -1.76459 0.725728 0
M  V30 5533 C 496.884 -2.98764 1.72726 0
M  V30 5534 C 495.997 -3.10982 2.99857 0
M  V30 5535 C 495.132 -4.39857 2.97824 0
M  V30 5536 C 494.171 -4.45697 4.19548 0
M  V30 5537 N 493.308 -5.65995 4.15444 0
M  V30 5538 H 498.148 -1.45895 2.59843 0
M  V30 5539 H 495.685 -0.709891 1.28837 0
M  V30 5540 H 497.643 -3.78839 1.74747 0
M  V30 5541 H 496.273 -3.12183 0.821075 0
M  V30 5542 H 495.325 -2.23991 3.07461 0
M  V30 5543 H 496.637 -3.11157 3.89849 0
M  V30 5544 H 495.791 -5.2825 2.98391 0
M  V30 5545 H 494.53 -4.42242 2.05604 0
M  V30 5546 H 493.535 -3.55707 4.19229 0
M  V30 5547 H 494.76 -4.4503 5.12957 0
M  V30 5548 H 492.706 -5.69229 3.26059 0
M  V30 5549 H 492.623 -5.67773 4.99169 0
M  V30 5550 H 493.891 -6.56604 4.20109 0
M  V30 5551 N 498.12 -1.38341 -0.754957 0
M  V30 5552 C 499.03 -1.3769 -1.89944 0
M  V30 5553 C 500.046 -0.274194 -1.71826 0
M  V30 5554 O 501.222 -0.512391 -1.94773 0
M  V30 5555 C 498.287 -1.19938 -3.25293 0
M  V30 5556 C 497.348 -2.40001 -3.55946 0
M  V30 5557 C 496.581 -2.23087 -4.84838 0
M  V30 5558 O 496.804 -1.22386 -5.57116 0
M  V30 5559 O 495.738 -3.11646 -5.14937 0
M  V30 5560 H 499.564 -2.3412 -1.93446 0
M  V30 5561 H 497.149 -1.19246 -0.900044 0
M  V30 5562 H 499.031 -1.12093 -4.06218 0
M  V30 5563 H 497.706 -0.265919 -3.22606 0
M  V30 5564 H 496.613 -2.53421 -2.75188 0
M  V30 5565 H 497.946 -3.31973 -3.63394 0
M  V30 5566 N 499.598 0.982988 -1.23187 0
M  V30 5567 C 500.546 2.09616 -1.00817 0
M  V30 5568 C 501.54 1.6932 0.0519995 0
M  V30 5569 O 502.746 1.79715 -0.101284 0
M  V30 5570 H 499.121 0.685628 -0.308899 0
M  V30 5571 H 501.092 2.25652 -1.95253 0
M  V30 5572 C 499.841 3.42249 -0.613243 0
M  V30 5573 H 499.164 3.73705 -1.42073 0
M  V30 5574 H 500.604 4.21086 -0.496208 0
M  V30 5575 C 499.063 3.30002 0.678233 0
M  V30 5576 O 499.593 3.6263 1.72807 0
M  V30 5577 N 497.799 2.83164 0.653165 0
M  V30 5578 H 497.346 2.56811 -0.201492 0
M  V30 5579 H 497.304 2.75352 1.51752 0
M  V30 5580 N 501.076 1.04316 1.18135 0
M  V30 5581 C 502.492 0.762858 1.40188 0
M  V30 5582 C 502.692 -0.646547 1.90846 0
M  V30 5583 O 501.748 -1.41036 2.0944 0
M  V30 5584 C 503.061 1.81106 2.40044 0
M  V30 5585 C 504.609 1.83226 2.53766 0
M  V30 5586 C 505.084 2.87044 3.56889 0
M  V30 5587 N 506.575 2.85951 3.64398 0
M  V30 5588 C 507.31 3.62932 4.43923 0
M  V30 5589 N 506.806 4.49672 5.27036 0
M  V30 5590 N 508.599 3.51411 4.38711 0
M  V30 5591 H 500.75 1.95264 0.835805 0
M  V30 5592 H 503.013 0.845017 0.429709 0
M  V30 5593 H 502.719 2.82214 2.09876 0
M  V30 5594 H 502.593 1.64529 3.39426 0
M  V30 5595 H 504.98 0.827869 2.8325 0
M  V30 5596 H 505.061 2.03879 1.54489 0
M  V30 5597 H 504.705 3.87663 3.28145 0
M  V30 5598 H 504.635 2.63645 4.5585 0
M  V30 5599 H 507.126 2.23051 3.05052 0
M  V30 5600 H 507.439 5.05116 5.84874 0
M  V30 5601 H 505.784 4.53738 5.26447 0
M  V30 5602 H 508.975 2.83047 3.72829 0
M  V30 5603 H 509.148 4.11654 5.00445 0
M  V30 5604 N 502.554 -1.34406 0.822964 0
M  V30 5605 C 503.779 -2.0304 0.423034 0
M  V30 5606 C 504.204 -1.61568 -0.963196 0
M  V30 5607 O 503.562 -0.800339 -1.62678 0
M  V30 5608 C 503.61 -3.56636 0.53321 0
M  V30 5609 O 502.714 -4.09971 -0.446939 0
M  V30 5610 H 502.055 -0.64075 0.174171 0
M  V30 5611 H 504.585 -1.71653 1.11339 0
M  V30 5612 H 504.595 -4.05945 0.408991 0
M  V30 5613 H 503.27 -3.86168 1.54425 0
M  V30 5614 H 501.847 -3.71835 -0.281601 0
M  V30 5615 N 504.032 -0.577932 -1.46621 0
M  V30 5616 C 505.443 -0.150071 -1.86096 0
M  V30 5617 C 505.794 1.28563 -1.48209 0
M  V30 5618 O 504.919 1.97036 -0.894754 0
M  V30 5619 C 505.514 -0.265576 -3.37758 0
M  V30 5620 C 504.073 0.10738 -3.76247 0
M  V30 5621 C 503.22 -0.603711 -2.70649 0
M  V30 5622 H 506.171 -0.786438 -1.37844 0
M  V30 5623 H 506.192 0.510352 -3.77062 0
M  V30 5624 H 505.704 -1.3106 -3.65301 0
M  V30 5625 H 503.805 1.15272 -3.54321 0
M  V30 5626 H 503.918 -0.26561 -4.78363 0
M  V30 5627 H 502.282 -0.0444884 -2.54661 0
M  V30 5628 H 503.065 -1.65029 -3.01032 0
M  V30 5629 N 505.51 1.54411 -0.315457 0
M  V30 5630 C 506.735 2.05299 0.294496 0
M  V30 5631 C 507.16 1.19052 1.4563 0
M  V30 5632 O 506.518 0.197804 1.80218 0
M  V30 5633 C 506.566 3.5345 0.714549 0
M  V30 5634 O 505.67 3.70175 1.81781 0
M  V30 5635 H 505.011 0.661743 0.0547019 0
M  V30 5636 H 507.541 1.99327 -0.461508 0
M  V30 5637 H 507.551 3.9557 0.999426 0
M  V30 5638 H 506.226 4.1568 -0.135244 0
M  V30 5639 H 504.803 3.3996 1.53236 0
M  V30 5640 N 506.988 0.0434614 1.5754 0
M  V30 5641 C 508.404 -0.313039 1.565 0
M  V30 5642 C 508.604 -1.71954 1.05043 0
M  V30 5643 O 507.66 -2.425 0.703564 0
M  V30 5644 C 508.973 -0.148544 3.00333 0
M  V30 5645 C 510.521 -0.220231 3.12224 0
M  V30 5646 C 510.996 -0.0843565 4.57922 0
M  V30 5647 N 512.487 -0.140881 4.62986 0
M  V30 5648 C 513.222 -0.0597443 5.73369 0
M  V30 5649 N 512.718 0.0733004 6.92761 0
M  V30 5650 N 514.511 -0.11477 5.61983 0
M  V30 5651 H 506.662 0.96303 1.89313 0
M  V30 5652 H 508.925 0.373164 0.871466 0
M  V30 5653 H 508.631 0.820894 3.41986 0
M  V30 5654 H 508.505 -0.912798 3.65989 0
M  V30 5655 H 510.892 -1.18014 2.70475 0
M  V30 5656 H 510.973 0.574646 2.49262 0
M  V30 5657 H 510.617 0.872192 5.00355 0
M  V30 5658 H 510.547 -0.898281 5.18882 0
M  V30 5659 H 513.038 -0.243273 3.77116 0
M  V30 5660 H 513.351 0.128128 7.72694 0
M  V30 5661 H 511.696 0.10828 6.94916 0
M  V30 5662 H 514.887 -0.217212 4.67596 0
M  V30 5663 H 515.06 -0.0480779 6.47982 0
M  V30 5664 N 508.466 -1.55915 -0.229846 0
M  V30 5665 C 509.882 -1.48721 -0.579166 0
M  V30 5666 C 510.082 -0.736976 -1.87539 0
M  V30 5667 O 509.138 -0.273258 -2.51017 0
M  V30 5668 C 510.451 -2.9323 -0.666082 0
M  V30 5669 C 511.999 -3.03701 -0.757267 0
M  V30 5670 C 512.474 -4.49552 -0.8756 0
M  V30 5671 N 513.965 -4.53561 -0.940035 0
M  V30 5672 C 514.7 -5.63683 -1.05116 0
M  V30 5673 N 514.196 -6.83576 -1.12675 0
M  V30 5674 N 515.989 -5.51516 -1.08565 0
M  V30 5675 H 508.14 -2.03123 0.620857 0
M  V30 5676 H 510.403 -0.922898 0.21671 0
M  V30 5677 H 510.109 -3.51032 0.21664 0
M  V30 5678 H 509.983 -3.44668 -1.53243 0
M  V30 5679 H 512.37 -2.45969 -1.63043 0
M  V30 5680 H 512.451 -2.55446 0.134583 0
M  V30 5681 H 512.095 -5.079 -0.00692351 0
M  V30 5682 H 512.025 -4.95506 -1.78274 0
M  V30 5683 H 514.516 -3.67215 -0.892269 0
M  V30 5684 H 514.829 -7.63251 -1.21109 0
M  V30 5685 H 513.174 -6.86303 -1.09603 0
M  V30 5686 H 516.365 -4.5678 -1.02319 0
M  V30 5687 H 516.538 -6.37372 -1.1688 0
M  V30 5688 N 509.944 0.496216 -1.49584 0
M  V30 5689 C 511.355 1.07765 -1.52459 0
M  V30 5690 C 511.706 1.93679 -0.31353 0
M  V30 5691 O 510.831 2.08588 0.576186 0
M  V30 5692 C 511.426 1.96111 -2.76271 0
M  V30 5693 C 509.985 2.49409 -2.81908 0
M  V30 5694 C 509.132 1.27142 -2.46435 0
M  V30 5695 H 512.083 0.279914 -1.56212 0
M  V30 5696 H 512.104 2.80862 -2.56704 0
M  V30 5697 H 511.616 1.33555 -3.64396 0
M  V30 5698 H 509.717 3.1559 -1.98074 0
M  V30 5699 H 509.83 2.86234 -3.84196 0
M  V30 5700 H 508.194 1.59818 -1.98319 0
M  V30 5701 H 508.977 0.662866 -3.3684 0
M  V30 5702 N 511.423 1.38739 0.74761 0
M  V30 5703 C 512.671 1.35007 1.50391 0
M  V30 5704 C 512.992 -0.0574274 1.94915 0
M  V30 5705 O 512.262 -1.00628 1.6808 0
M  V30 5706 H 510.842 0.496784 0.557866 0
M  V30 5707 H 513.504 1.73479 0.888319 0
M  V30 5708 H 512.6 2.00474 2.392 0
M  V30 5709 N 512.901 -0.976442 1.23707 0
M  V30 5710 C 514.317 -1.24341 1.00058 0
M  V30 5711 C 514.517 -1.99315 -0.295932 0
M  V30 5712 O 513.573 -2.3123 -1.01435 0
M  V30 5713 C 514.886 -2.03909 2.21001 0
M  V30 5714 C 516.434 -2.17034 2.25534 0
M  V30 5715 C 516.909 -2.99994 3.46075 0
M  V30 5716 N 518.4 -3.07578 3.46338 0
M  V30 5717 C 519.135 -3.72104 4.36264 0
M  V30 5718 N 518.631 -4.3842 5.36432 0
M  V30 5719 N 520.424 -3.69029 4.23998 0
M  V30 5720 H 512.575 -0.47428 2.07037 0
M  V30 5721 H 514.838 -0.272167 0.908091 0
M  V30 5722 H 514.544 -1.56198 3.15111 0
M  V30 5723 H 514.418 -3.04654 2.22409 0
M  V30 5724 H 516.805 -2.63951 1.31961 0
M  V30 5725 H 516.886 -1.15664 2.28156 0
M  V30 5726 H 516.53 -2.53772 4.39957 0
M  V30 5727 H 516.46 -4.01541 3.40694 0
M  V30 5728 H 518.951 -2.60397 2.73865 0
M  V30 5729 H 519.264 -4.85447 6.013 0
M  V30 5730 H 517.609 -4.37116 5.40328 0
M  V30 5731 H 520.8 -3.16392 3.44984 0
M  V30 5732 H 520.973 -4.19034 4.94282 0
M  V30 5733 N 514.379 -1.04941 -1.1758 0
M  V30 5734 C 515.604 -0.778253 -1.92245 0
M  V30 5735 C 516.029 0.659707 -1.76152 0
M  V30 5736 O 515.387 1.45803 -1.07755 0
M  V30 5737 C 515.435 -1.16051 -3.41416 0
M  V30 5738 O 514.539 -0.291153 -4.11371 0
M  V30 5739 H 513.88 -0.285619 -0.599431 0
M  V30 5740 H 516.41 -1.40159 -1.49052 0
M  V30 5741 H 516.42 -1.12619 -3.92149 0
M  V30 5742 H 515.095 -2.208 -3.52449 0
M  V30 5743 H 513.672 -0.385851 -3.70898 0
M  V30 5744 N 515.857 1.33968 -0.830081 0
M  V30 5745 C 517.268 1.80439 -0.479455 0
M  V30 5746 C 517.619 1.68756 1.00079 0
M  V30 5747 O 516.744 1.23171 1.77927 0
M  V30 5748 C 517.339 3.27611 -0.863505 0
M  V30 5749 C 515.898 3.72133 -0.565145 0
M  V30 5750 C 515.045 2.55549 -1.07657 0
M  V30 5751 H 517.996 1.21614 -1.0196 0
M  V30 5752 H 518.017 3.8012 -0.170083 0
M  V30 5753 H 517.529 3.36082 -1.94089 0
M  V30 5754 H 515.63 3.69196 0.502536 0
M  V30 5755 H 515.743 4.65963 -1.11422 0
M  V30 5756 H 514.107 2.49788 -0.497807 0
M  V30 5757 H 514.89 2.66786 -2.16055 0
M  V30 5758 N 517.335 0.585699 1.46312 0
M  V30 5759 C 518.282 -0.145835 2.30339 0
M  V30 5760 C 519.252 -0.881215 1.40797 0
M  V30 5761 O 520.437 -0.871293 1.69744 0
M  V30 5762 C 517.577 -1.15161 3.25318 0
M  V30 5763 C 516.69 -0.419367 4.2996 0
M  V30 5764 C 515.825 -1.41293 5.12064 0
M  V30 5765 C 514.864 -0.667261 6.08452 0
M  V30 5766 N 514.001 -1.60903 6.83414 0
M  V30 5767 H 518.841 0.576755 2.92365 0
M  V30 5768 H 516.378 0.296237 1.44086 0
M  V30 5769 H 518.336 -1.74763 3.78832 0
M  V30 5770 H 516.966 -1.84188 2.65094 0
M  V30 5771 H 516.018 0.291751 3.7928 0
M  V30 5772 H 517.33 0.163433 4.98532 0
M  V30 5773 H 516.484 -2.08167 5.6987 0
M  V30 5774 H 515.223 -2.02966 4.43459 0
M  V30 5775 H 514.228 0.0152356 5.49798 0
M  V30 5776 H 515.453 -0.0558817 6.79077 0
M  V30 5777 H 513.399 -2.21381 6.17516 0
M  V30 5778 H 513.316 -1.07911 7.48259 0
M  V30 5779 H 514.584 -2.26802 7.45775 0
M  V30 5780 N 518.813 -1.54241 0.323641 0
M  V30 5781 C 520.229 -1.59574 -0.0290018 0
M  V30 5782 C 520.429 -1.34017 -1.50472 0
M  V30 5783 O 519.485 -1.12464 -2.26071 0
M  V30 5784 C 520.798 -2.98169 0.389295 0
M  V30 5785 C 522.346 -3.11148 0.339958 0
M  V30 5786 C 522.821 -4.5209 0.733418 0
M  V30 5787 N 524.312 -4.5808 0.686827 0
M  V30 5788 C 525.047 -5.65248 0.963464 0
M  V30 5789 N 524.543 -6.80355 1.30724 0
M  V30 5790 N 526.336 -5.55025 0.88902 0
M  V30 5791 H 518.487 -1.6911 1.28512 0
M  V30 5792 H 520.75 -0.790972 0.522558 0
M  V30 5793 H 520.456 -3.21871 1.41746 0
M  V30 5794 H 520.33 -3.76399 -0.245657 0
M  V30 5795 H 522.717 -2.87182 -0.679002 0
M  V30 5796 H 522.798 -2.35023 1.00985 0
M  V30 5797 H 522.442 -4.76788 1.75029 0
M  V30 5798 H 522.372 -5.26584 0.0412189 0
M  V30 5799 H 524.863 -3.75411 0.43298 0
M  V30 5800 H 525.176 -7.58029 1.5037 0
M  V30 5801 H 523.521 -6.81851 1.3455 0
M  V30 5802 H 526.712 -4.63977 0.619939 0
M  V30 5803 H 526.885 -6.38458 1.10797 0
M  V30 5804 N 520.291 -0.0518155 -1.57515 0
M  V30 5805 C 521.707 0.304735 -1.56664 0
M  V30 5806 C 521.907 1.71395 -1.05953 0
M  V30 5807 O 520.963 2.42123 -0.716414 0
M  V30 5808 C 522.276 0.132614 -3.00407 0
M  V30 5809 C 523.824 0.20367 -3.12337 0
M  V30 5810 C 524.299 0.0600706 -4.57961 0
M  V30 5811 N 525.79 0.116326 -4.63054 0
M  V30 5812 C 526.525 0.0293363 -5.73392 0
M  V30 5813 N 526.021 -0.110038 -6.92713 0
M  V30 5814 N 527.814 0.0849651 -5.62036 0
M  V30 5815 H 519.965 -0.973056 -1.888 0
M  V30 5816 H 522.228 -0.377781 -0.869474 0
M  V30 5817 H 521.934 -0.839019 -3.41546 0
M  V30 5818 H 521.808 0.893376 -3.66468 0
M  V30 5819 H 524.195 1.16578 -2.71097 0
M  V30 5820 H 524.276 -0.587857 -2.48954 0
M  V30 5821 H 523.92 -0.898715 -4.99886 0
M  V30 5822 H 523.85 0.87075 -5.19351 0
M  V30 5823 H 526.341 0.22327 -3.7724 0
M  V30 5824 H 526.654 -0.169104 -7.72615 0
M  V30 5825 H 524.999 -0.145132 -6.94848 0
M  V30 5826 H 528.19 0.192411 -4.67704 0
M  V30 5827 H 528.363 0.0137131 -6.47999 0
M  V30 5828 N 521.769 1.56035 0.221574 0
M  V30 5829 C 522.994 1.83476 0.967026 0
M  V30 5830 C 523.419 0.632139 1.7716 0
M  V30 5831 O 522.777 -0.419082 1.7639 0
M  V30 5832 C 522.825 3.08907 1.86034 0
M  V30 5833 O 521.929 2.876 2.95567 0
M  V30 5834 H 521.27 0.604913 0.273817 0
M  V30 5835 H 523.8 2.03247 0.234893 0
M  V30 5836 H 523.81 3.3901 2.27016 0
M  V30 5837 H 522.485 3.96068 1.26898 0
M  V30 5838 H 521.062 2.6873 2.58532 0
M  V30 5839 N 523.247 -0.488276 1.49845 0
M  V30 5840 C 524.177 -1.59675 1.70371 0
M  V30 5841 C 525.158 -1.60878 0.552473 0
M  V30 5842 O 526.343 -1.77417 0.78973 0
M  V30 5843 C 523.473 -2.98098 1.782 0
M  V30 5844 C 522.427 -3.11761 2.93239 0
M  V30 5845 C 521.753 -4.51661 2.86193 0
M  V30 5846 C 523.053 -2.90589 4.33999 0
M  V30 5847 H 524.747 -1.42752 2.63177 0
M  V30 5848 H 522.293 -0.685317 1.26647 0
M  V30 5849 H 524.246 -3.75555 1.91144 0
M  V30 5850 H 522.97 -3.16138 0.820018 0
M  V30 5851 H 521.629 -2.36732 2.79917 0
M  V30 5852 H 521.277 -4.66595 1.87877 0
M  V30 5853 H 520.977 -4.61742 3.63412 0
M  V30 5854 H 522.501 -5.31162 3.01163 0
M  V30 5855 H 523.915 -3.57807 4.47936 0
M  V30 5856 H 522.312 -3.1213 5.12538 0
M  V30 5857 H 523.382 -1.86595 4.4756 0
M  V30 5858 N 524.725 -1.39134 -0.740242 0
M  V30 5859 C 525.95 -1.39518 -1.53459 0
M  V30 5860 C 526.375 0.00968883 -1.88098 0
M  V30 5861 O 525.733 0.995312 -1.51536 0
M  V30 5862 C 525.781 -2.26981 -2.802 0
M  V30 5863 O 524.885 -1.69609 -3.75908 0
M  V30 5864 H 524.226 -0.475328 -0.463637 0
M  V30 5865 H 526.756 -1.83064 -0.913717 0
M  V30 5866 H 526.766 -2.41309 -3.28989 0
M  V30 5867 H 525.441 -3.29081 -2.5432 0
M  V30 5868 H 524.018 -1.64495 -3.34658 0
M  V30 5869 N 526.204 0.969867 -1.24223 0
M  V30 5870 C 527.615 1.52717 -1.07399 0
M  V30 5871 C 527.966 1.92956 0.355298 0
M  V30 5872 O 527.091 1.77112 1.2434 0
M  V30 5873 C 527.686 2.77521 -1.94339 0
M  V30 5874 C 526.245 3.29615 -1.81744 0
M  V30 5875 C 525.392 2.02537 -1.89405 0
M  V30 5876 H 528.343 0.788399 -1.37732 0
M  V30 5877 H 528.364 3.50773 -1.47439 0
M  V30 5878 H 527.876 2.48203 -2.98357 0
M  V30 5879 H 525.977 3.63789 -0.805505 0
M  V30 5880 H 526.09 3.98661 -2.65718 0
M  V30 5881 H 524.454 2.17151 -1.33108 0
M  V30 5882 H 525.237 1.75587 -2.94999 0
M  V30 5883 N 527.682 1.05563 1.17022 0
M  V30 5884 C 528.629 0.659893 2.21165 0
M  V30 5885 C 529.599 -0.339813 1.62587 0
M  V30 5886 O 530.784 -0.230378 1.89404 0
M  V30 5887 C 527.924 0.0447297 3.45071 0
M  V30 5888 C 527.037 1.09372 4.17926 0
M  V30 5889 C 526.172 0.445481 5.29329 0
M  V30 5890 C 525.211 1.47852 5.93975 0
M  V30 5891 N 524.348 0.854172 6.96885 0
M  V30 5892 H 529.188 1.55243 2.54369 0
M  V30 5893 H 526.725 0.776336 1.24946 0
M  V30 5894 H 528.683 -0.329404 4.15898 0
M  V30 5895 H 527.313 -0.811244 3.1244 0
M  V30 5896 H 526.365 1.58564 3.45777 0
M  V30 5897 H 527.677 1.87773 4.62107 0
M  V30 5898 H 526.831 0.0179688 6.06697 0
M  V30 5899 H 525.57 -0.370481 4.86291 0
M  V30 5900 H 524.575 1.91601 5.15334 0
M  V30 5901 H 525.8 2.29645 6.39093 0
M  V30 5902 H 523.746 0.0587882 6.55974 0
M  V30 5903 H 523.663 1.57567 7.39397 0
M  V30 5904 H 524.931 0.451559 7.78191 0
M  V30 5905 N 529.16 -1.33526 0.837174 0
M  V30 5906 C 530.571 -1.80182 0.489017 0
M  V30 5907 C 530.922 -1.69285 -0.991826 0
M  V30 5908 O 530.047 -1.24113 -1.77271 0
M  V30 5909 C 530.642 -3.27149 0.880866 0
M  V30 5910 C 529.201 -3.71828 0.584872 0
M  V30 5911 C 528.348 -2.54974 1.09011 0
M  V30 5912 H 531.299 -1.21071 1.02603 0
M  V30 5913 H 531.32 -3.80024 0.190239 0
M  V30 5914 H 530.832 -3.35048 1.95869 0
M  V30 5915 H 528.933 -3.69457 -0.48295 0
M  V30 5916 H 529.046 -4.65366 1.13892 0
M  V30 5917 H 527.41 -2.4952 0.511047 0
M  V30 5918 H 528.193 -2.65637 2.17467 0
M  V30 5919 N 530.638 -0.59345 -1.46 0
M  V30 5920 C 532.054 -0.255965 -1.57534 0
M  V30 5921 C 532.254 1.24167 -1.58697 0
M  V30 5922 O 531.31 2.02398 -1.50968 0
M  V30 5923 C 532.623 -0.91466 -2.86451 0
M  V30 5924 C 534.171 -0.889253 -3.00102 0
M  V30 5925 C 534.646 -1.52769 -4.3177 0
M  V30 5926 N 536.137 -1.49253 -4.38495 0
M  V30 5927 C 536.872 -1.9558 -5.39014 0
M  V30 5928 N 536.368 -2.49929 -6.46148 0
M  V30 5929 N 538.161 -1.86432 -5.30282 0
M  V30 5930 H 530.312 -1.56604 -1.43489 0
M  V30 5931 H 532.575 -0.655207 -0.685133 0
M  V30 5932 H 532.281 -1.96861 -2.91442 0
M  V30 5933 H 532.155 -0.429356 -3.74748 0
M  V30 5934 H 534.542 0.156111 -2.94687 0
M  V30 5935 H 534.623 -1.41268 -2.13253 0
M  V30 5936 H 534.267 -2.57231 -4.37944 0
M  V30 5937 H 534.197 -0.979398 -5.17412 0
M  V30 5938 H 536.688 -1.09536 -3.61677 0
M  V30 5939 H 537.001 -2.83109 -7.19075 0
M  V30 5940 H 535.346 -2.53961 -6.46938 0
M  V30 5941 H 538.537 -1.43722 -4.4549 0
M  V30 5942 H 538.71 -2.22852 -6.08474 0
M  V30 5943 N 532.116 1.54067 -0.331816 0
M  V30 5944 C 533.393 1.92915 0.322955 0
M  V30 5945 C 533.773 1.26225 1.69205 0
M  V30 5946 O 533.121 0.408919 2.24811 0
M  V30 5947 C 533.331 3.46619 0.406946 0
M  V30 5948 C 534.679 4.19386 0.663339 0
M  V30 5949 O 535.703 3.5282 0.489536 0
M  V30 5950 O 534.562 5.37288 0.999193 0
M  V30 5951 H 531.656 0.805808 0.186016 0
M  V30 5952 H 534.202 1.65342 -0.382135 0
M  V30 5953 H 532.974 3.87354 -0.554287 0
M  V30 5954 H 532.597 3.80324 1.15929 0
M  V30 5955 N 533.594 0.0601682 1.57485 0
M  V30 5956 C 534.541 -0.91112 2.12055 0
M  V30 5957 C 535.511 -1.30298 1.03013 0
M  V30 5958 O 536.696 -1.39087 1.30612 0
M  V30 5959 C 533.836 -2.1775 2.67729 0
M  V30 5960 C 532.949 -1.83933 3.90887 0
M  V30 5961 C 532.084 -3.05096 4.34845 0
M  V30 5962 C 531.123 -2.67241 5.5068 0
M  V30 5963 N 530.26 -3.81127 5.8965 0
M  V30 5964 H 535.1 -0.43888 2.9475 0
M  V30 5965 H 532.637 -0.204995 1.45665 0
M  V30 5966 H 534.595 -2.91866 2.98111 0
M  V30 5967 H 533.225 -2.62535 1.87816 0
M  V30 5968 H 532.277 -0.999287 3.6704 0
M  V30 5969 H 533.589 -1.52074 4.75052 0
M  V30 5970 H 532.743 -3.87502 4.66827 0
M  V30 5971 H 531.482 -3.40139 3.49509 0
M  V30 5972 H 530.487 -1.83254 5.18361 0
M  V30 5973 H 531.712 -2.3338 6.37738 0
M  V30 5974 H 529.658 -4.15954 5.07266 0
M  V30 5975 H 529.575 -3.52997 6.68528 0
M  V30 5976 H 530.843 -4.64145 6.2625 0
M  V30 5977 N 535.072 -1.5615 -0.213296 0
M  V30 5978 C 536.297 -1.83986 -0.957282 0
M  V30 5979 C 536.722 -0.641526 -1.76822 0
M  V30 5980 O 536.08 0.409722 -1.7661 0
M  V30 5981 C 536.128 -3.09889 -1.84393 0
M  V30 5982 O 535.232 -2.89163 -2.94038 0
M  V30 5983 H 534.573 -0.606357 -0.270605 0
M  V30 5984 H 537.103 -2.03369 -0.224111 0
M  V30 5985 H 537.113 -3.40209 -2.25215 0
M  V30 5986 H 535.788 -3.96735 -1.24795 0
M  V30 5987 H 534.365 -2.70097 -2.57103 0
M  V30 5988 N 536.55 0.480323 -1.50102 0
M  V30 5989 C 537.966 0.813295 -1.37323 0
M  V30 5990 C 538.166 1.97027 -0.422206 0
M  V30 5991 O 537.222 2.5212 0.138563 0
M  V30 5992 C 538.535 1.13404 -2.78496 0
M  V30 5993 C 540.083 1.24104 -2.87345 0
M  V30 5994 C 540.558 1.59497 -4.29331 0
M  V30 5995 N 542.049 1.66507 -4.32238 0
M  V30 5996 C 542.784 1.95378 -5.39087 0
M  V30 5997 N 542.28 2.22333 -6.56155 0
M  V30 5998 N 544.073 1.96803 -5.26522 0
M  V30 5999 H 536.224 -0.282291 -2.10516 0
M  V30 6000 H 538.487 -0.063752 -0.945854 0
M  V30 6001 H 538.193 0.357064 -3.49883 0
M  V30 6002 H 538.067 2.07251 -3.15162 0
M  V30 6003 H 540.454 2.00871 -2.16183 0
M  V30 6004 H 540.535 0.282593 -2.54234 0
M  V30 6005 H 540.179 0.832736 -5.01027 0
M  V30 6006 H 540.109 2.56477 -4.59921 0
M  V30 6007 H 542.6 1.47753 -3.47818 0
M  V30 6008 H 542.913 2.43611 -7.33399 0
M  V30 6009 H 541.258 2.19745 -6.59346 0
M  V30 6010 H 544.449 1.75235 -4.34062 0
M  V30 6011 H 544.622 2.18969 -6.09883 0
M  V30 6012 N 538.028 1.39524 0.732853 0
M  V30 6013 C 539.444 1.21176 1.03868 0
M  V30 6014 C 539.644 0.0748448 2.01361 0
M  V30 6015 O 538.7 -0.57281 2.45917 0
M  V30 6016 C 540.013 2.54667 1.59892 0
M  V30 6017 C 541.561 2.6153 1.71962 0
M  V30 6018 C 542.036 3.95248 2.31394 0
M  V30 6019 N 543.527 3.96899 2.38801 0
M  V30 6020 C 544.262 4.97138 2.85729 0
M  V30 6021 N 543.758 6.07775 3.32537 0
M  V30 6022 N 545.551 4.84516 2.84957 0
M  V30 6023 H 537.702 2.12225 0.086304 0
M  V30 6024 H 539.965 0.942614 0.100907 0
M  V30 6025 H 539.671 3.38423 0.95721 0
M  V30 6026 H 539.545 2.74538 2.58668 0
M  V30 6027 H 541.932 1.78156 2.35254 0
M  V30 6028 H 542.013 2.45507 0.718327 0
M  V30 6029 H 541.657 4.79054 1.68729 0
M  V30 6030 H 541.587 4.08593 3.32204 0
M  V30 6031 H 544.078 3.16998 2.05719 0
M  V30 6032 H 544.391 6.8017 3.66862 0
M  V30 6033 H 542.736 6.11366 3.30541 0
M  V30 6034 H 545.927 3.97185 2.47713 0
M  V30 6035 H 546.1 5.62783 3.21215 0
M  V30 6036 N 539.506 -0.963266 1.24736 0
M  V30 6037 C 540.731 -1.74699 1.11781 0
M  V30 6038 C 541.156 -1.85267 -0.325258 0
M  V30 6039 O 540.514 -1.32681 -1.23553 0
M  V30 6040 C 540.562 -3.14322 1.76731 0
M  V30 6041 O 539.666 -3.99043 1.04109 0
M  V30 6042 H 539.007 -0.53684 0.390767 0
M  V30 6043 H 541.537 -1.20801 1.65131 0
M  V30 6044 H 541.547 -3.64824 1.82668 0
M  V30 6045 H 540.222 -3.05946 2.81726 0
M  V30 6046 H 538.799 -3.5752 1.05991 0
M  V30 6047 N 540.985 -1.06182 -1.16461 0
M  V30 6048 C 542.401 -0.785065 -1.38956 0
M  V30 6049 C 542.601 0.616103 -1.9185 0
M  V30 6050 O 541.657 1.37686 -2.11657 0
M  V30 6051 C 542.97 -1.84902 -2.37132 0
M  V30 6052 C 544.518 -1.8724 -2.50819 0
M  V30 6053 C 544.993 -2.92686 -3.52277 0
M  V30 6054 N 546.484 -2.91712 -3.59803 0
M  V30 6055 C 547.219 -3.69949 -4.38093 0
M  V30 6056 N 546.715 -4.58 -5.19815 0
M  V30 6057 N 548.508 -3.58346 -4.33064 0
M  V30 6058 H 540.659 -1.96569 -0.804634 0
M  V30 6059 H 542.922 -0.851747 -0.416211 0
M  V30 6060 H 542.628 -2.85518 -2.0536 0
M  V30 6061 H 542.502 -1.69908 -3.36766 0
M  V30 6062 H 544.889 -0.872827 -2.81897 0
M  V30 6063 H 544.97 -2.06311 -1.51226 0
M  V30 6064 H 544.614 -3.92835 -3.21937 0
M  V30 6065 H 544.544 -2.70864 -4.51598 0
M  V30 6066 H 547.035 -2.27876 -3.01464 0
M  V30 6067 H 547.348 -5.14357 -5.76764 0
M  V30 6068 H 545.693 -4.62056 -5.19162 0
M  V30 6069 H 548.884 -2.88943 -3.68279 0
M  V30 6070 H 549.057 -4.19563 -4.93833 0
M  V30 6071 N 542.463 1.3308 -0.844243 0
M  V30 6072 C 543.688 2.02341 -0.455282 0
M  V30 6073 C 544.113 1.6308 0.93737 0
M  V30 6074 O 543.471 0.826118 1.61385 0
M  V30 6075 C 543.519 3.55743 -0.58988 0
M  V30 6076 O 542.623 4.1063 0.38166 0
M  V30 6077 H 541.964 0.637898 -0.184343 0
M  V30 6078 H 544.494 1.6986 -1.14056 0
M  V30 6079 H 544.504 4.05243 -0.473522 0
M  V30 6080 H 543.179 3.83662 -1.60549 0
M  V30 6081 H 541.756 3.72236 0.22241 0
M  V30 6082 N 543.941 0.601185 1.45683 0
M  V30 6083 C 545.352 0.179659 1.85834 0
M  V30 6084 C 545.703 -1.26189 1.50236 0
M  V30 6085 O 544.828 -1.95587 0.925987 0
M  V30 6086 C 545.423 0.319277 3.37292 0
M  V30 6087 C 543.982 -0.0475092 3.7637 0
M  V30 6088 C 543.129 0.646692 2.69654 0
M  V30 6089 H 546.08 0.808268 1.36575 0
M  V30 6090 H 546.101 -0.4503 3.77826 0
M  V30 6091 H 545.613 1.36855 3.6317 0
M  V30 6092 H 543.714 -1.0962 3.5611 0
M  V30 6093 H 543.827 0.34168 4.7788 0
M  V30 6094 H 542.191 0.0849971 2.54558 0
M  V30 6095 H 542.974 1.69797 2.98369 0
M  V30 6096 N 545.419 -1.53889 0.339982 0
M  V30 6097 C 546.349 -2.27843 -0.510856 0
M  V30 6098 C 547.33 -1.29267 -1.10563 0
M  V30 6099 O 548.515 -1.58104 -1.12768 0
M  V30 6100 C 545.645 -3.04857 -1.66372 0
M  V30 6101 C 544.599 -4.10907 -1.19746 0
M  V30 6102 C 543.925 -4.75855 -2.43857 0
M  V30 6103 C 545.225 -5.21435 -0.300501 0
M  V30 6104 H 546.919 -2.99212 0.106067 0
M  V30 6105 H 544.465 -1.43904 0.0524533 0
M  V30 6106 H 546.418 -3.5533 -2.26537 0
M  V30 6107 H 545.142 -2.31133 -2.30749 0
M  V30 6108 H 543.801 -3.61342 -0.618654 0
M  V30 6109 H 543.449 -3.9873 -3.06633 0
M  V30 6110 H 543.149 -5.47502 -2.13343 0
M  V30 6111 H 544.673 -5.2911 -3.04754 0
M  V30 6112 H 546.087 -5.67565 -0.80889 0
M  V30 6113 H 544.484 -6.00036 -0.0874076 0
M  V30 6114 H 545.554 -4.80328 0.664321 0
M  V30 6115 N 546.897 -0.0685191 -1.57451 0
M  V30 6116 C 547.827 0.89747 -2.15564 0
M  V30 6117 C 548.808 1.31266 -1.08181 0
M  V30 6118 O 549.993 1.38429 -1.36202 0
M  V30 6119 C 547.123 2.16623 -2.71463 0
M  V30 6120 C 546.077 1.89054 -3.83982 0
M  V30 6121 C 545.403 3.22532 -4.26471 0
M  V30 6122 C 546.703 1.1984 -5.08366 0
M  V30 6123 H 548.397 0.413373 -2.96533 0
M  V30 6124 H 545.943 0.197391 -1.42641 0
M  V30 6125 H 547.896 2.84614 -3.10761 0
M  V30 6126 H 546.62 2.67269 -1.8771 0
M  V30 6127 H 545.279 1.23469 -3.45183 0
M  V30 6128 H 544.927 3.71013 -3.39644 0
M  V30 6129 H 544.627 3.04879 -5.02317 0
M  V30 6130 H 546.151 3.91727 -4.68383 0
M  V30 6131 H 547.565 1.77896 -5.45001 0
M  V30 6132 H 545.962 1.12456 -5.89469 0
M  V30 6133 H 547.032 0.176996 -4.84577 0
M  V30 6134 N 548.375 1.56261 0.205012 0
M  V30 6135 C 549.323 1.94631 1.27364 0
M  V30 6136 C 550.317 0.830434 1.47649 0
M  V30 6137 O 551.523 1.01538 1.48627 0
M  V30 6138 H 547.898 0.618755 0.427371 0
M  V30 6139 H 549.869 2.83768 0.922941 0
M  V30 6140 C 548.618 2.29358 2.61324 0
M  V30 6141 H 547.941 3.14744 2.46528 0
M  V30 6142 H 549.381 2.60076 3.34868 0
M  V30 6143 C 547.84 1.12461 3.17575 0
M  V30 6144 O 548.37 0.394407 3.99759 0
M  V30 6145 N 546.576 0.904036 2.7618 0
M  V30 6146 H 546.123 1.49956 2.09454 0
M  V30 6147 H 546.081 0.123662 3.14157 0
M  V30 6148 N 549.853 -0.472356 1.50355 0
M  V30 6149 C 551.13 -1.23356 1.51798 0
M  V30 6150 C 551.51 -2.09469 0.26193 0
M  V30 6151 O 550.858 -2.15677 -0.754691 0
M  V30 6152 C 551.068 -2.06568 2.81302 0
M  V30 6153 C 552.416 -2.648 3.31913 0
M  V30 6154 O 553.44 -2.16812 2.82614 0
M  V30 6155 O 552.299 -3.52231 4.17846 0
M  V30 6156 H 549.393 -0.559707 0.608816 0
M  V30 6157 H 551.939 -0.48428 1.62643 0
M  V30 6158 H 550.711 -1.43103 3.64194 0
M  V30 6159 H 550.334 -2.88633 2.73454 0
M  V30 6160 N 551.331 -1.39911 -0.725443 0
M  V30 6161 C 552.747 -1.21725 -1.03224 0
M  V30 6162 C 552.947 -0.0855224 -2.01318 0
M  V30 6163 O 552.003 0.55976 -2.46217 0
M  V30 6164 C 553.316 -2.55511 -1.58539 0
M  V30 6165 C 554.864 -2.62439 -1.70572 0
M  V30 6166 C 555.339 -3.9647 -2.29294 0
M  V30 6167 N 556.83 -3.98159 -2.36692 0
M  V30 6168 C 557.565 -4.98647 -2.83088 0
M  V30 6169 N 557.061 -6.0953 -3.2931 0
M  V30 6170 N 558.854 -4.8602 -2.82384 0
M  V30 6171 H 551.005 -2.12267 -0.075048 0
M  V30 6172 H 553.268 -0.943136 -0.0959066 0
M  V30 6173 H 552.974 -3.38926 -0.939249 0
M  V30 6174 H 552.848 -2.75905 -2.57208 0
M  V30 6175 H 555.235 -1.79401 -2.34306 0
M  V30 6176 H 555.316 -2.45885 -0.705297 0
M  V30 6177 H 554.96 -4.79942 -1.66186 0
M  V30 6178 H 554.89 -4.10349 -3.30032 0
M  V30 6179 H 557.381 -3.18085 -2.04035 0
M  V30 6180 H 557.694 -6.82106 -3.6325 0
M  V30 6181 H 556.039 -6.1311 -3.27294 0
M  V30 6182 H 559.23 -3.98493 -2.45603 0
M  V30 6183 H 559.403 -5.64478 -3.18226 0
M  V30 6184 N 552.809 0.956637 -1.25245 0
M  V30 6185 C 554.225 1.22733 -1.02023 0
M  V30 6186 C 554.425 1.99761 0.264186 0
M  V30 6187 O 553.481 2.32814 0.977436 0
M  V30 6188 C 554.794 2.00367 -2.24217 0
M  V30 6189 C 556.342 2.13418 -2.28958 0
M  V30 6190 C 556.817 2.9445 -3.50803 0
M  V30 6191 N 558.308 3.02029 -3.51187 0
M  V30 6192 C 559.043 3.65116 -4.42129 0
M  V30 6193 N 558.539 4.2983 -5.43339 0
M  V30 6194 N 560.332 3.62237 -4.29815 0
M  V30 6195 H 552.483 0.441282 -2.07765 0
M  V30 6196 H 554.746 0.257686 -0.912306 0
M  V30 6197 H 554.452 1.51165 -3.17556 0
M  V30 6198 H 554.326 3.01077 -2.27228 0
M  V30 6199 H 556.713 2.61819 -1.36143 0
M  V30 6200 H 556.794 1.1202 -2.29968 0
M  V30 6201 H 556.438 2.46741 -4.43939 0
M  V30 6202 H 556.368 3.9607 -3.47039 0
M  V30 6203 H 558.859 2.56007 -2.77973 0
M  V30 6204 H 559.172 4.75819 -6.08947 0
M  V30 6205 H 557.517 4.28465 -5.47214 0
M  V30 6206 H 560.708 3.10863 -3.49974 0
M  V30 6207 H 560.881 4.11117 -5.00886 0
M  V30 6208 N 554.287 1.06798 1.15896 0
M  V30 6209 C 555.512 0.808739 1.90982 0
M  V30 6210 C 555.937 -0.6316 1.77179 0
M  V30 6211 O 555.295 -1.4407 1.10061 0
M  V30 6212 C 555.343 1.21468 3.39526 0
M  V30 6213 O 554.447 0.356562 4.10856 0
M  V30 6214 H 553.788 0.29512 0.594811 0
M  V30 6215 H 556.318 1.42513 1.46804 0
M  V30 6216 H 556.328 1.18844 3.90308 0
M  V30 6217 H 555.003 2.26379 3.48891 0
M  V30 6218 H 553.58 0.444808 3.70238 0
M  V30 6219 N 555.766 -1.3263 0.851289 0
M  V30 6220 C 556.713 -2.28952 0.291469 0
M  V30 6221 C 557.683 -1.54897 -0.599676 0
M  V30 6222 O 558.868 -1.83137 -0.535305 0
M  V30 6223 C 556.008 -3.41206 -0.516992 0
M  V30 6224 C 555.121 -4.30148 0.399566 0
M  V30 6225 C 554.256 -5.29527 -0.4212 0
M  V30 6226 C 553.295 -6.10112 0.492969 0
M  V30 6227 N 552.432 -7.01499 -0.290414 0
M  V30 6228 H 557.272 -2.76228 1.11813 0
M  V30 6229 H 554.809 -1.35907 0.562826 0
M  V30 6230 H 556.767 -4.05005 -1.00132 0
M  V30 6231 H 555.397 -2.9509 -1.30851 0
M  V30 6232 H 554.449 -3.66959 1.00227 0
M  V30 6233 H 555.761 -4.8649 1.1013 0
M  V30 6234 H 554.915 -5.98914 -0.968832 0
M  V30 6235 H 553.654 -4.73794 -1.15632 0
M  V30 6236 H 552.659 -5.39632 1.05251 0
M  V30 6237 H 553.884 -6.6793 1.22664 0
M  V30 6238 H 551.83 -6.48199 -1.00868 0
M  V30 6239 H 551.747 -7.55178 0.352354 0
M  V30 6240 H 553.015 -7.75176 -0.819882 0
M  V30 6241 N 557.244 -0.608902 -1.45362 0
M  V30 6242 C 558.176 0.147318 -2.28726 0
M  V30 6243 C 559.189 0.830468 -1.40025 0
M  V30 6244 O 560.378 0.695636 -1.64387 0
M  V30 6245 C 557.478 1.22968 -3.15804 0
M  V30 6246 C 556.651 0.633391 -4.3279 0
M  V30 6247 C 555.71 1.60682 -5.01067 0
M  V30 6248 O 554.736 1.13261 -5.57818 0
M  V30 6249 N 555.938 2.94123 -5.00472 0
M  V30 6250 H 558.703 -0.568014 -2.94268 0
M  V30 6251 H 556.264 -0.448479 -1.55564 0
M  V30 6252 H 558.256 1.88072 -3.58345 0
M  V30 6253 H 556.826 1.84752 -2.52162 0
M  V30 6254 H 556.046 -0.195762 -3.93714 0
M  V30 6255 H 557.334 0.215255 -5.08344 0
M  V30 6256 H 556.732 3.3525 -4.55657 0
M  V30 6257 H 555.289 3.54646 -5.46872 0
M  V30 6258 N 558.722 1.53707 -0.348139 0
M  V30 6259 C 559.947 2.05877 0.250883 0
M  V30 6260 C 560.372 1.22115 1.43072 0
M  V30 6261 O 559.73 0.235986 1.79758 0
M  V30 6262 C 559.778 3.54886 0.639416 0
M  V30 6263 O 558.882 3.73948 1.73888 0
M  V30 6264 H 558.223 0.662754 0.040653 0
M  V30 6265 H 560.753 1.98303 -0.503685 0
M  V30 6266 H 560.763 3.97601 0.915295 0
M  V30 6267 H 559.438 4.153 -0.223386 0
M  V30 6268 H 558.015 3.43134 1.45991 0
M  V30 6269 N 560.2 0.0768682 1.57412 0
M  V30 6270 C 561.147 -0.888577 2.13009 0
M  V30 6271 C 562.117 -1.29198 1.0439 0
M  V30 6272 O 563.302 -1.37694 1.3208 0
M  V30 6273 C 560.442 -2.14899 2.70023 0
M  V30 6274 C 559.555 -1.79777 3.92816 0
M  V30 6275 C 558.69 -3.00467 4.38056 0
M  V30 6276 C 557.729 -2.61385 5.53484 0
M  V30 6277 N 556.866 -3.74851 5.93659 0
M  V30 6278 H 561.706 -0.407593 2.95199 0
M  V30 6279 H 559.243 -0.189534 1.45874 0
M  V30 6280 H 561.201 -2.88688 3.0119 0
M  V30 6281 H 559.831 -2.60529 1.9059 0
M  V30 6282 H 558.883 -0.960301 3.68079 0
M  V30 6283 H 560.195 -1.47027 4.76639 0
M  V30 6284 H 559.349 -3.82529 4.7091 0
M  V30 6285 H 558.088 -3.36413 3.53097 0
M  V30 6286 H 557.093 -1.77746 5.20275 0
M  V30 6287 H 558.318 -2.26603 6.40178 0
M  V30 6288 H 556.264 -4.1055 5.11649 0
M  V30 6289 H 556.181 -3.45887 6.72234 0
M  V30 6290 H 557.449 -4.57477 6.31138 0
M  V30 6291 N 561.678 -1.56367 -0.196722 0
M  V30 6292 C 562.903 -1.84991 -0.937714 0
M  V30 6293 C 563.328 -0.660244 -1.76132 0
M  V30 6294 O 562.686 0.390967 -1.77034 0
M  V30 6295 C 562.734 -3.11828 -1.81096 0
M  V30 6296 O 561.838 -2.92266 -2.90955 0
M  V30 6297 H 561.179 -0.609193 -0.264159 0
M  V30 6298 H 563.709 -2.03595 -0.202529 0
M  V30 6299 H 563.719 -3.42579 -2.21594 0
M  V30 6300 H 562.394 -3.98037 -1.2058 0
M  V30 6301 H 560.971 -2.72809 -2.54224 0
M  V30 6302 N 563.156 0.464375 -1.50603 0
M  V30 6303 C 564.567 1.04507 -1.5471 0
M  V30 6304 C 564.918 1.9297 -0.354542 0
M  V30 6305 O 564.043 2.09763 0.531812 0
M  V30 6306 C 564.638 1.90207 -2.80369 0
M  V30 6307 C 563.197 2.43373 -2.87135 0
M  V30 6308 C 562.344 1.21886 -2.49076 0
M  V30 6309 H 565.295 0.246716 -1.56771 0
M  V30 6310 H 565.316 2.75353 -2.62604 0
M  V30 6311 H 564.828 1.25796 -3.67147 0
M  V30 6312 H 562.929 3.11318 -2.04724 0
M  V30 6313 H 563.042 2.7802 -3.90181 0
M  V30 6314 H 561.406 1.55575 -2.01664 0
M  V30 6315 H 562.189 0.591268 -3.3817 0
M  V30 6316 N 564.634 1.40294 0.718013 0
M  V30 6317 C 565.859 1.41941 1.5122 0
M  V30 6318 C 566.284 0.0202371 1.88089 0
M  V30 6319 O 565.642 -0.971078 1.53101 0
M  V30 6320 C 565.69 2.3141 2.76554 0
M  V30 6321 O 564.794 1.75567 3.73162 0
M  V30 6322 H 564.135 0.482644 0.456016 0
M  V30 6323 H 566.665 1.84494 0.884478 0
M  V30 6324 H 566.675 2.46513 3.25108 0
M  V30 6325 H 565.35 3.33085 2.49053 0
M  V30 6326 H 563.927 1.69798 3.31999 0
M  V30 6327 N 566.112 -0.949982 1.2575 0
M  V30 6328 C 567.528 -1.22191 1.02672 0
M  V30 6329 C 567.728 -1.99898 -0.253588 0
M  V30 6330 O 566.784 -2.33329 -0.965076 0
M  V30 6331 C 568.097 -1.99175 2.25277 0
M  V30 6332 C 569.645 -2.12201 2.30087 0
M  V30 6333 C 570.12 -2.92586 3.5236 0
M  V30 6334 N 571.611 -3.00163 3.52784 0
M  V30 6335 C 572.346 -3.62766 4.44059 0
M  V30 6336 N 571.842 -4.26943 5.45611 0
M  V30 6337 N 573.635 -3.59953 4.3173 0
M  V30 6338 H 565.786 -0.430258 2.07996 0
M  V30 6339 H 568.049 -0.252844 0.91366 0
M  V30 6340 H 567.755 -1.49479 3.18354 0
M  V30 6341 H 567.629 -2.99868 2.28821 0
M  V30 6342 H 570.016 -2.61093 1.3753 0
M  V30 6343 H 570.097 -1.10799 2.30559 0
M  V30 6344 H 569.741 -2.44383 4.45241 0
M  V30 6345 H 569.671 -3.94224 3.49134 0
M  V30 6346 H 572.162 -2.54529 2.79327 0
M  V30 6347 H 572.475 -4.72583 6.11461 0
M  V30 6348 H 570.82 -4.25557 5.49478 0
M  V30 6349 H 574.011 -3.09003 3.51617 0
M  V30 6350 H 574.184 -4.08455 5.03059 0
M  V30 6351 N 567.59 -1.07411 -1.15328 0
M  V30 6352 C 568.818 -0.818782 -1.90009 0
M  V30 6353 C 569.233 0.628072 -1.78047 0
M  V30 6354 O 568.59 1.43085 -1.13282 0
M  V30 6355 C 568.641 -1.21874 -3.40337 0
M  V30 6356 O 568.362 -2.60883 -3.51954 0
M  V30 6357 C 569.863 -0.992796 -4.3204 0
M  V30 6358 H 567.083 -0.296007 -0.60218 0
M  V30 6359 H 569.627 -1.43073 -1.46117 0
M  V30 6360 H 567.782 -0.651103 -3.81889 0
M  V30 6361 H 568.196 -2.77216 -4.45255 0
M  V30 6362 H 569.67 -1.32215 -5.35932 0
M  V30 6363 H 570.147 0.0708331 -4.39143 0
M  V30 6364 H 570.753 -1.54537 -3.9623 0
M  V30 6365 N 569.068 1.32177 -0.85831 0
M  V30 6366 C 569.998 2.31282 -0.321041 0
M  V30 6367 C 570.979 1.59841 0.581786 0
M  V30 6368 O 572.164 1.87619 0.501262 0
M  V30 6369 C 569.294 3.4385 0.48832 0
M  V30 6370 C 568.248 4.26799 -0.320391 0
M  V30 6371 C 567.574 5.31164 0.613934 0
M  V30 6372 C 568.874 4.98829 -1.54813 0
M  V30 6373 H 570.568 2.76469 -1.14915 0
M  V30 6374 H 568.114 1.32916 -0.554028 0
M  V30 6375 H 570.067 4.12224 0.874626 0
M  V30 6376 H 568.791 2.97401 1.34983 0
M  V30 6377 H 567.45 3.60077 -0.688497 0
M  V30 6378 H 567.098 4.80967 1.47239 0
M  V30 6379 H 566.798 5.8755 0.0768097 0
M  V30 6380 H 568.322 6.024 0.997336 0
M  V30 6381 H 569.736 5.59864 -1.23392 0
M  V30 6382 H 568.133 5.64957 -2.02346 0
M  V30 6383 H 569.203 4.26483 -2.30739 0
M  V30 6384 N 570.547 0.616602 1.45037 0
M  V30 6385 C 571.772 0.120192 2.07051 0
M  V30 6386 C 572.197 -1.19008 1.45666 0
M  V30 6387 O 571.555 -1.7267 0.552692 0
M  V30 6388 C 571.603 0.00354901 3.606 0
M  V30 6389 O 570.707 -1.04431 3.98958 0
M  V30 6390 H 570.048 0.0781599 0.659384 0
M  V30 6391 H 572.578 0.849167 1.86146 0
M  V30 6392 H 572.588 -0.191754 4.07549 0
M  V30 6393 H 571.263 0.960239 4.04663 0
M  V30 6394 H 569.84 -0.824749 3.63665 0
M  V30 6395 N 572.025 -1.5352 0.356285 0
M  V30 6396 C 573.436 -1.86282 -0.12492 0
M  V30 6397 C 573.787 -1.27717 -1.48939 0
M  V30 6398 O 572.912 -0.595614 -2.08042 0
M  V30 6399 C 573.507 -3.37995 -0.23345 0
M  V30 6400 C 572.066 -3.70588 -0.658899 0
M  V30 6401 C 571.213 -2.76581 0.199596 0
M  V30 6402 H 574.164 -1.47901 0.575423 0
M  V30 6403 H 574.185 -3.65475 -1.0587 0
M  V30 6404 H 573.697 -3.8059 0.759776 0
M  V30 6405 H 571.798 -3.33544 -1.66069 0
M  V30 6406 H 571.911 -4.77076 -0.439957 0
M  V30 6407 H 570.275 -2.52552 -0.330076 0
M  V30 6408 H 571.058 -3.22008 1.19019 0
M  V30 6409 N 573.503 -0.0852151 -1.57369 0
M  V30 6410 C 574.751 0.579658 -1.93609 0
M  V30 6411 C 575.072 1.69332 -0.967043 0
M  V30 6412 O 574.342 1.95892 -0.0174215 0
M  V30 6413 H 572.922 0.217113 -0.714752 0
M  V30 6414 H 575.584 -0.146226 -1.94351 0
M  V30 6415 H 574.68 0.996276 -2.95771 0
M  V30 6416 N 574.981 1.5647 0.188427 0
M  V30 6417 C 576.397 1.50204 0.539532 0
M  V30 6418 C 576.597 0.78644 1.85519 0
M  V30 6419 O 575.653 0.339714 2.50204 0
M  V30 6420 C 576.966 2.94893 0.588103 0
M  V30 6421 C 578.514 3.05602 0.67648 0
M  V30 6422 C 578.989 4.51716 0.756101 0
M  V30 6423 N 580.48 4.55894 0.819451 0
M  V30 6424 C 581.215 5.66272 0.90134 0
M  V30 6425 N 580.711 6.86323 0.945118 0
M  V30 6426 N 582.504 5.54201 0.939043 0
M  V30 6427 H 574.655 2.01406 -0.674493 0
M  V30 6428 H 576.918 0.916828 -0.241103 0
M  V30 6429 H 576.624 3.50334 -0.309633 0
M  V30 6430 H 576.498 3.4861 1.44051 0
M  V30 6431 H 578.885 2.50206 1.56465 0
M  V30 6432 H 578.966 2.54999 -0.202262 0
M  V30 6433 H 578.61 5.07739 -0.12774 0
M  V30 6434 H 578.54 5.00058 1.65074 0
M  V30 6435 H 581.031 3.69452 0.794594 0
M  V30 6436 H 581.344 7.66194 1.0083 0
M  V30 6437 H 579.689 6.88968 0.913683 0
M  V30 6438 H 582.88 4.59333 0.901725 0
M  V30 6439 H 583.053 6.40247 0.999402 0
M  V30 6440 N 576.459 -0.456382 1.50847 0
M  V30 6441 C 577.875 -0.791345 1.386 0
M  V30 6442 C 578.075 -1.9633 0.453498 0
M  V30 6443 O 577.131 -2.52308 -0.0984353 0
M  V30 6444 C 578.444 -1.08959 2.80265 0
M  V30 6445 C 579.992 -1.19517 2.89283 0
M  V30 6446 C 580.467 -1.52647 4.31814 0
M  V30 6447 N 581.958 -1.59609 4.34832 0
M  V30 6448 C 582.693 -1.86777 5.42127 0
M  V30 6449 N 582.189 -2.11866 6.59609 0
M  V30 6450 N 583.982 -1.88402 5.29586 0
M  V30 6451 H 576.133 0.315746 2.1004 0
M  V30 6452 H 578.396 0.0787916 0.94472 0
M  V30 6453 H 578.102 -0.301355 3.50407 0
M  V30 6454 H 577.976 -2.02211 3.18419 0
M  V30 6455 H 580.363 -1.97406 2.19351 0
M  V30 6456 H 580.444 -0.242111 2.54652 0
M  V30 6457 H 580.088 -0.752922 5.02288 0
M  V30 6458 H 580.018 -2.49127 4.63943 0
M  V30 6459 H 582.509 -1.42201 3.50125 0
M  V30 6460 H 582.822 -2.31912 7.37182 0
M  V30 6461 H 581.167 -2.09228 6.62758 0
M  V30 6462 H 584.358 -1.68307 4.36795 0
M  V30 6463 H 584.531 -2.09238 6.13289 0
M  V30 6464 N 577.937 -1.40673 -0.710563 0
M  V30 6465 C 578.9 -1.4108 -1.80635 0
M  V30 6466 C 579.9 -0.303783 -1.57904 0
M  V30 6467 O 581.09 -0.562937 -1.64853 0
M  V30 6468 C 578.222 -1.20748 -3.18799 0
M  V30 6469 H 579.415 -2.38612 -1.81671 0
M  V30 6470 H 576.968 -1.26595 -0.916704 0
M  V30 6471 H 577.703 -0.239964 -3.23411 0
M  V30 6472 H 577.488 -2.00941 -3.36698 0
M  V30 6473 H 578.978 -1.23833 -3.98817 0
M  V30 6474 N 579.415 0.9433 -1.26252 0
M  V30 6475 C 580.362 2.0417 -1.07625 0
M  V30 6476 C 581.332 1.6609 0.0180738 0
M  V30 6477 O 582.517 1.90276 -0.141289 0
M  V30 6478 C 579.657 3.37653 -0.713043 0
M  V30 6479 C 578.77 3.88783 -1.8834 0
M  V30 6480 C 577.905 5.10642 -1.4635 0
M  V30 6481 C 576.944 5.54028 -2.60229 0
M  V30 6482 N 576.081 6.67092 -2.18936 0
M  V30 6483 H 580.921 2.19436 -2.01623 0
M  V30 6484 H 578.458 1.07519 -1.00389 0
M  V30 6485 H 580.416 4.14391 -0.483358 0
M  V30 6486 H 579.046 3.22241 0.18996 0
M  V30 6487 H 578.098 3.08464 -2.22608 0
M  V30 6488 H 579.41 4.16922 -2.73821 0
M  V30 6489 H 578.564 5.94832 -1.19414 0
M  V30 6490 H 577.303 4.84244 -0.579568 0
M  V30 6491 H 576.308 4.68396 -2.87898 0
M  V30 6492 H 577.533 5.82429 -3.49219 0
M  V30 6493 H 575.479 6.42381 -1.32974 0
M  V30 6494 H 575.396 6.94806 -2.97961 0
M  V30 6495 H 576.664 7.54662 -1.95206 0
M  V30 6496 N 580.893 1.08022 1.14757 0
M  V30 6497 C 582.118 0.82895 1.90114 0
M  V30 6498 C 582.543 -0.612772 1.77839 0
M  V30 6499 O 581.901 -1.42895 1.11583 0
M  V30 6500 C 581.949 1.25062 3.38219 0
M  V30 6501 O 581.053 0.400119 4.10454 0
M  V30 6502 H 580.394 0.301412 0.591648 0
M  V30 6503 H 582.924 1.44062 1.45284 0
M  V30 6504 H 582.934 1.22977 3.89025 0
M  V30 6505 H 581.609 2.30067 3.46471 0
M  V30 6506 H 580.186 0.484052 3.69745 0
M  V30 6507 N 582.371 -1.3172 0.865308 0
M  V30 6508 C 583.787 -1.4958 0.556596 0
M  V30 6509 C 583.987 -1.79763 -0.910353 0
M  V30 6510 O 583.043 -1.87351 -1.6928 0
M  V30 6511 C 584.356 -2.63277 1.45279 0
M  V30 6512 C 585.904 -2.77161 1.45433 0
M  V30 6513 C 586.379 -3.93949 2.33598 0
M  V30 6514 N 587.87 -4.01228 2.31453 0
M  V30 6515 C 588.605 -4.90855 2.96393 0
M  V30 6516 N 588.101 -5.85416 3.70486 0
M  V30 6517 N 589.894 -4.84063 2.85726 0
M  V30 6518 H 582.045 -1.10396 1.81456 0
M  V30 6519 H 584.308 -0.54507 0.775631 0
M  V30 6520 H 584.014 -2.47734 2.49641 0
M  V30 6521 H 583.888 -3.59309 1.14792 0
M  V30 6522 H 586.275 -2.9212 0.41831 0
M  V30 6523 H 586.356 -1.8181 1.79941 0
M  V30 6524 H 586 -3.79748 3.37274 0
M  V30 6525 H 585.93 -4.88598 1.96417 0
M  V30 6526 H 588.421 -3.3357 1.77593 0
M  V30 6527 H 588.734 -6.50525 4.17178 0
M  V30 6528 H 587.079 -5.85409 3.74594 0
M  V30 6529 H 590.27 -4.09163 2.27384 0
M  V30 6530 H 590.443 -5.53708 3.36617 0
M  V30 6531 N 583.85 -0.624285 -1.44708 0
M  V30 6532 C 585.075 -0.131171 -2.06985 0
M  V30 6533 C 585.5 1.18234 -1.46295 0
M  V30 6534 O 584.858 1.72375 -0.561842 0
M  V30 6535 C 584.906 -0.0226724 -3.60593 0
M  V30 6536 O 584.01 1.02314 -3.99507 0
M  V30 6537 H 583.351 -0.0816556 -0.65896 0
M  V30 6538 H 585.88 -0.859027 -1.85693 0
M  V30 6539 H 585.891 0.170138 -4.07645 0
M  V30 6540 H 584.566 -0.981685 -4.04148 0
M  V30 6541 H 583.143 0.805452 -3.64097 0
M  V30 6542 N 585.328 1.53329 -0.364422 0
M  V30 6543 C 586.258 2.28627 0.474543 0
M  V30 6544 C 587.239 1.31009 1.08492 0
M  V30 6545 O 588.424 1.59878 1.10239 0
M  V30 6546 C 585.554 3.07465 1.61501 0
M  V30 6547 C 584.508 4.1276 1.13194 0
M  V30 6548 C 583.834 4.79674 2.36255 0
M  V30 6549 C 585.134 5.21847 0.217507 0
M  V30 6550 H 586.828 2.99005 -0.153656 0
M  V30 6551 H 584.374 1.43803 -0.0753406 0
M  V30 6552 H 586.327 3.58889 2.20855 0
M  V30 6553 H 585.051 2.34775 2.27042 0
M  V30 6554 H 583.71 3.62281 0.56109 0
M  V30 6555 H 583.358 4.03557 3.00251 0
M  V30 6556 H 583.058 5.50827 2.04606 0
M  V30 6557 H 584.582 5.33892 2.96297 0
M  V30 6558 H 585.996 5.6878 0.718493 0
M  V30 6559 H 584.393 6.00099 -0.00806408 0
M  V30 6560 H 585.463 4.7921 -0.740653 0
M  V30 6561 N 586.806 0.0935595 1.57322 0
M  V30 6562 C 587.716 -0.880192 2.17462 0
M  V30 6563 C 588.732 -1.31135 1.14366 0
M  V30 6564 O 589.908 -1.37958 1.46729 0
M  V30 6565 C 586.973 -2.12184 2.74188 0
M  V30 6566 C 586.034 -1.74503 3.92234 0
M  V30 6567 C 585.267 -2.92748 4.46245 0
M  V30 6568 O 585.49 -4.07427 3.99198 0
M  V30 6569 O 584.424 -2.71303 5.37288 0
M  V30 6570 H 588.25 -0.398516 3.01074 0
M  V30 6571 H 585.835 -0.130707 1.48827 0
M  V30 6572 H 587.717 -2.84953 3.10451 0
M  V30 6573 H 586.392 -2.59407 1.93623 0
M  V30 6574 H 585.299 -0.989186 3.60785 0
M  V30 6575 H 586.632 -1.32044 4.74157 0
M  V30 6576 N 588.284 -1.56567 -0.180126 0
M  V30 6577 C 589.7 -1.50488 -0.531559 0
M  V30 6578 C 589.9 -0.796267 -1.851 0
M  V30 6579 O 588.956 -0.352978 -2.50021 0
M  V30 6580 C 590.269 -2.95201 -0.572456 0
M  V30 6581 C 591.817 -3.05957 -0.660264 0
M  V30 6582 C 592.292 -4.5211 -0.732135 0
M  V30 6583 N 593.783 -4.56322 -0.795262 0
M  V30 6584 C 594.518 -5.66742 -0.871296 0
M  V30 6585 N 594.014 -6.86815 -0.908708 0
M  V30 6586 N 595.807 -5.54691 -0.909639 0
M  V30 6587 H 587.958 -2.01045 0.685165 0
M  V30 6588 H 590.221 -0.915536 0.245962 0
M  V30 6589 H 589.927 -3.50165 0.328208 0
M  V30 6590 H 589.801 -3.49369 -1.422 0
M  V30 6591 H 592.188 -2.51032 -1.55136 0
M  V30 6592 H 592.269 -2.54888 0.215783 0
M  V30 6593 H 591.913 -5.07664 0.154664 0
M  V30 6594 H 591.843 -5.00926 -1.6242 0
M  V30 6595 H 594.334 -3.69868 -0.77499 0
M  V30 6596 H 594.647 -7.66718 -0.967654 0
M  V30 6597 H 592.992 -6.89443 -0.877132 0
M  V30 6598 H 596.183 -4.59804 -0.877353 0
M  V30 6599 H 596.356 -6.40768 -0.965434 0
M  V30 6600 N 589.762 0.448376 -1.51087 0
M  V30 6601 C 590.709 1.54341 -1.71603 0
M  V30 6602 C 591.679 1.56463 -0.557536 0
M  V30 6603 O 592.864 1.73644 -0.79072 0
M  V30 6604 C 590.004 2.92148 -1.83695 0
M  V30 6605 C 589.117 2.99639 -3.11192 0
M  V30 6606 C 588.252 4.285 -3.13944 0
M  V30 6607 C 587.291 4.29819 -4.35801 0
M  V30 6608 N 586.428 5.50186 -4.36164 0
M  V30 6609 H 591.268 1.36151 -2.65079 0
M  V30 6610 H 588.805 0.661585 -1.31383 0
M  V30 6611 H 590.763 3.72093 -1.88687 0
M  V30 6612 H 589.393 3.0892 -0.936374 0
M  V30 6613 H 588.445 2.12425 -3.15562 0
M  V30 6614 H 589.757 2.96474 -4.01129 0
M  V30 6615 H 588.911 5.16811 -3.17791 0
M  V30 6616 H 587.65 4.34307 -2.21876 0
M  V30 6617 H 586.655 3.39902 -4.32142 0
M  V30 6618 H 587.88 4.25685 -5.29121 0
M  V30 6619 H 585.826 5.56735 -3.46961 0
M  V30 6620 H 585.743 5.48856 -5.19897 0
M  V30 6621 H 587.011 6.40559 -4.44189 0
M  V30 6622 N 591.24 1.41047 0.703093 0
M  V30 6623 C 592.656 1.23351 1.01275 0
M  V30 6624 C 592.856 0.11754 2.01157 0
M  V30 6625 O 591.912 -0.520518 2.47077 0
M  V30 6626 C 593.225 2.58001 1.54454 0
M  V30 6627 C 594.773 2.65119 1.66376 0
M  V30 6628 C 595.248 4.00067 2.22958 0
M  V30 6629 N 596.739 4.01875 2.30328 0
M  V30 6630 C 597.474 5.03087 2.75119 0
M  V30 6631 N 596.97 6.14692 3.19571 0
M  V30 6632 N 598.763 4.90451 2.74616 0
M  V30 6633 H 590.914 2.1236 0.0412686 0
M  V30 6634 H 593.177 0.944543 0.08089 0
M  V30 6635 H 592.883 3.40378 0.88521 0
M  V30 6636 H 592.757 2.79962 2.52786 0
M  V30 6637 H 595.144 1.83106 2.31422 0
M  V30 6638 H 595.225 2.46975 0.666089 0
M  V30 6639 H 594.869 4.82526 1.58529 0
M  V30 6640 H 594.799 4.15547 3.23462 0
M  V30 6641 H 597.29 3.21291 1.98949 0
M  V30 6642 H 597.603 6.87799 3.52352 0
M  V30 6643 H 595.948 6.18239 3.17498 0
M  V30 6644 H 599.139 4.0235 2.39233 0
M  V30 6645 H 599.312 5.6947 3.09206 0
M  V30 6646 N 592.718 -0.936591 1.26751 0
M  V30 6647 C 594.134 -1.21095 1.03963 0
M  V30 6648 C 594.334 -2.00156 -0.232372 0
M  V30 6649 O 593.39 -2.3434 -0.940274 0
M  V30 6650 C 594.703 -1.96775 2.27377 0
M  V30 6651 C 596.251 -2.09749 2.32324 0
M  V30 6652 C 596.726 -2.88832 3.55443 0
M  V30 6653 N 598.217 -2.96404 3.55948 0
M  V30 6654 C 598.952 -3.58036 4.47881 0
M  V30 6655 N 598.448 -4.21132 5.50109 0
M  V30 6656 N 600.241 -3.55353 4.35523 0
M  V30 6657 H 592.392 -0.408173 2.08441 0
M  V30 6658 H 594.655 -0.243139 0.91629 0
M  V30 6659 H 594.361 -1.46094 3.19921 0
M  V30 6660 H 594.235 -2.97424 2.31989 0
M  V30 6661 H 596.622 -2.5962 1.40291 0
M  V30 6662 H 596.703 -1.08347 2.31721 0
M  V30 6663 H 596.347 -2.39647 4.47808 0
M  V30 6664 H 596.277 -3.90499 3.53296 0
M  V30 6665 H 598.768 -2.51552 2.82011 0
M  V30 6666 H 599.081 -4.66071 6.16439 0
M  V30 6667 H 597.426 -4.19705 5.53961 0
M  V30 6668 H 600.617 -3.05256 3.54875 0
M  V30 6669 H 600.79 -4.03097 5.07363 0
M  V30 6670 N 594.196 -1.08629 -1.14182 0
M  V30 6671 C 595.106 -0.730126 -2.22949 0
M  V30 6672 C 596.122 0.26436 -1.7198 0
M  V30 6673 O 597.298 0.107742 -2.01112 0
M  V30 6674 C 594.363 -0.147227 -3.46387 0
M  V30 6675 C 593.424 -1.19662 -4.12286 0
M  V30 6676 C 592.657 -0.641437 -5.29831 0
M  V30 6677 O 592.88 0.538351 -5.67854 0
M  V30 6678 O 591.814 -1.39257 -5.85569 0
M  V30 6679 H 595.64 -1.63753 -2.55771 0
M  V30 6680 H 593.225 -0.860118 -1.22157 0
M  V30 6681 H 595.107 0.174923 -4.21037 0
M  V30 6682 H 593.782 0.733304 -3.15285 0
M  V30 6683 H 592.689 -1.57133 -3.395 0
M  V30 6684 H 594.022 -2.0495 -4.475 0
M  V30 6685 N 595.674 1.31259 -0.872281 0
M  V30 6686 C 597.085 1.78822 -0.536617 0
M  V30 6687 C 597.436 1.71855 0.946594 0
M  V30 6688 O 596.561 1.28769 1.73918 0
M  V30 6689 C 597.156 3.24698 -0.967294 0
M  V30 6690 C 595.715 3.70147 -0.683251 0
M  V30 6691 C 594.862 2.51994 -1.15733 0
M  V30 6692 H 597.813 1.18308 -1.05777 0
M  V30 6693 H 597.834 3.79386 -0.290929 0
M  V30 6694 H 597.346 3.29737 -2.04683 0
M  V30 6695 H 595.447 3.70607 0.384825 0
M  V30 6696 H 595.56 4.62183 -1.2619 0
M  V30 6697 H 593.924 2.48078 -0.577024 0
M  V30 6698 H 594.707 2.59778 -2.24434 0
M  V30 6699 N 597.152 0.631951 1.44375 0
M  V30 6700 C 598.062 -0.073674 2.34484 0
M  V30 6701 C 599.078 -0.834825 1.52665 0
M  V30 6702 O 600.254 -0.786902 1.85391 0
M  V30 6703 C 597.319 -1.04247 3.30656 0
M  V30 6704 C 596.38 -0.280602 4.28382 0
M  V30 6705 C 595.613 -1.20325 5.19959 0
M  V30 6706 O 595.836 -2.44199 5.15484 0
M  V30 6707 O 594.77 -0.687128 5.97965 0
M  V30 6708 H 598.596 0.667477 2.96274 0
M  V30 6709 H 596.181 0.392144 1.44162 0
M  V30 6710 H 598.063 -1.59981 3.89851 0
M  V30 6711 H 596.738 -1.76422 2.71398 0
M  V30 6712 H 595.645 0.319804 3.72731 0
M  V30 6713 H 596.978 0.401144 4.90563 0
M  V30 6714 N 598.631 -1.53133 0.372548 0
M  V30 6715 C 600.047 -1.59585 0.02178 0
M  V30 6716 C 600.247 -1.38736 -1.46132 0
M  V30 6717 O 599.303 -1.19599 -2.22379 0
M  V30 6718 C 600.616 -2.9678 0.483959 0
M  V30 6719 C 602.164 -3.09909 0.438775 0
M  V30 6720 C 602.639 -4.49527 0.876876 0
M  V30 6721 N 604.13 -4.55663 0.832214 0
M  V30 6722 C 604.865 -5.61896 1.14281 0
M  V30 6723 N 604.361 -6.75852 1.52303 0
M  V30 6724 N 606.154 -5.51916 1.06515 0
M  V30 6725 H 598.305 -1.64936 1.33827 0
M  V30 6726 H 600.568 -0.773947 0.547458 0
M  V30 6727 H 600.274 -3.17198 1.51915 0
M  V30 6728 H 600.148 -3.7699 -0.125784 0
M  V30 6729 H 602.535 -2.89197 -0.587294 0
M  V30 6730 H 602.616 -2.31691 1.0841 0
M  V30 6731 H 602.26 -4.70979 1.90109 0
M  V30 6732 H 602.19 -5.26186 0.208727 0
M  V30 6733 H 604.681 -3.73844 0.552195 0
M  V30 6734 H 604.994 -7.52862 1.7441 0
M  V30 6735 H 603.339 -6.77226 1.56175 0
M  V30 6736 H 606.53 -4.6177 0.767235 0
M  V30 6737 H 606.703 -6.34609 1.31053 0
M  V30 6738 N 600.109 -0.101901 -1.5727 0
M  V30 6739 C 601.525 0.254739 -1.57554 0
M  V30 6740 C 601.725 1.67937 -1.11352 0
M  V30 6741 O 600.781 2.39722 -0.793081 0
M  V30 6742 C 602.094 0.036975 -3.00677 0
M  V30 6743 C 603.642 0.104199 -3.12827 0
M  V30 6744 C 604.117 -0.0856565 -4.5792 0
M  V30 6745 N 605.608 -0.0310498 -4.6319 0
M  V30 6746 C 606.343 -0.153099 -5.73196 0
M  V30 6747 N 605.839 -0.330364 -6.92012 0
M  V30 6748 N 607.632 -0.0938854 -5.62022 0
M  V30 6749 H 599.783 -1.03263 -1.85609 0
M  V30 6750 H 602.046 -0.405251 -0.857016 0
M  V30 6751 H 601.752 -0.947254 -3.38703 0
M  V30 6752 H 601.626 0.776335 -3.69124 0
M  V30 6753 H 604.013 1.07894 -2.74669 0
M  V30 6754 H 604.094 -0.666762 -2.46957 0
M  V30 6755 H 603.738 -1.05729 -4.96773 0
M  V30 6756 H 603.668 0.705082 -5.21858 0
M  V30 6757 H 606.159 0.103141 -3.77759 0
M  V30 6758 H 606.472 -0.41482 -7.71686 0
M  V30 6759 H 604.817 -0.366119 -6.94035 0
M  V30 6760 H 608.008 0.0435168 -4.6808 0
M  V30 6761 H 608.181 -0.19245 -6.47714 0
M  V30 6762 N 601.587 1.56661 0.17182 0
M  V30 6763 C 603.003 1.50768 0.52357 0
M  V30 6764 C 603.203 0.806072 1.84675 0
M  V30 6765 O 602.259 0.366233 2.4983 0
M  V30 6766 C 603.572 2.955 0.556793 0
M  V30 6767 C 605.12 3.06303 0.644029 0
M  V30 6768 C 605.595 4.52492 0.708148 0
M  V30 6769 N 607.086 4.56737 0.771051 0
M  V30 6770 C 607.821 5.67196 0.841229 0
M  V30 6771 N 607.317 6.87287 0.872272 0
M  V30 6772 N 609.11 5.55165 0.88021 0
M  V30 6773 H 601.261 2.00679 -0.695817 0
M  V30 6774 H 603.524 0.914219 -0.250814 0
M  V30 6775 H 603.23 3.49986 -0.346774 0
M  V30 6776 H 603.104 3.50119 1.40346 0
M  V30 6777 H 605.491 2.51851 1.53802 0
M  V30 6778 H 605.572 2.5477 -0.229297 0
M  V30 6779 H 605.216 5.07575 -0.181585 0
M  V30 6780 H 605.146 5.01781 1.59761 0
M  V30 6781 H 607.637 3.70274 0.755364 0
M  V30 6782 H 607.95 7.6722 0.92698 0
M  V30 6783 H 606.295 6.89898 0.840557 0
M  V30 6784 H 609.486 4.60263 0.852956 0
M  V30 6785 H 609.659 6.41271 0.931439 0
M  V30 6786 N 603.065 -0.440357 1.51323 0
M  V30 6787 C 603.995 -1.54174 1.75364 0
M  V30 6788 C 604.976 -1.59039 0.603375 0
M  V30 6789 O 606.161 -1.74815 0.845774 0
M  V30 6790 C 603.291 -2.92277 1.87593 0
M  V30 6791 C 602.245 -3.02274 3.03009 0
M  V30 6792 C 601.571 -4.42327 3.00418 0
M  V30 6793 C 602.871 -2.76634 4.43024 0
M  V30 6794 H 604.565 -1.34307 2.67585 0
M  V30 6795 H 602.111 -0.644678 1.28763 0
M  V30 6796 H 604.064 -3.69284 2.02995 0
M  V30 6797 H 602.788 -3.13369 0.920179 0
M  V30 6798 H 601.447 -2.27706 2.87307 0
M  V30 6799 H 601.095 -4.60382 2.02626 0
M  V30 6800 H 600.795 -4.49946 3.77918 0
M  V30 6801 H 602.319 -5.21312 3.17909 0
M  V30 6802 H 603.733 -3.43376 4.59093 0
M  V30 6803 H 602.13 -2.95666 5.22208 0
M  V30 6804 H 603.2 -1.72262 4.5327 0
M  V30 6805 N 604.543 -1.41418 -0.695603 0
M  V30 6806 C 605.768 -1.44329 -1.48942 0
M  V30 6807 C 606.193 -0.0501579 -1.88033 0
M  V30 6808 O 605.551 0.946598 -1.54626 0
M  V30 6809 C 605.599 -2.3578 -2.72837 0
M  V30 6810 O 604.703 -1.81482 -3.70322 0
M  V30 6811 H 604.044 -0.489838 -0.44828 0
M  V30 6812 H 606.574 -1.85878 -0.855014 0
M  V30 6813 H 606.584 -2.51654 -3.21145 0
M  V30 6814 H 605.259 -3.37005 -2.43722 0
M  V30 6815 H 603.836 -1.75058 -3.29255 0
M  V30 6816 N 606.021 0.929856 -1.27246 0
M  V30 6817 C 607.246 1.71674 -1.16374 0
M  V30 6818 C 607.671 1.86064 0.276024 0
M  V30 6819 O 607.029 1.3591 1.19992 0
M  V30 6820 C 607.077 3.09526 -1.85003 0
M  V30 6821 O 606.181 3.96142 -1.14653 0
M  V30 6822 H 605.522 0.52629 -0.404863 0
M  V30 6823 H 608.052 1.16381 -1.68276 0
M  V30 6824 H 608.062 3.59852 -1.92276 0
M  V30 6825 H 606.737 2.98369 -2.89739 0
M  V30 6826 H 605.314 3.54584 -1.15433 0
M  V30 6827 N 607.499 1.09233 1.13605 0
M  V30 6828 C 608.91 0.846839 1.6639 0
M  V30 6829 C 609.261 -0.625031 1.85978 0
M  V30 6830 O 608.386 -1.48173 1.57714 0
M  V30 6831 C 608.981 1.5307 3.0225 0
M  V30 6832 C 607.54 1.33223 3.52035 0
M  V30 6833 C 606.687 1.58806 2.27323 0
M  V30 6834 H 609.638 1.25175 0.975541 0
M  V30 6835 H 609.659 0.96267 3.68121 0
M  V30 6836 H 609.171 2.60192 2.87961 0
M  V30 6837 H 607.272 0.282091 3.71531 0
M  V30 6838 H 607.385 2.0657 4.32279 0
M  V30 6839 H 605.749 1.01007 2.33815 0
M  V30 6840 H 606.532 2.67153 2.15602 0
M  V30 6841 N 608.977 -1.30795 0.87923 0
M  V30 6842 C 610.393 -1.48981 0.57243 0
M  V30 6843 C 610.593 -1.80719 -0.891236 0
M  V30 6844 O 609.649 -1.89136 -1.67283 0
M  V30 6845 C 610.962 -2.61721 1.48063 0
M  V30 6846 C 612.51 -2.75603 1.48365 0
M  V30 6847 C 612.985 -3.91449 2.37763 0
M  V30 6848 N 614.476 -3.98751 2.35695 0
M  V30 6849 C 615.211 -4.87684 3.01583 0
M  V30 6850 N 614.707 -5.81454 3.76674 0
M  V30 6851 N 616.5 -4.81005 2.90844 0
M  V30 6852 H 608.651 -1.08465 1.82617 0
M  V30 6853 H 610.914 -0.536813 0.781368 0
M  V30 6854 H 610.62 -2.45073 2.52254 0
M  V30 6855 H 610.494 -3.58071 1.18596 0
M  V30 6856 H 612.881 -2.9166 0.44927 0
M  V30 6857 H 612.962 -1.79891 1.81859 0
M  V30 6858 H 612.606 -3.76149 3.41283 0
M  V30 6859 H 612.536 -4.86487 2.01589 0
M  V30 6860 H 615.027 -3.31668 1.81121 0
M  V30 6861 H 615.34 -6.46063 4.24054 0
M  V30 6862 H 613.685 -5.81403 3.80782 0
M  V30 6863 H 616.876 -4.06728 2.31711 0
M  V30 6864 H 617.049 -5.50107 3.42471 0
M  V30 6865 N 610.455 -0.639598 -1.44038 0
M  V30 6866 C 611.683 -0.154811 -2.0632 0
M  V30 6867 C 612.098 1.17406 -1.47856 0
M  V30 6868 O 611.455 1.72193 -0.604638 0
M  V30 6869 C 611.506 -0.0429958 -3.61474 0
M  V30 6870 O 611.227 -1.31932 -4.17763 0
M  V30 6871 C 612.728 0.469486 -4.40807 0
M  V30 6872 H 609.948 -0.0835862 -0.665773 0
M  V30 6873 H 612.492 -0.876397 -1.84769 0
M  V30 6874 H 610.647 0.629075 -3.82258 0
M  V30 6875 H 611.061 -1.16965 -5.11292 0
M  V30 6876 H 612.535 0.496712 -5.49761 0
M  V30 6877 H 613.012 1.49819 -4.12857 0
M  V30 6878 H 613.618 -0.169624 -4.24962 0
M  V30 6879 N 611.933 1.52934 -0.380664 0
M  V30 6880 C 613.349 1.59571 -0.0302429 0
M  V30 6881 C 613.549 1.39509 1.45394 0
M  V30 6882 O 612.605 1.20777 2.21741 0
M  V30 6883 C 613.918 2.96519 -0.499691 0
M  V30 6884 C 615.466 3.09672 -0.455204 0
M  V30 6885 C 615.941 4.49056 -0.900703 0
M  V30 6886 N 617.432 4.55215 -0.856367 0
M  V30 6887 C 618.167 5.61282 -1.17259 0
M  V30 6888 N 617.663 6.75035 -1.55885 0
M  V30 6889 N 619.456 5.51343 -1.0944 0
M  V30 6890 H 611.607 1.64224 -1.347 0
M  V30 6891 H 613.87 0.771033 -0.551554 0
M  V30 6892 H 613.576 3.16388 -1.53595 0
M  V30 6893 H 613.45 3.77052 0.105789 0
M  V30 6894 H 615.837 2.89504 0.571949 0
M  V30 6895 H 615.918 2.31113 -1.09638 0
M  V30 6896 H 615.562 4.69964 -1.92604 0
M  V30 6897 H 615.492 5.26068 -0.236629 0
M  V30 6898 H 617.983 3.73546 -0.572013 0
M  V30 6899 H 618.296 7.51926 -1.784 0
M  V30 6900 H 616.641 6.76388 -1.59764 0
M  V30 6901 H 619.832 4.61356 -0.791713 0
M  V30 6902 H 620.005 6.33905 -1.34417 0
M  V30 6903 N 613.412 0.11024 1.57214 0
M  V30 6904 C 614.823 -0.416527 1.81994 0
M  V30 6905 C 615.174 -1.67183 1.02686 0
M  V30 6906 O 614.299 -2.14823 0.260782 0
M  V30 6907 C 614.894 -0.762466 3.30109 0
M  V30 6908 C 613.453 -1.23391 3.556 0
M  V30 6909 C 612.6 -0.238166 2.76275 0
M  V30 6910 H 615.551 0.335491 1.55113 0
M  V30 6911 H 615.572 -1.62068 3.44259 0
M  V30 6912 H 615.084 0.151346 3.87805 0
M  V30 6913 H 613.185 -2.16492 3.03253 0
M  V30 6914 H 613.298 -1.18528 4.64207 0
M  V30 6915 H 611.662 -0.723421 2.4421 0
M  V30 6916 H 612.445 0.668591 3.36727 0
M  V30 6917 N 614.89 -1.56749 -0.16351 0
M  V30 6918 C 616.306 -1.51043 -0.515567 0
M  V30 6919 C 616.506 -0.815855 -1.84245 0
M  V30 6920 O 615.562 -0.379477 -2.49632 0
M  V30 6921 C 616.875 -2.95791 -0.541114 0
M  V30 6922 C 618.423 -3.0664 -0.627776 0
M  V30 6923 C 618.898 -4.52861 -0.684141 0
M  V30 6924 N 620.389 -4.5714 -0.746818 0
M  V30 6925 C 621.124 -5.67634 -0.811137 0
M  V30 6926 N 620.62 -6.8774 -0.835811 0
M  V30 6927 N 622.413 -5.55624 -0.850756 0
M  V30 6928 H 614.564 -2.00307 0.70645 0
M  V30 6929 H 616.827 -0.912876 0.255659 0
M  V30 6930 H 616.533 -3.49797 0.365329 0
M  V30 6931 H 616.407 -3.50858 -1.38487 0
M  V30 6932 H 618.794 -2.52663 -1.52464 0
M  V30 6933 H 618.875 -2.54645 0.242805 0
M  V30 6934 H 618.519 -5.07472 0.2085 0
M  V30 6935 H 618.449 -5.02621 -1.57098 0
M  V30 6936 H 620.94 -3.70669 -0.735717 0
M  V30 6937 H 621.253 -7.67701 -0.886279 0
M  V30 6938 H 619.598 -6.90334 -0.803958 0
M  V30 6939 H 622.789 -4.60709 -0.828535 0
M  V30 6940 H 622.962 -6.41756 -0.897418 0
M  V30 6941 N 616.368 0.432326 -1.51554 0
M  V30 6942 C 617.645 1.19288 -1.55015 0
M  V30 6943 C 618.025 2.08701 -0.317375 0
M  V30 6944 O 617.373 2.17602 0.697243 0
M  V30 6945 C 617.583 1.99037 -2.86679 0
M  V30 6946 C 618.931 2.55907 -3.38817 0
M  V30 6947 O 619.955 2.09243 -2.88263 0
M  V30 6948 O 618.814 3.41029 -4.27038 0
M  V30 6949 H 615.908 0.543369 -0.623441 0
M  V30 6950 H 618.454 0.440988 -1.6387 0
M  V30 6951 H 617.226 1.33397 -3.6786 0
M  V30 6952 H 616.849 2.81281 -2.8101 0
M  V30 6953 N 617.846 1.41785 0.688094 0
M  V30 6954 C 619.123 1.32031 1.44316 0
M  V30 6955 C 619.503 -0.0486079 2.11044 0
M  V30 6956 O 618.851 -1.06332 2.02252 0
M  V30 6957 C 619.061 2.47906 2.45649 0
M  V30 6958 C 620.409 2.89415 3.10683 0
M  V30 6959 O 621.433 2.477 2.55975 0
M  V30 6960 O 620.292 3.61573 4.09789 0
M  V30 6961 H 617.386 0.519994 0.643067 0
M  V30 6962 H 619.932 1.53765 0.71794 0
M  V30 6963 H 618.704 3.39222 1.95048 0
M  V30 6964 H 618.327 2.28089 3.25671 0
M  V30 6965 N 619.324 -0.923095 1.27737 0
M  V30 6966 C 620.573 -1.66581 1.13727 0
M  V30 6967 C 620.886 -1.9304 -0.315433 0
M  V30 6968 O 622.092 -2.65309 -0.57651 0
M  V30 6969 C 620.548 -3.00047 1.98745 0
M  V30 6970 C 620.156 -2.8127 3.48699 0
M  V30 6971 C 621.9 -3.77887 1.93395 0
M  V30 6972 C 619.807 -4.1032 4.25901 0
M  V30 6973 H 618.737 -0.624834 0.422017 0
M  V30 6974 H 621.388 -1.02514 1.52194 0
M  V30 6975 H 619.77 -3.65197 1.53125 0
M  V30 6976 H 620.944 -2.24859 4.02213 0
M  V30 6977 H 619.259 -2.16854 3.55476 0
M  V30 6978 H 621.856 -4.73526 2.48348 0
M  V30 6979 H 622.199 -4.06264 0.908605 0
M  V30 6980 H 622.732 -3.19541 2.36935 0
M  V30 6981 H 619.471 -3.8712 5.28978 0
M  V30 6982 H 618.991 -4.66377 3.77163 0
M  V30 6983 H 620.67 -4.78648 4.35321 0
M  V30 6984 N 620.802 -1.09834 -1.13024 0
M  V30 6985 C 621.732 -0.763451 -2.20666 0
M  V30 6986 C 622.713 0.260778 -1.68089 0
M  V30 6987 O 623.898 0.127915 -1.93778 0
M  V30 6988 C 621.028 -0.187744 -3.46792 0
M  V30 6989 C 619.982 -1.14196 -4.12484 0
M  V30 6990 C 619.308 -0.427755 -5.32986 0
M  V30 6991 C 620.608 -2.48607 -4.59338 0
M  V30 6992 H 622.302 -1.66347 -2.48936 0
M  V30 6993 H 619.848 -0.801261 -1.19649 0
M  V30 6994 H 621.801 0.0586375 -4.21359 0
M  V30 6995 H 620.525 0.747485 -3.17931 0
M  V30 6996 H 619.184 -1.37369 -3.3989 0
M  V30 6997 H 618.832 0.511747 -5.0039 0
M  V30 6998 H 618.532 -1.06403 -5.77886 0
M  V30 6999 H 620.056 -0.189772 -6.10305 0
M  V30 7000 H 621.47 -2.29618 -5.25308 0
M  V30 7001 H 619.867 -3.08062 -5.14993 0
M  V30 7002 H 620.937 -3.09062 -3.73642 0
M  V30 7003 N 622.28 1.30327 -0.886154 0
M  V30 7004 C 623.505 2.0079 -0.519425 0
M  V30 7005 C 623.93 1.65979 0.885013 0
M  V30 7006 O 623.288 0.877043 1.58675 0
M  V30 7007 C 623.336 3.53686 -0.702758 0
M  V30 7008 O 622.44 4.11637 0.250828 0
M  V30 7009 H 621.781 0.63171 -0.204544 0
M  V30 7010 H 624.311 1.66145 -1.19402 0
M  V30 7011 H 624.321 4.03531 -0.602207 0
M  V30 7012 H 622.996 3.78361 -1.72673 0
M  V30 7013 H 621.573 3.72755 0.103873 0
M  V30 7014 N 623.758 0.647228 1.43697 0
M  V30 7015 C 625.174 0.314256 1.56476 0
M  V30 7016 C 625.374 -1.18191 1.63196 0
M  V30 7017 O 624.43 -1.96655 1.58376 0
M  V30 7018 C 625.743 1.02034 2.82859 0
M  V30 7019 C 627.291 1.00002 2.96595 0
M  V30 7020 C 627.766 1.68689 4.25803 0
M  V30 7021 N 629.257 1.65424 4.32654 0
M  V30 7022 C 629.992 2.1545 5.31384 0
M  V30 7023 N 629.488 2.73738 6.36427 0
M  V30 7024 N 631.281 2.05985 5.22998 0
M  V30 7025 H 623.432 1.61821 1.37578 0
M  V30 7026 H 625.695 0.680184 0.660344 0
M  V30 7027 H 625.401 2.07542 2.83935 0
M  V30 7028 H 625.275 0.568146 3.72897 0
M  V30 7029 H 627.662 -0.0466319 2.95063 0
M  V30 7030 H 627.743 1.49086 2.07863 0
M  V30 7031 H 627.387 2.73308 4.28095 0
M  V30 7032 H 627.317 1.17076 5.13421 0
M  V30 7033 H 629.808 1.22884 3.57363 0
M  V30 7034 H 630.121 3.09602 7.08072 0
M  V30 7035 H 628.466 2.77796 6.37067 0
M  V30 7036 H 631.657 1.60157 4.39849 0
M  V30 7037 H 631.83 2.45281 5.99784 0
M  V30 7038 N 625.236 -1.5273 0.388769 0
M  V30 7039 C 626.652 -1.59553 0.0387049 0
M  V30 7040 C 626.852 -1.40278 -1.44652 0
M  V30 7041 O 625.908 -1.21951 -2.21098 0
M  V30 7042 C 627.221 -2.9625 0.515409 0
M  V30 7043 C 628.769 -3.09426 0.471621 0
M  V30 7044 C 629.244 -4.48572 0.924505 0
M  V30 7045 N 630.735 -4.54754 0.880496 0
M  V30 7046 C 631.47 -5.60653 1.20234 0
M  V30 7047 N 630.966 -6.74198 1.59463 0
M  V30 7048 N 632.759 -5.50755 1.12363 0
M  V30 7049 H 624.91 -1.63508 1.35569 0
M  V30 7050 H 627.173 -0.768097 0.555636 0
M  V30 7051 H 626.879 -3.15569 1.5527 0
M  V30 7052 H 626.753 -3.77102 -0.085792 0
M  V30 7053 H 629.14 -2.89804 -0.556588 0
M  V30 7054 H 629.221 -2.30528 1.10862 0
M  V30 7055 H 628.865 -4.68936 1.95094 0
M  V30 7056 H 628.795 -5.25935 0.264524 0
M  V30 7057 H 631.286 -3.73237 0.591815 0
M  V30 7058 H 631.599 -7.5097 1.82385 0
M  V30 7059 H 629.944 -6.75531 1.63349 0
M  V30 7060 H 633.135 -4.6093 0.816169 0
M  V30 7061 H 633.308 -6.33184 1.37777 0
M  V30 7062 N 626.714 -0.118576 -1.57153 0
M  V30 7063 C 627.624 0.845484 -2.18835 0
M  V30 7064 C 628.64 1.29299 -1.16438 0
M  V30 7065 O 629.816 1.35607 -1.48905 0
M  V30 7066 C 626.881 2.07795 -2.77529 0
M  V30 7067 C 625.942 1.6824 -3.9496 0
M  V30 7068 C 625.175 2.85612 -4.50845 0
M  V30 7069 O 625.398 4.01025 -4.05629 0
M  V30 7070 O 624.332 2.62721 -5.41536 0
M  V30 7071 H 628.158 0.350568 -3.0167 0
M  V30 7072 H 625.743 0.107013 -1.49016 0
M  V30 7073 H 627.625 2.79978 -3.14945 0
M  V30 7074 H 626.3 2.56294 -1.97725 0
M  V30 7075 H 625.207 0.931663 -3.62313 0
M  V30 7076 H 626.54 1.24484 -4.76198 0
M  V30 7077 N 628.193 1.56834 0.155195 0
M  V30 7078 C 629.609 1.51315 0.50755 0
M  V30 7079 C 629.809 0.825614 1.83809 0
M  V30 7080 O 628.865 0.39271 2.49427 0
M  V30 7081 C 630.178 2.96074 0.52542 0
M  V30 7082 C 631.726 3.06968 0.611505 0
M  V30 7083 C 632.201 4.53218 0.660115 0
M  V30 7084 N 633.692 4.5753 0.722564 0
M  V30 7085 C 634.427 5.68056 0.781023 0
M  V30 7086 N 633.923 6.88173 0.799327 0
M  V30 7087 N 635.716 5.56068 0.821278 0
M  V30 7088 H 627.867 1.9993 -0.717063 0
M  V30 7089 H 630.13 0.911507 -0.260496 0
M  V30 7090 H 629.836 3.49599 -0.383875 0
M  V30 7091 H 629.71 3.51587 1.36624 0
M  V30 7092 H 632.097 2.53468 1.51122 0
M  V30 7093 H 632.178 2.54513 -0.256306 0
M  V30 7094 H 631.822 5.07354 -0.23541 0
M  V30 7095 H 631.752 5.03447 1.5443 0
M  V30 7096 H 634.243 3.71054 0.716049 0
M  V30 7097 H 634.556 7.6816 0.845553 0
M  V30 7098 H 632.901 6.90751 0.767337 0
M  V30 7099 H 636.092 4.61142 0.804091 0
M  V30 7100 H 636.265 6.42223 0.863372 0
M  V30 7101 N 629.671 -0.424282 1.51781 0
M  V30 7102 C 630.896 -1.19928 1.6921 0
M  V30 7103 C 631.321 -1.8392 0.394355 0
M  V30 7104 O 630.679 -1.69371 -0.646778 0
M  V30 7105 C 630.727 -2.24937 2.81843 0
M  V30 7106 O 629.831 -3.3073 2.46356 0
M  V30 7107 H 629.172 -0.35078 0.563781 0
M  V30 7108 H 631.702 -0.499401 1.98412 0
M  V30 7109 H 631.712 -2.69512 3.06312 0
M  V30 7110 H 630.387 -1.77742 3.76006 0
M  V30 7111 H 628.964 -2.9154 2.32505 0
M  V30 7112 N 631.149 -1.42148 -0.680565 0
M  V30 7113 C 632.096 -1.45175 -1.79424 0
M  V30 7114 C 633.066 -0.304352 -1.63288 0
M  V30 7115 O 634.251 -0.507591 -1.83924 0
M  V30 7116 C 631.391 -1.35429 -3.17416 0
M  V30 7117 C 630.504 -2.60158 -3.4488 0
M  V30 7118 C 629.639 -2.42596 -4.72568 0
M  V30 7119 C 628.678 -3.62727 -4.93047 0
M  V30 7120 N 627.815 -3.44143 -6.11973 0
M  V30 7121 H 632.655 -2.40349 -1.76172 0
M  V30 7122 H 630.192 -1.19334 -0.860107 0
M  V30 7123 H 632.15 -1.27777 -3.97151 0
M  V30 7124 H 630.78 -0.438536 -3.19807 0
M  V30 7125 H 629.832 -2.78199 -2.5944 0
M  V30 7126 H 631.144 -3.49473 -3.55908 0
M  V30 7127 H 630.298 -2.32497 -5.60384 0
M  V30 7128 H 629.037 -1.50761 -4.63813 0
M  V30 7129 H 628.042 -3.73264 -4.03676 0
M  V30 7130 H 629.267 -4.55534 -5.03652 0
M  V30 7131 H 627.213 -2.5502 -6.04401 0
M  V30 7132 H 627.13 -4.27041 -6.23836 0
M  V30 7133 H 628.398 -3.37845 -7.02482 0
M  V30 7134 N 632.627 0.916307 -1.28225 0
M  V30 7135 C 633.904 1.64429 -1.05936 0
M  V30 7136 C 634.284 2.07234 0.402139 0
M  V30 7137 O 633.632 1.81535 1.3877 0
M  V30 7138 C 633.842 2.83773 -2.03159 0
M  V30 7139 C 635.19 3.54852 -2.33164 0
M  V30 7140 O 636.214 2.93918 -2.01223 0
M  V30 7141 O 635.073 4.64663 -2.87664 0
M  V30 7142 H 632.167 0.721221 -0.404683 0
M  V30 7143 H 634.713 0.965838 -1.39534 0
M  V30 7144 H 633.485 2.49217 -3.01673 0
M  V30 7145 H 633.108 3.59333 -1.70192 0
M  V30 7146 N 634.105 1.10431 1.1244 0
M  V30 7147 C 635.068 0.756542 2.16354 0
M  V30 7148 C 636.068 -0.21899 1.59302 0
M  V30 7149 O 637.258 0.00415969 1.742 0
M  V30 7150 C 634.39 0.120612 3.40687 0
M  V30 7151 H 635.583 1.67696 2.48632 0
M  V30 7152 H 633.136 0.904832 1.27446 0
M  V30 7153 H 633.871 -0.810536 3.14008 0
M  V30 7154 H 633.656 0.822693 3.83372 0
M  V30 7155 H 635.146 -0.106945 4.17463 0
M  V30 7156 N 635.583 -1.29855 0.893053 0
M  V30 7157 C 636.808 -2.00512 0.530066 0
M  V30 7158 C 637.233 -1.66446 -0.876199 0
M  V30 7159 O 636.591 -0.885446 -1.58207 0
M  V30 7160 C 636.639 -3.53308 0.721505 0
M  V30 7161 O 635.743 -4.11764 -0.228994 0
M  V30 7162 H 635.084 -0.630617 0.207891 0
M  V30 7163 H 637.614 -1.6551 1.20282 0
M  V30 7164 H 637.624 -4.03206 0.623599 0
M  V30 7165 H 636.299 -3.77439 1.74678 0
M  V30 7166 H 634.876 -3.72805 -0.0841034 0
M  V30 7167 N 637.061 -0.65484 -1.43351 0
M  V30 7168 C 638.472 -0.248506 -1.85039 0
M  V30 7169 C 638.823 1.20526 -1.54816 0
M  V30 7170 O 637.948 1.92016 -0.99794 0
M  V30 7171 C 638.543 -0.444241 -3.35875 0
M  V30 7172 C 637.102 -0.0922108 -3.76287 0
M  V30 7173 C 636.249 -0.746327 -2.67068 0
M  V30 7174 H 639.2 -0.8584 -1.33481 0
M  V30 7175 H 639.221 0.309762 -3.79237 0
M  V30 7176 H 638.733 -1.50239 -3.5784 0
M  V30 7177 H 636.834 0.96328 -3.59933 0
M  V30 7178 H 636.947 -0.518807 -4.76283 0
M  V30 7179 H 635.311 -0.179416 -2.54067 0
M  V30 7180 H 636.094 -1.80754 -2.91861 0
M  V30 7181 N 638.539 1.52521 -0.396863 0
M  V30 7182 C 639.788 2.00857 0.184184 0
M  V30 7183 C 640.101 1.28733 1.47265 0
M  V30 7184 O 641.307 1.67821 2.13421 0
M  V30 7185 C 639.763 3.57901 0.378787 0
M  V30 7186 C 639.371 4.38931 -0.896873 0
M  V30 7187 C 641.115 4.14504 0.915789 0
M  V30 7188 C 639.022 5.87591 -0.670133 0
M  V30 7189 H 637.952 0.750496 0.0726055 0
M  V30 7190 H 640.603 1.75965 -0.520425 0
M  V30 7191 H 638.985 3.79072 1.14543 0
M  V30 7192 H 640.159 4.29524 -1.66872 0
M  V30 7193 H 638.474 3.93586 -1.35938 0
M  V30 7194 H 641.071 5.23236 1.10126 0
M  V30 7195 H 641.414 3.71076 1.88701 0
M  V30 7196 H 641.947 3.97253 0.208523 0
M  V30 7197 H 638.686 6.35355 -1.61257 0
M  V30 7198 H 638.206 5.99767 0.0626368 0
M  V30 7199 H 639.885 6.46268 -0.307577 0
M  V30 7200 N 640.017 0.126909 1.57088 0
M  V30 7201 C 640.965 -0.837618 2.16995 0
M  V30 7202 C 641.959 -1.26974 1.12133 0
M  V30 7203 O 643.165 -1.24056 1.30423 0
M  V30 7204 H 639.54 -0.288256 0.694559 0
M  V30 7205 H 641.511 -0.307957 2.96807 0
M  V30 7206 C 640.26 -2.07474 2.79016 0
M  V30 7207 H 639.583 -1.75117 3.59408 0
M  V30 7208 H 641.023 -2.72949 3.24461 0
M  V30 7209 C 639.482 -2.86967 1.76498 0
M  V30 7210 O 640.012 -3.82625 1.22316 0
M  V30 7211 N 638.218 -2.51111 1.46258 0
M  V30 7212 H 637.765 -1.73389 1.90509 0
M  V30 7213 H 637.723 -3.04594 0.779085 0
M  V30 7214 N 641.495 -1.56914 -0.146875 0
M  V30 7215 C 642.911 -1.51582 -0.499518 0
M  V30 7216 C 643.111 -0.83535 -1.83369 0
M  V30 7217 O 642.167 -0.405932 -2.49216 0
M  V30 7218 C 643.48 -2.96349 -0.509711 0
M  V30 7219 C 645.028 -3.07288 -0.595217 0
M  V30 7220 C 645.503 -4.53562 -0.636071 0
M  V30 7221 N 646.994 -4.57906 -0.69829 0
M  V30 7222 C 647.729 -5.68462 -0.750886 0
M  V30 7223 N 647.225 -6.88588 -0.76282 0
M  V30 7224 N 649.018 -5.56496 -0.791777 0
M  V30 7225 H 641.169 -1.99547 0.727656 0
M  V30 7226 H 643.432 -0.910113 0.265327 0
M  V30 7227 H 643.138 -3.4939 0.402409 0
M  V30 7228 H 643.012 -3.52307 -1.34758 0
M  V30 7229 H 645.399 -2.54266 -1.49776 0
M  V30 7230 H 645.48 -2.54373 0.2698 0
M  V30 7231 H 645.124 -5.07222 0.262313 0
M  V30 7232 H 645.054 -5.04259 -1.51758 0
M  V30 7233 H 647.545 -3.71429 -0.696362 0
M  V30 7234 H 647.858 -7.68598 -0.804804 0
M  V30 7235 H 646.203 -6.91148 -0.730694 0
M  V30 7236 H 649.394 -4.61562 -0.779624 0
M  V30 7237 H 649.567 -6.42671 -0.829301 0
M  V30 7238 N 642.974 0.416227 -1.52004 0
M  V30 7239 C 644.22 1.16233 -1.66917 0
M  V30 7240 C 644.575 1.8839 -0.390763 0
M  V30 7241 O 643.868 1.81479 0.614478 0
M  V30 7242 C 644.062 2.18923 -2.82502 0
M  V30 7243 C 643.891 1.56849 -4.2146 0
M  V30 7244 C 642.661 1.34426 -4.87091 0
M  V30 7245 C 644.859 1.03322 -5.03815 0
M  V30 7246 N 642.841 0.681703 -6.10103 0
M  V30 7247 C 644.212 0.497165 -6.18003 0
M  V30 7248 C 646.267 0.926997 -4.89194 0
M  V30 7249 C 644.97 -0.134687 -7.19174 0
M  V30 7250 C 646.996 0.309009 -5.90592 0
M  V30 7251 C 646.358 -0.216399 -7.04068 0
M  V30 7252 H 642.457 0.412252 -0.664509 0
M  V30 7253 H 645.041 0.455758 -1.89291 0
M  V30 7254 H 643.212 2.86946 -2.61756 0
M  V30 7255 H 644.944 2.85844 -2.86488 0
M  V30 7256 H 641.699 1.61183 -4.45328 0
M  V30 7257 H 642.123 0.367256 -6.76003 0
M  V30 7258 H 646.765 1.31904 -4.01698 0
M  V30 7259 H 644.483 -0.538811 -8.06302 0
M  V30 7260 H 648.069 0.228438 -5.81351 0
M  V30 7261 H 646.949 -0.687064 -7.81184 0
M  V30 7262 N 644.452 1.42507 0.673017 0
M  V30 7263 C 645.677 1.4668 1.46627 0
M  V30 7264 C 646.102 0.080066 1.8793 0
M  V30 7265 O 645.46 -0.921879 1.56112 0
M  V30 7266 C 645.508 2.40091 2.69051 0
M  V30 7267 O 644.612 1.8735 3.67387 0
M  V30 7268 H 643.953 0.496908 0.44043 0
M  V30 7269 H 646.483 1.87215 0.825334 0
M  V30 7270 H 646.493 2.56731 3.17101 0
M  V30 7271 H 645.168 3.4084 2.3833 0
M  V30 7272 H 643.745 1.80274 3.26429 0
M  V30 7273 N 645.93 -0.909495 1.28709 0
M  V30 7274 C 647.341 -1.47419 1.14563 0
M  V30 7275 C 647.692 -1.94432 -0.262832 0
M  V30 7276 O 646.817 -1.82842 -1.15748 0
M  V30 7277 C 647.412 -2.67933 2.07358 0
M  V30 7278 C 645.971 -3.20568 1.97264 0
M  V30 7279 C 645.118 -1.93269 1.98852 0
M  V30 7280 H 648.069 -0.721787 1.41336 0
M  V30 7281 H 648.09 -3.43339 1.64007 0
M  V30 7282 H 647.602 -2.33685 3.09859 0
M  V30 7283 H 645.703 -3.59531 0.978157 0
M  V30 7284 H 645.816 -3.85529 2.84436 0
M  V30 7285 H 644.18 -2.10553 1.43317 0
M  V30 7286 H 644.963 -1.61312 3.0304 0
M  V30 7287 N 647.408 -1.11026 -1.11852 0
M  V30 7288 C 648.636 -0.878818 -1.87308 0
M  V30 7289 C 649.051 0.57111 -1.79955 0
M  V30 7290 O 648.408 1.39409 -1.17777 0
M  V30 7291 C 648.459 -1.3264 -3.36287 0
M  V30 7292 O 648.18 -2.71948 -3.43476 0
M  V30 7293 C 649.681 -1.12974 -4.28663 0
M  V30 7294 H 646.901 -0.315015 -0.592458 0
M  V30 7295 H 649.445 -1.47649 -1.41492 0
M  V30 7296 H 647.6 -0.772269 -3.79625 0
M  V30 7297 H 648.014 -2.91241 -4.3621 0
M  V30 7298 H 649.488 -1.49198 -5.31454 0
M  V30 7299 H 649.965 -0.0689127 -4.39146 0
M  V30 7300 H 650.571 -1.67064 -3.91113 0
M  V30 7301 N 648.886 1.2938 -0.899927 0
M  V30 7302 C 650.302 1.48052 -0.596059 0
M  V30 7303 C 650.502 1.82114 0.862372 0
M  V30 7304 O 649.558 1.91774 1.64253 0
M  V30 7305 C 650.871 2.59332 -1.52208 0
M  V30 7306 C 652.419 2.73208 -1.5273 0
M  V30 7307 C 652.894 3.87617 -2.43961 0
M  V30 7308 N 654.385 3.9495 -2.42009 0
M  V30 7309 C 655.12 4.82824 -3.09303 0
M  V30 7310 N 654.616 5.75387 -3.85877 0
M  V30 7311 N 656.409 4.76317 -2.98459 0
M  V30 7312 H 648.56 1.05546 -1.8432 0
M  V30 7313 H 650.823 0.524314 -0.78981 0
M  V30 7314 H 650.529 2.41029 -2.56121 0
M  V30 7315 H 650.403 3.56139 -1.24278 0
M  V30 7316 H 652.79 2.90908 -0.495614 0
M  V30 7317 H 652.871 1.76975 -1.84698 0
M  V30 7318 H 652.515 3.70672 -3.47224 0
M  V30 7319 H 652.445 4.83218 -2.09303 0
M  V30 7320 H 654.936 3.28744 -1.86375 0
M  V30 7321 H 655.249 6.39235 -4.34279 0
M  V30 7322 H 653.594 5.75272 -3.89984 0
M  V30 7323 H 656.785 4.0299 -2.38152 0
M  V30 7324 H 656.958 5.44589 -3.51179 0
M  V30 7325 N 650.364 0.662433 1.43002 0
M  V30 7326 C 651.78 0.330835 1.56133 0
M  V30 7327 C 651.98 -1.16454 1.64441 0
M  V30 7328 O 651.036 -1.94964 1.60453 0
M  V30 7329 C 652.349 1.05029 2.81761 0
M  V30 7330 C 653.897 1.03142 2.95518 0
M  V30 7331 C 654.372 1.73196 4.2399 0
M  V30 7332 N 655.863 1.70004 4.30875 0
M  V30 7333 C 656.598 2.21074 5.29069 0
M  V30 7334 N 656.094 2.80473 6.33488 0
M  V30 7335 N 657.887 2.1152 5.20784 0
M  V30 7336 H 650.038 1.63272 1.35853 0
M  V30 7337 H 652.301 0.687149 0.653092 0
M  V30 7338 H 652.007 2.10542 2.81718 0
M  V30 7339 H 651.881 0.607664 3.72273 0
M  V30 7340 H 654.268 -0.0153339 2.95096 0
M  V30 7341 H 654.349 1.51282 2.0627 0
M  V30 7342 H 653.993 2.77833 4.25172 0
M  V30 7343 H 653.923 1.22515 5.1215 0
M  V30 7344 H 656.414 1.26667 3.56039 0
M  V30 7345 H 656.727 3.17094 7.04749 0
M  V30 7346 H 655.072 2.84538 6.34085 0
M  V30 7347 H 658.263 1.64814 4.38126 0
M  V30 7348 H 658.436 2.51629 5.97149 0
M  V30 7349 N 651.842 -1.52309 0.404946 0
M  V30 7350 C 653.258 -1.59503 0.0556255 0
M  V30 7351 C 653.458 -1.41805 -1.43156 0
M  V30 7352 O 652.514 -1.2429 -2.19792 0
M  V30 7353 C 653.827 -2.95687 0.546801 0
M  V30 7354 C 655.375 -3.08909 0.504413 0
M  V30 7355 C 655.85 -4.47566 0.97203 0
M  V30 7356 N 657.341 -4.53795 0.928679 0
M  V30 7357 C 658.076 -5.59346 1.26174 0
M  V30 7358 N 657.572 -6.72469 1.66604 0
M  V30 7359 N 659.365 -5.49532 1.18198 0
M  V30 7360 H 651.516 -1.6206 1.37296 0
M  V30 7361 H 653.779 -0.762161 0.563751 0
M  V30 7362 H 653.485 -3.13905 1.58609 0
M  V30 7363 H 653.359 -3.77172 -0.0457905 0
M  V30 7364 H 655.746 -2.90378 -0.525819 0
M  V30 7365 H 655.827 -2.2934 1.13301 0
M  V30 7366 H 655.471 -4.6684 2.00057 0
M  V30 7367 H 655.401 -5.25625 0.320292 0
M  V30 7368 H 657.892 -3.72588 0.631369 0
M  V30 7369 H 658.205 -7.48993 1.9034 0
M  V30 7370 H 656.55 -6.73761 1.70504 0
M  V30 7371 H 659.741 -4.60038 0.865011 0
M  V30 7372 H 659.914 -6.31687 1.44485 0
M  V30 7373 N 653.32 -0.135238 -1.57019 0
M  V30 7374 C 654.545 0.529343 -2.00531 0
M  V30 7375 C 654.97 1.58391 -1.01459 0
M  V30 7376 O 654.328 1.81296 0.0113986 0
M  V30 7377 C 654.376 1.11748 -3.42848 0
M  V30 7378 O 653.48 2.23267 -3.46736 0
M  V30 7379 H 652.821 0.130669 -0.651016 0
M  V30 7380 H 655.351 -0.228503 -2.0332 0
M  V30 7381 H 655.361 1.44905 -3.81401 0
M  V30 7382 H 654.036 0.345147 -4.14465 0
M  V30 7383 H 652.613 1.91428 -3.20015 0
M  V30 7384 N 654.798 1.5699 0.138552 0
M  V30 7385 C 656.214 1.51844 0.491472 0
M  V30 7386 C 656.414 0.845063 1.82923 0
M  V30 7387 O 655.47 0.419143 2.48997 0
M  V30 7388 C 656.783 2.96615 0.493987 0
M  V30 7389 C 658.331 3.076 0.578913 0
M  V30 7390 C 658.806 4.53893 0.612009 0
M  V30 7391 N 660.297 4.5827 0.673997 0
M  V30 7392 C 661.032 5.68852 0.720729 0
M  V30 7393 N 660.528 6.88982 0.726292 0
M  V30 7394 N 662.321 5.56908 0.762253 0
M  V30 7395 H 654.472 1.99158 -0.738228 0
M  V30 7396 H 656.735 0.908693 -0.270149 0
M  V30 7397 H 656.441 3.49172 -0.420933 0
M  V30 7398 H 656.315 3.53017 1.32887 0
M  V30 7399 H 658.702 2.55057 1.48425 0
M  V30 7400 H 658.783 2.54227 -0.283286 0
M  V30 7401 H 658.427 5.07076 -0.289208 0
M  V30 7402 H 658.357 5.05057 1.49082 0
M  V30 7403 H 660.848 3.71793 0.676654 0
M  V30 7404 H 661.161 7.69014 0.764032 0
M  V30 7405 H 659.506 6.91526 0.69403 0
M  V30 7406 H 662.697 4.61969 0.755135 0
M  V30 7407 H 662.87 6.43102 0.795207 0
M  V30 7408 N 656.276 -0.40816 1.52223 0
M  V30 7409 C 657.501 -1.18127 1.70472 0
M  V30 7410 C 657.926 -1.83491 0.41384 0
M  V30 7411 O 657.284 -1.70047 -0.628778 0
M  V30 7412 C 657.332 -2.21935 2.84213 0
M  V30 7413 O 656.436 -3.28099 2.4985 0
M  V30 7414 H 655.777 -0.344781 0.56747 0
M  V30 7415 H 658.307 -0.478328 1.9893 0
M  V30 7416 H 658.317 -2.66248 3.09153 0
M  V30 7417 H 656.992 -1.73744 3.7787 0
M  V30 7418 H 655.569 -2.89058 2.35584 0
M  V30 7419 N 657.755 -1.42862 -0.66545 0
M  V30 7420 C 659.166 -1.3901 -1.24632 0
M  V30 7421 C 659.517 -0.0880285 -1.96002 0
M  V30 7422 O 658.642 0.812947 -2.0055 0
M  V30 7423 C 659.237 -2.51806 -2.2667 0
M  V30 7424 C 657.796 -2.51257 -2.80262 0
M  V30 7425 C 656.943 -2.30124 -1.5472 0
M  V30 7426 H 659.894 -1.5194 -0.458237 0
M  V30 7427 H 659.915 -2.22593 -3.08598 0
M  V30 7428 H 659.427 -3.46558 -1.74697 0
M  V30 7429 H 657.528 -1.60349 -3.36332 0
M  V30 7430 H 657.641 -3.48614 -3.28641 0
M  V30 7431 H 656.005 -1.7856 -1.81627 0
M  V30 7432 H 656.788 -3.26945 -1.04699 0
M  V30 7433 N 659.233 0.902656 -1.29189 0
M  V30 7434 C 660.482 1.6475 -1.16362 0
M  V30 7435 C 660.795 1.93517 0.284682 0
M  V30 7436 O 662.001 2.66192 0.534229 0
M  V30 7437 C 660.457 2.96848 -2.03493 0
M  V30 7438 C 660.065 2.75687 -3.5313 0
M  V30 7439 C 661.809 3.74762 -1.99383 0
M  V30 7440 C 659.716 4.03492 -4.32375 0
M  V30 7441 H 658.646 0.618041 -0.431904 0
M  V30 7442 H 661.297 1.0008 -1.53806 0
M  V30 7443 H 659.679 3.62715 -1.58916 0
M  V30 7444 H 660.853 2.18431 -4.05739 0
M  V30 7445 H 659.168 2.11171 -3.58881 0
M  V30 7446 H 661.765 4.69515 -2.5585 0
M  V30 7447 H 662.108 4.04767 -0.973123 0
M  V30 7448 H 662.641 3.15732 -2.41988 0
M  V30 7449 H 659.38 3.78656 -5.3507 0
M  V30 7450 H 658.9 4.60318 -3.84535 0
M  V30 7451 H 660.579 4.71662 -4.42881 0
M  V30 7452 N 660.711 1.11618 1.11262 0
M  V30 7453 C 662.127 0.850468 1.35053 0
M  V30 7454 C 662.327 -0.523868 1.94571 0
M  V30 7455 O 661.383 -1.2743 2.17986 0
M  V30 7456 C 662.696 1.96005 2.28041 0
M  V30 7457 C 664.244 1.98993 2.416 0
M  V30 7458 C 664.719 3.0916 3.37911 0
M  V30 7459 N 666.21 3.08547 3.45475 0
M  V30 7460 C 666.945 3.9043 4.19943 0
M  V30 7461 N 666.441 4.8228 4.97371 0
M  V30 7462 N 668.234 3.786 4.15474 0
M  V30 7463 H 660.385 2.00184 0.709932 0
M  V30 7464 H 662.648 0.870635 0.375099 0
M  V30 7465 H 662.354 2.9499 1.91503 0
M  V30 7466 H 662.228 1.85782 3.28275 0
M  V30 7467 H 664.615 1.00633 2.77411 0
M  V30 7468 H 664.696 2.13292 1.4121 0
M  V30 7469 H 664.34 4.07748 3.02827 0
M  V30 7470 H 664.27 2.92102 4.3816 0
M  V30 7471 H 666.761 2.42 2.90249 0
M  V30 7472 H 667.074 5.41289 5.51567 0
M  V30 7473 H 665.419 4.863 4.96525 0
M  V30 7474 H 668.61 3.06185 3.54074 0
M  V30 7475 H 668.783 4.42647 4.73253 0
M  V30 7476 N 662.189 -1.289 0.906776 0
M  V30 7477 C 663.605 -1.47733 0.603902 0
M  V30 7478 C 663.805 -1.82568 -0.852702 0
M  V30 7479 O 662.861 -1.92642 -1.63234 0
M  V30 7480 C 664.174 -2.58522 1.53581 0
M  V30 7481 C 665.722 -2.72394 1.54177 0
M  V30 7482 C 666.197 -3.86318 2.46013 0
M  V30 7483 N 667.688 -3.93661 2.441 0
M  V30 7484 C 668.423 -4.81177 3.11859 0
M  V30 7485 N 667.919 -5.73333 3.88923 0
M  V30 7486 N 669.712 -4.74728 3.00981 0
M  V30 7487 H 661.863 -1.04567 1.84877 0
M  V30 7488 H 664.126 -0.520118 0.792579 0
M  V30 7489 H 663.832 -2.39667 2.57396 0
M  V30 7490 H 663.706 -3.55475 1.26165 0
M  V30 7491 H 666.093 -2.90641 0.511034 0
M  V30 7492 H 666.174 -1.75993 1.85634 0
M  V30 7493 H 665.818 -3.68826 3.49185 0
M  V30 7494 H 665.748 -4.82102 2.11862 0
M  V30 7495 H 668.239 -3.27751 1.88115 0
M  V30 7496 H 668.552 -6.36923 4.37663 0
M  V30 7497 H 666.897 -5.73196 3.93029 0
M  V30 7498 H 670.088 -4.01722 2.40286 0
M  V30 7499 H 670.261 -5.42719 3.54062 0
M  V30 7500 N 663.667 -0.670007 -1.42649 0
M  V30 7501 C 665.083 -0.33911 -1.55956 0
M  V30 7502 C 665.283 1.1558 -1.65056 0
M  V30 7503 O 664.339 1.94111 -1.61485 0
M  V30 7504 C 665.652 -1.06522 -2.812 0
M  V30 7505 C 667.2 -1.04708 -2.94966 0
M  V30 7506 C 667.675 -1.75442 -4.23065 0
M  V30 7507 N 669.166 -1.72286 -4.29967 0
M  V30 7508 C 669.901 -2.23877 -5.27889 0
M  V30 7509 N 669.397 -2.83829 -6.31991 0
M  V30 7510 N 671.19 -2.14279 -5.19654 0
M  V30 7511 H 663.341 -1.6399 -1.34986 0
M  V30 7512 H 665.604 -0.690603 -0.649439 0
M  V30 7513 H 665.31 -2.12033 -2.80597 0
M  V30 7514 H 665.184 -0.627398 -3.71946 0
M  V30 7515 H 667.571 -0.000315966 -2.951 0
M  V30 7516 H 667.652 -1.52374 -2.05465 0
M  V30 7517 H 667.296 -2.80084 -4.23693 0
M  V30 7518 H 667.226 -1.25229 -5.11493 0
M  V30 7519 H 669.717 -1.28554 -3.55362 0
M  V30 7520 H 670.03 -3.20827 -7.03057 0
M  V30 7521 H 668.375 -2.87896 -6.32567 0
M  V30 7522 H 671.566 -1.67135 -4.37245 0
M  V30 7523 H 671.739 -2.54792 -5.95806 0
M  V30 7524 N 665.145 1.52092 -0.413018 0
M  V30 7525 C 666.37 2.06756 0.163338 0
M  V30 7526 C 666.795 1.28073 1.37764 0
M  V30 7527 O 666.153 0.312015 1.78595 0
M  V30 7528 C 666.201 3.57278 0.488322 0
M  V30 7529 O 665.305 3.80986 1.57871 0
M  V30 7530 H 664.646 0.663882 0.0125068 0
M  V30 7531 H 667.176 1.95988 -0.587339 0
M  V30 7532 H 667.186 4.01125 0.745836 0
M  V30 7533 H 665.861 4.13978 -0.399327 0
M  V30 7534 H 664.438 3.49017 1.31306 0
M  V30 7535 N 666.623 0.143563 1.56945 0
M  V30 7536 C 668.039 -0.212877 1.58174 0
M  V30 7537 C 668.239 -1.64926 1.15766 0
M  V30 7538 O 667.295 -2.37535 0.856361 0
M  V30 7539 C 668.608 0.0427573 3.0067 0
M  V30 7540 C 670.156 -0.0212221 3.12993 0
M  V30 7541 C 670.631 0.207036 4.57532 0
M  V30 7542 N 672.122 0.153845 4.62944 0
M  V30 7543 C 672.857 0.305018 5.72588 0
M  V30 7544 N 672.353 0.513722 6.90893 0
M  V30 7545 N 674.146 0.242862 5.61575 0
M  V30 7546 H 666.297 1.08148 1.82805 0
M  V30 7547 H 668.56 0.427831 0.84597 0
M  V30 7548 H 668.266 1.03672 3.36073 0
M  V30 7549 H 668.14 -0.678195 3.71053 0
M  V30 7550 H 670.527 -1.00574 2.77433 0
M  V30 7551 H 670.608 0.732004 2.45103 0
M  V30 7552 H 670.252 1.18863 4.93795 0
M  V30 7553 H 670.182 -0.566473 5.23544 0
M  V30 7554 H 672.673 -0.00294866 3.779 0
M  V30 7555 H 672.986 0.619273 7.70315 0
M  V30 7556 H 671.331 0.550001 6.9282 0
M  V30 7557 H 674.522 0.0806015 4.68031 0
M  V30 7558 H 674.695 0.364112 6.46976 0
M  V30 7559 N 668.101 -1.57061 -0.130224 0
M  V30 7560 C 669.326 -1.88802 -0.858409 0
M  V30 7561 C 669.751 -0.734353 -1.73173 0
M  V30 7562 O 669.109 0.315529 -1.78533 0
M  V30 7563 C 669.157 -3.19228 -1.67708 0
M  V30 7564 O 668.261 -3.04343 -2.78297 0
M  V30 7565 H 667.602 -0.619849 -0.238083 0
M  V30 7566 H 670.132 -2.04271 -0.115995 0
M  V30 7567 H 670.142 -3.51669 -2.06864 0
M  V30 7568 H 668.817 -4.02793 -1.0359 0
M  V30 7569 H 667.394 -2.83346 -2.42425 0
M  V30 7570 N 669.579 0.400081 -1.52437 0
M  V30 7571 C 670.99 0.97851 -1.59003 0
M  V30 7572 C 671.341 1.91293 -0.436068 0
M  V30 7573 O 670.466 2.1183 0.442365 0
M  V30 7574 C 671.061 1.78145 -2.88184 0
M  V30 7575 C 669.62 2.30976 -2.97199 0
M  V30 7576 C 668.767 1.11212 -2.54022 0
M  V30 7577 H 671.718 0.180002 -1.57676 0
M  V30 7578 H 671.739 2.63968 -2.74046 0
M  V30 7579 H 671.251 1.1011 -3.72152 0
M  V30 7580 H 669.352 3.02355 -2.17744 0
M  V30 7581 H 669.465 2.61221 -4.01622 0
M  V30 7582 H 667.829 1.46882 -2.08081 0
M  V30 7583 H 668.612 0.447307 -3.40373 0
M  V30 7584 N 671.057 1.43213 0.657864 0
M  V30 7585 C 671.987 1.50815 1.78262 0
M  V30 7586 C 672.968 0.363211 1.66177 0
M  V30 7587 O 674.153 0.579806 1.85343 0
M  V30 7588 C 671.283 1.42625 3.16663 0
M  V30 7589 C 670.237 2.5532 3.43505 0
M  V30 7590 C 669.563 2.32184 4.81658 0
M  V30 7591 C 670.863 3.97583 3.38711 0
M  V30 7592 H 672.557 2.44954 1.72157 0
M  V30 7593 H 670.103 1.17896 0.82683 0
M  V30 7594 H 672.056 1.46548 3.95097 0
M  V30 7595 H 670.78 0.449877 3.23487 0
M  V30 7596 H 669.439 2.50742 2.6744 0
M  V30 7597 H 669.087 1.32801 4.85153 0
M  V30 7598 H 668.787 3.07724 5.00579 0
M  V30 7599 H 670.311 2.37883 5.62356 0
M  V30 7600 H 671.725 4.03673 4.07089 0
M  V30 7601 H 670.122 4.73112 3.69168 0
M  V30 7602 H 671.192 4.23049 2.36976 0
M  V30 7603 N 672.536 -0.895792 1.29666 0
M  V30 7604 C 673.952 -1.17726 1.07763 0
M  V30 7605 C 674.152 -2.00794 -0.168576 0
M  V30 7606 O 673.208 -2.37213 -0.865244 0
M  V30 7607 C 674.521 -1.89441 2.33522 0
M  V30 7608 C 676.069 -2.02251 2.3888 0
M  V30 7609 C 676.544 -2.77378 3.64452 0
M  V30 7610 N 678.035 -2.8493 3.65198 0
M  V30 7611 C 678.77 -3.43606 4.59045 0
M  V30 7612 N 678.266 -4.03417 5.63228 0
M  V30 7613 N 680.059 -3.41317 4.46608 0
M  V30 7614 H 672.21 -0.341652 2.09634 0
M  V30 7615 H 674.473 -0.213865 0.923561 0
M  V30 7616 H 674.179 -1.35842 3.24407 0
M  V30 7617 H 674.053 -2.89893 2.41334 0
M  V30 7618 H 676.44 -2.55025 1.4848 0
M  V30 7619 H 676.521 -1.0092 2.3505 0
M  V30 7620 H 676.165 -2.25279 4.55205 0
M  V30 7621 H 676.095 -3.79062 3.65541 0
M  V30 7622 H 678.586 -2.42453 2.89871 0
M  V30 7623 H 678.899 -4.46224 6.30955 0
M  V30 7624 H 677.244 -4.01868 5.67033 0
M  V30 7625 H 680.435 -2.93812 3.64407 0
M  V30 7626 H 680.608 -3.86751 5.1993 0
M  V30 7627 N 674.014 -1.12206 -1.10668 0
M  V30 7628 C 675.43 -0.857619 -1.346 0
M  V30 7629 C 675.63 0.513542 -1.94846 0
M  V30 7630 O 674.686 1.26273 -2.18658 0
M  V30 7631 C 675.999 -1.97212 -2.26998 0
M  V30 7632 C 677.547 -2.00272 -2.40542 0
M  V30 7633 C 678.022 -3.10948 -3.36267 0
M  V30 7634 N 679.513 -3.10375 -3.43834 0
M  V30 7635 C 680.248 -3.92651 -4.17867 0
M  V30 7636 N 679.744 -4.84911 -4.94807 0
M  V30 7637 N 681.537 -3.80798 -4.1346 0
M  V30 7638 H 673.688 -2.00558 -0.699306 0
M  V30 7639 H 675.951 -0.872612 -0.370477 0
M  V30 7640 H 675.657 -2.96002 -1.89936 0
M  V30 7641 H 675.531 -1.87521 -3.27286 0
M  V30 7642 H 677.918 -1.02103 -2.76874 0
M  V30 7643 H 677.999 -2.14037 -1.40077 0
M  V30 7644 H 677.643 -4.09348 -3.00661 0
M  V30 7645 H 677.573 -2.94421 -4.36605 0
M  V30 7646 H 680.064 -2.43536 -2.88961 0
M  V30 7647 H 680.377 -5.44207 -5.48688 0
M  V30 7648 H 678.722 -4.88926 -4.93939 0
M  V30 7649 H 681.913 -3.08058 -3.52445 0
M  V30 7650 H 682.086 -4.4515 -4.70898 0
M  V30 7651 N 675.492 1.28418 -0.913599 0
M  V30 7652 C 676.717 1.99643 -0.561899 0
M  V30 7653 C 677.142 1.67819 0.849608 0
M  V30 7654 O 676.5 0.910503 1.56779 0
M  V30 7655 C 676.548 3.52116 -0.777622 0
M  V30 7656 O 675.652 4.12076 0.163457 0
M  V30 7657 H 674.993 0.627229 -0.217898 0
M  V30 7658 H 677.523 1.63575 -1.229 0
M  V30 7659 H 677.533 4.02163 -0.687666 0
M  V30 7660 H 676.208 3.74613 -1.8066 0
M  V30 7661 H 674.785 3.72892 0.0247827 0
M  V30 7662 N 676.97 0.677563 1.42291 0
M  V30 7663 C 678.386 0.347376 1.55774 0
M  V30 7664 C 678.586 -1.14703 1.65667 0
M  V30 7665 O 677.642 -1.93252 1.62512 0
M  V30 7666 C 678.955 1.08011 2.80631 0
M  V30 7667 C 680.503 1.06271 2.94407 0
M  V30 7668 C 680.978 1.77683 4.22129 0
M  V30 7669 N 682.469 1.74564 4.29047 0
M  V30 7670 C 683.204 2.26673 5.26694 0
M  V30 7671 N 682.7 2.87176 6.30477 0
M  V30 7672 N 684.493 2.17032 5.18511 0
M  V30 7673 H 676.644 1.64703 1.34114 0
M  V30 7674 H 678.907 0.694038 0.645768 0
M  V30 7675 H 678.613 2.13518 2.79469 0
M  V30 7676 H 678.487 0.647115 3.71608 0
M  V30 7677 H 680.874 0.0159658 2.95096 0
M  V30 7678 H 680.955 1.53461 2.04654 0
M  V30 7679 H 680.599 2.82327 4.22201 0
M  V30 7680 H 680.529 1.2794 5.10822 0
M  V30 7681 H 683.02 1.30436 3.54676 0
M  V30 7682 H 683.333 3.24551 7.01346 0
M  V30 7683 H 681.678 2.91247 6.31031 0
M  V30 7684 H 684.869 1.69451 4.36353 0
M  V30 7685 H 685.042 2.57948 5.94446 0
M  V30 7686 N 678.448 -1.51871 0.421078 0
M  V30 7687 C 679.673 -2.0684 -0.152371 0
M  V30 7688 C 680.098 -1.28802 -1.37083 0
M  V30 7689 O 679.456 -0.321482 -1.78427 0
M  V30 7690 C 679.504 -3.57532 -0.469368 0
M  V30 7691 O 678.608 -3.81818 -1.55848 0
M  V30 7692 H 677.949 -0.663939 -0.00898586 0
M  V30 7693 H 680.479 -1.95674 0.597724 0
M  V30 7694 H 680.489 -4.01515 -0.724553 0
M  V30 7695 H 679.164 -4.13761 0.421276 0
M  V30 7696 H 677.741 -3.49709 -1.29453 0
M  V30 7697 N 679.926 -0.151884 -1.56866 0
M  V30 7698 C 681.337 0.368128 -1.83035 0
M  V30 7699 C 681.688 1.64402 -1.07082 0
M  V30 7700 O 680.813 2.14056 -0.317647 0
M  V30 7701 C 681.408 0.674676 -3.32014 0
M  V30 7702 C 679.967 1.13919 -3.58747 0
M  V30 7703 C 679.114 0.164833 -2.7681 0
M  V30 7704 H 682.065 -0.376499 -1.54169 0
M  V30 7705 H 682.086 1.52883 -3.48435 0
M  V30 7706 H 681.598 -0.254113 -3.87267 0
M  V30 7707 H 679.699 2.08375 -3.08886 0
M  V30 7708 H 679.812 1.06179 -4.67186 0
M  V30 7709 H 678.176 0.658419 -2.46043 0
M  V30 7710 H 678.959 -0.757633 -3.34836 0
M  V30 7711 N 681.404 1.57128 0.121893 0
M  V30 7712 C 682.82 1.52357 0.47534 0
M  V30 7713 C 683.02 0.864417 1.82017 0
M  V30 7714 O 682.076 0.445529 2.48538 0
M  V30 7715 C 683.389 2.97122 0.4625 0
M  V30 7716 C 684.937 3.08196 0.546255 0
M  V30 7717 C 685.412 4.54516 0.563833 0
M  V30 7718 N 686.903 4.58959 0.625353 0
M  V30 7719 C 687.638 5.69585 0.660354 0
M  V30 7720 N 687.134 6.89714 0.653175 0
M  V30 7721 N 688.927 5.57685 0.703143 0
M  V30 7722 H 681.078 1.98364 -0.75931 0
M  V30 7723 H 683.341 0.905777 -0.279772 0
M  V30 7724 H 683.047 3.48706 -0.457943 0
M  V30 7725 H 682.921 3.54406 1.29136 0
M  V30 7726 H 685.308 2.56617 1.45712 0
M  V30 7727 H 685.389 2.53912 -0.310234 0
M  V30 7728 H 685.033 5.06741 -0.342974 0
M  V30 7729 H 684.963 5.06609 1.43716 0
M  V30 7730 H 687.454 3.72489 0.637182 0
M  V30 7731 H 687.767 7.69781 0.682425 0
M  V30 7732 H 686.112 6.92223 0.620646 0
M  V30 7733 H 689.303 4.62744 0.706095 0
M  V30 7734 H 689.476 6.43909 0.726952 0
M  V30 7735 N 682.882 -0.391992 1.52647 0
M  V30 7736 C 684.298 -0.731848 1.41831 0
M  V30 7737 C 684.498 -1.9423 0.536361 0
M  V30 7738 O 683.554 -2.52499 0.00866571 0
M  V30 7739 C 684.867 -0.969743 2.84634 0
M  V30 7740 C 686.415 -1.0714 2.94092 0
M  V30 7741 C 686.89 -1.34195 4.37899 0
M  V30 7742 N 688.381 -1.41023 4.41211 0
M  V30 7743 C 689.116 -1.63616 5.49561 0
M  V30 7744 N 688.612 -1.83699 6.68002 0
M  V30 7745 N 690.405 -1.65771 5.371 0
M  V30 7746 H 682.556 0.404547 2.08512 0
M  V30 7747 H 684.819 0.11879 0.940528 0
M  V30 7748 H 684.525 -0.152465 3.51369 0
M  V30 7749 H 684.399 -1.88523 3.26709 0
M  V30 7750 H 686.786 -1.87925 2.27526 0
M  V30 7751 H 686.867 -0.133887 2.55449 0
M  V30 7752 H 686.511 -0.539207 5.0503 0
M  V30 7753 H 686.441 -2.29226 4.74092 0
M  V30 7754 H 688.932 -1.27223 3.55841 0
M  V30 7755 H 689.245 -2.00437 7.46354 0
M  V30 7756 H 687.59 -1.8093 6.71036 0
M  V30 7757 H 690.781 -1.4963 4.43541 0
M  V30 7758 H 690.954 -1.83038 6.21612 0
M  V30 7759 N 684.36 -1.4356 -0.65026 0
M  V30 7760 C 685.776 -1.27025 -0.966269 0
M  V30 7761 C 685.976 -0.192117 -2.00582 0
M  V30 7762 O 685.032 0.428459 -2.48838 0
M  V30 7763 C 686.345 -2.63556 -1.44772 0
M  V30 7764 C 687.893 -2.71111 -1.56421 0
M  V30 7765 C 688.368 -4.08067 -2.07956 0
M  V30 7766 N 689.859 -4.10146 -2.15254 0
M  V30 7767 C 690.594 -5.12952 -2.56258 0
M  V30 7768 N 690.09 -6.26129 -2.96537 0
M  V30 7769 N 691.883 -5.00306 -2.56224 0
M  V30 7770 H 684.034 -2.12367 0.0375758 0
M  V30 7771 H 686.297 -0.946894 -0.0457782 0
M  V30 7772 H 686.003 -3.43429 -0.758271 0
M  V30 7773 H 685.877 -2.89152 -2.42221 0
M  V30 7774 H 688.264 -1.91569 -2.24467 0
M  V30 7775 H 688.345 -2.49277 -0.573967 0
M  V30 7776 H 687.989 -4.88077 -1.40511 0
M  V30 7777 H 687.919 -4.27266 -3.07817 0
M  V30 7778 H 690.41 -3.28453 -1.86887 0
M  V30 7779 H 690.723 -7.00403 -3.26582 0
M  V30 7780 H 689.068 -6.29597 -2.94334 0
M  V30 7781 H 692.259 -4.10952 -2.24135 0
M  V30 7782 H 692.432 -5.80553 -2.87857 0
M  V30 7783 N 685.838 0.888903 -1.30139 0
M  V30 7784 C 687.063 1.67884 -1.21777 0
M  V30 7785 C 687.488 1.86848 0.216689 0
M  V30 7786 O 686.846 1.39659 1.15608 0
M  V30 7787 C 686.894 3.03483 -1.94757 0
M  V30 7788 O 685.998 3.92294 -1.27198 0
M  V30 7789 H 685.339 0.513144 -0.421402 0
M  V30 7790 H 687.869 1.10968 -1.71893 0
M  V30 7791 H 687.879 3.53553 -2.03627 0
M  V30 7792 H 686.554 2.89 -2.99085 0
M  V30 7793 H 685.131 3.50732 -1.26655 0
M  V30 7794 N 687.317 1.12792 1.10072 0
M  V30 7795 C 688.733 0.864745 1.34143 0
M  V30 7796 C 688.933 -0.503201 1.95116 0
M  V30 7797 O 687.989 -1.25111 2.19325 0
M  V30 7798 C 689.302 1.98413 2.25949 0
M  V30 7799 C 690.85 2.01545 2.39476 0
M  V30 7800 C 691.325 3.12727 3.34613 0
M  V30 7801 N 692.816 3.12194 3.42183 0
M  V30 7802 C 693.551 3.94862 4.15779 0
M  V30 7803 N 693.047 4.87528 4.92228 0
M  V30 7804 N 694.84 3.82985 4.11435 0
M  V30 7805 H 686.991 2.00926 0.68866 0
M  V30 7806 H 689.254 0.874564 0.365844 0
M  V30 7807 H 688.96 2.97005 1.88364 0
M  V30 7808 H 688.834 1.89254 3.26287 0
M  V30 7809 H 691.221 1.0357 2.76328 0
M  V30 7810 H 691.302 2.14777 1.3894 0
M  V30 7811 H 690.946 4.10936 2.98486 0
M  V30 7812 H 690.876 2.96732 4.35037 0
M  V30 7813 H 693.367 2.45065 2.87666 0
M  V30 7814 H 693.68 5.47109 5.45794 0
M  V30 7815 H 692.025 4.91539 4.9134 0
M  V30 7816 H 695.216 3.09923 3.50807 0
M  V30 7817 H 695.389 4.47641 4.68531 0
M  V30 7818 N 688.795 -1.27931 0.920396 0
M  V30 7819 C 690.02 -1.99343 0.572478 0
M  V30 7820 C 690.445 -1.68267 -0.840696 0
M  V30 7821 O 689.803 -0.918805 -1.56294 0
M  V30 7822 C 689.851 -3.51698 0.796284 0
M  V30 7823 O 688.955 -4.12157 -0.141602 0
M  V30 7824 H 688.296 -0.626065 0.221221 0
M  V30 7825 H 690.826 -1.62921 1.23765 0
M  V30 7826 H 690.836 -4.01793 0.708984 0
M  V30 7827 H 689.511 -3.73649 1.82644 0
M  V30 7828 H 688.088 -3.729 -0.005007 0
M  V30 7829 N 690.273 -0.685099 -1.4193 0
M  V30 7830 C 691.684 -0.287699 -1.8447 0
M  V30 7831 C 692.035 1.17215 -1.57338 0
M  V30 7832 O 691.16 1.89856 -1.03845 0
M  V30 7833 C 691.755 -0.515385 -3.34857 0
M  V30 7834 C 690.314 -0.172006 -3.76007 0
M  V30 7835 C 689.461 -0.802808 -2.65425 0
M  V30 7836 H 692.412 -0.88652 -1.3163 0
M  V30 7837 H 692.433 0.229251 -3.79809 0
M  V30 7838 H 691.945 -1.57796 -3.54573 0
M  V30 7839 H 690.046 0.886716 -3.61895 0
M  V30 7840 H 690.159 -0.619717 -4.75075 0
M  V30 7841 H 688.523 -0.233267 -2.5363 0
M  V30 7842 H 689.306 -1.86904 -2.87961 0
M  V30 7843 N 691.751 1.51645 -0.429126 0
M  V30 7844 C 693.167 1.59394 -0.080994 0
M  V30 7845 C 693.367 1.44064 1.40882 0
M  V30 7846 O 692.423 1.27771 2.17786 0
M  V30 7847 C 693.736 2.94779 -0.593773 0
M  V30 7848 C 695.284 3.08067 -0.553494 0
M  V30 7849 C 695.759 4.45963 -1.04311 0
M  V30 7850 N 697.25 4.5226 -1.00076 0
M  V30 7851 C 697.985 5.57268 -1.35056 0
M  V30 7852 N 697.481 6.69734 -1.77282 0
M  V30 7853 N 699.274 5.47582 -1.26925 0
M  V30 7854 H 691.425 1.59856 -1.39857 0
M  V30 7855 H 693.688 0.753095 -0.575805 0
M  V30 7856 H 693.394 3.11342 -1.63583 0
M  V30 7857 H 693.268 3.77197 -0.0142202 0
M  V30 7858 H 695.655 2.91177 0.479556 0
M  V30 7859 H 695.736 2.27508 -1.16935 0
M  V30 7860 H 695.38 4.63598 -2.07459 0
M  V30 7861 H 695.31 5.25049 -0.403873 0
M  V30 7862 H 697.801 3.71537 -0.690564 0
M  V30 7863 H 698.114 7.4587 -2.02232 0
M  V30 7864 H 696.459 6.70963 -1.81202 0
M  V30 7865 H 699.65 4.58604 -0.93809 0
M  V30 7866 H 699.823 6.29308 -1.54516 0
M  V30 7867 N 693.229 0.160201 1.56784 0
M  V30 7868 C 694.645 -0.196089 1.58391 0
M  V30 7869 C 694.845 -1.63689 1.17508 0
M  V30 7870 O 693.901 -2.36613 0.881506 0
M  V30 7871 C 695.214 0.0746449 3.00607 0
M  V30 7872 C 696.762 0.0119762 3.12998 0
M  V30 7873 C 697.237 0.255551 4.57286 0
M  V30 7874 N 698.728 0.202938 4.62755 0
M  V30 7875 C 699.463 0.365731 5.72232 0
M  V30 7876 N 698.959 0.586972 6.90309 0
M  V30 7877 N 700.752 0.302411 5.61286 0
M  V30 7878 H 692.903 1.1008 1.81648 0
M  V30 7879 H 695.166 0.436779 0.841384 0
M  V30 7880 H 694.872 1.07231 3.34954 0
M  V30 7881 H 694.746 -0.638802 3.71751 0
M  V30 7882 H 697.133 -0.976254 2.78484 0
M  V30 7883 H 697.214 0.75796 2.44313 0
M  V30 7884 H 696.858 1.24094 4.92507 0
M  V30 7885 H 696.788 -0.510912 5.24116 0
M  V30 7886 H 699.279 0.0371328 3.77882 0
M  V30 7887 H 699.592 0.700941 7.69615 0
M  V30 7888 H 697.937 0.623453 6.92198 0
M  V30 7889 H 701.128 0.130238 4.67919 0
M  V30 7890 H 701.301 0.432712 6.46554 0
M  V30 7891 N 694.707 -1.5719 -0.113559 0
M  V30 7892 C 696.123 -1.52607 -0.467253 0
M  V30 7893 C 696.323 -0.874058 -1.81556 0
M  V30 7894 O 695.379 -0.458703 -2.48299 0
M  V30 7895 C 696.692 -2.97363 -0.446736 0
M  V30 7896 C 698.24 -3.08482 -0.529903 0
M  V30 7897 C 698.715 -4.54809 -0.539721 0
M  V30 7898 N 700.206 -4.59284 -0.601005 0
M  V30 7899 C 700.941 -5.69927 -0.630138 0
M  V30 7900 N 700.437 -6.90051 -0.616589 0
M  V30 7901 N 702.23 -5.5805 -0.673558 0
M  V30 7902 H 694.381 -1.97958 0.769819 0
M  V30 7903 H 696.644 -0.90428 0.284572 0
M  V30 7904 H 696.35 -3.48458 0.47643 0
M  V30 7905 H 696.224 -3.55086 -1.27254 0
M  V30 7906 H 698.611 -2.57386 -1.44349 0
M  V30 7907 H 698.692 -2.53744 0.323695 0
M  V30 7908 H 698.336 -5.06552 0.369843 0
M  V30 7909 H 698.266 -5.07364 -1.41028 0
M  V30 7910 H 700.757 -3.72822 -0.617419 0
M  V30 7911 H 701.07 -7.70132 -0.641592 0
M  V30 7912 H 699.415 -6.92543 -0.583927 0
M  V30 7913 H 702.606 -4.63112 -0.681544 0
M  V30 7914 H 702.779 -6.44286 -0.692794 0
M  V30 7915 N 696.185 0.383891 -1.52853 0
M  V30 7916 C 697.462 1.14296 -1.58732 0
M  V30 7917 C 697.842 2.07585 -0.383611 0
M  V30 7918 O 697.19 2.1971 0.627661 0
M  V30 7919 C 697.4 1.89816 -2.92867 0
M  V30 7920 C 698.748 2.44998 -3.46787 0
M  V30 7921 O 699.772 1.99966 -2.94774 0
M  V30 7922 O 698.631 3.2727 -4.37672 0
M  V30 7923 H 695.725 0.52326 -0.640413 0
M  V30 7924 H 698.271 0.388631 -1.6519 0
M  V30 7925 H 697.043 1.21626 -3.71918 0
M  V30 7926 H 696.666 2.72199 -2.89816 0
M  V30 7927 N 697.663 1.43903 0.642637 0
M  V30 7928 C 699.079 1.27536 0.959519 0
M  V30 7929 C 699.279 0.202751 2.00477 0
M  V30 7930 O 698.335 -0.415256 2.49062 0
M  V30 7931 C 699.648 2.6432 1.43372 0
M  V30 7932 C 701.196 2.71937 1.54981 0
M  V30 7933 C 701.671 4.09164 2.05789 0
M  V30 7934 N 703.162 4.11282 2.13076 0
M  V30 7935 C 703.897 5.14303 2.53534 0
M  V30 7936 N 703.393 6.27693 2.93212 0
M  V30 7937 N 705.186 5.01657 2.53567 0
M  V30 7938 H 697.337 2.12344 -0.0488376 0
M  V30 7939 H 699.6 0.947124 0.0407559 0
M  V30 7940 H 699.306 3.43826 0.740048 0
M  V30 7941 H 699.18 2.90432 2.40685 0
M  V30 7942 H 701.567 1.92757 2.23448 0
M  V30 7943 H 701.648 2.49578 0.560739 0
M  V30 7944 H 701.292 4.88815 1.37921 0
M  V30 7945 H 701.222 4.28893 3.05546 0
M  V30 7946 H 703.713 3.2944 1.85143 0
M  V30 7947 H 704.026 7.02125 3.22863 0
M  V30 7948 H 702.371 6.31149 2.90991 0
M  V30 7949 H 705.562 4.12134 2.21952 0
M  V30 7950 H 705.735 5.82072 2.84774 0
M  V30 7951 N 699.141 -0.881989 1.30609 0
M  V30 7952 C 700.389 -1.63082 1.19368 0
M  V30 7953 C 700.71 -1.93376 -0.251147 0
M  V30 7954 O 699.98 -1.5723 -1.16857 0
M  V30 7955 H 698.56 -0.604542 0.438791 0
M  V30 7956 H 701.222 -1.05658 1.63776 0
M  V30 7957 H 700.318 -2.57966 1.7567 0
M  V30 7958 N 700.619 -1.13374 -1.09472 0
M  V30 7959 C 702.035 -0.871846 -1.33682 0
M  V30 7960 C 702.235 0.492847 -1.9538 0
M  V30 7961 O 701.291 1.23946 -2.19985 0
M  V30 7962 C 702.604 -1.99608 -2.24893 0
M  V30 7963 C 704.152 -2.02812 -2.38404 0
M  V30 7964 C 704.627 -3.14497 -3.3295 0
M  V30 7965 N 706.118 -3.14004 -3.40523 0
M  V30 7966 C 706.853 -3.97061 -4.13679 0
M  V30 7967 N 706.349 -4.90131 -4.89636 0
M  V30 7968 N 708.142 -3.85162 -4.09398 0
M  V30 7969 H 700.293 -2.01288 -0.677995 0
M  V30 7970 H 702.556 -0.876492 -0.361201 0
M  V30 7971 H 702.262 -2.98 -1.86786 0
M  V30 7972 H 702.136 -1.90981 -3.25278 0
M  V30 7973 H 704.523 -1.05034 -2.75775 0
M  V30 7974 H 704.604 -2.15511 -1.37799 0
M  V30 7975 H 704.248 -4.12514 -2.96302 0
M  V30 7976 H 704.178 -2.99035 -4.33458 0
M  V30 7977 H 706.669 -2.46587 -2.86362 0
M  V30 7978 H 706.982 -5.49996 -5.42885 0
M  V30 7979 H 705.327 -4.94138 -4.88726 0
M  V30 7980 H 708.518 -3.11779 -3.49158 0
M  V30 7981 H 708.691 -4.5012 -4.6615 0
M  V30 7982 N 702.098 1.27442 -0.927168 0
M  V30 7983 C 703.514 1.46754 -0.627329 0
M  V30 7984 C 703.714 1.83902 0.823549 0
M  V30 7985 O 702.77 1.95215 1.60148 0
M  V30 7986 C 704.083 2.56045 -1.57674 0
M  V30 7987 C 705.631 2.69906 -1.58491 0
M  V30 7988 C 706.106 3.82355 -2.52128 0
M  V30 7989 N 707.597 3.89728 -2.50332 0
M  V30 7990 C 708.332 4.76155 -3.19475 0
M  V30 7991 N 707.828 5.67073 -3.97995 0
M  V30 7992 N 709.621 4.6988 -3.08496 0
M  V30 7993 H 701.772 1.01613 -1.86517 0
M  V30 7994 H 704.035 0.507443 -0.800753 0
M  V30 7995 H 703.741 2.35542 -2.61176 0
M  V30 7996 H 703.615 3.53423 -1.31804 0
M  V30 7997 H 706.002 2.89792 -0.557208 0
M  V30 7998 H 706.083 1.73018 -1.8841 0
M  V30 7999 H 705.727 3.63224 -3.55008 0
M  V30 8000 H 705.657 4.7867 -2.19505 0
M  V30 8001 H 708.148 3.24717 -1.93306 0
M  V30 8002 H 708.461 6.2988 -4.4774 0
M  V30 8003 H 706.806 5.6687 -4.02098 0
M  V30 8004 H 709.997 3.97848 -2.46646 0
M  V30 8005 H 710.17 5.37017 -3.62652 0
M  V30 8006 N 703.576 0.692616 1.41565 0
M  V30 8007 C 704.801 0.229776 2.06123 0
M  V30 8008 C 705.226 -1.11119 1.5177 0
M  V30 8009 O 704.584 -1.69498 0.643444 0
M  V30 8010 C 704.632 0.19469 3.60074 0
M  V30 8011 O 703.736 -0.831366 4.03933 0
M  V30 8012 H 703.077 0.113002 0.654314 0
M  V30 8013 H 705.607 0.946645 1.81383 0
M  V30 8014 H 705.617 0.0245487 4.07993 0
M  V30 8015 H 704.292 1.17339 3.99004 0
M  V30 8016 H 702.869 -0.630819 3.67526 0
M  V30 8017 N 705.054 -1.51416 0.437162 0
M  V30 8018 C 706.47 -1.59349 0.0894459 0
M  V30 8019 C 706.67 -1.44809 -1.40116 0
M  V30 8020 O 705.726 -1.28924 -2.17106 0
M  V30 8021 C 707.039 -2.9446 0.609398 0
M  V30 8022 C 708.587 -3.07769 0.569824 0
M  V30 8023 C 709.062 -4.45404 1.06675 0
M  V30 8024 N 710.553 -4.51723 1.02473 0
M  V30 8025 C 711.288 -5.56544 1.3801 0
M  V30 8026 N 710.784 -6.68784 1.80831 0
M  V30 8027 N 712.577 -5.46901 1.29828 0
M  V30 8028 H 704.728 -1.59112 1.40703 0
M  V30 8029 H 706.991 -0.750031 0.579791 0
M  V30 8030 H 706.697 -3.1047 1.65231 0
M  V30 8031 H 706.571 -3.77184 0.0342236 0
M  V30 8032 H 708.958 -2.91428 -0.464107 0
M  V30 8033 H 709.039 -2.26885 1.1814 0
M  V30 8034 H 708.683 -4.62492 2.09914 0
M  V30 8035 H 708.613 -5.24827 0.431712 0
M  V30 8036 H 711.104 -3.71165 0.710258 0
M  V30 8037 H 711.417 -7.44787 2.06185 0
M  V30 8038 H 709.762 -6.69992 1.84757 0
M  V30 8039 H 712.953 -4.581 0.962397 0
M  V30 8040 H 713.126 -6.2848 1.57851 0
M  V30 8041 N 706.532 -0.168513 -1.56696 0
M  V30 8042 C 707.757 0.486688 -2.01609 0
M  V30 8043 C 708.182 1.56203 -1.04796 0
M  V30 8044 O 707.54 1.8128 -0.0270596 0
M  V30 8045 C 707.588 1.04451 -3.45141 0
M  V30 8046 O 706.692 2.15862 -3.51393 0
M  V30 8047 H 706.033 0.116831 -0.653641 0
M  V30 8048 H 708.563 -0.271579 -2.0279 0
M  V30 8049 H 708.573 1.36782 -3.84389 0
M  V30 8050 H 707.248 0.257155 -4.15104 0
M  V30 8051 H 705.825 1.84597 -3.24004 0
M  V30 8052 N 708.01 1.57248 0.105221 0
M  V30 8053 C 709.426 1.52853 0.459153 0
M  V30 8054 C 709.626 0.883674 1.8109 0
M  V30 8055 O 708.682 0.471864 2.48052 0
M  V30 8056 C 709.995 2.97596 0.43096 0
M  V30 8057 C 711.543 3.08758 0.513536 0
M  V30 8058 C 712.018 4.55089 0.515593 0
M  V30 8059 N 713.509 4.59597 0.576639 0
M  V30 8060 C 714.244 5.70253 0.599904 0
M  V30 8061 N 713.74 6.90368 0.579985 0
M  V30 8062 N 715.533 5.58399 0.643953 0
M  V30 8063 H 707.684 1.97547 -0.780306 0
M  V30 8064 H 709.947 0.902758 -0.289363 0
M  V30 8065 H 709.653 3.48201 -0.494903 0
M  V30 8066 H 709.527 3.55756 1.2537 0
M  V30 8067 H 711.914 2.58148 1.42982 0
M  V30 8068 H 711.995 2.53568 -0.337148 0
M  V30 8069 H 711.639 5.06348 -0.396701 0
M  V30 8070 H 711.569 5.08105 1.38335 0
M  V30 8071 H 714.06 3.73144 0.597639 0
M  V30 8072 H 714.373 7.70462 0.600741 0
M  V30 8073 H 712.718 6.92843 0.547191 0
M  V30 8074 H 715.909 4.63467 0.656975 0
M  V30 8075 H 716.082 6.44644 0.658616 0
M  V30 8076 N 709.488 -0.375779 1.53054 0
M  V30 8077 C 710.418 -1.46598 1.81745 0
M  V30 8078 C 711.399 -1.56337 0.670286 0
M  V30 8079 O 712.584 -1.71071 0.919158 0
M  V30 8080 C 709.714 -2.84058 1.99821 0
M  V30 8081 C 708.668 -2.8915 3.15557 0
M  V30 8082 C 707.994 -4.29187 3.18908 0
M  V30 8083 C 709.294 -2.57595 4.54359 0
M  V30 8084 H 710.988 -1.22837 2.73041 0
M  V30 8085 H 708.534 -0.589485 1.31381 0
M  V30 8086 H 710.487 -3.60342 2.18475 0
M  V30 8087 H 709.211 -3.09184 1.05226 0
M  V30 8088 H 707.87 -2.15316 2.96706 0
M  V30 8089 H 707.518 -4.51374 2.2197 0
M  V30 8090 H 707.218 -4.33512 3.96662 0
M  V30 8091 H 708.742 -5.07359 3.39734 0
M  V30 8092 H 710.156 -3.23595 4.73243 0
M  V30 8093 H 708.553 -2.73252 5.34279 0
M  V30 8094 H 709.623 -1.52882 4.60169 0
M  V30 8095 N 710.966 -1.44241 -0.634997 0
M  V30 8096 C 712.382 -1.28043 -0.952742 0
M  V30 8097 C 712.582 -0.21338 -2.00367 0
M  V30 8098 O 711.638 0.402042 -2.49279 0
M  V30 8099 C 712.951 -2.65076 -1.41968 0
M  V30 8100 C 714.499 -2.72755 -1.53537 0
M  V30 8101 C 714.974 -4.10249 -2.03616 0
M  V30 8102 N 716.465 -4.12406 -2.10892 0
M  V30 8103 C 717.2 -5.15641 -2.50803 0
M  V30 8104 N 716.696 -6.29239 -2.89879 0
M  V30 8105 N 718.489 -5.02995 -2.50903 0
M  V30 8106 H 710.64 -2.12315 0.060098 0
M  V30 8107 H 712.903 -0.947326 -0.0357325 0
M  V30 8108 H 712.609 -3.44213 -0.721804 0
M  V30 8109 H 712.483 -2.91704 -2.39141 0
M  V30 8110 H 714.87 -1.93939 -2.22422 0
M  V30 8111 H 714.951 -2.49872 -0.547496 0
M  V30 8112 H 714.595 -4.8954 -1.35327 0
M  V30 8113 H 714.525 -4.30507 -3.03268 0
M  V30 8114 H 717.016 -3.30417 -1.83393 0
M  V30 8115 H 717.329 -7.03827 -3.19135 0
M  V30 8116 H 715.674 -6.32683 -2.8764 0
M  V30 8117 H 718.865 -4.13306 -2.19763 0
M  V30 8118 H 719.038 -5.83574 -2.81683 0
M  V30 8119 N 712.444 0.87505 -1.31075 0
M  V30 8120 C 713.86 1.15997 -1.09622 0
M  V30 8121 C 714.06 2.01036 0.136611 0
M  V30 8122 O 713.116 2.38559 0.827397 0
M  V30 8123 C 714.429 1.85702 -2.36506 0
M  V30 8124 C 715.977 1.98425 -2.42067 0
M  V30 8125 C 716.452 2.71544 -3.68819 0
M  V30 8126 N 717.943 2.79084 -3.69684 0
M  V30 8127 C 718.678 3.36259 -4.64454 0
M  V30 8128 N 718.174 3.94406 -5.69575 0
M  V30 8129 N 719.967 3.34169 -4.51982 0
M  V30 8130 H 712.118 0.308258 -2.10151 0
M  V30 8131 H 714.381 0.199145 -0.926847 0
M  V30 8132 H 714.087 1.30663 -3.26527 0
M  V30 8133 H 713.961 2.86017 -2.45915 0
M  V30 8134 H 716.348 2.5263 -1.52518 0
M  V30 8135 H 716.429 0.971682 -2.36626 0
M  V30 8136 H 716.073 2.18008 -4.58732 0
M  V30 8137 H 716.003 3.73198 -3.71525 0
M  V30 8138 H 718.494 2.3781 -2.93691 0
M  V30 8139 H 718.807 4.36129 -6.37974 0
M  V30 8140 H 717.152 3.92797 -5.73355 0
M  V30 8141 H 720.343 2.87977 -3.69035 0
M  V30 8142 H 720.516 3.78431 -5.26017 0
M  V30 8143 N 713.922 1.13953 1.08869 0
M  V30 8144 C 715.338 0.878924 1.33218 0
M  V30 8145 C 715.538 -0.482478 1.95638 0
M  V30 8146 O 714.594 -1.22778 2.2064 0
M  V30 8147 C 715.907 2.00798 2.23832 0
M  V30 8148 C 717.455 2.04073 2.37325 0
M  V30 8149 C 717.93 3.16258 3.31278 0
M  V30 8150 N 719.421 3.15805 3.38853 0
M  V30 8151 C 720.156 3.99249 4.11567 0
M  V30 8152 N 719.652 4.92721 4.87029 0
M  V30 8153 N 721.445 3.87327 4.0735 0
M  V30 8154 H 713.596 2.01645 0.66731 0
M  V30 8155 H 715.859 0.878395 0.356547 0
M  V30 8156 H 715.565 2.98986 1.85203 0
M  V30 8157 H 715.439 1.92704 3.24261 0
M  V30 8158 H 717.826 1.06495 2.75214 0
M  V30 8159 H 717.907 2.16239 1.36654 0
M  V30 8160 H 717.551 4.14079 2.9411 0
M  V30 8161 H 717.481 3.0133 4.31866 0
M  V30 8162 H 719.972 2.48102 2.8505 0
M  V30 8163 H 720.285 5.52867 5.39961 0
M  V30 8164 H 718.63 4.96723 4.86098 0
M  V30 8165 H 721.821 3.13627 3.475 0
M  V30 8166 H 721.994 4.52585 4.63757 0
M  V30 8167 N 715.4 -1.26948 0.933913 0
M  V30 8168 C 716.625 -1.98724 0.593589 0
M  V30 8169 C 717.05 -1.6915 -0.822801 0
M  V30 8170 O 716.408 -0.93533 -1.5531 0
M  V30 8171 C 716.456 -3.50834 0.833542 0
M  V30 8172 O 715.56 -4.12284 -0.0978788 0
M  V30 8173 H 714.901 -0.623683 0.227849 0
M  V30 8174 H 717.431 -1.61599 1.25486 0
M  V30 8175 H 717.441 -4.01018 0.75156 0
M  V30 8176 H 716.116 -3.71691 1.86597 0
M  V30 8177 H 714.693 -3.72884 0.0345443 0
M  V30 8178 N 716.879 -0.700114 -1.41195 0
M  V30 8179 C 718.295 -0.372114 -1.55201 0
M  V30 8180 C 718.495 1.12053 -1.6747 0
M  V30 8181 O 717.551 1.90642 -1.65566 0
M  V30 8182 C 718.864 -1.12462 -2.78878 0
M  V30 8183 C 720.412 -1.10941 -2.92679 0
M  V30 8184 C 720.887 -1.84376 -4.19249 0
M  V30 8185 N 722.378 -1.81368 -4.26216 0
M  V30 8186 C 723.113 -2.35024 -5.23021 0
M  V30 8187 N 722.609 -2.9717 -6.25829 0
M  V30 8188 N 724.402 -2.25254 -5.14992 0
M  V30 8189 H 716.553 -1.66816 -1.31477 0
M  V30 8190 H 718.816 -0.704223 -0.634644 0
M  V30 8191 H 718.522 -2.17937 -2.76037 0
M  V30 8192 H 718.396 -0.706152 -3.70531 0
M  V30 8193 H 720.783 -0.062911 -2.95033 0
M  V30 8194 H 720.864 -1.56698 -2.02187 0
M  V30 8195 H 720.508 -2.89008 -4.17656 0
M  V30 8196 H 720.438 -1.3605 -5.08722 0
M  V30 8197 H 722.929 -1.36062 -3.52556 0
M  V30 8198 H 723.242 -3.35668 -6.96094 0
M  V30 8199 H 721.587 -3.01249 -6.26318 0
M  V30 8200 H 724.778 -1.76372 -4.33602 0
M  V30 8201 H 724.951 -2.67373 -5.90268 0
M  V30 8202 N 718.357 1.51182 -0.445186 0
M  V30 8203 C 719.582 2.07056 0.119445 0
M  V30 8204 C 720.007 1.30966 1.35016 0
M  V30 8205 O 719.365 0.349827 1.77893 0
M  V30 8206 C 719.413 3.58234 0.412428 0
M  V30 8207 O 718.517 3.84249 1.49754 0
M  V30 8208 H 717.858 0.663998 -0.00157797 0
M  V30 8209 H 720.388 1.94699 -0.628779 0
M  V30 8210 H 720.398 4.02617 0.660583 0
M  V30 8211 H 719.073 4.13038 -0.487049 0
M  V30 8212 H 717.65 3.51724 1.23873 0
M  V30 8213 N 719.835 0.176821 1.56605 0
M  V30 8214 C 721.251 -0.179278 1.5859 0
M  V30 8215 C 721.451 -1.62433 1.19238 0
M  V30 8216 O 720.507 -2.35665 0.906552 0
M  V30 8217 C 721.82 0.106524 3.00511 0
M  V30 8218 C 723.368 0.0451731 3.12967 0
M  V30 8219 C 723.843 0.304038 4.5699 0
M  V30 8220 N 725.334 0.252008 4.62514 0
M  V30 8221 C 726.069 0.426404 5.71812 0
M  V30 8222 N 725.565 0.660155 6.89648 0
M  V30 8223 N 727.358 0.361926 5.60934 0
M  V30 8224 H 719.509 1.12001 1.8047 0
M  V30 8225 H 721.772 0.445679 0.836704 0
M  V30 8226 H 721.478 1.10778 3.33798 0
M  V30 8227 H 721.352 -0.599337 3.72408 0
M  V30 8228 H 723.739 -0.946662 2.79504 0
M  V30 8229 H 723.82 0.78383 2.43495 0
M  V30 8230 H 723.464 1.29311 4.91163 0
M  V30 8231 H 723.394 -0.455294 5.24628 0
M  V30 8232 H 725.885 0.0772102 3.77821 0
M  V30 8233 H 726.198 0.782529 7.68828 0
M  V30 8234 H 724.543 0.696835 6.91498 0
M  V30 8235 H 727.734 0.17986 4.67754 0
M  V30 8236 H 727.907 0.501263 6.46058 0
M  V30 8237 N 721.313 -1.57302 -0.09688 0
M  V30 8238 C 722.561 -1.8563 -0.799117 0
M  V30 8239 C 722.882 -0.765263 -1.79356 0
M  V30 8240 O 722.152 0.208657 -1.94786 0
M  V30 8241 H 720.732 -0.684937 -0.298111 0
M  V30 8242 H 723.394 -1.9474 -0.0789341 0
M  V30 8243 H 722.49 -2.82305 -1.3308 0
M  V30 8244 N 722.791 0.367657 -1.53252 0
M  V30 8245 C 724.039 1.10832 -1.68999 0
M  V30 8246 C 724.36 1.89894 -0.443306 0
M  V30 8247 O 723.63 1.88235 0.54262 0
M  V30 8248 H 722.21 0.412153 -0.623008 0
M  V30 8249 H 724.872 0.414775 -1.90435 0
M  V30 8250 H 723.968 1.7993 -2.55013 0
M  V30 8251 N 724.269 1.44576 0.627338 0
M  V30 8252 C 725.685 1.28546 0.945938 0
M  V30 8253 C 725.885 0.224003 2.00251 0
M  V30 8254 O 724.941 -0.388817 2.49488 0
M  V30 8255 C 726.254 2.65825 1.40561 0
M  V30 8256 C 727.802 2.73566 1.52088 0
M  V30 8257 C 728.277 4.11323 2.01438 0
M  V30 8258 N 729.768 4.13519 2.08702 0
M  V30 8259 C 730.503 5.16964 2.48065 0
M  V30 8260 N 729.999 6.30768 2.86538 0
M  V30 8261 N 731.792 5.04319 2.48232 0
M  V30 8262 H 723.943 2.1228 -0.0713567 0
M  V30 8263 H 726.206 0.947503 0.0307081 0
M  V30 8264 H 725.912 3.44591 0.703539 0
M  V30 8265 H 725.786 2.92969 2.37591 0
M  V30 8266 H 728.173 1.95116 2.21391 0
M  V30 8267 H 728.254 2.50159 0.534237 0
M  V30 8268 H 727.898 4.9025 1.32729 0
M  V30 8269 H 727.828 4.32109 3.0098 0
M  V30 8270 H 730.319 3.31385 1.81638 0
M  V30 8271 H 730.632 7.0551 3.15398 0
M  V30 8272 H 728.977 6.342 2.84281 0
M  V30 8273 H 732.168 4.14465 2.17569 0
M  V30 8274 H 732.341 5.85059 2.78585 0
M  V30 8275 N 725.747 -0.868086 1.31537 0
M  V30 8276 C 727.163 -1.15414 1.10235 0
M  V30 8277 C 727.363 -2.01106 -0.125947 0
M  V30 8278 O 726.419 -2.38994 -0.814734 0
M  V30 8279 C 727.732 -1.84445 2.37488 0
M  V30 8280 C 729.28 -1.97139 2.43116 0
M  V30 8281 C 729.755 -2.69585 3.70254 0
M  V30 8282 N 731.246 -2.77119 3.71159 0
M  V30 8283 C 731.981 -3.33791 4.6623 0
M  V30 8284 N 731.477 -3.9138 5.71659 0
M  V30 8285 N 733.27 -3.31767 4.53747 0
M  V30 8286 H 725.421 -0.297109 2.10312 0
M  V30 8287 H 727.684 -0.194227 0.92789 0
M  V30 8288 H 727.39 -1.2893 3.27215 0
M  V30 8289 H 727.264 -2.84709 2.47428 0
M  V30 8290 H 729.651 -2.51818 1.53856 0
M  V30 8291 H 729.732 -0.95912 2.37138 0
M  V30 8292 H 729.376 -2.15572 4.59881 0
M  V30 8293 H 729.306 -3.71223 3.73499 0
M  V30 8294 H 731.797 -2.3625 2.94948 0
M  V30 8295 H 732.11 -4.3274 6.40278 0
M  V30 8296 H 730.455 -3.8975 5.7543 0
M  V30 8297 H 733.646 -2.86016 3.70557 0
M  V30 8298 H 733.819 -3.75636 5.28017 0
M  V30 8299 N 727.225 -1.14528 -1.08264 0
M  V30 8300 C 728.641 -0.885976 -1.3275 0
M  V30 8301 C 728.841 0.472096 -1.95892 0
M  V30 8302 O 727.897 1.21606 -2.21288 0
M  V30 8303 C 729.21 -2.01982 -2.22764 0
M  V30 8304 C 730.758 -2.05329 -2.36239 0
M  V30 8305 C 731.233 -3.1801 -3.29596 0
M  V30 8306 N 732.724 -3.17598 -3.37173 0
M  V30 8307 C 733.459 -4.01426 -4.09444 0
M  V30 8308 N 732.955 -4.95297 -4.8441 0
M  V30 8309 N 734.748 -3.89482 -4.0529 0
M  V30 8310 H 726.899 -2.01996 -0.656607 0
M  V30 8311 H 729.162 -0.880274 -0.351884 0
M  V30 8312 H 728.868 -2.99964 -1.83615 0
M  V30 8313 H 728.742 -1.94421 -3.23234 0
M  V30 8314 H 731.129 -1.07953 -2.74646 0
M  V30 8315 H 731.21 -2.1696 -1.35506 0
M  V30 8316 H 730.854 -4.15633 -2.9191 0
M  V30 8317 H 730.784 -3.03616 -4.30261 0
M  V30 8318 H 733.275 -2.4961 -2.83731 0
M  V30 8319 H 733.588 -5.55723 -5.37021 0
M  V30 8320 H 731.933 -4.99293 -4.83457 0
M  V30 8321 H 735.124 -3.15465 -3.45832 0
M  V30 8322 H 735.297 -4.55039 -4.6135 0
M  V30 8323 N 728.703 1.26451 -0.940633 0
M  V30 8324 C 730.119 1.4608 -0.642859 0
M  V30 8325 C 730.319 1.84765 0.803998 0
M  V30 8326 O 729.375 1.96902 1.58069 0
M  V30 8327 C 730.688 2.54359 -1.60381 0
M  V30 8328 C 732.236 2.6821 -1.61345 0
M  V30 8329 C 732.711 3.79659 -2.56169 0
M  V30 8330 N 734.202 3.87051 -2.54452 0
M  V30 8331 C 734.937 4.72739 -3.24507 0
M  V30 8332 N 734.433 5.6282 -4.03987 0
M  V30 8333 N 736.226 4.66581 -3.13462 0
M  V30 8334 H 728.377 0.996289 -1.87584 0
M  V30 8335 H 730.64 0.498921 -0.80609 0
M  V30 8336 H 730.346 2.32758 -2.6366 0
M  V30 8337 H 730.22 3.52005 -1.35545 0
M  V30 8338 H 732.607 2.89184 -0.587913 0
M  V30 8339 H 732.688 1.7101 -1.90235 0
M  V30 8340 H 732.332 3.59438 -3.58841 0
M  V30 8341 H 732.262 4.76315 -2.2457 0
M  V30 8342 H 734.753 3.22649 -1.96739 0
M  V30 8343 H 735.066 6.25095 -4.54396 0
M  V30 8344 H 733.411 5.62574 -4.08088 0
M  V30 8345 H 736.602 3.9521 -2.50852 0
M  V30 8346 H 736.775 5.33141 -3.68327 0
M  V30 8347 N 730.181 0.707592 1.40822 0
M  V30 8348 C 731.406 0.251626 2.05868 0
M  V30 8349 C 731.831 -1.09503 1.5294 0
M  V30 8350 O 731.189 -1.68806 0.661385 0
M  V30 8351 C 731.237 0.23287 3.59847 0
M  V30 8352 O 730.341 -0.788477 4.04792 0
M  V30 8353 H 729.682 0.119936 0.653078 0
M  V30 8354 H 732.212 0.96583 1.80369 0
M  V30 8355 H 732.222 0.0678204 4.07944 0
M  V30 8356 H 730.897 1.21565 3.97737 0
M  V30 8357 H 729.474 -0.591802 3.68174 0
M  V30 8358 N 731.66 -1.50943 0.453197 0
M  V30 8359 C 733.076 -1.59245 0.106342 0
M  V30 8360 C 733.276 -1.46287 -1.38572 0
M  V30 8361 O 732.332 -1.31219 -2.15726 0
M  V30 8362 C 733.645 -2.93797 0.640595 0
M  V30 8363 C 735.193 -3.07148 0.602435 0
M  V30 8364 C 735.668 -4.44247 1.11393 0
M  V30 8365 N 737.159 -4.50611 1.07258 0
M  V30 8366 C 737.894 -5.55049 1.43905 0
M  V30 8367 N 737.39 -6.66828 1.87914 0
M  V30 8368 N 739.183 -5.45494 1.35621 0
M  V30 8369 H 731.334 -1.5761 1.42382 0
M  V30 8370 H 733.597 -0.74384 0.587713 0
M  V30 8371 H 733.303 -3.087 1.68515 0
M  V30 8372 H 733.177 -3.77127 0.0742272 0
M  V30 8373 H 735.564 -2.91903 -0.433171 0
M  V30 8374 H 735.645 -2.25619 1.20539 0
M  V30 8375 H 735.289 -4.60239 2.14808 0
M  V30 8376 H 735.219 -5.2434 0.487353 0
M  V30 8377 H 737.71 -3.70391 0.749585 0
M  V30 8378 H 738.023 -7.42558 2.14072 0
M  V30 8379 H 736.368 -6.67995 1.91853 0
M  V30 8380 H 739.559 -4.57053 1.01093 0
M  V30 8381 H 739.732 -6.2677 1.64508 0
M  V30 8382 N 733.138 -0.185124 -1.56509 0
M  V30 8383 C 734.363 0.465278 -2.02114 0
M  V30 8384 C 734.788 1.55083 -1.06447 0
M  V30 8385 O 734.146 1.81241 -0.0462852 0
M  V30 8386 C 734.194 1.00784 -3.46229 0
M  V30 8387 O 733.298 2.12123 -3.53663 0
M  V30 8388 H 732.639 0.109891 -0.654843 0
M  V30 8389 H 735.169 -0.293072 -2.0249 0
M  V30 8390 H 735.179 1.32697 -3.85818 0
M  V30 8391 H 733.854 0.213113 -4.15354 0
M  V30 8392 H 732.431 1.8115 -3.25943 0
M  V30 8393 N 734.616 1.57351 0.0885366 0
M  V30 8394 C 735.563 2.02523 1.10693 0
M  V30 8395 C 736.533 0.902736 1.39427 0
M  V30 8396 O 737.718 1.16921 1.50779 0
M  V30 8397 C 734.858 2.46013 2.42016 0
M  V30 8398 C 733.971 3.7181 2.19957 0
M  V30 8399 C 733.106 4.04152 3.44724 0
M  V30 8400 C 732.145 5.2304 3.17956 0
M  V30 8401 N 731.282 5.51102 4.35007 0
M  V30 8402 H 736.122 2.89302 0.714742 0
M  V30 8403 H 733.659 1.43084 0.341378 0
M  V30 8404 H 735.617 2.69274 3.18665 0
M  V30 8405 H 734.247 1.62235 2.79069 0
M  V30 8406 H 733.299 3.55987 1.34079 0
M  V30 8407 H 734.611 4.58604 1.96173 0
M  V30 8408 H 733.765 4.28225 4.29777 0
M  V30 8409 H 732.504 3.15893 3.71568 0
M  V30 8410 H 731.509 4.98781 2.31296 0
M  V30 8411 H 732.734 6.12902 2.92451 0
M  V30 8412 H 730.68 4.65802 4.61914 0
M  V30 8413 H 730.597 6.3228 4.14437 0
M  V30 8414 H 731.865 5.79714 5.21106 0
M  V30 8415 N 736.094 -0.359525 1.53444 0
M  V30 8416 C 737.34 -1.10315 1.70172 0
M  V30 8417 C 737.673 -1.88788 0.455287 0
M  V30 8418 O 736.948 -1.86635 -0.547514 0
M  V30 8419 C 737.231 -2.05744 2.95536 0
M  V30 8420 C 737.084 -1.3084 4.3035 0
M  V30 8421 C 738.403 -3.05784 3.16518 0
M  V30 8422 H 735.522 -0.399662 0.619225 0
M  V30 8423 H 738.164 -0.383338 1.86093 0
M  V30 8424 H 736.314 -2.67125 2.82093 0
M  V30 8425 H 737.986 -0.721959 4.55615 0
M  V30 8426 H 736.229 -0.610283 4.29486 0
M  V30 8427 H 736.9 -2.00718 5.14214 0
M  V30 8428 H 739.376 -2.5451 3.29187 0
M  V30 8429 H 738.252 -3.69772 4.05659 0
M  V30 8430 H 738.513 -3.76289 2.32076 0
M  V30 8431 N 737.572 -1.44907 -0.619662 0
M  V30 8432 C 738.519 -1.52654 -1.73105 0
M  V30 8433 C 739.489 -0.373334 -1.6185 0
M  V30 8434 O 740.674 -0.585143 -1.81606 0
M  V30 8435 C 737.814 -1.48769 -3.11387 0
M  V30 8436 C 736.927 -2.74551 -3.33535 0
M  V30 8437 C 736.062 -2.62421 -4.61854 0
M  V30 8438 C 735.101 -3.83312 -4.77219 0
M  V30 8439 N 734.238 -3.69789 -5.96826 0
M  V30 8440 H 739.078 -2.47605 -1.65819 0
M  V30 8441 H 736.615 -1.22875 -0.808719 0
M  V30 8442 H 738.573 -1.44507 -3.91374 0
M  V30 8443 H 737.203 -0.573783 -3.1766 0
M  V30 8444 H 736.255 -2.88953 -2.47408 0
M  V30 8445 H 737.567 -3.64253 -3.40765 0
M  V30 8446 H 736.721 -2.56056 -5.50019 0
M  V30 8447 H 735.46 -1.70298 -4.57001 0
M  V30 8448 H 734.465 -3.90049 -3.87481 0
M  V30 8449 H 735.69 -4.76486 -4.83878 0
M  V30 8450 H 733.636 -2.80426 -5.93041 0
M  V30 8451 H 733.553 -4.53116 -6.05163 0
M  V30 8452 H 734.821 -3.67335 -6.87521 0
M  V30 8453 N 739.05 0.861098 -1.31996 0
M  V30 8454 C 739.96 2.00154 -1.22374 0
M  V30 8455 C 740.976 1.73447 -0.138631 0
M  V30 8456 O 742.152 1.98191 -0.358104 0
M  V30 8457 C 739.217 3.33696 -0.940645 0
M  V30 8458 C 738.278 3.73668 -2.11355 0
M  V30 8459 C 737.511 5.00837 -1.84386 0
M  V30 8460 O 737.734 5.64996 -0.783287 0
M  V30 8461 O 736.668 5.37787 -2.70313 0
M  V30 8462 H 740.494 2.11207 -2.18233 0
M  V30 8463 H 738.079 0.990768 -1.11822 0
M  V30 8464 H 739.961 4.13756 -0.798987 0
M  V30 8465 H 738.636 3.23698 -0.0121636 0
M  V30 8466 H 737.543 2.94211 -2.31065 0
M  V30 8467 H 738.876 3.88303 -3.02459 0
M  V30 8468 N 740.528 1.15101 1.07655 0
M  V30 8469 C 741.805 0.834578 1.76902 0
M  V30 8470 C 742.185 -0.670431 2.00171 0
M  V30 8471 O 741.533 -1.61378 1.6177 0
M  V30 8472 C 741.743 1.64191 3.07965 0
M  V30 8473 C 743.091 1.84615 3.82364 0
M  V30 8474 O 744.115 1.60941 3.17768 0
M  V30 8475 O 742.974 2.24244 4.98374 0
M  V30 8476 H 740.068 0.306608 0.768063 0
M  V30 8477 H 742.614 1.25663 1.14048 0
M  V30 8478 H 741.386 2.66386 2.86626 0
M  V30 8479 H 741.009 1.216 3.78549 0
M  V30 8480 N 742.006 -1.2595 0.947325 0
M  V30 8481 C 742.953 -2.26159 0.460497 0
M  V30 8482 C 743.923 -1.58919 -0.483125 0
M  V30 8483 O 745.108 -1.86603 -0.397983 0
M  V30 8484 C 742.248 -3.441 -0.26247 0
M  V30 8485 C 741.361 -4.25999 0.717539 0
M  V30 8486 C 740.496 -5.31193 -0.0272486 0
M  V30 8487 C 739.535 -6.04774 0.944177 0
M  V30 8488 N 738.672 -7.01721 0.230741 0
M  V30 8489 H 743.512 -2.67173 1.31995 0
M  V30 8490 H 741.049 -1.31358 0.662088 0
M  V30 8491 H 743.007 -4.11317 -0.698137 0
M  V30 8492 H 741.637 -3.03983 -1.08602 0
M  V30 8493 H 740.689 -3.58513 1.27171 0
M  V30 8494 H 742.001 -4.76981 1.45913 0
M  V30 8495 H 741.155 -6.04451 -0.521903 0
M  V30 8496 H 739.894 -4.81066 -0.801682 0
M  V30 8497 H 738.899 -5.30338 1.4499 0
M  V30 8498 H 740.124 -6.56991 1.71872 0
M  V30 8499 H 738.07 -6.53895 -0.525088 0
M  V30 8500 H 737.987 -7.50484 0.911556 0
M  V30 8501 H 739.255 -7.79122 -0.242616 0
M  V30 8502 N 743.484 -0.715051 -1.40445 0
M  V30 8503 C 744.731 -0.254328 -2.00897 0
M  V30 8504 C 745.059 1.15228 -1.56693 0
M  V30 8505 O 744.314 1.7958 -0.777786 0
M  V30 8506 C 744.613 -0.281791 -3.56287 0
M  V30 8507 C 744.279 -1.63862 -4.20071 0
M  V30 8508 C 742.941 -2.01003 -4.37208 0
M  V30 8509 C 745.293 -2.53039 -4.55654 0
M  V30 8510 C 742.621 -3.26869 -4.8721 0
M  V30 8511 C 744.973 -3.78256 -5.07055 0
M  V30 8512 C 743.637 -4.15515 -5.22401 0
M  V30 8513 H 742.907 -0.0930652 -0.735133 0
M  V30 8514 H 745.554 -0.917977 -1.68064 0
M  V30 8515 H 743.859 0.465428 -3.89026 0
M  V30 8516 H 745.556 0.0925158 -4.00893 0
M  V30 8517 H 742.146 -1.33979 -4.07121 0
M  V30 8518 H 746.33 -2.2562 -4.42051 0
M  V30 8519 H 741.586 -3.55706 -4.97276 0
M  V30 8520 H 745.76 -4.47528 -5.33565 0
M  V30 8521 H 743.387 -5.13114 -5.60909 0
M  V30 8522 N 744.962 1.50701 -0.461195 0
M  V30 8523 C 745.909 2.2831 0.338094 0
M  V30 8524 C 746.879 1.32928 0.995957 0
M  V30 8525 O 748.064 1.61857 1.0103 0
M  V30 8526 C 745.204 3.14539 1.41983 0
M  V30 8527 C 744.317 4.24942 0.77773 0
M  V30 8528 C 743.452 4.98443 1.83652 0
M  V30 8529 C 742.491 6.00733 1.17413 0
M  V30 8530 N 741.628 6.6755 2.17533 0
M  V30 8531 H 746.468 2.96167 -0.330051 0
M  V30 8532 H 744.005 1.4606 -0.174611 0
M  V30 8533 H 745.963 3.62877 2.05855 0
M  V30 8534 H 744.593 2.48749 2.05727 0
M  V30 8535 H 743.645 3.80391 0.0266924 0
M  V30 8536 H 744.957 4.98151 0.254362 0
M  V30 8537 H 744.111 5.50449 2.55129 0
M  V30 8538 H 742.85 4.24917 2.39367 0
M  V30 8539 H 741.855 5.47997 0.444944 0
M  V30 8540 H 743.08 6.76227 0.624006 0
M  V30 8541 H 741.026 5.96823 2.72284 0
M  V30 8542 H 740.943 7.36603 1.70154 0
M  V30 8543 H 742.211 7.24178 2.88421 0
M  V30 8544 N 746.441 0.193421 1.56409 0
M  V30 8545 C 747.689 -0.444908 1.97142 0
M  V30 8546 C 748.01 -1.62268 1.08139 0
M  V30 8547 O 747.28 -1.95307 0.152326 0
M  V30 8548 H 745.86 -0.16736 0.728011 0
M  V30 8549 H 748.522 0.279763 1.92882 0
M  V30 8550 H 747.618 -0.790159 3.01932 0
M  V30 8551 N 747.919 -1.57396 -0.0801906 0
M  V30 8552 C 749.144 -1.91437 -0.797909 0
M  V30 8553 C 749.569 -0.789075 -1.70749 0
M  V30 8554 O 748.927 0.25857 -1.79447 0
M  V30 8555 C 748.975 -3.24402 -1.57467 0
M  V30 8556 O 748.079 -3.13043 -2.68473 0
M  V30 8557 H 747.42 -0.627109 -0.218243 0
M  V30 8558 H 749.95 -2.04537 -0.050949 0
M  V30 8559 H 749.96 -3.58072 -1.95571 0
M  V30 8560 H 748.635 -4.05884 -0.907229 0
M  V30 8561 H 747.212 -2.90915 -2.33287 0
M  V30 8562 N 749.397 0.351382 -1.53633 0
M  V30 8563 C 750.327 1.43688 -1.84055 0
M  V30 8564 C 751.308 1.55251 -0.695073 0
M  V30 8565 O 752.493 1.69587 -0.946257 0
M  V30 8566 C 749.623 2.80843 -2.04315 0
M  V30 8567 C 748.577 2.84094 -3.20117 0
M  V30 8568 C 747.903 4.2406 -3.25696 0
M  V30 8569 C 749.203 2.50334 -4.58399 0
M  V30 8570 H 750.897 1.18478 -2.74961 0
M  V30 8571 H 748.443 0.568509 -1.32303 0
M  V30 8572 H 750.396 3.56821 -2.2418 0
M  V30 8573 H 749.12 3.07471 -1.10132 0
M  V30 8574 H 747.779 2.10568 -3.00094 0
M  V30 8575 H 747.427 4.47785 -2.29123 0
M  V30 8576 H 747.127 4.27147 -4.03509 0
M  V30 8577 H 748.651 5.0189 -3.47762 0
M  V30 8578 H 750.065 3.16025 -4.78332 0
M  V30 8579 H 748.462 2.64717 -5.38558 0
M  V30 8580 H 749.532 1.45542 -4.62543 0
M  V30 8581 N 750.875 1.45233 0.611969 0
M  V30 8582 C 752.1 1.52767 1.40274 0
M  V30 8583 C 752.525 0.159701 1.87421 0
M  V30 8584 O 751.883 -0.854837 1.59882 0
M  V30 8585 C 751.931 2.51286 2.58626 0
M  V30 8586 O 751.035 2.02764 3.59111 0
M  V30 8587 H 750.376 0.515141 0.418958 0
M  V30 8588 H 752.906 1.90547 0.745188 0
M  V30 8589 H 752.916 2.69949 3.05927 0
M  V30 8590 H 751.591 3.50641 2.23659 0
M  V30 8591 H 750.168 1.93957 3.18489 0
M  V30 8592 N 752.353 -0.854086 1.3245 0
M  V30 8593 C 753.263 -1.99503 1.23434 0
M  V30 8594 C 754.279 -1.73371 0.147828 0
M  V30 8595 O 755.455 -1.97998 0.368609 0
M  V30 8596 C 752.52 -3.33192 0.958328 0
M  V30 8597 C 751.581 -3.72542 2.13333 0
M  V30 8598 C 750.814 -4.99852 1.8704 0
M  V30 8599 O 751.037 -5.64573 0.813239 0
M  V30 8600 O 749.971 -5.36345 2.73161 0
M  V30 8601 H 753.797 -2.10046 2.1935 0
M  V30 8602 H 751.382 -0.984823 1.12346 0
M  V30 8603 H 753.264 -4.13327 0.820918 0
M  V30 8604 H 751.939 -3.23687 0.0293299 0
M  V30 8605 H 750.846 -2.92981 2.32622 0
M  V30 8606 H 752.179 -3.86694 3.04514 0
M  V30 8607 N 753.831 -1.1567 -1.07043 0
M  V30 8608 C 755.079 -0.931673 -1.79344 0
M  V30 8609 C 755.4 0.542421 -1.87304 0
M  V30 8610 O 754.67 1.39418 -1.37621 0
M  V30 8611 H 753.25 -0.34171 -0.664262 0
M  V30 8612 H 755.912 -1.45795 -1.29344 0
M  V30 8613 H 755.008 -1.34379 -2.81689 0
M  V30 8614 N 755.309 1.25446 -0.953992 0
M  V30 8615 C 756.242 2.24341 -0.417912 0
M  V30 8616 C 757.22 1.54709 0.5004 0
M  V30 8617 O 758.404 1.83414 0.434923 0
M  V30 8618 C 755.531 3.36352 0.398155 0
M  V30 8619 C 754.577 4.24007 -0.460461 0
M  V30 8620 S 755.41 5.00951 -1.89231 0
M  V30 8621 C 756.566 6.1643 -1.08465 0
M  V30 8622 H 756.799 2.69465 -1.25602 0
M  V30 8623 H 754.332 1.34512 -0.758018 0
M  V30 8624 H 756.29 4.01325 0.863059 0
M  V30 8625 H 754.951 2.89813 1.21108 0
M  V30 8626 H 754.144 5.03728 0.165415 0
M  V30 8627 H 753.746 3.63965 -0.860549 0
M  V30 8628 H 756.038 6.76681 -0.333017 0
M  V30 8629 H 756.981 6.8335 -1.85577 0
M  V30 8630 H 757.389 5.61139 -0.615062 0
M  V30 8631 N 756.787 0.722489 1.40064 0
M  V30 8632 C 757.734 0.0743738 2.3068 0
M  V30 8633 C 758.704 -0.743004 1.48555 0
M  V30 8634 O 759.889 -0.705536 1.77276 0
M  V30 8635 C 757.029 -0.836292 3.34814 0
M  V30 8636 C 756.142 -0.00764663 4.31999 0
M  V30 8637 C 755.277 -0.918428 5.232 0
M  V30 8638 C 754.316 -0.0842838 6.12042 0
M  V30 8639 N 753.453 -0.950316 6.95639 0
M  V30 8640 H 758.293 0.852794 2.85537 0
M  V30 8641 H 755.83 0.432222 1.40607 0
M  V30 8642 H 757.788 -1.3786 3.93765 0
M  V30 8643 H 756.418 -1.58082 2.81443 0
M  V30 8644 H 755.47 0.651928 3.74772 0
M  V30 8645 H 756.782 0.63786 4.94705 0
M  V30 8646 H 755.936 -1.52902 5.87116 0
M  V30 8647 H 754.675 -1.59774 4.60786 0
M  V30 8648 H 753.68 0.5392 5.4715 0
M  V30 8649 H 754.905 0.591628 6.76518 0
M  V30 8650 H 752.851 -1.61515 6.35806 0
M  V30 8651 H 752.768 -0.361004 7.55138 0
M  V30 8652 H 754.036 -1.54687 7.63997 0
M  V30 8653 N 758.265 -1.50454 0.469181 0
M  V30 8654 C 759.511 -2.02615 -0.0865971 0
M  V30 8655 C 759.844 -1.35062 -1.39542 0
M  V30 8656 O 759.119 -0.475701 -1.88593 0
M  V30 8657 C 759.402 -3.59068 -0.272385 0
M  V30 8658 C 759.255 -4.37196 1.05733 0
M  V30 8659 C 760.574 -4.2793 -1.0278 0
M  V30 8660 H 757.693 -0.736389 -0.0299977 0
M  V30 8661 H 760.335 -1.79792 0.614399 0
M  V30 8662 H 758.485 -3.78646 -0.869471 0
M  V30 8663 H 760.157 -4.29195 1.69084 0
M  V30 8664 H 758.4 -4.01013 1.65442 0
M  V30 8665 H 759.071 -5.44924 0.880997 0
M  V30 8666 H 761.547 -4.12816 -0.521718 0
M  V30 8667 H 760.423 -5.37214 -1.12659 0
M  V30 8668 H 760.684 -3.90968 -2.0639 0
M  V30 8669 N 759.743 -0.201713 -1.56304 0
M  V30 8670 C 760.653 0.728296 -2.23009 0
M  V30 8671 C 761.669 1.22945 -1.23128 0
M  V30 8672 O 762.845 1.27523 -1.55884 0
M  V30 8673 C 759.91 1.92792 -2.88153 0
M  V30 8674 C 758.971 1.47068 -4.03323 0
M  V30 8675 C 758.204 2.61312 -4.65351 0
M  V30 8676 O 758.427 3.7896 -4.26317 0
M  V30 8677 O 757.361 2.33646 -5.54701 0
M  V30 8678 H 761.187 0.190166 -3.03104 0
M  V30 8679 H 758.772 0.0278725 -1.49374 0
M  V30 8680 H 760.654 2.6289 -3.29343 0
M  V30 8681 H 759.329 2.45452 -2.11033 0
M  V30 8682 H 758.236 0.738299 -3.66742 0
M  V30 8683 H 759.569 0.990666 -4.82127 0
M  V30 8684 N 761.222 1.57436 0.0718424 0
M  V30 8685 C 762.154 2.00412 1.1121 0
M  V30 8686 C 763.167 0.910074 1.34987 0
M  V30 8687 O 764.356 1.18796 1.33228 0
M  V30 8688 C 761.456 2.32786 2.46301 0
M  V30 8689 C 760.629 3.64036 2.4248 0
M  V30 8690 C 759.688 3.8408 3.59679 0
M  V30 8691 O 758.714 4.55667 3.4111 0
M  V30 8692 N 759.916 3.2643 4.80025 0
M  V30 8693 H 762.681 2.90264 0.746118 0
M  V30 8694 H 760.242 1.59791 0.260495 0
M  V30 8695 H 762.234 2.43368 3.23348 0
M  V30 8696 H 760.804 1.48824 2.74901 0
M  V30 8697 H 760.024 3.64208 1.50818 0
M  V30 8698 H 761.312 4.50217 2.37027 0
M  V30 8699 H 760.71 2.68325 4.98014 0
M  V30 8700 H 759.267 3.42461 5.54584 0
M  V30 8701 N 762.7 -0.34323 1.53817 0
M  V30 8702 C 763.61 -1.44493 1.84821 0
M  V30 8703 C 764.626 -1.57556 0.738381 0
M  V30 8704 O 765.802 -1.73026 1.03072 0
M  V30 8705 C 762.867 -2.79478 2.05166 0
M  V30 8706 C 761.928 -2.75756 3.29025 0
M  V30 8707 C 761.161 -4.04302 3.4839 0
M  V30 8708 O 761.384 -5.01595 2.71586 0
M  V30 8709 O 760.318 -4.08754 4.41819 0
M  V30 8710 H 764.144 -1.21209 2.78464 0
M  V30 8711 H 761.729 -0.535437 1.39476 0
M  V30 8712 H 763.611 -3.59419 2.19991 0
M  V30 8713 H 762.286 -3.02692 1.14713 0
M  V30 8714 H 761.193 -1.94434 3.19603 0
M  V30 8715 H 762.526 -2.57495 4.19472 0
M  V30 8716 N 764.178 -1.45556 -0.604258 0
M  V30 8717 C 765.403 -1.53509 -1.39462 0
M  V30 8718 C 765.828 -0.169638 -1.87333 0
M  V30 8719 O 765.186 0.846346 -1.60333 0
M  V30 8720 C 765.234 -2.52654 -2.5729 0
M  V30 8721 O 764.338 -2.04666 -3.5803 0
M  V30 8722 H 763.679 -0.517355 -0.416221 0
M  V30 8723 H 766.209 -1.90939 -0.735072 0
M  V30 8724 H 766.219 -2.71568 -3.04491 0
M  V30 8725 H 764.894 -3.51823 -2.21797 0
M  V30 8726 H 763.471 -1.95643 -3.17456 0
M  V30 8727 N 765.656 0.84705 -1.32902 0
M  V30 8728 C 766.881 1.63925 -1.27056 0
M  V30 8729 C 767.306 1.87443 0.157136 0
M  V30 8730 O 766.664 1.43266 1.11106 0
M  V30 8731 C 766.712 2.97134 -2.04313 0
M  V30 8732 O 765.816 3.88049 -1.39614 0
M  V30 8733 H 765.157 0.499477 -0.437514 0
M  V30 8734 H 767.687 1.05443 -1.75336 0
M  V30 8735 H 767.697 3.46896 -2.14772 0
M  V30 8736 H 766.372 2.79339 -3.08128 0
M  V30 8737 H 764.949 3.46525 -1.3775 0
M  V30 8738 N 767.134 1.16236 1.06428 0
M  V30 8739 C 768.359 0.967688 1.83441 0
M  V30 8740 C 768.784 -0.479167 1.81894 0
M  V30 8741 O 768.142 -1.34224 1.21875 0
M  V30 8742 C 768.19 1.49806 3.2801 0
M  V30 8743 O 767.294 0.703481 4.06356 0
M  V30 8744 H 766.635 0.344468 0.56766 0
M  V30 8745 H 769.165 1.54442 1.34197 0
M  V30 8746 H 769.175 1.51495 3.78831 0
M  V30 8747 H 767.85 2.55133 3.2845 0
M  V30 8748 H 766.427 0.756986 3.65136 0
M  V30 8749 N 768.612 -1.24939 0.960631 0
M  V30 8750 C 769.889 -1.88118 0.535807 0
M  V30 8751 C 770.269 -1.86605 -0.987009 0
M  V30 8752 O 769.617 -1.33375 -1.85536 0
M  V30 8753 C 769.827 -3.30565 1.11927 0
M  V30 8754 C 771.175 -4.07296 1.19981 0
M  V30 8755 O 772.199 -3.39709 1.07126 0
M  V30 8756 O 771.058 -5.28206 1.40218 0
M  V30 8757 H 768.152 -0.807698 0.177631 0
M  V30 8758 H 770.698 -1.32964 1.05445 0
M  V30 8759 H 769.47 -3.26128 2.16231 0
M  V30 8760 H 769.093 -3.93284 0.584245 0
M  V30 8761 N 770.09 -0.729906 -1.39679 0
M  V30 8762 C 771.367 -0.202149 -1.94553 0
M  V30 8763 C 771.747 1.29507 -1.66707 0
M  V30 8764 O 771.095 2.05819 -0.992517 0
M  V30 8765 C 771.305 -0.530279 -3.44948 0
M  V30 8766 C 772.653 -0.476808 -4.21914 0
M  V30 8767 O 773.677 -0.467171 -3.53123 0
M  V30 8768 O 772.536 -0.466869 -5.44502 0
M  V30 8769 H 769.63 -0.0351644 -0.826252 0
M  V30 8770 H 772.176 -0.808417 -1.49207 0
M  V30 8771 H 770.948 -1.56526 -3.5863 0
M  V30 8772 H 770.571 0.10522 -3.97461 0
M  V30 8773 N 771.568 1.50203 -0.477153 0
M  V30 8774 C 772.516 2.30278 0.327826 0
M  V30 8775 C 773.51 1.37831 0.984839 0
M  V30 8776 O 774.716 1.54994 0.915251 0
M  V30 8777 H 771.091 0.741612 0.124564 0
M  V30 8778 H 773.062 2.96124 -0.367853 0
M  V30 8779 C 771.811 3.18548 1.39365 0
M  V30 8780 H 771.134 3.89596 0.897475 0
M  V30 8781 H 772.574 3.77561 1.92934 0
M  V30 8782 C 771.033 2.36548 2.39889 0
M  V30 8783 O 771.563 2.05282 3.45286 0
M  V30 8784 N 769.769 1.99015 2.11758 0
M  V30 8785 H 769.316 2.24641 1.26071 0
M  V30 8786 H 769.274 1.44454 2.7925 0
M  V30 8787 N 773.046 0.209999 1.56195 0
M  V30 8788 C 773.976 -0.699746 2.22769 0
M  V30 8789 C 774.957 -1.20993 1.1956 0
M  V30 8790 O 776.142 -1.25605 1.48112 0
M  V30 8791 C 773.272 -1.91302 2.89863 0
M  V30 8792 C 772.226 -1.53715 3.99444 0
M  V30 8793 C 771.552 -2.82826 4.53777 0
M  V30 8794 C 772.852 -0.735836 5.17091 0
M  V30 8795 H 774.546 -0.144716 2.9905 0
M  V30 8796 H 772.092 -0.0681645 1.43839 0
M  V30 8797 H 774.045 -2.5548 3.35124 0
M  V30 8798 H 772.769 -2.49283 2.11011 0
M  V30 8799 H 771.428 -0.918892 3.54897 0
M  V30 8800 H 771.076 -3.38927 3.71669 0
M  V30 8801 H 770.776 -2.58415 5.27727 0
M  V30 8802 H 772.3 -3.47966 5.01749 0
M  V30 8803 H 773.714 -1.28105 5.58804 0
M  V30 8804 H 772.111 -0.589272 5.972 0
M  V30 8805 H 773.181 0.260004 4.84202 0
M  V30 8806 N 774.524 -1.57472 -0.0634922 0
M  V30 8807 C 775.434 -2.07621 -1.09227 0
M  V30 8808 C 776.45 -1.00746 -1.41867 0
M  V30 8809 O 777.626 -1.32269 -1.51878 0
M  V30 8810 C 774.691 -2.51707 -2.38421 0
M  V30 8811 C 773.752 -3.72917 -2.12676 0
M  V30 8812 C 772.985 -4.14891 -3.3571 0
M  V30 8813 O 773.208 -3.56663 -4.45137 0
M  V30 8814 O 772.142 -5.07616 -3.23434 0
M  V30 8815 H 775.968 -2.95612 -0.696205 0
M  V30 8816 H 773.553 -1.46787 -0.27819 0
M  V30 8817 H 775.435 -2.80547 -3.14438 0
M  V30 8818 H 774.11 -1.66842 -2.77391 0
M  V30 8819 H 773.017 -3.49148 -1.34337 0
M  V30 8820 H 774.35 -4.5866 -1.78583 0
M  V30 8821 N 776.003 0.335068 -1.53997 0
M  V30 8822 C 777.28 1.09188 -1.62288 0
M  V30 8823 C 777.66 2.0626 -0.449458 0
M  V30 8824 O 777.008 2.21596 0.557444 0
M  V30 8825 C 777.218 1.80403 -2.98757 0
M  V30 8826 C 778.566 2.33841 -3.54406 0
M  V30 8827 O 779.59 1.90487 -3.00987 0
M  V30 8828 O 778.449 3.1318 -4.47862 0
M  V30 8829 H 775.543 0.502621 -0.656736 0
M  V30 8830 H 778.089 0.33588 -1.66343 0
M  V30 8831 H 776.861 1.09732 -3.75599 0
M  V30 8832 H 776.484 2.62841 -2.9833 0
M  V30 8833 N 777.481 1.45874 0.596531 0
M  V30 8834 C 778.728 1.50467 1.35521 0
M  V30 8835 C 779.056 0.150802 1.93915 0
M  V30 8836 O 778.311 -0.851913 1.76184 0
M  V30 8837 C 778.61 2.54034 2.51399 0
M  V30 8838 C 778.276 3.9844 2.11085 0
M  V30 8839 C 776.938 4.37758 1.99804 0
M  V30 8840 C 779.29 4.89209 1.79788 0
M  V30 8841 C 776.618 5.65727 1.55465 0
M  V30 8842 C 778.97 6.17602 1.36931 0
M  V30 8843 C 777.634 6.5584 1.24218 0
M  V30 8844 H 776.904 0.550597 0.495907 0
M  V30 8845 H 779.551 1.79279 0.673145 0
M  V30 8846 H 777.856 2.18832 3.24992 0
M  V30 8847 H 779.553 2.54822 3.09624 0
M  V30 8848 H 776.143 3.67353 2.20794 0
M  V30 8849 H 780.327 4.59562 1.87395 0
M  V30 8850 H 775.583 5.94139 1.44253 0
M  V30 8851 H 779.757 6.87373 1.11764 0
M  V30 8852 H 777.384 7.54897 0.896353 0
M  V30 8853 N 778.959 -0.83999 1.33349 0
M  V30 8854 C 780.236 -1.57973 1.15342 0
M  V30 8855 C 780.616 -2.09226 -0.280632 0
M  V30 8856 O 779.964 -1.89317 -1.2795 0
M  V30 8857 C 780.174 -2.71446 2.19359 0
M  V30 8858 C 781.522 -3.40654 2.53456 0
M  V30 8859 O 782.546 -2.81686 2.18017 0
M  V30 8860 O 781.405 -4.47101 3.14266 0
M  V30 8861 H 778.499 -0.6964 0.446044 0
M  V30 8862 H 781.045 -0.882843 1.44927 0
M  V30 8863 H 779.817 -2.31205 3.1569 0
M  V30 8864 H 779.44 -3.488 1.90852 0
M  V30 8865 N 780.437 -1.16799 -1.0581 0
M  V30 8866 C 781.683 -0.953935 -1.78963 0
M  V30 8867 C 782.016 0.516638 -1.87202 0
M  V30 8868 O 781.291 1.38338 -1.36721 0
M  V30 8869 C 781.574 -1.58808 -3.23191 0
M  V30 8870 C 781.427 -3.13032 -3.23003 0
M  V30 8871 C 782.746 -1.2868 -4.20867 0
M  V30 8872 H 779.865 -0.347972 -0.64968 0
M  V30 8873 H 782.507 -1.44204 -1.23715 0
M  V30 8874 H 780.657 -1.17303 -3.70368 0
M  V30 8875 H 782.329 -3.63553 -2.83949 0
M  V30 8876 H 780.572 -3.46108 -2.61518 0
M  V30 8877 H 781.243 -3.52527 -4.24769 0
M  V30 8878 H 783.719 -1.6461 -3.82155 0
M  V30 8879 H 782.595 -1.75645 -5.20038 0
M  V30 8880 H 782.856 -0.206491 -4.41618 0
M  V30 8881 N 781.915 1.24427 -0.967243 0
M  V30 8882 C 782.825 2.29109 -0.504592 0
M  V30 8883 C 783.841 1.68495 0.434224 0
M  V30 8884 O 785.017 1.99041 0.307379 0
M  V30 8885 C 782.082 3.46133 0.198273 0
M  V30 8886 C 781.143 4.22149 -0.780313 0
M  V30 8887 C 780.376 5.33585 -0.110896 0
M  V30 8888 O 780.599 5.59676 1.10088 0
M  V30 8889 O 779.533 5.96522 -0.802823 0
M  V30 8890 H 783.359 2.708 -1.37482 0
M  V30 8891 H 780.944 1.30111 -0.73426 0
M  V30 8892 H 782.826 4.17205 0.593124 0
M  V30 8893 H 781.501 3.0642 1.04347 0
M  V30 8894 H 780.408 3.53454 -1.22561 0
M  V30 8895 H 781.741 4.65677 -1.59392 0
M  V30 8896 N 783.393 0.737304 1.3929 0
M  V30 8897 C 784.303 0.100464 2.34385 0
M  V30 8898 C 785.319 -0.719282 1.58437 0
M  V30 8899 O 786.495 -0.647216 1.90717 0
M  V30 8900 C 783.56 -0.794325 3.37478 0
M  V30 8901 C 782.621 0.0379345 4.29283 0
M  V30 8902 C 781.854 -0.814241 5.27452 0
M  V30 8903 O 782.077 -2.05288 5.32177 0
M  V30 8904 O 781.011 -0.241679 6.01415 0
M  V30 8905 H 784.837 0.885407 2.90507 0
M  V30 8906 H 782.422 0.497999 1.40856 0
M  V30 8907 H 784.304 -1.30622 4.00644 0
M  V30 8908 H 782.979 -1.55804 2.83737 0
M  V30 8909 H 781.886 0.595405 3.69331 0
M  V30 8910 H 783.219 0.763926 4.86236 0
M  V30 8911 N 784.871 -1.49948 0.485112 0
M  V30 8912 C 785.781 -2.32587 -0.306697 0
M  V30 8913 C 786.797 -1.43598 -0.982632 0
M  V30 8914 O 787.973 -1.76638 -0.967519 0
M  V30 8915 C 785.038 -3.18638 -1.3664 0
M  V30 8916 C 784.099 -4.23462 -0.705589 0
M  V30 8917 C 783.332 -5.05401 -1.7148 0
M  V30 8918 O 783.555 -4.88618 -2.94293 0
M  V30 8919 O 782.489 -5.88157 -1.27889 0
M  V30 8920 H 786.315 -3.01447 0.369272 0
M  V30 8921 H 783.9 -1.47349 0.246709 0
M  V30 8922 H 785.782 -3.71992 -1.9799 0
M  V30 8923 H 784.457 -2.52491 -2.02559 0
M  V30 8924 H 783.364 -3.74063 -0.0527733 0
M  V30 8925 H 784.697 -4.92119 -0.0891187 0
M  V30 8926 N 786.349 -0.21828 -1.56081 0
M  V30 8927 C 787.626 0.463143 -1.90038 0
M  V30 8928 C 788.006 1.77982 -1.13515 0
M  V30 8929 O 787.354 2.27199 -0.24345 0
M  V30 8930 C 787.564 0.659292 -3.42716 0
M  V30 8931 C 788.912 0.968203 -4.13414 0
M  V30 8932 O 789.936 0.746195 -3.48296 0
M  V30 8933 O 788.795 1.38936 -5.28544 0
M  V30 8934 H 785.889 0.244435 -0.790051 0
M  V30 8935 H 788.435 -0.260221 -1.67693 0
M  V30 8936 H 787.207 -0.269584 -3.9037 0
M  V30 8937 H 786.83 1.43426 -3.7083 0
M  V30 8938 N 787.827 1.57504 0.0551401 0
M  V30 8939 C 788.737 2.08198 1.08124 0
M  V30 8940 C 789.753 1.01496 1.41331 0
M  V30 8941 O 790.929 1.33073 1.51174 0
M  V30 8942 C 787.994 2.52968 2.37083 0
M  V30 8943 C 787.055 3.7404 2.10696 0
M  V30 8944 C 786.288 4.16665 3.33505 0
M  V30 8945 O 786.511 3.59019 4.4324 0
M  V30 8946 O 785.445 5.09324 3.20737 0
M  V30 8947 H 789.271 2.95977 0.680518 0
M  V30 8948 H 786.856 1.46933 0.270401 0
M  V30 8949 H 788.738 2.82211 3.12946 0
M  V30 8950 H 787.413 1.6831 2.76502 0
M  V30 8951 H 786.32 3.49855 1.32484 0
M  V30 8952 H 787.653 4.59601 1.76148 0
M  V30 8953 N 789.305 -0.326896 1.54172 0
M  V30 8954 C 790.215 -1.42525 1.86343 0
M  V30 8955 C 791.231 -1.56764 0.75505 0
M  V30 8956 O 792.407 -1.71924 1.04901 0
M  V30 8957 C 789.472 -2.77286 2.08119 0
M  V30 8958 C 788.533 -2.7225 3.31931 0
M  V30 8959 C 787.766 -4.00584 3.52659 0
M  V30 8960 O 787.989 -4.98686 2.76891 0
M  V30 8961 O 786.923 -4.04045 4.46129 0
M  V30 8962 H 790.749 -1.18249 2.79734 0
M  V30 8963 H 788.334 -0.520614 1.40036 0
M  V30 8964 H 790.216 -3.57065 2.23791 0
M  V30 8965 H 788.891 -3.01459 1.17917 0
M  V30 8966 H 787.798 -1.91033 3.21647 0
M  V30 8967 H 789.131 -2.53032 4.2218 0
M  V30 8968 N 790.784 -1.46188 -0.588786 0
M  V30 8969 C 791.747 -1.55882 -1.68029 0
M  V30 8970 C 792.747 -0.436515 -1.54762 0
M  V30 8971 O 793.937 -0.700626 -1.59489 0
M  V30 8972 C 791.069 -1.47332 -3.07418 0
M  V30 8973 H 792.262 -2.5315 -1.60795 0
M  V30 8974 H 789.815 -1.33908 -0.806116 0
M  V30 8975 H 790.55 -0.513193 -3.20214 0
M  V30 8976 H 790.335 -2.28753 -3.18456 0
M  V30 8977 H 791.825 -1.57187 -3.86887 0
M  V30 8978 N 792.262 0.832906 -1.33792 0
M  V30 8979 C 793.192 1.95828 -1.27176 0
M  V30 8980 C 794.173 1.69427 -0.15114 0
M  V30 8981 O 795.358 1.91167 -0.341886 0
M  V30 8982 C 792.488 3.32098 -1.01629 0
M  V30 8983 C 791.442 3.72912 -2.10049 0
M  V30 8984 C 790.768 5.07054 -1.69706 0
M  V30 8985 C 792.068 3.86064 -3.51783 0
M  V30 8986 H 793.762 2.01622 -2.21334 0
M  V30 8987 H 791.308 0.96866 -1.0655 0
M  V30 8988 H 793.261 4.10402 -0.956474 0
M  V30 8989 H 791.985 3.26577 -0.0390956 0
M  V30 8990 H 790.644 2.96876 -2.15082 0
M  V30 8991 H 790.292 4.9801 -0.706737 0
M  V30 8992 H 789.992 5.35333 -2.42264 0
M  V30 8993 H 791.516 5.87827 -1.65202 0
M  V30 8994 H 792.93 4.54665 -3.49218 0
M  V30 8995 H 791.327 4.25787 -4.22878 0
M  V30 8996 H 792.397 2.88344 -3.89854 0
M  V30 8997 N 793.74 1.17359 1.05189 0
M  V30 8998 C 794.989 0.956412 1.77583 0
M  V30 8999 C 795.302 -0.516018 1.88671 0
M  V30 9000 O 796.508 -0.851401 2.57805 0
M  V30 9001 C 794.964 1.66203 3.19225 0
M  V30 9002 C 794.572 3.17299 3.16267 0
M  V30 9003 C 796.316 1.52725 3.96075 0
M  V30 9004 C 794.223 3.8055 4.52698 0
M  V30 9005 H 793.153 0.354204 0.665624 0
M  V30 9006 H 795.804 1.40612 1.17901 0
M  V30 9007 H 794.186 1.14006 3.79234 0
M  V30 9008 H 795.36 3.76431 2.65776 0
M  V30 9009 H 793.675 3.3079 2.52917 0
M  V30 9010 H 796.272 1.97351 4.96947 0
M  V30 9011 H 796.615 0.477803 4.13549 0
M  V30 9012 H 797.148 2.02139 3.42614 0
M  V30 9013 H 793.887 4.85492 4.4043 0
M  V30 9014 H 793.407 3.26206 5.03339 0
M  V30 9015 H 795.086 3.82757 5.21638 0
M  V30 9016 N 795.218 -1.23913 0.973828 0
M  V30 9017 C 796.128 -2.28838 0.516735 0
M  V30 9018 C 797.144 -1.68723 -0.425282 0
M  V30 9019 O 798.32 -1.99201 -0.296819 0
M  V30 9020 C 795.385 -3.46233 -0.179914 0
M  V30 9021 C 794.446 -4.21729 0.80269 0
M  V30 9022 C 793.679 -5.33518 0.139191 0
M  V30 9023 O 793.902 -5.60252 -1.07118 0
M  V30 9024 O 792.836 -5.96088 0.834447 0
M  V30 9025 H 796.662 -2.70067 1.38916 0
M  V30 9026 H 794.247 -1.2972 0.74115 0
M  V30 9027 H 796.129 -4.17514 -0.570991 0
M  V30 9028 H 794.804 -3.06969 -1.02721 0
M  V30 9029 H 793.711 -3.52799 1.24434 0
M  V30 9030 H 795.044 -4.64825 1.61859 0
M  V30 9031 N 796.696 -0.74468 -1.38897 0
M  V30 9032 C 797.628 -0.0713608 -2.29089 0
M  V30 9033 C 798.641 0.693224 -1.47303 0
M  V30 9034 O 799.83 0.535785 -1.70269 0
M  V30 9035 C 796.93 0.923078 -3.26087 0
M  V30 9036 C 796.103 0.217998 -4.36856 0
M  V30 9037 C 795.162 1.12192 -5.14101 0
M  V30 9038 O 794.188 0.595771 -5.66073 0
M  V30 9039 N 795.39 2.45082 -5.26227 0
M  V30 9040 H 798.155 -0.845906 -2.87514 0
M  V30 9041 H 795.716 -0.594712 -1.50581 0
M  V30 9042 H 797.708 1.53061 -3.74639 0
M  V30 9043 H 796.278 1.59876 -2.68623 0
M  V30 9044 H 795.498 -0.570134 -3.90055 0
M  V30 9045 H 796.786 -0.270248 -5.08082 0
M  V30 9046 H 796.184 2.90294 -4.85537 0
M  V30 9047 H 794.741 3.00907 -5.78185 0
M  V30 9048 N 798.174 1.49689 -0.493057 0
M  V30 9049 C 799.59 1.58907 -0.148526 0
M  V30 9050 C 799.79 1.4991 1.34645 0
M  V30 9051 O 798.846 1.36893 2.12171 0
M  V30 9052 C 800.159 2.91996 -0.718265 0
M  V30 9053 C 801.707 3.05443 -0.683658 0
M  V30 9054 C 802.182 4.41138 -1.23132 0
M  V30 9055 N 803.673 4.47608 -1.19167 0
M  V30 9056 C 804.408 5.51038 -1.5857 0
M  V30 9057 N 803.904 6.61612 -2.05528 0
M  V30 9058 N 805.697 5.41706 -1.50036 0
M  V30 9059 H 797.848 1.5378 -1.46511 0
M  V30 9060 H 800.111 0.727996 -0.607228 0
M  V30 9061 H 799.817 3.04123 -1.7664 0
M  V30 9062 H 799.691 3.76798 -0.17419 0
M  V30 9063 H 802.078 2.92949 0.355626 0
M  V30 9064 H 802.159 2.22344 -1.26479 0
M  V30 9065 H 801.803 4.54382 -2.26935 0
M  V30 9066 H 801.733 5.22864 -0.626201 0
M  V30 9067 H 804.224 3.68274 -0.847524 0
M  V30 9068 H 804.537 7.36622 -2.33685 0
M  V30 9069 H 802.882 6.62674 -2.09497 0
M  V30 9070 H 806.073 4.54212 -1.13176 0
M  V30 9071 H 806.246 6.22188 -1.81068 0
M  V30 9072 N 799.652 0.226554 1.55963 0
M  V30 9073 C 801.068 -0.128733 1.5908 0
M  V30 9074 C 801.268 -1.58558 1.24345 0
M  V30 9075 O 800.324 -2.32661 0.981069 0
M  V30 9076 C 801.637 0.202076 3.0002 0
M  V30 9077 C 803.185 0.144718 3.12665 0
M  V30 9078 C 803.66 0.449272 4.55791 0
M  V30 9079 N 805.151 0.399026 4.61478 0
M  V30 9080 C 805.886 0.608106 5.70166 0
M  V30 9081 N 805.382 0.879227 6.87198 0
M  V30 9082 N 807.175 0.5402 5.59498 0
M  V30 9083 H 799.326 1.17686 1.76816 0
M  V30 9084 H 801.589 0.472072 0.822102 0
M  V30 9085 H 801.295 1.21341 3.30105 0
M  V30 9086 H 801.169 -0.480554 3.74126 0
M  V30 9087 H 803.556 -0.857261 2.82374 0
M  V30 9088 H 803.637 0.860899 2.40878 0
M  V30 9089 H 803.281 1.44871 4.86801 0
M  V30 9090 H 803.211 -0.288157 5.25811 0
M  V30 9091 H 805.702 0.197372 3.77384 0
M  V30 9092 H 806.015 1.02673 7.65949 0
M  V30 9093 H 804.36 0.916477 6.88931 0
M  V30 9094 H 807.551 0.328581 4.66945 0
M  V30 9095 H 807.724 0.706548 6.44137 0
M  V30 9096 N 801.13 -1.57531 -0.0467866 0
M  V30 9097 C 802.379 -1.87632 -0.740069 0
M  V30 9098 C 802.692 -0.822691 -1.77457 0
M  V30 9099 O 803.898 -1.01235 -2.5192 0
M  V30 9100 C 802.354 -3.32917 -1.36727 0
M  V30 9101 C 801.962 -4.46469 -0.370035 0
M  V30 9102 C 803.706 -3.72189 -2.04146 0
M  V30 9103 C 801.613 -5.82806 -1.00457 0
M  V30 9104 H 800.543 -0.70002 -0.280158 0
M  V30 9105 H 803.194 -1.83499 0.00607151 0
M  V30 9106 H 801.576 -3.31739 -2.16252 0
M  V30 9107 H 802.75 -4.59085 0.397217 0
M  V30 9108 H 801.065 -4.15914 0.201079 0
M  V30 9109 H 803.662 -4.71357 -2.52441 0
M  V30 9110 H 804.005 -3.03268 -2.85192 0
M  V30 9111 H 804.538 -3.75465 -1.3142 0
M  V30 9112 H 801.277 -6.55083 -0.233907 0
M  V30 9113 H 800.797 -5.73944 -1.74209 0
M  V30 9114 H 802.476 -6.28961 -1.51713 0
M  V30 9115 N 802.608 0.318715 -1.54344 0
M  V30 9116 C 803.54 1.41364 -1.80413 0
M  V30 9117 C 804.553 1.47627 -0.686294 0
M  V30 9118 O 805.742 1.50264 -0.963486 0
M  V30 9119 C 802.842 2.79867 -1.91123 0
M  V30 9120 C 802.015 2.96749 -3.21339 0
M  V30 9121 C 801.074 4.15642 -3.22689 0
M  V30 9122 O 800.1 4.08571 -3.96306 0
M  V30 9123 N 801.302 5.25416 -2.46817 0
M  V30 9124 H 804.067 1.19363 -2.74905 0
M  V30 9125 H 801.628 0.508722 -1.537 0
M  V30 9126 H 803.62 3.57619 -1.89448 0
M  V30 9127 H 802.19 2.94896 -1.03706 0
M  V30 9128 H 801.41 2.06257 -3.35934 0
M  V30 9129 H 802.698 3.04927 -4.07304 0
M  V30 9130 H 802.096 5.34037 -1.86605 0
M  V30 9131 H 800.653 6.01569 -2.50915 0
M  V30 9132 N 804.086 1.46499 0.581025 0
M  V30 9133 C 805.502 1.31491 0.904563 0
M  V30 9134 C 805.702 0.287598 1.99437 0
M  V30 9135 O 804.758 -0.309247 2.50599 0
M  V30 9136 C 806.071 2.70163 1.32032 0
M  V30 9137 C 807.619 2.78266 1.43308 0
M  V30 9138 C 808.094 4.17524 1.8825 0
M  V30 9139 N 809.585 4.19949 1.9544 0
M  V30 9140 C 810.32 5.24594 2.31493 0
M  V30 9141 N 809.816 6.39564 2.66326 0
M  V30 9142 N 811.609 5.11961 2.32062 0
M  V30 9143 H 803.76 2.11946 -0.138856 0
M  V30 9144 H 806.023 0.948 0.000548528 0
M  V30 9145 H 805.729 3.46655 0.593554 0
M  V30 9146 H 805.603 3.00379 2.2815 0
M  V30 9147 H 807.99 2.02061 2.15071 0
M  V30 9148 H 808.071 2.51732 0.45438 0
M  V30 9149 H 807.715 4.94225 1.17065 0
M  V30 9150 H 807.645 4.41466 2.87081 0
M  V30 9151 H 810.136 3.36996 1.71004 0
M  V30 9152 H 810.449 7.15187 2.92793 0
M  V30 9153 H 808.794 6.42923 2.6396 0
M  V30 9154 H 811.985 4.21177 2.04272 0
M  V30 9155 H 812.158 5.93626 2.5983 0
M  V30 9156 N 805.565 -0.825799 1.34232 0
M  V30 9157 C 806.497 -1.94401 1.21413 0
M  V30 9158 C 807.51 -1.6218 0.141902 0
M  V30 9159 O 808.699 -1.74109 0.3935 0
M  V30 9160 C 805.799 -3.28257 0.842635 0
M  V30 9161 C 804.972 -3.88521 2.00924 0
M  V30 9162 C 804.031 -5.00752 1.61661 0
M  V30 9163 O 803.057 -5.19201 2.33279 0
M  V30 9164 N 804.259 -5.78084 0.52911 0
M  V30 9165 H 807.024 -2.05931 2.17744 0
M  V30 9166 H 804.585 -1.00223 1.27149 0
M  V30 9167 H 806.577 -4.00781 0.561822 0
M  V30 9168 H 805.147 -3.12585 -0.0304029 0
M  V30 9169 H 804.367 -3.08425 2.45495 0
M  V30 9170 H 805.655 -4.25516 2.78951 0
M  V30 9171 H 805.053 -5.65661 -0.0663322 0
M  V30 9172 H 803.61 -6.51072 0.308017 0
M  V30 9173 N 807.043 -1.17915 -1.04565 0
M  V30 9174 C 808.006 -0.903787 -2.10628 0
M  V30 9175 C 809.006 0.10873 -1.60432 0
M  V30 9176 O 810.196 -0.124152 -1.73757 0
M  V30 9177 C 807.328 -0.355017 -3.39046 0
M  V30 9178 H 808.521 -1.84425 -2.3649 0
M  V30 9179 H 806.074 -0.990477 -1.2091 0
M  V30 9180 H 806.809 0.592297 -3.18845 0
M  V30 9181 H 806.594 -1.08484 -3.76794 0
M  V30 9182 H 808.084 -0.180891 -4.17208 0
M  V30 9183 N 808.521 1.23394 -0.980386 0
M  V30 9184 C 809.77 1.91116 -0.644785 0
M  V30 9185 C 810.083 1.77333 0.825367 0
M  V30 9186 O 811.289 2.39858 1.27203 0
M  V30 9187 C 809.745 3.42592 -1.10266 0
M  V30 9188 C 809.353 3.65037 -2.59715 0
M  V30 9189 C 811.097 4.1609 -0.8408 0
M  V30 9190 C 809.004 5.10148 -2.9917 0
M  V30 9191 H 807.934 0.715632 -0.23746 0
M  V30 9192 H 810.585 1.39829 -1.18828 0
M  V30 9193 H 808.967 3.92989 -0.487372 0
M  V30 9194 H 810.141 3.25186 -3.26482 0
M  V30 9195 H 808.456 3.04849 -2.83647 0
M  V30 9196 H 811.053 5.23021 -1.11143 0
M  V30 9197 H 811.396 4.15702 0.223085 0
M  V30 9198 H 811.929 3.71681 -1.41767 0
M  V30 9199 H 808.668 5.15668 -4.04682 0
M  V30 9200 H 808.188 5.50949 -2.37097 0
M  V30 9201 H 809.867 5.7848 -2.89775 0
M  V30 9202 N 809.999 0.752036 1.385 0
M  V30 9203 C 811.245 0.307958 2.00448 0
M  V30 9204 C 811.578 -1.10702 1.59558 0
M  V30 9205 O 810.853 -1.75788 0.832391 0
M  V30 9206 C 811.136 0.429092 3.57534 0
M  V30 9207 C 810.989 1.88507 4.08393 0
M  V30 9208 C 812.308 -0.178442 4.39738 0
M  V30 9209 H 809.427 0.113373 0.728228 0
M  V30 9210 H 812.069 0.951389 1.64465 0
M  V30 9211 H 810.219 -0.118695 3.88319 0
M  V30 9212 H 811.891 2.49104 3.88259 0
M  V30 9213 H 810.134 2.40066 3.61318 0
M  V30 9214 H 810.805 1.92099 5.17496 0
M  V30 9215 H 813.281 0.28872 4.15097 0
M  V30 9216 H 812.157 -0.0634349 5.48863 0
M  V30 9217 H 812.418 -1.26655 4.23569 0
M  V30 9218 N 811.477 -1.49425 0.500989 0
M  V30 9219 C 812.409 -2.27037 -0.314159 0
M  V30 9220 C 813.422 -1.33578 -0.930626 0
M  V30 9221 O 814.611 -1.58861 -0.813968 0
M  V30 9222 C 811.711 -3.05968 -1.45729 0
M  V30 9223 C 810.884 -4.27 -0.948135 0
M  V30 9224 C 809.943 -4.87977 -1.96888 0
M  V30 9225 O 808.969 -5.48044 -1.53743 0
M  V30 9226 N 810.171 -4.77627 -3.29928 0
M  V30 9227 H 812.936 -2.97634 0.351336 0
M  V30 9228 H 810.497 -1.58427 0.333536 0
M  V30 9229 H 812.489 -3.43634 -2.1377 0
M  V30 9230 H 811.059 -2.37978 -2.02695 0
M  V30 9231 H 810.279 -3.94091 -0.0926311 0
M  V30 9232 H 811.567 -5.0541 -0.586362 0
M  V30 9233 H 810.965 -4.29926 -3.67669 0
M  V30 9234 H 809.522 -5.19478 -3.93682 0
M  V30 9235 N 812.955 -0.234822 -1.55841 0
M  V30 9236 C 813.902 0.6698 -2.20867 0
M  V30 9237 C 814.872 1.18042 -1.16856 0
M  V30 9238 O 816.057 1.23709 -1.45261 0
M  V30 9239 C 813.197 1.86646 -2.90271 0
M  V30 9240 C 812.31 1.39351 -4.08908 0
M  V30 9241 C 811.445 2.54878 -4.66059 0
M  V30 9242 C 810.484 2.04384 -5.76969 0
M  V30 9243 N 809.621 3.13233 -6.28355 0
M  V30 9244 H 814.461 0.10858 -2.97802 0
M  V30 9245 H 811.998 0.041836 -1.4704 0
M  V30 9246 H 813.956 2.56926 -3.28702 0
M  V30 9247 H 812.586 2.40035 -2.15831 0
M  V30 9248 H 811.638 0.585173 -3.75872 0
M  V30 9249 H 812.95 0.983356 -4.89011 0
M  V30 9250 H 812.104 3.33219 -5.07001 0
M  V30 9251 H 810.843 2.99188 -3.85146 0
M  V30 9252 H 809.848 1.24509 -5.35516 0
M  V30 9253 H 811.073 1.61057 -6.59725 0
M  V30 9254 H 809.019 3.57 -5.50352 0
M  V30 9255 H 808.936 2.76511 -7.03618 0
M  V30 9256 H 810.204 3.91669 -6.73955 0
M  V30 9257 N 814.433 1.57553 0.0384317 0
M  V30 9258 C 815.663 1.92813 0.742064 0
M  V30 9259 C 816.071 0.832157 1.69917 0
M  V30 9260 O 815.414 -0.200917 1.82598 0
M  V30 9261 C 815.476 3.23806 1.56172 0
M  V30 9262 C 815.14 4.50459 0.770407 0
M  V30 9263 C 816.137 5.19846 0.0748006 0
M  V30 9264 C 813.822 4.97001 0.727714 0
M  V30 9265 C 815.816 6.34047 -0.652902 0
M  V30 9266 C 813.503 6.111 -0.00373992 0
M  V30 9267 C 814.501 6.79477 -0.692816 0
M  V30 9268 O 814.189 7.91395 -1.41241 0
M  V30 9269 H 813.921 0.641174 0.214179 0
M  V30 9270 H 816.475 2.054 0.00285095 0
M  V30 9271 H 814.705 3.0752 2.34453 0
M  V30 9272 H 816.394 3.44463 2.14709 0
M  V30 9273 H 817.16 4.84899 0.098875 0
M  V30 9274 H 813.039 4.43629 1.25355 0
M  V30 9275 H 816.583 6.87353 -1.1913 0
M  V30 9276 H 812.48 6.45493 -0.0297703 0
M  V30 9277 H 813.248 8.07702 -1.32512 0
M  V30 9278 N 815.911 -0.310526 1.54511 0
M  V30 9279 C 816.858 -1.38264 1.84802 0
M  V30 9280 C 817.828 -1.50808 0.696141 0
M  V30 9281 O 819.013 -1.6582 0.943846 0
M  V30 9282 C 816.153 -2.74422 2.09252 0
M  V30 9283 C 815.266 -2.70405 3.36906 0
M  V30 9284 C 814.401 -3.98495 3.51248 0
M  V30 9285 C 813.44 -3.88836 4.72729 0
M  V30 9286 N 812.577 -5.08683 4.83928 0
M  V30 9287 H 817.417 -1.11732 2.76261 0
M  V30 9288 H 814.954 -0.540609 1.36806 0
M  V30 9289 H 816.912 -3.53593 2.21422 0
M  V30 9290 H 815.542 -2.99235 1.2107 0
M  V30 9291 H 814.594 -1.83151 3.33406 0
M  V30 9292 H 815.906 -2.59155 4.26193 0
M  V30 9293 H 815.06 -4.861 3.63031 0
M  V30 9294 H 813.799 -4.12567 2.60077 0
M  V30 9295 H 812.804 -2.99615 4.60989 0
M  V30 9296 H 814.029 -3.76318 5.65298 0
M  V30 9297 H 811.975 -5.23236 3.95677 0
M  V30 9298 H 811.892 -4.99819 5.67201 0
M  V30 9299 H 813.16 -5.97966 5.00057 0
M  V30 9300 N 817.389 -1.46805 -0.573248 0
M  V30 9301 C 818.619 -1.55965 -1.35494 0
M  V30 9302 C 819.027 -0.203038 -1.88107 0
M  V30 9303 O 818.37 0.81138 -1.6481 0
M  V30 9304 C 818.432 -2.51168 -2.57206 0
M  V30 9305 C 818.096 -3.97211 -2.25993 0
M  V30 9306 C 819.093 -4.86155 -1.84254 0
M  V30 9307 C 816.778 -4.42419 -2.37846 0
M  V30 9308 C 818.772 -6.18323 -1.54776 0
M  V30 9309 C 816.459 -5.74619 -2.0798 0
M  V30 9310 C 817.457 -6.62392 -1.66511 0
M  V30 9311 O 817.145 -7.92137 -1.37016 0
M  V30 9312 H 816.877 -0.529748 -0.419932 0
M  V30 9313 H 819.431 -1.92998 -0.702914 0
M  V30 9314 H 817.661 -2.09171 -3.25245 0
M  V30 9315 H 819.35 -2.50631 -3.19279 0
M  V30 9316 H 820.116 -4.52481 -1.74603 0
M  V30 9317 H 815.995 -3.74319 -2.69085 0
M  V30 9318 H 819.539 -6.8679 -1.22334 0
M  V30 9319 H 815.436 -6.0784 -2.17258 0
M  V30 9320 H 816.204 -8.04492 -1.50782 0
M  V30 9321 N 818.867 0.818669 -1.34668 0
M  V30 9322 C 819.797 1.94468 -1.29245 0
M  V30 9323 C 820.778 1.69257 -0.169101 0
M  V30 9324 O 821.963 1.90794 -0.362143 0
M  V30 9325 C 819.093 3.31001 -1.05145 0
M  V30 9326 C 818.047 3.70663 -2.13992 0
M  V30 9327 C 817.373 5.05226 -1.75074 0
M  V30 9328 C 818.673 3.82312 -3.55858 0
M  V30 9329 H 820.367 1.99263 -2.2346 0
M  V30 9330 H 817.913 0.957304 -1.07572 0
M  V30 9331 H 819.866 4.09364 -0.999949 0
M  V30 9332 H 818.59 3.26517 -0.0737312 0
M  V30 9333 H 817.249 2.94578 -2.18219 0
M  V30 9334 H 816.897 4.97233 -0.759518 0
M  V30 9335 H 816.597 5.32734 -2.47928 0
M  V30 9336 H 818.121 5.86042 -1.71427 0
M  V30 9337 H 819.535 4.50935 -3.5402 0
M  V30 9338 H 817.932 4.21278 -4.2737 0
M  V30 9339 H 819.002 2.84193 -3.9289 0
M  V30 9340 N 820.346 1.18468 1.03938 0
M  V30 9341 C 821.309 0.914944 2.10146 0
M  V30 9342 C 822.309 -0.10022 1.60487 0
M  V30 9343 O 823.499 0.133365 1.73689 0
M  V30 9344 C 820.631 0.372993 3.38853 0
M  V30 9345 H 821.824 1.85677 2.35508 0
M  V30 9346 H 819.377 0.996876 1.20383 0
M  V30 9347 H 820.112 -0.57538 3.19155 0
M  V30 9348 H 819.897 1.1048 3.76213 0
M  V30 9349 H 821.387 0.203014 4.17106 0
M  V30 9350 N 821.824 -1.22873 0.986916 0
M  V30 9351 C 822.734 -2.28277 0.540978 0
M  V30 9352 C 823.75 -1.69164 -0.407363 0
M  V30 9353 O 824.926 -1.99504 -0.275674 0
M  V30 9354 C 821.991 -3.46404 -0.143181 0
M  V30 9355 C 821.052 -4.20854 0.847375 0
M  V30 9356 C 820.285 -5.33341 0.19577 0
M  V30 9357 O 820.508 -5.61356 -1.0117 0
M  V30 9358 O 819.442 -5.95169 0.897623 0
M  V30 9359 H 823.268 -2.68578 1.41773 0
M  V30 9360 H 820.853 -1.28927 0.754867 0
M  V30 9361 H 822.735 -4.18096 -0.526676 0
M  V30 9362 H 821.41 -3.08041 -0.994593 0
M  V30 9363 H 820.317 -3.51459 1.28169 0
M  V30 9364 H 821.65 -4.63082 1.6678 0
M  V30 9365 N 823.302 -0.75937 -1.38099 0
M  V30 9366 C 824.579 -0.243371 -1.9408 0
M  V30 9367 C 824.959 1.25942 -1.69416 0
M  V30 9368 O 824.307 2.03667 -1.03595 0
M  V30 9369 C 824.517 -0.603328 -3.43745 0
M  V30 9370 C 825.865 -0.566195 -4.20808 0
M  V30 9371 O 826.889 -0.541969 -3.52053 0
M  V30 9372 O 825.748 -0.582261 -5.43389 0
M  V30 9373 H 822.842 -0.0526825 -0.82532 0
M  V30 9374 H 825.388 -0.839884 -1.47459 0
M  V30 9375 H 824.16 -1.64098 -3.55229 0
M  V30 9376 H 823.783 0.0208887 -3.97595 0
M  V30 9377 N 824.78 1.49157 -0.508906 0
M  V30 9378 C 826.005 2.07376 0.0315182 0
M  V30 9379 C 826.43 1.36575 1.2934 0
M  V30 9380 O 825.788 0.424963 1.76249 0
M  V30 9381 C 825.836 3.59661 0.260118 0
M  V30 9382 O 824.94 3.90255 1.33322 0
M  V30 9383 H 824.281 0.663334 -0.029739 0
M  V30 9384 H 826.811 1.91857 -0.710791 0
M  V30 9385 H 826.821 4.05056 0.489225 0
M  V30 9386 H 825.496 4.10601 -0.661794 0
M  V30 9387 H 824.073 3.56661 1.08844 0
M  V30 9388 N 826.258 0.243083 1.55714 0
M  V30 9389 C 827.206 -0.674349 2.2261 0
M  V30 9390 C 828.2 -1.18307 1.21243 0
M  V30 9391 O 829.406 -1.1404 1.39265 0
M  V30 9392 H 825.781 -0.235941 0.714028 0
M  V30 9393 H 827.752 -0.0869446 2.98273 0
M  V30 9394 C 826.501 -1.86206 2.93637 0
M  V30 9395 H 825.824 -1.47975 3.71407 0
M  V30 9396 H 827.264 -2.4813 3.43813 0
M  V30 9397 C 825.723 -2.73084 1.97298 0
M  V30 9398 O 826.253 -3.72497 1.50361 0
M  V30 9399 N 824.459 -2.39571 1.64482 0
M  V30 9400 H 824.006 -1.5878 2.02846 0
M  V30 9401 H 823.964 -2.97976 1.00288 0
M  V30 9402 N 827.736 -1.57571 -0.0300757 0
M  V30 9403 C 828.669 -2.01874 -1.06406 0
M  V30 9404 C 829.647 -0.902901 -1.35227 0
M  V30 9405 O 830.831 -1.16865 -1.47901 0
M  V30 9406 C 827.958 -2.39093 -2.39901 0
M  V30 9407 C 827.004 -3.61108 -2.26943 0
M  V30 9408 S 827.837 -5.10287 -1.62382 0
M  V30 9409 C 828.993 -5.50747 -2.97369 0
M  V30 9410 H 829.226 -2.89261 -0.686703 0
M  V30 9411 H 826.759 -1.52523 -0.240017 0
M  V30 9412 H 828.717 -2.61207 -3.16672 0
M  V30 9413 H 827.378 -1.52159 -2.74784 0
M  V30 9414 H 826.571 -3.84803 -3.25489 0
M  V30 9415 H 826.173 -3.3884 -1.58314 0
M  V30 9416 H 828.465 -5.51369 -3.93698 0
M  V30 9417 H 829.408 -6.51071 -2.78409 0
M  V30 9418 H 829.816 -4.7825 -2.99895 0
M  V30 9419 N 829.214 0.302327 -1.54673 0
M  V30 9420 C 830.439 1.06103 -1.78205 0
M  V30 9421 C 830.864 1.80204 -0.53926 0
M  V30 9422 O 830.222 1.73975 0.510142 0
M  V30 9423 C 830.27 2.01829 -2.98827 0
M  V30 9424 O 829.374 3.10108 -2.71858 0
M  V30 9425 H 828.715 0.30487 -0.589873 0
M  V30 9426 H 831.245 0.340153 -2.01753 0
M  V30 9427 H 831.255 2.44319 -3.2676 0
M  V30 9428 H 829.93 1.473 -3.88942 0
M  V30 9429 H 828.507 2.72142 -2.54937 0
M  V30 9430 N 830.692 1.47107 0.565454 0
M  V30 9431 C 831.938 1.53535 1.32495 0
M  V30 9432 C 832.271 0.193537 1.93233 0
M  V30 9433 O 831.546 -0.796956 1.77423 0
M  V30 9434 C 831.829 2.64712 2.4413 0
M  V30 9435 C 831.682 4.08482 1.88314 0
M  V30 9436 C 833.001 2.71853 3.46098 0
M  V30 9437 H 830.12 0.558926 0.480386 0
M  V30 9438 H 832.762 1.79125 0.633575 0
M  V30 9439 H 830.912 2.43023 3.03104 0
M  V30 9440 H 832.584 4.4151 1.33665 0
M  V30 9441 H 830.827 4.17148 1.19037 0
M  V30 9442 H 831.498 4.82032 2.68978 0
M  V30 9443 H 833.974 2.91397 2.97031 0
M  V30 9444 H 832.85 3.51433 4.21646 0
M  V30 9445 H 833.111 1.78584 4.04426 0
M  V30 9446 N 832.17 -0.811516 1.35101 0
M  V30 9447 C 833.581 -1.38515 1.25182 0
M  V30 9448 C 833.932 -1.95846 -0.117883 0
M  V30 9449 O 833.057 -1.90925 -1.01866 0
M  V30 9450 C 833.652 -2.51813 2.26662 0
M  V30 9451 C 832.211 -3.05052 2.20499 0
M  V30 9452 C 831.358 -1.77987 2.12641 0
M  V30 9453 H 834.309 -0.614959 1.46301 0
M  V30 9454 H 834.33 -3.30228 1.89023 0
M  V30 9455 H 833.842 -2.10057 3.2634 0
M  V30 9456 H 831.943 -3.51285 1.24215 0
M  V30 9457 H 832.056 -3.63368 3.1225 0
M  V30 9458 H 830.42 -1.99342 1.5854 0
M  V30 9459 H 831.203 -1.38389 3.14171 0
M  V30 9460 N 833.648 -1.19017 -1.03309 0
M  V30 9461 C 834.873 -1.01598 -1.80811 0
M  V30 9462 C 835.298 0.430773 -1.83101 0
M  V30 9463 O 834.656 1.30946 -1.25391 0
M  V30 9464 C 834.704 -1.5845 -3.23923 0
M  V30 9465 O 833.808 -0.810972 -4.04348 0
M  V30 9466 H 833.149 -0.359398 -0.558327 0
M  V30 9467 H 835.679 -1.57945 -1.30055 0
M  V30 9468 H 835.689 -1.61486 -3.74682 0
M  V30 9469 H 834.364 -2.63752 -3.21571 0
M  V30 9470 H 832.941 -0.85353 -3.63 0
M  V30 9471 N 835.127 1.22348 -0.993418 0
M  V30 9472 C 836.037 2.27987 -0.553076 0
M  V30 9473 C 837.053 1.69378 0.398386 0
M  V30 9474 O 838.229 1.99648 0.26509 0
M  V30 9475 C 835.294 3.46475 0.124809 0
M  V30 9476 C 834.355 4.20399 -0.869682 0
M  V30 9477 C 833.588 5.33229 -0.224052 0
M  V30 9478 O 833.811 5.61885 0.981915 0
M  V30 9479 O 832.745 5.94685 -0.929174 0
M  V30 9480 H 836.571 2.67822 -1.43195 0
M  V30 9481 H 834.156 1.28525 -0.761694 0
M  V30 9482 H 836.038 4.18369 0.504496 0
M  V30 9483 H 834.713 3.08565 0.978243 0
M  V30 9484 H 833.62 3.50774 -1.30031 0
M  V30 9485 H 834.953 4.62191 -1.69233 0
M  V30 9486 N 836.605 0.766683 1.37694 0
M  V30 9487 C 838.016 0.394761 1.82479 0
M  V30 9488 C 838.367 -1.07842 1.63904 0
M  V30 9489 O 837.492 -1.83479 1.14737 0
M  V30 9490 C 838.087 0.70974 3.31283 0
M  V30 9491 C 836.646 0.390936 3.74364 0
M  V30 9492 C 835.793 0.956192 2.60293 0
M  V30 9493 H 838.744 0.961756 1.26238 0
M  V30 9494 H 838.765 -0.00742144 3.80499 0
M  V30 9495 H 838.277 1.782 3.4477 0
M  V30 9496 H 836.378 -0.674213 3.66449 0
M  V30 9497 H 836.491 0.895645 4.70654 0
M  V30 9498 H 834.855 0.380744 2.51838 0
M  V30 9499 H 835.638 2.03375 2.76575 0
M  V30 9500 N 838.083 -1.48885 0.516809 0
M  V30 9501 C 839.308 -2.0739 -0.0205201 0
M  V30 9502 C 839.733 -1.37259 -1.28614 0
M  V30 9503 O 839.091 -0.434304 -1.76021 0
M  V30 9504 C 839.139 -3.59793 -0.24104 0
M  V30 9505 O 838.243 -3.90957 -1.31251 0
M  V30 9506 H 837.584 -0.663167 0.0332564 0
M  V30 9507 H 840.114 -1.91477 0.720956 0
M  V30 9508 H 840.124 -4.0531 -0.467737 0
M  V30 9509 H 838.799 -4.10244 0.68356 0
M  V30 9510 H 837.376 -3.57234 -1.06951 0
M  V30 9511 N 839.561 -0.251338 -1.55583 0
M  V30 9512 C 840.786 0.379136 -2.03905 0
M  V30 9513 C 841.211 1.50428 -1.12929 0
M  V30 9514 O 840.569 1.80882 -0.123114 0
M  V30 9515 C 840.617 0.86009 -3.50193 0
M  V30 9516 O 839.721 1.96932 -3.62342 0
M  V30 9517 H 839.062 0.0820183 -0.658915 0
M  V30 9518 H 841.592 -0.378692 -2.01065 0
M  V30 9519 H 841.602 1.16214 -3.91099 0
M  V30 9520 H 840.277 0.0367559 -4.15884 0
M  V30 9521 H 838.854 1.67163 -3.33333 0
M  V30 9522 N 841.039 1.57585 0.0217189 0
M  V30 9523 C 842.45 1.7787 0.567377 0
M  V30 9524 C 842.801 0.883337 1.7519 0
M  V30 9525 O 841.926 0.0800819 2.16252 0
M  V30 9526 C 842.521 3.2257 1.03606 0
M  V30 9527 C 841.08 3.44026 1.52718 0
M  V30 9528 C 840.227 2.73313 0.468545 0
M  V30 9529 H 843.178 1.57377 -0.2045 0
M  V30 9530 H 843.199 3.29488 1.9031 0
M  V30 9531 H 842.711 3.87711 0.173739 0
M  V30 9532 H 840.812 2.8407 2.41111 0
M  V30 9533 H 840.925 4.52659 1.56962 0
M  V30 9534 H 839.289 2.37299 0.925263 0
M  V30 9535 H 840.072 3.41141 -0.384438 0
M  V30 9536 N 842.517 -0.29412 1.54831 0
M  V30 9537 C 843.449 -1.38476 1.82639 0
M  V30 9538 C 844.462 -1.46517 0.709694 0
M  V30 9539 O 845.651 -1.48712 0.987269 0
M  V30 9540 C 842.751 -2.76791 1.95551 0
M  V30 9541 C 841.924 -2.91599 3.26019 0
M  V30 9542 C 840.983 -4.10456 3.29261 0
M  V30 9543 O 840.009 -4.02214 4.02756 0
M  V30 9544 N 841.211 -5.21422 2.55145 0
M  V30 9545 H 843.976 -1.14974 2.76769 0
M  V30 9546 H 841.537 -0.484206 1.5449 0
M  V30 9547 H 843.529 -3.5456 1.95113 0
M  V30 9548 H 842.099 -2.93209 1.08384 0
M  V30 9549 H 841.319 -2.00886 3.39173 0
M  V30 9550 H 842.607 -2.98409 4.12104 0
M  V30 9551 H 842.005 -5.31 1.95078 0
M  V30 9552 H 840.562 -5.97501 2.60454 0
M  V30 9553 N 843.995 -1.47404 -0.557645 0
M  V30 9554 C 845.22 -1.57868 -1.34508 0
M  V30 9555 C 845.645 -0.229151 -1.86699 0
M  V30 9556 O 845.003 0.794908 -1.62944 0
M  V30 9557 C 845.051 -2.60712 -2.49122 0
M  V30 9558 O 844.155 -2.15952 -3.51338 0
M  V30 9559 H 843.496 -0.530335 -0.399551 0
M  V30 9560 H 846.026 -1.93181 -0.673954 0
M  V30 9561 H 846.036 -2.81118 -2.95697 0
M  V30 9562 H 844.711 -3.58701 -2.10491 0
M  V30 9563 H 843.288 -2.05644 -3.11071 0
M  V30 9564 N 845.473 0.80434 -1.35529 0
M  V30 9565 C 846.698 1.598 -1.32207 0
M  V30 9566 C 847.123 1.87848 0.0974226 0
M  V30 9567 O 846.481 1.46728 1.06492 0
M  V30 9568 C 846.529 2.90483 -2.13663 0
M  V30 9569 O 845.633 3.83411 -1.51888 0
M  V30 9570 H 844.974 0.485305 -0.453183 0
M  V30 9571 H 847.504 0.998119 -1.78602 0
M  V30 9572 H 847.514 3.39888 -2.257 0
M  V30 9573 H 846.189 2.69395 -3.16859 0
M  V30 9574 H 844.766 3.41967 -1.48704 0
M  V30 9575 N 846.951 1.19563 1.02676 0
M  V30 9576 C 848.179 1.02488 1.79732 0
M  V30 9577 C 848.594 -0.426302 1.83924 0
M  V30 9578 O 847.951 -1.29609 1.28483 0
M  V30 9579 C 848.002 1.58944 3.24683 0
M  V30 9580 O 847.723 2.98382 3.2078 0
M  V30 9581 C 849.224 1.46681 4.1833 0
M  V30 9582 H 846.444 0.361098 0.565552 0
M  V30 9583 H 848.988 1.58426 1.29311 0
M  V30 9584 H 847.143 1.0715 3.72287 0
M  V30 9585 H 847.557 3.24983 4.11687 0
M  V30 9586 H 849.031 1.90959 5.17918 0
M  V30 9587 H 849.508 0.417663 4.3721 0
M  V30 9588 H 850.114 1.97616 3.76601 0
M  V30 9589 N 848.429 -1.21819 0.999893 0
M  V30 9590 C 849.845 -1.42847 0.711824 0
M  V30 9591 C 850.045 -1.88391 -0.714928 0
M  V30 9592 O 849.101 -2.0422 -1.48494 0
M  V30 9593 C 850.414 -2.46417 1.72334 0
M  V30 9594 C 851.962 -2.60207 1.73958 0
M  V30 9595 C 852.437 -3.67005 2.73992 0
M  V30 9596 N 853.928 -3.7447 2.72628 0
M  V30 9597 C 854.663 -4.56718 3.46693 0
M  V30 9598 N 854.159 -5.42904 4.3038 0
M  V30 9599 N 855.952 -4.51094 3.35366 0
M  V30 9600 H 848.103 -0.905656 1.92124 0
M  V30 9601 H 850.366 -0.459893 0.828977 0
M  V30 9602 H 850.072 -2.19914 2.74465 0
M  V30 9603 H 849.946 -3.45137 1.52186 0
M  V30 9604 H 852.333 -2.8605 0.725217 0
M  V30 9605 H 852.414 -1.61739 1.98177 0
M  V30 9606 H 852.058 -3.41908 3.75582 0
M  V30 9607 H 851.988 -4.65058 2.4704 0
M  V30 9608 H 854.479 -3.12895 2.11909 0
M  V30 9609 H 854.792 -6.02704 4.83702 0
M  V30 9610 H 853.137 -5.42463 4.34464 0
M  V30 9611 H 856.328 -3.82791 2.69423 0
M  V30 9612 H 856.501 -5.1496 3.93344 0
M  V30 9613 N 849.908 -0.773975 -1.37286 0
M  V30 9614 C 851.136 -0.350758 -2.03905 0
M  V30 9615 C 851.551 1.02779 -1.58373 0
M  V30 9616 O 850.908 1.65646 -0.766009 0
M  V30 9617 C 850.959 -0.387335 -3.59419 0
M  V30 9618 O 850.68 -1.7115 -4.03286 0
M  V30 9619 C 852.181 0.047198 -4.43275 0
M  V30 9620 H 849.401 -0.146663 -0.654775 0
M  V30 9621 H 851.945 -1.04852 -1.75574 0
M  V30 9622 H 850.1 0.261865 -3.86514 0
M  V30 9623 H 850.514 -1.65166 -4.97816 0
M  V30 9624 H 851.988 -0.0295474 -5.51992 0
M  V30 9625 H 852.465 1.09786 -4.25257 0
M  V30 9626 H 853.071 -0.573899 -4.2141 0
M  V30 9627 N 851.386 1.48609 -0.524698 0
M  V30 9628 C 852.802 1.58557 -0.182199 0
M  V30 9629 C 853.002 1.52732 1.31435 0
M  V30 9630 O 852.058 1.41362 2.0922 0
M  V30 9631 C 853.371 2.90406 -0.78004 0
M  V30 9632 C 854.919 3.03924 -0.748293 0
M  V30 9633 C 855.394 4.38427 -1.32462 0
M  V30 9634 N 856.885 4.4498 -1.28635 0
M  V30 9635 C 857.62 5.47551 -1.70223 0
M  V30 9636 N 857.116 6.57103 -2.19515 0
M  V30 9637 N 858.909 5.38402 -1.61493 0
M  V30 9638 H 851.06 1.50638 -1.4974 0
M  V30 9639 H 853.323 0.714952 -0.622533 0
M  V30 9640 H 853.029 3.00308 -1.83052 0
M  V30 9641 H 852.903 3.76343 -0.254075 0
M  V30 9642 H 855.29 2.93638 0.293407 0
M  V30 9643 H 855.371 2.19611 -1.31167 0
M  V30 9644 H 855.015 4.49466 -2.36522 0
M  V30 9645 H 854.945 5.21418 -0.736967 0
M  V30 9646 H 857.436 3.66393 -0.92545 0
M  V30 9647 H 857.749 7.31499 -2.49257 0
M  V30 9648 H 856.094 6.58081 -2.23506 0
M  V30 9649 H 859.285 4.5171 -1.22785 0
M  V30 9650 H 859.458 6.18208 -1.94225 0
M  V30 9651 N 852.864 0.259585 1.55447 0
M  V30 9652 C 854.089 -0.368317 2.04103 0
M  V30 9653 C 854.514 -1.49827 1.13725 0
M  V30 9654 O 853.872 -1.80814 0.132705 0
M  V30 9655 C 853.92 -0.841506 3.50644 0
M  V30 9656 O 853.024 -1.95008 3.63381 0
M  V30 9657 H 852.365 -0.0785227 0.659341 0
M  V30 9658 H 854.895 0.389349 2.00861 0
M  V30 9659 H 854.905 -1.14138 3.9171 0
M  V30 9660 H 853.58 -0.0147001 4.15897 0
M  V30 9661 H 852.157 -1.65393 3.34215 0
M  V30 9662 N 854.342 -1.57594 -0.0133615 0
M  V30 9663 C 855.753 -1.78168 -0.557937 0
M  V30 9664 C 856.104 -0.892616 -1.74719 0
M  V30 9665 O 855.229 -0.0915491 -2.16206 0
M  V30 9666 C 855.824 -3.23115 -1.01894 0
M  V30 9667 C 854.383 -3.44831 -1.50892 0
M  V30 9668 C 853.53 -2.73558 -0.454044 0
M  V30 9669 H 856.481 -1.57266 0.212843 0
M  V30 9670 H 856.502 -3.30493 -1.8856 0
M  V30 9671 H 856.014 -3.87798 -0.153175 0
M  V30 9672 H 854.115 -2.85345 -2.39602 0
M  V30 9673 H 854.228 -4.53485 -1.54559 0
M  V30 9674 H 852.592 -2.37787 -0.912666 0
M  V30 9675 H 853.375 -3.40932 0.402524 0
M  V30 9676 N 855.82 0.285905 -1.54985 0
M  V30 9677 C 857.045 1.04207 -1.7932 0
M  V30 9678 C 857.47 1.79622 -0.558343 0
M  V30 9679 O 856.828 1.74506 0.491661 0
M  V30 9680 C 856.876 1.98648 -3.0095 0
M  V30 9681 O 855.98 3.07207 -2.75132 0
M  V30 9682 H 855.321 0.298596 -0.593074 0
M  V30 9683 H 857.851 0.318736 -2.02102 0
M  V30 9684 H 857.861 2.4084 -3.29333 0
M  V30 9685 H 856.536 1.43167 -3.90482 0
M  V30 9686 H 855.113 2.69423 -2.57809 0
M  V30 9687 N 857.298 1.47698 0.54982 0
M  V30 9688 C 858.709 1.48474 1.13191 0
M  V30 9689 C 859.06 0.243504 1.94683 0
M  V30 9690 O 858.185 -0.651009 2.06375 0
M  V30 9691 C 858.78 2.69022 2.05944 0
M  V30 9692 C 857.339 2.72733 2.5941 0
M  V30 9693 C 856.486 2.41691 1.35944 0
M  V30 9694 H 859.437 1.55101 0.336048 0
M  V30 9695 H 859.458 2.46412 2.89934 0
M  V30 9696 H 858.97 3.59345 1.46605 0
M  V30 9697 H 857.071 1.86568 3.22526 0
M  V30 9698 H 857.184 3.73628 2.99899 0
M  V30 9699 H 855.548 1.92428 1.66864 0
M  V30 9700 H 856.331 3.34231 0.783869 0
M  V30 9701 N 858.776 -0.797141 1.35954 0
M  V30 9702 C 860.053 -1.54224 1.2031 0
M  V30 9703 C 860.433 -2.10013 -0.213926 0
M  V30 9704 O 859.781 -1.93292 -1.21862 0
M  V30 9705 C 859.991 -2.6433 2.27883 0
M  V30 9706 C 861.339 -3.32418 2.64165 0
M  V30 9707 O 862.363 -2.74607 2.26868 0
M  V30 9708 O 861.222 -4.36876 3.28331 0
M  V30 9709 H 858.316 -0.681857 0.467974 0
M  V30 9710 H 860.862 -0.836288 1.47663 0
M  V30 9711 H 859.634 -2.21044 3.22885 0
M  V30 9712 H 859.257 -3.42551 2.01853 0
M  V30 9713 N 860.254 -1.20106 -1.0204 0
M  V30 9714 C 861.531 -0.918029 -1.72718 0
M  V30 9715 C 861.911 0.574163 -2.03142 0
M  V30 9716 O 861.259 1.53476 -1.69285 0
M  V30 9717 C 861.469 -1.78698 -2.9978 0
M  V30 9718 C 862.817 -2.02648 -3.7312 0
M  V30 9719 O 863.841 -1.75919 -3.09727 0
M  V30 9720 O 862.7 -2.47767 -4.87107 0
M  V30 9721 H 859.794 -0.342904 -0.752559 0
M  V30 9722 H 862.34 -1.30961 -1.07923 0
M  V30 9723 H 861.112 -2.79757 -2.7359 0
M  V30 9724 H 860.735 -1.39522 -3.72316 0
M  V30 9725 N 861.732 1.21287 -1.00634 0
M  V30 9726 C 862.981 1.89706 -0.685178 0
M  V30 9727 C 863.294 1.79044 0.787566 0
M  V30 9728 O 864.5 2.42502 1.22086 0
M  V30 9729 C 862.956 3.40176 -1.17508 0
M  V30 9730 C 862.564 3.59446 -2.674 0
M  V30 9731 C 864.308 4.14213 -0.928869 0
M  V30 9732 C 862.215 5.03688 -3.09923 0
M  V30 9733 H 861.145 0.710434 -0.252586 0
M  V30 9734 H 863.796 1.37277 -1.21768 0
M  V30 9735 H 862.178 3.91867 -0.570622 0
M  V30 9736 H 863.352 3.18188 -3.33306 0
M  V30 9737 H 861.667 2.98764 -2.9005 0
M  V30 9738 H 864.264 5.20546 -1.22212 0
M  V30 9739 H 864.607 4.16082 0.134859 0
M  V30 9740 H 865.14 3.68591 -1.49619 0
M  V30 9741 H 861.879 5.06968 -4.15529 0
M  V30 9742 H 861.399 5.45796 -2.4873 0
M  V30 9743 H 863.078 5.72204 -3.0198 0
M  V30 9744 N 863.21 0.781244 1.36873 0
M  V30 9745 C 864.14 0.188128 2.32741 0
M  V30 9746 C 865.121 -0.672326 1.56249 0
M  V30 9747 O 866.306 -0.607835 1.84442 0
M  V30 9748 C 863.436 -0.684341 3.40491 0
M  V30 9749 C 862.39 0.0755641 4.27933 0
M  V30 9750 C 861.716 -0.916968 5.26779 0
M  V30 9751 C 863.016 1.26006 5.06873 0
M  V30 9752 H 864.71 0.989016 2.82593 0
M  V30 9753 H 862.256 0.477038 1.35869 0
M  V30 9754 H 864.209 -1.10915 4.06541 0
M  V30 9755 H 862.933 -1.51785 2.89187 0
M  V30 9756 H 861.592 0.481258 3.63427 0
M  V30 9757 H 861.24 -1.74528 4.71751 0
M  V30 9758 H 860.94 -0.413 5.86147 0
M  V30 9759 H 862.464 -1.34052 5.95703 0
M  V30 9760 H 863.878 0.911425 5.66009 0
M  V30 9761 H 862.275 1.69676 5.75613 0
M  V30 9762 H 863.345 2.05948 4.38991 0
M  V30 9763 N 864.689 -1.48329 0.532571 0
M  V30 9764 C 865.599 -2.33445 -0.232546 0
M  V30 9765 C 866.615 -1.46651 -0.93645 0
M  V30 9766 O 867.791 -1.79627 -0.910834 0
M  V30 9767 C 864.856 -3.22824 -1.26434 0
M  V30 9768 C 863.917 -4.25492 -0.570511 0
M  V30 9769 C 863.15 -5.10601 -1.55315 0
M  V30 9770 O 863.373 -4.97733 -2.78599 0
M  V30 9771 O 862.307 -5.91927 -1.09112 0
M  V30 9772 H 866.133 -3.00119 0.464988 0
M  V30 9773 H 863.718 -1.46489 0.293462 0
M  V30 9774 H 865.6 -3.78103 -1.86055 0
M  V30 9775 H 864.275 -2.58807 -1.94424 0
M  V30 9776 H 863.182 -3.74041 0.0662587 0
M  V30 9777 H 864.515 -4.92154 0.0674904 0
M  V30 9778 N 866.167 -0.267825 -1.55308 0
M  V30 9779 C 867.583 0.0865107 -1.59365 0
M  V30 9780 C 867.783 1.55205 -1.28505 0
M  V30 9781 O 866.839 2.29978 -1.04241 0
M  V30 9782 C 868.152 -0.28155 -2.99379 0
M  V30 9783 C 869.7 -0.227565 -3.12172 0
M  V30 9784 C 870.175 -0.569959 -4.5444 0
M  V30 9785 N 871.666 -0.521238 -4.60258 0
M  V30 9786 C 872.401 -0.759061 -5.68354 0
M  V30 9787 N 871.897 -1.06112 -6.84626 0
M  V30 9788 N 873.69 -0.688351 -5.57869 0
M  V30 9789 H 865.841 -1.22332 -1.73633 0
M  V30 9790 H 868.104 -0.493703 -0.809297 0
M  V30 9791 H 867.81 -1.3005 -3.26772 0
M  V30 9792 H 867.684 0.381192 -3.75269 0
M  V30 9793 H 870.071 0.782093 -2.84548 0
M  V30 9794 H 870.152 -0.924461 -2.38511 0
M  V30 9795 H 869.796 -1.57727 -4.82788 0
M  V30 9796 H 869.726 0.148646 -5.2639 0
M  V30 9797 H 872.217 -0.297359 -3.76728 0
M  V30 9798 H 872.53 -1.22945 -7.62958 0
M  V30 9799 H 870.875 -1.09881 -6.86259 0
M  V30 9800 H 874.066 -0.452268 -4.6591 0
M  V30 9801 H 874.239 -0.877081 -6.42037 0
M  V30 9802 N 867.645 1.57599 0.00500368 0
M  V30 9803 C 868.891 1.90631 0.691919 0
M  V30 9804 C 869.224 0.868443 1.737 0
M  V30 9805 O 868.499 -0.113482 1.94169 0
M  V30 9806 C 868.782 3.34255 1.33961 0
M  V30 9807 C 868.635 4.48755 0.306413 0
M  V30 9808 C 869.954 3.77211 2.26715 0
M  V30 9809 H 867.073 0.693279 0.250066 0
M  V30 9810 H 869.715 1.89946 -0.0452634 0
M  V30 9811 H 867.865 3.3497 1.96793 0
M  V30 9812 H 869.537 4.60176 -0.321841 0
M  V30 9813 H 867.78 4.32203 -0.371852 0
M  V30 9814 H 868.451 5.46193 0.798554 0
M  V30 9815 H 870.927 3.78017 1.73904 0
M  V30 9816 H 869.803 4.78466 2.69002 0
M  V30 9817 H 870.064 3.10801 3.14413 0
M  V30 9818 N 869.123 -0.277682 1.55134 0
M  V30 9819 C 870.086 -1.32635 1.86924 0
M  V30 9820 C 871.086 -1.42578 0.743507 0
M  V30 9821 O 872.276 -1.4181 1.01171 0
M  V30 9822 C 869.408 -2.70832 2.07034 0
M  V30 9823 H 870.601 -1.0568 2.80663 0
M  V30 9824 H 868.154 -0.515517 1.47554 0
M  V30 9825 H 868.889 -3.02974 1.15661 0
M  V30 9826 H 868.674 -2.65001 2.88993 0
M  V30 9827 H 870.164 -3.46611 2.32918 0
M  V30 9828 N 870.601 -1.47988 -0.541979 0
M  V30 9829 C 871.564 -1.61148 -1.62984 0
M  V30 9830 C 872.564 -0.48553 -1.53295 0
M  V30 9831 O 873.754 -0.751012 -1.5718 0
M  V30 9832 C 870.886 -1.57038 -3.02576 0
M  V30 9833 H 872.079 -2.58138 -1.52659 0
M  V30 9834 H 869.632 -1.36405 -0.763106 0
M  V30 9835 H 870.367 -0.614807 -3.18419 0
M  V30 9836 H 870.152 -2.38769 -3.11018 0
M  V30 9837 H 871.642 -1.69416 -3.81691 0
M  V30 9838 N 872.079 0.78992 -1.36375 0
M  V30 9839 C 873.356 1.53584 -1.21126 0
M  V30 9840 C 873.736 2.10124 0.202785 0
M  V30 9841 O 873.084 1.93936 1.20835 0
M  V30 9842 C 873.294 2.63117 -2.29282 0
M  V30 9843 C 874.642 3.31013 -2.65924 0
M  V30 9844 O 875.666 2.734 -2.28321 0
M  V30 9845 O 874.525 4.35129 -3.30643 0
M  V30 9846 H 871.619 0.679366 -0.471583 0
M  V30 9847 H 874.165 0.828446 -1.48104 0
M  V30 9848 H 872.937 2.19329 -3.24053 0
M  V30 9849 H 872.56 3.41476 -2.03666 0
M  V30 9850 N 873.557 1.20646 1.01402 0
M  V30 9851 C 874.803 1.0197 1.753 0
M  V30 9852 C 875.136 -0.446803 1.8899 0
M  V30 9853 O 874.411 -1.33169 1.41762 0
M  V30 9854 C 874.694 1.70693 3.17074 0
M  V30 9855 C 874.547 3.24805 3.11162 0
M  V30 9856 C 875.866 1.44212 4.15802 0
M  V30 9857 H 872.985 0.371844 0.636318 0
M  V30 9858 H 875.627 1.48696 1.18277 0
M  V30 9859 H 873.777 1.30968 3.65759 0
M  V30 9860 H 875.449 3.73841 2.70261 0
M  V30 9861 H 873.692 3.55576 2.48492 0
M  V30 9862 H 874.363 3.68049 4.11393 0
M  V30 9863 H 876.839 1.7868 3.75783 0
M  V30 9864 H 875.715 1.94825 5.13161 0
M  V30 9865 H 875.976 0.370252 4.40547 0
M  V30 9866 N 875.035 -1.20752 1.01276 0
M  V30 9867 C 875.982 -2.234 0.579732 0
M  V30 9868 C 876.952 -1.61256 -0.398206 0
M  V30 9869 O 878.137 -1.8845 -0.29851 0
M  V30 9870 C 875.277 -3.45008 -0.0797006 0
M  V30 9871 C 874.39 -4.21597 0.942343 0
M  V30 9872 C 873.525 -5.30591 0.254364 0
M  V30 9873 C 872.564 -5.98919 1.26343 0
M  V30 9874 N 871.701 -6.99511 0.602384 0
M  V30 9875 H 876.541 -2.59801 1.45971 0
M  V30 9876 H 874.078 -1.27663 0.730787 0
M  V30 9877 H 876.036 -4.1444 -0.479125 0
M  V30 9878 H 874.666 -3.09312 -0.923354 0
M  V30 9879 H 873.718 -3.51268 1.45996 0
M  V30 9880 H 875.03 -4.68576 1.70992 0
M  V30 9881 H 874.184 -6.06368 -0.200763 0
M  V30 9882 H 872.923 -4.84639 -0.545553 0
M  V30 9883 H 871.928 -5.21906 1.72898 0
M  V30 9884 H 873.153 -6.46957 2.06456 0
M  V30 9885 H 871.099 -6.55759 -0.177734 0
M  V30 9886 H 871.016 -7.44597 1.30809 0
M  V30 9887 H 872.284 -7.79313 0.17072 0
M  V30 9888 N 876.513 -0.788492 -1.36457 0
M  V30 9889 C 877.423 -0.187385 -2.3385 0
M  V30 9890 C 878.439 0.659984 -1.60998 0
M  V30 9891 O 879.615 0.575986 -1.92988 0
M  V30 9892 C 876.68 0.668525 -3.40194 0
M  V30 9893 C 875.741 -0.197234 -4.28847 0
M  V30 9894 C 874.974 0.61792 -5.30111 0
M  V30 9895 O 875.197 1.85396 -5.3943 0
M  V30 9896 O 874.131 0.0183016 -6.01897 0
M  V30 9897 H 877.957 -0.992617 -2.87021 0
M  V30 9898 H 875.542 -0.549934 -1.3891 0
M  V30 9899 H 877.424 1.15663 -4.05216 0
M  V30 9900 H 876.099 1.45166 -2.89324 0
M  V30 9901 H 875.006 -0.73207 -3.66867 0
M  V30 9902 H 876.339 -0.943863 -4.83065 0
M  V30 9903 N 877.991 1.48044 -0.54043 0
M  V30 9904 C 879.221 2.06595 -0.0144943 0
M  V30 9905 C 879.629 1.39593 1.27713 0
M  V30 9906 O 878.972 0.480794 1.77297 0
M  V30 9907 C 879.034 3.5849 0.269316 0
M  V30 9908 C 878.698 4.47429 -0.930372 0
M  V30 9909 C 879.695 4.8657 -1.83155 0
M  V30 9910 C 877.38 4.89185 -1.14032 0
M  V30 9911 C 879.374 5.66246 -2.92649 0
M  V30 9912 C 877.061 5.6863 -2.23838 0
M  V30 9913 C 878.059 6.07069 -3.12979 0
M  V30 9914 O 877.747 6.84917 -4.20884 0
M  V30 9915 H 877.479 0.675086 -0.0351467 0
M  V30 9916 H 880.033 1.91275 -0.74853 0
M  V30 9917 H 878.263 3.71961 1.05745 0
M  V30 9918 H 879.952 3.99124 0.738595 0
M  V30 9919 H 880.718 4.54924 -1.68134 0
M  V30 9920 H 876.597 4.58742 -0.455717 0
M  V30 9921 H 880.141 5.96169 -3.62254 0
M  V30 9922 H 876.038 5.99688 -2.38839 0
M  V30 9923 H 876.806 7.03287 -4.18723 0
M  V30 9924 N 879.47 0.276058 1.55163 0
M  V30 9925 C 880.38 -0.621066 2.2623 0
M  V30 9926 C 881.396 -1.16931 1.28853 0
M  V30 9927 O 882.572 -1.1994 1.61791 0
M  V30 9928 C 879.637 -1.78824 2.97023 0
M  V30 9929 C 878.698 -1.27657 4.09881 0
M  V30 9930 C 877.931 -2.38812 4.77289 0
M  V30 9931 O 878.154 -3.58188 4.43912 0
M  V30 9932 O 877.088 -2.06915 5.65217 0
M  V30 9933 H 880.914 -0.0453346 3.03666 0
M  V30 9934 H 878.499 0.0434275 1.49337 0
M  V30 9935 H 880.381 -2.46877 3.41511 0
M  V30 9936 H 879.056 -2.35104 2.22503 0
M  V30 9937 H 877.963 -0.56248 3.69847 0
M  V30 9938 H 879.296 -0.759509 4.86305 0
M  V30 9939 N 880.948 -1.576 0.00335426 0
M  V30 9940 C 882.364 -1.55653 -0.352766 0
M  V30 9941 C 882.564 -1.00632 -1.74572 0
M  V30 9942 O 881.62 -0.641621 -2.44212 0
M  V30 9943 C 882.933 -2.99858 -0.224929 0
M  V30 9944 C 884.481 -3.11563 -0.299619 0
M  V30 9945 C 884.956 -4.57559 -0.200868 0
M  V30 9946 N 886.447 -4.62477 -0.258663 0
M  V30 9947 C 887.182 -5.73031 -0.205644 0
M  V30 9948 N 886.678 -6.92723 -0.103027 0
M  V30 9949 N 888.471 -5.61509 -0.257754 0
M  V30 9950 H 880.622 -1.91703 0.914539 0
M  V30 9951 H 882.885 -0.88068 0.350865 0
M  V30 9952 H 882.591 -3.43964 0.733595 0
M  V30 9953 H 882.465 -3.63547 -1.00564 0
M  V30 9954 H 884.852 -2.67384 -1.24859 0
M  V30 9955 H 884.933 -2.50644 0.511025 0
M  V30 9956 H 884.577 -5.02413 0.744572 0
M  V30 9957 H 884.507 -5.16428 -1.03004 0
M  V30 9958 H 886.998 -3.76375 -0.339168 0
M  V30 9959 H 887.311 -7.7277 -0.0685593 0
M  V30 9960 H 885.656 -6.94966 -0.0686069 0
M  V30 9961 H 888.847 -4.66892 -0.336142 0
M  V30 9962 H 889.02 -6.4765 -0.21297 0
M  V30 9963 N 882.426 0.269451 -1.5528 0
M  V30 9964 C 883.336 1.35511 -1.91505 0
M  V30 9965 C 884.352 1.53854 -0.812712 0
M  V30 9966 O 885.528 1.67912 -1.1121 0
M  V30 9967 C 882.593 2.6937 -2.18267 0
M  V30 9968 C 881.654 2.59743 -3.41807 0
M  V30 9969 C 880.887 3.87219 -3.67283 0
M  V30 9970 O 881.11 4.88066 -2.95208 0
M  V30 9971 O 880.044 3.87209 -4.60818 0
M  V30 9972 H 883.87 1.07785 -2.8393 0
M  V30 9973 H 881.455 0.468282 -1.41871 0
M  V30 9974 H 883.337 3.48513 -2.36889 0
M  V30 9975 H 882.012 2.96874 -1.29024 0
M  V30 9976 H 880.919 1.78964 -3.28516 0
M  V30 9977 H 882.252 2.37188 -4.3128 0
M  V30 9978 N 883.904 1.48273 0.534124 0
M  V30 9979 C 884.852 1.62926 1.66005 0
M  V30 9980 C 885.846 0.495814 1.61982 0
M  V30 9981 O 887.052 0.6744 1.66889 0
M  V30 9982 H 883.427 0.513163 0.549698 0
M  V30 9983 H 885.398 2.57498 1.50789 0
M  V30 9984 C 884.147 1.68231 3.04292 0
M  V30 9985 H 883.47 2.54807 3.0808 0
M  V30 9986 H 884.91 1.82528 3.827 0
M  V30 9987 C 883.369 0.420154 3.3427 0
M  V30 9988 O 883.899 -0.468769 3.98955 0
M  V30 9989 N 882.105 0.293115 2.89118 0
M  V30 9990 H 881.652 1.01745 2.36655 0
M  V30 9991 H 881.61 -0.550376 3.09545 0
M  V30 9992 N 885.382 -0.782676 1.36792 0
M  V30 9993 C 886.628 -1.54311 1.3159 0
M  V30 9994 C 886.961 -1.93928 -0.102696 0
M  V30 9995 O 886.236 -1.63233 -1.05761 0
M  V30 9996 C 886.519 -2.81561 2.24489 0
M  V30 9997 C 886.372 -2.48268 3.75078 0
M  V30 9998 C 887.691 -3.83428 2.16034 0
M  V30 9999 H 884.81 -0.559828 0.479335 0
M  V30 10000 H 887.452 -0.898717 1.67401 0
M  V30 10001 H 885.602 -3.36549 1.9408 0
M  V30 10002 H 887.274 -1.99279 4.16036 0
M  V30 10003 H 885.517 -1.81116 3.94182 0
M  V30 10004 H 886.188 -3.39183 4.35499 0
M  V30 10005 H 888.664 -3.37905 2.42815 0
M  V30 10006 H 887.54 -4.70204 2.83194 0
M  V30 10007 H 887.801 -4.26887 1.14976 0
M  V30 10008 N 886.86 -1.21182 -1.00761 0
M  V30 10009 C 888.137 -0.936297 -1.71735 0
M  V30 10010 C 888.517 0.552585 -2.03739 0
M  V30 10011 O 887.865 1.51672 -1.70903 0
M  V30 10012 C 888.075 -1.81867 -2.97868 0
M  V30 10013 C 889.423 -2.06594 -3.7095 0
M  V30 10014 O 890.447 -1.79194 -3.07844 0
M  V30 10015 O 889.306 -2.5292 -4.84452 0
M  V30 10016 H 886.4 -0.350867 -0.74888 0
M  V30 10017 H 888.946 -1.32098 -1.06527 0
M  V30 10018 H 887.718 -2.82643 -2.70607 0
M  V30 10019 H 887.341 -1.43463 -3.70815 0
M  V30 10020 N 888.338 1.20213 -1.01915 0
M  V30 10021 C 889.566 1.93622 -0.729255 0
M  V30 10022 C 889.981 1.74923 0.710444 0
M  V30 10023 O 889.338 1.06484 1.48214 0
M  V30 10024 C 889.389 3.45651 -1.05865 0
M  V30 10025 O 889.11 3.63741 -2.44181 0
M  V30 10026 C 890.611 4.36201 -0.790176 0
M  V30 10027 H 887.831 0.615333 -0.267594 0
M  V30 10028 H 890.375 1.52633 -1.36101 0
M  V30 10029 H 888.53 3.84511 -0.47225 0
M  V30 10030 H 888.944 4.57702 -2.56143 0
M  V30 10031 H 890.418 5.41516 -1.07071 0
M  V30 10032 H 890.895 4.38334 0.275609 0
M  V30 10033 H 891.501 4.03008 -1.35885 0
M  V30 10034 N 889.816 0.795718 1.36037 0
M  V30 10035 C 891.063 0.371024 1.99072 0
M  V30 10036 C 891.391 -1.05896 1.63145 0
M  V30 10037 O 890.646 -1.7474 0.881163 0
M  V30 10038 C 890.945 0.489038 3.54038 0
M  V30 10039 C 890.611 1.88075 4.09803 0
M  V30 10040 C 889.273 2.26152 4.24745 0
M  V30 10041 C 891.625 2.79174 4.40126 0
M  V30 10042 C 888.953 3.54718 4.67324 0
M  V30 10043 C 891.305 4.07175 4.8414 0
M  V30 10044 C 889.969 4.45266 4.97287 0
M  V30 10045 H 889.239 0.135767 0.728456 0
M  V30 10046 H 891.886 1.0144 1.62426 0
M  V30 10047 H 890.191 -0.237823 3.91078 0
M  V30 10048 H 891.888 0.141374 4.00751 0
M  V30 10049 H 888.478 1.57488 3.98617 0
M  V30 10050 H 892.662 2.51009 4.28145 0
M  V30 10051 H 887.918 3.84093 4.75691 0
M  V30 10052 H 892.092 4.77875 5.06565 0
M  V30 10053 H 889.719 5.44943 5.30038 0
M  V30 10054 N 891.294 -1.47756 0.548274 0
M  V30 10055 C 892.204 -2.33678 -0.207773 0
M  V30 10056 C 893.22 -1.47636 -0.920843 0
M  V30 10057 O 894.396 -1.80583 -0.89173 0
M  V30 10058 C 891.461 -3.24147 -1.23003 0
M  V30 10059 C 890.522 -4.26073 -0.52535 0
M  V30 10060 C 889.755 -5.12219 -1.4989 0
M  V30 10061 O 889.978 -5.0066 -2.73305 0
M  V30 10062 O 888.912 -5.93051 -1.02828 0
M  V30 10063 H 892.738 -2.99609 0.496794 0
M  V30 10064 H 890.323 -1.4617 0.308982 0
M  V30 10065 H 892.205 -3.80055 -1.82034 0
M  V30 10066 H 890.88 -2.60855 -1.91668 0
M  V30 10067 H 889.787 -3.7395 0.105927 0
M  V30 10068 H 891.12 -4.92054 0.119686 0
M  V30 10069 N 892.772 -0.284283 -1.55015 0
M  V30 10070 C 893.735 0.586182 -2.21577 0
M  V30 10071 C 894.735 1.07427 -1.1965 0
M  V30 10072 O 895.925 0.972977 -1.44495 0
M  V30 10073 C 893.057 1.80973 -2.88897 0
M  V30 10074 H 894.25 0.00487253 -2.999 0
M  V30 10075 H 891.803 -0.0349696 -1.56261 0
M  V30 10076 H 892.538 2.43131 -2.14611 0
M  V30 10077 H 892.323 1.46757 -3.636 0
M  V30 10078 H 893.813 2.42853 -3.39724 0
M  V30 10079 N 894.251 1.57596 -0.0117121 0
M  V30 10080 C 895.476 1.95764 0.684938 0
M  V30 10081 C 895.901 0.887285 1.65858 0
M  V30 10082 O 895.259 -0.153508 1.80649 0
M  V30 10083 C 895.307 3.33031 1.38285 0
M  V30 10084 O 894.411 3.28163 2.49765 0
M  V30 10085 H 893.752 0.638767 0.181309 0
M  V30 10086 H 896.282 2.04486 -0.0683883 0
M  V30 10087 H 896.292 3.68866 1.74362 0
M  V30 10088 H 894.967 4.10483 0.669043 0
M  V30 10089 H 893.544 3.04021 2.15929 0
M  V30 10090 N 895.729 -0.261212 1.5542 0
M  V30 10091 C 896.975 -0.992699 1.76843 0
M  V30 10092 C 897.308 -1.8551 0.574428 0
M  V30 10093 O 896.583 -1.89739 -0.427713 0
M  V30 10094 C 896.866 -1.86532 3.08022 0
M  V30 10095 C 896.719 -1.03206 4.378 0
M  V30 10096 C 898.038 -2.85036 3.35324 0
M  V30 10097 H 895.157 -0.359473 0.643388 0
M  V30 10098 H 897.799 -0.264214 1.88154 0
M  V30 10099 H 895.949 -2.48644 2.9851 0
M  V30 10100 H 897.621 -0.430743 4.59285 0
M  V30 10101 H 895.864 -0.335911 4.32497 0
M  V30 10102 H 896.535 -1.6761 5.25938 0
M  V30 10103 H 899.011 -2.3306 3.44706 0
M  V30 10104 H 897.887 -3.43226 4.28354 0
M  V30 10105 H 898.148 -3.60768 2.55537 0
M  V30 10106 N 897.207 -1.48554 -0.526253 0
M  V30 10107 C 898.154 -1.63354 -1.63046 0
M  V30 10108 C 899.124 -0.475509 -1.59148 0
M  V30 10109 O 900.309 -0.699453 -1.77517 0
M  V30 10110 C 897.449 -1.68271 -3.01295 0
M  V30 10111 C 896.562 -2.95207 -3.15399 0
M  V30 10112 C 895.697 -2.91262 -4.4423 0
M  V30 10113 C 894.736 -4.12886 -4.51876 0
M  V30 10114 N 893.873 -4.06996 -5.721 0
M  V30 10115 H 898.713 -2.57649 -1.49737 0
M  V30 10116 H 896.25 -1.27769 -0.728938 0
M  V30 10117 H 898.208 -1.69104 -3.81392 0
M  V30 10118 H 896.838 -0.774641 -3.13367 0
M  V30 10119 H 895.89 -3.04102 -2.2853 0
M  V30 10120 H 897.202 -3.85187 -3.1691 0
M  V30 10121 H 896.356 -2.90516 -5.32621 0
M  V30 10122 H 895.095 -1.99016 -4.45246 0
M  V30 10123 H 894.1 -4.13902 -3.61891 0
M  V30 10124 H 895.325 -5.06294 -4.52596 0
M  V30 10125 H 893.271 -3.17573 -5.74006 0
M  V30 10126 H 893.188 -4.90685 -5.75121 0
M  V30 10127 H 894.456 -4.10315 -6.62768 0
M  V30 10128 N 898.685 0.775411 -1.37205 0
M  V30 10129 C 899.648 1.8702 -1.325 0
M  V30 10130 C 900.648 1.5915 -0.229793 0
M  V30 10131 O 901.838 1.673 -0.485423 0
M  V30 10132 C 898.97 3.24085 -1.05745 0
M  V30 10133 H 900.163 1.92604 -2.29878 0
M  V30 10134 H 897.716 0.97476 -1.22181 0
M  V30 10135 H 898.451 3.24178 -0.0888371 0
M  V30 10136 H 898.236 3.45705 -1.85016 0
M  V30 10137 H 899.726 4.0416 -1.05094 0
M  V30 10138 N 900.163 1.21714 1.00117 0
M  V30 10139 C 901.11 0.979837 2.08968 0
M  V30 10140 C 902.08 -0.0955324 1.65825 0
M  V30 10141 O 903.265 0.0523742 1.90728 0
M  V30 10142 C 900.405 0.554758 3.40612 0
M  V30 10143 C 899.518 1.69999 3.97145 0
M  V30 10144 C 898.653 1.2237 5.16913 0
M  V30 10145 C 897.692 2.34101 5.65564 0
M  V30 10146 N 896.829 1.87579 6.76579 0
M  V30 10147 H 901.669 1.91167 2.28602 0
M  V30 10148 H 899.206 0.952645 1.12085 0
M  V30 10149 H 901.164 0.289526 4.16194 0
M  V30 10150 H 899.794 -0.340073 3.21004 0
M  V30 10151 H 898.846 2.07976 3.18512 0
M  V30 10152 H 900.158 2.54074 4.29241 0
M  V30 10153 H 899.312 0.915358 5.99755 0
M  V30 10154 H 898.051 0.353045 4.8642 0
M  V30 10155 H 897.056 2.65734 4.81316 0
M  V30 10156 H 898.281 3.21669 5.98085 0
M  V30 10157 H 896.227 1.02863 6.47885 0
M  V30 10158 H 896.144 2.65225 7.07949 0
M  V30 10159 H 897.412 1.5979 7.62947 0
M  V30 10160 N 901.641 -1.19671 1.02551 0
M  V30 10161 C 902.591 -2.20655 0.574037 0
M  V30 10162 C 903.575 -1.56459 -0.375412 0
M  V30 10163 O 904.767 -1.75901 -0.196929 0
M  V30 10164 C 901.896 -3.43213 -0.0772031 0
M  V30 10165 C 900.982 -4.1456 0.894485 0
M  V30 10166 N 901.373 -4.62147 2.05557 0
M  V30 10167 C 899.671 -4.40196 0.717205 0
M  V30 10168 C 900.372 -5.16899 2.66814 0
M  V30 10169 N 899.348 -5.07496 1.94804 0
M  V30 10170 H 903.15 -2.55124 1.45908 0
M  V30 10171 H 900.664 -1.35707 0.89204 0
M  V30 10172 H 902.661 -4.14797 -0.41824 0
M  V30 10173 H 901.321 -3.10247 -0.957973 0
M  V30 10174 H 902.332 -4.5708 2.43513 0
M  V30 10175 H 899.009 -4.17342 -0.114758 0
M  V30 10176 H 900.399 -5.64032 3.65126 0
M  V30 10177 N 903.119 -0.802921 -1.35613 0
M  V30 10178 C 904.067 -0.198783 -2.31749 0
M  V30 10179 C 905.061 0.649416 -1.56458 0
M  V30 10180 O 906.267 0.542989 -1.71615 0
M  V30 10181 H 902.642 -0.0455177 -0.750621 0
M  V30 10182 H 904.613 -1.02479 -2.80251 0
M  V30 10183 C 903.362 0.641066 -3.41739 0
M  V30 10184 H 902.685 -0.00226244 -3.998 0
M  V30 10185 H 904.125 1.03022 -4.11294 0
M  V30 10186 C 902.584 1.80505 -2.84464 0
M  V30 10187 O 903.114 2.90235 -2.77717 0
M  V30 10188 N 901.32 1.61542 -2.41563 0
M  V30 10189 H 900.867 0.722863 -2.4725 0
M  V30 10190 H 900.825 2.39581 -2.03589 0
M  V30 10191 N 904.597 1.47463 -0.556102 0
M  V30 10192 C 905.527 2.32801 0.180497 0
M  V30 10193 C 906.508 1.43721 0.909848 0
M  V30 10194 O 907.693 1.72578 0.89053 0
M  V30 10195 C 904.823 3.25478 1.21167 0
M  V30 10196 C 903.777 4.2379 0.598846 0
M  V30 10197 C 903.103 5.05783 1.73457 0
M  V30 10198 C 904.403 5.20387 -0.446659 0
M  V30 10199 H 906.097 2.94636 -0.531956 0
M  V30 10200 H 903.643 1.41683 -0.257267 0
M  V30 10201 H 905.596 3.8402 1.73513 0
M  V30 10202 H 904.32 2.61695 1.95405 0
M  V30 10203 H 902.979 3.66472 0.0966897 0
M  V30 10204 H 902.627 4.38405 2.46596 0
M  V30 10205 H 902.327 5.72343 1.33031 0
M  V30 10206 H 903.851 5.67183 2.26131 0
M  V30 10207 H 905.265 5.73299 -0.00930019 0
M  V30 10208 H 903.662 5.95143 -0.769735 0
M  V30 10209 H 904.732 4.65932 -1.34295 0
M  V30 10210 N 906.075 0.2925 1.54862 0
M  V30 10211 C 907.008 -0.629155 2.19356 0
M  V30 10212 C 907.986 -1.13927 1.16014 0
M  V30 10213 O 909.17 -1.20904 1.44618 0
M  V30 10214 C 906.297 -1.8599 2.83064 0
M  V30 10215 C 905.343 -1.48376 3.99859 0
M  V30 10216 S 906.176 -0.546976 5.32699 0
M  V30 10217 C 907.332 -1.7857 5.99886 0
M  V30 10218 H 907.565 -0.0812166 2.97189 0
M  V30 10219 H 905.098 0.0766721 1.5421 0
M  V30 10220 H 907.056 -2.56623 3.20398 0
M  V30 10221 H 905.717 -2.37899 2.05092 0
M  V30 10222 H 904.91 -2.40002 4.43187 0
M  V30 10223 H 904.512 -0.857447 3.64038 0
M  V30 10224 H 906.804 -2.7274 6.20177 0
M  V30 10225 H 907.747 -1.39513 6.9422 0
M  V30 10226 H 908.155 -1.95856 5.29434 0
M  V30 10227 N 907.553 -1.57587 0.0200696 0
M  V30 10228 C 908.781 -1.95718 -0.670964 0
M  V30 10229 C 909.196 -0.896081 -1.6618 0
M  V30 10230 O 908.553 0.123037 -1.82085 0
M  V30 10231 C 908.604 -3.33904 -1.38529 0
M  V30 10232 O 908.325 -4.35943 -0.434167 0
M  V30 10233 C 909.826 -3.86614 -2.16898 0
M  V30 10234 H 907.046 -0.644819 -0.185606 0
M  V30 10235 H 909.59 -2.04354 0.0771495 0
M  V30 10236 H 907.745 -3.26515 -2.08487 0
M  V30 10237 H 908.159 -5.16001 -0.940378 0
M  V30 10238 H 909.633 -4.85673 -2.62346 0
M  V30 10239 H 910.11 -3.20379 -3.00423 0
M  V30 10240 H 910.716 -3.97243 -1.51916 0
M  V30 10241 N 909.032 0.252966 -1.55557 0
M  V30 10242 C 910.278 0.983306 -1.77367 0
M  V30 10243 C 910.611 1.85203 -0.584258 0
M  V30 10244 O 909.886 1.89963 0.417644 0
M  V30 10245 C 910.169 1.84896 -3.09007 0
M  V30 10246 C 910.022 1.00883 -4.38341 0
M  V30 10247 C 911.341 2.83254 -3.36831 0
M  V30 10248 H 908.46 0.356056 -0.645286 0
M  V30 10249 H 911.102 0.254232 -1.88291 0
M  V30 10250 H 909.252 2.47058 -2.99825 0
M  V30 10251 H 910.924 0.40638 -4.59507 0
M  V30 10252 H 909.167 0.31297 -4.3267 0
M  V30 10253 H 909.838 1.64818 -5.2682 0
M  V30 10254 H 912.314 2.31228 -3.45937 0
M  V30 10255 H 911.19 3.40949 -4.30169 0
M  V30 10256 H 911.451 3.59407 -2.57447 0
M  V30 10257 N 910.51 1.48831 0.518367 0
M  V30 10258 C 911.42 1.6692 1.64848 0
M  V30 10259 C 912.436 0.551711 1.65022 0
M  V30 10260 O 913.612 0.824251 1.83761 0
M  V30 10261 C 910.677 1.71559 3.01278 0
M  V30 10262 C 909.738 2.9502 3.11868 0
M  V30 10263 C 908.971 2.99428 4.4179 0
M  V30 10264 O 909.194 2.11914 5.29574 0
M  V30 10265 O 908.128 3.91719 4.5699 0
M  V30 10266 H 911.954 2.62623 1.52521 0
M  V30 10267 H 909.539 1.32368 0.692749 0
M  V30 10268 H 911.421 1.77064 3.82396 0
M  V30 10269 H 910.096 0.790316 3.13904 0
M  V30 10270 H 909.003 2.95042 2.30003 0
M  V30 10271 H 910.336 3.8697 3.04163 0
M  V30 10272 N 911.988 -0.768124 1.37614 0
M  V30 10273 C 912.92 -1.89076 1.29548 0
M  V30 10274 C 913.933 -1.61433 0.21056 0
M  V30 10275 O 915.122 -1.72283 0.466992 0
M  V30 10276 C 912.222 -3.24388 0.981102 0
M  V30 10277 C 911.395 -3.79649 2.17222 0
M  V30 10278 C 910.454 -4.93444 1.82754 0
M  V30 10279 O 909.48 -5.0884 2.5509 0
M  V30 10280 N 910.682 -5.75319 0.773819 0
M  V30 10281 H 913.447 -1.9651 2.26283 0
M  V30 10282 H 911.008 -0.947399 1.31286 0
M  V30 10283 H 913 -3.98038 0.731301 0
M  V30 10284 H 911.57 -3.12433 0.102203 0
M  V30 10285 H 910.79 -2.97735 2.58355 0
M  V30 10286 H 912.078 -4.13302 2.96748 0
M  V30 10287 H 911.476 -5.65433 0.173644 0
M  V30 10288 H 910.033 -6.4918 0.583882 0
M  V30 10289 N 913.466 -1.22244 -0.994698 0
M  V30 10290 C 914.414 -0.988118 -2.10568 0
M  V30 10291 C 915.408 0.0681541 -1.69263 0
M  V30 10292 O 916.614 -0.0841311 -1.79803 0
M  V30 10293 H 912.989 -0.302343 -0.688544 0
M  V30 10294 H 914.96 -1.93091 -2.27505 0
M  V30 10295 C 913.709 -0.580557 -3.42819 0
M  V30 10296 H 913.032 -1.385 -3.75044 0
M  V30 10297 H 914.472 -0.456004 -4.21541 0
M  V30 10298 C 912.931 0.709692 -3.2934 0
M  V30 10299 O 913.461 1.76259 -3.60965 0
M  V30 10300 N 911.667 0.680155 -2.82528 0
M  V30 10301 H 911.214 -0.176977 -2.56991 0
M  V30 10302 H 911.172 1.54372 -2.73892 0
M  V30 10303 N 914.944 1.19125 -1.03184 0
M  V30 10304 C 915.892 2.24492 -0.608781 0
M  V30 10305 C 916.886 1.65529 0.360065 0
M  V30 10306 O 918.092 1.78546 0.22832 0
M  V30 10307 H 914.467 0.73048 -0.178616 0
M  V30 10308 H 916.438 2.5749 -1.50803 0
M  V30 10309 C 915.187 3.47693 0.0215126 0
M  V30 10310 H 914.51 3.93354 -0.715024 0
M  V30 10311 H 915.95 4.23072 0.280429 0
M  V30 10312 C 914.409 3.12088 1.26896 0
M  V30 10313 O 914.939 3.25013 2.36071 0
M  V30 10314 N 913.145 2.66494 1.15886 0
M  V30 10315 H 912.692 2.56176 0.270463 0
M  V30 10316 H 912.65 2.43042 1.99444 0
M  V30 10317 N 916.422 0.810101 1.35185 0
M  V30 10318 C 917.67 0.391343 1.98275 0
M  V30 10319 C 917.991 -1.04592 1.64577 0
M  V30 10320 O 917.261 -1.72417 0.93001 0
M  V30 10321 H 915.841 0.141715 0.733434 0
M  V30 10322 H 918.503 1.03672 1.6504 0
M  V30 10323 H 917.599 0.49991 3.0807 0
M  V30 10324 N 917.9 -1.47166 0.563914 0
M  V30 10325 C 919.125 -2.0735 0.0454698 0
M  V30 10326 C 919.55 -1.41281 -1.24182 0
M  V30 10327 O 918.908 -0.490084 -1.7455 0
M  V30 10328 C 918.956 -3.60378 -0.126453 0
M  V30 10329 O 918.06 -3.94934 -1.18746 0
M  V30 10330 H 917.401 -0.661773 0.0543377 0
M  V30 10331 H 919.931 -1.89086 0.781508 0
M  V30 10332 H 919.941 -4.06593 -0.338554 0
M  V30 10333 H 918.616 -4.07862 0.81373 0
M  V30 10334 H 917.193 -3.60455 -0.955318 0
M  V30 10335 N 919.378 -0.300708 -1.54705 0
M  V30 10336 C 920.603 0.314073 -2.05008 0
M  V30 10337 C 921.028 1.46759 -1.17657 0
M  V30 10338 O 920.386 1.80398 -0.180598 0
M  V30 10339 C 920.434 0.748243 -3.52752 0
M  V30 10340 O 919.538 1.85305 -3.68424 0
M  V30 10341 H 918.879 0.0610139 -0.661191 0
M  V30 10342 H 921.409 -0.442467 -1.99758 0
M  V30 10343 H 921.419 1.03713 -3.94598 0
M  V30 10344 H 920.094 -0.095573 -4.1579 0
M  V30 10345 H 918.671 1.56473 -3.38483 0
M  V30 10346 N 920.856 1.57574 -0.0284266 0
M  V30 10347 C 921.788 2.07079 0.982391 0
M  V30 10348 C 922.801 0.994078 1.28926 0
M  V30 10349 O 923.99 1.27028 1.25404 0
M  V30 10350 C 921.09 2.47978 2.30998 0
M  V30 10351 C 920.263 3.7872 2.18838 0
M  V30 10352 C 919.322 4.06177 3.34524 0
M  V30 10353 O 918.348 4.76438 3.11441 0
M  V30 10354 N 919.55 3.56297 4.58293 0
M  V30 10355 H 922.315 2.94421 0.560011 0
M  V30 10356 H 919.876 1.61124 0.158347 0
M  V30 10357 H 921.868 2.63439 3.07216 0
M  V30 10358 H 920.438 1.66005 2.64879 0
M  V30 10359 H 919.658 3.73062 1.27351 0
M  V30 10360 H 920.946 4.6438 2.07915 0
M  V30 10361 H 920.344 2.99453 4.79942 0
M  V30 10362 H 918.901 3.77038 5.31682 0
M  V30 10363 N 922.334 -0.244713 1.55689 0
M  V30 10364 C 923.281 -1.30301 1.905 0
M  V30 10365 C 924.251 -1.4772 0.759478 0
M  V30 10366 O 925.436 -1.61667 1.01333 0
M  V30 10367 C 922.576 -2.653 2.20703 0
M  V30 10368 C 921.689 -2.55872 3.48071 0
M  V30 10369 C 920.824 -3.83238 3.67834 0
M  V30 10370 C 919.863 -3.68436 4.88796 0
M  V30 10371 N 919 -4.877 5.05068 0
M  V30 10372 H 923.84 -0.999143 2.80751 0
M  V30 10373 H 921.377 -0.482099 1.38976 0
M  V30 10374 H 923.335 -3.43884 2.36219 0
M  V30 10375 H 921.965 -2.93831 1.33653 0
M  V30 10376 H 921.017 -1.68846 3.40874 0
M  V30 10377 H 922.329 -2.40845 4.36801 0
M  V30 10378 H 921.483 -4.70266 3.83321 0
M  V30 10379 H 920.222 -4.01165 2.77341 0
M  V30 10380 H 919.227 -2.79793 4.73282 0
M  V30 10381 H 920.452 -3.52003 5.8075 0
M  V30 10382 H 918.398 -5.05983 4.17513 0
M  V30 10383 H 918.315 -4.75312 5.8789 0
M  V30 10384 H 919.583 -5.76219 5.24969 0
M  V30 10385 N 923.813 -1.49104 -0.510467 0
M  V30 10386 C 924.76 -1.65074 -1.61305 0
M  V30 10387 C 925.73 -0.492362 -1.58635 0
M  V30 10388 O 926.915 -0.718241 -1.76765 0
M  V30 10389 C 924.055 -1.71457 -2.99493 0
M  V30 10390 C 923.168 -2.98536 -3.12251 0
M  V30 10391 C 922.303 -2.95957 -4.41116 0
M  V30 10392 C 921.342 -4.17655 -4.47471 0
M  V30 10393 N 920.479 -4.13041 -5.67751 0
M  V30 10394 H 925.319 -2.59222 -1.46996 0
M  V30 10395 H 922.856 -1.28535 -0.715346 0
M  V30 10396 H 924.814 -1.7314 -3.79577 0
M  V30 10397 H 923.444 -0.807834 -3.12528 0
M  V30 10398 H 922.496 -3.06509 -2.25292 0
M  V30 10399 H 923.808 -3.88527 -3.12807 0
M  V30 10400 H 922.962 -2.96149 -5.2951 0
M  V30 10401 H 921.701 -2.03728 -4.4311 0
M  V30 10402 H 920.706 -4.17717 -3.57481 0
M  V30 10403 H 921.931 -5.11066 -4.472 0
M  V30 10404 H 919.877 -3.23643 -5.70606 0
M  V30 10405 H 919.794 -4.96757 -5.69884 0
M  V30 10406 H 921.062 -4.17322 -6.58379 0
M  V30 10407 N 925.291 0.760815 -1.38019 0
M  V30 10408 C 926.221 1.88811 -1.37377 0
M  V30 10409 C 927.202 1.68388 -0.240737 0
M  V30 10410 O 928.387 1.89086 -0.442739 0
M  V30 10411 C 925.517 3.26244 -1.1909 0
M  V30 10412 C 924.471 3.61254 -2.29521 0
M  V30 10413 C 923.797 4.97346 -1.96345 0
M  V30 10414 C 925.097 3.66874 -3.71753 0
M  V30 10415 H 926.791 1.89606 -2.31711 0
M  V30 10416 H 924.337 0.910818 -1.11535 0
M  V30 10417 H 926.29 4.04755 -1.17267 0
M  V30 10418 H 925.014 3.2591 -0.212152 0
M  V30 10419 H 923.673 2.85057 -2.30517 0
M  V30 10420 H 923.321 4.93564 -0.969728 0
M  V30 10421 H 923.021 5.21739 -2.703 0
M  V30 10422 H 924.545 5.78244 -1.96129 0
M  V30 10423 H 925.959 4.35514 -3.72828 0
M  V30 10424 H 924.356 4.02772 -4.44853 0
M  V30 10425 H 925.426 2.67273 -4.0459 0
M  V30 10426 N 926.769 1.22769 0.988202 0
M  V30 10427 C 927.699 1.02627 2.09738 0
M  V30 10428 C 928.68 -0.0543211 1.70013 0
M  V30 10429 O 929.865 0.108811 1.93895 0
M  V30 10430 C 926.995 0.608302 3.41931 0
M  V30 10431 C 925.949 1.63536 3.95525 0
M  V30 10432 C 925.275 1.07308 5.23822 0
M  V30 10433 C 926.575 3.02649 4.25677 0
M  V30 10434 H 928.269 1.954 2.26847 0
M  V30 10435 H 925.815 0.940888 1.09011 0
M  V30 10436 H 927.768 0.454478 4.18942 0
M  V30 10437 H 926.492 -0.355095 3.24664 0
M  V30 10438 H 925.151 1.77704 3.20651 0
M  V30 10439 H 924.799 0.100894 5.02899 0
M  V30 10440 H 924.499 1.75925 5.60646 0
M  V30 10441 H 926.023 0.930938 6.03462 0
M  V30 10442 H 927.437 2.91828 4.93467 0
M  V30 10443 H 925.834 3.68434 4.73684 0
M  V30 10444 H 926.904 3.52228 3.33262 0
M  V30 10445 N 928.247 -1.18576 1.03814 0
M  V30 10446 C 929.21 -2.2033 0.63146 0
M  V30 10447 C 930.21 -1.57787 -0.309816 0
M  V30 10448 O 931.4 -1.73938 -0.0955598 0
M  V30 10449 C 928.532 -3.40818 -0.0745963 0
M  V30 10450 H 929.725 -2.57824 1.53189 0
M  V30 10451 H 927.278 -1.32416 0.830398 0
M  V30 10452 H 928.013 -3.08853 -0.988947 0
M  V30 10453 H 927.798 -3.87453 0.6019 0
M  V30 10454 H 929.288 -4.16166 -0.345727 0
M  V30 10455 N 929.725 -0.817259 -1.34754 0
M  V30 10456 C 931.136 -0.462215 -1.80888 0
M  V30 10457 C 931.487 1.01685 -1.67794 0
M  V30 10458 O 930.612 1.79094 -1.21468 0
M  V30 10459 C 931.207 -0.832204 -3.2842 0
M  V30 10460 C 929.766 -0.52961 -3.72655 0
M  V30 10461 C 928.913 -1.05214 -2.56564 0
M  V30 10462 H 931.864 -1.00795 -1.22581 0
M  V30 10463 H 931.885 -0.133804 -3.80265 0
M  V30 10464 H 931.397 -1.90873 -3.37919 0
M  V30 10465 H 929.498 0.537743 -3.68699 0
M  V30 10466 H 929.611 -1.06971 -4.67005 0
M  V30 10467 H 927.975 -0.473949 -2.50251 0
M  V30 10468 H 928.758 -2.135 -2.68836 0
M  V30 10469 N 931.203 1.46865 -0.571711 0
M  V30 10470 C 932.48 1.95596 0.0132445 0
M  V30 10471 C 932.86 1.51438 1.47071 0
M  V30 10472 O 932.208 0.759917 2.15494 0
M  V30 10473 C 932.418 3.48689 -0.147335 0
M  V30 10474 C 933.766 4.24599 -0.00946329 0
M  V30 10475 O 934.79 3.5612 -0.0756112 0
M  V30 10476 O 933.649 5.46332 0.135361 0
M  V30 10477 H 930.743 0.825102 0.0560039 0
M  V30 10478 H 933.289 1.57199 -0.639256 0
M  V30 10479 H 932.061 3.73681 -1.16096 0
M  V30 10480 H 931.684 3.93887 0.542109 0
M  V30 10481 N 932.681 0.308908 1.54543 0
M  V30 10482 C 933.614 -0.605854 2.20011 0
M  V30 10483 C 934.592 -1.1269 1.17216 0
M  V30 10484 O 935.776 -1.19363 1.45893 0
M  V30 10485 C 932.903 -1.82977 2.85021 0
M  V30 10486 C 931.949 -1.44126 4.0141 0
M  V30 10487 S 932.782 -0.490445 5.33249 0
M  V30 10488 C 933.938 -1.72198 6.01746 0
M  V30 10489 H 934.171 -0.0496911 2.97258 0
M  V30 10490 H 931.704 0.0930238 1.5412 0
M  V30 10491 H 933.662 -2.53211 3.23102 0
M  V30 10492 H 932.323 -2.35711 2.07604 0
M  V30 10493 H 931.516 -2.35288 4.45708 0
M  V30 10494 H 931.118 -0.818788 3.64927 0
M  V30 10495 H 933.41 -2.66147 6.23034 0
M  V30 10496 H 934.353 -1.32142 6.95661 0
M  V30 10497 H 934.761 -1.90229 5.31482 0
M  V30 10498 N 934.159 -1.57557 0.0367827 0
M  V30 10499 C 935.406 -1.92114 -0.640185 0
M  V30 10500 C 935.734 -0.913887 -1.71693 0
M  V30 10501 O 934.989 0.0760343 -1.95552 0
M  V30 10502 C 935.288 -3.33387 -1.28794 0
M  V30 10503 C 934.954 -4.4961 -0.340819 0
M  V30 10504 C 933.616 -4.81133 -0.0801574 0
M  V30 10505 C 935.968 -5.20283 0.309106 0
M  V30 10506 C 933.296 -5.80683 0.838107 0
M  V30 10507 C 935.648 -6.20813 1.21547 0
M  V30 10508 C 934.312 -6.50773 1.48495 0
M  V30 10509 H 933.582 -0.702996 -0.23426 0
M  V30 10510 H 936.229 -1.91238 0.100188 0
M  V30 10511 H 934.534 -3.30561 -2.10324 0
M  V30 10512 H 936.231 -3.57399 -1.81843 0
M  V30 10513 H 932.821 -4.25002 -0.554161 0
M  V30 10514 H 937.005 -4.96153 0.120794 0
M  V30 10515 H 932.261 -6.02238 1.05451 0
M  V30 10516 H 936.435 -6.74692 1.72522 0
M  V30 10517 H 934.062 -7.27727 2.19814 0
M  V30 10518 N 935.637 0.236453 -1.55816 0
M  V30 10519 C 936.865 0.980295 -1.82203 0
M  V30 10520 C 937.28 1.7854 -0.613926 0
M  V30 10521 O 936.637 1.77661 0.417491 0
M  V30 10522 C 936.688 1.90982 -3.06933 0
M  V30 10523 O 936.409 1.13728 -4.23081 0
M  V30 10524 C 937.91 2.76879 -3.46198 0
M  V30 10525 H 935.13 0.28799 -0.606055 0
M  V30 10526 H 937.674 0.256182 -2.02889 0
M  V30 10527 H 935.829 2.58808 -2.88266 0
M  V30 10528 H 936.243 1.76694 -4.93842 0
M  V30 10529 H 937.717 3.37831 -4.36548 0
M  V30 10530 H 938.194 3.48522 -2.67262 0
M  V30 10531 H 938.8 2.1449 -3.67252 0
M  V30 10532 N 937.115 1.49373 0.502552 0
M  V30 10533 C 938.025 1.68659 1.63068 0
M  V30 10534 C 939.041 0.569182 1.64427 0
M  V30 10535 O 940.217 0.843695 1.82876 0
M  V30 10536 C 937.282 1.74745 2.99441 0
M  V30 10537 C 936.343 2.98311 3.08721 0
M  V30 10538 C 935.576 3.04097 4.38589 0
M  V30 10539 O 935.799 2.17519 5.27297 0
M  V30 10540 O 934.733 3.96544 4.52809 0
M  V30 10541 H 938.559 2.64226 1.49727 0
M  V30 10542 H 936.144 1.33096 0.67867 0
M  V30 10543 H 938.026 1.8111 3.80496 0
M  V30 10544 H 936.701 0.823565 3.13048 0
M  V30 10545 H 935.608 2.97465 2.2686 0
M  V30 10546 H 936.941 3.90174 3.00041 0
M  V30 10547 N 938.594 -0.753485 1.38421 0
M  V30 10548 C 939.819 -1.54783 1.38047 0
M  V30 10549 C 940.244 -1.8808 -0.0276371 0
M  V30 10550 O 939.602 -1.5058 -1.00973 0
M  V30 10551 C 939.65 -2.82353 2.24297 0
M  V30 10552 O 938.754 -3.77509 1.66014 0
M  V30 10553 H 938.095 -0.468151 0.470883 0
M  V30 10554 H 940.625 -0.931144 1.82184 0
M  V30 10555 H 940.635 -3.31277 2.38159 0
M  V30 10556 H 939.31 -2.57449 3.26639 0
M  V30 10557 H 937.887 -3.36212 1.61294 0
M  V30 10558 N 940.072 -1.23292 -0.981677 0
M  V30 10559 C 941.349 -0.972514 -1.6971 0
M  V30 10560 C 941.729 0.509244 -2.04866 0
M  V30 10561 O 941.077 1.48013 -1.74082 0
M  V30 10562 C 941.287 -1.88144 -2.93943 0
M  V30 10563 C 942.635 -2.14416 -3.66485 0
M  V30 10564 O 943.659 -1.85684 -3.03974 0
M  V30 10565 O 942.518 -2.63139 -4.78978 0
M  V30 10566 H 939.612 -0.366673 -0.741269 0
M  V30 10567 H 942.158 -1.34328 -1.03701 0
M  V30 10568 H 940.93 -2.8832 -2.64551 0
M  V30 10569 H 940.553 -1.51296 -3.67689 0
M  V30 10570 N 941.55 1.18024 -1.04442 0
M  V30 10571 C 942.827 1.8398 -0.664125 0
M  V30 10572 C 943.207 1.92961 0.856116 0
M  V30 10573 O 942.555 1.45839 1.75907 0
M  V30 10574 C 942.765 3.22069 -1.34433 0
M  V30 10575 C 944.113 3.98063 -1.47754 0
M  V30 10576 O 945.137 3.31523 -1.30274 0
M  V30 10577 O 943.996 5.17291 -1.76272 0
M  V30 10578 H 941.09 0.793543 -0.23285 0
M  V30 10579 H 943.636 1.25385 -1.14354 0
M  V30 10580 H 942.408 3.10458 -2.38184 0
M  V30 10581 H 942.031 3.88325 -0.853782 0
M  V30 10582 N 943.028 0.824394 1.34319 0
M  V30 10583 C 943.961 0.192544 2.27386 0
M  V30 10584 C 944.939 -0.651901 1.4896 0
M  V30 10585 O 946.123 -0.615321 1.78174 0
M  V30 10586 C 943.25 -0.730958 3.30718 0
M  V30 10587 C 942.296 0.0361484 4.26485 0
M  V30 10588 S 943.129 1.3843 5.17298 0
M  V30 10589 C 944.285 0.465713 6.24165 0
M  V30 10590 H 944.518 0.981573 2.80629 0
M  V30 10591 H 942.051 0.620371 1.41389 0
M  V30 10592 H 944.009 -1.25822 3.90742 0
M  V30 10593 H 942.67 -1.49352 2.7632 0
M  V30 10594 H 941.863 -0.665969 4.99581 0
M  V30 10595 H 941.465 0.494011 3.70723 0
M  V30 10596 H 943.757 -0.342157 6.76635 0
M  V30 10597 H 944.7 1.16639 6.98427 0
M  V30 10598 H 945.108 0.0534895 5.64475 0
M  V30 10599 N 944.506 -1.46559 0.579492 0
M  V30 10600 C 945.753 -2.02399 0.0638418 0
M  V30 10601 C 946.081 -1.45135 -1.29484 0
M  V30 10602 O 945.336 -0.605061 -1.86112 0
M  V30 10603 C 945.635 -3.57357 -0.0552803 0
M  V30 10604 C 945.301 -4.33646 1.23539 0
M  V30 10605 C 943.963 -4.54207 1.589 0
M  V30 10606 C 946.315 -4.77476 2.08965 0
M  V30 10607 C 943.643 -5.1585 2.79492 0
M  V30 10608 C 945.995 -5.4045 3.2878 0
M  V30 10609 C 944.659 -5.5924 3.64427 0
M  V30 10610 H 943.929 -0.740632 0.0233614 0
M  V30 10611 H 946.576 -1.75968 0.755482 0
M  V30 10612 H 944.881 -3.82907 -0.83003 0
M  V30 10613 H 946.578 -3.98237 -0.469964 0
M  V30 10614 H 943.168 -4.17937 0.9501 0
M  V30 10615 H 947.352 -4.61349 1.8295 0
M  V30 10616 H 942.608 -5.28589 3.07252 0
M  V30 10617 H 946.782 -5.73371 3.95245 0
M  V30 10618 H 944.409 -6.06775 4.57961 0
M  V30 10619 N 945.984 -0.3171 -1.54377 0
M  V30 10620 C 946.947 0.53905 -2.22771 0
M  V30 10621 C 947.947 1.04865 -1.21901 0
M  V30 10622 O 949.137 0.942108 -1.46526 0
M  V30 10623 C 946.269 1.74804 -2.92671 0
M  V30 10624 H 947.462 -0.0587417 -2.99842 0
M  V30 10625 H 945.015 -0.068107 -1.56152 0
M  V30 10626 H 945.75 2.38524 -2.1972 0
M  V30 10627 H 945.535 1.39011 -3.66631 0
M  V30 10628 H 947.025 2.35592 -3.44799 0
M  V30 10629 N 947.462 1.57535 -0.0451378 0
M  V30 10630 C 948.425 2.1008 0.916461 0
M  V30 10631 C 949.425 1.01913 1.2438 0
M  V30 10632 O 950.615 1.2801 1.18148 0
M  V30 10633 C 947.747 2.58001 2.22818 0
M  V30 10634 H 948.94 2.96334 0.461076 0
M  V30 10635 H 946.493 1.54974 0.203169 0
M  V30 10636 H 947.228 1.75123 2.72951 0
M  V30 10637 H 947.013 3.3704 2.00366 0
M  V30 10638 H 948.503 2.98822 2.9171 0
M  V30 10639 N 948.94 -0.228186 1.55939 0
M  V30 10640 C 950.17 -0.969211 1.82455 0
M  V30 10641 C 950.578 -1.78714 0.621133 0
M  V30 10642 O 949.921 -1.78841 -0.419694 0
M  V30 10643 C 949.983 -1.94088 3.02605 0
M  V30 10644 C 949.647 -1.30811 4.37878 0
M  V30 10645 C 950.644 -0.701275 5.15149 0
M  V30 10646 C 948.329 -1.32187 4.84595 0
M  V30 10647 C 950.323 -0.116631 6.37293 0
M  V30 10648 C 948.01 -0.733375 6.06683 0
M  V30 10649 C 949.008 -0.131804 6.82873 0
M  V30 10650 O 948.696 0.447549 8.02653 0
M  V30 10651 H 948.428 -0.289951 0.610659 0
M  V30 10652 H 950.982 -0.250576 2.03866 0
M  V30 10653 H 949.212 -2.69833 2.76996 0
M  V30 10654 H 950.901 -2.5469 3.1605 0
M  V30 10655 H 951.667 -0.683022 4.80166 0
M  V30 10656 H 947.546 -1.77949 4.25271 0
M  V30 10657 H 951.09 0.353539 6.96704 0
M  V30 10658 H 946.987 -0.749019 6.4114 0
M  V30 10659 H 947.755 0.341224 8.17788 0
M  V30 10660 N 950.418 -1.49637 -0.494624 0
M  V30 10661 C 951.665 -1.59445 -1.24834 0
M  V30 10662 C 951.993 -0.284028 -1.92415 0
M  V30 10663 O 951.248 0.728519 -1.81634 0
M  V30 10664 C 951.547 -2.70749 -2.33302 0
M  V30 10665 C 951.213 -4.12034 -1.83135 0
M  V30 10666 C 949.875 -4.50482 -1.69173 0
M  V30 10667 C 952.227 -5.00432 -1.4566 0
M  V30 10668 C 949.555 -5.75093 -1.16124 0
M  V30 10669 C 951.907 -6.25568 -0.940608 0
M  V30 10670 C 950.571 -6.62839 -0.787432 0
M  V30 10671 H 949.841 -0.583451 -0.456799 0
M  V30 10672 H 952.488 -1.8349 -0.548044 0
M  V30 10673 H 950.793 -2.407 -3.09145 0
M  V30 10674 H 952.49 -2.75546 -2.91334 0
M  V30 10675 H 949.08 -3.8169 -1.94964 0
M  V30 10676 H 953.264 -4.71379 -1.55291 0
M  V30 10677 H 948.52 -6.02665 -1.02982 0
M  V30 10678 H 952.694 -6.93439 -0.641467 0
M  V30 10679 H 950.321 -7.59279 -0.374191 0
M  V30 10680 N 951.896 0.746133 -1.38819 0
M  V30 10681 C 953.173 1.49652 -1.25951 0
M  V30 10682 C 953.553 2.10663 0.135833 0
M  V30 10683 O 952.901 1.97682 1.14604 0
M  V30 10684 C 953.111 2.5569 -2.37537 0
M  V30 10685 C 954.459 3.22385 -2.76321 0
M  V30 10686 O 955.483 2.65998 -2.36904 0
M  V30 10687 O 954.342 4.2439 -3.44319 0
M  V30 10688 H 951.436 0.664019 -0.492958 0
M  V30 10689 H 953.982 0.780908 -1.50665 0
M  V30 10690 H 952.754 2.08908 -3.30867 0
M  V30 10691 H 952.377 3.34823 -2.14427 0
M  V30 10692 N 953.375 1.23811 0.975125 0
M  V30 10693 C 954.6 1.10109 1.75757 0
M  V30 10694 C 955.025 -0.342922 1.84948 0
M  V30 10695 O 954.383 -1.24814 1.31496 0
M  V30 10696 C 954.431 1.73724 3.15994 0
M  V30 10697 O 953.535 1.00297 4.00018 0
M  V30 10698 H 952.876 0.385627 0.540544 0
M  V30 10699 H 955.406 1.63971 1.22372 0
M  V30 10700 H 955.416 1.79178 3.6655 0
M  V30 10701 H 954.091 2.78794 3.0862 0
M  V30 10702 H 952.668 1.02575 3.58515 0
M  V30 10703 N 954.853 -1.17469 1.05066 0
M  V30 10704 C 955.816 -2.19648 0.654793 0
M  V30 10705 C 956.816 -1.58107 -0.293063 0
M  V30 10706 O 958.006 -1.74029 -0.077106 0
M  V30 10707 C 955.138 -3.40878 -0.0384437 0
M  V30 10708 H 956.331 -2.56184 1.55915 0
M  V30 10709 H 953.884 -1.31528 0.844396 0
M  V30 10710 H 954.619 -3.09885 -0.956133 0
M  V30 10711 H 954.404 -3.86792 0.642961 0
M  V30 10712 H 955.894 -4.1651 -0.301568 0
M  V30 10713 N 956.331 -0.831506 -1.3388 0
M  V30 10714 C 957.747 -0.518349 -1.50948 0
M  V30 10715 C 957.947 0.955807 -1.77388 0
M  V30 10716 O 957.003 1.73993 -1.82983 0
M  V30 10717 C 958.316 -1.38531 -2.66889 0
M  V30 10718 C 959.864 -1.38332 -2.80772 0
M  V30 10719 C 960.339 -2.23497 -3.99766 0
M  V30 10720 N 961.83 -2.21167 -4.06988 0
M  V30 10721 C 962.565 -2.83805 -4.98239 0
M  V30 10722 N 962.061 -3.55468 -5.94655 0
M  V30 10723 N 963.854 -2.73314 -4.91178 0
M  V30 10724 H 956.005 -1.78588 -1.14978 0
M  V30 10725 H 958.268 -0.761508 -0.564633 0
M  V30 10726 H 957.974 -2.43255 -2.54007 0
M  V30 10727 H 957.848 -1.05611 -3.62114 0
M  V30 10728 H 960.235 -0.343832 -2.9309 0
M  V30 10729 H 960.316 -1.75256 -1.86331 0
M  V30 10730 H 959.96 -3.27501 -3.88208 0
M  V30 10731 H 959.89 -1.83919 -4.93438 0
M  V30 10732 H 962.381 -1.69046 -3.37982 0
M  V30 10733 H 962.694 -4.00487 -6.60931 0
M  V30 10734 H 961.039 -3.59575 -5.94753 0
M  V30 10735 H 964.23 -2.16897 -4.14817 0
M  V30 10736 H 964.403 -3.22416 -5.62096 0
M  V30 10737 N 957.809 1.4625 -0.587256 0
M  V30 10738 C 958.739 2.33132 0.131076 0
M  V30 10739 C 959.72 1.45619 0.879158 0
M  V30 10740 O 960.905 1.74428 0.853723 0
M  V30 10741 C 958.035 3.27975 1.14236 0
M  V30 10742 C 956.989 4.24965 0.508819 0
M  V30 10743 C 956.315 5.09349 1.62689 0
M  V30 10744 C 957.615 5.19322 -0.55694 0
M  V30 10745 H 959.309 2.93442 -0.594333 0
M  V30 10746 H 956.855 1.41106 -0.287263 0
M  V30 10747 H 958.808 3.87614 1.65328 0
M  V30 10748 H 957.532 2.65781 1.8981 0
M  V30 10749 H 956.191 3.66595 0.0189337 0
M  V30 10750 H 955.839 4.43537 2.37242 0
M  V30 10751 H 955.539 5.75036 1.20861 0
M  V30 10752 H 957.063 5.71852 2.14049 0
M  V30 10753 H 958.477 5.73151 -0.130903 0
M  V30 10754 H 956.874 5.93376 -0.895801 0
M  V30 10755 H 957.944 4.62979 -1.44148 0
M  V30 10756 N 959.287 0.325282 1.54207 0
M  V30 10757 C 960.703 -0.0273036 1.59577 0
M  V30 10758 C 960.903 -1.50329 1.34177 0
M  V30 10759 O 959.959 -2.25951 1.12705 0
M  V30 10760 C 961.272 0.392468 2.98128 0
M  V30 10761 C 962.82 0.343269 3.11112 0
M  V30 10762 C 963.295 0.738229 4.52011 0
M  V30 10763 N 964.786 0.691701 4.58006 0
M  V30 10764 C 965.521 0.969479 5.65145 0
M  V30 10765 N 965.017 1.31448 6.80216 0
M  V30 10766 N 966.81 0.894926 5.5493 0
M  V30 10767 H 958.961 1.28692 1.68974 0
M  V30 10768 H 961.224 0.523399 0.790416 0
M  V30 10769 H 960.93 1.42089 3.2172 0
M  V30 10770 H 960.804 -0.241651 3.76425 0
M  V30 10771 H 963.191 -0.675946 2.87254 0
M  V30 10772 H 963.272 1.01235 2.34915 0
M  V30 10773 H 962.916 1.75537 4.76602 0
M  V30 10774 H 962.846 0.0468226 5.26579 0
M  V30 10775 H 965.337 0.436975 3.75365 0
M  V30 10776 H 965.65 1.51177 7.57869 0
M  V30 10777 H 963.995 1.35276 6.81708 0
M  V30 10778 H 967.186 0.624876 4.6391 0
M  V30 10779 H 967.359 1.11476 6.38339 0
M  V30 10780 N 960.765 -1.57509 0.0534917 0
M  V30 10781 C 961.728 -2.10563 -0.905307 0
M  V30 10782 C 962.728 -1.02571 -1.23838 0
M  V30 10783 O 963.918 -1.28635 -1.17468 0
M  V30 10784 C 961.05 -2.5918 -2.21447 0
M  V30 10785 H 962.243 -2.96575 -0.445354 0
M  V30 10786 H 959.796 -1.55079 -0.194947 0
M  V30 10787 H 960.531 -1.76568 -2.72019 0
M  V30 10788 H 960.316 -3.38098 -1.98575 0
M  V30 10789 H 961.806 -3.00365 -2.90122 0
M  V30 10790 N 962.243 0.219913 -1.56058 0
M  V30 10791 C 963.206 1.25606 -1.91718 0
M  V30 10792 C 964.206 1.39721 -0.795912 0
M  V30 10793 O 965.396 1.37958 -1.06364 0
M  V30 10794 C 962.528 2.62961 -2.16943 0
M  V30 10795 H 963.721 0.951909 -2.84392 0
M  V30 10796 H 961.274 0.460398 -1.49365 0
M  V30 10797 H 962.009 2.98472 -1.26826 0
M  V30 10798 H 961.794 2.54093 -2.98629 0
M  V30 10799 H 963.284 3.37727 -2.45622 0
M  V30 10800 N 963.721 1.49897 0.486681 0
M  V30 10801 C 964.969 1.59789 1.23742 0
M  V30 10802 C 965.29 0.293056 1.92785 0
M  V30 10803 O 964.56 -0.688534 1.83401 0
M  V30 10804 H 963.14 0.588775 0.459731 0
M  V30 10805 H 965.802 1.86597 0.562808 0
M  V30 10806 H 964.898 2.40121 1.9937 0
M  V30 10807 N 965.199 -0.738761 1.39212 0
M  V30 10808 C 966.448 -1.49368 1.35543 0
M  V30 10809 C 966.761 -1.95543 -0.0471091 0
M  V30 10810 O 967.967 -2.70714 -0.206376 0
M  V30 10811 C 966.423 -2.69882 2.381 0
M  V30 10812 C 966.031 -2.30672 3.8405 0
M  V30 10813 C 967.775 -3.47718 2.435 0
M  V30 10814 C 965.682 -3.47886 4.78256 0
M  V30 10815 H 964.612 -0.560898 0.503894 0
M  V30 10816 H 967.263 -0.806221 1.6484 0
M  V30 10817 H 965.645 -3.40684 2.01867 0
M  V30 10818 H 966.819 -1.67441 4.29302 0
M  V30 10819 H 965.134 -1.65936 3.81909 0
M  V30 10820 H 967.731 -4.34897 3.11077 0
M  V30 10821 H 968.074 -3.89919 1.45838 0
M  V30 10822 H 968.607 -2.83942 2.78606 0
M  V30 10823 H 965.346 -3.10739 5.77167 0
M  V30 10824 H 964.866 -4.10111 4.37686 0
M  V30 10825 H 966.545 -4.14271 4.96979 0
M  V30 10826 N 966.677 -1.24326 -0.968545 0
M  V30 10827 C 967.925 -1.08032 -1.70803 0
M  V30 10828 C 968.246 0.381728 -1.91227 0
M  V30 10829 O 967.516 1.27253 -1.48942 0
M  V30 10830 H 966.096 -0.396777 -0.632912 0
M  V30 10831 H 968.758 -1.56232 -1.16523 0
M  V30 10832 H 967.854 -1.57769 -2.69287 0
M  V30 10833 N 968.156 1.1691 -1.05688 0
M  V30 10834 C 969.103 2.21095 -0.662246 0
M  V30 10835 C 970.073 1.62623 0.338083 0
M  V30 10836 O 971.258 1.89428 0.228362 0
M  V30 10837 C 968.398 3.45066 -0.0484018 0
M  V30 10838 C 967.511 4.17809 -1.09817 0
M  V30 10839 C 966.646 5.29281 -0.451114 0
M  V30 10840 C 965.685 5.93817 -1.48484 0
M  V30 10841 N 964.822 6.96793 -0.861588 0
M  V30 10842 H 969.662 2.54204 -1.55513 0
M  V30 10843 H 967.199 1.24863 -0.777665 0
M  V30 10844 H 969.157 4.15932 0.324978 0
M  V30 10845 H 967.787 3.12526 0.807918 0
M  V30 10846 H 966.839 3.45608 -1.58932 0
M  V30 10847 H 968.151 4.61907 -1.88265 0
M  V30 10848 H 967.305 6.06695 -0.0244251 0
M  V30 10849 H 966.044 4.8633 0.365306 0
M  V30 10850 H 965.049 5.1513 -1.92149 0
M  V30 10851 H 966.274 6.38848 -2.30325 0
M  V30 10852 H 964.22 6.55967 -0.0657688 0
M  V30 10853 H 964.137 7.39229 -1.58354 0
M  V30 10854 H 965.405 7.78142 -0.45984 0
M  V30 10855 N 969.634 0.838594 1.33437 0
M  V30 10856 C 970.911 0.356112 1.92331 0
M  V30 10857 C 971.291 -1.1585 1.76471 0
M  V30 10858 O 970.639 -1.97281 1.15293 0
M  V30 10859 C 970.849 0.802715 3.39643 0
M  V30 10860 C 972.197 0.810575 4.16791 0
M  V30 10861 O 973.221 0.746304 3.48294 0
M  V30 10862 O 972.08 0.898082 5.3907 0
M  V30 10863 H 969.174 0.100711 0.820845 0
M  V30 10864 H 971.72 0.924428 1.42311 0
M  V30 10865 H 970.492 1.84529 3.45057 0
M  V30 10866 H 970.115 0.210956 3.9704 0
M  V30 10867 N 971.112 -1.45937 0.595003 0
M  V30 10868 C 972.359 -2.0232 0.0853053 0
M  V30 10869 C 972.687 -1.465 -1.27937 0
M  V30 10870 O 971.942 -0.624767 -1.85459 0
M  V30 10871 C 972.241 -3.57396 -0.0173747 0
M  V30 10872 C 971.907 -4.32311 1.28131 0
M  V30 10873 C 970.569 -4.52496 1.63708 0
M  V30 10874 C 972.921 -4.75233 2.14017 0
M  V30 10875 C 970.249 -5.12857 2.84947 0
M  V30 10876 C 972.601 -5.36933 3.34493 0
M  V30 10877 C 971.265 -5.55343 3.70338 0
M  V30 10878 H 970.535 -0.740342 0.0312154 0
M  V30 10879 H 973.182 -1.75157 0.774103 0
M  V30 10880 H 971.487 -3.83766 -0.789371 0
M  V30 10881 H 973.184 -3.98713 -0.427699 0
M  V30 10882 H 969.774 -4.16905 0.994374 0
M  V30 10883 H 973.958 -4.59383 1.87833 0
M  V30 10884 H 969.214 -5.253 3.12841 0
M  V30 10885 H 973.388 -5.69147 4.01304 0
M  V30 10886 H 971.015 -6.01883 4.64371 0
M  V30 10887 N 972.59 -0.333456 -1.54032 0
M  V30 10888 C 973.537 0.527981 -2.2468 0
M  V30 10889 C 974.507 1.10371 -1.24127 0
M  V30 10890 O 975.692 1.14221 -1.52834 0
M  V30 10891 C 972.832 1.67808 -3.01553 0
M  V30 10892 C 971.945 1.13064 -4.16942 0
M  V30 10893 C 971.08 2.24722 -4.81325 0
M  V30 10894 C 970.119 1.67277 -5.88799 0
M  V30 10895 N 969.256 2.72638 -6.47003 0
M  V30 10896 H 974.096 -0.0810308 -2.9789 0
M  V30 10897 H 971.633 -0.051761 -1.47009 0
M  V30 10898 H 973.591 2.35502 -3.44376 0
M  V30 10899 H 972.221 2.25823 -2.30659 0
M  V30 10900 H 971.273 0.344948 -3.78833 0
M  V30 10901 H 972.585 0.670373 -4.94275 0
M  V30 10902 H 971.739 3.00301 -5.27166 0
M  V30 10903 H 970.478 2.74089 -4.03394 0
M  V30 10904 H 969.483 0.902002 -5.4235 0
M  V30 10905 H 970.708 1.18775 -6.68632 0
M  V30 10906 H 968.654 3.21277 -5.71941 0
M  V30 10907 H 968.571 2.31204 -7.19778 0
M  V30 10908 H 969.839 3.48015 -6.97499 0
M  V30 10909 N 974.068 1.57479 -0.061844 0
M  V30 10910 C 974.978 2.15645 0.923826 0
M  V30 10911 C 975.994 1.117 1.33413 0
M  V30 10912 O 977.17 1.4392 1.40887 0
M  V30 10913 C 974.235 2.69857 2.17665 0
M  V30 10914 C 973.296 3.88638 1.8237 0
M  V30 10915 C 972.529 4.40256 3.01679 0
M  V30 10916 O 972.752 3.90908 4.15388 0
M  V30 10917 O 971.686 5.31713 2.82073 0
M  V30 10918 H 975.512 3.0021 0.459094 0
M  V30 10919 H 973.097 1.48534 0.160665 0
M  V30 10920 H 974.979 3.04647 2.9115 0
M  V30 10921 H 973.654 1.88357 2.63255 0
M  V30 10922 H 972.561 3.58719 1.06167 0
M  V30 10923 H 973.894 4.71401 1.4157 0
M  V30 10924 N 975.546 -0.211634 1.56173 0
M  V30 10925 C 976.494 -1.28188 1.94089 0
M  V30 10926 C 977.488 -1.47999 0.824167 0
M  V30 10927 O 978.694 -1.49056 1.00907 0
M  V30 10928 H 975.069 -0.42999 0.616938 0
M  V30 10929 H 977.04 -0.934962 2.83374 0
M  V30 10930 C 975.789 -2.62294 2.28248 0
M  V30 10931 H 975.112 -2.4786 3.13696 0
M  V30 10932 H 976.552 -3.35967 2.58655 0
M  V30 10933 C 975.011 -3.18049 1.11113 0
M  V30 10934 O 975.541 -3.99923 0.377458 0
M  V30 10935 N 973.747 -2.76561 0.892321 0
M  V30 10936 H 973.294 -2.10088 1.49067 0
M  V30 10937 H 973.252 -3.14206 0.110344 0
M  V30 10938 N 977.024 -1.50153 -0.478725 0
M  V30 10939 C 978.435 -1.53706 -1.05978 0
M  V30 10940 C 978.786 -0.336112 -1.933 0
M  V30 10941 O 977.911 0.551803 -2.09246 0
M  V30 10942 C 978.506 -2.78541 -1.92874 0
M  V30 10943 C 977.065 -2.848 -2.46102 0
M  V30 10944 C 976.212 -2.47902 -1.24257 0
M  V30 10945 H 979.163 -1.56528 -0.261664 0
M  V30 10946 H 979.184 -2.59964 -2.77847 0
M  V30 10947 H 978.696 -3.6593 -1.29293 0
M  V30 10948 H 976.797 -2.01744 -3.13257 0
M  V30 10949 H 976.91 -3.87511 -2.81731 0
M  V30 10950 H 975.274 -2.0017 -1.57493 0
M  V30 10951 H 976.057 -3.3759 -0.62351 0
M  V30 10952 N 978.502 0.731368 -1.39602 0
M  V30 10953 C 979.45 1.86676 -1.38761 0
M  V30 10954 C 980.444 1.6723 -0.270247 0
M  V30 10955 O 981.65 1.74528 -0.440471 0
M  V30 10956 H 978.025 0.614553 -0.433391 0
M  V30 10957 H 979.996 1.84501 -2.34525 0
M  V30 10958 C 978.745 3.24394 -1.25155 0
M  V30 10959 H 978.068 3.39955 -2.10406 0
M  V30 10960 H 979.508 4.04019 -1.28625 0
M  V30 10961 C 977.967 3.36877 0.0396976 0
M  V30 10962 O 978.497 3.88833 1.00854 0
M  V30 10963 N 976.703 2.90414 0.103965 0
M  V30 10964 H 976.25 2.48321 -0.685155 0
M  V30 10965 H 976.208 2.99146 0.967435 0
M  V30 10966 N 979.98 1.24838 0.961938 0
M  V30 10967 C 980.91 1.07053 2.07514 0
M  V30 10968 C 981.891 -0.0182465 1.7009 0
M  V30 10969 O 983.076 0.149915 1.9362 0
M  V30 10970 C 980.206 0.680693 3.40564 0
M  V30 10971 C 979.16 1.71889 3.91967 0
M  V30 10972 C 978.486 1.18395 5.21428 0
M  V30 10973 C 979.786 3.1161 4.19161 0
M  V30 10974 H 981.48 2.00167 2.22651 0
M  V30 10975 H 979.026 0.963799 1.0699 0
M  V30 10976 H 980.979 0.54324 4.17884 0
M  V30 10977 H 979.703 -0.28615 3.25344 0
M  V30 10978 H 978.362 1.84465 3.16809 0
M  V30 10979 H 978.01 0.207543 5.02572 0
M  V30 10980 H 977.71 1.87778 5.56788 0
M  V30 10981 H 979.234 1.05873 6.01351 0
M  V30 10982 H 980.648 3.0223 4.87165 0
M  V30 10983 H 979.045 3.78398 4.65763 0
M  V30 10984 H 980.115 3.59218 3.25715 0
M  V30 10985 N 981.458 -1.16348 1.06306 0
M  V30 10986 C 982.874 -1.38873 0.786543 0
M  V30 10987 C 983.074 -1.91915 -0.614061 0
M  V30 10988 O 982.13 -2.11804 -1.3746 0
M  V30 10989 C 983.443 -2.36936 1.85154 0
M  V30 10990 C 984.991 -2.5062 1.87506 0
M  V30 10991 C 985.466 -3.51965 2.9306 0
M  V30 10992 N 986.957 -3.59492 2.92095 0
M  V30 10993 C 987.692 -4.37699 3.70415 0
M  V30 10994 N 987.188 -5.19327 4.58553 0
M  V30 10995 N 988.981 -4.32683 3.58806 0
M  V30 10996 H 981.132 -0.802542 1.96655 0
M  V30 10997 H 983.395 -0.415304 0.852189 0
M  V30 10998 H 983.101 -2.05056 2.85736 0
M  V30 10999 H 982.975 -3.36585 1.70267 0
M  V30 11000 H 985.362 -2.81804 0.875827 0
M  V30 11001 H 985.443 -1.51006 2.06472 0
M  V30 11002 H 985.087 -3.21518 3.93177 0
M  V30 11003 H 985.017 -4.51309 2.71344 0
M  V30 11004 H 987.508 -3.01222 2.28197 0
M  V30 11005 H 987.821 -5.76216 5.1497 0
M  V30 11006 H 986.166 -5.1867 4.62608 0
M  V30 11007 H 989.357 -3.67971 2.89335 0
M  V30 11008 H 989.53 -4.93386 4.20088 0
M  V30 11009 N 982.937 -0.845659 -1.3299 0
M  V30 11010 C 984.214 -0.366306 -1.92139 0
M  V30 11011 C 984.594 1.14912 -1.77083 0
M  V30 11012 O 983.942 1.96667 -1.16338 0
M  V30 11013 C 984.152 -0.820716 -3.39213 0
M  V30 11014 C 985.5 -0.832667 -4.16355 0
M  V30 11015 O 986.524 -0.764764 -3.47893 0
M  V30 11016 O 985.383 -0.926658 -5.38586 0
M  V30 11017 H 982.477 -0.105063 -0.820299 0
M  V30 11018 H 985.023 -0.931962 -1.41819 0
M  V30 11019 H 983.795 -1.86357 -3.44074 0
M  V30 11020 H 983.418 -0.232009 -3.96923 0
M  V30 11021 N 984.415 1.45619 -0.602734 0
M  V30 11022 C 985.363 2.32228 0.131484 0
M  V30 11023 C 986.357 1.45681 0.864484 0
M  V30 11024 O 987.563 1.62193 0.7806 0
M  V30 11025 H 983.938 0.7495 0.0612638 0
M  V30 11026 H 985.909 2.91941 -0.617496 0
M  V30 11027 C 984.658 3.29213 1.11866 0
M  V30 11028 H 983.981 3.95801 0.564061 0
M  V30 11029 H 985.421 3.92554 1.60242 0
M  V30 11030 C 983.88 2.56028 2.18978 0
M  V30 11031 O 984.41 2.33806 3.26646 0
M  V30 11032 N 982.616 2.16245 1.94129 0
M  V30 11033 H 982.163 2.34518 1.06579 0
M  V30 11034 H 982.121 1.67601 2.66003 0
M  V30 11035 N 985.893 0.34162 1.53853 0
M  V30 11036 C 987.139 -0.248546 2.01876 0
M  V30 11037 C 987.494 -1.48352 1.22513 0
M  V30 11038 O 986.787 -1.89174 0.303919 0
M  V30 11039 C 986.981 -0.616989 3.52034 0
M  V30 11040 C 986.81 0.580727 4.45935 0
M  V30 11041 C 985.58 1.08544 4.93504 0
M  V30 11042 C 987.778 1.43858 4.93771 0
M  V30 11043 N 985.76 2.24568 5.71351 0
M  V30 11044 C 987.131 2.44575 5.69722 0
M  V30 11045 C 989.186 1.46425 4.75882 0
M  V30 11046 C 987.889 3.47687 6.29688 0
M  V30 11047 C 989.915 2.48416 5.36697 0
M  V30 11048 C 989.277 3.4786 6.12514 0
M  V30 11049 H 985.376 -0.0543067 0.780112 0
M  V30 11050 H 987.96 0.480749 1.88671 0
M  V30 11051 H 986.131 -1.31539 3.65448 0
M  V30 11052 H 987.863 -1.19018 3.86803 0
M  V30 11053 H 984.618 0.653832 4.69065 0
M  V30 11054 H 985.042 2.83143 6.14946 0
M  V30 11055 H 989.684 0.709044 4.16812 0
M  V30 11056 H 987.402 4.24103 6.87868 0
M  V30 11057 H 990.988 2.51227 5.24763 0
M  V30 11058 H 989.868 4.25486 6.58734 0
M  V30 11059 N 987.371 -1.57444 0.0701946 0
M  V30 11060 C 988.599 -1.97754 -0.608358 0
M  V30 11061 C 989.014 -0.948496 -1.63245 0
M  V30 11062 O 988.371 0.065046 -1.82384 0
M  V30 11063 C 988.422 -3.38142 -1.27836 0
M  V30 11064 O 988.143 -4.37104 -0.295255 0
M  V30 11065 C 989.644 -3.93318 -2.04489 0
M  V30 11066 H 986.864 -0.650398 -0.164997 0
M  V30 11067 H 989.408 -2.04006 0.142124 0
M  V30 11068 H 987.563 -3.32982 -1.97994 0
M  V30 11069 H 987.977 -5.18732 -0.77574 0
M  V30 11070 H 989.451 -4.93774 -2.46762 0
M  V30 11071 H 989.928 -3.29774 -2.90079 0
M  V30 11072 H 990.534 -4.01875 -1.39201 0
M  V30 11073 N 988.849 0.203349 -1.56283 0
M  V30 11074 C 990.126 0.950415 -1.70958 0
M  V30 11075 C 990.506 2.01708 -0.622647 0
M  V30 11076 O 989.854 2.25523 0.367635 0
M  V30 11077 C 990.064 1.54434 -3.12971 0
M  V30 11078 C 991.412 2.02964 -3.72949 0
M  V30 11079 O 992.436 1.64293 -3.16048 0
M  V30 11080 O 991.295 2.74097 -4.72793 0
M  V30 11081 H 988.389 0.445154 -0.69697 0
M  V30 11082 H 990.935 0.193695 -1.68591 0
M  V30 11083 H 989.707 0.77505 -3.83547 0
M  V30 11084 H 989.33 2.36611 -3.19532 0
M  V30 11085 N 990.327 1.50405 0.470755 0
M  V30 11086 C 991.29 1.68741 1.5511 0
M  V30 11087 C 992.29 0.558116 1.50804 0
M  V30 11088 O 993.48 0.825149 1.53418 0
M  V30 11089 C 990.612 1.71295 2.94739 0
M  V30 11090 H 991.805 2.65127 1.40169 0
M  V30 11091 H 989.358 1.39891 0.697156 0
M  V30 11092 H 990.093 0.766029 3.15123 0
M  V30 11093 H 989.878 2.53336 2.99271 0
M  V30 11094 H 991.368 1.87434 3.73173 0
M  V30 11095 N 991.805 -0.723954 1.39988 0
M  V30 11096 C 992.715 -1.86829 1.41887 0
M  V30 11097 C 993.731 -1.71173 0.312401 0
M  V30 11098 O 994.907 -1.93583 0.555651 0
M  V30 11099 C 991.972 -3.22541 1.27154 0
M  V30 11100 C 991.033 -3.50512 2.47871 0
M  V30 11101 C 990.266 -4.79749 2.33831 0
M  V30 11102 O 990.489 -5.54251 1.34765 0
M  V30 11103 O 989.423 -5.07868 3.23039 0
M  V30 11104 H 993.249 -1.88183 2.38371 0
M  V30 11105 H 990.834 -0.873259 1.21221 0
M  V30 11106 H 992.716 -4.0362 1.21114 0
M  V30 11107 H 991.391 -3.21933 0.337715 0
M  V30 11108 H 990.298 -2.69475 2.59488 0
M  V30 11109 H 991.631 -3.55909 3.39985 0
M  V30 11110 N 993.283 -1.25346 -0.955304 0
M  V30 11111 C 994.531 -1.09837 -1.69647 0
M  V30 11112 C 994.852 0.361425 -1.91621 0
M  V30 11113 O 994.122 1.25666 -1.50283 0
M  V30 11114 H 992.702 -0.403467 -0.628668 0
M  V30 11115 H 995.364 -1.57459 -1.14859 0
M  V30 11116 H 994.46 -1.60616 -2.67598 0
M  V30 11117 N 994.761 1.15782 -1.06922 0
M  V30 11118 C 995.991 1.90079 -0.809545 0
M  V30 11119 C 996.399 1.78028 0.640523 0
M  V30 11120 O 995.742 1.12692 1.45073 0
M  V30 11121 C 995.804 3.41179 -1.13302 0
M  V30 11122 C 995.468 3.77015 -2.5828 0
M  V30 11123 C 996.465 3.78403 -3.56521 0
M  V30 11124 C 994.15 4.07455 -2.93745 0
M  V30 11125 C 996.144 4.09729 -4.88264 0
M  V30 11126 C 993.831 4.38446 -4.25686 0
M  V30 11127 C 994.829 4.39564 -5.22755 0
M  V30 11128 O 994.517 4.69814 -6.52326 0
M  V30 11129 H 994.249 0.609397 -0.292595 0
M  V30 11130 H 996.803 1.47654 -1.42784 0
M  V30 11131 H 995.033 3.83982 -0.457676 0
M  V30 11132 H 996.722 3.96759 -0.856586 0
M  V30 11133 H 997.488 3.54991 -3.30464 0
M  V30 11134 H 993.367 4.05746 -2.1884 0
M  V30 11135 H 996.911 4.10516 -5.64023 0
M  V30 11136 H 992.808 4.61325 -4.51497 0
M  V30 11137 H 993.576 4.87598 -6.57412 0
M  V30 11138 N 996.239 0.8527 1.3254 0
M  V30 11139 C 997.469 0.468363 2.01221 0
M  V30 11140 C 997.877 -0.938966 1.64256 0
M  V30 11141 O 997.22 -1.62387 0.858837 0
M  V30 11142 C 997.282 0.525457 3.55639 0
M  V30 11143 C 996.946 1.89133 4.16026 0
M  V30 11144 C 997.943 2.85652 4.34395 0
M  V30 11145 C 995.628 2.18795 4.52144 0
M  V30 11146 C 997.622 4.09985 4.88048 0
M  V30 11147 C 995.309 3.43381 5.05502 0
M  V30 11148 C 996.307 4.38792 5.23403 0
M  V30 11149 O 995.995 5.61173 5.75622 0
M  V30 11150 H 995.727 0.182712 0.65084 0
M  V30 11151 H 998.281 1.15076 1.70138 0
M  V30 11152 H 996.511 -0.213779 3.86109 0
M  V30 11153 H 998.2 0.156999 4.05596 0
M  V30 11154 H 998.966 2.6404 4.06827 0
M  V30 11155 H 994.845 1.45317 4.37498 0
M  V30 11156 H 998.389 4.84465 5.01936 0
M  V30 11157 H 994.286 3.64844 5.32503 0
M  V30 11158 H 995.054 5.63104 5.94017 0
M  V30 11159 N 997.718 -1.45297 0.610449 0
M  V30 11160 C 999.134 -1.57225 0.274332 0
M  V30 11161 C 999.334 -1.60136 -1.22306 0
M  V30 11162 O 998.39 -1.5332 -2.00622 0
M  V30 11163 C 999.703 -2.85365 0.948028 0
M  V30 11164 C 1001.25 -2.99044 0.924216 0
M  V30 11165 C 1001.73 -4.29958 1.57798 0
M  V30 11166 N 1003.22 -4.36723 1.5436 0
M  V30 11167 C 1003.95 -5.36695 2.01857 0
M  V30 11168 N 1003.45 -6.43187 2.57453 0
M  V30 11169 N 1005.24 -5.28071 1.92608 0
M  V30 11170 H 997.392 -1.41651 1.58268 0
M  V30 11171 H 999.655 -0.67744 0.663158 0
M  V30 11172 H 999.361 -2.89125 2.00249 0
M  V30 11173 H 999.235 -3.74222 0.473062 0
M  V30 11174 H 1001.62 -2.94849 -0.121709 0
M  V30 11175 H 1001.7 -2.1159 1.43748 0
M  V30 11176 H 1001.35 -4.34912 2.62325 0
M  V30 11177 H 1001.28 -5.16234 1.03972 0
M  V30 11178 H 1003.77 -3.60374 1.13749 0
M  V30 11179 H 1004.08 -7.15722 2.91482 0
M  V30 11180 H 1002.43 -6.4393 2.61493 0
M  V30 11181 H 1005.62 -4.43783 1.48912 0
M  V30 11182 H 1005.79 -6.05832 2.29938 0
M  V30 11183 N 999.196 -0.349774 -1.5367 0
M  V30 11184 C 1000.44 0.245189 -2.01312 0
M  V30 11185 C 1000.77 1.49702 -1.23705 0
M  V30 11186 O 1000.05 1.91742 -0.326371 0
M  V30 11187 C 1000.33 0.553071 -3.55827 0
M  V30 11188 C 1000.19 -0.71129 -4.4414 0
M  V30 11189 C 1001.5 1.36015 -4.18555 0
M  V30 11190 H 998.624 0.0876415 -0.73177 0
M  V30 11191 H 1001.27 -0.471543 -1.84056 0
M  V30 11192 H 999.416 1.16367 -3.70663 0
M  V30 11193 H 1001.09 -1.34913 -4.41131 0
M  V30 11194 H 999.331 -1.33491 -4.1275 0
M  V30 11195 H 1000 -0.45104 -5.50154 0
M  V30 11196 H 1002.48 0.843778 -4.07455 0
M  V30 11197 H 1001.35 1.54432 -5.26728 0
M  V30 11198 H 1001.61 2.36408 -3.73582 0
M  V30 11199 N 1000.67 1.57404 -0.0785433 0
M  V30 11200 C 1001.62 2.14316 0.903949 0
M  V30 11201 C 1002.62 1.08176 1.30362 0
M  V30 11202 O 1003.82 1.26546 1.28008 0
M  V30 11203 H 1000.2 0.685367 0.309477 0
M  V30 11204 H 1002.17 2.95719 0.399081 0
M  V30 11205 C 1000.92 2.72504 2.15956 0
M  V30 11206 H 1000.24 3.53853 1.86087 0
M  V30 11207 H 1001.68 3.15914 2.82798 0
M  V30 11208 C 1000.14 1.6759 2.92259 0
M  V30 11209 O 1000.67 1.10492 3.86205 0
M  V30 11210 N 998.875 1.38467 2.5549 0
M  V30 11211 H 998.422 1.85088 1.79166 0
M  V30 11212 H 998.38 0.685053 3.06846 0
M  V30 11213 N 1002.15 -0.195058 1.56388 0
M  V30 11214 C 1003.4 -0.913626 1.79821 0
M  V30 11215 C 1003.71 -1.84422 0.651767 0
M  V30 11216 O 1004.92 -2.6034 0.770402 0
M  V30 11217 C 1003.38 -1.67497 3.18548 0
M  V30 11218 C 1002.98 -0.789205 4.40994 0
M  V30 11219 C 1004.73 -2.38318 3.5129 0
M  V30 11220 C 1002.63 -1.54942 5.70742 0
M  V30 11221 H 1001.56 -0.344891 0.670497 0
M  V30 11222 H 1004.22 -0.166912 1.82739 0
M  V30 11223 H 1002.6 -2.46557 3.0988 0
M  V30 11224 H 1003.77 -0.0372595 4.60785 0
M  V30 11225 H 1002.09 -0.191834 4.15958 0
M  V30 11226 H 1004.68 -2.95745 4.45465 0
M  V30 11227 H 1005.03 -3.12507 2.75037 0
M  V30 11228 H 1005.56 -1.66224 3.61406 0
M  V30 11229 H 1002.3 -0.85031 6.49962 0
M  V30 11230 H 1001.82 -2.2753 5.54969 0
M  V30 11231 H 1003.5 -2.1032 6.11861 0
M  V30 11232 N 1003.63 -1.50653 -0.462772 0
M  V30 11233 C 1004.88 -1.61737 -1.21184 0
M  V30 11234 C 1005.2 -0.32369 -1.92295 0
M  V30 11235 O 1004.47 0.659269 -1.84473 0
M  V30 11236 H 1003.05 -0.596015 -0.450306 0
M  V30 11237 H 1005.71 -1.87469 -0.533051 0
M  V30 11238 H 1004.81 -2.43262 -1.95525 0
M  V30 11239 N 1005.11 0.71652 -1.4037 0
M  V30 11240 C 1006.02 1.86074 -1.42876 0
M  V30 11241 C 1007.03 1.71005 -0.321475 0
M  V30 11242 O 1008.21 1.93286 -0.565909 0
M  V30 11243 C 1005.28 3.21862 -1.28863 0
M  V30 11244 C 1004.34 3.49193 -2.49726 0
M  V30 11245 C 1003.57 4.78502 -2.36372 0
M  V30 11246 O 1003.79 5.53529 -1.37703 0
M  V30 11247 O 1002.73 5.06147 -3.25728 0
M  V30 11248 H 1006.55 1.86916 -2.39366 0
M  V30 11249 H 1004.14 0.866818 -1.21683 0
M  V30 11250 H 1006.02 4.02972 -1.23253 0
M  V30 11251 H 1004.69 3.2175 -0.354783 0
M  V30 11252 H 1003.6 2.68095 -2.60913 0
M  V30 11253 H 1004.93 3.54101 -3.41868 0
M  V30 11254 N 1006.59 1.25851 0.948643 0
M  V30 11255 C 1007.83 1.11119 1.69648 0
M  V30 11256 C 1008.17 -0.345995 1.91093 0
M  V30 11257 O 1007.44 -1.25467 1.48621 0
M  V30 11258 C 1007.72 1.87261 3.0758 0
M  V30 11259 C 1007.58 3.40842 2.93507 0
M  V30 11260 C 1008.9 1.6605 4.07573 0
M  V30 11261 H 1006.01 0.405052 0.615713 0
M  V30 11262 H 1008.66 1.54756 1.10229 0
M  V30 11263 H 1006.81 1.50172 3.58303 0
M  V30 11264 H 1008.48 3.87641 2.50064 0
M  V30 11265 H 1006.72 3.68248 2.29294 0
M  V30 11266 H 1007.39 3.89339 3.91305 0
M  V30 11267 H 1009.87 1.98348 3.65783 0
M  V30 11268 H 1008.74 2.21753 5.02113 0
M  V30 11269 H 1009.01 0.603256 4.37965 0
M  V30 11270 N 1008.06 -1.15214 1.07534 0
M  V30 11271 C 1008.99 -2.2216 0.718837 0
M  V30 11272 C 1009.98 -1.6753 -0.29459 0
M  V30 11273 O 1011.16 -1.93481 -0.166931 0
M  V30 11274 C 1008.29 -3.471 0.117836 0
M  V30 11275 C 1007.24 -4.14701 1.05862 0
M  V30 11276 C 1006.57 -5.3374 0.320284 0
M  V30 11277 C 1007.87 -4.64254 2.39302 0
M  V30 11278 H 1009.56 -2.52237 1.61297 0
M  V30 11279 H 1007.11 -1.21239 0.776992 0
M  V30 11280 H 1009.06 -4.21156 -0.143519 0
M  V30 11281 H 1007.79 -3.16361 -0.811389 0
M  V30 11282 H 1006.45 -3.42589 1.30493 0
M  V30 11283 H 1006.09 -4.99257 -0.61246 0
M  V30 11284 H 1005.79 -5.79912 0.947381 0
M  V30 11285 H 1007.32 -6.10563 0.0667721 0
M  V30 11286 H 1008.73 -5.29827 2.18988 0
M  V30 11287 H 1007.13 -5.21095 2.97623 0
M  V30 11288 H 1008.2 -3.79793 3.01472 0
M  V30 11289 N 1009.54 -0.859717 -1.32086 0
M  V30 11290 C 1010.82 -0.386665 -1.9174 0
M  V30 11291 C 1011.2 1.13028 -1.78292 0
M  V30 11292 O 1010.55 1.95422 -1.18417 0
M  V30 11293 C 1010.76 -0.856648 -3.38323 0
M  V30 11294 C 1012.11 -0.87678 -4.15449 0
M  V30 11295 O 1013.13 -0.80162 -3.47063 0
M  V30 11296 O 1011.99 -0.98373 -5.37573 0
M  V30 11297 H 1009.08 -0.113758 -0.819139 0
M  V30 11298 H 1011.63 -0.946952 -1.40822 0
M  V30 11299 H 1010.4 -1.89996 -3.42078 0
M  V30 11300 H 1010.02 -0.274095 -3.96654 0
M  V30 11301 N 1011.02 1.44971 -0.618145 0
M  V30 11302 C 1011.97 2.30606 0.09449 0
M  V30 11303 C 1012.94 1.42725 0.849633 0
M  V30 11304 O 1014.12 1.71643 0.833266 0
M  V30 11305 C 1011.26 3.27803 1.07886 0
M  V30 11306 C 1010.38 4.30787 0.323488 0
M  V30 11307 C 1009.51 5.15085 1.29851 0
M  V30 11308 C 1008.55 6.09788 0.531561 0
M  V30 11309 N 1007.69 6.86829 1.4564 0
M  V30 11310 H 1012.53 2.91008 -0.641738 0
M  V30 11311 H 1010.06 1.43391 -0.328259 0
M  V30 11312 H 1012.02 3.82631 1.66281 0
M  V30 11313 H 1010.65 2.69131 1.78237 0
M  V30 11314 H 1009.7 3.78536 -0.376164 0
M  V30 11315 H 1011.02 4.98044 -0.274443 0
M  V30 11316 H 1010.17 5.74365 1.95421 0
M  V30 11317 H 1008.91 4.4787 1.93037 0
M  V30 11318 H 1007.91 5.49628 -0.137702 0
M  V30 11319 H 1009.14 6.79033 -0.0953993 0
M  V30 11320 H 1007.08 6.22295 2.07571 0
M  V30 11321 H 1007 7.50477 0.912167 0
M  V30 11322 H 1008.27 7.50642 2.10134 0
M  V30 11323 N 1012.5 0.357919 1.53482 0
M  V30 11324 C 1013.91 0.00655107 1.59599 0
M  V30 11325 C 1014.11 -1.47449 1.37336 0
M  V30 11326 O 1013.17 -2.2351 1.17472 0
M  V30 11327 C 1014.48 0.455617 2.97228 0
M  V30 11328 C 1016.03 0.409183 3.10314 0
M  V30 11329 C 1016.51 0.833941 4.50344 0
M  V30 11330 N 1018 0.788695 4.56436 0
M  V30 11331 C 1018.73 1.08914 5.62961 0
M  V30 11332 N 1018.23 1.45847 6.77274 0
M  V30 11333 N 1020.02 1.01243 5.52907 0
M  V30 11334 H 1012.17 1.32248 1.66206 0
M  V30 11335 H 1014.44 0.540047 0.779136 0
M  V30 11336 H 1014.14 1.48881 3.18634 0
M  V30 11337 H 1014.02 -0.161751 3.76853 0
M  V30 11338 H 1016.4 -0.614863 2.88623 0
M  V30 11339 H 1016.48 1.06195 2.32715 0
M  V30 11340 H 1016.13 1.85607 4.72771 0
M  V30 11341 H 1016.06 0.158507 5.26361 0
M  V30 11342 H 1018.55 0.516497 3.74354 0
M  V30 11343 H 1018.86 1.67218 7.54492 0
M  V30 11344 H 1017.21 1.49705 6.78685 0
M  V30 11345 H 1020.4 0.723137 4.62481 0
M  V30 11346 H 1020.57 1.24991 6.35831 0
M  V30 11347 N 1013.98 -1.5736 0.0868897 0
M  V30 11348 C 1015.21 -1.981 -0.586498 0
M  V30 11349 C 1015.61 -0.96455 -1.62767 0
M  V30 11350 O 1014.96 0.0551801 -1.83617 0
M  V30 11351 C 1015.02 -3.35193 -1.29947 0
M  V30 11352 C 1014.68 -4.55157 -0.410012 0
M  V30 11353 C 1015.68 -5.18797 0.338532 0
M  V30 11354 C 1013.37 -5.01212 -0.33047 0
M  V30 11355 C 1015.36 -6.26854 1.15468 0
M  V30 11356 C 1013.05 -6.09138 0.48934 0
M  V30 11357 C 1014.04 -6.71823 1.23057 0
M  V30 11358 O 1013.73 -7.77669 2.03683 0
M  V30 11359 H 1013.46 -0.656166 -0.16255 0
M  V30 11360 H 1016.02 -2.04773 0.160379 0
M  V30 11361 H 1014.25 -3.25179 -2.09274 0
M  V30 11362 H 1015.94 -3.60435 -1.86658 0
M  V30 11363 H 1016.7 -4.84151 0.286764 0
M  V30 11364 H 1012.58 -4.52188 -0.897058 0
M  V30 11365 H 1016.13 -6.75712 1.73374 0
M  V30 11366 H 1012.02 -6.43215 0.542618 0
M  V30 11367 H 1012.79 -7.94618 1.96277 0
M  V30 11368 N 1015.45 0.186762 -1.56489 0
M  V30 11369 C 1016.4 1.25084 -1.96104 0
M  V30 11370 C 1017.4 1.4667 -0.847609 0
M  V30 11371 O 1018.6 1.47432 -1.03266 0
M  V30 11372 H 1014.98 0.420121 -0.623701 0
M  V30 11373 H 1016.95 0.889761 -2.84826 0
M  V30 11374 C 1015.7 2.5863 -2.32392 0
M  V30 11375 H 1015.02 2.42838 -3.176 0
M  V30 11376 H 1016.46 3.3181 -2.63967 0
M  V30 11377 C 1014.92 3.16241 -1.16159 0
M  V30 11378 O 1015.45 3.99272 -0.441034 0
M  V30 11379 N 1013.66 2.75106 -0.936206 0
M  V30 11380 H 1013.2 2.0769 -1.5239 0
M  V30 11381 H 1013.16 3.13991 -0.160317 0
M  V30 11382 N 1016.93 1.50896 0.454776 0
M  V30 11383 C 1018.18 1.6294 1.20741 0
M  V30 11384 C 1018.51 0.336339 1.91265 0
M  V30 11385 O 1017.79 -0.663153 1.82846 0
M  V30 11386 C 1018.07 2.82092 2.23822 0
M  V30 11387 C 1017.92 4.21326 1.57495 0
M  V30 11388 C 1019.24 2.96777 3.24979 0
M  V30 11389 H 1016.36 0.59302 0.437603 0
M  V30 11390 H 1019 1.83331 0.498959 0
M  V30 11391 H 1017.15 2.64837 2.84243 0
M  V30 11392 H 1018.82 4.50209 1.00546 0
M  V30 11393 H 1017.07 4.24829 0.877664 0
M  V30 11394 H 1017.74 5.00656 2.32482 0
M  V30 11395 H 1020.21 3.12627 2.74597 0
M  V30 11396 H 1019.09 3.81742 3.94416 0
M  V30 11397 H 1019.35 2.08091 3.90065 0
M  V30 11398 N 1018.41 -0.709066 1.40748 0
M  V30 11399 C 1019.64 -1.49591 1.425 0
M  V30 11400 C 1020.05 -1.89184 0.0248343 0
M  V30 11401 O 1019.39 -1.56429 -0.963109 0
M  V30 11402 C 1019.45 -2.79735 2.25807 0
M  V30 11403 C 1019.12 -2.62426 3.74141 0
M  V30 11404 C 1020.11 -2.29256 4.66624 0
M  V30 11405 C 1017.8 -2.78487 4.18032 0
M  V30 11406 C 1019.79 -2.12366 6.00982 0
M  V30 11407 C 1017.48 -2.61215 5.52458 0
M  V30 11408 C 1018.48 -2.28203 6.43749 0
M  V30 11409 O 1018.17 -2.11069 7.75697 0
M  V30 11410 H 1017.9 -0.467994 0.487809 0
M  V30 11411 H 1020.45 -0.881694 1.85514 0
M  V30 11412 H 1018.68 -3.43513 1.77584 0
M  V30 11413 H 1020.37 -3.41481 2.19421 0
M  V30 11414 H 1021.14 -2.16474 4.34009 0
M  V30 11415 H 1017.02 -3.03168 3.4729 0
M  V30 11416 H 1020.56 -1.86522 6.72202 0
M  V30 11417 H 1016.46 -2.73582 5.84656 0
M  V30 11418 H 1017.23 -2.25938 7.86698 0
M  V30 11419 N 1019.89 -1.26353 -0.941956 0
M  V30 11420 C 1021.14 -1.1163 -1.68473 0
M  V30 11421 C 1021.46 0.34108 -1.91994 0
M  V30 11422 O 1020.73 1.24065 -1.51607 0
M  V30 11423 H 1019.31 -0.410113 -0.624353 0
M  V30 11424 H 1021.97 -1.58669 -1.13182 0
M  V30 11425 H 1021.07 -1.63445 -2.6588 0
M  V30 11426 N 1021.37 1.14642 -1.08144 0
M  V30 11427 C 1022.6 1.89209 -0.82966 0
M  V30 11428 C 1023.01 1.78697 0.621604 0
M  V30 11429 O 1022.35 1.14224 1.4387 0
M  V30 11430 C 1022.41 3.39958 -1.16915 0
M  V30 11431 C 1022.07 3.74254 -2.62264 0
M  V30 11432 C 1023.07 3.746 -3.60514 0
M  V30 11433 C 1020.76 4.04316 -2.9805 0
M  V30 11434 C 1022.75 4.04527 -4.92582 0
M  V30 11435 C 1020.44 4.33906 -4.30312 0
M  V30 11436 C 1021.44 4.33995 -5.27388 0
M  V30 11437 O 1021.12 4.62869 -6.57273 0
M  V30 11438 H 1020.86 0.606259 -0.299042 0
M  V30 11439 H 1023.41 1.46132 -1.44342 0
M  V30 11440 H 1021.64 3.83475 -0.498377 0
M  V30 11441 H 1023.33 3.95828 -0.89862 0
M  V30 11442 H 1024.09 3.51466 -3.34211 0
M  V30 11443 H 1019.97 4.03402 -2.23132 0
M  V30 11444 H 1023.52 4.04511 -5.68346 0
M  V30 11445 H 1019.41 4.5651 -4.56365 0
M  V30 11446 H 1020.18 4.80598 -6.62546 0
M  V30 11447 N 1022.85 0.866709 1.31628 0
M  V30 11448 C 1024.07 0.49039 2.01004 0
M  V30 11449 C 1024.49 -0.916244 1.65077 0
M  V30 11450 O 1023.85 -1.59975 0.8783 0
M  V30 11451 C 1023.9 0.634011 3.55897 0
M  V30 11452 O 1023.62 1.98525 3.90537 0
M  V30 11453 C 1025.12 0.258277 4.42547 0
M  V30 11454 H 1022.34 0.191421 0.643117 0
M  V30 11455 H 1024.88 1.16698 1.67934 0
M  V30 11456 H 1023.04 0.00501801 3.874 0
M  V30 11457 H 1023.45 1.99067 4.85255 0
M  V30 11458 H 1024.93 0.409733 5.50477 0
M  V30 11459 H 1025.4 -0.802301 4.3181 0
M  V30 11460 H 1026.01 0.862837 4.16456 0
M  V30 11461 N 1024.32 -1.44642 0.625825 0
M  V30 11462 C 1025.57 -2.01695 0.127948 0
M  V30 11463 C 1025.89 -1.49439 -1.25271 0
M  V30 11464 O 1025.16 -0.695873 -1.83124 0
M  V30 11465 H 1023.74 -0.745685 0.0443096 0
M  V30 11466 H 1026.4 -1.7721 0.811332 0
M  V30 11467 H 1025.5 -3.11966 0.0915933 0
M  V30 11468 N 1025.8 -0.366053 -1.5329 0
M  V30 11469 C 1026.73 0.514916 -2.23341 0
M  V30 11470 C 1027.75 1.04579 -1.24768 0
M  V30 11471 O 1028.94 0.952084 -1.50989 0
M  V30 11472 C 1026.04 1.72374 -2.91788 0
M  V30 11473 C 1025.21 1.32429 -4.16871 0
M  V30 11474 C 1024.27 2.39524 -4.68524 0
M  V30 11475 O 1023.29 2.01895 -5.32191 0
M  V30 11476 N 1024.5 3.71116 -4.46378 0
M  V30 11477 H 1027.26 -0.0851272 -2.99579 0
M  V30 11478 H 1024.82 -0.191255 -1.60766 0
M  V30 11479 H 1026.81 2.43496 -3.23252 0
M  V30 11480 H 1025.38 2.23064 -2.19 0
M  V30 11481 H 1024.6 0.442901 -3.91704 0
M  V30 11482 H 1025.89 1.03372 -4.98188 0
M  V30 11483 H 1025.29 4.04463 -3.95508 0
M  V30 11484 H 1023.85 4.38341 -4.82391 0
M  V30 11485 N 1027.28 1.57312 -0.0952337 0
M  V30 11486 C 1028.53 1.93974 0.567319 0
M  V30 11487 C 1028.85 0.977805 1.68713 0
M  V30 11488 O 1028.12 0.0298944 1.95877 0
M  V30 11489 H 1026.7 0.71612 0.212558 0
M  V30 11490 H 1029.36 1.94254 -0.158598 0
M  V30 11491 H 1028.46 2.964 0.977423 0
M  V30 11492 N 1028.76 -0.17846 1.56586 0
M  V30 11493 C 1030 -0.897562 1.81856 0
M  V30 11494 C 1030.34 -1.82204 0.671955 0
M  V30 11495 O 1029.61 -1.91739 -0.326535 0
M  V30 11496 C 1029.89 -1.69942 3.17477 0
M  V30 11497 C 1029.75 -0.798545 4.42655 0
M  V30 11498 C 1031.07 -2.66861 3.49962 0
M  V30 11499 H 1028.19 -0.324863 0.661539 0
M  V30 11500 H 1030.83 -0.164106 1.8929 0
M  V30 11501 H 1028.98 -2.32471 3.11271 0
M  V30 11502 H 1030.65 -0.18668 4.60922 0
M  V30 11503 H 1028.89 -0.106181 4.3367 0
M  V30 11504 H 1029.56 -1.39496 5.34083 0
M  V30 11505 H 1032.04 -2.1446 3.56576 0
M  V30 11506 H 1030.92 -3.20037 4.45946 0
M  V30 11507 H 1031.18 -3.46715 2.74301 0
M  V30 11508 N 1030.24 -1.51135 -0.446768 0
M  V30 11509 C 1031.48 -1.63336 -1.19698 0
M  V30 11510 C 1031.81 -0.345099 -1.91414 0
M  V30 11511 O 1031.07 0.670365 -1.8386 0
M  V30 11512 C 1031.36 -2.78034 -2.2457 0
M  V30 11513 C 1031.03 -4.17652 -1.69934 0
M  V30 11514 C 1029.69 -4.55636 -1.54756 0
M  V30 11515 C 1032.04 -5.04813 -1.29665 0
M  V30 11516 C 1029.37 -5.78496 -0.977689 0
M  V30 11517 C 1031.72 -6.28244 -0.741112 0
M  V30 11518 C 1030.39 -6.65009 -0.576156 0
M  V30 11519 H 1029.66 -0.597689 -0.438006 0
M  V30 11520 H 1032.31 -1.85141 -0.48939 0
M  V30 11521 H 1030.61 -2.50413 -3.01331 0
M  V30 11522 H 1032.31 -2.84675 -2.8242 0
M  V30 11523 H 1028.9 -3.87699 -1.82722 0
M  V30 11524 H 1033.08 -4.76081 -1.40216 0
M  V30 11525 H 1028.34 -6.05636 -0.837563 0
M  V30 11526 H 1032.51 -6.95129 -0.42053 0
M  V30 11527 H 1030.14 -7.60085 -0.132443 0
M  V30 11528 N 1031.71 0.701592 -1.41122 0
M  V30 11529 C 1032.94 1.49553 -1.43696 0
M  V30 11530 C 1033.36 1.88053 -0.0421865 0
M  V30 11531 O 1032.72 1.54223 0.953144 0
M  V30 11532 C 1032.77 2.73834 -2.34622 0
M  V30 11533 O 1031.87 3.71088 -1.7991 0
M  V30 11534 H 1031.21 0.450352 -0.487933 0
M  V30 11535 H 1033.74 0.862886 -1.85514 0
M  V30 11536 H 1033.75 3.22209 -2.5029 0
M  V30 11537 H 1032.43 2.45149 -3.35969 0
M  V30 11538 H 1031.01 3.29994 -1.73661 0
M  V30 11539 N 1033.19 1.2685 0.935242 0
M  V30 11540 C 1034.14 1.08746 2.05614 0
M  V30 11541 C 1035.13 0.012681 1.69395 0
M  V30 11542 O 1036.34 0.169822 1.79197 0
M  V30 11543 H 1032.71 0.33485 0.673335 0
M  V30 11544 H 1034.69 2.03725 2.18033 0
M  V30 11545 C 1033.43 0.74346 3.39659 0
M  V30 11546 H 1032.76 1.56236 3.68008 0
M  V30 11547 H 1034.2 0.656607 4.18885 0
M  V30 11548 C 1032.66 -0.551751 3.32351 0
M  V30 11549 O 1033.19 -1.58836 3.68963 0
M  V30 11550 N 1031.39 -0.544583 2.85452 0
M  V30 11551 H 1030.94 0.29939 2.55854 0
M  V30 11552 H 1030.9 -1.41129 2.80945 0
M  V30 11553 N 1034.67 -1.14067 1.0875 0
M  V30 11554 C 1035.92 -1.85459 0.82053 0
M  V30 11555 C 1036.25 -1.82923 -0.65213 0
M  V30 11556 O 1035.52 -1.26241 -1.47965 0
M  V30 11557 C 1035.81 -3.33937 1.34752 0
M  V30 11558 C 1035.66 -3.45026 2.88578 0
M  V30 11559 C 1036.98 -4.2915 0.975636 0
M  V30 11560 H 1034.1 -0.673384 0.299538 0
M  V30 11561 H 1036.74 -1.33927 1.34772 0
M  V30 11562 H 1034.89 -3.77953 0.899086 0
M  V30 11563 H 1036.56 -3.09771 3.41818 0
M  V30 11564 H 1034.81 -2.86124 3.26061 0
M  V30 11565 H 1035.48 -4.49408 3.20526 0
M  V30 11566 H 1037.95 -3.93168 1.36228 0
M  V30 11567 H 1036.83 -5.31489 1.37152 0
M  V30 11568 H 1037.09 -4.41945 -0.116956 0
M  V30 11569 N 1036.15 -0.873678 -1.31166 0
M  V30 11570 C 1037.39 -0.487178 -1.96861 0
M  V30 11571 C 1037.73 0.95887 -1.68877 0
M  V30 11572 O 1037 1.6758 -0.987279 0
M  V30 11573 C 1037.29 -0.74925 -3.52219 0
M  V30 11574 C 1037.14 -2.2451 -3.89763 0
M  V30 11575 C 1038.46 -0.218194 -4.39559 0
M  V30 11576 H 1035.58 -0.178477 -0.715063 0
M  V30 11577 H 1038.22 -1.0956 -1.55231 0
M  V30 11578 H 1036.37 -0.231403 -3.8781 0
M  V30 11579 H 1038.04 -2.83049 -3.64254 0
M  V30 11580 H 1036.28 -2.71621 -3.38237 0
M  V30 11581 H 1036.95 -2.37911 -4.98099 0
M  V30 11582 H 1039.43 -0.661274 -4.10812 0
M  V30 11583 H 1038.31 -0.430983 -5.47205 0
M  V30 11584 H 1038.57 0.880056 -4.33252 0
M  V30 11585 N 1037.63 1.44308 -0.633487 0
M  V30 11586 C 1039.04 1.56768 -0.29931 0
M  V30 11587 C 1039.24 1.62061 1.19743 0
M  V30 11588 O 1038.3 1.56492 1.98158 0
M  V30 11589 C 1039.61 2.8382 -0.993307 0
M  V30 11590 C 1041.16 2.97536 -0.971674 0
M  V30 11591 C 1041.63 4.27393 -1.64618 0
M  V30 11592 N 1043.13 4.34212 -1.61288 0
M  V30 11593 C 1043.86 5.33415 -2.1037 0
M  V30 11594 N 1043.36 6.3901 -2.67653 0
M  V30 11595 N 1045.15 5.24939 -2.00985 0
M  V30 11596 H 1037.3 1.39115 -1.60501 0
M  V30 11597 H 1039.56 0.666804 -0.673852 0
M  V30 11598 H 1039.27 2.85902 -2.04823 0
M  V30 11599 H 1039.14 3.73422 -0.532537 0
M  V30 11600 H 1041.53 2.95005 0.0747854 0
M  V30 11601 H 1041.61 2.09276 -1.47096 0
M  V30 11602 H 1041.26 4.30683 -2.6921 0
M  V30 11603 H 1041.19 5.14515 -1.12171 0
M  V30 11604 H 1043.68 3.58519 -1.19468 0
M  V30 11605 H 1043.99 7.10994 -3.02831 0
M  V30 11606 H 1042.33 6.39689 -2.71705 0
M  V30 11607 H 1045.53 4.41357 -1.55953 0
M  V30 11608 H 1045.7 6.02097 -2.39547 0
M  V30 11609 N 1039.1 0.374177 1.53094 0
M  V30 11610 C 1040.07 -0.455999 2.24618 0
M  V30 11611 C 1041.07 -1.00269 1.25709 0
M  V30 11612 O 1042.26 -0.887077 1.49922 0
M  V30 11613 C 1039.39 -1.63822 2.98957 0
M  V30 11614 H 1040.58 0.169986 2.99418 0
M  V30 11615 H 1038.14 0.126015 1.55791 0
M  V30 11616 H 1038.87 -2.30205 2.28421 0
M  V30 11617 H 1038.66 -1.25308 3.71538 0
M  V30 11618 H 1040.15 -2.22633 3.53305 0
M  V30 11619 N 1040.58 -1.57259 0.103575 0
M  V30 11620 C 1042 -1.57581 -0.253062 0
M  V30 11621 C 1042.2 -1.11531 -1.67819 0
M  V30 11622 O 1041.25 -0.795632 -2.39637 0
M  V30 11623 C 1042.57 -3.00681 -0.0337753 0
M  V30 11624 C 1044.12 -3.12837 -0.10087 0
M  V30 11625 C 1044.59 -4.57911 0.0905295 0
M  V30 11626 N 1046.08 -4.63186 0.0359789 0
M  V30 11627 C 1046.82 -5.73179 0.159199 0
M  V30 11628 N 1046.31 -6.91976 0.337728 0
M  V30 11629 N 1048.11 -5.62011 0.0998662 0
M  V30 11630 H 1040.26 -1.85499 1.0346 0
M  V30 11631 H 1042.52 -0.856584 0.406163 0
M  V30 11632 H 1042.23 -3.38602 0.950858 0
M  V30 11633 H 1042.1 -3.69207 -0.772406 0
M  V30 11634 H 1044.49 -2.74783 -1.07601 0
M  V30 11635 H 1044.57 -2.46886 0.66939 0
M  V30 11636 H 1044.21 -4.9666 1.06258 0
M  V30 11637 H 1044.14 -5.21933 -0.699528 0
M  V30 11638 H 1046.63 -3.7777 -0.099121 0
M  V30 11639 H 1046.95 -7.71641 0.423032 0
M  V30 11640 H 1045.29 -6.93996 0.373504 0
M  V30 11641 H 1048.48 -4.68084 -0.0385356 0
M  V30 11642 H 1048.65 -6.47693 0.199342 0
M  V30 11643 N 1042.06 0.170153 -1.56679 0
M  V30 11644 C 1043.34 0.913938 -1.72935 0
M  V30 11645 C 1043.72 2.00342 -0.665293 0
M  V30 11646 O 1043.07 2.26252 0.319715 0
M  V30 11647 C 1043.28 1.47761 -3.16177 0
M  V30 11648 C 1044.62 1.95007 -3.7717 0
M  V30 11649 O 1045.65 1.57552 -3.19462 0
M  V30 11650 O 1044.51 2.64007 -4.78501 0
M  V30 11651 H 1041.6 0.43027 -0.706256 0
M  V30 11652 H 1044.15 0.157891 -1.68964 0
M  V30 11653 H 1042.92 0.69352 -3.85105 0
M  V30 11654 H 1042.54 2.2978 -3.24479 0
M  V30 11655 N 1043.54 1.5137 0.438746 0
M  V30 11656 C 1044.49 1.73154 1.55308 0
M  V30 11657 C 1045.48 0.597825 1.58501 0
M  V30 11658 O 1046.69 0.77917 1.62262 0
M  V30 11659 H 1043.06 0.547083 0.51595 0
M  V30 11660 H 1045.03 2.66566 1.34108 0
M  V30 11661 C 1043.78 1.87242 2.92977 0
M  V30 11662 H 1043.1 2.73884 2.91252 0
M  V30 11663 H 1044.54 2.06497 3.70317 0
M  V30 11664 C 1043 0.631887 3.30921 0
M  V30 11665 O 1043.53 -0.214099 4.01129 0
M  V30 11666 N 1041.74 0.47639 2.86669 0
M  V30 11667 H 1041.29 1.16589 2.29706 0
M  V30 11668 H 1041.24 -0.352403 3.12419 0
M  V30 11669 N 1045.02 -0.694098 1.41492 0
M  V30 11670 C 1045.98 -1.78976 1.43179 0
M  V30 11671 C 1046.98 -1.57539 0.322191 0
M  V30 11672 O 1048.17 -1.64185 0.582138 0
M  V30 11673 C 1045.3 -3.17368 1.2446 0
M  V30 11674 H 1046.49 -1.78874 2.40716 0
M  V30 11675 H 1044.05 -0.901867 1.27656 0
M  V30 11676 H 1044.78 -3.23109 0.277691 0
M  V30 11677 H 1044.57 -3.3433 2.04856 0
M  V30 11678 H 1046.06 -3.97345 1.28479 0
M  V30 11679 N 1046.49 -1.27344 -0.928501 0
M  V30 11680 C 1047.91 -1.04732 -1.2043 0
M  V30 11681 C 1048.11 0.219623 -2.003 0
M  V30 11682 O 1047.17 0.925333 -2.34934 0
M  V30 11683 C 1048.48 -2.28625 -1.95323 0
M  V30 11684 C 1050.03 -2.33655 -2.08265 0
M  V30 11685 C 1050.5 -3.57275 -2.86563 0
M  V30 11686 N 1051.99 -3.57828 -2.94132 0
M  V30 11687 C 1052.73 -4.50152 -3.55177 0
M  V30 11688 N 1052.22 -5.52779 -4.17621 0
M  V30 11689 N 1054.02 -4.37777 -3.52573 0
M  V30 11690 H 1046.17 -2.08697 -0.394892 0
M  V30 11691 H 1048.43 -0.91782 -0.2373 0
M  V30 11692 H 1048.14 -3.20845 -1.44054 0
M  V30 11693 H 1048.01 -2.33878 -2.95941 0
M  V30 11694 H 1050.4 -1.41942 -2.58721 0
M  V30 11695 H 1050.48 -2.32406 -1.0687 0
M  V30 11696 H 1050.12 -4.49325 -2.3679 0
M  V30 11697 H 1050.05 -3.55775 -3.88242 0
M  V30 11698 H 1052.54 -2.83607 -2.49751 0
M  V30 11699 H 1052.86 -6.19394 -4.62137 0
M  V30 11700 H 1051.2 -5.56622 -4.16169 0
M  V30 11701 H 1054.39 -3.56811 -3.02991 0
M  V30 11702 H 1054.57 -5.09919 -3.99858 0
M  V30 11703 N 1047.97 1.13488 -1.09353 0
M  V30 11704 C 1048.94 2.17066 -0.735863 0
M  V30 11705 C 1049.94 1.59086 0.234181 0
M  V30 11706 O 1051.13 1.74196 0.012463 0
M  V30 11707 C 1048.26 3.40786 -0.0880975 0
M  V30 11708 H 1049.45 2.50221 -1.65316 0
M  V30 11709 H 1047 1.28304 -0.89263 0
M  V30 11710 H 1047.74 3.1322 0.840462 0
M  V30 11711 H 1047.52 3.8414 -0.786073 0
M  V30 11712 H 1049.01 4.17342 0.146775 0
M  V30 11713 N 1049.45 0.880621 1.30701 0
M  V30 11714 C 1050.4 0.333562 2.30196 0
M  V30 11715 C 1051.39 -0.557092 1.59978 0
M  V30 11716 O 1052.6 -0.442009 1.74489 0
M  V30 11717 H 1048.97 0.0892036 0.746691 0
M  V30 11718 H 1050.95 1.18644 2.73799 0
M  V30 11719 C 1049.69 -0.440731 3.44895 0
M  V30 11720 H 1049.02 0.235353 3.99107 0
M  V30 11721 H 1050.46 -0.788676 4.166 0
M  V30 11722 C 1048.92 -1.63613 2.94504 0
M  V30 11723 O 1049.45 -2.73549 2.94166 0
M  V30 11724 N 1047.65 -1.47183 2.5057 0
M  V30 11725 H 1047.2 -0.577479 2.51044 0
M  V30 11726 H 1047.16 -2.27303 2.17211 0
M  V30 11727 N 1050.93 -1.4397 0.641131 0
M  V30 11728 C 1051.86 -2.28997 -0.0963315 0
M  V30 11729 C 1052.87 -1.4184 -0.799071 0
M  V30 11730 O 1054.06 -1.65896 -0.658846 0
M  V30 11731 C 1051.16 -3.18465 -1.15903 0
M  V30 11732 C 1050.34 -4.34093 -0.536828 0
M  V30 11733 C 1049.4 -5.04522 -1.4948 0
M  V30 11734 O 1048.42 -5.60202 -1.00807 0
M  V30 11735 N 1049.62 -5.06899 -2.82901 0
M  V30 11736 H 1052.39 -2.9293 0.633422 0
M  V30 11737 H 1049.95 -1.54527 0.48302 0
M  V30 11738 H 1051.94 -3.62445 -1.80044 0
M  V30 11739 H 1050.51 -2.56214 -1.79089 0
M  V30 11740 H 1049.73 -3.9318 0.283414 0
M  V30 11741 H 1051.02 -5.08698 -0.101966 0
M  V30 11742 H 1050.42 -4.63012 -3.25017 0
M  V30 11743 H 1048.97 -5.54637 -3.42376 0
M  V30 11744 N 1052.41 -0.382291 -1.52893 0
M  V30 11745 C 1053.32 0.463745 -2.29971 0
M  V30 11746 C 1054.33 1.07777 -1.36602 0
M  V30 11747 O 1055.51 1.0851 -1.69669 0
M  V30 11748 C 1052.57 1.57938 -3.08637 0
M  V30 11749 C 1051.64 0.991182 -4.17701 0
M  V30 11750 C 1050.87 2.05365 -4.92606 0
M  V30 11751 O 1051.09 3.26757 -4.67532 0
M  V30 11752 O 1050.03 1.67487 -5.78128 0
M  V30 11753 H 1053.85 -0.163962 -3.03257 0
M  V30 11754 H 1051.44 -0.146199 -1.48683 0
M  V30 11755 H 1053.32 2.22765 -3.57706 0
M  V30 11756 H 1051.99 2.19218 -2.3817 0
M  V30 11757 H 1050.9 0.306364 -3.72843 0
M  V30 11758 H 1052.23 0.422699 -4.90382 0
M  V30 11759 N 1053.89 1.57202 -0.111913 0
M  V30 11760 C 1055.13 1.95239 0.548607 0
M  V30 11761 C 1055.46 0.994897 1.6678 0
M  V30 11762 O 1054.74 0.0308603 1.94476 0
M  V30 11763 C 1055.02 3.43271 1.08798 0
M  V30 11764 C 1054.88 4.49792 -0.0273064 0
M  V30 11765 C 1056.19 3.92989 1.98109 0
M  V30 11766 H 1053.31 0.709919 0.197951 0
M  V30 11767 H 1055.96 1.89087 -0.186036 0
M  V30 11768 H 1054.11 3.48644 1.71404 0
M  V30 11769 H 1055.78 4.56521 -0.662302 0
M  V30 11770 H 1054.02 4.28254 -0.691426 0
M  V30 11771 H 1054.69 5.50612 0.391201 0
M  V30 11772 H 1057.17 3.89875 1.45385 0
M  V30 11773 H 1056.04 4.97101 2.32769 0
M  V30 11774 H 1056.3 3.33267 2.90492 0
M  V30 11775 N 1055.36 -0.161842 1.56767 0
M  V30 11776 C 1056.33 -1.18404 1.96247 0
M  V30 11777 C 1057.33 -1.3667 0.84722 0
M  V30 11778 O 1058.52 -1.33915 1.11411 0
M  V30 11779 C 1055.65 -2.54728 2.26553 0
M  V30 11780 H 1056.84 -0.845703 2.87729 0
M  V30 11781 H 1054.39 -0.404645 1.50971 0
M  V30 11782 H 1055.13 -2.93559 1.37816 0
M  V30 11783 H 1054.91 -2.42834 3.07854 0
M  V30 11784 H 1056.4 -3.28378 2.57987 0
M  V30 11785 N 1056.84 -1.516 -0.430713 0
M  V30 11786 C 1058.09 -1.6484 -1.18134 0
M  V30 11787 C 1058.42 -0.366725 -1.90706 0
M  V30 11788 O 1057.7 0.63398 -1.83878 0
M  V30 11789 C 1057.98 -2.85617 -2.19306 0
M  V30 11790 C 1057.83 -4.23778 -1.50773 0
M  V30 11791 C 1059.15 -3.01909 -3.20217 0
M  V30 11792 H 1056.27 -0.599907 -0.428113 0
M  V30 11793 H 1058.91 -1.84102 -0.46973 0
M  V30 11794 H 1057.06 -2.69325 -2.79993 0
M  V30 11795 H 1058.73 -4.51752 -0.93371 0
M  V30 11796 H 1056.98 -4.26171 -0.809966 0
M  V30 11797 H 1057.65 -5.04291 -2.24487 0
M  V30 11798 H 1060.12 -3.16956 -2.69589 0
M  V30 11799 H 1059 -3.87968 -3.88293 0
M  V30 11800 H 1059.26 -2.1427 -3.86705 0
M  V30 11801 N 1058.32 0.686584 -1.41858 0
M  V30 11802 C 1059.27 1.80038 -1.44413 0
M  V30 11803 C 1060.24 1.63415 -0.297427 0
M  V30 11804 O 1061.42 1.84138 -0.499789 0
M  V30 11805 C 1058.56 3.17988 -1.34082 0
M  V30 11806 C 1057.67 3.45979 -2.58693 0
M  V30 11807 C 1056.81 4.73592 -2.4059 0
M  V30 11808 C 1055.85 4.94581 -3.60633 0
M  V30 11809 N 1054.99 6.13426 -3.41545 0
M  V30 11810 H 1059.83 1.77189 -2.396 0
M  V30 11811 H 1057.36 0.865158 -1.18968 0
M  V30 11812 H 1059.32 3.97689 -1.26092 0
M  V30 11813 H 1057.95 3.1999 -0.424975 0
M  V30 11814 H 1057 2.60617 -2.77097 0
M  V30 11815 H 1058.31 3.57386 -3.47961 0
M  V30 11816 H 1057.47 5.61364 -2.30119 0
M  V30 11817 H 1056.21 4.64448 -1.48794 0
M  V30 11818 H 1055.21 4.05254 -3.71549 0
M  V30 11819 H 1056.44 5.05578 -4.53395 0
M  V30 11820 H 1054.38 6.05477 -2.52456 0
M  V30 11821 H 1054.3 6.25641 -4.24393 0
M  V30 11822 H 1055.57 7.03908 -3.34864 0
M  V30 11823 N 1059.8 1.27835 0.921735 0
M  V30 11824 C 1061.05 1.13904 1.6646 0
M  V30 11825 C 1061.36 -0.313379 1.93073 0
M  V30 11826 O 1062.57 -0.573687 2.6537 0
M  V30 11827 C 1061.02 1.99064 2.99836 0
M  V30 11828 C 1060.63 3.48998 2.80899 0
M  V30 11829 C 1062.37 1.93797 3.77681 0
M  V30 11830 C 1060.28 4.26337 4.09867 0
M  V30 11831 H 1059.21 0.422681 0.624385 0
M  V30 11832 H 1061.86 1.52303 1.02352 0
M  V30 11833 H 1060.24 1.53514 3.65034 0
M  V30 11834 H 1061.42 4.02452 2.24431 0
M  V30 11835 H 1059.73 3.55707 2.16476 0
M  V30 11836 H 1062.33 2.48852 4.73262 0
M  V30 11837 H 1062.67 0.912928 4.06167 0
M  V30 11838 H 1063.21 2.37275 3.19289 0
M  V30 11839 H 1059.94 5.2939 3.86557 0
M  V30 11840 H 1059.46 3.77659 4.65976 0
M  V30 11841 H 1061.14 4.3583 4.78185 0
M  V30 11842 N 1061.28 -1.12907 1.09954 0
M  V30 11843 C 1062.52 -1.83661 0.833761 0
M  V30 11844 C 1062.84 -1.84736 -0.642798 0
M  V30 11845 O 1064.04 -2.51437 -1.0243 0
M  V30 11846 C 1062.5 -3.29763 1.44168 0
M  V30 11847 C 1062.11 -3.3706 2.95118 0
M  V30 11848 C 1063.85 -4.05522 1.25509 0
M  V30 11849 C 1061.76 -4.77467 3.48969 0
M  V30 11850 H 1060.69 -0.688115 0.308242 0
M  V30 11851 H 1063.34 -1.27166 1.32291 0
M  V30 11852 H 1061.72 -3.86094 0.880215 0
M  V30 11853 H 1062.9 -2.90695 3.57537 0
M  V30 11854 H 1061.21 -2.7477 3.12874 0
M  V30 11855 H 1063.81 -5.09188 1.63191 0
M  V30 11856 H 1064.15 -4.15837 0.196208 0
M  V30 11857 H 1064.68 -3.55536 1.78435 0
M  V30 11858 H 1061.42 -4.72344 4.54501 0
M  V30 11859 H 1060.94 -5.24305 2.91315 0
M  V30 11860 H 1062.62 -5.46397 3.46495 0
M  V30 11861 N 1062.75 -0.88754 -1.30232 0
M  V30 11862 C 1064.17 -0.581904 -1.48614 0
M  V30 11863 C 1064.37 0.879711 -1.81282 0
M  V30 11864 O 1063.43 1.66076 -1.90198 0
M  V30 11865 C 1064.74 -1.49726 -2.60773 0
M  V30 11866 C 1066.29 -1.50117 -2.74653 0
M  V30 11867 C 1066.76 -2.40251 -3.89927 0
M  V30 11868 N 1068.25 -2.38229 -3.97242 0
M  V30 11869 C 1068.99 -3.04682 -4.85754 0
M  V30 11870 N 1068.48 -3.80369 -5.79043 0
M  V30 11871 N 1070.28 -2.93901 -4.79144 0
M  V30 11872 H 1062.43 -1.83304 -1.073 0
M  V30 11873 H 1064.69 -0.78477 -0.531826 0
M  V30 11874 H 1064.4 -2.5381 -2.43462 0
M  V30 11875 H 1064.27 -1.20874 -3.57308 0
M  V30 11876 H 1066.66 -0.467832 -2.91368 0
M  V30 11877 H 1066.74 -1.83001 -1.7873 0
M  V30 11878 H 1066.38 -3.43671 -3.73969 0
M  V30 11879 H 1066.31 -2.04682 -4.85194 0
M  V30 11880 H 1068.8 -1.83229 -3.30508 0
M  V30 11881 H 1069.12 -4.28159 -6.4335 0
M  V30 11882 H 1067.46 -3.84477 -5.78967 0
M  V30 11883 H 1070.65 -2.34296 -4.05245 0
M  V30 11884 H 1070.83 -3.45967 -5.47915 0
M  V30 11885 N 1064.23 1.43628 -0.648757 0
M  V30 11886 C 1065.18 2.32529 0.057536 0
M  V30 11887 C 1066.17 1.48358 0.817699 0
M  V30 11888 O 1067.38 1.64595 0.728605 0
M  V30 11889 H 1063.76 0.75107 0.037388 0
M  V30 11890 H 1065.73 2.89829 -0.710062 0
M  V30 11891 C 1064.48 3.32605 1.01336 0
M  V30 11892 H 1063.8 3.97395 0.437855 0
M  V30 11893 H 1065.24 3.97453 1.47672 0
M  V30 11894 C 1063.7 2.62865 2.10722 0
M  V30 11895 O 1064.23 2.4408 3.19042 0
M  V30 11896 N 1062.43 2.22312 1.87152 0
M  V30 11897 H 1061.98 2.3779 0.990644 0
M  V30 11898 H 1061.94 1.75979 2.60536 0
M  V30 11899 N 1065.71 0.390394 1.52688 0
M  V30 11900 C 1066.66 -0.4591 2.28024 0
M  V30 11901 C 1067.65 -1.06212 1.31967 0
M  V30 11902 O 1068.86 -1.00247 1.49501 0
M  V30 11903 H 1065.23 -0.16681 0.733266 0
M  V30 11904 H 1067.2 0.197747 2.97744 0
M  V30 11905 C 1065.95 -1.5737 3.10048 0
M  V30 11906 H 1065.28 -1.11901 3.83821 0
M  V30 11907 H 1066.72 -2.1423 3.65898 0
M  V30 11908 C 1065.18 -2.53036 2.22429 0
M  V30 11909 O 1065.71 -3.5647 1.85181 0
M  V30 11910 N 1063.91 -2.22802 1.86567 0
M  V30 11911 H 1063.46 -1.38723 2.17057 0
M  V30 11912 H 1063.42 -2.87061 1.28233 0
M  V30 11913 N 1067.19 -1.57141 0.120249 0
M  V30 11914 C 1068.1 -2.18925 -0.843155 0
M  V30 11915 C 1069.11 -1.16575 -1.29175 0
M  V30 11916 O 1070.29 -1.4905 -1.35448 0
M  V30 11917 C 1067.36 -2.7775 -2.075 0
M  V30 11918 C 1066.42 -3.95139 -1.6782 0
M  V30 11919 C 1065.65 -4.51149 -2.85132 0
M  V30 11920 O 1065.87 -4.06056 -4.00593 0
M  V30 11921 O 1064.81 -5.41815 -2.62145 0
M  V30 11922 H 1068.63 -3.01707 -0.347357 0
M  V30 11923 H 1066.22 -1.49028 -0.105427 0
M  V30 11924 H 1068.1 -3.15243 -2.79643 0
M  V30 11925 H 1066.77 -1.97998 -2.56083 0
M  V30 11926 H 1065.68 -3.62412 -0.927807 0
M  V30 11927 H 1067.01 -4.7633 -1.23977 0
M  V30 11928 N 1068.67 0.153526 -1.5685 0
M  V30 11929 C 1069.6 1.19162 -2.00805 0
M  V30 11930 C 1070.58 1.45172 -0.886518 0
M  V30 11931 O 1071.76 1.56203 -1.15387 0
M  V30 11932 C 1068.89 2.52637 -2.38311 0
M  V30 11933 C 1067.85 2.41161 -3.53589 0
M  V30 11934 C 1067.17 3.79287 -3.76889 0
M  V30 11935 C 1068.47 1.90122 -4.86468 0
M  V30 11936 H 1070.17 0.82617 -2.87776 0
M  V30 11937 H 1067.71 0.395972 -1.38449 0
M  V30 11938 H 1069.67 3.25478 -2.6766 0
M  V30 11939 H 1068.39 2.91005 -1.4827 0
M  V30 11940 H 1067.05 1.70772 -3.24395 0
M  V30 11941 H 1066.7 4.15079 -2.84109 0
M  V30 11942 H 1066.4 3.72472 -4.54465 0
M  V30 11943 H 1067.92 4.53687 -4.08657 0
M  V30 11944 H 1069.33 2.52752 -5.14577 0
M  V30 11945 H 1067.73 1.94214 -5.67804 0
M  V30 11946 H 1068.8 0.856517 -4.77275 0
M  V30 11947 N 1070.14 1.51827 0.422667 0
M  V30 11948 C 1071.08 1.68901 1.53453 0
M  V30 11949 C 1072.06 0.536549 1.53492 0
M  V30 11950 O 1073.24 0.762226 1.72402 0
M  V30 11951 C 1070.37 1.71599 2.92013 0
M  V30 11952 C 1069.41 2.92984 3.0994 0
M  V30 11953 S 1070.25 4.53559 2.84683 0
M  V30 11954 C 1071.4 4.59024 4.25498 0
M  V30 11955 H 1071.63 2.62943 1.38739 0
M  V30 11956 H 1069.17 1.41695 0.613347 0
M  V30 11957 H 1071.13 1.73838 3.71874 0
M  V30 11958 H 1069.79 0.787083 3.04079 0
M  V30 11959 H 1068.98 2.91315 4.1128 0
M  V30 11960 H 1068.58 2.88562 2.37924 0
M  V30 11961 H 1070.87 4.35567 5.18929 0
M  V30 11962 H 1071.82 5.60904 4.32195 0
M  V30 11963 H 1072.22 3.88193 4.09837 0
M  V30 11964 N 1071.62 -0.679052 1.4222 0
M  V30 11965 C 1072.55 -1.80455 1.41311 0
M  V30 11966 C 1073.57 -1.59767 0.312799 0
M  V30 11967 O 1074.76 -1.68964 0.575612 0
M  V30 11968 C 1071.86 -3.17492 1.18541 0
M  V30 11969 C 1071.03 -3.65066 2.40926 0
M  V30 11970 C 1070.09 -4.80823 2.13765 0
M  V30 11971 O 1069.11 -4.91587 2.86934 0
M  V30 11972 N 1070.32 -5.69233 1.13813 0
M  V30 11973 H 1073.08 -1.81722 2.38322 0
M  V30 11974 H 1070.64 -0.861988 1.37045 0
M  V30 11975 H 1072.63 -3.92581 0.982958 0
M  V30 11976 H 1071.2 -3.1115 0.300691 0
M  V30 11977 H 1070.42 -2.80702 2.76767 0
M  V30 11978 H 1071.71 -3.93593 3.22431 0
M  V30 11979 H 1071.11 -5.63185 0.532887 0
M  V30 11980 H 1069.67 -6.44152 0.995554 0
M  V30 11981 N 1073.1 -1.28322 -0.914942 0
M  V30 11982 C 1074.05 -1.12146 -2.01722 0
M  V30 11983 C 1075.02 -0.0189279 -1.66089 0
M  V30 11984 O 1076.2 -0.183638 -1.89914 0
M  V30 11985 C 1073.34 -0.78808 -3.35981 0
M  V30 11986 C 1072.46 -1.96954 -3.84491 0
M  V30 11987 C 1071.59 -1.57688 -5.07255 0
M  V30 11988 C 1070.63 -2.72506 -5.48094 0
M  V30 11989 N 1069.77 -2.33741 -6.62049 0
M  V30 11990 H 1074.61 -2.06461 -2.1489 0
M  V30 11991 H 1072.14 -1.0276 -1.05256 0
M  V30 11992 H 1074.1 -0.575546 -4.13211 0
M  V30 11993 H 1072.73 0.118132 -3.22584 0
M  V30 11994 H 1071.78 -2.29423 -3.03429 0
M  V30 11995 H 1073.1 -2.8304 -4.10719 0
M  V30 11996 H 1072.25 -1.32634 -5.92025 0
M  V30 11997 H 1070.99 -0.687291 -4.82833 0
M  V30 11998 H 1069.99 -2.9826 -4.61867 0
M  V30 11999 H 1071.22 -3.62106 -5.74505 0
M  V30 12000 H 1069.16 -1.4725 -6.3926 0
M  V30 12001 H 1069.08 -3.13364 -6.87997 0
M  V30 12002 H 1070.35 -2.11968 -7.50127 0
M  V30 12003 N 1074.58 1.12322 -1.10551 0
M  V30 12004 C 1075.81 1.87679 -0.87087 0
M  V30 12005 C 1076.22 1.79711 0.578733 0
M  V30 12006 O 1075.58 1.17185 1.39907 0
M  V30 12007 C 1075.63 3.36846 -1.31213 0
M  V30 12008 O 1075.35 3.44626 -2.70489 0
M  V30 12009 C 1076.85 4.29138 -1.11156 0
M  V30 12010 H 1074.07 0.593788 -0.3125 0
M  V30 12011 H 1076.62 1.42116 -1.47048 0
M  V30 12012 H 1074.77 3.79948 -0.756169 0
M  V30 12013 H 1075.18 4.37441 -2.89389 0
M  V30 12014 H 1076.66 5.32082 -1.46944 0
M  V30 12015 H 1077.14 4.39171 -0.0502963 0
M  V30 12016 H 1077.74 3.91818 -1.65405 0
M  V30 12017 N 1076.06 0.894434 1.2976 0
M  V30 12018 C 1077.3 0.516646 1.95385 0
M  V30 12019 C 1077.63 -0.939141 1.70895 0
M  V30 12020 O 1076.9 -1.66153 1.03778 0
M  V30 12021 H 1075.48 0.188072 0.722937 0
M  V30 12022 H 1078.14 1.13958 1.58113 0
M  V30 12023 H 1077.23 0.694819 3.04267 0
M  V30 12024 N 1077.53 -1.43282 0.656365 0
M  V30 12025 C 1078.46 -2.33492 -0.0196962 0
M  V30 12026 C 1079.45 -1.49647 -0.80868 0
M  V30 12027 O 1080.63 -1.78303 -0.769529 0
M  V30 12028 C 1077.76 -3.33052 -0.984574 0
M  V30 12029 C 1076.71 -4.26908 -0.305483 0
M  V30 12030 C 1076.04 -5.16531 -1.38202 0
M  V30 12031 C 1077.34 -5.16073 0.804081 0
M  V30 12032 H 1079.03 -2.90272 0.733661 0
M  V30 12033 H 1076.58 -1.39574 0.354259 0
M  V30 12034 H 1078.53 -3.9506 -1.46647 0
M  V30 12035 H 1077.26 -2.74535 -1.76913 0
M  V30 12036 H 1075.92 -3.66268 0.155995 0
M  V30 12037 H 1075.56 -4.54351 -2.1581 0
M  V30 12038 H 1075.26 -5.80148 -0.932878 0
M  V30 12039 H 1076.79 -5.81414 -1.86522 0
M  V30 12040 H 1078.2 -5.71873 0.404212 0
M  V30 12041 H 1076.6 -5.88427 1.17789 0
M  V30 12042 H 1077.67 -4.55574 1.66073 0
M  V30 12043 N 1079.01 -0.398486 -1.52479 0
M  V30 12044 C 1079.96 0.432212 -2.26717 0
M  V30 12045 C 1080.93 1.05007 -1.28696 0
M  V30 12046 O 1082.12 1.07636 -1.57541 0
M  V30 12047 C 1079.26 1.54868 -3.08399 0
M  V30 12048 C 1078.37 0.952779 -4.21362 0
M  V30 12049 C 1077.5 2.04106 -4.90423 0
M  V30 12050 C 1076.54 1.42153 -5.95364 0
M  V30 12051 N 1075.68 2.44951 -6.57984 0
M  V30 12052 H 1080.52 -0.207303 -2.97278 0
M  V30 12053 H 1078.06 -0.114066 -1.46657 0
M  V30 12054 H 1080.01 2.20684 -3.54054 0
M  V30 12055 H 1078.64 2.15837 -2.4003 0
M  V30 12056 H 1077.7 0.183962 -3.79955 0
M  V30 12057 H 1079.01 0.460131 -4.96673 0
M  V30 12058 H 1078.16 2.77672 -5.39429 0
M  V30 12059 H 1076.9 2.56733 -4.14656 0
M  V30 12060 H 1075.91 0.671161 -5.45688 0
M  V30 12061 H 1077.13 0.903093 -6.73068 0
M  V30 12062 H 1075.08 2.9673 -5.85053 0
M  V30 12063 H 1074.99 2.00468 -7.28937 0
M  V30 12064 H 1076.26 3.18119 -7.11632 0
M  V30 12065 N 1080.49 1.57075 -0.12858 0
M  V30 12066 C 1081.4 2.19369 0.831533 0
M  V30 12067 C 1082.42 1.17258 1.28555 0
M  V30 12068 O 1083.59 1.49766 1.34656 0
M  V30 12069 C 1080.66 2.78846 2.06024 0
M  V30 12070 C 1079.72 3.96024 1.65722 0
M  V30 12071 C 1078.95 4.52655 2.82735 0
M  V30 12072 O 1079.18 4.08175 3.98434 0
M  V30 12073 O 1078.11 5.43198 2.59268 0
M  V30 12074 H 1081.94 3.01887 0.331352 0
M  V30 12075 H 1079.52 1.49081 0.0975226 0
M  V30 12076 H 1081.4 3.16721 2.77967 0
M  V30 12077 H 1080.08 1.99353 2.5503 0
M  V30 12078 H 1078.98 3.62899 0.908574 0
M  V30 12079 H 1080.32 4.76981 1.21449 0
M  V30 12080 N 1081.97 -0.145205 1.5693 0
M  V30 12081 C 1082.9 -1.18096 2.01434 0
M  V30 12082 C 1083.88 -1.447 0.894204 0
M  V30 12083 O 1085.07 -1.55589 1.16214 0
M  V30 12084 C 1082.2 -2.51369 2.39647 0
M  V30 12085 C 1081.15 -2.39283 3.54863 0
M  V30 12086 C 1080.48 -3.77283 3.78895 0
M  V30 12087 C 1081.78 -1.8754 4.87469 0
M  V30 12088 H 1083.47 -0.810897 2.8821 0
M  V30 12089 H 1081.02 -0.388624 1.38657 0
M  V30 12090 H 1082.97 -3.24054 2.69382 0
M  V30 12091 H 1081.69 -2.90214 1.49811 0
M  V30 12092 H 1080.35 -1.6905 3.25296 0
M  V30 12093 H 1080 -4.13567 2.86307 0
M  V30 12094 H 1079.7 -3.70057 4.56433 0
M  V30 12095 H 1081.22 -4.51514 4.11057 0
M  V30 12096 H 1082.64 -2.50019 5.1591 0
M  V30 12097 H 1081.03 -1.912 5.68826 0
M  V30 12098 H 1082.1 -0.831194 4.77723 0
M  V30 12099 N 1083.45 -1.52049 -0.414609 0
M  V30 12100 C 1084.36 -1.7788 -1.52958 0
M  V30 12101 C 1085.37 -0.66408 -1.60829 0
M  V30 12102 O 1086.55 -0.948882 -1.77646 0
M  V30 12103 C 1083.61 -1.91906 -2.88744 0
M  V30 12104 C 1082.68 -3.15803 -2.90804 0
M  V30 12105 C 1081.91 -3.29151 -4.20114 0
M  V30 12106 O 1082.13 -2.47892 -5.13718 0
M  V30 12107 O 1081.07 -4.2227 -4.28919 0
M  V30 12108 H 1084.89 -2.72506 -1.34067 0
M  V30 12109 H 1082.48 -1.36826 -0.599918 0
M  V30 12110 H 1084.36 -2.02986 -3.6929 0
M  V30 12111 H 1083.03 -1.00468 -3.07714 0
M  V30 12112 H 1081.94 -3.10185 -2.09131 0
M  V30 12113 H 1083.27 -4.07004 -2.76783 0
M  V30 12114 N 1084.93 0.6715 -1.42579 0
M  V30 12115 C 1086.17 1.43154 -1.43224 0
M  V30 12116 C 1086.5 1.94436 -0.0498695 0
M  V30 12117 O 1085.76 1.71521 0.942282 0
M  V30 12118 C 1086.05 2.64256 -2.40632 0
M  V30 12119 C 1085.72 2.31497 -3.86937 0
M  V30 12120 C 1084.38 2.22274 -4.26788 0
M  V30 12121 C 1086.73 2.04957 -4.7921 0
M  V30 12122 C 1084.06 1.84642 -5.56888 0
M  V30 12123 C 1086.41 1.68828 -6.09656 0
M  V30 12124 C 1085.08 1.58118 -6.48502 0
M  V30 12125 H 1084.35 0.523838 -0.524094 0
M  V30 12126 H 1087 0.765363 -1.7554 0
M  V30 12127 H 1085.3 3.35921 -2.01654 0
M  V30 12128 H 1087 3.22443 -2.38394 0
M  V30 12129 H 1083.59 2.39578 -3.55387 0
M  V30 12130 H 1087.77 2.11014 -4.49207 0
M  V30 12131 H 1083.03 1.74921 -5.85843 0
M  V30 12132 H 1087.2 1.47319 -6.8064 0
M  V30 12133 H 1084.83 1.28728 -7.49222 0
M  V30 12134 N 1086.4 1.28806 0.908124 0
M  V30 12135 C 1087.33 1.15758 2.02787 0
M  V30 12136 C 1088.31 0.053911 1.70015 0
M  V30 12137 O 1089.5 0.231901 1.9281 0
M  V30 12138 C 1086.63 0.824526 3.37371 0
M  V30 12139 C 1085.58 1.88359 3.84324 0
M  V30 12140 C 1084.91 1.40404 5.15937 0
M  V30 12141 C 1086.21 3.29108 4.05568 0
M  V30 12142 H 1087.9 2.09431 2.13961 0
M  V30 12143 H 1085.45 1.00831 1.02806 0
M  V30 12144 H 1087.4 0.71999 4.15204 0
M  V30 12145 H 1086.13 -0.147902 3.26265 0
M  V30 12146 H 1084.79 1.97736 3.087 0
M  V30 12147 H 1084.43 0.420515 5.01239 0
M  V30 12148 H 1084.13 2.11224 5.48323 0
M  V30 12149 H 1085.66 1.31283 5.9632 0
M  V30 12150 H 1087.07 3.2262 4.73909 0
M  V30 12151 H 1085.47 3.97812 4.49294 0
M  V30 12152 H 1086.54 3.72709 3.10187 0
M  V30 12153 N 1087.88 -1.11734 1.11145 0
M  V30 12154 C 1088.83 -2.17683 0.766979 0
M  V30 12155 C 1089.8 -1.64051 -0.260108 0
M  V30 12156 O 1090.98 -1.90302 -0.137723 0
M  V30 12157 C 1088.12 -3.44442 0.212982 0
M  V30 12158 C 1087.24 -4.12094 1.29626 0
M  V30 12159 C 1086.37 -5.26526 0.703127 0
M  V30 12160 C 1085.41 -5.86057 1.76647 0
M  V30 12161 N 1084.55 -6.91889 1.19306 0
M  V30 12162 H 1089.39 -2.46495 1.67465 0
M  V30 12163 H 1086.92 -1.21011 0.836353 0
M  V30 12164 H 1088.88 -4.17009 -0.126162 0
M  V30 12165 H 1087.51 -3.16025 -0.657888 0
M  V30 12166 H 1086.56 -3.37631 1.75241 0
M  V30 12167 H 1087.88 -4.52398 2.10089 0
M  V30 12168 H 1087.03 -6.05888 0.313859 0
M  V30 12169 H 1085.77 -4.87519 -0.132856 0
M  V30 12170 H 1084.77 -5.05375 2.16508 0
M  V30 12171 H 1086 -6.27132 2.60543 0
M  V30 12172 H 1083.95 -6.54906 0.378664 0
M  V30 12173 H 1083.86 -7.30832 1.93443 0
M  V30 12174 H 1085.13 -7.75062 0.830578 0
M  V30 12175 N 1089.36 -0.901303 -1.29284 0
M  V30 12176 C 1090.31 -0.378666 -2.27672 0
M  V30 12177 C 1091.28 0.540102 -1.57074 0
M  V30 12178 O 1092.46 0.464997 -1.85047 0
M  V30 12179 C 1089.6 0.38635 -3.42931 0
M  V30 12180 C 1088.71 -0.563496 -4.28309 0
M  V30 12181 C 1087.85 0.218731 -5.30749 0
M  V30 12182 C 1086.89 -0.725536 -6.07785 0
M  V30 12183 N 1086.03 0.0223854 -7.02096 0
M  V30 12184 H 1090.87 -1.22277 -2.71758 0
M  V30 12185 H 1088.4 -0.614302 -1.33659 0
M  V30 12186 H 1090.36 0.845967 -4.08533 0
M  V30 12187 H 1088.99 1.1949 -2.9987 0
M  V30 12188 H 1088.04 -1.14163 -3.62865 0
M  V30 12189 H 1089.35 -1.28623 -4.81931 0
M  V30 12190 H 1088.51 0.739473 -6.02177 0
M  V30 12191 H 1087.25 0.97459 -4.77863 0
M  V30 12192 H 1086.25 -1.25776 -5.3522 0
M  V30 12193 H 1087.48 -1.48075 -6.6276 0
M  V30 12194 H 1085.42 0.760482 -6.51577 0
M  V30 12195 H 1085.34 -0.640408 -7.53283 0
M  V30 12196 H 1086.61 0.523339 -7.77741 0
M  V30 12197 N 1090.84 1.42931 -0.663954 0
M  V30 12198 C 1091.77 2.33499 0.00731327 0
M  V30 12199 C 1092.75 1.50074 0.800733 0
M  V30 12200 O 1093.93 1.78708 0.760062 0
M  V30 12201 C 1091.06 3.33569 0.966897 0
M  V30 12202 C 1090.02 4.27064 0.282839 0
M  V30 12203 C 1089.34 5.17257 1.35461 0
M  V30 12204 C 1090.64 5.1564 -0.831438 0
M  V30 12205 H 1092.34 2.89879 -0.749044 0
M  V30 12206 H 1089.88 1.39385 -0.361656 0
M  V30 12207 H 1091.84 3.95833 1.44549 0
M  V30 12208 H 1090.56 2.75469 1.75455 0
M  V30 12209 H 1089.22 3.6618 -0.175417 0
M  V30 12210 H 1088.87 4.5549 2.13397 0
M  V30 12211 H 1088.57 5.80634 0.902098 0
M  V30 12212 H 1090.09 5.82395 1.83436 0
M  V30 12213 H 1091.51 5.71651 -0.434534 0
M  V30 12214 H 1089.9 5.87794 -1.20908 0
M  V30 12215 H 1090.97 4.54687 -1.68487 0
M  V30 12216 N 1092.32 0.406567 1.52266 0
M  V30 12217 C 1093.26 -0.43489 2.28498 0
M  V30 12218 C 1094.26 -1.04806 1.33086 0
M  V30 12219 O 1095.46 -0.986557 1.50556 0
M  V30 12220 H 1091.84 -0.159023 0.734994 0
M  V30 12221 H 1093.81 0.229316 2.97518 0
M  V30 12222 C 1092.56 -1.54073 3.117 0
M  V30 12223 H 1091.88 -1.07824 3.84986 0
M  V30 12224 H 1093.32 -2.10337 3.6815 0
M  V30 12225 C 1091.78 -2.50662 2.251 0
M  V30 12226 O 1092.31 -3.54486 1.88951 0
M  V30 12227 N 1090.52 -2.20811 1.8892 0
M  V30 12228 H 1090.06 -1.36413 2.18516 0
M  V30 12229 H 1090.02 -2.85684 1.3127 0
M  V30 12230 N 1093.79 -1.57004 0.136909 0
M  V30 12231 C 1095.07 -1.87375 -0.561233 0
M  V30 12232 C 1095.45 -1.04117 -1.83638 0
M  V30 12233 O 1094.8 -0.125103 -2.28157 0
M  V30 12234 C 1095.01 -3.38829 -0.836426 0
M  V30 12235 C 1096.36 -4.07826 -1.18164 0
M  V30 12236 O 1097.38 -3.4395 -0.92611 0
M  V30 12237 O 1096.24 -5.20614 -1.66204 0
M  V30 12238 H 1093.33 -0.776287 -0.285145 0
M  V30 12239 H 1095.88 -1.68818 0.172761 0
M  V30 12240 H 1094.65 -3.91244 0.066442 0
M  V30 12241 H 1094.28 -3.62879 -1.62496 0
M  V30 12242 N 1095.27 0.136881 -1.57004 0
M  V30 12243 C 1096.24 1.15267 -1.98106 0
M  V30 12244 C 1097.24 1.35305 -0.868856 0
M  V30 12245 O 1098.43 1.32126 -1.13527 0
M  V30 12246 C 1095.56 2.51092 -2.30577 0
M  V30 12247 H 1096.75 0.799821 -2.89038 0
M  V30 12248 H 1094.3 0.380576 -1.51596 0
M  V30 12249 H 1095.04 2.9133 -1.42469 0
M  V30 12250 H 1094.82 2.37906 -3.11678 0
M  V30 12251 H 1096.31 3.24232 -2.63179 0
M  V30 12252 N 1096.75 1.52266 0.40654 0
M  V30 12253 C 1098.03 1.57018 1.1664 0
M  V30 12254 C 1098.41 0.352752 2.08132 0
M  V30 12255 O 1097.76 -0.660208 2.18754 0
M  V30 12256 C 1097.97 2.90016 1.94143 0
M  V30 12257 C 1099.31 3.43112 2.50119 0
M  V30 12258 O 1100.34 2.91773 2.0432 0
M  V30 12259 O 1099.2 4.32765 3.33731 0
M  V30 12260 H 1096.29 0.632574 0.532709 0
M  V30 12261 H 1098.84 1.64595 0.413111 0
M  V30 12262 H 1097.61 3.70071 1.27134 0
M  V30 12263 H 1097.23 2.85744 2.76471 0
M  V30 12264 N 1098.23 -0.663929 1.42933 0
M  V30 12265 C 1099.64 -1.24484 1.39143 0
M  V30 12266 C 1099.99 -1.95993 0.0901142 0
M  V30 12267 O 1099.12 -2.00636 -0.810812 0
M  V30 12268 C 1099.71 -2.26402 2.52047 0
M  V30 12269 C 1098.27 -2.79995 2.51555 0
M  V30 12270 C 1097.42 -1.54475 2.30289 0
M  V30 12271 H 1100.37 -0.456619 1.51989 0
M  V30 12272 H 1100.39 -3.08361 2.22921 0
M  V30 12273 H 1099.9 -1.74328 3.46744 0
M  V30 12274 H 1098 -3.36161 1.60707 0
M  V30 12275 H 1098.11 -3.2827 3.48964 0
M  V30 12276 H 1096.48 -1.81437 1.78753 0
M  V30 12277 H 1097.26 -1.04351 3.27056 0
M  V30 12278 N 1099.71 -1.29285 -0.901281 0
M  V30 12279 C 1100.98 -1.07847 -1.63182 0
M  V30 12280 C 1101.36 0.377927 -2.07689 0
M  V30 12281 O 1100.71 1.36642 -1.83143 0
M  V30 12282 C 1100.92 -2.06457 -2.81383 0
M  V30 12283 C 1102.27 -2.37289 -3.52107 0
M  V30 12284 O 1103.29 -2.0464 -2.91549 0
M  V30 12285 O 1102.15 -2.93067 -4.61274 0
M  V30 12286 H 1099.25 -0.413073 -0.71645 0
M  V30 12287 H 1101.79 -1.40651 -0.949488 0
M  V30 12288 H 1100.56 -3.04561 -2.4568 0
M  V30 12289 H 1100.19 -1.74374 -3.57323 0
M  V30 12290 N 1101.18 1.11143 -1.11736 0
M  V30 12291 C 1102.46 1.79384 -0.779785 0
M  V30 12292 C 1102.84 1.98015 0.731668 0
M  V30 12293 O 1102.19 1.56731 1.66276 0
M  V30 12294 C 1102.4 3.12868 -1.54643 0
M  V30 12295 C 1103.75 3.8786 -1.7277 0
M  V30 12296 O 1104.77 3.22566 -1.51094 0
M  V30 12297 O 1103.63 5.05034 -2.08813 0
M  V30 12298 H 1100.72 0.777128 -0.282845 0
M  V30 12299 H 1103.27 1.17858 -1.22096 0
M  V30 12300 H 1102.04 2.94682 -2.57446 0
M  V30 12301 H 1101.67 3.82109 -1.09901 0
M  V30 12302 N 1102.66 0.908147 1.28804 0
M  V30 12303 C 1103.61 0.390734 2.27468 0
M  V30 12304 C 1104.58 -0.531765 1.57358 0
M  V30 12305 O 1105.76 -0.455177 1.85291 0
M  V30 12306 C 1102.9 -0.368159 3.43131 0
M  V30 12307 C 1102.02 0.586202 4.28004 0
M  V30 12308 C 1101.15 -0.190581 5.30858 0
M  V30 12309 C 1100.19 0.757758 6.07391 0
M  V30 12310 N 1099.33 0.0148488 7.02098 0
M  V30 12311 H 1104.17 1.23717 2.71105 0
M  V30 12312 H 1101.71 0.621382 1.33331 0
M  V30 12313 H 1103.66 -0.824289 4.08976 0
M  V30 12314 H 1102.29 -1.17898 3.00499 0
M  V30 12315 H 1101.35 1.16086 3.62254 0
M  V30 12316 H 1102.66 1.31177 4.81242 0
M  V30 12317 H 1101.81 -0.707528 6.0256 0
M  V30 12318 H 1100.55 -0.949234 4.78373 0
M  V30 12319 H 1099.56 1.28613 5.34545 0
M  V30 12320 H 1100.78 1.51588 6.61965 0
M  V30 12321 H 1098.73 -0.725916 6.51971 0
M  V30 12322 H 1098.64 0.680347 7.52932 0
M  V30 12323 H 1099.91 -0.482086 7.78008 0
M  V30 12324 N 1104.14 -1.42577 0.671525 0
M  V30 12325 C 1105.39 -2.01584 0.192431 0
M  V30 12326 C 1105.72 -1.53076 -1.19992 0
M  V30 12327 O 1104.97 -0.722196 -1.81887 0
M  V30 12328 C 1105.27 -3.56985 0.172097 0
M  V30 12329 C 1104.94 -4.24912 1.50867 0
M  V30 12330 C 1103.6 -4.43182 1.87464 0
M  V30 12331 C 1105.95 -4.6322 2.38908 0
M  V30 12332 C 1103.28 -4.97031 3.11732 0
M  V30 12333 C 1105.63 -5.18447 3.62485 0
M  V30 12334 C 1104.29 -5.34932 3.99255 0
M  V30 12335 H 1103.56 -0.737647 0.0704155 0
M  V30 12336 H 1106.21 -1.70807 0.865862 0
M  V30 12337 H 1104.52 -3.87411 -0.584835 0
M  V30 12338 H 1106.21 -4.00419 -0.215749 0
M  V30 12339 H 1102.8 -4.11048 1.21397 0
M  V30 12340 H 1106.99 -4.4878 2.1192 0
M  V30 12341 H 1102.24 -5.07979 3.40246 0
M  V30 12342 H 1106.42 -5.47075 4.30909 0
M  V30 12343 H 1104.04 -5.76422 4.95623 0
M  V30 12344 N 1105.62 -0.414636 -1.52048 0
M  V30 12345 C 1106.57 0.42561 -2.23992 0
M  V30 12346 C 1107.55 1.00894 -1.25337 0
M  V30 12347 O 1108.74 0.930842 -1.50547 0
M  V30 12348 C 1105.87 1.53874 -3.06884 0
M  V30 12349 C 1104.96 0.965913 -4.12954 0
M  V30 12350 N 1105.35 0.12023 -5.05657 0
M  V30 12351 C 1103.65 1.23586 -4.28535 0
M  V30 12352 C 1104.35 -0.199063 -5.81359 0
M  V30 12353 N 1103.33 0.411505 -5.4204 0
M  V30 12354 H 1107.13 -0.226746 -2.93024 0
M  V30 12355 H 1104.64 -0.225376 -1.60829 0
M  V30 12356 H 1106.64 2.15334 -3.56983 0
M  V30 12357 H 1105.3 2.19366 -2.39392 0
M  V30 12358 H 1106.31 -0.244501 -5.17323 0
M  V30 12359 H 1102.99 1.88995 -3.72273 0
M  V30 12360 H 1104.38 -0.88585 -6.66035 0
M  V30 12361 N 1107.1 1.56929 -0.145233 0
M  V30 12362 C 1108.34 1.97959 0.509092 0
M  V30 12363 C 1108.7 1.02813 1.62153 0
M  V30 12364 O 1109.9 1.3288 2.33659 0
M  V30 12365 C 1108.17 3.43012 1.00388 0
M  V30 12366 S 1109.73 4.06064 1.66305 0
M  V30 12367 H 1106.55 0.69167 0.164663 0
M  V30 12368 H 1109.15 1.94064 -0.236529 0
M  V30 12369 H 1107.86 4.0999 0.183454 0
M  V30 12370 H 1107.39 3.50615 1.78417 0
M  V30 12371 H 1109.4 3.98971 2.9502 0
M  V30 12372 N 1108.58 -0.128553 1.57075 0
M  V30 12373 C 1109.51 -1.15953 2.02675 0
M  V30 12374 C 1110.49 -1.43743 0.909501 0
M  V30 12375 O 1111.67 -1.54348 1.17857 0
M  V30 12376 C 1108.8 -2.48813 2.423 0
M  V30 12377 C 1107.76 -2.35506 3.57381 0
M  V30 12378 C 1107.08 -3.73243 3.82875 0
M  V30 12379 C 1108.38 -1.82359 4.89431 0
M  V30 12380 H 1110.08 -0.780283 2.89054 0
M  V30 12381 H 1107.62 -0.373896 1.39061 0
M  V30 12382 H 1109.57 -3.21179 2.72804 0
M  V30 12383 H 1108.3 -2.88609 1.52881 0
M  V30 12384 H 1106.96 -1.6559 3.27071 0
M  V30 12385 H 1106.61 -4.10507 2.90677 0
M  V30 12386 H 1106.31 -3.65195 4.60333 0
M  V30 12387 H 1107.83 -4.47128 4.15823 0
M  V30 12388 H 1109.24 -2.44533 5.18533 0
M  V30 12389 H 1107.64 -1.85156 5.70822 0
M  V30 12390 H 1108.71 -0.780478 4.78578 0
M  V30 12391 N 1110.05 -1.5248 -0.398459 0
M  V30 12392 C 1111.47 -1.4152 -0.737854 0
M  V30 12393 C 1111.67 -0.528122 -1.94456 0
M  V30 12394 O 1110.73 0.00203799 -2.525 0
M  V30 12395 C 1112.04 -2.8422 -0.9818 0
M  V30 12396 C 1113.59 -2.93635 -1.08386 0
M  V30 12397 C 1114.06 -4.37327 -1.3605 0
M  V30 12398 N 1115.55 -4.40609 -1.42892 0
M  V30 12399 C 1116.29 -5.48863 -1.65944 0
M  V30 12400 N 1115.78 -6.67217 -1.86529 0
M  V30 12401 N 1117.58 -5.36393 -1.68046 0
M  V30 12402 H 1109.73 -2.08681 0.395705 0
M  V30 12403 H 1111.99 -0.941023 0.114801 0
M  V30 12404 H 1111.7 -3.51302 -0.167358 0
M  V30 12405 H 1111.57 -3.25907 -1.89907 0
M  V30 12406 H 1113.96 -2.26728 -1.88888 0
M  V30 12407 H 1114.04 -2.5539 -0.144714 0
M  V30 12408 H 1113.68 -5.04797 -0.56061 0
M  V30 12409 H 1113.61 -4.73116 -2.31233 0
M  V30 12410 H 1116.1 -3.55298 -1.2873 0
M  V30 12411 H 1116.42 -7.45498 -2.03599 0
M  V30 12412 H 1114.76 -6.70263 -1.83773 0
M  V30 12413 H 1117.95 -4.42903 -1.51509 0
M  V30 12414 H 1118.13 -6.2083 -1.85672 0
M  V30 12415 N 1111.53 0.65634 -1.43283 0
M  V30 12416 C 1112.46 1.78101 -1.51004 0
M  V30 12417 C 1113.44 1.66138 -0.36498 0
M  V30 12418 O 1114.63 1.85281 -0.581778 0
M  V30 12419 C 1111.76 3.16511 -1.42961 0
M  V30 12420 C 1110.71 3.43233 -2.55685 0
M  V30 12421 C 1110.04 4.81411 -2.32696 0
M  V30 12422 C 1111.34 3.38288 -3.97943 0
M  V30 12423 H 1113.03 1.71896 -2.45137 0
M  V30 12424 H 1110.58 0.825575 -1.17984 0
M  V30 12425 H 1112.53 3.94941 -1.46968 0
M  V30 12426 H 1111.25 3.23439 -0.45332 0
M  V30 12427 H 1109.91 2.67173 -2.51026 0
M  V30 12428 H 1109.56 4.85011 -1.33317 0
M  V30 12429 H 1109.26 5.00251 -3.08257 0
M  V30 12430 H 1110.79 5.62102 -2.38481 0
M  V30 12431 H 1112.2 4.06659 -4.04106 0
M  V30 12432 H 1110.6 3.68664 -4.73505 0
M  V30 12433 H 1111.67 2.36525 -4.23301 0
M  V30 12434 N 1113.01 1.29761 0.894412 0
M  V30 12435 C 1114.26 1.18039 1.64539 0
M  V30 12436 C 1114.58 -0.26697 1.92659 0
M  V30 12437 O 1113.84 -1.20865 1.53916 0
M  V30 12438 C 1114.14 1.94458 2.99868 0
M  V30 12439 C 1113.8 3.44143 2.91336 0
M  V30 12440 C 1112.47 3.84963 2.88716 0
M  V30 12441 C 1114.82 4.39503 2.80154 0
M  V30 12442 C 1112.15 5.19451 2.72741 0
M  V30 12443 C 1114.5 5.74088 2.65718 0
M  V30 12444 C 1113.16 6.14159 2.61467 0
M  V30 12445 H 1112.43 0.431936 0.60209 0
M  V30 12446 H 1115.08 1.60758 1.04063 0
M  V30 12447 H 1113.38 1.44346 3.64241 0
M  V30 12448 H 1115.08 1.82788 3.56917 0
M  V30 12449 H 1111.67 3.11699 2.9418 0
M  V30 12450 H 1115.86 4.08915 2.81251 0
M  V30 12451 H 1111.11 5.49602 2.67858 0
M  V30 12452 H 1115.29 6.47625 2.56038 0
M  V30 12453 H 1112.91 7.18317 2.48847 0
M  V30 12454 N 1114.49 -1.10549 1.12324 0
M  V30 12455 C 1115.9 -1.34508 0.85905 0
M  V30 12456 C 1116.1 -1.94901 -0.511468 0
M  V30 12457 O 1115.16 -2.18793 -1.2604 0
M  V30 12458 C 1116.47 -2.26788 1.97453 0
M  V30 12459 C 1118.02 -2.40328 2.00528 0
M  V30 12460 C 1118.5 -3.35936 3.11305 0
M  V30 12461 N 1119.99 -3.43504 3.1074 0
M  V30 12462 C 1120.72 -4.17449 3.93096 0
M  V30 12463 N 1120.22 -4.9429 4.85437 0
M  V30 12464 N 1122.01 -4.13055 3.81237 0
M  V30 12465 H 1114.16 -0.697171 2.00632 0
M  V30 12466 H 1116.42 -0.369548 0.873005 0
M  V30 12467 H 1116.13 -1.89621 2.96204 0
M  V30 12468 H 1116 -3.27086 1.87869 0
M  V30 12469 H 1118.39 -2.76765 1.02397 0
M  V30 12470 H 1118.47 -1.39849 2.14186 0
M  V30 12471 H 1118.12 -3.00225 4.09667 0
M  V30 12472 H 1118.05 -4.36291 2.94886 0
M  V30 12473 H 1120.54 -2.88702 2.43843 0
M  V30 12474 H 1120.85 -5.48109 5.4479 0
M  V30 12475 H 1119.2 -4.93419 4.89452 0
M  V30 12476 H 1122.39 -3.52117 3.08433 0
M  V30 12477 H 1122.56 -4.70424 4.45651 0
M  V30 12478 N 1115.97 -0.914965 -1.28321 0
M  V30 12479 C 1116.92 -0.375436 -2.24888 0
M  V30 12480 C 1117.9 0.51313 -1.52498 0
M  V30 12481 O 1119.09 0.352654 -1.73451 0
M  V30 12482 C 1116.22 0.382266 -3.41165 0
M  V30 12483 C 1115.31 -0.522089 -4.20874 0
M  V30 12484 N 1115.7 -1.63623 -4.78603 0
M  V30 12485 C 1114 -0.322703 -4.44831 0
M  V30 12486 C 1114.7 -2.19766 -5.38589 0
M  V30 12487 N 1113.67 -1.48878 -5.22816 0
M  V30 12488 H 1117.47 -1.2263 -2.67094 0
M  V30 12489 H 1114.99 -0.767759 -1.43106 0
M  V30 12490 H 1116.99 0.785641 -4.0943 0
M  V30 12491 H 1115.65 1.23021 -3.00493 0
M  V30 12492 H 1116.66 -2.01879 -4.76933 0
M  V30 12493 H 1113.33 0.485627 -4.14666 0
M  V30 12494 H 1114.72 -3.13494 -5.94282 0
M  V30 12495 N 1117.44 1.42219 -0.679077 0
M  V30 12496 C 1118.69 2.01479 -0.203119 0
M  V30 12497 C 1119.02 1.5371 1.19178 0
M  V30 12498 O 1118.27 0.731832 1.81501 0
M  V30 12499 C 1118.57 3.56889 -0.191027 0
M  V30 12500 C 1118.24 4.24106 -1.53118 0
M  V30 12501 C 1116.9 4.42182 -1.89812 0
M  V30 12502 C 1119.25 4.61946 -2.41361 0
M  V30 12503 C 1116.58 4.95371 -3.14364 0
M  V30 12504 C 1118.93 5.16518 -3.65229 0
M  V30 12505 C 1117.6 5.32807 -4.02086 0
M  V30 12506 H 1116.87 0.737263 -0.0743264 0
M  V30 12507 H 1119.51 1.70346 -0.874908 0
M  V30 12508 H 1117.82 3.87715 0.564282 0
M  V30 12509 H 1119.52 4.00528 0.194511 0
M  V30 12510 H 1116.11 4.10399 -1.23575 0
M  V30 12511 H 1120.29 4.4765 -2.14297 0
M  V30 12512 H 1115.55 5.06167 -3.42935 0
M  V30 12513 H 1119.72 5.44782 -4.33804 0
M  V30 12514 H 1117.35 5.73785 -4.98673 0
M  V30 12515 N 1118.92 0.422693 1.51826 0
M  V30 12516 C 1120.15 -0.14753 2.06073 0
M  V30 12517 C 1120.56 -1.38264 1.2915 0
M  V30 12518 O 1119.9 -1.8052 0.340306 0
M  V30 12519 C 1119.96 -0.549558 3.55275 0
M  V30 12520 C 1119.63 0.576704 4.53347 0
M  V30 12521 C 1120.63 1.44442 4.99432 0
M  V30 12522 C 1118.31 0.753264 4.9662 0
M  V30 12523 C 1120.3 2.47352 5.87448 0
M  V30 12524 C 1117.99 1.78566 5.84429 0
M  V30 12525 C 1118.99 2.64419 6.29739 0
M  V30 12526 O 1118.68 3.65888 7.15808 0
M  V30 12527 H 1118.41 -0.0178911 0.675763 0
M  V30 12528 H 1120.96 0.596258 1.96555 0
M  V30 12529 H 1119.19 -1.34583 3.62525 0
M  V30 12530 H 1120.88 -1.04925 3.92104 0
M  V30 12531 H 1121.65 1.31948 4.66706 0
M  V30 12532 H 1117.53 0.0946405 4.60903 0
M  V30 12533 H 1121.07 3.14397 6.22736 0
M  V30 12534 H 1116.97 1.91086 6.16568 0
M  V30 12535 H 1117.74 3.62294 7.33952 0
M  V30 12536 N 1120.4 -1.5685 0.153553 0
M  V30 12537 C 1121.35 -2.13671 -0.795526 0
M  V30 12538 C 1122.33 -1.06624 -1.20499 0
M  V30 12539 O 1123.53 -1.32788 -1.17032 0
M  V30 12540 C 1120.65 -2.76704 -2.03199 0
M  V30 12541 C 1119.74 -3.90884 -1.64532 0
M  V30 12542 N 1120.13 -4.96466 -0.96723 0
M  V30 12543 C 1118.43 -4.01713 -1.93759 0
M  V30 12544 C 1119.13 -5.76453 -0.779527 0
M  V30 12545 N 1118.11 -5.27444 -1.31544 0
M  V30 12546 H 1121.91 -2.92673 -0.268288 0
M  V30 12547 H 1119.42 -1.6233 -0.0477596 0
M  V30 12548 H 1121.42 -3.15777 -2.72196 0
M  V30 12549 H 1120.08 -1.99177 -2.56434 0
M  V30 12550 H 1121.09 -5.14087 -0.627253 0
M  V30 12551 H 1117.77 -3.3527 -2.48797 0
M  V30 12552 H 1119.16 -6.71455 -0.244604 0
M  V30 12553 N 1121.88 0.120221 -1.57141 0
M  V30 12554 C 1122.82 1.14751 -2.00252 0
M  V30 12555 C 1123.79 1.41217 -0.874462 0
M  V30 12556 O 1124.98 1.53104 -1.13859 0
M  V30 12557 C 1122.12 2.46923 -2.41087 0
M  V30 12558 C 1121.23 2.27403 -3.67303 0
M  V30 12559 C 1120.37 3.52797 -3.97125 0
M  V30 12560 C 1119.41 3.28429 -5.16528 0
M  V30 12561 N 1118.54 4.46022 -5.42226 0
M  V30 12562 H 1123.38 0.772884 -2.87803 0
M  V30 12563 H 1120.92 0.370137 -1.42367 0
M  V30 12564 H 1122.88 3.24025 -2.62799 0
M  V30 12565 H 1121.51 2.82281 -1.5658 0
M  V30 12566 H 1120.56 1.41224 -3.53214 0
M  V30 12567 H 1121.87 2.05373 -4.54558 0
M  V30 12568 H 1121.03 4.38318 -4.19479 0
M  V30 12569 H 1119.77 3.77857 -3.08343 0
M  V30 12570 H 1118.77 2.41299 -4.94019 0
M  V30 12571 H 1120 3.0474 -6.06886 0
M  V30 12572 H 1117.94 4.71205 -4.56401 0
M  V30 12573 H 1117.86 4.27092 -6.23802 0
M  V30 12574 H 1119.13 5.3268 -5.69098 0
M  V30 12575 N 1123.36 1.52689 0.390367 0
M  V30 12576 C 1124.29 1.73622 1.49626 0
M  V30 12577 C 1125.3 0.616682 1.50668 0
M  V30 12578 O 1126.49 0.892341 1.54595 0
M  V30 12579 C 1123.59 1.77859 2.88477 0
M  V30 12580 C 1122.76 3.07146 3.11416 0
M  V30 12581 C 1121.82 3.02949 4.30242 0
M  V30 12582 O 1120.85 3.76816 4.26613 0
M  V30 12583 N 1122.05 2.22039 5.36357 0
M  V30 12584 H 1124.82 2.69037 1.32057 0
M  V30 12585 H 1122.38 1.51159 0.579867 0
M  V30 12586 H 1124.37 1.72559 3.66067 0
M  V30 12587 H 1122.94 0.898367 2.99413 0
M  V30 12588 H 1122.16 3.25947 2.21703 0
M  V30 12589 H 1123.45 3.92637 3.23595 0
M  V30 12590 H 1122.84 1.6149 5.4216 0
M  V30 12591 H 1121.4 2.2258 6.12619 0
M  V30 12592 N 1124.83 -0.648732 1.43629 0
M  V30 12593 C 1125.78 -1.75473 1.45579 0
M  V30 12594 C 1126.77 -1.57611 0.323683 0
M  V30 12595 O 1127.96 -1.67646 0.56778 0
M  V30 12596 C 1125.09 -3.14083 1.38589 0
M  V30 12597 C 1124.18 -3.37477 2.56846 0
M  V30 12598 N 1124.57 -3.31322 3.82177 0
M  V30 12599 C 1122.86 -3.68212 2.51666 0
M  V30 12600 C 1123.57 -3.54921 4.60875 0
M  V30 12601 N 1122.54 -3.76951 3.91675 0
M  V30 12602 H 1126.34 -1.69146 2.40347 0
M  V30 12603 H 1123.86 -0.850566 1.38344 0
M  V30 12604 H 1125.85 -3.93374 1.38068 0
M  V30 12605 H 1124.51 -3.21588 0.448442 0
M  V30 12606 H 1125.53 -3.10633 4.144 0
M  V30 12607 H 1122.2 -3.82806 1.66631 0
M  V30 12608 H 1123.59 -3.55904 5.69897 0
M  V30 12609 N 1126.31 -1.30234 -0.887518 0
M  V30 12610 C 1127.24 -1.18969 -2.00919 0
M  V30 12611 C 1128.22 -0.080952 -1.69907 0
M  V30 12612 O 1129.41 -0.262546 -1.92417 0
M  V30 12613 C 1126.54 -0.878094 -3.36016 0
M  V30 12614 C 1125.49 -1.94449 -3.81279 0
M  V30 12615 C 1124.82 -1.48594 -5.13638 0
M  V30 12616 C 1126.12 -3.35519 -4.00281 0
M  V30 12617 H 1127.81 -2.12808 -2.10602 0
M  V30 12618 H 1125.36 -1.02454 -1.01189 0
M  V30 12619 H 1127.31 -0.785954 -4.14006 0
M  V30 12620 H 1126.04 0.0959779 -3.26459 0
M  V30 12621 H 1124.69 -2.02622 -3.05516 0
M  V30 12622 H 1124.34 -0.500204 -5.00507 0
M  V30 12623 H 1124.04 -2.19921 -5.44893 0
M  V30 12624 H 1125.57 -1.40754 -5.94156 0
M  V30 12625 H 1126.98 -3.30119 -4.68716 0
M  V30 12626 H 1125.38 -4.0491 -4.42909 0
M  V30 12627 H 1126.45 -3.77597 -3.04218 0
M  V30 12628 N 1127.79 1.09952 -1.12909 0
M  V30 12629 C 1129.03 1.83635 -0.897646 0
M  V30 12630 C 1129.39 1.83462 0.566179 0
M  V30 12631 O 1130.6 2.52748 0.914977 0
M  V30 12632 C 1128.87 3.26095 -1.46277 0
M  V30 12633 S 1130.43 4.16846 -1.37059 0
M  V30 12634 H 1127.24 0.633045 -0.32369 0
M  V30 12635 H 1129.85 1.32275 -1.43957 0
M  V30 12636 H 1128.55 3.23793 -2.52163 0
M  V30 12637 H 1128.08 3.82526 -0.918549 0
M  V30 12638 H 1130.1 4.94996 -0.345399 0
M  V30 12639 N 1129.27 0.921757 1.27833 0
M  V30 12640 C 1130.2 0.433466 2.29441 0
M  V30 12641 C 1131.18 -0.503133 1.62489 0
M  V30 12642 O 1132.36 -0.409156 1.89841 0
M  V30 12643 C 1129.49 -0.320029 3.45822 0
M  V30 12644 C 1128.45 0.528178 4.24728 0
M  V30 12645 C 1127.77 -0.354132 5.33526 0
M  V30 12646 C 1129.07 1.78959 4.90684 0
M  V30 12647 H 1130.77 1.28263 2.70535 0
M  V30 12648 H 1128.31 0.618197 1.30055 0
M  V30 12649 H 1130.27 -0.672526 4.15999 0
M  V30 12650 H 1128.99 -1.20317 3.0363 0
M  V30 12651 H 1127.65 0.863302 3.5629 0
M  V30 12652 H 1127.3 -1.23605 4.87576 0
M  V30 12653 H 1127 0.209855 5.87225 0
M  V30 12654 H 1128.52 -0.702333 6.06547 0
M  V30 12655 H 1129.94 1.50552 5.53179 0
M  V30 12656 H 1128.33 2.29661 5.54415 0
M  V30 12657 H 1129.4 2.51265 4.14721 0
M  V30 12658 N 1130.75 -1.41857 0.686609 0
M  V30 12659 C 1131.99 -2.01666 0.214118 0
M  V30 12660 C 1132.33 -1.5422 -1.18025 0
M  V30 12661 O 1131.6 -0.749482 -1.7948 0
M  V30 12662 C 1131.88 -3.59147 0.261841 0
M  V30 12663 C 1131.74 -4.16742 1.69251 0
M  V30 12664 C 1133.06 -4.38427 -0.383378 0
M  V30 12665 H 1130.17 -0.732724 0.0792785 0
M  V30 12666 H 1132.82 -1.68724 0.873633 0
M  V30 12667 H 1130.97 -3.87342 -0.29971 0
M  V30 12668 H 1132.64 -3.99456 2.30722 0
M  V30 12669 H 1130.88 -3.72124 2.2295 0
M  V30 12670 H 1131.55 -5.25894 1.6775 0
M  V30 12671 H 1134.03 -4.15992 0.0947701 0
M  V30 12672 H 1132.9 -5.4797 -0.319401 0
M  V30 12673 H 1133.17 -4.172 -1.46276 0
M  V30 12674 N 1132.22 -0.430739 -1.51599 0
M  V30 12675 C 1133.47 0.137929 -2.0203 0
M  V30 12676 C 1133.8 1.43287 -1.31526 0
M  V30 12677 O 1133.05 1.9121 -0.416814 0
M  V30 12678 C 1133.35 0.410694 -3.55032 0
M  V30 12679 C 1133.02 -0.797634 -4.43789 0
M  V30 12680 C 1131.68 -1.12902 -4.67768 0
M  V30 12681 C 1134.03 -1.60403 -4.95904 0
M  V30 12682 C 1131.36 -2.2676 -5.41107 0
M  V30 12683 C 1133.71 -2.73354 -5.70491 0
M  V30 12684 C 1132.38 -3.06955 -5.92735 0
M  V30 12685 H 1131.65 0.0504718 -0.739279 0
M  V30 12686 H 1134.29 -0.576585 -1.82614 0
M  V30 12687 H 1132.6 1.20703 -3.72744 0
M  V30 12688 H 1134.3 0.864006 -3.91581 0
M  V30 12689 H 1130.89 -0.529397 -4.25318 0
M  V30 12690 H 1135.07 -1.36122 -4.77268 0
M  V30 12691 H 1130.33 -2.53114 -5.56546 0
M  V30 12692 H 1134.5 -3.36213 -6.09864 0
M  V30 12693 H 1132.13 -3.95293 -6.49344 0
M  V30 12694 N 1133.7 1.56767 -0.161869 0
M  V30 12695 C 1134.61 2.21083 0.784814 0
M  V30 12696 C 1135.63 1.19959 1.26039 0
M  V30 12697 O 1136.8 1.52588 1.31449 0
M  V30 12698 C 1133.87 2.83153 2.00063 0
M  V30 12699 C 1132.93 3.9945 1.57285 0
M  V30 12700 C 1132.16 4.5855 2.7307 0
M  V30 12701 O 1132.39 4.16534 3.89686 0
M  V30 12702 O 1131.32 5.48575 2.47688 0
M  V30 12703 H 1135.15 3.02522 0.267243 0
M  V30 12704 H 1132.73 1.49255 0.0658783 0
M  V30 12705 H 1134.61 3.22546 2.71186 0
M  V30 12706 H 1133.29 2.04718 2.50744 0
M  V30 12707 H 1132.2 3.64745 0.831393 0
M  V30 12708 H 1133.53 4.7945 1.11304 0
M  V30 12709 N 1135.18 -0.111886 1.57202 0
M  V30 12710 C 1136.59 -0.668261 1.74331 0
M  V30 12711 C 1136.94 -1.79959 0.781609 0
M  V30 12712 O 1136.07 -2.16356 -0.043833 0
M  V30 12713 C 1136.66 -1.219 3.1611 0
M  V30 12714 C 1135.22 -1.7216 3.34721 0
M  V30 12715 C 1134.37 -0.624223 2.70183 0
M  V30 12716 H 1137.32 0.114081 1.58289 0
M  V30 12717 H 1137.34 -2.08858 3.18054 0
M  V30 12718 H 1136.85 -0.395381 3.86081 0
M  V30 12719 H 1134.95 -2.56976 2.69803 0
M  V30 12720 H 1135.07 -1.82615 4.42932 0
M  V30 12721 H 1133.43 -1.05958 2.31614 0
M  V30 12722 H 1134.21 0.188537 3.42782 0
M  V30 12723 N 1136.66 -1.52894 -0.382264 0
M  V30 12724 C 1137.59 -1.81122 -1.47367 0
M  V30 12725 C 1138.57 -0.663653 -1.56619 0
M  V30 12726 O 1139.75 -0.911898 -1.71459 0
M  V30 12727 C 1136.88 -1.98615 -2.84902 0
M  V30 12728 C 1135.84 -3.14328 -2.90485 0
M  V30 12729 C 1135.16 -3.17086 -4.30535 0
M  V30 12730 C 1136.46 -4.53263 -2.59519 0
M  V30 12731 H 1138.16 -2.72518 -1.23993 0
M  V30 12732 H 1135.7 -1.3113 -0.595049 0
M  V30 12733 H 1137.66 -2.16946 -3.61265 0
M  V30 12734 H 1136.38 -1.03915 -3.09628 0
M  V30 12735 H 1135.04 -2.95791 -2.16572 0
M  V30 12736 H 1134.69 -2.20055 -4.52311 0
M  V30 12737 H 1134.39 -3.94821 -4.3519 0
M  V30 12738 H 1135.91 -3.3758 -5.08795 0
M  V30 12739 H 1137.33 -4.71867 -3.25598 0
M  V30 12740 H 1135.72 -5.33115 -2.75514 0
M  V30 12741 H 1136.79 -4.59516 -1.54831 0
M  V30 12742 N 1138.14 0.641106 -1.43971 0
M  V30 12743 C 1139.36 1.43324 -1.4991 0
M  V30 12744 C 1139.79 1.87705 -0.121908 0
M  V30 12745 O 1139.15 1.58127 0.886875 0
M  V30 12746 C 1139.19 2.63637 -2.46025 0
M  V30 12747 O 1138.3 3.63123 -1.95488 0
M  V30 12748 H 1137.64 0.429252 -0.506595 0
M  V30 12749 H 1140.17 0.783427 -1.89007 0
M  V30 12750 H 1140.18 3.11304 -2.63731 0
M  V30 12751 H 1138.85 2.30678 -3.46064 0
M  V30 12752 H 1137.43 3.22332 -1.87501 0
M  V30 12753 N 1139.62 1.30703 0.880598 0
M  V30 12754 C 1140.55 1.11783 1.98947 0
M  V30 12755 C 1141.53 0.0242461 1.62582 0
M  V30 12756 O 1142.71 0.178641 1.87652 0
M  V30 12757 C 1139.84 0.705762 3.31265 0
M  V30 12758 C 1138.88 1.80084 3.86616 0
M  V30 12759 S 1139.72 3.40416 4.13373 0
M  V30 12760 C 1140.87 3.01122 5.48704 0
M  V30 12761 H 1141.11 2.05658 2.14691 0
M  V30 12762 H 1138.64 1.15067 1.02951 0
M  V30 12763 H 1140.6 0.474754 4.07745 0
M  V30 12764 H 1139.26 -0.213699 3.13372 0
M  V30 12765 H 1138.45 1.4649 4.82241 0
M  V30 12766 H 1138.05 1.98636 3.16891 0
M  V30 12767 H 1140.34 2.49355 6.29943 0
M  V30 12768 H 1141.29 3.95671 5.87239 0
M  V30 12769 H 1141.7 2.38865 5.11472 0
M  V30 12770 N 1141.09 -1.09351 1.1349 0
M  V30 12771 C 1142.04 -2.18099 0.808426 0
M  V30 12772 C 1143.04 -1.68099 -0.209571 0
M  V30 12773 O 1144.24 -1.79877 -0.0666417 0
M  V30 12774 H 1140.62 -0.711432 0.243658 0
M  V30 12775 H 1142.59 -2.42867 1.73373 0
M  V30 12776 C 1141.34 -3.46475 0.291615 0
M  V30 12777 H 1140.66 -3.85319 1.06627 0
M  V30 12778 H 1142.1 -4.23878 0.101616 0
M  V30 12779 C 1140.56 -3.22245 -0.982827 0
M  V30 12780 O 1141.09 -3.44947 -2.0585 0
M  V30 12781 N 1139.29 -2.75845 -0.914218 0
M  V30 12782 H 1138.84 -2.57571 -0.03872 0
M  V30 12783 H 1138.8 -2.60011 -1.76753 0
M  V30 12784 N 1142.57 -0.928524 -1.27343 0
M  V30 12785 C 1143.5 -0.445627 -2.29208 0
M  V30 12786 C 1144.48 0.494508 -1.62753 0
M  V30 12787 O 1145.67 0.399082 -1.90055 0
M  V30 12788 C 1142.8 0.301684 -3.45987 0
M  V30 12789 C 1141.75 -0.550695 -4.24442 0
M  V30 12790 C 1141.08 0.325833 -5.33706 0
M  V30 12791 C 1142.38 -1.81559 -4.89728 0
M  V30 12792 H 1144.07 -1.29696 -2.69851 0
M  V30 12793 H 1141.62 -0.625085 -1.29725 0
M  V30 12794 H 1143.57 0.650455 -4.1635 0
M  V30 12795 H 1142.29 1.18705 -3.04264 0
M  V30 12796 H 1140.95 -0.882185 -3.55827 0
M  V30 12797 H 1140.6 1.21018 -4.88225 0
M  V30 12798 H 1140.3 -0.240994 -5.87106 0
M  V30 12799 H 1141.83 0.670156 -6.06911 0
M  V30 12800 H 1143.24 -1.53483 -5.52373 0
M  V30 12801 H 1141.64 -2.32598 -5.53189 0
M  V30 12802 H 1142.71 -2.53461 -4.13383 0
M  V30 12803 N 1144.05 1.41491 -0.694123 0
M  V30 12804 C 1145.47 1.55358 -0.365532 0
M  V30 12805 C 1145.67 1.66994 1.12762 0
M  V30 12806 O 1144.72 1.64756 1.91342 0
M  V30 12807 C 1146.03 2.79352 -1.11279 0
M  V30 12808 C 1147.58 2.93147 -1.097 0
M  V30 12809 C 1148.06 4.20027 -1.82597 0
M  V30 12810 N 1149.55 4.26981 -1.7956 0
M  V30 12811 C 1150.28 5.24013 -2.32805 0
M  V30 12812 N 1149.78 6.27083 -2.94515 0
M  V30 12813 N 1151.57 5.15943 -2.23069 0
M  V30 12814 H 1143.72 1.32183 -1.66257 0
M  V30 12815 H 1145.99 0.637624 -0.701527 0
M  V30 12816 H 1145.69 2.76958 -2.16765 0
M  V30 12817 H 1145.57 3.70827 -0.690439 0
M  V30 12818 H 1147.95 2.95057 -0.0504037 0
M  V30 12819 H 1148.03 2.02849 -1.55839 0
M  V30 12820 H 1147.68 4.18878 -2.87235 0
M  V30 12821 H 1147.61 5.09294 -1.33893 0
M  V30 12822 H 1150.1 3.53129 -1.34567 0
M  V30 12823 H 1150.41 6.97511 -3.32714 0
M  V30 12824 H 1148.76 6.27589 -2.98592 0
M  V30 12825 H 1151.95 4.34346 -1.74532 0
M  V30 12826 H 1152.12 5.91396 -2.64868 0
M  V30 12827 N 1145.53 0.438773 1.51369 0
M  V30 12828 C 1146.44 -0.378074 2.31534 0
M  V30 12829 C 1147.45 -1.02632 1.40508 0
M  V30 12830 O 1148.63 -1.02138 1.73579 0
M  V30 12831 C 1145.69 -1.46374 3.14286 0
M  V30 12832 C 1144.76 -0.835473 4.21092 0
M  V30 12833 C 1143.99 -1.86941 4.99889 0
M  V30 12834 O 1144.21 -3.0918 4.79337 0
M  V30 12835 O 1143.15 -1.45914 5.83946 0
M  V30 12836 H 1146.97 0.276401 3.0244 0
M  V30 12837 H 1144.56 0.201281 1.48038 0
M  V30 12838 H 1146.44 -2.09335 3.65728 0
M  V30 12839 H 1145.11 -2.10227 2.46143 0
M  V30 12840 H 1144.02 -0.167775 3.73724 0
M  V30 12841 H 1145.35 -0.240406 4.91613 0
M  V30 12842 N 1147.01 -1.56678 0.170181 0
M  V30 12843 C 1148.25 -1.9714 -0.475767 0
M  V30 12844 C 1148.58 -1.05611 -1.62972 0
M  V30 12845 O 1147.86 -0.103017 -1.94227 0
M  V30 12846 C 1148.14 -3.47072 -0.959828 0
M  V30 12847 C 1148 -4.4938 0.194225 0
M  V30 12848 C 1149.31 -4.00071 -1.83387 0
M  V30 12849 H 1146.43 -0.716776 -0.171466 0
M  V30 12850 H 1149.08 -1.88266 0.256086 0
M  V30 12851 H 1147.23 -3.54766 -1.58346 0
M  V30 12852 H 1148.9 -4.53748 0.83128 0
M  V30 12853 H 1147.14 -4.25393 0.849893 0
M  V30 12854 H 1147.81 -5.51685 -0.186575 0
M  V30 12855 H 1150.29 -3.95002 -1.30815 0
M  V30 12856 H 1149.16 -5.05398 -2.14159 0
M  V30 12857 H 1149.42 -3.43819 -2.77923 0
M  V30 12858 N 1148.48 0.103547 -1.57259 0
M  V30 12859 C 1149.41 1.12714 -2.04494 0
M  V30 12860 C 1150.39 1.42278 -0.932255 0
M  V30 12861 O 1151.58 1.52453 -1.20298 0
M  V30 12862 C 1148.71 2.44927 -2.46228 0
M  V30 12863 C 1147.66 2.2979 -3.61082 0
M  V30 12864 C 1146.99 3.67105 -3.88765 0
M  V30 12865 C 1148.29 1.7455 -4.9227 0
M  V30 12866 H 1149.98 0.734198 -2.90258 0
M  V30 12867 H 1147.53 0.351725 -1.39638 0
M  V30 12868 H 1149.48 3.16798 -2.77879 0
M  V30 12869 H 1148.21 2.8614 -1.57453 0
M  V30 12870 H 1146.87 1.60366 -3.29664 0
M  V30 12871 H 1146.51 4.05831 -2.97171 0
M  V30 12872 H 1146.21 3.57825 -4.66084 0
M  V30 12873 H 1147.74 4.40456 -4.22884 0
M  V30 12874 H 1149.15 2.36253 -5.22358 0
M  V30 12875 H 1147.55 1.76051 -5.73695 0
M  V30 12876 H 1148.62 0.704242 -4.79759 0
M  V30 12877 N 1149.96 1.53094 0.37415 0
M  V30 12878 C 1150.91 1.78927 1.45787 0
M  V30 12879 C 1151.88 0.633187 1.53558 0
M  V30 12880 O 1153.06 0.874472 1.69581 0
M  V30 12881 C 1150.2 1.97726 2.8284 0
M  V30 12882 C 1149.32 3.25436 2.84104 0
M  V30 12883 C 1148.45 3.3447 4.12678 0
M  V30 12884 C 1147.49 4.56246 4.08051 0
M  V30 12885 N 1146.63 4.6248 5.28258 0
M  V30 12886 H 1151.47 2.71404 1.2306 0
M  V30 12887 H 1149 1.34453 0.596716 0
M  V30 12888 H 1150.96 2.06611 3.62447 0
M  V30 12889 H 1149.59 1.08593 3.03986 0
M  V30 12890 H 1148.64 3.25548 1.96781 0
M  V30 12891 H 1149.96 4.15112 2.76556 0
M  V30 12892 H 1149.11 3.4262 5.00696 0
M  V30 12893 H 1147.85 2.42795 4.22968 0
M  V30 12894 H 1146.85 4.48206 3.1842 0
M  V30 12895 H 1148.08 5.49254 3.99371 0
M  V30 12896 H 1146.03 3.73703 5.3915 0
M  V30 12897 H 1145.94 5.46049 5.22845 0
M  V30 12898 H 1147.21 4.74903 6.18132 0
M  V30 12899 N 1151.44 -0.633461 1.44309 0
M  V30 12900 C 1152.39 -1.74554 1.50995 0
M  V30 12901 C 1153.36 -1.62199 0.357873 0
M  V30 12902 O 1154.54 -1.82156 0.567787 0
M  V30 12903 C 1151.68 -3.12792 1.45791 0
M  V30 12904 C 1150.79 -3.3614 2.71356 0
M  V30 12905 C 1149.93 -4.64337 2.58002 0
M  V30 12906 C 1148.97 -4.80855 3.78741 0
M  V30 12907 N 1148.11 -6.00327 3.64077 0
M  V30 12908 H 1152.95 -1.68174 2.46011 0
M  V30 12909 H 1150.48 -0.820407 1.22097 0
M  V30 12910 H 1152.44 -3.92735 1.40765 0
M  V30 12911 H 1151.07 -3.18193 0.543445 0
M  V30 12912 H 1150.12 -2.50154 2.86579 0
M  V30 12913 H 1151.43 -3.44226 3.60985 0
M  V30 12914 H 1150.59 -5.52437 2.50795 0
M  V30 12915 H 1149.33 -4.58605 1.65929 0
M  V30 12916 H 1148.33 -3.91185 3.86334 0
M  V30 12917 H 1149.56 -4.88403 4.71847 0
M  V30 12918 H 1147.5 -5.9569 2.74754 0
M  V30 12919 H 1147.42 -6.09459 4.47321 0
M  V30 12920 H 1148.69 -6.90995 3.60758 0
M  V30 12921 N 1152.92 -1.31168 -0.873655 0
M  V30 12922 C 1154.15 -1.23416 -1.65686 0
M  V30 12923 C 1154.56 0.203534 -1.88102 0
M  V30 12924 O 1153.9 1.14476 -1.4367 0
M  V30 12925 C 1153.96 -1.90418 -3.04929 0
M  V30 12926 C 1153.63 -3.39757 -3.05637 0
M  V30 12927 C 1154.62 -4.35565 -2.83865 0
M  V30 12928 C 1152.31 -3.81389 -3.26875 0
M  V30 12929 C 1154.3 -5.70979 -2.83304 0
M  V30 12930 C 1151.99 -5.16918 -3.25943 0
M  V30 12931 C 1152.99 -6.11524 -3.04184 0
M  V30 12932 O 1152.67 -7.44575 -3.0309 0
M  V30 12933 H 1152.41 -0.4278 -0.523415 0
M  V30 12934 H 1154.96 -1.73525 -1.09902 0
M  V30 12935 H 1153.19 -1.34854 -3.62424 0
M  V30 12936 H 1154.88 -1.76631 -3.65453 0
M  V30 12937 H 1155.65 -4.0473 -2.67243 0
M  V30 12938 H 1151.52 -3.08187 -3.42844 0
M  V30 12939 H 1155.07 -6.44796 -2.66239 0
M  V30 12940 H 1150.97 -5.47389 -3.42104 0
M  V30 12941 H 1151.73 -7.53703 -3.19177 0
M  V30 12942 N 1154.4 1.08748 -1.14068 0
M  V30 12943 C 1155.64 1.80707 -0.904947 0
M  V30 12944 C 1155.97 1.86478 0.570167 0
M  V30 12945 O 1155.24 1.35536 1.41445 0
M  V30 12946 H 1153.82 0.669261 -0.331811 0
M  V30 12947 H 1156.48 1.31494 -1.43859 0
M  V30 12948 H 1155.57 2.83653 -1.30182 0
M  V30 12949 N 1155.87 0.935264 1.26849 0
M  V30 12950 C 1156.82 0.438896 2.26588 0
M  V30 12951 C 1157.79 -0.498267 1.5845 0
M  V30 12952 O 1158.98 -0.415771 1.86215 0
M  V30 12953 C 1156.12 -0.295293 3.43834 0
M  V30 12954 C 1155.23 0.676857 4.26665 0
M  V30 12955 C 1154.36 -0.0779349 5.31143 0
M  V30 12956 C 1153.4 0.886425 6.05648 0
M  V30 12957 N 1152.54 0.163771 7.01909 0
M  V30 12958 H 1157.38 1.29439 2.6842 0
M  V30 12959 H 1154.92 0.649523 1.31983 0
M  V30 12960 H 1156.88 -0.737354 4.10632 0
M  V30 12961 H 1155.51 -1.11497 3.02933 0
M  V30 12962 H 1154.56 1.23744 3.5971 0
M  V30 12963 H 1155.87 1.41355 4.78351 0
M  V30 12964 H 1155.02 -0.579557 6.03926 0
M  V30 12965 H 1153.76 -0.84755 4.80279 0
M  V30 12966 H 1152.77 1.39923 5.31697 0
M  V30 12967 H 1153.99 1.65595 6.58601 0
M  V30 12968 H 1151.94 -0.58746 6.53364 0
M  V30 12969 H 1151.86 0.839902 7.5132 0
M  V30 12970 H 1153.12 -0.316951 7.78855 0
M  V30 12971 N 1157.35 -1.41121 0.701616 0
M  V30 12972 C 1158.63 -1.9492 0.162911 0
M  V30 12973 C 1159.01 -1.64064 -1.32839 0
M  V30 12974 O 1158.36 -0.950848 -2.07777 0
M  V30 12975 C 1158.57 -3.45946 0.460673 0
M  V30 12976 C 1159.92 -4.22789 0.391706 0
M  V30 12977 O 1160.94 -3.53993 0.395931 0
M  V30 12978 O 1159.8 -5.45332 0.357071 0
M  V30 12979 H 1156.89 -0.826793 0.0185103 0
M  V30 12980 H 1159.44 -1.50805 0.778192 0
M  V30 12981 H 1158.21 -3.61711 1.49269 0
M  V30 12982 H 1157.83 -3.97168 -0.185277 0
M  V30 12983 N 1158.83 -0.446794 -1.51134 0
M  V30 12984 C 1160.08 0.116666 -2.02464 0
M  V30 12985 C 1160.41 1.41532 -1.32975 0
M  V30 12986 O 1159.68 1.89278 -0.447651 0
M  V30 12987 C 1159.97 0.325659 -3.58624 0
M  V30 12988 C 1159.82 -0.992307 -4.38718 0
M  V30 12989 C 1161.14 1.09121 -4.26357 0
M  V30 12990 H 1158.26 0.0409262 -0.735863 0
M  V30 12991 H 1160.9 -0.587641 -1.80684 0
M  V30 12992 H 1159.05 0.925585 -3.77313 0
M  V30 12993 H 1160.72 -1.62694 -4.31658 0
M  V30 12994 H 1158.97 -1.5947 -4.03425 0
M  V30 12995 H 1159.64 -0.800005 -5.46172 0
M  V30 12996 H 1162.11 0.582944 -4.11996 0
M  V30 12997 H 1160.99 1.20621 -5.35483 0
M  V30 12998 H 1161.25 2.12171 -3.87861 0
M  V30 12999 N 1160.31 1.56586 -0.178487 0
M  V30 13000 C 1161.56 1.96709 0.4637 0
M  V30 13001 C 1161.88 1.06586 1.63292 0
M  V30 13002 O 1161.15 0.133683 1.95443 0
M  V30 13003 H 1159.73 0.726381 0.174299 0
M  V30 13004 H 1162.39 1.9314 -0.261345 0
M  V30 13005 H 1161.49 3.01164 0.818934 0
M  V30 13006 N 1161.79 -0.095206 1.57312 0
M  V30 13007 C 1162.72 -1.11627 2.05089 0
M  V30 13008 C 1163.7 -1.41782 0.939787 0
M  V30 13009 O 1164.88 -1.51813 1.21105 0
M  V30 13010 C 1162.01 -2.43618 2.47523 0
M  V30 13011 C 1160.97 -2.27872 3.62296 0
M  V30 13012 C 1160.29 -3.65038 3.90706 0
M  V30 13013 C 1161.59 -1.71936 4.93189 0
M  V30 13014 H 1163.29 -0.718795 2.90644 0
M  V30 13015 H 1160.83 -0.344315 1.39823 0
M  V30 13016 H 1162.79 -3.1532 2.79556 0
M  V30 13017 H 1161.51 -2.85301 1.58968 0
M  V30 13018 H 1160.17 -1.58615 3.3051 0
M  V30 13019 H 1159.82 -4.04249 2.99319 0
M  V30 13020 H 1159.52 -3.55349 4.67976 0
M  V30 13021 H 1161.04 -4.38208 4.25213 0
M  V30 13022 H 1162.45 -2.33479 5.23603 0
M  V30 13023 H 1160.85 -1.73006 5.74621 0
M  V30 13024 H 1161.92 -0.678789 4.80125 0
M  V30 13025 N 1163.26 -1.53291 -0.366026 0
M  V30 13026 C 1164.21 -1.76077 -1.44847 0
M  V30 13027 C 1165.2 -0.615302 -1.4867 0
M  V30 13028 O 1166.39 -0.873952 -1.53919 0
M  V30 13029 C 1163.52 -1.95371 -2.82286 0
M  V30 13030 C 1162.61 -3.15918 -2.82943 0
M  V30 13031 N 1163 -4.37835 -2.53247 0
M  V30 13032 C 1161.29 -3.16631 -3.14103 0
M  V30 13033 C 1162 -5.19573 -2.6157 0
M  V30 13034 N 1160.97 -4.55773 -2.96263 0
M  V30 13035 H 1164.77 -2.67949 -1.2075 0
M  V30 13036 H 1162.29 -1.5191 -0.574206 0
M  V30 13037 H 1164.28 -2.09823 -3.6025 0
M  V30 13038 H 1162.94 -1.04727 -3.07347 0
M  V30 13039 H 1163.96 -4.65575 -2.26848 0
M  V30 13040 H 1160.63 -2.35878 -3.44482 0
M  V30 13041 H 1162.02 -6.26821 -2.41961 0
M  V30 13042 N 1164.74 0.6258 -1.44643 0
M  V30 13043 C 1165.99 1.38125 -1.46984 0
M  V30 13044 C 1166.3 1.95299 -0.108429 0
M  V30 13045 O 1167.51 2.71498 -0.00940005 0
M  V30 13046 C 1165.97 2.50108 -2.58793 0
M  V30 13047 C 1165.57 1.99424 -4.01166 0
M  V30 13048 C 1167.32 3.27269 -2.70361 0
M  V30 13049 C 1165.23 3.08781 -5.04389 0
M  V30 13050 H 1164.16 0.519083 -0.546872 0
M  V30 13051 H 1166.81 0.67268 -1.70726 0
M  V30 13052 H 1165.19 3.23565 -2.28302 0
M  V30 13053 H 1166.36 1.32797 -4.4125 0
M  V30 13054 H 1164.68 1.35063 -3.93887 0
M  V30 13055 H 1167.27 4.08802 -3.44652 0
M  V30 13056 H 1167.62 3.77097 -1.76362 0
M  V30 13057 H 1168.15 2.60905 -3.00289 0
M  V30 13058 H 1164.89 2.63891 -6.00035 0
M  V30 13059 H 1164.41 3.74033 -4.68892 0
M  V30 13060 H 1166.09 3.73469 -5.28328 0
M  V30 13061 N 1166.22 1.31629 0.866686 0
M  V30 13062 C 1167.17 1.19556 1.97421 0
M  V30 13063 C 1168.14 0.0805578 1.65905 0
M  V30 13064 O 1169.32 0.253997 1.89102 0
M  V30 13065 C 1166.46 0.912234 3.32825 0
M  V30 13066 C 1165.58 2.11088 3.76916 0
M  V30 13067 C 1164.71 1.76406 5.01053 0
M  V30 13068 C 1163.75 2.9266 5.37602 0
M  V30 13069 N 1162.89 2.58152 6.52918 0
M  V30 13070 H 1167.73 2.14294 2.0708 0
M  V30 13071 H 1165.26 1.06595 1.0137 0
M  V30 13072 H 1167.22 0.72851 4.1079 0
M  V30 13073 H 1165.85 0.00167404 3.228 0
M  V30 13074 H 1164.9 2.40527 2.94705 0
M  V30 13075 H 1166.22 2.98089 3.99931 0
M  V30 13076 H 1165.37 1.54515 5.86694 0
M  V30 13077 H 1164.11 0.866018 4.79949 0
M  V30 13078 H 1163.11 3.15196 4.50479 0
M  V30 13079 H 1164.34 3.83179 5.6067 0
M  V30 13080 H 1162.28 1.70874 6.33355 0
M  V30 13081 H 1162.2 3.38682 6.75892 0
M  V30 13082 H 1163.47 2.39662 7.41743 0
M  V30 13083 N 1167.7 -1.08142 1.14644 0
M  V30 13084 C 1168.66 -2.13308 0.83859 0
M  V30 13085 C 1169.66 -1.60022 -0.158012 0
M  V30 13086 O 1170.85 -1.74057 0.0706621 0
M  V30 13087 C 1167.98 -3.39978 0.250591 0
M  V30 13088 H 1169.18 -2.42049 1.77066 0
M  V30 13089 H 1166.73 -1.23899 0.952828 0
M  V30 13090 H 1167.47 -3.16873 -0.690064 0
M  V30 13091 H 1167.25 -3.79952 0.968456 0
M  V30 13092 H 1168.74 -4.17567 0.0525115 0
M  V30 13093 N 1169.18 -0.941978 -1.26351 0
M  V30 13094 C 1170.42 -0.590845 -1.94002 0
M  V30 13095 C 1170.76 0.868004 -1.73722 0
M  V30 13096 O 1170.03 1.62111 -1.07472 0
M  V30 13097 C 1170.31 -0.934901 -3.47752 0
M  V30 13098 C 1170.17 -2.44855 -3.77314 0
M  V30 13099 C 1171.49 -0.450888 -4.37784 0
M  V30 13100 H 1168.61 -0.21613 -0.704597 0
M  V30 13101 H 1171.25 -1.17634 -1.49205 0
M  V30 13102 H 1169.4 -0.436648 -3.86038 0
M  V30 13103 H 1171.07 -3.01959 -3.48738 0
M  V30 13104 H 1169.31 -2.89169 -3.23363 0
M  V30 13105 H 1169.98 -2.6398 -4.84787 0
M  V30 13106 H 1172.46 -0.878107 -4.06729 0
M  V30 13107 H 1171.34 -0.720439 -5.44152 0
M  V30 13108 H 1171.6 0.649162 -4.37308 0
M  V30 13109 N 1170.66 1.40747 -0.709091 0
M  V30 13110 C 1172.07 1.54961 -0.381989 0
M  V30 13111 C 1172.27 1.68181 1.10985 0
M  V30 13112 O 1171.33 1.66776 1.89584 0
M  V30 13113 C 1172.64 2.78156 -1.14236 0
M  V30 13114 C 1174.19 2.91967 -1.12803 0
M  V30 13115 C 1174.66 4.18066 -1.87042 0
M  V30 13116 N 1176.15 4.25052 -1.84078 0
M  V30 13117 C 1176.89 5.21514 -2.38349 0
M  V30 13118 N 1176.39 6.23924 -3.01149 0
M  V30 13119 N 1178.18 5.13548 -2.28528 0
M  V30 13120 H 1170.33 1.30412 -1.6765 0
M  V30 13121 H 1172.59 0.630147 -0.70825 0
M  V30 13122 H 1172.3 2.74643 -2.19691 0
M  V30 13123 H 1172.17 3.70074 -0.729731 0
M  V30 13124 H 1174.56 2.94987 -0.0816956 0
M  V30 13125 H 1174.64 2.01185 -1.57982 0
M  V30 13126 H 1174.28 4.15808 -2.91662 0
M  V30 13127 H 1174.21 5.07845 -1.39287 0
M  V30 13128 H 1176.71 3.51682 -1.38305 0
M  V30 13129 H 1177.02 6.93942 -3.40094 0
M  V30 13130 H 1175.36 6.24387 -3.05231 0
M  V30 13131 H 1178.55 4.3247 -1.79129 0
M  V30 13132 H 1178.73 5.88553 -2.71126 0
M  V30 13133 N 1172.13 0.454803 1.50895 0
M  V30 13134 C 1173.36 -0.106259 2.07128 0
M  V30 13135 C 1173.78 -1.3418 1.31823 0
M  V30 13136 O 1173.14 -1.77667 0.361147 0
M  V30 13137 C 1173.19 -0.389609 3.58489 0
M  V30 13138 O 1172.29 -1.47305 3.85195 0
M  V30 13139 H 1171.63 0.00580588 0.663975 0
M  V30 13140 H 1174.16 0.641163 1.94294 0
M  V30 13141 H 1174.17 -0.634934 4.03029 0
M  V30 13142 H 1172.85 0.513338 4.1272 0
M  V30 13143 H 1171.43 -1.21631 3.52506 0
M  V30 13144 N 1173.61 -1.56489 0.186789 0
M  V30 13145 C 1174.84 -2.01429 -0.459326 0
M  V30 13146 C 1175.25 -1.06611 -1.56303 0
M  V30 13147 O 1174.59 -0.0617053 -1.83596 0
M  V30 13148 C 1174.65 -3.42778 -1.08367 0
M  V30 13149 C 1174.32 -4.56843 -0.119719 0
M  V30 13150 C 1175.32 -5.15594 0.667782 0
M  V30 13151 C 1173 -5.02299 -0.0110494 0
M  V30 13152 C 1174.99 -6.18242 1.551 0
M  V30 13153 C 1172.68 -6.04793 0.875738 0
M  V30 13154 C 1173.68 -6.62637 1.65534 0
M  V30 13155 O 1173.37 -7.63141 2.52728 0
M  V30 13156 H 1173.1 -0.665175 -0.120492 0
M  V30 13157 H 1175.65 -2.03338 0.290283 0
M  V30 13158 H 1173.88 -3.3783 -1.8817 0
M  V30 13159 H 1175.57 -3.71577 -1.63357 0
M  V30 13160 H 1176.34 -4.81348 0.594085 0
M  V30 13161 H 1172.22 -4.56977 -0.607667 0
M  V30 13162 H 1175.76 -6.63319 2.15995 0
M  V30 13163 H 1171.66 -6.38462 0.950581 0
M  V30 13164 H 1172.43 -7.80527 2.46415 0
M  V30 13165 N 1175.09 0.086862 -1.5736 0
M  V30 13166 C 1176.31 0.806017 -1.91097 0
M  V30 13167 C 1176.74 1.71082 -0.78183 0
M  V30 13168 O 1176.1 1.79335 0.266175 0
M  V30 13169 C 1176.15 1.5884 -3.23732 0
M  V30 13170 O 1175.25 2.69798 -3.11902 0
M  V30 13171 H 1174.59 0.220899 -0.626179 0
M  V30 13172 H 1177.12 0.059619 -2.04513 0
M  V30 13173 H 1177.13 1.97088 -3.5724 0
M  V30 13174 H 1175.81 0.924426 -4.05496 0
M  V30 13175 H 1174.38 2.34519 -2.89923 0
M  V30 13176 N 1176.57 1.53483 0.357892 0
M  V30 13177 C 1177.5 1.76757 1.4591 0
M  V30 13178 C 1178.51 0.648502 1.49326 0
M  V30 13179 O 1179.7 0.924932 1.52667 0
M  V30 13180 C 1176.8 1.83938 2.8464 0
M  V30 13181 C 1175.97 3.13683 3.04831 0
M  V30 13182 C 1175.03 3.12007 4.23719 0
M  V30 13183 O 1174.06 3.8578 4.18524 0
M  V30 13184 N 1175.26 2.33366 5.31527 0
M  V30 13185 H 1178.03 2.71778 1.2632 0
M  V30 13186 H 1175.59 1.52355 0.547673 0
M  V30 13187 H 1177.58 1.80285 3.62325 0
M  V30 13188 H 1176.15 0.961675 2.9744 0
M  V30 13189 H 1175.37 3.30576 2.14739 0
M  V30 13190 H 1176.66 3.99412 3.15194 0
M  V30 13191 H 1176.06 1.72954 5.38613 0
M  V30 13192 H 1174.61 2.35524 6.07759 0
M  V30 13193 N 1178.05 -0.61812 1.44973 0
M  V30 13194 C 1178.98 -1.74299 1.48837 0
M  V30 13195 C 1179.99 -1.58296 0.38028 0
M  V30 13196 O 1181.18 -1.66371 0.646757 0
M  V30 13197 C 1178.28 -3.12179 1.31901 0
M  V30 13198 C 1177.45 -3.54519 2.56193 0
M  V30 13199 C 1176.51 -4.71324 2.33966 0
M  V30 13200 O 1175.54 -4.78975 3.07525 0
M  V30 13201 N 1176.74 -5.63894 1.37854 0
M  V30 13202 H 1179.5 -1.7145 2.45815 0
M  V30 13203 H 1177.07 -0.803087 1.40578 0
M  V30 13204 H 1179.06 -3.88059 1.14858 0
M  V30 13205 H 1177.63 -3.09595 0.43239 0
M  V30 13206 H 1176.85 -2.68711 2.88423 0
M  V30 13207 H 1178.14 -3.79563 3.38835 0
M  V30 13208 H 1177.53 -5.60418 0.771273 0
M  V30 13209 H 1176.09 -6.3935 1.26787 0
M  V30 13210 N 1179.52 -1.32087 -0.859693 0
M  V30 13211 C 1180.45 -1.23204 -1.98351 0
M  V30 13212 C 1181.43 -0.116974 -1.69697 0
M  V30 13213 O 1182.62 -0.303301 -1.91817 0
M  V30 13214 C 1179.75 -0.949171 -3.34078 0
M  V30 13215 C 1178.7 -2.02493 -3.77069 0
M  V30 13216 C 1178.03 -1.59455 -5.1037 0
M  V30 13217 C 1179.33 -3.43934 -3.93074 0
M  V30 13218 H 1181.02 -2.17227 -2.0604 0
M  V30 13219 H 1178.57 -1.04577 -0.989931 0
M  V30 13220 H 1180.52 -0.873594 -4.12245 0
M  V30 13221 H 1179.25 0.0267095 -3.26589 0
M  V30 13222 H 1177.91 -2.09057 -3.01149 0
M  V30 13223 H 1177.55 -0.606256 -4.99333 0
M  V30 13224 H 1177.25 -2.31429 -5.40106 0
M  V30 13225 H 1178.78 -1.53325 -5.91036 0
M  V30 13226 H 1180.19 -3.39986 -4.61608 0
M  V30 13227 H 1178.59 -4.14214 -4.3422 0
M  V30 13228 H 1179.66 -3.83965 -2.9614 0
M  V30 13229 N 1181 1.07532 -1.15215 0
M  V30 13230 C 1182.25 1.80093 -0.925891 0
M  V30 13231 C 1182.58 1.86648 0.547079 0
M  V30 13232 O 1181.83 1.34492 1.42164 0
M  V30 13233 C 1182.13 3.2518 -1.483 0
M  V30 13234 C 1181.8 3.38728 -2.97614 0
M  V30 13235 C 1180.46 3.42133 -3.38376 0
M  V30 13236 C 1182.81 3.41676 -3.93583 0
M  V30 13237 C 1180.14 3.46086 -4.73752 0
M  V30 13238 C 1182.49 3.47166 -5.28828 0
M  V30 13239 C 1181.15 3.48847 -5.69089 0
M  V30 13240 H 1180.42 0.659007 -0.338808 0
M  V30 13241 H 1183.07 1.26548 -1.43728 0
M  V30 13242 H 1181.38 3.81493 -0.892751 0
M  V30 13243 H 1183.07 3.79895 -1.28376 0
M  V30 13244 H 1179.66 3.36775 -2.65105 0
M  V30 13245 H 1183.85 3.38268 -3.63165 0
M  V30 13246 H 1179.1 3.45686 -5.04293 0
M  V30 13247 H 1183.28 3.48393 -6.02989 0
M  V30 13248 H 1180.9 3.51663 -6.73971 0
M  V30 13249 N 1182.48 0.948665 1.2585 0
M  V30 13250 C 1183.41 0.482036 2.2847 0
M  V30 13251 C 1184.39 -0.468553 1.63519 0
M  V30 13252 O 1185.58 -0.368796 1.90666 0
M  V30 13253 C 1182.71 -0.246603 3.46423 0
M  V30 13254 C 1181.66 0.61815 4.23513 0
M  V30 13255 C 1180.99 -0.240884 5.34157 0
M  V30 13256 C 1182.29 1.89327 4.86778 0
M  V30 13257 H 1183.98 1.33973 2.67753 0
M  V30 13258 H 1181.53 0.645645 1.28715 0
M  V30 13259 H 1183.48 -0.584135 4.17332 0
M  V30 13260 H 1182.2 -1.13849 3.06114 0
M  V30 13261 H 1180.86 0.938682 3.54379 0
M  V30 13262 H 1180.51 -1.13235 4.90089 0
M  V30 13263 H 1180.21 0.334367 5.86648 0
M  V30 13264 H 1181.73 -0.573517 6.07901 0
M  V30 13265 H 1183.15 1.62252 5.49861 0
M  V30 13266 H 1181.55 2.41369 5.49419 0
M  V30 13267 H 1182.62 2.60006 4.09298 0
M  V30 13268 N 1183.96 -1.40369 0.716545 0
M  V30 13269 C 1184.92 -2.29083 0.0733105 0
M  V30 13270 C 1185.92 -1.45415 -0.686378 0
M  V30 13271 O 1187.11 -1.66316 -0.518139 0
M  V30 13272 C 1184.24 -3.28639 -0.906032 0
M  V30 13273 H 1185.44 -2.87464 0.85467 0
M  V30 13274 H 1182.99 -1.48706 0.481256 0
M  V30 13275 H 1183.72 -2.75279 -1.71441 0
M  V30 13276 H 1183.51 -3.90405 -0.364163 0
M  V30 13277 H 1185 -3.95066 -1.35324 0
M  V30 13278 N 1185.44 -0.462799 -1.50652 0
M  V30 13279 C 1186.37 0.325724 -2.31217 0
M  V30 13280 C 1187.35 0.997942 -1.3775 0
M  V30 13281 O 1188.53 0.996707 -1.66671 0
M  V30 13282 C 1185.66 1.41283 -3.17264 0
M  V30 13283 C 1184.62 0.862687 -4.19216 0
M  V30 13284 C 1183.94 2.04746 -4.93946 0
M  V30 13285 C 1185.24 -0.120365 -5.22161 0
M  V30 13286 H 1186.94 -0.346666 -2.97386 0
M  V30 13287 H 1184.48 -0.168163 -1.43015 0
M  V30 13288 H 1186.44 1.97188 -3.72418 0
M  V30 13289 H 1185.16 2.11387 -2.48964 0
M  V30 13290 H 1183.82 0.325671 -3.65151 0
M  V30 13291 H 1183.47 2.73529 -4.22127 0
M  V30 13292 H 1183.17 1.68562 -5.62904 0
M  V30 13293 H 1184.69 2.61157 -5.51932 0
M  V30 13294 H 1186.1 0.349226 -5.72235 0
M  V30 13295 H 1184.5 -0.396061 -5.98792 0
M  V30 13296 H 1185.57 -1.04895 -4.73418 0
M  V30 13297 N 1186.91 1.56388 -0.195085 0
M  V30 13298 C 1187.86 2.19091 0.725793 0
M  V30 13299 C 1188.83 1.13814 1.20977 0
M  V30 13300 O 1190.02 1.42065 1.27366 0
M  V30 13301 C 1187.16 2.85427 1.93973 0
M  V30 13302 C 1186.27 4.05229 1.49712 0
M  V30 13303 C 1185.4 4.59421 2.66656 0
M  V30 13304 C 1184.44 5.71581 2.19001 0
M  V30 13305 N 1183.58 6.2018 3.29123 0
M  V30 13306 H 1188.42 2.97429 0.184334 0
M  V30 13307 H 1185.96 1.46886 0.0792434 0
M  V30 13308 H 1187.92 3.22057 2.65208 0
M  V30 13309 H 1186.55 2.09652 2.4545 0
M  V30 13310 H 1185.6 3.74261 0.680641 0
M  V30 13311 H 1186.91 4.8635 1.10749 0
M  V30 13312 H 1186.06 4.98357 3.46014 0
M  V30 13313 H 1184.8 3.77407 3.08893 0
M  V30 13314 H 1183.81 5.32174 1.38097 0
M  V30 13315 H 1185.03 6.55413 1.77795 0
M  V30 13316 H 1182.98 5.41088 3.70891 0
M  V30 13317 H 1182.9 6.96353 2.94328 0
M  V30 13318 H 1184.16 6.63769 4.08694 0
M  V30 13319 N 1188.39 -0.0785156 1.57404 0
M  V30 13320 C 1189.32 -1.09446 2.06262 0
M  V30 13321 C 1190.3 -1.40777 0.954772 0
M  V30 13322 O 1191.49 -1.5052 1.22708 0
M  V30 13323 C 1188.62 -2.40979 2.50093 0
M  V30 13324 C 1187.57 -2.24017 3.64692 0
M  V30 13325 C 1186.9 -3.60873 3.94556 0
M  V30 13326 C 1188.2 -1.66696 4.94985 0
M  V30 13327 H 1189.89 -0.687928 2.9139 0
M  V30 13328 H 1187.44 -0.329466 1.4018 0
M  V30 13329 H 1189.39 -3.12337 2.82884 0
M  V30 13330 H 1188.12 -2.83599 1.61985 0
M  V30 13331 H 1186.77 -1.55101 3.32174 0
M  V30 13332 H 1186.42 -4.01051 3.0359 0
M  V30 13333 H 1186.12 -3.50365 4.71718 0
M  V30 13334 H 1187.65 -4.33673 4.29837 0
M  V30 13335 H 1189.06 -2.27913 5.2605 0
M  V30 13336 H 1187.46 -1.66902 5.76423 0
M  V30 13337 H 1188.53 -0.627827 4.80818 0
M  V30 13338 N 1189.87 -1.5367 -0.349747 0
M  V30 13339 C 1190.8 -1.84208 -1.43492 0
M  V30 13340 C 1191.78 -0.696725 -1.55177 0
M  V30 13341 O 1192.97 -0.948061 -1.69486 0
M  V30 13342 C 1190.1 -2.04613 -2.80625 0
M  V30 13343 C 1189.05 -3.20419 -2.83753 0
M  V30 13344 C 1188.38 -3.26147 -4.23713 0
M  V30 13345 C 1189.68 -4.58666 -2.49846 0
M  V30 13346 H 1191.37 -2.75087 -1.18185 0
M  V30 13347 H 1188.92 -1.32363 -0.567101 0
M  V30 13348 H 1190.87 -2.2456 -3.56582 0
M  V30 13349 H 1189.59 -1.10459 -3.07354 0
M  V30 13350 H 1188.25 -3.00318 -2.10249 0
M  V30 13351 H 1187.9 -2.29599 -4.47541 0
M  V30 13352 H 1187.6 -4.03963 -4.26717 0
M  V30 13353 H 1189.12 -3.48296 -5.0152 0
M  V30 13354 H 1190.54 -4.78668 -3.15516 0
M  V30 13355 H 1188.94 -5.3884 -2.64144 0
M  V30 13356 H 1190.01 -4.62697 -1.4505 0
M  V30 13357 N 1191.35 0.610423 -1.45298 0
M  V30 13358 C 1192.3 1.7213 -1.53753 0
M  V30 13359 C 1193.27 1.61609 -0.383632 0
M  V30 13360 O 1194.45 1.8123 -0.596694 0
M  V30 13361 C 1191.59 3.10433 -1.50749 0
M  V30 13362 C 1190.7 3.3178 -2.76669 0
M  V30 13363 C 1189.84 4.60173 -2.65356 0
M  V30 13364 C 1188.88 4.74769 -3.86343 0
M  V30 13365 N 1188.01 5.94459 -3.73581 0
M  V30 13366 H 1192.85 1.64239 -2.48655 0
M  V30 13367 H 1190.39 0.800879 -1.23387 0
M  V30 13368 H 1192.35 3.90446 -1.46996 0
M  V30 13369 H 1190.98 3.17288 -0.593998 0
M  V30 13370 H 1190.03 2.45563 -2.90522 0
M  V30 13371 H 1191.34 3.38439 -3.66416 0
M  V30 13372 H 1190.5 5.48377 -2.59553 0
M  V30 13373 H 1189.24 4.55907 -1.73204 0
M  V30 13374 H 1188.24 3.8499 -3.92509 0
M  V30 13375 H 1189.47 4.80834 -4.79557 0
M  V30 13376 H 1187.41 5.91243 -2.84196 0
M  V30 13377 H 1187.33 6.02265 -4.5696 0
M  V30 13378 H 1188.6 6.85168 -3.71705 0
M  V30 13379 N 1192.83 1.32541 0.852676 0
M  V30 13380 C 1194.24 1.11575 1.14119 0
M  V30 13381 C 1194.44 -0.102469 2.01239 0
M  V30 13382 O 1193.5 -0.786786 2.39929 0
M  V30 13383 C 1194.81 2.39624 1.81661 0
M  V30 13384 C 1196.36 2.454 1.94288 0
M  V30 13385 C 1196.83 3.73375 2.65245 0
M  V30 13386 N 1198.33 3.74368 2.72769 0
M  V30 13387 C 1199.06 4.70094 3.28328 0
M  V30 13388 N 1198.56 5.76187 3.84682 0
M  V30 13389 N 1200.35 4.57588 3.26449 0
M  V30 13390 H 1192.5 2.10644 0.272544 0
M  V30 13391 H 1194.76 0.930094 0.183385 0
M  V30 13392 H 1194.47 3.28698 1.25102 0
M  V30 13393 H 1194.34 2.50734 2.81802 0
M  V30 13394 H 1196.73 1.56784 2.50005 0
M  V30 13395 H 1196.81 2.38241 0.931379 0
M  V30 13396 H 1196.46 4.62366 2.10191 0
M  V30 13397 H 1196.39 3.77806 3.66838 0
M  V30 13398 H 1198.88 2.97685 2.32791 0
M  V30 13399 H 1199.19 6.45285 4.25238 0
M  V30 13400 H 1197.53 5.79939 3.83008 0
M  V30 13401 H 1200.73 3.7387 2.81672 0
M  V30 13402 H 1200.9 5.32365 3.69448 0
M  V30 13403 N 1194.3 -1.0692 1.15784 0
M  V30 13404 C 1195.54 -1.8119 0.946018 0
M  V30 13405 C 1195.91 -1.84899 -0.517338 0
M  V30 13406 O 1197.11 -2.55085 -0.847643 0
M  V30 13407 C 1195.38 -3.22102 1.54871 0
M  V30 13408 S 1196.94 -4.13065 1.48063 0
M  V30 13409 H 1193.76 -0.62424 0.340361 0
M  V30 13410 H 1196.36 -1.28411 1.47414 0
M  V30 13411 H 1195.06 -3.16994 2.60659 0
M  V30 13412 H 1194.59 -3.79956 1.01965 0
M  V30 13413 H 1196.61 -4.93907 0.476517 0
M  V30 13414 N 1195.78 -0.955326 -1.25345 0
M  V30 13415 C 1196.73 -0.467205 -2.2786 0
M  V30 13416 C 1197.72 0.462873 -1.62954 0
M  V30 13417 O 1198.93 0.339526 -1.76769 0
M  V30 13418 H 1195.31 -0.132586 -0.74022 0
M  V30 13419 H 1197.28 -1.34406 -2.66416 0
M  V30 13420 C 1196.03 0.238898 -3.46878 0
M  V30 13421 H 1195.35 -0.467644 -3.97056 0
M  V30 13422 H 1196.79 0.544444 -4.2049 0
M  V30 13423 C 1195.25 1.46164 -3.03542 0
M  V30 13424 O 1195.78 2.55933 -3.09615 0
M  V30 13425 N 1193.98 1.32324 -2.58725 0
M  V30 13426 H 1193.53 0.430131 -2.53984 0
M  V30 13427 H 1193.49 2.14253 -2.30094 0
M  V30 13428 N 1197.26 1.39987 -0.723979 0
M  V30 13429 C 1198.51 1.99964 -0.26406 0
M  V30 13430 C 1198.82 1.58084 1.1519 0
M  V30 13431 O 1200.03 2.10819 1.71077 0
M  V30 13432 C 1198.49 3.57427 -0.421174 0
M  V30 13433 C 1198.09 4.08276 -1.84432 0
M  V30 13434 C 1199.84 4.24494 -0.0224734 0
M  V30 13435 C 1197.74 5.58272 -1.95157 0
M  V30 13436 H 1196.67 0.747995 -0.0949728 0
M  V30 13437 H 1199.33 1.60122 -0.896276 0
M  V30 13438 H 1197.71 3.95011 0.279762 0
M  V30 13439 H 1198.88 3.82051 -2.57631 0
M  V30 13440 H 1197.2 3.53834 -2.19523 0
M  V30 13441 H 1199.79 5.34637 -0.0817744 0
M  V30 13442 H 1200.14 4.03593 1.02069 0
M  V30 13443 H 1200.67 3.92046 -0.67416 0
M  V30 13444 H 1197.41 5.84038 -2.97623 0
M  V30 13445 H 1196.93 5.86335 -1.2638 0
M  V30 13446 H 1198.61 6.23509 -1.72759 0
M  V30 13447 N 1198.74 0.470782 1.50404 0
M  V30 13448 C 1199.67 -0.313458 2.31386 0
M  V30 13449 C 1200.65 -0.990623 1.38278 0
M  V30 13450 O 1201.84 -0.987854 1.67198 0
M  V30 13451 C 1198.97 -1.39599 3.18009 0
M  V30 13452 C 1197.92 -0.840443 4.19667 0
M  V30 13453 C 1197.25 -2.02124 4.95025 0
M  V30 13454 C 1198.55 0.148055 5.2209 0
M  V30 13455 H 1200.24 0.362432 2.97198 0
M  V30 13456 H 1197.79 0.175745 1.42924 0
M  V30 13457 H 1199.74 -1.9521 3.73458 0
M  V30 13458 H 1198.46 -2.10064 2.50081 0
M  V30 13459 H 1197.12 -0.306302 3.65318 0
M  V30 13460 H 1196.77 -2.71286 4.23571 0
M  V30 13461 H 1196.47 -1.65574 5.6379 0
M  V30 13462 H 1197.99 -2.58226 5.5331 0
M  V30 13463 H 1199.41 -0.318874 5.72413 0
M  V30 13464 H 1197.8 0.427811 5.98573 0
M  V30 13465 H 1198.87 1.07404 4.72855 0
M  V30 13466 N 1200.22 -1.56282 0.203376 0
M  V30 13467 C 1201.17 -2.16094 -0.727145 0
M  V30 13468 C 1202.15 -1.10404 -1.17046 0
M  V30 13469 O 1203.34 -1.36444 -1.12748 0
M  V30 13470 C 1200.47 -2.83029 -1.94293 0
M  V30 13471 C 1199.56 -3.9592 -1.52013 0
M  V30 13472 N 1199.95 -4.99292 -0.808794 0
M  V30 13473 C 1198.25 -4.07674 -1.80881 0
M  V30 13474 C 1198.95 -5.78641 -0.595738 0
M  V30 13475 N 1197.92 -5.31362 -1.14697 0
M  V30 13476 H 1201.73 -2.93378 -0.175041 0
M  V30 13477 H 1199.24 -1.624 0.00390859 0
M  V30 13478 H 1201.24 -3.24277 -2.62012 0
M  V30 13479 H 1199.9 -2.07235 -2.49968 0
M  V30 13480 H 1200.91 -5.15823 -0.463383 0
M  V30 13481 H 1197.59 -3.43016 -2.38005 0
M  V30 13482 H 1198.98 -6.71893 -0.0308618 0
M  V30 13483 N 1201.7 0.070167 -1.57444 0
M  V30 13484 C 1202.66 1.06761 -2.02817 0
M  V30 13485 C 1203.66 1.31498 -0.925462 0
M  V30 13486 O 1204.85 1.27192 -1.19029 0
M  V30 13487 C 1201.98 2.41086 -2.41019 0
M  V30 13488 H 1203.17 0.67651 -2.9217 0
M  V30 13489 H 1200.73 0.315936 -1.53074 0
M  V30 13490 H 1201.46 2.85025 -1.54697 0
M  V30 13491 H 1201.25 2.24472 -3.21488 0
M  V30 13492 H 1202.74 3.12778 -2.76694 0
M  V30 13493 N 1203.17 1.53854 0.341593 0
M  V30 13494 C 1204.45 1.61823 1.09875 0
M  V30 13495 C 1204.83 0.440711 2.06448 0
M  V30 13496 O 1204.18 -0.566833 2.21358 0
M  V30 13497 C 1204.39 2.9799 1.81668 0
M  V30 13498 C 1205.74 3.53411 2.35341 0
M  V30 13499 O 1206.76 3.00177 1.91761 0
M  V30 13500 O 1205.62 4.4653 3.15076 0
M  V30 13501 H 1202.71 0.654599 0.5054 0
M  V30 13502 H 1205.26 1.66199 0.342929 0
M  V30 13503 H 1204.03 3.7513 1.11323 0
M  V30 13504 H 1203.65 2.97213 2.64103 0
M  V30 13505 N 1204.65 -0.602709 1.4562 0
M  V30 13506 C 1205.9 -1.35769 1.49163 0
M  V30 13507 C 1206.21 -1.95102 0.139485 0
M  V30 13508 O 1207.42 -2.71449 0.0525919 0
M  V30 13509 C 1205.88 -2.45959 2.62739 0
M  V30 13510 C 1205.48 -1.93017 4.04288 0
M  V30 13511 C 1207.23 -3.22926 2.75534 0
M  V30 13512 C 1205.13 -3.00718 5.09237 0
M  V30 13513 H 1204.06 -0.510317 0.555061 0
M  V30 13514 H 1206.72 -0.645434 1.71774 0
M  V30 13515 H 1205.1 -3.19892 2.3342 0
M  V30 13516 H 1206.27 -1.2576 4.43307 0
M  V30 13517 H 1204.59 -1.2878 3.95986 0
M  V30 13518 H 1207.18 -4.03267 3.51112 0
M  V30 13519 H 1207.53 -3.74243 1.82339 0
M  V30 13520 H 1208.06 -2.56095 3.04402 0
M  V30 13521 H 1204.8 -2.54312 6.04157 0
M  V30 13522 H 1204.32 -3.66526 4.74783 0
M  V30 13523 H 1206 -3.65016 5.34202 0
M  V30 13524 N 1206.13 -1.32992 -0.845635 0
M  V30 13525 C 1207.08 -1.22682 -1.95494 0
M  V30 13526 C 1208.05 -0.106942 -1.65755 0
M  V30 13527 O 1209.23 -0.28405 -1.88674 0
M  V30 13528 C 1206.37 -0.965068 -3.31331 0
M  V30 13529 C 1205.48 -2.17058 -3.7351 0
M  V30 13530 C 1204.62 -1.84355 -4.98183 0
M  V30 13531 C 1203.66 -3.01176 -5.32878 0
M  V30 13532 N 1202.8 -2.68506 -6.48729 0
M  V30 13533 H 1207.64 -2.17562 -2.03644 0
M  V30 13534 H 1205.17 -1.08194 -0.996613 0
M  V30 13535 H 1207.13 -0.793771 -4.09579 0
M  V30 13536 H 1205.76 -0.0530285 -3.22756 0
M  V30 13537 H 1204.81 -2.45185 -2.90841 0
M  V30 13538 H 1206.12 -3.04413 -3.95138 0
M  V30 13539 H 1205.28 -1.6383 -5.84162 0
M  V30 13540 H 1204.02 -0.942264 -4.78511 0
M  V30 13541 H 1203.02 -3.22323 -4.45408 0
M  V30 13542 H 1204.25 -3.9205 -5.54503 0
M  V30 13543 H 1202.19 -1.80929 -6.30556 0
M  V30 13544 H 1202.11 -3.49392 -6.70419 0
M  V30 13545 H 1203.38 -2.51432 -7.37836 0
M  V30 13546 N 1207.61 1.06304 -1.1635 0
M  V30 13547 C 1209.02 1.60566 -0.952652 0
M  V30 13548 C 1209.37 1.8963 0.503473 0
M  V30 13549 O 1208.49 1.66964 1.37666 0
M  V30 13550 C 1209.09 2.9172 -1.72292 0
M  V30 13551 C 1207.65 3.42684 -1.55707 0
M  V30 13552 C 1206.8 2.16579 -1.73172 0
M  V30 13553 H 1209.75 0.892563 -1.31221 0
M  V30 13554 H 1209.77 3.61126 -1.19868 0
M  V30 13555 H 1209.28 2.70535 -2.78267 0
M  V30 13556 H 1207.38 3.68929 -0.521726 0
M  V30 13557 H 1207.49 4.18018 -2.34088 0
M  V30 13558 H 1205.86 2.26795 -1.15914 0
M  V30 13559 H 1206.64 1.97877 -2.80535 0
M  V30 13560 N 1209.09 0.96196 1.24836 0
M  V30 13561 C 1210.36 0.537809 1.88061 0
M  V30 13562 C 1210.74 -0.985023 1.8671 0
M  V30 13563 O 1210.09 -1.85394 1.33572 0
M  V30 13564 C 1210.3 1.12279 3.30446 0
M  V30 13565 C 1211.65 1.20414 4.07168 0
M  V30 13566 O 1212.67 1.07488 3.39595 0
M  V30 13567 O 1211.53 1.4078 5.28056 0
M  V30 13568 H 1208.63 0.178491 0.807509 0
M  V30 13569 H 1211.17 1.05586 1.32852 0
M  V30 13570 H 1209.94 2.16578 3.25898 0
M  V30 13571 H 1209.57 0.58843 3.93222 0
M  V30 13572 N 1210.56 -1.39601 0.731392 0
M  V30 13573 C 1211.51 -2.32469 0.0781328 0
M  V30 13574 C 1212.51 -1.52873 -0.729811 0
M  V30 13575 O 1213.71 -1.68563 -0.631402 0
M  V30 13576 H 1210.09 -0.751972 0.00646515 0
M  V30 13577 H 1212.06 -2.85196 0.877833 0
M  V30 13578 C 1210.81 -3.37948 -0.817717 0
M  V30 13579 H 1210.13 -3.99272 -0.205417 0
M  V30 13580 H 1211.57 -4.05387 -1.24248 0
M  V30 13581 C 1210.03 -2.74703 -1.95038 0
M  V30 13582 O 1210.56 -2.62266 -3.04269 0
M  V30 13583 N 1208.76 -2.32845 -1.73872 0
M  V30 13584 H 1208.31 -2.43161 -0.850321 0
M  V30 13585 H 1208.27 -1.90869 -2.49833 0
M  V30 13586 N 1212.04 -0.478751 -1.50152 0
M  V30 13587 C 1213.29 0.07531 -2.01559 0
M  V30 13588 C 1213.6 1.40089 -1.36508 0
M  V30 13589 O 1214.81 2.04035 -1.79115 0
M  V30 13590 C 1213.27 0.184714 -3.59426 0
M  V30 13591 C 1212.87 -1.13289 -4.33439 0
M  V30 13592 C 1214.62 0.690326 -4.18849 0
M  V30 13593 C 1212.53 -0.986866 -5.83108 0
M  V30 13594 H 1211.46 0.0319196 -0.753324 0
M  V30 13595 H 1214.11 -0.614809 -1.72894 0
M  V30 13596 H 1212.49 0.938788 -3.84711 0
M  V30 13597 H 1213.66 -1.89852 -4.19872 0
M  V30 13598 H 1211.98 -1.57021 -3.8566 0
M  V30 13599 H 1214.57 0.816733 -5.28426 0
M  V30 13600 H 1214.92 1.68361 -3.80737 0
M  V30 13601 H 1215.45 -0.00657846 -3.97799 0
M  V30 13602 H 1212.19 -1.95375 -6.25707 0
M  V30 13603 H 1211.71 -0.261752 -5.99229 0
M  V30 13604 H 1213.39 -0.656567 -6.4366 0
M  V30 13605 N 1213.52 1.56172 -0.211661 0
M  V30 13606 C 1214.45 2.22843 0.697375 0
M  V30 13607 C 1215.43 1.19689 1.20866 0
M  V30 13608 O 1216.62 1.48245 1.25447 0
M  V30 13609 C 1213.75 2.90067 1.90993 0
M  V30 13610 C 1212.7 3.99608 1.5329 0
M  V30 13611 C 1212.03 4.54078 2.82343 0
M  V30 13612 C 1213.33 5.17169 0.730333 0
M  V30 13613 H 1215.02 2.99065 0.141533 0
M  V30 13614 H 1212.57 1.43846 0.0666337 0
M  V30 13615 H 1214.52 3.35396 2.55123 0
M  V30 13616 H 1213.24 2.11276 2.49058 0
M  V30 13617 H 1211.9 3.54995 0.915115 0
M  V30 13618 H 1211.55 3.72029 3.38531 0
M  V30 13619 H 1211.25 5.28001 2.57853 0
M  V30 13620 H 1212.77 5.02119 3.47432 0
M  V30 13621 H 1214.19 5.5894 1.2751 0
M  V30 13622 H 1212.59 5.97262 0.582916 0
M  V30 13623 H 1213.66 4.84174 -0.265157 0
M  V30 13624 N 1215 -0.0618163 1.57479 0
M  V30 13625 C 1216.24 -0.760193 1.88013 0
M  V30 13626 C 1216.58 -1.76718 0.805258 0
M  V30 13627 O 1215.85 -1.93633 -0.183408 0
M  V30 13628 C 1216.14 -1.45924 3.29208 0
M  V30 13629 C 1215.99 -0.467994 4.47359 0
M  V30 13630 C 1217.31 -2.40166 3.68793 0
M  V30 13631 H 1214.43 -0.274896 0.683814 0
M  V30 13632 H 1217.07 -0.0232433 1.89986 0
M  V30 13633 H 1215.22 -2.08741 3.27657 0
M  V30 13634 H 1216.89 0.155735 4.61037 0
M  V30 13635 H 1215.13 0.215797 4.33263 0
M  V30 13636 H 1215.8 -0.994942 5.42959 0
M  V30 13637 H 1218.28 -1.87419 3.71501 0
M  V30 13638 H 1217.16 -2.86076 4.68457 0
M  V30 13639 H 1217.42 -3.25413 2.99264 0
M  V30 13640 N 1216.48 -1.54033 -0.333429 0
M  V30 13641 C 1217.42 -1.83441 -1.43011 0
M  V30 13642 C 1218.42 -0.705592 -1.54006 0
M  V30 13643 O 1219.62 -0.889098 -1.56509 0
M  V30 13644 H 1216 -0.581326 -0.477037 0
M  V30 13645 H 1217.97 -2.75172 -1.15426 0
M  V30 13646 C 1216.72 -2.0698 -2.79382 0
M  V30 13647 H 1216.04 -2.93297 -2.71692 0
M  V30 13648 H 1217.48 -2.31517 -3.55212 0
M  V30 13649 C 1215.94 -0.85835 -3.25782 0
M  V30 13650 O 1216.47 -0.062739 -4.01651 0
M  V30 13651 N 1214.68 -0.672738 -2.82706 0
M  V30 13652 H 1214.22 -1.32136 -2.21128 0
M  V30 13653 H 1214.18 0.136347 -3.14104 0
M  V30 13654 N 1217.95 0.594978 -1.45938 0
M  V30 13655 C 1218.86 1.73296 -1.58132 0
M  V30 13656 C 1219.88 1.67665 -0.465245 0
M  V30 13657 O 1221.06 1.87794 -0.727684 0
M  V30 13658 C 1218.12 3.09783 -1.55677 0
M  V30 13659 C 1217.18 3.26772 -2.78422 0
M  V30 13660 C 1216.42 4.56748 -2.76075 0
M  V30 13661 O 1216.64 5.39867 -1.84119 0
M  V30 13662 O 1215.57 4.76721 -3.67452 0
M  V30 13663 H 1219.4 1.65957 -2.54346 0
M  V30 13664 H 1216.98 0.760572 -1.28591 0
M  V30 13665 H 1218.87 3.91077 -1.56961 0
M  V30 13666 H 1217.54 3.17585 -0.626191 0
M  V30 13667 H 1216.45 2.45018 -2.82696 0
M  V30 13668 H 1217.78 3.23853 -3.70648 0
M  V30 13669 N 1219.43 1.33438 0.838571 0
M  V30 13670 C 1220.66 1.28097 1.63113 0
M  V30 13671 C 1221.08 -0.145197 1.87539 0
M  V30 13672 O 1220.44 -1.10191 1.43971 0
M  V30 13673 C 1220.49 2.06201 2.95827 0
M  V30 13674 O 1219.59 1.42082 3.87152 0
M  V30 13675 H 1218.93 0.440685 0.496681 0
M  V30 13676 H 1221.46 1.76004 1.04325 0
M  V30 13677 H 1221.47 2.16977 3.45521 0
M  V30 13678 H 1220.15 3.099 2.77371 0
M  V30 13679 H 1218.73 1.39953 3.45641 0
M  V30 13680 N 1220.91 -1.05686 1.16912 0
M  V30 13681 C 1221.86 -2.13312 0.88129 0
M  V30 13682 C 1222.83 -1.65199 -0.172783 0
M  V30 13683 O 1224.01 -1.90765 -0.0366542 0
M  V30 13684 C 1221.15 -3.42829 0.395264 0
M  V30 13685 C 1220.27 -4.04643 1.51288 0
M  V30 13686 C 1219.4 -5.22059 0.981238 0
M  V30 13687 C 1218.44 -5.75869 2.07464 0
M  V30 13688 N 1217.58 -6.84592 1.55813 0
M  V30 13689 H 1222.42 -2.37271 1.80295 0
M  V30 13690 H 1219.95 -1.16407 0.899322 0
M  V30 13691 H 1221.91 -4.17092 0.0950633 0
M  V30 13692 H 1220.54 -3.19068 -0.489445 0
M  V30 13693 H 1219.59 -3.27867 1.92891 0
M  V30 13694 H 1220.91 -4.40626 2.33774 0
M  V30 13695 H 1220.06 -6.03372 0.634586 0
M  V30 13696 H 1218.8 -4.87538 0.125754 0
M  V30 13697 H 1217.8 -4.93188 2.42992 0
M  V30 13698 H 1219.03 -6.12439 2.93419 0
M  V30 13699 H 1216.97 -6.51978 0.725283 0
M  V30 13700 H 1216.89 -7.19551 2.31911 0
M  V30 13701 H 1218.16 -7.6957 1.24025 0
M  V30 13702 N 1222.39 -0.968567 -1.24324 0
M  V30 13703 C 1223.62 -0.648568 -1.96472 0
M  V30 13704 C 1224.03 0.782168 -1.71836 0
M  V30 13705 O 1223.39 1.5249 -1.00265 0
M  V30 13706 C 1223.44 -0.91482 -3.49733 0
M  V30 13707 O 1223.16 -2.28931 -3.73527 0
M  V30 13708 C 1224.66 -0.609131 -4.39095 0
M  V30 13709 H 1221.88 -0.241921 -0.625872 0
M  V30 13710 H 1224.43 -1.29673 -1.5813 0
M  V30 13711 H 1222.58 -0.31285 -3.86135 0
M  V30 13712 H 1222.99 -2.36998 -4.67902 0
M  V30 13713 H 1224.47 -0.845875 -5.4548 0
M  V30 13714 H 1224.95 0.456625 -4.3682 0
M  V30 13715 H 1225.55 -1.19105 -4.08282 0
M  V30 13716 N 1223.87 1.39211 -0.738786 0
M  V30 13717 C 1225.12 1.99673 -0.285254 0
M  V30 13718 C 1225.43 1.59297 1.13507 0
M  V30 13719 O 1226.63 2.12622 1.68832 0
M  V30 13720 C 1225.09 3.5696 -0.45906 0
M  V30 13721 C 1224.7 4.06297 -1.88751 0
M  V30 13722 C 1226.44 4.24446 -0.0674954 0
M  V30 13723 C 1224.35 5.56171 -2.01067 0
M  V30 13724 H 1223.28 0.746945 -0.102901 0
M  V30 13725 H 1225.93 1.59163 -0.913209 0
M  V30 13726 H 1224.31 3.95285 0.23785 0
M  V30 13727 H 1225.49 3.79297 -2.61669 0
M  V30 13728 H 1223.8 3.51486 -2.23264 0
M  V30 13729 H 1226.4 5.34521 -0.138475 0
M  V30 13730 H 1226.74 4.04653 0.977823 0
M  V30 13731 H 1227.27 3.91309 -0.715704 0
M  V30 13732 H 1224.01 5.80849 -3.03801 0
M  V30 13733 H 1223.53 5.84961 -1.32591 0
M  V30 13734 H 1225.21 6.21642 -1.79362 0
M  V30 13735 N 1225.34 0.486708 1.49896 0
M  V30 13736 C 1226.27 -0.288898 2.31706 0
M  V30 13737 C 1227.26 -0.975901 1.3932 0
M  V30 13738 O 1228.44 -0.970065 1.68236 0
M  V30 13739 C 1225.57 -1.36218 3.19471 0
M  V30 13740 C 1224.52 -0.795884 4.20535 0
M  V30 13741 C 1223.85 -1.96862 4.97141 0
M  V30 13742 C 1225.15 0.203421 5.21904 0
M  V30 13743 H 1226.84 0.393934 2.96797 0
M  V30 13744 H 1224.39 0.190894 1.42729 0
M  V30 13745 H 1226.34 -1.91238 3.75508 0
M  V30 13746 H 1225.07 -2.074 2.52295 0
M  V30 13747 H 1223.73 -0.267538 3.65622 0
M  V30 13748 H 1223.37 -2.66779 4.26425 0
M  V30 13749 H 1223.07 -1.59585 5.65514 0
M  V30 13750 H 1224.6 -2.52343 5.56017 0
M  V30 13751 H 1226.01 -0.258144 5.72719 0
M  V30 13752 H 1224.41 0.491273 5.98086 0
M  V30 13753 H 1225.48 1.12414 4.7169 0
M  V30 13754 N 1226.82 -1.56058 0.219941 0
M  V30 13755 C 1227.77 -2.20218 -0.690846 0
M  V30 13756 C 1228.74 -1.15725 -1.19151 0
M  V30 13757 O 1229.93 -1.44073 -1.2509 0
M  V30 13758 C 1227.07 -2.88477 -1.89408 0
M  V30 13759 C 1226.18 -4.07559 -1.43246 0
M  V30 13760 C 1225.31 -4.63605 -2.59314 0
M  V30 13761 C 1224.35 -5.74993 -2.0988 0
M  V30 13762 N 1223.49 -6.25337 -3.19214 0
M  V30 13763 H 1228.33 -2.97685 -0.136992 0
M  V30 13764 H 1225.87 -1.46994 -0.055865 0
M  V30 13765 H 1227.82 -3.26235 -2.60051 0
M  V30 13766 H 1226.45 -2.1353 -2.42084 0
M  V30 13767 H 1225.51 -3.75297 -0.621013 0
M  V30 13768 H 1226.82 -4.8805 -1.02997 0
M  V30 13769 H 1225.97 -5.03798 -3.38041 0
M  V30 13770 H 1224.71 -3.82274 -3.0285 0
M  V30 13771 H 1223.72 -5.34304 -1.29613 0
M  V30 13772 H 1224.94 -6.58158 -1.67345 0
M  V30 13773 H 1222.89 -5.4692 -3.62236 0
M  V30 13774 H 1222.8 -7.00947 -2.83213 0
M  V30 13775 H 1224.07 -6.70187 -3.98083 0
M  V30 13776 N 1228.3 0.053464 -1.57509 0
M  V30 13777 C 1229.23 1.06151 -2.07977 0
M  V30 13778 C 1230.21 1.3924 -0.977047 0
M  V30 13779 O 1231.4 1.48549 -1.25087 0
M  V30 13780 C 1228.53 2.36969 -2.53895 0
M  V30 13781 C 1227.48 2.18186 -3.6821 0
M  V30 13782 C 1226.81 3.54551 -4.00247 0
M  V30 13783 C 1228.11 1.588 -4.97574 0
M  V30 13784 H 1229.8 0.641483 -2.92447 0
M  V30 13785 H 1227.35 0.307122 -1.40687 0
M  V30 13786 H 1229.3 3.07797 -2.87817 0
M  V30 13787 H 1228.02 2.80986 -1.66476 0
M  V30 13788 H 1226.68 1.49796 -3.34599 0
M  V30 13789 H 1226.33 3.96171 -3.09932 0
M  V30 13790 H 1226.03 3.42816 -4.77232 0
M  V30 13791 H 1227.56 4.2678 -4.36682 0
M  V30 13792 H 1228.97 2.19515 -5.29609 0
M  V30 13793 H 1227.37 1.57711 -5.79006 0
M  V30 13794 H 1228.44 0.551254 -4.81756 0
M  V30 13795 N 1229.78 1.54207 0.325255 0
M  V30 13796 C 1231.02 1.74055 1.07164 0
M  V30 13797 C 1231.38 0.502722 1.85302 0
M  V30 13798 O 1232.58 0.578525 2.62501 0
M  V30 13799 C 1230.86 2.97994 1.97319 0
M  V30 13800 S 1232.41 3.38737 2.78931 0
M  V30 13801 H 1229.23 0.612059 0.361808 0
M  V30 13802 H 1231.83 1.92381 0.347837 0
M  V30 13803 H 1230.54 3.86235 1.38747 0
M  V30 13804 H 1230.07 2.82187 2.74106 0
M  V30 13805 H 1232.08 2.93904 3.99794 0
M  V30 13806 N 1231.26 -0.58723 1.46251 0
M  V30 13807 C 1232.53 -1.34727 1.41802 0
M  V30 13808 C 1232.91 -2.10867 0.0991354 0
M  V30 13809 O 1232.26 -2.09194 -0.919242 0
M  V30 13810 C 1232.47 -2.27706 2.64482 0
M  V30 13811 C 1233.82 -2.89678 3.10438 0
M  V30 13812 O 1234.84 -2.38021 2.64999 0
M  V30 13813 O 1233.7 -3.83493 3.89352 0
M  V30 13814 H 1230.8 -0.605119 0.563702 0
M  V30 13815 H 1233.34 -0.608623 1.5841 0
M  V30 13816 H 1232.12 -1.70842 3.52035 0
M  V30 13817 H 1231.74 -3.08918 2.50311 0
M  V30 13818 N 1232.74 -1.33881 -0.831482 0
M  V30 13819 C 1233.98 -1.25755 -1.58719 0
M  V30 13820 C 1234.31 0.174746 -1.93713 0
M  V30 13821 O 1233.57 1.13384 -1.59507 0
M  V30 13822 C 1233.86 -2.08544 -2.90249 0
M  V30 13823 C 1233.53 -3.57651 -2.74585 0
M  V30 13824 C 1232.19 -3.983 -2.7002 0
M  V30 13825 C 1234.54 -4.52369 -2.58866 0
M  V30 13826 C 1231.87 -5.31872 -2.47647 0
M  V30 13827 C 1234.22 -5.86112 -2.38025 0
M  V30 13828 C 1232.89 -6.25934 -2.31867 0
M  V30 13829 H 1232.16 -0.460171 -0.580796 0
M  V30 13830 H 1234.81 -1.6554 -0.96274 0
M  V30 13831 H 1233.11 -1.6156 -3.56939 0
M  V30 13832 H 1234.81 -1.99609 -3.47789 0
M  V30 13833 H 1231.4 -3.2538 -2.78973 0
M  V30 13834 H 1235.58 -4.21868 -2.61421 0
M  V30 13835 H 1230.84 -5.61756 -2.41331 0
M  V30 13836 H 1235.01 -6.59103 -2.24847 0
M  V30 13837 H 1232.64 -7.29372 -2.14291 0
M  V30 13838 N 1234.21 1.05064 -1.1747 0
M  V30 13839 C 1235.46 1.77737 -0.961979 0
M  V30 13840 C 1235.78 1.88198 0.510551 0
M  V30 13841 O 1235.05 1.39968 1.37062 0
M  V30 13842 H 1233.63 0.658366 -0.352935 0
M  V30 13843 H 1236.29 1.26851 -1.47969 0
M  V30 13844 H 1235.39 2.79368 -1.39141 0
M  V30 13845 N 1235.69 0.975146 1.23809 0
M  V30 13846 C 1236.92 0.658605 1.96665 0
M  V30 13847 C 1237.34 -0.766744 1.71763 0
M  V30 13848 O 1236.7 -1.52151 0.985887 0
M  V30 13849 C 1236.75 0.948438 3.47904 0
M  V30 13850 O 1235.85 0.0377241 4.12383 0
M  V30 13851 H 1235.19 0.248231 0.615855 0
M  V30 13852 H 1237.72 1.30732 1.57386 0
M  V30 13853 H 1237.73 0.883 3.9833 0
M  V30 13854 H 1236.41 1.98717 3.65355 0
M  V30 13855 H 1234.98 0.157122 3.72569 0
M  V30 13856 N 1237.17 -1.38817 0.746158 0
M  V30 13857 C 1238.13 -2.28876 0.121886 0
M  V30 13858 C 1239.13 -1.46838 -0.655379 0
M  V30 13859 O 1240.32 -1.67377 -0.482744 0
M  V30 13860 C 1237.45 -3.30487 -0.836118 0
M  V30 13861 H 1238.65 -2.85586 0.915453 0
M  V30 13862 H 1236.2 -1.47652 0.512691 0
M  V30 13863 H 1236.94 -2.78853 -1.65563 0
M  V30 13864 H 1236.72 -3.9109 -0.281271 0
M  V30 13865 H 1238.21 -3.97848 -1.26914 0
M  V30 13866 N 1238.65 -0.49465 -1.49636 0
M  V30 13867 C 1239.87 0.051305 -2.07337 0
M  V30 13868 C 1240.3 1.30637 -1.35335 0
M  V30 13869 O 1239.66 1.76647 -0.408126 0
M  V30 13870 C 1239.7 0.294425 -3.59396 0
M  V30 13871 O 1238.81 1.3704 -3.88965 0
M  V30 13872 H 1238.15 -0.023408 -0.663587 0
M  V30 13873 H 1240.68 -0.692451 -1.92526 0
M  V30 13874 H 1240.69 0.527854 -4.04571 0
M  V30 13875 H 1239.36 -0.622583 -4.11214 0
M  V30 13876 H 1237.94 1.12242 -3.55607 0
M  V30 13877 N 1240.13 1.55939 -0.228214 0
M  V30 13878 C 1241.08 2.17223 0.692674 0
M  V30 13879 C 1242.06 1.12252 1.15275 0
M  V30 13880 O 1243.25 1.3822 1.10563 0
M  V30 13881 C 1240.38 2.86084 1.89766 0
M  V30 13882 C 1239.47 3.98288 1.45695 0
M  V30 13883 N 1239.86 5.00515 0.729258 0
M  V30 13884 C 1238.16 4.105 1.74372 0
M  V30 13885 C 1238.86 5.79516 0.503606 0
M  V30 13886 N 1237.83 5.33119 1.06229 0
M  V30 13887 H 1241.63 2.9362 0.128345 0
M  V30 13888 H 1239.15 1.62373 -0.0297445 0
M  V30 13889 H 1241.15 3.28404 2.5682 0
M  V30 13890 H 1239.81 2.11185 2.46639 0
M  V30 13891 H 1240.82 5.16495 0.381261 0
M  V30 13892 H 1237.49 3.46759 2.32518 0
M  V30 13893 H 1238.88 6.71857 -0.0760344 0
M  V30 13894 N 1241.6 -0.0451101 1.57535 0
M  V30 13895 C 1242.85 -0.740209 1.88809 0
M  V30 13896 C 1243.18 -1.75854 0.823956 0
M  V30 13897 O 1242.46 -1.93817 -0.16286 0
M  V30 13898 C 1242.74 -1.42424 3.30737 0
M  V30 13899 C 1242.59 -0.42052 4.4783 0
M  V30 13900 C 1243.91 -2.36241 3.7132 0
M  V30 13901 H 1241.03 -0.267628 0.686691 0
M  V30 13902 H 1243.67 -0.00309149 1.9 0
M  V30 13903 H 1241.82 -2.05254 3.29853 0
M  V30 13904 H 1243.5 0.204625 4.60846 0
M  V30 13905 H 1241.74 0.261739 4.3301 0
M  V30 13906 H 1242.41 -0.937298 5.43984 0
M  V30 13907 H 1244.89 -1.83468 3.73468 0
M  V30 13908 H 1243.76 -2.81091 4.71465 0
M  V30 13909 H 1244.02 -3.2222 3.02699 0
M  V30 13910 N 1243.08 -1.54377 -0.317073 0
M  V30 13911 C 1244.05 -1.83488 -1.37349 0
M  V30 13912 C 1245.05 -0.706981 -1.44424 0
M  V30 13913 O 1246.24 -0.975289 -1.44339 0
M  V30 13914 C 1243.37 -2.00074 -2.76013 0
M  V30 13915 H 1244.56 -2.77883 -1.12789 0
M  V30 13916 H 1242.11 -1.46194 -0.552902 0
M  V30 13917 H 1242.85 -1.07913 -3.05819 0
M  V30 13918 H 1242.63 -2.82155 -2.7227 0
M  V30 13919 H 1244.12 -2.24022 -3.52426 0
M  V30 13920 N 1244.56 0.579466 -1.4656 0
M  V30 13921 C 1245.84 1.33973 -1.42515 0
M  V30 13922 C 1246.22 2.10812 -0.110317 0
M  V30 13923 O 1245.57 2.09679 0.908135 0
M  V30 13924 C 1245.78 2.26301 -2.65686 0
M  V30 13925 C 1247.12 2.88027 -3.1197 0
M  V30 13926 O 1248.15 2.36612 -2.66257 0
M  V30 13927 O 1247.01 3.81423 -3.9138 0
M  V30 13928 H 1244.1 0.602121 -0.566903 0
M  V30 13929 H 1246.65 0.600214 -1.58731 0
M  V30 13930 H 1245.42 1.68973 -3.52936 0
M  V30 13931 H 1245.04 3.07586 -2.51945 0
M  V30 13932 N 1246.04 1.3432 0.824371 0
M  V30 13933 C 1246.99 1.2578 1.95658 0
M  V30 13934 C 1247.98 0.156199 1.68678 0
M  V30 13935 O 1249.19 0.321081 1.77113 0
M  V30 13936 H 1245.56 0.390711 0.642533 0
M  V30 13937 H 1247.53 2.21471 1.99983 0
M  V30 13938 C 1246.28 1.02865 3.32136 0
M  V30 13939 H 1245.6 1.86863 3.53443 0
M  V30 13940 H 1247.04 1.00925 4.11813 0
M  V30 13941 C 1245.5 -0.268097 3.35832 0
M  V30 13942 O 1246.03 -1.26995 3.81097 0
M  V30 13943 N 1244.24 -0.300702 2.8904 0
M  V30 13944 H 1243.79 0.51515 2.52396 0
M  V30 13945 H 1243.74 -1.16811 2.91895 0
M  V30 13946 N 1247.52 -1.0444 1.18026 0
M  V30 13947 C 1248.79 -1.74533 0.883045 0
M  V30 13948 C 1249.17 -2.01944 -0.614975 0
M  V30 13949 O 1248.52 -1.66158 -1.56855 0
M  V30 13950 C 1248.73 -3.0332 1.72621 0
M  V30 13951 C 1250.08 -3.77128 1.9509 0
M  V30 13952 O 1251.1 -3.13209 1.69643 0
M  V30 13953 O 1249.96 -4.92001 2.37903 0
M  V30 13954 H 1247.06 -0.759315 0.327673 0
M  V30 13955 H 1249.6 -1.10539 1.2876 0
M  V30 13956 H 1248.37 -2.79171 2.74188 0
M  V30 13957 H 1248 -3.75052 1.31993 0
M  V30 13958 N 1248.99 -0.981699 -1.2329 0
M  V30 13959 C 1250.24 -0.646818 -1.91048 0
M  V30 13960 C 1250.56 0.823479 -1.77421 0
M  V30 13961 O 1251.76 1.26948 -2.39993 0
M  V30 13962 C 1250.22 -1.1063 -3.42475 0
M  V30 13963 C 1249.83 -2.60103 -3.6476 0
M  V30 13964 C 1251.57 -0.845227 -4.16 0
M  V30 13965 C 1249.48 -2.99712 -5.0983 0
M  V30 13966 H 1248.41 -0.238221 -0.715379 0
M  V30 13967 H 1251.06 -1.18977 -1.39702 0
M  V30 13968 H 1249.44 -0.491554 -3.92937 0
M  V30 13969 H 1250.61 -3.26828 -3.24839 0
M  V30 13970 H 1248.93 -2.83972 -3.04547 0
M  V30 13971 H 1251.53 -1.11699 -5.22903 0
M  V30 13972 H 1251.87 0.218661 -4.15725 0
M  V30 13973 H 1252.4 -1.42162 -3.7153 0
M  V30 13974 H 1249.14 -4.0523 -5.15237 0
M  V30 13975 H 1248.66 -2.37683 -5.50697 0
M  V30 13976 H 1250.34 -2.9039 -5.78172 0
M  V30 13977 N 1250.47 1.3842 -0.753509 0
M  V30 13978 C 1251.7 2.04403 -0.320449 0
M  V30 13979 C 1252.12 1.5683 1.05118 0
M  V30 13980 O 1251.47 0.741335 1.66765 0
M  V30 13981 C 1251.52 3.59954 -0.333937 0
M  V30 13982 O 1251.24 4.05782 -1.65144 0
M  V30 13983 C 1252.75 4.43156 0.112997 0
M  V30 13984 H 1249.97 0.656881 -0.136927 0
M  V30 13985 H 1252.51 1.77112 -1.02234 0
M  V30 13986 H 1250.66 3.86083 0.319215 0
M  V30 13987 H 1251.08 5.00213 -1.57757 0
M  V30 13988 H 1252.55 5.51975 0.0523995 0
M  V30 13989 H 1253.03 4.23581 1.16087 0
M  V30 13990 H 1253.64 4.22216 -0.511278 0
M  V30 13991 N 1251.95 0.502579 1.49372 0
M  V30 13992 C 1253.36 0.055187 1.86618 0
M  V30 13993 C 1253.71 -1.35938 1.41476 0
M  V30 13994 O 1252.84 -2.01333 0.793338 0
M  V30 13995 C 1253.43 0.0933734 3.38671 0
M  V30 13996 C 1251.99 -0.298685 3.75213 0
M  V30 13997 C 1251.14 0.465216 2.7337 0
M  V30 13998 H 1254.09 0.715281 1.41667 0
M  V30 13999 H 1254.11 -0.701549 3.73977 0
M  V30 14000 H 1253.62 1.12303 3.71497 0
M  V30 14001 H 1251.72 -1.33151 3.47996 0
M  V30 14002 H 1251.84 0.0218637 4.79095 0
M  V30 14003 H 1250.2 -0.0851469 2.54558 0
M  V30 14004 H 1250.98 1.49498 3.09039 0
M  V30 14005 N 1253.43 -1.55816 0.23648 0
M  V30 14006 C 1254.66 -2.02789 -0.39501 0
M  V30 14007 C 1255.07 -1.1153 -1.52832 0
M  V30 14008 O 1254.41 -0.120084 -1.83307 0
M  V30 14009 C 1254.47 -3.46052 -0.974066 0
M  V30 14010 C 1254.14 -4.56993 0.0256825 0
M  V30 14011 C 1255.13 -5.13208 0.831477 0
M  V30 14012 C 1252.82 -5.0208 0.148759 0
M  V30 14013 C 1254.81 -6.12994 1.74691 0
M  V30 14014 C 1252.5 -6.017 1.0677 0
M  V30 14015 C 1253.5 -6.57035 1.86531 0
M  V30 14016 O 1253.18 -7.54714 2.76878 0
M  V30 14017 H 1252.92 -0.668672 -0.0992687 0
M  V30 14018 H 1255.47 -2.02312 0.354826 0
M  V30 14019 H 1253.7 -3.43645 -1.77327 0
M  V30 14020 H 1255.39 -3.76586 -1.51453 0
M  V30 14021 H 1256.16 -4.79214 0.746922 0
M  V30 14022 H 1252.03 -4.58679 -0.461976 0
M  V30 14023 H 1255.58 -6.56111 2.36989 0
M  V30 14024 H 1251.48 -6.35115 1.15322 0
M  V30 14025 H 1252.24 -7.72292 2.71122 0
M  V30 14026 N 1254.91 0.036755 -1.57557 0
M  V30 14027 C 1255.84 1.03939 -2.09091 0
M  V30 14028 C 1256.82 1.38196 -0.991761 0
M  V30 14029 O 1258 1.47214 -1.26656 0
M  V30 14030 C 1255.13 2.34263 -2.56394 0
M  V30 14031 C 1254.09 2.14269 -3.70504 0
M  V30 14032 C 1253.41 3.50286 -4.03985 0
M  V30 14033 C 1254.71 1.53514 -4.9923 0
M  V30 14034 H 1256.41 0.610429 -2.93111 0
M  V30 14035 H 1253.95 0.292183 -1.41005 0
M  V30 14036 H 1255.91 3.04727 -2.91066 0
M  V30 14037 H 1254.63 2.79205 -1.69447 0
M  V30 14038 H 1253.29 1.46239 -3.36169 0
M  V30 14039 H 1252.94 3.92861 -3.14116 0
M  V30 14040 H 1252.64 3.37735 -4.80842 0
M  V30 14041 H 1254.16 4.22124 -4.41184 0
M  V30 14042 H 1255.57 2.13885 -5.31908 0
M  V30 14043 H 1253.97 1.51561 -5.80646 0
M  V30 14044 H 1255.04 0.500126 -4.82314 0
M  V30 14045 N 1256.39 1.54543 0.308881 0
M  V30 14046 C 1257.63 1.73706 1.04661 0
M  V30 14047 C 1257.96 0.517111 1.87189 0
M  V30 14048 O 1257.24 -0.485856 1.88334 0
M  V30 14049 C 1257.52 3.02141 1.95916 0
M  V30 14050 C 1257.38 4.34419 1.1662 0
M  V30 14051 C 1258.69 3.26401 2.95213 0
M  V30 14052 H 1255.81 0.63203 0.379087 0
M  V30 14053 H 1258.46 1.87253 0.321947 0
M  V30 14054 H 1256.61 2.90723 2.57706 0
M  V30 14055 H 1258.28 4.57743 0.571772 0
M  V30 14056 H 1256.52 4.3126 0.468747 0
M  V30 14057 H 1257.19 5.20535 1.83704 0
M  V30 14058 H 1259.67 3.37377 2.43549 0
M  V30 14059 H 1258.54 4.17597 3.56235 0
M  V30 14060 H 1258.8 2.44322 3.68455 0
M  V30 14061 N 1257.86 -0.571685 1.46866 0
M  V30 14062 C 1259.09 -1.36008 1.56578 0
M  V30 14063 C 1259.51 -1.86909 0.211326 0
M  V30 14064 O 1258.87 -1.62179 -0.810421 0
M  V30 14065 C 1258.92 -2.51598 2.58323 0
M  V30 14066 O 1258.02 -3.53383 2.1259 0
M  V30 14067 H 1257.36 -0.404593 0.526498 0
M  V30 14068 H 1259.89 -0.692357 1.92529 0
M  V30 14069 H 1259.9 -2.98366 2.78283 0
M  V30 14070 H 1258.58 -2.13904 3.56676 0
M  V30 14071 H 1257.16 -3.13019 2.02666 0
M  V30 14072 N 1259.34 -1.34755 -0.817236 0
M  V30 14073 C 1260.76 -1.14561 -1.11121 0
M  V30 14074 C 1260.96 0.0490776 -2.0144 0
M  V30 14075 O 1260.01 0.722897 -2.41931 0
M  V30 14076 C 1261.33 -2.44356 -1.75244 0
M  V30 14077 C 1262.87 -2.50465 -1.87713 0
M  V30 14078 C 1263.35 -3.80276 -2.55253 0
M  V30 14079 N 1264.84 -3.81468 -2.62747 0
M  V30 14080 C 1265.58 -4.78634 -3.15749 0
M  V30 14081 N 1265.07 -5.86184 -3.6927 0
M  V30 14082 N 1266.86 -4.66083 -3.14203 0
M  V30 14083 H 1259.02 -2.11293 -0.2166 0
M  V30 14084 H 1261.28 -0.934629 -0.158661 0
M  V30 14085 H 1260.98 -3.31899 -1.16344 0
M  V30 14086 H 1260.86 -2.58117 -2.75055 0
M  V30 14087 H 1263.25 -1.63358 -2.45761 0
M  V30 14088 H 1263.33 -2.40627 -0.867887 0
M  V30 14089 H 1262.97 -4.67776 -1.97858 0
M  V30 14090 H 1262.9 -3.87399 -3.56693 0
M  V30 14091 H 1265.39 -3.03753 -2.24817 0
M  V30 14092 H 1265.7 -6.56332 -4.0798 0
M  V30 14093 H 1264.05 -5.8989 -3.67498 0
M  V30 14094 H 1267.24 -3.81206 -2.7166 0
M  V30 14095 H 1267.41 -5.41973 -3.55203 0
M  V30 14096 N 1260.82 1.03812 -1.18578 0
M  V30 14097 C 1262.07 1.77056 -0.982718 0
M  V30 14098 C 1262.39 1.88294 0.487421 0
M  V30 14099 O 1261.65 1.38946 1.37813 0
M  V30 14100 C 1261.95 3.20297 -1.5857 0
M  V30 14101 C 1261.61 3.29088 -3.0824 0
M  V30 14102 C 1260.28 3.31194 -3.4909 0
M  V30 14103 C 1262.63 3.28981 -4.04253 0
M  V30 14104 C 1259.96 3.30839 -4.84523 0
M  V30 14105 C 1262.31 3.30166 -5.39605 0
M  V30 14106 C 1260.97 3.30565 -5.79899 0
M  V30 14107 H 1260.24 0.647895 -0.359602 0
M  V30 14108 H 1262.89 1.21911 -1.47682 0
M  V30 14109 H 1261.19 3.7846 -1.01367 0
M  V30 14110 H 1262.89 3.75619 -1.40398 0
M  V30 14111 H 1259.48 3.28171 -2.75685 0
M  V30 14112 H 1263.67 3.26543 -3.73743 0
M  V30 14113 H 1258.92 3.29467 -5.15035 0
M  V30 14114 H 1263.1 3.29033 -6.13767 0
M  V30 14115 H 1260.72 3.30044 -6.84818 0
M  V30 14116 N 1262.3 0.988223 1.22768 0
M  V30 14117 C 1263.53 0.678757 1.95132 0
M  V30 14118 C 1263.94 -0.759797 1.73274 0
M  V30 14119 O 1263.28 -1.52383 1.02592 0
M  V30 14120 C 1263.34 0.899007 3.48078 0
M  V30 14121 C 1263 2.32114 3.93665 0
M  V30 14122 C 1264 3.30034 4.01713 0
M  V30 14123 C 1261.69 2.65432 4.2644 0
M  V30 14124 C 1263.68 4.59349 4.41902 0
M  V30 14125 C 1261.37 3.94967 4.66309 0
M  V30 14126 C 1262.37 4.91737 4.74008 0
M  V30 14127 O 1262.05 6.18958 5.12977 0
M  V30 14128 H 1261.79 0.250588 0.627839 0
M  V30 14129 H 1264.34 1.32441 1.56999 0
M  V30 14130 H 1262.57 0.196182 3.86202 0
M  V30 14131 H 1264.26 0.585507 4.01655 0
M  V30 14132 H 1265.02 3.05626 3.76587 0
M  V30 14133 H 1260.9 1.90816 4.19655 0
M  V30 14134 H 1264.45 5.34881 4.47826 0
M  V30 14135 H 1260.34 4.19168 4.90886 0
M  V30 14136 H 1261.11 6.22826 5.31065 0
M  V30 14137 N 1263.78 -1.38018 0.760839 0
M  V30 14138 C 1265.19 -1.53437 0.439239 0
M  V30 14139 C 1265.39 -1.72184 -1.04666 0
M  V30 14140 O 1264.45 -1.73698 -1.83263 0
M  V30 14141 C 1265.76 -2.73724 1.24481 0
M  V30 14142 C 1267.31 -2.87579 1.23561 0
M  V30 14143 C 1267.78 -4.10836 2.02429 0
M  V30 14144 N 1269.27 -4.17928 1.99727 0
M  V30 14145 C 1270.01 -5.12309 2.57541 0
M  V30 14146 N 1269.51 -6.12317 3.24098 0
M  V30 14147 N 1271.3 -5.04712 2.47431 0
M  V30 14148 H 1263.45 -1.241 1.72375 0
M  V30 14149 H 1265.71 -0.603427 0.73115 0
M  V30 14150 H 1265.42 -2.663 2.29732 0
M  V30 14151 H 1265.29 -3.67111 0.866579 0
M  V30 14152 H 1267.68 -2.9448 0.191122 0
M  V30 14153 H 1267.76 -1.95183 1.6534 0
M  V30 14154 H 1267.4 -4.04696 3.06893 0
M  V30 14155 H 1267.33 -5.02326 1.58039 0
M  V30 14156 H 1269.83 -3.46307 1.51262 0
M  V30 14157 H 1270.14 -6.80842 3.65615 0
M  V30 14158 H 1268.48 -6.12628 3.28195 0
M  V30 14159 H 1271.67 -4.25524 1.95057 0
M  V30 14160 H 1271.85 -5.78085 2.92783 0
M  V30 14161 N 1265.25 -0.510493 -1.49103 0
M  V30 14162 C 1266.22 0.251915 -2.27811 0
M  V30 14163 C 1267.22 0.885432 -1.34226 0
M  V30 14164 O 1268.41 0.748494 -1.573 0
M  V30 14165 C 1265.54 1.3624 -3.12492 0
M  V30 14166 H 1266.73 -0.438872 -2.96671 0
M  V30 14167 H 1264.28 -0.265767 -1.54024 0
M  V30 14168 H 1265.02 2.08705 -2.48219 0
M  V30 14169 H 1264.8 0.913485 -3.81311 0
M  V30 14170 H 1266.29 1.89919 -3.71915 0
M  V30 14171 N 1266.73 1.55688 -0.24474 0
M  V30 14172 C 1268.14 1.84897 0.25882 0
M  V30 14173 C 1268.49 1.16653 1.57755 0
M  V30 14174 O 1267.62 0.444162 2.11793 0
M  V30 14175 C 1268.21 3.35434 0.476385 0
M  V30 14176 C 1266.77 3.64877 0.924213 0
M  V30 14177 C 1265.92 2.773 0.00021322 0
M  V30 14178 H 1268.87 1.51662 -0.467358 0
M  V30 14179 H 1268.89 3.56896 1.31929 0
M  V30 14180 H 1268.4 3.85076 -0.483567 0
M  V30 14181 H 1266.5 3.20711 1.89671 0
M  V30 14182 H 1266.62 4.72665 0.78257 0
M  V30 14183 H 1264.98 2.49517 0.511194 0
M  V30 14184 H 1265.76 3.29747 -0.955072 0
M  V30 14185 N 1268.21 -0.0283989 1.57574 0
M  V30 14186 C 1269.12 -1.04575 2.10003 0
M  V30 14187 C 1270.14 -1.39588 1.03881 0
M  V30 14188 O 1271.31 -1.48894 1.35619 0
M  V30 14189 C 1268.38 -2.32755 2.56955 0
M  V30 14190 C 1267.44 -2.04317 3.77562 0
M  V30 14191 C 1266.67 -3.26385 4.22266 0
M  V30 14192 O 1266.89 -4.37082 3.66491 0
M  V30 14193 O 1265.83 -3.12046 5.14695 0
M  V30 14194 H 1269.65 -0.630183 2.9709 0
M  V30 14195 H 1267.24 -0.245423 1.4737 0
M  V30 14196 H 1269.12 -3.08111 2.87482 0
M  V30 14197 H 1267.8 -2.73605 1.72979 0
M  V30 14198 H 1266.7 -1.26527 3.52054 0
M  V30 14199 H 1268.04 -1.68321 4.62524 0
M  V30 14200 N 1269.69 -1.54705 -0.300681 0
M  V30 14201 C 1270.94 -1.73211 -1.03349 0
M  V30 14202 C 1271.25 -0.52518 -1.88418 0
M  V30 14203 O 1272.46 -0.592049 -2.64966 0
M  V30 14204 C 1270.91 -3.06453 -1.88717 0
M  V30 14205 C 1270.52 -4.34625 -1.0865 0
M  V30 14206 C 1272.26 -3.34317 -2.61595 0
M  V30 14207 C 1270.17 -5.58919 -1.93297 0
M  V30 14208 H 1269.1 -0.64556 -0.389574 0
M  V30 14209 H 1271.75 -1.81186 -0.290472 0
M  V30 14210 H 1270.13 -2.92443 -2.67008 0
M  V30 14211 H 1271.31 -4.59471 -0.349707 0
M  V30 14212 H 1269.62 -4.13699 -0.473521 0
M  V30 14213 H 1272.22 -4.2438 -3.25278 0
M  V30 14214 H 1272.56 -2.53207 -3.30442 0
M  V30 14215 H 1273.1 -3.493 -1.90354 0
M  V30 14216 H 1269.83 -6.42697 -1.2892 0
M  V30 14217 H 1269.35 -5.38258 -2.64647 0
M  V30 14218 H 1271.03 -5.96187 -2.51336 0
M  V30 14219 N 1271.17 0.563888 -1.47167 0
M  V30 14220 C 1272.42 1.31766 -1.5271 0
M  V30 14221 C 1272.73 1.94664 -0.191164 0
M  V30 14222 O 1273.93 2.71214 -0.124543 0
M  V30 14223 C 1272.39 2.38907 -2.69168 0
M  V30 14224 C 1272 1.8223 -4.09263 0
M  V30 14225 C 1273.74 3.15508 -2.83999 0
M  V30 14226 C 1271.65 2.87111 -5.17031 0
M  V30 14227 H 1270.58 0.495421 -0.568396 0
M  V30 14228 H 1273.23 0.599665 -1.73425 0
M  V30 14229 H 1271.61 3.13591 -2.4182 0
M  V30 14230 H 1272.79 1.13963 -4.46485 0
M  V30 14231 H 1271.1 1.18235 -3.99261 0
M  V30 14232 H 1273.7 3.93816 -3.61681 0
M  V30 14233 H 1274.04 3.69277 -1.92197 0
M  V30 14234 H 1274.57 2.47934 -3.11085 0
M  V30 14235 H 1271.31 2.38204 -6.10687 0
M  V30 14236 H 1270.83 3.53809 -4.84334 0
M  V30 14237 H 1272.51 3.50724 -5.43692 0
M  V30 14238 N 1272.64 1.35187 0.810078 0
M  V30 14239 C 1273.89 1.27602 1.56207 0
M  V30 14240 C 1274.21 -0.148621 1.95035 0
M  V30 14241 O 1275.41 -0.346721 2.69277 0
M  V30 14242 C 1273.87 2.23759 2.81886 0
M  V30 14243 C 1273.48 3.71549 2.5031 0
M  V30 14244 C 1275.22 2.25109 3.59898 0
M  V30 14245 C 1273.13 4.5954 3.7226 0
M  V30 14246 H 1272.06 0.474078 0.586316 0
M  V30 14247 H 1274.71 1.6043 0.890759 0
M  V30 14248 H 1273.09 1.83898 3.5071 0
M  V30 14249 H 1274.26 4.20025 1.89515 0
M  V30 14250 H 1272.58 3.72773 1.85551 0
M  V30 14251 H 1275.18 2.88066 4.50469 0
M  V30 14252 H 1275.52 1.25387 3.96968 0
M  V30 14253 H 1276.05 2.63481 2.98031 0
M  V30 14254 H 1272.79 5.60246 3.403 0
M  V30 14255 H 1272.31 4.15792 4.32293 0
M  V30 14256 H 1273.99 4.74789 4.39528 0
M  V30 14257 N 1274.12 -1.03182 1.19127 0
M  V30 14258 C 1275.37 -1.76184 0.990134 0
M  V30 14259 C 1275.69 -1.88986 -0.480546 0
M  V30 14260 O 1274.96 -1.4213 -1.34817 0
M  V30 14261 H 1273.54 -0.652668 0.363364 0
M  V30 14262 H 1276.2 -1.24481 1.49968 0
M  V30 14263 H 1275.3 -2.77119 1.43568 0
M  V30 14264 N 1275.6 -0.99472 -1.22242 0
M  V30 14265 C 1276.55 -0.546504 -2.24236 0
M  V30 14266 C 1277.52 0.422101 -1.60647 0
M  V30 14267 O 1278.7 0.326452 -1.87987 0
M  V30 14268 C 1275.84 0.130909 -3.44852 0
M  V30 14269 C 1274.96 -0.879653 -4.22949 0
M  V30 14270 C 1274.09 -0.175569 -5.3091 0
M  V30 14271 C 1273.13 -1.17438 -6.00729 0
M  V30 14272 N 1272.27 -0.498474 -7.00328 0
M  V30 14273 H 1277.11 -1.42099 -2.61939 0
M  V30 14274 H 1274.64 -0.711755 -1.28734 0
M  V30 14275 H 1276.6 0.540596 -4.13683 0
M  V30 14276 H 1275.23 0.96917 -3.07907 0
M  V30 14277 H 1274.28 -1.40765 -3.53397 0
M  V30 14278 H 1275.6 -1.64017 -4.71062 0
M  V30 14279 H 1274.75 0.290756 -6.06003 0
M  V30 14280 H 1273.49 0.617438 -4.83776 0
M  V30 14281 H 1272.49 -1.65131 -5.24416 0
M  V30 14282 H 1273.72 -1.96829 -6.4995 0
M  V30 14283 H 1271.66 0.275063 -6.55423 0
M  V30 14284 H 1271.58 -1.19741 -7.46457 0
M  V30 14285 H 1272.85 -0.0550119 -7.79481 0
M  V30 14286 N 1277.08 1.37613 -0.768148 0
M  V30 14287 C 1278.3 2.04579 -0.340892 0
M  V30 14288 C 1278.73 1.57556 1.02751 0
M  V30 14289 O 1278.09 0.734151 1.65771 0
M  V30 14290 C 1278.13 3.58495 -0.389099 0
M  V30 14291 O 1277.24 4.07838 0.611741 0
M  V30 14292 H 1276.58 0.647246 -0.148216 0
M  V30 14293 H 1279.11 1.75999 -1.04333 0
M  V30 14294 H 1279.12 4.07263 -0.245116 0
M  V30 14295 H 1277.79 3.92076 -1.38742 0
M  V30 14296 H 1276.37 3.70399 0.431173 0
M  V30 14297 N 1278.56 0.518393 1.4883 0
M  V30 14298 C 1279.79 -0.0161765 2.06594 0
M  V30 14299 C 1280.19 -1.29771 1.37681 0
M  V30 14300 O 1279.54 -1.77991 0.454421 0
M  V30 14301 C 1279.6 -0.322505 3.5805 0
M  V30 14302 C 1279.26 0.863848 4.48761 0
M  V30 14303 C 1280.26 1.75912 4.89235 0
M  V30 14304 C 1277.95 1.06757 4.90824 0
M  V30 14305 C 1279.94 2.84211 5.70528 0
M  V30 14306 C 1277.63 2.15372 5.7189 0
M  V30 14307 C 1278.62 3.03932 6.11649 0
M  V30 14308 O 1278.31 4.1067 6.9109 0
M  V30 14309 H 1278.04 0.0251212 0.675533 0
M  V30 14310 H 1280.6 0.720052 1.92365 0
M  V30 14311 H 1278.83 -1.11256 3.7035 0
M  V30 14312 H 1280.52 -0.797764 3.97983 0
M  V30 14313 H 1281.28 1.61362 4.5737 0
M  V30 14314 H 1277.16 0.387566 4.59368 0
M  V30 14315 H 1280.71 3.53364 6.01481 0
M  V30 14316 H 1276.6 2.2991 6.03168 0
M  V30 14317 H 1277.37 4.08237 7.09426 0
M  V30 14318 N 1280.03 -1.55556 0.252993 0
M  V30 14319 C 1281.31 -1.91022 -0.420696 0
M  V30 14320 C 1281.69 -1.17452 -1.75409 0
M  V30 14321 O 1281.04 -0.294 -2.26601 0
M  V30 14322 C 1281.25 -3.441 -0.582787 0
M  V30 14323 C 1282.6 -4.15468 -0.875873 0
M  V30 14324 O 1283.62 -3.49872 -0.668425 0
M  V30 14325 O 1282.48 -5.31508 -1.27128 0
M  V30 14326 H 1279.57 -0.7953 -0.226776 0
M  V30 14327 H 1282.12 -1.67072 0.297511 0
M  V30 14328 H 1280.89 -3.89673 0.356474 0
M  V30 14329 H 1280.52 -3.73933 -1.3513 0
M  V30 14330 N 1281.51 0.0200419 -1.57587 0
M  V30 14331 C 1282.74 0.719511 -1.93666 0
M  V30 14332 C 1283.15 1.68934 -0.85193 0
M  V30 14333 O 1282.49 1.8282 0.179593 0
M  V30 14334 C 1282.56 1.52382 -3.25607 0
M  V30 14335 C 1282.22 0.717784 -4.51328 0
M  V30 14336 C 1283.22 0.0141272 -5.19898 0
M  V30 14337 C 1280.9 0.669662 -4.97816 0
M  V30 14338 C 1282.9 -0.726853 -6.33242 0
M  V30 14339 C 1280.58 -0.0750577 -6.11054 0
M  V30 14340 C 1281.58 -0.772067 -6.78622 0
M  V30 14341 O 1281.27 -1.50468 -7.89693 0
M  V30 14342 H 1281 0.206681 -0.643629 0
M  V30 14343 H 1283.55 -0.0211203 -2.05389 0
M  V30 14344 H 1281.78 2.30848 -3.10236 0
M  V30 14345 H 1283.47 2.10675 -3.46945 0
M  V30 14346 H 1284.24 0.0422784 -4.84982 0
M  V30 14347 H 1280.12 1.20169 -4.45062 0
M  V30 14348 H 1283.66 -1.27143 -6.85916 0
M  V30 14349 H 1279.56 -0.1051 -6.45414 0
M  V30 14350 H 1280.33 -1.41929 -8.06101 0
M  V30 14351 N 1282.99 1.54862 0.292472 0
M  V30 14352 C 1284.24 1.74203 1.02458 0
M  V30 14353 C 1284.56 0.535398 1.87506 0
M  V30 14354 O 1283.83 -0.450164 1.90658 0
M  V30 14355 H 1282.41 0.642369 0.381276 0
M  V30 14356 H 1285.07 1.92232 0.321398 0
M  V30 14357 H 1284.17 2.63486 1.67277 0
M  V30 14358 N 1284.47 -0.556076 1.47464 0
M  V30 14359 C 1285.72 -1.30955 1.53407 0
M  V30 14360 C 1286.03 -1.94559 0.201485 0
M  V30 14361 O 1287.24 -2.71144 0.138925 0
M  V30 14362 C 1285.69 -2.37476 2.70431 0
M  V30 14363 C 1285.3 -1.80057 4.10224 0
M  V30 14364 C 1287.04 -3.13997 2.85668 0
M  V30 14365 C 1284.95 -2.84365 5.18547 0
M  V30 14366 H 1283.88 -0.4924 0.571015 0
M  V30 14367 H 1286.53 -0.590459 1.73741 0
M  V30 14368 H 1284.91 -3.12304 2.43479 0
M  V30 14369 H 1286.09 -1.11593 4.47083 0
M  V30 14370 H 1284.4 -1.16116 3.99882 0
M  V30 14371 H 1287 -3.91892 3.63764 0
M  V30 14372 H 1287.34 -3.68253 1.94153 0
M  V30 14373 H 1287.88 -2.46281 3.12395 0
M  V30 14374 H 1284.62 -2.34963 6.11942 0
M  V30 14375 H 1284.14 -3.51235 4.86203 0
M  V30 14376 H 1285.81 -3.47836 5.45545 0
M  V30 14377 N 1285.95 -1.35615 -0.802897 0
M  V30 14378 C 1287.22 -1.19655 -1.54732 0
M  V30 14379 C 1287.6 0.222827 -2.09921 0
M  V30 14380 O 1286.95 1.2268 -1.92774 0
M  V30 14381 C 1287.16 -2.26761 -2.65293 0
M  V30 14382 C 1288.51 -2.62754 -3.33535 0
M  V30 14383 O 1289.53 -2.25702 -2.75567 0
M  V30 14384 O 1288.39 -3.26476 -4.38264 0
M  V30 14385 H 1285.49 -0.465079 -0.683835 0
M  V30 14386 H 1288.03 -1.47307 -0.84254 0
M  V30 14387 H 1286.81 -3.21946 -2.22411 0
M  V30 14388 H 1286.43 -2.00399 -3.43404 0
M  V30 14389 N 1287.43 1.02549 -1.19673 0
M  V30 14390 C 1288.36 2.10513 -0.880879 0
M  V30 14391 C 1289.34 1.61776 0.163455 0
M  V30 14392 O 1290.52 1.8846 0.0390085 0
M  V30 14393 C 1287.65 3.37195 -0.318936 0
M  V30 14394 C 1286.69 4.04808 -1.34286 0
M  V30 14395 S 1287.53 4.49881 -2.90461 0
M  V30 14396 C 1288.68 5.79776 -2.35819 0
M  V30 14397 H 1288.92 2.3698 -1.7952 0
M  V30 14398 H 1286.45 1.15537 -1.02423 0
M  V30 14399 H 1288.41 4.105 -0.00124931 0
M  V30 14400 H 1287.07 3.08815 0.573749 0
M  V30 14401 H 1286.26 4.9592 -0.898859 0
M  V30 14402 H 1285.86 3.37688 -1.60756 0
M  V30 14403 H 1288.15 6.54501 -1.75026 0
M  V30 14404 H 1289.1 6.2896 -3.25292 0
M  V30 14405 H 1289.51 5.35611 -1.78272 0
M  V30 14406 N 1288.9 1.00119 1.21713 0
M  V30 14407 C 1290.15 0.692409 1.91252 0
M  V30 14408 C 1290.5 -0.768052 1.76405 0
M  V30 14409 O 1289.8 -1.54913 1.1275 0
M  V30 14410 C 1289.99 1.04376 3.41819 0
M  V30 14411 C 1289.82 2.53682 3.71316 0
M  V30 14412 C 1288.59 3.20222 3.90879 0
M  V30 14413 C 1290.79 3.51829 3.75127 0
M  V30 14414 N 1288.77 4.58919 4.07758 0
M  V30 14415 C 1290.14 4.7602 3.97246 0
M  V30 14416 C 1292.2 3.46019 3.58015 0
M  V30 14417 C 1290.9 5.95108 4.04029 0
M  V30 14418 C 1292.93 4.64492 3.66061 0
M  V30 14419 C 1292.29 5.87486 3.88638 0
M  V30 14420 H 1288.39 0.304785 0.72016 0
M  V30 14421 H 1290.97 1.28289 1.46459 0
M  V30 14422 H 1289.14 0.481773 3.854 0
M  V30 14423 H 1290.87 0.690108 3.98773 0
M  V30 14424 H 1287.63 2.70673 3.8863 0
M  V30 14425 H 1288.05 5.30884 4.20108 0
M  V30 14426 H 1292.69 2.51938 3.3954 0
M  V30 14427 H 1290.41 6.89585 4.21305 0
M  V30 14428 H 1294 4.61595 3.54148 0
M  V30 14429 H 1292.88 6.77628 3.94703 0
M  V30 14430 N 1290.38 -1.37203 0.775435 0
M  V30 14431 C 1291.61 -2.04396 0.351737 0
M  V30 14432 C 1292.03 -1.58099 -1.01913 0
M  V30 14433 O 1291.39 -0.742932 -1.65379 0
M  V30 14434 C 1291.44 -3.58283 0.408105 0
M  V30 14435 O 1290.54 -4.08156 -0.590104 0
M  V30 14436 H 1289.88 -0.646451 0.151647 0
M  V30 14437 H 1292.41 -1.75443 1.05265 0
M  V30 14438 H 1292.42 -4.07127 0.266711 0
M  V30 14439 H 1291.1 -3.91335 1.40819 0
M  V30 14440 H 1289.67 -3.70622 -0.411524 0
M  V30 14441 N 1291.86 -0.526279 -1.48553 0
M  V30 14442 C 1293.11 0.00918008 -2.02798 0
M  V30 14443 C 1293.44 1.34284 -1.4029 0
M  V30 14444 O 1292.71 1.86639 -0.547355 0
M  V30 14445 C 1293 0.135102 -3.59846 0
M  V30 14446 C 1292.85 -1.22347 -4.32841 0
M  V30 14447 C 1294.17 0.863673 -4.31542 0
M  V30 14448 H 1291.29 0.00186216 -0.736998 0
M  V30 14449 H 1293.93 -0.682591 -1.77315 0
M  V30 14450 H 1292.08 0.724279 -3.81689 0
M  V30 14451 H 1293.75 -1.85347 -4.22427 0
M  V30 14452 H 1291.99 -1.80631 -3.94405 0
M  V30 14453 H 1292.67 -1.08839 -5.41164 0
M  V30 14454 H 1295.14 0.363734 -4.14507 0
M  V30 14455 H 1294.02 0.92067 -5.41124 0
M  V30 14456 H 1294.28 1.91313 -3.98562 0
M  V30 14457 N 1293.34 1.5542 -0.261239 0
M  V30 14458 C 1294.59 1.9889 0.358777 0
M  V30 14459 C 1294.91 1.15092 1.57413 0
M  V30 14460 O 1294.18 0.237095 1.9446 0
M  V30 14461 H 1292.76 0.734599 0.13555 0
M  V30 14462 H 1295.42 1.91483 -0.363357 0
M  V30 14463 H 1294.51 3.05082 0.658142 0
M  V30 14464 N 1294.82 -0.0116844 1.57596 0
M  V30 14465 C 1296.06 -0.703597 1.91908 0
M  V30 14466 C 1296.42 -1.71581 0.861628 0
M  V30 14467 O 1297.62 -2.45724 1.08963 0
M  V30 14468 C 1295.89 -1.34031 3.31316 0
M  V30 14469 S 1297.45 -2.05896 3.87495 0
M  V30 14470 H 1294.27 -0.23269 0.671846 0
M  V30 14471 H 1296.87 0.0421973 1.95454 0
M  V30 14472 H 1295.57 -0.590617 4.06128 0
M  V30 14473 H 1295.11 -2.12428 3.31116 0
M  V30 14474 H 1297.12 -3.33266 3.67626 0
M  V30 14475 N 1296.29 -1.55015 -0.284256 0
M  V30 14476 C 1297.52 -1.79102 -1.03586 0
M  V30 14477 C 1297.94 -0.558733 -1.80343 0
M  V30 14478 O 1297.29 0.471925 -1.76293 0
M  V30 14479 C 1297.34 -3.00915 -2.0033 0
M  V30 14480 O 1297.07 -4.19384 -1.26685 0
M  V30 14481 C 1298.57 -3.3752 -2.87394 0
M  V30 14482 H 1295.79 -0.596912 -0.306491 0
M  V30 14483 H 1298.33 -2.02005 -0.31845 0
M  V30 14484 H 1296.49 -2.80171 -2.67549 0
M  V30 14485 H 1296.9 -4.88175 -1.91796 0
M  V30 14486 H 1298.37 -4.25953 -3.51095 0
M  V30 14487 H 1298.85 -2.56418 -3.56576 0
M  V30 14488 H 1299.46 -3.60483 -2.25682 0
M  V30 14489 N 1297.77 0.548248 -1.47757 0
M  V30 14490 C 1298.7 1.66409 -1.63799 0
M  V30 14491 C 1299.68 1.62973 -0.487211 0
M  V30 14492 O 1300.87 1.80455 -0.717612 0
M  V30 14493 C 1298 3.05035 -1.66046 0
M  V30 14494 C 1296.95 3.23322 -2.80441 0
M  V30 14495 C 1296.28 4.62824 -2.67765 0
M  V30 14496 C 1297.58 3.07837 -4.2194 0
M  V30 14497 H 1299.27 1.53239 -2.57212 0
M  V30 14498 H 1296.82 0.735783 -1.23783 0
M  V30 14499 H 1298.77 3.82951 -1.75859 0
M  V30 14500 H 1297.49 3.19185 -0.69199 0
M  V30 14501 H 1296.15 2.47816 -2.70153 0
M  V30 14502 H 1295.8 4.73786 -1.68927 0
M  V30 14503 H 1295.5 4.76007 -3.44515 0
M  V30 14504 H 1297.03 5.42864 -2.7952 0
M  V30 14505 H 1298.44 3.75563 -4.33157 0
M  V30 14506 H 1296.84 3.32525 -4.99547 0
M  V30 14507 H 1297.91 2.04474 -4.3968 0
M  V30 14508 N 1299.25 1.36039 0.795694 0
M  V30 14509 C 1300.48 1.32866 1.58209 0
M  V30 14510 C 1300.89 -0.0935189 1.88969 0
M  V30 14511 O 1300.23 -1.05905 1.501 0
M  V30 14512 C 1300.29 2.07872 2.93308 0
M  V30 14513 C 1299.96 3.56999 2.85309 0
M  V30 14514 C 1300.95 4.51374 2.57987 0
M  V30 14515 C 1298.64 3.99798 3.04083 0
M  V30 14516 C 1300.63 5.86526 2.49533 0
M  V30 14517 C 1298.32 5.35042 2.95251 0
M  V30 14518 C 1299.32 6.28218 2.68013 0
M  V30 14519 O 1299.01 7.60979 2.59163 0
M  V30 14520 H 1298.74 0.457589 0.497583 0
M  V30 14521 H 1301.29 1.79637 0.995978 0
M  V30 14522 H 1299.52 1.55755 3.53945 0
M  V30 14523 H 1301.21 1.97638 3.54534 0
M  V30 14524 H 1301.98 4.19623 2.43191 0
M  V30 14525 H 1297.86 3.27652 3.24292 0
M  V30 14526 H 1301.4 6.59222 2.28193 0
M  V30 14527 H 1297.3 5.66404 3.09608 0
M  V30 14528 H 1298.06 7.7103 2.74691 0
M  V30 14529 N 1300.73 -1.01913 1.20215 0
M  V30 14530 C 1301.64 -2.13864 0.964328 0
M  V30 14531 C 1302.65 -1.73821 -0.0789556 0
M  V30 14532 O 1303.83 -2.01111 0.107914 0
M  V30 14533 C 1300.9 -3.42827 0.516757 0
M  V30 14534 C 1299.96 -3.97127 1.63059 0
M  V30 14535 C 1299.19 -5.19935 1.20428 0
M  V30 14536 O 1299.41 -5.70355 0.0719119 0
M  V30 14537 O 1298.35 -5.67322 2.01071 0
M  V30 14538 H 1302.17 -2.36795 1.90162 0
M  V30 14539 H 1299.76 -1.1226 0.985803 0
M  V30 14540 H 1301.64 -4.20493 0.276272 0
M  V30 14541 H 1300.31 -3.21318 -0.391983 0
M  V30 14542 H 1299.22 -3.20752 1.92533 0
M  V30 14543 H 1300.55 -4.2302 2.51624 0
M  V30 14544 N 1302.21 -1.00763 -1.2118 0
M  V30 14545 C 1303.14 -0.590493 -2.2591 0
M  V30 14546 C 1304.12 0.390002 -1.65569 0
M  V30 14547 O 1305.3 0.277406 -1.92208 0
M  V30 14548 C 1302.43 0.0810388 -3.47205 0
M  V30 14549 C 1301.39 -0.81951 -4.20081 0
M  V30 14550 C 1300.71 -0.014244 -5.34698 0
M  V30 14551 C 1302.01 -2.12336 -4.7719 0
M  V30 14552 H 1303.71 -1.46595 -2.61056 0
M  V30 14553 H 1301.25 -0.706321 -1.25487 0
M  V30 14554 H 1303.21 0.384355 -4.19644 0
M  V30 14555 H 1301.93 0.991145 -3.11197 0
M  V30 14556 H 1300.59 -1.10669 -3.49497 0
M  V30 14557 H 1300.24 0.897233 -4.94933 0
M  V30 14558 H 1299.94 -0.613883 -5.84384 0
M  V30 14559 H 1301.46 0.282827 -6.09945 0
M  V30 14560 H 1302.87 -1.88301 -5.41494 0
M  V30 14561 H 1301.27 -2.67308 -5.37277 0
M  V30 14562 H 1302.34 -2.79238 -3.96427 0
M  V30 14563 N 1303.68 1.3679 -0.7827 0
M  V30 14564 C 1304.91 2.03382 -0.363207 0
M  V30 14565 C 1305.32 1.59157 1.02302 0
M  V30 14566 O 1304.67 0.773325 1.66629 0
M  V30 14567 C 1304.73 3.57889 -0.34001 0
M  V30 14568 C 1304.39 4.25289 -1.67268 0
M  V30 14569 C 1305.39 4.48647 -2.62701 0
M  V30 14570 C 1303.07 4.62899 -1.95013 0
M  V30 14571 C 1305.07 5.08686 -3.8408 0
M  V30 14572 C 1302.75 5.22657 -3.16659 0
M  V30 14573 C 1303.75 5.45489 -4.11012 0
M  V30 14574 O 1303.44 6.03995 -5.30515 0
M  V30 14575 H 1303.17 0.659452 -0.148658 0
M  V30 14576 H 1305.73 1.75885 -1.06082 0
M  V30 14577 H 1303.96 3.84477 0.414055 0
M  V30 14578 H 1305.65 4.05864 0.0539009 0
M  V30 14579 H 1306.41 4.19993 -2.42551 0
M  V30 14580 H 1302.29 4.44455 -1.22395 0
M  V30 14581 H 1305.83 5.26423 -4.57738 0
M  V30 14582 H 1301.73 5.50736 -3.3669 0
M  V30 14583 H 1302.5 6.22466 -5.31487 0
M  V30 14584 N 1305.16 0.53415 1.48272 0
M  V30 14585 C 1306.39 0.00574475 2.06899 0
M  V30 14586 C 1306.81 -1.27754 1.39012 0
M  V30 14587 O 1306.16 -1.76102 0.478993 0
M  V30 14588 C 1306.21 -0.217576 3.60845 0
M  V30 14589 O 1305.93 1.01487 4.26183 0
M  V30 14590 C 1307.44 -0.785888 4.36278 0
M  V30 14591 H 1304.66 0.0353967 0.670066 0
M  V30 14592 H 1307.2 0.740984 1.90603 0
M  V30 14593 H 1305.35 -0.902875 3.76732 0
M  V30 14594 H 1305.77 0.7982 5.18391 0
M  V30 14595 H 1307.24 -0.891551 5.44753 0
M  V30 14596 H 1307.72 -1.79178 4.00989 0
M  V30 14597 H 1308.33 -0.137022 4.25079 0
M  V30 14598 N 1306.64 -1.55279 0.269478 0
M  V30 14599 C 1307.89 -1.99077 -0.348224 0
M  V30 14600 C 1308.21 -1.15925 -1.568 0
M  V30 14601 O 1307.48 -0.247404 -1.94331 0
M  V30 14602 H 1306.06 -0.735307 -0.131653 0
M  V30 14603 H 1308.72 -1.91288 0.373506 0
M  V30 14604 H 1307.82 -3.05427 -0.641953 0
M  V30 14605 N 1308.12 0.00332656 -1.576 0
M  V30 14606 C 1309.07 0.99581 -2.08212 0
M  V30 14607 C 1310.04 1.34342 -0.976804 0
M  V30 14608 O 1311.22 1.44236 -1.24902 0
M  V30 14609 C 1308.36 2.2836 -2.58739 0
M  V30 14610 C 1307.47 1.99531 -3.8316 0
M  V30 14611 C 1306.61 3.22367 -4.222 0
M  V30 14612 C 1305.65 2.89209 -5.39467 0
M  V30 14613 N 1304.78 4.04572 -5.73817 0
M  V30 14614 H 1309.62 0.55727 -2.92743 0
M  V30 14615 H 1307.16 0.263513 -1.4472 0
M  V30 14616 H 1309.12 3.03639 -2.86111 0
M  V30 14617 H 1307.75 2.69889 -1.77087 0
M  V30 14618 H 1306.8 1.14634 -3.62716 0
M  V30 14619 H 1308.11 1.71089 -4.6854 0
M  V30 14620 H 1307.27 4.05994 -4.50837 0
M  V30 14621 H 1306.01 3.53944 -3.35522 0
M  V30 14622 H 1305.01 2.03989 -5.10557 0
M  V30 14623 H 1306.24 2.58883 -6.27819 0
M  V30 14624 H 1304.18 4.36052 -4.90096 0
M  V30 14625 H 1304.1 3.79643 -6.53764 0
M  V30 14626 H 1305.37 4.88998 -6.07043 0
M  V30 14627 N 1309.6 1.55164 0.276031 0
M  V30 14628 C 1310.85 1.74833 1.0058 0
M  V30 14629 C 1311.16 0.555089 1.87558 0
M  V30 14630 O 1312.36 0.634127 2.63991 0
M  V30 14631 C 1310.82 3.09417 1.83818 0
M  V30 14632 C 1310.43 4.36299 1.01721 0
M  V30 14633 C 1312.17 3.38437 2.56244 0
M  V30 14634 C 1310.08 5.61923 1.8438 0
M  V30 14635 H 1309.01 0.651676 0.379254 0
M  V30 14636 H 1311.66 1.81626 0.26161 0
M  V30 14637 H 1310.04 2.96654 2.62321 0
M  V30 14638 H 1311.22 4.59969 0.276565 0
M  V30 14639 H 1309.53 4.144 0.407645 0
M  V30 14640 H 1312.13 4.29501 3.18485 0
M  V30 14641 H 1312.47 2.58432 3.26372 0
M  V30 14642 H 1313 3.52284 1.84773 0
M  V30 14643 H 1309.74 6.44667 1.18679 0
M  V30 14644 H 1309.26 5.424 2.56051 0
M  V30 14645 H 1310.94 6.0011 2.4182 0
M  V30 14646 N 1311.07 -0.540404 1.48045 0
M  V30 14647 C 1312 -1.65538 1.6468 0
M  V30 14648 C 1312.99 -1.62713 0.495847 0
M  V30 14649 O 1314.17 -1.80072 0.727172 0
M  V30 14650 C 1311.3 -3.0415 1.67661 0
M  V30 14651 C 1310.25 -3.2183 2.82152 0
M  V30 14652 C 1309.58 -4.61397 2.70216 0
M  V30 14653 C 1310.88 -3.05596 4.23567 0
M  V30 14654 H 1312.57 -1.51873 2.58021 0
M  V30 14655 H 1310.12 -0.729208 1.24171 0
M  V30 14656 H 1312.07 -3.82013 1.77887 0
M  V30 14657 H 1310.8 -3.18814 0.708907 0
M  V30 14658 H 1309.46 -2.4638 2.71463 0
M  V30 14659 H 1309.1 -4.72883 1.71437 0
M  V30 14660 H 1308.8 -4.74174 3.47035 0
M  V30 14661 H 1310.33 -5.41374 2.82395 0
M  V30 14662 H 1311.74 -3.73261 4.35143 0
M  V30 14663 H 1310.14 -3.29871 5.01303 0
M  V30 14664 H 1311.21 -2.0214 4.40758 0
M  V30 14665 N 1312.55 -1.36459 -0.788468 0
M  V30 14666 C 1313.8 -1.30741 -1.54638 0
M  V30 14667 C 1314.13 0.113029 -1.94171 0
M  V30 14668 O 1313.38 1.08252 -1.63034 0
M  V30 14669 C 1313.68 -2.17672 -2.83467 0
M  V30 14670 C 1313.35 -3.66205 -2.63067 0
M  V30 14671 C 1312.01 -4.06688 -2.57212 0
M  V30 14672 C 1314.36 -4.60376 -2.44343 0
M  V30 14673 C 1311.69 -5.39482 -2.306 0
M  V30 14674 C 1314.04 -5.93388 -2.19258 0
M  V30 14675 C 1312.71 -6.32994 -2.11836 0
M  V30 14676 H 1311.98 -0.478416 -0.565862 0
M  V30 14677 H 1314.62 -1.68519 -0.909588 0
M  V30 14678 H 1312.93 -1.72834 -3.51619 0
M  V30 14679 H 1314.62 -2.10573 -3.41263 0
M  V30 14680 H 1311.21 -3.3409 -2.6848 0
M  V30 14681 H 1315.4 -4.29971 -2.47868 0
M  V30 14682 H 1310.65 -5.69149 -2.23337 0
M  V30 14683 H 1314.83 -6.65923 -2.03765 0
M  V30 14684 H 1312.46 -7.3582 -1.90978 0
M  V30 14685 N 1314.03 1.01274 -1.20754 0
M  V30 14686 C 1315.44 1.56381 -1.0199 0
M  V30 14687 C 1315.79 1.91595 0.422591 0
M  V30 14688 O 1314.92 1.72653 1.3046 0
M  V30 14689 C 1315.51 2.8415 -1.8451 0
M  V30 14690 C 1314.07 3.35772 -1.70101 0
M  V30 14691 C 1313.22 2.0904 -1.82202 0
M  V30 14692 H 1316.17 0.836105 -1.34889 0
M  V30 14693 H 1316.19 3.55717 -1.35076 0
M  V30 14694 H 1315.7 2.5849 -2.8949 0
M  V30 14695 H 1313.8 3.66384 -0.677732 0
M  V30 14696 H 1313.92 4.07714 -2.51607 0
M  V30 14697 H 1312.28 2.21675 -1.25429 0
M  V30 14698 H 1313.06 1.858 -2.88675 0
M  V30 14699 N 1315.51 1.01404 1.20644 0
M  V30 14700 C 1316.76 0.700523 1.89571 0
M  V30 14701 C 1317.08 -0.771978 1.79068 0
M  V30 14702 O 1316.35 -1.55506 1.19142 0
M  V30 14703 H 1314.93 0.256122 0.70172 0
M  V30 14704 H 1317.59 1.28509 1.46531 0
M  V30 14705 H 1316.69 0.981665 2.9626 0
M  V30 14706 N 1316.99 -1.36373 0.789944 0
M  V30 14707 C 1317.93 -2.30043 0.186798 0
M  V30 14708 C 1318.9 -1.52002 -0.669663 0
M  V30 14709 O 1320.09 -1.80506 -0.618232 0
M  V30 14710 C 1317.23 -3.38494 -0.671994 0
M  V30 14711 C 1316.34 -4.31522 0.203067 0
M  V30 14712 C 1315.48 -5.27057 -0.662148 0
M  V30 14713 C 1314.52 -6.11725 0.214335 0
M  V30 14714 N 1313.65 -6.99446 -0.609892 0
M  V30 14715 H 1318.49 -2.81038 0.991048 0
M  V30 14716 H 1316.03 -1.38331 0.500288 0
M  V30 14717 H 1317.99 -4.0002 -1.1849 0
M  V30 14718 H 1316.62 -2.88818 -1.44167 0
M  V30 14719 H 1315.67 -3.71146 0.833945 0
M  V30 14720 H 1316.98 -4.91005 0.878389 0
M  V30 14721 H 1316.14 -5.93875 -1.24084 0
M  V30 14722 H 1314.88 -4.6803 -1.37109 0
M  V30 14723 H 1313.88 -5.43868 0.805426 0
M  V30 14724 H 1315.11 -6.72827 0.92089 0
M  V30 14725 H 1313.05 -6.42927 -1.30312 0
M  V30 14726 H 1312.97 -7.56 0.00773786 0
M  V30 14727 H 1314.24 -7.70633 -1.1724 0
M  V30 14728 N 1318.47 -0.542005 -1.47987 0
M  V30 14729 C 1319.69 -0.016717 -2.06893 0
M  V30 14730 C 1320.11 1.27015 -1.39687 0
M  V30 14731 O 1319.47 1.75845 -0.488326 0
M  V30 14732 C 1319.52 0.198437 -3.60955 0
M  V30 14733 O 1319.24 -1.03746 -4.25639 0
M  V30 14734 C 1320.74 0.762741 -4.36689 0
M  V30 14735 H 1317.96 -0.0389497 -0.669869 0
M  V30 14736 H 1320.5 -0.751082 -1.90208 0
M  V30 14737 H 1318.66 0.882884 -3.77205 0
M  V30 14738 H 1319.07 -0.82568 -5.1796 0
M  V30 14739 H 1320.55 0.862649 -5.45218 0
M  V30 14740 H 1321.02 1.77049 -4.01933 0
M  V30 14741 H 1321.63 0.114478 -4.25146 0
M  V30 14742 N 1319.94 1.55134 -0.277709 0
M  V30 14743 C 1320.89 2.24057 0.624594 0
M  V30 14744 C 1321.89 1.23848 1.15577 0
M  V30 14745 O 1323.09 1.41771 1.1091 0
M  V30 14746 H 1319.47 0.719106 0.219977 0
M  V30 14747 H 1321.44 2.98393 0.0204815 0
M  V30 14748 C 1320.19 2.97712 1.79618 0
M  V30 14749 H 1319.51 3.74611 1.39665 0
M  V30 14750 H 1320.95 3.49255 2.4041 0
M  V30 14751 C 1319.41 2.03332 2.68622 0
M  V30 14752 O 1319.94 1.58622 3.69056 0
M  V30 14753 N 1318.14 1.69778 2.35847 0
M  V30 14754 H 1317.69 2.06333 1.54222 0
M  V30 14755 H 1317.65 1.06901 2.95668 0
M  V30 14756 N 1321.42 0.00503138 1.57599 0
M  V30 14757 C 1322.37 -1.00294 2.09866 0
M  V30 14758 C 1323.36 -1.35267 1.01977 0
M  V30 14759 O 1324.57 -1.33772 1.20437 0
M  V30 14760 H 1320.94 -0.341112 0.670184 0
M  V30 14761 H 1322.92 -0.536595 2.93536 0
M  V30 14762 C 1321.66 -2.28432 2.62133 0
M  V30 14763 H 1320.99 -2.02391 3.44787 0
M  V30 14764 H 1322.43 -2.97227 3.02378 0
M  V30 14765 C 1320.89 -2.99758 1.53774 0
M  V30 14766 O 1321.42 -3.90939 0.923563 0
M  V30 14767 N 1319.62 -2.61671 1.26398 0
M  V30 14768 H 1319.17 -1.87605 1.76528 0
M  V30 14769 H 1319.13 -3.09707 0.541168 0
M  V30 14770 N 1322.9 -1.55308 -0.267798 0
M  V30 14771 C 1323.85 -1.84933 -1.33356 0
M  V30 14772 C 1324.83 -0.708605 -1.44456 0
M  V30 14773 O 1326.03 -0.970069 -1.4805 0
M  V30 14774 C 1323.15 -2.12927 -2.69289 0
M  V30 14775 C 1322.24 -3.33273 -2.62279 0
M  V30 14776 N 1322.63 -4.53055 -2.24889 0
M  V30 14777 C 1320.93 -3.35966 -2.93331 0
M  V30 14778 C 1321.63 -5.35156 -2.27998 0
M  V30 14779 N 1320.61 -4.73692 -2.66677 0
M  V30 14780 H 1324.41 -2.75086 -1.03465 0
M  V30 14781 H 1321.92 -1.55254 -0.476435 0
M  V30 14782 H 1323.92 -2.32309 -3.46177 0
M  V30 14783 H 1322.58 -1.24061 -3.00065 0
M  V30 14784 H 1323.59 -4.79059 -1.9678 0
M  V30 14785 H 1320.27 -2.57308 -3.28784 0
M  V30 14786 H 1321.66 -6.4094 -2.01608 0
M  V30 14787 N 1324.38 0.532545 -1.4833 0
M  V30 14788 C 1325.31 1.65392 -1.57229 0
M  V30 14789 C 1326.29 1.57005 -0.422884 0
M  V30 14790 O 1327.47 1.77513 -0.634132 0
M  V30 14791 C 1324.6 3.03778 -1.49789 0
M  V30 14792 C 1323.65 3.30532 -2.69538 0
M  V30 14793 S 1324.48 3.17084 -4.3153 0
M  V30 14794 C 1325.63 4.57921 -4.26684 0
M  V30 14795 H 1325.87 1.57593 -2.52095 0
M  V30 14796 H 1323.4 0.715307 -1.36831 0
M  V30 14797 H 1325.36 3.83589 -1.46183 0
M  V30 14798 H 1324.02 3.0902 -0.562646 0
M  V30 14799 H 1323.21 4.31479 -2.60464 0
M  V30 14800 H 1322.81 2.58386 -2.70393 0
M  V30 14801 H 1325.11 5.49387 -3.96459 0
M  V30 14802 H 1326.05 4.72049 -5.27802 0
M  V30 14803 H 1326.46 4.37123 -3.57188 0
M  V30 14804 N 1325.86 1.36875 0.78122 0
M  V30 14805 C 1326.79 1.34559 1.9083 0
M  V30 14806 C 1327.77 0.215713 1.68727 0
M  V30 14807 O 1328.95 0.41462 1.89722 0
M  V30 14808 C 1326.08 1.14233 3.27976 0
M  V30 14809 C 1325.04 2.24132 3.64621 0
M  V30 14810 C 1324.36 1.8894 5.00206 0
M  V30 14811 C 1325.66 3.66266 3.72353 0
M  V30 14812 H 1327.36 2.28871 1.93025 0
M  V30 14813 H 1324.9 1.10171 0.927275 0
M  V30 14814 H 1326.85 1.11246 4.06451 0
M  V30 14815 H 1325.58 0.163747 3.26189 0
M  V30 14816 H 1324.24 2.26259 2.88448 0
M  V30 14817 H 1323.89 0.896351 4.94949 0
M  V30 14818 H 1323.59 2.62525 5.25694 0
M  V30 14819 H 1325.11 1.87523 5.81092 0
M  V30 14820 H 1326.52 3.66321 4.41001 0
M  V30 14821 H 1324.92 4.38825 4.09332 0
M  V30 14822 H 1325.99 4.00578 2.7325 0
M  V30 14823 N 1327.33 -1.00632 1.21289 0
M  V30 14824 C 1328.28 -2.09382 0.97097 0
M  V30 14825 C 1329.25 -1.65783 -0.102561 0
M  V30 14826 O 1330.44 -1.90749 0.0442886 0
M  V30 14827 C 1327.58 -3.40844 0.540314 0
M  V30 14828 C 1326.69 -3.97862 1.68314 0
M  V30 14829 C 1325.82 -5.17427 1.20178 0
M  V30 14830 C 1324.86 -5.66552 2.31702 0
M  V30 14831 N 1324 -6.77368 1.84709 0
M  V30 14832 H 1328.84 -2.29411 1.90196 0
M  V30 14833 H 1326.38 -1.12488 0.947885 0
M  V30 14834 H 1328.33 -4.16313 0.271881 0
M  V30 14835 H 1326.96 -3.20857 -0.353677 0
M  V30 14836 H 1326.02 -3.19391 2.06624 0
M  V30 14837 H 1327.33 -4.30314 2.52252 0
M  V30 14838 H 1326.48 -6.00138 0.889926 0
M  V30 14839 H 1325.22 -4.86566 0.332422 0
M  V30 14840 H 1324.23 -4.82438 2.63691 0
M  V30 14841 H 1325.45 -5.99443 3.19131 0
M  V30 14842 H 1323.4 -6.48315 1.00116 0
M  V30 14843 H 1323.31 -7.09067 2.62221 0
M  V30 14844 H 1324.58 -7.63617 1.56554 0
M  V30 14845 N 1328.81 -1.02043 -1.20104 0
M  V30 14846 C 1329.74 -0.614421 -2.25271 0
M  V30 14847 C 1330.72 0.37242 -1.65973 0
M  V30 14848 O 1331.91 0.257005 -1.92492 0
M  V30 14849 C 1329.04 0.0442085 -3.47272 0
M  V30 14850 C 1327.99 -0.864019 -4.19188 0
M  V30 14851 C 1327.32 -0.0709551 -5.34653 0
M  V30 14852 C 1328.62 -2.17385 -4.74912 0
M  V30 14853 H 1330.31 -1.49355 -2.59487 0
M  V30 14854 H 1327.86 -0.719591 -1.24731 0
M  V30 14855 H 1329.81 0.339825 -4.20028 0
M  V30 14856 H 1328.53 0.958082 -3.12231 0
M  V30 14857 H 1327.19 -1.1437 -3.48303 0
M  V30 14858 H 1326.84 0.844688 -4.95857 0
M  V30 14859 H 1326.54 -0.67583 -5.83701 0
M  V30 14860 H 1328.07 0.218118 -6.1021 0
M  V30 14861 H 1329.48 -1.94034 -5.39466 0
M  V30 14862 H 1327.88 -2.72991 -5.34412 0
M  V30 14863 H 1328.95 -2.83427 -3.93443 0
M  V30 14864 N 1330.29 1.35952 -0.797165 0
M  V30 14865 C 1331.25 2.28266 -0.206748 0
M  V30 14866 C 1332.25 1.49169 0.60043 0
M  V30 14867 O 1333.44 1.69054 0.42029 0
M  V30 14868 C 1330.58 3.33363 0.712884 0
M  V30 14869 H 1331.77 2.81992 -1.02082 0
M  V30 14870 H 1329.32 1.45648 -0.567138 0
M  V30 14871 H 1330.06 2.84806 1.551 0
M  V30 14872 H 1329.84 3.91864 0.135926 0
M  V30 14873 H 1331.33 4.02284 1.1206 0
M  V30 14874 N 1331.77 0.549846 1.47697 0
M  V30 14875 C 1332.7 -0.249645 2.2683 0
M  V30 14876 C 1333.68 -0.926968 1.33589 0
M  V30 14877 O 1334.86 -0.947423 1.62961 0
M  V30 14878 C 1331.99 -1.35511 3.1041 0
M  V30 14879 C 1331.04 -0.787118 4.19174 0
M  V30 14880 S 1331.87 0.360564 5.34285 0
M  V30 14881 C 1333.03 -0.746898 6.21428 0
M  V30 14882 H 1333.26 0.421876 2.94292 0
M  V30 14883 H 1330.79 0.336017 1.50699 0
M  V30 14884 H 1332.75 -1.98825 3.59137 0
M  V30 14885 H 1331.41 -1.99844 2.42325 0
M  V30 14886 H 1330.6 -1.61704 4.77355 0
M  V30 14887 H 1330.21 -0.230301 3.7329 0
M  V30 14888 H 1332.5 -1.6408 6.57331 0
M  V30 14889 H 1333.44 -0.202608 7.0781 0
M  V30 14890 H 1333.85 -1.03625 5.54907 0
M  V30 14891 N 1333.25 -1.54984 0.285932 0
M  V30 14892 C 1334.52 -1.91872 -0.380083 0
M  V30 14893 C 1334.9 -1.21146 -1.72878 0
M  V30 14894 O 1334.25 -0.341999 -2.25926 0
M  V30 14895 C 1334.46 -3.45258 -0.509667 0
M  V30 14896 C 1335.81 -4.17232 -0.787549 0
M  V30 14897 O 1336.83 -3.51211 -0.594062 0
M  V30 14898 O 1335.69 -5.34085 -1.15826 0
M  V30 14899 H 1332.79 -0.799931 -0.209856 0
M  V30 14900 H 1335.33 -1.66403 0.332882 0
M  V30 14901 H 1334.1 -3.88829 0.439049 0
M  V30 14902 H 1333.73 -3.76715 -1.27168 0
M  V30 14903 N 1334.72 -0.0133892 -1.57594 0
M  V30 14904 C 1335.65 0.972341 -2.12292 0
M  V30 14905 C 1336.64 1.34971 -1.03522 0
M  V30 14906 O 1337.82 1.4311 -1.31275 0
M  V30 14907 C 1334.95 2.25988 -2.63717 0
M  V30 14908 C 1333.9 2.02373 -3.77133 0
M  V30 14909 C 1333.23 3.37256 -4.14925 0
M  V30 14910 C 1334.53 1.37553 -5.03861 0
M  V30 14911 H 1336.22 0.516869 -2.94905 0
M  V30 14912 H 1333.77 0.247176 -1.41863 0
M  V30 14913 H 1335.72 2.95313 -3.00613 0
M  V30 14914 H 1334.45 2.73672 -1.78244 0
M  V30 14915 H 1333.11 1.3547 -3.40651 0
M  V30 14916 H 1332.75 3.82669 -3.26456 0
M  V30 14917 H 1332.45 3.22267 -4.91343 0
M  V30 14918 H 1333.98 4.07875 -4.5439 0
M  V30 14919 H 1335.39 1.96855 -5.38443 0
M  V30 14920 H 1333.79 1.33011 -5.85174 0
M  V30 14921 H 1334.86 0.346429 -4.83661 0
M  V30 14922 N 1336.2 1.55448 0.259558 0
M  V30 14923 C 1337.15 1.89248 1.32113 0
M  V30 14924 C 1338.12 0.745348 1.48438 0
M  V30 14925 O 1339.3 0.997854 1.62627 0
M  V30 14926 C 1336.44 2.18161 2.67394 0
M  V30 14927 C 1335.56 3.45614 2.59182 0
M  V30 14928 C 1334.69 3.6416 3.86731 0
M  V30 14929 C 1333.73 4.85258 3.73084 0
M  V30 14930 N 1332.87 5.00391 4.92497 0
M  V30 14931 H 1337.71 2.79785 1.02589 0
M  V30 14932 H 1335.25 1.38509 0.495338 0
M  V30 14933 H 1337.2 2.32927 3.46122 0
M  V30 14934 H 1335.83 1.30843 2.95093 0
M  V30 14935 H 1334.89 3.39248 1.72091 0
M  V30 14936 H 1336.2 4.34483 2.45002 0
M  V30 14937 H 1335.35 3.78817 4.73902 0
M  V30 14938 H 1334.09 2.73501 4.03793 0
M  V30 14939 H 1333.1 4.70591 2.84296 0
M  V30 14940 H 1334.32 5.77365 3.57528 0
M  V30 14941 H 1332.27 4.12666 5.09944 0
M  V30 14942 H 1332.18 5.83328 4.809 0
M  V30 14943 H 1333.45 5.19446 5.81202 0
M  V30 14944 N 1337.68 -0.524672 1.4861 0
M  V30 14945 C 1338.93 -1.27768 1.56588 0
M  V30 14946 C 1339.25 -1.93469 0.243899 0
M  V30 14947 O 1338.52 -1.8159 -0.734985 0
M  V30 14948 H 1337.1 -0.474566 0.576885 0
M  V30 14949 H 1339.76 -0.610114 1.85104 0
M  V30 14950 H 1338.86 -2.05416 2.34969 0
M  V30 14951 N 1339.16 -1.37287 -0.77395 0
M  V30 14952 C 1340.11 -1.32872 -1.88716 0
M  V30 14953 C 1341.08 -0.194655 -1.64955 0
M  V30 14954 O 1342.26 -0.383662 -1.86903 0
M  V30 14955 C 1339.4 -1.13934 -3.2575 0
M  V30 14956 C 1338.51 -2.36552 -3.61479 0
M  V30 14957 C 1337.65 -2.10504 -4.87711 0
M  V30 14958 C 1336.69 -3.28999 -5.16165 0
M  V30 14959 N 1335.82 -3.02517 -6.33584 0
M  V30 14960 H 1340.66 -2.28051 -1.91825 0
M  V30 14961 H 1338.2 -1.13325 -0.93786 0
M  V30 14962 H 1340.16 -1.00976 -4.04796 0
M  V30 14963 H 1338.79 -0.22404 -3.22022 0
M  V30 14964 H 1337.84 -2.60257 -2.77435 0
M  V30 14965 H 1339.15 -3.24931 -3.78446 0
M  V30 14966 H 1338.31 -1.94564 -5.74656 0
M  V30 14967 H 1337.05 -1.19459 -4.72843 0
M  V30 14968 H 1336.05 -3.4548 -4.27696 0
M  V30 14969 H 1337.28 -4.20892 -5.32942 0
M  V30 14970 H 1335.22 -2.14099 -6.20079 0
M  V30 14971 H 1335.14 -3.84439 -6.50955 0
M  V30 14972 H 1336.41 -2.9019 -7.23471 0
M  V30 14973 N 1340.64 0.999871 -1.21821 0
M  V30 14974 C 1341.57 2.08597 -0.925334 0
M  V30 14975 C 1342.55 1.62087 0.129103 0
M  V30 14976 O 1343.73 1.885 -0.000975316 0
M  V30 14977 C 1340.86 3.36443 -0.390388 0
M  V30 14978 C 1339.9 4.01869 -1.42842 0
M  V30 14979 S 1340.74 4.43618 -2.99938 0
M  V30 14980 C 1341.89 5.74644 -2.48064 0
M  V30 14981 H 1342.13 2.33119 -1.84507 0
M  V30 14982 H 1339.66 1.13339 -1.04851 0
M  V30 14983 H 1341.62 4.10405 -0.0883221 0
M  V30 14984 H 1340.28 3.09963 0.508115 0
M  V30 14985 H 1339.47 4.93902 -1.00385 0
M  V30 14986 H 1339.07 3.34202 -1.67883 0
M  V30 14987 H 1341.37 6.50642 -1.88869 0
M  V30 14988 H 1342.31 6.21919 -3.3856 0
M  V30 14989 H 1342.72 5.31709 -1.89593 0
M  V30 14990 N 1342.11 1.02678 1.19562 0
M  V30 14991 C 1343.53 0.752027 1.70884 0
M  V30 14992 C 1343.88 -0.728523 1.82173 0
M  V30 14993 O 1343 -1.56799 1.49141 0
M  V30 14994 C 1343.6 1.35848 3.10372 0
M  V30 14995 C 1342.16 1.13236 3.58963 0
M  V30 14996 C 1341.3 1.45785 2.35886 0
M  V30 14997 H 1344.25 1.19497 1.04432 0
M  V30 14998 H 1344.27 0.754347 3.72948 0
M  V30 14999 H 1343.79 2.43604 3.02124 0
M  V30 15000 H 1341.89 0.0729271 3.72529 0
M  V30 15001 H 1342 1.81959 4.43202 0
M  V30 15002 H 1340.36 0.877125 2.3912 0
M  V30 15003 H 1341.15 2.54619 2.30269 0
M  V30 15004 N 1343.59 -1.35528 0.804364 0
M  V30 15005 C 1344.54 -2.31728 0.20125 0
M  V30 15006 C 1345.53 -1.56527 -0.647751 0
M  V30 15007 O 1346.74 -1.71672 -0.541163 0
M  V30 15008 H 1343.12 -0.750572 0.0463165 0
M  V30 15009 H 1345.09 -2.80142 1.02777 0
M  V30 15010 C 1343.84 -3.41807 -0.637429 0
M  V30 15011 H 1343.16 -3.99799 0.00651699 0
M  V30 15012 H 1344.6 -4.11403 -1.02585 0
M  V30 15013 C 1343.06 -2.84655 -1.80202 0
M  V30 15014 O 1343.59 -2.78026 -2.89939 0
M  V30 15015 N 1341.79 -2.41735 -1.61285 0
M  V30 15016 H 1341.34 -2.47327 -0.720231 0
M  V30 15017 H 1341.3 -2.03844 -2.39364 0
M  V30 15018 N 1345.07 -0.557671 -1.47404 0
M  V30 15019 C 1346.02 0.189765 -2.30019 0
M  V30 15020 C 1346.99 0.907923 -1.3909 0
M  V30 15021 O 1348.17 0.903528 -1.68051 0
M  V30 15022 C 1345.31 1.21348 -3.23061 0
M  V30 15023 C 1344.43 0.501343 -4.29081 0
M  V30 15024 C 1343.56 1.51039 -5.09275 0
M  V30 15025 C 1342.6 0.783254 -6.07068 0
M  V30 15026 N 1341.74 1.73916 -6.80219 0
M  V30 15027 H 1346.58 -0.520856 -2.93413 0
M  V30 15028 H 1344.11 -0.268686 -1.44625 0
M  V30 15029 H 1346.07 1.81961 -3.75428 0
M  V30 15030 H 1344.7 1.89213 -2.61531 0
M  V30 15031 H 1343.75 -0.219317 -3.79767 0
M  V30 15032 H 1345.07 -0.0682656 -4.98753 0
M  V30 15033 H 1344.22 2.19004 -5.65793 0
M  V30 15034 H 1342.96 2.11392 -4.39505 0
M  V30 15035 H 1341.96 0.0896883 -5.49727 0
M  V30 15036 H 1343.19 0.185464 -6.78847 0
M  V30 15037 H 1341.14 2.33125 -6.13179 0
M  V30 15038 H 1341.05 1.22171 -7.46063 0
M  V30 15039 H 1342.32 2.40993 -7.41311 0
M  V30 15040 N 1346.55 1.54831 -0.294147 0
M  V30 15041 C 1347.48 2.19422 0.626821 0
M  V30 15042 C 1348.46 1.16136 1.13804 0
M  V30 15043 O 1349.64 1.44747 1.2075 0
M  V30 15044 C 1346.77 2.83262 1.85689 0
M  V30 15045 C 1345.82 4.00016 1.4795 0
M  V30 15046 S 1346.65 5.32757 0.541307 0
M  V30 15047 C 1347.81 6.00076 1.77932 0
M  V30 15048 H 1348.04 2.97198 0.0780539 0
M  V30 15049 H 1345.57 1.54201 -0.0783131 0
M  V30 15050 H 1347.53 3.20671 2.56282 0
M  V30 15051 H 1346.19 2.05345 2.37681 0
M  V30 15052 H 1345.38 4.43443 2.3953 0
M  V30 15053 H 1344.99 3.64129 0.853573 0
M  V30 15054 H 1347.28 6.20466 2.7208 0
M  V30 15055 H 1348.22 6.94368 1.38774 0
M  V30 15056 H 1348.63 5.29643 1.95292 0
M  V30 15057 N 1348.03 0.0217466 1.57585 0
M  V30 15058 C 1349.28 -0.657793 1.90672 0
M  V30 15059 C 1349.59 -1.73713 0.899066 0
M  V30 15060 O 1350.8 -2.4728 1.12092 0
M  V30 15061 C 1349.25 -1.22124 3.38547 0
M  V30 15062 C 1348.86 -0.175575 4.47656 0
M  V30 15063 C 1350.6 -1.87771 3.80713 0
M  V30 15064 C 1348.51 -0.750239 5.86622 0
M  V30 15065 H 1347.44 -0.249459 0.711538 0
M  V30 15066 H 1350.09 0.0858449 1.83299 0
M  V30 15067 H 1348.47 -2.01625 3.40828 0
M  V30 15068 H 1349.65 0.596436 4.56924 0
M  V30 15069 H 1347.96 0.381715 4.14647 0
M  V30 15070 H 1350.56 -2.3171 4.81887 0
M  V30 15071 H 1350.9 -2.71737 3.1538 0
M  V30 15072 H 1351.44 -1.14971 3.80823 0
M  V30 15073 H 1348.17 0.0511222 6.5548 0
M  V30 15074 H 1347.69 -1.49091 5.80975 0
M  V30 15075 H 1349.37 -1.24225 6.34962 0
M  V30 15076 N 1349.51 -1.55583 -0.251311 0
M  V30 15077 C 1350.92 -1.47908 -0.599606 0
M  V30 15078 C 1351.12 -0.711061 -1.88537 0
M  V30 15079 O 1350.18 -0.238639 -2.5137 0
M  V30 15080 C 1351.49 -2.92284 -0.706429 0
M  V30 15081 C 1353.04 -3.02629 -0.799049 0
M  V30 15082 C 1353.51 -4.48303 -0.93747 0
M  V30 15083 N 1355 -4.52222 -1.00245 0
M  V30 15084 C 1355.74 -5.62181 -1.12874 0
M  V30 15085 N 1355.24 -6.81958 -1.22085 0
M  V30 15086 N 1357.03 -5.49968 -1.16155 0
M  V30 15087 H 1349.18 -2.0396 0.592806 0
M  V30 15088 H 1351.44 -0.925797 0.203971 0
M  V30 15089 H 1351.15 -3.51297 0.168243 0
M  V30 15090 H 1351.02 -3.42524 -1.57979 0
M  V30 15091 H 1353.41 -2.43699 -1.66418 0
M  V30 15092 H 1353.49 -2.55607 0.099367 0
M  V30 15093 H 1353.13 -5.07842 -0.0769166 0
M  V30 15094 H 1353.06 -4.93002 -1.85086 0
M  V30 15095 H 1355.56 -3.65951 -0.94279 0
M  V30 15096 H 1355.87 -7.6151 -1.31616 0
M  V30 15097 H 1354.21 -6.84728 -1.1905 0
M  V30 15098 H 1357.4 -4.55327 -1.08604 0
M  V30 15099 H 1357.58 -6.35701 -1.25653 0
M  V30 15100 N 1350.98 0.516783 -1.48886 0
M  V30 15101 C 1351.93 1.62003 -1.64389 0
M  V30 15102 C 1352.9 1.58842 -0.485633 0
M  V30 15103 O 1354.09 1.77068 -0.710742 0
M  V30 15104 C 1351.23 3.00218 -1.70186 0
M  V30 15105 C 1350.34 3.13513 -2.97209 0
M  V30 15106 C 1349.47 4.42366 -2.94084 0
M  V30 15107 C 1348.51 4.49238 -4.15754 0
M  V30 15108 N 1347.65 5.69497 -4.10631 0
M  V30 15109 H 1352.49 1.48093 -2.58597 0
M  V30 15110 H 1350.03 0.720788 -1.2823 0
M  V30 15111 H 1351.98 3.80307 -1.71529 0
M  V30 15112 H 1350.61 3.12868 -0.794578 0
M  V30 15113 H 1349.67 2.26589 -3.05551 0
M  V30 15114 H 1350.98 3.14451 -3.87197 0
M  V30 15115 H 1350.13 5.3076 -2.93902 0
M  V30 15116 H 1348.87 4.43969 -2.01847 0
M  V30 15117 H 1347.88 3.59248 -4.16198 0
M  V30 15118 H 1349.1 4.49363 -5.09166 0
M  V30 15119 H 1347.05 5.71973 -3.21222 0
M  V30 15120 H 1346.96 5.71985 -4.94337 0
M  V30 15121 H 1348.23 6.60142 -4.14527 0
M  V30 15122 N 1352.46 1.37696 0.766659 0
M  V30 15123 C 1353.71 1.32922 1.52237 0
M  V30 15124 C 1354.03 -0.0842833 1.94818 0
M  V30 15125 O 1353.3 -1.02934 1.66677 0
M  V30 15126 H 1351.88 0.489049 0.564659 0
M  V30 15127 H 1354.54 1.72238 0.912142 0
M  V30 15128 H 1353.64 1.97158 2.4194 0
M  V30 15129 N 1353.94 -0.993397 1.22349 0
M  V30 15130 C 1355.19 -1.73544 1.04931 0
M  V30 15131 C 1355.52 -1.89721 -0.414661 0
M  V30 15132 O 1354.79 -1.44001 -1.30743 0
M  V30 15133 C 1355.08 -3.14131 1.7605 0
M  V30 15134 C 1354.93 -3.05604 3.30039 0
M  V30 15135 C 1356.25 -4.13294 1.51249 0
M  V30 15136 H 1353.37 -0.629915 0.382591 0
M  V30 15137 H 1356.01 -1.15737 1.50682 0
M  V30 15138 H 1354.16 -3.63483 1.37157 0
M  V30 15139 H 1355.83 -2.63876 3.78374 0
M  V30 15140 H 1354.07 -2.42421 3.59742 0
M  V30 15141 H 1354.75 -4.05086 3.74979 0
M  V30 15142 H 1357.22 -3.72696 1.85033 0
M  V30 15143 H 1356.1 -5.09781 2.03507 0
M  V30 15144 H 1356.36 -4.39855 0.444973 0
M  V30 15145 N 1355.42 -1.03311 -1.19015 0
M  V30 15146 C 1356.66 -0.732039 -1.88805 0
M  V30 15147 C 1356.99 0.739688 -1.79886 0
M  V30 15148 O 1356.25 1.55476 -1.18851 0
M  V30 15149 C 1356.55 -1.13402 -3.38932 0
M  V30 15150 C 1356.21 -2.60473 -3.68055 0
M  V30 15151 C 1354.87 -3.00654 -3.75713 0
M  V30 15152 C 1357.23 -3.55604 -3.81045 0
M  V30 15153 C 1354.55 -4.3487 -3.93833 0
M  V30 15154 C 1356.91 -4.89529 -4.00679 0
M  V30 15155 C 1355.57 -5.29392 -4.06571 0
M  V30 15156 H 1354.84 -0.267872 -0.690888 0
M  V30 15157 H 1357.49 -1.29673 -1.40915 0
M  V30 15158 H 1355.79 -0.487997 -3.88749 0
M  V30 15159 H 1357.49 -0.878532 -3.91258 0
M  V30 15160 H 1354.08 -2.28348 -3.62706 0
M  V30 15161 H 1358.26 -3.25711 -3.74467 0
M  V30 15162 H 1353.52 -4.65285 -3.96636 0
M  V30 15163 H 1357.69 -5.63153 -4.09672 0
M  V30 15164 H 1355.32 -6.33402 -4.20364 0
M  V30 15165 N 1356.9 1.35099 -0.81154 0
M  V30 15166 C 1357.84 2.29717 -0.223372 0
M  V30 15167 C 1358.81 1.53049 0.645396 0
M  V30 15168 O 1360 1.81467 0.589436 0
M  V30 15169 C 1357.14 3.3952 0.618057 0
M  V30 15170 C 1356.25 4.31145 -0.271693 0
M  V30 15171 C 1355.39 5.28044 0.578214 0
M  V30 15172 C 1354.42 6.11306 -0.311628 0
M  V30 15173 N 1353.56 7.00328 0.498539 0
M  V30 15174 H 1358.4 2.79426 -1.03563 0
M  V30 15175 H 1355.94 1.37518 -0.522231 0
M  V30 15176 H 1357.9 4.01854 1.12111 0
M  V30 15177 H 1356.53 2.91075 1.39554 0
M  V30 15178 H 1355.58 3.69773 -0.892885 0
M  V30 15179 H 1356.89 4.89545 -0.956392 0
M  V30 15180 H 1356.04 5.95774 1.1462 0
M  V30 15181 H 1354.78 4.70152 1.29646 0
M  V30 15182 H 1353.79 5.42518 -0.891849 0
M  V30 15183 H 1355.01 6.71277 -1.02781 0
M  V30 15184 H 1352.96 6.44919 1.20067 0
M  V30 15185 H 1352.88 7.55892 -0.12801 0
M  V30 15186 H 1354.14 7.72401 1.04965 0
M  V30 15187 N 1358.37 0.56548 1.47106 0
M  V30 15188 C 1359.65 -0.0215358 1.95588 0
M  V30 15189 C 1360.03 -1.47712 1.50813 0
M  V30 15190 O 1359.38 -2.15814 0.750776 0
M  V30 15191 C 1359.59 0.132552 3.48748 0
M  V30 15192 C 1360.94 -0.00853591 4.24599 0
M  V30 15193 O 1361.96 0.0605142 3.56149 0
M  V30 15194 O 1360.82 -0.158519 5.4627 0
M  V30 15195 H 1357.91 -0.0595011 0.824857 0
M  V30 15196 H 1360.46 0.632586 1.57469 0
M  V30 15197 H 1359.23 1.14511 3.7417 0
M  V30 15198 H 1358.85 -0.558801 3.93654 0
M  V30 15199 N 1359.85 -1.54672 0.302354 0
M  V30 15200 C 1360.78 -2.21021 -0.606828 0
M  V30 15201 C 1361.8 -1.20337 -1.09648 0
M  V30 15202 O 1362.99 -1.46923 -1.0137 0
M  V30 15203 C 1360.09 -2.84411 -1.84293 0
M  V30 15204 C 1359.26 -4.11038 -1.49554 0
M  V30 15205 C 1358.32 -4.58219 -2.58693 0
M  V30 15206 O 1357.34 -5.23387 -2.23728 0
M  V30 15207 N 1358.55 -4.30651 -3.89256 0
M  V30 15208 H 1361.31 -2.99675 -0.0388221 0
M  V30 15209 H 1358.87 -1.6142 0.124614 0
M  V30 15210 H 1360.86 -3.12906 -2.56655 0
M  V30 15211 H 1359.43 -2.09589 -2.31929 0
M  V30 15212 H 1358.65 -3.89538 -0.604492 0
M  V30 15213 H 1359.94 -4.93488 -1.23884 0
M  V30 15214 H 1359.34 -3.78445 -4.20471 0
M  V30 15215 H 1357.9 -4.63853 -4.57913 0
M  V30 15216 N 1361.33 -0.0301034 -1.57571 0
M  V30 15217 C 1362.28 0.960604 -2.06776 0
M  V30 15218 C 1363.26 1.28488 -0.968483 0
M  V30 15219 O 1364.46 1.27083 -1.23203 0
M  V30 15220 C 1361.59 2.24268 -2.59921 0
M  V30 15221 C 1360.67 1.94673 -3.7678 0
M  V30 15222 N 1361.06 1.3535 -4.87354 0
M  V30 15223 C 1359.36 2.24658 -3.85285 0
M  V30 15224 C 1360.06 1.22909 -5.68567 0
M  V30 15225 N 1359.04 1.72493 -5.15507 0
M  V30 15226 H 1362.84 0.496931 -2.89668 0
M  V30 15227 H 1360.35 0.174886 -1.61456 0
M  V30 15228 H 1362.35 2.96116 -2.93463 0
M  V30 15229 H 1361.01 2.71261 -1.78459 0
M  V30 15230 H 1362.02 1.02839 -5.07587 0
M  V30 15231 H 1358.7 2.74318 -3.14731 0
M  V30 15232 H 1360.09 0.7703 -6.6747 0
M  V30 15233 N 1362.81 1.55714 0.243056 0
M  V30 15234 C 1364.06 1.77726 0.970555 0
M  V30 15235 C 1364.38 0.595108 1.85172 0
M  V30 15236 O 1363.64 -0.42143 1.91108 0
M  V30 15237 C 1363.94 3.05281 1.85845 0
M  V30 15238 C 1363.6 4.36451 1.13232 0
M  V30 15239 C 1362.27 4.72095 0.931656 0
M  V30 15240 C 1364.62 5.17524 0.617944 0
M  V30 15241 C 1361.95 5.86344 0.204373 0
M  V30 15242 C 1364.3 6.32527 -0.0958899 0
M  V30 15243 C 1362.96 6.66789 -0.308 0
M  V30 15244 H 1362.23 0.650345 0.355151 0
M  V30 15245 H 1364.88 1.89986 0.240351 0
M  V30 15246 H 1363.18 2.8805 2.65584 0
M  V30 15247 H 1364.88 3.19511 2.4231 0
M  V30 15248 H 1361.47 4.08451 1.29867 0
M  V30 15249 H 1365.65 4.90439 0.760507 0
M  V30 15250 H 1360.91 6.11393 0.0296 0
M  V30 15251 H 1365.08 6.94588 -0.502077 0
M  V30 15252 H 1362.71 7.55165 -0.873502 0
M  V30 15253 N 1364.29 -0.50888 1.49158 0
M  V30 15254 C 1365.56 -1.27021 1.48745 0
M  V30 15255 C 1365.94 -2.10045 0.210772 0
M  V30 15256 O 1365.29 -2.13773 -0.807061 0
M  V30 15257 C 1365.5 -2.13367 2.76181 0
M  V30 15258 C 1366.85 -2.72815 3.25357 0
M  V30 15259 O 1367.87 -2.23639 2.77243 0
M  V30 15260 O 1366.73 -3.62316 4.09133 0
M  V30 15261 H 1363.83 -0.574387 0.594986 0
M  V30 15262 H 1366.37 -0.523798 1.61414 0
M  V30 15263 H 1365.14 -1.51941 3.60596 0
M  V30 15264 H 1364.77 -2.95215 2.66334 0
M  V30 15265 N 1365.76 -1.381 -0.759346 0
M  V30 15266 C 1366.7 -1.3075 -1.88248 0
M  V30 15267 C 1367.71 -0.220835 -1.61295 0
M  V30 15268 O 1368.9 -0.477952 -1.71982 0
M  V30 15269 C 1366 -1.00174 -3.23757 0
M  V30 15270 C 1365.17 -2.19635 -3.78258 0
M  V30 15271 C 1364.23 -1.85892 -4.92271 0
M  V30 15272 O 1363.26 -2.58325 -5.07205 0
M  V30 15273 N 1364.46 -0.810436 -5.74815 0
M  V30 15274 H 1367.22 -2.27529 -1.95065 0
M  V30 15275 H 1364.78 -1.31886 -0.93902 0
M  V30 15276 H 1366.78 -0.756631 -3.97564 0
M  V30 15277 H 1365.35 -0.122094 -3.12361 0
M  V30 15278 H 1364.57 -2.60246 -2.96084 0
M  V30 15279 H 1365.85 -2.99373 -4.11404 0
M  V30 15280 H 1365.25 -0.209644 -5.65311 0
M  V30 15281 H 1363.81 -0.625206 -6.48795 0
M  V30 15282 N 1367.24 0.986894 -1.22875 0
M  V30 15283 C 1368.19 2.09935 -1.00151 0
M  V30 15284 C 1369.18 1.69303 0.0573751 0
M  V30 15285 O 1370.39 1.79746 -0.0955781 0
M  V30 15286 H 1366.77 0.686605 -0.306721 0
M  V30 15287 H 1368.74 2.26271 -1.94535 0
M  V30 15288 C 1367.49 3.42442 -0.602374 0
M  V30 15289 H 1366.81 3.74154 -1.40886 0
M  V30 15290 H 1368.25 4.21242 -0.482836 0
M  V30 15291 C 1366.71 3.29785 0.688707 0
M  V30 15292 O 1367.24 3.6208 1.73957 0
M  V30 15293 N 1365.44 2.82956 0.662152 0
M  V30 15294 H 1364.99 2.56873 -0.193337 0
M  V30 15295 H 1364.95 2.74869 1.52625 0
M  V30 15296 N 1368.72 1.0394 1.18466 0
M  V30 15297 C 1369.65 0.650182 2.24265 0
M  V30 15298 C 1370.63 -0.345968 1.66545 0
M  V30 15299 O 1371.82 -0.226348 1.92876 0
M  V30 15300 C 1368.95 0.0110451 3.47298 0
M  V30 15301 C 1367.9 0.930599 4.17761 0
M  V30 15302 C 1367.23 0.156005 5.34472 0
M  V30 15303 C 1368.53 2.24913 4.71393 0
M  V30 15304 H 1370.22 1.53465 2.57078 0
M  V30 15305 H 1367.77 0.739343 1.23571 0
M  V30 15306 H 1369.72 -0.272959 4.20515 0
M  V30 15307 H 1368.44 -0.908288 3.13716 0
M  V30 15308 H 1367.1 1.19897 3.4644 0
M  V30 15309 H 1366.75 -0.765695 4.97138 0
M  V30 15310 H 1366.45 0.768606 5.82551 0
M  V30 15311 H 1367.97 -0.121011 6.1048 0
M  V30 15312 H 1369.39 2.02592 5.36311 0
M  V30 15313 H 1367.79 2.81459 5.30001 0
M  V30 15314 H 1368.86 2.8965 3.88884 0
M  V30 15315 N 1370.2 -1.34667 0.818693 0
M  V30 15316 C 1371.15 -2.31501 0.225816 0
M  V30 15317 C 1372.14 -1.57205 -0.631112 0
M  V30 15318 O 1373.35 -1.72237 -0.522924 0
M  V30 15319 H 1369.72 -0.750039 0.0542747 0
M  V30 15320 H 1371.69 -2.79036 1.05743 0
M  V30 15321 C 1370.44 -3.42464 -0.60114 0
M  V30 15322 H 1369.76 -3.9977 0.0489207 0
M  V30 15323 H 1371.2 -4.12468 -0.982154 0
M  V30 15324 C 1369.66 -2.86551 -1.77173 0
M  V30 15325 O 1370.19 -2.81085 -2.86974 0
M  V30 15326 N 1368.4 -2.43432 -1.58712 0
M  V30 15327 H 1367.95 -2.48077 -0.693958 0
M  V30 15328 H 1367.9 -2.06371 -2.37188 0
M  V30 15329 N 1371.68 -0.573274 -1.46804 0
M  V30 15330 C 1372.92 -0.0552613 -2.02425 0
M  V30 15331 C 1373.25 1.30098 -1.44585 0
M  V30 15332 O 1372.51 1.86366 -0.597166 0
M  V30 15333 C 1372.81 0.0704285 -3.57331 0
M  V30 15334 C 1372.47 -1.217 -4.34166 0
M  V30 15335 C 1371.13 -1.56973 -4.54877 0
M  V30 15336 C 1373.49 -2.06939 -4.78357 0
M  V30 15337 C 1370.81 -2.77302 -5.1703 0
M  V30 15338 C 1373.17 -3.26486 -5.41839 0
M  V30 15339 C 1371.83 -3.62053 -5.6078 0
M  V30 15340 H 1371.1 -0.0202215 -0.740724 0
M  V30 15341 H 1373.75 -0.748016 -1.76287 0
M  V30 15342 H 1372.05 0.846254 -3.82552 0
M  V30 15343 H 1373.75 0.486841 -3.98034 0
M  V30 15344 H 1370.34 -0.932374 -4.18336 0
M  V30 15345 H 1374.52 -1.80992 -4.62121 0
M  V30 15346 H 1369.78 -3.05008 -5.29887 0
M  V30 15347 H 1373.95 -3.92811 -5.75042 0
M  V30 15348 H 1371.58 -4.55385 -6.08711 0
M  V30 15349 N 1373.15 1.5451 -0.310553 0
M  V30 15350 C 1374.09 2.20075 0.603513 0
M  V30 15351 C 1375.07 1.17336 1.12566 0
M  V30 15352 O 1376.25 1.4602 1.19208 0
M  V30 15353 C 1373.38 2.85216 1.82674 0
M  V30 15354 C 1372.42 4.01563 1.43699 0
M  V30 15355 S 1373.26 5.33301 0.48477 0
M  V30 15356 C 1374.41 6.01929 1.71557 0
M  V30 15357 H 1374.64 2.97264 0.0465278 0
M  V30 15358 H 1372.18 1.5411 -0.0946638 0
M  V30 15359 H 1374.14 3.23371 2.52867 0
M  V30 15360 H 1372.8 2.07855 2.3549 0
M  V30 15361 H 1371.99 4.45958 2.34813 0
M  V30 15362 H 1371.59 3.65014 0.814904 0
M  V30 15363 H 1373.88 6.23317 2.65484 0
M  V30 15364 H 1374.83 6.95801 1.31401 0
M  V30 15365 H 1375.23 5.31684 1.89663 0
M  V30 15366 N 1374.63 0.0384594 1.57553 0
M  V30 15367 C 1375.86 -0.647137 1.96203 0
M  V30 15368 C 1376.27 -1.65656 0.914042 0
M  V30 15369 O 1375.61 -1.83361 -0.111617 0
M  V30 15370 C 1375.68 -1.40193 3.31038 0
M  V30 15371 C 1375.34 -0.549782 4.53681 0
M  V30 15372 C 1376.34 0.178839 5.19592 0
M  V30 15373 C 1374.02 -0.48444 4.99958 0
M  V30 15374 C 1376.02 0.961376 6.30108 0
M  V30 15375 C 1373.7 0.301795 6.10354 0
M  V30 15376 C 1374.7 1.0234 6.75289 0
M  V30 15377 O 1374.39 1.79673 7.83564 0
M  V30 15378 H 1374.12 -0.182651 0.650857 0
M  V30 15379 H 1376.68 0.0973346 2.05169 0
M  V30 15380 H 1374.91 -2.19175 3.1859 0
M  V30 15381 H 1376.59 -1.97653 3.54525 0
M  V30 15382 H 1377.36 0.137749 4.84804 0
M  V30 15383 H 1373.24 -1.03568 4.49216 0
M  V30 15384 H 1376.78 1.52513 6.80724 0
M  V30 15385 H 1372.68 0.344569 6.4458 0
M  V30 15386 H 1373.45 1.71749 8.00278 0
M  V30 15387 N 1376.11 -1.55841 -0.234795 0
M  V30 15388 C 1377.36 -1.77438 -0.959094 0
M  V30 15389 C 1377.67 -0.604621 -1.86021 0
M  V30 15390 O 1378.88 -0.703897 -2.62217 0
M  V30 15391 C 1377.34 -3.14182 -1.7555 0
M  V30 15392 C 1376.94 -4.38843 -0.90118 0
M  V30 15393 C 1378.69 -3.45112 -2.47181 0
M  V30 15394 C 1376.59 -5.66614 -1.69417 0
M  V30 15395 H 1375.52 -0.661503 -0.361843 0
M  V30 15396 H 1378.18 -1.82255 -0.213364 0
M  V30 15397 H 1376.56 -3.03505 -2.54364 0
M  V30 15398 H 1377.73 -4.60541 -0.154515 0
M  V30 15399 H 1376.05 -4.15335 -0.297631 0
M  V30 15400 H 1378.64 -4.37794 -3.06986 0
M  V30 15401 H 1378.99 -2.66995 -3.19405 0
M  V30 15402 H 1379.52 -3.57059 -1.75368 0
M  V30 15403 H 1376.26 -6.47587 -1.01545 0
M  V30 15404 H 1375.78 -5.48998 -2.4158 0
M  V30 15405 H 1377.46 -6.06311 -2.25824 0
M  V30 15406 N 1377.59 0.500963 -1.49426 0
M  V30 15407 C 1378.5 1.62889 -1.68833 0
M  V30 15408 C 1379.52 1.64367 -0.570932 0
M  V30 15409 O 1380.69 1.82786 -0.845641 0
M  V30 15410 C 1377.76 2.99255 -1.75063 0
M  V30 15411 C 1376.82 3.08404 -2.9864 0
M  V30 15412 C 1376.05 4.38266 -3.04564 0
M  V30 15413 O 1376.27 5.27065 -2.1808 0
M  V30 15414 O 1375.21 4.52387 -3.97026 0
M  V30 15415 H 1379.03 1.49446 -2.64385 0
M  V30 15416 H 1376.62 0.677254 -1.33168 0
M  V30 15417 H 1378.5 3.80303 -1.81515 0
M  V30 15418 H 1377.18 3.1296 -0.826896 0
M  V30 15419 H 1376.08 2.26544 -2.97706 0
M  V30 15420 H 1377.42 2.99626 -3.90494 0
M  V30 15421 N 1379.07 1.38501 0.752011 0
M  V30 15422 C 1380.31 1.34995 1.51341 0
M  V30 15423 C 1380.65 -0.0594724 1.94109 0
M  V30 15424 O 1379.92 -1.02098 1.65548 0
M  V30 15425 C 1380.2 2.30705 2.76491 0
M  V30 15426 C 1380.06 3.80515 2.39851 0
M  V30 15427 C 1381.38 2.24521 3.78521 0
M  V30 15428 H 1378.5 0.491687 0.549011 0
M  V30 15429 H 1381.14 1.69361 0.861205 0
M  V30 15430 H 1379.29 2.01529 3.32142 0
M  V30 15431 H 1380.96 4.20371 1.89962 0
M  V30 15432 H 1379.2 3.98119 1.7229 0
M  V30 15433 H 1379.87 4.42946 3.29397 0
M  V30 15434 H 1382.35 2.50282 3.32413 0
M  V30 15435 H 1381.23 2.93598 4.63779 0
M  V30 15436 H 1381.49 1.24457 4.2422 0
M  V30 15437 N 1380.55 -0.980364 1.23396 0
M  V30 15438 C 1381.82 -1.69607 0.974319 0
M  V30 15439 C 1382.2 -2.0492 -0.507064 0
M  V30 15440 O 1381.55 -1.74239 -1.47827 0
M  V30 15441 C 1381.76 -2.93743 1.88457 0
M  V30 15442 C 1383.11 -3.66256 2.14806 0
M  V30 15443 O 1384.13 -3.03776 1.86007 0
M  V30 15444 O 1382.99 -4.78698 2.63648 0
M  V30 15445 H 1380.09 -0.740878 0.367462 0
M  V30 15446 H 1382.63 -1.03558 1.34439 0
M  V30 15447 H 1381.4 -2.64244 2.88601 0
M  V30 15448 H 1381.03 -3.67528 1.51688 0
M  V30 15449 N 1382.02 -1.04567 -1.17913 0
M  V30 15450 C 1382.97 -0.641119 -2.21717 0
M  V30 15451 C 1383.94 0.353585 -1.62293 0
M  V30 15452 O 1385.13 0.246427 -1.89202 0
M  V30 15453 C 1382.27 -0.0154726 -3.45097 0
M  V30 15454 C 1381.38 -1.05825 -4.18838 0
M  V30 15455 C 1380.51 -0.400588 -5.29687 0
M  V30 15456 C 1379.55 -1.42811 -5.95207 0
M  V30 15457 N 1378.69 -0.795059 -6.97584 0
M  V30 15458 H 1383.53 -1.5308 -2.55676 0
M  V30 15459 H 1381.07 -0.765715 -1.25599 0
M  V30 15460 H 1383.02 0.364653 -4.15603 0
M  V30 15461 H 1381.65 0.837704 -3.11741 0
M  V30 15462 H 1380.71 -1.55627 -3.47109 0
M  V30 15463 H 1382.02 -1.83849 -4.63682 0
M  V30 15464 H 1381.17 0.0334682 -6.06691 0
M  V30 15465 H 1379.91 0.411696 -4.85959 0
M  V30 15466 H 1378.92 -1.87225 -5.1694 0
M  V30 15467 H 1380.14 -2.24218 -6.41017 0
M  V30 15468 H 1378.09 -0.00317202 -6.56 0
M  V30 15469 H 1378 -1.51293 -7.40707 0
M  V30 15470 H 1379.27 -0.385567 -7.78546 0
M  V30 15471 N 1383.5 1.34231 -0.825823 0
M  V30 15472 C 1384.75 1.9849 -0.415891 0
M  V30 15473 C 1385.08 1.6531 1.01913 0
M  V30 15474 O 1384.36 0.926223 1.7103 0
M  V30 15475 C 1384.64 3.54691 -0.621785 0
M  V30 15476 C 1384.49 3.97603 -2.10313 0
M  V30 15477 C 1385.81 4.4006 -0.0595871 0
M  V30 15478 H 1382.93 0.721032 -0.152582 0
M  V30 15479 H 1385.57 1.5908 -1.03892 0
M  V30 15480 H 1383.72 3.88392 -0.0914439 0
M  V30 15481 H 1385.39 3.74221 -2.69733 0
M  V30 15482 H 1383.64 3.47809 -2.59251 0
M  V30 15483 H 1384.31 5.06352 -2.19799 0
M  V30 15484 H 1386.78 4.12929 -0.512743 0
M  V30 15485 H 1385.66 5.48403 -0.233431 0
M  V30 15486 H 1385.92 4.29798 1.03568 0
M  V30 15487 N 1384.98 0.581051 1.46498 0
M  V30 15488 C 1386.21 0.0715652 2.06776 0
M  V30 15489 C 1386.62 -1.23267 1.43006 0
M  V30 15490 O 1385.98 -1.74489 0.534776 0
M  V30 15491 C 1386.03 -0.102666 3.61354 0
M  V30 15492 O 1385.75 1.14995 4.22739 0
M  V30 15493 C 1387.25 -0.646692 4.38558 0
M  V30 15494 H 1384.47 0.0566964 0.6686 0
M  V30 15495 H 1387.02 0.801248 1.8815 0
M  V30 15496 H 1385.17 -0.782564 3.79414 0
M  V30 15497 H 1385.59 0.962718 5.15589 0
M  V30 15498 H 1387.06 -0.717791 5.47313 0
M  V30 15499 H 1387.54 -1.6633 4.06486 0
M  V30 15500 H 1388.14 -0.00171739 4.253 0
M  V30 15501 N 1386.46 -1.54343 0.318742 0
M  V30 15502 C 1387.37 -2.27856 -0.558442 0
M  V30 15503 C 1388.38 -1.32029 -1.13333 0
M  V30 15504 O 1389.56 -1.65037 -1.15433 0
M  V30 15505 C 1386.62 -3.01842 -1.70565 0
M  V30 15506 C 1385.69 -4.13245 -1.16305 0
M  V30 15507 C 1384.92 -4.83693 -2.25559 0
M  V30 15508 O 1385.14 -4.53621 -3.4581 0
M  V30 15509 O 1384.08 -5.70708 -1.91249 0
M  V30 15510 H 1387.9 -3.03676 0.0384247 0
M  V30 15511 H 1385.49 -1.4916 0.0845936 0
M  V30 15512 H 1387.37 -3.48189 -2.37365 0
M  V30 15513 H 1386.04 -2.28902 -2.28879 0
M  V30 15514 H 1384.95 -3.71258 -0.460274 0
M  V30 15515 H 1386.28 -4.88214 -0.625111 0
M  V30 15516 N 1387.94 -0.0468143 -1.5753 0
M  V30 15517 C 1389.35 0.309707 -1.56566 0
M  V30 15518 C 1389.55 1.7173 -1.05408 0
M  V30 15519 O 1388.61 2.4235 -0.708723 0
M  V30 15520 C 1389.92 0.142151 -3.00364 0
M  V30 15521 C 1391.47 0.213585 -3.1227 0
M  V30 15522 C 1391.94 0.0746102 -4.57939 0
M  V30 15523 N 1393.43 0.131027 -4.63015 0
M  V30 15524 C 1394.17 0.0475409 -5.7338 0
M  V30 15525 N 1393.67 -0.0880445 -6.92744 0
M  V30 15526 N 1395.46 0.102809 -5.62006 0
M  V30 15527 H 1387.61 -0.967057 -1.89108 0
M  V30 15528 H 1389.87 -0.375018 -0.870669 0
M  V30 15529 H 1389.58 -0.828171 -3.4181 0
M  V30 15530 H 1389.45 0.905006 -3.66182 0
M  V30 15531 H 1391.84 1.17438 -2.70726 0
M  V30 15532 H 1391.92 -0.57995 -2.49139 0
M  V30 15533 H 1391.56 -0.882839 -5.00168 0
M  V30 15534 H 1391.49 0.887235 -5.19072 0
M  V30 15535 H 1393.99 0.235246 -3.77167 0
M  V30 15536 H 1394.3 -0.144574 -7.72665 0
M  V30 15537 H 1392.64 -0.12307 -6.94891 0
M  V30 15538 H 1395.83 0.207259 -4.67641 0
M  V30 15539 H 1396.01 0.0342865 -6.47991 0
M  V30 15540 N 1389.41 1.55964 0.226527 0
M  V30 15541 C 1390.32 1.95169 1.30178 0
M  V30 15542 C 1391.34 0.854831 1.51554 0
M  V30 15543 O 1392.52 1.15798 1.64781 0
M  V30 15544 C 1389.58 2.25612 2.63249 0
M  V30 15545 C 1388.64 3.4884 2.50219 0
M  V30 15546 C 1387.88 3.77822 3.76944 0
M  V30 15547 O 1388.1 3.08556 4.79739 0
M  V30 15548 O 1387.03 4.7132 3.74354 0
M  V30 15549 H 1390.86 2.86794 0.999145 0
M  V30 15550 H 1388.44 1.43109 0.42898 0
M  V30 15551 H 1390.33 2.4641 3.41848 0
M  V30 15552 H 1389 1.37162 2.93203 0
M  V30 15553 H 1387.91 3.33326 1.69836 0
M  V30 15554 H 1389.24 4.37657 2.25205 0
M  V30 15555 N 1390.89 -0.493031 1.4969 0
M  V30 15556 C 1391.84 -1.59367 1.66945 0
M  V30 15557 C 1392.81 -1.58049 0.510842 0
M  V30 15558 O 1393.99 -1.75915 0.738822 0
M  V30 15559 C 1391.13 -2.97472 1.74941 0
M  V30 15560 C 1390.25 -3.08745 3.02159 0
M  V30 15561 C 1389.38 -4.37632 3.01085 0
M  V30 15562 C 1388.42 -4.42567 4.22849 0
M  V30 15563 N 1387.56 -5.62892 4.19639 0
M  V30 15564 H 1392.4 -1.4396 2.6092 0
M  V30 15565 H 1389.94 -0.700297 1.29361 0
M  V30 15566 H 1391.89 -3.7753 1.77558 0
M  V30 15567 H 1390.52 -3.11564 0.844252 0
M  V30 15568 H 1389.58 -2.217 3.09117 0
M  V30 15569 H 1390.89 -3.08251 3.92151 0
M  V30 15570 H 1390.04 -5.26018 3.02309 0
M  V30 15571 H 1388.78 -4.40702 2.08885 0
M  V30 15572 H 1387.79 -3.52581 4.21861 0
M  V30 15573 H 1389.01 -4.41205 5.1625 0
M  V30 15574 H 1386.96 -5.6679 3.30281 0
M  V30 15575 H 1386.87 -5.64048 5.03374 0
M  V30 15576 H 1388.14 -6.53464 4.24977 0
M  V30 15577 N 1392.37 -1.38898 -0.744656 0
M  V30 15578 C 1393.62 -1.35795 -1.50623 0
M  V30 15579 C 1393.95 0.0491775 -1.94138 0
M  V30 15580 O 1393.22 1.01219 -1.66087 0
M  V30 15581 C 1393.51 -2.32168 -2.75263 0
M  V30 15582 C 1393.36 -3.81781 -2.3783 0
M  V30 15583 C 1394.68 -2.26526 -3.77325 0
M  V30 15584 H 1391.8 -0.494591 -0.546396 0
M  V30 15585 H 1394.44 -1.69816 -0.852211 0
M  V30 15586 H 1392.59 -2.03287 -3.31069 0
M  V30 15587 H 1394.26 -4.21373 -1.8773 0
M  V30 15588 H 1392.51 -3.99027 -1.70176 0
M  V30 15589 H 1393.18 -4.44687 -3.27044 0
M  V30 15590 H 1395.65 -2.52041 -3.31081 0
M  V30 15591 H 1394.53 -2.96053 -4.62216 0
M  V30 15592 H 1394.79 -1.26705 -4.23554 0
M  V30 15593 N 1393.85 0.973806 -1.23914 0
M  V30 15594 C 1395.08 1.75107 -1.10206 0
M  V30 15595 C 1395.49 1.85604 0.345935 0
M  V30 15596 O 1394.85 1.33996 1.239 0
M  V30 15597 C 1394.9 3.17466 -1.72909 0
M  V30 15598 O 1394.62 3.07504 -3.12047 0
M  V30 15599 C 1396.12 4.11557 -1.6473 0
M  V30 15600 H 1393.34 0.549318 -0.385345 0
M  V30 15601 H 1395.89 1.22301 -1.63898 0
M  V30 15602 H 1394.04 3.67277 -1.23234 0
M  V30 15603 H 1394.45 3.97169 -3.42575 0
M  V30 15604 H 1395.93 5.09126 -2.13295 0
M  V30 15605 H 1396.41 4.3498 -0.607352 0
M  V30 15606 H 1397.01 3.67653 -2.13802 0
M  V30 15607 N 1395.33 1.05191 1.17357 0
M  V30 15608 C 1396.57 0.763113 1.87895 0
M  V30 15609 C 1396.91 -0.708071 1.80831 0
M  V30 15610 O 1396.18 -1.51777 1.21631 0
M  V30 15611 C 1396.46 1.2442 3.37923 0
M  V30 15612 C 1396.32 2.77832 3.53737 0
M  V30 15613 C 1397.64 0.843209 4.31947 0
M  V30 15614 H 1394.75 0.27869 0.682276 0
M  V30 15615 H 1397.4 1.3059 1.38008 0
M  V30 15616 H 1395.55 0.782438 3.80539 0
M  V30 15617 H 1397.22 3.32131 3.20135 0
M  V30 15618 H 1395.46 3.17108 2.96015 0
M  V30 15619 H 1396.13 3.06555 4.59052 0
M  V30 15620 H 1398.61 1.24073 3.97171 0
M  V30 15621 H 1397.48 1.20743 5.35455 0
M  V30 15622 H 1397.75 -0.252802 4.41377 0
M  V30 15623 N 1396.8 -1.33791 0.83293 0
M  V30 15624 C 1397.74 -2.27259 0.207019 0
M  V30 15625 C 1398.72 -1.49372 -0.642403 0
M  V30 15626 O 1399.9 -1.78562 -0.603963 0
M  V30 15627 C 1397.03 -3.31177 -0.709885 0
M  V30 15628 C 1396.07 -4.26453 0.0633036 0
M  V30 15629 S 1396.91 -5.16406 1.41721 0
M  V30 15630 C 1398.06 -6.23856 0.505446 0
M  V30 15631 H 1398.29 -2.79998 0.999422 0
M  V30 15632 H 1395.83 -1.40991 0.629361 0
M  V30 15633 H 1397.79 -3.91535 -1.23332 0
M  V30 15634 H 1396.45 -2.77265 -1.4759 0
M  V30 15635 H 1395.64 -4.99995 -0.634145 0
M  V30 15636 H 1395.24 -3.70401 0.517607 0
M  V30 15637 H 1397.53 -6.7684 -0.299066 0
M  V30 15638 H 1398.48 -6.97671 1.21084 0
M  V30 15639 H 1398.88 -5.64429 0.0894308 0
M  V30 15640 N 1398.28 -0.588812 -1.46187 0
M  V30 15641 C 1399.51 -0.0806571 -2.07243 0
M  V30 15642 C 1399.93 1.21766 -1.43369 0
M  V30 15643 O 1399.29 1.73694 -0.51964 0
M  V30 15644 C 1399.34 0.065267 -3.60541 0
M  V30 15645 O 1398.44 1.12026 -3.96893 0
M  V30 15646 H 1397.78 -0.0655622 -0.660755 0
M  V30 15647 H 1400.31 -0.813489 -1.87733 0
M  V30 15648 H 1400.32 0.269494 -4.07109 0
M  V30 15649 H 1399 -0.88284 -4.06422 0
M  V30 15650 H 1397.58 0.894 -3.62025 0
M  V30 15651 N 1399.76 1.54172 -0.326923 0
M  V30 15652 C 1400.99 2.05044 0.276508 0
M  V30 15653 C 1401.4 1.20288 1.45521 0
M  V30 15654 O 1400.76 0.234324 1.80989 0
M  V30 15655 C 1400.81 3.54505 0.707714 0
M  V30 15656 O 1400.53 4.36042 -0.424098 0
M  V30 15657 C 1402.03 4.21482 1.3736 0
M  V30 15658 H 1399.25 0.668632 0.0563273 0
M  V30 15659 H 1401.8 1.98929 -0.474087 0
M  V30 15660 H 1399.95 3.60896 1.40828 0
M  V30 15661 H 1400.37 5.24433 -0.0836846 0
M  V30 15662 H 1401.84 5.27501 1.62623 0
M  V30 15663 H 1402.32 3.72802 2.32196 0
M  V30 15664 H 1402.92 4.19238 0.715526 0
M  V30 15665 N 1401.24 0.0551678 1.57503 0
M  V30 15666 C 1402.49 -0.617201 1.92025 0
M  V30 15667 C 1402.8 -1.71767 0.93571 0
M  V30 15668 O 1404.01 -2.44847 1.17312 0
M  V30 15669 C 1402.46 -1.14915 3.41061 0
M  V30 15670 C 1402.07 -0.0805814 4.47928 0
M  V30 15671 C 1403.81 -1.79654 3.8461 0
M  V30 15672 C 1401.72 -0.625639 5.88081 0
M  V30 15673 H 1400.65 -0.23431 0.716669 0
M  V30 15674 H 1403.3 0.124706 1.83076 0
M  V30 15675 H 1401.68 -1.9435 3.45028 0
M  V30 15676 H 1402.86 0.693222 4.55556 0
M  V30 15677 H 1401.17 0.469581 4.13744 0
M  V30 15678 H 1403.77 -2.21436 4.86693 0
M  V30 15679 H 1404.11 -2.64987 3.21073 0
M  V30 15680 H 1404.65 -1.06868 3.83176 0
M  V30 15681 H 1401.39 0.190148 6.55224 0
M  V30 15682 H 1400.91 -1.36734 5.84007 0
M  V30 15683 H 1402.58 -1.10728 6.37454 0
M  V30 15684 N 1402.72 -1.56081 -0.218252 0
M  V30 15685 C 1403.66 -1.93544 -1.2901 0
M  V30 15686 C 1404.66 -0.817886 -1.48348 0
M  V30 15687 O 1405.86 -1.00274 -1.49483 0
M  V30 15688 H 1402.24 -0.61511 -0.432601 0
M  V30 15689 H 1404.21 -2.82975 -0.946966 0
M  V30 15690 C 1402.96 -2.27134 -2.63259 0
M  V30 15691 H 1402.28 -3.12643 -2.49188 0
M  V30 15692 H 1403.72 -2.57228 -3.3706 0
M  V30 15693 C 1402.18 -1.09764 -3.18518 0
M  V30 15694 O 1402.71 -0.360501 -4.00079 0
M  V30 15695 N 1400.92 -0.880589 -2.76937 0
M  V30 15696 H 1400.46 -1.48175 -2.10718 0
M  V30 15697 H 1400.42 -0.0970234 -3.1425 0
M  V30 15698 N 1404.2 0.485086 -1.49949 0
M  V30 15699 C 1405.61 1.06629 -1.53255 0
M  V30 15700 C 1405.96 1.9344 -0.327915 0
M  V30 15701 O 1405.08 2.09011 0.560669 0
M  V30 15702 C 1405.68 1.94053 -2.77721 0
M  V30 15703 C 1404.24 2.47307 -2.83754 0
M  V30 15704 C 1403.38 1.25307 -2.47373 0
M  V30 15705 H 1406.33 0.268297 -1.56416 0
M  V30 15706 H 1406.36 2.78946 -2.58784 0
M  V30 15707 H 1405.87 1.30843 -3.65379 0
M  V30 15708 H 1403.97 3.1411 -2.00414 0
M  V30 15709 H 1404.08 2.83371 -3.86313 0
M  V30 15710 H 1402.45 1.5834 -1.99501 0
M  V30 15711 H 1403.23 0.637815 -3.37323 0
M  V30 15712 N 1405.67 1.39291 0.737279 0
M  V30 15713 C 1406.9 1.39659 1.52653 0
M  V30 15714 C 1407.32 -0.00948259 1.88798 0
M  V30 15715 O 1406.67 -0.980249 1.53939 0
M  V30 15716 C 1406.72 2.2674 2.81552 0
M  V30 15717 O 1406.45 3.61871 2.46943 0
M  V30 15718 C 1407.95 2.35466 3.75594 0
M  V30 15719 H 1405.17 0.477108 0.471814 0
M  V30 15720 H 1407.71 1.83077 0.911205 0
M  V30 15721 H 1405.87 1.86741 3.39421 0
M  V30 15722 H 1406.28 4.07897 3.29728 0
M  V30 15723 H 1407.75 3.00649 4.62941 0
M  V30 15724 H 1408.23 1.37314 4.17183 0
M  V30 15725 H 1408.84 2.75925 3.23644 0
M  V30 15726 N 1407.15 -0.967221 1.24429 0
M  V30 15727 C 1408.1 -2.06187 1.03709 0
M  V30 15728 C 1409.07 -1.66025 -0.0497665 0
M  V30 15729 O 1410.25 -1.90511 0.104951 0
M  V30 15730 C 1407.39 -3.38952 0.648477 0
M  V30 15731 C 1406.51 -3.92306 1.80886 0
M  V30 15732 C 1405.64 -5.13342 1.36579 0
M  V30 15733 C 1404.68 -5.58893 2.49609 0
M  V30 15734 N 1403.82 -6.71148 2.06165 0
M  V30 15735 H 1408.66 -2.23244 1.97399 0
M  V30 15736 H 1406.19 -1.09415 0.983192 0
M  V30 15737 H 1408.15 -4.15237 0.40419 0
M  V30 15738 H 1406.78 -3.21819 -0.25142 0
M  V30 15739 H 1405.83 -3.12656 2.1668 0
M  V30 15740 H 1407.15 -4.22071 2.65815 0
M  V30 15741 H 1406.3 -5.97003 1.0804 0
M  V30 15742 H 1405.04 -4.85262 0.487051 0
M  V30 15743 H 1404.04 -4.73805 2.78906 0
M  V30 15744 H 1405.27 -5.88987 3.3804 0
M  V30 15745 H 1403.22 -6.44802 1.20691 0
M  V30 15746 H 1403.13 -7.00366 2.84647 0
M  V30 15747 H 1404.4 -7.5825 1.80769 0
M  V30 15748 N 1408.63 -1.05812 -1.16797 0
M  V30 15749 C 1409.91 -0.685551 -1.83193 0
M  V30 15750 C 1410.29 0.833539 -1.93947 0
M  V30 15751 O 1409.63 1.74193 -1.47882 0
M  V30 15752 C 1409.84 -1.38183 -3.20479 0
M  V30 15753 C 1411.19 -1.52389 -3.96311 0
M  V30 15754 O 1412.22 -1.34134 -3.2998 0
M  V30 15755 O 1411.08 -1.82297 -5.15199 0
M  V30 15756 H 1408.17 -0.242095 -0.790771 0
M  V30 15757 H 1410.72 -1.15809 -1.24041 0
M  V30 15758 H 1409.49 -2.41791 -3.07657 0
M  V30 15759 H 1409.11 -0.899043 -3.87302 0
M  V30 15760 N 1410.11 1.33347 -0.840014 0
M  V30 15761 C 1411.04 2.31703 -0.289138 0
M  V30 15762 C 1412.02 1.59024 0.603759 0
M  V30 15763 O 1413.2 1.86911 0.527071 0
M  V30 15764 C 1410.33 3.43144 0.53566 0
M  V30 15765 C 1409.29 4.272 -0.261544 0
M  V30 15766 C 1408.61 5.30267 0.687075 0
M  V30 15767 C 1409.91 5.00915 -1.47924 0
M  V30 15768 H 1411.61 2.78026 -1.11094 0
M  V30 15769 H 1409.15 1.33666 -0.535658 0
M  V30 15770 H 1411.11 4.10979 0.931351 0
M  V30 15771 H 1409.83 2.95512 1.39069 0
M  V30 15772 H 1408.49 3.60991 -0.638809 0
M  V30 15773 H 1408.14 4.78893 1.53853 0
M  V30 15774 H 1407.84 5.87388 0.157773 0
M  V30 15775 H 1409.36 6.00968 1.08026 0
M  V30 15776 H 1410.78 5.61511 -1.15664 0
M  V30 15777 H 1409.17 5.67692 -1.94541 0
M  V30 15778 H 1410.24 4.29622 -2.24839 0
M  V30 15779 N 1411.59 0.596556 1.45873 0
M  V30 15780 C 1412.52 -0.116229 2.33211 0
M  V30 15781 C 1413.5 -0.869868 1.46176 0
M  V30 15782 O 1414.68 -0.842599 1.74968 0
M  V30 15783 C 1411.81 -1.12145 3.28696 0
M  V30 15784 C 1410.77 -0.481749 4.2528 0
M  V30 15785 C 1410.09 -1.59443 5.10374 0
M  V30 15786 C 1411.39 0.589996 5.18957 0
M  V30 15787 H 1413.09 0.613005 2.93057 0
M  V30 15788 H 1410.63 0.296242 1.4092 0
M  V30 15789 H 1412.58 -1.62857 3.88659 0
M  V30 15790 H 1411.31 -1.88114 2.66985 0
M  V30 15791 H 1409.97 0.0044092 3.666 0
M  V30 15792 H 1409.62 -2.34413 4.45039 0
M  V30 15793 H 1409.32 -1.17197 5.75794 0
M  V30 15794 H 1410.84 -2.10404 5.73204 0
M  V30 15795 H 1412.25 0.167395 5.73056 0
M  V30 15796 H 1410.65 0.933565 5.92794 0
M  V30 15797 H 1411.72 1.47093 4.62052 0
M  V30 15798 N 1413.06 -1.53996 0.335095 0
M  V30 15799 C 1414.03 -2.23385 -0.513015 0
M  V30 15800 C 1415.03 -1.23117 -1.03435 0
M  V30 15801 O 1416.22 -1.47616 -0.924944 0
M  V30 15802 C 1413.35 -2.94691 -1.71377 0
M  V30 15803 H 1414.54 -2.99753 0.0937306 0
M  V30 15804 H 1412.09 -1.56061 0.086326 0
M  V30 15805 H 1412.83 -2.22488 -2.35944 0
M  V30 15806 H 1412.61 -3.68228 -1.34723 0
M  V30 15807 H 1414.1 -3.47525 -2.31552 0
M  V30 15808 N 1414.54 -0.0635198 -1.57472 0
M  V30 15809 C 1415.82 0.648029 -1.84553 0
M  V30 15810 C 1416.2 1.88295 -0.954371 0
M  V30 15811 O 1415.55 2.28492 -0.0185351 0
M  V30 15812 C 1415.76 0.993573 -3.34558 0
M  V30 15813 C 1417.1 1.3706 -4.0187 0
M  V30 15814 O 1418.13 1.08555 -3.39255 0
M  V30 15815 O 1416.99 1.90309 -5.12294 0
M  V30 15816 H 1414.08 0.321047 -0.76214 0
M  V30 15817 H 1416.63 -0.0938223 -1.6944 0
M  V30 15818 H 1415.4 0.116139 -3.91128 0
M  V30 15819 H 1415.02 1.79246 -3.54904 0
M  V30 15820 N 1416.02 1.56195 0.209972 0
M  V30 15821 C 1416.95 1.96378 1.26324 0
M  V30 15822 C 1417.93 0.833606 1.48273 0
M  V30 15823 O 1419.12 1.0968 1.60262 0
M  V30 15824 C 1416.25 2.29048 2.61064 0
M  V30 15825 C 1415.2 3.44665 2.53752 0
M  V30 15826 C 1414.53 3.6297 3.92628 0
M  V30 15827 C 1415.83 4.79297 2.07536 0
M  V30 15828 H 1417.52 2.8461 0.929379 0
M  V30 15829 H 1415.07 1.36931 0.445627 0
M  V30 15830 H 1417.02 2.55752 3.34916 0
M  V30 15831 H 1415.74 1.37682 2.96161 0
M  V30 15832 H 1414.4 3.18028 1.82356 0
M  V30 15833 H 1414.05 2.68961 4.25052 0
M  V30 15834 H 1413.75 4.40741 3.88614 0
M  V30 15835 H 1415.27 3.92035 4.68125 0
M  V30 15836 H 1416.69 5.05131 2.71138 0
M  V30 15837 H 1415.08 5.60433 2.14557 0
M  V30 15838 H 1416.15 4.73877 1.02802 0
M  V30 15839 N 1417.5 -0.477127 1.50204 0
M  V30 15840 C 1418.75 -1.22639 1.60133 0
M  V30 15841 C 1419.06 -1.93218 0.304333 0
M  V30 15842 O 1420.27 -2.70027 0.282457 0
M  V30 15843 C 1418.72 -2.22807 2.82639 0
M  V30 15844 C 1418.33 -1.58059 4.19191 0
M  V30 15845 C 1420.07 -2.98413 3.01911 0
M  V30 15846 C 1417.98 -2.56478 5.32891 0
M  V30 15847 H 1416.91 -0.461439 0.596314 0
M  V30 15848 H 1419.56 -0.497533 1.76626 0
M  V30 15849 H 1417.94 -2.98959 2.59692 0
M  V30 15850 H 1419.12 -0.877374 4.5237 0
M  V30 15851 H 1417.43 -0.947563 4.05475 0
M  V30 15852 H 1420.03 -3.72059 3.84026 0
M  V30 15853 H 1420.37 -3.57444 2.134 0
M  V30 15854 H 1420.91 -2.29375 3.25011 0
M  V30 15855 H 1417.64 -2.02194 6.23536 0
M  V30 15856 H 1417.16 -3.24969 5.04138 0
M  V30 15857 H 1418.84 -3.18429 5.63216 0
M  V30 15858 N 1418.98 -1.3968 -0.729882 0
M  V30 15859 C 1420.22 -1.36911 -1.4866 0
M  V30 15860 C 1420.55 0.0326011 -1.94973 0
M  V30 15861 O 1419.82 0.984789 -1.69348 0
M  V30 15862 H 1418.4 -0.503848 -0.551495 0
M  V30 15863 H 1421.06 -1.74596 -0.866155 0
M  V30 15864 H 1420.15 -2.03504 -2.36628 0
M  V30 15865 N 1420.45 0.960609 -1.2494 0
M  V30 15866 C 1421.69 1.71937 -1.10531 0
M  V30 15867 C 1422.06 1.88806 0.348766 0
M  V30 15868 O 1423.26 2.61681 0.614539 0
M  V30 15869 C 1421.53 3.0685 -1.83242 0
M  V30 15870 S 1423.09 3.98057 -1.84651 0
M  V30 15871 H 1419.91 0.591061 -0.395181 0
M  V30 15872 H 1422.51 1.14618 -1.58376 0
M  V30 15873 H 1421.21 2.92238 -2.8814 0
M  V30 15874 H 1420.74 3.69233 -1.35759 0
M  V30 15875 H 1422.76 4.8761 -0.919263 0
M  V30 15876 N 1421.93 1.0643 1.16234 0
M  V30 15877 C 1422.86 0.634274 2.20249 0
M  V30 15878 C 1423.88 -0.308432 1.59852 0
M  V30 15879 O 1425.07 -0.0992067 1.78224 0
M  V30 15880 C 1422.17 -0.0901593 3.3878 0
M  V30 15881 C 1421.34 0.866379 4.28734 0
M  V30 15882 C 1420.4 0.180942 5.25889 0
M  V30 15883 O 1419.42 0.819034 5.63277 0
M  V30 15884 N 1420.63 -1.07698 5.70422 0
M  V30 15885 H 1423.39 1.52901 2.57762 0
M  V30 15886 H 1420.95 0.947789 1.31258 0
M  V30 15887 H 1422.94 -0.559147 4.00819 0
M  V30 15888 H 1421.51 -0.886715 2.9976 0
M  V30 15889 H 1420.73 1.51471 3.63937 0
M  V30 15890 H 1422.02 1.51524 4.85714 0
M  V30 15891 H 1421.42 -1.6155 5.42142 0
M  V30 15892 H 1419.98 -1.48981 6.34545 0
M  V30 15893 N 1423.41 -1.329 0.847073 0
M  V30 15894 C 1424.83 -1.50333 0.53593 0
M  V30 15895 C 1425.03 -1.78492 -0.93504 0
M  V30 15896 O 1424.08 -1.85001 -1.71846 0
M  V30 15897 C 1425.4 -2.65254 1.41636 0
M  V30 15898 C 1426.94 -2.79139 1.416 0
M  V30 15899 C 1427.42 -3.97131 2.28147 0
M  V30 15900 N 1428.91 -4.0438 2.25901 0
M  V30 15901 C 1429.64 -4.94893 2.89601 0
M  V30 15902 N 1429.14 -5.90466 3.62383 0
M  V30 15903 N 1430.93 -4.87955 2.79028 0
M  V30 15904 H 1423.08 -1.12886 1.79918 0
M  V30 15905 H 1425.35 -0.555707 0.768045 0
M  V30 15906 H 1425.05 -2.51151 2.46203 0
M  V30 15907 H 1424.93 -3.60856 1.09829 0
M  V30 15908 H 1427.31 -2.92669 0.378013 0
M  V30 15909 H 1427.4 -1.84273 1.77418 0
M  V30 15910 H 1427.04 -3.8436 3.32009 0
M  V30 15911 H 1426.97 -4.91258 1.89665 0
M  V30 15912 H 1429.46 -3.35986 1.72979 0
M  V30 15913 H 1429.77 -6.56212 4.08174 0
M  V30 15914 H 1428.12 -5.90516 3.66491 0
M  V30 15915 H 1431.31 -4.12258 2.21723 0
M  V30 15916 H 1431.48 -5.58295 3.28954 0
M  V30 15917 N 1424.89 -0.604284 -1.45555 0
M  V30 15918 C 1425.82 0.103859 -2.33269 0
M  V30 15919 C 1426.8 0.862104 -1.46635 0
M  V30 15920 O 1427.98 0.833308 -1.75413 0
M  V30 15921 C 1425.11 1.104 -3.29286 0
M  V30 15922 C 1424.07 0.459189 -4.2553 0
M  V30 15923 C 1423.39 1.56734 -5.11213 0
M  V30 15924 C 1424.69 -0.617509 -5.18637 0
M  V30 15925 H 1426.39 -0.628538 -2.92728 0
M  V30 15926 H 1423.93 -0.303711 -1.40761 0
M  V30 15927 H 1425.89 1.60794 -3.89517 0
M  V30 15928 H 1424.61 1.86695 -2.67979 0
M  V30 15929 H 1423.27 -0.0238508 -3.66592 0
M  V30 15930 H 1422.92 2.32049 -4.46276 0
M  V30 15931 H 1422.62 1.14142 -5.76407 0
M  V30 15932 H 1424.14 2.07361 -5.74312 0
M  V30 15933 H 1425.56 -0.197784 -5.72959 0
M  V30 15934 H 1423.95 -0.96499 -5.9229 0
M  V30 15935 H 1425.02 -1.49541 -4.61265 0
M  V30 15936 N 1426.37 1.53816 -0.343257 0
M  V30 15937 C 1427.78 1.86169 0.140709 0
M  V30 15938 C 1428.13 1.26449 1.50017 0
M  V30 15939 O 1427.25 0.577955 2.08539 0
M  V30 15940 C 1427.85 3.37785 0.262097 0
M  V30 15941 C 1426.41 3.70016 0.690294 0
M  V30 15942 C 1425.55 2.7674 -0.17614 0
M  V30 15943 H 1428.51 1.48383 -0.562863 0
M  V30 15944 H 1428.53 3.64564 1.08964 0
M  V30 15945 H 1428.04 3.81221 -0.727481 0
M  V30 15946 H 1426.14 3.32124 1.68891 0
M  V30 15947 H 1426.25 4.76686 0.480388 0
M  V30 15948 H 1424.62 2.52263 0.351476 0
M  V30 15949 H 1425.4 3.23006 -1.16285 0
M  V30 15950 N 1427.84 0.0718701 1.57436 0
M  V30 15951 C 1428.75 -0.910077 2.16229 0
M  V30 15952 C 1429.77 -1.32699 1.12548 0
M  V30 15953 O 1430.95 -1.39967 1.44814 0
M  V30 15954 C 1428.01 -2.15942 2.71238 0
M  V30 15955 C 1427.07 -1.79891 3.89792 0
M  V30 15956 C 1426.31 -2.9887 4.42168 0
M  V30 15957 O 1426.53 -4.1289 3.93545 0
M  V30 15958 O 1425.46 -2.78682 5.33498 0
M  V30 15959 H 1429.29 -0.439969 3.00496 0
M  V30 15960 H 1426.87 -0.151204 1.48633 0
M  V30 15961 H 1428.76 -2.89204 3.06494 0
M  V30 15962 H 1427.43 -2.62051 1.90029 0
M  V30 15963 H 1426.34 -1.03881 3.59388 0
M  V30 15964 H 1427.67 -1.38566 4.72293 0
M  V30 15965 N 1429.32 -1.56304 -0.201686 0
M  V30 15966 C 1430.6 -1.71059 -0.948595 0
M  V30 15967 C 1430.98 -0.624794 -2.01642 0
M  V30 15968 O 1430.33 0.365235 -2.25562 0
M  V30 15969 C 1430.54 -3.13136 -1.54101 0
M  V30 15970 C 1431.89 -3.73165 -2.02567 0
M  V30 15971 O 1432.91 -3.16223 -1.63956 0
M  V30 15972 O 1431.77 -4.73084 -2.73594 0
M  V30 15973 H 1428.86 -0.697443 -0.444412 0
M  V30 15974 H 1431.41 -1.68611 -0.191901 0
M  V30 15975 H 1430.18 -3.8363 -0.770968 0
M  V30 15976 H 1429.8 -3.19784 -2.36271 0
M  V30 15977 N 1430.8 0.469154 -1.50455 0
M  V30 15978 C 1431.73 1.58443 -1.65615 0
M  V30 15979 C 1432.75 1.53668 -0.537584 0
M  V30 15980 O 1433.93 1.59021 -0.810832 0
M  V30 15981 C 1431.03 2.97327 -1.62634 0
M  V30 15982 C 1430.21 3.2695 -2.90555 0
M  V30 15983 C 1429.27 4.45398 -2.80191 0
M  V30 15984 O 1428.29 4.45611 -3.54146 0
M  V30 15985 N 1429.49 5.47167 -1.93878 0
M  V30 15986 H 1432.26 1.45854 -2.61814 0
M  V30 15987 H 1429.82 0.657604 -1.47943 0
M  V30 15988 H 1431.81 3.74537 -1.53311 0
M  V30 15989 H 1430.38 3.03675 -0.741624 0
M  V30 15990 H 1429.6 2.38335 -3.13991 0
M  V30 15991 H 1430.89 3.43554 -3.75297 0
M  V30 15992 H 1430.29 5.49817 -1.33109 0
M  V30 15993 H 1428.85 6.23353 -1.90457 0
M  V30 15994 N 1432.28 1.40065 0.722464 0
M  V30 15995 C 1433.69 1.21944 1.02965 0
M  V30 15996 C 1433.89 0.0898069 2.013 0
M  V30 15997 O 1432.95 -0.554519 2.46336 0
M  V30 15998 C 1434.26 2.55848 1.57995 0
M  V30 15999 C 1435.81 2.62801 1.70013 0
M  V30 16000 C 1436.29 3.96957 2.2845 0
M  V30 16001 N 1437.78 3.98662 2.35844 0
M  V30 16002 C 1438.51 4.99248 2.82026 0
M  V30 16003 N 1438.01 6.1023 3.28012 0
M  V30 16004 N 1439.8 4.8662 2.81349 0
M  V30 16005 H 1431.95 2.12283 0.0705301 0
M  V30 16006 H 1434.22 0.943338 0.0938991 0
M  V30 16007 H 1433.92 3.39125 0.932034 0
M  V30 16008 H 1433.8 2.76452 2.5662 0
M  V30 16009 H 1436.18 1.799 2.33923 0
M  V30 16010 H 1436.26 2.46034 0.700062 0
M  V30 16011 H 1435.91 4.80295 1.65164 0
M  V30 16012 H 1435.84 4.1105 3.29158 0
M  V30 16013 H 1438.33 3.18518 2.03358 0
M  V30 16014 H 1438.64 6.82878 3.61797 0
M  V30 16015 H 1436.99 6.13805 3.25988 0
M  V30 16016 H 1440.18 3.99015 2.44755 0
M  V30 16017 H 1440.35 5.65155 3.17024 0
M  V30 16018 N 1433.76 -0.95397 1.25448 0
M  V30 16019 C 1434.7 -2.05075 1.0589 0
M  V30 16020 C 1435.67 -1.66069 -0.0321545 0
M  V30 16021 O 1436.86 -1.90389 0.125152 0
M  V30 16022 C 1434 -3.38246 0.684391 0
M  V30 16023 C 1433.11 -3.90366 1.85037 0
M  V30 16024 C 1432.25 -5.11864 1.42016 0
M  V30 16025 C 1431.29 -5.56214 2.55523 0
M  V30 16026 N 1430.42 -6.68924 2.13272 0
M  V30 16027 H 1435.26 -2.21137 1.99755 0
M  V30 16028 H 1432.8 -1.08366 0.994742 0
M  V30 16029 H 1434.76 -4.14785 0.448209 0
M  V30 16030 H 1433.39 -3.22068 -0.217273 0
M  V30 16031 H 1432.44 -3.1034 2.19984 0
M  V30 16032 H 1433.75 -4.19228 2.70276 0
M  V30 16033 H 1432.91 -5.95823 1.14366 0
M  V30 16034 H 1431.65 -4.84718 0.538492 0
M  V30 16035 H 1430.65 -4.7082 2.83916 0
M  V30 16036 H 1431.88 -5.85368 3.44268 0
M  V30 16037 H 1429.82 -6.43486 1.27523 0
M  V30 16038 H 1429.74 -6.97307 2.92059 0
M  V30 16039 H 1431.01 -7.5629 1.88801 0
M  V30 16040 N 1435.24 -1.07045 -1.15668 0
M  V30 16041 C 1436.18 -0.688004 -2.20307 0
M  V30 16042 C 1437.15 0.319081 -1.63006 0
M  V30 16043 O 1438.34 0.206239 -1.89682 0
M  V30 16044 C 1435.48 -0.0886692 -3.44986 0
M  V30 16045 C 1434.59 -1.14685 -4.16499 0
M  V30 16046 C 1433.73 -0.512852 -5.28719 0
M  V30 16047 C 1432.76 -1.55404 -5.92044 0
M  V30 16048 N 1431.9 -0.942848 -6.9574 0
M  V30 16049 H 1436.74 -1.58469 -2.52372 0
M  V30 16050 H 1434.28 -0.792184 -1.23947 0
M  V30 16051 H 1436.24 0.276415 -4.16283 0
M  V30 16052 H 1434.87 0.77139 -3.13448 0
M  V30 16053 H 1433.92 -1.62955 -3.43729 0
M  V30 16054 H 1435.23 -1.93643 -4.59678 0
M  V30 16055 H 1434.38 -0.0952274 -6.06625 0
M  V30 16056 H 1433.12 0.308524 -4.86723 0
M  V30 16057 H 1432.13 -1.98148 -5.12852 0
M  V30 16058 H 1433.35 -2.37765 -6.36117 0
M  V30 16059 H 1431.3 -0.142319 -6.55846 0
M  V30 16060 H 1431.22 -1.6697 -7.37331 0
M  V30 16061 H 1432.48 -0.550621 -7.77553 0
M  V30 16062 N 1436.71 1.32449 -0.85411 0
M  V30 16063 C 1437.96 1.97563 -0.4579 0
M  V30 16064 C 1438.29 1.67435 0.983835 0
M  V30 16065 O 1437.57 0.962292 1.69027 0
M  V30 16066 C 1437.85 3.53292 -0.69688 0
M  V30 16067 C 1437.7 3.93053 -2.18699 0
M  V30 16068 C 1439.02 4.39834 -0.152917 0
M  V30 16069 H 1436.14 0.717634 -0.167842 0
M  V30 16070 H 1438.78 1.5684 -1.07243 0
M  V30 16071 H 1436.93 3.88111 -0.173807 0
M  V30 16072 H 1438.61 3.68416 -2.7761 0
M  V30 16073 H 1436.85 3.42232 -2.6657 0
M  V30 16074 H 1437.52 5.01576 -2.3049 0
M  V30 16075 H 1440 4.11748 -0.600216 0
M  V30 16076 H 1438.87 5.47785 -0.349703 0
M  V30 16077 H 1439.13 4.31898 0.944276 0
M  V30 16078 N 1438.19 0.611994 1.45232 0
M  V30 16079 C 1439.14 -0.125771 2.27653 0
M  V30 16080 C 1440.13 -0.834397 1.37574 0
M  V30 16081 O 1441.32 -0.72366 1.61531 0
M  V30 16082 C 1438.45 -1.11955 3.24532 0
M  V30 16083 C 1437.53 -0.411537 4.22099 0
M  V30 16084 N 1437.92 0.549272 5.02809 0
M  V30 16085 C 1436.22 -0.658514 4.41112 0
M  V30 16086 C 1436.92 0.965836 5.73626 0
M  V30 16087 N 1435.9 0.308649 5.42723 0
M  V30 16088 H 1439.7 0.612115 2.87455 0
M  V30 16089 H 1437.21 0.436003 1.56438 0
M  V30 16090 H 1439.21 -1.66253 3.82316 0
M  V30 16091 H 1437.87 -1.85795 2.6629 0
M  V30 16092 H 1438.88 0.926222 5.0955 0
M  V30 16093 H 1435.56 -1.38125 3.9399 0
M  V30 16094 H 1436.95 1.75853 6.48479 0
M  V30 16095 N 1439.67 -1.53632 0.351409 0
M  V30 16096 C 1440.6 -2.2284 -0.536204 0
M  V30 16097 C 1441.61 -1.23765 -1.05764 0
M  V30 16098 O 1442.8 -1.50073 -0.966449 0
M  V30 16099 C 1439.9 -2.9013 -1.75151 0
M  V30 16100 C 1439.08 -4.15588 -1.36401 0
M  V30 16101 C 1438.14 -4.66217 -2.43984 0
M  V30 16102 O 1437.16 -5.3024 -2.06964 0
M  V30 16103 N 1438.36 -4.42817 -3.75358 0
M  V30 16104 H 1441.13 -2.99647 0.0565368 0
M  V30 16105 H 1438.69 -1.60942 0.175905 0
M  V30 16106 H 1440.68 -3.20913 -2.4657 0
M  V30 16107 H 1439.25 -2.16862 -2.25144 0
M  V30 16108 H 1438.47 -3.91264 -0.480258 0
M  V30 16109 H 1439.76 -4.97179 -1.08121 0
M  V30 16110 H 1439.16 -3.9163 -4.08218 0
M  V30 16111 H 1437.71 -4.78186 -4.42924 0
M  V30 16112 N 1441.15 -0.0802183 -1.57396 0
M  V30 16113 C 1442.08 0.881426 -2.16225 0
M  V30 16114 C 1443.06 1.30459 -1.09154 0
M  V30 16115 O 1444.24 1.37413 -1.37227 0
M  V30 16116 C 1441.37 2.14599 -2.73065 0
M  V30 16117 C 1440.33 1.86195 -3.85377 0
M  V30 16118 C 1439.65 3.19354 -4.28856 0
M  V30 16119 C 1440.95 1.16059 -5.09242 0
M  V30 16120 H 1442.65 0.391325 -2.96832 0
M  V30 16121 H 1440.19 0.186785 -1.42783 0
M  V30 16122 H 1442.15 2.82297 -3.12868 0
M  V30 16123 H 1440.87 2.65866 -1.89691 0
M  V30 16124 H 1439.53 1.209 -3.46091 0
M  V30 16125 H 1439.18 3.68479 -3.42392 0
M  V30 16126 H 1438.88 3.01137 -5.04569 0
M  V30 16127 H 1440.4 3.88235 -4.71281 0
M  V30 16128 H 1441.82 1.7384 -5.46308 0
M  V30 16129 H 1440.21 1.08072 -5.90288 0
M  V30 16130 H 1441.28 0.14098 -4.84695 0
M  V30 16131 N 1442.63 1.56409 0.193394 0
M  V30 16132 C 1443.57 1.94681 1.23968 0
M  V30 16133 C 1444.54 0.807634 1.45143 0
M  V30 16134 O 1445.73 1.06593 1.58248 0
M  V30 16135 C 1442.87 2.29306 2.57901 0
M  V30 16136 C 1441.98 3.56296 2.4429 0
M  V30 16137 C 1441.12 3.80235 3.70938 0
M  V30 16138 C 1440.15 5.00645 3.52167 0
M  V30 16139 N 1439.29 5.20829 4.70831 0
M  V30 16140 H 1444.13 2.83884 0.906298 0
M  V30 16141 H 1441.67 1.40486 0.436146 0
M  V30 16142 H 1443.63 2.47398 3.35932 0
M  V30 16143 H 1442.26 1.43241 2.89278 0
M  V30 16144 H 1441.31 3.46241 1.57547 0
M  V30 16145 H 1442.62 4.44483 2.26354 0
M  V30 16146 H 1441.77 3.98575 4.57408 0
M  V30 16147 H 1440.51 2.90381 3.91829 0
M  V30 16148 H 1439.52 4.82225 2.64081 0
M  V30 16149 H 1440.74 5.92009 3.32719 0
M  V30 16150 H 1438.69 4.33923 4.91983 0
M  V30 16151 H 1438.61 6.03199 4.55726 0
M  V30 16152 H 1439.87 5.4363 5.58648 0
M  V30 16153 N 1444.1 -0.461169 1.50702 0
M  V30 16154 C 1445.38 -1.22225 1.52711 0
M  V30 16155 C 1445.76 -2.09268 0.27749 0
M  V30 16156 O 1445.11 -2.16232 -0.738642 0
M  V30 16157 C 1445.32 -2.04472 2.82829 0
M  V30 16158 C 1446.67 -2.62326 3.33872 0
M  V30 16159 O 1447.69 -2.14706 2.84218 0
M  V30 16160 O 1446.55 -3.49116 4.20453 0
M  V30 16161 H 1443.64 -0.555168 0.612958 0
M  V30 16162 H 1446.19 -0.47218 1.62999 0
M  V30 16163 H 1444.96 -1.40392 3.65247 0
M  V30 16164 H 1444.58 -2.86593 2.75591 0
M  V30 16165 N 1445.58 -1.40446 -0.715026 0
M  V30 16166 C 1446.51 -1.43511 -1.84193 0
M  V30 16167 C 1447.49 -0.295969 -1.67505 0
M  V30 16168 O 1448.68 -0.504667 -1.87528 0
M  V30 16169 C 1445.81 -1.29751 -3.22152 0
M  V30 16170 C 1444.76 -2.41274 -3.53512 0
M  V30 16171 C 1444.09 -2.12591 -4.90621 0
M  V30 16172 C 1445.39 -3.83614 -3.54454 0
M  V30 16173 H 1447.08 -2.37819 -1.81885 0
M  V30 16174 H 1444.63 -1.14469 -0.873655 0
M  V30 16175 H 1446.58 -1.30511 -4.0068 0
M  V30 16176 H 1445.3 -0.319189 -3.25037 0
M  V30 16177 H 1443.96 -2.39764 -2.77324 0
M  V30 16178 H 1443.61 -1.13148 -4.90109 0
M  V30 16179 H 1443.31 -2.87308 -5.1257 0
M  V30 16180 H 1444.84 -2.15034 -5.71483 0
M  V30 16181 H 1446.25 -3.86945 -4.23021 0
M  V30 16182 H 1444.65 -4.57855 -3.87929 0
M  V30 16183 H 1445.72 -4.13159 -2.53827 0
M  V30 16184 N 1447.06 0.947303 -1.25952 0
M  V30 16185 C 1447.99 2.0625 -1.09467 0
M  V30 16186 C 1448.97 1.701 -0.00160498 0
M  V30 16187 O 1450.16 1.93432 -0.172501 0
M  V30 16188 C 1447.29 3.39746 -0.720392 0
M  V30 16189 C 1446.24 3.89935 -1.76451 0
M  V30 16190 C 1445.57 5.2001 -1.24472 0
M  V30 16191 C 1446.87 4.15496 -3.16481 0
M  V30 16192 H 1448.56 2.203 -2.02752 0
M  V30 16193 H 1446.11 1.05858 -0.97622 0
M  V30 16194 H 1448.06 4.17221 -0.591972 0
M  V30 16195 H 1446.78 3.25656 0.248161 0
M  V30 16196 H 1445.44 3.14635 -1.8815 0
M  V30 16197 H 1445.09 5.02295 -0.266182 0
M  V30 16198 H 1444.79 5.54559 -1.94263 0
M  V30 16199 H 1446.31 6.00075 -1.12884 0
M  V30 16200 H 1447.73 4.83605 -3.07894 0
M  V30 16201 H 1446.12 4.61315 -3.83808 0
M  V30 16202 H 1447.19 3.21501 -3.62995 0
M  V30 16203 N 1448.54 1.07657 1.15099 0
M  V30 16204 C 1449.82 0.714608 1.82079 0
M  V30 16205 C 1450.2 -0.802578 1.95248 0
M  V30 16206 O 1449.54 -1.71818 1.50634 0
M  V30 16207 C 1449.75 1.43264 3.1824 0
M  V30 16208 C 1451.1 1.58675 3.93837 0
M  V30 16209 O 1452.13 1.39367 3.27804 0
M  V30 16210 O 1450.98 1.9047 5.12234 0
M  V30 16211 H 1448.08 0.254645 0.786819 0
M  V30 16212 H 1450.62 1.17768 1.22183 0
M  V30 16213 H 1449.4 2.46655 3.03772 0
M  V30 16214 H 1449.02 0.960546 3.85823 0
M  V30 16215 N 1450.02 -1.31994 0.861122 0
M  V30 16216 C 1450.95 -2.27632 0.267681 0
M  V30 16217 C 1451.96 -1.52709 -0.564265 0
M  V30 16218 O 1453.15 -1.74239 -0.3877 0
M  V30 16219 C 1450.25 -3.32805 -0.639856 0
M  V30 16220 C 1449.42 -4.37116 0.157676 0
M  V30 16221 C 1448.48 -5.21832 -0.676624 0
M  V30 16222 O 1447.51 -5.69098 -0.107822 0
M  V30 16223 N 1448.71 -5.45317 -1.99022 0
M  V30 16224 H 1451.48 -2.79195 1.0895 0
M  V30 16225 H 1449.04 -1.44923 0.721733 0
M  V30 16226 H 1451.03 -3.86391 -1.20348 0
M  V30 16227 H 1449.6 -2.81351 -1.36236 0
M  V30 16228 H 1448.82 -3.83724 0.902741 0
M  V30 16229 H 1450.11 -5.03889 0.70524 0
M  V30 16230 H 1449.5 -5.08656 -2.47558 0
M  V30 16231 H 1448.06 -6.01874 -2.50182 0
M  V30 16232 N 1451.49 -0.619688 -1.44906 0
M  V30 16233 C 1452.74 -0.117147 -2.0136 0
M  V30 16234 C 1453.06 1.2644 -1.49239 0
M  V30 16235 O 1454.26 1.86034 -1.97747 0
M  V30 16236 C 1452.72 -0.15871 -3.5955 0
M  V30 16237 C 1452.33 -1.54086 -4.20668 0
M  V30 16238 C 1454.07 0.287961 -4.23522 0
M  V30 16239 C 1451.98 -1.53816 -5.71047 0
M  V30 16240 H 1450.91 -0.040028 -0.752937 0
M  V30 16241 H 1453.56 -0.776802 -1.66247 0
M  V30 16242 H 1451.94 0.56783 -3.91908 0
M  V30 16243 H 1453.11 -2.29007 -3.99865 0
M  V30 16244 H 1451.43 -1.93065 -3.68938 0
M  V30 16245 H 1454.03 0.309351 -5.33804 0
M  V30 16246 H 1454.37 1.31305 -3.9505 0
M  V30 16247 H 1454.9 -0.385707 -3.95926 0
M  V30 16248 H 1451.64 -2.54124 -6.04236 0
M  V30 16249 H 1451.16 -0.831708 -5.94006 0
M  V30 16250 H 1452.84 -1.26708 -6.34472 0
M  V30 16251 N 1452.97 1.53444 -0.359552 0
M  V30 16252 C 1453.9 2.28475 0.4818 0
M  V30 16253 C 1454.88 1.30664 1.08908 0
M  V30 16254 O 1456.07 1.59527 1.10746 0
M  V30 16255 C 1453.2 3.06951 1.62477 0
M  V30 16256 C 1452.15 4.12399 1.14504 0
M  V30 16257 C 1451.48 4.78922 2.37777 0
M  V30 16258 C 1452.78 5.21775 0.234075 0
M  V30 16259 H 1454.47 2.99053 -0.144162 0
M  V30 16260 H 1452.02 1.43826 -0.0707746 0
M  V30 16261 H 1453.97 3.58186 2.21993 0
M  V30 16262 H 1452.7 2.34053 2.27787 0
M  V30 16263 H 1451.35 3.62101 0.572589 0
M  V30 16264 H 1451 4.02602 3.0153 0
M  V30 16265 H 1450.7 5.50175 2.06353 0
M  V30 16266 H 1452.23 5.32948 2.97991 0
M  V30 16267 H 1453.64 5.68549 0.736548 0
M  V30 16268 H 1452.04 6.00099 0.0109887 0
M  V30 16269 H 1453.11 4.79443 -0.725435 0
M  V30 16270 N 1454.45 0.0885642 1.57351 0
M  V30 16271 C 1455.38 -0.909155 2.09307 0
M  V30 16272 C 1456.36 -1.28051 1.00209 0
M  V30 16273 O 1457.55 -1.38689 1.27662 0
M  V30 16274 C 1454.67 -2.21232 2.56465 0
M  V30 16275 C 1453.72 -1.9913 3.7716 0
M  V30 16276 S 1454.55 -1.23528 5.21058 0
M  V30 16277 C 1455.71 -2.55089 5.7156 0
M  V30 16278 H 1455.94 -0.467121 2.93607 0
M  V30 16279 H 1453.47 -0.124581 1.53897 0
M  V30 16280 H 1455.43 -2.96121 2.84293 0
M  V30 16281 H 1454.09 -2.62557 1.72403 0
M  V30 16282 H 1453.29 -2.95614 4.08201 0
M  V30 16283 H 1452.89 -1.32372 3.49791 0
M  V30 16284 H 1455.18 -3.51098 5.79428 0
M  V30 16285 H 1456.12 -2.28634 6.70173 0
M  V30 16286 H 1456.53 -2.63062 4.99458 0
M  V30 16287 N 1455.93 -1.56509 -0.185096 0
M  V30 16288 C 1456.86 -1.98363 -1.23184 0
M  V30 16289 C 1457.84 -0.85709 -1.46929 0
M  V30 16290 O 1459.02 -1.12216 -1.58497 0
M  V30 16291 C 1456.15 -2.33172 -2.57387 0
M  V30 16292 C 1455.11 -3.48658 -2.48236 0
M  V30 16293 C 1454.43 -3.69171 -3.86804 0
M  V30 16294 C 1455.73 -4.82538 -1.99885 0
M  V30 16295 H 1457.43 -2.86053 -0.883982 0
M  V30 16296 H 1454.97 -1.37623 -0.423786 0
M  V30 16297 H 1456.93 -2.61048 -3.30805 0
M  V30 16298 H 1455.65 -1.42377 -2.93933 0
M  V30 16299 H 1454.31 -3.20889 -1.77273 0
M  V30 16300 H 1453.96 -2.75689 -4.20719 0
M  V30 16301 H 1453.66 -4.46868 -3.81553 0
M  V30 16302 H 1455.18 -3.99433 -4.61829 0
M  V30 16303 H 1456.6 -5.0938 -2.63068 0
M  V30 16304 H 1454.99 -5.63775 -2.05614 0
M  V30 16305 H 1456.06 -4.75453 -0.952503 0
M  V30 16306 N 1457.41 0.45317 -1.50944 0
M  V30 16307 C 1458.68 1.21413 -1.53357 0
M  V30 16308 C 1459.06 2.09118 -0.288584 0
M  V30 16309 O 1458.41 2.16621 0.727164 0
M  V30 16310 C 1458.62 2.02969 -2.83909 0
M  V30 16311 C 1459.97 2.60551 -3.35258 0
M  V30 16312 O 1460.99 2.13196 -2.85353 0
M  V30 16313 O 1459.85 3.46881 -4.22298 0
M  V30 16314 H 1456.95 0.551909 -0.615894 0
M  V30 16315 H 1459.49 0.463529 -1.63247 0
M  V30 16316 H 1458.26 1.38453 -3.65987 0
M  V30 16317 H 1457.89 2.85127 -2.77107 0
M  V30 16318 N 1458.88 1.40823 0.707568 0
M  V30 16319 C 1460.3 1.35249 1.28704 0
M  V30 16320 C 1460.65 0.0298026 1.96177 0
M  V30 16321 O 1459.77 -0.872126 1.98048 0
M  V30 16322 C 1460.37 2.44965 2.34046 0
M  V30 16323 C 1458.93 2.42826 2.87598 0
M  V30 16324 C 1458.07 2.25429 1.61483 0
M  V30 16325 H 1461.02 1.50513 0.503141 0
M  V30 16326 H 1461.04 2.13334 3.1507 0
M  V30 16327 H 1460.56 3.41219 1.84908 0
M  V30 16328 H 1458.66 1.50294 3.40944 0
M  V30 16329 H 1458.77 3.38704 3.38845 0
M  V30 16330 H 1457.13 1.73089 1.86848 0
M  V30 16331 H 1457.92 3.23693 1.14359 0
M  V30 16332 N 1460.36 -0.94061 1.26453 0
M  V30 16333 C 1461.33 -2.02096 1.0812 0
M  V30 16334 C 1462.33 -1.60773 0.0293393 0
M  V30 16335 O 1463.52 -1.72051 0.272796 0
M  V30 16336 C 1460.65 -3.34749 0.644646 0
M  V30 16337 H 1461.84 -2.19792 2.04038 0
M  V30 16338 H 1459.39 -1.11965 1.09058 0
M  V30 16339 H 1460.13 -3.22752 -0.316509 0
M  V30 16340 H 1459.91 -3.66095 1.40416 0
M  V30 16341 H 1461.4 -4.14117 0.538233 0
M  V30 16342 N 1461.84 -1.08266 -1.14527 0
M  V30 16343 C 1462.79 -0.711332 -2.19565 0
M  V30 16344 C 1463.76 0.301774 -1.63336 0
M  V30 16345 O 1464.94 0.186109 -1.8989 0
M  V30 16346 C 1462.08 -0.125255 -3.44873 0
M  V30 16347 C 1461.2 -1.19096 -4.15259 0
M  V30 16348 C 1460.33 -0.568901 -5.28145 0
M  V30 16349 C 1459.37 -1.61675 -5.90362 0
M  V30 16350 N 1458.51 -1.01659 -6.94701 0
M  V30 16351 H 1463.35 -1.61137 -2.50677 0
M  V30 16352 H 1460.88 -0.805286 -1.231 0
M  V30 16353 H 1462.84 0.232247 -4.16553 0
M  V30 16354 H 1461.47 0.738101 -3.14248 0
M  V30 16355 H 1460.52 -1.66591 -3.41982 0
M  V30 16356 H 1461.84 -1.98508 -4.57598 0
M  V30 16357 H 1460.99 -0.159563 -6.0649 0
M  V30 16358 H 1459.73 0.256884 -4.87023 0
M  V30 16359 H 1458.73 -2.03576 -5.10722 0
M  V30 16360 H 1459.96 -2.44498 -6.33559 0
M  V30 16361 H 1457.9 -0.211872 -6.55658 0
M  V30 16362 H 1457.82 -1.74781 -7.35518 0
M  V30 16363 H 1459.09 -0.63306 -7.76925 0
M  V30 16364 N 1463.32 1.31536 -0.86811 0
M  V30 16365 C 1464.74 1.49461 -0.559778 0
M  V30 16366 C 1464.94 1.79957 0.906525 0
M  V30 16367 O 1463.99 1.87711 1.68881 0
M  V30 16368 C 1465.3 2.62967 -1.45839 0
M  V30 16369 C 1466.85 2.76851 -1.46023 0
M  V30 16370 C 1467.33 3.93451 -2.34436 0
M  V30 16371 N 1468.82 4.00735 -2.32306 0
M  V30 16372 C 1469.55 4.90223 -2.97437 0
M  V30 16373 N 1469.05 5.84626 -3.71731 0
M  V30 16374 N 1470.84 4.83454 -2.86755 0
M  V30 16375 H 1462.99 1.1001 -1.81691 0
M  V30 16376 H 1465.26 0.543418 -0.776789 0
M  V30 16377 H 1464.96 2.47203 -2.50168 0
M  V30 16378 H 1464.84 3.59063 -1.15556 0
M  V30 16379 H 1467.22 2.9203 -0.424527 0
M  V30 16380 H 1467.3 1.81427 -1.80327 0
M  V30 16381 H 1466.95 3.79029 -3.38082 0
M  V30 16382 H 1466.88 4.88179 -1.97457 0
M  V30 16383 H 1469.37 3.33191 -1.78303 0
M  V30 16384 H 1469.68 6.49635 -4.18562 0
M  V30 16385 H 1468.03 5.84611 -3.75839 0
M  V30 16386 H 1471.22 4.08678 -2.28254 0
M  V30 16387 H 1471.39 5.52991 -3.37795 0
M  V30 16388 N 1464.8 0.627364 1.44575 0
M  V30 16389 C 1466.05 0.127824 2.01295 0
M  V30 16390 C 1466.36 -1.25647 1.49907 0
M  V30 16391 O 1467.57 -1.84982 1.9873 0
M  V30 16392 C 1466.02 0.177775 3.59461 0
M  V30 16393 C 1465.63 1.56315 4.19845 0
M  V30 16394 C 1467.37 -0.265497 4.23669 0
M  V30 16395 C 1465.28 1.56842 5.70223 0
M  V30 16396 H 1464.21 0.0440205 0.752714 0
M  V30 16397 H 1466.86 0.785607 1.65833 0
M  V30 16398 H 1465.24 -0.547038 3.92203 0
M  V30 16399 H 1466.42 2.31125 3.98645 0
M  V30 16400 H 1464.73 1.95019 3.67909 0
M  V30 16401 H 1467.33 -0.281038 5.33961 0
M  V30 16402 H 1467.67 -1.29208 3.95741 0
M  V30 16403 H 1468.21 0.406698 3.95716 0
M  V30 16404 H 1464.94 2.57325 6.0288 0
M  V30 16405 H 1464.46 0.863198 5.93556 0
M  V30 16406 H 1466.14 1.30071 6.33791 0
M  V30 16407 N 1466.28 -1.53251 0.367684 0
M  V30 16408 C 1467.5 -2.0618 -0.224645 0
M  V30 16409 C 1467.93 -1.23927 -1.41505 0
M  V30 16410 O 1467.28 -0.258858 -1.79443 0
M  V30 16411 C 1467.33 -3.55671 -0.594171 0
M  V30 16412 O 1466.44 -3.76132 -1.69112 0
M  V30 16413 H 1465.78 -0.663218 -0.0322099 0
M  V30 16414 H 1468.31 -1.97646 0.528897 0
M  V30 16415 H 1468.32 -3.98734 -0.864589 0
M  V30 16416 H 1466.99 -4.14982 0.276254 0
M  V30 16417 H 1465.57 -3.44965 -1.41609 0
M  V30 16418 N 1467.75 -0.0969077 -1.57302 0
M  V30 16419 C 1469 0.566072 -1.93594 0
M  V30 16420 C 1469.32 1.69226 -0.980922 0
M  V30 16421 O 1470.52 2.41651 -1.23763 0
M  V30 16422 C 1468.98 1.05832 -3.43988 0
M  V30 16423 C 1468.59 -0.038207 -4.47984 0
M  V30 16424 C 1470.33 1.69393 -3.89238 0
M  V30 16425 C 1468.24 0.4695 -5.89533 0
M  V30 16426 H 1467.17 0.215226 -0.72263 0
M  V30 16427 H 1469.82 -0.173202 -1.82681 0
M  V30 16428 H 1468.2 1.85134 -3.50059 0
M  V30 16429 H 1469.37 -0.813761 -4.53558 0
M  V30 16430 H 1467.69 -0.579113 -4.12353 0
M  V30 16431 H 1470.29 2.08454 -4.92393 0
M  V30 16432 H 1470.63 2.56381 -3.27986 0
M  V30 16433 H 1471.16 0.966709 -3.85875 0
M  V30 16434 H 1467.9 -0.363802 -6.5449 0
M  V30 16435 H 1467.42 1.21202 -5.87427 0
M  V30 16436 H 1469.1 0.937885 -6.40166 0
M  V30 16437 N 1469.23 1.56605 0.176793 0
M  V30 16438 C 1470.18 1.96896 1.23833 0
M  V30 16439 C 1471.17 0.85693 1.46127 0
M  V30 16440 O 1472.38 1.04202 1.46772 0
M  V30 16441 H 1468.75 0.626363 0.416141 0
M  V30 16442 H 1470.73 2.85387 0.871607 0
M  V30 16443 C 1469.47 2.34034 2.57145 0
M  V30 16444 H 1468.8 3.1914 2.40811 0
M  V30 16445 H 1470.24 2.66074 3.30122 0
M  V30 16446 C 1468.7 1.18171 3.15495 0
M  V30 16447 O 1469.23 0.466448 3.98983 0
M  V30 16448 N 1467.43 0.953705 2.74505 0
M  V30 16449 H 1466.98 1.5371 2.06715 0
M  V30 16450 H 1466.94 0.180307 3.13883 0
M  V30 16451 N 1470.71 -0.445159 1.51182 0
M  V30 16452 C 1471.64 -1.55788 1.68115 0
M  V30 16453 C 1472.65 -1.52793 0.561964 0
M  V30 16454 O 1473.84 -1.57711 0.836029 0
M  V30 16455 C 1470.94 -2.94702 1.67344 0
M  V30 16456 C 1470.12 -3.22286 2.9572 0
M  V30 16457 C 1469.18 -4.40884 2.87241 0
M  V30 16458 O 1468.2 -4.3992 3.61191 0
M  V30 16459 N 1469.4 -5.44013 2.02558 0
M  V30 16460 H 1472.17 -1.4167 2.64102 0
M  V30 16461 H 1469.73 -0.633984 1.48971 0
M  V30 16462 H 1471.72 -3.7205 1.5925 0
M  V30 16463 H 1470.29 -3.02457 0.789842 0
M  V30 16464 H 1469.51 -2.33309 3.17743 0
M  V30 16465 H 1470.8 -3.3754 3.80715 0
M  V30 16466 H 1470.2 -5.47629 1.4184 0
M  V30 16467 H 1468.75 -6.20245 2.0035 0
M  V30 16468 N 1472.19 -1.41197 -0.700089 0
M  V30 16469 C 1473.15 -1.42419 -1.79582 0
M  V30 16470 C 1474.15 -0.31551 -1.57674 0
M  V30 16471 O 1475.34 -0.575173 -1.64431 0
M  V30 16472 C 1472.47 -1.23114 -3.17893 0
M  V30 16473 H 1473.67 -2.39956 -1.79892 0
M  V30 16474 H 1471.22 -1.27273 -0.907271 0
M  V30 16475 H 1471.95 -0.263992 -3.23224 0
M  V30 16476 H 1471.74 -2.03437 -3.35195 0
M  V30 16477 H 1473.23 -1.26793 -3.97886 0
M  V30 16478 N 1473.67 0.933891 -1.2695 0
M  V30 16479 C 1474.6 2.05078 -1.11649 0
M  V30 16480 C 1475.58 1.70089 -0.0196463 0
M  V30 16481 O 1476.76 1.93239 -0.193007 0
M  V30 16482 C 1473.89 3.38963 -0.756387 0
M  V30 16483 C 1472.85 3.88041 -1.80577 0
M  V30 16484 C 1472.17 5.18661 -1.2998 0
M  V30 16485 C 1473.47 4.12116 -3.2087 0
M  V30 16486 H 1475.17 2.18137 -2.05077 0
M  V30 16487 H 1472.71 1.04817 -0.987392 0
M  V30 16488 H 1474.66 4.1657 -0.63619 0
M  V30 16489 H 1473.39 3.25901 0.213607 0
M  V30 16490 H 1472.05 3.12622 -1.91477 0
M  V30 16491 H 1471.7 5.01985 -0.319442 0
M  V30 16492 H 1471.4 5.52467 -2.00134 0
M  V30 16493 H 1472.92 5.98844 -1.19242 0
M  V30 16494 H 1474.33 4.80312 -3.13006 0
M  V30 16495 H 1472.73 4.57218 -3.88679 0
M  V30 16496 H 1473.8 3.17633 -3.66384 0
M  V30 16497 N 1475.14 1.08871 1.13951 0
M  V30 16498 C 1476.08 0.680849 2.18854 0
M  V30 16499 C 1477.09 -0.274456 1.6047 0
M  V30 16500 O 1478.28 -0.0613804 1.78394 0
M  V30 16501 C 1475.38 -0.0182788 3.38895 0
M  V30 16502 C 1474.55 0.957125 4.268 0
M  V30 16503 C 1473.61 0.29245 5.25387 0
M  V30 16504 O 1472.64 0.938329 5.61413 0
M  V30 16505 N 1473.84 -0.955738 5.72578 0
M  V30 16506 H 1476.6 1.58334 2.54461 0
M  V30 16507 H 1474.16 0.975417 1.29218 0
M  V30 16508 H 1476.16 -0.474001 4.01915 0
M  V30 16509 H 1474.73 -0.822932 3.01574 0
M  V30 16510 H 1473.95 1.59156 3.60642 0
M  V30 16511 H 1475.23 1.61792 4.82391 0
M  V30 16512 H 1474.63 -1.50014 5.45447 0
M  V30 16513 H 1473.19 -1.35488 6.37563 0
M  V30 16514 N 1476.62 -1.31073 0.875073 0
M  V30 16515 C 1477.57 -2.25936 0.306104 0
M  V30 16516 C 1478.56 -1.50848 -0.559782 0
M  V30 16517 O 1479.75 -1.72285 -0.405824 0
M  V30 16518 C 1476.88 -3.39828 -0.486995 0
M  V30 16519 C 1475.96 -4.22281 0.392421 0
M  V30 16520 N 1476.35 -4.83409 1.48828 0
M  V30 16521 C 1474.65 -4.45613 0.185762 0
M  V30 16522 C 1475.35 -5.45092 2.031 0
M  V30 16523 N 1474.33 -5.27147 1.3273 0
M  V30 16524 H 1478.13 -2.70738 1.14359 0
M  V30 16525 H 1475.64 -1.45399 0.72339 0
M  V30 16526 H 1477.64 -4.06821 -0.911171 0
M  V30 16527 H 1476.3 -2.96568 -1.32203 0
M  V30 16528 H 1477.31 -4.82915 1.87118 0
M  V30 16529 H 1473.99 -4.12977 -0.61291 0
M  V30 16530 H 1475.38 -6.03641 2.95071 0
M  V30 16531 N 1478.1 -0.635022 -1.4424 0
M  V30 16532 C 1479.06 0.0579377 -2.29127 0
M  V30 16533 C 1480.06 0.768489 -1.41248 0
M  V30 16534 O 1481.25 0.612489 -1.63077 0
M  V30 16535 C 1478.39 1.09266 -3.22914 0
M  V30 16536 H 1479.58 -0.688723 -2.91885 0
M  V30 16537 H 1477.13 -0.395347 -1.51217 0
M  V30 16538 H 1477.87 1.86917 -2.65014 0
M  V30 16539 H 1477.65 0.587036 -3.87681 0
M  V30 16540 H 1479.14 1.57716 -3.86672 0
M  V30 16541 N 1479.58 1.53054 -0.375806 0
M  V30 16542 C 1480.83 2.01401 0.210673 0
M  V30 16543 C 1481.15 1.26275 1.47935 0
M  V30 16544 O 1480.41 0.347611 1.92588 0
M  V30 16545 C 1480.71 3.53321 0.538419 0
M  V30 16546 C 1480.37 4.46376 -0.637126 0
M  V30 16547 C 1479.04 4.71534 -0.959653 0
M  V30 16548 C 1481.39 5.01364 -1.42421 0
M  V30 16549 C 1478.72 5.4893 -2.07105 0
M  V30 16550 C 1481.07 5.79975 -2.5261 0
M  V30 16551 C 1479.73 6.03416 -2.85386 0
M  V30 16552 H 1479 0.736979 0.0770907 0
M  V30 16553 H 1481.65 1.84574 -0.510376 0
M  V30 16554 H 1479.95 3.6815 1.34062 0
M  V30 16555 H 1481.65 3.88212 1.00461 0
M  V30 16556 H 1478.24 4.2695 -0.375722 0
M  V30 16557 H 1482.42 4.81865 -1.18828 0
M  V30 16558 H 1477.68 5.65309 -2.32886 0
M  V30 16559 H 1481.85 6.21588 -3.14008 0
M  V30 16560 H 1479.48 6.63172 -3.71627 0
M  V30 16561 N 1481.06 0.105248 1.57248 0
M  V30 16562 C 1482.31 -0.555797 1.93891 0
M  V30 16563 C 1482.62 -1.68703 0.989883 0
M  V30 16564 O 1483.82 -2.40991 1.25043 0
M  V30 16565 C 1482.28 -1.04006 3.44544 0
M  V30 16566 C 1481.89 0.0619641 4.47957 0
M  V30 16567 C 1483.63 -1.67327 3.90131 0
M  V30 16568 C 1481.54 -0.438229 5.89774 0
M  V30 16569 H 1480.47 -0.211391 0.723761 0
M  V30 16570 H 1483.12 0.182887 1.82586 0
M  V30 16571 H 1481.5 -1.83275 3.51036 0
M  V30 16572 H 1482.68 0.837803 4.5312 0
M  V30 16573 H 1480.99 0.600973 4.1204 0
M  V30 16574 H 1483.59 -2.0584 4.93492 0
M  V30 16575 H 1483.93 -2.54638 3.29341 0
M  V30 16576 H 1484.46 -0.946231 3.86382 0
M  V30 16577 H 1481.2 0.398506 6.54288 0
M  V30 16578 H 1480.72 -1.18085 5.88061 0
M  V30 16579 H 1482.4 -0.903922 6.40655 0
M  V30 16580 N 1482.53 -1.56697 -0.168486 0
M  V30 16581 C 1483.47 -1.93197 -1.23319 0
M  V30 16582 C 1484.48 -0.825373 -1.40326 0
M  V30 16583 O 1485.67 -1.10381 -1.40279 0
M  V30 16584 C 1482.77 -2.17205 -2.60145 0
M  V30 16585 C 1481.94 -3.48442 -2.64399 0
M  V30 16586 C 1481 -3.61244 -3.82609 0
M  V30 16587 O 1480.03 -4.33837 -3.68476 0
M  V30 16588 N 1481.23 -2.96304 -4.99183 0
M  V30 16589 H 1483.99 -2.85128 -0.923138 0
M  V30 16590 H 1481.55 -1.57887 -0.358229 0
M  V30 16591 H 1483.55 -2.23031 -3.37697 0
M  V30 16592 H 1482.12 -1.31643 -2.83529 0
M  V30 16593 H 1481.34 -3.54248 -1.72922 0
M  V30 16594 H 1482.62 -4.34795 -2.64255 0
M  V30 16595 H 1482.02 -2.37203 -5.13567 0
M  V30 16596 H 1480.58 -3.07722 -5.74587 0
M  V30 16597 N 1484.01 0.437135 -1.51416 0
M  V30 16598 C 1484.92 1.55581 -1.75589 0
M  V30 16599 C 1485.94 1.61797 -0.640132 0
M  V30 16600 O 1487.11 1.79035 -0.922406 0
M  V30 16601 C 1484.18 2.91561 -1.87598 0
M  V30 16602 C 1483.24 2.9546 -3.11451 0
M  V30 16603 C 1482.47 4.24954 -3.22878 0
M  V30 16604 O 1482.7 5.17341 -2.40238 0
M  V30 16605 O 1481.63 4.35141 -4.15856 0
M  V30 16606 H 1485.46 1.38098 -2.70486 0
M  V30 16607 H 1483.04 0.620163 -1.3592 0
M  V30 16608 H 1484.92 3.72262 -1.97481 0
M  V30 16609 H 1483.6 3.09171 -0.958889 0
M  V30 16610 H 1482.51 2.13713 -3.07046 0
M  V30 16611 H 1483.84 2.82794 -4.0285 0
M  V30 16612 N 1485.49 1.41566 0.692592 0
M  V30 16613 C 1486.44 1.43648 1.80648 0
M  V30 16614 C 1487.41 0.290497 1.6354 0
M  V30 16615 O 1488.59 0.491979 1.84348 0
M  V30 16616 C 1485.73 1.32733 3.18553 0
M  V30 16617 C 1484.85 2.57224 3.47073 0
M  V30 16618 C 1483.98 2.38581 4.74608 0
M  V30 16619 C 1483.02 3.58534 4.96105 0
M  V30 16620 N 1482.16 3.38942 6.14868 0
M  V30 16621 H 1487 2.38847 1.78203 0
M  V30 16622 H 1484.53 1.186 0.870193 0
M  V30 16623 H 1486.49 1.24405 3.9822 0
M  V30 16624 H 1485.12 0.411407 3.20168 0
M  V30 16625 H 1484.17 2.7599 2.6179 0
M  V30 16626 H 1485.49 3.46443 3.58858 0
M  V30 16627 H 1484.64 2.27738 5.62335 0
M  V30 16628 H 1483.38 1.46824 4.65074 0
M  V30 16629 H 1482.38 3.69828 4.06826 0
M  V30 16630 H 1483.61 4.51248 5.07496 0
M  V30 16631 H 1481.55 2.49887 6.06541 0
M  V30 16632 H 1481.47 4.21737 6.27434 0
M  V30 16633 H 1482.74 3.31877 7.05321 0
M  V30 16634 N 1486.97 -0.927146 1.27443 0
M  V30 16635 C 1488.22 -1.66941 1.13197 0
M  V30 16636 C 1488.53 -1.92939 -0.32156 0
M  V30 16637 O 1489.74 -2.65124 -0.584931 0
M  V30 16638 C 1488.19 -3.00677 1.97791 0
M  V30 16639 C 1487.8 -2.82376 3.47805 0
M  V30 16640 C 1489.54 -3.78499 1.92195 0
M  V30 16641 C 1487.45 -4.1167 4.24596 0
M  V30 16642 H 1486.38 -0.626171 0.420031 0
M  V30 16643 H 1489.03 -1.02997 1.51868 0
M  V30 16644 H 1487.41 -3.65681 1.51965 0
M  V30 16645 H 1488.59 -2.26135 4.01497 0
M  V30 16646 H 1486.9 -2.17982 3.54786 0
M  V30 16647 H 1489.5 -4.74312 2.46844 0
M  V30 16648 H 1489.84 -4.0655 0.895702 0
M  V30 16649 H 1490.38 -3.20292 2.35919 0
M  V30 16650 H 1487.12 -3.88798 5.27747 0
M  V30 16651 H 1486.64 -4.67573 3.75681 0
M  V30 16652 H 1488.31 -4.80028 4.338 0
M  V30 16653 O 1488.49 -1.2172 -1.06144 0
M  V30 16654 H 1489.18 -0.978633 -1.6716 0
M  V30 END ATOM
M  V30 BEGIN BOND
M  V30 END BOND
M  V30 END CTAB
M  END
$$$$
