drugbank_target|P29208 o-succinylbenzoate synthase (DB02251; DB06864)
 OpenBabel12092120243D

  0  0  0     0  0            999 V3000
M  V30 BEGIN CTAB
M  V30 COUNTS 4996 5047 0 0 0
M  V30 BEGIN ATOM
M  V30 1 H -0.908 1.98254 -0.117106 0
M  V30 2 N 0 1.576 0 0
M  V30 3 C 0.933 2.03868 1.02534 0
M  V30 4 C 1.911 0.928543 1.3348 0
M  V30 5 O 3.095 1.19667 1.45644 0
M  V30 6 C 0.222 2.43627 2.35294 0
M  V30 7 C -0.732 3.65373 2.2001 0
M  V30 8 S 0.101 5.13292 1.52614 0
M  V30 9 C 1.257 5.56322 2.86805 0
M  V30 10 H 1.49 2.90518 0.631377 0
M  V30 11 H -0.977 1.52953 0.210867 0
M  V30 12 H 0.981 2.67203 3.11629 0
M  V30 13 H -0.358 1.57376 2.7183 0
M  V30 14 H -1.165 3.90944 3.18086 0
M  V30 15 H -1.563 3.418 1.51819 0
M  V30 16 H 0.729 5.58782 3.83104 0
M  V30 17 H 1.672 6.56266 2.65933 0
M  V30 18 H 2.08 4.83886 2.90714 0
M  V30 19 N 1.4781 -0.272755 1.55222 0
M  V30 20 C 2.8941 -0.619959 1.47067 0
M  V30 21 C 3.0941 -1.895 0.684978 0
M  V30 22 O 2.1501 -2.51675 0.203931 0
M  V30 23 C 3.4631 -0.746693 2.91282 0
M  V30 24 C 5.0111 -0.840731 3.01497 0
M  V30 25 C 5.4861 -0.99924 4.46967 0
M  V30 26 N 6.9771 -1.06476 4.50796 0
M  V30 27 C 7.7121 -1.20621 5.6057 0
M  V30 28 N 7.2081 -1.31483 6.80209 0
M  V30 29 N 9.0011 -1.23733 5.48312 0
M  V30 30 H 1.1521 0.564606 2.04758 0
M  V30 31 H 3.4151 0.191177 0.928523 0
M  V30 32 H 3.1211 0.119753 3.51496 0
M  V30 33 H 2.9951 -1.6269 3.40311 0
M  V30 34 H 5.3821 -1.69764 2.41379 0
M  V30 35 H 5.4631 0.0640874 2.5572 0
M  V30 36 H 5.1071 -0.146984 5.07687 0
M  V30 37 H 5.0371 -1.91871 4.90401 0
M  V30 38 H 7.5281 -0.993196 3.64615 0
M  V30 39 H 7.8411 -1.42111 7.59621 0
M  V30 40 H 6.1861 -1.28487 6.8302 0
M  V30 41 H 9.3771 -1.14877 4.53785 0
M  V30 42 H 9.5501 -1.34412 6.33906 0
M  V30 43 N 2.9562 -1.48159 -0.537278 0
M  V30 44 C 4.1812 -1.59707 -1.32319 0
M  V30 45 C 4.6062 -0.254859 -1.86365 0
M  V30 46 O 3.9642 0.772378 -1.64024 0
M  V30 47 C 4.0122 -2.6412 -2.45505 0
M  V30 48 O 3.1162 -2.20774 -3.48328 0
M  V30 49 H 2.4572 -0.535791 -0.392204 0
M  V30 50 H 4.9872 -1.94092 -0.647268 0
M  V30 51 H 4.9972 -2.85166 -2.91795 0
M  V30 52 H 3.6722 -3.61567 -2.05528 0
M  V30 53 H 2.2492 -2.09911 -3.08207 0
M  V30 54 N 4.4343 0.785586 -1.36625 0
M  V30 55 C 5.3973 1.87999 -1.31107 0
M  V30 56 C 6.3973 1.59316 -0.217959 0
M  V30 57 O 7.5873 1.67656 -0.472977 0
M  V30 58 C 4.7193 3.24861 -1.03334 0
M  V30 59 H 5.9123 1.94307 -2.2844 0
M  V30 60 H 3.4653 0.983813 -1.21453 0
M  V30 61 H 4.2003 3.24235 -0.0647432 0
M  V30 62 H 3.9853 3.4707 -1.82441 0
M  V30 63 H 5.4753 4.04929 -1.02088 0
M  V30 64 N 5.9124 1.20967 1.01018 0
M  V30 65 C 6.8444 0.922059 2.09835 0
M  V30 66 C 7.8574 -0.0927106 1.62536 0
M  V30 67 O 9.0464 0.139127 1.77957 0
M  V30 68 C 6.1464 0.362004 3.36961 0
M  V30 69 C 5.3194 1.42986 4.13369 0
M  V30 70 C 4.3784 0.879976 5.1879 0
M  V30 71 O 3.4044 1.56219 5.47343 0
M  V30 72 N 4.6064 -0.307396 5.79686 0
M  V30 73 H 7.3714 1.8588 2.35093 0
M  V30 74 H 4.9324 1.11422 1.1746 0
M  V30 75 H 6.9244 -0.0201474 4.04695 0
M  V30 76 H 5.4944 -0.479437 3.08902 0
M  V30 77 H 4.7144 1.98608 3.40512 0
M  V30 78 H 6.0024 2.14885 4.61196 0
M  V30 79 H 5.4004 -0.878796 5.58832 0
M  V30 80 H 3.9574 -0.631115 6.48737 0
M  V30 81 N 7.3905 -1.2043 1.01659 0
M  V30 82 C 8.6365 -1.90079 0.706963 0
M  V30 83 C 8.9695 -1.78648 -0.761474 0
M  V30 84 O 8.2445 -1.17069 -1.55323 0
M  V30 85 C 8.5275 -3.41469 1.14327 0
M  V30 86 C 8.3805 -3.61833 2.67201 0
M  V30 87 C 9.6995 -4.34261 0.714529 0
M  V30 88 H 6.8185 -0.690254 0.2583 0
M  V30 89 H 9.4605 -1.41826 1.26433 0
M  V30 90 H 7.6105 -3.82696 0.669056 0
M  V30 91 H 9.2825 -3.2986 3.22475 0
M  V30 92 H 7.5255 -3.05304 3.08175 0
M  V30 93 H 8.1965 -4.67955 2.92783 0
M  V30 94 H 10.6725 -4.00682 1.12221 0
M  V30 95 H 9.5485 -5.38806 1.04784 0
M  V30 96 H 9.8095 -4.40431 -0.383799 0
M  V30 97 N 8.8686 -0.792821 -1.36206 0
M  V30 98 C 10.0986 -0.378275 -2.03107 0
M  V30 99 C 10.5066 1.01119 -1.59911 0
M  V30 100 O 9.8496 1.66052 -0.785658 0
M  V30 101 C 9.9116 -0.366535 -3.57627 0
M  V30 102 C 9.5756 -1.70416 -4.24037 0
M  V30 103 C 10.5726 -2.6602 -4.46687 0
M  V30 104 C 8.2576 -1.98439 -4.6144 0
M  V30 105 C 10.2516 -3.8784 -5.05825 0
M  V30 106 C 7.9386 -3.20525 -5.20295 0
M  V30 107 C 8.9366 -4.15044 -5.42427 0
M  V30 108 O 8.6246 -5.34978 -6.00045 0
M  V30 109 H 8.3566 -0.153543 -0.658332 0
M  V30 110 H 10.9106 -1.07383 -1.75094 0
M  V30 111 H 9.1406 0.385539 -3.84773 0
M  V30 112 H 10.8296 0.0238088 -4.05893 0
M  V30 113 H 11.5956 -2.45658 -4.18183 0
M  V30 114 H 7.4746 -1.25686 -4.43536 0
M  V30 115 H 11.0186 -4.61628 -5.23015 0
M  V30 116 H 6.9156 -3.40764 -5.48225 0
M  V30 117 H 7.6836 -5.36088 -6.18508 0
M  V30 118 N 10.3467 1.47872 -0.545128 0
M  V30 119 C 11.7627 1.5829 -0.204032 0
M  V30 120 C 11.9627 1.54529 1.29317 0
M  V30 121 O 11.0187 1.44232 2.07252 0
M  V30 122 C 12.3317 2.89304 -0.819987 0
M  V30 123 C 13.8797 3.02864 -0.790105 0
M  V30 124 C 14.3547 4.3656 -1.38491 0
M  V30 125 N 15.8457 4.43165 -1.34755 0
M  V30 126 C 16.5807 5.45153 -1.77753 0
M  V30 127 N 16.0767 6.54016 -2.2855 0
M  V30 128 N 17.8697 5.36125 -1.68897 0
M  V30 129 H 10.0207 1.4856 -1.51802 0
M  V30 130 H 12.2837 0.706305 -0.632327 0
M  V30 131 H 11.9897 2.97757 -1.87173 0
M  V30 132 H 11.8637 3.75957 -0.305915 0
M  V30 133 H 14.2507 2.94014 0.252913 0
M  V30 134 H 14.3317 2.17782 -1.34181 0
M  V30 135 H 13.9757 4.46164 -2.42693 0
M  V30 136 H 13.9057 5.20353 -0.808754 0
M  V30 137 H 16.3967 3.65083 -0.975855 0
M  V30 138 H 16.7097 7.27994 -2.59314 0
M  V30 139 H 15.0547 6.54938 -2.32553 0
M  V30 140 H 18.2457 4.49975 -1.28998 0
M  V30 141 H 18.4187 6.15472 -2.02726 0
M  V30 142 N 11.8248 0.280983 1.55075 0
M  V30 143 C 13.0708 -0.327573 2.00745 0
M  V30 144 C 13.4258 -1.53045 1.16598 0
M  V30 145 O 12.7188 -1.90221 0.229451 0
M  V30 146 C 12.9128 -0.754656 3.49342 0
M  V30 147 C 12.7418 0.40529 4.4787 0
M  V30 148 C 11.5118 0.890947 4.97383 0
M  V30 149 C 13.7098 1.24371 4.99035 0
M  V30 150 N 11.6918 2.01975 5.79724 0
M  V30 151 C 13.0628 2.22031 5.7888 0
M  V30 152 C 15.1178 1.27638 4.81262 0
M  V30 153 C 13.8208 3.22709 6.42846 0
M  V30 154 C 15.8468 2.27164 5.46031 0
M  V30 155 C 15.2088 3.23556 6.25692 0
M  V30 156 H 11.3078 -0.0848774 0.77738 0
M  V30 157 H 13.8918 0.406342 1.90413 0
M  V30 158 H 12.0628 -1.45778 3.60005 0
M  V30 159 H 13.7948 -1.34105 3.81835 0
M  V30 160 H 10.5498 0.469262 4.71269 0
M  V30 161 H 10.9738 2.58794 6.25584 0
M  V30 162 H 15.6158 0.544936 4.19274 0
M  V30 163 H 13.3338 3.96784 7.0398 0
M  V30 164 H 16.9198 2.30441 5.34217 0
M  V30 165 H 15.7998 3.99309 6.74924 0
M  V30 166 N 13.3029 -1.57598 0.00835791 0
M  V30 167 C 14.2349 -2.05811 -1.00868 0
M  V30 168 C 15.2479 -0.977579 -1.30182 0
M  V30 169 O 16.4369 -1.25421 -1.27011 0
M  V30 170 C 13.5369 -2.45016 -2.34137 0
M  V30 171 C 12.7099 -3.75903 -2.23643 0
M  V30 172 C 11.7689 -4.01884 -3.3967 0
M  V30 173 O 10.7949 -4.72433 -3.17483 0
M  V30 174 N 11.9969 -3.50432 -4.62793 0
M  V30 175 H 14.7619 -2.93684 -0.597458 0
M  V30 176 H 12.3229 -1.60909 -0.178852 0
M  V30 177 H 14.3149 -2.59506 -3.10546 0
M  V30 178 H 12.8849 -1.62618 -2.66972 0
M  V30 179 H 12.1049 -3.7141 -1.32091 0
M  V30 180 H 13.3929 -4.61695 -2.13812 0
M  V30 181 H 12.7909 -2.93317 -4.83716 0
M  V30 182 H 11.3479 -3.70236 -5.3644 0
M  V30 183 N 14.781 0.264519 -1.55364 0
M  V30 184 C 16.03 0.992812 -1.75574 0
M  V30 185 C 16.343 1.87142 -0.568979 0
M  V30 186 O 17.549 2.63513 -0.653682 0
M  V30 187 C 16.005 1.81519 -3.10771 0
M  V30 188 C 15.613 0.984839 -4.37041 0
M  V30 189 C 17.357 2.53727 -3.40327 0
M  V30 190 C 15.264 1.80209 -5.63275 0
M  V30 191 H 14.194 0.374412 -0.65447 0
M  V30 192 H 16.845 0.248138 -1.81815 0
M  V30 193 H 15.227 2.60115 -2.98591 0
M  V30 194 H 16.401 0.242455 -4.60162 0
M  V30 195 H 14.716 0.37691 -4.14691 0
M  V30 196 H 17.313 3.15292 -4.3185 0
M  V30 197 H 17.656 3.24447 -2.60845 0
M  V30 198 H 18.189 1.82156 -3.53644 0
M  V30 199 H 14.928 1.13896 -6.45529 0
M  V30 200 H 14.448 2.52022 -5.44284 0
M  V30 201 H 16.127 2.37364 -6.01887 0
M  V30 202 N 16.2591 1.48442 0.529413 0
M  V30 203 C 17.6701 1.5002 1.11134 0
M  V30 204 C 18.0211 0.27031 1.94329 0
M  V30 205 O 17.1461 -0.622507 2.07253 0
M  V30 206 C 17.7411 2.71834 2.02217 0
M  V30 207 C 16.3001 2.76283 2.55627 0
M  V30 208 C 15.4471 2.43542 1.326 0
M  V30 209 H 18.3981 1.5555 0.314641 0
M  V30 210 H 18.4191 2.50384 2.8651 0
M  V30 211 H 17.9311 3.61331 1.41639 0
M  V30 212 H 16.0321 1.90995 3.19924 0
M  V30 213 H 16.1451 3.77725 2.94721 0
M  V30 214 H 14.5091 1.94709 1.64196 0
M  V30 215 H 15.2921 3.3528 0.737734 0
M  V30 216 N 17.7372 -0.778329 1.37039 0
M  V30 217 C 18.6702 -1.8984 1.26633 0
M  V30 218 C 19.6482 -1.61923 0.148197 0
M  V30 219 O 20.8322 -1.85742 0.321265 0
M  V30 220 C 17.9592 -3.24916 0.956403 0
M  V30 221 C 17.0052 -3.71752 2.09051 0
M  V30 222 S 17.8382 -3.86201 3.70957 0
M  V30 223 C 18.9942 -5.24135 3.42101 0
M  V30 224 H 19.2272 -1.98377 2.21436 0
M  V30 225 H 16.7602 -0.938738 1.22585 0
M  V30 226 H 18.7182 -4.02936 0.784409 0
M  V30 227 H 17.3792 -3.14089 0.0259713 0
M  V30 228 H 16.5722 -4.69661 1.8285 0
M  V30 229 H 16.1742 -3.00815 2.2223 0
M  V30 230 H 18.4662 -6.09086 2.96682 0
M  V30 231 H 19.4092 -5.55346 4.39314 0
M  V30 232 H 19.8172 -4.91761 2.77185 0
M  V30 233 N 19.2153 -1.21501 -1.00376 0
M  V30 234 C 20.4923 -0.941745 -1.71437 0
M  V30 235 C 20.8723 0.546114 -2.03914 0
M  V30 236 O 20.2203 1.51128 -1.71384 0
M  V30 237 C 20.4303 -1.82812 -2.97289 0
M  V30 238 C 21.7783 -2.07771 -3.70292 0
M  V30 239 O 22.8023 -1.80171 -3.07273 0
M  V30 240 O 21.6613 -2.54456 -4.83647 0
M  V30 241 H 18.7553 -0.353243 -0.747762 0
M  V30 242 H 21.3013 -1.32436 -1.06108 0
M  V30 243 H 20.0733 -2.83501 -2.69709 0
M  V30 244 H 19.6963 -1.4464 -3.70358 0
M  V30 245 N 20.6934 1.19889 -1.02296 0
M  V30 246 C 21.6564 2.21116 -0.603351 0
M  V30 247 C 22.6564 1.5738 0.329884 0
M  V30 248 O 23.8464 1.73802 0.117702 0
M  V30 249 C 20.9784 3.40696 0.117992 0
M  V30 250 H 22.1714 2.59754 -1.49893 0
M  V30 251 H 19.7244 1.33463 -0.813468 0
M  V30 252 H 20.4594 3.07569 1.0282 0
M  V30 253 H 20.2444 3.88188 -0.552511 0
M  V30 254 H 21.7344 4.15692 0.398696 0
M  V30 255 N 22.1715 0.800033 1.35784 0
M  V30 256 C 23.4195 0.376597 1.9856 0
M  V30 257 C 23.7405 -1.05812 1.63795 0
M  V30 258 O 23.0105 -1.73103 0.917171 0
M  V30 259 H 21.5905 0.136261 0.734467 0
M  V30 260 H 24.2525 1.02442 1.65806 0
M  V30 261 H 23.3485 0.477002 3.08433 0
M  V30 262 N 23.6496 -1.47581 0.552962 0
M  V30 263 C 24.8956 -2.02782 0.0273648 0
M  V30 264 C 25.2286 -1.42687 -1.31734 0
M  V30 265 O 24.5036 -0.580897 -1.85623 0
M  V30 266 C 24.7866 -3.60031 -0.0702371 0
M  V30 267 C 24.6396 -4.30566 1.30126 0
M  V30 268 C 25.9586 -4.33028 -0.785771 0
M  V30 269 H 23.0776 -0.736912 0.0114185 0
M  V30 270 H 25.7196 -1.76056 0.714432 0
M  V30 271 H 23.8696 -3.82932 -0.655382 0
M  V30 272 H 25.5416 -4.19018 1.92929 0
M  V30 273 H 23.7846 -3.91086 1.87709 0
M  V30 274 H 24.4556 -5.39114 1.18573 0
M  V30 275 H 26.9316 -4.15095 -0.288982 0
M  V30 276 H 25.8076 -5.42695 -0.823013 0
M  V30 277 H 26.0686 -4.01945 -1.841 0
M  V30 278 N 25.1277 -0.289203 -1.54924 0
M  V30 279 C 26.3737 0.323998 -2.00195 0
M  V30 280 C 26.7067 1.54441 -1.17735 0
M  V30 281 O 25.9817 1.92875 -0.250878 0
M  V30 282 C 26.2647 0.692276 -3.53383 0
M  V30 283 C 26.1177 -0.536457 -4.46589 0
M  V30 284 C 27.4367 1.52335 -4.12895 0
M  V30 285 H 24.5557 0.116289 -0.727768 0
M  V30 286 H 27.1977 -0.398954 -1.85764 0
M  V30 287 H 25.3477 1.30822 -3.65811 0
M  V30 288 H 27.0197 -1.17499 -4.46085 0
M  V30 289 H 25.2627 -1.17192 -4.1767 0
M  V30 290 H 25.9337 -0.234806 -5.515 0
M  V30 291 H 28.4097 1.00302 -4.0383 0
M  V30 292 H 27.2857 1.74982 -5.20262 0
M  V30 293 H 27.5467 2.50886 -3.64018 0
M  V30 294 N 26.6058 1.57591 -0.0167156 0
M  V30 295 C 27.5358 2.12496 0.967858 0
M  V30 296 C 28.5168 1.03807 1.34752 0
M  V30 297 O 29.7018 1.31577 1.42833 0
M  V30 298 C 26.8318 2.64194 2.25431 0
M  V30 299 C 25.7858 3.77559 2.01576 0
M  V30 300 C 25.1118 4.15636 3.36379 0
M  V30 301 C 26.4118 5.04151 1.36489 0
M  V30 302 H 28.1058 2.95013 0.510643 0
M  V30 303 H 25.6518 1.41915 0.244181 0
M  V30 304 H 27.6048 3.01236 2.94678 0
M  V30 305 H 26.3288 1.78821 2.73296 0
M  V30 306 H 24.9878 3.40937 1.34751 0
M  V30 307 H 24.6358 3.27263 3.81979 0
M  V30 308 H 24.3358 4.92022 3.21229 0
M  V30 309 H 25.8598 4.5525 4.06915 0
M  V30 310 H 27.2738 5.38857 1.95718 0
M  V30 311 H 25.6708 5.85453 1.31776 0
M  V30 312 H 26.7408 4.83733 0.336219 0
M  V30 313 N 28.0839 -0.256276 1.55502 0
M  V30 314 C 29.4999 -0.604325 1.47716 0
M  V30 315 C 29.6999 -1.88763 0.705039 0
M  V30 316 O 28.7559 -2.51445 0.230613 0
M  V30 317 C 30.0689 -0.715756 2.92057 0
M  V30 318 C 31.6169 -0.808706 3.02372 0
M  V30 319 C 32.0919 -0.951777 4.48001 0
M  V30 320 N 33.5829 -1.01688 4.519 0
M  V30 321 C 34.3179 -1.14668 5.61817 0
M  V30 322 N 33.8139 -1.24261 6.81565 0
M  V30 323 N 35.6069 -1.1791 5.49594 0
M  V30 324 H 27.7579 0.586291 2.04148 0
M  V30 325 H 30.0209 0.201015 0.926443 0
M  V30 326 H 29.7269 0.157027 3.51349 0
M  V30 327 H 29.6009 -1.59071 3.42018 0
M  V30 328 H 31.9879 -1.67195 2.43166 0
M  V30 329 H 32.0689 0.0912063 2.55637 0
M  V30 330 H 31.7129 -0.0931291 5.07815 0
M  V30 331 H 31.6429 -1.86659 4.92408 0
M  V30 332 H 34.1339 -0.954468 3.65648 0
M  V30 333 H 34.4469 -1.34046 7.61086 0
M  V30 334 H 32.7919 -1.21236 6.84344 0
M  V30 335 H 35.9829 -1.10057 4.54978 0
M  V30 336 H 36.1559 -1.27681 6.35296 0
M  V30 337 N 29.562 -1.4872 -0.521534 0
M  V30 338 C 30.839 -1.4766 -1.2828 0
M  V30 339 C 31.219 -0.19292 -2.10217 0
M  V30 340 O 30.567 0.825193 -2.13079 0
M  V30 341 C 30.777 -2.74358 -2.15705 0
M  V30 342 C 32.125 -3.23028 -2.75569 0
M  V30 343 O 33.149 -2.75333 -2.25987 0
M  V30 344 O 32.008 -4.0604 -3.65778 0
M  V30 345 H 29.102 -0.590085 -0.579421 0
M  V30 346 H 31.648 -1.60963 -0.537492 0
M  V30 347 H 30.42 -3.59292 -1.54999 0
M  V30 348 H 30.043 -2.63816 -2.97467 0
M  V30 349 N 31.0401 0.771051 -1.3745 0
M  V30 350 C 32.4561 1.07171 -1.18265 0
M  V30 351 C 32.6561 2.01491 -0.019287 0
M  V30 352 O 31.7121 2.44244 0.640408 0
M  V30 353 C 33.0251 1.66854 -2.50161 0
M  V30 354 C 34.5731 1.79109 -2.56689 0
M  V30 355 C 35.0481 2.42205 -3.88717 0
M  V30 356 N 36.5391 2.49655 -3.90162 0
M  V30 357 C 37.2741 2.9933 -4.8907 0
M  V30 358 N 36.7701 3.49172 -5.98374 0
M  V30 359 N 38.5631 2.9821 -4.76474 0
M  V30 360 H 30.7141 0.144796 -2.11906 0
M  V30 361 H 32.9771 0.126863 -0.939473 0
M  V30 362 H 32.6831 1.05017 -3.35655 0
M  V30 363 H 32.5571 2.6614 -2.673 0
M  V30 364 H 34.9441 2.40077 -1.71601 0
M  V30 365 H 35.0251 0.785757 -2.43433 0
M  V30 366 H 34.6691 1.81875 -4.74219 0
M  V30 367 H 34.5991 3.43345 -3.99276 0
M  V30 368 H 37.0901 2.14383 -3.11205 0
M  V30 369 H 37.4031 3.8548 -6.69795 0
M  V30 370 H 35.7481 3.47275 -6.02018 0
M  V30 371 H 38.9391 2.58572 -3.90203 0
M  V30 372 H 39.1121 3.36613 -5.53711 0
M  V30 373 N 32.5182 1.22032 0.997298 0
M  V30 374 C 33.9342 0.979326 1.26021 0
M  V30 375 C 34.1342 -0.32972 1.98784 0
M  V30 376 O 33.1902 -1.05345 2.29475 0
M  V30 377 C 34.5032 2.17509 2.07631 0
M  V30 378 C 36.0512 2.21817 2.2083 0
M  V30 379 C 36.5262 3.40933 3.05825 0
M  V30 380 N 38.0172 3.41067 3.13412 0
M  V30 381 C 38.7522 4.29885 3.79455 0
M  V30 382 N 38.2482 5.28914 4.47462 0
M  V30 383 N 40.0412 4.17673 3.76173 0
M  V30 384 H 32.1922 2.06202 0.509352 0
M  V30 385 H 34.4552 0.90334 0.287541 0
M  V30 386 H 34.1612 3.12415 1.61524 0
M  V30 387 H 34.0352 2.17206 3.08385 0
M  V30 388 H 36.4222 1.27462 2.66153 0
M  V30 389 H 36.5032 2.2616 1.1952 0
M  V30 390 H 36.1472 4.35586 2.61203 0
M  V30 391 H 36.0772 3.33829 4.07266 0
M  V30 392 H 38.5682 2.69406 2.65007 0
M  V30 393 H 38.8812 5.92973 4.95583 0
M  V30 394 H 37.2262 5.32831 4.46224 0
M  V30 395 H 40.4172 3.39564 3.22202 0
M  V30 396 H 40.5902 4.87098 4.27363 0
M  V30 397 N 33.9963 -1.19345 1.0293 0
M  V30 398 C 34.9263 -2.2481 0.631105 0
M  V30 399 C 35.9073 -1.66245 -0.360104 0
M  V30 400 O 37.0923 -1.92677 -0.242726 0
M  V30 401 C 34.2223 -3.47295 -0.0184607 0
M  V30 402 C 33.1763 -4.18536 0.895073 0
M  V30 403 C 32.5023 -5.34586 0.110592 0
M  V30 404 C 33.8023 -4.73287 2.209 0
M  V30 405 H 35.4963 -2.58372 1.51275 0
M  V30 406 H 33.0423 -1.24194 0.728818 0
M  V30 407 H 34.9953 -4.20268 -0.308675 0
M  V30 408 H 33.7193 -3.12933 -0.934907 0
M  V30 409 H 32.3783 -3.47446 1.16949 0
M  V30 410 H 32.0263 -4.96469 -0.807902 0
M  V30 411 H 31.7263 -5.83183 0.719087 0
M  V30 412 H 33.2503 -6.10355 -0.172871 0
M  V30 413 H 34.6643 -5.38013 1.98028 0
M  V30 414 H 33.0613 -5.32373 2.76946 0
M  V30 415 H 34.1313 -3.91331 2.86336 0
M  V30 416 N 35.4744 -0.807222 -1.35358 0
M  V30 417 C 36.4214 -0.216037 -2.29787 0
M  V30 418 C 37.3914 0.650278 -1.52842 0
M  V30 419 O 38.5764 0.595227 -1.81278 0
M  V30 420 C 35.7164 0.628893 -3.39321 0
M  V30 421 C 34.8294 -0.257927 -4.31229 0
M  V30 422 C 33.9644 0.595069 -5.27856 0
M  V30 423 C 33.0034 -0.292111 -6.11403 0
M  V30 424 N 32.1404 0.520895 -7.00165 0
M  V30 425 H 36.9804 -1.02671 -2.79755 0
M  V30 426 H 34.5174 -0.517839 -1.37684 0
M  V30 427 H 36.4754 1.13393 -4.01494 0
M  V30 428 H 35.1054 1.40482 -2.90628 0
M  V30 429 H 34.1574 -0.881076 -3.70056 0
M  V30 430 H 35.4694 -0.940759 -4.89848 0
M  V30 431 H 34.6234 1.16522 -5.95405 0
M  V30 432 H 33.3624 1.31146 -4.69736 0
M  V30 433 H 32.3674 -0.874525 -5.428 0
M  V30 434 H 33.5924 -1.00638 -6.71602 0
M  V30 435 H 31.5384 1.22125 -6.44532 0
M  V30 436 H 31.4554 -0.103877 -7.55929 0
M  V30 437 H 32.7234 1.0743 -7.72062 0
M  V30 438 N 36.9525 1.47285 -0.560781 0
M  V30 439 C 38.1805 2.06855 -0.0430262 0
M  V30 440 C 38.5955 1.41291 1.25229 0
M  V30 441 O 37.9525 0.510648 1.7521 0
M  V30 442 C 38.0035 3.61178 0.152518 0
M  V30 443 O 37.7245 4.24285 -1.0915 0
M  V30 444 C 39.2255 4.37624 0.707145 0
M  V30 445 H 36.4455 0.669319 -0.0474652 0
M  V30 446 H 38.9895 1.89237 -0.77521 0
M  V30 447 H 37.1445 3.78298 0.834843 0
M  V30 448 H 37.5585 5.16868 -0.891482 0
M  V30 449 H 39.0325 5.46271 0.793244 0
M  V30 450 H 39.5095 4.04152 1.71923 0
M  V30 451 H 40.1155 4.25257 0.0604027 0
M  V30 452 N 38.4306 0.297415 1.54768 0
M  V30 453 C 39.8466 -0.0560823 1.59501 0
M  V30 454 C 40.0466 -1.52725 1.31444 0
M  V30 455 O 39.1026 -2.27947 1.08611 0
M  V30 456 C 40.4156 0.338631 2.98787 0
M  V30 457 C 41.9636 0.287097 3.11681 0
M  V30 458 C 42.4386 0.656579 4.53269 0
M  V30 459 N 43.9296 0.608977 4.59179 0
M  V30 460 C 44.6646 0.867385 5.66802 0
M  V30 461 N 44.1606 1.19157 6.82476 0
M  V30 462 N 45.9536 0.794687 5.56454 0
M  V30 463 H 38.1046 1.25624 1.71267 0
M  V30 464 H 40.3676 0.509057 0.799728 0
M  V30 465 H 40.0736 1.36263 3.2423 0
M  V30 466 H 39.9476 -0.309508 3.75928 0
M  V30 467 H 42.3346 -0.727649 2.85988 0
M  V30 468 H 42.4156 0.969809 2.36703 0
M  V30 469 H 42.0596 1.66912 4.7969 0
M  V30 470 H 41.9896 -0.0481649 5.26578 0
M  V30 471 H 44.4806 0.369198 3.76092 0
M  V30 472 H 44.7936 1.37482 7.60473 0
M  V30 473 H 43.1386 1.22958 6.84037 0
M  V30 474 H 46.3296 0.541098 4.64962 0
M  V30 475 H 46.5026 0.999445 6.40246 0
M  V30 476 N 39.9087 -1.5758 0.0250728 0
M  V30 477 C 41.1857 -1.82917 -0.692873 0
M  V30 478 C 41.5657 -0.908137 -1.90568 0
M  V30 479 O 40.9137 0.0372298 -2.2847 0
M  V30 480 C 41.1237 -3.32034 -1.07492 0
M  V30 481 C 42.4717 -3.98406 -1.46826 0
M  V30 482 O 43.4957 -3.36505 -1.16801 0
M  V30 483 O 42.3547 -5.07497 -2.02754 0
M  V30 484 H 39.4487 -0.754079 -0.33955 0
M  V30 485 H 41.9947 -1.69619 0.0524456 0
M  V30 486 H 40.7667 -3.90728 -0.211552 0
M  V30 487 H 40.3897 -3.50424 -1.87854 0
M  V30 488 N 41.3868 0.248026 -1.55636 0
M  V30 489 C 42.6348 0.974295 -1.77065 0
M  V30 490 C 42.9558 1.85897 -0.588849 0
M  V30 491 O 42.2258 1.91868 0.395407 0
M  V30 492 H 40.8058 0.362733 -0.653019 0
M  V30 493 H 43.4678 0.266244 -1.93073 0
M  V30 494 H 42.5638 1.59667 -2.68166 0
M  V30 495 N 42.8649 1.48995 0.513639 0
M  V30 496 C 43.7949 1.67636 1.62544 0
M  V30 497 C 44.7759 0.525087 1.61793 0
M  V30 498 O 45.9609 0.759502 1.78732 0
M  V30 499 C 43.0909 1.73114 3.01079 0
M  V30 500 C 42.0449 2.87905 3.16693 0
M  V30 501 C 41.3709 2.78486 4.56453 0
M  V30 502 C 42.6709 4.29005 2.97913 0
M  V30 503 H 44.3649 2.60716 1.47198 0
M  V30 504 H 41.9109 1.25465 0.706714 0
M  V30 505 H 43.8639 1.84742 3.78746 0
M  V30 506 H 42.5879 0.766241 3.17484 0
M  V30 507 H 41.2469 2.75859 2.41448 0
M  V30 508 H 40.8949 1.7993 4.69717 0
M  V30 509 H 40.5949 3.55523 4.67843 0
M  V30 510 H 42.1189 2.92104 5.36197 0
M  V30 511 H 43.5329 4.41798 3.65359 0
M  V30 512 H 41.9299 5.07166 3.20785 0
M  V30 513 H 42.9999 4.44329 1.94165 0
M  V30 514 N 44.343 -0.763751 1.37857 0
M  V30 515 C 45.573 -1.55067 1.3652 0
M  V30 516 C 45.981 -1.89135 -0.0494227 0
M  V30 517 O 45.324 -1.52529 -1.02375 0
M  V30 518 C 45.386 -2.8838 2.14656 0
M  V30 519 C 45.05 -2.76905 3.63555 0
M  V30 520 C 46.047 -2.4739 4.57268 0
M  V30 521 C 43.732 -2.94676 4.06781 0
M  V30 522 C 45.726 -2.35786 5.92186 0
M  V30 523 C 43.413 -2.82692 5.41782 0
M  V30 524 C 44.411 -2.53289 6.34298 0
M  V30 525 O 44.099 -2.41345 7.66817 0
M  V30 526 H 43.831 -0.486776 0.469069 0
M  V30 527 H 46.385 -0.953812 1.81911 0
M  V30 528 H 44.615 -3.50217 1.63967 0
M  V30 529 H 46.304 -3.49828 2.05852 0
M  V30 530 H 47.07 -2.33339 4.2518 0
M  V30 531 H 42.949 -3.16563 3.35126 0
M  V30 532 H 46.493 -2.12757 6.64365 0
M  V30 533 H 42.39 -2.96314 5.7347 0
M  V30 534 H 43.158 -2.56634 7.77226 0
M  V30 535 N 45.8211 -1.22559 -0.990812 0
M  V30 536 C 47.0671 -1.05297 -1.73322 0
M  V30 537 C 47.4001 0.410655 -1.89808 0
M  V30 538 O 46.6751 1.30439 -1.44277 0
M  V30 539 C 46.9581 -1.76713 -3.13759 0
M  V30 540 C 46.8111 -3.30684 -3.04907 0
M  V30 541 C 48.1301 -1.52121 -4.12974 0
M  V30 542 H 45.2491 -0.38392 -0.629106 0
M  V30 543 H 47.8911 -1.50926 -1.15418 0
M  V30 544 H 46.0411 -1.37924 -3.63193 0
M  V30 545 H 47.7131 -3.7893 -2.63077 0
M  V30 546 H 45.9561 -3.60253 -2.41661 0
M  V30 547 H 46.6271 -3.75833 -4.04294 0
M  V30 548 H 49.1031 -1.85819 -3.72304 0
M  V30 549 H 47.9791 -2.04582 -5.0935 0
M  V30 550 H 48.2401 -0.454257 -4.3976 0
M  V30 551 N 47.2992 1.18797 -1.03562 0
M  V30 552 C 48.5392 1.90346 -0.744832 0
M  V30 553 C 48.9032 1.78231 0.713972 0
M  V30 554 O 50.1042 2.44441 1.11813 0
M  V30 555 C 48.3752 3.36942 -1.19184 0
M  V30 556 S 49.9342 4.26638 -1.02593 0
M  V30 557 H 46.7522 0.657343 -0.270963 0
M  V30 558 H 49.3542 1.43579 -1.32685 0
M  V30 559 H 48.0582 3.43287 -2.24905 0
M  V30 560 H 47.5892 3.88745 -0.603397 0
M  V30 561 H 49.6042 4.96164 0.0596033 0
M  V30 562 N 48.7773 0.814389 1.34928 0
M  V30 563 C 49.7073 0.244827 2.32213 0
M  V30 564 C 50.6883 -0.634024 1.57842 0
M  V30 565 O 51.8733 -0.562676 1.8587 0
M  V30 566 C 49.0033 -0.601106 3.42058 0
M  V30 567 C 47.9573 0.179896 4.27622 0
M  V30 568 C 47.2833 -0.788237 5.28858 0
M  V30 569 C 48.5833 1.38329 5.03649 0
M  V30 570 H 50.2773 1.05763 2.80097 0
M  V30 571 H 47.8233 0.510029 1.34665 0
M  V30 572 H 49.7763 -1.00968 4.09125 0
M  V30 573 H 48.5003 -1.44688 2.92802 0
M  V30 574 H 47.1593 0.569739 3.62146 0
M  V30 575 H 46.8073 -1.62973 4.75866 0
M  V30 576 H 46.5073 -0.269942 5.8698 0
M  V30 577 H 48.0313 -1.19485 5.98795 0
M  V30 578 H 49.4453 1.04918 5.63618 0
M  V30 579 H 47.8423 1.83662 5.71304 0
M  V30 580 H 48.9123 2.16592 4.33839 0
M  V30 581 N 50.2554 -1.46986 0.568584 0
M  V30 582 C 51.6714 -1.57946 0.229189 0
M  V30 583 C 51.8714 -1.56567 -1.26843 0
M  V30 584 O 50.9274 -1.47511 -2.04931 0
M  V30 585 C 52.2404 -2.87963 0.865909 0
M  V30 586 C 53.7884 -3.01568 0.838188 0
M  V30 587 C 54.2634 -4.34301 1.45419 0
M  V30 588 N 55.7544 -4.40965 1.41788 0
M  V30 589 C 56.4894 -5.42256 1.86403 0
M  V30 590 N 55.9854 -6.50297 2.38926 0
M  V30 591 N 57.7784 -5.3337 1.77405 0
M  V30 592 H 49.9294 -1.46126 1.54146 0
M  V30 593 H 52.1924 -0.696156 0.643484 0
M  V30 594 H 51.8984 -2.94742 1.91886 0
M  V30 595 H 51.7724 -3.75423 0.365687 0
M  V30 596 H 54.1594 -2.94379 -0.206106 0
M  V30 597 H 54.2404 -2.1562 1.37629 0
M  V30 598 H 53.8844 -4.42247 2.49761 0
M  V30 599 H 53.8144 -5.19 0.891435 0
M  V30 600 H 56.3054 -3.63484 1.03381 0
M  V30 601 H 56.6184 -7.23777 2.70863 0
M  V30 602 H 54.9634 -6.51155 2.42944 0
M  V30 603 H 58.1544 -4.47865 1.3614 0
M  V30 604 H 58.3274 -6.12169 2.12492 0
M  V30 605 N 51.7335 -0.305618 -1.54608 0
M  V30 606 C 52.6435 0.57778 -2.27374 0
M  V30 607 C 53.6595 1.14451 -1.31061 0
M  V30 608 O 54.8355 1.16831 -1.6405 0
M  V30 609 C 51.9005 1.73123 -3.00382 0
M  V30 610 C 50.9615 1.19812 -4.12242 0
M  V30 611 C 50.1945 2.2966 -4.81759 0
M  V30 612 O 50.4175 3.49651 -4.50666 0
M  V30 613 O 49.3515 1.96091 -5.69062 0
M  V30 614 H 53.1775 -0.012624 -3.03697 0
M  V30 615 H 50.7625 -0.0719184 -1.49227 0
M  V30 616 H 52.6445 2.40315 -3.4616 0
M  V30 617 H 51.3195 2.30815 -2.26949 0
M  V30 618 H 50.2265 0.491798 -3.70853 0
M  V30 619 H 51.5595 0.666566 -4.87666 0
M  V30 620 N 53.2116 1.57565 -0.0334293 0
M  V30 621 C 54.4596 1.91598 0.642999 0
M  V30 622 C 54.7806 0.910847 1.7242 0
M  V30 623 O 54.0506 -0.0469931 1.95844 0
M  V30 624 H 52.6306 0.707228 0.240496 0
M  V30 625 H 55.2926 1.94726 -0.0822488 0
M  V30 626 H 54.3886 2.92336 1.09298 0
M  V30 627 N 54.6897 -0.239769 1.55765 0
M  V30 628 C 55.5997 -1.31831 1.94056 0
M  V30 629 C 56.6157 -1.52275 0.841925 0
M  V30 630 O 57.7917 -1.65759 1.14394 0
M  V30 631 C 54.8567 -2.65156 2.23368 0
M  V30 632 C 53.9177 -2.53173 3.46701 0
M  V30 633 C 53.1507 -3.8014 3.74606 0
M  V30 634 O 53.3737 -4.82343 3.04469 0
M  V30 635 O 52.3077 -3.78344 4.68123 0
M  V30 636 H 56.1337 -1.02347 2.85935 0
M  V30 637 H 53.7187 -0.441123 1.42739 0
M  V30 638 H 55.6007 -3.43929 2.43497 0
M  V30 639 H 54.2757 -2.94358 1.34666 0
M  V30 640 H 53.1827 -1.72662 3.31871 0
M  V30 641 H 54.5157 -2.28915 4.35728 0
M  V30 642 N 56.1678 -1.49265 -0.50573 0
M  V30 643 C 57.5838 -1.35923 -0.836486 0
M  V30 644 C 57.7838 -0.388704 -1.97715 0
M  V30 645 O 56.8398 0.181336 -2.51848 0
M  V30 646 C 58.1528 -2.76531 -1.18115 0
M  V30 647 C 59.7008 -2.85197 -1.28964 0
M  V30 648 C 60.1758 -4.26561 -1.66761 0
M  V30 649 N 61.6668 -4.2935 -1.73819 0
M  V30 650 C 62.4018 -5.35693 -2.045 0
M  V30 651 N 61.8978 -6.52287 -2.33438 0
M  V30 652 N 63.6908 -5.23105 -2.05711 0
M  V30 653 H 55.8418 -2.10965 0.246519 0
M  V30 654 H 58.1048 -0.9468 0.0476887 0
M  V30 655 H 57.8108 -3.49226 -0.416398 0
M  V30 656 H 57.6848 -3.11599 -2.1257 0
M  V30 657 H 60.0718 -2.12742 -2.04511 0
M  V30 658 H 60.1528 -2.53718 -0.325704 0
M  V30 659 H 59.7968 -4.99541 -0.917656 0
M  V30 660 H 59.7268 -4.55502 -2.64246 0
M  V30 661 H 62.2178 -3.4526 -1.53635 0
M  V30 662 H 62.5308 -7.29158 -2.56024 0
M  V30 663 H 60.8758 -6.55521 -2.30905 0
M  V30 664 H 64.0668 -4.31026 -1.82577 0
M  V30 665 H 64.2398 -6.06078 -2.29289 0
M  V30 666 N 57.6459 0.756429 -1.3826 0
M  V30 667 C 58.5559 1.9009 -1.37488 0
M  V30 668 C 59.5719 1.71855 -0.272366 0
M  V30 669 O 60.7479 1.94827 -0.510318 0
M  V30 670 C 57.8129 3.25421 -1.19592 0
M  V30 671 C 56.8739 3.56202 -2.39622 0
M  V30 672 C 56.1069 4.85075 -2.2257 0
M  V30 673 O 56.3299 5.57246 -1.21793 0
M  V30 674 O 55.2639 5.15269 -3.11098 0
M  V30 675 H 59.0899 1.93695 -2.33914 0
M  V30 676 H 56.6749 0.901313 -1.1915 0
M  V30 677 H 58.5569 4.06337 -1.11661 0
M  V30 678 H 57.2319 3.22634 -0.262486 0
M  V30 679 H 56.1389 2.75458 -2.53128 0
M  V30 680 H 57.4719 3.63747 -3.31586 0
M  V30 681 N 59.124 1.23083 0.984299 0
M  V30 682 C 60.372 1.05848 1.72165 0
M  V30 683 C 60.693 -0.406049 1.90726 0
M  V30 684 O 59.963 -1.29139 1.47309 0
M  V30 685 H 58.543 0.388685 0.637913 0
M  V30 686 H 61.205 1.54736 1.18503 0
M  V30 687 H 60.301 1.54327 2.71274 0
M  V30 688 N 60.6021 -1.18246 1.0419 0
M  V30 689 C 61.8481 -1.88793 0.75689 0
M  V30 690 C 62.2031 -1.78909 -0.707767 0
M  V30 691 O 61.4961 -1.1794 -1.50999 0
M  V30 692 C 61.6901 -3.38082 1.15911 0
M  V30 693 C 61.5191 -3.62496 2.66133 0
M  V30 694 C 60.2891 -3.7979 3.33298 0
M  V30 695 C 62.4871 -3.62976 3.64353 0
M  V30 696 N 60.4691 -3.91955 4.72487 0
M  V30 697 C 61.8401 -3.80869 4.89222 0
M  V30 698 C 63.8951 -3.46071 3.57965 0
M  V30 699 C 62.5981 -3.83608 6.08471 0
M  V30 700 C 64.6241 -3.50093 4.76643 0
M  V30 701 C 63.9861 -3.68484 6.00332 0
M  V30 702 H 60.0851 -0.709406 0.32904 0
M  V30 703 H 62.6691 -1.42022 1.33183 0
M  V30 704 H 60.8401 -3.83544 0.612238 0
M  V30 705 H 62.5721 -3.96202 0.824989 0
M  V30 706 H 59.3271 -3.79224 2.83701 0
M  V30 707 H 59.7511 -4.01857 5.44831 0
M  V30 708 H 64.3931 -3.30797 2.63311 0
M  V30 709 H 62.1111 -3.97669 7.0348 0
M  V30 710 H 65.6971 -3.38285 4.73344 0
M  V30 711 H 64.5771 -3.71488 6.90627 0
M  V30 712 N 62.0802 -0.821533 -1.34494 0
M  V30 713 C 63.3282 -0.408139 -1.97936 0
M  V30 714 C 63.6492 1.03193 -1.65457 0
M  V30 715 O 62.9192 1.71622 -0.944595 0
M  V30 716 H 61.4992 -0.147928 -0.732206 0
M  V30 717 H 64.1612 -1.05067 -1.64155 0
M  V30 718 H 63.2572 -0.52601 -3.07635 0
M  V30 719 N 63.5583 1.46682 -0.576371 0
M  V30 720 C 64.4683 2.34032 0.163141 0
M  V30 721 C 65.4843 1.49367 0.892501 0
M  V30 722 O 66.6603 1.82252 0.857106 0
M  V30 723 C 63.7253 3.26435 1.16795 0
M  V30 724 C 62.7863 4.26998 0.443944 0
M  V30 725 C 62.0193 5.14986 1.40088 0
M  V30 726 O 62.2423 5.05785 2.637 0
M  V30 727 O 61.1763 5.94906 0.914917 0
M  V30 728 H 65.0023 2.98607 -0.55388 0
M  V30 729 H 62.5873 1.45554 -0.336821 0
M  V30 730 H 64.4693 3.83459 1.74748 0
M  V30 731 H 63.1443 2.64465 1.86655 0
M  V30 732 H 62.0513 3.7368 -0.177271 0
M  V30 733 H 63.3843 4.91736 -0.213566 0
M  V30 734 N 65.0364 0.313813 1.54444 0
M  V30 735 C 66.2854 -0.292519 1.99568 0
M  V30 736 C 66.5984 -1.54011 1.20582 0
M  V30 737 O 67.8044 -2.22183 1.56035 0
M  V30 738 C 66.2604 -0.571752 3.55329 0
M  V30 739 C 65.8684 0.658229 4.43138 0
M  V30 740 C 67.6124 -1.13857 4.08946 0
M  V30 741 C 65.5194 0.351439 5.90355 0
M  V30 742 H 64.4494 -0.113079 0.745472 0
M  V30 743 H 67.1004 0.424518 1.78522 0
M  V30 744 H 65.4824 -1.34872 3.72325 0
M  V30 745 H 66.6564 1.43403 4.37918 0
M  V30 746 H 64.9714 1.14458 4.0036 0
M  V30 747 H 67.5684 -1.38257 5.16516 0
M  V30 748 H 67.9114 -2.08489 3.6033 0
M  V30 749 H 68.4444 -0.423015 3.95544 0
M  V30 750 H 65.1834 1.26667 6.43145 0
M  V30 751 H 64.7034 -0.386842 5.98551 0
M  V30 752 H 66.3824 -0.0423134 6.46986 0
M  V30 753 N 66.5145 -1.57545 0.0417849 0
M  V30 754 C 67.7395 -1.97035 -0.647455 0
M  V30 755 C 68.1645 -0.918775 -1.64135 0
M  V30 756 O 67.5225 0.119006 -1.80909 0
M  V30 757 C 67.5705 -3.35609 -1.31905 0
M  V30 758 O 66.6745 -3.3287 -2.43457 0
M  V30 759 H 66.0155 -0.64211 -0.169086 0
M  V30 760 H 68.5455 -2.04318 0.107399 0
M  V30 761 H 68.5555 -3.72126 -1.67291 0
M  V30 762 H 67.2305 -4.11685 -0.590586 0
M  V30 763 H 65.8075 -3.08087 -2.10088 0
M  V30 764 N 67.9926 0.231505 -1.5589 0
M  V30 765 C 69.4036 0.799327 -1.68724 0
M  V30 766 C 69.7546 1.85398 -0.642022 0
M  V30 767 O 68.8796 2.1539 0.208784 0
M  V30 768 C 69.4746 1.45664 -3.05888 0
M  V30 769 C 68.0336 1.97197 -3.20609 0
M  V30 770 C 67.1806 0.828552 -2.64632 0
M  V30 771 H 70.1316 0.00702616 -1.58698 0
M  V30 772 H 70.1526 2.32517 -3.01191 0
M  V30 773 H 69.6646 0.688808 -3.81939 0
M  V30 774 H 67.7656 2.76813 -2.4941 0
M  V30 775 H 67.8786 2.15878 -4.27707 0
M  V30 776 H 66.2426 1.23321 -2.22854 0
M  V30 777 H 67.0256 0.0735544 -3.43221 0
M  V30 778 N 69.4707 1.49531 0.497807 0
M  V30 779 C 70.4007 1.6935 1.60757 0
M  V30 780 C 71.3817 0.542218 1.61227 0
M  V30 781 O 72.5667 0.778417 1.77917 0
M  V30 782 C 69.6967 1.76298 2.99226 0
M  V30 783 C 68.6507 2.91248 3.13622 0
M  V30 784 C 67.9767 2.83312 4.53474 0
M  V30 785 C 69.2767 4.3214 2.93346 0
M  V30 786 H 70.9707 2.62263 1.44425 0
M  V30 787 H 68.5167 1.26208 0.693367 0
M  V30 788 H 70.4697 1.88749 3.76765 0
M  V30 789 H 69.1937 0.799871 3.16654 0
M  V30 790 H 67.8527 2.78404 2.38509 0
M  V30 791 H 67.5007 1.84902 4.67782 0
M  V30 792 H 67.2007 3.60465 4.64046 0
M  V30 793 H 68.7247 2.97775 5.33069 0
M  V30 794 H 70.1387 4.45649 3.60652 0
M  V30 795 H 68.5357 5.1054 3.15387 0
M  V30 796 H 69.6057 4.46363 1.89441 0
M  V30 797 N 70.9488 -0.749086 1.3866 0
M  V30 798 C 72.3598 -1.32664 1.31366 0
M  V30 799 C 72.7108 -1.96179 -0.028484 0
M  V30 800 O 71.8358 -1.9537 -0.93057 0
M  V30 801 C 72.4308 -2.41219 2.37905 0
M  V30 802 C 70.9898 -2.94684 2.34176 0
M  V30 803 C 70.1368 -1.68108 2.20533 0
M  V30 804 H 73.0878 -0.547628 1.48952 0
M  V30 805 H 73.1088 -3.21268 2.0388 0
M  V30 806 H 72.6208 -1.94962 3.35576 0
M  V30 807 H 70.7218 -3.45258 1.401 0
M  V30 808 H 70.8348 -3.48757 3.2849 0
M  V30 809 H 69.1988 -1.91907 1.67463 0
M  V30 810 H 69.9818 -1.23923 3.20153 0
M  V30 811 N 72.4269 -1.23603 -0.977757 0
M  V30 812 C 73.6749 -1.06759 -1.71601 0
M  V30 813 C 73.9959 0.395929 -1.90938 0
M  V30 814 O 73.2659 1.28356 -1.47992 0
M  V30 815 H 71.8459 -0.392062 -0.635843 0
M  V30 816 H 74.5079 -1.55362 -1.1768 0
M  V30 817 H 73.6039 -1.55763 -2.70452 0
M  V30 818 N 73.905 1.17692 -1.04816 0
M  V30 819 C 75.152 1.87859 -0.75599 0
M  V30 820 C 75.48 1.80812 0.716752 0
M  V30 821 O 74.735 1.20819 1.53952 0
M  V30 822 C 75.034 3.37462 -1.17703 0
M  V30 823 C 74.7 3.64713 -2.65133 0
M  V30 824 C 73.362 3.71859 -3.05408 0
M  V30 825 C 75.714 3.76492 -3.60421 0
M  V30 826 C 73.042 3.88271 -4.39843 0
M  V30 827 C 75.394 3.94421 -4.94585 0
M  V30 828 C 74.058 3.99806 -5.3452 0
M  V30 829 H 73.328 0.687425 -0.276636 0
M  V30 830 H 75.975 1.39255 -1.31455 0
M  V30 831 H 74.28 3.88097 -0.537395 0
M  V30 832 H 75.977 3.90109 -0.928218 0
M  V30 833 H 72.567 3.59772 -2.32942 0
M  V30 834 H 76.751 3.70295 -3.30447 0
M  V30 835 H 72.007 3.90687 -4.70291 0
M  V30 836 H 76.181 4.02477 -5.68318 0
M  V30 837 H 73.808 4.12276 -6.38696 0
M  V30 838 N 75.3831 0.828654 1.34056 0
M  V30 839 C 76.6081 0.431637 2.02859 0
M  V30 840 C 77.0331 -0.956339 1.61975 0
M  V30 841 O 76.3911 -1.62338 0.807228 0
M  V30 842 C 76.4391 0.548323 3.56407 0
M  V30 843 O 75.5431 -0.429556 4.10157 0
M  V30 844 H 74.8841 0.176886 0.640006 0
M  V30 845 H 77.4141 1.12066 1.71179 0
M  V30 846 H 77.4241 0.426196 4.05768 0
M  V30 847 H 76.0991 1.5606 3.8551 0
M  V30 848 H 74.6761 -0.265836 3.71951 0
M  V30 849 N 76.8612 -1.46375 0.584142 0
M  V30 850 C 77.7932 -2.28443 -0.186119 0
M  V30 851 C 78.8062 -1.38596 -0.854115 0
M  V30 852 O 79.9952 -1.63183 -0.723438 0
M  V30 853 C 77.0952 -3.13671 -1.28311 0
M  V30 854 C 76.2682 -4.31652 -0.706758 0
M  V30 855 C 75.3272 -4.98267 -1.69163 0
M  V30 856 O 74.3532 -5.55815 -1.22712 0
M  V30 857 N 75.5552 -4.95408 -3.02575 0
M  V30 858 H 78.3202 -2.9519 0.517986 0
M  V30 859 H 75.8812 -1.56303 0.42201 0
M  V30 860 H 77.8732 -3.55101 -1.94128 0
M  V30 861 H 76.4432 -2.48989 -1.89005 0
M  V30 862 H 75.6632 -3.93989 0.128908 0
M  V30 863 H 76.9512 -5.07906 -0.301506 0
M  V30 864 H 76.3492 -4.49902 -3.42936 0
M  V30 865 H 74.9062 -5.40774 -3.63877 0
M  V30 866 N 78.3393 -0.321999 -1.54275 0
M  V30 867 C 79.2493 0.553631 -2.27974 0
M  V30 868 C 80.2653 1.13054 -1.32268 0
M  V30 869 O 81.4413 1.15084 -1.6528 0
M  V30 870 C 78.5063 1.69927 -3.02201 0
M  V30 871 C 77.5673 1.15433 -4.1349 0
M  V30 872 C 76.8003 2.24537 -4.84168 0
M  V30 873 O 77.0233 3.44852 -4.5435 0
M  V30 874 O 75.9573 1.90044 -5.7111 0
M  V30 875 H 79.7833 -0.0448345 -3.03667 0
M  V30 876 H 77.3683 -0.0877418 -1.49142 0
M  V30 877 H 79.2503 2.3663 -3.48689 0
M  V30 878 H 77.9253 2.28395 -2.29385 0
M  V30 879 H 76.8323 0.452436 -3.71354 0
M  V30 880 H 78.1653 0.614805 -4.88345 0
M  V30 881 N 79.8174 1.5752 -0.0501392 0
M  V30 882 C 81.0454 1.96963 0.633492 0
M  V30 883 C 81.4604 0.927631 1.6444 0
M  V30 884 O 80.8174 -0.0882665 1.82286 0
M  V30 885 C 80.8684 3.36487 1.32132 0
M  V30 886 O 80.5894 4.36693 0.350894 0
M  V30 887 C 82.0904 3.90682 2.09481 0
M  V30 888 H 79.3104 0.648244 0.173266 0
M  V30 889 H 81.8544 2.0417 -0.116134 0
M  V30 890 H 80.0094 3.30434 2.02218 0
M  V30 891 H 80.4234 5.17702 0.841735 0
M  V30 892 H 81.8974 4.90591 2.5303 0
M  V30 893 H 82.3744 3.26053 2.94255 0
M  V30 894 H 82.9804 4.00069 1.44307 0
M  V30 895 N 81.2955 -0.223234 1.56011 0
M  V30 896 C 82.5415 -0.944891 1.8012 0
M  V30 897 C 82.8965 -1.82039 0.622862 0
M  V30 898 O 82.1895 -1.8773 -0.383143 0
M  V30 899 C 82.3835 -1.81948 3.0762 0
M  V30 900 C 82.2125 -1.03014 4.37742 0
M  V30 901 C 80.9825 -0.72574 5.00061 0
M  V30 902 C 83.1805 -0.396256 5.12771 0
M  V30 903 N 81.1625 0.0851816 6.13841 0
M  V30 904 C 82.5335 0.278137 6.19376 0
M  V30 905 C 84.5885 -0.309117 4.9694 0
M  V30 906 C 83.2915 1.03133 7.11868 0
M  V30 907 C 85.3175 0.430607 5.8983 0
M  V30 908 C 84.6795 1.09355 6.9586 0
M  V30 909 H 80.7785 -0.326081 0.710771 0
M  V30 910 H 83.3625 -0.215914 1.93499 0
M  V30 911 H 81.5335 -2.52029 2.95527 0
M  V30 912 H 83.2655 -2.47848 3.19927 0
M  V30 913 H 80.0205 -1.04335 4.61964 0
M  V30 914 H 80.4445 0.479428 6.753 0
M  V30 915 H 85.0865 -0.807313 4.15021 0
M  V30 916 H 82.8045 1.54105 7.9327 0
M  V30 917 H 86.3905 0.499012 5.79656 0
M  V30 918 H 85.2705 1.65679 7.66499 0
M  V30 919 N 82.7736 -1.49793 -0.48987 0
M  V30 920 C 83.6836 -1.70036 -1.61632 0
M  V30 921 C 84.6996 -0.583102 -1.63939 0
M  V30 922 O 85.8756 -0.859169 -1.82154 0
M  V30 923 C 82.9406 -1.77277 -2.97949 0
M  V30 924 C 82.0016 -3.00918 -3.06181 0
M  V30 925 C 81.2346 -3.07804 -4.35996 0
M  V30 926 O 81.4576 -2.21982 -5.25433 0
M  V30 927 O 80.3916 -4.00369 -4.49431 0
M  V30 928 H 84.2176 -2.65486 -1.47482 0
M  V30 929 H 81.8026 -1.33666 -0.667362 0
M  V30 930 H 83.6846 -1.84329 -3.78947 0
M  V30 931 H 82.3596 -0.850076 -3.12339 0
M  V30 932 H 81.2666 -2.99377 -2.2433 0
M  V30 933 H 82.5996 -3.92704 -2.96723 0
M  V30 934 N 84.2517 0.741722 -1.39055 0
M  V30 935 C 85.1617 1.88621 -1.39496 0
M  V30 936 C 86.1777 1.71557 -0.290578 0
M  V30 937 O 87.3537 1.94275 -0.530954 0
M  V30 938 C 84.4187 3.24134 -1.23037 0
M  V30 939 C 83.4797 3.5364 -2.43387 0
M  V30 940 C 82.7127 4.82687 -2.27703 0
M  V30 941 O 82.9357 5.55922 -1.27696 0
M  V30 942 O 81.8697 5.1194 -3.16545 0
M  V30 943 H 85.6957 1.91203 -2.35956 0
M  V30 944 H 83.2807 0.888625 -1.20099 0
M  V30 945 H 85.1627 4.0513 -1.15964 0
M  V30 946 H 83.8377 3.22337 -0.296691 0
M  V30 947 H 82.7447 2.72758 -2.56035 0
M  V30 948 H 84.0777 3.60209 -3.35425 0
M  V30 949 N 85.7298 1.2412 0.971189 0
M  V30 950 C 86.6928 1.03156 2.04674 0
M  V30 951 C 87.6928 -0.00990322 1.60797 0
M  V30 952 O 88.8828 0.230729 1.72665 0
M  V30 953 C 86.0148 0.562765 3.36223 0
M  V30 954 H 87.2078 1.98614 2.24705 0
M  V30 955 H 84.7608 1.06293 1.14593 0
M  V30 956 H 85.4958 -0.395176 3.21883 0
M  V30 957 H 85.2808 1.31441 3.69413 0
M  V30 958 H 86.7708 0.437015 4.15307 0
M  V30 959 N 87.2079 -1.17134 1.05439 0
M  V30 960 C 88.1399 -2.2078 0.615539 0
M  V30 961 C 89.1529 -1.59584 -0.322001 0
M  V30 962 O 90.3419 -1.78133 -0.114344 0
M  V30 963 C 87.4419 -3.38691 -0.118938 0
M  V30 964 C 86.6149 -4.29454 0.829924 0
M  V30 965 C 85.6739 -5.26024 0.136258 0
M  V30 966 O 84.6999 -5.63952 0.77115 0
M  V30 967 N 85.9019 -5.69487 -1.1254 0
M  V30 968 H 88.6669 -2.59052 1.50705 0
M  V30 969 H 86.2279 -1.32058 0.936603 0
M  V30 970 H 88.2199 -4.00329 -0.593179 0
M  V30 971 H 86.7899 -2.98996 -0.91215 0
M  V30 972 H 86.0099 -3.65211 1.48373 0
M  V30 973 H 87.2979 -4.86984 1.47392 0
M  V30 974 H 86.6959 -5.4075 -1.6615 0
M  V30 975 H 85.2529 -6.33257 -1.54366 0
M  V30 976 N 88.686 -0.835752 -1.33615 0
M  V30 977 C 89.911 -0.442389 -2.02627 0
M  V30 978 C 90.336 0.947735 -1.62479 0
M  V30 979 O 89.694 1.61907 -0.815826 0
M  V30 980 C 89.742 -0.567216 -3.56111 0
M  V30 981 O 88.846 0.407799 -4.10379 0
M  V30 982 H 88.187 -0.180278 -0.639059 0
M  V30 983 H 90.717 -1.12972 -1.70583 0
M  V30 984 H 90.727 -0.447708 -4.05536 0
M  V30 985 H 89.402 -1.58103 -3.84677 0
M  V30 986 H 87.979 0.246107 -3.72087 0
M  V30 987 N 90.1641 1.46063 -0.591896 0
M  V30 988 C 91.4101 2.02638 -0.0811191 0
M  V30 989 C 91.7431 1.4613 1.27905 0
M  V30 990 O 91.0181 0.629908 1.84017 0
M  V30 991 C 91.3011 3.60091 -0.0252436 0
M  V30 992 C 91.1541 4.26965 -1.41496 0
M  V30 993 C 92.4731 4.3496 0.670685 0
M  V30 994 H 89.5921 0.73635 -0.0309524 0
M  V30 995 H 92.2341 1.741 -0.760859 0
M  V30 996 H 90.3841 3.84535 0.553624 0
M  V30 997 H 92.0561 4.13756 -2.0397 0
M  V30 998 H 90.2991 3.85971 -1.98011 0
M  V30 999 H 90.9701 5.35781 -1.32825 0
M  V30 1000 H 93.4461 4.15716 0.178825 0
M  V30 1001 H 92.3221 5.44686 0.678837 0
M  V30 1002 H 92.5831 4.06685 1.73379 0
M  V30 1003 N 91.6422 0.330177 1.54103 0
M  V30 1004 C 92.5722 -0.525353 2.27513 0
M  V30 1005 C 93.5532 -1.11383 1.2856 0
M  V30 1006 O 94.7382 -1.13773 1.57383 0
M  V30 1007 C 91.8682 -1.6831 3.03791 0
M  V30 1008 C 90.8222 -1.2236 4.10137 0
M  V30 1009 C 90.1482 -2.46882 4.74293 0
M  V30 1010 C 91.4482 -0.333697 5.21233 0
M  V30 1011 H 93.1422 0.087013 2.99274 0
M  V30 1012 H 90.6882 0.0432893 1.43935 0
M  V30 1013 H 92.6412 -2.28795 3.5388 0
M  V30 1014 H 91.3652 -2.32216 2.29659 0
M  V30 1015 H 90.0242 -0.64165 3.60941 0
M  V30 1016 H 89.6722 -3.09165 3.96769 0
M  V30 1017 H 89.3722 -2.16825 5.46133 0
M  V30 1018 H 90.8962 -3.08117 5.27159 0
M  V30 1019 H 92.3102 -0.845013 5.67038 0
M  V30 1020 H 90.7072 -0.125612 5.99969 0
M  V30 1021 H 91.7772 0.633724 4.80741 0
M  V30 1022 N 93.1203 -1.57491 0.0584922 0
M  V30 1023 C 94.0503 -2.14988 -0.911178 0
M  V30 1024 C 95.0313 -1.07343 -1.31952 0
M  V30 1025 O 96.2163 -1.35318 -1.39294 0
M  V30 1026 C 93.3463 -2.70078 -2.18347 0
M  V30 1027 C 92.3003 -3.82771 -1.91495 0
M  V30 1028 C 91.6263 -4.24408 -3.25241 0
M  V30 1029 C 92.9263 -5.07592 -1.23075 0
M  V30 1030 H 94.6203 -2.96263 -0.432246 0
M  V30 1031 H 92.1663 -1.42512 -0.206469 0
M  V30 1032 H 94.1193 -3.08943 -2.86587 0
M  V30 1033 H 92.8433 -1.86005 -2.68458 0
M  V30 1034 H 91.5023 -3.44389 -1.25664 0
M  V30 1035 H 91.1503 -3.37275 -3.73168 0
M  V30 1036 H 90.8503 -5.00366 -3.08071 0
M  V30 1037 H 92.3743 -4.65879 -3.94701 0
M  V30 1038 H 93.7883 -5.43857 -1.81362 0
M  V30 1039 H 92.1853 -5.88741 -1.16207 0
M  V30 1040 H 93.2553 -4.84454 -0.207847 0
M  V30 1041 N 94.5984 0.214957 -1.56127 0
M  V30 1042 C 95.5614 1.24997 -1.92116 0
M  V30 1043 C 96.5614 1.39467 -0.800344 0
M  V30 1044 O 97.7514 1.37619 -1.06802 0
M  V30 1045 C 94.8834 2.62271 -2.17777 0
M  V30 1046 H 96.0764 0.942875 -2.84693 0
M  V30 1047 H 93.6294 0.455654 -1.49511 0
M  V30 1048 H 94.3644 2.98068 -1.27773 0
M  V30 1049 H 94.1494 2.53143 -2.99434 0
M  V30 1050 H 95.6394 3.36946 -2.46693 0
M  V30 1051 N 96.0765 1.50051 0.48192 0
M  V30 1052 C 97.3225 1.61706 1.2338 0
M  V30 1053 C 97.6775 0.308488 1.89911 0
M  V30 1054 O 96.9705 -0.692798 1.78636 0
M  V30 1055 C 97.1645 2.72717 2.30998 0
M  V30 1056 C 96.9935 4.14242 1.75024 0
M  V30 1057 C 95.7635 4.80786 1.55476 0
M  V30 1058 C 97.9615 4.98846 1.25128 0
M  V30 1059 N 95.9435 6.06563 0.946311 0
M  V30 1060 C 97.3145 6.15258 0.765382 0
M  V30 1061 C 99.3695 4.84702 1.13881 0
M  V30 1062 C 98.0725 7.19079 0.178113 0
M  V30 1063 C 100.098 5.8869 0.565486 0
M  V30 1064 C 99.4605 7.04343 0.0899105 0
M  V30 1065 H 95.5595 0.645958 0.440753 0
M  V30 1066 H 98.1435 1.8713 0.537624 0
M  V30 1067 H 96.3145 2.49033 2.98055 0
M  V30 1068 H 98.0465 2.73789 2.9803 0
M  V30 1069 H 94.8015 4.37899 1.80392 0
M  V30 1070 H 95.2255 6.73767 0.660812 0
M  V30 1071 H 99.8675 3.95583 1.49244 0
M  V30 1072 H 97.5855 8.07882 -0.187749 0
M  V30 1073 H 101.171 5.79808 0.480974 0
M  V30 1074 H 100.051 7.83433 -0.346782 0
M  V30 1075 N 97.5546 -0.734337 1.39446 0
M  V30 1076 C 98.8006 -1.49613 1.36908 0
M  V30 1077 C 99.1336 -1.94169 -0.0347829 0
M  V30 1078 O 98.4086 -1.66833 -0.999847 0
M  V30 1079 C 98.6916 -2.73534 2.34203 0
M  V30 1080 C 98.5446 -2.34993 3.83534 0
M  V30 1081 C 99.8636 -3.75635 2.29317 0
M  V30 1082 H 96.9826 -0.542714 0.498629 0
M  V30 1083 H 99.6246 -0.839597 1.70443 0
M  V30 1084 H 97.7746 -3.29553 2.05736 0
M  V30 1085 H 99.4466 -1.84601 4.22753 0
M  V30 1086 H 97.6896 -1.67213 4.00278 0
M  V30 1087 H 98.3606 -3.23738 4.47099 0
M  V30 1088 H 100.837 -3.29203 2.54489 0
M  V30 1089 H 99.7126 -4.60008 2.99472 0
M  V30 1090 H 99.9736 -4.22603 1.29842 0
M  V30 1091 N 99.0327 -1.24633 -0.964593 0
M  V30 1092 C 99.9807 -1.03917 -2.08096 0
M  V30 1093 C 100.975 0.0268581 -1.69379 0
M  V30 1094 O 102.181 -0.127952 -1.79545 0
M  V30 1095 H 98.5557 -0.319044 -0.680966 0
M  V30 1096 H 100.527 -1.98581 -2.22729 0
M  V30 1097 C 99.2757 -0.663983 -3.41301 0
M  V30 1098 H 98.5987 -1.47605 -3.71555 0
M  V30 1099 H 100.039 -0.558663 -4.20303 0
M  V30 1100 C 98.4977 0.629169 -3.30973 0
M  V30 1101 O 99.0277 1.67404 -3.65156 0
M  V30 1102 N 97.2337 0.611057 -2.84103 0
M  V30 1103 H 96.7807 -0.239593 -2.56483 0
M  V30 1104 H 96.7387 1.47647 -2.77575 0
M  V30 1105 N 100.511 1.16574 -1.06058 0
M  V30 1106 C 101.459 2.22941 -0.663343 0
M  V30 1107 C 102.453 1.66358 0.319593 0
M  V30 1108 O 103.659 1.7905 0.184713 0
M  V30 1109 H 100.034 0.725907 -0.196376 0
M  V30 1110 H 102.005 2.53736 -1.57037 0
M  V30 1111 C 100.754 3.47642 -0.0632808 0
M  V30 1112 H 100.077 3.91493 -0.810733 0
M  V30 1113 H 101.517 4.2363 0.177177 0
M  V30 1114 C 99.9758 3.1509 1.19248 0
M  V30 1115 O 100.506 3.30673 2.28075 0
M  V30 1116 N 98.7118 2.6924 1.09353 0
M  V30 1117 H 98.2588 2.5676 0.207912 0
M  V30 1118 H 98.2168 2.47833 1.93458 0
M  V30 1119 N 101.989 0.842826 1.3317 0
M  V30 1120 C 103.235 0.450342 1.98352 0
M  V30 1121 C 103.59 -0.980508 1.65541 0
M  V30 1122 O 102.883 -1.67678 0.927065 0
M  V30 1123 C 103.077 0.612607 3.52111 0
M  V30 1124 C 102.906 2.05768 3.99862 0
M  V30 1125 C 101.676 2.69374 4.27511 0
M  V30 1126 C 103.874 3.02688 4.15794 0
M  V30 1127 N 101.856 4.04915 4.61429 0
M  V30 1128 C 103.227 4.23186 4.53115 0
M  V30 1129 C 105.282 2.99041 3.98094 0
M  V30 1130 C 103.985 5.40518 4.74587 0
M  V30 1131 C 106.011 4.15607 4.20743 0
M  V30 1132 C 105.373 5.3486 4.58371 0
M  V30 1133 H 101.472 0.213296 0.752349 0
M  V30 1134 H 104.056 1.09173 1.61212 0
M  V30 1135 H 102.227 0.000998822 3.884 0
M  V30 1136 H 103.959 0.191179 4.04248 0
M  V30 1137 H 100.714 2.20485 4.19146 0
M  V30 1138 H 101.138 4.74798 4.82593 0
M  V30 1139 H 105.78 2.0797 3.68114 0
M  V30 1140 H 103.498 6.3213 5.03425 0
M  V30 1141 H 107.084 4.14207 4.08563 0
M  V30 1142 H 105.964 6.23558 4.75547 0
M  V30 1143 N 103.467 -1.45747 0.599634 0
M  V30 1144 C 104.397 -2.33235 -0.111306 0
M  V30 1145 C 105.378 -1.46359 -0.866781 0
M  V30 1146 O 106.563 -1.75146 -0.838904 0
M  V30 1147 C 103.693 -3.28932 -1.11451 0
M  V30 1148 C 102.647 -4.25381 -0.472772 0
M  V30 1149 C 101.973 -5.1071 -1.58365 0
M  V30 1150 C 103.273 -5.18831 0.600948 0
M  V30 1151 H 104.967 -2.92927 0.61919 0
M  V30 1152 H 102.513 -1.40857 0.299215 0
M  V30 1153 H 104.466 -3.89002 -1.62036 0
M  V30 1154 H 103.19 -2.67381 -1.8755 0
M  V30 1155 H 101.849 -3.66598 0.0121472 0
M  V30 1156 H 101.497 -4.45533 -2.33473 0
M  V30 1157 H 101.197 -5.7604 -1.15982 0
M  V30 1158 H 102.721 -5.73647 -2.09194 0
M  V30 1159 H 104.135 -5.73019 0.179491 0
M  V30 1160 H 102.532 -5.92595 0.946076 0
M  V30 1161 H 103.602 -4.6174 1.48068 0
M  V30 1162 N 104.945 -0.338344 -1.53925 0
M  V30 1163 C 105.908 0.508299 -2.23493 0
M  V30 1164 C 106.908 1.03175 -1.23335 0
M  V30 1165 O 108.098 0.921826 -1.47811 0
M  V30 1166 C 105.23 1.70754 -2.95052 0
M  V30 1167 H 106.423 -0.100058 -2.99733 0
M  V30 1168 H 103.976 -0.0896198 -1.56043 0
M  V30 1169 H 104.711 2.35474 -2.22986 0
M  V30 1170 H 104.496 1.33946 -3.68512 0
M  V30 1171 H 105.986 2.30818 -3.48013 0
M  V30 1172 N 106.423 1.57458 -0.0668435 0
M  V30 1173 C 107.671 1.92919 0.602214 0
M  V30 1174 C 107.992 0.947215 1.70449 0
M  V30 1175 O 107.262 -0.00544117 1.95899 0
M  V30 1176 H 105.842 0.71217 0.22544 0
M  V30 1177 H 108.504 1.94508 -0.123535 0
M  V30 1178 H 107.6 2.94589 1.03073 0
M  V30 1179 N 107.901 -0.206675 1.56239 0
M  V30 1180 C 109.178 -0.954051 1.70755 0
M  V30 1181 C 109.558 -2.01841 0.618353 0
M  V30 1182 O 108.906 -2.25444 -0.372434 0
M  V30 1183 C 109.116 -1.551 3.12642 0
M  V30 1184 C 110.464 -2.03757 3.72516 0
M  V30 1185 O 111.488 -1.64965 3.15698 0
M  V30 1186 O 110.347 -2.75103 4.72208 0
M  V30 1187 H 107.441 -0.446636 0.696021 0
M  V30 1188 H 109.987 -0.197283 1.68549 0
M  V30 1189 H 108.759 -0.783212 3.83382 0
M  V30 1190 H 108.382 -2.37291 3.19028 0
M  V30 1191 N 109.379 -1.50304 -0.473955 0
M  V30 1192 C 110.619 -1.62786 -1.23612 0
M  V30 1193 C 110.983 -0.319786 -1.89318 0
M  V30 1194 O 112.184 -0.320012 -2.66888 0
M  V30 1195 C 110.455 -2.77351 -2.25414 0
M  V30 1196 S 112.014 -3.09948 -3.10608 0
M  V30 1197 H 108.832 -0.573895 -0.419721 0
M  V30 1198 H 111.434 -1.88076 -0.533623 0
M  V30 1199 H 110.138 -3.70879 -1.75719 0
M  V30 1200 H 109.669 -2.54137 -3.00296 0
M  V30 1201 H 111.684 -2.53553 -4.26527 0
M  V30 1202 N 110.857 0.726932 -1.39834 0
M  V30 1203 C 111.767 1.87131 -1.41489 0
M  V30 1204 C 112.783 1.71239 -0.308757 0
M  V30 1205 O 113.959 1.93701 -0.551529 0
M  V30 1206 C 111.024 3.22811 -1.26468 0
M  V30 1207 C 110.085 3.51039 -2.47124 0
M  V30 1208 C 109.318 4.80245 -2.3281 0
M  V30 1209 O 109.541 5.54537 -1.33585 0
M  V30 1210 O 108.475 5.08554 -3.21957 0
M  V30 1211 H 112.301 1.8869 -2.3797 0
M  V30 1212 H 109.886 0.875837 -1.21035 0
M  V30 1213 H 111.768 4.03877 -1.20255 0
M  V30 1214 H 110.443 3.22005 -0.330862 0
M  V30 1215 H 109.35 2.70027 -2.58914 0
M  V30 1216 H 110.683 3.56632 -3.39227 0
M  V30 1217 N 112.336 1.25143 0.95797 0
M  V30 1218 C 113.266 1.07711 2.07173 0
M  V30 1219 C 114.247 -0.0128462 1.70095 0
M  V30 1220 O 115.432 0.156061 1.93572 0
M  V30 1221 C 112.562 0.691503 3.40346 0
M  V30 1222 C 111.516 1.73132 3.9142 0
M  V30 1223 C 110.842 1.20049 5.21049 0
M  V30 1224 C 112.142 3.1294 4.1817 0
M  V30 1225 H 113.836 2.00873 2.22014 0
M  V30 1226 H 111.382 0.967191 1.06684 0
M  V30 1227 H 113.335 0.556505 4.17709 0
M  V30 1228 H 112.059 -0.275819 3.25433 0
M  V30 1229 H 110.718 1.8547 3.16222 0
M  V30 1230 H 110.366 0.223499 5.02503 0
M  V30 1231 H 110.066 1.89545 5.56189 0
M  V30 1232 H 111.59 1.07782 6.01012 0
M  V30 1233 H 113.004 3.03775 4.86203 0
M  V30 1234 H 111.401 3.79875 4.64559 0
M  V30 1235 H 112.471 3.6025 3.24573 0
M  V30 1236 N 113.814 -1.1601 1.06675 0
M  V30 1237 C 115.225 -1.68235 0.809565 0
M  V30 1238 C 115.576 -1.8454 -0.666303 0
M  V30 1239 O 114.701 -1.54374 -1.5165 0
M  V30 1240 C 115.296 -3.05585 1.46299 0
M  V30 1241 C 113.855 -3.54915 1.25349 0
M  V30 1242 C 113.002 -2.30804 1.53703 0
M  V30 1243 H 115.953 -1.00318 1.22971 0
M  V30 1244 H 115.974 -3.70174 0.880431 0
M  V30 1245 H 115.486 -2.93686 2.53713 0
M  V30 1246 H 113.587 -3.72067 0.199261 0
M  V30 1247 H 113.7 -4.36774 1.9689 0
M  V30 1248 H 112.064 -2.36007 0.957739 0
M  V30 1249 H 112.847 -2.21499 2.62284 0
M  V30 1250 N 115.292 -0.849877 -1.32721 0
M  V30 1251 C 116.224 -0.248332 -2.27851 0
M  V30 1252 C 117.237 0.577218 -1.52224 0
M  V30 1253 O 118.426 0.402489 -1.73903 0
M  V30 1254 C 115.526 0.668107 -3.32249 0
M  V30 1255 C 114.699 -0.120534 -4.37234 0
M  V30 1256 C 113.758 0.720932 -5.21238 0
M  V30 1257 O 112.784 0.156166 -5.68986 0
M  V30 1258 N 113.986 2.03647 -5.43607 0
M  V30 1259 H 116.751 -1.06575 -2.80111 0
M  V30 1260 H 114.312 -0.709395 -1.45531 0
M  V30 1261 H 116.304 1.23627 -3.85355 0
M  V30 1262 H 114.874 1.38621 -2.80184 0
M  V30 1263 H 114.094 -0.870108 -3.84477 0
M  V30 1264 H 115.382 -0.662406 -5.0447 0
M  V30 1265 H 114.78 2.51871 -5.06535 0
M  V30 1266 H 113.337 2.55287 -5.99727 0
M  V30 1267 N 116.77 1.45427 -0.607355 0
M  V30 1268 C 117.703 2.27635 0.160482 0
M  V30 1269 C 118.681 1.37122 0.873857 0
M  V30 1270 O 119.865 1.66551 0.882775 0
M  V30 1271 C 116.992 3.15486 1.23231 0
M  V30 1272 C 116.038 4.21939 0.622097 0
M  V30 1273 S 116.871 5.32459 -0.569852 0
M  V30 1274 C 118.027 6.23879 0.502577 0
M  V30 1275 H 118.26 2.9241 -0.536983 0
M  V30 1276 H 115.793 1.49265 -0.394868 0
M  V30 1277 H 117.751 3.66659 1.84585 0
M  V30 1278 H 116.412 2.49977 1.90185 0
M  V30 1279 H 115.605 4.8333 1.42856 0
M  V30 1280 H 115.207 3.73906 0.0837063 0
M  V30 1281 H 117.499 6.63261 1.38171 0
M  V30 1282 H 118.442 7.0806 -0.0751759 0
M  V30 1283 H 118.85 5.58545 0.8178 0
M  V30 1284 N 118.248 0.346503 1.53744 0
M  V30 1285 C 119.659 -0.136779 1.86198 0
M  V30 1286 C 120.01 -1.49749 1.26766 0
M  V30 1287 O 119.135 -2.08417 0.582355 0
M  V30 1288 C 119.73 -0.254966 3.37839 0
M  V30 1289 C 118.289 -0.682482 3.70161 0
M  V30 1290 C 117.436 0.181981 2.76702 0
M  V30 1291 H 120.387 0.565994 1.48264 0
M  V30 1292 H 120.408 -1.08195 3.64793 0
M  V30 1293 H 119.92 0.735526 3.81066 0
M  V30 1294 H 118.021 -1.68189 3.3248 0
M  V30 1295 H 118.134 -0.470326 4.76786 0
M  V30 1296 H 116.498 -0.34615 2.52337 0
M  V30 1297 H 117.281 1.16966 3.2276 0
M  V30 1298 N 119.726 -1.57421 0.075193 0
M  V30 1299 C 120.951 -1.98364 -0.605515 0
M  V30 1300 C 121.376 -0.953383 -1.62149 0
M  V30 1301 O 120.734 0.0806053 -1.81121 0
M  V30 1302 C 120.782 -3.38332 -1.24756 0
M  V30 1303 O 119.886 -3.37959 -2.36342 0
M  V30 1304 H 119.227 -0.645553 -0.155428 0
M  V30 1305 H 121.757 -2.04044 0.150714 0
M  V30 1306 H 121.767 -3.75591 -1.5936 0
M  V30 1307 H 120.442 -4.12846 -0.503129 0
M  V30 1308 H 119.019 -3.12474 -2.03506 0
M  V30 1309 N 121.204 0.198386 -1.56346 0
M  V30 1310 C 122.45 0.920648 -1.80698 0
M  V30 1311 C 122.783 1.83045 -0.648697 0
M  V30 1312 O 122.058 1.91308 0.350925 0
M  V30 1313 C 122.341 1.73971 -3.15287 0
M  V30 1314 C 122.194 0.85485 -4.41602 0
M  V30 1315 C 123.513 2.71296 -3.46535 0
M  V30 1316 H 120.632 0.333261 -0.657348 0
M  V30 1317 H 123.274 0.188198 -1.89066 0
M  V30 1318 H 121.424 2.36416 -3.08285 0
M  V30 1319 H 123.096 0.245362 -4.60647 0
M  V30 1320 H 121.339 0.161398 -4.335 0
M  V30 1321 H 122.01 1.46286 -5.32264 0
M  V30 1322 H 124.486 2.18983 -3.53816 0
M  V30 1323 H 123.362 3.2569 -4.41834 0
M  V30 1324 H 123.623 3.5018 -2.69864 0
M  V30 1325 N 122.682 1.50554 0.465978 0
M  V30 1326 C 123.645 1.69233 1.54574 0
M  V30 1327 C 124.645 0.562901 1.50626 0
M  V30 1328 O 125.835 0.830016 1.53155 0
M  V30 1329 C 122.967 1.7223 2.94193 0
M  V30 1330 H 124.16 2.65571 1.39327 0
M  V30 1331 H 121.713 1.40111 0.692711 0
M  V30 1332 H 122.448 0.77603 3.14878 0
M  V30 1333 H 122.233 2.54285 2.98466 0
M  V30 1334 H 123.723 1.88618 3.72576 0
M  V30 1335 N 124.16 -0.719506 1.40217 0
M  V30 1336 C 125.407 -1.47933 1.38283 0
M  V30 1337 C 125.735 -1.94493 -0.0161536 0
M  V30 1338 O 124.99 -1.68224 -0.999956 0
M  V30 1339 C 125.289 -2.72271 2.31524 0
M  V30 1340 C 124.955 -2.44496 3.78857 0
M  V30 1341 C 123.617 -2.36631 4.18998 0
M  V30 1342 C 125.969 -2.21104 4.71977 0
M  V30 1343 C 123.297 -2.03437 5.503 0
M  V30 1344 C 125.649 -1.89423 6.03574 0
M  V30 1345 C 124.313 -1.80038 6.42762 0
M  V30 1346 H 123.583 -0.541325 0.506012 0
M  V30 1347 H 126.23 -0.824502 1.72842 0
M  V30 1348 H 124.535 -3.42572 1.90137 0
M  V30 1349 H 126.232 -3.30348 2.27313 0
M  V30 1350 H 122.822 -2.51503 3.47051 0
M  V30 1351 H 127.006 -2.26139 4.41786 0
M  V30 1352 H 122.262 -1.94705 5.79569 0
M  V30 1353 H 126.436 -1.70336 6.75247 0
M  V30 1354 H 124.063 -1.54083 7.44421 0
M  V30 1355 N 125.638 -1.25649 -0.95132 0
M  V30 1356 C 126.886 -1.10375 -1.69298 0
M  V30 1357 C 127.207 0.355339 -1.91735 0
M  V30 1358 O 126.477 1.25188 -1.50681 0
M  V30 1359 H 125.057 -0.405461 -0.627384 0
M  V30 1360 H 127.719 -1.57823 -1.14358 0
M  V30 1361 H 126.815 -1.61465 -2.67087 0
M  V30 1362 N 127.117 1.15442 -1.07289 0
M  V30 1363 C 128.363 1.86489 -0.796846 0
M  V30 1364 C 128.696 1.82078 0.675371 0
M  V30 1365 O 127.971 1.24346 1.4956 0
M  V30 1366 C 128.254 3.35626 -1.30489 0
M  V30 1367 C 128.107 3.48673 -2.84161 0
M  V30 1368 C 129.426 4.30357 -0.920907 0
M  V30 1369 H 126.545 0.677144 -0.290939 0
M  V30 1370 H 129.187 1.35633 -1.33056 0
M  V30 1371 H 127.337 3.79068 -0.850883 0
M  V30 1372 H 129.009 3.14099 -3.37846 0
M  V30 1373 H 127.252 2.90253 -3.22391 0
M  V30 1374 H 127.923 4.53453 -3.14777 0
M  V30 1375 H 130.399 3.94871 -1.3121 0
M  V30 1376 H 129.275 5.33193 -1.30372 0
M  V30 1377 H 129.536 4.4176 0.173226 0
M  V30 1378 N 128.595 0.856903 1.32268 0
M  V30 1379 C 129.82 0.474569 2.01897 0
M  V30 1380 C 130.245 -0.921766 1.63967 0
M  V30 1381 O 129.603 -1.60589 0.84148 0
M  V30 1382 C 129.651 0.623799 3.55164 0
M  V30 1383 O 128.755 -0.342459 4.10976 0
M  V30 1384 H 128.096 0.190422 0.63611 0
M  V30 1385 H 130.626 1.15672 1.68764 0
M  V30 1386 H 130.636 0.512169 4.04773 0
M  V30 1387 H 129.311 1.64202 3.82113 0
M  V30 1388 H 127.888 -0.18688 3.72431 0
M  V30 1389 N 130.073 -1.45103 0.615059 0
M  V30 1390 C 131.313 -2.04069 0.116282 0
M  V30 1391 C 131.677 -1.4721 -1.2326 0
M  V30 1392 O 132.878 -1.97577 -1.82255 0
M  V30 1393 C 131.149 -3.57298 0.085482 0
M  V30 1394 S 132.708 -4.37394 -0.351015 0
M  V30 1395 H 129.526 -0.709006 0.0532183 0
M  V30 1396 H 132.128 -1.77709 0.81484 0
M  V30 1397 H 130.832 -3.9619 1.0706 0
M  V30 1398 H 130.363 -3.88244 -0.634835 0
M  V30 1399 H 132.378 -4.69734 -1.59889 0
M  V30 1400 N 131.551 -0.354651 -1.53558 0
M  V30 1401 C 132.514 0.484566 -2.24019 0
M  V30 1402 C 133.514 1.01861 -1.24422 0
M  V30 1403 O 134.704 0.906097 -1.4878 0
M  V30 1404 C 131.836 1.67615 -2.96847 0
M  V30 1405 H 133.029 -0.131843 -2.9961 0
M  V30 1406 H 130.582 -0.106165 -1.55939 0
M  V30 1407 H 131.317 2.33095 -2.25471 0
M  V30 1408 H 131.102 1.30029 -3.69912 0
M  V30 1409 H 132.592 2.27114 -3.50441 0
M  V30 1410 N 133.029 1.57378 -0.0835403 0
M  V30 1411 C 133.959 2.1641 0.87686 0
M  V30 1412 C 134.94 1.09429 1.30228 0
M  V30 1413 O 136.125 1.37516 1.37124 0
M  V30 1414 C 133.255 2.73517 2.14022 0
M  V30 1415 C 132.209 3.85769 1.85381 0
M  V30 1416 C 131.535 4.29529 3.18448 0
M  V30 1417 C 132.835 5.09486 1.14984 0
M  V30 1418 H 134.529 2.96914 0.385059 0
M  V30 1419 H 132.075 1.42823 0.18377 0
M  V30 1420 H 134.028 3.13463 2.81636 0
M  V30 1421 H 132.752 1.90252 2.65465 0
M  V30 1422 H 131.411 3.46345 1.20169 0
M  V30 1423 H 131.059 3.43169 3.67755 0
M  V30 1424 H 130.759 5.05204 3.00071 0
M  V30 1425 H 132.283 4.72099 3.8724 0
M  V30 1426 H 133.697 5.46674 1.72687 0
M  V30 1427 H 132.094 5.90515 1.06826 0
M  V30 1428 H 133.164 4.84724 0.130749 0
M  V30 1429 N 134.507 -0.190092 1.56449 0
M  V30 1430 C 135.47 -1.21925 1.9408 0
M  V30 1431 C 136.47 -1.38176 0.822431 0
M  V30 1432 O 137.66 -1.35903 1.08977 0
M  V30 1433 C 134.792 -2.58773 2.21922 0
M  V30 1434 H 135.985 -0.897464 2.86157 0
M  V30 1435 H 133.538 -0.43181 1.50217 0
M  V30 1436 H 134.273 -2.95998 1.32499 0
M  V30 1437 H 134.058 -2.48348 3.03424 0
M  V30 1438 H 135.548 -3.32978 2.52022 0
M  V30 1439 N 135.985 -1.50799 -0.457987 0
M  V30 1440 C 136.895 -1.73426 -1.57989 0
M  V30 1441 C 137.911 -0.617745 -1.62665 0
M  V30 1442 O 139.087 -0.897614 -1.80291 0
M  V30 1443 C 136.152 -1.83557 -2.94122 0
M  V30 1444 C 135.213 -3.07345 -2.99729 0
M  V30 1445 C 134.446 -3.16983 -4.29368 0
M  V30 1446 O 134.669 -2.33077 -5.20607 0
M  V30 1447 O 133.603 -4.09812 -4.40837 0
M  V30 1448 H 137.429 -2.68555 -1.41817 0
M  V30 1449 H 135.014 -1.35052 -0.638859 0
M  V30 1450 H 136.896 -1.92326 -3.74952 0
M  V30 1451 H 135.571 -0.916137 -3.10465 0
M  V30 1452 H 134.478 -3.04068 -2.1793 0
M  V30 1453 H 135.811 -3.9891 -2.88326 0
M  V30 1454 N 137.463 0.71206 -1.40597 0
M  V30 1455 C 138.393 1.83889 -1.43899 0
M  V30 1456 C 139.374 1.67442 -0.299504 0
M  V30 1457 O 140.559 1.87421 -0.508624 0
M  V30 1458 C 137.689 3.21877 -1.30431 0
M  V30 1459 C 136.643 3.53002 -2.42019 0
M  V30 1460 C 135.969 4.90172 -2.13626 0
M  V30 1461 C 137.269 3.53643 -3.84362 0
M  V30 1462 H 138.963 1.81383 -2.38203 0
M  V30 1463 H 136.509 0.871237 -1.14654 0
M  V30 1464 H 138.462 4.00404 -1.31357 0
M  V30 1465 H 137.186 3.24968 -0.326049 0
M  V30 1466 H 135.845 2.76818 -2.40349 0
M  V30 1467 H 135.493 4.89869 -1.14182 0
M  V30 1468 H 135.193 5.11962 -2.88389 0
M  V30 1469 H 136.717 5.71028 -2.1624 0
M  V30 1470 H 138.131 4.22203 -3.87837 0
M  V30 1471 H 136.528 3.86961 -4.58673 0
M  V30 1472 H 137.598 2.52954 -4.13693 0
M  V30 1473 N 138.941 1.26152 0.944643 0
M  V30 1474 C 140.169 1.14259 1.72489 0
M  V30 1475 C 140.584 -0.302555 1.8636 0
M  V30 1476 O 139.941 -1.20741 1.36849 0
M  V30 1477 C 139.992 1.80266 3.13347 0
M  V30 1478 O 139.713 3.19133 3.00143 0
M  V30 1479 C 141.214 1.74283 4.07603 0
M  V30 1480 H 138.434 0.398051 0.540181 0
M  V30 1481 H 140.978 1.66706 1.18446 0
M  V30 1482 H 139.133 1.31766 3.64303 0
M  V30 1483 H 139.547 3.51744 3.89071 0
M  V30 1484 H 141.021 2.25111 5.04013 0
M  V30 1485 H 141.498 0.708631 4.33446 0
M  V30 1486 H 142.104 2.22319 3.62567 0
M  V30 1487 N 140.419 -1.14872 1.07899 0
M  V30 1488 C 141.696 -1.81928 0.71845 0
M  V30 1489 C 142.076 -1.95417 -0.798455 0
M  V30 1490 O 141.424 -1.50997 -1.715 0
M  V30 1491 C 141.634 -3.17937 1.43935 0
M  V30 1492 C 142.982 -3.93501 1.59506 0
M  V30 1493 O 144.006 -3.27509 1.40058 0
M  V30 1494 O 142.865 -5.1183 1.91551 0
M  V30 1495 H 139.959 -0.78628 0.256305 0
M  V30 1496 H 142.505 -1.21934 1.18026 0
M  V30 1497 H 141.277 -3.0325 2.47295 0
M  V30 1498 H 140.9 -3.85619 0.968687 0
M  V30 1499 N 141.898 -0.863906 -1.31812 0
M  V30 1500 C 143.126 -0.486111 -2.01108 0
M  V30 1501 C 143.541 0.919755 -1.64882 0
M  V30 1502 O 142.898 1.60162 -0.874893 0
M  V30 1503 C 142.949 -0.626435 -3.56031 0
M  V30 1504 O 142.67 -1.97693 -3.90959 0
M  V30 1505 C 144.171 -0.248857 -4.42601 0
M  V30 1506 H 141.391 -0.190052 -0.643523 0
M  V30 1507 H 143.935 -1.1634 -1.68182 0
M  V30 1508 H 142.09 0.00322717 -3.874 0
M  V30 1509 H 142.504 -1.98034 -4.85678 0
M  V30 1510 H 143.978 -0.398016 -5.50563 0
M  V30 1511 H 144.455 0.811489 -4.31638 0
M  V30 1512 H 145.061 -0.853971 -4.16638 0
M  V30 1513 N 143.376 1.44774 -0.622745 0
M  V30 1514 C 144.306 2.33382 0.0741861 0
M  V30 1515 C 145.287 1.47719 0.843387 0
M  V30 1516 O 146.472 1.76458 0.810934 0
M  V30 1517 C 143.602 3.30663 1.06204 0
M  V30 1518 C 142.556 4.26079 0.405037 0
M  V30 1519 C 141.882 5.13165 1.5022 0
M  V30 1520 C 143.182 5.1781 -0.683414 0
M  V30 1521 H 144.876 2.91905 -0.665713 0
M  V30 1522 H 142.422 1.40363 -0.321587 0
M  V30 1523 H 144.375 3.9153 1.55827 0
M  V30 1524 H 143.099 2.70331 1.83272 0
M  V30 1525 H 141.758 3.66532 -0.0704683 0
M  V30 1526 H 141.406 4.49191 2.26355 0
M  V30 1527 H 141.106 5.77812 1.06803 0
M  V30 1528 H 142.63 5.76902 2.00041 0
M  V30 1529 H 144.044 5.72661 -0.270631 0
M  V30 1530 H 142.441 5.91015 -1.04023 0
M  V30 1531 H 143.511 4.59326 -1.55395 0
M  V30 1532 N 144.854 0.36279 1.53368 0
M  V30 1533 C 146.265 -0.117022 1.86333 0
M  V30 1534 C 146.616 -1.48397 1.28347 0
M  V30 1535 O 145.741 -2.07787 0.604428 0
M  V30 1536 C 146.336 -0.21912 3.38091 0
M  V30 1537 C 144.895 -0.643184 3.70864 0
M  V30 1538 C 144.042 0.211318 2.76494 0
M  V30 1539 H 146.993 0.581687 1.47655 0
M  V30 1540 H 147.014 -1.04319 3.6592 0
M  V30 1541 H 146.526 0.775902 3.80265 0
M  V30 1542 H 144.627 -1.64654 3.34245 0
M  V30 1543 H 144.74 -0.41973 4.77258 0
M  V30 1544 H 143.104 -0.319367 2.5269 0
M  V30 1545 H 143.887 1.20383 3.21501 0
M  V30 1546 N 146.332 -1.57332 0.0918853 0
M  V30 1547 C 147.264 -2.10869 -0.898168 0
M  V30 1548 C 148.277 -1.04521 -1.24817 0
M  V30 1549 O 149.466 -1.31977 -1.20184 0
M  V30 1550 C 146.566 -2.57083 -2.2082 0
M  V30 1551 C 145.739 -3.87229 -2.03402 0
M  V30 1552 C 144.798 -4.19324 -3.17889 0
M  V30 1553 O 143.824 -4.88598 -2.91994 0
M  V30 1554 N 145.026 -3.74471 -4.43567 0
M  V30 1555 H 147.791 -2.96439 -0.440943 0
M  V30 1556 H 145.352 -1.61631 -0.0933064 0
M  V30 1557 H 147.344 -2.75602 -2.96354 0
M  V30 1558 H 145.914 -1.76541 -2.57977 0
M  V30 1559 H 145.134 -3.7789 -1.12218 0
M  V30 1560 H 146.422 -4.72379 -1.89038 0
M  V30 1561 H 145.82 -3.18546 -4.67488 0
M  V30 1562 H 144.377 -3.98151 -5.16061 0
M  V30 1563 N 147.81 0.181792 -1.56548 0
M  V30 1564 C 148.773 1.20894 -1.94724 0
M  V30 1565 C 149.773 1.37738 -0.829747 0
M  V30 1566 O 150.963 1.35323 -1.09697 0
M  V30 1567 C 148.095 2.57593 -2.23291 0
M  V30 1568 H 149.288 0.882275 -2.86629 0
M  V30 1569 H 146.841 0.423838 -1.50444 0
M  V30 1570 H 147.576 2.95291 -1.34067 0
M  V30 1571 H 147.361 2.46735 -3.04736 0
M  V30 1572 H 148.851 3.31637 -2.53785 0
M  V30 1573 N 149.288 1.51039 0.449983 0
M  V30 1574 C 150.251 1.70863 1.5277 0
M  V30 1575 C 151.251 0.578846 1.5002 0
M  V30 1576 O 152.441 0.846213 1.52266 0
M  V30 1577 C 149.573 1.75341 2.9235 0
M  V30 1578 H 150.766 2.67034 1.36502 0
M  V30 1579 H 148.319 1.40838 0.677812 0
M  V30 1580 H 149.054 0.809383 3.14037 0
M  V30 1581 H 148.839 2.57436 2.95752 0
M  V30 1582 H 150.329 1.92559 3.70555 0
M  V30 1583 N 150.766 -0.704594 1.40972 0
M  V30 1584 C 151.714 -1.83994 1.42299 0
M  V30 1585 C 152.708 -1.66684 0.302111 0
M  V30 1586 O 153.914 -1.73655 0.473697 0
M  V30 1587 H 150.289 -0.606171 0.44504 0
M  V30 1588 H 152.26 -1.79992 2.38003 0
M  V30 1589 C 151.009 -3.21946 1.31323 0
M  V30 1590 H 150.332 -3.35878 2.16855 0
M  V30 1591 H 151.772 -4.01491 1.36311 0
M  V30 1592 C 150.231 -3.36891 0.0245977 0
M  V30 1593 O 150.761 -3.90687 -0.934153 0
M  V30 1594 N 148.967 -2.90559 -0.0485243 0
M  V30 1595 H 148.514 -2.46968 0.732419 0
M  V30 1596 H 148.472 -3.00937 -0.910171 0
M  V30 1597 N 152.244 -1.26651 -0.937939 0
M  V30 1598 C 153.474 -1.15006 -1.71631 0
M  V30 1599 C 153.882 0.297026 -1.86854 0
M  V30 1600 O 153.225 1.21493 -1.37786 0
M  V30 1601 C 153.287 -1.74984 -3.14039 0
M  V30 1602 C 152.951 -3.24103 -3.2219 0
M  V30 1603 C 153.948 -4.20877 -3.05219 0
M  V30 1604 C 151.633 -3.64625 -3.45476 0
M  V30 1605 C 153.627 -5.56151 -3.11408 0
M  V30 1606 C 151.314 -5.00032 -3.513 0
M  V30 1607 C 152.312 -5.95604 -3.34282 0
M  V30 1608 O 152 -7.28545 -3.3982 0
M  V30 1609 H 151.732 -0.401183 -0.544085 0
M  V30 1610 H 154.286 -1.67832 -1.18413 0
M  V30 1611 H 152.516 -1.16624 -3.68695 0
M  V30 1612 H 154.205 -1.58199 -3.73802 0
M  V30 1613 H 154.971 -3.90908 -2.87081 0
M  V30 1614 H 150.85 -2.90718 -3.57777 0
M  V30 1615 H 154.394 -6.30727 -2.98043 0
M  V30 1616 H 150.291 -5.29659 -3.68959 0
M  V30 1617 H 151.059 -7.3686 -3.56343 0
M  V30 1618 N 153.722 1.14298 -1.08507 0
M  V30 1619 C 155.138 1.37347 -0.812901 0
M  V30 1620 C 155.338 1.93052 0.577325 0
M  V30 1621 O 154.394 2.14389 1.33393 0
M  V30 1622 C 155.707 2.33359 -1.89642 0
M  V30 1623 C 157.255 2.46996 -1.92255 0
M  V30 1624 C 157.73 3.46309 -2.99724 0
M  V30 1625 N 159.221 3.53853 -2.98902 0
M  V30 1626 C 159.956 4.3055 -3.787 0
M  V30 1627 N 159.452 5.10482 -4.6838 0
M  V30 1628 N 161.245 4.25757 -3.66998 0
M  V30 1629 H 153.396 0.764867 -1.9815 0
M  V30 1630 H 155.659 0.398966 -0.859959 0
M  V30 1631 H 155.365 1.99565 -2.89597 0
M  V30 1632 H 155.239 3.33274 -1.76659 0
M  V30 1633 H 157.626 2.80081 -0.929445 0
M  V30 1634 H 157.707 1.47039 -2.09316 0
M  V30 1635 H 157.351 3.13957 -3.99241 0
M  V30 1636 H 157.281 4.46049 -2.79907 0
M  V30 1637 H 159.772 2.96812 -2.33904 0
M  V30 1638 H 160.085 5.66284 -5.25873 0
M  V30 1639 H 158.43 5.09747 -4.72422 0
M  V30 1640 H 161.621 3.62383 -2.96304 0
M  V30 1641 H 161.794 4.85279 -4.29427 0
M  V30 1642 N 155.201 0.870884 1.31352 0
M  V30 1643 C 156.164 0.332243 2.26779 0
M  V30 1644 C 157.164 -0.517302 1.52252 0
M  V30 1645 O 158.354 -0.326477 1.71113 0
M  V30 1646 C 155.486 -0.528066 3.36785 0
M  V30 1647 H 156.679 1.17469 2.75937 0
M  V30 1648 H 154.232 0.64655 1.423 0
M  V30 1649 H 154.967 -1.39167 2.92922 0
M  V30 1650 H 154.752 0.0802582 3.92018 0
M  V30 1651 H 156.242 -0.897179 4.07849 0
M  V30 1652 N 156.679 -1.44442 0.630414 0
M  V30 1653 C 157.642 -2.29107 -0.0652523 0
M  V30 1654 C 158.642 -1.41002 -0.772995 0
M  V30 1655 O 159.832 -1.62881 -0.617692 0
M  V30 1656 C 156.964 -3.22564 -1.10296 0
M  V30 1657 H 158.157 -2.92103 0.679401 0
M  V30 1658 H 155.71 -1.51343 0.390517 0
M  V30 1659 H 156.445 -2.64416 -1.87762 0
M  V30 1660 H 156.23 -3.87491 -0.59941 0
M  V30 1661 H 157.72 -3.86167 -1.5895 0
M  V30 1662 N 158.157 -0.370918 -1.53173 0
M  V30 1663 C 159.568 0.107139 -1.86392 0
M  V30 1664 C 159.919 1.47714 -1.29132 0
M  V30 1665 O 159.044 2.07464 -0.615439 0
M  V30 1666 C 159.639 0.201187 -3.38202 0
M  V30 1667 C 158.198 0.623507 -3.712 0
M  V30 1668 C 157.345 -0.225978 -2.76378 0
M  V30 1669 H 160.296 -0.58951 -1.47345 0
M  V30 1670 H 160.317 1.02377 -3.66468 0
M  V30 1671 H 159.829 -0.796058 -3.79848 0
M  V30 1672 H 157.93 1.62879 -3.35114 0
M  V30 1673 H 158.043 0.394414 -4.77474 0
M  V30 1674 H 156.407 0.305962 -2.52856 0
M  V30 1675 H 157.19 -1.22086 -3.20858 0
M  V30 1676 N 159.635 1.57281 -0.100228 0
M  V30 1677 C 160.565 2.17328 0.853857 0
M  V30 1678 C 161.546 1.10804 1.2906 0
M  V30 1679 O 162.731 1.38963 1.35657 0
M  V30 1680 C 159.861 2.75772 2.11109 0
M  V30 1681 C 158.815 3.87713 1.81279 0
M  V30 1682 C 158.141 4.32882 3.13874 0
M  V30 1683 C 159.441 5.10677 1.09574 0
M  V30 1684 H 161.135 2.97305 0.353545 0
M  V30 1685 H 158.681 1.43009 0.168612 0
M  V30 1686 H 160.634 3.16433 2.78296 0
M  V30 1687 H 159.358 1.93057 2.63432 0
M  V30 1688 H 158.017 3.476 1.16489 0
M  V30 1689 H 157.665 3.47051 3.64095 0
M  V30 1690 H 157.365 5.08358 2.94696 0
M  V30 1691 H 158.889 4.7618 3.82211 0
M  V30 1692 H 160.303 5.48474 1.66879 0
M  V30 1693 H 158.7 5.91615 1.00557 0
M  V30 1694 H 159.77 4.84835 0.0793299 0
M  V30 1695 N 161.113 -0.173488 1.56642 0
M  V30 1696 C 162.353 -0.896984 1.83667 0
M  V30 1697 C 162.717 -1.79523 0.680842 0
M  V30 1698 O 163.918 -2.55616 0.831488 0
M  V30 1699 C 162.189 -1.67351 3.15798 0
M  V30 1700 S 163.748 -2.44607 3.64298 0
M  V30 1701 H 160.566 -0.300464 0.644393 0
M  V30 1702 H 163.168 -0.158775 1.94854 0
M  V30 1703 H 161.872 -1.00462 3.97914 0
M  V30 1704 H 161.403 -2.45313 3.07546 0
M  V30 1705 H 163.418 -3.69261 3.31452 0
M  V30 1706 N 162.591 -1.51276 -0.441967 0
M  V30 1707 C 163.539 -1.72823 -1.55676 0
M  V30 1708 C 164.533 -0.59445 -1.58627 0
M  V30 1709 O 165.739 -0.775715 -1.62427 0
M  V30 1710 H 162.114 -0.545983 -0.517113 0
M  V30 1711 H 164.085 -2.6628 -1.34675 0
M  V30 1712 C 162.834 -1.86619 -2.93375 0
M  V30 1713 H 162.157 -2.73264 -2.91834 0
M  V30 1714 H 163.597 -2.05709 -3.70756 0
M  V30 1715 C 162.056 -0.624842 -3.31055 0
M  V30 1716 O 162.586 0.222636 -4.01083 0
M  V30 1717 N 160.792 -0.470288 -2.86769 0
M  V30 1718 H 160.339 -1.161 -2.29953 0
M  V30 1719 H 160.297 0.359051 -3.12343 0
M  V30 1720 N 164.069 0.697108 -1.41344 0
M  V30 1721 C 165.317 1.45426 -1.40341 0
M  V30 1722 C 165.638 1.94996 -0.0128787 0
M  V30 1723 O 164.908 1.71599 0.945027 0
M  V30 1724 H 163.488 0.539594 -0.516573 0
M  V30 1725 H 166.15 0.825201 -1.76569 0
M  V30 1726 H 165.246 2.31817 -2.08967 0
M  V30 1727 N 165.547 1.27147 0.931209 0
M  V30 1728 C 166.824 1.0401 1.65654 0
M  V30 1729 C 167.204 -0.426297 2.06751 0
M  V30 1730 O 166.552 -1.40879 1.79904 0
M  V30 1731 C 166.762 1.99834 2.86125 0
M  V30 1732 C 168.11 2.29007 3.57549 0
M  V30 1733 O 169.134 1.97779 2.96246 0
M  V30 1734 O 167.993 2.82222 4.67989 0
M  V30 1735 H 165.087 0.396239 0.725895 0
M  V30 1736 H 167.633 1.38397 0.982056 0
M  V30 1737 H 166.405 2.98744 2.52721 0
M  V30 1738 H 166.028 1.65987 3.61295 0
M  V30 1739 N 167.025 -1.13721 1.09112 0
M  V30 1740 C 168.436 -1.6648 0.845068 0
M  V30 1741 C 168.787 -1.85911 -0.62701 0
M  V30 1742 O 167.912 -1.57556 -1.48341 0
M  V30 1743 C 168.507 -3.02413 1.52748 0
M  V30 1744 C 167.066 -3.52176 1.32849 0
M  V30 1745 C 166.213 -2.27492 1.58564 0
M  V30 1746 H 169.164 -0.976872 1.25072 0
M  V30 1747 H 169.185 -3.68223 0.958752 0
M  V30 1748 H 168.697 -2.88238 2.59885 0
M  V30 1749 H 166.798 -3.7156 0.278137 0
M  V30 1750 H 166.911 -4.32499 2.0611 0
M  V30 1751 H 165.275 -2.33923 1.00758 0
M  V30 1752 H 166.058 -2.15886 2.66924 0
M  V30 1753 N 168.503 -0.877838 -1.30888 0
M  V30 1754 C 169.78 -0.413052 -1.91189 0
M  V30 1755 C 170.16 1.1056 -1.79832 0
M  V30 1756 O 169.508 1.93771 -1.21099 0
M  V30 1757 C 169.718 -0.903191 -3.3711 0
M  V30 1758 C 171.066 -0.93395 -4.14201 0
M  V30 1759 O 172.09 -0.849373 -3.45925 0
M  V30 1760 O 170.949 -1.05772 -5.36167 0
M  V30 1761 H 168.043 -0.125035 -0.817493 0
M  V30 1762 H 170.589 -0.966269 -1.39504 0
M  V30 1763 H 169.361 -1.94692 -3.39427 0
M  V30 1764 H 168.984 -0.328732 -3.96239 0
M  V30 1765 N 169.982 1.44106 -0.638065 0
M  V30 1766 C 171.259 1.95453 -0.0759321 0
M  V30 1767 C 171.639 1.57984 1.40015 0
M  V30 1768 O 170.987 0.857361 2.11806 0
M  V30 1769 C 171.197 3.47655 -0.306132 0
M  V30 1770 C 172.545 4.24114 -0.203008 0
M  V30 1771 O 173.569 3.55405 -0.237871 0
M  V30 1772 O 172.428 5.46381 -0.113827 0
M  V30 1773 H 169.522 0.826797 0.0183332 0
M  V30 1774 H 172.068 1.54122 -0.710251 0
M  V30 1775 H 170.84 3.68 -1.3301 0
M  V30 1776 H 170.463 3.95949 0.361991 0
M  V30 1777 N 171.46 0.379036 1.52974 0
M  V30 1778 C 172.39 -0.452706 2.29069 0
M  V30 1779 C 173.371 -1.07237 1.32039 0
M  V30 1780 O 174.556 -1.08708 1.60923 0
M  V30 1781 C 171.686 -1.5856 3.08992 0
M  V30 1782 C 170.64 -1.0925 4.13822 0
M  V30 1783 C 169.966 -2.31668 4.81907 0
M  V30 1784 C 171.266 -0.167702 5.22031 0
M  V30 1785 H 172.96 0.182181 2.98845 0
M  V30 1786 H 170.506 0.0890592 1.43724 0
M  V30 1787 H 172.459 -2.1742 3.6098 0
M  V30 1788 H 171.183 -2.24792 2.36931 0
M  V30 1789 H 169.842 -0.526494 3.628 0
M  V30 1790 H 169.49 -2.96386 4.06404 0
M  V30 1791 H 169.19 -1.9934 5.52754 0
M  V30 1792 H 170.714 -2.91189 5.36695 0
M  V30 1793 H 172.128 -0.664186 5.6944 0
M  V30 1794 H 170.525 0.0653265 6.00064 0
M  V30 1795 H 171.595 0.786347 4.78482 0
M  V30 1796 N 172.938 -1.57226 0.108567 0
M  V30 1797 C 174.187 -1.94008 -0.551703 0
M  V30 1798 C 174.5 -0.993442 -1.68494 0
M  V30 1799 O 175.706 -1.25551 -2.40726 0
M  V30 1800 C 174.162 -3.44763 -1.03279 0
M  V30 1801 C 173.77 -4.47943 0.0714193 0
M  V30 1802 C 175.514 -3.90483 -1.66503 0
M  V30 1803 C 173.421 -5.89865 -0.425779 0
M  V30 1804 H 172.351 -0.724206 -0.209863 0
M  V30 1805 H 175.002 -1.82547 0.186741 0
M  V30 1806 H 173.384 -3.51422 -1.82533 0
M  V30 1807 H 174.558 -4.52942 0.847365 0
M  V30 1808 H 172.873 -4.11913 0.609669 0
M  V30 1809 H 175.47 -4.93925 -2.04798 0
M  V30 1810 H 175.813 -3.29877 -2.53942 0
M  V30 1811 H 176.346 -3.86581 -0.938074 0
M  V30 1812 H 173.085 -6.54202 0.412316 0
M  V30 1813 H 172.605 -5.88309 -1.16843 0
M  V30 1814 H 174.284 -6.40844 -0.890397 0
M  V30 1815 N 174.416 0.165178 -1.56732 0
M  V30 1816 C 175.346 1.20651 -1.99914 0
M  V30 1817 C 176.327 1.45827 -0.875705 0
M  V30 1818 O 177.512 1.57057 -1.14223 0
M  V30 1819 C 174.642 2.54401 -2.36427 0
M  V30 1820 C 173.596 2.43782 -3.51787 0
M  V30 1821 C 172.922 3.82078 -3.7406 0
M  V30 1822 C 174.222 1.93732 -4.85041 0
M  V30 1823 H 175.916 0.847534 -2.87154 0
M  V30 1824 H 173.462 0.40625 -1.38151 0
M  V30 1825 H 175.415 3.27458 -2.65234 0
M  V30 1826 H 174.139 2.92098 -1.46103 0
M  V30 1827 H 172.798 1.73178 -3.23117 0
M  V30 1828 H 172.446 4.17179 -2.81017 0
M  V30 1829 H 172.146 3.7584 -4.51684 0
M  V30 1830 H 173.67 4.56712 -4.05274 0
M  V30 1831 H 175.084 2.56569 -5.12684 0
M  V30 1832 H 173.481 1.98428 -5.66345 0
M  V30 1833 H 174.551 0.891962 -4.76626 0
M  V30 1834 N 175.894 1.51508 0.433938 0
M  V30 1835 C 176.841 1.73068 1.52696 0
M  V30 1836 C 177.811 0.572441 1.55924 0
M  V30 1837 O 178.996 0.807253 1.72882 0
M  V30 1838 C 176.136 1.86474 2.90381 0
M  V30 1839 C 175.249 3.14037 2.96656 0
M  V30 1840 C 174.384 3.18019 4.25485 0
M  V30 1841 C 173.423 4.39882 4.2564 0
M  V30 1842 N 172.56 4.41394 5.45999 0
M  V30 1843 H 177.4 2.66366 1.33615 0
M  V30 1844 H 174.937 1.32008 0.649018 0
M  V30 1845 H 176.895 1.92229 3.70275 0
M  V30 1846 H 175.525 0.965809 3.08013 0
M  V30 1847 H 174.577 3.17575 2.09404 0
M  V30 1848 H 175.889 4.0394 2.92633 0
M  V30 1849 H 175.043 3.22708 5.13755 0
M  V30 1850 H 173.782 2.2601 4.3217 0
M  V30 1851 H 172.787 4.35366 3.35763 0
M  V30 1852 H 174.012 5.33159 4.20617 0
M  V30 1853 H 171.958 3.52258 5.53399 0
M  V30 1854 H 171.875 5.25111 5.4387 0
M  V30 1855 H 173.143 4.50281 6.36292 0
M  V30 1856 N 177.372 -0.689602 1.41712 0
M  V30 1857 C 178.302 -1.81577 1.46806 0
M  V30 1858 C 179.283 -1.66945 0.326105 0
M  V30 1859 O 180.468 -1.86588 0.538377 0
M  V30 1860 C 177.598 -3.19762 1.35535 0
M  V30 1861 C 176.552 -3.49107 2.47605 0
M  V30 1862 C 175.878 -4.86711 2.21397 0
M  V30 1863 C 177.178 -3.47483 3.89939 0
M  V30 1864 H 178.872 -1.7757 2.41058 0
M  V30 1865 H 176.418 -0.852887 1.16025 0
M  V30 1866 H 178.371 -3.98263 1.3771 0
M  V30 1867 H 177.095 -3.24409 0.377708 0
M  V30 1868 H 175.754 -2.72959 2.44722 0
M  V30 1869 H 175.402 -4.8799 1.21961 0
M  V30 1870 H 175.102 -5.0731 2.96497 0
M  V30 1871 H 176.626 -5.67515 2.25297 0
M  V30 1872 H 178.04 -4.1598 3.94505 0
M  V30 1873 H 176.437 -3.79615 4.64771 0
M  V30 1874 H 177.507 -2.46341 4.17665 0
M  V30 1875 N 178.85 -1.27639 -0.924453 0
M  V30 1876 C 179.813 -1.10681 -2.00705 0
M  V30 1877 C 180.813 -0.0497823 -1.60723 0
M  V30 1878 O 182.003 -0.294654 -1.7169 0
M  V30 1879 C 179.135 -0.687164 -3.33902 0
M  V30 1880 H 180.328 -2.06817 -2.17179 0
M  V30 1881 H 177.881 -1.10473 -1.10569 0
M  V30 1882 H 178.616 0.275439 -3.23128 0
M  V30 1883 H 178.401 -1.45061 -3.6428 0
M  V30 1884 H 179.891 -0.590853 -4.13399 0
M  V30 1885 N 180.328 1.1314 -1.09713 0
M  V30 1886 C 181.605 1.80762 -0.747302 0
M  V30 1887 C 181.985 1.96663 0.767265 0
M  V30 1888 O 181.333 1.53706 1.69076 0
M  V30 1889 C 181.543 3.15606 -1.48975 0
M  V30 1890 C 182.891 3.90914 -1.65746 0
M  V30 1891 O 183.915 3.25239 -1.45251 0
M  V30 1892 O 182.774 5.08718 -1.9967 0
M  V30 1893 H 179.868 0.782103 -0.268782 0
M  V30 1894 H 182.414 1.20041 -1.19951 0
M  V30 1895 H 181.186 2.99278 -2.52088 0
M  V30 1896 H 180.809 3.84029 -1.02991 0
M  V30 1897 N 181.806 0.884767 1.30421 0
M  V30 1898 C 182.739 0.295999 2.26272 0
M  V30 1899 C 183.717 -0.58332 1.51777 0
M  V30 1900 O 184.901 -0.53346 1.80794 0
M  V30 1901 C 182.028 -0.57944 3.33707 0
M  V30 1902 C 181.074 0.230525 4.25877 0
M  V30 1903 S 181.907 1.61867 5.1045 0
M  V30 1904 C 183.063 0.749756 6.21393 0
M  V30 1905 H 183.296 1.10848 2.75862 0
M  V30 1906 H 180.829 0.684178 1.38414 0
M  V30 1907 H 182.787 -1.07879 3.96071 0
M  V30 1908 H 181.448 -1.36601 2.82841 0
M  V30 1909 H 180.641 -0.437542 5.02097 0
M  V30 1910 H 180.243 0.662493 3.68086 0
M  V30 1911 H 182.535 -0.0333547 6.77492 0
M  V30 1912 H 183.478 1.48356 6.92384 0
M  V30 1913 H 183.886 0.310751 5.63644 0
M  V30 1914 N 183.284 -1.43765 0.645699 0
M  V30 1915 C 184.695 -1.85193 0.236719 0
M  V30 1916 C 185.046 -1.54045 -1.21509 0
M  V30 1917 O 184.171 -0.985694 -1.92647 0
M  V30 1918 C 184.766 -3.36151 0.422845 0
M  V30 1919 C 183.325 -3.76338 0.0682492 0
M  V30 1920 C 182.472 -2.67538 0.729306 0
M  V30 1921 H 185.423 -1.34025 0.849883 0
M  V30 1922 H 185.444 -3.79032 -0.333904 0
M  V30 1923 H 184.956 -3.5879 1.47958 0
M  V30 1924 H 183.057 -3.59312 -0.986179 0
M  V30 1925 H 183.17 -4.76603 0.488469 0
M  V30 1926 H 181.534 -2.54176 0.163235 0
M  V30 1927 H 182.317 -2.93006 1.78892 0
M  V30 1928 N 184.763 -0.387143 -1.52771 0
M  V30 1929 C 186.011 0.195349 -2.01154 0
M  V30 1930 C 186.332 1.475 -1.27549 0
M  V30 1931 O 185.602 1.91878 -0.394924 0
M  V30 1932 H 184.182 0.075178 -0.743207 0
M  V30 1933 H 186.844 -0.518337 -1.87881 0
M  V30 1934 H 185.94 0.407096 -3.09434 0
M  V30 1935 N 186.241 1.57166 -0.116904 0
M  V30 1936 C 187.151 2.18745 0.847812 0
M  V30 1937 C 188.167 1.163 1.29423 0
M  V30 1938 O 189.343 1.48761 1.35765 0
M  V30 1939 C 186.408 2.77307 2.0809 0
M  V30 1940 C 185.469 3.94781 1.68661 0
M  V30 1941 C 184.702 4.50541 2.86091 0
M  V30 1942 O 184.925 4.05202 4.01456 0
M  V30 1943 O 183.859 5.41256 2.63298 0
M  V30 1944 H 187.685 3.01632 0.353778 0
M  V30 1945 H 185.27 1.49005 0.108599 0
M  V30 1946 H 187.152 3.14647 2.80313 0
M  V30 1947 H 185.827 1.97452 2.56504 0
M  V30 1948 H 184.734 3.62214 0.935518 0
M  V30 1949 H 186.067 4.76065 1.24991 0
M  V30 1950 N 187.719 -0.156864 1.56817 0
M  V30 1951 C 188.666 -1.19394 1.97519 0
M  V30 1952 C 189.636 -1.4322 0.841265 0
M  V30 1953 O 190.821 -1.55719 1.10255 0
M  V30 1954 C 187.961 -2.52483 2.35258 0
M  V30 1955 C 187.074 -2.35914 3.61896 0
M  V30 1956 C 186.209 -3.61969 3.88782 0
M  V30 1957 C 185.248 -3.40395 5.08722 0
M  V30 1958 N 184.385 -4.58556 5.31668 0
M  V30 1959 H 189.225 -0.839845 2.85921 0
M  V30 1960 H 186.762 -0.403264 1.41464 0
M  V30 1961 H 188.72 -3.30071 2.55165 0
M  V30 1962 H 187.35 -2.85859 1.49949 0
M  V30 1963 H 186.402 -1.49429 3.49821 0
M  V30 1964 H 187.714 -2.15926 4.49641 0
M  V30 1965 H 186.868 -4.47989 4.09135 0
M  V30 1966 H 185.607 -3.84951 2.9944 0
M  V30 1967 H 184.612 -2.52763 4.88253 0
M  V30 1968 H 185.837 -3.18822 5.99608 0
M  V30 1969 H 183.783 -4.81729 4.45279 0
M  V30 1970 H 183.7 -4.41535 6.13664 0
M  V30 1971 H 184.968 -5.45817 5.5651 0
M  V30 1972 N 189.197 -1.51736 -0.425897 0
M  V30 1973 C 190.443 -1.65214 -1.1761 0
M  V30 1974 C 190.776 -0.372778 -1.90589 0
M  V30 1975 O 190.051 0.628139 -1.84078 0
M  V30 1976 C 190.334 -2.86312 -2.18398 0
M  V30 1977 C 190.187 -4.24254 -1.49426 0
M  V30 1978 C 191.506 -3.02925 -3.19256 0
M  V30 1979 H 188.625 -0.601263 -0.426206 0
M  V30 1980 H 191.267 -1.8425 -0.463882 0
M  V30 1981 H 189.417 -2.70213 -2.79137 0
M  V30 1982 H 191.089 -4.52046 -0.919362 0
M  V30 1983 H 189.332 -4.26426 -0.796432 0
M  V30 1984 H 190.003 -5.05001 -2.22885 0
M  V30 1985 H 192.479 -3.1781 -2.68581 0
M  V30 1986 H 191.355 -3.89199 -3.8706 0
M  V30 1987 H 191.616 -2.15497 -3.86023 0
M  V30 1988 N 190.675 0.682077 -1.42076 0
M  V30 1989 C 191.638 1.77756 -1.44691 0
M  V30 1990 C 192.638 1.5726 -0.335535 0
M  V30 1991 O 193.828 1.63686 -0.596037 0
M  V30 1992 C 190.96 3.16301 -1.27146 0
M  V30 1993 H 192.153 1.76826 -2.42224 0
M  V30 1994 H 189.706 0.891012 -1.28416 0
M  V30 1995 H 190.441 3.22862 -0.305075 0
M  V30 1996 H 190.226 3.32581 -2.07683 0
M  V30 1997 H 191.716 3.96241 -1.31843 0
M  V30 1998 N 192.153 1.28127 0.917671 0
M  V30 1999 C 193.1 1.11717 2.0196 0
M  V30 2000 C 194.07 0.0153929 1.66093 0
M  V30 2001 O 195.255 0.179596 1.89953 0
M  V30 2002 C 192.395 0.780927 3.36148 0
M  V30 2003 C 191.508 1.96135 3.84909 0
M  V30 2004 C 190.643 1.56609 5.0759 0
M  V30 2005 C 189.682 2.71339 5.48673 0
M  V30 2006 N 188.819 2.32332 6.62545 0
M  V30 2007 H 193.659 2.06003 2.15329 0
M  V30 2008 H 191.196 1.02535 1.05475 0
M  V30 2009 H 193.154 0.56675 4.13333 0
M  V30 2010 H 191.784 -0.124998 3.22558 0
M  V30 2011 H 190.836 2.28777 3.03916 0
M  V30 2012 H 192.148 2.82165 4.1132 0
M  V30 2013 H 191.302 1.31374 5.92305 0
M  V30 2014 H 190.041 0.677014 4.82978 0
M  V30 2015 H 189.046 2.97276 4.62501 0
M  V30 2016 H 190.271 3.60882 5.75274 0
M  V30 2017 H 188.217 1.45889 6.39572 0
M  V30 2018 H 188.134 3.11899 6.88662 0
M  V30 2019 H 189.402 2.10371 7.50576 0
M  V30 2020 N 193.631 -1.12557 1.10312 0
M  V30 2021 C 194.877 -1.84311 0.846011 0
M  V30 2022 C 195.21 -1.83805 -0.626859 0
M  V30 2023 O 194.485 -1.28268 -1.46211 0
M  V30 2024 C 194.768 -3.32048 1.39341 0
M  V30 2025 C 194.621 -3.41016 2.93305 0
M  V30 2026 C 195.94 -4.27764 1.03468 0
M  V30 2027 H 193.059 -0.669192 0.30879 0
M  V30 2028 H 195.701 -1.32057 1.36605 0
M  V30 2029 H 193.851 -3.76678 0.951087 0
M  V30 2030 H 195.523 -3.05031 3.46055 0
M  V30 2031 H 193.766 -2.81603 3.29973 0
M  V30 2032 H 194.437 -4.44948 3.26689 0
M  V30 2033 H 196.913 -3.91253 1.41633 0
M  V30 2034 H 195.789 -5.29549 1.44463 0
M  V30 2035 H 196.05 -4.42064 -0.0560404 0
M  V30 2036 N 195.109 -0.891671 -1.2995 0
M  V30 2037 C 196.056 -0.361736 -2.27948 0
M  V30 2038 C 197.026 0.551761 -1.56668 0
M  V30 2039 O 198.211 0.478736 -1.84696 0
M  V30 2040 C 195.351 0.411825 -3.42634 0
M  V30 2041 C 194.464 -0.531651 -4.28716 0
M  V30 2042 C 193.599 0.258167 -5.30572 0
M  V30 2043 C 192.638 -0.680349 -6.08307 0
M  V30 2044 N 191.775 0.0745613 -7.0206 0
M  V30 2045 H 196.615 -1.20254 -2.72659 0
M  V30 2046 H 194.152 -0.604352 -1.34112 0
M  V30 2047 H 196.11 0.876304 -4.07893 0
M  V30 2048 H 194.74 1.21715 -2.98974 0
M  V30 2049 H 193.792 -1.11463 -3.63703 0
M  V30 2050 H 195.104 -1.25038 -4.82874 0
M  V30 2051 H 194.258 0.784204 -6.0161 0
M  V30 2052 H 192.997 1.01008 -4.77126 0
M  V30 2053 H 192.002 -1.21796 -5.3614 0
M  V30 2054 H 193.227 -1.43145 -6.63842 0
M  V30 2055 H 191.173 0.808883 -6.50994 0
M  V30 2056 H 191.09 -0.584409 -7.53738 0
M  V30 2057 H 192.358 0.581123 -7.77331 0
M  V30 2058 N 196.587 1.43421 -0.653314 0
M  V30 2059 C 197.833 2.02111 -0.166992 0
M  V30 2060 C 198.166 1.51423 1.21592 0
M  V30 2061 O 197.441 0.707389 1.8118 0
M  V30 2062 C 197.724 3.5966 -0.177948 0
M  V30 2063 C 197.577 4.20579 -1.59478 0
M  V30 2064 C 198.896 4.37413 0.4856 0
M  V30 2065 H 196.015 0.734374 -0.0621557 0
M  V30 2066 H 198.657 1.70717 -0.834016 0
M  V30 2067 H 196.807 3.86537 0.390032 0
M  V30 2068 H 198.479 4.04732 -2.21336 0
M  V30 2069 H 196.722 3.77226 -2.14204 0
M  V30 2070 H 197.393 5.29665 -1.5543 0
M  V30 2071 H 199.869 4.161 0.00234528 0
M  V30 2072 H 198.745 5.47075 0.447207 0
M  V30 2073 H 199.006 4.13672 1.55974 0
M  V30 2074 N 198.065 0.39524 1.52563 0
M  V30 2075 C 199.313 -0.184678 2.01254 0
M  V30 2076 C 199.634 -1.46822 1.28329 0
M  V30 2077 O 198.904 -1.91666 0.405094 0
M  V30 2078 H 197.484 -0.0712355 0.743596 0
M  V30 2079 H 200.146 0.528293 1.87603 0
M  V30 2080 H 199.242 -0.390681 3.09645 0
M  V30 2081 N 199.544 -1.57102 0.125237 0
M  V30 2082 C 200.474 -2.18659 -0.819174 0
M  V30 2083 C 201.455 -1.12843 -1.27281 0
M  V30 2084 O 202.64 -1.41104 -1.33429 0
M  V30 2085 C 199.77 -2.79096 -2.06695 0
M  V30 2086 C 198.724 -3.90548 -1.75088 0
M  V30 2087 C 198.05 -4.37821 -3.06948 0
M  V30 2088 C 199.35 -5.12356 -1.01435 0
M  V30 2089 H 201.044 -2.9783 -0.306202 0
M  V30 2090 H 198.59 -1.4326 -0.145839 0
M  V30 2091 H 200.543 -3.2082 -2.73226 0
M  V30 2092 H 199.267 -1.97223 -2.60328 0
M  V30 2093 H 197.926 -3.49409 -1.10944 0
M  V30 2094 H 197.574 -3.52799 -3.58527 0
M  V30 2095 H 197.274 -5.12982 -2.86571 0
M  V30 2096 H 198.798 -4.822 -3.74587 0
M  V30 2097 H 200.212 -5.5106 -1.58132 0
M  V30 2098 H 198.609 -5.9314 -0.911319 0
M  V30 2099 H 199.679 -4.849 -0.00218681 0
M  V30 2100 N 201.022 0.148545 -1.56898 0
M  V30 2101 C 202.252 0.875118 -1.8715 0
M  V30 2102 C 202.66 1.75322 -0.711262 0
M  V30 2103 O 202.003 1.80745 0.328151 0
M  V30 2104 C 202.065 1.7844 -3.12089 0
M  V30 2105 C 201.729 1.08361 -4.43967 0
M  V30 2106 C 202.726 0.438247 -5.1805 0
M  V30 2107 C 200.411 1.07358 -4.90693 0
M  V30 2108 C 202.405 -0.20779 -6.37061 0
M  V30 2109 C 200.092 0.42373 -6.09629 0
M  V30 2110 C 201.09 -0.215829 -6.82659 0
M  V30 2111 O 200.778 -0.855378 -7.99336 0
M  V30 2112 H 200.51 0.258504 -0.624621 0
M  V30 2113 H 203.064 0.14652 -2.04877 0
M  V30 2114 H 201.294 2.55389 -2.90367 0
M  V30 2115 H 202.983 2.38279 -3.286 0
M  V30 2116 H 203.749 0.437817 -4.8302 0
M  V30 2117 H 199.628 1.5608 -4.33774 0
M  V30 2118 H 203.172 -0.70758 -6.94002 0
M  V30 2119 H 199.069 0.421822 -6.4412 0
M  V30 2120 H 199.837 -0.756892 -8.14993 0
M  V30 2121 N 202.5 1.5196 0.417844 0
M  V30 2122 C 203.41 1.77554 1.53336 0
M  V30 2123 C 204.426 0.660655 1.6097 0
M  V30 2124 O 205.602 0.945099 1.77848 0
M  V30 2125 C 202.667 1.91291 2.89152 0
M  V30 2126 C 201.728 3.15183 2.91475 0
M  V30 2127 C 200.961 3.28256 4.20813 0
M  V30 2128 O 201.184 2.46798 5.14244 0
M  V30 2129 O 200.118 4.21356 4.29817 0
M  V30 2130 H 203.944 2.7222 1.34647 0
M  V30 2131 H 201.529 1.36698 0.602828 0
M  V30 2132 H 203.411 2.02199 3.69721 0
M  V30 2133 H 202.086 0.998129 3.07927 0
M  V30 2134 H 200.993 3.09739 2.09791 0
M  V30 2135 H 202.326 4.06414 2.77648 0
M  V30 2136 N 203.978 -0.674533 1.42435 0
M  V30 2137 C 204.941 -1.76986 1.45632 0
M  V30 2138 C 205.941 -1.5708 0.343871 0
M  V30 2139 O 207.131 -1.63367 0.604709 0
M  V30 2140 C 204.263 -3.15623 1.28822 0
M  V30 2141 H 205.456 -1.75539 2.43158 0
M  V30 2142 H 203.009 -0.884189 1.28887 0
M  V30 2143 H 203.744 -3.22696 0.322193 0
M  V30 2144 H 203.529 -3.31475 2.09444 0
M  V30 2145 H 205.019 -3.95537 1.33942 0
M  V30 2146 N 205.456 -1.28612 -0.910864 0
M  V30 2147 C 206.702 -1.16106 -1.66274 0
M  V30 2148 C 207.035 0.289113 -1.92036 0
M  V30 2149 O 206.31 1.21 -1.52281 0
M  V30 2150 C 206.593 -1.96309 -3.01885 0
M  V30 2151 C 206.446 -3.49405 -2.8326 0
M  V30 2152 C 207.765 -1.78076 -4.02463 0
M  V30 2153 H 204.884 -0.423152 -0.603417 0
M  V30 2154 H 207.526 -1.57961 -1.05586 0
M  V30 2155 H 205.676 -1.60742 -3.53687 0
M  V30 2156 H 207.348 -3.94894 -2.38446 0
M  V30 2157 H 205.591 -3.74893 -2.18261 0
M  V30 2158 H 206.262 -4.00784 -3.79574 0
M  V30 2159 H 208.738 -2.0912 -3.59733 0
M  V30 2160 H 207.614 -2.36561 -4.95308 0
M  V30 2161 H 207.875 -0.733008 -4.35981 0
M  V30 2162 N 206.934 1.1197 -1.10907 0
M  V30 2163 C 208.35 1.35591 -0.841852 0
M  V30 2164 C 208.55 1.94233 0.536246 0
M  V30 2165 O 207.606 2.1717 1.28816 0
M  V30 2166 C 208.919 2.29284 -1.94549 0
M  V30 2167 C 210.467 2.42862 -1.97451 0
M  V30 2168 C 210.942 3.39873 -3.07002 0
M  V30 2169 N 212.433 3.47433 -3.06341 0
M  V30 2170 C 213.168 4.22421 -3.87748 0
M  V30 2171 N 212.664 5.00432 -4.79103 0
M  V30 2172 N 214.457 4.17876 -3.75946 0
M  V30 2173 H 206.608 0.722664 -1.99728 0
M  V30 2174 H 208.871 0.380635 -0.868229 0
M  V30 2175 H 208.577 1.93378 -2.93765 0
M  V30 2176 H 208.451 3.29452 -1.83688 0
M  V30 2177 H 210.838 2.78046 -0.988645 0
M  V30 2178 H 210.919 1.42566 -2.12388 0
M  V30 2179 H 210.563 3.05417 -4.05811 0
M  V30 2180 H 210.493 4.40011 -2.89306 0
M  V30 2181 H 212.984 2.91784 -2.40147 0
M  V30 2182 H 213.297 5.55002 -5.37766 0
M  V30 2183 H 211.642 4.99612 -4.83128 0
M  V30 2184 H 214.833 3.56016 -3.03924 0
M  V30 2185 H 215.006 4.76061 -4.39624 0
M  V30 2186 N 208.412 0.89855 1.29475 0
M  V30 2187 C 209.689 0.443416 1.90508 0
M  V30 2188 C 210.069 -1.07685 1.81569 0
M  V30 2189 O 209.417 -1.9182 1.24166 0
M  V30 2190 C 209.627 0.956708 3.35631 0
M  V30 2191 C 210.975 0.999728 4.12663 0
M  V30 2192 O 211.999 0.904299 3.4453 0
M  V30 2193 O 210.858 1.14289 5.34416 0
M  V30 2194 H 207.952 0.138025 0.815401 0
M  V30 2195 H 210.498 0.98834 1.37949 0
M  V30 2196 H 209.27 2.00067 3.36287 0
M  V30 2197 H 208.893 0.391728 3.95666 0
M  V30 2198 N 209.89 -1.43072 0.660911 0
M  V30 2199 C 211.138 -2.01323 0.177094 0
M  V30 2200 C 211.459 -1.5245 -1.2159 0
M  V30 2201 O 210.729 -0.740322 -1.81373 0
M  V30 2202 H 209.309 -0.744382 0.0624804 0
M  V30 2203 H 211.971 -1.75179 0.854305 0
M  V30 2204 H 211.067 -3.11649 0.167641 0
M  V30 2205 N 211.368 -0.403325 -1.52352 0
M  V30 2206 C 212.301 0.469463 -2.23319 0
M  V30 2207 C 213.279 1.05272 -1.23922 0
M  V30 2208 O 214.463 1.10169 -1.52954 0
M  V30 2209 C 211.59 1.6511 -2.9573 0
M  V30 2210 C 210.636 1.19178 -4.0951 0
M  V30 2211 S 211.469 0.161718 -5.35256 0
M  V30 2212 C 212.625 1.34882 -6.11194 0
M  V30 2213 H 212.858 -0.133134 -2.97002 0
M  V30 2214 H 210.391 -0.187588 -1.53256 0
M  V30 2215 H 212.349 2.3287 -3.38056 0
M  V30 2216 H 211.01 2.22503 -2.21701 0
M  V30 2217 H 210.203 2.07444 -4.59329 0
M  V30 2218 H 209.805 0.592911 -3.6927 0
M  V30 2219 H 212.097 2.27345 -6.38217 0
M  V30 2220 H 213.04 0.89128 -7.02468 0
M  V30 2221 H 213.448 1.57198 -5.42171 0
M  V30 2222 N 212.846 1.57033 -0.133567 0
M  V30 2223 C 214.092 1.95976 0.521649 0
M  V30 2224 C 214.425 1.01779 1.65393 0
M  V30 2225 O 213.7 0.0576581 1.94415 0
M  V30 2226 C 213.983 3.44738 1.04057 0
M  V30 2227 C 213.836 4.49711 -0.0892897 0
M  V30 2228 C 215.155 3.95682 1.92675 0
M  V30 2229 H 212.274 0.712579 0.188149 0
M  V30 2230 H 214.916 1.88813 -0.212076 0
M  V30 2231 H 213.066 3.50973 1.66583 0
M  V30 2232 H 214.738 4.55565 -0.725152 0
M  V30 2233 H 212.981 4.27261 -0.750378 0
M  V30 2234 H 213.652 5.51099 0.315284 0
M  V30 2235 H 216.128 3.91841 1.39998 0
M  V30 2236 H 215.004 5.00262 2.25897 0
M  V30 2237 H 215.265 3.37239 2.85872 0
M  V30 2238 N 214.325 -0.140222 1.56975 0
M  V30 2239 C 215.571 -0.852949 1.83991 0
M  V30 2240 C 215.904 -1.80512 0.716187 0
M  V30 2241 O 215.179 -1.92479 -0.279681 0
M  V30 2242 C 215.462 -1.6215 3.21527 0
M  V30 2243 C 215.315 -0.690363 4.4447 0
M  V30 2244 C 216.634 -2.58247 3.56366 0
M  V30 2245 H 213.753 -0.308634 0.669264 0
M  V30 2246 H 216.395 -0.117898 1.89634 0
M  V30 2247 H 214.545 -2.24812 3.16847 0
M  V30 2248 H 216.217 -0.0742264 4.6124 0
M  V30 2249 H 214.46 -0.000396433 4.338 0
M  V30 2250 H 215.131 -1.2643 5.37326 0
M  V30 2251 H 217.607 -2.05701 3.61699 0
M  V30 2252 H 216.483 -3.09067 4.53617 0
M  V30 2253 H 216.744 -3.39923 2.82674 0
M  V30 2254 N 215.803 -1.52179 -0.40978 0
M  V30 2255 C 216.751 -1.76086 -1.51975 0
M  V30 2256 C 217.745 -0.627964 -1.57331 0
M  V30 2257 O 218.951 -0.809993 -1.60745 0
M  V30 2258 H 215.326 -0.556829 -0.505416 0
M  V30 2259 H 217.297 -2.69077 -1.28996 0
M  V30 2260 C 216.046 -1.92799 -2.8935 0
M  V30 2261 H 215.369 -2.79392 -2.85972 0
M  V30 2262 H 216.809 -2.13527 -3.66309 0
M  V30 2263 C 215.268 -0.694923 -3.29655 0
M  V30 2264 O 215.798 0.13751 -4.01465 0
M  V30 2265 N 214.004 -0.53101 -2.85707 0
M  V30 2266 H 213.551 -1.20952 -2.27439 0
M  V30 2267 H 213.509 0.292718 -3.13034 0
M  V30 2268 N 217.281 0.66697 -1.42791 0
M  V30 2269 C 218.211 1.79218 -1.49677 0
M  V30 2270 C 219.192 1.66405 -0.352623 0
M  V30 2271 O 220.377 1.85708 -0.567993 0
M  V30 2272 C 217.507 3.17565 -1.40605 0
M  V30 2273 C 216.461 3.45124 -2.53127 0
M  V30 2274 C 215.787 4.83127 -2.29112 0
M  V30 2275 C 217.087 3.41236 -3.95418 0
M  V30 2276 H 218.781 1.73713 -2.43853 0
M  V30 2277 H 216.327 0.83432 -1.17367 0
M  V30 2278 H 218.28 3.96022 -1.44029 0
M  V30 2279 H 217.004 3.23767 -0.429271 0
M  V30 2280 H 215.663 2.69031 -2.49034 0
M  V30 2281 H 215.311 4.85988 -1.29709 0
M  V30 2282 H 215.011 5.02528 -3.04531 0
M  V30 2283 H 216.535 5.63859 -2.34297 0
M  V30 2284 H 217.949 4.09651 -4.01073 0
M  V30 2285 H 216.346 3.72173 -4.70752 0
M  V30 2286 H 217.416 2.39665 -4.21532 0
M  V30 2287 N 218.759 1.29093 0.90403 0
M  V30 2288 C 219.689 1.16401 2.02418 0
M  V30 2289 C 220.67 0.0593085 1.69997 0
M  V30 2290 O 221.855 0.238021 1.92736 0
M  V30 2291 C 218.985 0.835233 3.37107 0
M  V30 2292 C 217.939 1.89578 3.83724 0
M  V30 2293 C 217.265 1.42041 5.15489 0
M  V30 2294 C 218.565 3.30394 4.04521 0
M  V30 2295 H 220.259 2.10109 2.13295 0
M  V30 2296 H 217.805 1.01157 1.02486 0
M  V30 2297 H 219.758 0.733169 4.14973 0
M  V30 2298 H 218.482 -0.137543 3.2631 0
M  V30 2299 H 217.141 1.98715 3.08071 0
M  V30 2300 H 216.789 0.436426 5.01103 0
M  V30 2301 H 216.489 2.12964 5.4765 0
M  V30 2302 H 218.013 1.33176 5.959 0
M  V30 2303 H 219.427 3.24123 4.72882 0
M  V30 2304 H 217.824 3.99237 4.48029 0
M  V30 2305 H 218.894 3.73692 3.09002 0
M  V30 2306 N 220.237 -1.11381 1.11499 0
M  V30 2307 C 221.167 -2.19509 0.796125 0
M  V30 2308 C 222.148 -1.68458 -0.235796 0
M  V30 2309 O 223.333 -1.93947 -0.0991344 0
M  V30 2310 C 220.463 -3.46475 0.239205 0
M  V30 2311 C 219.417 -4.10744 1.20307 0
M  V30 2312 C 218.743 -5.32293 0.50683 0
M  V30 2313 C 220.043 -4.55597 2.55399 0
M  V30 2314 H 221.737 -2.46439 1.70024 0
M  V30 2315 H 219.283 -1.18446 0.818935 0
M  V30 2316 H 221.236 -4.214 0.00392006 0
M  V30 2317 H 219.96 -3.19006 -0.700206 0
M  V30 2318 H 218.619 -3.37813 1.42399 0
M  V30 2319 H 218.267 -5.01095 -0.437408 0
M  V30 2320 H 217.967 -5.76243 1.1497 0
M  V30 2321 H 219.491 -6.09956 0.280351 0
M  V30 2322 H 220.905 -5.21841 2.37391 0
M  V30 2323 H 219.302 -5.10363 3.15673 0
M  V30 2324 H 220.372 -3.69013 3.14575 0
M  V30 2325 N 221.715 -0.905404 -1.28997 0
M  V30 2326 C 222.625 -0.392246 -2.31298 0
M  V30 2327 C 223.641 0.515889 -1.66176 0
M  V30 2328 O 224.817 0.404093 -1.97304 0
M  V30 2329 C 221.882 0.36686 -3.44754 0
M  V30 2330 C 220.943 -0.573485 -4.25452 0
M  V30 2331 C 220.176 0.149488 -5.33491 0
M  V30 2332 O 220.399 1.37255 -5.5364 0
M  V30 2333 O 219.333 -0.510919 -5.99728 0
M  V30 2334 H 223.159 -1.2411 -2.77183 0
M  V30 2335 H 220.744 -0.669926 -1.33538 0
M  V30 2336 H 222.626 0.795907 -4.13816 0
M  V30 2337 H 221.301 1.19169 -3.00966 0
M  V30 2338 H 220.208 -1.05176 -3.59011 0
M  V30 2339 H 221.541 -1.36489 -4.72897 0
M  V30 2340 N 223.193 1.4272 -0.668489 0
M  V30 2341 C 224.156 2.292 0.00448567 0
M  V30 2342 C 225.156 1.43001 0.735339 0
M  V30 2343 O 226.346 1.64461 0.57429 0
M  V30 2344 C 223.478 3.25375 1.01705 0
M  V30 2345 H 224.671 2.90199 -0.756608 0
M  V30 2346 H 222.224 1.50254 -0.430506 0
M  V30 2347 H 222.959 2.69301 1.80686 0
M  V30 2348 H 222.744 3.88944 0.496463 0
M  V30 2349 H 224.234 3.90245 1.48655 0
M  V30 2350 N 224.671 0.411399 1.52136 0
M  V30 2351 C 225.92 -0.165009 2.01024 0
M  V30 2352 C 226.233 -1.4603 1.30133 0
M  V30 2353 O 227.439 -2.1181 1.69849 0
M  V30 2354 C 225.895 -0.344618 3.58246 0
M  V30 2355 C 225.503 0.938716 4.38055 0
M  V30 2356 C 227.247 -0.876195 4.15359 0
M  V30 2357 C 225.154 0.726172 5.86925 0
M  V30 2358 H 224.084 -0.0654407 0.751155 0
M  V30 2359 H 226.735 0.537192 1.75461 0
M  V30 2360 H 225.117 -1.10921 3.80148 0
M  V30 2361 H 226.291 1.70963 4.27912 0
M  V30 2362 H 224.606 1.39688 3.92271 0
M  V30 2363 H 227.203 -1.05128 5.24263 0
M  V30 2364 H 227.546 -1.85152 3.7286 0
M  V30 2365 H 228.079 -0.170607 3.97434 0
M  V30 2366 H 224.818 1.67312 6.33788 0
M  V30 2367 H 224.338 -0.00540283 5.998 0
M  V30 2368 H 226.017 0.369231 6.45946 0
M  V30 2369 N 226.149 -1.5696 0.141893 0
M  V30 2370 C 227.56 -1.82797 -0.379776 0
M  V30 2371 C 227.911 -1.06033 -1.6508 0
M  V30 2372 O 227.036 -0.304011 -2.14254 0
M  V30 2373 C 227.631 -3.31578 -0.695802 0
M  V30 2374 C 226.19 -3.58014 -1.16201 0
M  V30 2375 C 225.337 -2.76699 -0.182455 0
M  V30 2376 H 228.288 -1.54406 0.366675 0
M  V30 2377 H 228.309 -3.47454 -1.55099 0
M  V30 2378 H 227.821 -3.87421 0.229449 0
M  V30 2379 H 225.922 -3.07553 -2.10338 0
M  V30 2380 H 226.035 -4.66501 -1.09151 0
M  V30 2381 H 224.399 -2.45618 -0.674072 0
M  V30 2382 H 225.182 -3.35311 0.736297 0
M  V30 2383 N 227.627 0.131896 -1.57047 0
M  V30 2384 C 228.904 0.871495 -1.75112 0
M  V30 2385 C 229.284 1.9866 -0.713949 0
M  V30 2386 O 228.632 2.26965 0.264447 0
M  V30 2387 C 228.842 1.40007 -3.19686 0
M  V30 2388 C 230.19 1.85752 -3.81813 0
M  V30 2389 O 231.214 1.49715 -3.23209 0
M  V30 2390 O 230.073 2.5226 -4.84796 0
M  V30 2391 H 227.167 0.412919 -0.716538 0
M  V30 2392 H 229.713 0.116641 -1.69299 0
M  V30 2393 H 228.485 0.599404 -3.86682 0
M  V30 2394 H 228.108 2.218 -3.29986 0
M  V30 2395 N 229.106 1.52395 0.401703 0
M  V30 2396 C 230.036 1.79231 1.49661 0
M  V30 2397 C 231.017 0.643654 1.57452 0
M  V30 2398 O 232.202 0.889989 1.72606 0
M  V30 2399 C 229.332 1.94971 2.87409 0
M  V30 2400 C 228.286 3.10604 2.94465 0
M  V30 2401 C 227.612 3.11577 4.34538 0
M  V30 2402 C 228.912 4.49921 2.6527 0
M  V30 2403 H 230.606 2.70917 1.27454 0
M  V30 2404 H 228.152 1.30362 0.6117 0
M  V30 2405 H 230.105 2.12328 3.63999 0
M  V30 2406 H 228.829 0.999632 3.10926 0
M  V30 2407 H 227.488 2.93009 2.20321 0
M  V30 2408 H 227.136 2.14277 4.55076 0
M  V30 2409 H 226.836 3.89247 4.40183 0
M  V30 2410 H 228.36 3.31073 5.13053 0
M  V30 2411 H 229.774 4.67683 3.31581 0
M  V30 2412 H 228.171 5.29564 2.82281 0
M  V30 2413 H 229.241 4.57507 1.60671 0
M  V30 2414 N 230.584 -0.659388 1.43143 0
M  V30 2415 C 231.534 -1.7655 1.44271 0
M  V30 2416 C 232.518 -1.57847 0.311961 0
M  V30 2417 O 233.71 -1.68064 0.555306 0
M  V30 2418 C 230.839 -3.15104 1.36251 0
M  V30 2419 C 229.925 -3.39377 2.54331 0
M  V30 2420 N 230.316 -3.34153 3.79704 0
M  V30 2421 C 228.614 -3.70072 2.48922 0
M  V30 2422 C 229.315 -3.58337 4.58225 0
M  V30 2423 N 228.291 -3.79851 3.88863 0
M  V30 2424 H 232.093 -1.70928 2.39083 0
M  V30 2425 H 229.607 -0.860823 1.37708 0
M  V30 2426 H 231.604 -3.94389 1.35141 0
M  V30 2427 H 230.264 -3.21913 0.424531 0
M  V30 2428 H 231.275 -3.13704 4.1208 0
M  V30 2429 H 227.952 -3.84034 1.63781 0
M  V30 2430 H 229.342 -3.60129 5.67236 0
M  V30 2431 N 232.062 -1.29571 -0.897171 0
M  V30 2432 C 232.992 -1.17473 -2.01798 0
M  V30 2433 C 233.973 -0.068323 -1.69963 0
M  V30 2434 O 235.158 -0.248239 -1.92607 0
M  V30 2435 C 232.288 -0.853099 -3.36659 0
M  V30 2436 C 231.242 -1.9161 -3.82713 0
M  V30 2437 C 230.568 -1.44773 -5.14728 0
M  V30 2438 C 231.868 -3.32535 -4.02763 0
M  V30 2439 H 233.562 -2.11237 -2.12177 0
M  V30 2440 H 231.108 -1.01699 -1.01948 0
M  V30 2441 H 233.061 -0.755165 -4.14578 0
M  V30 2442 H 231.785 0.120236 -3.26379 0
M  V30 2443 H 230.444 -2.00346 -3.07013 0
M  V30 2444 H 230.092 -0.462995 -5.00865 0
M  V30 2445 H 229.792 -2.15865 -5.46513 0
M  V30 2446 H 231.316 -1.36334 -5.95185 0
M  V30 2447 H 232.73 -3.26626 -4.71156 0
M  V30 2448 H 231.127 -4.01607 -4.45905 0
M  V30 2449 H 232.197 -3.75326 -3.07016 0
M  V30 2450 N 233.54 1.10788 -1.12088 0
M  V30 2451 C 234.956 1.34691 -0.856186 0
M  V30 2452 C 235.156 1.94791 0.515615 0
M  V30 2453 O 234.212 2.18524 1.26505 0
M  V30 2454 C 235.525 2.27208 -1.9697 0
M  V30 2455 C 237.073 2.40755 -2.00016 0
M  V30 2456 C 237.548 3.36598 -3.1059 0
M  V30 2457 N 239.039 3.44164 -3.10008 0
M  V30 2458 C 239.774 4.18284 -3.92206 0
M  V30 2459 N 239.27 4.95322 -4.84384 0
M  V30 2460 N 241.063 4.13865 -3.80357 0
M  V30 2461 H 233.214 0.70144 -2.00483 0
M  V30 2462 H 235.477 0.371405 -0.872217 0
M  V30 2463 H 235.183 1.90251 -2.958 0
M  V30 2464 H 235.057 3.27485 -1.87172 0
M  V30 2465 H 237.444 2.76982 -1.01808 0
M  V30 2466 H 237.525 1.40305 -2.13888 0
M  V30 2467 H 237.169 3.01096 -4.09028 0
M  V30 2468 H 237.099 4.36918 -2.93956 0
M  V30 2469 H 239.59 2.8922 -2.43228 0
M  V30 2470 H 239.903 5.49267 -5.43623 0
M  V30 2471 H 238.248 4.94459 -4.884 0
M  V30 2472 H 241.439 3.52773 -3.07683 0
M  V30 2473 H 241.612 4.71372 -4.44649 0
M  V30 2474 N 235.018 0.912232 1.28515 0
M  V30 2475 C 235.948 0.416403 2.29757 0
M  V30 2476 C 236.929 -0.515194 1.6211 0
M  V30 2477 O 238.114 -0.423253 1.89532 0
M  V30 2478 C 235.244 -0.34572 3.45575 0
M  V30 2479 C 234.198 0.496599 4.25109 0
M  V30 2480 C 233.524 -0.393771 5.33248 0
M  V30 2481 C 234.824 1.75307 4.92001 0
M  V30 2482 H 236.518 1.26249 2.7148 0
M  V30 2483 H 234.064 0.608515 1.30511 0
M  V30 2484 H 236.017 -0.703422 4.15488 0
M  V30 2485 H 234.741 -1.2257 3.02728 0
M  V30 2486 H 233.4 0.8368 3.56922 0
M  V30 2487 H 233.048 -1.27225 4.86644 0
M  V30 2488 H 232.748 0.166209 5.87365 0
M  V30 2489 H 234.272 -0.747389 6.06009 0
M  V30 2490 H 235.686 1.46437 5.54283 0
M  V30 2491 H 234.083 2.25534 5.56106 0
M  V30 2492 H 235.153 2.48176 4.16577 0
M  V30 2493 N 236.496 -1.42363 0.676048 0
M  V30 2494 C 237.773 -1.95183 0.127726 0
M  V30 2495 C 238.153 -1.61641 -1.35777 0
M  V30 2496 O 237.501 -0.913216 -2.09458 0
M  V30 2497 C 237.711 -3.46721 0.398199 0
M  V30 2498 C 239.059 -4.23427 0.315383 0
M  V30 2499 O 240.083 -3.54649 0.332016 0
M  V30 2500 O 238.942 -5.45888 0.25865 0
M  V30 2501 H 236.036 -0.826992 0.00359427 0
M  V30 2502 H 238.582 -1.52184 0.750864 0
M  V30 2503 H 237.354 -3.64344 1.4272 0
M  V30 2504 H 236.977 -3.96769 -0.256885 0
M  V30 2505 N 237.974 -0.419461 -1.51915 0
M  V30 2506 C 238.937 0.389116 -2.25873 0
M  V30 2507 C 239.937 0.964924 -1.28631 0
M  V30 2508 O 241.127 0.842179 -1.52489 0
M  V30 2509 C 238.259 1.54874 -3.03689 0
M  V30 2510 H 239.452 -0.258799 -2.98781 0
M  V30 2511 H 237.005 -0.172209 -1.55348 0
M  V30 2512 H 237.74 2.23323 -2.35154 0
M  V30 2513 H 237.525 1.14223 -3.75094 0
M  V30 2514 H 239.015 2.12046 -3.59759 0
M  V30 2515 N 239.452 1.56882 -0.150215 0
M  V30 2516 C 240.4 2.18214 0.805313 0
M  V30 2517 C 241.394 1.14006 1.25296 0
M  V30 2518 O 242.6 1.3225 1.22107 0
M  V30 2519 H 238.975 0.698762 0.277913 0
M  V30 2520 H 240.946 2.97231 0.263862 0
M  V30 2521 C 239.695 2.82065 2.03309 0
M  V30 2522 H 239.018 3.61968 1.69763 0
M  V30 2523 H 240.458 3.28477 2.68103 0
M  V30 2524 C 238.917 1.80739 2.84315 0
M  V30 2525 O 239.447 1.27983 3.80767 0
M  V30 2526 N 237.653 1.4997 2.48913 0
M  V30 2527 H 237.2 1.93062 1.70542 0
M  V30 2528 H 237.158 0.824217 3.03404 0
M  V30 2529 N 240.93 -0.123565 1.57115 0
M  V30 2530 C 242.346 -0.476961 1.52306 0
M  V30 2531 C 242.546 -1.82109 0.86248 0
M  V30 2532 O 241.602 -2.48586 0.442884 0
M  V30 2533 C 242.915 -0.465661 2.97073 0
M  V30 2534 C 244.463 -0.549534 3.08138 0
M  V30 2535 C 244.938 -0.568669 4.54456 0
M  V30 2536 N 246.429 -0.630237 4.58892 0
M  V30 2537 C 247.164 -0.666415 5.69514 0
M  V30 2538 N 246.66 -0.660514 6.89644 0
M  V30 2539 N 248.453 -0.709077 5.5761 0
M  V30 2540 H 240.604 0.757198 1.98445 0
M  V30 2541 H 242.867 0.278808 0.906074 0
M  V30 2542 H 242.573 0.454232 3.48754 0
M  V30 2543 H 242.447 -1.29513 3.54269 0
M  V30 2544 H 244.834 -1.45985 2.56461 0
M  V30 2545 H 244.915 0.307532 2.53945 0
M  V30 2546 H 244.559 0.337581 5.06777 0
M  V30 2547 H 244.489 -1.44256 5.06456 0
M  V30 2548 H 246.98 -0.641146 3.72421 0
M  V30 2549 H 247.293 -0.690616 7.69708 0
M  V30 2550 H 245.638 -0.628012 6.92157 0
M  V30 2551 H 248.829 -0.711019 4.62668 0
M  V30 2552 H 249.002 -0.733804 6.43832 0
M  V30 2553 N 242.408 -1.52605 -0.393616 0
M  V30 2554 C 243.371 -1.76415 -1.46323 0
M  V30 2555 C 244.371 -0.634126 -1.47768 0
M  V30 2556 O 245.561 -0.902142 -1.4902 0
M  V30 2557 C 242.693 -1.8607 -2.85641 0
M  V30 2558 H 243.886 -2.71916 -1.26498 0
M  V30 2559 H 241.439 -1.43257 -0.625073 0
M  V30 2560 H 242.174 -0.925378 -3.10817 0
M  V30 2561 H 241.959 -2.68235 -2.85993 0
M  V30 2562 H 243.449 -2.06179 -3.63153 0
M  V30 2563 N 243.887 0.651787 -1.4349 0
M  V30 2564 C 245.133 1.4121 -1.46395 0
M  V30 2565 C 245.488 1.92202 -0.087366 0
M  V30 2566 O 244.781 1.69452 0.894231 0
M  V30 2567 C 244.975 2.60914 -2.44251 0
M  V30 2568 C 244.804 2.21639 -3.91288 0
M  V30 2569 C 243.574 2.09897 -4.59643 0
M  V30 2570 C 245.772 1.81835 -4.81083 0
M  V30 2571 N 243.754 1.63967 -5.91598 0
M  V30 2572 C 245.125 1.46998 -6.02322 0
M  V30 2573 C 247.18 1.69031 -4.6833 0
M  V30 2574 C 245.883 1.00638 -7.12225 0
M  V30 2575 C 247.909 1.24077 -5.78238 0
M  V30 2576 C 247.271 0.901772 -6.98604 0
M  V30 2577 H 243.37 0.512322 -0.590805 0
M  V30 2578 H 245.954 0.74989 -1.7968 0
M  V30 2579 H 244.125 3.24792 -2.1299 0
M  V30 2580 H 245.857 3.27622 -2.37584 0
M  V30 2581 H 242.612 2.297 -4.14168 0
M  V30 2582 H 243.036 1.43359 -6.61647 0
M  V30 2583 H 247.678 1.93878 -3.75727 0
M  V30 2584 H 245.396 0.745399 -8.04655 0
M  V30 2585 H 248.982 1.14657 -5.7039 0
M  V30 2586 H 247.862 0.559226 -7.82203 0
M  V30 2587 N 245.365 1.30045 0.890287 0
M  V30 2588 C 246.593 1.21472 1.67487 0
M  V30 2589 C 247.008 -0.223241 1.87476 0
M  V30 2590 O 246.365 -1.14828 1.41847 0
M  V30 2591 C 246.416 1.93394 3.05419 0
M  V30 2592 O 246.137 3.31576 2.86337 0
M  V30 2593 C 247.638 1.91414 3.99844 0
M  V30 2594 H 244.858 0.420604 0.522813 0
M  V30 2595 H 247.402 1.7158 1.11268 0
M  V30 2596 H 245.557 1.47099 3.58386 0
M  V30 2597 H 245.971 3.67929 3.73802 0
M  V30 2598 H 247.445 2.46285 4.94012 0
M  V30 2599 H 247.922 0.891833 4.3005 0
M  V30 2600 H 248.528 2.37496 3.52811 0
M  V30 2601 N 246.843 -1.10192 1.12674 0
M  V30 2602 C 248.254 -1.63707 0.897604 0
M  V30 2603 C 248.605 -1.87812 -0.567546 0
M  V30 2604 O 247.73 -1.62196 -1.43253 0
M  V30 2605 C 248.325 -2.974 1.62292 0
M  V30 2606 C 246.884 -3.47772 1.43986 0
M  V30 2607 C 246.031 -2.22332 1.65722 0
M  V30 2608 H 248.982 -0.936587 1.28116 0
M  V30 2609 H 249.003 -3.64986 1.07541 0
M  V30 2610 H 248.515 -2.79824 2.68924 0
M  V30 2611 H 246.616 -3.70487 0.396206 0
M  V30 2612 H 246.729 -4.25723 2.19765 0
M  V30 2613 H 245.093 -2.30599 1.08149 0
M  V30 2614 H 245.876 -2.07285 2.73657 0
M  V30 2615 N 248.321 -0.919034 -1.28029 0
M  V30 2616 C 249.251 -0.428581 -2.29533 0
M  V30 2617 C 250.232 0.50659 -1.62381 0
M  V30 2618 O 251.417 0.413195 -1.89753 0
M  V30 2619 C 248.547 0.327388 -3.45753 0
M  V30 2620 C 247.501 -0.519137 -4.2484 0
M  V30 2621 C 246.827 0.365486 -5.33449 0
M  V30 2622 C 248.127 -1.77914 -4.91064 0
M  V30 2623 H 249.821 -1.27687 -2.70807 0
M  V30 2624 H 247.367 -0.615428 -1.30186 0
M  V30 2625 H 249.32 0.681378 -4.15855 0
M  V30 2626 H 248.044 1.20963 -3.03374 0
M  V30 2627 H 246.703 -0.855717 -3.56473 0
M  V30 2628 H 246.351 1.24642 -4.87312 0
M  V30 2629 H 246.051 -0.197356 -5.87268 0
M  V30 2630 H 247.575 0.715241 -6.06396 0
M  V30 2631 H 248.989 -1.49374 -5.53498 0
M  V30 2632 H 247.386 -2.2848 -5.54903 0
M  V30 2633 H 248.456 -2.50382 -4.15255 0
M  V30 2634 N 249.799 1.42003 -0.683588 0
M  V30 2635 C 250.746 2.30798 -0.0107309 0
M  V30 2636 C 251.716 1.4645 0.783688 0
M  V30 2637 O 252.901 1.75263 0.754156 0
M  V30 2638 C 250.041 3.3238 0.928306 0
M  V30 2639 C 249.154 4.31814 0.126776 0
M  V30 2640 C 248.289 5.20468 1.06236 0
M  V30 2641 C 247.328 6.11577 0.253035 0
M  V30 2642 N 246.465 6.92754 1.14179 0
M  V30 2643 H 251.305 2.8778 -0.773727 0
M  V30 2644 H 248.842 1.41745 -0.393283 0
M  V30 2645 H 250.8 3.89813 1.48666 0
M  V30 2646 H 249.43 2.76976 1.65783 0
M  V30 2647 H 248.482 3.76427 -0.54833 0
M  V30 2648 H 249.794 4.96276 -0.501192 0
M  V30 2649 H 248.948 5.82677 1.69035 0
M  V30 2650 H 247.687 4.56204 1.7242 0
M  V30 2651 H 246.692 5.48428 -0.388108 0
M  V30 2652 H 247.917 6.77892 -0.404839 0
M  V30 2653 H 245.863 6.3111 1.78987 0
M  V30 2654 H 245.78 7.53855 0.569111 0
M  V30 2655 H 247.048 7.59441 1.75697 0
M  V30 2656 N 251.277 0.427512 1.51691 0
M  V30 2657 C 252.525 -0.141948 2.01601 0
M  V30 2658 C 252.846 -1.44067 1.31414 0
M  V30 2659 O 252.116 -1.90763 0.445658 0
M  V30 2660 H 250.696 -0.0554468 0.744939 0
M  V30 2661 H 253.358 0.567968 1.86441 0
M  V30 2662 H 252.454 -0.324913 3.10404 0
M  V30 2663 N 252.755 -1.56801 0.158532 0
M  V30 2664 C 253.687 -2.14488 -0.807923 0
M  V30 2665 C 254.7 -1.09721 -1.20271 0
M  V30 2666 O 255.889 -1.36956 -1.14478 0
M  V30 2667 C 252.989 -2.66217 -2.09718 0
M  V30 2668 C 252.162 -3.95507 -1.86796 0
M  V30 2669 C 251.221 -4.3243 -2.99818 0
M  V30 2670 O 250.247 -5.00543 -2.71008 0
M  V30 2671 N 251.449 -3.92947 -4.27285 0
M  V30 2672 H 254.214 -2.98042 -0.314816 0
M  V30 2673 H 251.775 -1.61881 -0.0246692 0
M  V30 2674 H 253.767 -2.87924 -2.84398 0
M  V30 2675 H 252.337 -1.87324 -2.50257 0
M  V30 2676 H 251.557 -3.82309 -0.96089 0
M  V30 2677 H 252.845 -4.79972 -1.68833 0
M  V30 2678 H 252.243 -3.38087 -4.53557 0
M  V30 2679 H 250.8 -4.19681 -4.9871 0
M  V30 2680 N 254.233 0.115231 -1.57178 0
M  V30 2681 C 255.165 1.16694 -1.97269 0
M  V30 2682 C 256.178 1.37445 -0.872502 0
M  V30 2683 O 257.367 1.36454 -1.15077 0
M  V30 2684 C 254.467 2.52627 -2.25905 0
M  V30 2685 C 253.64 2.52427 -3.57211 0
M  V30 2686 C 252.699 3.70134 -3.74016 0
M  V30 2687 O 251.725 3.53546 -4.46087 0
M  V30 2688 N 252.927 4.88844 -3.13068 0
M  V30 2689 H 255.692 0.82588 -2.88096 0
M  V30 2690 H 253.253 0.304461 -1.59011 0
M  V30 2691 H 255.245 3.29937 -2.34359 0
M  V30 2692 H 253.815 2.789 -1.41186 0
M  V30 2693 H 253.035 1.60805 -3.5991 0
M  V30 2694 H 254.323 2.49353 -4.43509 0
M  V30 2695 H 253.721 5.05225 -2.54489 0
M  V30 2696 H 252.278 5.63817 -3.27037 0
M  V30 2697 N 255.711 1.52812 0.385517 0
M  V30 2698 C 256.958 1.68026 1.1302 0
M  V30 2699 C 257.286 0.421934 1.89868 0
M  V30 2700 O 256.541 -0.595749 1.86412 0
M  V30 2701 C 256.84 2.86856 2.13187 0
M  V30 2702 C 256.506 4.24159 1.5297 0
M  V30 2703 C 255.168 4.61501 1.36274 0
M  V30 2704 C 257.52 5.09627 1.09223 0
M  V30 2705 C 254.848 5.81966 0.743837 0
M  V30 2706 C 257.2 6.30719 0.487411 0
M  V30 2707 C 255.864 6.6679 0.307777 0
M  V30 2708 H 255.134 0.614849 0.413571 0
M  V30 2709 H 257.781 1.86962 0.414405 0
M  V30 2710 H 256.086 2.6235 2.90998 0
M  V30 2711 H 257.783 2.95821 2.70722 0
M  V30 2712 H 254.373 3.94746 1.66954 0
M  V30 2713 H 258.557 4.81343 1.20922 0
M  V30 2714 H 253.813 6.08519 0.592891 0
M  V30 2715 H 257.987 6.96259 0.140143 0
M  V30 2716 H 255.614 7.60001 -0.173879 0
M  V30 2717 N 257.189 -0.644168 1.43834 0
M  V30 2718 C 258.152 -1.73857 1.49353 0
M  V30 2719 C 259.152 -1.56315 0.377112 0
M  V30 2720 O 260.342 -1.62048 0.639226 0
M  V30 2721 C 257.474 -3.12819 1.35488 0
M  V30 2722 H 258.667 -1.70342 2.46827 0
M  V30 2723 H 256.22 -0.856652 1.30733 0
M  V30 2724 H 256.955 -3.2194 0.390569 0
M  V30 2725 H 256.74 -3.26958 2.16428 0
M  V30 2726 H 258.23 -3.92606 1.42302 0
M  V30 2727 N 258.668 -1.30515 -0.883378 0
M  V30 2728 C 259.615 -1.17032 -1.98927 0
M  V30 2729 C 260.585 -0.0594241 -1.65994 0
M  V30 2730 O 261.77 -0.229895 -1.8941 0
M  V30 2731 C 258.91 -0.869777 -3.33959 0
M  V30 2732 C 258.023 -2.06271 -3.79574 0
M  V30 2733 C 257.158 -1.70011 -5.03259 0
M  V30 2734 C 256.197 -2.8579 -5.41286 0
M  V30 2735 N 255.334 -2.49816 -6.56153 0
M  V30 2736 H 260.174 -2.1164 -2.09792 0
M  V30 2737 H 257.711 -1.05296 -1.02719 0
M  V30 2738 H 259.669 -0.676138 -4.11685 0
M  V30 2739 H 258.299 0.0394332 -3.22776 0
M  V30 2740 H 257.351 -2.36755 -2.97744 0
M  V30 2741 H 258.663 -2.92971 -4.03694 0
M  V30 2742 H 257.817 -1.47032 -5.88614 0
M  V30 2743 H 256.556 -0.804829 -4.81013 0
M  V30 2744 H 255.561 -3.09434 -4.54456 0
M  V30 2745 H 256.786 -3.76008 -5.65504 0
M  V30 2746 H 254.732 -1.62795 -6.35479 0
M  V30 2747 H 254.649 -3.30048 -6.8015 0
M  V30 2748 H 255.917 -2.30197 -7.44735 0
M  V30 2749 N 260.146 1.09593 -1.13257 0
M  V30 2750 C 261.376 1.85231 -0.915049 0
M  V30 2751 C 261.784 1.81345 0.539498 0
M  V30 2752 O 261.127 1.20664 1.38513 0
M  V30 2753 C 261.189 3.34275 -1.3229 0
M  V30 2754 C 260.853 3.6191 -2.79052 0
M  V30 2755 C 261.85 3.57777 -3.77216 0
M  V30 2756 C 259.535 3.90309 -3.16171 0
M  V30 2757 C 261.529 3.81652 -5.1051 0
M  V30 2758 C 259.216 4.13839 -4.49644 0
M  V30 2759 C 260.214 4.09502 -5.46623 0
M  V30 2760 O 259.902 4.32426 -6.77689 0
M  V30 2761 H 259.634 0.591997 -0.326367 0
M  V30 2762 H 262.188 1.394 -1.50854 0
M  V30 2763 H 260.418 3.80805 -0.672667 0
M  V30 2764 H 262.107 3.9132 -1.07812 0
M  V30 2765 H 262.873 3.35865 -3.49885 0
M  V30 2766 H 258.752 3.92811 -2.41289 0
M  V30 2767 H 262.296 3.78182 -5.86195 0
M  V30 2768 H 258.193 4.35232 -4.767 0
M  V30 2769 H 258.961 4.49896 -6.83766 0
M  V30 2770 N 261.624 0.925811 1.2754 0
M  V30 2771 C 262.87 0.566092 1.94739 0
M  V30 2772 C 263.203 -0.890057 1.72603 0
M  V30 2773 O 262.478 -1.63467 1.05399 0
M  V30 2774 C 262.761 0.89054 3.48915 0
M  V30 2775 C 262.614 2.4003 3.80402 0
M  V30 2776 C 263.933 0.395101 4.38323 0
M  V30 2777 H 261.052 0.20714 0.707292 0
M  V30 2778 H 263.694 1.15725 1.50691 0
M  V30 2779 H 261.844 0.387452 3.86563 0
M  V30 2780 H 263.516 2.97494 3.52555 0
M  V30 2781 H 261.759 2.85028 3.2702 0
M  V30 2782 H 262.43 2.57785 4.8811 0
M  V30 2783 H 264.906 0.826241 4.07814 0
M  V30 2784 H 263.782 0.651086 5.45025 0
M  V30 2785 H 264.043 -0.704798 4.36446 0
M  V30 2786 N 263.102 -1.41638 0.69111 0
M  V30 2787 C 264.05 -2.32597 0.0115199 0
M  V30 2788 C 265.044 -1.5072 -0.773296 0
M  V30 2789 O 266.25 -1.66685 -0.67942 0
M  V30 2790 H 262.625 -0.751849 -0.0150746 0
M  V30 2791 H 264.596 -2.87593 0.795791 0
M  V30 2792 C 263.345 -3.35467 -0.914172 0
M  V30 2793 H 262.668 -3.9852 -0.319687 0
M  V30 2794 H 264.108 -4.01662 -1.35808 0
M  V30 2795 C 262.567 -2.69004 -2.02826 0
M  V30 2796 O 263.097 -2.53444 -3.11655 0
M  V30 2797 N 261.303 -2.2777 -1.80469 0
M  V30 2798 H 260.85 -2.40626 -0.919615 0
M  V30 2799 H 260.808 -1.83635 -2.55197 0
M  V30 2800 N 264.58 -0.43555 -1.51462 0
M  V30 2801 C 265.991 0.0279871 -1.86679 0
M  V30 2802 C 266.342 1.42104 -1.35281 0
M  V30 2803 O 265.467 2.04667 -0.702878 0
M  V30 2804 C 266.062 0.0575626 -3.38751 0
M  V30 2805 C 264.621 0.465507 -3.7351 0
M  V30 2806 C 263.768 -0.342996 -2.75171 0
M  V30 2807 H 266.719 -0.651473 -1.44712 0
M  V30 2808 H 266.74 0.867421 -3.70481 0
M  V30 2809 H 266.252 -0.956448 -3.7613 0
M  V30 2810 H 264.353 1.48519 -3.41721 0
M  V30 2811 H 264.466 0.191546 -4.78717 0
M  V30 2812 H 262.83 0.198442 -2.53926 0
M  V30 2813 H 263.613 -1.35585 -3.15391 0
M  V30 2814 N 266.058 1.56714 -0.166846 0
M  V30 2815 C 267.335 1.88412 0.525373 0
M  V30 2816 C 267.715 1.07602 1.81618 0
M  V30 2817 O 267.063 0.168621 2.27877 0
M  V30 2818 C 267.273 3.40363 0.771613 0
M  V30 2819 C 268.621 4.10007 1.1036 0
M  V30 2820 O 269.645 3.45655 0.860304 0
M  V30 2821 O 268.504 5.2369 1.56239 0
M  V30 2822 H 265.598 0.781587 0.270278 0
M  V30 2823 H 268.144 1.68458 -0.204946 0
M  V30 2824 H 266.916 3.91046 -0.141093 0
M  V30 2825 H 266.539 3.65914 1.55541 0
M  V30 2826 N 267.536 -0.106894 1.57237 0
M  V30 2827 C 268.766 -0.825191 1.89405 0
M  V30 2828 C 269.174 -1.73374 0.757496 0
M  V30 2829 O 268.517 -1.81552 -0.280115 0
M  V30 2830 C 268.579 -1.70102 3.1671 0
M  V30 2831 C 268.243 -0.965523 4.46684 0
M  V30 2832 C 269.24 -0.300741 5.19029 0
M  V30 2833 C 266.925 -0.943105 4.93367 0
M  V30 2834 C 268.919 0.376622 6.36286 0
M  V30 2835 C 266.606 -0.261949 6.10538 0
M  V30 2836 C 267.604 0.396748 6.81847 0
M  V30 2837 O 267.292 1.06701 7.96787 0
M  V30 2838 H 267.024 -0.241852 0.631255 0
M  V30 2839 H 269.578 -0.0921491 2.05193 0
M  V30 2840 H 267.808 -2.47601 2.97036 0
M  V30 2841 H 269.497 -2.29483 3.34802 0
M  V30 2842 H 270.263 -0.309599 4.84011 0
M  V30 2843 H 266.142 -1.44524 4.3776 0
M  V30 2844 H 269.686 0.891334 6.91882 0
M  V30 2845 H 265.583 -0.250896 6.45012 0
M  V30 2846 H 266.351 0.972707 8.127 0
M  V30 2847 N 269.014 -1.53014 -0.377408 0
M  V30 2848 C 270.43 -1.42523 -0.718281 0
M  V30 2849 C 270.63 -0.55487 -1.9371 0
M  V30 2850 O 269.686 -0.0327593 -2.52479 0
M  V30 2851 C 270.999 -2.85546 -0.942539 0
M  V30 2852 C 272.547 -2.95101 -1.04329 0
M  V30 2853 C 273.022 -4.3916 -1.3001 0
M  V30 2854 N 274.513 -4.42536 -1.36806 0
M  V30 2855 C 275.248 -5.51097 -1.58364 0
M  V30 2856 N 274.744 -6.69724 -1.77317 0
M  V30 2857 N 276.537 -5.38657 -1.60638 0
M  V30 2858 H 268.688 -2.08116 0.424426 0
M  V30 2859 H 270.951 -0.939352 0.127759 0
M  V30 2860 H 270.657 -3.51499 -0.118929 0
M  V30 2861 H 270.531 -3.28493 -1.85397 0
M  V30 2862 H 272.918 -2.29309 -1.85745 0
M  V30 2863 H 272.999 -2.55566 -0.109505 0
M  V30 2864 H 272.643 -5.05521 -0.490991 0
M  V30 2865 H 272.573 -4.76258 -2.24691 0
M  V30 2866 H 275.064 -3.57039 -1.23821 0
M  V30 2867 H 275.377 -7.48233 -1.93306 0
M  V30 2868 H 273.722 -6.72732 -1.74518 0
M  V30 2869 H 276.913 -4.44948 -1.45391 0
M  V30 2870 H 277.086 -6.2333 -1.77098 0
M  V30 2871 N 270.492 0.636531 -1.44174 0
M  V30 2872 C 271.769 1.39463 -1.37148 0
M  V30 2873 C 272.149 2.11082 -0.027507 0
M  V30 2874 O 271.497 2.05954 0.989716 0
M  V30 2875 C 271.707 2.36552 -2.56601 0
M  V30 2876 C 273.055 3.00048 -3.00427 0
M  V30 2877 O 274.079 2.46878 -2.56767 0
M  V30 2878 O 272.938 3.96488 -3.76111 0
M  V30 2879 H 270.032 0.623903 -0.542839 0
M  V30 2880 H 272.578 0.662039 -1.56253 0
M  V30 2881 H 271.35 1.82692 -3.46034 0
M  V30 2882 H 270.973 3.17236 -2.39681 0
M  V30 2883 N 271.97 1.30982 0.876444 0
M  V30 2884 C 273.386 1.09498 1.16113 0
M  V30 2885 C 273.586 -0.13875 2.01022 0
M  V30 2886 O 272.642 -0.829935 2.38471 0
M  V30 2887 C 273.955 2.36308 1.85954 0
M  V30 2888 C 275.503 2.41856 1.98683 0
M  V30 2889 C 275.978 3.6853 2.71937 0
M  V30 2890 N 277.469 3.69387 2.79477 0
M  V30 2891 C 278.204 4.64096 3.36753 0
M  V30 2892 N 277.7 5.69155 3.95012 0
M  V30 2893 N 279.493 4.51626 3.3465 0
M  V30 2894 H 271.644 2.10118 0.310494 0
M  V30 2895 H 273.907 0.926634 0.200131 0
M  V30 2896 H 273.613 3.26388 1.31011 0
M  V30 2897 H 273.487 2.4561 2.86278 0
M  V30 2898 H 275.874 1.52249 2.52793 0
M  V30 2899 H 275.955 2.36523 0.9742 0
M  V30 2900 H 275.599 4.58499 2.18496 0
M  V30 2901 H 275.529 3.71127 3.73593 0
M  V30 2902 H 278.02 2.93438 2.38123 0
M  V30 2903 H 278.333 6.3751 4.36808 0
M  V30 2904 H 276.678 5.72937 3.93406 0
M  V30 2905 H 279.869 3.68728 2.8837 0
M  V30 2906 H 280.042 5.25614 3.7899 0
M  V30 2907 N 273.449 -1.08991 1.13837 0
M  V30 2908 C 274.698 -1.80631 0.897509 0
M  V30 2909 C 275.011 -1.86872 -0.57777 0
M  V30 2910 O 276.217 -2.54866 -0.935701 0
M  V30 2911 C 274.673 -3.24517 1.55618 0
M  V30 2912 C 274.281 -3.26529 3.0673 0
M  V30 2913 C 276.025 -4.00882 1.3962 0
M  V30 2914 C 273.932 -4.64965 3.65461 0
M  V30 2915 H 272.862 -0.67691 0.332129 0
M  V30 2916 H 275.513 -1.2246 1.3666 0
M  V30 2917 H 273.895 -3.82778 1.01476 0
M  V30 2918 H 275.069 -2.78008 3.67489 0
M  V30 2919 H 273.384 -2.63656 3.22296 0
M  V30 2920 H 275.981 -5.03167 1.80906 0
M  V30 2921 H 276.324 -4.14896 0.341578 0
M  V30 2922 H 276.857 -3.49075 1.90766 0
M  V30 2923 H 273.596 -4.56153 4.70749 0
M  V30 2924 H 273.116 -5.13792 3.09481 0
M  V30 2925 H 274.795 -5.3394 3.654 0
M  V30 2926 N 274.927 -0.932562 -1.27047 0
M  V30 2927 C 275.89 -0.440064 -2.24936 0
M  V30 2928 C 276.89 0.444071 -1.54547 0
M  V30 2929 O 278.08 0.244465 -1.72476 0
M  V30 2930 C 275.212 0.36678 -3.38921 0
M  V30 2931 H 276.405 -1.305 -2.70018 0
M  V30 2932 H 273.958 -0.713707 -1.39054 0
M  V30 2933 H 274.693 1.25033 -2.99228 0
M  V30 2934 H 274.478 -0.267204 -3.91188 0
M  V30 2935 H 275.968 0.701567 -4.11665 0
M  V30 2936 N 276.405 1.4127 -0.698611 0
M  V30 2937 C 277.652 2.0118 -0.230865 0
M  V30 2938 C 277.98 1.55338 1.17049 0
M  V30 2939 O 277.235 0.756775 1.80475 0
M  V30 2940 C 277.534 3.56592 -0.240192 0
M  V30 2941 C 277.2 4.21955 -1.58948 0
M  V30 2942 C 275.862 4.39524 -1.95887 0
M  V30 2943 C 278.214 4.58576 -2.47704 0
M  V30 2944 C 275.542 4.90992 -3.2116 0
M  V30 2945 C 277.894 5.11435 -3.72313 0
M  V30 2946 C 276.558 5.27215 -4.0939 0
M  V30 2947 H 275.828 0.736169 -0.0844796 0
M  V30 2948 H 278.475 1.69124 -0.8983 0
M  V30 2949 H 276.78 3.88456 0.510797 0
M  V30 2950 H 278.477 4.00758 0.139296 0
M  V30 2951 H 275.067 4.08657 -1.29219 0
M  V30 2952 H 279.251 4.44654 -2.20445 0
M  V30 2953 H 274.507 5.01393 -3.49878 0
M  V30 2954 H 278.681 5.38752 -4.4127 0
M  V30 2955 H 276.308 5.66859 -5.06533 0
M  V30 2956 N 277.883 0.443576 1.51229 0
M  V30 2957 C 278.813 -0.355142 2.30783 0
M  V30 2958 C 279.794 -1.0154 1.36468 0
M  V30 2959 O 280.979 -1.01785 1.65389 0
M  V30 2960 C 278.109 -1.45312 3.15439 0
M  V30 2961 C 277.063 -0.916002 4.18083 0
M  V30 2962 C 276.389 -2.1102 4.91299 0
M  V30 2963 C 277.689 0.0538602 5.22272 0
M  V30 2964 H 279.383 0.308767 2.97804 0
M  V30 2965 H 276.929 0.149937 1.43217 0
M  V30 2966 H 278.882 -2.01914 3.69876 0
M  V30 2967 H 277.606 -2.14541 2.46252 0
M  V30 2968 H 276.265 -0.372145 3.64706 0
M  V30 2969 H 275.913 -2.78882 4.18609 0
M  V30 2970 H 275.613 -1.75717 5.60712 0
M  V30 2971 H 277.137 -2.68164 5.48562 0
M  V30 2972 H 278.551 -0.422069 5.71744 0
M  V30 2973 H 276.948 0.319776 5.99247 0
M  V30 2974 H 278.018 0.98858 4.74716 0
M  V30 2975 N 279.361 -1.56624 0.175154 0
M  V30 2976 C 280.271 -2.21741 -0.766042 0
M  V30 2977 C 281.287 -1.21023 -1.25018 0
M  V30 2978 O 282.463 -1.53697 -1.3015 0
M  V30 2979 C 279.528 -2.84839 -1.97655 0
M  V30 2980 C 278.589 -4.00769 -1.53892 0
M  V30 2981 C 277.822 -4.60849 -2.69173 0
M  V30 2982 O 278.045 -4.19823 -3.86141 0
M  V30 2983 O 276.979 -5.50655 -2.43028 0
M  V30 2984 H 280.805 -3.02738 -0.241585 0
M  V30 2985 H 278.39 -1.49305 -0.053222 0
M  V30 2986 H 280.272 -3.24834 -2.68442 0
M  V30 2987 H 278.947 -2.06836 -2.48999 0
M  V30 2988 H 277.854 -3.65436 -0.80044 0
M  V30 2989 H 279.187 -4.80376 -1.07236 0
M  V30 2990 N 280.839 0.0985539 -1.57292 0
M  V30 2991 C 281.749 1.13824 -2.05137 0
M  V30 2992 C 282.765 1.44076 -0.975604 0
M  V30 2993 O 283.941 1.54786 -1.28853 0
M  V30 2994 C 281.006 2.43969 -2.46333 0
M  V30 2995 C 280.067 2.2093 -3.68087 0
M  V30 2996 C 279.3 3.44869 -4.0731 0
M  V30 2997 O 279.523 4.52972 -3.46659 0
M  V30 2998 O 278.457 3.34661 -5.00285 0
M  V30 2999 H 282.283 0.761881 -2.93988 0
M  V30 3000 H 279.868 0.310818 -1.46131 0
M  V30 3001 H 281.75 3.20609 -2.73473 0
M  V30 3002 H 280.425 2.81038 -1.60621 0
M  V30 3003 H 279.332 1.42081 -3.46069 0
M  V30 3004 H 280.665 1.88755 -4.54568 0
M  V30 3005 N 282.317 1.53212 0.369288 0
M  V30 3006 C 283.728 1.60943 0.946276 0
M  V30 3007 C 284.079 0.47452 1.90375 0
M  V30 3008 O 283.204 -0.399597 2.12679 0
M  V30 3009 C 283.799 2.91715 1.72302 0
M  V30 3010 C 282.358 3.01792 2.24941 0
M  V30 3011 C 281.505 2.56211 1.06072 0
M  V30 3012 H 284.456 1.58007 0.148198 0
M  V30 3013 H 284.477 2.79309 2.58393 0
M  V30 3014 H 283.989 3.74295 1.0259 0
M  V30 3015 H 282.09 2.23791 2.97906 0
M  V30 3016 H 282.203 4.06803 2.53077 0
M  V30 3017 H 280.567 2.10998 1.4266 0
M  V30 3018 H 281.35 3.41206 0.378639 0
M  V30 3019 N 283.795 -0.628877 1.44509 0
M  V30 3020 C 285.035 -1.39993 1.48934 0
M  V30 3021 C 285.399 -1.91627 0.119604 0
M  V30 3022 O 286.6 -2.68772 0.0385283 0
M  V30 3023 C 284.871 -2.53241 2.52198 0
M  V30 3024 S 286.43 -3.41383 2.75687 0
M  V30 3025 H 283.248 -0.477558 0.526744 0
M  V30 3026 H 285.85 -0.727804 1.81448 0
M  V30 3027 H 284.554 -2.13622 3.50419 0
M  V30 3028 H 284.085 -3.25278 2.21264 0
M  V30 3029 H 286.1 -4.50752 2.07453 0
M  V30 3030 N 285.273 -1.31445 -0.869486 0
M  V30 3031 C 286.22 -1.19135 -1.97675 0
M  V30 3032 C 287.19 -0.0770266 -1.65921 0
M  V30 3033 O 288.375 -0.249972 -1.89155 0
M  V30 3034 C 285.515 -0.905149 -3.33018 0
M  V30 3035 C 284.628 -2.10285 -3.77365 0
M  V30 3036 C 283.763 -1.75339 -5.01427 0
M  V30 3037 C 282.802 -2.91515 -5.38224 0
M  V30 3038 N 281.939 -2.56762 -6.53466 0
M  V30 3039 H 286.779 -2.13853 -2.07535 0
M  V30 3040 H 284.316 -1.06379 -1.01597 0
M  V30 3041 H 286.274 -0.719765 -4.10944 0
M  V30 3042 H 284.904 0.00519624 -3.228 0
M  V30 3043 H 283.956 -2.39899 -2.95216 0
M  V30 3044 H 285.268 -2.97237 -4.00564 0
M  V30 3045 H 284.422 -1.53266 -5.87022 0
M  V30 3046 H 283.161 -0.855801 -4.80133 0
M  V30 3047 H 282.166 -3.14237 -4.51149 0
M  V30 3048 H 283.391 -3.81985 -5.61484 0
M  V30 3049 H 281.337 -1.69526 -6.33717 0
M  V30 3050 H 281.254 -3.37243 -6.76612 0
M  V30 3051 H 282.522 -2.38083 -7.42251 0
M  V30 3052 N 286.751 1.08385 -1.14413 0
M  V30 3053 C 287.979 1.84517 -0.936001 0
M  V30 3054 C 288.394 1.81626 0.515503 0
M  V30 3055 O 287.751 1.22008 1.35721 0
M  V30 3056 C 287.802 3.32049 -1.42918 0
M  V30 3057 O 287.523 3.34951 -2.82381 0
M  V30 3058 C 289.024 4.24986 -1.26103 0
M  V30 3059 H 286.244 0.582491 -0.333084 0
M  V30 3060 H 288.788 1.36885 -1.5193 0
M  V30 3061 H 286.943 3.7707 -0.888641 0
M  V30 3062 H 287.357 4.27048 -3.04517 0
M  V30 3063 H 288.831 5.26615 -1.6547 0
M  V30 3064 H 289.308 4.38726 -0.20392 0
M  V30 3065 H 289.914 3.85791 -1.79012 0
M  V30 3066 N 288.23 0.939286 1.26551 0
M  V30 3067 C 289.646 0.641304 1.46149 0
M  V30 3068 C 289.846 -0.805964 1.84679 0
M  V30 3069 O 288.902 -1.58278 1.96734 0
M  V30 3070 C 290.215 1.6011 2.54529 0
M  V30 3071 C 291.763 1.6106 2.68382 0
M  V30 3072 C 292.238 2.55765 3.79932 0
M  V30 3073 N 293.729 2.5404 3.87322 0
M  V30 3074 C 294.464 3.24004 4.73085 0
M  V30 3075 N 293.96 4.03388 5.63249 0
M  V30 3076 N 295.753 3.12965 4.66914 0
M  V30 3077 H 287.904 1.87478 0.998285 0
M  V30 3078 H 290.167 0.805559 0.499779 0
M  V30 3079 H 289.873 2.63412 2.33039 0
M  V30 3080 H 289.747 1.35171 3.52149 0
M  V30 3081 H 292.134 0.584835 2.89247 0
M  V30 3082 H 292.215 1.90053 1.71212 0
M  V30 3083 H 291.859 3.58458 3.5982 0
M  V30 3084 H 291.789 2.24063 4.76554 0
M  V30 3085 H 294.28 1.96396 3.22858 0
M  V30 3086 H 294.593 4.5373 6.25579 0
M  V30 3087 H 292.938 4.07489 5.63008 0
M  V30 3088 H 296.129 2.50432 3.95476 0
M  V30 3089 H 296.302 3.67759 5.33533 0
M  V30 3090 N 289.708 -1.40897 0.706093 0
M  V30 3091 C 290.985 -1.94868 0.169099 0
M  V30 3092 C 291.365 -1.64485 -1.32318 0
M  V30 3093 O 290.713 -0.95744 -2.07474 0
M  V30 3094 C 290.923 -3.45798 0.471654 0
M  V30 3095 C 292.271 -4.22663 0.405127 0
M  V30 3096 O 293.295 -3.53865 0.407168 0
M  V30 3097 O 292.154 -5.45216 0.374383 0
M  V30 3098 H 289.248 -0.82673 0.0211352 0
M  V30 3099 H 291.794 -1.50558 0.782976 0
M  V30 3100 H 290.566 -3.61235 1.50416 0
M  V30 3101 H 290.189 -3.97225 -0.172666 0
M  V30 3102 N 291.186 -0.45159 -1.50991 0
M  V30 3103 C 292.463 0.170707 -1.94854 0
M  V30 3104 C 292.843 1.58788 -1.39103 0
M  V30 3105 O 292.191 2.20913 -0.583921 0
M  V30 3106 C 292.401 0.133929 -3.48743 0
M  V30 3107 C 293.749 0.33248 -4.23296 0
M  V30 3108 O 294.773 0.211403 -3.55572 0
M  V30 3109 O 293.632 0.57486 -5.43468 0
M  V30 3110 H 290.726 0.122264 -0.817912 0
M  V30 3111 H 293.272 -0.510594 -1.61836 0
M  V30 3112 H 292.044 -0.856283 -3.81816 0
M  V30 3113 H 291.667 0.857529 -3.88242 0
M  V30 3114 N 292.664 1.56529 -0.183458 0
M  V30 3115 C 293.889 2.02064 0.467428 0
M  V30 3116 C 294.314 1.06282 1.55196 0
M  V30 3117 O 293.672 0.0443565 1.81246 0
M  V30 3118 C 293.72 3.46122 1.01153 0
M  V30 3119 O 292.824 3.53437 2.12499 0
M  V30 3120 H 292.165 0.654726 0.110588 0
M  V30 3121 H 294.695 2.02521 -0.290917 0
M  V30 3122 H 294.705 3.85676 1.33108 0
M  V30 3123 H 293.38 4.15331 0.217533 0
M  V30 3124 H 291.957 3.2575 1.81497 0
M  V30 3125 N 294.142 -0.090211 1.57342 0
M  V30 3126 C 295.558 -0.444547 1.53284 0
M  V30 3127 C 295.758 -1.80238 0.900914 0
M  V30 3128 O 294.814 -2.4759 0.495513 0
M  V30 3129 C 296.127 -0.402543 2.97993 0
M  V30 3130 C 297.675 -0.48405 3.09234 0
M  V30 3131 C 298.15 -0.472144 4.5556 0
M  V30 3132 N 299.641 -0.532757 4.60126 0
M  V30 3133 C 300.376 -0.545462 5.708 0
M  V30 3134 N 299.872 -0.514082 6.9089 0
M  V30 3135 N 301.665 -0.59064 5.58988 0
M  V30 3136 H 293.816 0.799121 1.96794 0
M  V30 3137 H 296.079 0.297965 0.899956 0
M  V30 3138 H 295.785 0.528106 3.47712 0
M  V30 3139 H 295.659 -1.21969 3.56936 0
M  V30 3140 H 298.046 -1.40512 2.595 0
M  V30 3141 H 298.127 0.361328 2.53235 0
M  V30 3142 H 297.771 0.445 5.05947 0
M  V30 3143 H 297.701 -1.3348 5.09402 0
M  V30 3144 H 300.192 -0.562006 3.73698 0
M  V30 3145 H 300.505 -0.527195 7.71 0
M  V30 3146 H 298.85 -0.481054 6.93333 0
M  V30 3147 H 302.041 -0.61272 4.64073 0
M  V30 3148 H 302.214 -0.597073 6.45243 0
M  V30 3149 N 295.62 -1.53406 -0.361157 0
M  V30 3150 C 296.583 -1.79479 -1.42548 0
M  V30 3151 C 297.583 -0.665327 -1.4639 0
M  V30 3152 O 298.773 -0.933549 -1.47073 0
M  V30 3153 C 295.905 -1.92087 -2.8163 0
M  V30 3154 H 297.098 -2.74538 -1.20701 0
M  V30 3155 H 294.651 -1.4455 -0.594546 0
M  V30 3156 H 295.386 -0.991099 -3.08784 0
M  V30 3157 H 295.171 -2.74241 -2.80239 0
M  V30 3158 H 296.661 -2.13836 -3.58697 0
M  V30 3159 N 297.098 0.621204 -1.44841 0
M  V30 3160 C 298.345 1.38055 -1.48145 0
M  V30 3161 C 298.673 1.94143 -0.117867 0
M  V30 3162 O 297.928 1.74713 0.881694 0
M  V30 3163 C 298.227 2.55675 -2.4973 0
M  V30 3164 C 297.893 2.17817 -3.94799 0
M  V30 3165 C 296.555 2.07205 -4.34303 0
M  V30 3166 C 298.907 1.88065 -4.86087 0
M  V30 3167 C 296.235 1.65045 -5.63007 0
M  V30 3168 C 298.587 1.47394 -6.15189 0
M  V30 3169 C 297.251 1.35331 -6.53637 0
M  V30 3170 H 296.521 0.505181 -0.542101 0
M  V30 3171 H 299.168 0.703477 -1.78111 0
M  V30 3172 H 297.473 3.2866 -2.13284 0
M  V30 3173 H 299.17 3.13904 -2.4953 0
M  V30 3174 H 295.76 2.26998 -3.63552 0
M  V30 3175 H 299.944 1.95168 -4.56315 0
M  V30 3176 H 295.2 1.54317 -5.91605 0
M  V30 3177 H 299.374 1.23415 -6.85377 0
M  V30 3178 H 297.001 1.02435 -7.53267 0
M  V30 3179 N 298.576 1.31904 0.862503 0
M  V30 3180 C 299.539 1.20131 1.95195 0
M  V30 3181 C 300.539 0.126409 1.60302 0
M  V30 3182 O 301.729 0.376234 1.70089 0
M  V30 3183 C 298.861 0.845691 3.30244 0
M  V30 3184 H 300.054 2.16943 2.07064 0
M  V30 3185 H 297.607 1.15622 1.05172 0
M  V30 3186 H 298.342 -0.120957 3.24074 0
M  V30 3187 H 298.127 1.62276 3.56944 0
M  V30 3188 H 299.617 0.787418 4.10109 0
M  V30 3189 N 300.054 -1.07777 1.14986 0
M  V30 3190 C 301.47 -1.32373 0.891596 0
M  V30 3191 C 301.67 -1.9609 -0.463788 0
M  V30 3192 O 300.726 -2.21801 -1.20667 0
M  V30 3193 C 302.039 -2.21905 2.02925 0
M  V30 3194 C 303.587 -2.35367 2.06329 0
M  V30 3195 C 304.062 -3.28245 3.19405 0
M  V30 3196 N 305.553 -3.35824 3.19024 0
M  V30 3197 C 306.288 -4.07739 4.03158 0
M  V30 3198 N 305.784 -4.82306 4.97346 0
M  V30 3199 N 307.577 -4.03635 3.91197 0
M  V30 3200 H 299.728 -0.648039 2.02273 0
M  V30 3201 H 301.991 -0.348149 0.881757 0
M  V30 3202 H 301.697 -1.82342 3.0074 0
M  V30 3203 H 301.571 -3.22407 1.95789 0
M  V30 3204 H 303.958 -2.74186 1.09116 0
M  V30 3205 H 304.039 -1.34585 2.17533 0
M  V30 3206 H 303.683 -2.90146 4.16867 0
M  V30 3207 H 303.613 -4.28971 3.05437 0
M  V30 3208 H 306.104 -2.8267 2.50811 0
M  V30 3209 H 306.417 -5.34661 5.57994 0
M  V30 3210 H 304.762 -4.81337 5.01338 0
M  V30 3211 H 307.953 -3.44491 3.16928 0
M  V30 3212 H 308.126 -4.59417 4.5699 0
M  V30 3213 N 301.532 -0.945985 -1.26051 0
M  V30 3214 C 302.442 -0.465633 -2.29933 0
M  V30 3215 C 303.458 0.462761 -1.67733 0
M  V30 3216 O 304.634 0.341118 -1.9849 0
M  V30 3217 C 301.699 0.256994 -3.45746 0
M  V30 3218 C 300.76 -0.708549 -4.23412 0
M  V30 3219 C 299.993 -0.0203135 -5.33696 0
M  V30 3220 O 300.216 1.19571 -5.57726 0
M  V30 3221 O 299.15 -0.701459 -5.97799 0
M  V30 3222 H 302.976 -1.32866 -2.73094 0
M  V30 3223 H 300.561 -0.712071 -1.31339 0
M  V30 3224 H 302.443 0.663852 -4.16138 0
M  V30 3225 H 301.118 1.09533 -3.04605 0
M  V30 3226 H 300.025 -1.16545 -3.55483 0
M  V30 3227 H 301.358 -1.51465 -4.68315 0
M  V30 3228 N 303.011 1.40521 -0.713556 0
M  V30 3229 C 304.239 2.05237 -0.261775 0
M  V30 3230 C 304.654 1.53755 1.09567 0
M  V30 3231 O 304.011 0.693268 1.6882 0
M  V30 3232 C 304.062 3.60763 -0.230706 0
M  V30 3233 O 303.783 4.10345 -1.53455 0
M  V30 3234 C 305.284 4.42651 0.239874 0
M  V30 3235 H 302.504 0.660533 -0.118057 0
M  V30 3236 H 305.048 1.79967 -0.971192 0
M  V30 3237 H 303.203 3.8501 0.429661 0
M  V30 3238 H 303.617 5.04526 -1.43366 0
M  V30 3239 H 305.091 5.51599 0.210468 0
M  V30 3240 H 305.568 4.20082 1.28171 0
M  V30 3241 H 306.174 4.23507 -0.390142 0
M  V30 3242 N 304.489 0.459591 1.5075 0
M  V30 3243 C 305.737 -0.0991532 2.01857 0
M  V30 3244 C 306.058 -1.41247 1.34441 0
M  V30 3245 O 305.328 -1.89775 0.486022 0
M  V30 3246 H 303.908 -0.039633 0.745948 0
M  V30 3247 H 306.57 0.607387 1.85194 0
M  V30 3248 H 305.666 -0.258998 3.11023 0
M  V30 3249 N 305.967 -1.56429 0.191757 0
M  V30 3250 C 307.216 -1.9666 -0.448088 0
M  V30 3251 C 307.529 -1.08136 -1.62991 0
M  V30 3252 O 308.735 -1.38135 -2.33733 0
M  V30 3253 C 307.191 -3.49753 -0.848585 0
M  V30 3254 C 306.799 -4.46935 0.308764 0
M  V30 3255 C 308.543 -3.9876 -1.4557 0
M  V30 3256 C 306.45 -5.91293 -0.112506 0
M  V30 3257 H 305.38 -0.734312 -0.171179 0
M  V30 3258 H 308.031 -1.81301 0.283242 0
M  V30 3259 H 306.413 -3.60604 -1.63649 0
M  V30 3260 H 307.587 -4.47813 1.08627 0
M  V30 3261 H 305.902 -4.08102 0.827158 0
M  V30 3262 H 308.499 -5.04086 -1.78328 0
M  V30 3263 H 308.842 -3.42875 -2.36099 0
M  V30 3264 H 309.375 -3.9101 -0.731836 0
M  V30 3265 H 306.114 -6.51097 0.758514 0
M  V30 3266 H 305.634 -5.93676 -0.854941 0
M  V30 3267 H 307.313 -6.44663 -0.549448 0
M  V30 3268 N 307.445 0.0818655 -1.57387 0
M  V30 3269 C 308.408 1.08265 -2.02018 0
M  V30 3270 C 309.408 1.32183 -0.915664 0
M  V30 3271 O 310.598 1.28073 -1.18081 0
M  V30 3272 C 307.73 2.42871 -2.39221 0
M  V30 3273 H 308.923 0.698204 -2.91659 0
M  V30 3274 H 306.476 0.327303 -1.52835 0
M  V30 3275 H 307.211 2.86167 -1.52575 0
M  V30 3276 H 306.996 2.26855 -3.19811 0
M  V30 3277 H 308.486 3.14826 -2.74362 0
M  V30 3278 N 308.923 1.53595 0.353017 0
M  V30 3279 C 310.172 1.69603 1.09168 0
M  V30 3280 C 310.485 0.460925 1.90092 0
M  V30 3281 O 311.691 0.501774 2.66823 0
M  V30 3282 C 310.147 2.99872 1.9901 0
M  V30 3283 C 309.755 4.30687 1.23339 0
M  V30 3284 C 311.499 3.25246 2.72792 0
M  V30 3285 C 309.406 5.52036 2.12156 0
M  V30 3286 H 308.336 0.631966 0.411261 0
M  V30 3287 H 310.987 1.80096 0.351802 0
M  V30 3288 H 309.369 2.83212 2.7678 0
M  V30 3289 H 310.543 4.58019 0.505456 0
M  V30 3290 H 308.858 4.11853 0.613663 0
M  V30 3291 H 311.455 4.13095 3.39495 0
M  V30 3292 H 311.798 2.41846 3.38846 0
M  V30 3293 H 312.331 3.42638 2.021 0
M  V30 3294 H 309.07 6.37951 1.50659 0
M  V30 3295 H 308.59 5.28966 2.82764 0
M  V30 3296 H 310.269 5.87313 2.71427 0
M  V30 3297 N 310.401 -0.613514 1.45168 0
M  V30 3298 C 311.364 -1.7065 1.53007 0
M  V30 3299 C 312.364 -1.5548 0.410184 0
M  V30 3300 O 313.554 -1.60656 0.673455 0
M  V30 3301 C 310.686 -3.09875 1.42093 0
M  V30 3302 H 311.879 -1.65068 2.50385 0
M  V30 3303 H 309.432 -0.828728 1.32521 0
M  V30 3304 H 310.167 -3.21039 0.458769 0
M  V30 3305 H 309.952 -3.22293 2.23315 0
M  V30 3306 H 311.442 -3.895 1.50598 0
M  V30 3307 N 311.879 -1.3236 -0.855495 0
M  V30 3308 C 313.125 -1.24064 -1.61182 0
M  V30 3309 C 313.48 0.195914 -1.914 0
M  V30 3310 O 312.773 1.13345 -1.54478 0
M  V30 3311 C 312.967 -2.03275 -2.93963 0
M  V30 3312 C 312.796 -3.54486 -2.76712 0
M  V30 3313 C 311.566 -4.23824 -2.75139 0
M  V30 3314 C 313.764 -4.49154 -2.50531 0
M  V30 3315 N 311.746 -5.61095 -2.4909 0
M  V30 3316 C 313.117 -5.74195 -2.3388 0
M  V30 3317 C 315.172 -4.3842 -2.35992 0
M  V30 3318 C 313.875 -6.89716 -2.04168 0
M  V30 3319 C 315.901 -5.53739 -2.0767 0
M  V30 3320 C 315.263 -6.77779 -1.9182 0
M  V30 3321 H 311.362 -0.509139 -0.59355 0
M  V30 3322 H 313.946 -1.66715 -1.00569 0
M  V30 3323 H 312.117 -1.6297 -3.52555 0
M  V30 3324 H 313.849 -1.86881 -3.58967 0
M  V30 3325 H 310.604 -3.75934 -2.88047 0
M  V30 3326 H 311.028 -6.33411 -2.38996 0
M  V30 3327 H 315.67 -3.43172 -2.46967 0
M  V30 3328 H 313.388 -7.84977 -1.9193 0
M  V30 3329 H 316.974 -5.4736 -1.97201 0
M  V30 3330 H 315.854 -7.65504 -1.70217 0
M  V30 3331 N 313.357 1.07166 -1.15556 0
M  V30 3332 C 314.634 1.76546 -0.842069 0
M  V30 3333 C 315.014 2.00453 0.661939 0
M  V30 3334 O 314.362 1.62452 1.60691 0
M  V30 3335 C 314.572 3.07266 -1.65495 0
M  V30 3336 C 315.92 3.81578 -1.86234 0
M  V30 3337 O 316.944 3.17083 -1.62287 0
M  V30 3338 O 315.803 4.97419 -2.26355 0
M  V30 3339 H 312.897 0.766756 -0.309862 0
M  V30 3340 H 315.443 1.13514 -1.26145 0
M  V30 3341 H 314.215 2.85494 -2.67598 0
M  V30 3342 H 313.838 3.7803 -1.23203 0
M  V30 3343 N 314.835 0.952656 1.25548 0
M  V30 3344 C 315.745 0.47782 2.29682 0
M  V30 3345 C 316.761 -0.453859 1.67977 0
M  V30 3346 O 317.937 -0.330587 1.98668 0
M  V30 3347 C 315.002 -0.238655 3.45878 0
M  V30 3348 C 314.063 0.730994 4.23031 0
M  V30 3349 C 313.296 0.0486165 5.33678 0
M  V30 3350 O 313.519 -1.16612 5.58353 0
M  V30 3351 O 312.453 0.733152 5.97418 0
M  V30 3352 H 316.279 1.34312 2.72386 0
M  V30 3353 H 313.864 0.719026 1.30959 0
M  V30 3354 H 315.746 -0.641774 4.16484 0
M  V30 3355 H 314.421 -1.07916 3.05181 0
M  V30 3356 H 313.328 1.18428 3.5486 0
M  V30 3357 H 314.661 1.53946 4.67506 0
M  V30 3358 N 316.313 -1.40141 0.720998 0
M  V30 3359 C 317.538 -2.05618 0.271258 0
M  V30 3360 C 317.963 -1.53978 -1.08039 0
M  V30 3361 O 317.321 -0.677463 -1.68167 0
M  V30 3362 C 317.369 -3.59609 0.267197 0
M  V30 3363 O 316.473 -4.05526 -0.749814 0
M  V30 3364 H 315.814 -0.651904 0.126162 0
M  V30 3365 H 318.344 -1.79439 0.982997 0
M  V30 3366 H 318.354 -4.0786 0.106744 0
M  V30 3367 H 317.029 -3.96559 1.25354 0
M  V30 3368 H 315.606 -3.68722 -0.556644 0
M  V30 3369 N 317.792 -0.46758 -1.50504 0
M  V30 3370 C 318.722 0.318381 -2.31319 0
M  V30 3371 C 319.703 0.993564 -1.38066 0
M  V30 3372 O 320.888 0.991411 -1.66987 0
M  V30 3373 C 318.018 1.40275 -3.17711 0
M  V30 3374 C 316.972 0.849373 -4.19487 0
M  V30 3375 C 316.298 2.03177 -4.94594 0
M  V30 3376 C 317.598 -0.136942 -5.2212 0
M  V30 3377 H 319.292 -0.356106 -2.97275 0
M  V30 3378 H 316.838 -0.172703 -1.42961 0
M  V30 3379 H 318.791 1.96004 -3.73042 0
M  V30 3380 H 317.515 2.10596 -2.49634 0
M  V30 3381 H 316.174 0.314076 -3.65252 0
M  V30 3382 H 315.822 2.72187 -4.22993 0
M  V30 3383 H 315.522 1.66774 -5.63436 0
M  V30 3384 H 317.046 2.59403 -5.52759 0
M  V30 3385 H 318.46 0.331056 -5.72343 0
M  V30 3386 H 316.857 -0.41507 -5.98663 0
M  V30 3387 H 317.927 -1.06398 -4.73083 0
M  V30 3388 N 319.27 1.56325 -0.20005 0
M  V30 3389 C 320.686 1.58839 0.155716 0
M  V30 3390 C 320.886 1.21636 1.60645 0
M  V30 3391 O 319.942 0.941437 2.34293 0
M  V30 3392 C 321.255 3.0032 -0.151124 0
M  V30 3393 C 322.803 3.12866 -0.0916284 0
M  V30 3394 C 323.278 4.56488 -0.371845 0
M  V30 3395 N 324.769 4.62089 -0.320641 0
M  V30 3396 C 325.504 5.71116 -0.511243 0
M  V30 3397 N 325 6.88592 -0.762461 0
M  V30 3398 N 326.793 5.60335 -0.445157 0
M  V30 3399 H 318.944 1.78788 -1.14668 0
M  V30 3400 H 321.207 0.829996 -0.458051 0
M  V30 3401 H 320.913 3.32117 -1.15721 0
M  V30 3402 H 320.787 3.73257 0.543986 0
M  V30 3403 H 323.174 2.80878 0.905065 0
M  V30 3404 H 323.255 2.42304 -0.81989 0
M  V30 3405 H 322.899 4.89189 -1.36588 0
M  V30 3406 H 322.829 5.25246 0.377362 0
M  V30 3407 H 325.32 3.77665 -0.13329 0
M  V30 3408 H 325.633 7.67581 -0.896576 0
M  V30 3409 H 323.978 6.90387 -0.799412 0
M  V30 3410 H 327.169 4.67436 -0.249278 0
M  V30 3411 H 327.342 6.45243 -0.597116 0
M  V30 3412 N 320.748 -0.0735177 1.57428 0
M  V30 3413 C 321.658 -1.10547 2.06922 0
M  V30 3414 C 322.674 -1.42506 0.998402 0
M  V30 3415 O 323.85 -1.52717 1.31299 0
M  V30 3416 C 320.915 -2.40019 2.50184 0
M  V30 3417 C 319.976 -2.15046 3.71556 0
M  V30 3418 C 319.209 -3.38345 4.12745 0
M  V30 3419 O 319.432 -4.47399 3.53822 0
M  V30 3420 O 318.366 -3.2666 5.05546 0
M  V30 3421 H 322.192 -0.715013 2.95163 0
M  V30 3422 H 319.777 -0.287531 1.46607 0
M  V30 3423 H 321.659 -3.16218 2.78539 0
M  V30 3424 H 320.334 -2.78447 1.65072 0
M  V30 3425 H 319.241 -1.36558 3.48285 0
M  V30 3426 H 320.574 -1.81499 4.57514 0
M  V30 3427 N 322.226 -1.5378 -0.344866 0
M  V30 3428 C 323.637 -1.62428 -0.920552 0
M  V30 3429 C 323.988 -0.504747 -1.89596 0
M  V30 3430 O 323.113 0.365711 -2.13287 0
M  V30 3431 C 323.708 -2.94419 -1.67639 0
M  V30 3432 C 322.267 -3.05333 -2.20111 0
M  V30 3433 C 321.414 -2.57866 -1.01982 0
M  V30 3434 H 324.365 -1.58222 -0.123042 0
M  V30 3435 H 324.386 -2.83384 -2.53917 0
M  V30 3436 H 323.898 -3.7588 -0.966224 0
M  V30 3437 H 321.999 -2.28502 -2.94308 0
M  V30 3438 H 322.112 -4.10778 -2.46573 0
M  V30 3439 H 320.476 -2.13241 -1.39285 0
M  V30 3440 H 321.259 -3.41765 -0.324308 0
M  V30 3441 N 323.704 0.605807 -1.45491 0
M  V30 3442 C 324.981 1.36522 -1.40075 0
M  V30 3443 C 325.361 2.10976 -0.0722744 0
M  V30 3444 O 324.709 2.08007 0.945808 0
M  V30 3445 C 324.919 2.31056 -2.61561 0
M  V30 3446 C 326.267 2.93608 -3.06724 0
M  V30 3447 O 327.291 2.41376 -2.61946 0
M  V30 3448 O 326.15 3.88421 -3.84437 0
M  V30 3449 H 323.244 0.612248 -0.555951 0
M  V30 3450 H 325.79 0.628747 -1.57623 0
M  V30 3451 H 324.562 1.75311 -3.49831 0
M  V30 3452 H 324.185 3.12081 -2.46356 0
M  V30 3453 N 325.182 1.32811 0.848464 0
M  V30 3454 C 326.429 1.23724 1.60308 0
M  V30 3455 C 326.757 -0.1994 1.93475 0
M  V30 3456 O 326.012 -1.15406 1.5805 0
M  V30 3457 C 326.311 2.04831 2.92881 0
M  V30 3458 C 325.977 3.54125 2.79117 0
M  V30 3459 C 324.639 3.94829 2.7507 0
M  V30 3460 C 326.991 4.49036 2.64606 0
M  V30 3461 C 324.319 5.28675 2.544 0
M  V30 3462 C 326.671 5.83033 2.4547 0
M  V30 3463 C 325.335 6.22931 2.39819 0
M  V30 3464 H 324.605 0.452737 0.586609 0
M  V30 3465 H 327.252 1.64301 0.983743 0
M  V30 3466 H 325.557 1.57001 3.58968 0
M  V30 3467 H 327.254 1.95164 3.50303 0
M  V30 3468 H 323.844 3.21801 2.83094 0
M  V30 3469 H 328.028 4.18505 2.66772 0
M  V30 3470 H 323.284 5.58637 2.48465 0
M  V30 3471 H 327.458 6.56186 2.33222 0
M  V30 3472 H 325.085 7.26584 2.23562 0
M  V30 3473 N 326.66 -1.06551 1.16123 0
M  V30 3474 C 327.623 -2.12132 0.867906 0
M  V30 3475 C 328.623 -1.60224 -0.135944 0
M  V30 3476 O 329.813 -1.73943 0.0946422 0
M  V30 3477 C 326.945 -3.396 0.297419 0
M  V30 3478 H 328.138 -2.39586 1.80385 0
M  V30 3479 H 325.691 -1.22574 0.969812 0
M  V30 3480 H 326.426 -3.17794 -0.64633 0
M  V30 3481 H 326.211 -3.78581 1.02073 0
M  V30 3482 H 327.701 -4.17455 0.110052 0
M  V30 3483 N 328.138 -0.959301 -1.25041 0
M  V30 3484 C 329.385 -0.616611 -1.92884 0
M  V30 3485 C 329.713 0.847036 -1.75087 0
M  V30 3486 O 328.968 1.62374 -1.09239 0
M  V30 3487 C 329.267 -0.927136 -3.45165 0
M  V30 3488 C 328.933 -2.37757 -3.83122 0
M  V30 3489 C 327.595 -2.77402 -3.93194 0
M  V30 3490 C 329.947 -3.31929 -4.01836 0
M  V30 3491 C 327.275 -4.10277 -4.19392 0
M  V30 3492 C 329.627 -4.64423 -4.29528 0
M  V30 3493 C 328.291 -5.03857 -4.37818 0
M  V30 3494 H 327.561 -0.225634 -0.705812 0
M  V30 3495 H 330.208 -1.20921 -1.48493 0
M  V30 3496 H 328.513 -0.252195 -3.90987 0
M  V30 3497 H 330.21 -0.6405 -3.95852 0
M  V30 3498 H 326.8 -2.06013 -3.75841 0
M  V30 3499 H 330.984 -3.02488 -3.93465 0
M  V30 3500 H 326.24 -4.40467 -4.24027 0
M  V30 3501 H 330.414 -5.37369 -4.42953 0
M  V30 3502 H 328.041 -6.06843 -4.57871 0
M  V30 3503 N 329.616 1.39756 -0.72842 0
M  V30 3504 C 330.862 2.00942 -0.273892 0
M  V30 3505 C 331.195 1.57656 1.13394 0
M  V30 3506 O 330.47 0.802434 1.77176 0
M  V30 3507 C 330.753 3.58211 -0.368346 0
M  V30 3508 C 330.606 4.11534 -1.81548 0
M  V30 3509 C 331.925 4.39372 0.253054 0
M  V30 3510 H 329.044 0.730047 -0.100996 0
M  V30 3511 H 331.686 1.66056 -0.923337 0
M  V30 3512 H 329.836 3.88061 0.184588 0
M  V30 3513 H 331.508 3.92431 -2.42478 0
M  V30 3514 H 329.751 3.65341 -2.33898 0
M  V30 3515 H 330.422 5.20682 -1.83288 0
M  V30 3516 H 332.898 4.15527 -0.218224 0
M  V30 3517 H 331.774 5.48677 0.156585 0
M  V30 3518 H 332.035 4.21358 1.33826 0
M  V30 3519 N 331.094 0.475555 1.50254 0
M  V30 3520 C 332.057 -0.305016 2.27161 0
M  V30 3521 C 333.057 -0.916519 1.32123 0
M  V30 3522 O 334.247 -0.785003 1.5551 0
M  V30 3523 C 331.379 -1.43496 3.09227 0
M  V30 3524 H 332.572 0.369511 2.97615 0
M  V30 3525 H 330.125 0.229747 1.54602 0
M  V30 3526 H 330.86 -2.14441 2.43281 0
M  V30 3527 H 330.645 -1.00223 3.79075 0
M  V30 3528 H 332.135 -1.98548 3.67381 0
M  V30 3529 N 332.573 -1.56217 0.208337 0
M  V30 3530 C 333.483 -2.23316 -0.718836 0
M  V30 3531 C 334.499 -1.23648 -1.22422 0
M  V30 3532 O 335.675 -1.56423 -1.26861 0
M  V30 3533 C 332.74 -2.88968 -1.91568 0
M  V30 3534 C 331.801 -4.03943 -1.45357 0
M  V30 3535 C 331.034 -4.66455 -2.59337 0
M  V30 3536 O 331.257 -4.27919 -3.77149 0
M  V30 3537 O 330.191 -5.55686 -2.31293 0
M  V30 3538 H 334.017 -3.03182 -0.177315 0
M  V30 3539 H 331.602 -1.49384 -0.0215402 0
M  V30 3540 H 333.484 -3.30455 -2.61491 0
M  V30 3541 H 332.159 -2.12071 -2.44556 0
M  V30 3542 H 331.066 -3.67052 -0.722746 0
M  V30 3543 H 332.399 -4.82543 -0.970219 0
M  V30 3544 N 334.051 0.0651679 -1.57465 0
M  V30 3545 C 334.961 1.09448 -2.07505 0
M  V30 3546 C 335.977 1.41974 -1.00595 0
M  V30 3547 O 337.153 1.52018 -1.32107 0
M  V30 3548 C 334.218 2.38689 -2.51453 0
M  V30 3549 C 333.279 2.13073 -3.72691 0
M  V30 3550 C 332.512 3.36152 -4.14533 0
M  V30 3551 O 332.735 4.45517 -3.56189 0
M  V30 3552 O 331.669 3.23974 -5.07272 0
M  V30 3553 H 335.495 0.69935 -2.95538 0
M  V30 3554 H 333.08 0.279752 -1.46757 0
M  V30 3555 H 334.962 3.14736 -2.80212 0
M  V30 3556 H 333.637 2.77568 -1.66546 0
M  V30 3557 H 332.544 1.34709 -3.49005 0
M  V30 3558 H 333.877 1.79071 -4.5847 0
M  V30 3559 N 335.529 1.53961 0.336706 0
M  V30 3560 C 336.777 1.71197 1.07405 0
M  V30 3561 C 337.098 0.481475 1.88962 0
M  V30 3562 O 336.368 -0.504585 1.8929 0
M  V30 3563 H 334.948 0.631185 0.399517 0
M  V30 3564 H 337.61 1.91232 0.376323 0
M  V30 3565 H 336.706 2.58587 1.74755 0
M  V30 3566 N 337.007 -0.598083 1.45811 0
M  V30 3567 C 338.253 -1.35882 1.50545 0
M  V30 3568 C 338.586 -1.93616 0.150445 0
M  V30 3569 O 337.861 -1.75604 -0.83628 0
M  V30 3570 C 338.144 -2.49966 2.59208 0
M  V30 3571 C 337.997 -1.97367 4.04186 0
M  V30 3572 C 339.316 -3.52068 2.64076 0
M  V30 3573 H 336.435 -0.492717 0.548087 0
M  V30 3574 H 339.077 -0.673319 1.77669 0
M  V30 3575 H 337.227 -3.08443 2.3621 0
M  V30 3576 H 338.899 -1.43466 4.38423 0
M  V30 3577 H 337.142 -1.283 4.14393 0
M  V30 3578 H 337.813 -2.79649 4.75921 0
M  V30 3579 H 340.289 -3.03448 2.84708 0
M  V30 3580 H 339.165 -4.2937 3.41954 0
M  V30 3581 H 339.426 -4.08304 1.69531 0
M  V30 3582 N 338.485 -1.33259 -0.841409 0
M  V30 3583 C 339.901 -1.12538 -1.13169 0
M  V30 3584 C 340.101 0.0854037 -2.01319 0
M  V30 3585 O 339.157 0.766417 -2.40587 0
M  V30 3586 C 340.47 -2.41156 -1.79623 0
M  V30 3587 C 342.018 -2.47038 -1.922 0
M  V30 3588 C 342.493 -3.7561 -2.6207 0
M  V30 3589 N 343.984 -3.76667 -2.69585 0
M  V30 3590 C 344.719 -4.72861 -3.2433 0
M  V30 3591 N 344.215 -5.79428 -3.79783 0
M  V30 3592 N 346.008 -4.6034 -3.22558 0
M  V30 3593 H 338.159 -2.10868 -0.254676 0
M  V30 3594 H 340.422 -0.931615 -0.175493 0
M  V30 3595 H 340.128 -3.29747 -1.22311 0
M  V30 3596 H 340.002 -2.53114 -2.79666 0
M  V30 3597 H 342.389 -1.58898 -2.48667 0
M  V30 3598 H 342.47 -2.39022 -0.911148 0
M  V30 3599 H 342.114 -4.64131 -2.06263 0
M  V30 3600 H 342.044 -3.80902 -3.63622 0
M  V30 3601 H 344.535 -2.99648 -2.30259 0
M  V30 3602 H 344.848 -6.48867 -4.19752 0
M  V30 3603 H 343.193 -5.83166 -3.78078 0
M  V30 3604 H 346.384 -3.76244 -2.78492 0
M  V30 3605 H 346.557 -5.35478 -3.64921 0
M  V30 3606 N 339.963 1.05934 -1.16686 0
M  V30 3607 C 340.926 2.11669 -0.879144 0
M  V30 3608 C 341.926 1.60294 0.127445 0
M  V30 3609 O 343.116 1.7389 -0.103865 0
M  V30 3610 C 340.248 3.39438 -0.315425 0
M  V30 3611 H 341.441 2.38626 -1.81653 0
M  V30 3612 H 338.994 1.22058 -0.976299 0
M  V30 3613 H 339.729 3.18132 0.629468 0
M  V30 3614 H 339.514 3.78034 -1.04079 0
M  V30 3615 H 341.004 4.17391 -0.132189 0
M  V30 3616 N 341.441 0.965919 1.2453 0
M  V30 3617 C 342.687 0.62776 1.92839 0
M  V30 3618 C 343.02 -0.834694 1.75347 0
M  V30 3619 O 342.295 -1.60031 1.10546 0
M  V30 3620 C 342.578 1.00109 3.45905 0
M  V30 3621 C 342.431 2.52011 3.72573 0
M  V30 3622 C 343.75 0.53435 4.36844 0
M  V30 3623 H 340.869 0.229537 0.700344 0
M  V30 3624 H 343.511 1.2046 1.46933 0
M  V30 3625 H 341.661 0.510238 3.85135 0
M  V30 3626 H 343.333 3.08559 3.42912 0
M  V30 3627 H 341.576 2.95287 3.17786 0
M  V30 3628 H 342.247 2.73183 4.79661 0
M  V30 3629 H 344.723 0.955565 4.04979 0
M  V30 3630 H 343.599 0.824152 5.42678 0
M  V30 3631 H 343.86 -0.565589 4.38467 0
M  V30 3632 N 342.919 -1.39368 0.735821 0
M  V30 3633 C 344.165 -2.00794 0.284544 0
M  V30 3634 C 344.498 -1.58255 -1.12557 0
M  V30 3635 O 343.773 -0.811819 -1.76748 0
M  V30 3636 C 344.056 -3.58011 0.387337 0
M  V30 3637 C 343.909 -4.10566 1.83728 0
M  V30 3638 C 345.228 -4.395 -0.22975 0
M  V30 3639 H 342.347 -0.729501 0.104866 0
M  V30 3640 H 344.989 -1.65564 0.93213 0
M  V30 3641 H 343.139 -3.88154 -0.164006 0
M  V30 3642 H 344.811 -3.91139 2.44556 0
M  V30 3643 H 343.054 -3.64095 2.35833 0
M  V30 3644 H 343.725 -5.19702 1.86047 0
M  V30 3645 H 346.201 -4.15406 0.240257 0
M  V30 3646 H 345.077 -5.48752 -0.127485 0
M  V30 3647 H 345.338 -4.22062 -1.3159 0
M  V30 3648 N 344.397 -0.483516 -1.5 0
M  V30 3649 C 345.646 0.0689102 -2.01582 0
M  V30 3650 C 345.959 1.39655 -1.36952 0
M  V30 3651 O 347.165 2.03465 -1.79762 0
M  V30 3652 C 345.621 0.173302 -3.59483 0
M  V30 3653 C 345.229 -1.14665 -4.33077 0
M  V30 3654 C 346.973 0.677024 -4.19066 0
M  V30 3655 C 344.88 -1.00537 -5.82792 0
M  V30 3656 H 343.81 0.0295277 -0.753422 0
M  V30 3657 H 346.461 -0.620295 -1.72698 0
M  V30 3658 H 344.843 0.926569 -3.85007 0
M  V30 3659 H 346.017 -1.91184 -4.19268 0
M  V30 3660 H 344.332 -1.58244 -3.85159 0
M  V30 3661 H 346.929 0.799952 -5.28682 0
M  V30 3662 H 347.272 1.67151 -3.81269 0
M  V30 3663 H 347.805 -0.0192083 -3.97795 0
M  V30 3664 H 344.544 -1.9736 -6.25083 0
M  V30 3665 H 344.064 -0.280776 -5.99142 0
M  V30 3666 H 345.743 -0.677 -6.43448 0
M  V30 3667 N 345.875 1.56104 -0.216619 0
M  V30 3668 C 346.822 2.2007 0.695531 0
M  V30 3669 C 347.792 1.15471 1.19397 0
M  V30 3670 O 348.977 1.43807 1.25396 0
M  V30 3671 C 346.117 2.88073 1.90021 0
M  V30 3672 C 345.23 4.07253 1.44113 0
M  V30 3673 C 344.365 4.63052 2.603 0
M  V30 3674 C 343.404 5.74545 2.11103 0
M  V30 3675 N 342.541 6.24656 3.20545 0
M  V30 3676 H 347.381 2.97655 0.143327 0
M  V30 3677 H 344.918 1.46982 0.0589934 0
M  V30 3678 H 346.876 3.25681 2.60745 0
M  V30 3679 H 345.506 2.13015 2.42538 0
M  V30 3680 H 344.558 3.75164 0.628999 0
M  V30 3681 H 345.87 4.8783 1.04036 0
M  V30 3682 H 345.024 5.03078 3.39113 0
M  V30 3683 H 343.763 3.81628 3.03663 0
M  V30 3684 H 342.768 5.34027 1.3075 0
M  V30 3685 H 343.993 6.57801 1.68746 0
M  V30 3686 H 341.939 5.46148 3.63399 0
M  V30 3687 H 341.856 7.00343 2.84704 0
M  V30 3688 H 343.124 6.69338 3.99508 0
M  V30 3689 N 347.353 -0.0568162 1.57498 0
M  V30 3690 C 348.764 -0.606858 1.76562 0
M  V30 3691 C 349.115 -1.77114 0.844094 0
M  V30 3692 O 348.24 -2.16376 0.0318911 0
M  V30 3693 C 348.835 -1.10766 3.20182 0
M  V30 3694 C 347.394 -1.60344 3.40539 0
M  V30 3695 C 346.541 -0.529311 2.72201 0
M  V30 3696 H 349.492 0.169393 1.57793 0
M  V30 3697 H 349.513 -1.97602 3.25167 0
M  V30 3698 H 349.025 -0.26006 3.87228 0
M  V30 3699 H 347.126 -2.47379 2.78629 0
M  V30 3700 H 347.239 -1.67006 4.4905 0
M  V30 3701 H 345.603 -0.977893 2.35179 0
M  V30 3702 H 346.386 0.308352 3.41912 0
M  V30 3703 N 348.832 -1.54138 -0.328536 0
M  V30 3704 C 350.06 -1.76062 -1.08673 0
M  V30 3705 C 350.475 -0.506852 -1.81869 0
M  V30 3706 O 349.832 0.522223 -1.74869 0
M  V30 3707 C 349.883 -2.95054 -2.08866 0
M  V30 3708 O 349.604 -4.15583 -1.38644 0
M  V30 3709 C 351.105 -3.2915 -2.96943 0
M  V30 3710 H 348.325 -0.587889 -0.323461 0
M  V30 3711 H 350.869 -2.0101 -0.376175 0
M  V30 3712 H 349.024 -2.72394 -2.75464 0
M  V30 3713 H 349.438 -4.82481 -2.05699 0
M  V30 3714 H 350.912 -4.15723 -3.63151 0
M  V30 3715 H 351.389 -2.461 -3.63774 0
M  V30 3716 H 351.995 -3.53871 -2.35914 0
M  V30 3717 N 350.31 0.590341 -1.46126 0
M  V30 3718 C 351.24 1.71032 -1.58966 0
M  V30 3719 C 352.221 1.64302 -0.440335 0
M  V30 3720 O 353.406 1.82436 -0.665634 0
M  V30 3721 C 350.536 3.09665 -1.57241 0
M  V30 3722 C 349.49 3.31221 -2.71066 0
M  V30 3723 C 348.816 4.70303 -2.54399 0
M  V30 3724 C 350.116 3.19796 -4.1295 0
M  V30 3725 H 351.81 1.60543 -2.52718 0
M  V30 3726 H 349.356 0.770933 -1.21625 0
M  V30 3727 H 351.309 3.87831 -1.64819 0
M  V30 3728 H 350.033 3.21036 -0.600289 0
M  V30 3729 H 348.692 2.55452 -2.62944 0
M  V30 3730 H 348.34 4.78429 -1.55288 0
M  V30 3731 H 348.04 4.85679 -3.30741 0
M  V30 3732 H 349.564 5.50647 -2.63857 0
M  V30 3733 H 350.978 3.87815 -4.22223 0
M  V30 3734 H 349.375 3.46696 -4.89818 0
M  V30 3735 H 350.445 2.16983 -4.33643 0
M  V30 3736 N 351.788 1.33704 0.83433 0
M  V30 3737 C 353.016 1.28467 1.62185 0
M  V30 3738 C 353.431 -0.143526 1.88254 0
M  V30 3739 O 352.788 -1.08709 1.4659 0
M  V30 3740 C 352.839 2.06174 2.96942 0
M  V30 3741 O 352.56 3.43422 2.72016 0
M  V30 3742 C 354.061 2.08201 3.91366 0
M  V30 3743 H 351.281 0.4424 0.504503 0
M  V30 3744 H 353.825 1.76145 1.03891 0
M  V30 3745 H 351.98 1.62167 3.51825 0
M  V30 3746 H 352.394 3.83453 3.57861 0
M  V30 3747 H 353.868 2.67017 4.83121 0
M  V30 3748 H 354.345 1.07343 4.2588 0
M  V30 3749 H 354.951 2.52246 3.42421 0
M  V30 3750 N 353.266 -1.05314 1.17247 0
M  V30 3751 C 354.514 -1.77941 0.958194 0
M  V30 3752 C 354.835 -1.88089 -0.514556 0
M  V30 3753 O 354.105 -1.39676 -1.37359 0
M  V30 3754 H 352.685 -0.659116 0.351533 0
M  V30 3755 H 355.347 -1.27166 1.47699 0
M  V30 3756 H 354.443 -2.79663 1.38546 0
M  V30 3757 N 354.744 -0.972509 -1.24016 0
M  V30 3758 C 355.969 -0.654417 -1.96805 0
M  V30 3759 C 356.394 0.770398 -1.716 0
M  V30 3760 O 355.752 1.52361 -0.982647 0
M  V30 3761 C 355.8 -0.941031 -3.48105 0
M  V30 3762 O 354.904 -0.0289472 -4.1239 0
M  V30 3763 H 354.245 -0.24692 -0.616382 0
M  V30 3764 H 356.775 -1.30396 -1.57664 0
M  V30 3765 H 356.785 -0.87452 -3.98517 0
M  V30 3766 H 355.46 -1.97939 -3.65777 0
M  V30 3767 H 354.037 -0.149192 -3.72601 0
M  V30 3768 N 356.222 1.38976 -0.743202 0
M  V30 3769 C 357.152 2.33171 -0.123873 0
M  V30 3770 C 358.133 1.54336 0.71516 0
M  V30 3771 O 359.318 1.82696 0.658467 0
M  V30 3772 C 356.448 3.38474 0.777978 0
M  V30 3773 C 355.402 4.27979 0.0424758 0
M  V30 3774 C 354.728 5.2405 1.06189 0
M  V30 3775 C 356.028 5.10155 -1.1198 0
M  V30 3776 H 357.722 2.85213 -0.910709 0
M  V30 3777 H 355.268 1.37133 -0.439388 0
M  V30 3778 H 357.221 4.03328 1.22084 0
M  V30 3779 H 355.945 2.84891 1.59702 0
M  V30 3780 H 354.604 3.64616 -0.380853 0
M  V30 3781 H 354.252 4.66758 1.87472 0
M  V30 3782 H 353.952 5.84785 0.574485 0
M  V30 3783 H 355.476 5.9178 1.50428 0
M  V30 3784 H 356.89 5.68307 -0.75499 0
M  V30 3785 H 355.287 5.80073 -1.53738 0
M  V30 3786 H 356.357 4.44504 -1.93764 0
M  V30 3787 N 357.7 0.491464 1.49741 0
M  V30 3788 C 358.61 -0.296835 2.32715 0
M  V30 3789 C 359.626 -0.976536 1.44013 0
M  V30 3790 O 360.802 -0.960023 1.77047 0
M  V30 3791 C 357.867 -1.35288 3.19215 0
M  V30 3792 C 356.928 -0.687632 4.23757 0
M  V30 3793 C 356.161 -1.69336 5.06123 0
M  V30 3794 O 356.384 -2.92219 4.89861 0
M  V30 3795 O 355.318 -1.25394 5.88693 0
M  V30 3796 H 359.144 0.382048 3.01287 0
M  V30 3797 H 356.729 0.252953 1.47243 0
M  V30 3798 H 358.611 -1.96411 3.72828 0
M  V30 3799 H 357.286 -2.01487 2.53347 0
M  V30 3800 H 356.193 -0.0369159 3.74082 0
M  V30 3801 H 357.526 -0.0682566 4.92153 0
M  V30 3802 N 359.178 -1.55987 0.224894 0
M  V30 3803 C 360.125 -2.20436 -0.68385 0
M  V30 3804 C 361.095 -1.16102 -1.18783 0
M  V30 3805 O 362.28 -1.4447 -1.24632 0
M  V30 3806 C 359.42 -2.89076 -1.88491 0
M  V30 3807 C 358.533 -4.08012 -1.41951 0
M  V30 3808 C 357.668 -4.64426 -2.5784 0
M  V30 3809 C 356.707 -5.75656 -2.08053 0
M  V30 3810 N 355.844 -6.26347 -3.17227 0
M  V30 3811 H 360.684 -2.97727 -0.12754 0
M  V30 3812 H 358.221 -1.47011 -0.0511978 0
M  V30 3813 H 360.179 -3.27059 -2.59014 0
M  V30 3814 H 358.809 -2.14298 -2.41405 0
M  V30 3815 H 357.861 -3.75492 -0.609095 0
M  V30 3816 H 359.173 -4.88375 -1.01447 0
M  V30 3817 H 358.327 -5.04869 -3.3644 0
M  V30 3818 H 357.066 -3.83233 -3.01635 0
M  V30 3819 H 356.071 -5.34712 -1.27916 0
M  V30 3820 H 357.296 -6.58686 -1.65255 0
M  V30 3821 H 355.242 -5.48067 -3.60497 0
M  V30 3822 H 355.159 -7.01843 -2.80986 0
M  V30 3823 H 356.427 -6.71447 -3.95953 0
M  V30 3824 N 360.656 0.0484629 -1.57525 0
M  V30 3825 C 361.902 0.744226 -1.88651 0
M  V30 3826 C 362.235 1.76029 -0.820212 0
M  V30 3827 O 361.51 1.93782 0.166985 0
M  V30 3828 C 361.793 1.43128 -3.30434 0
M  V30 3829 C 361.646 0.43005 -4.47739 0
M  V30 3830 C 362.965 2.37031 -3.70816 0
M  V30 3831 H 360.084 0.269089 -0.68612 0
M  V30 3832 H 362.726 0.00713532 -1.89999 0
M  V30 3833 H 360.876 2.05956 -3.29415 0
M  V30 3834 H 362.548 -0.194816 -4.60888 0
M  V30 3835 H 360.791 -0.252522 -4.33064 0
M  V30 3836 H 361.462 0.948874 -5.43783 0
M  V30 3837 H 363.938 1.84263 -3.73077 0
M  V30 3838 H 362.814 2.82094 -4.70865 0
M  V30 3839 H 363.075 3.22864 -3.02012 0
M  V30 3840 N 362.134 1.5431 0.320358 0
M  V30 3841 C 363.55 1.45091 0.664889 0
M  V30 3842 C 363.75 0.626382 1.91517 0
M  V30 3843 O 362.806 0.126443 2.52183 0
M  V30 3844 C 364.119 2.88848 0.83591 0
M  V30 3845 C 365.667 2.9877 0.933046 0
M  V30 3846 C 366.142 4.43683 1.13621 0
M  V30 3847 N 367.633 4.47309 1.20287 0
M  V30 3848 C 368.368 5.56595 1.37801 0
M  V30 3849 N 367.864 6.75844 1.52338 0
M  V30 3850 N 369.657 5.44248 1.40535 0
M  V30 3851 H 361.808 2.06398 -0.501374 0
M  V30 3852 H 364.071 0.933963 -0.162534 0
M  V30 3853 H 363.777 3.51698 -0.0116092 0
M  V30 3854 H 363.651 3.35148 1.73078 0
M  V30 3855 H 366.038 2.36045 1.77107 0
M  V30 3856 H 366.119 2.55796 0.0145782 0
M  V30 3857 H 365.763 5.06995 0.303032 0
M  V30 3858 H 365.693 4.84269 2.0686 0
M  V30 3859 H 368.184 3.61388 1.10485 0
M  V30 3860 H 368.497 7.54892 1.65403 0
M  V30 3861 H 366.842 6.78746 1.4943 0
M  V30 3862 H 370.033 4.50038 1.28777 0
M  V30 3863 H 370.206 6.29473 1.53842 0
M  V30 3864 N 363.613 -0.582584 1.46437 0
M  V30 3865 C 364.523 -1.71949 1.59595 0
M  V30 3866 C 365.539 -1.67264 0.479443 0
M  V30 3867 O 366.715 -1.87171 0.743579 0
M  V30 3868 C 363.78 -3.08452 1.58298 0
M  V30 3869 C 362.841 -3.244 2.81182 0
M  V30 3870 C 362.074 -4.54391 2.79937 0
M  V30 3871 O 362.297 -5.38287 1.8869 0
M  V30 3872 O 361.231 -4.73588 3.71481 0
M  V30 3873 H 365.057 -1.63795 2.55744 0
M  V30 3874 H 362.642 -0.749643 1.29231 0
M  V30 3875 H 364.524 -3.89732 1.60271 0
M  V30 3876 H 363.199 -3.17043 0.653094 0
M  V30 3877 H 362.106 -2.42613 2.84763 0
M  V30 3878 H 363.439 -3.20699 3.7338 0
M  V30 3879 N 365.091 -1.34144 -0.827227 0
M  V30 3880 C 366.023 -1.21206 -1.9453 0
M  V30 3881 C 367.036 -0.140176 -1.62195 0
M  V30 3882 O 368.225 -0.391647 -1.7415 0
M  V30 3883 C 365.325 -0.839141 -3.28347 0
M  V30 3884 C 364.498 -2.0051 -3.88734 0
M  V30 3885 C 363.557 -1.61128 -5.00923 0
M  V30 3886 O 362.583 -2.32726 -5.19449 0
M  V30 3887 N 363.785 -0.522958 -5.7814 0
M  V30 3888 H 366.55 -2.17525 -2.06162 0
M  V30 3889 H 364.111 -1.27043 -1.00358 0
M  V30 3890 H 366.103 -0.557556 -4.00841 0
M  V30 3891 H 364.673 0.0337293 -3.12582 0
M  V30 3892 H 363.893 -2.45166 -3.08686 0
M  V30 3893 H 365.181 -2.78498 -4.25812 0
M  V30 3894 H 364.579 0.0723518 -5.65654 0
M  V30 3895 H 363.136 -0.301089 -6.51104 0
M  V30 3896 N 366.569 1.04691 -1.17803 0
M  V30 3897 C 367.815 1.78045 -0.970969 0
M  V30 3898 C 368.148 1.87686 0.498751 0
M  V30 3899 O 367.423 1.38035 1.37027 0
M  V30 3900 C 367.706 3.2166 -1.61884 0
M  V30 3901 C 367.559 3.20001 -3.161 0
M  V30 3902 C 368.878 4.1962 -1.3269 0
M  V30 3903 H 365.997 0.64633 -0.354155 0
M  V30 3904 H 368.639 1.22333 -1.45378 0
M  V30 3905 H 366.789 3.69232 -1.20831 0
M  V30 3906 H 368.461 2.80467 -3.66246 0
M  V30 3907 H 366.704 2.58203 -3.48588 0
M  V30 3908 H 367.375 4.21386 -3.56564 0
M  V30 3909 H 369.851 3.80567 -1.68249 0
M  V30 3910 H 368.727 5.18339 -1.80599 0
M  V30 3911 H 368.988 4.414 -0.248622 0
M  V30 3912 N 368.047 0.979072 1.23499 0
M  V30 3913 C 368.979 0.476271 2.24197 0
M  V30 3914 C 369.992 -0.421166 1.57258 0
M  V30 3915 O 371.181 -0.225515 1.7707 0
M  V30 3916 C 368.281 -0.330503 3.37285 0
M  V30 3917 C 367.454 0.559744 4.33804 0
M  V30 3918 C 366.513 -0.192954 5.25846 0
M  V30 3919 O 365.539 0.416978 5.67671 0
M  V30 3920 N 366.741 -1.47932 5.61334 0
M  V30 3921 H 369.506 1.34211 2.67969 0
M  V30 3922 H 367.067 0.852189 1.37657 0
M  V30 3923 H 369.059 -0.842361 3.95836 0
M  V30 3924 H 367.629 -1.09734 2.92707 0
M  V30 3925 H 366.849 1.25245 3.73775 0
M  V30 3926 H 368.137 1.1665 4.95248 0
M  V30 3927 H 367.535 -1.9964 5.29302 0
M  V30 3928 H 366.092 -1.93664 6.22364 0
M  V30 3929 N 369.525 -1.3858 0.750561 0
M  V30 3930 C 370.488 -2.28836 0.129152 0
M  V30 3931 C 371.488 -1.47045 -0.650714 0
M  V30 3932 O 372.678 -1.6753 -0.477428 0
M  V30 3933 C 369.81 -3.30751 -0.825622 0
M  V30 3934 H 371.003 -2.85294 0.924516 0
M  V30 3935 H 368.556 -1.47489 0.517376 0
M  V30 3936 H 369.291 -2.79378 -1.64677 0
M  V30 3937 H 369.076 -3.91177 -0.268852 0
M  V30 3938 H 370.566 -3.98249 -1.2565 0
M  V30 3939 N 371.003 -0.499398 -1.49478 0
M  V30 3940 C 371.966 0.268838 -2.27618 0
M  V30 3941 C 372.966 0.895383 -1.33565 0
M  V30 3942 O 374.156 0.760164 -1.56739 0
M  V30 3943 C 371.288 1.38559 -3.11471 0
M  V30 3944 H 372.481 -0.416812 -2.96989 0
M  V30 3945 H 370.034 -0.254313 -1.54217 0
M  V30 3946 H 370.769 2.10544 -2.46661 0
M  V30 3947 H 370.554 0.941797 -3.80621 0
M  V30 3948 H 372.044 1.92678 -3.70493 0
M  V30 3949 N 372.481 1.55866 -0.233164 0
M  V30 3950 C 373.431 2.17442 0.685774 0
M  V30 3951 C 374.415 1.12617 1.14918 0
M  V30 3952 O 375.607 1.3857 1.10124 0
M  V30 3953 C 372.736 2.86685 1.88856 0
M  V30 3954 C 371.822 3.98749 1.4443 0
M  V30 3955 N 372.213 5.00744 0.713364 0
M  V30 3956 C 370.511 4.11052 1.73068 0
M  V30 3957 C 371.212 5.79673 0.485205 0
M  V30 3958 N 370.188 5.33454 1.04536 0
M  V30 3959 H 373.99 2.93659 0.119022 0
M  V30 3960 H 371.504 1.62362 -0.0348995 0
M  V30 3961 H 373.501 3.29218 2.55776 0
M  V30 3962 H 372.161 2.11967 2.45967 0
M  V30 3963 H 373.172 5.16613 0.364861 0
M  V30 3964 H 369.849 3.47495 2.31416 0
M  V30 3965 H 371.239 6.71829 -0.097365 0
M  V30 3966 N 373.959 -0.0401083 1.57549 0
M  V30 3967 C 374.922 -1.02871 2.04817 0
M  V30 3968 C 375.922 -1.29708 0.950388 0
M  V30 3969 O 377.112 -1.24897 1.21435 0
M  V30 3970 C 374.244 -2.36443 2.45576 0
M  V30 3971 H 375.437 -0.620631 2.93408 0
M  V30 3972 H 372.99 -0.286667 1.53649 0
M  V30 3973 H 373.725 -2.82021 1.60108 0
M  V30 3974 H 373.51 -2.18296 3.25713 0
M  V30 3975 H 375 -3.07441 2.82612 0
M  V30 3976 N 375.437 -1.54477 -0.31217 0
M  V30 3977 C 376.367 -1.87652 -1.38957 0
M  V30 3978 C 377.348 -0.734358 -1.53431 0
M  V30 3979 O 378.533 -0.98911 -1.67123 0
M  V30 3980 C 375.663 -2.11396 -2.75552 0
M  V30 3981 C 374.617 -3.27243 -2.75855 0
M  V30 3982 C 373.943 -3.36382 -4.15633 0
M  V30 3983 C 375.243 -4.64622 -2.38587 0
M  V30 3984 H 376.937 -2.77887 -1.11442 0
M  V30 3985 H 374.483 -1.33707 -0.534655 0
M  V30 3986 H 376.436 -2.33189 -3.51 0
M  V30 3987 H 375.16 -1.17921 -3.04569 0
M  V30 3988 H 373.819 -3.05356 -2.02863 0
M  V30 3989 H 373.467 -2.40445 -4.41809 0
M  V30 3990 H 373.167 -4.14249 -4.1674 0
M  V30 3991 H 374.691 -3.60422 -4.92877 0
M  V30 3992 H 376.105 -4.86219 -3.03749 0
M  V30 3993 H 374.502 -5.45121 -2.50925 0
M  V30 3994 H 375.572 -4.66097 -1.33723 0
M  V30 3995 N 376.915 0.57481 -1.46744 0
M  V30 3996 C 378.163 1.33009 -1.52161 0
M  V30 3997 C 378.484 1.94185 -0.178092 0
M  V30 3998 O 377.754 1.7899 0.796196 0
M  V30 3999 H 376.334 0.493873 -0.560445 0
M  V30 4000 H 378.996 0.672589 -1.82927 0
M  V30 4001 H 378.092 2.13273 -2.27862 0
M  V30 4002 N 378.394 1.34581 0.820102 0
M  V30 4003 C 379.324 1.29038 1.94606 0
M  V30 4004 C 380.305 0.1673 1.69275 0
M  V30 4005 O 381.49 0.360112 1.90832 0
M  V30 4006 C 378.62 1.04793 3.31113 0
M  V30 4007 C 377.574 2.13597 3.70891 0
M  V30 4008 C 376.9 1.74537 5.05412 0
M  V30 4009 C 378.2 3.55451 3.8269 0
M  V30 4010 H 379.894 2.23248 1.99501 0
M  V30 4011 H 377.44 1.0747 0.958449 0
M  V30 4012 H 379.393 0.995592 4.0947 0
M  V30 4013 H 378.117 0.0702565 3.26524 0
M  V30 4014 H 376.776 2.17905 2.9481 0
M  V30 4015 H 376.424 0.754226 4.97313 0
M  V30 4016 H 376.124 2.47361 5.32997 0
M  V30 4017 H 377.648 1.70803 5.86224 0
M  V30 4018 H 379.062 3.5354 4.51312 0
M  V30 4019 H 377.459 4.26922 4.21732 0
M  V30 4020 H 378.529 3.92587 2.84611 0
M  V30 4021 N 379.872 -1.04064 1.18357 0
M  V30 4022 C 381.1 -1.80916 1.00384 0
M  V30 4023 C 381.515 -1.83414 -0.447738 0
M  V30 4024 O 380.872 -1.26962 -1.31099 0
M  V30 4025 C 380.923 -3.26516 1.55144 0
M  V30 4026 O 380.644 -3.2424 2.94618 0
M  V30 4027 C 382.145 -4.20013 1.41789 0
M  V30 4028 H 379.365 -0.569728 0.354474 0
M  V30 4029 H 381.909 -1.31151 1.56906 0
M  V30 4030 H 380.064 -3.73512 1.02798 0
M  V30 4031 H 380.478 -4.15452 3.20156 0
M  V30 4032 H 381.952 -5.20111 1.84901 0
M  V30 4033 H 382.429 -4.37667 0.36661 0
M  V30 4034 H 383.035 -3.78881 1.93207 0
M  V30 4035 N 381.35 -0.985608 -1.22978 0
M  V30 4036 C 382.313 -0.535071 -2.22867 0
M  V30 4037 C 383.313 0.378123 -1.56291 0
M  V30 4038 O 384.503 0.171092 -1.73358 0
M  V30 4039 C 381.635 0.222702 -3.40172 0
M  V30 4040 H 382.828 -1.41835 -2.6424 0
M  V30 4041 H 380.381 -0.772042 -1.35901 0
M  V30 4042 H 381.116 1.12229 -3.04262 0
M  V30 4043 H 380.901 -0.43288 -3.89703 0
M  V30 4044 H 382.391 0.526335 -4.1427 0
M  V30 4045 N 382.828 1.3818 -0.7579 0
M  V30 4046 C 384.074 2.00316 -0.316453 0
M  V30 4047 C 384.407 1.60026 1.10025 0
M  V30 4048 O 383.682 0.839835 1.75434 0
M  V30 4049 C 383.965 3.57349 -0.444245 0
M  V30 4050 C 383.818 4.07591 -1.90236 0
M  V30 4051 C 385.137 4.3981 0.1598 0
M  V30 4052 H 382.256 0.727741 -0.116459 0
M  V30 4053 H 384.898 1.6406 -0.958352 0
M  V30 4054 H 383.048 3.88365 0.102233 0
M  V30 4055 H 384.72 3.87199 -2.50748 0
M  V30 4056 H 382.963 3.60297 -2.41595 0
M  V30 4057 H 383.634 5.16677 -1.94291 0
M  V30 4058 H 386.11 4.14971 -0.306314 0
M  V30 4059 H 384.986 5.48885 0.0401675 0
M  V30 4060 H 385.247 4.24102 1.24859 0
M  V30 4061 N 384.306 0.507319 1.49211 0
M  V30 4062 C 385.555 -0.0368315 2.01666 0
M  V30 4063 C 385.868 -1.37459 1.39156 0
M  V30 4064 O 387.074 -2.00579 1.82976 0
M  V30 4065 C 385.53 -0.116089 3.59713 0
M  V30 4066 C 385.138 1.2154 4.31198 0
M  V30 4067 C 386.882 -0.610268 4.2009 0
M  V30 4068 C 384.789 1.09796 5.81119 0
M  V30 4069 H 383.719 -0.0175376 0.753796 0
M  V30 4070 H 386.37 0.647691 1.71689 0
M  V30 4071 H 384.752 -0.8652 3.86433 0
M  V30 4072 H 385.926 1.9783 4.16173 0
M  V30 4073 H 384.241 1.64352 3.82593 0
M  V30 4074 H 386.838 -0.715742 5.29888 0
M  V30 4075 H 387.181 -1.61064 3.8388 0
M  V30 4076 H 387.714 0.0824916 3.97714 0
M  V30 4077 H 384.453 2.0728 6.21864 0
M  V30 4078 H 383.973 0.376058 5.9862 0
M  V30 4079 H 385.652 0.779281 6.4229 0
M  V30 4080 N 385.784 -1.5574 0.241426 0
M  V30 4081 C 387.009 -2.0366 -0.392111 0
M  V30 4082 C 387.434 -1.11969 -1.51144 0
M  V30 4083 O 386.792 -0.111594 -1.80956 0
M  V30 4084 C 386.84 -3.49638 -0.882371 0
M  V30 4085 O 385.944 -3.6108 -1.99235 0
M  V30 4086 H 385.285 -0.658379 -0.0862122 0
M  V30 4087 H 387.815 -2.01302 0.365881 0
M  V30 4088 H 387.825 -3.90351 -1.18702 0
M  V30 4089 H 386.5 -4.15852 -0.0632361 0
M  V30 4090 H 385.077 -3.32262 -1.69282 0
M  V30 4091 N 387.262 0.0317525 -1.57568 0
M  V30 4092 C 388.487 0.738664 -1.938 0
M  V30 4093 C 388.912 1.68242 -0.841208 0
M  V30 4094 O 388.27 1.80157 0.203267 0
M  V30 4095 C 388.318 1.47417 -3.29091 0
M  V30 4096 O 387.422 2.5872 -3.2115 0
M  V30 4097 H 386.763 0.198856 -0.633524 0
M  V30 4098 H 389.293 -0.0119713 -2.04596 0
M  V30 4099 H 389.303 1.84468 -3.63917 0
M  V30 4100 H 387.978 0.781988 -4.08482 0
M  V30 4101 H 386.555 2.24231 -2.97951 0
M  V30 4102 N 388.74 1.54641 0.303973 0
M  V30 4103 C 389.965 1.78092 1.06292 0
M  V30 4104 C 390.39 0.537342 1.80262 0
M  V30 4105 O 389.748 -0.511993 1.7392 0
M  V30 4106 C 389.796 2.98612 2.02147 0
M  V30 4107 O 388.9 2.71528 3.10397 0
M  V30 4108 H 388.241 0.589548 0.305497 0
M  V30 4109 H 390.771 2.01716 0.3423 0
M  V30 4110 H 390.781 3.265 2.44667 0
M  V30 4111 H 389.456 3.88785 1.47714 0
M  V30 4112 H 388.033 2.54648 2.72413 0
M  V30 4113 N 390.218 -0.567019 1.47046 0
M  V30 4114 C 391.467 -1.32091 1.5243 0
M  V30 4115 C 391.78 -1.94704 0.187021 0
M  V30 4116 O 392.986 -2.7124 0.118771 0
M  V30 4117 C 391.442 -2.39479 2.68659 0
M  V30 4118 C 391.05 -1.831 4.08874 0
M  V30 4119 C 392.794 -3.16111 2.83327 0
M  V30 4120 C 390.701 -2.8821 5.16419 0
M  V30 4121 H 389.631 -0.496629 0.56734 0
M  V30 4122 H 392.282 -0.603354 1.73297 0
M  V30 4123 H 390.664 -3.14105 2.41152 0
M  V30 4124 H 391.838 -1.14913 4.46242 0
M  V30 4125 H 390.153 -1.19085 3.99008 0
M  V30 4126 H 392.75 -3.94585 3.60842 0
M  V30 4127 H 393.093 -3.69686 1.91411 0
M  V30 4128 H 393.626 -2.48595 3.10556 0
M  V30 4129 H 390.365 -2.39504 6.10179 0
M  V30 4130 H 389.885 -3.54839 4.8358 0
M  V30 4131 H 391.564 -3.51881 5.42945 0
M  V30 4132 N 391.696 -1.35014 -0.812953 0
M  V30 4133 C 392.606 -1.2951 -1.95613 0
M  V30 4134 C 393.622 -0.20107 -1.72834 0
M  V30 4135 O 394.798 -0.42932 -1.96771 0
M  V30 4136 C 391.863 -1.06033 -3.30088 0
M  V30 4137 C 390.924 -2.24688 -3.65805 0
M  V30 4138 C 390.157 -2.02322 -4.93864 0
M  V30 4139 O 390.38 -0.986464 -5.61805 0
M  V30 4140 O 389.314 -2.89525 -5.27692 0
M  V30 4141 H 393.14 -2.25705 -2.03202 0
M  V30 4142 H 390.725 -1.15321 -0.949811 0
M  V30 4143 H 392.607 -0.94763 -4.10607 0
M  V30 4144 H 391.282 -0.128852 -3.23443 0
M  V30 4145 H 390.189 -2.41521 -2.85689 0
M  V30 4146 H 391.522 -3.16261 -3.77147 0
M  V30 4147 N 393.175 1.03435 -1.18907 0
M  V30 4148 C 394.4 1.80919 -1.01406 0
M  V30 4149 C 394.825 1.83055 0.432721 0
M  V30 4150 O 394.183 1.25252 1.31079 0
M  V30 4151 C 394.231 3.24091 -1.58105 0
M  V30 4152 O 393.335 4.04434 -0.806669 0
M  V30 4153 H 392.676 0.558709 -0.358803 0
M  V30 4154 H 395.206 1.30223 -1.57807 0
M  V30 4155 H 395.216 3.74853 -1.61087 0
M  V30 4156 H 393.891 3.21851 -2.6341 0
M  V30 4157 H 392.468 3.63091 -0.849666 0
M  V30 4158 N 394.653 0.992116 1.22453 0
M  V30 4159 C 395.878 0.685644 1.95739 0
M  V30 4160 C 396.303 -0.743 1.72804 0
M  V30 4161 O 395.661 -1.50778 1.00676 0
M  V30 4162 C 395.709 0.996293 3.46564 0
M  V30 4163 O 394.813 0.0945512 4.12292 0
M  V30 4164 H 394.154 0.256694 0.612376 0
M  V30 4165 H 396.684 1.32888 1.5557 0
M  V30 4166 H 396.694 0.93781 3.97076 0
M  V30 4167 H 395.369 2.03733 3.62582 0
M  V30 4168 H 393.946 0.208451 3.72317 0
M  V30 4169 N 396.131 -1.37776 0.765217 0
M  V30 4170 C 397.061 -2.32945 0.160953 0
M  V30 4171 C 398.042 -1.55454 -0.690516 0
M  V30 4172 O 399.227 -1.83721 -0.629318 0
M  V30 4173 C 396.357 -3.39669 -0.724031 0
M  V30 4174 C 395.311 -4.27992 0.0256173 0
M  V30 4175 C 394.637 -5.25673 -0.978383 0
M  V30 4176 C 395.937 -5.08309 1.20082 0
M  V30 4177 H 397.631 -2.83728 0.955969 0
M  V30 4178 H 395.177 -1.36416 0.461149 0
M  V30 4179 H 397.13 -4.05219 -1.15652 0
M  V30 4180 H 395.854 -2.87396 -1.5515 0
M  V30 4181 H 394.513 -3.63964 0.438812 0
M  V30 4182 H 394.161 -4.69682 -1.80022 0
M  V30 4183 H 393.861 -5.85625 -0.481378 0
M  V30 4184 H 395.385 -5.94098 -1.40995 0
M  V30 4185 H 396.799 -5.67034 0.845307 0
M  V30 4186 H 395.196 -5.77554 1.62947 0
M  V30 4187 H 396.266 -4.41365 2.00811 0
M  V30 4188 N 397.609 -0.515225 -1.4894 0
M  V30 4189 C 398.857 0.0241671 -2.02086 0
M  V30 4190 C 399.178 1.3616 -1.3959 0
M  V30 4191 O 398.448 1.87841 -0.556121 0
M  V30 4192 H 397.028 0.0119203 -0.746905 0
M  V30 4193 H 399.69 -0.675702 -1.82812 0
M  V30 4194 H 398.786 0.143385 -3.1177 0
M  V30 4195 N 399.087 1.5561 -0.249682 0
M  V30 4196 C 400.017 2.24477 0.642826 0
M  V30 4197 C 400.998 1.22601 1.17911 0
M  V30 4198 O 402.183 1.5126 1.21795 0
M  V30 4199 C 399.313 2.94638 1.83863 0
M  V30 4200 C 398.267 4.03227 1.435 0
M  V30 4201 C 397.593 4.60828 2.71186 0
M  V30 4202 C 398.893 5.18796 0.604002 0
M  V30 4203 H 400.587 2.99321 0.0685625 0
M  V30 4204 H 398.133 1.43965 0.0315363 0
M  V30 4205 H 400.086 3.41517 2.46868 0
M  V30 4206 H 398.81 2.17287 2.43832 0
M  V30 4207 H 397.469 3.57121 0.828275 0
M  V30 4208 H 397.117 3.80174 3.29358 0
M  V30 4209 H 396.817 5.34132 2.44901 0
M  V30 4210 H 398.341 5.10442 3.35084 0
M  V30 4211 H 399.755 5.61883 1.13842 0
M  V30 4212 H 398.152 5.98506 0.437097 0
M  V30 4213 H 399.222 4.83384 -0.383147 0
M  V30 4214 N 400.565 -0.0233959 1.57583 0
M  V30 4215 C 401.793 -0.724682 1.93794 0
M  V30 4216 C 402.208 -1.68588 0.849912 0
M  V30 4217 O 401.565 -1.81676 -0.173204 0
M  V30 4218 C 401.616 -1.47684 3.29957 0
M  V30 4219 O 401.337 -0.554222 4.3458 0
M  V30 4220 C 402.838 -2.27477 3.80485 0
M  V30 4221 H 400.058 -0.203317 0.639455 0
M  V30 4222 H 402.602 0.0207653 2.04489 0
M  V30 4223 H 400.757 -2.17412 3.20641 0
M  V30 4224 H 401.171 -1.08232 5.13212 0
M  V30 4225 H 402.645 -2.7564 4.78254 0
M  V30 4226 H 403.122 -3.09144 3.11972 0
M  V30 4227 H 403.728 -1.62813 3.92902 0
M  V30 4228 N 402.043 -1.548 -0.295768 0
M  V30 4229 C 402.975 -1.82492 -1.3867 0
M  V30 4230 C 403.988 -0.708134 -1.46592 0
M  V30 4231 O 405.177 -0.985686 -1.48817 0
M  V30 4232 C 402.277 -1.95256 -2.76999 0
M  V30 4233 C 401.45 -3.25709 -2.91946 0
M  V30 4234 C 400.509 -3.28824 -4.10806 0
M  V30 4235 O 399.535 -4.02328 -4.02643 0
M  V30 4236 N 400.737 -2.5459 -5.21694 0
M  V30 4237 H 403.502 -2.76646 -1.15269 0
M  V30 4238 H 401.063 -1.54438 -0.485849 0
M  V30 4239 H 403.055 -1.94736 -3.54768 0
M  V30 4240 H 401.625 -1.08072 -2.93324 0
M  V30 4241 H 400.845 -3.38959 -2.01247 0
M  V30 4242 H 402.133 -4.11786 -2.98847 0
M  V30 4243 H 401.531 -1.94512 -5.31208 0
M  V30 4244 H 400.088 -2.59818 -5.97778 0
M  V30 4245 N 403.521 0.559213 -1.47345 0
M  V30 4246 C 404.451 1.67622 -1.62558 0
M  V30 4247 C 405.432 1.63331 -0.475087 0
M  V30 4248 O 406.617 1.80983 -0.704182 0
M  V30 4249 C 403.747 3.0626 -1.63774 0
M  V30 4250 C 402.701 3.25397 -2.7803 0
M  V30 4251 C 402.027 4.64801 -2.64318 0
M  V30 4252 C 403.327 3.10965 -4.19641 0
M  V30 4253 H 405.021 1.55146 -2.56067 0
M  V30 4254 H 402.567 0.744961 -1.23233 0
M  V30 4255 H 404.52 3.84247 -1.73008 0
M  V30 4256 H 403.244 3.1969 -0.66825 0
M  V30 4257 H 401.903 2.49817 -2.68304 0
M  V30 4258 H 401.551 4.75028 -1.65401 0
M  V30 4259 H 401.251 4.78555 -3.40968 0
M  V30 4260 H 402.775 5.44926 -2.75478 0
M  V30 4261 H 404.189 3.78772 -4.30354 0
M  V30 4262 H 402.586 3.36229 -4.97062 0
M  V30 4263 H 403.656 2.07736 -4.38148 0
M  V30 4264 N 404.999 1.35443 0.805782 0
M  V30 4265 C 405.962 1.28301 1.89925 0
M  V30 4266 C 406.962 0.194285 1.59622 0
M  V30 4267 O 408.152 0.448036 1.6834 0
M  V30 4268 C 405.284 0.984997 3.2636 0
M  V30 4269 H 406.477 2.2553 1.97677 0
M  V30 4270 H 404.03 1.19979 1.00173 0
M  V30 4271 H 404.765 0.016603 3.24296 0
M  V30 4272 H 404.55 1.77269 3.4974 0
M  V30 4273 H 406.04 0.960651 4.064 0
M  V30 4274 N 406.477 -1.02803 1.19454 0
M  V30 4275 C 407.893 -1.28473 0.946937 0
M  V30 4276 C 408.093 -1.97881 -0.380202 0
M  V30 4277 O 407.149 -2.26719 -1.11151 0
M  V30 4278 C 408.462 -2.13099 2.12154 0
M  V30 4279 C 410.01 -2.26404 2.16126 0
M  V30 4280 C 410.485 -3.14402 3.33039 0
M  V30 4281 N 411.976 -3.21991 3.32981 0
M  V30 4282 C 412.711 -3.90272 4.20089 0
M  V30 4283 N 412.207 -4.60777 5.17355 0
M  V30 4284 N 414 -3.8668 4.07964 0
M  V30 4285 H 406.151 -0.561665 2.04839 0
M  V30 4286 H 408.414 -0.310438 0.89573 0
M  V30 4287 H 408.12 -1.69422 3.08203 0
M  V30 4288 H 407.994 -3.13813 2.09287 0
M  V30 4289 H 410.381 -2.69311 1.20647 0
M  V30 4290 H 410.462 -1.25237 2.23045 0
M  V30 4291 H 410.106 -2.72204 4.28798 0
M  V30 4292 H 410.036 -4.1563 3.23356 0
M  V30 4293 H 412.527 -2.71778 2.62574 0
M  V30 4294 H 412.84 -5.10513 5.80169 0
M  V30 4295 H 411.185 -4.5964 5.21302 0
M  V30 4296 H 414.376 -3.30739 3.31254 0
M  V30 4297 H 414.549 -4.39621 4.76064 0
M  V30 4298 N 407.956 -0.998596 -1.21925 0
M  V30 4299 C 409.205 -0.673085 -1.90138 0
M  V30 4300 C 409.518 0.79895 -1.78539 0
M  V30 4301 O 410.724 1.23628 -2.4172 0
M  V30 4302 C 409.18 -1.15339 -3.40918 0
M  V30 4303 C 408.788 -2.65106 -3.61141 0
M  V30 4304 C 410.532 -0.902476 -4.14796 0
M  V30 4305 C 408.439 -3.0671 -5.05651 0
M  V30 4306 H 407.369 -0.248057 -0.712028 0
M  V30 4307 H 410.02 -1.20891 -1.38049 0
M  V30 4308 H 408.402 -0.545658 -3.92223 0
M  V30 4309 H 409.576 -3.31274 -3.20304 0
M  V30 4310 H 407.891 -2.88142 -3.00605 0
M  V30 4311 H 410.488 -1.18895 -5.21314 0
M  V30 4312 H 410.831 0.161349 -4.15987 0
M  V30 4313 H 411.364 -1.47269 -3.69536 0
M  V30 4314 H 408.103 -4.12292 -5.09603 0
M  V30 4315 H 407.623 -2.45249 -5.47369 0
M  V30 4316 H 409.302 -2.9833 -5.74115 0
M  V30 4317 N 409.434 1.37368 -0.772513 0
M  V30 4318 C 410.397 2.28601 -0.165541 0
M  V30 4319 C 411.397 1.48062 0.627238 0
M  V30 4320 O 412.587 1.68268 0.450715 0
M  V30 4321 C 409.719 3.32023 0.772897 0
M  V30 4322 H 410.912 2.83787 -0.969787 0
M  V30 4323 H 408.465 1.46647 -0.540775 0
M  V30 4324 H 409.2 2.81962 1.60212 0
M  V30 4325 H 408.985 3.91555 0.206585 0
M  V30 4326 H 410.475 4.00197 1.19298 0
M  V30 4327 N 410.912 0.523116 1.48665 0
M  V30 4328 C 411.875 -0.232592 2.28017 0
M  V30 4329 C 412.875 -0.874021 1.34972 0
M  V30 4330 O 414.065 -0.735132 1.57929 0
M  V30 4331 C 411.197 -1.33586 3.13636 0
M  V30 4332 H 412.39 0.464008 2.96289 0
M  V30 4333 H 409.943 0.278816 1.53793 0
M  V30 4334 H 410.678 -2.06593 2.4998 0
M  V30 4335 H 410.463 -0.881125 3.82071 0
M  V30 4336 H 411.953 -1.86759 3.73511 0
M  V30 4337 N 412.39 -1.55475 0.257931 0
M  V30 4338 C 413.636 -2.00237 -0.357338 0
M  V30 4339 C 413.991 -1.14313 -1.54759 0
M  V30 4340 O 413.284 -0.201187 -1.90541 0
M  V30 4341 C 413.478 -3.48183 -0.806433 0
M  V30 4342 C 413.307 -4.48422 0.338758 0
M  V30 4343 C 412.077 -4.98651 0.817011 0
M  V30 4344 C 414.275 -5.00827 1.16949 0
M  V30 4345 N 412.257 -5.82658 1.93346 0
M  V30 4346 C 413.628 -5.82113 2.13413 0
M  V30 4347 C 415.683 -4.83104 1.2048 0
M  V30 4348 C 414.386 -6.47566 3.13131 0
M  V30 4349 C 416.412 -5.49343 2.19034 0
M  V30 4350 C 415.774 -6.30427 3.14232 0
M  V30 4351 H 411.873 -0.776034 -0.0964083 0
M  V30 4352 H 414.457 -1.90995 0.37803 0
M  V30 4353 H 412.628 -3.57801 -1.51107 0
M  V30 4354 H 414.36 -3.79802 -1.39758 0
M  V30 4355 H 411.115 -4.71914 0.39925 0
M  V30 4356 H 411.539 -6.29356 2.49478 0
M  V30 4357 H 416.181 -4.20036 0.482634 0
M  V30 4358 H 413.899 -7.09793 3.8629 0
M  V30 4359 H 417.485 -5.37579 2.22485 0
M  V30 4360 H 416.365 -6.80777 3.89246 0
M  V30 4361 N 413.868 0.0150385 -1.57593 0
M  V30 4362 C 414.798 1.01047 -2.10503 0
M  V30 4363 C 415.779 1.36816 -1.01071 0
M  V30 4364 O 416.964 1.45455 -1.28672 0
M  V30 4365 C 414.094 2.30708 -2.59598 0
M  V30 4366 C 413.048 2.09142 -3.73421 0
M  V30 4367 C 412.374 3.44685 -4.08774 0
M  V30 4368 C 413.674 1.46619 -5.01298 0
M  V30 4369 H 415.368 0.569978 -2.93925 0
M  V30 4370 H 412.914 0.272724 -1.41394 0
M  V30 4371 H 414.867 3.00687 -2.95238 0
M  V30 4372 H 413.591 2.76843 -1.73279 0
M  V30 4373 H 412.25 1.41592 -3.38153 0
M  V30 4374 H 411.898 3.88495 -3.195 0
M  V30 4375 H 411.598 3.31077 -4.8545 0
M  V30 4376 H 413.122 4.16004 -4.4696 0
M  V30 4377 H 414.536 2.06535 -5.34805 0
M  V30 4378 H 412.933 1.43544 -5.82679 0
M  V30 4379 H 414.003 0.433611 -4.82957 0
M  V30 4380 N 415.346 1.54954 0.287554 0
M  V30 4381 C 416.574 1.78881 1.03967 0
M  V30 4382 C 416.989 0.554894 1.80462 0
M  V30 4383 O 416.346 -0.475676 1.76192 0
M  V30 4384 C 416.397 3.00488 2.0097 0
M  V30 4385 O 416.118 4.19113 1.27577 0
M  V30 4386 C 417.619 3.36907 2.88112 0
M  V30 4387 H 414.839 0.596259 0.307761 0
M  V30 4388 H 417.383 2.01937 0.322749 0
M  V30 4389 H 415.538 2.79601 2.68145 0
M  V30 4390 H 415.952 4.87765 1.92835 0
M  V30 4391 H 417.426 4.25205 3.52001 0
M  V30 4392 H 417.903 2.55659 3.57121 0
M  V30 4393 H 418.509 3.60001 2.26449 0
M  V30 4394 N 416.824 -0.551391 1.4764 0
M  V30 4395 C 418.235 -1.13349 1.48354 0
M  V30 4396 C 418.586 -1.94709 0.241432 0
M  V30 4397 O 417.711 -2.06306 -0.653205 0
M  V30 4398 C 418.306 -2.0623 2.68802 0
M  V30 4399 C 416.865 -2.597 2.72457 0
M  V30 4400 C 416.012 -1.36201 2.41546 0
M  V30 4401 H 418.963 -0.337698 1.55065 0
M  V30 4402 H 418.984 -2.90196 2.46103 0
M  V30 4403 H 418.496 -1.46987 3.59188 0
M  V30 4404 H 416.597 -3.22724 1.86225 0
M  V30 4405 H 416.71 -3.00296 3.73308 0
M  V30 4406 H 415.074 -1.67068 1.9225 0
M  V30 4407 H 415.857 -0.787425 3.34147 0
M  V30 4408 N 418.302 -1.35869 -0.798587 0
M  V30 4409 C 419.579 -1.20145 -1.54352 0
M  V30 4410 C 419.959 0.216161 -2.0999 0
M  V30 4411 O 419.307 1.22068 -1.93162 0
M  V30 4412 C 419.517 -2.27602 -2.64572 0
M  V30 4413 C 420.865 -2.63811 -3.32699 0
M  V30 4414 O 421.889 -2.26576 -2.74849 0
M  V30 4415 O 420.748 -3.27866 -4.37226 0
M  V30 4416 H 417.842 -0.467248 -0.682355 0
M  V30 4417 H 420.388 -1.47574 -0.837859 0
M  V30 4418 H 419.16 -3.2265 -2.21388 0
M  V30 4419 H 418.783 -2.01488 -3.42766 0
M  V30 4420 N 419.78 1.02168 -1.19998 0
M  V30 4421 C 421.008 1.79296 -1.03249 0
M  V30 4422 C 421.423 1.84103 0.418502 0
M  V30 4423 O 420.78 1.29031 1.29063 0
M  V30 4424 C 420.831 3.24007 -1.60319 0
M  V30 4425 O 420.552 3.19512 -2.99739 0
M  V30 4426 C 422.053 4.17704 -1.48453 0
M  V30 4427 H 419.273 0.564016 -0.363493 0
M  V30 4428 H 421.817 1.28639 -1.58973 0
M  V30 4429 H 419.972 3.7183 -1.08727 0
M  V30 4430 H 420.386 4.10306 -3.26725 0
M  V30 4431 H 421.86 5.17104 -1.93153 0
M  V30 4432 H 422.337 4.37029 -0.436193 0
M  V30 4433 H 422.943 3.7576 -1.99211 0
M  V30 4434 N 421.258 1.00505 1.21394 0
M  V30 4435 C 422.507 0.683159 1.89778 0
M  V30 4436 C 422.82 -0.789471 1.7896 0
M  V30 4437 O 424.026 -1.22344 2.42372 0
M  V30 4438 C 422.482 1.17146 3.40301 0
M  V30 4439 C 422.09 2.67017 3.5973 0
M  V30 4440 C 423.834 0.924461 4.14311 0
M  V30 4441 C 421.741 3.09387 5.04017 0
M  V30 4442 H 420.671 0.25183 0.710702 0
M  V30 4443 H 423.322 1.21622 1.37406 0
M  V30 4444 H 421.704 0.566451 3.91928 0
M  V30 4445 H 422.878 3.32968 3.18542 0
M  V30 4446 H 421.193 2.89732 2.99073 0
M  V30 4447 H 423.79 1.21658 5.20676 0
M  V30 4448 H 424.133 -0.139286 4.16067 0
M  V30 4449 H 424.666 1.49226 3.6875 0
M  V30 4450 H 421.405 4.14989 5.07409 0
M  V30 4451 H 420.925 2.48149 5.46061 0
M  V30 4452 H 422.604 3.01371 5.72525 0
M  V30 4453 N 422.737 -1.36956 0.779787 0
M  V30 4454 C 424.148 -1.82094 0.412156 0
M  V30 4455 C 424.499 -1.64926 -1.06273 0
M  V30 4456 O 423.624 -1.16483 -1.82375 0
M  V30 4457 C 424.219 -3.3059 0.741319 0
M  V30 4458 C 422.778 -3.73974 0.426641 0
M  V30 4459 C 421.925 -2.59368 0.980987 0
M  V30 4460 H 424.876 -1.25314 0.973758 0
M  V30 4461 H 424.897 -3.80489 0.028887 0
M  V30 4462 H 424.409 -3.43054 1.81482 0
M  V30 4463 H 422.51 -3.67076 -0.639215 0
M  V30 4464 H 422.623 -4.69778 0.940515 0
M  V30 4465 H 420.987 -2.51463 0.404757 0
M  V30 4466 H 421.77 -2.74621 2.06005 0
M  V30 4467 N 424.215 -0.530993 -1.48385 0
M  V30 4468 C 425.463 0.00273189 -2.021 0
M  V30 4469 C 425.784 1.34672 -1.41027 0
M  V30 4470 O 425.054 1.8724 -0.576012 0
M  V30 4471 H 423.634 0.00399774 -0.746989 0
M  V30 4472 H 426.296 -0.695054 -1.82085 0
M  V30 4473 H 425.392 0.11031 -3.11905 0
M  V30 4474 N 425.693 1.55336 -0.266172 0
M  V30 4475 C 426.623 2.25146 0.618981 0
M  V30 4476 C 427.604 1.23845 1.16604 0
M  V30 4477 O 428.789 1.52544 1.20183 0
M  V30 4478 C 425.919 2.96572 1.80728 0
M  V30 4479 C 424.873 4.04726 1.39215 0
M  V30 4480 C 424.199 4.63678 2.66283 0
M  V30 4481 C 425.499 5.19407 0.548942 0
M  V30 4482 H 427.193 2.99377 0.0368116 0
M  V30 4483 H 424.739 1.43991 0.0162651 0
M  V30 4484 H 426.692 3.44116 2.43232 0
M  V30 4485 H 425.416 2.19861 2.41514 0
M  V30 4486 H 424.075 3.57979 0.790351 0
M  V30 4487 H 423.723 3.83646 3.25308 0
M  V30 4488 H 423.423 5.367 2.39222 0
M  V30 4489 H 424.947 5.13967 3.29651 0
M  V30 4490 H 426.361 5.63059 1.07876 0
M  V30 4491 H 424.758 5.98936 0.373593 0
M  V30 4492 H 425.828 4.8295 -0.434394 0
M  V30 4493 N 427.171 -0.0066808 1.57599 0
M  V30 4494 C 428.448 -0.729586 1.81484 0
M  V30 4495 C 428.828 -1.92359 0.869558 0
M  V30 4496 O 428.176 -2.28348 -0.0832533 0
M  V30 4497 C 428.386 -1.1416 3.29801 0
M  V30 4498 C 429.734 -1.54823 3.95367 0
M  V30 4499 O 430.758 -1.23558 3.34084 0
M  V30 4500 O 429.617 -2.12937 5.03309 0
M  V30 4501 H 426.711 -0.354674 0.747085 0
M  V30 4502 H 429.257 0.0182609 1.6969 0
M  V30 4503 H 428.029 -0.290231 3.90222 0
M  V30 4504 H 427.652 -1.94876 3.46568 0
M  V30 4505 N 428.649 -1.55105 -0.279332 0
M  V30 4506 C 429.877 -1.7943 -1.03017 0
M  V30 4507 C 430.292 -0.564456 -1.80165 0
M  V30 4508 O 429.649 0.466326 -1.76442 0
M  V30 4509 C 429.7 -3.0155 -1.99374 0
M  V30 4510 O 429.421 -4.19784 -1.25352 0
M  V30 4511 C 430.922 -3.3843 -2.86321 0
M  V30 4512 H 428.142 -0.597882 -0.304594 0
M  V30 4513 H 430.686 -2.02105 -0.312035 0
M  V30 4514 H 428.841 -2.81019 -2.66659 0
M  V30 4515 H 429.255 -4.88781 -1.90246 0
M  V30 4516 H 430.729 -4.27066 -3.49741 0
M  V30 4517 H 431.206 -2.57549 -3.5576 0
M  V30 4518 H 431.812 -3.61197 -2.24536 0
M  V30 4519 N 430.127 0.543554 -1.4793 0
M  V30 4520 C 431.057 1.65888 -1.64327 0
M  V30 4521 C 432.038 1.62818 -0.492383 0
M  V30 4522 O 433.223 1.80226 -0.723338 0
M  V30 4523 C 430.353 3.04506 -1.67013 0
M  V30 4524 C 429.307 3.2243 -2.81466 0
M  V30 4525 C 428.633 4.61972 -2.69233 0
M  V30 4526 C 429.933 3.06496 -4.22915 0
M  V30 4527 H 431.627 1.52421 -2.57698 0
M  V30 4528 H 429.173 0.731849 -1.24016 0
M  V30 4529 H 431.126 3.82391 -1.77074 0
M  V30 4530 H 429.85 3.18964 -0.70212 0
M  V30 4531 H 428.509 2.46957 -2.70938 0
M  V30 4532 H 428.157 4.73247 -1.7043 0
M  V30 4533 H 427.857 4.74911 -3.46025 0
M  V30 4534 H 429.381 5.41974 -2.81242 0
M  V30 4535 H 430.795 3.74186 -4.34348 0
M  V30 4536 H 429.192 3.30938 -5.006 0
M  V30 4537 H 430.262 2.03077 -4.40327 0
M  V30 4538 N 431.605 1.3629 0.791371 0
M  V30 4539 C 432.882 1.20962 1.53712 0
M  V30 4540 C 433.262 -0.205021 2.10102 0
M  V30 4541 O 432.61 -1.21042 1.93807 0
M  V30 4542 C 432.82 2.29002 2.63361 0
M  V30 4543 C 434.168 2.65572 3.31295 0
M  V30 4544 O 435.192 2.2803 2.73643 0
M  V30 4545 O 434.051 3.3018 4.35481 0
M  V30 4546 H 431.145 0.47086 0.679867 0
M  V30 4547 H 433.691 1.48016 0.830021 0
M  V30 4548 H 432.463 3.2382 2.19674 0
M  V30 4549 H 432.086 2.03303 3.41692 0
M  V30 4550 N 433.083 -1.0153 1.20538 0
M  V30 4551 C 434.013 -2.11972 0.979295 0
M  V30 4552 C 434.994 -1.6985 -0.0921787 0
M  V30 4553 O 436.179 -1.94089 0.0655932 0
M  V30 4554 C 433.309 -3.43201 0.531984 0
M  V30 4555 C 432.263 -3.9907 1.54685 0
M  V30 4556 C 431.589 -5.26082 0.956127 0
M  V30 4557 C 432.889 -4.32313 2.93092 0
M  V30 4558 H 434.583 -2.31143 1.90298 0
M  V30 4559 H 432.129 -1.11079 0.916372 0
M  V30 4560 H 434.082 -4.1985 0.361044 0
M  V30 4561 H 432.806 -3.23792 -0.427327 0
M  V30 4562 H 431.465 -3.2453 1.70517 0
M  V30 4563 H 431.113 -5.02999 -0.0111538 0
M  V30 4564 H 430.813 -5.64426 1.63393 0
M  V30 4565 H 432.337 -6.05386 0.796284 0
M  V30 4566 H 433.751 -4.99845 2.80763 0
M  V30 4567 H 432.148 -4.81774 3.57791 0
M  V30 4568 H 433.218 -3.41025 3.44717 0
M  V30 4569 N 434.561 -1.01147 -1.20859 0
M  V30 4570 C 435.494 -0.522108 -2.22147 0
M  V30 4571 C 436.472 0.427686 -1.56874 0
M  V30 4572 O 437.656 0.34889 -1.85243 0
M  V30 4573 C 434.783 0.240819 -3.37843 0
M  V30 4574 C 433.829 -0.657752 -4.21398 0
M  V30 4575 S 434.662 -2.12393 -4.91578 0
M  V30 4576 C 435.818 -1.37102 -6.10699 0
M  V30 4577 H 436.051 -1.38035 -2.63313 0
M  V30 4578 H 433.584 -0.819941 -1.30829 0
M  V30 4579 H 435.542 0.674908 -4.04914 0
M  V30 4580 H 434.203 1.07457 -2.95147 0
M  V30 4581 H 433.396 -0.0697456 -5.03952 0
M  V30 4582 H 432.998 -1.0294 -3.59555 0
M  V30 4583 H 435.29 -0.648315 -6.74391 0
M  V30 4584 H 436.233 -2.17252 -6.73949 0
M  V30 4585 H 436.641 -0.876154 -5.57659 0
M  V30 4586 N 436.039 1.36541 -0.78704 0
M  V30 4587 C 436.971 2.28761 -0.141773 0
M  V30 4588 C 437.984 1.49365 0.647599 0
M  V30 4589 O 439.173 1.71836 0.483173 0
M  V30 4590 C 436.273 3.28771 0.822368 0
M  V30 4591 C 435.446 4.3732 0.0835594 0
M  V30 4592 C 434.505 5.17307 0.963296 0
M  V30 4593 O 433.531 5.67638 0.421419 0
M  V30 4594 N 434.733 5.33515 2.28784 0
M  V30 4595 H 437.498 2.84777 -0.933919 0
M  V30 4596 H 435.059 1.48682 -0.640735 0
M  V30 4597 H 437.051 3.79169 1.41468 0
M  V30 4598 H 435.621 2.73412 1.5154 0
M  V30 4599 H 434.841 3.88118 -0.689809 0
M  V30 4600 H 436.129 5.0701 -0.426358 0
M  V30 4601 H 435.527 4.94234 2.75226 0
M  V30 4602 H 434.084 5.87165 2.82985 0
M  V30 4603 N 437.518 0.538854 1.48102 0
M  V30 4604 C 438.481 -0.208395 2.28251 0
M  V30 4605 C 439.481 -0.859656 1.35892 0
M  V30 4606 O 440.671 -0.71834 1.58699 0
M  V30 4607 C 437.803 -1.30252 3.15035 0
M  V30 4608 H 438.996 0.495407 2.9578 0
M  V30 4609 H 436.549 0.295112 1.53489 0
M  V30 4610 H 437.284 -2.0393 2.52157 0
M  V30 4611 H 437.069 -0.840551 3.82985 0
M  V30 4612 H 438.559 -1.82787 3.75471 0
M  V30 4613 N 438.996 -1.55193 0.274407 0
M  V30 4614 C 439.928 -2.1989 -0.646595 0
M  V30 4615 C 440.941 -1.1834 -1.11801 0
M  V30 4616 O 442.13 -1.4507 -1.04004 0
M  V30 4617 C 439.23 -2.8104 -1.89393 0
M  V30 4618 C 438.403 -4.08274 -1.56943 0
M  V30 4619 C 437.462 -4.53478 -2.66916 0
M  V30 4620 O 436.488 -5.19267 -2.33132 0
M  V30 4621 N 437.69 -4.2356 -3.9696 0
M  V30 4622 H 440.455 -2.99556 -0.0928686 0
M  V30 4623 H 438.016 -1.61618 0.0954783 0
M  V30 4624 H 440.008 -3.08226 -2.62257 0
M  V30 4625 H 438.578 -2.05372 -2.35672 0
M  V30 4626 H 437.798 -3.88384 -0.674655 0
M  V30 4627 H 439.086 -4.91173 -1.32764 0
M  V30 4628 H 438.484 -3.70799 -4.27229 0
M  V30 4629 H 437.041 -4.55518 -4.66205 0
M  V30 4630 N 440.474 -0.00167713 -1.576 0
M  V30 4631 C 441.406 1.0174 -2.05382 0
M  V30 4632 C 442.419 1.30595 -0.972052 0
M  V30 4633 O 443.608 1.27542 -1.24882 0
M  V30 4634 C 440.708 2.35174 -2.44022 0
M  V30 4635 C 439.881 2.25234 -3.74951 0
M  V30 4636 C 438.94 3.4137 -4.00441 0
M  V30 4637 O 437.966 3.19483 -4.71083 0
M  V30 4638 N 439.168 4.64275 -3.48467 0
M  V30 4639 H 441.933 0.609902 -2.93428 0
M  V30 4640 H 439.494 0.185672 -1.60832 0
M  V30 4641 H 441.486 3.11643 -2.58187 0
M  V30 4642 H 440.056 2.67659 -1.61485 0
M  V30 4643 H 439.276 1.33664 -3.70847 0
M  V30 4644 H 440.564 2.15767 -4.60784 0
M  V30 4645 H 439.962 4.84955 -2.91264 0
M  V30 4646 H 438.519 5.38005 -3.67959 0
M  V30 4647 N 441.952 1.55251 0.271103 0
M  V30 4648 C 443.198 1.76207 1.00394 0
M  V30 4649 C 443.531 0.562604 1.85872 0
M  V30 4650 O 442.806 -0.439785 1.89463 0
M  V30 4651 C 443.089 3.06828 1.8849 0
M  V30 4652 C 442.942 4.37134 1.05992 0
M  V30 4653 C 444.261 3.33503 2.87165 0
M  V30 4654 H 441.38 0.641086 0.363562 0
M  V30 4655 H 444.022 1.87982 0.276189 0
M  V30 4656 H 442.172 2.96921 2.5054 0
M  V30 4657 H 443.844 4.59001 0.459978 0
M  V30 4658 H 442.087 4.32275 0.363443 0
M  V30 4659 H 442.758 5.2486 1.70955 0
M  V30 4660 H 445.234 3.43215 2.3525 0
M  V30 4661 H 444.11 4.2616 3.45946 0
M  V30 4662 H 444.371 2.53235 3.62387 0
M  V30 4663 N 443.43 -0.535701 1.48216 0
M  V30 4664 C 444.846 -0.863701 1.3421 0
M  V30 4665 C 445.046 -1.98458 0.34879 0
M  V30 4666 O 444.102 -2.51432 -0.23204 0
M  V30 4667 C 445.415 -1.23662 2.74095 0
M  V30 4668 C 446.963 -1.34683 2.82541 0
M  V30 4669 C 447.438 -1.75322 4.23115 0
M  V30 4670 N 448.929 -1.82434 4.2576 0
M  V30 4671 C 449.664 -2.15252 5.31464 0
M  V30 4672 N 449.16 -2.46533 6.47452 0
M  V30 4673 N 450.953 -2.16209 5.18855 0
M  V30 4674 H 443.104 0.203965 2.11418 0
M  V30 4675 H 445.367 0.0286033 0.947568 0
M  V30 4676 H 445.073 -0.486674 3.48316 0
M  V30 4677 H 444.947 -2.18805 3.07253 0
M  V30 4678 H 447.334 -2.08756 2.08579 0
M  V30 4679 H 447.415 -0.376756 2.5301 0
M  V30 4680 H 447.059 -1.01812 4.97591 0
M  V30 4681 H 446.989 -2.7337 4.50085 0
M  V30 4682 H 449.48 -1.6056 3.42095 0
M  V30 4683 H 449.793 -2.70662 7.23852 0
M  V30 4684 H 448.138 -2.44065 6.50736 0
M  V30 4685 H 451.329 -1.91224 4.2726 0
M  V30 4686 H 451.502 -2.41453 6.01335 0
M  V30 4687 N 444.908 -1.36708 -0.784132 0
M  V30 4688 C 446.324 -1.17237 -1.08294 0
M  V30 4689 C 446.524 -5.93947e-05 -2.015 0
M  V30 4690 O 445.58 0.663686 -2.43622 0
M  V30 4691 C 446.893 -2.48557 -1.69233 0
M  V30 4692 C 448.441 -2.54968 -1.8155 0
M  V30 4693 C 448.916 -3.86388 -2.45904 0
M  V30 4694 N 450.407 -3.87762 -2.53367 0
M  V30 4695 C 451.142 -4.86191 -3.03983 0
M  V30 4696 N 450.638 -5.95015 -3.54866 0
M  V30 4697 N 452.431 -4.73606 -3.02743 0
M  V30 4698 H 444.582 -2.11758 -0.16501 0
M  V30 4699 H 446.845 -0.93822 -0.135822 0
M  V30 4700 H 446.551 -3.34638 -1.08215 0
M  V30 4701 H 446.425 -2.64748 -2.68679 0
M  V30 4702 H 448.812 -1.69302 -2.41704 0
M  V30 4703 H 448.893 -2.42672 -0.80895 0
M  V30 4704 H 448.537 -4.72462 -1.86392 0
M  V30 4705 H 448.467 -3.95982 -3.4714 0
M  V30 4706 H 450.958 -3.09145 -2.17343 0
M  V30 4707 H 451.271 -6.66086 -3.91854 0
M  V30 4708 H 449.616 -5.98676 -3.53003 0
M  V30 4709 H 452.807 -3.87717 -2.62284 0
M  V30 4710 H 452.98 -5.50473 -3.41881 0
M  V30 4711 N 446.386 1.0089 -1.21074 0
M  V30 4712 C 447.632 1.7497 -1.03717 0
M  V30 4713 C 447.987 1.8764 0.425344 0
M  V30 4714 O 447.28 1.39679 1.3115 0
M  V30 4715 C 447.474 3.16335 -1.66334 0
M  V30 4716 C 447.303 3.17449 -3.18522 0
M  V30 4717 C 446.073 3.2425 -3.87543 0
M  V30 4718 C 448.271 3.02877 -4.15656 0
M  V30 4719 N 446.253 3.14949 -5.26954 0
M  V30 4720 C 447.624 3.0143 -5.41793 0
M  V30 4721 C 449.679 2.8715 -4.06755 0
M  V30 4722 C 448.382 2.85869 -6.60054 0
M  V30 4723 C 450.408 2.72944 -5.24648 0
M  V30 4724 C 449.77 2.72171 -6.49694 0
M  V30 4725 H 445.869 0.650627 -0.43383 0
M  V30 4726 H 448.453 1.19944 -1.53367 0
M  V30 4727 H 446.624 3.69638 -1.19256 0
M  V30 4728 H 448.356 3.78888 -1.42219 0
M  V30 4729 H 445.111 3.31288 -3.38446 0
M  V30 4730 H 445.535 3.13651 -5.9996 0
M  V30 4731 H 450.177 2.86557 -3.10878 0
M  V30 4732 H 447.895 2.8521 -7.56096 0
M  V30 4733 H 451.481 2.61782 -5.19578 0
M  V30 4734 H 450.361 2.61307 -7.39384 0
M  V30 4735 N 447.864 1.01787 1.20321 0
M  V30 4736 C 449.275 0.739307 1.71438 0
M  V30 4737 C 449.626 -0.742041 1.81627 0
M  V30 4738 O 448.751 -1.57903 1.47971 0
M  V30 4739 C 449.346 1.33538 3.11373 0
M  V30 4740 C 447.905 1.10566 3.59795 0
M  V30 4741 C 447.052 1.44028 2.36962 0
M  V30 4742 H 450.003 1.18718 1.05317 0
M  V30 4743 H 450.024 0.726611 3.73498 0
M  V30 4744 H 449.536 2.41352 3.03926 0
M  V30 4745 H 447.637 0.0452405 3.72573 0
M  V30 4746 H 447.75 1.78661 4.44542 0
M  V30 4747 H 446.114 0.85933 2.39766 0
M  V30 4748 H 446.897 2.52901 2.32155 0
M  V30 4749 N 449.342 -1.36122 0.79427 0
M  V30 4750 C 450.59 -1.98718 0.368177 0
M  V30 4751 C 450.911 -1.63345 -1.06506 0
M  V30 4752 O 450.181 -0.909825 -1.73491 0
M  V30 4753 H 448.761 -0.735038 0.133146 0
M  V30 4754 H 451.423 -1.66239 1.01739 0
M  V30 4755 H 450.519 -3.08633 0.463923 0
M  V30 4756 N 450.82 -0.546701 -1.47814 0
M  V30 4757 C 452.045 -0.021268 -2.07389 0
M  V30 4758 C 452.47 1.25822 -1.39822 0
M  V30 4759 O 451.828 1.75111 -0.46968 0
M  V30 4760 C 451.876 0.168502 -3.60206 0
M  V30 4761 O 450.98 1.23347 -3.93522 0
M  V30 4762 H 450.321 -0.0466108 -0.662362 0
M  V30 4763 H 452.851 -0.759387 -1.89985 0
M  V30 4764 H 452.861 0.385982 -4.0617 0
M  V30 4765 H 451.536 -0.766075 -4.08784 0
M  V30 4766 H 450.113 0.997319 -3.59316 0
M  V30 4767 N 452.299 1.55045 -0.282633 0
M  V30 4768 C 453.527 2.04168 0.33512 0
M  V30 4769 C 453.942 1.16071 1.48906 0
M  V30 4770 O 453.299 0.182391 1.81586 0
M  V30 4771 C 453.35 3.52332 0.808957 0
M  V30 4772 O 453.071 4.37078 -0.299038 0
M  V30 4773 C 454.572 4.17375 1.49375 0
M  V30 4774 H 451.792 0.666744 0.0754543 0
M  V30 4775 H 454.336 2.00205 -0.416918 0
M  V30 4776 H 452.491 3.56715 1.51106 0
M  V30 4777 H 452.905 5.24458 0.0665514 0
M  V30 4778 H 454.379 5.22627 1.77664 0
M  V30 4779 H 454.856 3.65999 2.42778 0
M  V30 4780 H 455.462 4.17016 0.835305 0
M  V30 4781 N 453.777 0.010035 1.57597 0
M  V30 4782 C 454.707 -0.976857 2.12084 0
M  V30 4783 C 455.688 -1.35191 1.03235 0
M  V30 4784 O 456.873 -1.43389 1.3097 0
M  V30 4785 C 454.003 -2.26548 2.63236 0
M  V30 4786 C 452.957 -2.03175 3.76701 0
M  V30 4787 C 452.283 -3.38138 4.14206 0
M  V30 4788 C 453.583 -1.38625 5.03568 0
M  V30 4789 H 455.277 -0.523145 2.94794 0
M  V30 4790 H 452.823 -0.250195 1.4181 0
M  V30 4791 H 454.776 -2.95952 2.99984 0
M  V30 4792 H 453.5 -2.74051 1.77661 0
M  V30 4793 H 452.159 -1.36195 3.40362 0
M  V30 4794 H 451.807 -3.83363 3.25641 0
M  V30 4795 H 451.507 -3.23312 4.90656 0
M  V30 4796 H 453.031 -4.08841 4.53521 0
M  V30 4797 H 454.445 -1.98 5.38023 0
M  V30 4798 H 452.842 -1.34256 5.84889 0
M  V30 4799 H 453.912 -0.356722 4.83586 0
M  V30 4800 N 455.255 -1.55392 -0.262866 0
M  V30 4801 C 456.666 -1.67079 -0.833158 0
M  V30 4802 C 457.017 -0.604539 -1.86654 0
M  V30 4803 O 456.142 0.252138 -2.14926 0
M  V30 4804 C 456.737 -3.02891 -1.51797 0
M  V30 4805 C 455.296 -3.16571 -2.03617 0
M  V30 4806 C 454.443 -2.62909 -0.881701 0
M  V30 4807 H 457.394 -1.58652 -0.0389986 0
M  V30 4808 H 457.415 -2.96445 -2.38538 0
M  V30 4809 H 456.927 -3.80473 -0.765619 0
M  V30 4810 H 455.028 -2.43782 -2.81782 0
M  V30 4811 H 455.141 -4.23271 -2.24452 0
M  V30 4812 H 453.505 -2.20324 -1.27786 0
M  V30 4813 H 454.288 -3.43003 -0.14269 0
M  V30 4814 N 456.733 0.527833 -1.48498 0
M  V30 4815 C 457.979 1.28545 -1.56857 0
M  V30 4816 C 458.312 1.92678 -0.242651 0
M  V30 4817 O 457.587 1.79394 0.751545 0
M  V30 4818 C 457.87 2.37314 -2.70839 0
M  V30 4819 C 457.723 1.77858 -4.13142 0
M  V30 4820 C 459.042 3.39068 -2.80573 0
M  V30 4821 H 456.161 0.466006 -0.570971 0
M  V30 4822 H 458.803 0.587784 -1.8068 0
M  V30 4823 H 456.953 2.96821 -2.50658 0
M  V30 4824 H 458.625 1.22385 -4.44769 0
M  V30 4825 H 456.868 1.08383 -4.20042 0
M  V30 4826 H 457.539 2.56624 -4.88721 0
M  V30 4827 H 460.015 2.89518 -2.98862 0
M  V30 4828 H 458.891 4.12566 -3.6205 0
M  V30 4829 H 459.152 3.9975 -1.88818 0
M  V30 4830 N 458.211 1.37122 0.776871 0
M  V30 4831 C 459.457 1.32243 1.53752 0
M  V30 4832 C 459.79 -0.0944745 1.9397 0
M  V30 4833 O 459.065 -1.05068 1.6368 0
M  V30 4834 C 459.348 2.25681 2.80607 0
M  V30 4835 C 459.201 3.76127 2.46676 0
M  V30 4836 C 460.52 2.17657 3.82509 0
M  V30 4837 H 457.639 0.481704 0.557791 0
M  V30 4838 H 460.281 1.6778 0.891612 0
M  V30 4839 H 458.431 1.95505 3.35723 0
M  V30 4840 H 460.103 4.16877 1.97513 0
M  V30 4841 H 458.346 3.94946 1.79443 0
M  V30 4842 H 459.017 4.36933 3.37333 0
M  V30 4843 H 461.493 2.44245 3.36873 0
M  V30 4844 H 460.369 2.85185 4.69 0
M  V30 4845 H 460.63 1.16785 4.26396 0
M  V30 4846 N 459.689 -1.00246 1.21608 0
M  V30 4847 C 460.599 -2.12515 0.993709 0
M  V30 4848 C 461.615 -1.73913 -0.0549939 0
M  V30 4849 O 462.791 -2.00943 0.135619 0
M  V30 4850 C 459.856 -3.42083 0.563953 0
M  V30 4851 C 458.917 -3.94843 1.68516 0
M  V30 4852 C 458.15 -5.18226 1.27582 0
M  V30 4853 O 458.373 -5.70201 0.150506 0
M  V30 4854 O 457.307 -5.64497 2.0887 0
M  V30 4855 H 461.133 -2.34152 1.93407 0
M  V30 4856 H 458.718 -1.10891 1.00118 0
M  V30 4857 H 460.6 -4.20073 0.334194 0
M  V30 4858 H 459.275 -3.21828 -0.347665 0
M  V30 4859 H 458.182 -3.18068 1.96935 0
M  V30 4860 H 459.515 -4.19512 2.5743 0
M  V30 4861 N 461.167 -1.02423 -1.1978 0
M  V30 4862 C 462.413 -0.719051 -1.89625 0
M  V30 4863 C 462.746 0.750083 -1.7913 0
M  V30 4864 O 462.021 1.54574 -1.18056 0
M  V30 4865 C 462.304 -1.16499 -3.40735 0
M  V30 4866 C 462.157 -2.695 -3.60125 0
M  V30 4867 C 463.476 -0.742166 -4.33797 0
M  V30 4868 H 460.595 -0.26269 -0.688595 0
M  V30 4869 H 463.237 -1.27333 -1.41018 0
M  V30 4870 H 461.387 -0.69341 -3.82262 0
M  V30 4871 H 463.059 -3.24569 -3.278 0
M  V30 4872 H 461.302 -3.10113 -3.03336 0
M  V30 4873 H 461.973 -2.95757 -4.66081 0
M  V30 4874 H 464.449 -1.1477 -3.99959 0
M  V30 4875 H 463.325 -1.08213 -5.38127 0
M  V30 4876 H 463.586 0.355747 -4.40666 0
M  V30 4877 N 462.645 1.35699 -0.801477 0
M  V30 4878 C 463.922 1.9324 -0.302937 0
M  V30 4879 C 464.302 1.73209 1.20672 0
M  V30 4880 O 463.65 1.09809 2.00385 0
M  V30 4881 C 463.86 3.41728 -0.708747 0
M  V30 4882 C 465.208 4.18868 -0.695328 0
M  V30 4883 O 466.232 3.5022 -0.649971 0
M  V30 4884 O 465.091 5.41342 -0.749081 0
M  V30 4885 H 462.185 0.82331 -0.0780367 0
M  V30 4886 H 464.731 1.44806 -0.884832 0
M  V30 4887 H 463.503 3.50015 -1.74944 0
M  V30 4888 H 463.126 3.97471 -0.101384 0
M  V30 4889 N 464.123 0.554532 1.47522 0
M  V30 4890 C 465.086 -0.184174 2.28459 0
M  V30 4891 C 466.086 -0.845195 1.36796 0
M  V30 4892 O 467.276 -0.701467 1.59452 0
M  V30 4893 C 464.408 -1.26903 3.16399 0
M  V30 4894 H 465.601 0.526751 2.95238 0
M  V30 4895 H 463.154 0.311375 1.53167 0
M  V30 4896 H 463.889 -2.01244 2.54306 0
M  V30 4897 H 463.674 -0.799883 3.83854 0
M  V30 4898 H 465.164 -1.78794 3.77389 0
M  V30 4899 N 465.601 -1.54893 0.290851 0
M  V30 4900 C 466.531 -2.26103 -0.583084 0
M  V30 4901 C 467.512 -1.25684 -1.14619 0
M  V30 4902 O 468.697 -1.54436 -1.17741 0
M  V30 4903 C 465.827 -2.99409 -1.75987 0
M  V30 4904 C 464.781 -4.0689 -1.32758 0
M  V30 4905 C 464.107 -4.67856 -2.58872 0
M  V30 4906 C 465.407 -5.20215 -0.46624 0
M  V30 4907 H 467.101 -2.99398 0.0108214 0
M  V30 4908 H 464.647 -1.43998 0.00664468 0
M  V30 4909 H 466.6 -3.47943 -2.37727 0
M  V30 4910 H 465.324 -2.23675 -2.37985 0
M  V30 4911 H 463.983 -3.59191 -0.733299 0
M  V30 4912 H 463.631 -3.88772 -3.19163 0
M  V30 4913 H 463.331 -5.40438 -2.30653 0
M  V30 4914 H 464.855 -5.19147 -3.21433 0
M  V30 4915 H 466.269 -5.64704 -0.989047 0
M  V30 4916 H 464.666 -5.99455 -0.27826 0
M  V30 4917 H 465.736 -4.82198 0.511173 0
M  V30 4918 N 467.08 -0.0183926 -1.57589 0
M  V30 4919 C 467.99 0.982943 -2.13015 0
M  V30 4920 C 469.006 1.36443 -1.07979 0
M  V30 4921 O 470.182 1.44802 -1.3998 0
M  V30 4922 C 467.247 2.25024 -2.63752 0
M  V30 4923 C 466.308 1.93018 -3.83461 0
M  V30 4924 C 465.541 3.13706 -4.31769 0
M  V30 4925 O 465.764 4.2601 -3.79305 0
M  V30 4926 O 464.698 2.96629 -5.23732 0
M  V30 4927 H 468.524 0.541709 -2.9883 0
M  V30 4928 H 466.109 0.201565 -1.48034 0
M  V30 4929 H 467.991 2.99441 -2.96502 0
M  V30 4930 H 466.666 2.68349 -1.81026 0
M  V30 4931 H 465.573 1.16019 -3.55655 0
M  V30 4932 H 466.906 1.54516 -4.67317 0
M  V30 4933 N 468.558 1.5553 0.254621 0
M  V30 4934 C 469.974 1.4778 0.602753 0
M  V30 4935 C 470.174 0.707047 1.88688 0
M  V30 4936 O 469.23 0.233288 2.5142 0
M  V30 4937 C 470.543 2.92133 0.712648 0
M  V30 4938 C 472.091 3.02458 0.805488 0
M  V30 4939 C 472.566 4.48102 0.947009 0
M  V30 4940 N 474.057 4.52008 1.01207 0
M  V30 4941 C 474.792 5.61939 1.1407 0
M  V30 4942 N 474.288 6.81697 1.23536 0
M  V30 4943 N 476.081 5.49719 1.17325 0
M  V30 4944 H 468.232 2.04085 -0.588463 0
M  V30 4945 H 470.495 0.926229 -0.202001 0
M  V30 4946 H 470.201 3.51332 -0.160766 0
M  V30 4947 H 470.075 3.42187 1.58707 0
M  V30 4948 H 472.462 2.43344 1.66936 0
M  V30 4949 H 472.543 2.55627 -0.0939266 0
M  V30 4950 H 472.187 5.07824 0.087725 0
M  V30 4951 H 472.117 4.92607 1.86135 0
M  V30 4952 H 474.608 3.65749 0.950577 0
M  V30 4953 H 474.921 7.61228 1.33236 0
M  V30 4954 H 473.266 6.84473 1.20508 0
M  V30 4955 H 476.457 4.55095 1.09573 0
M  V30 4956 H 476.63 6.35432 1.27005 0
M  V30 4957 N 470.036 -0.519951 1.48776 0
M  V30 4958 C 470.966 -1.63253 1.66945 0
M  V30 4959 C 471.947 -1.62014 0.518224 0
M  V30 4960 O 473.132 -1.79053 0.751919 0
M  V30 4961 C 470.262 -3.0181 1.71836 0
M  V30 4962 C 469.216 -3.17911 2.8656 0
M  V30 4963 C 468.542 -4.5763 2.76548 0
M  V30 4964 C 469.842 -2.99729 4.27738 0
M  V30 4965 H 471.536 -1.48302 2.6009 0
M  V30 4966 H 469.082 -0.712026 1.25165 0
M  V30 4967 H 471.035 -3.79525 1.83135 0
M  V30 4968 H 469.759 -3.17806 0.752775 0
M  V30 4969 H 468.418 -2.42616 2.74833 0
M  V30 4970 H 468.066 -4.70476 1.77937 0
M  V30 4971 H 467.766 -4.69346 3.53536 0
M  V30 4972 H 469.29 -5.37431 2.89828 0
M  V30 4973 H 470.704 -3.67228 4.40246 0
M  V30 4974 H 469.101 -3.22932 5.05801 0
M  V30 4975 H 470.171 -1.96047 4.43502 0
M  V30 4976 N 471.514 -1.37532 -0.769588 0
M  V30 4977 C 472.444 -1.36172 -1.89682 0
M  V30 4978 C 473.425 -0.23001 -1.68538 0
M  V30 4979 O 474.61 -0.43069 -1.89364 0
M  V30 4980 C 471.74 -1.1701 -3.26995 0
M  V30 4981 C 470.694 -2.27216 -3.62708 0
M  V30 4982 C 470.02 -1.93174 -4.98586 0
M  V30 4983 C 471.32 -3.6941 -3.69234 0
M  V30 4984 H 473.014 -2.30499 -1.91078 0
M  V30 4985 H 470.56 -1.10953 -0.917902 0
M  V30 4986 H 472.513 -1.14688 -4.05493 0
M  V30 4987 H 471.237 -0.191395 -3.26039 0
M  V30 4988 H 469.896 -2.28697 -2.86519 0
M  V30 4989 H 469.544 -0.938281 -4.94171 0
M  V30 4990 H 469.244 -2.66973 -5.23449 0
M  V30 4991 H 470.768 -1.92443 -5.79481 0
M  V30 4992 H 472.182 -3.70047 -4.37879 0
M  V30 4993 H 470.579 -4.4228 -4.05597 0
M  V30 4994 H 471.649 -4.0288 -2.69844 0
M  V30 4995 O 473.031 0.909716 -1.33441 0
M  V30 4996 H 473.722 1.54385 -1.16983 0
M  V30 END ATOM
M  V30 BEGIN BOND
M  V30 END BOND
M  V30 END CTAB
M  END
$$$$
