drugbank_target|O60285 NUAK family SNF1-like kinase 1 (DB12010)
 OpenBabel12092121173D

  0  0  0     0  0            999 V3000
M  V30 BEGIN CTAB
M  V30 COUNTS 10424 10536 0 0 0
M  V30 BEGIN ATOM
M  V30 1 H -0.908 1.98254 -0.117106 0
M  V30 2 N 0 1.576 0 0
M  V30 3 C 0.933 2.03868 1.02534 0
M  V30 4 C 1.911 0.928543 1.3348 0
M  V30 5 O 3.095 1.19667 1.45644 0
M  V30 6 C 0.222 2.43627 2.35294 0
M  V30 7 C -0.732 3.65373 2.2001 0
M  V30 8 S 0.101 5.13292 1.52614 0
M  V30 9 C 1.257 5.56322 2.86805 0
M  V30 10 H 1.49 2.90518 0.631377 0
M  V30 11 H -0.977 1.52953 0.210867 0
M  V30 12 H 0.981 2.67203 3.11629 0
M  V30 13 H -0.358 1.57376 2.7183 0
M  V30 14 H -1.165 3.90944 3.18086 0
M  V30 15 H -1.563 3.418 1.51819 0
M  V30 16 H 0.729 5.58782 3.83104 0
M  V30 17 H 1.672 6.56266 2.65933 0
M  V30 18 H 2.08 4.83886 2.90714 0
M  V30 19 N 1.4781 -0.272755 1.55222 0
M  V30 20 C 2.3881 -1.35918 1.91216 0
M  V30 21 C 3.4041 -1.54026 0.809436 0
M  V30 22 O 4.5801 -1.68148 1.10852 0
M  V30 23 C 1.6451 -2.69834 2.17693 0
M  V30 24 C 0.7061 -2.6047 3.41253 0
M  V30 25 C -0.0609 -3.88 3.66458 0
M  V30 26 O 0.1621 -4.88693 2.94169 0
M  V30 27 O -0.9039 -3.88189 4.59992 0
M  V30 28 H 2.9221 -1.0839 2.83699 0
M  V30 29 H 0.5071 -0.471301 1.41771 0
M  V30 30 H 2.3891 -3.49017 2.36147 0
M  V30 31 H 1.0641 -2.97148 1.28392 0
M  V30 32 H -0.0289 -1.79663 3.28134 0
M  V30 33 H 1.3041 -2.38106 4.30774 0
M  V30 34 N 2.9562 -1.48159 -0.537278 0
M  V30 35 C 4.2042 -1.55497 -1.29094 0
M  V30 36 C 4.5252 -0.227454 -1.93669 0
M  V30 37 O 3.7952 0.750386 -1.80959 0
M  V30 38 H 2.3752 -0.572832 -0.47945 0
M  V30 39 H 5.0372 -1.84579 -0.625818 0
M  V30 40 H 4.1332 -2.33216 -2.07405 0
M  V30 41 N 4.4343 0.785586 -1.36625 0
M  V30 42 C 5.3973 1.87999 -1.31107 0
M  V30 43 C 6.3973 1.59316 -0.217959 0
M  V30 44 O 7.5873 1.67656 -0.472977 0
M  V30 45 C 4.7193 3.24861 -1.03334 0
M  V30 46 H 5.9123 1.94307 -2.2844 0
M  V30 47 H 3.4653 0.983813 -1.21453 0
M  V30 48 H 4.2003 3.24235 -0.0647432 0
M  V30 49 H 3.9853 3.4707 -1.82441 0
M  V30 50 H 5.4753 4.04929 -1.02088 0
M  V30 51 N 5.9124 1.20967 1.01018 0
M  V30 52 C 6.8754 0.965918 2.07853 0
M  V30 53 C 7.8754 -0.0610545 1.60684 0
M  V30 54 O 9.0654 0.175681 1.73312 0
M  V30 55 C 6.1974 0.455513 3.37843 0
M  V30 56 H 7.3904 1.91365 2.3091 0
M  V30 57 H 4.9434 1.02594 1.17916 0
M  V30 58 H 5.6784 -0.497381 3.20463 0
M  V30 59 H 5.4634 1.19622 3.73407 0
M  V30 60 H 6.9534 0.304667 4.16487 0
M  V30 61 N 7.3905 -1.2043 1.01659 0
M  V30 62 C 8.3535 -2.21433 0.591616 0
M  V30 63 C 9.3535 -1.57203 -0.338226 0
M  V30 64 O 10.5435 -1.73737 -0.126918 0
M  V30 65 C 7.6755 -3.40628 -0.136058 0
M  V30 66 H 8.8685 -2.60545 1.48514 0
M  V30 67 H 6.4215 -1.33893 0.806379 0
M  V30 68 H 7.1565 -3.07019 -1.04449 0
M  V30 69 H 6.9415 -3.88475 0.531917 0
M  V30 70 H 8.4315 -4.15475 -0.420735 0
M  V30 71 N 8.8686 -0.792821 -1.36206 0
M  V30 72 C 10.2796 -0.429513 -1.81692 0
M  V30 73 C 10.6306 1.04695 -1.65932 0
M  V30 74 O 9.7556 1.81256 -1.18218 0
M  V30 75 C 10.3506 -0.772831 -3.29868 0
M  V30 76 C 8.9096 -0.462307 -3.7355 0
M  V30 77 C 8.0566 -1.00569 -2.5842 0
M  V30 78 H 11.0076 -0.985672 -1.24379 0
M  V30 79 H 11.0286 -0.0651928 -3.80444 0
M  V30 80 H 10.5406 -1.84747 -3.41307 0
M  V30 81 H 8.6416 0.604158 -3.67669 0
M  V30 82 H 8.7546 -0.985299 -4.68859 0
M  V30 83 H 7.1186 -0.428734 -2.51066 0
M  V30 84 H 7.9016 -2.08616 -2.72643 0
M  V30 85 N 10.3467 1.47872 -0.545128 0
M  V30 86 C 11.5927 2.02793 -0.0166104 0
M  V30 87 C 11.9257 1.41987 1.32489 0
M  V30 88 O 11.2007 0.571045 1.85928 0
M  V30 89 C 11.4837 3.59989 0.0893294 0
M  V30 90 C 11.3367 4.3125 -1.27841 0
M  V30 91 C 12.6557 4.32606 0.808724 0
M  V30 92 H 9.7747 0.736962 -0.00751035 0
M  V30 93 H 12.4167 1.76433 -0.705085 0
M  V30 94 H 10.5667 3.82579 0.675681 0
M  V30 95 H 12.2387 4.20035 -1.90704 0
M  V30 96 H 10.4817 3.92076 -1.85632 0
M  V30 97 H 11.1527 5.39736 -1.15713 0
M  V30 98 H 13.6287 4.14936 0.310992 0
M  V30 99 H 12.5047 5.42251 0.851782 0
M  V30 100 H 12.7657 4.00963 1.86229 0
M  V30 101 N 11.8248 0.280983 1.55075 0
M  V30 102 C 12.7878 -0.590896 2.21452 0
M  V30 103 C 13.7878 -1.07682 1.19421 0
M  V30 104 O 14.9778 -0.97605 1.44288 0
M  V30 105 C 12.1098 -1.81587 2.88511 0
M  V30 106 H 13.3028 -0.0112554 2.99898 0
M  V30 107 H 10.8558 0.0316438 1.56268 0
M  V30 108 H 11.5908 -2.43587 2.14093 0
M  V30 109 H 11.3758 -1.4753 3.63287 0
M  V30 110 H 12.8658 -2.43575 3.39206 0
M  V30 111 N 13.3029 -1.57598 0.00835791 0
M  V30 112 C 14.5509 -1.90551 -0.6734 0
M  V30 113 C 14.8719 -0.883301 -1.73847 0
M  V30 114 O 14.1419 0.0781442 -1.95744 0
M  V30 115 H 12.7219 -0.703312 -0.251717 0
M  V30 116 H 15.3839 -1.94833 0.0512592 0
M  V30 117 H 14.4799 -2.9056 -1.13935 0
M  V30 118 N 14.781 0.264519 -1.55364 0
M  V30 119 C 16.058 1.01677 -1.67096 0
M  V30 120 C 16.438 2.03996 -0.543015 0
M  V30 121 O 15.786 2.23907 0.45585 0
M  V30 122 C 15.996 1.66596 -3.0667 0
M  V30 123 C 17.344 2.17442 -3.64697 0
M  V30 124 O 18.368 1.76568 -3.09358 0
M  V30 125 O 17.227 2.92439 -4.61673 0
M  V30 126 H 14.321 0.472161 -0.678965 0
M  V30 127 H 16.867 0.259703 -1.67701 0
M  V30 128 H 15.639 0.924962 -3.80211 0
M  V30 129 H 15.262 2.48968 -3.10001 0
M  V30 130 N 16.2591 1.48442 0.529413 0
M  V30 131 C 17.6751 1.34575 0.858004 0
M  V30 132 C 17.8751 0.3572 1.98309 0
M  V30 133 O 16.9311 -0.221379 2.51528 0
M  V30 134 C 18.2441 2.74617 1.22499 0
M  V30 135 C 19.7921 2.83109 1.33484 0
M  V30 136 C 20.2671 4.23854 1.73526 0
M  V30 137 N 21.7581 4.2653 1.80628 0
M  V30 138 C 22.4931 5.32372 2.12997 0
M  V30 139 N 21.9891 6.48491 2.43786 0
M  V30 140 N 23.7821 5.19766 2.14008 0
M  V30 141 H 15.9331 2.1133 -0.212925 0
M  V30 142 H 18.1961 0.947439 -0.0326199 0
M  V30 143 H 17.9021 3.4852 0.471905 0
M  V30 144 H 17.7761 3.08177 2.17501 0
M  V30 145 H 20.1631 2.09462 2.0787 0
M  V30 146 H 20.2441 2.53168 0.366027 0
M  V30 147 H 19.8881 4.98018 0.997013 0
M  V30 148 H 19.8181 4.5124 2.71459 0
M  V30 149 H 22.3091 3.42772 1.59108 0
M  V30 150 H 22.6221 7.24993 2.67592 0
M  V30 151 H 20.9671 6.51765 2.41304 0
M  V30 152 H 24.1581 4.28066 1.89412 0
M  V30 153 H 24.3311 6.02354 2.38902 0
M  V30 154 N 17.7372 -0.778329 1.37039 0
M  V30 155 C 19.1482 -1.35421 1.28523 0
M  V30 156 C 19.4992 -1.96075 -0.0700901 0
M  V30 157 O 18.6242 -1.93352 -0.971801 0
M  V30 158 C 19.2192 -2.46211 2.32735 0
M  V30 159 C 17.7782 -2.99585 2.27873 0
M  V30 160 C 16.9252 -1.72748 2.16918 0
M  V30 161 H 19.8762 -0.5791 1.47757 0
M  V30 162 H 19.8972 -3.2552 1.9702 0
M  V30 163 H 19.4092 -2.02036 3.31365 0
M  V30 164 H 17.5102 -3.48152 1.32745 0
M  V30 165 H 17.6232 -3.55646 3.21018 0
M  V30 166 H 15.9872 -1.95416 1.63354 0
M  V30 167 H 16.7702 -1.30686 3.17452 0
M  V30 168 N 19.2153 -1.21501 -1.00376 0
M  V30 169 C 20.4923 -0.941745 -1.71437 0
M  V30 170 C 20.8723 0.546114 -2.03914 0
M  V30 171 O 20.2203 1.51128 -1.71384 0
M  V30 172 C 20.4303 -1.82812 -2.97289 0
M  V30 173 C 21.7783 -2.07771 -3.70292 0
M  V30 174 O 22.8023 -1.80171 -3.07273 0
M  V30 175 O 21.6613 -2.54456 -4.83647 0
M  V30 176 H 18.7553 -0.353243 -0.747762 0
M  V30 177 H 21.3013 -1.32436 -1.06108 0
M  V30 178 H 20.0733 -2.83501 -2.69709 0
M  V30 179 H 19.6963 -1.4464 -3.70358 0
M  V30 180 N 20.6934 1.19889 -1.02296 0
M  V30 181 C 21.6234 2.25141 -0.619174 0
M  V30 182 C 22.6044 1.66051 0.368915 0
M  V30 183 O 23.7894 1.92546 0.252941 0
M  V30 184 C 20.9194 3.4728 0.0368783 0
M  V30 185 C 19.8734 4.19005 -0.872865 0
M  V30 186 C 19.1994 5.34637 -0.0822402 0
M  V30 187 C 20.4994 4.74452 -2.18387 0
M  V30 188 H 22.1934 2.59171 -1.49903 0
M  V30 189 H 19.7394 1.24579 -0.722222 0
M  V30 190 H 21.6924 4.20098 0.330958 0
M  V30 191 H 20.4164 3.12433 0.95149 0
M  V30 192 H 19.0754 3.48061 -1.15105 0
M  V30 193 H 18.7234 4.96034 0.83422 0
M  V30 194 H 18.4234 5.83557 -0.688149 0
M  V30 195 H 19.9474 6.10255 0.205238 0
M  V30 196 H 21.3614 5.39055 -1.95172 0
M  V30 197 H 19.7584 5.33834 -2.74119 0
M  V30 198 H 20.8284 3.92844 -2.84257 0
M  V30 199 N 22.1715 0.800033 1.35784 0
M  V30 200 C 23.4195 0.376597 1.9856 0
M  V30 201 C 23.7405 -1.05812 1.63795 0
M  V30 202 O 23.0105 -1.73103 0.917171 0
M  V30 203 H 21.5905 0.136261 0.734467 0
M  V30 204 H 24.2525 1.02442 1.65806 0
M  V30 205 H 23.3485 0.477002 3.08433 0
M  V30 206 N 23.6496 -1.47581 0.552962 0
M  V30 207 C 24.5796 -2.32762 -0.185451 0
M  V30 208 C 25.5606 -1.43527 -0.912905 0
M  V30 209 O 26.7456 -1.72388 -0.894201 0
M  V30 210 C 23.8756 -3.25219 -1.21859 0
M  V30 211 C 22.8296 -4.23661 -0.607864 0
M  V30 212 C 22.1556 -5.05413 -1.74533 0
M  V30 213 C 23.4556 -5.20481 0.435582 0
M  V30 214 H 25.1496 -2.94749 0.525684 0
M  V30 215 H 22.6956 -1.41738 0.254251 0
M  V30 216 H 24.6486 -3.8365 -1.7433 0
M  V30 217 H 23.3726 -2.61279 -1.95961 0
M  V30 218 H 22.0316 -3.66451 -0.104489 0
M  V30 219 H 21.6796 -4.3788 -2.47529 0
M  V30 220 H 21.3796 -5.72059 -1.34249 0
M  V30 221 H 22.9036 -5.66701 -2.27338 0
M  V30 222 H 24.3176 -5.733 -0.00290157 0
M  V30 223 H 22.7146 -5.95305 0.757067 0
M  V30 224 H 23.7846 -4.66217 1.33303 0
M  V30 225 N 25.1277 -0.289203 -1.54924 0
M  V30 226 C 26.3757 0.322879 -1.99504 0
M  V30 227 C 26.6967 1.55313 -1.1791 0
M  V30 228 O 25.9667 1.94001 -0.272097 0
M  V30 229 H 24.5467 0.122291 -0.736922 0
M  V30 230 H 27.2087 -0.397802 -1.90797 0
M  V30 231 H 26.3047 0.603061 -3.06218 0
M  V30 232 N 26.6058 1.57591 -0.0167156 0
M  V30 233 C 27.5688 2.08393 0.954204 0
M  V30 234 C 28.5688 0.996531 1.26198 0
M  V30 235 O 29.7588 1.25858 1.20438 0
M  V30 236 C 26.8908 2.5394 2.27436 0
M  V30 237 H 28.0838 2.95455 0.514451 0
M  V30 238 H 25.6368 1.54582 0.231089 0
M  V30 239 H 26.3718 1.70171 2.76066 0
M  V30 240 H 26.1568 3.33371 2.06412 0
M  V30 241 H 27.6468 2.93512 2.97053 0
M  V30 242 N 28.0839 -0.256276 1.55502 0
M  V30 243 C 29.4949 -0.826068 1.67431 0
M  V30 244 C 29.8459 -1.86396 0.612446 0
M  V30 245 O 28.9709 -2.15031 -0.243025 0
M  V30 246 C 29.5659 -1.50512 3.03532 0
M  V30 247 C 28.1249 -2.02273 3.17431 0
M  V30 248 C 27.2719 -0.870548 2.63281 0
M  V30 249 H 30.2229 -0.0322728 1.58667 0
M  V30 250 H 30.2439 -2.37279 2.97454 0
M  V30 251 H 29.7559 -0.749484 3.80794 0
M  V30 252 H 27.8569 -2.80746 2.44974 0
M  V30 253 H 27.9699 -2.22655 4.24219 0
M  V30 254 H 26.3339 -1.26851 2.20864 0
M  V30 255 H 27.1169 -0.128149 3.43061 0
M  V30 256 N 29.562 -1.4872 -0.521534 0
M  V30 257 C 30.81 -1.56857 -1.27437 0
M  V30 258 C 31.131 -0.247982 -1.93417 0
M  V30 259 O 30.401 0.731151 -1.81744 0
M  V30 260 H 28.981 -0.577885 -0.473347 0
M  V30 261 H 31.643 -1.85233 -0.606205 0
M  V30 262 H 30.739 -2.35402 -2.0492 0
M  V30 263 N 31.0401 0.771051 -1.3745 0
M  V30 264 C 32.2651 1.56529 -1.36065 0
M  V30 265 C 32.6901 1.88029 0.0515859 0
M  V30 266 O 32.0481 1.49282 1.02882 0
M  V30 267 C 32.0961 2.85187 -2.20683 0
M  V30 268 O 31.2001 3.79593 -1.61193 0
M  V30 269 H 30.5411 0.47411 -0.464883 0
M  V30 270 H 33.0711 0.954269 -1.80983 0
M  V30 271 H 33.0811 3.34283 -2.33921 0
M  V30 272 H 31.7561 2.61588 -3.23334 0
M  V30 273 H 30.3331 3.38239 -1.56999 0
M  V30 274 N 32.5182 1.22032 0.997298 0
M  V30 275 C 33.9292 1.0397 1.55071 0
M  V30 276 C 34.2802 -0.398192 1.92117 0
M  V30 277 O 33.4052 -1.28254 1.74298 0
M  V30 278 C 34.0002 1.88109 2.81781 0
M  V30 279 C 32.5592 1.74357 3.33581 0
M  V30 280 C 31.7062 1.84846 2.06706 0
M  V30 281 H 34.6572 1.35941 0.818883 0
M  V30 282 H 34.6782 1.39589 3.53971 0
M  V30 283 H 34.1902 2.92754 2.54787 0
M  V30 284 H 32.2912 0.72427 3.65493 0
M  V30 285 H 32.4042 2.56772 4.04481 0
M  V30 286 H 30.7682 1.28238 2.20062 0
M  V30 287 H 31.5512 2.91014 1.82114 0
M  V30 288 N 33.9963 -1.19345 1.0293 0
M  V30 289 C 35.4123 -1.41069 0.746446 0
M  V30 290 C 35.6123 -1.90078 -0.668776 0
M  V30 291 O 34.6683 -2.0778 -1.4347 0
M  V30 292 C 35.9813 -2.42141 1.78292 0
M  V30 293 C 37.5293 -2.55887 1.80252 0
M  V30 294 C 38.0043 -3.60214 2.8286 0
M  V30 295 N 39.4953 -3.67711 2.81679 0
M  V30 296 C 40.2303 -4.48128 3.57727 0
M  V30 297 N 39.7263 -5.32248 4.43491 0
M  V30 298 N 41.5193 -4.42782 3.46267 0
M  V30 299 H 33.6703 -0.858536 1.94275 0
M  V30 300 H 35.9333 -0.439541 0.839945 0
M  V30 301 H 35.6393 -2.13155 2.79746 0
M  V30 302 H 35.5133 -3.41323 1.60557 0
M  V30 303 H 37.9003 -2.84196 0.794757 0
M  V30 304 H 37.9813 -1.56858 2.02062 0
M  V30 305 H 37.6253 -3.32647 3.83807 0
M  V30 306 H 37.5553 -4.58895 2.58307 0
M  V30 307 H 40.0463 -3.07634 2.19476 0
M  V30 308 H 40.3593 -5.90729 4.98256 0
M  V30 309 H 38.7043 -5.31707 4.47564 0
M  V30 310 H 41.8953 -3.76107 2.78677 0
M  V30 311 H 42.0683 -5.05215 4.05785 0
M  V30 312 N 35.4744 -0.807222 -1.35358 0
M  V30 313 C 36.3844 -0.219594 -2.3357 0
M  V30 314 C 37.4004 0.637734 -1.61892 0
M  V30 315 O 38.5764 0.549336 -1.93763 0
M  V30 316 C 35.6414 0.62158 -3.41083 0
M  V30 317 C 34.7024 -0.256315 -4.28534 0
M  V30 318 C 33.9354 0.544807 -5.30912 0
M  V30 319 O 34.1584 1.77944 -5.41934 0
M  V30 320 O 33.0924 -0.0646478 -6.01865 0
M  V30 321 H 36.9184 -1.03208 -2.85625 0
M  V30 322 H 34.5034 -0.569025 -1.38139 0
M  V30 323 H 36.3854 1.10067 -4.06772 0
M  V30 324 H 35.0604 1.41165 -2.91297 0
M  V30 325 H 33.9674 -0.782559 -3.65823 0
M  V30 326 H 35.3004 -1.01034 -4.81719 0
M  V30 327 N 36.9525 1.47285 -0.560781 0
M  V30 328 C 37.9155 2.28535 0.174488 0
M  V30 329 C 38.9155 1.37153 0.839388 0
M  V30 330 O 40.1055 1.59748 0.694702 0
M  V30 331 C 37.2375 3.16934 1.25561 0
M  V30 332 H 38.4305 2.95012 -0.539262 0
M  V30 333 H 35.9835 1.53034 -0.317865 0
M  V30 334 H 36.7185 2.55157 2.00164 0
M  V30 335 H 36.5035 3.8419 0.783604 0
M  V30 336 H 37.9935 3.78143 1.77193 0
M  V30 337 N 38.4306 0.297415 1.54768 0
M  V30 338 C 39.6766 -0.313376 2.00364 0
M  V30 339 C 40.0096 -1.53815 1.18553 0
M  V30 340 O 39.2846 -1.92739 0.261103 0
M  V30 341 C 39.5676 -0.673525 3.53745 0
M  V30 342 C 39.4206 0.560133 4.46299 0
M  V30 343 C 40.7396 -1.50143 4.13697 0
M  V30 344 H 37.8586 -0.112428 0.728374 0
M  V30 345 H 40.5006 0.4088 1.8555 0
M  V30 346 H 38.6506 -1.28881 3.665 0
M  V30 347 H 40.3226 1.19863 4.45455 0
M  V30 348 H 38.5656 1.19405 4.17043 0
M  V30 349 H 39.2366 0.26405 5.51368 0
M  V30 350 H 41.7126 -0.981588 4.04356 0
M  V30 351 H 40.5886 -1.72221 5.21182 0
M  V30 352 H 40.8496 -2.48952 3.65343 0
M  V30 353 N 39.9087 -1.5758 0.0250728 0
M  V30 354 C 40.8717 -2.08896 -0.943139 0
M  V30 355 C 41.8717 -1.00321 -1.25668 0
M  V30 356 O 43.0617 -1.26495 -1.19769 0
M  V30 357 C 40.1937 -2.55143 -2.26086 0
M  V30 358 H 41.3867 -2.95723 -0.498775 0
M  V30 359 H 38.9397 -1.54703 -0.222888 0
M  V30 360 H 39.6747 -1.71633 -2.75159 0
M  V30 361 H 39.4597 -3.34461 -2.04641 0
M  V30 362 H 40.9497 -2.95083 -2.95492 0
M  V30 363 N 41.3868 0.248026 -1.55636 0
M  V30 364 C 42.6348 0.974295 -1.77065 0
M  V30 365 C 42.9558 1.85897 -0.588849 0
M  V30 366 O 42.2258 1.91868 0.395407 0
M  V30 367 H 40.8058 0.362733 -0.653019 0
M  V30 368 H 43.4678 0.266244 -1.93073 0
M  V30 369 H 42.5638 1.59667 -2.68166 0
M  V30 370 N 42.8649 1.48995 0.513639 0
M  V30 371 C 43.8279 1.64229 1.59879 0
M  V30 372 C 44.8279 0.514696 1.5234 0
M  V30 373 O 46.0179 0.78087 1.55718 0
M  V30 374 C 43.1499 1.62783 2.99524 0
M  V30 375 H 44.3429 2.61004 1.47705 0
M  V30 376 H 41.8959 1.37837 0.736936 0
M  V30 377 H 42.6309 0.675461 3.17188 0
M  V30 378 H 42.4159 2.4466 3.06404 0
M  V30 379 H 43.9059 1.76669 3.78388 0
M  V30 380 N 44.343 -0.763751 1.37857 0
M  V30 381 C 45.571 -1.55293 1.36718 0
M  V30 382 C 45.986 -1.88745 -0.0455434 0
M  V30 383 O 45.343 -1.52039 -1.00947 0
M  V30 384 C 45.394 -2.85831 2.2132 0
M  V30 385 O 45.115 -2.5381 3.57089 0
M  V30 386 C 46.616 -3.80023 2.28249 0
M  V30 387 H 43.836 -0.480841 0.468009 0
M  V30 388 H 46.38 -0.946009 1.81303 0
M  V30 389 H 44.535 -3.42926 1.80223 0
M  V30 390 H 44.949 -3.37459 4.01524 0
M  V30 391 H 46.423 -4.68599 2.91752 0
M  V30 392 H 46.9 -4.1973 1.2932 0
M  V30 393 H 47.506 -3.28855 2.69693 0
M  V30 394 N 45.8211 -1.22559 -0.990812 0
M  V30 395 C 46.7841 -0.998863 -2.0629 0
M  V30 396 C 47.7841 0.0354834 -1.60761 0
M  V30 397 O 48.9741 -0.203231 -1.7301 0
M  V30 398 C 46.1061 -0.509203 -3.37076 0
M  V30 399 H 47.2991 -1.95014 -2.27837 0
M  V30 400 H 44.8521 -1.04456 -1.16269 0
M  V30 401 H 45.5871 0.446335 -3.21214 0
M  V30 402 H 45.3721 -1.25547 -3.71457 0
M  V30 403 H 46.8621 -0.370888 -4.1595 0
M  V30 404 N 47.2992 1.18797 -1.03562 0
M  V30 405 C 48.2622 2.20464 -0.626769 0
M  V30 406 C 49.2622 1.57721 0.313173 0
M  V30 407 O 50.4522 1.73917 0.0992615 0
M  V30 408 C 47.5842 3.40802 0.0818498 0
M  V30 409 H 48.7772 2.58149 -1.5264 0
M  V30 410 H 46.3302 1.32593 -0.827578 0
M  V30 411 H 47.0652 3.08642 0.995518 0
M  V30 412 H 46.8502 3.8758 -0.593652 0
M  V30 413 H 48.3402 4.16092 0.354584 0
M  V30 414 N 48.7773 0.814389 1.34928 0
M  V30 415 C 49.7073 0.244827 2.32213 0
M  V30 416 C 50.6883 -0.634024 1.57842 0
M  V30 417 O 51.8733 -0.562676 1.8587 0
M  V30 418 C 49.0033 -0.601106 3.42058 0
M  V30 419 C 47.9573 0.179896 4.27622 0
M  V30 420 C 47.2833 -0.788237 5.28858 0
M  V30 421 C 48.5833 1.38329 5.03649 0
M  V30 422 H 50.2773 1.05763 2.80097 0
M  V30 423 H 47.8233 0.510029 1.34665 0
M  V30 424 H 49.7763 -1.00968 4.09125 0
M  V30 425 H 48.5003 -1.44688 2.92802 0
M  V30 426 H 47.1593 0.569739 3.62146 0
M  V30 427 H 46.8073 -1.62973 4.75866 0
M  V30 428 H 46.5073 -0.269942 5.8698 0
M  V30 429 H 48.0313 -1.19485 5.98795 0
M  V30 430 H 49.4453 1.04918 5.63618 0
M  V30 431 H 47.8423 1.83662 5.71304 0
M  V30 432 H 48.9123 2.16592 4.33839 0
M  V30 433 N 50.2554 -1.46986 0.568584 0
M  V30 434 C 51.1654 -2.33942 -0.17555 0
M  V30 435 C 52.1814 -1.48891 -0.90041 0
M  V30 436 O 53.3574 -1.81794 -0.86676 0
M  V30 437 C 50.4224 -3.25811 -1.18524 0
M  V30 438 C 49.4834 -4.26757 -0.466582 0
M  V30 439 C 48.7164 -5.14236 -1.42817 0
M  V30 440 O 48.9394 -5.04379 -2.66379 0
M  V30 441 O 47.8734 -5.94412 -0.946453 0
M  V30 442 H 51.6994 -2.98896 0.538036 0
M  V30 443 H 49.2844 -1.4573 0.329097 0
M  V30 444 H 51.1664 -3.82527 -1.76779 0
M  V30 445 H 49.8414 -2.63471 -1.88055 0
M  V30 446 H 48.7484 -3.73769 0.157451 0
M  V30 447 H 50.0814 -4.91843 0.187485 0
M  V30 448 N 51.7335 -0.305618 -1.54608 0
M  V30 449 C 53.1445 0.186098 -1.8577 0
M  V30 450 C 53.4955 1.53058 -1.22751 0
M  V30 451 O 52.6205 2.09888 -0.526893 0
M  V30 452 C 53.2155 0.344449 -3.37044 0
M  V30 453 C 51.7745 0.780384 -3.68221 0
M  V30 454 C 50.9215 -0.108554 -2.77087 0
M  V30 455 H 53.8725 -0.526485 -1.49712 0
M  V30 456 H 53.8935 1.17828 -3.61796 0
M  V30 457 H 53.4055 -0.634235 -3.82883 0
M  V30 458 H 51.5065 1.76945 -3.27904 0
M  V30 459 H 51.6195 0.596572 -4.75371 0
M  V30 460 H 49.9835 0.412931 -2.5133 0
M  V30 461 H 50.7665 -1.08368 -3.25747 0
M  V30 462 N 53.2116 1.57565 -0.0334293 0
M  V30 463 C 54.6276 1.56297 0.322997 0
M  V30 464 C 54.8276 1.03945 1.7262 0
M  V30 465 O 53.8836 0.688109 2.42943 0
M  V30 466 C 55.1966 3.00232 0.167664 0
M  V30 467 C 56.7446 3.12078 0.240107 0
M  V30 468 C 57.2196 4.57859 0.113513 0
M  V30 469 N 58.7106 4.62887 0.170359 0
M  V30 470 C 59.4456 5.73319 0.0962517 0
M  V30 471 N 58.9416 6.92794 -0.0291881 0
M  V30 472 N 60.7346 5.61898 0.150551 0
M  V30 473 H 52.8856 1.89923 -0.950956 0
M  V30 474 H 55.1486 0.873824 -0.367608 0
M  V30 475 H 54.8546 3.42501 -0.799102 0
M  V30 476 H 54.7286 3.654 0.936083 0
M  V30 477 H 57.1156 2.69718 1.19733 0
M  V30 478 H 57.1966 2.49623 -0.558763 0
M  V30 479 H 56.8406 5.009 -0.840314 0
M  V30 480 H 56.7706 5.18299 0.931302 0
M  V30 481 H 59.2616 3.76954 0.26728 0
M  V30 482 H 59.5746 7.7276 -0.0789252 0
M  V30 483 H 57.9196 6.94971 -0.0640299 0
M  V30 484 H 61.1106 4.67448 0.246981 0
M  V30 485 H 61.2836 6.47938 0.0893365 0
M  V30 486 N 54.6897 -0.239769 1.55765 0
M  V30 487 C 55.6367 -1.29696 1.90913 0
M  V30 488 C 56.6067 -1.47478 0.764164 0
M  V30 489 O 57.7917 -1.61345 1.01845 0
M  V30 490 C 54.9317 -2.64598 2.21544 0
M  V30 491 C 54.0447 -2.54765 3.48882 0
M  V30 492 C 53.1797 -3.82069 3.69049 0
M  V30 493 C 52.2187 -3.66883 4.89963 0
M  V30 494 N 51.3557 -4.86094 5.06614 0
M  V30 495 H 56.1957 -0.990224 2.81067 0
M  V30 496 H 53.7327 -0.477684 1.39128 0
M  V30 497 H 55.6907 -3.43132 2.3731 0
M  V30 498 H 54.3207 -2.93405 1.34585 0
M  V30 499 H 53.3727 -1.67763 3.41409 0
M  V30 500 H 54.6847 -2.39457 4.37563 0
M  V30 501 H 53.8387 -4.69046 3.84812 0
M  V30 502 H 52.5777 -4.00282 2.78614 0
M  V30 503 H 51.5827 -2.78289 4.74168 0
M  V30 504 H 52.8077 -3.50157 5.81865 0
M  V30 505 H 50.7537 -5.04655 4.19117 0
M  V30 506 H 50.6707 -4.73443 5.89396 0
M  V30 507 H 51.9387 -5.74549 5.26795 0
M  V30 508 N 56.1678 -1.49265 -0.50573 0
M  V30 509 C 57.5788 -1.51769 -1.08734 0
M  V30 510 C 57.9298 -0.301192 -1.93874 0
M  V30 511 O 57.0548 0.589456 -2.08217 0
M  V30 512 C 57.6498 -2.75017 -1.97867 0
M  V30 513 C 56.2088 -2.80314 -2.51199 0
M  V30 514 C 55.3558 -2.4562 -1.28709 0
M  V30 515 H 58.3068 -1.56031 -0.289855 0
M  V30 516 H 58.3278 -2.5491 -2.82491 0
M  V30 517 H 57.8398 -3.63539 -1.35873 0
M  V30 518 H 55.9408 -1.96061 -3.16845 0
M  V30 519 H 56.0538 -3.82366 -2.88675 0
M  V30 520 H 54.4178 -1.97297 -1.61078 0
M  V30 521 H 55.2008 -3.36411 -0.6843 0
M  V30 522 N 57.6459 0.756429 -1.3826 0
M  V30 523 C 58.5959 1.86069 -1.31766 0
M  V30 524 C 59.5799 1.59621 -0.202483 0
M  V30 525 O 60.7719 1.7149 -0.438211 0
M  V30 526 C 57.9009 3.23742 -1.1422 0
M  V30 527 C 56.9869 3.56091 -2.30348 0
M  V30 528 N 57.3779 3.59517 -3.55783 0
M  V30 529 C 55.6759 3.86341 -2.22838 0
M  V30 530 C 56.3769 3.89052 -4.32451 0
M  V30 531 N 55.3529 4.05736 -3.61772 0
M  V30 532 H 59.1549 1.86992 -2.26741 0
M  V30 533 H 56.6689 0.953643 -1.31451 0
M  V30 534 H 58.6659 4.02761 -1.07652 0
M  V30 535 H 57.3259 3.24073 -0.201763 0
M  V30 536 H 58.3369 3.41347 -3.89491 0
M  V30 537 H 55.0139 3.94404 -1.36937 0
M  V30 538 H 56.4039 3.98349 -5.4108 0
M  V30 539 N 59.124 1.23083 0.984299 0
M  V30 540 C 60.372 1.05848 1.72165 0
M  V30 541 C 60.693 -0.406049 1.90726 0
M  V30 542 O 59.963 -1.29139 1.47309 0
M  V30 543 H 58.543 0.388685 0.637913 0
M  V30 544 H 61.205 1.54736 1.18503 0
M  V30 545 H 60.301 1.54327 2.71274 0
M  V30 546 N 60.6021 -1.18246 1.0419 0
M  V30 547 C 61.8481 -1.88536 0.747122 0
M  V30 548 C 62.1811 -1.80223 -0.723409 0
M  V30 549 O 61.4561 -1.20337 -1.52804 0
M  V30 550 C 61.7391 -3.38968 1.21544 0
M  V30 551 C 61.5921 -3.56084 2.74816 0
M  V30 552 C 62.9111 -4.32648 0.806482 0
M  V30 553 H 60.0301 -0.684619 0.272883 0
M  V30 554 H 62.6721 -1.39113 1.29413 0
M  V30 555 H 60.8221 -3.8119 0.750081 0
M  V30 556 H 62.4941 -3.22946 3.29399 0
M  V30 557 H 60.7371 -2.98699 3.14582 0
M  V30 558 H 61.4081 -4.61639 3.02644 0
M  V30 559 H 63.8841 -3.98211 1.20695 0
M  V30 560 H 62.7601 -5.36462 1.1619 0
M  V30 561 H 63.0211 -4.41146 -0.29029 0
M  V30 562 N 62.0802 -0.821533 -1.34494 0
M  V30 563 C 63.0272 -0.240397 -2.29545 0
M  V30 564 C 63.9972 0.634031 -1.53523 0
M  V30 565 O 65.1822 0.575966 -1.81899 0
M  V30 566 C 62.3222 0.592869 -3.39969 0
M  V30 567 C 61.4352 -0.30365 -4.30932 0
M  V30 568 C 60.5702 0.539049 -5.28458 0
M  V30 569 C 59.6092 -0.356942 -6.11058 0
M  V30 570 N 58.7462 0.446603 -7.00678 0
M  V30 571 H 63.5862 -1.05632 -2.7865 0
M  V30 572 H 61.1232 -0.532413 -1.37127 0
M  V30 573 H 63.0812 1.09129 -4.02675 0
M  V30 574 H 61.7112 1.37392 -2.92102 0
M  V30 575 H 60.7632 -0.920276 -3.691 0
M  V30 576 H 62.0752 -0.992661 -4.88823 0
M  V30 577 H 61.2292 1.102 -5.96608 0
M  V30 578 H 59.9682 1.26157 -4.71101 0
M  V30 579 H 58.9732 -0.932047 -5.41842 0
M  V30 580 H 60.1982 -1.07755 -6.70497 0
M  V30 581 H 58.1442 1.15282 -6.45791 0
M  V30 582 H 58.0612 -0.184048 -7.55776 0
M  V30 583 H 59.3292 0.992352 -7.73158 0
M  V30 584 N 63.5583 1.46682 -0.576371 0
M  V30 585 C 64.9743 1.57822 -0.237562 0
M  V30 586 C 65.1743 1.57237 1.26011 0
M  V30 587 O 64.2303 1.48596 2.04146 0
M  V30 588 C 65.5433 2.87499 -0.881168 0
M  V30 589 C 67.0913 3.01119 -0.85417 0
M  V30 590 C 67.5663 4.33524 -1.4772 0
M  V30 591 N 69.0573 4.40207 -1.44125 0
M  V30 592 C 69.7923 5.4126 -1.89276 0
M  V30 593 N 69.2883 6.49021 -2.42371 0
M  V30 594 N 71.0813 5.32422 -1.80231 0
M  V30 595 H 63.2323 1.45306 -1.54919 0
M  V30 596 H 65.4953 0.692733 -0.647167 0
M  V30 597 H 65.2013 2.9372 -1.93447 0
M  V30 598 H 65.0753 3.75224 -0.385592 0
M  V30 599 H 67.4623 2.94485 0.190491 0
M  V30 600 H 67.5433 2.14887 -1.3877 0
M  V30 601 H 67.1873 4.40916 -2.52103 0
M  V30 602 H 67.1173 5.1852 -0.918947 0
M  V30 603 H 69.6083 3.62931 -1.05307 0
M  V30 604 H 69.9213 7.2233 -2.74698 0
M  V30 605 H 68.2663 6.49858 -2.46393 0
M  V30 606 H 71.4573 4.47137 -1.38514 0
M  V30 607 H 71.6303 6.11034 -2.15735 0
M  V30 608 N 65.0364 0.313813 1.54444 0
M  V30 609 C 65.9864 -0.571898 2.20711 0
M  V30 610 C 66.9704 -1.08913 1.18435 0
M  V30 611 O 68.1624 -1.02777 1.44104 0
M  V30 612 C 65.2914 -1.7371 2.96108 0
M  V30 613 C 64.3774 -1.23522 4.05713 0
M  V30 614 N 64.7684 -0.452288 5.03774 0
M  V30 615 C 63.0664 -1.51482 4.19487 0
M  V30 616 C 63.7674 -0.183438 5.81411 0
M  V30 617 N 62.7434 -0.766845 5.38164 0
M  V30 618 H 66.5454 0.0336802 2.93881 0
M  V30 619 H 64.0594 0.119192 1.61962 0
M  V30 620 H 66.0564 -2.38329 3.4206 0
M  V30 621 H 64.7164 -2.34625 2.24458 0
M  V30 622 H 65.7274 -0.0960131 5.17811 0
M  V30 623 H 62.4044 -2.13053 3.59047 0
M  V30 624 H 63.7944 0.446216 6.70417 0
M  V30 625 N 66.5145 -1.57545 0.0417849 0
M  V30 626 C 67.4645 -2.07483 -0.945247 0
M  V30 627 C 68.4485 -0.977983 -1.27767 0
M  V30 628 O 69.6405 -1.24142 -1.26166 0
M  V30 629 C 66.7695 -2.61576 -2.22335 0
M  V30 630 C 65.8555 -3.78213 -1.91874 0
M  V30 631 N 66.2465 -4.88344 -1.31733 0
M  V30 632 C 64.5445 -3.8694 -2.21796 0
M  V30 633 C 65.2455 -5.69462 -1.1869 0
M  V30 634 N 64.2215 -5.16771 -1.68666 0
M  V30 635 H 68.0235 -2.90029 -0.475441 0
M  V30 636 H 65.5375 -1.61581 -0.162911 0
M  V30 637 H 67.5345 -2.95651 -2.93932 0
M  V30 638 H 66.1945 -1.80465 -2.69931 0
M  V30 639 H 67.2055 -5.08335 -0.990729 0
M  V30 640 H 63.8825 -3.16757 -2.71977 0
M  V30 641 H 65.2725 -6.68023 -0.720793 0
M  V30 642 N 67.9926 0.231505 -1.5589 0
M  V30 643 C 68.9426 1.29007 -1.87993 0
M  V30 644 C 69.9266 1.42764 -0.742102 0
M  V30 645 O 71.1186 1.45747 -1.00433 0
M  V30 646 C 68.2476 2.6425 -2.1915 0
M  V30 647 C 67.3336 2.54435 -3.39299 0
M  V30 648 N 67.7246 2.14262 -4.58176 0
M  V30 649 C 66.0226 2.85416 -3.42715 0
M  V30 650 C 66.7236 2.15455 -5.40328 0
M  V30 651 N 65.6996 2.55558 -4.79783 0
M  V30 652 H 69.5016 0.970213 -2.77424 0
M  V30 653 H 67.0156 0.440097 -1.56323 0
M  V30 654 H 69.0126 3.40665 -2.40319 0
M  V30 655 H 67.6726 2.9709 -1.31025 0
M  V30 656 H 68.6836 1.85554 -4.83518 0
M  V30 657 H 65.3606 3.22693 -2.64906 0
M  V30 658 H 66.7506 1.86605 -6.45467 0
M  V30 659 N 69.4707 1.49531 0.497807 0
M  V30 660 C 70.4177 1.66436 1.59899 0
M  V30 661 C 71.3877 0.505793 1.58212 0
M  V30 662 O 72.5727 0.733202 1.7615 0
M  V30 663 C 69.7127 1.7399 2.98029 0
M  V30 664 C 68.8257 3.01172 3.09708 0
M  V30 665 C 67.9607 2.99686 4.38591 0
M  V30 666 C 66.9997 4.21434 4.43914 0
M  V30 667 N 66.1367 4.1784 5.64229 0
M  V30 668 H 70.9767 2.60459 1.44793 0
M  V30 669 H 68.5137 1.29137 0.704423 0
M  V30 670 H 70.4717 1.76352 3.78095 0
M  V30 671 H 69.1017 0.834301 3.11832 0
M  V30 672 H 68.1537 3.08408 2.22685 0
M  V30 673 H 69.4657 3.91165 3.09502 0
M  V30 674 H 68.6197 3.00628 5.2698 0
M  V30 675 H 67.3587 2.07477 4.41367 0
M  V30 676 H 66.3637 4.20733 3.53926 0
M  V30 677 H 67.5887 5.14839 4.42851 0
M  V30 678 H 65.5347 3.28469 5.67841 0
M  V30 679 H 65.4517 5.01571 5.65652 0
M  V30 680 H 66.7197 4.22889 6.54817 0
M  V30 681 N 70.9488 -0.749086 1.3866 0
M  V30 682 C 71.8988 -1.85368 1.32751 0
M  V30 683 C 72.8828 -1.59511 0.210945 0
M  V30 684 O 74.0748 -1.71255 0.447299 0
M  V30 685 C 71.2038 -3.23131 1.15935 0
M  V30 686 C 70.2898 -3.54864 2.32233 0
M  V30 687 N 70.6808 -3.57625 3.57684 0
M  V30 688 C 68.9788 -3.85154 2.24883 0
M  V30 689 C 69.6798 -3.86753 4.34508 0
M  V30 690 N 68.6558 -4.03812 3.63918 0
M  V30 691 H 72.4578 -1.85787 2.27729 0
M  V30 692 H 69.9718 -0.946658 1.31955 0
M  V30 693 H 71.9688 -4.02185 1.09786 0
M  V30 694 H 70.6288 -3.23961 0.218947 0
M  V30 695 H 71.6398 -3.39276 3.91295 0
M  V30 696 H 68.3168 -3.93672 1.39027 0
M  V30 697 H 69.7068 -3.95474 5.43185 0
M  V30 698 N 72.4269 -1.23603 -0.977757 0
M  V30 699 C 73.3749 -1.01704 -2.09187 0
M  V30 700 C 74.3689 0.0448214 -1.69341 0
M  V30 701 O 75.5749 -0.108902 -1.7967 0
M  V30 702 H 71.9499 -0.311803 -0.684312 0
M  V30 703 H 73.9209 -1.96207 -2.24823 0
M  V30 704 C 72.6699 -0.627746 -3.41986 0
M  V30 705 H 71.9929 -1.43656 -3.73099 0
M  V30 706 H 73.4329 -0.514053 -4.20872 0
M  V30 707 C 71.8919 0.664238 -3.30287 0
M  V30 708 O 72.4219 1.71268 -3.6336 0
M  V30 709 N 70.6279 0.641156 -2.83439 0
M  V30 710 H 70.1749 -0.212376 -2.56723 0
M  V30 711 H 70.1329 1.50583 -2.75993 0
M  V30 712 N 73.905 1.17692 -1.04816 0
M  V30 713 C 74.835 2.23777 -0.666791 0
M  V30 714 C 75.816 1.66796 0.33361 0
M  V30 715 O 77.001 1.93039 0.212042 0
M  V30 716 C 74.131 3.47281 -0.0367933 0
M  V30 717 C 73.085 4.17059 -0.961546 0
M  V30 718 C 72.411 5.34342 -0.195626 0
M  V30 719 C 73.711 4.69713 -2.28402 0
M  V30 720 H 75.405 2.55933 -1.55367 0
M  V30 721 H 72.951 1.23019 -0.748484 0
M  V30 722 H 74.904 4.20706 0.241775 0
M  V30 723 H 73.628 3.14381 0.885004 0
M  V30 724 H 72.287 3.45541 -1.22462 0
M  V30 725 H 71.935 4.97692 0.728816 0
M  V30 726 H 71.635 5.81966 -0.811775 0
M  V30 727 H 73.159 6.10553 0.0757473 0
M  V30 728 H 74.573 5.34794 -2.06563 0
M  V30 729 H 72.97 5.279 -2.8538 0
M  V30 730 H 74.04 3.86726 -2.92525 0
M  V30 731 N 75.3831 0.828654 1.34056 0
M  V30 732 C 76.3301 0.252567 2.29414 0
M  V30 733 C 77.3001 -0.62588 1.53857 0
M  V30 734 O 78.4851 -0.566312 1.82202 0
M  V30 735 C 75.6251 -0.574831 3.40279 0
M  V30 736 C 74.7381 0.326499 4.30764 0
M  V30 737 C 73.8731 -0.511016 5.28736 0
M  V30 738 C 72.9121 0.389342 6.1086 0
M  V30 739 N 72.0491 -0.409439 7.00905 0
M  V30 740 H 76.8891 1.07108 2.78086 0
M  V30 741 H 74.4261 0.539677 1.36843 0
M  V30 742 H 76.3841 -1.06992 4.03248 0
M  V30 743 H 75.0141 -1.35841 2.92826 0
M  V30 744 H 74.0661 0.939837 3.68607 0
M  V30 745 H 75.3781 1.01857 4.88289 0
M  V30 746 H 74.5321 -1.07035 5.97184 0
M  V30 747 H 73.2711 -1.23657 4.71763 0
M  V30 748 H 72.2761 0.960769 5.4134 0
M  V30 749 H 73.5011 1.1131 6.69916 0
M  V30 750 H 71.4471 -1.11856 6.46393 0
M  V30 751 H 71.3641 0.224126 7.55668 0
M  V30 752 H 72.6321 -0.951336 7.73673 0
M  V30 753 N 76.8612 -1.46375 0.584142 0
M  V30 754 C 77.8112 -2.27371 -0.169232 0
M  V30 755 C 78.7952 -1.35955 -0.860523 0
M  V30 756 O 79.9872 -1.60119 -0.754382 0
M  V30 757 C 77.1162 -3.22334 -1.18134 0
M  V30 758 C 76.2022 -4.21235 -0.492088 0
M  V30 759 N 76.5932 -5.03766 0.453129 0
M  V30 760 C 74.8912 -4.39773 -0.742652 0
M  V30 761 C 75.5922 -5.75366 0.85609 0
M  V30 762 N 74.5682 -5.43214 0.204926 0
M  V30 763 H 78.3702 -2.88572 0.557097 0
M  V30 764 H 75.8842 -1.57242 0.406042 0
M  V30 765 H 77.8812 -3.79071 -1.73525 0
M  V30 766 H 76.5412 -2.62693 -1.90847 0
M  V30 767 H 77.5522 -5.11227 0.828723 0
M  V30 768 H 74.2292 -3.91279 -1.45625 0
M  V30 769 H 75.6192 -6.5172 1.63434 0
M  V30 770 N 78.3393 -0.321999 -1.54275 0
M  V30 771 C 79.7553 0.0306999 -1.5957 0
M  V30 772 C 79.9553 1.50614 -1.33857 0
M  V30 773 O 79.0113 2.2619 -1.12223 0
M  V30 774 C 80.3243 -0.386122 -2.98211 0
M  V30 775 C 81.8723 -0.336647 -3.11184 0
M  V30 776 C 82.3473 -0.728607 -4.52167 0
M  V30 777 N 83.8383 -0.681952 -4.58152 0
M  V30 778 C 84.5733 -0.957449 -5.6535 0
M  V30 779 N 84.0693 -1.3 -6.80494 0
M  V30 780 N 85.8623 -0.883113 -5.55119 0
M  V30 781 H 78.0133 -1.28332 -1.69247 0
M  V30 782 H 80.2763 -0.521716 -0.791528 0
M  V30 783 H 79.9823 -1.41404 -3.22022 0
M  V30 784 H 79.8563 0.249662 -3.76373 0
M  V30 785 H 82.2433 0.682058 -2.8711 0
M  V30 786 H 82.3243 -1.00734 -2.3513 0
M  V30 787 H 81.9683 -1.74522 -4.76974 0
M  V30 788 H 81.8983 -0.0356152 -5.26588 0
M  V30 789 H 84.3893 -0.428985 -3.75457 0
M  V30 790 H 84.7023 -1.49563 -7.58189 0
M  V30 791 H 83.0473 -1.33824 -6.81994 0
M  V30 792 H 86.2383 -0.615001 -4.64042 0
M  V30 793 H 86.4113 -1.10118 -6.38575 0
M  V30 794 N 79.8174 1.5752 -0.0501392 0
M  V30 795 C 81.0474 1.96678 0.632573 0
M  V30 796 C 81.4554 0.926298 1.64974 0
M  V30 797 O 80.7984 -0.09802 1.83438 0
M  V30 798 C 80.8604 3.32068 1.37735 0
M  V30 799 C 80.5244 4.54076 0.516131 0
M  V30 800 C 81.5214 5.19445 -0.217357 0
M  V30 801 C 79.2064 5.00304 0.44736 0
M  V30 802 C 81.2004 6.29378 -1.00807 0
M  V30 803 C 78.8874 6.10114 -0.347038 0
M  V30 804 C 79.8854 6.74512 -1.07344 0
M  V30 805 O 79.5734 7.82211 -1.85477 0
M  V30 806 H 79.3054 0.652193 0.177821 0
M  V30 807 H 81.8594 2.05091 -0.112543 0
M  V30 808 H 80.0894 3.20206 2.16807 0
M  V30 809 H 81.7784 3.55981 1.95019 0
M  V30 810 H 82.5444 4.84689 -0.173688 0
M  V30 811 H 78.4234 4.49971 1.00235 0
M  V30 812 H 81.9674 6.79575 -1.57556 0
M  V30 813 H 77.8644 6.44307 -0.392349 0
M  V30 814 H 78.6324 7.98982 -1.77678 0
M  V30 815 N 81.2955 -0.223234 1.56011 0
M  V30 816 C 82.2055 -1.29766 1.95443 0
M  V30 817 C 83.2215 -1.51373 0.858028 0
M  V30 818 O 84.3975 -1.64536 1.16146 0
M  V30 819 C 81.4625 -2.62772 2.26167 0
M  V30 820 C 80.5235 -2.49482 3.49367 0
M  V30 821 C 79.7565 -3.76145 3.78616 0
M  V30 822 O 79.9795 -4.79087 3.09568 0
M  V30 823 O 78.9135 -3.73358 4.72109 0
M  V30 824 H 82.7395 -0.99309 2.87004 0
M  V30 825 H 80.3245 -0.425958 1.43199 0
M  V30 826 H 82.2065 -3.41327 2.47131 0
M  V30 827 H 80.8815 -2.92913 1.37781 0
M  V30 828 H 79.7885 -1.69133 3.33684 0
M  V30 829 H 81.1215 -2.2428 4.38131 0
M  V30 830 N 82.7736 -1.49793 -0.48987 0
M  V30 831 C 83.7036 -1.70201 -1.59856 0
M  V30 832 C 84.6846 -0.55076 -1.60937 0
M  V30 833 O 85.8696 -0.787841 -1.77501 0
M  V30 834 C 82.9996 -1.77882 -2.98287 0
M  V30 835 C 81.9536 -2.92907 -3.12073 0
M  V30 836 C 81.2796 -2.85712 -4.51965 0
M  V30 837 C 82.5796 -4.3369 -2.91051 0
M  V30 838 H 84.2736 -2.63025 -1.43032 0
M  V30 839 H 81.8196 -1.26574 -0.686664 0
M  V30 840 H 83.7726 -1.90744 -3.75759 0
M  V30 841 H 82.4966 -0.816653 -3.16225 0
M  V30 842 H 81.1556 -2.79665 -2.37029 0
M  V30 843 H 80.8036 -1.8738 -4.66795 0
M  V30 844 H 80.5036 -3.62921 -4.62128 0
M  V30 845 H 82.0276 -3.00598 -5.31482 0
M  V30 846 H 83.4416 -4.47555 -3.58284 0
M  V30 847 H 81.8386 -5.12205 -3.12675 0
M  V30 848 H 82.9086 -4.47362 -1.87071 0
M  V30 849 N 84.2517 0.741722 -1.39055 0
M  V30 850 C 85.1837 1.8657 -1.33133 0
M  V30 851 C 86.1967 1.61001 -0.241329 0
M  V30 852 O 87.3857 1.7136 -0.499784 0
M  V30 853 C 84.4857 3.22457 -1.04283 0
M  V30 854 C 83.6587 3.75435 -2.24427 0
M  V30 855 C 82.7177 4.89867 -1.92138 0
M  V30 856 O 81.7437 5.03879 -2.64754 0
M  V30 857 N 82.9457 5.73738 -0.88347 0
M  V30 858 H 85.7107 1.92156 -2.29991 0
M  V30 859 H 83.2717 0.922172 -1.3307 0
M  V30 860 H 85.2637 3.9657 -0.807128 0
M  V30 861 H 83.8337 3.12181 -0.161807 0
M  V30 862 H 83.0537 2.92751 -2.6399 0
M  V30 863 H 84.3417 4.07563 -3.04581 0
M  V30 864 H 83.7397 5.64999 -0.281517 0
M  V30 865 H 82.2967 6.47947 -0.707662 0
M  V30 866 N 85.7298 1.2412 0.971189 0
M  V30 867 C 86.6398 1.04747 2.09917 0
M  V30 868 C 87.6558 -0.0107162 1.73997 0
M  V30 869 O 88.8318 0.186714 2.00533 0
M  V30 870 C 85.8968 0.650828 3.40537 0
M  V30 871 C 84.9578 1.7851 3.90426 0
M  V30 872 C 84.1908 1.40729 5.14812 0
M  V30 873 O 84.4138 0.29557 5.69634 0
M  V30 874 O 83.3478 2.23168 5.58999 0
M  V30 875 H 87.1738 1.99304 2.29154 0
M  V30 876 H 84.7588 1.02908 1.08307 0
M  V30 877 H 86.6408 0.440992 4.19086 0
M  V30 878 H 85.3158 -0.265649 3.22608 0
M  V30 879 H 84.2228 2.04966 3.12953 0
M  V30 880 H 85.5558 2.68023 4.12825 0
M  V30 881 N 87.2079 -1.17134 1.05439 0
M  V30 882 C 88.4359 -1.91372 0.786414 0
M  V30 883 C 88.8509 -1.76955 -0.658202 0
M  V30 884 O 88.2079 -1.10838 -1.44987 0
M  V30 885 C 88.2589 -3.42356 1.1608 0
M  V30 886 O 87.9799 -3.56332 2.54871 0
M  V30 887 C 89.4809 -4.33663 0.919322 0
M  V30 888 H 86.7009 -0.607118 0.285743 0
M  V30 889 H 89.2449 -1.48525 1.40572 0
M  V30 890 H 87.3999 -3.82939 0.586191 0
M  V30 891 H 87.8139 -4.49896 2.69618 0
M  V30 892 H 89.2879 -5.38099 1.231 0
M  V30 893 H 89.7649 -4.38959 -0.145359 0
M  V30 894 H 90.3709 -3.98796 1.47789 0
M  V30 895 N 88.686 -0.835752 -1.33615 0
M  V30 896 C 89.616 -0.281739 -2.31794 0
M  V30 897 C 90.597 0.608833 -1.58831 0
M  V30 898 O 91.782 0.533035 -1.86741 0
M  V30 899 C 88.912 0.546612 -3.42971 0
M  V30 900 C 87.866 -0.247904 -4.27281 0
M  V30 901 C 87.192 0.704001 -5.30045 0
M  V30 902 C 88.492 -1.46324 -5.01385 0
M  V30 903 H 90.186 -1.10206 -2.78379 0
M  V30 904 H 87.732 -0.531388 -1.33837 0
M  V30 905 H 89.685 0.944467 -4.1068 0
M  V30 906 H 88.409 1.40011 -2.95067 0
M  V30 907 H 87.068 -0.627281 -3.61194 0
M  V30 908 H 86.716 1.55381 -4.78399 0
M  V30 909 H 86.416 0.176524 -5.87335 0
M  V30 910 H 87.94 1.09944 -6.0062 0
M  V30 911 H 89.354 -1.13871 -5.61877 0
M  V30 912 H 87.751 -1.92728 -5.6831 0
M  V30 913 H 88.821 -2.23467 -4.30338 0
M  V30 914 N 90.1641 1.46063 -0.591896 0
M  V30 915 C 91.4121 2.01938 -0.0808391 0
M  V30 916 C 91.7331 1.46475 1.28725 0
M  V30 917 O 91.0031 0.652944 1.84698 0
M  V30 918 H 89.5831 0.746516 -0.0268938 0
M  V30 919 H 92.2451 1.79055 -0.769752 0
M  V30 920 H 91.3411 3.12094 -0.0187578 0
M  V30 921 N 91.6422 0.330177 1.54103 0
M  V30 922 C 92.5892 -0.532762 2.24567 0
M  V30 923 C 93.5592 -1.10635 1.23892 0
M  V30 924 O 94.7442 -1.14546 1.5259 0
M  V30 925 C 91.8842 -1.6845 3.01195 0
M  V30 926 C 90.9972 -1.13951 4.167 0
M  V30 927 C 90.1322 -2.25746 4.80845 0
M  V30 928 C 89.1712 -1.6853 5.88442 0
M  V30 929 N 88.3082 -2.74014 6.46421 0
M  V30 930 H 93.1482 0.0746905 2.97906 0
M  V30 931 H 90.6852 0.048632 1.4702 0
M  V30 932 H 92.6432 -2.36234 3.43874 0
M  V30 933 H 91.2732 -2.26314 2.30178 0
M  V30 934 H 90.3252 -0.35301 3.78758 0
M  V30 935 H 91.6372 -0.680892 4.94131 0
M  V30 936 H 90.7912 -3.01422 5.26526 0
M  V30 937 H 89.5302 -2.74947 4.0281 0
M  V30 938 H 88.5352 -0.913543 5.42157 0
M  V30 939 H 89.7602 -1.20198 6.68378 0
M  V30 940 H 87.7062 -3.22494 5.71256 0
M  V30 941 H 87.6232 -2.32735 7.19285 0
M  V30 942 H 88.8912 -3.49499 6.96757 0
M  V30 943 N 93.1203 -1.57491 0.0584922 0
M  V30 944 C 94.3683 -1.92597 -0.612436 0
M  V30 945 C 94.6893 -0.938162 -1.70949 0
M  V30 946 O 93.9593 0.0158301 -1.95894 0
M  V30 947 H 92.5393 -0.710964 -0.229214 0
M  V30 948 H 95.2013 -1.94571 0.113218 0
M  V30 949 H 94.2973 -2.94038 -1.04633 0
M  V30 950 N 94.5984 0.214957 -1.56127 0
M  V30 951 C 95.8264 0.955092 -1.83536 0
M  V30 952 C 96.2414 1.77677 -0.638472 0
M  V30 953 O 95.5984 1.78219 0.392968 0
M  V30 954 C 95.6494 1.86734 -3.09536 0
M  V30 955 O 95.3704 1.07887 -4.24608 0
M  V30 956 C 96.8714 2.72082 -3.4998 0
M  V30 957 H 94.0914 0.279611 -0.609966 0
M  V30 958 H 96.6354 0.228197 -2.03223 0
M  V30 959 H 94.7904 2.5481 -2.91806 0
M  V30 960 H 95.2044 1.69872 -4.9623 0
M  V30 961 H 96.6784 3.31782 -4.41163 0
M  V30 962 H 97.1554 3.44806 -2.7204 0
M  V30 963 H 97.7614 2.09409 -3.70173 0
M  V30 964 N 96.0765 1.50051 0.48192 0
M  V30 965 C 97.3065 1.63999 1.2565 0
M  V30 966 C 97.7145 0.318288 1.86504 0
M  V30 967 O 97.0575 -0.708534 1.69486 0
M  V30 968 C 97.1195 2.66504 2.4128 0
M  V30 969 C 96.7835 4.10352 2.01148 0
M  V30 970 C 97.7805 4.96562 1.54021 0
M  V30 971 C 95.4655 4.56203 2.10199 0
M  V30 972 C 97.4595 6.26668 1.16473 0
M  V30 973 C 95.1465 5.86318 1.72264 0
M  V30 974 C 96.1445 6.71375 1.25477 0
M  V30 975 O 95.8325 7.99062 0.880626 0
M  V30 976 H 95.5645 0.55456 0.386574 0
M  V30 977 H 98.1185 1.96954 0.582944 0
M  V30 978 H 96.3485 2.28769 3.11772 0
M  V30 979 H 98.0375 2.69783 3.03268 0
M  V30 980 H 98.8035 4.62358 1.46458 0
M  V30 981 H 94.6825 3.90152 2.45566 0
M  V30 982 H 98.2265 6.93011 0.798841 0
M  V30 983 H 94.1235 6.20046 1.79482 0
M  V30 984 H 94.8915 8.12239 1.01043 0
M  V30 985 N 97.5546 -0.734337 1.39446 0
M  V30 986 C 98.8026 -1.49096 1.36436 0
M  V30 987 C 99.1236 -1.94961 -0.0388255 0
M  V30 988 O 98.3936 -1.69033 -0.990191 0
M  V30 989 H 96.9736 -0.5531 0.502085 0
M  V30 990 H 99.6356 -0.871725 1.74319 0
M  V30 991 H 98.7316 -2.37276 2.02747 0
M  V30 992 N 99.0327 -1.24633 -0.964593 0
M  V30 993 C 99.9797 -1.04144 -2.05968 0
M  V30 994 C 100.95 0.046262 -1.66036 0
M  V30 995 O 102.135 -0.108972 -1.90489 0
M  V30 996 C 99.2747 -0.65563 -3.38815 0
M  V30 997 C 98.3877 -1.81714 -3.91923 0
M  V30 998 C 97.5227 -1.37662 -5.13052 0
M  V30 999 C 96.5617 -2.50788 -5.58365 0
M  V30 1000 N 95.6987 -2.07582 -6.70712 0
M  V30 1001 H 100.539 -1.9787 -2.22827 0
M  V30 1002 H 98.0757 -0.9855 -1.09208 0
M  V30 1003 H 100.034 -0.412954 -4.15151 0
M  V30 1004 H 98.6637 0.244627 -3.21872 0
M  V30 1005 H 97.7157 -2.1734 -3.12198 0
M  V30 1006 H 99.0277 -2.66705 -4.21509 0
M  V30 1007 H 98.1817 -1.093 -5.96773 0
M  V30 1008 H 96.9207 -0.497293 -4.85158 0
M  V30 1009 H 95.9257 -2.79906 -4.73215 0
M  V30 1010 H 97.1507 -3.39283 -5.88272 0
M  V30 1011 H 95.0967 -1.22051 -6.44546 0
M  V30 1012 H 95.0137 -2.86125 -6.99763 0
M  V30 1013 H 96.2817 -1.82369 -7.57867 0
M  V30 1014 N 100.511 1.16574 -1.06058 0
M  V30 1015 C 101.757 1.87324 -0.777022 0
M  V30 1016 C 102.09 1.81351 0.694645 0
M  V30 1017 O 101.365 1.22753 1.50871 0
M  V30 1018 C 101.648 3.36991 -1.26922 0
M  V30 1019 C 101.501 3.51667 -2.80447 0
M  V30 1020 C 102.82 4.3131 -0.87521 0
M  V30 1021 H 99.9388 0.680191 -0.28374 0
M  V30 1022 H 102.581 1.37036 -1.3161 0
M  V30 1023 H 100.731 3.79949 -0.81063 0
M  V30 1024 H 102.403 3.17664 -3.34495 0
M  V30 1025 H 100.646 2.93656 -3.19294 0
M  V30 1026 H 101.317 4.56766 -3.0995 0
M  V30 1027 H 103.793 3.9624 -1.27014 0
M  V30 1028 H 102.669 5.34545 -1.2471 0
M  V30 1029 H 102.93 4.41552 0.220071 0
M  V30 1030 N 101.989 0.842826 1.3317 0
M  V30 1031 C 102.936 0.276885 2.29133 0
M  V30 1032 C 103.906 -0.609527 1.54512 0
M  V30 1033 O 105.091 -0.546955 1.82792 0
M  V30 1034 C 102.231 -0.538707 3.40869 0
M  V30 1035 C 101.344 0.372169 4.30394 0
M  V30 1036 C 100.479 -0.454908 5.29249 0
M  V30 1037 C 99.5179 0.45411 6.10413 0
M  V30 1038 N 98.6549 -0.335075 7.013 0
M  V30 1039 H 103.495 1.10052 2.76934 0
M  V30 1040 H 101.032 0.554161 1.36262 0
M  V30 1041 H 102.99 -1.02709 4.0436 0
M  V30 1042 H 101.62 -1.32727 2.9425 0
M  V30 1043 H 100.672 0.97888 3.6759 0
M  V30 1044 H 101.984 1.0703 4.87182 0
M  V30 1045 H 101.138 -1.00695 5.98285 0
M  V30 1046 H 99.8769 -1.18646 4.73048 0
M  V30 1047 H 98.8819 1.01813 5.40291 0
M  V30 1048 H 100.107 1.18409 6.68697 0
M  V30 1049 H 98.0529 -1.04994 6.47543 0
M  V30 1050 H 97.9699 0.304262 7.55387 0
M  V30 1051 H 99.2379 -0.869224 7.74638 0
M  V30 1052 N 103.467 -1.45747 0.599634 0
M  V30 1053 C 104.883 -1.57424 0.26264 0
M  V30 1054 C 105.083 -1.59222 -1.23493 0
M  V30 1055 O 104.139 -1.51825 -2.01756 0
M  V30 1056 C 105.452 -2.86061 0.926795 0
M  V30 1057 C 107 -2.99722 0.901967 0
M  V30 1058 C 107.475 -4.31119 1.54598 0
M  V30 1059 N 108.966 -4.37858 1.5111 0
M  V30 1060 C 109.701 -5.3818 1.97863 0
M  V30 1061 N 109.197 -6.45083 2.52666 0
M  V30 1062 N 110.99 -5.29487 1.88679 0
M  V30 1063 H 103.141 -1.42823 1.57211 0
M  V30 1064 H 105.404 -0.68235 0.658105 0
M  V30 1065 H 105.11 -2.90605 1.98095 0
M  V30 1066 H 104.984 -3.74563 0.445238 0
M  V30 1067 H 107.371 -2.9475 -0.143617 0
M  V30 1068 H 107.452 -2.12652 1.42171 0
M  V30 1069 H 107.096 -4.36849 2.59085 0
M  V30 1070 H 107.026 -5.16992 1.00132 0
M  V30 1071 H 109.517 -3.61209 1.11068 0
M  V30 1072 H 109.83 -7.17869 2.86155 0
M  V30 1073 H 108.175 -6.45856 2.56701 0
M  V30 1074 H 111.366 -4.44877 1.4561 0
M  V30 1075 H 111.539 -6.07524 2.25429 0
M  V30 1076 N 104.945 -0.338344 -1.53925 0
M  V30 1077 C 105.908 0.508299 -2.23493 0
M  V30 1078 C 106.908 1.03175 -1.23335 0
M  V30 1079 O 108.098 0.921826 -1.47811 0
M  V30 1080 C 105.23 1.70754 -2.95052 0
M  V30 1081 H 106.423 -0.100058 -2.99733 0
M  V30 1082 H 103.976 -0.0896198 -1.56043 0
M  V30 1083 H 104.711 2.35474 -2.22986 0
M  V30 1084 H 104.496 1.33946 -3.68512 0
M  V30 1085 H 105.986 2.30818 -3.48013 0
M  V30 1086 N 106.423 1.57458 -0.0668435 0
M  V30 1087 C 107.651 1.97624 0.612565 0
M  V30 1088 C 108.066 0.94502 1.63447 0
M  V30 1089 O 107.423 -0.0689276 1.8237 0
M  V30 1090 C 107.474 3.37869 1.28555 0
M  V30 1091 O 107.195 4.3704 0.304557 0
M  V30 1092 C 108.696 3.92882 2.05325 0
M  V30 1093 H 105.916 0.650045 0.166381 0
M  V30 1094 H 108.46 2.04035 -0.137782 0
M  V30 1095 H 106.615 3.3256 1.98702 0
M  V30 1096 H 107.029 5.18565 0.786779 0
M  V30 1097 H 108.503 4.93247 2.47812 0
M  V30 1098 H 108.98 3.29156 2.9078 0
M  V30 1099 H 109.586 4.01577 1.40056 0
M  V30 1100 N 107.901 -0.206675 1.56239 0
M  V30 1101 C 108.811 -1.27686 1.96808 0
M  V30 1102 C 109.827 -1.50455 0.874035 0
M  V30 1103 O 111.003 -1.63295 1.17884 0
M  V30 1104 C 108.068 -2.60358 2.28942 0
M  V30 1105 C 107.129 -2.45762 3.51994 0
M  V30 1106 C 106.362 -3.72108 3.82585 0
M  V30 1107 O 106.585 -4.75776 3.14631 0
M  V30 1108 O 105.519 -3.6833 4.76043 0
M  V30 1109 H 109.345 -0.962593 2.88041 0
M  V30 1110 H 106.93 -0.410746 1.43643 0
M  V30 1111 H 108.812 -3.38687 2.50737 0
M  V30 1112 H 107.487 -2.91435 1.4088 0
M  V30 1113 H 106.394 -1.65584 3.35459 0
M  V30 1114 H 107.727 -2.19621 4.40486 0
M  V30 1115 N 109.379 -1.50304 -0.473955 0
M  V30 1116 C 110.795 -1.37667 -0.807466 0
M  V30 1117 C 110.995 -0.430555 -1.96846 0
M  V30 1118 O 110.051 0.127874 -2.52176 0
M  V30 1119 C 111.364 -2.78974 -1.12223 0
M  V30 1120 C 112.912 -2.87868 -1.22885 0
M  V30 1121 C 113.387 -4.30003 -1.57676 0
M  V30 1122 N 114.878 -4.3294 -1.64673 0
M  V30 1123 C 115.613 -5.3991 -1.93091 0
M  V30 1124 N 115.109 -6.57092 -2.1955 0
M  V30 1125 N 116.902 -5.27351 -1.94569 0
M  V30 1126 H 109.053 -2.10394 0.291212 0
M  V30 1127 H 111.316 -0.945575 0.0677609 0
M  V30 1128 H 111.022 -3.50031 -0.342229 0
M  V30 1129 H 110.896 -3.16038 -2.05913 0
M  V30 1130 H 113.283 -2.17032 -1.99953 0
M  V30 1131 H 113.364 -2.54352 -0.271814 0
M  V30 1132 H 113.008 -5.01375 -0.81149 0
M  V30 1133 H 112.938 -4.61004 -2.54525 0
M  V30 1134 H 115.429 -3.48441 -1.46277 0
M  V30 1135 H 115.742 -7.34425 -2.405 0
M  V30 1136 H 114.087 -6.60272 -2.16948 0
M  V30 1137 H 117.278 -4.34801 -1.73394 0
M  V30 1138 H 117.451 -6.10805 -2.16381 0
M  V30 1139 N 110.857 0.726932 -1.39834 0
M  V30 1140 C 112.104 1.48664 -1.37496 0
M  V30 1141 C 112.432 1.94482 0.0264678 0
M  V30 1142 O 111.687 1.67692 1.00886 0
M  V30 1143 C 111.986 2.73495 -2.30077 0
M  V30 1144 C 111.652 2.46502 -3.77555 0
M  V30 1145 C 110.314 2.3885 -4.17737 0
M  V30 1146 C 112.666 2.23604 -4.70798 0
M  V30 1147 C 109.994 2.06352 -5.49214 0
M  V30 1148 C 112.346 1.92622 -6.02561 0
M  V30 1149 C 111.01 1.83444 -6.41798 0
M  V30 1150 H 110.28 0.544001 -0.503135 0
M  V30 1151 H 112.927 0.833657 -1.72402 0
M  V30 1152 H 111.232 3.43575 -1.88317 0
M  V30 1153 H 112.929 3.31549 -2.25558 0
M  V30 1154 H 109.519 2.5334 -3.45712 0
M  V30 1155 H 113.703 2.28479 -4.40581 0
M  V30 1156 H 108.959 1.97776 -5.78528 0
M  V30 1157 H 113.133 1.73914 -6.74334 0
M  V30 1158 H 110.76 1.58029 -7.43593 0
M  V30 1159 N 112.336 1.25143 0.95797 0
M  V30 1160 C 113.561 1.12521 1.74223 0
M  V30 1161 C 113.986 -0.317402 1.85403 0
M  V30 1162 O 113.344 -1.2299 1.33204 0
M  V30 1163 C 113.392 1.78062 3.1357 0
M  V30 1164 O 112.496 1.058 3.98598 0
M  V30 1165 H 111.837 0.39304 0.535178 0
M  V30 1166 H 114.367 1.65641 1.201 0
M  V30 1167 H 114.377 1.84213 3.64046 0
M  V30 1168 H 113.052 2.83021 3.04749 0
M  V30 1169 H 111.629 1.07506 3.57067 0
M  V30 1170 N 113.814 -1.1601 1.06675 0
M  V30 1171 C 115.062 -1.86264 0.784229 0
M  V30 1172 C 115.383 -1.82328 -0.691488 0
M  V30 1173 O 114.653 -1.25947 -1.50047 0
M  V30 1174 H 113.233 -0.689621 0.28711 0
M  V30 1175 H 115.895 -1.40664 1.34906 0
M  V30 1176 H 114.991 -2.91595 1.11259 0
M  V30 1177 N 115.292 -0.849877 -1.32721 0
M  V30 1178 C 116.708 -0.539102 -1.50219 0
M  V30 1179 C 116.908 0.931271 -1.78689 0
M  V30 1180 O 115.964 1.71455 -1.85363 0
M  V30 1181 C 117.277 -1.42196 -2.64954 0
M  V30 1182 C 118.825 -1.42189 -2.78839 0
M  V30 1183 C 119.3 -2.28985 -3.96648 0
M  V30 1184 N 120.791 -2.26754 -4.03902 0
M  V30 1185 C 121.526 -2.90644 -4.94281 0
M  V30 1186 N 121.022 -3.63629 -5.897 0
M  V30 1187 N 122.815 -2.80057 -4.87365 0
M  V30 1188 H 114.966 -1.80156 -1.12506 0
M  V30 1189 H 117.229 -0.769217 -0.554085 0
M  V30 1190 H 116.935 -2.46733 -2.50631 0
M  V30 1191 H 116.809 -1.10591 -3.60624 0
M  V30 1192 H 119.196 -0.38419 -2.92588 0
M  V30 1193 H 119.277 -1.77807 -1.83898 0
M  V30 1194 H 118.921 -3.32819 -3.83658 0
M  V30 1195 H 118.851 -1.90702 -4.90857 0
M  V30 1196 H 121.342 -1.73688 -3.3562 0
M  V30 1197 H 121.655 -4.09558 -6.55349 0
M  V30 1198 H 120 -3.67737 -5.89741 0
M  V30 1199 H 123.191 -2.22593 -4.11789 0
M  V30 1200 H 123.364 -3.30132 -5.57599 0
M  V30 1201 N 116.77 1.45427 -0.607355 0
M  V30 1202 C 118.016 2.0254 -0.102607 0
M  V30 1203 C 118.349 1.47478 1.26348 0
M  V30 1204 O 117.624 0.64939 1.83339 0
M  V30 1205 C 117.907 3.60044 -0.0634347 0
M  V30 1206 C 117.76 4.2544 -1.46017 0
M  V30 1207 C 119.079 4.35646 0.624514 0
M  V30 1208 H 116.198 0.73598 -0.0387607 0
M  V30 1209 H 118.84 1.73284 -0.779282 0
M  V30 1210 H 116.99 3.85101 0.512808 0
M  V30 1211 H 118.662 4.11569 -2.08347 0
M  V30 1212 H 116.905 3.83849 -2.02094 0
M  V30 1213 H 117.576 5.34342 -1.385 0
M  V30 1214 H 120.052 4.15882 0.134723 0
M  V30 1215 H 118.928 5.45376 0.621028 0
M  V30 1216 H 119.189 4.08501 1.69055 0
M  V30 1217 N 118.248 0.346503 1.53744 0
M  V30 1218 C 119.494 -0.249473 2.0126 0
M  V30 1219 C 119.827 -1.49965 1.23386 0
M  V30 1220 O 119.102 -1.91811 0.32229 0
M  V30 1221 C 119.385 -0.560643 3.55709 0
M  V30 1222 C 119.238 0.701836 4.44291 0
M  V30 1223 C 120.557 -1.36905 4.18264 0
M  V30 1224 H 117.676 -0.0891987 0.731582 0
M  V30 1225 H 120.318 0.467624 1.84156 0
M  V30 1226 H 118.468 -1.17156 3.70414 0
M  V30 1227 H 120.14 1.33974 4.41417 0
M  V30 1228 H 118.383 1.32612 4.13033 0
M  V30 1229 H 119.054 0.43933 5.50249 0
M  V30 1230 H 121.53 -0.852448 4.07275 0
M  V30 1231 H 120.406 -1.55553 5.26398 0
M  V30 1232 H 120.667 -2.37203 3.73078 0
M  V30 1233 N 119.726 -1.57421 0.075193 0
M  V30 1234 C 120.689 -2.11791 -0.876203 0
M  V30 1235 C 121.689 -1.04268 -1.22412 0
M  V30 1236 O 122.879 -1.30242 -1.15684 0
M  V30 1237 C 120.011 -2.62207 -2.17854 0
M  V30 1238 H 121.204 -2.9716 -0.40444 0
M  V30 1239 H 118.757 -1.55333 -0.173557 0
M  V30 1240 H 119.492 -1.803 -2.6956 0
M  V30 1241 H 119.277 -3.40802 -1.93897 0
M  V30 1242 H 120.767 -3.04335 -2.85955 0
M  V30 1243 N 121.204 0.198386 -1.56346 0
M  V30 1244 C 122.453 0.917451 -1.79627 0
M  V30 1245 C 122.766 1.8456 -0.64784 0
M  V30 1246 O 123.972 2.60504 -0.764859 0
M  V30 1247 C 122.428 1.68175 -3.18191 0
M  V30 1248 C 122.036 0.798589 -4.40825 0
M  V30 1249 C 123.78 2.39065 -3.50782 0
M  V30 1250 C 121.687 1.56157 -5.70411 0
M  V30 1251 H 120.617 0.346317 -0.669762 0
M  V30 1252 H 123.268 0.170801 -1.82703 0
M  V30 1253 H 121.65 2.47216 -3.09354 0
M  V30 1254 H 122.824 0.0470665 -4.60776 0
M  V30 1255 H 121.139 0.200686 -4.15916 0
M  V30 1256 H 123.736 2.96692 -4.44835 0
M  V30 1257 H 124.079 3.13091 -2.74371 0
M  V30 1258 H 124.612 1.66993 -3.61052 0
M  V30 1259 H 121.351 0.864142 -6.49779 0
M  V30 1260 H 120.871 2.2871 -5.54483 0
M  V30 1261 H 122.55 2.11622 -6.11412 0
M  V30 1262 N 122.682 1.50554 0.465978 0
M  V30 1263 C 123.629 1.6979 1.56333 0
M  V30 1264 C 124.599 0.539239 1.57103 0
M  V30 1265 O 125.784 0.770401 1.74555 0
M  V30 1266 C 122.924 1.80273 2.94271 0
M  V30 1267 C 122.037 3.07674 3.0325 0
M  V30 1268 C 121.172 3.08922 4.32135 0
M  V30 1269 C 120.211 4.30755 4.34875 0
M  V30 1270 N 119.348 4.29714 5.55239 0
M  V30 1271 H 124.188 2.63472 1.39235 0
M  V30 1272 H 121.725 1.30602 0.676873 0
M  V30 1273 H 123.683 1.84332 3.74269 0
M  V30 1274 H 122.313 0.900258 3.09992 0
M  V30 1275 H 121.365 3.13062 2.16094 0
M  V30 1276 H 122.677 3.97642 3.01135 0
M  V30 1277 H 121.831 3.11738 5.20485 0
M  V30 1278 H 120.57 2.16792 4.36866 0
M  V30 1279 H 119.575 4.28146 3.44922 0
M  V30 1280 H 120.8 5.24117 4.31831 0
M  V30 1281 H 118.746 3.4044 5.60746 0
M  V30 1282 H 118.663 5.13456 5.54886 0
M  V30 1283 H 119.931 4.36683 6.457 0
M  V30 1284 N 124.16 -0.719506 1.40217 0
M  V30 1285 C 125.385 -1.51371 1.4178 0
M  V30 1286 C 125.81 -1.88091 0.0182355 0
M  V30 1287 O 125.168 -1.52997 -0.972707 0
M  V30 1288 C 125.216 -2.768 2.31115 0
M  V30 1289 O 124.32 -3.73349 1.7517 0
M  V30 1290 H 123.661 -0.456529 0.482159 0
M  V30 1291 H 126.191 -0.88644 1.844 0
M  V30 1292 H 126.201 -3.25371 2.46167 0
M  V30 1293 H 124.876 -2.49407 3.3282 0
M  V30 1294 H 123.453 -3.32179 1.69444 0
M  V30 1295 N 125.638 -1.25649 -0.95132 0
M  V30 1296 C 126.887 -1.09988 -1.69073 0
M  V30 1297 C 127.2 0.358355 -1.92289 0
M  V30 1298 O 128.406 0.635466 -2.63958 0
M  V30 1299 C 126.862 -1.92012 -3.044 0
M  V30 1300 C 126.47 -3.42347 -2.88968 0
M  V30 1301 C 128.214 -1.8493 -3.82101 0
M  V30 1302 C 126.121 -4.16655 -4.19705 0
M  V30 1303 H 125.051 -0.407993 -0.63408 0
M  V30 1304 H 127.702 -1.49873 -1.05879 0
M  V30 1305 H 126.084 -1.44952 -3.68517 0
M  V30 1306 H 127.258 -3.97104 -2.33762 0
M  V30 1307 H 125.573 -3.50557 -2.24719 0
M  V30 1308 H 128.17 -2.37739 -4.78941 0
M  V30 1309 H 128.513 -0.817883 -4.08187 0
M  V30 1310 H 129.046 -2.29758 -3.2474 0
M  V30 1311 H 125.785 -5.20224 -3.98807 0
M  V30 1312 H 125.305 -3.66681 -4.74663 0
M  V30 1313 H 126.984 -4.24551 -4.88227 0
M  V30 1314 N 127.117 1.15442 -1.07289 0
M  V30 1315 C 128.533 1.38201 -0.798288 0
M  V30 1316 C 128.733 1.92429 0.597769 0
M  V30 1317 O 127.789 2.12962 1.3566 0
M  V30 1318 C 129.102 2.35357 -1.87156 0
M  V30 1319 C 130.65 2.49021 -1.89624 0
M  V30 1320 C 131.125 3.49468 -2.96034 0
M  V30 1321 N 132.616 3.57003 -2.95132 0
M  V30 1322 C 133.351 4.34543 -3.74112 0
M  V30 1323 N 132.847 5.15421 -4.6294 0
M  V30 1324 N 134.64 4.29625 -3.62462 0
M  V30 1325 H 126.791 0.78584 -1.97328 0
M  V30 1326 H 129.054 0.408065 -0.855679 0
M  V30 1327 H 128.76 2.02626 -2.87464 0
M  V30 1328 H 128.634 3.35129 -1.73114 0
M  V30 1329 H 131.021 2.81051 -0.899687 0
M  V30 1330 H 131.102 1.4925 -2.07745 0
M  V30 1331 H 130.746 3.18173 -3.95889 0
M  V30 1332 H 130.676 4.48992 -2.75161 0
M  V30 1333 H 133.167 2.99276 -2.30743 0
M  V30 1334 H 133.48 5.7183 -5.19837 0
M  V30 1335 H 131.825 5.14729 -4.66989 0
M  V30 1336 H 135.016 3.65505 -2.92444 0
M  V30 1337 H 135.189 4.89807 -4.24256 0
M  V30 1338 N 128.595 0.856903 1.32268 0
M  V30 1339 C 129.542 0.301172 2.28827 0
M  V30 1340 C 130.512 -0.593104 1.5515 0
M  V30 1341 O 131.697 -0.527537 1.83362 0
M  V30 1342 C 128.837 -0.502523 3.41422 0
M  V30 1343 C 127.95 0.417797 4.29975 0
M  V30 1344 C 127.085 -0.398749 5.29701 0
M  V30 1345 C 126.124 0.518827 6.09897 0
M  V30 1346 N 125.261 -0.260674 7.01616 0
M  V30 1347 H 130.101 1.12983 2.75751 0
M  V30 1348 H 127.638 0.568582 1.35667 0
M  V30 1349 H 129.596 -0.984141 4.05426 0
M  V30 1350 H 128.226 -1.29599 2.95642 0
M  V30 1351 H 127.278 1.01781 3.66531 0
M  V30 1352 H 128.59 1.12191 4.86019 0
M  V30 1353 H 127.744 -0.943435 5.9932 0
M  V30 1354 H 126.483 -1.13622 4.7428 0
M  V30 1355 H 125.488 1.07538 5.39181 0
M  V30 1356 H 126.713 1.25495 6.67404 0
M  V30 1357 H 124.659 -0.981198 6.4862 0
M  V30 1358 H 124.576 0.384364 7.55022 0
M  V30 1359 H 125.844 -0.787014 7.75517 0
M  V30 1360 N 130.073 -1.45103 0.615059 0
M  V30 1361 C 131.35 -1.95549 0.0448276 0
M  V30 1362 C 131.73 -1.55737 -1.4251 0
M  V30 1363 O 131.078 -0.823556 -2.13143 0
M  V30 1364 C 131.288 -3.48098 0.250785 0
M  V30 1365 C 132.636 -4.24384 0.135509 0
M  V30 1366 O 133.66 -3.55738 0.181299 0
M  V30 1367 O 132.519 -5.46493 0.0268878 0
M  V30 1368 H 129.613 -0.8264 -0.0314845 0
M  V30 1369 H 132.159 -1.55232 0.685642 0
M  V30 1370 H 130.931 -3.7007 1.27139 0
M  V30 1371 H 130.554 -3.95323 -0.424937 0
M  V30 1372 N 131.551 -0.354651 -1.53558 0
M  V30 1373 C 132.498 0.496968 -2.25386 0
M  V30 1374 C 133.468 1.0865 -1.25636 0
M  V30 1375 O 134.653 1.12104 -1.54394 0
M  V30 1376 C 131.793 1.63637 -3.03837 0
M  V30 1377 C 130.906 1.07307 -4.18461 0
M  V30 1378 C 130.041 2.18068 -4.84376 0
M  V30 1379 C 129.08 1.59147 -5.91049 0
M  V30 1380 N 128.217 2.63695 -6.50699 0
M  V30 1381 H 133.057 -0.122075 -2.9775 0
M  V30 1382 H 130.594 -0.0720154 -1.46924 0
M  V30 1383 H 132.552 2.30734 -3.47589 0
M  V30 1384 H 131.182 2.22623 -2.33749 0
M  V30 1385 H 130.234 0.292708 -3.79272 0
M  V30 1386 H 131.546 0.602193 -4.95152 0
M  V30 1387 H 130.7 2.93007 -5.31255 0
M  V30 1388 H 129.439 2.68504 -4.07133 0
M  V30 1389 H 128.444 0.827175 -5.43542 0
M  V30 1390 H 129.669 1.09549 -6.70206 0
M  V30 1391 H 127.615 3.13365 -5.76315 0
M  V30 1392 H 127.532 2.21263 -7.22896 0
M  V30 1393 H 128.8 3.3837 -7.02229 0
M  V30 1394 N 133.029 1.57378 -0.0835403 0
M  V30 1395 C 134.278 1.93106 0.582498 0
M  V30 1396 C 134.591 0.96651 1.70053 0
M  V30 1397 O 135.797 1.21705 2.42693 0
M  V30 1398 C 134.253 3.43076 1.08751 0
M  V30 1399 C 133.861 4.48 -0.000146404 0
M  V30 1400 C 135.605 3.87785 1.72694 0
M  V30 1401 C 133.512 5.89113 0.519568 0
M  V30 1402 H 132.442 0.720775 0.221358 0
M  V30 1403 H 135.093 1.82821 -0.157675 0
M  V30 1404 H 133.475 3.48474 1.88101 0
M  V30 1405 H 134.649 4.54233 -0.775199 0
M  V30 1406 H 132.964 4.1283 -0.54406 0
M  V30 1407 H 135.561 4.90604 2.1263 0
M  V30 1408 H 135.904 3.25796 2.59158 0
M  V30 1409 H 136.437 3.8504 0.999457 0
M  V30 1410 H 133.176 6.54775 -0.308186 0
M  V30 1411 H 132.696 5.86376 1.26188 0
M  V30 1412 H 134.375 6.39346 0.992237 0
M  V30 1413 N 134.507 -0.190092 1.56449 0
M  V30 1414 C 135.454 -1.23557 1.94942 0
M  V30 1415 C 136.424 -1.44972 0.810696 0
M  V30 1416 O 137.609 -1.58023 1.06927 0
M  V30 1417 C 134.749 -2.57416 2.2985 0
M  V30 1418 C 133.862 -2.43537 3.5681 0
M  V30 1419 C 132.997 -3.70134 3.81017 0
M  V30 1420 C 132.036 -3.51109 5.01387 0
M  V30 1421 N 131.173 -4.6973 5.21822 0
M  V30 1422 H 136.013 -0.900304 2.84075 0
M  V30 1423 H 133.55 -0.43318 1.40577 0
M  V30 1424 H 135.508 -3.35409 2.48106 0
M  V30 1425 H 134.138 -2.88975 1.43852 0
M  V30 1426 H 133.19 -1.56816 3.46573 0
M  V30 1427 H 134.502 -2.25415 4.4496 0
M  V30 1428 H 133.656 -4.56566 3.9954 0
M  V30 1429 H 132.395 -3.91215 2.91207 0
M  V30 1430 H 131.4 -2.63063 4.82782 0
M  V30 1431 H 132.625 -3.31468 5.9271 0
M  V30 1432 H 130.571 -4.91065 4.34961 0
M  V30 1433 H 130.488 -4.54452 6.0416 0
M  V30 1434 H 131.756 -5.57499 5.44808 0
M  V30 1435 N 135.985 -1.50799 -0.457987 0
M  V30 1436 C 137.262 -1.52968 -1.21902 0
M  V30 1437 C 137.642 -0.281906 -2.09209 0
M  V30 1438 O 136.99 0.734076 -2.16388 0
M  V30 1439 C 137.2 -2.8326 -2.03875 0
M  V30 1440 C 138.548 -3.34425 -2.6162 0
M  V30 1441 O 139.572 -2.8467 -2.14106 0
M  V30 1442 O 138.431 -4.21188 -3.48228 0
M  V30 1443 H 135.525 -0.614129 -0.553873 0
M  V30 1444 H 138.071 -1.63098 -0.468739 0
M  V30 1445 H 136.843 -3.65543 -1.39621 0
M  V30 1446 H 136.466 -2.76195 -2.8601 0
M  V30 1447 N 137.463 0.71206 -1.40597 0
M  V30 1448 C 138.373 1.8562 -1.43466 0
M  V30 1449 C 139.389 1.70902 -0.326902 0
M  V30 1450 O 140.565 1.93105 -0.572043 0
M  V30 1451 C 137.63 3.21451 -1.29884 0
M  V30 1452 C 136.691 3.48398 -2.50833 0
M  V30 1453 C 135.924 4.77749 -2.3789 0
M  V30 1454 O 136.147 5.53089 -1.39459 0
M  V30 1455 O 135.081 5.05111 -3.27333 0
M  V30 1456 H 138.907 1.86155 -2.39958 0
M  V30 1457 H 136.492 0.86295 -1.21957 0
M  V30 1458 H 138.374 4.02579 -1.24531 0
M  V30 1459 H 137.049 3.21636 -0.364997 0
M  V30 1460 H 135.956 2.67265 -2.61763 0
M  V30 1461 H 137.289 3.53014 -3.4299 0
M  V30 1462 N 138.941 1.26152 0.944643 0
M  V30 1463 C 139.873 1.03199 2.04652 0
M  V30 1464 C 140.886 -0.00642356 1.62799 0
M  V30 1465 O 142.075 0.233263 1.76969 0
M  V30 1466 C 139.175 0.540111 3.34568 0
M  V30 1467 C 138.348 1.64697 4.05208 0
M  V30 1468 C 137.407 1.15374 5.13396 0
M  V30 1469 O 136.433 1.85013 5.38293 0
M  V30 1470 N 137.635 0.00031529 5.805 0
M  V30 1471 H 140.4 1.9808 2.2491 0
M  V30 1472 H 137.961 1.17491 1.11389 0
M  V30 1473 H 139.953 0.194401 4.04233 0
M  V30 1474 H 138.523 -0.315021 3.11009 0
M  V30 1475 H 137.743 2.16379 3.29506 0
M  V30 1476 H 139.031 2.3903 4.49157 0
M  V30 1477 H 138.429 -0.581336 5.62705 0
M  V30 1478 H 136.986 -0.286346 6.51171 0
M  V30 1479 N 140.419 -1.14872 1.07899 0
M  V30 1480 C 141.696 -1.81928 0.71845 0
M  V30 1481 C 142.076 -1.95417 -0.798455 0
M  V30 1482 O 141.424 -1.50997 -1.715 0
M  V30 1483 C 141.634 -3.17937 1.43935 0
M  V30 1484 C 142.982 -3.93501 1.59506 0
M  V30 1485 O 144.006 -3.27509 1.40058 0
M  V30 1486 O 142.865 -5.1183 1.91551 0
M  V30 1487 H 139.959 -0.78628 0.256305 0
M  V30 1488 H 142.505 -1.21934 1.18026 0
M  V30 1489 H 141.277 -3.0325 2.47295 0
M  V30 1490 H 140.9 -3.85619 0.968687 0
M  V30 1491 N 141.898 -0.863906 -1.31812 0
M  V30 1492 C 142.831 -0.259963 -2.26714 0
M  V30 1493 C 143.809 0.607392 -1.50829 0
M  V30 1494 O 144.993 0.562155 -1.79922 0
M  V30 1495 C 142.12 0.632456 -3.32743 0
M  V30 1496 C 141.166 -0.162743 -4.26189 0
M  V30 1497 S 141.999 -1.53726 -5.12961 0
M  V30 1498 C 143.155 -0.650803 -6.22507 0
M  V30 1499 H 143.388 -1.06445 -2.77591 0
M  V30 1500 H 140.921 -0.662071 -1.39485 0
M  V30 1501 H 142.879 1.14167 -3.94305 0
M  V30 1502 H 141.54 1.41083 -2.80632 0
M  V30 1503 H 140.733 0.517366 -5.01338 0
M  V30 1504 H 140.335 -0.60385 -3.69093 0
M  V30 1505 H 142.627 0.141134 -6.77353 0
M  V30 1506 H 143.57 -1.37322 -6.94657 0
M  V30 1507 H 143.978 -0.221041 -5.64067 0
M  V30 1508 N 143.376 1.44774 -0.622745 0
M  V30 1509 C 144.622 2.0242 -0.124083 0
M  V30 1510 C 144.955 1.4881 1.24777 0
M  V30 1511 O 144.23 0.668799 1.8264 0
M  V30 1512 C 144.513 3.59957 -0.101619 0
M  V30 1513 C 144.366 4.23867 -1.50521 0
M  V30 1514 C 145.685 4.36284 0.578272 0
M  V30 1515 H 142.804 0.735528 -0.0465645 0
M  V30 1516 H 145.446 1.72447 -0.797617 0
M  V30 1517 H 143.596 3.85623 0.471934 0
M  V30 1518 H 145.268 4.09336 -2.12701 0
M  V30 1519 H 143.511 3.81684 -2.06154 0
M  V30 1520 H 144.182 5.32843 -1.4416 0
M  V30 1521 H 146.658 4.16001 0.0906057 0
M  V30 1522 H 145.534 5.46004 0.563149 0
M  V30 1523 H 145.795 4.10271 1.64713 0
M  V30 1524 N 144.854 0.36279 1.53368 0
M  V30 1525 C 145.804 -0.501391 2.22419 0
M  V30 1526 C 146.788 -1.0509 1.2184 0
M  V30 1527 O 147.98 -0.981404 1.47301 0
M  V30 1528 C 145.109 -1.64201 3.01484 0
M  V30 1529 C 144.195 -1.10552 4.09438 0
M  V30 1530 N 144.586 -0.291788 5.04958 0
M  V30 1531 C 142.884 -1.3806 4.24094 0
M  V30 1532 C 143.585 0.00162655 5.817 0
M  V30 1533 N 142.561 -0.595244 5.40331 0
M  V30 1534 H 146.363 0.127159 2.93625 0
M  V30 1535 H 143.877 0.170658 1.61501 0
M  V30 1536 H 145.874 -2.27326 3.49469 0
M  V30 1537 H 144.534 -2.27365 2.31809 0
M  V30 1538 H 145.545 0.0687731 5.17854 0
M  V30 1539 H 142.222 -2.01522 3.65644 0
M  V30 1540 H 143.612 0.659278 6.68658 0
M  V30 1541 N 146.332 -1.57332 0.0918853 0
M  V30 1542 C 147.581 -1.93412 -0.572249 0
M  V30 1543 C 147.894 -0.975515 -1.69538 0
M  V30 1544 O 149.1 -1.22991 -2.42045 0
M  V30 1545 C 147.556 -3.43648 -1.0693 0
M  V30 1546 C 147.164 -4.47994 0.0239049 0
M  V30 1547 C 148.908 -3.88695 -1.70635 0
M  V30 1548 C 146.815 -5.89381 -0.488319 0
M  V30 1549 H 145.745 -0.721939 -0.217532 0
M  V30 1550 H 148.396 -1.82735 0.167369 0
M  V30 1551 H 146.778 -3.49466 -1.8625 0
M  V30 1552 H 147.952 -4.53815 0.799277 0
M  V30 1553 H 146.267 -4.12536 0.565946 0
M  V30 1554 H 148.864 -4.91725 -2.10025 0
M  V30 1555 H 149.207 -3.27166 -2.57426 0
M  V30 1556 H 149.74 -3.85564 -0.979023 0
M  V30 1557 H 146.479 -6.54602 0.342906 0
M  V30 1558 H 145.999 -5.87037 -1.23077 0
M  V30 1559 H 147.678 -6.39863 -0.958317 0
M  V30 1560 N 147.81 0.181792 -1.56548 0
M  V30 1561 C 149.226 0.53316 -1.50431 0
M  V30 1562 C 149.426 1.85184 -0.794297 0
M  V30 1563 O 148.482 2.50058 -0.350318 0
M  V30 1564 C 149.795 0.575597 -2.9514 0
M  V30 1565 C 151.343 0.663519 -3.05886 0
M  V30 1566 C 151.818 0.736946 -4.52032 0
M  V30 1567 N 153.309 0.800118 -4.56237 0
M  V30 1568 C 154.044 0.877327 -5.66649 0
M  V30 1569 N 153.54 0.916016 -6.86718 0
M  V30 1570 N 155.333 0.915542 -5.54594 0
M  V30 1571 H 147.484 -0.683025 -2.01118 0
M  V30 1572 H 149.747 -0.244988 -0.915797 0
M  V30 1573 H 149.453 -0.324482 -3.502 0
M  V30 1574 H 149.327 1.42572 -3.49218 0
M  V30 1575 H 151.714 1.55403 -2.50867 0
M  V30 1576 H 151.795 -0.21307 -2.54911 0
M  V30 1577 H 151.439 -0.149262 -5.07681 0
M  V30 1578 H 151.369 1.62953 -5.00753 0
M  V30 1579 H 153.86 0.778926 -3.69785 0
M  V30 1580 H 154.173 0.975813 -7.66614 0
M  V30 1581 H 152.518 0.884469 -6.89349 0
M  V30 1582 H 155.709 0.882245 -4.59711 0
M  V30 1583 H 155.882 0.972253 -6.40665 0
M  V30 1584 N 149.288 1.51039 0.449983 0
M  V30 1585 C 150.704 1.38934 0.785462 0
M  V30 1586 C 150.904 0.461817 1.96136 0
M  V30 1587 O 149.96 -0.0877389 2.52348 0
M  V30 1588 C 151.273 2.80724 1.0777 0
M  V30 1589 C 152.821 2.89787 1.1829 0
M  V30 1590 C 153.296 4.32457 1.50815 0
M  V30 1591 N 154.787 4.35505 1.57764 0
M  V30 1592 C 155.522 5.42914 1.84477 0
M  V30 1593 N 155.018 6.60502 2.09068 0
M  V30 1594 N 156.811 5.3038 1.86155 0
M  V30 1595 H 148.962 2.09904 -0.324647 0
M  V30 1596 H 151.225 0.944378 -0.0827957 0
M  V30 1597 H 150.931 3.50531 0.286498 0
M  V30 1598 H 150.805 3.19273 2.00859 0
M  V30 1599 H 153.192 2.20186 1.96474 0
M  V30 1600 H 153.273 2.54752 0.231314 0
M  V30 1601 H 152.917 5.02603 0.731622 0
M  V30 1602 H 152.847 4.64995 2.47158 0
M  V30 1603 H 155.338 3.50724 1.40715 0
M  V30 1604 H 155.651 7.38158 2.28785 0
M  V30 1605 H 153.996 6.63639 2.06416 0
M  V30 1606 H 157.187 4.37505 1.66454 0
M  V30 1607 H 157.36 6.1417 2.06637 0
M  V30 1608 N 150.766 -0.704594 1.40972 0
M  V30 1609 C 151.676 -1.84856 1.44448 0
M  V30 1610 C 152.692 -1.70726 0.335961 0
M  V30 1611 O 153.868 -1.92799 0.582276 0
M  V30 1612 C 150.933 -3.20758 1.31587 0
M  V30 1613 C 149.994 -3.47063 2.52677 0
M  V30 1614 C 149.227 -4.76481 2.4042 0
M  V30 1615 O 149.45 -5.52341 1.42391 0
M  V30 1616 O 148.384 -5.03367 3.30007 0
M  V30 1617 H 152.21 -1.8488 2.40942 0
M  V30 1618 H 149.795 -0.85647 1.22413 0
M  V30 1619 H 151.677 -4.01913 1.26665 0
M  V30 1620 H 150.352 -3.21438 0.382049 0
M  V30 1621 H 149.259 -2.65873 2.63177 0
M  V30 1622 H 150.592 -3.5119 3.44858 0
M  V30 1623 N 152.244 -1.26651 -0.937939 0
M  V30 1624 C 153.493 -1.11775 -1.67897 0
M  V30 1625 C 153.806 0.33794 -1.92659 0
M  V30 1626 O 155.012 0.607434 -2.64618 0
M  V30 1627 C 153.468 -1.9523 -3.02346 0
M  V30 1628 C 153.076 -3.45393 -2.8532 0
M  V30 1629 C 154.82 -1.88972 -3.80118 0
M  V30 1630 C 152.727 -4.21083 -4.15263 0
M  V30 1631 H 151.657 -0.414696 -0.629717 0
M  V30 1632 H 154.308 -1.50988 -1.04283 0
M  V30 1633 H 152.69 -1.48853 -3.66959 0
M  V30 1634 H 153.864 -3.99561 -2.29537 0
M  V30 1635 H 152.179 -3.52921 -2.20988 0
M  V30 1636 H 154.776 -2.42805 -4.76392 0
M  V30 1637 H 155.119 -0.86113 -4.07296 0
M  V30 1638 H 155.652 -2.33189 -3.22285 0
M  V30 1639 H 152.391 -5.24425 -3.93267 0
M  V30 1640 H 151.911 -3.71695 -4.70747 0
M  V30 1641 H 153.59 -4.29706 -4.83696 0
M  V30 1642 N 153.722 1.14298 -1.08507 0
M  V30 1643 C 154.632 2.23027 -0.727753 0
M  V30 1644 C 155.648 1.71952 0.26619 0
M  V30 1645 O 156.824 2.011 0.109882 0
M  V30 1646 C 153.889 3.46403 -0.143541 0
M  V30 1647 C 152.95 4.12413 -1.19223 0
M  V30 1648 C 152.183 5.29899 -0.635798 0
M  V30 1649 O 152.406 5.67796 0.544393 0
M  V30 1650 O 151.34 5.85717 -1.38634 0
M  V30 1651 H 155.166 2.55945 -1.63481 0
M  V30 1652 H 152.751 1.22248 -0.858817 0
M  V30 1653 H 154.633 4.21018 0.179404 0
M  V30 1654 H 153.308 3.15206 0.736659 0
M  V30 1655 H 152.215 3.39667 -1.56772 0
M  V30 1656 H 153.548 4.47718 -2.04474 0
M  V30 1657 N 155.201 0.870884 1.31352 0
M  V30 1658 C 156.45 0.478408 1.95944 0
M  V30 1659 C 156.763 -0.974493 1.69597 0
M  V30 1660 O 157.969 -1.47316 2.28058 0
M  V30 1661 C 156.425 0.804609 3.50791 0
M  V30 1662 C 156.033 2.27433 3.85977 0
M  V30 1663 C 157.777 0.480648 4.2177 0
M  V30 1664 C 155.684 2.5429 5.33939 0
M  V30 1665 H 154.614 0.175175 0.733369 0
M  V30 1666 H 157.265 1.06391 1.4951 0
M  V30 1667 H 155.647 0.148347 3.95722 0
M  V30 1668 H 156.821 2.97373 3.52002 0
M  V30 1669 H 155.136 2.56442 3.28065 0
M  V30 1670 H 157.733 0.658519 5.30629 0
M  V30 1671 H 158.076 -0.578979 4.12254 0
M  V30 1672 H 158.609 1.09349 3.82476 0
M  V30 1673 H 155.348 3.58939 5.48491 0
M  V30 1674 H 154.868 1.88945 5.69263 0
M  V30 1675 H 156.547 2.39066 6.01212 0
M  V30 1676 N 156.679 -1.44442 0.630414 0
M  V30 1677 C 157.612 -2.27862 -0.124247 0
M  V30 1678 C 158.59 -1.38495 -0.851931 0
M  V30 1679 O 159.774 -1.67935 -0.856166 0
M  V30 1680 C 156.901 -3.17407 -1.18197 0
M  V30 1681 C 155.947 -4.22875 -0.554892 0
M  V30 1682 S 156.78 -5.31485 0.654489 0
M  V30 1683 C 157.936 -6.246 -0.40326 0
M  V30 1684 H 158.169 -2.91519 0.583435 0
M  V30 1685 H 155.702 -1.48618 0.418565 0
M  V30 1686 H 157.66 -3.69549 -1.78728 0
M  V30 1687 H 156.321 -2.52971 -1.86184 0
M  V30 1688 H 155.514 -4.85542 -1.35148 0
M  V30 1689 H 155.116 -3.73992 -0.0242105 0
M  V30 1690 H 157.408 -6.65375 -1.27602 0
M  V30 1691 H 158.351 -7.07851 0.187813 0
M  V30 1692 H 158.759 -5.59775 -0.728837 0
M  V30 1693 N 158.157 -0.370918 -1.53173 0
M  V30 1694 C 159.382 0.220293 -2.06227 0
M  V30 1695 C 159.807 1.41243 -1.24225 0
M  V30 1696 O 159.165 1.79387 -0.262645 0
M  V30 1697 C 159.213 0.586663 -3.55796 0
M  V30 1698 O 158.317 1.68317 -3.76488 0
M  V30 1699 H 157.658 0.0308099 -0.663285 0
M  V30 1700 H 160.188 -0.533068 -1.97534 0
M  V30 1701 H 160.198 0.85617 -3.98916 0
M  V30 1702 H 158.873 -0.285013 -4.14922 0
M  V30 1703 H 157.45 1.40881 -3.45264 0
M  V30 1704 N 159.635 1.57281 -0.100228 0
M  V30 1705 C 160.86 1.99302 0.573881 0
M  V30 1706 C 161.285 0.979059 1.60611 0
M  V30 1707 O 160.643 -0.0517803 1.81226 0
M  V30 1708 C 160.691 3.40274 1.19358 0
M  V30 1709 O 159.795 3.41676 2.30935 0
M  V30 1710 H 159.136 0.647944 0.145138 0
M  V30 1711 H 161.666 2.03779 -0.183156 0
M  V30 1712 H 161.676 3.78078 1.53365 0
M  V30 1713 H 160.351 4.13594 0.437385 0
M  V30 1714 H 158.928 3.15672 1.98509 0
M  V30 1715 N 161.113 -0.173488 1.56642 0
M  V30 1716 C 162.043 -1.2171 1.99271 0
M  V30 1717 C 163.024 -1.46289 0.867959 0
M  V30 1718 O 164.209 -1.5766 1.13388 0
M  V30 1719 C 161.339 -2.55651 2.35074 0
M  V30 1720 C 160.293 -2.45645 3.50489 0
M  V30 1721 C 159.619 -3.84056 3.72028 0
M  V30 1722 C 160.919 -1.96302 4.84007 0
M  V30 1723 H 162.613 -0.86275 2.867 0
M  V30 1724 H 160.159 -0.413571 1.37933 0
M  V30 1725 H 162.112 -3.2886 2.63494 0
M  V30 1726 H 160.836 -2.92869 1.44552 0
M  V30 1727 H 159.495 -1.7489 3.22194 0
M  V30 1728 H 159.143 -4.18664 2.788 0
M  V30 1729 H 158.843 -3.7823 4.49684 0
M  V30 1730 H 160.367 -4.58854 4.02846 0
M  V30 1731 H 161.781 -2.59284 5.11317 0
M  V30 1732 H 160.178 -2.01429 5.65284 0
M  V30 1733 H 161.248 -0.917226 4.76146 0
M  V30 1734 N 162.591 -1.51276 -0.441967 0
M  V30 1735 C 163.539 -1.72823 -1.55676 0
M  V30 1736 C 164.533 -0.59445 -1.58627 0
M  V30 1737 O 165.739 -0.775715 -1.62427 0
M  V30 1738 H 162.114 -0.545983 -0.517113 0
M  V30 1739 H 164.085 -2.6628 -1.34675 0
M  V30 1740 C 162.834 -1.86619 -2.93375 0
M  V30 1741 H 162.157 -2.73264 -2.91834 0
M  V30 1742 H 163.597 -2.05709 -3.70756 0
M  V30 1743 C 162.056 -0.624842 -3.31055 0
M  V30 1744 O 162.586 0.222636 -4.01083 0
M  V30 1745 N 160.792 -0.470288 -2.86769 0
M  V30 1746 H 160.339 -1.161 -2.29953 0
M  V30 1747 H 160.297 0.359051 -3.12343 0
M  V30 1748 N 164.069 0.697108 -1.41344 0
M  V30 1749 C 165.019 1.80313 -1.39539 0
M  V30 1750 C 166.003 1.58618 -0.270001 0
M  V30 1751 O 167.195 1.69477 -0.510551 0
M  V30 1752 C 164.324 3.18606 -1.27848 0
M  V30 1753 C 163.41 3.46001 -2.45244 0
M  V30 1754 N 163.801 3.44103 -3.70711 0
M  V30 1755 C 162.099 3.76542 -2.39023 0
M  V30 1756 C 162.8 3.7036 -4.48563 0
M  V30 1757 N 161.776 3.90027 -3.78655 0
M  V30 1758 H 165.578 1.77207 -2.34468 0
M  V30 1759 H 163.092 0.897031 -1.35378 0
M  V30 1760 H 165.089 3.97833 -1.24637 0
M  V30 1761 H 163.749 3.22925 -0.339032 0
M  V30 1762 H 164.76 3.2452 -4.03618 0
M  V30 1763 H 161.437 3.88241 -1.53542 0
M  V30 1764 H 162.827 3.75042 -5.57488 0
M  V30 1765 N 165.547 1.27147 0.931209 0
M  V30 1766 C 166.958 1.12044 1.49342 0
M  V30 1767 C 167.309 -0.295795 1.93957 0
M  V30 1768 O 166.434 -1.18835 1.80852 0
M  V30 1769 C 167.029 2.02781 2.71414 0
M  V30 1770 C 165.588 1.91794 3.2387 0
M  V30 1771 C 164.735 1.95543 1.96617 0
M  V30 1772 H 167.686 1.40091 0.745672 0
M  V30 1773 H 167.707 1.58156 3.46074 0
M  V30 1774 H 167.219 3.05848 2.38911 0
M  V30 1775 H 165.32 0.916992 3.6114 0
M  V30 1776 H 165.433 2.77852 3.90302 0
M  V30 1777 H 163.797 1.39722 2.12955 0
M  V30 1778 H 164.58 3.00259 1.66432 0
M  V30 1779 N 167.025 -1.13721 1.09112 0
M  V30 1780 C 167.975 -2.17082 0.697091 0
M  V30 1781 C 168.959 -1.58321 -0.286923 0
M  V30 1782 O 170.151 -1.7673 -0.0978008 0
M  V30 1783 C 167.28 -3.43105 0.115729 0
M  V30 1784 C 166.366 -4.0888 1.12596 0
M  V30 1785 N 166.757 -4.4987 2.31195 0
M  V30 1786 C 165.055 -4.35471 0.963366 0
M  V30 1787 C 165.756 -5.01094 2.95431 0
M  V30 1788 N 164.732 -4.95751 2.23006 0
M  V30 1789 H 168.534 -2.46524 1.6001 0
M  V30 1790 H 166.048 -1.30481 0.966869 0
M  V30 1791 H 168.045 -4.16491 -0.184555 0
M  V30 1792 H 166.705 -3.15138 -0.78217 0
M  V30 1793 H 167.716 -4.42678 2.68806 0
M  V30 1794 H 164.393 -4.17328 0.119878 0
M  V30 1795 H 165.783 -5.4263 3.96236 0
M  V30 1796 N 168.503 -0.877838 -1.30888 0
M  V30 1797 C 169.752 -0.488793 -1.95688 0
M  V30 1798 C 170.065 0.965485 -1.70111 0
M  V30 1799 O 171.271 1.46104 -2.28836 0
M  V30 1800 C 169.727 -0.823201 -3.50359 0
M  V30 1801 C 169.335 -2.29477 -3.84765 0
M  V30 1802 C 171.079 -0.503009 -4.21509 0
M  V30 1803 C 168.986 -2.57118 -5.32583 0
M  V30 1804 H 167.916 -0.179062 -0.732429 0
M  V30 1805 H 170.567 -1.07183 -1.48943 0
M  V30 1806 H 168.949 -0.169331 -3.95638 0
M  V30 1807 H 170.123 -2.99236 -3.5042 0
M  V30 1808 H 168.438 -2.58178 -3.267 0
M  V30 1809 H 171.035 -0.68665 -5.30273 0
M  V30 1810 H 171.378 0.557109 -4.12555 0
M  V30 1811 H 171.911 -1.11376 -3.8189 0
M  V30 1812 H 168.65 -3.61843 -5.4658 0
M  V30 1813 H 168.17 -1.91961 -5.68253 0
M  V30 1814 H 169.849 -2.42251 -5.99936 0
M  V30 1815 N 169.982 1.44106 -0.638065 0
M  V30 1816 C 171.231 2.01194 -0.142744 0
M  V30 1817 C 171.544 1.50835 1.24532 0
M  V30 1818 O 172.75 2.00096 1.83504 0
M  V30 1819 C 171.206 3.59319 -0.20442 0
M  V30 1820 C 170.814 4.18674 -1.59423 0
M  V30 1821 C 172.558 4.23854 0.234079 0
M  V30 1822 C 170.465 5.69045 -1.61065 0
M  V30 1823 H 169.395 0.752367 -0.0495998 0
M  V30 1824 H 172.046 1.65246 -0.797881 0
M  V30 1825 H 170.428 3.92598 0.517946 0
M  V30 1826 H 171.602 3.96921 -2.34074 0
M  V30 1827 H 169.917 3.66453 -1.97741 0
M  V30 1828 H 172.514 5.34155 0.241443 0
M  V30 1829 H 172.857 3.96688 1.2627 0
M  V30 1830 H 173.39 3.95403 -0.436025 0
M  V30 1831 H 170.129 6.00956 -2.61787 0
M  V30 1832 H 169.649 5.929 -0.90718 0
M  V30 1833 H 171.328 6.32809 -1.34766 0
M  V30 1834 N 171.46 0.379036 1.52974 0
M  V30 1835 C 172.685 -0.209353 2.06341 0
M  V30 1836 C 173.11 -1.40583 1.24972 0
M  V30 1837 O 172.468 -1.79246 0.272155 0
M  V30 1838 C 172.516 -0.567786 3.56102 0
M  V30 1839 O 171.62 -1.66318 3.77375 0
M  V30 1840 H 170.961 -0.0272919 0.663439 0
M  V30 1841 H 173.491 0.543536 1.97248 0
M  V30 1842 H 173.501 -0.835003 3.99364 0
M  V30 1843 H 172.176 0.307013 4.14765 0
M  V30 1844 H 170.753 -1.39048 3.46006 0
M  V30 1845 N 172.938 -1.57226 0.108567 0
M  V30 1846 C 174.187 -1.94008 -0.551703 0
M  V30 1847 C 174.5 -0.993442 -1.68494 0
M  V30 1848 O 175.706 -1.25551 -2.40726 0
M  V30 1849 C 174.162 -3.44763 -1.03279 0
M  V30 1850 C 173.77 -4.47943 0.0714193 0
M  V30 1851 C 175.514 -3.90483 -1.66503 0
M  V30 1852 C 173.421 -5.89865 -0.425779 0
M  V30 1853 H 172.351 -0.724206 -0.209863 0
M  V30 1854 H 175.002 -1.82547 0.186741 0
M  V30 1855 H 173.384 -3.51422 -1.82533 0
M  V30 1856 H 174.558 -4.52942 0.847365 0
M  V30 1857 H 172.873 -4.11913 0.609669 0
M  V30 1858 H 175.47 -4.93925 -2.04798 0
M  V30 1859 H 175.813 -3.29877 -2.53942 0
M  V30 1860 H 176.346 -3.86581 -0.938074 0
M  V30 1861 H 173.085 -6.54202 0.412316 0
M  V30 1862 H 172.605 -5.88309 -1.16843 0
M  V30 1863 H 174.284 -6.40844 -0.890397 0
M  V30 1864 N 174.416 0.165178 -1.56732 0
M  V30 1865 C 175.646 0.894919 -1.86212 0
M  V30 1866 C 176.054 1.76066 -0.692627 0
M  V30 1867 O 175.397 1.80387 0.347303 0
M  V30 1868 C 175.459 1.8174 -3.10179 0
M  V30 1869 C 175.123 1.13064 -4.42793 0
M  V30 1870 C 176.12 0.493169 -5.17556 0
M  V30 1871 C 173.805 1.12556 -4.89527 0
M  V30 1872 C 175.799 -0.140209 -6.37246 0
M  V30 1873 C 173.486 0.488366 -6.09145 0
M  V30 1874 C 174.484 -0.143411 -6.82849 0
M  V30 1875 O 174.172 -0.77055 -8.00199 0
M  V30 1876 H 173.904 0.265114 -0.621844 0
M  V30 1877 H 176.458 0.168242 -2.0471 0
M  V30 1878 H 174.688 2.58455 -2.87642 0
M  V30 1879 H 176.377 2.4175 -3.26055 0
M  V30 1880 H 177.143 0.489023 -4.82528 0
M  V30 1881 H 173.022 1.60672 -4.32094 0
M  V30 1882 H 176.566 -0.633932 -6.94714 0
M  V30 1883 H 172.463 0.490116 -6.43637 0
M  V30 1884 H 173.231 -0.670408 -8.1575 0
M  V30 1885 N 175.894 1.51508 0.433938 0
M  V30 1886 C 176.804 1.75917 1.5521 0
M  V30 1887 C 177.82 0.643545 1.61662 0
M  V30 1888 O 178.996 0.926183 1.7884 0
M  V30 1889 C 176.061 1.88213 2.91164 0
M  V30 1890 C 175.122 3.12074 2.94802 0
M  V30 1891 C 174.355 3.23774 4.24271 0
M  V30 1892 O 174.578 2.4133 5.16833 0
M  V30 1893 O 173.512 4.16774 4.34262 0
M  V30 1894 H 177.338 2.70777 1.37527 0
M  V30 1895 H 174.923 1.36051 0.617293 0
M  V30 1896 H 176.805 1.98267 3.71845 0
M  V30 1897 H 175.48 0.965413 3.08968 0
M  V30 1898 H 174.387 3.07497 2.13065 0
M  V30 1899 H 175.72 4.03446 2.81943 0
M  V30 1900 N 177.372 -0.689602 1.41712 0
M  V30 1901 C 178.618 -1.45181 1.41599 0
M  V30 1902 C 178.951 -1.94181 0.0270081 0
M  V30 1903 O 178.226 -1.6993 -0.946265 0
M  V30 1904 C 178.509 -2.65945 2.42787 0
M  V30 1905 C 178.362 -2.22672 3.90816 0
M  V30 1906 C 179.681 -3.68149 2.41151 0
M  V30 1907 H 176.8 -0.526576 0.515642 0
M  V30 1908 H 179.442 -0.784947 1.73028 0
M  V30 1909 H 177.592 -3.2284 2.16116 0
M  V30 1910 H 179.264 -1.71058 4.28412 0
M  V30 1911 H 177.507 -1.54394 4.05395 0
M  V30 1912 H 178.178 -3.0935 4.57172 0
M  V30 1913 H 180.654 -3.2094 2.64834 0
M  V30 1914 H 179.53 -4.50248 3.13955 0
M  V30 1915 H 179.791 -4.18259 1.43221 0
M  V30 1916 N 178.85 -1.27639 -0.924453 0
M  V30 1917 C 180.097 -1.14167 -1.67249 0
M  V30 1918 C 180.425 0.311863 -1.91984 0
M  V30 1919 O 179.68 1.24425 -1.51053 0
M  V30 1920 C 179.979 -1.87407 -3.04325 0
M  V30 1921 C 179.645 -3.37249 -2.99289 0
M  V30 1922 C 178.307 -3.7812 -2.97622 0
M  V30 1923 C 180.659 -4.32845 -2.90336 0
M  V30 1924 C 177.987 -5.12944 -2.8479 0
M  V30 1925 C 180.339 -5.6773 -2.79045 0
M  V30 1926 C 179.003 -6.07889 -2.7573 0
M  V30 1927 H 178.273 -0.417766 -0.612007 0
M  V30 1928 H 180.92 -1.58286 -1.07786 0
M  V30 1929 H 179.225 -1.35805 -3.67511 0
M  V30 1930 H 180.922 -1.74408 -3.61086 0
M  V30 1931 H 177.512 -3.04748 -3.01374 0
M  V30 1932 H 181.696 -4.02239 -2.90719 0
M  V30 1933 H 176.952 -5.432 -2.80612 0
M  V30 1934 H 181.126 -6.41472 -2.71083 0
M  V30 1935 H 178.753 -7.12314 -2.65544 0
M  V30 1936 N 180.328 1.1314 -1.09713 0
M  V30 1937 C 181.238 2.22242 -0.751367 0
M  V30 1938 C 182.254 1.72224 0.247938 0
M  V30 1939 O 183.43 2.01205 0.0885463 0
M  V30 1940 C 180.495 3.46231 -0.180274 0
M  V30 1941 C 179.556 4.11125 -1.2359 0
M  V30 1942 C 178.789 5.29195 -0.691966 0
M  V30 1943 O 179.012 5.68342 0.48414 0
M  V30 1944 O 177.946 5.84214 -1.44838 0
M  V30 1945 H 181.772 2.54197 -1.66186 0
M  V30 1946 H 179.357 1.21331 -0.871735 0
M  V30 1947 H 181.239 4.21185 0.134739 0
M  V30 1948 H 179.914 3.1597 0.703185 0
M  V30 1949 H 178.821 3.37985 -1.60366 0
M  V30 1950 H 180.154 4.45524 -2.09211 0
M  V30 1951 N 181.806 0.884767 1.30421 0
M  V30 1952 C 182.754 0.340869 2.30089 0
M  V30 1953 C 183.748 -0.55201 1.60154 0
M  V30 1954 O 184.954 -0.436467 1.74628 0
M  V30 1955 H 181.329 0.0915739 0.746404 0
M  V30 1956 H 183.3 1.19513 2.73421 0
M  V30 1957 C 182.049 -0.429779 3.45034 0
M  V30 1958 H 181.372 0.248024 3.9903 0
M  V30 1959 H 182.812 -0.775445 4.16849 0
M  V30 1960 C 181.271 -1.62677 2.95022 0
M  V30 1961 O 181.801 -2.72614 2.95033 0
M  V30 1962 N 180.007 -1.46387 2.51036 0
M  V30 1963 H 179.554 -0.569506 2.51226 0
M  V30 1964 H 179.512 -2.26612 2.17932 0
M  V30 1965 N 183.284 -1.43765 0.645699 0
M  V30 1966 C 184.231 -2.30745 -0.0504648 0
M  V30 1967 C 185.201 -1.4432 -0.822241 0
M  V30 1968 O 186.386 -1.73202 -0.800358 0
M  V30 1969 C 183.526 -3.29802 -1.0161 0
M  V30 1970 C 182.639 -4.31326 -0.241219 0
M  V30 1971 C 181.774 -5.17469 -1.19998 0
M  V30 1972 C 180.813 -6.10691 -0.415094 0
M  V30 1973 N 179.95 -6.89483 -1.32506 0
M  V30 1974 H 184.79 -2.8973 0.697155 0
M  V30 1975 H 182.327 -1.42738 0.355563 0
M  V30 1976 H 184.285 -3.85734 -1.58949 0
M  V30 1977 H 182.915 -2.72483 -1.73069 0
M  V30 1978 H 181.967 -3.77749 0.448334 0
M  V30 1979 H 183.279 -4.9743 0.369437 0
M  V30 1980 H 182.433 -5.7799 -1.84424 0
M  V30 1981 H 181.172 -4.51473 -1.84455 0
M  V30 1982 H 180.177 -5.49265 0.242565 0
M  V30 1983 H 181.402 -6.78727 0.224966 0
M  V30 1984 H 179.348 -6.26142 -1.95657 0
M  V30 1985 H 179.265 -7.52081 -0.768783 0
M  V30 1986 H 180.533 -7.54516 -1.9577 0
M  V30 1987 N 184.763 -0.387143 -1.52771 0
M  V30 1988 C 186.04 0.253197 -1.93954 0
M  V30 1989 C 186.42 1.64545 -1.32243 0
M  V30 1990 O 185.768 2.23191 -0.489699 0
M  V30 1991 C 185.978 0.281722 -3.47861 0
M  V30 1992 C 187.326 0.511715 -4.21505 0
M  V30 1993 O 188.35 0.362023 -3.54356 0
M  V30 1994 O 187.209 0.804847 -5.40541 0
M  V30 1995 H 184.303 0.156845 -0.811991 0
M  V30 1996 H 186.849 -0.441494 -1.63856 0
M  V30 1997 H 185.621 -0.693571 -3.85104 0
M  V30 1998 H 185.244 1.02142 -3.84256 0
M  V30 1999 N 186.241 1.57166 -0.116904 0
M  V30 2000 C 187.188 2.15202 0.83408 0
M  V30 2001 C 188.158 1.07644 1.26499 0
M  V30 2002 O 189.343 1.35541 1.34288 0
M  V30 2003 C 186.483 2.75405 2.07957 0
M  V30 2004 C 185.596 3.97264 1.69721 0
M  V30 2005 C 184.731 4.45561 2.89221 0
M  V30 2006 C 183.77 5.59956 2.47215 0
M  V30 2007 N 182.907 6.03006 3.59622 0
M  V30 2008 H 187.747 2.96141 0.332335 0
M  V30 2009 H 185.284 1.46309 0.152349 0
M  V30 2010 H 187.242 3.08439 2.80929 0
M  V30 2011 H 185.872 1.97159 2.55594 0
M  V30 2012 H 184.924 3.70404 0.866316 0
M  V30 2013 H 186.236 4.80226 1.34849 0
M  V30 2014 H 185.39 4.80493 3.7042 0
M  V30 2015 H 184.129 3.61544 3.27318 0
M  V30 2016 H 183.134 5.2463 1.64448 0
M  V30 2017 H 184.359 6.45738 2.10238 0
M  V30 2018 H 182.305 5.21931 3.97396 0
M  V30 2019 H 182.222 6.80819 3.28667 0
M  V30 2020 H 183.49 6.42576 4.41267 0
M  V30 2021 N 187.719 -0.156864 1.56817 0
M  V30 2022 C 188.968 -0.869504 1.81996 0
M  V30 2023 C 189.281 -1.82777 0.696545 0
M  V30 2024 O 190.487 -2.58384 0.833658 0
M  V30 2025 C 188.943 -1.59679 3.22538 0
M  V30 2026 C 188.551 -0.681431 4.42787 0
M  V30 2027 C 190.295 -2.2968 3.56997 0
M  V30 2028 C 188.202 -1.40978 5.74351 0
M  V30 2029 H 187.132 -0.328438 0.678708 0
M  V30 2030 H 189.783 -0.1223 1.83092 0
M  V30 2031 H 188.165 -2.38927 3.158 0
M  V30 2032 H 189.339 0.0751166 4.60739 0
M  V30 2033 H 187.654 -0.0903431 4.16302 0
M  V30 2034 H 190.251 -2.84794 4.52544 0
M  V30 2035 H 190.594 -3.05707 2.82576 0
M  V30 2036 H 191.127 -1.57361 3.65352 0
M  V30 2037 H 187.866 -0.691561 6.51842 0
M  V30 2038 H 187.386 -2.13929 5.60352 0
M  V30 2039 H 189.065 -1.95337 6.16808 0
M  V30 2040 N 189.197 -1.51736 -0.425897 0
M  V30 2041 C 190.443 -1.65214 -1.1761 0
M  V30 2042 C 190.776 -0.372778 -1.90589 0
M  V30 2043 O 190.051 0.628139 -1.84078 0
M  V30 2044 C 190.334 -2.86312 -2.18398 0
M  V30 2045 C 190.187 -4.24254 -1.49426 0
M  V30 2046 C 191.506 -3.02925 -3.19256 0
M  V30 2047 H 188.625 -0.601263 -0.426206 0
M  V30 2048 H 191.267 -1.8425 -0.463882 0
M  V30 2049 H 189.417 -2.70213 -2.79137 0
M  V30 2050 H 191.089 -4.52046 -0.919362 0
M  V30 2051 H 189.332 -4.26426 -0.796432 0
M  V30 2052 H 190.003 -5.05001 -2.22885 0
M  V30 2053 H 192.479 -3.1781 -2.68581 0
M  V30 2054 H 191.355 -3.89199 -3.8706 0
M  V30 2055 H 191.616 -2.15497 -3.86023 0
M  V30 2056 N 190.675 0.682077 -1.42076 0
M  V30 2057 C 191.924 1.43786 -1.41451 0
M  V30 2058 C 192.237 1.95574 -0.0317074 0
M  V30 2059 O 193.443 2.71326 0.0971462 0
M  V30 2060 C 191.899 2.60071 -2.48779 0
M  V30 2061 C 191.507 2.15013 -3.93031 0
M  V30 2062 C 193.251 3.37626 -2.57311 0
M  V30 2063 C 191.158 3.28336 -4.91883 0
M  V30 2064 H 190.088 0.540143 -0.526082 0
M  V30 2065 H 192.739 0.739157 -1.67955 0
M  V30 2066 H 191.121 3.32275 -2.15429 0
M  V30 2067 H 192.295 1.5001 -4.35699 0
M  V30 2068 H 190.61 1.50416 -3.88284 0
M  V30 2069 H 193.207 4.22012 -3.28345 0
M  V30 2070 H 193.55 3.83727 -1.61429 0
M  V30 2071 H 194.083 2.72488 -2.89819 0
M  V30 2072 H 190.822 2.87234 -5.89217 0
M  V30 2073 H 190.342 3.92145 -4.53853 0
M  V30 2074 H 192.021 3.93913 -5.13265 0
M  V30 2075 N 192.153 1.28127 0.917671 0
M  V30 2076 C 193.402 1.14432 1.66097 0
M  V30 2077 C 193.715 -0.307247 1.93172 0
M  V30 2078 O 194.921 -0.565259 2.65551 0
M  V30 2079 C 193.377 2.00015 2.99202 0
M  V30 2080 C 192.985 3.49889 2.79789 0
M  V30 2081 C 194.729 1.94996 3.77064 0
M  V30 2082 C 192.636 4.27636 4.08511 0
M  V30 2083 H 191.566 0.424662 0.62304 0
M  V30 2084 H 194.217 1.52628 1.01868 0
M  V30 2085 H 192.599 1.54672 3.64544 0
M  V30 2086 H 193.773 4.03162 2.23152 0
M  V30 2087 H 192.088 3.56392 2.15345 0
M  V30 2088 H 194.685 2.50354 4.72469 0
M  V30 2089 H 195.028 0.925819 4.05875 0
M  V30 2090 H 195.561 2.38287 3.18534 0
M  V30 2091 H 192.3 5.30615 3.84874 0
M  V30 2092 H 191.82 3.79137 4.64774 0
M  V30 2093 H 193.499 4.37346 4.76799 0
M  V30 2094 N 193.631 -1.12557 1.10312 0
M  V30 2095 C 194.564 -2.1737 0.694674 0
M  V30 2096 C 195.542 -1.59745 -0.303373 0
M  V30 2097 O 196.726 -1.87408 -0.202578 0
M  V30 2098 C 193.853 -3.38691 0.0248052 0
M  V30 2099 C 192.899 -4.14943 0.986121 0
M  V30 2100 S 193.732 -4.73413 2.50281 0
M  V30 2101 C 194.888 -5.9807 1.84562 0
M  V30 2102 H 195.121 -2.5168 1.58255 0
M  V30 2103 H 192.654 -1.23998 0.919992 0
M  V30 2104 H 194.612 -4.08959 -0.355361 0
M  V30 2105 H 193.273 -3.02664 -0.839851 0
M  V30 2106 H 192.466 -5.01854 0.464651 0
M  V30 2107 H 192.068 -3.50377 1.30813 0
M  V30 2108 H 194.36 -6.67232 1.17507 0
M  V30 2109 H 195.303 -6.54841 2.69423 0
M  V30 2110 H 195.711 -5.49073 1.31069 0
M  V30 2111 N 195.109 -0.891671 -1.2995 0
M  V30 2112 C 196.019 -0.367691 -2.31701 0
M  V30 2113 C 197.035 0.533486 -1.6562 0
M  V30 2114 O 198.211 0.424997 -1.96865 0
M  V30 2115 C 195.276 0.403406 -3.44345 0
M  V30 2116 C 194.337 -0.528328 -4.26037 0
M  V30 2117 C 193.57 0.206063 -5.33302 0
M  V30 2118 O 193.793 1.43119 -5.52153 0
M  V30 2119 O 192.727 -0.447281 -6.00236 0
M  V30 2120 H 196.553 -1.21163 -2.78484 0
M  V30 2121 H 194.138 -0.655725 -1.34241 0
M  V30 2122 H 196.02 0.839753 -4.12948 0
M  V30 2123 H 194.695 1.22354 -2.99685 0
M  V30 2124 H 193.602 -1.01362 -3.60106 0
M  V30 2125 H 194.935 -1.31465 -4.74318 0
M  V30 2126 N 196.587 1.43421 -0.653314 0
M  V30 2127 C 197.817 2.05864 -0.174238 0
M  V30 2128 C 198.225 1.49052 1.16534 0
M  V30 2129 O 197.568 0.616481 1.73047 0
M  V30 2130 C 197.63 3.59499 -0.00875873 0
M  V30 2131 C 197.294 4.38893 -1.27364 0
M  V30 2132 C 198.291 4.70947 -2.20239 0
M  V30 2133 C 195.976 4.789 -1.51525 0
M  V30 2134 C 197.97 5.41916 -3.35568 0
M  V30 2135 C 195.657 5.49614 -2.67147 0
M  V30 2136 C 196.655 5.81044 -3.58994 0
M  V30 2137 O 196.343 6.50313 -4.72597 0
M  V30 2138 H 196.075 0.670345 -0.0872549 0
M  V30 2139 H 198.629 1.84913 -0.894226 0
M  V30 2140 H 196.859 3.79025 0.7666 0
M  V30 2141 H 198.548 4.0364 0.427687 0
M  V30 2142 H 199.314 4.40558 -2.02815 0
M  V30 2143 H 195.193 4.53843 -0.809158 0
M  V30 2144 H 198.737 5.66365 -4.07279 0
M  V30 2145 H 194.634 5.79419 -2.84505 0
M  V30 2146 H 195.402 6.68795 -4.71864 0
M  V30 2147 N 198.065 0.39524 1.52563 0
M  V30 2148 C 199.028 -0.425001 2.25225 0
M  V30 2149 C 200.028 -0.985266 1.27079 0
M  V30 2150 O 201.218 -0.866332 1.5113 0
M  V30 2151 C 198.35 -1.59686 3.01186 0
M  V30 2152 H 199.543 0.211233 2.99155 0
M  V30 2153 H 197.096 0.147472 1.55603 0
M  V30 2154 H 197.831 -2.27035 2.31572 0
M  V30 2155 H 197.616 -1.20176 3.73229 0
M  V30 2156 H 199.106 -2.17743 3.5634 0
M  V30 2157 N 199.544 -1.57102 0.125237 0
M  V30 2158 C 200.769 -2.0019 -0.542101 0
M  V30 2159 C 201.194 -1.00449 -1.59034 0
M  V30 2160 O 200.552 0.0229423 -1.81285 0
M  V30 2161 C 200.6 -3.42129 -1.13929 0
M  V30 2162 O 199.704 -3.45307 -2.2547 0
M  V30 2163 H 199.045 -0.650171 -0.134812 0
M  V30 2164 H 201.575 -2.03461 0.215553 0
M  V30 2165 H 201.585 -3.80471 -1.4733 0
M  V30 2166 H 200.26 -4.14237 -0.371531 0
M  V30 2167 H 198.837 -3.1879 -1.93462 0
M  V30 2168 N 201.022 0.148545 -1.56898 0
M  V30 2169 C 201.969 1.18345 -1.98149 0
M  V30 2170 C 202.939 1.42772 -0.848848 0
M  V30 2171 O 204.124 1.55132 -1.11079 0
M  V30 2172 C 201.264 2.51231 -2.36594 0
M  V30 2173 C 200.377 2.33991 -3.63142 0
M  V30 2174 C 199.512 3.59902 -3.90697 0
M  V30 2175 C 198.551 3.37692 -5.1052 0
M  V30 2176 N 197.688 4.5573 -5.34092 0
M  V30 2177 H 202.528 0.82467 -2.86362 0
M  V30 2178 H 200.065 0.395756 -1.41676 0
M  V30 2179 H 202.023 3.28713 -2.56912 0
M  V30 2180 H 200.653 2.85059 -1.51463 0
M  V30 2181 H 199.705 1.47572 -3.50609 0
M  V30 2182 H 201.017 2.13539 -4.5078 0
M  V30 2183 H 200.171 4.45813 -4.11505 0
M  V30 2184 H 198.91 3.83357 -3.01477 0
M  V30 2185 H 197.915 2.5017 -4.89587 0
M  V30 2186 H 199.14 3.15637 -6.0129 0
M  V30 2187 H 197.086 4.79361 -4.47827 0
M  V30 2188 H 197.003 4.38274 -6.15996 0
M  V30 2189 H 198.271 5.42858 -5.59397 0
M  V30 2190 N 202.5 1.5196 0.417844 0
M  V30 2191 C 203.748 1.65263 1.16329 0
M  V30 2192 C 204.069 0.380634 1.91249 0
M  V30 2193 O 203.339 -0.604214 1.86349 0
M  V30 2194 H 201.919 0.60912 0.432414 0
M  V30 2195 H 204.581 1.88969 0.477162 0
M  V30 2196 H 203.677 2.4896 1.88217 0
M  V30 2197 N 203.978 -0.674533 1.42435 0
M  V30 2198 C 204.888 -1.81751 1.48337 0
M  V30 2199 C 205.904 -1.69975 0.372099 0
M  V30 2200 O 207.08 -1.91521 0.62304 0
M  V30 2201 C 204.145 -3.17895 1.38361 0
M  V30 2202 C 203.206 -3.41625 2.59982 0
M  V30 2203 C 202.439 -4.71274 2.50473 0
M  V30 2204 O 202.662 -5.49197 1.54075 0
M  V30 2205 O 201.596 -4.96254 3.4061 0
M  V30 2206 H 205.422 -1.79728 2.44809 0
M  V30 2207 H 203.007 -0.830312 1.24202 0
M  V30 2208 H 204.889 -3.99136 1.35161 0
M  V30 2209 H 203.564 -3.20555 0.450144 0
M  V30 2210 H 202.471 -2.60231 2.68757 0
M  V30 2211 H 203.804 -3.43796 3.52229 0
M  V30 2212 N 205.456 -1.28612 -0.910864 0
M  V30 2213 C 206.386 -1.15326 -2.03032 0
M  V30 2214 C 207.367 -0.0502924 -1.70026 0
M  V30 2215 O 208.552 -0.227797 -1.92859 0
M  V30 2216 C 205.682 -0.817343 -3.37545 0
M  V30 2217 C 204.636 -1.8754 -3.84724 0
M  V30 2218 C 203.962 -1.39305 -5.16235 0
M  V30 2219 C 205.262 -3.28244 -4.06267 0
M  V30 2220 H 206.956 -2.08975 -2.14406 0
M  V30 2221 H 204.502 -1.00612 -1.03021 0
M  V30 2222 H 206.455 -0.711151 -4.15356 0
M  V30 2223 H 205.179 0.154846 -3.26233 0
M  V30 2224 H 203.838 -1.97079 -3.09121 0
M  V30 2225 H 203.486 -0.409846 -5.01328 0
M  V30 2226 H 203.186 -2.10057 -5.48771 0
M  V30 2227 H 204.71 -1.30014 -5.96598 0
M  V30 2228 H 206.124 -3.21611 -4.74594 0
M  V30 2229 H 204.521 -3.96855 -4.5014 0
M  V30 2230 H 205.591 -3.72048 -3.10979 0
M  V30 2231 N 206.934 1.1197 -1.10907 0
M  V30 2232 C 208.164 1.8713 -0.875553 0
M  V30 2233 C 208.572 1.8016 0.577843 0
M  V30 2234 O 207.915 1.17699 1.41042 0
M  V30 2235 C 207.977 3.37005 -1.2517 0
M  V30 2236 C 207.641 3.67748 -2.71313 0
M  V30 2237 C 208.638 3.65698 -3.69542 0
M  V30 2238 C 206.323 3.96928 -3.07821 0
M  V30 2239 C 208.317 3.92395 -5.023 0
M  V30 2240 C 206.004 4.23284 -4.40765 0
M  V30 2241 C 207.002 4.21005 -5.37814 0
M  V30 2242 O 206.69 4.46704 -6.68364 0
M  V30 2243 H 206.422 0.598786 -0.313737 0
M  V30 2244 H 208.976 1.42568 -1.47863 0
M  V30 2245 H 207.206 3.82146 -0.591741 0
M  V30 2246 H 208.895 3.93519 -0.994877 0
M  V30 2247 H 209.661 3.43211 -3.42682 0
M  V30 2248 H 205.54 3.97841 -2.32902 0
M  V30 2249 H 209.084 3.90531 -5.78041 0
M  V30 2250 H 204.981 4.45246 -4.67361 0
M  V30 2251 H 205.749 4.64299 -6.74069 0
M  V30 2252 N 208.412 0.89855 1.29475 0
M  V30 2253 C 209.689 0.443416 1.90508 0
M  V30 2254 C 210.069 -1.07685 1.81569 0
M  V30 2255 O 209.417 -1.9182 1.24166 0
M  V30 2256 C 209.627 0.956708 3.35631 0
M  V30 2257 C 210.975 0.999728 4.12663 0
M  V30 2258 O 211.999 0.904299 3.4453 0
M  V30 2259 O 210.858 1.14289 5.34416 0
M  V30 2260 H 207.952 0.138025 0.815401 0
M  V30 2261 H 210.498 0.98834 1.37949 0
M  V30 2262 H 209.27 2.00067 3.36287 0
M  V30 2263 H 208.893 0.391728 3.95666 0
M  V30 2264 N 209.89 -1.43072 0.660911 0
M  V30 2265 C 211.12 -2.05769 0.185153 0
M  V30 2266 C 211.528 -1.49668 -1.15742 0
M  V30 2267 O 210.871 -0.625649 -1.72717 0
M  V30 2268 C 210.933 -3.59489 0.0278237 0
M  V30 2269 C 210.597 -4.38212 1.2969 0
M  V30 2270 C 211.594 -4.69772 2.22734 0
M  V30 2271 C 209.279 -4.7809 1.54063 0
M  V30 2272 C 211.273 -5.40129 3.38437 0
M  V30 2273 C 208.96 -5.4819 2.70058 0
M  V30 2274 C 209.958 -5.79132 3.62071 0
M  V30 2275 O 209.646 -6.47798 4.76039 0
M  V30 2276 H 209.378 -0.669873 0.0908086 0
M  V30 2277 H 211.932 -1.84436 0.90402 0
M  V30 2278 H 210.162 -3.79426 -0.746489 0
M  V30 2279 H 211.851 -4.03862 -0.406275 0
M  V30 2280 H 212.617 -4.39476 2.05149 0
M  V30 2281 H 208.496 -4.53408 0.833215 0
M  V30 2282 H 212.04 -5.64198 4.10277 0
M  V30 2283 H 207.937 -5.77902 2.87574 0
M  V30 2284 H 208.705 -6.66283 4.75404 0
M  V30 2285 N 211.368 -0.403325 -1.52352 0
M  V30 2286 C 212.617 0.175668 -2.00934 0
M  V30 2287 C 212.93 1.46718 -1.29356 0
M  V30 2288 O 214.136 2.12708 -1.68724 0
M  V30 2289 C 212.592 0.363612 -3.58058 0
M  V30 2290 C 212.2 -0.915472 -4.38547 0
M  V30 2291 C 213.944 0.89821 -4.14888 0
M  V30 2292 C 211.851 -0.695035 -5.87302 0
M  V30 2293 H 210.781 0.0694234 -0.750797 0
M  V30 2294 H 213.432 -0.527879 -1.75743 0
M  V30 2295 H 211.814 1.12935 -3.79555 0
M  V30 2296 H 212.988 -1.68691 -4.28812 0
M  V30 2297 H 211.303 -1.37606 -3.93006 0
M  V30 2298 H 213.9 1.07907 -5.23699 0
M  V30 2299 H 214.243 1.87126 -3.71873 0
M  V30 2300 H 214.776 0.191681 -3.97338 0
M  V30 2301 H 211.515 -1.63948 -6.34666 0
M  V30 2302 H 211.035 0.0372116 -5.99788 0
M  V30 2303 H 212.714 -0.33497 -6.46132 0
M  V30 2304 N 212.846 1.57033 -0.133567 0
M  V30 2305 C 214.071 2.00475 0.531477 0
M  V30 2306 C 214.496 1.01291 1.58499 0
M  V30 2307 O 213.854 -0.0133279 1.81295 0
M  V30 2308 C 213.902 3.42729 1.12113 0
M  V30 2309 O 213.006 3.46498 2.23636 0
M  V30 2310 H 212.347 0.650876 0.131362 0
M  V30 2311 H 214.877 2.03344 -0.22634 0
M  V30 2312 H 214.887 3.81246 1.4531 0
M  V30 2313 H 213.562 4.14428 0.349557 0
M  V30 2314 H 212.139 3.19811 1.91769 0
M  V30 2315 N 214.325 -0.140222 1.56975 0
M  V30 2316 C 215.235 -1.19223 2.02047 0
M  V30 2317 C 216.251 -1.46612 0.937062 0
M  V30 2318 O 217.427 -1.58148 1.24704 0
M  V30 2319 C 214.492 -2.50414 2.39778 0
M  V30 2320 C 213.553 -2.30612 3.621 0
M  V30 2321 C 212.786 -3.55547 3.98023 0
M  V30 2322 O 213.009 -4.62004 3.34528 0
M  V30 2323 O 211.943 -3.47808 4.91237 0
M  V30 2324 H 215.769 -0.839559 2.91865 0
M  V30 2325 H 213.354 -0.349453 1.45256 0
M  V30 2326 H 215.236 -3.27747 2.64877 0
M  V30 2327 H 213.911 -2.85198 1.53114 0
M  V30 2328 H 212.818 -1.51207 3.4218 0
M  V30 2329 H 214.151 -2.00741 4.49404 0
M  V30 2330 N 215.803 -1.52179 -0.40978 0
M  V30 2331 C 217.219 -1.40968 -0.74835 0
M  V30 2332 C 217.419 -0.513657 -1.94843 0
M  V30 2333 O 216.475 0.0208026 -2.52491 0
M  V30 2334 C 217.788 -2.83483 -1.0029 0
M  V30 2335 C 219.336 -2.92821 -1.10565 0
M  V30 2336 C 219.811 -4.36303 -1.39296 0
M  V30 2337 N 221.302 -4.39535 -1.46162 0
M  V30 2338 C 222.037 -5.47614 -1.70018 0
M  V30 2339 N 221.533 -6.65812 -1.91483 0
M  V30 2340 N 223.326 -5.35129 -1.72027 0
M  V30 2341 H 215.477 -2.0897 0.380186 0
M  V30 2342 H 217.74 -0.94185 0.107805 0
M  V30 2343 H 217.446 -3.51168 -0.193461 0
M  V30 2344 H 217.32 -3.24487 -1.92323 0
M  V30 2345 H 219.707 -2.25318 -1.90568 0
M  V30 2346 H 219.788 -2.55276 -0.16369 0
M  V30 2347 H 219.432 -5.04366 -0.598109 0
M  V30 2348 H 219.362 -4.71385 -2.34743 0
M  V30 2349 H 221.853 -3.54332 -1.31367 0
M  V30 2350 H 222.166 -7.43964 -2.09134 0
M  V30 2351 H 220.511 -6.68879 -1.88749 0
M  V30 2352 H 223.702 -4.41764 -1.54796 0
M  V30 2353 H 223.875 -6.19433 -1.9028 0
M  V30 2354 N 217.281 0.66697 -1.42791 0
M  V30 2355 C 218.697 0.981027 -1.25889 0
M  V30 2356 C 218.897 2.00793 -0.168695 0
M  V30 2357 O 217.953 2.48321 0.45747 0
M  V30 2358 C 219.266 1.47838 -2.61848 0
M  V30 2359 C 220.814 1.59575 -2.69267 0
M  V30 2360 C 221.289 2.12704 -4.05612 0
M  V30 2361 N 222.78 2.20026 -4.07606 0
M  V30 2362 C 223.515 2.62227 -5.09926 0
M  V30 2363 N 223.011 3.03824 -6.22626 0
M  V30 2364 N 224.804 2.62045 -4.97281 0
M  V30 2365 H 216.955 -0.0127891 -2.12396 0
M  V30 2366 H 219.218 0.0568258 -0.946295 0
M  V30 2367 H 218.924 0.798299 -3.4252 0
M  V30 2368 H 218.798 2.45579 -2.86305 0
M  V30 2369 H 221.185 2.26687 -1.88936 0
M  V30 2370 H 221.266 0.60302 -2.48591 0
M  V30 2371 H 220.91 1.46198 -4.86404 0
M  V30 2372 H 220.84 3.12782 -4.23645 0
M  V30 2373 H 223.331 1.90708 -3.2625 0
M  V30 2374 H 223.644 3.34734 -6.96544 0
M  V30 2375 H 221.989 3.01662 -6.26119 0
M  V30 2376 H 225.18 2.28916 -4.08308 0
M  V30 2377 H 225.353 2.94613 -5.77154 0
M  V30 2378 N 218.759 1.29093 0.90403 0
M  V30 2379 C 220.175 1.07011 1.1841 0
M  V30 2380 C 220.375 -0.181358 2.00682 0
M  V30 2381 O 219.431 -0.880331 2.36657 0
M  V30 2382 C 220.744 2.32311 1.90924 0
M  V30 2383 C 222.292 2.37587 2.03768 0
M  V30 2384 C 222.767 3.62679 2.79693 0
M  V30 2385 N 224.258 3.63376 2.87249 0
M  V30 2386 C 224.993 4.56848 3.46522 0
M  V30 2387 N 224.489 5.60648 4.06996 0
M  V30 2388 N 226.282 4.44426 3.44154 0
M  V30 2389 H 218.433 2.09412 0.354993 0
M  V30 2390 H 220.696 0.922181 0.219742 0
M  V30 2391 H 220.402 3.23536 1.37905 0
M  V30 2392 H 220.276 2.39483 2.91424 0
M  V30 2393 H 222.663 1.46853 2.55965 0
M  V30 2394 H 222.744 2.34403 1.02415 0
M  V30 2395 H 222.388 4.53762 2.28173 0
M  V30 2396 H 222.318 3.63119 3.81381 0
M  V30 2397 H 224.809 2.88321 2.44293 0
M  V30 2398 H 225.122 6.28101 4.50232 0
M  V30 2399 H 223.467 5.64463 4.05471 0
M  V30 2400 H 226.658 3.62529 2.96126 0
M  V30 2401 H 226.831 5.17457 3.90054 0
M  V30 2402 N 220.237 -1.11381 1.11499 0
M  V30 2403 C 221.167 -2.19509 0.796125 0
M  V30 2404 C 222.148 -1.68458 -0.235796 0
M  V30 2405 O 223.333 -1.93947 -0.0991344 0
M  V30 2406 C 220.463 -3.46475 0.239205 0
M  V30 2407 C 219.417 -4.10744 1.20307 0
M  V30 2408 C 218.743 -5.32293 0.50683 0
M  V30 2409 C 220.043 -4.55597 2.55399 0
M  V30 2410 H 221.737 -2.46439 1.70024 0
M  V30 2411 H 219.283 -1.18446 0.818935 0
M  V30 2412 H 221.236 -4.214 0.00392006 0
M  V30 2413 H 219.96 -3.19006 -0.700206 0
M  V30 2414 H 218.619 -3.37813 1.42399 0
M  V30 2415 H 218.267 -5.01095 -0.437408 0
M  V30 2416 H 217.967 -5.76243 1.1497 0
M  V30 2417 H 219.491 -6.09956 0.280351 0
M  V30 2418 H 220.905 -5.21841 2.37391 0
M  V30 2419 H 219.302 -5.10363 3.15673 0
M  V30 2420 H 220.372 -3.69013 3.14575 0
M  V30 2421 N 221.715 -0.905404 -1.28997 0
M  V30 2422 C 222.94 -0.549175 -1.99997 0
M  V30 2423 C 223.365 0.860276 -1.67275 0
M  V30 2424 O 222.723 1.57355 -0.900502 0
M  V30 2425 C 222.771 -0.755185 -3.52604 0
M  V30 2426 O 221.875 0.189692 -4.11964 0
M  V30 2427 H 221.216 -0.213899 -0.628604 0
M  V30 2428 H 223.746 -1.21856 -1.64354 0
M  V30 2429 H 223.756 -0.662045 -4.02593 0
M  V30 2430 H 222.431 -1.78271 -3.75755 0
M  V30 2431 H 221.008 0.0485257 -3.72868 0
M  V30 2432 N 223.193 1.4272 -0.668489 0
M  V30 2433 C 224.103 2.34596 0.0139753 0
M  V30 2434 C 225.119 1.5474 0.795703 0
M  V30 2435 O 226.295 1.87334 0.739466 0
M  V30 2436 C 223.36 3.33202 0.957982 0
M  V30 2437 C 222.421 4.28957 0.17149 0
M  V30 2438 C 221.654 5.22853 1.07053 0
M  V30 2439 O 221.877 5.21531 2.31001 0
M  V30 2440 O 220.811 5.9952 0.534727 0
M  V30 2441 H 224.637 2.9448 -0.742661 0
M  V30 2442 H 222.222 1.43117 -0.428705 0
M  V30 2443 H 224.104 3.93796 1.50008 0
M  V30 2444 H 222.779 2.758 1.69458 0
M  V30 2445 H 221.686 3.71796 -0.414558 0
M  V30 2446 H 223.019 4.89383 -0.52586 0
M  V30 2447 N 224.671 0.411399 1.52136 0
M  V30 2448 C 226.087 0.0623865 1.59478 0
M  V30 2449 C 226.287 -1.42554 1.4241 0
M  V30 2450 O 225.343 -2.19263 1.2522 0
M  V30 2451 C 226.656 0.559331 2.95452 0
M  V30 2452 C 228.204 0.517503 3.08692 0
M  V30 2453 C 228.679 0.990994 4.4715 0
M  V30 2454 N 230.17 0.947908 4.53397 0
M  V30 2455 C 230.905 1.28544 5.58806 0
M  V30 2456 N 230.401 1.69454 6.71757 0
M  V30 2457 N 232.194 1.20526 5.49026 0
M  V30 2458 H 224.345 1.37982 1.61477 0
M  V30 2459 H 226.608 0.566977 0.759764 0
M  V30 2460 H 226.314 1.59938 3.1323 0
M  V30 2461 H 226.188 -0.0298014 3.77188 0
M  V30 2462 H 228.575 -0.513505 2.90598 0
M  V30 2463 H 228.656 1.14272 2.28857 0
M  V30 2464 H 228.3 2.02034 4.65988 0
M  V30 2465 H 228.23 0.34257 5.25485 0
M  V30 2466 H 230.721 0.647157 3.72317 0
M  V30 2467 H 231.034 1.93513 7.48179 0
M  V30 2468 H 229.379 1.73359 6.73032 0
M  V30 2469 H 232.57 0.884505 4.59667 0
M  V30 2470 H 232.743 1.47161 6.31069 0
M  V30 2471 N 226.149 -1.5696 0.141893 0
M  V30 2472 C 227.059 -2.20066 -0.812905 0
M  V30 2473 C 228.075 -1.18344 -1.27557 0
M  V30 2474 O 229.251 -1.50902 -1.33381 0
M  V30 2475 C 226.316 -2.80583 -2.03652 0
M  V30 2476 C 225.377 -3.97414 -1.62359 0
M  V30 2477 C 224.61 -4.55036 -2.78887 0
M  V30 2478 O 224.833 -4.11538 -3.94959 0
M  V30 2479 O 223.767 -5.45376 -2.54653 0
M  V30 2480 H 227.593 -3.02157 -0.305746 0
M  V30 2481 H 225.178 -1.49159 -0.0848799 0
M  V30 2482 H 227.06 -3.19067 -2.75272 0
M  V30 2483 H 225.735 -2.01508 -2.5333 0
M  V30 2484 H 224.642 -3.63656 -0.877775 0
M  V30 2485 H 225.975 -4.77994 -1.17401 0
M  V30 2486 N 227.627 0.131896 -1.57047 0
M  V30 2487 C 228.855 0.856461 -1.88341 0
M  V30 2488 C 229.27 1.74042 -0.731757 0
M  V30 2489 O 228.627 1.80051 0.297945 0
M  V30 2490 C 228.678 1.70064 -3.18999 0
M  V30 2491 O 228.399 0.852278 -4.2973 0
M  V30 2492 C 229.9 2.53148 -3.63911 0
M  V30 2493 H 227.12 0.246885 -0.62393 0
M  V30 2494 H 229.664 0.120152 -2.04147 0
M  V30 2495 H 227.819 2.38984 -3.04902 0
M  V30 2496 H 228.233 1.43329 -5.04537 0
M  V30 2497 H 229.707 3.07931 -4.58129 0
M  V30 2498 H 230.184 3.29901 -2.89935 0
M  V30 2499 H 230.79 1.89492 -3.80753 0
M  V30 2500 N 229.106 1.52395 0.401703 0
M  V30 2501 C 230.522 1.41363 0.740864 0
M  V30 2502 C 230.722 0.523982 1.94568 0
M  V30 2503 O 229.778 -0.00741204 2.52499 0
M  V30 2504 C 231.091 2.84011 0.987847 0
M  V30 2505 C 232.639 2.93404 1.09011 0
M  V30 2506 C 233.114 4.37036 1.3698 0
M  V30 2507 N 234.605 4.40304 1.43829 0
M  V30 2508 C 235.34 5.48508 1.67112 0
M  V30 2509 N 234.836 6.66819 1.87949 0
M  V30 2510 N 236.629 5.36034 1.69187 0
M  V30 2511 H 228.78 2.08765 -0.391262 0
M  V30 2512 H 231.043 0.941265 -0.112798 0
M  V30 2513 H 230.749 3.51265 0.174835 0
M  V30 2514 H 230.623 3.25502 1.906 0
M  V30 2515 H 233.01 2.26325 1.8937 0
M  V30 2516 H 233.091 2.55359 0.15015 0
M  V30 2517 H 232.735 5.04676 0.571353 0
M  V30 2518 H 232.665 4.72623 2.3224 0
M  V30 2519 H 235.156 3.55024 1.29486 0
M  V30 2520 H 235.469 7.45063 2.05185 0
M  V30 2521 H 233.814 6.6987 1.85199 0
M  V30 2522 H 237.005 4.42579 1.52451 0
M  V30 2523 H 237.178 6.20434 1.86993 0
M  V30 2524 N 230.584 -0.659388 1.43143 0
M  V30 2525 C 231.534 -1.7655 1.44271 0
M  V30 2526 C 232.518 -1.57847 0.311961 0
M  V30 2527 O 233.71 -1.68064 0.555306 0
M  V30 2528 C 230.839 -3.15104 1.36251 0
M  V30 2529 C 229.925 -3.39377 2.54331 0
M  V30 2530 N 230.316 -3.34153 3.79704 0
M  V30 2531 C 228.614 -3.70072 2.48922 0
M  V30 2532 C 229.315 -3.58337 4.58225 0
M  V30 2533 N 228.291 -3.79851 3.88863 0
M  V30 2534 H 232.093 -1.70928 2.39083 0
M  V30 2535 H 229.607 -0.860823 1.37708 0
M  V30 2536 H 231.604 -3.94389 1.35141 0
M  V30 2537 H 230.264 -3.21913 0.424531 0
M  V30 2538 H 231.275 -3.13704 4.1208 0
M  V30 2539 H 227.952 -3.84034 1.63781 0
M  V30 2540 H 229.342 -3.60129 5.67236 0
M  V30 2541 N 232.062 -1.29571 -0.897171 0
M  V30 2542 C 233.309 -1.17689 -1.6479 0
M  V30 2543 C 233.637 0.27107 -1.92602 0
M  V30 2544 O 232.892 1.21193 -1.53658 0
M  V30 2545 C 233.191 -1.9382 -3.00281 0
M  V30 2546 C 232.857 -3.43522 -2.92068 0
M  V30 2547 C 231.519 -3.84348 -2.89535 0
M  V30 2548 C 233.871 -4.38906 -2.81089 0
M  V30 2549 C 231.199 -5.18869 -2.73846 0
M  V30 2550 C 233.551 -5.73521 -2.66939 0
M  V30 2551 C 232.215 -6.13601 -2.62774 0
M  V30 2552 H 231.485 -0.430654 -0.603008 0
M  V30 2553 H 234.132 -1.60536 -1.04404 0
M  V30 2554 H 232.437 -1.4357 -3.64547 0
M  V30 2555 H 234.134 -1.82028 -3.57305 0
M  V30 2556 H 230.724 -3.11072 -2.94842 0
M  V30 2557 H 234.908 -4.08315 -2.82121 0
M  V30 2558 H 230.164 -5.4903 -2.69027 0
M  V30 2559 H 234.338 -6.47078 -2.57416 0
M  V30 2560 H 231.965 -7.17786 -2.50375 0
M  V30 2561 N 233.54 1.10788 -1.12088 0
M  V30 2562 C 234.787 1.82671 -0.873931 0
M  V30 2563 C 235.115 1.85004 0.600311 0
M  V30 2564 O 234.37 1.30365 1.45957 0
M  V30 2565 C 234.669 3.29294 -1.38926 0
M  V30 2566 C 234.335 3.47113 -2.87791 0
M  V30 2567 C 232.997 3.51684 -3.28439 0
M  V30 2568 C 235.349 3.52808 -3.83635 0
M  V30 2569 C 232.677 3.59513 -4.63646 0
M  V30 2570 C 235.029 3.62169 -5.18668 0
M  V30 2571 C 233.693 3.65003 -5.58864 0
M  V30 2572 H 232.963 0.668441 -0.319794 0
M  V30 2573 H 235.61 1.30613 -1.40045 0
M  V30 2574 H 233.915 3.83894 -0.783122 0
M  V30 2575 H 235.612 3.83416 -1.17443 0
M  V30 2576 H 232.202 3.4423 -2.5535 0
M  V30 2577 H 236.386 3.4853 -3.53328 0
M  V30 2578 H 231.642 3.59987 -4.94185 0
M  V30 2579 H 235.816 3.6552 -5.92763 0
M  V30 2580 H 233.443 3.70822 -6.63623 0
M  V30 2581 N 235.018 0.912232 1.28515 0
M  V30 2582 C 236.434 0.610159 1.47476 0
M  V30 2583 C 236.634 -0.844955 1.82928 0
M  V30 2584 O 235.69 -1.62416 1.93332 0
M  V30 2585 C 237.003 1.54675 2.57868 0
M  V30 2586 C 238.551 1.55331 2.71738 0
M  V30 2587 C 239.026 2.47649 3.85272 0
M  V30 2588 N 240.517 2.45767 3.92623 0
M  V30 2589 C 241.252 3.13896 4.79851 0
M  V30 2590 N 240.748 3.9135 5.71679 0
M  V30 2591 N 242.541 3.02991 4.73448 0
M  V30 2592 H 234.692 1.85318 1.03783 0
M  V30 2593 H 236.955 0.794777 0.516753 0
M  V30 2594 H 236.661 2.5841 2.38574 0
M  V30 2595 H 236.535 1.27671 3.54937 0
M  V30 2596 H 238.922 0.52335 2.90422 0
M  V30 2597 H 239.003 1.86378 1.75205 0
M  V30 2598 H 238.647 3.50745 3.67342 0
M  V30 2599 H 238.577 2.13904 4.81199 0
M  V30 2600 H 241.068 1.89503 3.26951 0
M  V30 2601 H 241.381 4.40359 6.35062 0
M  V30 2602 H 239.726 3.95455 5.71524 0
M  V30 2603 H 242.917 2.41987 4.007 0
M  V30 2604 H 243.09 3.5636 5.41213 0
M  V30 2605 N 236.496 -1.42363 0.676048 0
M  V30 2606 C 237.428 -2.29164 -0.0404605 0
M  V30 2607 C 238.441 -1.43747 -0.764245 0
M  V30 2608 O 239.63 -1.67453 -0.618195 0
M  V30 2609 C 236.73 -3.21196 -1.08103 0
M  V30 2610 C 235.903 -4.35273 -0.430812 0
M  V30 2611 C 234.962 -5.08017 -1.37133 0
M  V30 2612 O 233.988 -5.62494 -0.87116 0
M  V30 2613 N 235.19 -5.13647 -2.70456 0
M  V30 2614 H 237.955 -2.91298 0.704667 0
M  V30 2615 H 235.516 -1.53303 0.520559 0
M  V30 2616 H 237.508 -3.66728 -1.71152 0
M  V30 2617 H 236.078 -2.60505 -1.72788 0
M  V30 2618 H 235.298 -3.92372 0.379209 0
M  V30 2619 H 236.586 -5.08795 0.0221132 0
M  V30 2620 H 235.984 -4.708 -3.1363 0
M  V30 2621 H 234.541 -5.62821 -3.28749 0
M  V30 2622 N 237.974 -0.419461 -1.51915 0
M  V30 2623 C 239.223 0.154346 -2.01109 0
M  V30 2624 C 239.536 1.45338 -1.30905 0
M  V30 2625 O 240.742 2.10906 -1.7097 0
M  V30 2626 C 239.198 0.325615 -3.58424 0
M  V30 2627 C 238.806 -0.961934 -4.37551 0
M  V30 2628 C 240.55 0.854155 -4.15818 0
M  V30 2629 C 238.457 -0.757287 -5.86531 0
M  V30 2630 H 237.387 0.0614563 -0.751491 0
M  V30 2631 H 240.038 -0.54649 -1.75173 0
M  V30 2632 H 238.42 1.08903 -3.80731 0
M  V30 2633 H 239.594 -1.7323 -4.26999 0
M  V30 2634 H 237.909 -1.41766 -3.91524 0
M  V30 2635 H 240.506 1.02346 -5.24814 0
M  V30 2636 H 240.849 1.83172 -3.73837 0
M  V30 2637 H 241.382 0.149528 -3.97519 0
M  V30 2638 H 238.121 -1.70671 -6.32892 0
M  V30 2639 H 237.641 -0.0264061 -5.99794 0
M  V30 2640 H 239.32 -0.403482 -6.45741 0
M  V30 2641 N 239.452 1.56882 -0.150215 0
M  V30 2642 C 240.698 1.96518 0.500834 0
M  V30 2643 C 241.031 1.03527 1.64304 0
M  V30 2644 O 240.306 0.0782751 1.94342 0
M  V30 2645 C 240.589 3.45822 1.00395 0
M  V30 2646 C 240.442 4.49591 -0.136983 0
M  V30 2647 C 241.761 3.97704 1.88467 0
M  V30 2648 H 238.88 0.714535 0.18058 0
M  V30 2649 H 241.522 1.88577 -0.232091 0
M  V30 2650 H 239.672 3.5272 1.62851 0
M  V30 2651 H 241.344 4.5477 -0.77343 0
M  V30 2652 H 239.587 4.26441 -0.795652 0
M  V30 2653 H 240.258 5.51402 0.256815 0
M  V30 2654 H 242.734 3.93304 1.35834 0
M  V30 2655 H 241.61 5.0263 2.20578 0
M  V30 2656 H 241.871 3.40252 2.82279 0
M  V30 2657 N 240.93 -0.123565 1.57115 0
M  V30 2658 C 242.155 -0.850398 1.89164 0
M  V30 2659 C 242.58 -1.7286 0.741688 0
M  V30 2660 O 241.938 -1.78665 -0.307958 0
M  V30 2661 C 241.986 -1.66353 3.19936 0
M  V30 2662 O 241.09 -2.77004 3.0552 0
M  V30 2663 H 240.431 -0.235454 0.620852 0
M  V30 2664 H 242.961 -0.107335 2.04318 0
M  V30 2665 H 242.971 -2.05372 3.52543 0
M  V30 2666 H 241.646 -1.01881 4.03228 0
M  V30 2667 H 240.223 -2.41221 2.84371 0
M  V30 2668 N 242.408 -1.52605 -0.393616 0
M  V30 2669 C 243.371 -1.76415 -1.46323 0
M  V30 2670 C 244.371 -0.634126 -1.47768 0
M  V30 2671 O 245.561 -0.902142 -1.4902 0
M  V30 2672 C 242.693 -1.8607 -2.85641 0
M  V30 2673 H 243.886 -2.71916 -1.26498 0
M  V30 2674 H 241.439 -1.43257 -0.625073 0
M  V30 2675 H 242.174 -0.925378 -3.10817 0
M  V30 2676 H 241.959 -2.68235 -2.85993 0
M  V30 2677 H 243.449 -2.06179 -3.63153 0
M  V30 2678 N 243.887 0.651787 -1.4349 0
M  V30 2679 C 245.133 1.41376 -1.45398 0
M  V30 2680 C 245.466 1.94041 -0.0784823 0
M  V30 2681 O 244.741 1.72379 0.900878 0
M  V30 2682 C 245.024 2.59414 -2.49752 0
M  V30 2683 C 244.877 2.12232 -3.96582 0
M  V30 2684 C 246.196 3.61626 -2.50827 0
M  V30 2685 H 243.315 0.512719 -0.529422 0
M  V30 2686 H 245.957 0.738796 -1.75048 0
M  V30 2687 H 244.107 3.16997 -2.246 0
M  V30 2688 H 245.779 1.59639 -4.32797 0
M  V30 2689 H 244.022 1.43592 -4.09346 0
M  V30 2690 H 244.693 2.9712 -4.65214 0
M  V30 2691 H 247.169 3.13805 -2.7325 0
M  V30 2692 H 246.045 4.41766 -3.25783 0
M  V30 2693 H 246.306 4.14314 -1.5426 0
M  V30 2694 N 245.365 1.30045 0.890287 0
M  V30 2695 C 246.315 1.12592 1.9826 0
M  V30 2696 C 247.299 0.0426021 1.60844 0
M  V30 2697 O 248.491 0.265346 1.75 0
M  V30 2698 C 245.62 0.814301 3.33503 0
M  V30 2699 C 244.706 1.93761 3.7725 0
M  V30 2700 N 245.097 3.18232 3.93143 0
M  V30 2701 C 243.395 1.83277 4.06602 0
M  V30 2702 C 244.096 3.9158 4.30163 0
M  V30 2703 N 243.072 3.19591 4.3973 0
M  V30 2704 H 246.874 2.07003 2.08631 0
M  V30 2705 H 244.388 1.21307 1.07974 0
M  V30 2706 H 246.385 0.67029 4.11476 0
M  V30 2707 H 245.045 -0.121797 3.24471 0
M  V30 2708 H 246.056 3.53581 3.78419 0
M  V30 2709 H 242.733 0.97001 4.06075 0
M  V30 2710 H 244.123 4.98744 4.50226 0
M  V30 2711 N 246.843 -1.10192 1.12674 0
M  V30 2712 C 248.073 -1.85713 0.905213 0
M  V30 2713 C 248.481 -1.81056 -0.549108 0
M  V30 2714 O 247.824 -1.19927 -1.39151 0
M  V30 2715 C 247.886 -3.34972 1.30516 0
M  V30 2716 C 247.55 -3.63385 2.77129 0
M  V30 2717 C 248.547 -3.59772 3.75313 0
M  V30 2718 C 246.232 -3.91981 3.14096 0
M  V30 2719 C 248.226 -3.84354 5.08479 0
M  V30 2720 C 245.913 -4.16218 4.47443 0
M  V30 2721 C 246.911 -4.12395 5.44444 0
M  V30 2722 O 246.599 -4.36014 6.75387 0
M  V30 2723 H 246.331 -0.593719 0.323223 0
M  V30 2724 H 248.885 -1.40198 1.50112 0
M  V30 2725 H 247.115 -3.81156 0.652463 0
M  V30 2726 H 248.804 -3.91886 1.05736 0
M  V30 2727 H 249.57 -3.37716 3.48099 0
M  V30 2728 H 245.449 -3.94085 2.39202 0
M  V30 2729 H 248.993 -3.81285 5.84181 0
M  V30 2730 H 244.89 -4.37754 4.74386 0
M  V30 2731 H 245.658 -4.53516 6.8137 0
M  V30 2732 N 248.321 -0.919034 -1.28029 0
M  V30 2733 C 249.561 -0.562107 -1.96519 0
M  V30 2734 C 249.925 0.878784 -1.70708 0
M  V30 2735 O 251.126 1.34355 -2.32813 0
M  V30 2736 C 249.397 -0.868953 -3.46676 0
M  V30 2737 S 250.956 -0.619237 -4.34409 0
M  V30 2738 H 247.774 -0.2078 -0.679956 0
M  V30 2739 H 250.376 -1.18562 -1.55446 0
M  V30 2740 H 249.08 -1.91547 -3.62957 0
M  V30 2741 H 248.611 -0.234301 -3.92702 0
M  V30 2742 H 250.626 0.526995 -4.93394 0
M  V30 2743 N 249.799 1.42003 -0.683588 0
M  V30 2744 C 250.749 2.27997 0.0121992 0
M  V30 2745 C 251.733 1.4156 0.764822 0
M  V30 2746 O 252.925 1.64935 0.642287 0
M  V30 2747 C 250.054 3.29706 0.956482 0
M  V30 2748 C 249.14 4.23625 0.200739 0
M  V30 2749 N 249.531 4.99448 -0.799087 0
M  V30 2750 C 247.829 4.43845 0.437937 0
M  V30 2751 C 248.53 5.68102 -1.25041 0
M  V30 2752 N 247.506 5.40511 -0.578648 0
M  V30 2753 H 251.308 2.84048 -0.754564 0
M  V30 2754 H 248.822 1.54071 -0.513398 0
M  V30 2755 H 250.819 3.90124 1.47 0
M  V30 2756 H 249.479 2.75216 1.72297 0
M  V30 2757 H 250.49 5.04303 -1.17893 0
M  V30 2758 H 247.167 4.00382 1.18325 0
M  V30 2759 H 248.557 6.38913 -2.07942 0
M  V30 2760 N 251.277 0.427512 1.51691 0
M  V30 2761 C 252.224 -0.388867 2.275 0
M  V30 2762 C 253.194 -1.02532 1.30677 0
M  V30 2763 O 254.379 -1.0461 1.59566 0
M  V30 2764 C 251.519 -1.48954 3.11298 0
M  V30 2765 C 250.632 -0.872194 4.23104 0
M  V30 2766 C 249.767 -1.94709 4.94228 0
M  V30 2767 C 248.806 -1.30766 5.97969 0
M  V30 2768 N 247.943 -2.32349 6.62539 0
M  V30 2769 H 252.783 0.263997 2.96828 0
M  V30 2770 H 250.32 0.142033 1.46413 0
M  V30 2771 H 252.278 -2.13887 3.58201 0
M  V30 2772 H 250.908 -2.11217 2.44105 0
M  V30 2773 H 249.96 -0.111419 3.80237 0
M  V30 2774 H 251.272 -0.365264 4.97461 0
M  V30 2775 H 250.426 -2.67327 5.44629 0
M  V30 2776 H 249.165 -2.48773 4.1948 0
M  V30 2777 H 248.17 -0.566902 5.4687 0
M  V30 2778 H 249.395 -0.774483 6.74669 0
M  V30 2779 H 247.341 -2.85511 5.90609 0
M  V30 2780 H 247.258 -1.8652 7.3263 0
M  V30 2781 H 248.526 -3.04481 7.17574 0
M  V30 2782 N 252.755 -1.56801 0.158532 0
M  V30 2783 C 253.703 -2.18638 -0.793729 0
M  V30 2784 C 254.697 -1.14669 -1.24689 0
M  V30 2785 O 255.903 -1.32895 -1.21403 0
M  V30 2786 H 252.278 -0.700226 -0.274204 0
M  V30 2787 H 254.249 -2.97367 -0.248095 0
M  V30 2788 C 252.998 -2.83139 -2.0181 0
M  V30 2789 H 252.321 -3.62863 -1.67841 0
M  V30 2790 H 253.761 -3.29894 -2.66357 0
M  V30 2791 C 252.22 -1.82244 -2.83353 0
M  V30 2792 O 252.75 -1.3 -3.80083 0
M  V30 2793 N 250.956 -1.51288 -2.48114 0
M  V30 2794 H 250.503 -1.93964 -1.69516 0
M  V30 2795 H 250.461 -0.840296 -3.02963 0
M  V30 2796 N 254.233 0.115231 -1.57178 0
M  V30 2797 C 255.481 0.820727 -1.84685 0
M  V30 2798 C 255.802 1.80237 -0.744279 0
M  V30 2799 O 255.072 1.94529 0.231375 0
M  V30 2800 H 253.652 0.306084 -0.681411 0
M  V30 2801 H 256.314 0.101656 -1.94635 0
M  V30 2802 H 255.41 1.36366 -2.80733 0
M  V30 2803 N 255.711 1.52812 0.385517 0
M  V30 2804 C 256.957 1.68275 1.13188 0
M  V30 2805 C 257.29 0.423179 1.89533 0
M  V30 2806 O 256.565 -0.579113 1.85679 0
M  V30 2807 C 256.848 2.92001 2.1073 0
M  V30 2808 C 256.701 4.28067 1.38125 0
M  V30 2809 C 258.02 3.11283 3.11113 0
M  V30 2810 H 255.139 0.612352 0.410115 0
M  V30 2811 H 257.781 1.85415 0.414869 0
M  V30 2812 H 255.931 2.77519 2.71874 0
M  V30 2813 H 257.603 4.54324 0.799187 0
M  V30 2814 H 255.846 4.28388 0.683092 0
M  V30 2815 H 256.517 5.10733 2.09417 0
M  V30 2816 H 258.993 3.2482 2.6006 0
M  V30 2817 H 257.869 3.99325 3.76605 0
M  V30 2818 H 258.13 2.25656 3.80173 0
M  V30 2819 N 257.189 -0.644168 1.43834 0
M  V30 2820 C 258.435 -1.40603 1.46146 0
M  V30 2821 C 258.768 -1.93997 0.0887717 0
M  V30 2822 O 258.043 -1.72854 -0.891724 0
M  V30 2823 C 258.326 -2.58086 2.51124 0
M  V30 2824 C 258.179 -2.10126 3.97702 0
M  V30 2825 C 259.498 -3.60291 2.52742 0
M  V30 2826 H 256.617 -0.509905 0.532134 0
M  V30 2827 H 259.259 -0.729502 1.75437 0
M  V30 2828 H 257.409 -3.15801 2.26278 0
M  V30 2829 H 259.081 -1.57342 4.33637 0
M  V30 2830 H 257.324 -1.41419 4.10101 0
M  V30 2831 H 257.995 -2.94649 4.66783 0
M  V30 2832 H 260.471 -3.12352 2.7491 0
M  V30 2833 H 259.347 -4.40032 3.28121 0
M  V30 2834 H 259.608 -4.1349 1.56455 0
M  V30 2835 N 258.668 -1.30515 -0.883378 0
M  V30 2836 C 259.618 -1.13641 -1.9766 0
M  V30 2837 C 260.602 -0.0511314 -1.60819 0
M  V30 2838 O 261.794 -0.274623 -1.74857 0
M  V30 2839 C 258.923 -0.831976 -3.33066 0
M  V30 2840 C 258.009 -1.95759 -3.76217 0
M  V30 2841 N 258.4 -3.20313 -3.9145 0
M  V30 2842 C 256.698 -1.85431 -4.05625 0
M  V30 2843 C 257.399 -3.93856 -4.2808 0
M  V30 2844 N 256.375 -3.21919 -4.38029 0
M  V30 2845 H 260.177 -2.08106 -2.07531 0
M  V30 2846 H 257.691 -1.21877 -1.0733 0
M  V30 2847 H 259.688 -0.692102 -4.11115 0
M  V30 2848 H 258.348 0.104588 -3.24532 0
M  V30 2849 H 259.359 -3.55583 -3.76538 0
M  V30 2850 H 256.036 -0.991531 -4.05555 0
M  V30 2851 H 257.426 -5.01125 -4.47575 0
M  V30 2852 N 260.146 1.09593 -1.13257 0
M  V30 2853 C 261.562 1.33775 -0.870423 0
M  V30 2854 C 261.762 1.95327 0.494926 0
M  V30 2855 O 260.818 2.19853 1.2418 0
M  V30 2856 C 262.131 2.25106 -1.99369 0
M  V30 2857 C 263.679 2.3862 -2.02558 0
M  V30 2858 C 264.154 3.33285 -3.14142 0
M  V30 2859 N 265.645 3.40857 -3.13641 0
M  V30 2860 C 266.38 4.14101 -3.96621 0
M  V30 2861 N 265.876 4.90157 -4.8961 0
M  V30 2862 N 267.669 4.09808 -3.84726 0
M  V30 2863 H 259.82 0.680136 -2.01216 0
M  V30 2864 H 262.083 0.362133 -0.876107 0
M  V30 2865 H 261.789 1.87103 -2.97801 0
M  V30 2866 H 261.663 3.25481 -1.90635 0
M  V30 2867 H 264.05 2.75887 -1.0474 0
M  V30 2868 H 264.131 1.38028 -2.15364 0
M  V30 2869 H 263.775 2.96741 -4.12198 0
M  V30 2870 H 263.705 4.33776 -2.98574 0
M  V30 2871 H 266.196 2.86624 -2.46282 0
M  V30 2872 H 266.509 5.4347 -5.49418 0
M  V30 2873 H 264.854 4.89251 -4.93617 0
M  V30 2874 H 268.045 3.4949 -3.11408 0
M  V30 2875 H 268.218 4.66629 -4.49623 0
M  V30 2876 N 261.624 0.925811 1.2754 0
M  V30 2877 C 262.901 0.483726 1.89524 0
M  V30 2878 C 263.281 -1.03809 1.83812 0
M  V30 2879 O 262.629 -1.89143 1.28207 0
M  V30 2880 C 262.839 1.02769 3.33526 0
M  V30 2881 C 264.187 1.08703 4.10449 0
M  V30 2882 O 265.211 0.977175 3.42534 0
M  V30 2883 O 264.07 1.25599 5.31871 0
M  V30 2884 H 261.164 0.15529 0.812289 0
M  V30 2885 H 263.71 1.01738 1.35822 0
M  V30 2886 H 262.482 2.07155 3.31967 0
M  V30 2887 H 262.105 0.475567 3.94746 0
M  V30 2888 N 263.102 -1.41638 0.69111 0
M  V30 2889 C 264.032 -2.3347 0.037248 0
M  V30 2890 C 265.013 -1.51575 -0.771947 0
M  V30 2891 O 266.198 -1.80126 -0.72582 0
M  V30 2892 C 263.328 -3.35354 -0.903064 0
M  V30 2893 C 262.282 -4.27526 -0.201288 0
M  V30 2894 C 261.608 -5.19747 -1.25565 0
M  V30 2895 C 262.908 -5.13959 0.929689 0
M  V30 2896 H 264.602 -2.88397 0.804227 0
M  V30 2897 H 262.148 -1.38669 0.388189 0
M  V30 2898 H 264.101 -3.98519 -1.36969 0
M  V30 2899 H 262.825 -2.78767 -1.70166 0
M  V30 2900 H 261.484 -3.65779 0.245265 0
M  V30 2901 H 261.132 -4.59479 -2.04666 0
M  V30 2902 H 260.832 -5.8225 -0.791128 0
M  V30 2903 H 262.356 -5.85789 -1.72288 0
M  V30 2904 H 263.77 -5.70718 0.543546 0
M  V30 2905 H 262.167 -5.85379 1.32103 0
M  V30 2906 H 263.237 -4.51389 1.77133 0
M  V30 2907 N 264.58 -0.43555 -1.51462 0
M  V30 2908 C 265.527 0.376797 -2.27703 0
M  V30 2909 C 266.497 1.01838 -1.31219 0
M  V30 2910 O 267.682 1.03762 -1.60119 0
M  V30 2911 C 264.822 1.47301 -3.12084 0
M  V30 2912 C 263.935 0.849744 -4.2356 0
M  V30 2913 C 263.07 1.92086 -4.95254 0
M  V30 2914 C 262.109 1.27593 -5.98654 0
M  V30 2915 N 261.246 2.28833 -6.63762 0
M  V30 2916 H 266.086 -0.279734 -2.96684 0
M  V30 2917 H 263.623 -0.149795 -1.46335 0
M  V30 2918 H 265.581 2.11984 -3.59331 0
M  V30 2919 H 264.211 2.0992 -2.45221 0
M  V30 2920 H 263.263 0.0912529 -3.80291 0
M  V30 2921 H 264.575 0.338878 -4.97648 0
M  V30 2922 H 263.729 2.64435 -5.46039 0
M  V30 2923 H 262.468 2.46545 -4.20793 0
M  V30 2924 H 261.473 0.537893 -5.47162 0
M  V30 2925 H 262.698 0.738693 -6.7507 0
M  V30 2926 H 260.644 2.82375 -5.92115 0
M  V30 2927 H 260.561 1.82632 -7.33608 0
M  V30 2928 H 261.829 3.00671 -7.19178 0
M  V30 2929 N 266.058 1.56714 -0.166846 0
M  V30 2930 C 266.988 2.20754 0.760913 0
M  V30 2931 C 267.969 1.16178 1.24244 0
M  V30 2932 O 269.154 1.44592 1.29641 0
M  V30 2933 C 266.284 2.84478 1.99223 0
M  V30 2934 C 265.238 3.95053 1.64672 0
M  V30 2935 C 264.564 4.45805 2.95232 0
M  V30 2936 C 265.864 5.14865 0.878155 0
M  V30 2937 H 267.558 2.98537 0.22713 0
M  V30 2938 H 265.104 1.43596 0.107805 0
M  V30 2939 H 267.057 3.27951 2.64624 0
M  V30 2940 H 265.781 2.04056 2.55007 0
M  V30 2941 H 264.44 3.52228 1.01641 0
M  V30 2942 H 264.088 3.62181 3.49047 0
M  V30 2943 H 263.788 5.204 2.7287 0
M  V30 2944 H 265.312 4.91962 3.6167 0
M  V30 2945 H 266.726 5.55059 1.43466 0
M  V30 2946 H 265.123 5.95348 0.753738 0
M  V30 2947 H 266.193 4.84735 -0.126377 0
M  V30 2948 N 267.536 -0.106894 1.57237 0
M  V30 2949 C 268.446 -1.14911 2.0453 0
M  V30 2950 C 269.462 -1.44592 0.96795 0
M  V30 2951 O 270.638 -1.55468 1.2803 0
M  V30 2952 C 267.703 -2.45272 2.45036 0
M  V30 2953 C 266.764 -2.22879 3.66911 0
M  V30 2954 C 265.997 -3.47024 4.05475 0
M  V30 2955 O 266.22 -4.54804 3.44252 0
M  V30 2956 O 265.154 -3.3731 4.98504 0
M  V30 2957 H 268.98 -0.777461 2.9358 0
M  V30 2958 H 266.565 -0.318563 1.45964 0
M  V30 2959 H 268.447 -3.22055 2.71769 0
M  V30 2960 H 267.122 -2.81886 1.59129 0
M  V30 2961 H 266.029 -1.43915 3.45311 0
M  V30 2962 H 267.362 -1.91163 4.53561 0
M  V30 2963 N 269.014 -1.53014 -0.377408 0
M  V30 2964 C 269.962 -1.7927 -1.48206 0
M  V30 2965 C 270.956 -0.661195 -1.55963 0
M  V30 2966 O 272.162 -0.843908 -1.58991 0
M  V30 2967 H 268.537 -0.567425 -0.493491 0
M  V30 2968 H 270.508 -2.71753 -1.2326 0
M  V30 2969 C 269.257 -1.98894 -2.85196 0
M  V30 2970 H 268.58 -2.85395 -2.79981 0
M  V30 2971 H 270.02 -2.21249 -3.61698 0
M  V30 2972 C 268.479 -0.764691 -3.28107 0
M  V30 2973 O 269.009 0.0523226 -4.01666 0
M  V30 2974 N 267.215 -0.591493 -2.84517 0
M  V30 2975 H 266.762 -1.25749 -2.24822 0
M  V30 2976 H 266.72 0.226253 -3.13585 0
M  V30 2977 N 270.492 0.636531 -1.44174 0
M  V30 2978 C 271.741 1.39213 -1.45954 0
M  V30 2979 C 272.054 1.95374 -0.0939119 0
M  V30 2980 O 273.26 2.71498 0.0107767 0
M  V30 2981 C 271.716 2.52025 -2.56927 0
M  V30 2982 C 271.324 2.024 -3.99673 0
M  V30 2983 C 273.068 3.29269 -2.67922 0
M  V30 2984 C 270.975 3.12521 -5.0208 0
M  V30 2985 H 269.905 0.523132 -0.542999 0
M  V30 2986 H 272.556 0.685349 -1.70221 0
M  V30 2987 H 270.938 3.25253 -2.25891 0
M  V30 2988 H 272.112 1.36073 -4.40251 0
M  V30 2989 H 270.427 1.37987 -3.92872 0
M  V30 2990 H 273.024 4.11352 -3.41605 0
M  V30 2991 H 273.367 3.78397 -1.73555 0
M  V30 2992 H 273.9 2.63129 -2.98342 0
M  V30 2993 H 270.639 2.68343 -5.98057 0
M  V30 2994 H 270.159 3.77507 -4.66099 0
M  V30 2995 H 271.838 3.77385 -5.25538 0
M  V30 2996 N 271.97 1.30982 0.876444 0
M  V30 2997 C 272.9 1.20668 1.99903 0
M  V30 2998 C 273.881 0.095354 1.69833 0
M  V30 2999 O 275.066 0.27885 1.92188 0
M  V30 3000 C 272.196 0.90655 3.3526 0
M  V30 3001 C 271.15 1.97675 3.79617 0
M  V30 3002 C 270.476 1.52943 5.1236 0
M  V30 3003 C 271.776 3.389 3.97422 0
M  V30 3004 H 273.47 2.14586 2.0879 0
M  V30 3005 H 271.016 1.03308 1.00317 0
M  V30 3006 H 272.969 0.821025 4.13324 0
M  V30 3007 H 271.693 -0.0682969 3.26529 0
M  V30 3008 H 270.352 2.05205 3.03787 0
M  V30 3009 H 270 0.54262 5.00065 0
M  V30 3010 H 269.7 2.24532 5.43009 0
M  V30 3011 H 271.224 1.45786 5.92941 0
M  V30 3012 H 272.638 3.34081 4.659 0
M  V30 3013 H 271.035 4.0865 4.3946 0
M  V30 3014 H 272.105 3.80163 3.01006 0
M  V30 3015 N 273.449 -1.08991 1.13837 0
M  V30 3016 C 274.379 -2.17771 0.842507 0
M  V30 3017 C 275.36 -1.6892 -0.20001 0
M  V30 3018 O 276.545 -1.94113 -0.0579731 0
M  V30 3019 C 273.675 -3.4589 0.312644 0
M  V30 3020 C 272.629 -4.08099 1.28992 0
M  V30 3021 C 271.955 -5.31098 0.619623 0
M  V30 3022 C 273.255 -4.50077 2.65005 0
M  V30 3023 H 274.949 -2.42777 1.75213 0
M  V30 3024 H 272.495 -1.16682 0.843875 0
M  V30 3025 H 274.448 -4.21297 0.0933043 0
M  V30 3026 H 273.172 -3.20419 -0.632382 0
M  V30 3027 H 271.831 -3.34717 1.49533 0
M  V30 3028 H 271.479 -5.0191 -0.33102 0
M  V30 3029 H 271.179 -5.73674 1.27167 0
M  V30 3030 H 272.703 -6.09224 0.409669 0
M  V30 3031 H 274.117 -5.16688 2.48407 0
M  V30 3032 H 272.514 -5.03553 3.26427 0
M  V30 3033 H 273.584 -3.62257 3.22332 0
M  V30 3034 N 274.927 -0.932562 -1.27047 0
M  V30 3035 C 276.204 -0.49377 -1.89265 0
M  V30 3036 C 276.584 1.02833 -1.8436 0
M  V30 3037 O 275.932 1.88461 -1.29209 0
M  V30 3038 C 276.142 -1.04536 -3.32976 0
M  V30 3039 C 277.49 -1.10879 -4.09867 0
M  V30 3040 O 278.514 -0.995327 -3.42011 0
M  V30 3041 O 277.373 -1.28417 -5.31198 0
M  V30 3042 H 274.467 -0.159596 -0.811454 0
M  V30 3043 H 277.013 -1.02457 -1.3528 0
M  V30 3044 H 275.785 -2.08913 -3.30864 0
M  V30 3045 H 275.408 -0.496494 -3.94488 0
M  V30 3046 N 276.405 1.4127 -0.698611 0
M  V30 3047 C 277.682 1.94955 -0.158762 0
M  V30 3048 C 278.062 1.63781 1.33188 0
M  V30 3049 O 277.41 0.946423 2.07979 0
M  V30 3050 C 277.62 3.46044 -0.453309 0
M  V30 3051 C 278.968 4.22872 -0.382707 0
M  V30 3052 O 279.992 3.54076 -0.388396 0
M  V30 3053 O 278.851 5.45407 -0.345463 0
M  V30 3054 H 275.945 0.82683 -0.0167505 0
M  V30 3055 H 278.491 1.50971 -0.77498 0
M  V30 3056 H 277.263 3.62028 -1.48498 0
M  V30 3057 H 276.886 3.97128 0.19373 0
M  V30 3058 N 277.883 0.443576 1.51229 0
M  V30 3059 C 278.831 -0.37904 2.29491 0
M  V30 3060 C 279.825 -1.0153 1.35603 0
M  V30 3061 O 281.031 -0.94955 1.52917 0
M  V30 3062 H 277.406 -0.141053 0.738653 0
M  V30 3063 H 279.377 0.301799 2.9687 0
M  V30 3064 C 278.126 -1.46426 3.15364 0
M  V30 3065 H 277.449 -0.984037 3.87501 0
M  V30 3066 H 278.889 -2.01297 3.7317 0
M  V30 3067 C 277.348 -2.45099 2.31146 0
M  V30 3068 O 277.878 -3.49773 1.9754 0
M  V30 3069 N 276.084 -2.16139 1.94249 0
M  V30 3070 H 275.631 -1.31044 2.21777 0
M  V30 3071 H 275.589 -2.82398 1.38198 0
M  V30 3072 N 279.361 -1.56624 0.175154 0
M  V30 3073 C 280.601 -1.98894 -0.471221 0
M  V30 3074 C 280.965 -1.05889 -1.60161 0
M  V30 3075 O 282.166 -1.37315 -2.3108 0
M  V30 3076 C 280.437 -3.44865 -0.938241 0
M  V30 3077 S 281.996 -4.09164 -1.58526 0
M  V30 3078 H 278.814 -0.694686 -0.151434 0
M  V30 3079 H 281.416 -1.93577 0.27352 0
M  V30 3080 H 280.12 -4.10265 -0.10518 0
M  V30 3081 H 279.651 -3.53956 -1.71693 0
M  V30 3082 H 281.666 -4.04528 -2.87352 0
M  V30 3083 N 280.839 0.0985539 -1.57292 0
M  V30 3084 C 281.787 1.1387 -2.02821 0
M  V30 3085 C 282.781 1.41676 -0.928666 0
M  V30 3086 O 283.987 1.41398 -1.11385 0
M  V30 3087 H 280.362 0.384419 -0.646317 0
M  V30 3088 H 282.333 0.728347 -2.89375 0
M  V30 3089 C 281.082 2.45166 -2.46554 0
M  V30 3090 H 280.405 2.24613 -3.3074 0
M  V30 3091 H 281.845 3.16456 -2.8219 0
M  V30 3092 C 280.304 3.09216 -1.33742 0
M  V30 3093 O 280.834 3.96163 -0.66464 0
M  V30 3094 N 279.04 2.69413 -1.08928 0
M  V30 3095 H 278.587 1.98801 -1.63817 0
M  V30 3096 H 278.545 3.12594 -0.336458 0
M  V30 3097 N 282.317 1.53212 0.369288 0
M  V30 3098 C 283.566 1.68436 1.10961 0
M  V30 3099 C 283.879 0.440738 1.9057 0
M  V30 3100 O 285.085 0.473446 2.6734 0
M  V30 3101 C 283.541 2.97744 2.0218 0
M  V30 3102 C 283.149 4.29355 1.279 0
M  V30 3103 C 284.893 3.22334 2.76226 0
M  V30 3104 C 282.8 5.49755 2.17999 0
M  V30 3105 H 281.73 0.627568 0.41794 0
M  V30 3106 H 284.381 1.79713 0.370884 0
M  V30 3107 H 282.763 2.8026 2.79768 0
M  V30 3108 H 283.937 4.57458 0.554007 0
M  V30 3109 H 282.252 4.11179 0.657311 0
M  V30 3110 H 284.849 4.09471 3.43857 0
M  V30 3111 H 285.192 2.38238 3.41392 0
M  V30 3112 H 285.725 3.40475 2.05723 0
M  V30 3113 H 282.464 6.36318 1.57417 0
M  V30 3114 H 281.984 5.25937 2.88359 0
M  V30 3115 H 283.663 5.84401 2.77641 0
M  V30 3116 N 283.795 -0.628877 1.44509 0
M  V30 3117 C 284.742 -1.74074 1.51549 0
M  V30 3118 C 285.712 -1.62084 0.363021 0
M  V30 3119 O 286.897 -1.81975 0.573567 0
M  V30 3120 C 284.037 -3.12328 1.46784 0
M  V30 3121 C 283.15 -3.35277 2.72422 0
M  V30 3122 C 282.285 -4.63515 2.59475 0
M  V30 3123 C 281.324 -4.7965 3.80266 0
M  V30 3124 N 280.461 -5.99168 3.65981 0
M  V30 3125 H 285.301 -1.67392 2.46544 0
M  V30 3126 H 282.838 -0.816527 1.22357 0
M  V30 3127 H 284.796 -3.92286 1.42012 0
M  V30 3128 H 283.426 -3.18018 0.553544 0
M  V30 3129 H 282.478 -2.49242 2.87372 0
M  V30 3130 H 283.79 -3.43078 3.62076 0
M  V30 3131 H 282.944 -5.51638 2.52548 0
M  V30 3132 H 281.683 -4.58076 1.67384 0
M  V30 3133 H 280.688 -3.89957 3.87574 0
M  V30 3134 H 281.913 -4.86902 4.73395 0
M  V30 3135 H 279.859 -5.94814 2.76644 0
M  V30 3136 H 279.776 -6.08035 4.49254 0
M  V30 3137 H 281.044 -6.89846 3.6295 0
M  V30 3138 N 285.273 -1.31445 -0.869486 0
M  V30 3139 C 286.522 -1.20517 -1.61736 0
M  V30 3140 C 286.835 0.235341 -1.94179 0
M  V30 3141 O 288.041 0.466312 -2.67465 0
M  V30 3142 C 286.497 -2.10982 -2.91573 0
M  V30 3143 C 286.105 -3.60032 -2.66611 0
M  V30 3144 C 287.849 -2.08856 -3.69567 0
M  V30 3145 C 285.756 -4.42503 -3.92358 0
M  V30 3146 H 284.686 -0.447493 -0.606849 0
M  V30 3147 H 287.337 -1.56303 -0.96133 0
M  V30 3148 H 285.719 -1.68095 -3.58553 0
M  V30 3149 H 286.893 -4.11167 -2.08035 0
M  V30 3150 H 285.208 -3.64139 -2.0197 0
M  V30 3151 H 287.805 -2.67716 -4.62852 0
M  V30 3152 H 288.148 -1.07582 -4.02159 0
M  V30 3153 H 288.681 -2.49945 -3.09471 0
M  V30 3154 H 285.42 -5.44533 -3.64916 0
M  V30 3155 H 284.94 -3.96125 -4.50383 0
M  V30 3156 H 286.619 -4.54741 -4.60238 0
M  V30 3157 N 286.751 1.08385 -1.14413 0
M  V30 3158 C 287.714 2.13486 -0.834048 0
M  V30 3159 C 288.714 1.59988 0.161418 0
M  V30 3160 O 289.904 1.74071 -0.0669575 0
M  V30 3161 C 287.036 3.4003 -0.243354 0
M  V30 3162 H 288.229 2.42425 -1.7655 0
M  V30 3163 H 285.782 1.24101 -0.950189 0
M  V30 3164 H 286.517 3.16726 0.696807 0
M  V30 3165 H 286.302 3.80157 -0.960367 0
M  V30 3166 H 287.792 4.17577 -0.0436242 0
M  V30 3167 N 288.23 0.939286 1.26551 0
M  V30 3168 C 289.507 0.5038 1.89001 0
M  V30 3169 C 289.887 -1.01854 1.84903 0
M  V30 3170 O 289.235 -1.87773 1.30206 0
M  V30 3171 C 289.445 1.063 3.32417 0
M  V30 3172 C 290.793 1.13051 4.09273 0
M  V30 3173 O 291.817 1.01345 3.41479 0
M  V30 3174 O 290.676 1.31233 5.30509 0
M  V30 3175 H 287.77 0.163897 0.810597 0
M  V30 3176 H 290.316 1.03173 1.34735 0
M  V30 3177 H 289.088 2.10665 3.29752 0
M  V30 3178 H 288.711 0.517408 3.94219 0
M  V30 3179 N 289.708 -1.40897 0.706093 0
M  V30 3180 C 290.955 -2.01054 0.241531 0
M  V30 3181 C 291.283 -1.55956 -1.16223 0
M  V30 3182 O 290.538 -0.766336 -1.80072 0
M  V30 3183 C 290.837 -3.5646 0.259099 0
M  V30 3184 C 290.503 -4.21106 1.61184 0
M  V30 3185 C 289.165 -4.38479 1.98216 0
M  V30 3186 C 291.517 -4.57256 2.50132 0
M  V30 3187 C 288.845 -4.89282 3.2376 0
M  V30 3188 C 291.197 -5.09454 3.7502 0
M  V30 3189 C 289.861 -5.25037 4.12181 0
M  V30 3190 H 289.131 -0.73571 0.0883825 0
M  V30 3191 H 291.778 -1.68645 0.907257 0
M  V30 3192 H 290.083 -3.88721 -0.490189 0
M  V30 3193 H 291.78 -4.00826 -0.11804 0
M  V30 3194 H 288.37 -4.07966 1.31384 0
M  V30 3195 H 292.554 -4.43479 2.228 0
M  V30 3196 H 287.81 -4.99531 3.52532 0
M  V30 3197 H 291.984 -5.36404 4.44121 0
M  V30 3198 H 289.611 -5.64164 5.09532 0
M  V30 3199 N 291.186 -0.45159 -1.50991 0
M  V30 3200 C 292.434 0.109857 -2.01801 0
M  V30 3201 C 292.755 1.41958 -1.3369 0
M  V30 3202 O 292.025 1.9003 -0.475951 0
M  V30 3203 H 290.605 0.0435884 -0.745727 0
M  V30 3204 H 293.267 -0.597557 -1.85514 0
M  V30 3205 H 292.363 0.275489 -3.10882 0
M  V30 3206 N 292.664 1.56529 -0.183458 0
M  V30 3207 C 293.594 2.21549 0.737456 0
M  V30 3208 C 294.575 1.17489 1.23005 0
M  V30 3209 O 295.76 1.45959 1.281 0
M  V30 3210 C 292.89 2.86575 1.96194 0
M  V30 3211 C 291.844 3.96778 1.60473 0
M  V30 3212 C 291.17 4.48911 2.90487 0
M  V30 3213 C 292.47 5.15767 0.823497 0
M  V30 3214 H 294.164 2.98761 0.195453 0
M  V30 3215 H 291.71 1.43702 0.0925686 0
M  V30 3216 H 293.663 3.30739 2.61131 0
M  V30 3217 H 292.387 2.06749 2.52828 0
M  V30 3218 H 291.046 3.53286 0.978997 0
M  V30 3219 H 290.694 3.65862 3.45186 0
M  V30 3220 H 290.394 5.23265 2.67335 0
M  V30 3221 H 291.918 4.95771 3.56432 0
M  V30 3222 H 293.332 5.56549 1.37571 0
M  V30 3223 H 291.729 5.96114 0.690551 0
M  V30 3224 H 292.799 4.84574 -0.177782 0
M  V30 3225 N 294.142 -0.090211 1.57342 0
M  V30 3226 C 295.367 -0.810082 1.90925 0
M  V30 3227 C 295.792 -1.71248 0.778187 0
M  V30 3228 O 295.15 -1.79278 -0.269991 0
M  V30 3229 C 295.198 -1.59529 3.23393 0
M  V30 3230 O 294.302 -2.70461 3.11327 0
M  V30 3231 H 293.643 -0.222231 0.625707 0
M  V30 3232 H 296.173 -0.0639716 2.045 0
M  V30 3233 H 296.183 -1.97847 3.5682 0
M  V30 3234 H 294.858 -0.933055 4.05299 0
M  V30 3235 H 293.435 -2.35135 2.89423 0
M  V30 3236 N 295.62 -1.53406 -0.361157 0
M  V30 3237 C 296.568 -1.80832 -1.46296 0
M  V30 3238 C 297.562 -0.677699 -1.55253 0
M  V30 3239 O 298.768 -0.860723 -1.58087 0
M  V30 3240 H 295.143 -0.572627 -0.487445 0
M  V30 3241 H 297.114 -2.73045 -1.20371 0
M  V30 3242 C 295.863 -2.01907 -2.8307 0
M  V30 3243 H 295.186 -2.88349 -2.76938 0
M  V30 3244 H 296.626 -2.25072 -3.59331 0
M  V30 3245 C 295.085 -0.799449 -3.27277 0
M  V30 3246 O 295.615 0.00971761 -4.01699 0
M  V30 3247 N 293.821 -0.621637 -2.83873 0
M  V30 3248 H 293.368 -1.28126 -2.23476 0
M  V30 3249 H 293.326 0.19298 -3.13807 0
M  V30 3250 N 297.098 0.621204 -1.44841 0
M  V30 3251 C 298.028 1.74366 -1.55303 0
M  V30 3252 C 299.009 1.65199 -0.405385 0
M  V30 3253 O 300.194 1.83807 -0.626787 0
M  V30 3254 C 297.324 3.12931 -1.50637 0
M  V30 3255 C 296.278 3.36896 -2.63979 0
M  V30 3256 C 295.604 4.75594 -2.44366 0
M  V30 3257 C 296.904 3.28483 -4.06074 0
M  V30 3258 H 298.598 1.65867 -2.49256 0
M  V30 3259 H 296.144 0.796558 -1.19962 0
M  V30 3260 H 298.097 3.9124 -1.56555 0
M  V30 3261 H 296.821 3.22237 -0.532057 0
M  V30 3262 H 295.48 2.60972 -2.57467 0
M  V30 3263 H 295.128 4.81616 -1.45105 0
M  V30 3264 H 294.828 4.92586 -3.20364 0
M  V30 3265 H 296.352 5.5612 -2.52117 0
M  V30 3266 H 297.766 3.96684 -4.13902 0
M  V30 3267 H 296.163 3.57008 -4.82354 0
M  V30 3268 H 297.233 2.26133 -4.28943 0
M  V30 3269 N 298.576 1.31904 0.862503 0
M  V30 3270 C 299.806 1.24817 1.64634 0
M  V30 3271 C 300.214 -0.187579 1.88268 0
M  V30 3272 O 299.557 -1.13253 1.44635 0
M  V30 3273 C 299.619 1.92996 3.03303 0
M  V30 3274 C 299.283 3.42336 3.02746 0
M  V30 3275 C 300.28 4.37956 2.80162 0
M  V30 3276 C 297.965 3.84147 3.2363 0
M  V30 3277 C 299.959 5.73361 2.78453 0
M  V30 3278 C 297.646 5.19663 3.21549 0
M  V30 3279 C 298.644 6.14081 2.98988 0
M  V30 3280 O 298.332 7.47118 2.96766 0
M  V30 3281 H 298.064 0.432222 0.519769 0
M  V30 3282 H 300.618 1.7445 1.08427 0
M  V30 3283 H 298.848 1.37922 3.61268 0
M  V30 3284 H 300.537 1.79723 3.63943 0
M  V30 3285 H 301.303 4.06981 2.63802 0
M  V30 3286 H 297.182 3.11083 3.40218 0
M  V30 3287 H 300.726 6.4703 2.60763 0
M  V30 3288 H 296.623 5.5027 3.37451 0
M  V30 3289 H 297.391 7.56382 3.12775 0
M  V30 3290 N 300.054 -1.07777 1.14986 0
M  V30 3291 C 300.986 -2.14769 0.800436 0
M  V30 3292 C 301.999 -1.61739 -0.185595 0
M  V30 3293 O 303.188 -1.78462 0.0370358 0
M  V30 3294 C 300.288 -3.38481 0.168533 0
M  V30 3295 C 299.461 -4.20876 1.1909 0
M  V30 3296 C 298.52 -5.22976 0.581575 0
M  V30 3297 O 297.546 -5.55388 1.24633 0
M  V30 3298 N 298.748 -5.76976 -0.638706 0
M  V30 3299 H 301.513 -2.45348 1.72118 0
M  V30 3300 H 299.074 -1.23645 1.04515 0
M  V30 3301 H 301.066 -4.03916 -0.251764 0
M  V30 3302 H 299.636 -3.05651 -0.655467 0
M  V30 3303 H 298.856 -3.51322 1.78791 0
M  V30 3304 H 300.144 -4.7274 1.88133 0
M  V30 3305 H 299.542 -5.52886 -1.19723 0
M  V30 3306 H 298.099 -6.44061 -1.00142 0
M  V30 3307 N 301.532 -0.945985 -1.26051 0
M  V30 3308 C 302.479 -0.45809 -2.26208 0
M  V30 3309 C 303.449 0.484816 -1.58867 0
M  V30 3310 O 304.634 0.399969 -1.86561 0
M  V30 3311 C 301.774 0.266131 -3.44072 0
M  V30 3312 C 300.887 -0.713005 -4.26075 0
M  V30 3313 C 300.022 0.0329013 -5.3119 0
M  V30 3314 C 299.061 -0.93774 -6.04874 0
M  V30 3315 N 298.198 -0.223274 -7.01745 0
M  V30 3316 H 303.038 -1.3171 -2.67313 0
M  V30 3317 H 300.575 -0.66069 -1.31428 0
M  V30 3318 H 302.533 0.702514 -4.11243 0
M  V30 3319 H 301.163 1.08925 -3.03867 0
M  V30 3320 H 300.215 -1.26789 -3.58648 0
M  V30 3321 H 301.527 -1.45406 -4.77136 0
M  V30 3322 H 300.681 0.528335 -6.04395 0
M  V30 3323 H 299.42 0.806801 -4.8098 0
M  V30 3324 H 298.425 -1.44425 -5.30492 0
M  V30 3325 H 299.65 -1.71172 -6.57173 0
M  V30 3326 H 297.596 0.532046 -6.53839 0
M  V30 3327 H 297.513 -0.90357 -7.50581 0
M  V30 3328 H 298.781 0.250907 -7.79096 0
M  V30 3329 N 303.011 1.40521 -0.713556 0
M  V30 3330 C 304.288 1.94775 -0.17943 0
M  V30 3331 C 304.668 1.65184 1.31444 0
M  V30 3332 O 304.016 0.968429 2.06963 0
M  V30 3333 C 304.226 3.45543 -0.489986 0
M  V30 3334 C 305.574 4.22442 -0.427536 0
M  V30 3335 O 306.598 3.53644 -0.425929 0
M  V30 3336 O 305.457 5.4501 -0.403292 0
M  V30 3337 H 302.551 0.826606 -0.0255192 0
M  V30 3338 H 305.097 1.5014 -0.790949 0
M  V30 3339 H 303.869 3.60432 -1.5233 0
M  V30 3340 H 303.492 3.97311 0.151598 0
M  V30 3341 N 304.489 0.459591 1.5075 0
M  V30 3342 C 305.436 -0.340524 2.28274 0
M  V30 3343 C 306.406 -0.997371 1.32822 0
M  V30 3344 O 307.591 -1.01202 1.61749 0
M  V30 3345 C 304.731 -1.42317 3.14388 0
M  V30 3346 C 303.844 -0.782251 4.24859 0
M  V30 3347 C 302.979 -1.84182 4.98247 0
M  V30 3348 C 302.018 -1.18053 6.00608 0
M  V30 3349 N 301.155 -2.18244 6.67319 0
M  V30 3350 H 305.995 0.326899 2.96202 0
M  V30 3351 H 303.532 0.173057 1.46078 0
M  V30 3352 H 305.49 -2.06241 3.62658 0
M  V30 3353 H 304.12 -2.05992 2.4853 0
M  V30 3354 H 303.172 -0.0307404 3.80388 0
M  V30 3355 H 304.484 -0.259663 4.98124 0
M  V30 3356 H 303.638 -2.55714 5.50177 0
M  V30 3357 H 302.377 -2.39819 4.24662 0
M  V30 3358 H 301.382 -0.450776 5.47949 0
M  V30 3359 H 302.607 -0.631202 6.7616 0
M  V30 3360 H 300.553 -2.72919 5.96533 0
M  V30 3361 H 300.47 -1.70938 7.36421 0
M  V30 3362 H 301.738 -2.89191 7.23871 0
M  V30 3363 N 305.967 -1.56429 0.191757 0
M  V30 3364 C 307.214 -1.97485 -0.447891 0
M  V30 3365 C 307.542 -1.07852 -1.61859 0
M  V30 3366 O 306.797 -0.116903 -1.95351 0
M  V30 3367 C 307.096 -3.44449 -0.953384 0
M  V30 3368 C 306.762 -4.50781 0.103586 0
M  V30 3369 C 305.424 -4.79584 0.394023 0
M  V30 3370 C 307.776 -5.1471 0.819946 0
M  V30 3371 C 305.104 -5.69607 1.40585 0
M  V30 3372 C 307.456 -6.05827 1.8209 0
M  V30 3373 C 306.12 -6.32987 2.11857 0
M  V30 3374 H 305.39 -0.722648 -0.163895 0
M  V30 3375 H 308.037 -1.89322 0.28802 0
M  V30 3376 H 306.342 -3.49666 -1.76751 0
M  V30 3377 H 308.039 -3.73569 -1.45765 0
M  V30 3378 H 304.629 -4.28394 -0.132951 0
M  V30 3379 H 308.813 -4.92552 0.608789 0
M  V30 3380 H 304.069 -5.88926 1.64243 0
M  V30 3381 H 308.243 -6.54424 2.38123 0
M  V30 3382 H 305.87 -7.02544 2.90407 0
M  V30 3383 N 307.445 0.0818655 -1.57387 0
M  V30 3384 C 308.375 1.09885 -2.06028 0
M  V30 3385 C 309.356 1.4098 -0.951774 0
M  V30 3386 O 310.541 1.50781 -1.22387 0
M  V30 3387 C 307.671 2.4151 -2.4958 0
M  V30 3388 C 306.625 2.24792 -3.64215 0
M  V30 3389 C 305.951 3.61712 -3.93787 0
M  V30 3390 C 307.251 1.67749 -4.94629 0
M  V30 3391 H 308.945 0.694128 -2.91243 0
M  V30 3392 H 306.491 0.332448 -1.4011 0
M  V30 3393 H 308.444 3.12939 -2.82219 0
M  V30 3394 H 307.168 2.83943 -1.61381 0
M  V30 3395 H 305.827 1.55807 -3.31843 0
M  V30 3396 H 305.475 4.01697 -3.02735 0
M  V30 3397 H 305.175 3.51368 -4.70971 0
M  V30 3398 H 306.699 4.34587 -4.28913 0
M  V30 3399 H 308.113 2.29032 -5.25564 0
M  V30 3400 H 306.51 1.68128 -5.76067 0
M  V30 3401 H 307.58 0.638059 -4.80684 0
M  V30 3402 N 308.923 1.53595 0.353017 0
M  V30 3403 C 309.855 1.77219 1.45348 0
M  V30 3404 C 310.868 0.65324 1.49119 0
M  V30 3405 O 312.057 0.929775 1.52373 0
M  V30 3406 C 309.157 1.84841 2.84055 0
M  V30 3407 C 308.33 3.14649 3.03833 0
M  V30 3408 C 307.389 3.13351 4.22727 0
M  V30 3409 O 306.415 3.87107 4.17297 0
M  V30 3410 N 307.617 2.35052 5.30783 0
M  V30 3411 H 310.382 2.72178 1.25457 0
M  V30 3412 H 307.943 1.52528 0.542833 0
M  V30 3413 H 309.935 1.81435 3.61751 0
M  V30 3414 H 308.505 0.971114 2.97133 0
M  V30 3415 H 307.725 3.31256 2.13689 0
M  V30 3416 H 309.013 4.00411 3.13925 0
M  V30 3417 H 308.411 1.74663 5.38061 0
M  V30 3418 H 306.968 2.37453 6.07009 0
M  V30 3419 N 310.401 -0.613514 1.45168 0
M  V30 3420 C 311.629 -1.39946 1.5239 0
M  V30 3421 C 312.044 -1.88167 0.154531 0
M  V30 3422 O 311.401 -1.61872 -0.842843 0
M  V30 3423 C 311.452 -2.60795 2.50337 0
M  V30 3424 O 311.173 -2.1458 3.81952 0
M  V30 3425 C 312.674 -3.53723 2.67198 0
M  V30 3426 H 309.894 -0.428593 0.516284 0
M  V30 3427 H 312.438 -0.748753 1.903 0
M  V30 3428 H 310.593 -3.21919 2.15515 0
M  V30 3429 H 311.007 -2.93055 4.34993 0
M  V30 3430 H 312.481 -4.35079 3.39721 0
M  V30 3431 H 312.958 -4.0368 1.73029 0
M  V30 3432 H 313.564 -2.98456 3.02992 0
M  V30 3433 N 311.879 -1.3236 -0.855495 0
M  V30 3434 C 313.126 -1.22872 -1.60962 0
M  V30 3435 C 313.454 0.209658 -1.93367 0
M  V30 3436 O 312.709 1.16243 -1.57436 0
M  V30 3437 C 313.008 -2.03275 -2.93963 0
M  V30 3438 C 312.674 -3.5264 -2.80991 0
M  V30 3439 C 311.336 -3.93364 -2.7716 0
M  V30 3440 C 313.688 -4.47626 -2.66983 0
M  V30 3441 C 311.016 -5.27319 -2.572 0
M  V30 3442 C 313.368 -5.81723 -2.48558 0
M  V30 3443 C 312.032 -6.2165 -2.4312 0
M  V30 3444 H 311.302 -0.44962 -0.589001 0
M  V30 3445 H 313.949 -1.63777 -0.992442 0
M  V30 3446 H 312.254 -1.55095 -3.59795 0
M  V30 3447 H 313.951 -1.93303 -3.51333 0
M  V30 3448 H 310.541 -3.20295 -2.84797 0
M  V30 3449 H 314.725 -4.17084 -2.68988 0
M  V30 3450 H 309.981 -5.57311 -2.51424 0
M  V30 3451 H 314.155 -6.5494 -2.36699 0
M  V30 3452 H 311.782 -7.25388 -2.27412 0
M  V30 3453 N 313.357 1.07166 -1.15556 0
M  V30 3454 C 314.597 1.81391 -0.94216 0
M  V30 3455 C 314.961 1.84788 0.521272 0
M  V30 3456 O 316.162 2.54904 0.85307 0
M  V30 3457 C 314.433 3.22431 -1.54185 0
M  V30 3458 S 315.992 4.13379 -1.47183 0
M  V30 3459 H 312.81 0.624963 -0.339031 0
M  V30 3460 H 315.412 1.28725 -1.4714 0
M  V30 3461 H 314.116 3.17548 -2.59984 0
M  V30 3462 H 313.647 3.80172 -1.01156 0
M  V30 3463 H 315.662 4.94007 -0.466004 0
M  V30 3464 N 314.835 0.952656 1.25548 0
M  V30 3465 C 316.083 0.605176 1.92826 0
M  V30 3466 C 316.404 -0.860261 1.74999 0
M  V30 3467 O 315.674 -1.6125 1.11244 0
M  V30 3468 H 314.254 0.220832 0.713612 0
M  V30 3469 H 316.916 1.21047 1.52754 0
M  V30 3470 H 316.012 0.832798 3.00784 0
M  V30 3471 N 316.313 -1.40141 0.720998 0
M  V30 3472 C 317.538 -2.05618 0.271258 0
M  V30 3473 C 317.963 -1.53978 -1.08039 0
M  V30 3474 O 317.321 -0.677463 -1.68167 0
M  V30 3475 C 317.369 -3.59609 0.267197 0
M  V30 3476 O 316.473 -4.05526 -0.749814 0
M  V30 3477 H 315.814 -0.651904 0.126162 0
M  V30 3478 H 318.344 -1.79439 0.982997 0
M  V30 3479 H 318.354 -4.0786 0.106744 0
M  V30 3480 H 317.029 -3.96559 1.25354 0
M  V30 3481 H 315.606 -3.68722 -0.556644 0
M  V30 3482 N 317.792 -0.46758 -1.50504 0
M  V30 3483 C 319.203 -0.0116166 -1.86696 0
M  V30 3484 C 319.554 1.39202 -1.38265 0
M  V30 3485 O 318.679 2.0313 -0.746132 0
M  V30 3486 C 319.274 -0.0143044 -3.38797 0
M  V30 3487 C 317.833 0.386175 -3.74414 0
M  V30 3488 C 316.98 -0.401287 -2.74381 0
M  V30 3489 H 319.931 -0.682022 -1.43297 0
M  V30 3490 H 319.952 0.788641 -3.72237 0
M  V30 3491 H 319.464 -1.03602 -3.74016 0
M  V30 3492 H 317.565 1.41237 -3.44794 0
M  V30 3493 H 317.678 0.0899596 -4.79016 0
M  V30 3494 H 316.042 0.144536 -2.5429 0
M  V30 3495 H 316.825 -1.42244 -3.12444 0
M  V30 3496 N 319.27 1.56325 -0.20005 0
M  V30 3497 C 320.2 2.22318 0.713916 0
M  V30 3498 C 321.181 1.18788 1.21752 0
M  V30 3499 O 322.366 1.47309 1.26545 0
M  V30 3500 C 319.496 2.88639 1.93144 0
M  V30 3501 C 318.45 3.98457 1.56255 0
M  V30 3502 C 317.776 4.51967 2.85709 0
M  V30 3503 C 319.076 5.16612 0.768747 0
M  V30 3504 H 320.77 2.98952 0.163755 0
M  V30 3505 H 318.316 1.43792 0.0773219 0
M  V30 3506 H 320.269 3.33491 2.57608 0
M  V30 3507 H 318.993 2.09419 2.50621 0
M  V30 3508 H 317.652 3.54305 0.941471 0
M  V30 3509 H 317.3 3.69503 3.41287 0
M  V30 3510 H 317 5.26071 2.6177 0
M  V30 3511 H 318.524 4.99523 3.51154 0
M  V30 3512 H 319.938 5.57977 1.3166 0
M  V30 3513 H 318.335 5.96812 0.627286 0
M  V30 3514 H 319.405 4.84358 -0.229168 0
M  V30 3515 N 320.748 -0.0735177 1.57428 0
M  V30 3516 C 321.978 -0.78483 1.91112 0
M  V30 3517 C 322.386 -1.71729 0.7941 0
M  V30 3518 O 321.729 -1.82105 -0.241542 0
M  V30 3519 C 321.791 -1.63346 3.20247 0
M  V30 3520 C 321.455 -0.870557 4.48632 0
M  V30 3521 C 322.452 -0.19058 5.19551 0
M  V30 3522 C 320.137 -0.838242 4.95256 0
M  V30 3523 C 322.131 0.511503 6.35344 0
M  V30 3524 C 319.818 -0.132386 6.10957 0
M  V30 3525 C 320.816 0.541288 6.80852 0
M  V30 3526 O 320.504 1.23578 7.94345 0
M  V30 3527 H 320.236 -0.228408 0.636244 0
M  V30 3528 H 322.79 -0.0486039 2.05342 0
M  V30 3529 H 321.02 -2.41245 3.02222 0
M  V30 3530 H 322.709 -2.22329 3.39595 0
M  V30 3531 H 323.475 -0.206864 4.84559 0
M  V30 3532 H 319.354 -1.35206 4.40727 0
M  V30 3533 H 322.898 1.03789 6.89836 0
M  V30 3534 H 318.795 -0.114023 6.45399 0
M  V30 3535 H 319.563 1.14487 8.10454 0
M  V30 3536 N 322.226 -1.5378 -0.344866 0
M  V30 3537 C 323.189 -1.80981 -1.40637 0
M  V30 3538 C 324.189 -0.680816 -1.45676 0
M  V30 3539 O 325.379 -0.949095 -1.46075 0
M  V30 3540 C 322.511 -1.95063 -2.79577 0
M  V30 3541 H 323.704 -2.75803 -1.17783 0
M  V30 3542 H 321.257 -1.45173 -0.579181 0
M  V30 3543 H 321.992 -1.02379 -3.07716 0
M  V30 3544 H 321.777 -2.77198 -2.77315 0
M  V30 3545 H 323.267 -2.17629 -3.56409 0
M  V30 3546 N 323.704 0.605807 -1.45491 0
M  V30 3547 C 324.929 1.39625 -1.53361 0
M  V30 3548 C 325.354 1.87351 -0.167645 0
M  V30 3549 O 324.712 1.60243 0.848051 0
M  V30 3550 C 324.76 2.57559 -2.5238 0
M  V30 3551 O 323.864 3.58248 -2.04285 0
M  V30 3552 H 323.205 0.416771 -0.516912 0
M  V30 3553 H 325.735 0.737103 -1.90861 0
M  V30 3554 H 325.745 3.0478 -2.71244 0
M  V30 3555 H 324.42 2.22171 -3.51586 0
M  V30 3556 H 322.997 3.17664 -1.95305 0
M  V30 3557 N 325.182 1.32811 0.848464 0
M  V30 3558 C 326.593 1.21315 1.41914 0
M  V30 3559 C 326.944 -0.171847 1.95446 0
M  V30 3560 O 326.069 -1.07093 1.88043 0
M  V30 3561 C 326.664 2.19631 2.57968 0
M  V30 3562 C 325.223 2.12003 3.11017 0
M  V30 3563 C 324.37 2.07651 1.83783 0
M  V30 3564 H 327.321 1.44549 0.655071 0
M  V30 3565 H 327.342 1.79845 3.35315 0
M  V30 3566 H 326.854 3.20423 2.18976 0
M  V30 3567 H 324.955 1.14481 3.54577 0
M  V30 3568 H 325.068 3.02111 3.71841 0
M  V30 3569 H 323.432 1.52983 2.03638 0
M  V30 3570 H 324.215 3.10235 1.47 0
M  V30 3571 N 326.66 -1.06551 1.16123 0
M  V30 3572 C 327.57 -2.17484 0.879662 0
M  V30 3573 C 328.586 -1.73377 -0.147104 0
M  V30 3574 O 329.762 -2.01379 0.0289128 0
M  V30 3575 C 326.827 -3.44591 0.381829 0
M  V30 3576 C 325.888 -4.0322 1.4735 0
M  V30 3577 C 325.121 -5.24261 0.999324 0
M  V30 3578 O 325.344 -5.70198 -0.151957 0
M  V30 3579 O 324.278 -5.74775 1.78653 0
M  V30 3580 H 328.104 -2.44075 1.80724 0
M  V30 3581 H 325.689 -1.16042 0.940992 0
M  V30 3582 H 327.571 -4.21254 0.111053 0
M  V30 3583 H 326.246 -3.19532 -0.51777 0
M  V30 3584 H 325.153 -3.2806 1.79798 0
M  V30 3585 H 326.486 -4.32568 2.34831 0
M  V30 3586 N 328.138 -0.959301 -1.25041 0
M  V30 3587 C 329.387 -0.612254 -1.92183 0
M  V30 3588 C 329.7 0.855347 -1.75907 0
M  V30 3589 O 330.906 1.31256 -2.37664 0
M  V30 3590 C 329.362 -1.04435 -3.44414 0
M  V30 3591 C 328.97 -2.53482 -3.69393 0
M  V30 3592 C 330.714 -0.770055 -4.17457 0
M  V30 3593 C 328.621 -2.90468 -5.15153 0
M  V30 3594 H 327.551 -0.225279 -0.719559 0
M  V30 3595 H 330.202 -1.16438 -1.41825 0
M  V30 3596 H 328.584 -0.4206 -3.9376 0
M  V30 3597 H 329.758 -3.20916 -3.30681 0
M  V30 3598 H 328.073 -2.78432 -3.0962 0
M  V30 3599 H 330.67 -1.02249 -5.24832 0
M  V30 3600 H 331.013 0.293611 -4.15263 0
M  V30 3601 H 331.546 -1.35437 -3.74034 0
M  V30 3602 H 328.285 -3.95871 -5.22462 0
M  V30 3603 H 327.805 -2.27711 -5.54894 0
M  V30 3604 H 329.484 -2.79914 -5.83315 0
M  V30 3605 N 329.616 1.39756 -0.72842 0
M  V30 3606 C 330.862 2.00942 -0.273892 0
M  V30 3607 C 331.195 1.57656 1.13394 0
M  V30 3608 O 330.47 0.802434 1.77176 0
M  V30 3609 C 330.753 3.58211 -0.368346 0
M  V30 3610 C 330.606 4.11534 -1.81548 0
M  V30 3611 C 331.925 4.39372 0.253054 0
M  V30 3612 H 329.044 0.730047 -0.100996 0
M  V30 3613 H 331.686 1.66056 -0.923337 0
M  V30 3614 H 329.836 3.88061 0.184588 0
M  V30 3615 H 331.508 3.92431 -2.42478 0
M  V30 3616 H 329.751 3.65341 -2.33898 0
M  V30 3617 H 330.422 5.20682 -1.83288 0
M  V30 3618 H 332.898 4.15527 -0.218224 0
M  V30 3619 H 331.774 5.48677 0.156585 0
M  V30 3620 H 332.035 4.21358 1.33826 0
M  V30 3621 N 331.094 0.475555 1.50254 0
M  V30 3622 C 332.042 -0.330276 2.30243 0
M  V30 3623 C 333.036 -0.986306 1.37726 0
M  V30 3624 O 334.242 -0.9169 1.54897 0
M  V30 3625 H 330.617 -0.125353 0.741479 0
M  V30 3626 H 332.588 0.364702 2.96163 0
M  V30 3627 C 331.337 -1.39704 3.18399 0
M  V30 3628 H 330.66 -0.901621 3.89501 0
M  V30 3629 H 332.1 -1.93336 3.77355 0
M  V30 3630 C 330.559 -2.4014 2.36293 0
M  V30 3631 O 331.089 -3.45504 2.04914 0
M  V30 3632 N 329.295 -2.1197 1.98789 0
M  V30 3633 H 328.842 -1.2631 2.24507 0
M  V30 3634 H 328.8 -2.79403 1.44157 0
M  V30 3635 N 332.573 -1.56217 0.208337 0
M  V30 3636 C 333.821 -1.97558 -0.426076 0
M  V30 3637 C 334.142 -1.09683 -1.61229 0
M  V30 3638 O 333.412 -0.170956 -1.95153 0
M  V30 3639 H 331.992 -0.729575 -0.160405 0
M  V30 3640 H 334.654 -1.92606 0.298155 0
M  V30 3641 H 333.75 -3.02672 -0.761312 0
M  V30 3642 N 334.051 0.0651679 -1.57465 0
M  V30 3643 C 335.467 0.420105 -1.53972 0
M  V30 3644 C 335.667 1.78782 -0.929474 0
M  V30 3645 O 334.723 2.46771 -0.534839 0
M  V30 3646 C 336.036 0.355084 -2.98596 0
M  V30 3647 C 337.584 0.434792 -3.09965 0
M  V30 3648 C 338.059 0.399609 -4.56253 0
M  V30 3649 N 339.55 0.459488 -4.60915 0
M  V30 3650 C 340.285 0.454584 -5.71595 0
M  V30 3651 N 339.781 0.404102 -6.9162 0
M  V30 3652 N 341.574 0.501635 -5.59857 0
M  V30 3653 H 333.725 -0.830328 -1.95498 0
M  V30 3654 H 335.988 -0.312244 -0.895102 0
M  V30 3655 H 335.694 -0.583357 -3.46828 0
M  V30 3656 H 335.568 1.16275 -3.58831 0
M  V30 3657 H 337.955 1.36366 -2.61703 0
M  V30 3658 H 338.036 -0.40157 -2.52628 0
M  V30 3659 H 337.68 -0.525436 -5.05175 0
M  V30 3660 H 337.61 1.25359 -5.11461 0
M  V30 3661 H 340.101 0.502482 -3.74544 0
M  V30 3662 H 340.414 0.404468 -7.71741 0
M  V30 3663 H 338.759 0.37069 -6.94011 0
M  V30 3664 H 341.95 0.538812 -4.64989 0
M  V30 3665 H 342.123 0.494345 -6.46112 0
M  V30 3666 N 335.529 1.53961 0.336706 0
M  V30 3667 C 336.94 1.62914 0.911925 0
M  V30 3668 C 337.291 0.514795 1.89326 0
M  V30 3669 O 336.416 -0.354395 2.13478 0
M  V30 3670 C 337.011 2.95304 1.66076 0
M  V30 3671 C 335.57 3.06496 2.18489 0
M  V30 3672 C 334.717 2.58403 1.00613 0
M  V30 3673 H 337.668 1.58285 0.114649 0
M  V30 3674 H 337.689 2.84727 2.5241 0
M  V30 3675 H 337.201 3.76387 0.946276 0
M  V30 3676 H 335.302 2.3006 2.93092 0
M  V30 3677 H 335.415 4.1208 2.44391 0
M  V30 3678 H 333.779 2.13977 1.38152 0
M  V30 3679 H 334.562 3.41932 0.306179 0
M  V30 3680 N 337.007 -0.598083 1.45811 0
M  V30 3681 C 338.237 -1.38121 1.53643 0
M  V30 3682 C 338.645 -1.88425 0.171081 0
M  V30 3683 O 337.988 -1.63409 -0.839237 0
M  V30 3684 C 338.05 -2.61432 2.46766 0
M  V30 3685 C 337.714 -2.32702 3.93318 0
M  V30 3686 C 338.711 -1.92479 4.82957 0
M  V30 3687 C 336.396 -2.45321 4.38318 0
M  V30 3688 C 338.39 -1.65248 6.15607 0
M  V30 3689 C 336.077 -2.17703 5.71007 0
M  V30 3690 C 337.075 -1.7773 6.5947 0
M  V30 3691 O 336.763 -1.50441 7.89698 0
M  V30 3692 H 336.495 -0.428863 0.522544 0
M  V30 3693 H 339.049 -0.73557 1.91777 0
M  V30 3694 H 337.279 -3.28749 2.0362 0
M  V30 3695 H 338.968 -3.23487 2.45175 0
M  V30 3696 H 339.734 -1.82258 4.49452 0
M  V30 3697 H 335.613 -2.75399 3.69697 0
M  V30 3698 H 339.157 -1.33973 6.84614 0
M  V30 3699 H 335.054 -2.27544 6.04065 0
M  V30 3700 H 335.822 -1.64415 8.01817 0
M  V30 3701 N 338.485 -1.33259 -0.841409 0
M  V30 3702 C 339.901 -1.12538 -1.13169 0
M  V30 3703 C 340.101 0.0854037 -2.01319 0
M  V30 3704 O 339.157 0.766417 -2.40587 0
M  V30 3705 C 340.47 -2.41156 -1.79623 0
M  V30 3706 C 342.018 -2.47038 -1.922 0
M  V30 3707 C 342.493 -3.7561 -2.6207 0
M  V30 3708 N 343.984 -3.76667 -2.69585 0
M  V30 3709 C 344.719 -4.72861 -3.2433 0
M  V30 3710 N 344.215 -5.79428 -3.79783 0
M  V30 3711 N 346.008 -4.6034 -3.22558 0
M  V30 3712 H 338.159 -2.10868 -0.254676 0
M  V30 3713 H 340.422 -0.931615 -0.175493 0
M  V30 3714 H 340.128 -3.29747 -1.22311 0
M  V30 3715 H 340.002 -2.53114 -2.79666 0
M  V30 3716 H 342.389 -1.58898 -2.48667 0
M  V30 3717 H 342.47 -2.39022 -0.911148 0
M  V30 3718 H 342.114 -4.64131 -2.06263 0
M  V30 3719 H 342.044 -3.80902 -3.63622 0
M  V30 3720 H 344.535 -2.99648 -2.30259 0
M  V30 3721 H 344.848 -6.48867 -4.19752 0
M  V30 3722 H 343.193 -5.83166 -3.78078 0
M  V30 3723 H 346.384 -3.76244 -2.78492 0
M  V30 3724 H 346.557 -5.35478 -3.64921 0
M  V30 3725 N 339.963 1.05934 -1.16686 0
M  V30 3726 C 341.211 1.78447 -0.948744 0
M  V30 3727 C 341.532 1.87813 0.524523 0
M  V30 3728 O 340.802 1.38945 1.38098 0
M  V30 3729 H 339.382 0.660971 -0.348033 0
M  V30 3730 H 342.044 1.27947 -1.47022 0
M  V30 3731 H 341.14 2.80394 -1.37061 0
M  V30 3732 N 341.441 0.965919 1.2453 0
M  V30 3733 C 342.852 0.665929 1.7442 0
M  V30 3734 C 343.203 -0.818407 1.78316 0
M  V30 3735 O 342.328 -1.64037 1.41141 0
M  V30 3736 C 342.923 1.20211 3.16757 0
M  V30 3737 C 341.482 0.952059 3.6416 0
M  V30 3738 C 340.629 1.33848 2.42858 0
M  V30 3739 H 343.58 1.14144 1.10258 0
M  V30 3740 H 343.601 0.567544 3.76244 0
M  V30 3741 H 343.113 2.28244 3.13889 0
M  V30 3742 H 341.214 -0.112821 3.72429 0
M  V30 3743 H 341.327 1.59645 4.51719 0
M  V30 3744 H 339.691 0.756864 2.43195 0
M  V30 3745 H 340.474 2.42827 2.42673 0
M  V30 3746 N 342.919 -1.39368 0.735821 0
M  V30 3747 C 343.829 -2.34395 0.0979693 0
M  V30 3748 C 344.845 -1.58361 -0.720968 0
M  V30 3749 O 346.021 -1.90648 -0.649245 0
M  V30 3750 C 343.086 -3.37393 -0.797916 0
M  V30 3751 C 342.147 -4.29287 0.0333662 0
M  V30 3752 C 341.38 -5.27365 -0.819854 0
M  V30 3753 O 341.603 -5.31959 -2.05855 0
M  V30 3754 O 340.537 -6.01389 -0.248079 0
M  V30 3755 H 344.363 -2.90601 0.882315 0
M  V30 3756 H 341.948 -1.40909 0.4965 0
M  V30 3757 H 343.83 -4.00505 -1.31048 0
M  V30 3758 H 342.505 -2.83571 -1.56106 0
M  V30 3759 H 341.412 -3.69395 0.591475 0
M  V30 3760 H 342.745 -4.86317 0.758752 0
M  V30 3761 N 344.397 -0.483516 -1.5 0
M  V30 3762 C 345.643 0.0672592 -2.02688 0
M  V30 3763 C 345.976 1.38247 -1.36387 0
M  V30 3764 O 345.251 1.88131 -0.493675 0
M  V30 3765 C 345.534 0.238109 -3.59312 0
M  V30 3766 C 345.387 -1.099 -4.36168 0
M  V30 3767 C 346.706 0.986916 -4.28892 0
M  V30 3768 H 343.825 0.0229696 -0.736642 0
M  V30 3769 H 346.467 -0.631527 -1.79197 0
M  V30 3770 H 344.617 0.8333 -3.79458 0
M  V30 3771 H 346.289 -1.73172 -4.27562 0
M  V30 3772 H 344.532 -1.69261 -3.99416 0
M  V30 3773 H 345.203 -0.932954 -5.44059 0
M  V30 3774 H 347.679 0.482302 -4.13295 0
M  V30 3775 H 346.555 1.07527 -5.38265 0
M  V30 3776 H 346.816 2.0265 -3.92919 0
M  V30 3777 N 345.875 1.56104 -0.216619 0
M  V30 3778 C 347.152 1.89988 0.465165 0
M  V30 3779 C 347.532 1.13326 1.78102 0
M  V30 3780 O 346.88 0.241033 2.27225 0
M  V30 3781 C 347.09 3.42646 0.662939 0
M  V30 3782 C 348.438 4.13311 0.972602 0
M  V30 3783 O 349.462 3.48217 0.749901 0
M  V30 3784 O 348.321 5.28396 1.39499 0
M  V30 3785 H 345.415 0.78979 0.245276 0
M  V30 3786 H 347.961 1.67721 -0.258436 0
M  V30 3787 H 346.733 3.90399 -0.26543 0
M  V30 3788 H 346.356 3.70677 1.43821 0
M  V30 3789 N 347.353 -0.0568162 1.57498 0
M  V30 3790 C 348.578 -0.769402 1.92601 0
M  V30 3791 C 349.003 -1.69559 0.814336 0
M  V30 3792 O 348.361 -1.79811 -0.231903 0
M  V30 3793 C 348.409 -1.52634 3.26704 0
M  V30 3794 O 347.513 -2.63797 3.16994 0
M  V30 3795 H 346.854 -0.208909 0.63028 0
M  V30 3796 H 349.384 -0.0205798 2.0459 0
M  V30 3797 H 349.394 -1.90234 3.60936 0
M  V30 3798 H 348.069 -0.846875 4.07186 0
M  V30 3799 H 346.646 -2.28943 2.94346 0
M  V30 3800 N 348.832 -1.54138 -0.328536 0
M  V30 3801 C 350.078 -1.73297 -1.06488 0
M  V30 3802 C 350.433 -0.497958 -1.85844 0
M  V30 3803 O 349.726 0.509591 -1.84699 0
M  V30 3804 C 349.92 -2.9457 -2.02393 0
M  V30 3805 C 349.749 -4.29747 -1.32467 0
M  V30 3806 C 348.519 -4.93987 -1.06324 0
M  V30 3807 C 350.717 -5.08903 -0.743137 0
M  V30 3808 N 348.699 -6.13005 -0.331359 0
M  V30 3809 C 350.07 -6.19836 -0.142602 0
M  V30 3810 C 352.125 -4.93699 -0.64546 0
M  V30 3811 C 350.828 -7.17224 0.546125 0
M  V30 3812 C 352.854 -5.91393 0.0295558 0
M  V30 3813 C 352.216 -7.01674 0.619056 0
M  V30 3814 H 348.315 -0.687017 -0.373539 0
M  V30 3815 H 350.899 -1.91589 -0.346659 0
M  V30 3816 H 349.07 -2.77752 -2.71493 0
M  V30 3817 H 350.802 -3.0238 -2.68977 0
M  V30 3818 H 347.557 -4.53824 -1.35428 0
M  V30 3819 H 347.981 -6.76997 0.0202939 0
M  V30 3820 H 352.623 -4.08589 -1.08695 0
M  V30 3821 H 350.341 -8.01896 0.999459 0
M  V30 3822 H 353.927 -5.81706 0.104705 0
M  V30 3823 H 352.807 -7.75971 1.13309 0
M  V30 3824 N 350.31 0.590341 -1.46126 0
M  V30 3825 C 351.273 1.68194 -1.55703 0
M  V30 3826 C 352.273 1.54808 -0.434868 0
M  V30 3827 O 353.463 1.59564 -0.698928 0
M  V30 3828 C 350.595 3.07575 -1.47005 0
M  V30 3829 H 351.788 1.61064 -2.52979 0
M  V30 3830 H 349.341 0.807541 -1.33823 0
M  V30 3831 H 350.076 3.20268 -0.509785 0
M  V30 3832 H 349.861 3.187 -2.28414 0
M  V30 3833 H 351.351 3.87055 -1.56776 0
M  V30 3834 N 351.788 1.33704 0.83433 0
M  V30 3835 C 352.718 1.26967 1.95963 0
M  V30 3836 C 353.699 0.149337 1.69443 0
M  V30 3837 O 354.884 0.339852 1.91203 0
M  V30 3838 C 352.014 1.01275 3.32206 0
M  V30 3839 C 350.968 2.09652 3.73136 0
M  V30 3840 C 350.294 1.69166 5.07235 0
M  V30 3841 C 351.594 3.51372 3.86439 0
M  V30 3842 H 353.288 2.2112 2.01857 0
M  V30 3843 H 350.834 1.06447 0.969793 0
M  V30 3844 H 352.787 0.952106 4.10503 0
M  V30 3845 H 351.511 0.0356203 3.26581 0
M  V30 3846 H 350.17 2.14766 2.97104 0
M  V30 3847 H 349.818 0.701437 4.98085 0
M  V30 3848 H 349.518 2.41694 5.35591 0
M  V30 3849 H 351.042 1.64576 5.88003 0
M  V30 3850 H 352.456 3.48734 4.55036 0
M  V30 3851 H 350.853 4.22425 4.26236 0
M  V30 3852 H 351.923 3.89546 2.88759 0
M  V30 3853 N 353.266 -1.05314 1.17247 0
M  V30 3854 C 354.514 -1.77941 0.958194 0
M  V30 3855 C 354.835 -1.88089 -0.514556 0
M  V30 3856 O 354.105 -1.39676 -1.37359 0
M  V30 3857 H 352.685 -0.659116 0.351533 0
M  V30 3858 H 355.347 -1.27166 1.47699 0
M  V30 3859 H 354.443 -2.79663 1.38546 0
M  V30 3860 N 354.744 -0.972509 -1.24016 0
M  V30 3861 C 355.99 -0.637978 -1.92504 0
M  V30 3862 C 356.323 0.825383 -1.75787 0
M  V30 3863 O 355.598 1.59442 -1.11393 0
M  V30 3864 C 355.881 -1.01942 -3.45369 0
M  V30 3865 C 355.734 -2.53983 -3.71231 0
M  V30 3866 C 357.053 -0.55751 -4.36555 0
M  V30 3867 H 354.172 -0.233248 -0.699117 0
M  V30 3868 H 356.814 -1.21238 -1.46292 0
M  V30 3869 H 354.964 -0.530656 -3.84859 0
M  V30 3870 H 356.636 -3.10374 -3.41271 0
M  V30 3871 H 354.879 -2.96968 -3.16216 0
M  V30 3872 H 355.55 -2.75723 -4.78206 0
M  V30 3873 H 358.026 -0.977029 -4.04467 0
M  V30 3874 H 356.902 -0.85292 -5.42233 0
M  V30 3875 H 357.163 0.542328 -4.38761 0
M  V30 3876 N 356.222 1.38976 -0.743202 0
M  V30 3877 C 357.152 2.33171 -0.123873 0
M  V30 3878 C 358.133 1.54336 0.71516 0
M  V30 3879 O 359.318 1.82696 0.658467 0
M  V30 3880 C 356.448 3.38474 0.777978 0
M  V30 3881 C 355.402 4.27979 0.0424758 0
M  V30 3882 C 354.728 5.2405 1.06189 0
M  V30 3883 C 356.028 5.10155 -1.1198 0
M  V30 3884 H 357.722 2.85213 -0.910709 0
M  V30 3885 H 355.268 1.37133 -0.439388 0
M  V30 3886 H 357.221 4.03328 1.22084 0
M  V30 3887 H 355.945 2.84891 1.59702 0
M  V30 3888 H 354.604 3.64616 -0.380853 0
M  V30 3889 H 354.252 4.66758 1.87472 0
M  V30 3890 H 353.952 5.84785 0.574485 0
M  V30 3891 H 355.476 5.9178 1.50428 0
M  V30 3892 H 356.89 5.68307 -0.75499 0
M  V30 3893 H 355.287 5.80073 -1.53738 0
M  V30 3894 H 356.357 4.44504 -1.93764 0
M  V30 3895 N 357.7 0.491464 1.49741 0
M  V30 3896 C 358.63 -0.28154 2.31796 0
M  V30 3897 C 359.611 -0.971473 1.3963 0
M  V30 3898 O 360.796 -0.964719 1.68543 0
M  V30 3899 C 357.926 -1.35203 3.19902 0
M  V30 3900 C 356.88 -0.782529 4.20786 0
M  V30 3901 C 356.206 -1.95283 4.97764 0
M  V30 3902 C 357.506 0.21999 5.21837 0
M  V30 3903 H 359.2 0.403355 2.96671 0
M  V30 3904 H 356.746 0.195425 1.42668 0
M  V30 3905 H 358.699 -1.90045 3.76113 0
M  V30 3906 H 357.423 -2.06598 2.52953 0
M  V30 3907 H 356.082 -0.255928 3.65706 0
M  V30 3908 H 355.73 -2.65423 4.2727 0
M  V30 3909 H 355.43 -1.57789 5.66018 0
M  V30 3910 H 356.954 -2.50577 5.56816 0
M  V30 3911 H 358.368 -0.23996 5.72798 0
M  V30 3912 H 356.765 0.51026 5.97927 0
M  V30 3913 H 357.835 1.13911 4.7133 0
M  V30 3914 N 359.178 -1.55987 0.224894 0
M  V30 3915 C 360.408 -2.02489 -0.41007 0
M  V30 3916 C 360.816 -1.10391 -1.53657 0
M  V30 3917 O 360.159 -0.106458 -1.83391 0
M  V30 3918 C 360.221 -3.45319 -0.999757 0
M  V30 3919 C 359.885 -4.56999 -0.00827976 0
M  V30 3920 C 360.882 -5.13812 0.793314 0
M  V30 3921 C 358.567 -5.02176 0.111442 0
M  V30 3922 C 360.561 -6.14276 1.7013 0
M  V30 3923 C 358.248 -6.02477 1.02296 0
M  V30 3924 C 359.246 -6.58403 1.81643 0
M  V30 3925 O 358.934 -7.56751 2.71262 0
M  V30 3926 H 358.666 -0.667915 -0.104235 0
M  V30 3927 H 361.22 -2.0257 0.339782 0
M  V30 3928 H 359.45 -3.42318 -1.79876 0
M  V30 3929 H 361.139 -3.7545 -1.54248 0
M  V30 3930 H 361.905 -4.79756 0.711288 0
M  V30 3931 H 357.784 -4.58323 -0.49605 0
M  V30 3932 H 361.328 -6.57854 2.32107 0
M  V30 3933 H 357.225 -6.35954 1.10599 0
M  V30 3934 H 357.993 -7.74286 2.65375 0
M  V30 3935 N 360.656 0.0484629 -1.57525 0
M  V30 3936 C 361.884 0.755421 -1.92616 0
M  V30 3937 C 362.299 1.69919 -0.822984 0
M  V30 3938 O 361.656 1.81378 0.202085 0
M  V30 3939 C 361.707 1.52915 -3.27566 0
M  V30 3940 O 361.428 0.62329 -4.33644 0
M  V30 3941 C 362.929 2.33502 -3.76818 0
M  V30 3942 H 360.149 0.213465 -0.63614 0
M  V30 3943 H 362.693 0.0117698 -2.04497 0
M  V30 3944 H 360.848 2.22486 -3.17142 0
M  V30 3945 H 361.262 1.16383 -5.11425 0
M  V30 3946 H 362.736 2.83214 -4.73808 0
M  V30 3947 H 363.213 3.14068 -3.07014 0
M  V30 3948 H 363.819 1.69043 -3.90262 0
M  V30 3949 N 362.134 1.5431 0.320358 0
M  V30 3950 C 363.064 1.86912 1.3995 0
M  V30 3951 C 364.045 0.726211 1.53819 0
M  V30 3952 O 365.23 0.980233 1.67646 0
M  V30 3953 C 362.36 2.09932 2.7667 0
M  V30 3954 C 361.314 3.25776 2.77586 0
M  V30 3955 C 360.64 3.34173 4.17412 0
M  V30 3956 C 361.94 4.6335 2.41048 0
M  V30 3957 H 363.634 2.77292 1.12914 0
M  V30 3958 H 361.18 1.33421 0.541738 0
M  V30 3959 H 363.133 2.31324 3.52232 0
M  V30 3960 H 361.857 1.16304 3.0519 0
M  V30 3961 H 360.516 3.04276 2.04479 0
M  V30 3962 H 360.164 2.38098 4.43078 0
M  V30 3963 H 359.864 4.12033 4.18931 0
M  V30 3964 H 361.388 3.57803 4.94782 0
M  V30 3965 H 362.802 4.84602 3.06324 0
M  V30 3966 H 361.199 5.43782 2.53813 0
M  V30 3967 H 362.269 4.65381 1.36193 0
M  V30 3968 N 363.613 -0.582584 1.46437 0
M  V30 3969 C 364.859 -1.34278 1.51978 0
M  V30 3970 C 365.192 -1.93446 0.170973 0
M  V30 3971 O 364.467 -1.76481 -0.817608 0
M  V30 3972 C 364.75 -2.47203 2.61845 0
M  V30 3973 C 364.603 -1.93069 4.06257 0
M  V30 3974 C 365.922 -3.49247 2.67795 0
M  V30 3975 H 363.041 -0.486876 0.553282 0
M  V30 3976 H 365.683 -0.654437 1.78374 0
M  V30 3977 H 363.833 -3.0592 2.39469 0
M  V30 3978 H 365.505 -1.38808 4.3992 0
M  V30 3979 H 363.748 -1.23898 4.1573 0
M  V30 3980 H 364.419 -2.74586 4.7886 0
M  V30 3981 H 366.895 -3.00411 2.8791 0
M  V30 3982 H 365.771 -4.25719 3.46489 0
M  V30 3983 H 366.032 -4.06482 1.73852 0
M  V30 3984 N 365.091 -1.34144 -0.827227 0
M  V30 3985 C 366.321 -1.29138 -1.61267 0
M  V30 3986 C 366.729 0.137597 -1.88699 0
M  V30 3987 O 366.072 1.09379 -1.47587 0
M  V30 3988 C 366.134 -2.0097 -2.9808 0
M  V30 3989 C 365.798 -3.50242 -2.93563 0
M  V30 3990 C 366.795 -4.4523 -2.68452 0
M  V30 3991 C 364.48 -3.92592 -3.13331 0
M  V30 3992 C 366.474 -5.80542 -2.63154 0
M  V30 3993 C 364.161 -5.28005 -3.07658 0
M  V30 3994 C 365.159 -6.21792 -2.82602 0
M  V30 3995 O 364.847 -7.54723 -2.76853 0
M  V30 3996 H 364.579 -0.445851 -0.508127 0
M  V30 3997 H 367.133 -1.77263 -1.03763 0
M  V30 3998 H 365.363 -1.47451 -3.57484 0
M  V30 3999 H 367.052 -1.89309 -3.5905 0
M  V30 4000 H 367.818 -4.13832 -2.52919 0
M  V30 4001 H 363.697 -3.19994 -3.31851 0
M  V30 4002 H 367.241 -6.53717 -2.43516 0
M  V30 4003 H 363.138 -5.59023 -3.22743 0
M  V30 4004 H 363.906 -7.64409 -2.92611 0
M  V30 4005 N 366.569 1.04691 -1.17803 0
M  V30 4006 C 367.817 1.7743 -0.967617 0
M  V30 4007 C 368.138 1.88359 0.504574 0
M  V30 4008 O 367.408 1.40402 1.36617 0
M  V30 4009 H 365.988 0.657242 -0.355024 0
M  V30 4010 H 368.65 1.2638 -1.48371 0
M  V30 4011 H 367.746 2.78924 -1.40027 0
M  V30 4012 N 368.047 0.979072 1.23499 0
M  V30 4013 C 369.275 0.665202 1.95915 0
M  V30 4014 C 369.69 -0.767571 1.72493 0
M  V30 4015 O 369.047 -1.51635 1.01554 0
M  V30 4016 C 369.098 0.944438 3.48945 0
M  V30 4017 O 368.819 2.3209 3.71572 0
M  V30 4018 C 370.32 0.646336 4.38563 0
M  V30 4019 H 367.54 0.247218 0.623798 0
M  V30 4020 H 370.084 1.31009 1.57025 0
M  V30 4021 H 368.239 0.345575 3.85856 0
M  V30 4022 H 368.653 2.40957 4.65876 0
M  V30 4023 H 370.127 0.892091 5.44744 0
M  V30 4024 H 370.604 -0.419575 4.37191 0
M  V30 4025 H 371.21 1.22562 4.07258 0
M  V30 4026 N 369.525 -1.3858 0.750561 0
M  V30 4027 C 370.458 -2.28095 0.0693139 0
M  V30 4028 C 371.436 -1.45217 -0.731491 0
M  V30 4029 O 372.62 -1.74587 -0.71076 0
M  V30 4030 C 369.747 -3.26282 -0.90871 0
M  V30 4031 C 368.793 -4.26056 -0.194507 0
M  V30 4032 S 369.626 -5.24026 1.10257 0
M  V30 4033 C 370.782 -6.2577 0.127542 0
M  V30 4034 H 371.015 -2.85526 0.8284 0
M  V30 4035 H 368.548 -1.44536 0.543014 0
M  V30 4036 H 370.506 -3.83367 -1.46766 0
M  V30 4037 H 369.167 -2.6784 -1.64075 0
M  V30 4038 H 368.36 -4.95249 -0.93512 0
M  V30 4039 H 367.962 -3.72852 0.292837 0
M  V30 4040 H 370.254 -6.73796 -0.707516 0
M  V30 4041 H 371.197 -7.03712 0.787044 0
M  V30 4042 H 371.605 -5.63938 -0.251803 0
M  V30 4043 N 371.003 -0.499398 -1.49478 0
M  V30 4044 C 372.414 -0.051215 -1.8663 0
M  V30 4045 C 372.765 1.36238 -1.41186 0
M  V30 4046 O 371.89 2.01502 -0.789051 0
M  V30 4047 C 372.485 -0.0861651 -3.3869 0
M  V30 4048 C 371.044 0.30667 -3.75149 0
M  V30 4049 C 370.191 -0.459397 -2.73468 0
M  V30 4050 H 373.142 -0.712264 -1.41818 0
M  V30 4051 H 373.163 0.709507 -3.73826 0
M  V30 4052 H 372.675 -1.11512 -3.71735 0
M  V30 4053 H 370.776 1.33892 -3.47712 0
M  V30 4054 H 370.889 -0.0116669 -4.79099 0
M  V30 4055 H 369.253 0.0905645 -2.54539 0
M  V30 4056 H 370.036 -1.4884 -3.09357 0
M  V30 4057 N 372.481 1.55866 -0.233164 0
M  V30 4058 C 373.728 1.98603 0.395374 0
M  V30 4059 C 374.056 1.12105 1.58942 0
M  V30 4060 O 373.311 0.168656 1.94972 0
M  V30 4061 C 373.61 3.46856 0.861724 0
M  V30 4062 C 373.276 4.50348 -0.223066 0
M  V30 4063 C 371.938 4.78371 -0.521038 0
M  V30 4064 C 374.29 5.12355 -0.956124 0
M  V30 4065 C 371.618 5.6568 -1.55638 0
M  V30 4066 C 373.97 6.00786 -1.98089 0
M  V30 4067 C 372.634 6.27148 -2.28565 0
M  V30 4068 H 371.904 0.726739 0.144677 0
M  V30 4069 H 374.551 1.88491 -0.338114 0
M  V30 4070 H 372.856 3.5423 1.67418 0
M  V30 4071 H 374.553 3.77302 1.35809 0
M  V30 4072 H 371.143 4.28596 0.0193234 0
M  V30 4073 H 375.327 4.90765 -0.739166 0
M  V30 4074 H 370.583 5.84365 -1.798 0
M  V30 4075 H 374.757 6.4788 -2.55391 0
M  V30 4076 H 372.384 6.94597 -3.08932 0
M  V30 4077 N 373.959 -0.0401083 1.57549 0
M  V30 4078 C 375.236 -0.767917 1.79896 0
M  V30 4079 C 375.616 -1.9416 0.82856 0
M  V30 4080 O 374.964 -2.2812 -0.131671 0
M  V30 4081 C 375.174 -1.2113 3.27305 0
M  V30 4082 C 376.522 -1.63175 3.91994 0
M  V30 4083 O 377.546 -1.30616 3.31388 0
M  V30 4084 O 376.405 -2.23565 4.98679 0
M  V30 4085 H 373.499 -0.370441 0.739393 0
M  V30 4086 H 376.045 -0.017737 1.69691 0
M  V30 4087 H 374.817 -0.372937 3.89519 0
M  V30 4088 H 374.44 -2.02183 3.42356 0
M  V30 4089 N 375.437 -1.54477 -0.31217 0
M  V30 4090 C 376.685 -1.72884 -1.04668 0
M  V30 4091 C 377.006 -0.511477 -1.88173 0
M  V30 4092 O 376.276 0.474407 -1.90069 0
M  V30 4093 H 374.856 -0.637461 -0.389425 0
M  V30 4094 H 377.518 -1.91807 -0.345852 0
M  V30 4095 H 376.614 -2.61334 -1.70619 0
M  V30 4096 N 376.915 0.57481 -1.46744 0
M  V30 4097 C 378.162 1.33272 -1.52462 0
M  V30 4098 C 378.49 1.93669 -0.179572 0
M  V30 4099 O 377.745 1.7743 0.825664 0
M  V30 4100 C 378.044 2.476 -2.57738 0
M  V30 4101 C 377.71 2.05146 -4.01529 0
M  V30 4102 C 376.372 1.93284 -4.40676 0
M  V30 4103 C 378.724 1.72506 -4.91824 0
M  V30 4104 C 376.052 1.47049 -5.67973 0
M  V30 4105 C 378.404 1.27748 -6.19567 0
M  V30 4106 C 377.068 1.14468 -6.57612 0
M  V30 4107 H 376.338 0.487678 -0.557899 0
M  V30 4108 H 378.985 0.646456 -1.80259 0
M  V30 4109 H 377.29 3.21708 -2.23632 0
M  V30 4110 H 378.987 3.05807 -2.5939 0
M  V30 4111 H 375.577 2.15316 -3.7059 0
M  V30 4112 H 379.761 1.80552 -4.62293 0
M  V30 4113 H 375.017 1.35417 -5.96215 0
M  V30 4114 H 379.191 1.01547 -6.88957 0
M  V30 4115 H 376.818 0.78419 -7.56145 0
M  V30 4116 N 378.394 1.34581 0.820102 0
M  V30 4117 C 379.671 1.17675 1.56244 0
M  V30 4118 C 380.051 -0.249541 2.0962 0
M  V30 4119 O 379.399 -1.25125 1.91196 0
M  V30 4120 C 379.609 2.23364 2.6816 0
M  V30 4121 C 380.957 2.58485 3.36854 0
M  V30 4122 O 381.981 2.22175 2.78418 0
M  V30 4123 O 380.84 3.20868 4.42386 0
M  V30 4124 H 377.934 0.456333 0.689702 0
M  V30 4125 H 380.48 1.46222 0.861231 0
M  V30 4126 H 379.252 3.19087 2.26493 0
M  V30 4127 H 378.875 1.96009 3.45928 0
M  V30 4128 N 379.872 -1.04064 1.18357 0
M  V30 4129 C 380.822 -2.10393 0.878561 0
M  V30 4130 C 381.806 -1.60183 -0.151713 0
M  V30 4131 O 382.998 -1.76923 0.0523303 0
M  V30 4132 C 380.127 -3.4089 0.406096 0
M  V30 4133 C 379.213 -3.97866 1.46844 0
M  V30 4134 N 379.604 -4.28657 2.68489 0
M  V30 4135 C 377.902 -4.2574 1.32896 0
M  V30 4136 C 378.603 -4.74253 3.36836 0
M  V30 4137 N 377.579 -4.75068 2.64219 0
M  V30 4138 H 381.381 -2.32076 1.80327 0
M  V30 4139 H 378.895 -1.21818 1.07397 0
M  V30 4140 H 380.892 -4.16557 0.169088 0
M  V30 4141 H 379.552 -3.20633 -0.512275 0
M  V30 4142 H 380.563 -4.18304 3.05356 0
M  V30 4143 H 377.24 -4.1481 0.473134 0
M  V30 4144 H 378.63 -5.07096 4.40798 0
M  V30 4145 N 381.35 -0.985608 -1.22978 0
M  V30 4146 C 382.297 -0.529825 -2.24636 0
M  V30 4147 C 383.267 0.434028 -1.60329 0
M  V30 4148 O 384.452 0.340414 -1.87739 0
M  V30 4149 C 381.592 0.156533 -3.44745 0
M  V30 4150 C 380.705 -0.848197 -4.23591 0
M  V30 4151 C 379.84 -0.136109 -5.31026 0
M  V30 4152 C 378.879 -1.1297 -6.01585 0
M  V30 4153 N 378.016 -0.446415 -7.00679 0
M  V30 4154 H 382.856 -1.40148 -2.62988 0
M  V30 4155 H 380.393 -0.702168 -1.29259 0
M  V30 4156 H 382.351 0.571324 -4.1327 0
M  V30 4157 H 380.981 0.992025 -3.07179 0
M  V30 4158 H 380.033 -1.38135 -3.54433 0
M  V30 4159 H 381.345 -1.60512 -4.72268 0
M  V30 4160 H 380.499 0.335784 -6.0577 0
M  V30 4161 H 379.238 0.653373 -4.83304 0
M  V30 4162 H 378.243 -1.6123 -5.25628 0
M  V30 4163 H 379.468 -1.91993 -6.51395 0
M  V30 4164 H 377.414 0.323763 -6.55201 0
M  V30 4165 H 377.331 -1.1419 -7.47326 0
M  V30 4166 H 378.599 0.00291697 -7.795 0
M  V30 4167 N 382.828 1.3818 -0.7579 0
M  V30 4168 C 383.776 2.32277 -0.122482 0
M  V30 4169 C 384.77 1.54238 0.700505 0
M  V30 4170 O 385.976 1.69737 0.599119 0
M  V30 4171 H 382.351 0.751712 -0.0208143 0
M  V30 4172 H 384.322 2.83469 -0.932099 0
M  V30 4173 C 383.071 3.39447 0.753076 0
M  V30 4174 H 382.394 3.99591 0.129184 0
M  V30 4175 H 383.834 4.07684 1.16489 0
M  V30 4176 C 382.293 2.78375 1.8976 0
M  V30 4177 O 382.823 2.68025 2.99208 0
M  V30 4178 N 381.029 2.36121 1.69397 0
M  V30 4179 H 380.576 2.4474 0.803762 0
M  V30 4180 H 380.534 1.95602 2.46145 0
M  V30 4181 N 384.306 0.507319 1.49211 0
M  V30 4182 C 385.236 -0.256939 2.32082 0
M  V30 4183 C 386.217 -0.956609 1.40652 0
M  V30 4184 O 387.402 -0.946788 1.69557 0
M  V30 4185 C 384.532 -1.31802 3.21318 0
M  V30 4186 C 383.486 -0.737855 4.21592 0
M  V30 4187 C 382.812 -1.89992 4.99807 0
M  V30 4188 C 384.112 0.275325 5.21574 0
M  V30 4189 H 385.806 0.434798 2.96226 0
M  V30 4190 H 383.352 0.210546 1.42452 0
M  V30 4191 H 385.305 -1.86045 3.78107 0
M  V30 4192 H 384.029 -2.03903 2.5513 0
M  V30 4193 H 382.688 -0.217126 3.65956 0
M  V30 4194 H 382.336 -2.60877 4.30061 0
M  V30 4195 H 382.036 -1.51777 5.6766 0
M  V30 4196 H 383.56 -2.44657 5.59442 0
M  V30 4197 H 384.974 -0.179193 5.7302 0
M  V30 4198 H 383.371 0.573649 5.97352 0
M  V30 4199 H 384.441 1.18903 4.70096 0
M  V30 4200 N 385.784 -1.5574 0.241426 0
M  V30 4201 C 387.033 -1.97986 -0.385295 0
M  V30 4202 C 387.346 -1.13267 -1.59468 0
M  V30 4203 O 388.552 -1.45501 -2.2922 0
M  V30 4204 C 387.008 -3.52275 -0.736884 0
M  V30 4205 C 386.616 -4.45726 0.450796 0
M  V30 4206 C 388.36 -4.03189 -1.3281 0
M  V30 4207 C 386.267 -5.91352 0.0756662 0
M  V30 4208 H 385.197 -0.739386 -0.147731 0
M  V30 4209 H 387.848 -1.80308 0.340779 0
M  V30 4210 H 386.23 -3.65628 -1.52094 0
M  V30 4211 H 387.404 -4.44131 1.22819 0
M  V30 4212 H 385.719 -4.05264 0.956573 0
M  V30 4213 H 388.316 -5.09505 -1.62201 0
M  V30 4214 H 388.659 -3.50212 -2.25071 0
M  V30 4215 H 389.192 -3.93141 -0.607069 0
M  V30 4216 H 385.931 -6.48354 0.965272 0
M  V30 4217 H 385.451 -5.96095 -0.665635 0
M  V30 4218 H 387.13 -6.46084 -0.344075 0
M  V30 4219 N 387.262 0.0317525 -1.57568 0
M  V30 4220 C 388.678 0.38735 -1.54828 0
M  V30 4221 C 388.878 1.7677 -0.967187 0
M  V30 4222 O 387.934 2.45581 -0.587063 0
M  V30 4223 C 389.247 0.291667 -2.99282 0
M  V30 4224 C 390.795 0.368946 -3.10818 0
M  V30 4225 C 391.27 0.302741 -4.56998 0
M  V30 4226 N 392.761 0.361617 -4.61786 0
M  V30 4227 C 393.496 0.333238 -5.72431 0
M  V30 4228 N 392.992 0.257308 -6.92322 0
M  V30 4229 N 394.785 0.382769 -5.60795 0
M  V30 4230 H 386.936 -0.871609 -1.93692 0
M  V30 4231 H 389.199 -0.331161 -0.888277 0
M  V30 4232 H 388.905 -0.656794 -3.45513 0
M  V30 4233 H 388.779 1.08638 -3.61217 0
M  V30 4234 H 391.166 1.30784 -2.64536 0
M  V30 4235 H 391.247 -0.455066 -2.5172 0
M  V30 4236 H 390.891 -0.632473 -5.03947 0
M  V30 4237 H 390.821 1.14482 -5.14005 0
M  V30 4238 H 393.312 0.422923 -3.75526 0
M  V30 4239 H 393.625 0.24068 -7.72425 0
M  V30 4240 H 391.97 0.223396 -6.94641 0
M  V30 4241 H 395.161 0.44006 -4.66027 0
M  V30 4242 H 395.334 0.357184 -6.47015 0
M  V30 4243 N 388.74 1.54641 0.303973 0
M  V30 4244 C 389.672 1.81754 1.39636 0
M  V30 4245 C 390.685 0.70035 1.46966 0
M  V30 4246 O 391.874 0.97778 1.49338 0
M  V30 4247 C 388.974 1.93785 2.7803 0
M  V30 4248 C 388.147 3.24156 2.93669 0
M  V30 4249 C 387.206 3.26641 4.12544 0
M  V30 4250 O 386.232 4.00187 4.04771 0
M  V30 4251 N 387.434 2.5182 5.23036 0
M  V30 4252 H 390.199 2.76031 1.16734 0
M  V30 4253 H 387.76 1.54178 0.494033 0
M  V30 4254 H 389.752 1.92852 3.55795 0
M  V30 4255 H 388.322 1.06515 2.93893 0
M  V30 4256 H 387.542 3.37887 2.03042 0
M  V30 4257 H 388.83 4.10195 3.01027 0
M  V30 4258 H 388.228 1.91692 5.32232 0
M  V30 4259 H 386.785 2.56644 5.99147 0
M  V30 4260 N 390.218 -0.567019 1.47046 0
M  V30 4261 C 391.467 -1.32091 1.5243 0
M  V30 4262 C 391.78 -1.94704 0.187021 0
M  V30 4263 O 392.986 -2.7124 0.118771 0
M  V30 4264 C 391.442 -2.39479 2.68659 0
M  V30 4265 C 391.05 -1.831 4.08874 0
M  V30 4266 C 392.794 -3.16111 2.83327 0
M  V30 4267 C 390.701 -2.8821 5.16419 0
M  V30 4268 H 389.631 -0.496629 0.56734 0
M  V30 4269 H 392.282 -0.603354 1.73297 0
M  V30 4270 H 390.664 -3.14105 2.41152 0
M  V30 4271 H 391.838 -1.14913 4.46242 0
M  V30 4272 H 390.153 -1.19085 3.99008 0
M  V30 4273 H 392.75 -3.94585 3.60842 0
M  V30 4274 H 393.093 -3.69686 1.91411 0
M  V30 4275 H 393.626 -2.48595 3.10556 0
M  V30 4276 H 390.365 -2.39504 6.10179 0
M  V30 4277 H 389.885 -3.54839 4.8358 0
M  V30 4278 H 391.564 -3.51881 5.42945 0
M  V30 4279 N 391.696 -1.35014 -0.812953 0
M  V30 4280 C 392.921 -1.31187 -1.60639 0
M  V30 4281 C 393.346 0.109382 -1.87782 0
M  V30 4282 O 392.704 1.07424 -1.46047 0
M  V30 4283 C 392.752 -2.11809 -2.91838 0
M  V30 4284 O 391.856 -1.49444 -3.8437 0
M  V30 4285 H 391.197 -0.450084 -0.488181 0
M  V30 4286 H 393.727 -1.77963 -1.00947 0
M  V30 4287 H 393.737 -2.23531 -3.41318 0
M  V30 4288 H 392.412 -3.15137 -2.71407 0
M  V30 4289 H 390.989 -1.46524 -3.42907 0
M  V30 4290 N 393.175 1.03435 -1.18907 0
M  V30 4291 C 394.4 1.80919 -1.01406 0
M  V30 4292 C 394.825 1.83055 0.432721 0
M  V30 4293 O 394.183 1.25252 1.31079 0
M  V30 4294 C 394.231 3.24091 -1.58105 0
M  V30 4295 O 393.335 4.04434 -0.806669 0
M  V30 4296 H 392.676 0.558709 -0.358803 0
M  V30 4297 H 395.206 1.30223 -1.57807 0
M  V30 4298 H 395.216 3.74853 -1.61087 0
M  V30 4299 H 393.891 3.21851 -2.6341 0
M  V30 4300 H 392.468 3.63091 -0.849666 0
M  V30 4301 N 394.653 0.992116 1.22453 0
M  V30 4302 C 395.901 0.666215 1.90804 0
M  V30 4303 C 396.222 -0.804152 1.77647 0
M  V30 4304 O 395.492 -1.57629 1.16318 0
M  V30 4305 H 394.072 0.243423 0.706225 0
M  V30 4306 H 396.734 1.25845 1.48825 0
M  V30 4307 H 395.83 0.928069 2.97982 0
M  V30 4308 N 396.131 -1.37776 0.765217 0
M  V30 4309 C 397.041 -2.34135 0.147666 0
M  V30 4310 C 398.057 -1.59854 -0.687215 0
M  V30 4311 O 399.233 -1.91983 -0.608659 0
M  V30 4312 C 396.298 -3.3901 -0.72617 0
M  V30 4313 C 395.359 -4.2912 0.124417 0
M  V30 4314 C 394.592 -5.28986 -0.707807 0
M  V30 4315 O 394.815 -5.36205 -1.94525 0
M  V30 4316 O 393.749 -6.01779 -0.12046 0
M  V30 4317 H 397.575 -2.88664 0.943758 0
M  V30 4318 H 395.16 -1.39824 0.526277 0
M  V30 4319 H 397.042 -4.03195 -1.22524 0
M  V30 4320 H 395.717 -2.86819 -1.50056 0
M  V30 4321 H 394.624 -3.68057 0.669696 0
M  V30 4322 H 395.957 -4.84598 0.861736 0
M  V30 4323 N 397.609 -0.515225 -1.4894 0
M  V30 4324 C 398.839 0.0205735 -2.0659 0
M  V30 4325 C 399.247 1.30064 -1.37405 0
M  V30 4326 O 398.59 1.78087 -0.450632 0
M  V30 4327 C 398.652 0.330124 -3.57981 0
M  V30 4328 C 398.316 -0.854295 -4.48944 0
M  V30 4329 C 399.313 -1.7487 -4.89609 0
M  V30 4330 C 396.998 -1.05712 -4.9105 0
M  V30 4331 C 398.992 -2.82996 -5.71132 0
M  V30 4332 C 396.679 -2.14154 -5.72347 0
M  V30 4333 C 397.677 -3.0263 -6.12294 0
M  V30 4334 O 397.365 -4.09198 -6.91962 0
M  V30 4335 H 397.097 -0.0236833 -0.675585 0
M  V30 4336 H 399.651 -0.715956 -1.92518 0
M  V30 4337 H 397.881 1.12044 -3.70112 0
M  V30 4338 H 399.57 0.806233 -3.97812 0
M  V30 4339 H 400.336 -1.60388 -4.57712 0
M  V30 4340 H 396.215 -0.377788 -4.59449 0
M  V30 4341 H 399.759 -3.52083 -6.02232 0
M  V30 4342 H 395.656 -2.28626 -6.03656 0
M  V30 4343 H 396.424 -4.06726 -7.10293 0
M  V30 4344 N 399.087 1.5561 -0.249682 0
M  V30 4345 C 400.503 1.59254 0.105103 0
M  V30 4346 C 400.703 1.26685 1.56694 0
M  V30 4347 O 399.759 1.0155 2.31179 0
M  V30 4348 C 401.072 2.99687 -0.246592 0
M  V30 4349 C 402.62 3.12416 -0.191118 0
M  V30 4350 C 403.095 4.55074 -0.516885 0
M  V30 4351 N 404.586 4.60835 -0.467489 0
M  V30 4352 C 405.321 5.69201 -0.69268 0
M  V30 4353 N 404.817 6.85817 -0.981146 0
M  V30 4354 N 406.61 5.58635 -0.623198 0
M  V30 4355 H 398.761 1.75049 -1.20298 0
M  V30 4356 H 401.024 0.815003 -0.484225 0
M  V30 4357 H 400.73 3.28267 -1.26228 0
M  V30 4358 H 400.604 3.74798 0.424962 0
M  V30 4359 H 402.991 2.83615 0.815247 0
M  V30 4360 H 403.072 2.39573 -0.896563 0
M  V30 4361 H 402.716 4.84596 -1.52082 0
M  V30 4362 H 402.646 5.26181 0.210068 0
M  V30 4363 H 405.137 3.7705 -0.253373 0
M  V30 4364 H 405.45 7.64341 -1.14032 0
M  V30 4365 H 403.795 6.87494 -1.01865 0
M  V30 4366 H 406.986 4.66406 -0.397863 0
M  V30 4367 H 407.159 6.43017 -0.802093 0
M  V30 4368 N 400.565 -0.0233959 1.57583 0
M  V30 4369 C 401.475 -1.03907 2.10334 0
M  V30 4370 C 402.491 -1.39257 1.04323 0
M  V30 4371 O 403.667 -1.48462 1.36091 0
M  V30 4372 C 400.732 -2.31938 2.57693 0
M  V30 4373 C 399.793 -2.03117 3.78209 0
M  V30 4374 C 399.026 -3.25043 4.233 0
M  V30 4375 O 399.249 -4.35916 3.67876 0
M  V30 4376 O 398.183 -3.10411 5.15683 0
M  V30 4377 H 402.009 -0.620748 2.97288 0
M  V30 4378 H 399.594 -0.240743 1.47448 0
M  V30 4379 H 401.476 -3.07196 2.88458 0
M  V30 4380 H 400.151 -2.73055 1.73847 0
M  V30 4381 H 399.058 -1.25408 3.52454 0
M  V30 4382 H 400.391 -1.66852 4.63056 0
M  V30 4383 N 402.043 -1.548 -0.295768 0
M  V30 4384 C 403.454 -1.65274 -0.868411 0
M  V30 4385 C 403.805 -0.56481 -1.87894 0
M  V30 4386 O 402.93 0.29767 -2.14343 0
M  V30 4387 C 403.525 -2.99603 -1.58188 0
M  V30 4388 C 402.084 -3.12181 -2.10286 0
M  V30 4389 C 401.231 -2.6098 -0.93727 0
M  V30 4390 H 404.182 -1.58534 -0.0726422 0
M  V30 4391 H 404.203 -2.91319 -2.44772 0
M  V30 4392 H 403.715 -3.78764 -0.846151 0
M  V30 4393 H 401.816 -2.3775 -2.8689 0
M  V30 4394 H 401.929 -4.18415 -2.33379 0
M  V30 4395 H 400.293 -2.17564 -1.32431 0
M  V30 4396 H 401.076 -3.42623 -0.215414 0
M  V30 4397 N 403.521 0.559213 -1.47345 0
M  V30 4398 C 404.749 1.34194 -1.57479 0
M  V30 4399 C 405.164 1.87463 -0.224261 0
M  V30 4400 O 404.521 1.64888 0.782185 0
M  V30 4401 C 404.572 2.51324 -2.59843 0
M  V30 4402 O 404.293 2.00256 -3.89653 0
M  V30 4403 C 405.794 3.43563 -2.80142 0
M  V30 4404 H 403.014 0.409136 -0.531835 0
M  V30 4405 H 405.558 0.677609 -1.92947 0
M  V30 4406 H 403.713 3.13699 -2.27314 0
M  V30 4407 H 404.127 2.76708 -4.4557 0
M  V30 4408 H 405.601 4.2217 -3.55635 0
M  V30 4409 H 406.078 3.9698 -1.87892 0
M  V30 4410 H 406.684 2.87005 -3.1386 0
M  V30 4411 N 404.999 1.35443 0.805782 0
M  V30 4412 C 405.931 1.24285 1.92577 0
M  V30 4413 C 406.944 0.165962 1.61952 0
M  V30 4414 O 408.133 0.419303 1.73505 0
M  V30 4415 C 405.233 0.891272 3.2697 0
M  V30 4416 C 404.406 2.06669 3.85495 0
M  V30 4417 C 403.465 1.69077 4.98297 0
M  V30 4418 O 402.491 2.4096 5.15681 0
M  V30 4419 N 403.693 0.614869 5.77234 0
M  V30 4420 H 406.458 2.20777 2.02676 0
M  V30 4421 H 404.019 1.28623 0.983243 0
M  V30 4422 H 406.011 0.621256 3.99903 0
M  V30 4423 H 404.581 0.016004 3.12596 0
M  V30 4424 H 403.801 2.50046 3.04747 0
M  V30 4425 H 405.089 2.85237 4.21328 0
M  V30 4426 H 404.487 0.017648 5.65697 0
M  V30 4427 H 403.044 0.404636 6.50543 0
M  V30 4428 N 406.477 -1.02803 1.19454 0
M  V30 4429 C 407.888 -1.57667 0.999899 0
M  V30 4430 C 408.239 -1.91041 -0.446956 0
M  V30 4431 O 407.364 -1.70978 -1.32648 0
M  V30 4432 C 407.959 -2.86477 1.80877 0
M  V30 4433 C 406.518 -3.37911 1.65811 0
M  V30 4434 C 405.665 -2.11343 1.79526 0
M  V30 4435 H 408.616 -0.853214 1.33813 0
M  V30 4436 H 408.637 -3.57408 1.30536 0
M  V30 4437 H 408.149 -2.62155 2.86175 0
M  V30 4438 H 406.25 -3.67218 0.63102 0
M  V30 4439 H 406.363 -4.10885 2.46395 0
M  V30 4440 H 404.727 -2.23254 1.22596 0
M  V30 4441 H 405.51 -1.89461 2.86285 0
M  V30 4442 N 407.956 -0.998596 -1.21925 0
M  V30 4443 C 409.181 -0.696015 -1.95372 0
M  V30 4444 C 409.606 0.733826 -1.73195 0
M  V30 4445 O 408.964 1.50242 -1.01474 0
M  V30 4446 C 409.012 -1.01466 -3.4603 0
M  V30 4447 O 408.116 -0.116415 -4.12236 0
M  V30 4448 H 407.457 -0.259938 -0.611006 0
M  V30 4449 H 409.987 -1.33711 -1.54863 0
M  V30 4450 H 409.997 -0.958855 -3.96573 0
M  V30 4451 H 408.672 -2.05653 -3.61497 0
M  V30 4452 H 407.249 -0.228193 -3.72201 0
M  V30 4453 N 409.434 1.37368 -0.772513 0
M  V30 4454 C 410.711 1.93839 -0.26188 0
M  V30 4455 C 411.091 1.7061 1.24319 0
M  V30 4456 O 410.439 1.05534 2.02669 0
M  V30 4457 C 410.649 3.43154 -0.636102 0
M  V30 4458 C 411.997 4.20249 -0.606324 0
M  V30 4459 O 413.021 3.5152 -0.575538 0
M  V30 4460 O 411.88 5.42809 -0.634086 0
M  V30 4461 H 408.974 0.82478 -0.0605555 0
M  V30 4462 H 411.52 1.4665 -0.853917 0
M  V30 4463 H 410.292 3.53647 -1.6748 0
M  V30 4464 H 409.915 3.97596 -0.0170516 0
M  V30 4465 N 410.912 0.523116 1.48665 0
M  V30 4466 C 411.875 -0.232592 2.28017 0
M  V30 4467 C 412.875 -0.874021 1.34972 0
M  V30 4468 O 414.065 -0.735132 1.57929 0
M  V30 4469 C 411.197 -1.33586 3.13636 0
M  V30 4470 H 412.39 0.464008 2.96289 0
M  V30 4471 H 409.943 0.278816 1.53793 0
M  V30 4472 H 410.678 -2.06593 2.4998 0
M  V30 4473 H 410.463 -0.881125 3.82071 0
M  V30 4474 H 411.953 -1.86759 3.73511 0
M  V30 4475 N 412.39 -1.55475 0.257931 0
M  V30 4476 C 413.806 -1.59307 -0.0966563 0
M  V30 4477 C 414.006 -1.27514 -1.5602 0
M  V30 4478 O 413.062 -1.02774 -2.30637 0
M  V30 4479 C 414.375 -2.99552 0.262481 0
M  V30 4480 C 415.923 -3.1231 0.207683 0
M  V30 4481 C 416.398 -4.54793 0.541012 0
M  V30 4482 N 417.889 -4.6058 0.491921 0
M  V30 4483 C 418.624 -5.68825 0.722857 0
M  V30 4484 N 418.12 -6.85287 1.0175 0
M  V30 4485 N 419.913 -5.58296 0.652815 0
M  V30 4486 H 412.064 -1.74409 1.21224 0
M  V30 4487 H 414.327 -0.812424 0.48854 0
M  V30 4488 H 414.033 -3.27593 1.27967 0
M  V30 4489 H 413.907 -3.75019 -0.40508 0
M  V30 4490 H 416.294 -2.84044 -0.800195 0
M  V30 4491 H 416.375 -2.39095 0.909255 0
M  V30 4492 H 416.019 -4.83783 1.5465 0
M  V30 4493 H 415.949 -5.26285 -0.18216 0
M  V30 4494 H 418.44 -3.7691 0.273366 0
M  V30 4495 H 418.753 -7.63725 1.18084 0
M  V30 4496 H 417.098 -6.86945 1.05509 0
M  V30 4497 H 420.289 -4.66189 0.422592 0
M  V30 4498 H 420.462 -6.42582 0.836182 0
M  V30 4499 N 413.868 0.0150385 -1.57593 0
M  V30 4500 C 415.116 0.701613 -1.8953 0
M  V30 4501 C 415.437 1.75139 -0.857396 0
M  V30 4502 O 414.707 1.95607 0.107194 0
M  V30 4503 H 413.287 0.26213 -0.699498 0
M  V30 4504 H 415.949 -0.0223304 -1.94887 0
M  V30 4505 H 415.045 1.18236 -2.88837 0
M  V30 4506 N 415.346 1.54954 0.287554 0
M  V30 4507 C 416.276 1.89839 1.35954 0
M  V30 4508 C 417.257 0.758675 1.52244 0
M  V30 4509 O 418.442 1.01557 1.65529 0
M  V30 4510 C 415.572 2.15753 2.72154 0
M  V30 4511 C 414.526 3.3159 2.70614 0
M  V30 4512 C 413.852 3.42952 4.10229 0
M  V30 4513 C 415.152 4.68359 2.31165 0
M  V30 4514 H 416.846 2.79625 1.07007 0
M  V30 4515 H 414.392 1.3454 0.513316 0
M  V30 4516 H 416.345 2.38743 3.47246 0
M  V30 4517 H 415.069 1.22752 3.02654 0
M  V30 4518 H 413.728 3.08545 1.97979 0
M  V30 4519 H 413.376 2.47443 4.37928 0
M  V30 4520 H 413.076 4.20826 4.10097 0
M  V30 4521 H 414.6 3.68218 4.87081 0
M  V30 4522 H 416.014 4.9099 2.95976 0
M  V30 4523 H 414.411 5.49044 2.42221 0
M  V30 4524 H 415.481 4.68165 1.26291 0
M  V30 4525 N 416.824 -0.551391 1.4764 0
M  V30 4526 C 418.073 -1.30467 1.53822 0
M  V30 4527 C 418.386 -1.94495 0.207661 0
M  V30 4528 O 419.592 -2.71099 0.147533 0
M  V30 4529 C 418.048 -2.36616 2.71184 0
M  V30 4530 C 417.656 -1.78754 4.10793 0
M  V30 4531 C 419.4 -3.13088 2.86663 0
M  V30 4532 C 417.307 -2.82717 5.19447 0
M  V30 4533 H 416.237 -0.490584 0.572576 0
M  V30 4534 H 418.888 -0.58494 1.73927 0
M  V30 4535 H 417.27 -3.11529 2.4447 0
M  V30 4536 H 418.444 -1.10173 4.47435 0
M  V30 4537 H 416.759 -1.14846 4.00249 0
M  V30 4538 H 419.356 -3.90736 3.65007 0
M  V30 4539 H 419.699 -3.67635 1.95321 0
M  V30 4540 H 420.232 -2.45288 3.13175 0
M  V30 4541 H 416.971 -2.33018 6.12685 0
M  V30 4542 H 416.491 -3.4969 4.87316 0
M  V30 4543 H 418.17 -3.46102 5.46646 0
M  V30 4544 N 418.302 -1.35869 -0.798587 0
M  V30 4545 C 419.718 -1.16082 -1.09532 0
M  V30 4546 C 419.918 0.0213124 -2.01489 0
M  V30 4547 O 418.974 0.689488 -2.42904 0
M  V30 4548 C 420.287 -2.46748 -1.7186 0
M  V30 4549 C 421.835 -2.53028 -1.84244 0
M  V30 4550 C 422.31 -3.83758 -2.49988 0
M  V30 4551 N 423.801 -3.85053 -2.57465 0
M  V30 4552 C 424.536 -4.8294 -3.09122 0
M  V30 4553 N 424.032 -5.91217 -3.61157 0
M  V30 4554 N 425.825 -4.70369 -3.0775 0
M  V30 4555 H 417.976 -2.11571 -0.187461 0
M  V30 4556 H 420.239 -0.936726 -0.145765 0
M  V30 4557 H 419.945 -3.33471 -1.11759 0
M  V30 4558 H 419.819 -2.61883 -2.71472 0
M  V30 4559 H 422.206 -1.66729 -2.43486 0
M  V30 4560 H 422.287 -2.418 -0.834643 0
M  V30 4561 H 421.931 -4.70459 -1.91393 0
M  V30 4562 H 421.861 -3.92278 -3.5132 0
M  V30 4563 H 424.352 -3.06822 -2.20609 0
M  V30 4564 H 424.665 -6.61892 -3.98896 0
M  V30 4565 H 423.01 -5.94899 -3.59333 0
M  V30 4566 H 426.201 -3.84914 -2.66381 0
M  V30 4567 H 426.374 -5.46816 -3.47701 0
M  V30 4568 N 419.78 1.02168 -1.19998 0
M  V30 4569 C 421.026 1.7606 -1.01855 0
M  V30 4570 C 421.381 1.87178 0.445222 0
M  V30 4571 O 420.674 1.3828 1.32624 0
M  V30 4572 C 420.868 3.18081 -1.62969 0
M  V30 4573 C 420.697 3.20809 -3.15137 0
M  V30 4574 C 419.467 3.28342 -3.84083 0
M  V30 4575 C 421.665 3.07268 -4.1242 0
M  V30 4576 N 419.647 3.2052 -5.23584 0
M  V30 4577 C 421.018 3.0716 -5.38566 0
M  V30 4578 C 423.073 2.91448 -4.03686 0
M  V30 4579 C 421.776 2.92853 -6.56985 0
M  V30 4580 C 423.802 2.78494 -5.21723 0
M  V30 4581 C 423.164 2.79046 -6.46771 0
M  V30 4582 H 419.263 0.655192 -0.426905 0
M  V30 4583 H 421.847 1.21564 -1.52087 0
M  V30 4584 H 420.018 3.70882 -1.15329 0
M  V30 4585 H 421.75 3.80375 -1.38192 0
M  V30 4586 H 418.505 3.34859 -3.34913 0
M  V30 4587 H 418.929 3.19997 -5.96599 0
M  V30 4588 H 423.571 2.89838 -3.07821 0
M  V30 4589 H 421.289 2.93213 -7.53028 0
M  V30 4590 H 424.875 2.67278 -5.16773 0
M  V30 4591 H 423.755 2.69134 -7.36571 0
M  V30 4592 N 421.258 1.00505 1.21394 0
M  V30 4593 C 422.191 0.51032 2.22421 0
M  V30 4594 C 423.169 -0.436 1.56645 0
M  V30 4595 O 424.353 -0.358709 1.85055 0
M  V30 4596 C 421.48 -0.258733 3.3771 0
M  V30 4597 C 420.526 0.635395 4.2174 0
M  V30 4598 S 421.359 2.09783 4.92698 0
M  V30 4599 C 422.515 1.33862 6.11418 0
M  V30 4600 H 422.748 1.36637 2.64041 0
M  V30 4601 H 420.281 0.812991 1.31262 0
M  V30 4602 H 422.239 -0.696372 4.0455 0
M  V30 4603 H 420.9 -1.0902 2.94573 0
M  V30 4604 H 420.093 0.0430189 5.03982 0
M  V30 4605 H 419.695 1.01031 3.60095 0
M  V30 4606 H 421.987 0.612541 6.74725 0
M  V30 4607 H 422.93 2.13675 6.75092 0
M  V30 4608 H 423.338 0.846568 5.58116 0
M  V30 4609 N 422.737 -1.36956 0.779787 0
M  V30 4610 C 423.667 -2.32761 0.185651 0
M  V30 4611 C 424.648 -1.56177 -0.673989 0
M  V30 4612 O 425.833 -1.84378 -0.609797 0
M  V30 4613 C 422.963 -3.40418 -0.687964 0
M  V30 4614 C 421.917 -4.27941 0.0710102 0
M  V30 4615 C 421.243 -5.26681 -0.922573 0
M  V30 4616 C 422.543 -5.07006 1.25467 0
M  V30 4617 H 424.237 -2.82698 0.986008 0
M  V30 4618 H 421.783 -1.3592 0.475592 0
M  V30 4619 H 423.736 -4.06423 -1.11348 0
M  V30 4620 H 422.46 -2.89025 -1.52093 0
M  V30 4621 H 421.119 -3.63478 0.47739 0
M  V30 4622 H 420.767 -4.71565 -1.7503 0
M  V30 4623 H 420.467 -5.86103 -0.419237 0
M  V30 4624 H 421.991 -5.9556 -1.34686 0
M  V30 4625 H 423.405 -5.66105 0.905401 0
M  V30 4626 H 421.802 -5.75793 1.69063 0
M  V30 4627 H 422.872 -4.3921 2.05481 0
M  V30 4628 N 424.215 -0.530993 -1.48385 0
M  V30 4629 C 425.148 0.278511 -2.26494 0
M  V30 4630 C 426.126 0.943905 -1.32398 0
M  V30 4631 O 427.31 0.968098 -1.61741 0
M  V30 4632 C 424.437 1.39453 -3.08659 0
M  V30 4633 C 423.483 0.840434 -4.18137 0
M  V30 4634 S 424.316 -0.292496 -5.34701 0
M  V30 4635 C 425.472 0.825973 -6.20426 0
M  V30 4636 H 425.705 -0.384365 -2.94805 0
M  V30 4637 H 423.238 -0.316799 -1.51115 0
M  V30 4638 H 425.196 2.03382 -3.56575 0
M  V30 4639 H 423.857 2.02913 -2.3976 0
M  V30 4640 H 423.05 1.67769 -4.75257 0
M  V30 4641 H 422.652 0.277819 -3.72967 0
M  V30 4642 H 424.944 1.72438 -6.55188 0
M  V30 4643 H 425.887 0.292728 -7.07495 0
M  V30 4644 H 426.295 1.10683 -5.53543 0
M  V30 4645 N 425.693 1.55336 -0.266172 0
M  V30 4646 C 426.939 1.99692 0.353681 0
M  V30 4647 C 427.272 1.1543 1.56172 0
M  V30 4648 O 426.547 0.222218 1.93226 0
M  V30 4649 C 426.83 3.52316 0.74466 0
M  V30 4650 C 426.683 4.47337 -0.470101 0
M  V30 4651 C 428.002 4.10588 1.58447 0
M  V30 4652 H 425.121 0.725961 0.12708 0
M  V30 4653 H 427.763 1.86336 -0.371333 0
M  V30 4654 H 425.913 3.63829 1.36239 0
M  V30 4655 H 427.585 4.4778 -1.10864 0
M  V30 4656 H 425.828 4.19364 -1.10978 0
M  V30 4657 H 426.499 5.51788 -0.15291 0
M  V30 4658 H 428.975 4.02297 1.06286 0
M  V30 4659 H 427.851 5.17607 1.82686 0
M  V30 4660 H 428.112 3.60253 2.56262 0
M  V30 4661 N 427.171 -0.0066808 1.57599 0
M  V30 4662 C 428.119 -1.01851 2.09115 0
M  V30 4663 C 429.113 -1.36021 1.00969 0
M  V30 4664 O 430.319 -1.34663 1.19439 0
M  V30 4665 H 426.694 -0.346083 0.667631 0
M  V30 4666 H 428.665 -0.558394 2.93129 0
M  V30 4667 C 427.414 -2.30374 2.60429 0
M  V30 4668 H 426.737 -2.04947 3.43273 0
M  V30 4669 H 428.177 -2.99466 3.00161 0
M  V30 4670 C 426.636 -3.00893 1.51542 0
M  V30 4671 O 427.166 -3.91614 0.894484 0
M  V30 4672 N 425.372 -2.62603 1.2445 0
M  V30 4673 H 424.919 -1.88911 1.75129 0
M  V30 4674 H 424.877 -3.10101 0.518137 0
M  V30 4675 N 428.649 -1.55105 -0.279332 0
M  V30 4676 C 430.06 -1.66186 -0.850832 0
M  V30 4677 C 430.411 -0.584707 -1.87285 0
M  V30 4678 O 429.536 0.274919 -2.14647 0
M  V30 4679 C 430.131 -3.01264 -1.55001 0
M  V30 4680 C 428.69 -3.14394 -2.06963 0
M  V30 4681 C 427.837 -2.61959 -0.909536 0
M  V30 4682 H 430.788 -1.58602 -0.0558235 0
M  V30 4683 H 430.809 -2.93899 -2.41669 0
M  V30 4684 H 430.321 -3.7964 -0.805931 0
M  V30 4685 H 428.422 -2.4078 -2.84352 0
M  V30 4686 H 428.535 -4.20867 -2.28928 0
M  V30 4687 H 426.899 -2.18957 -1.30116 0
M  V30 4688 H 427.682 -3.42833 -0.179062 0
M  V30 4689 N 430.127 0.543554 -1.4793 0
M  V30 4690 C 431.404 1.30458 -1.4574 0
M  V30 4691 C 431.784 2.1048 -0.161692 0
M  V30 4692 O 431.132 2.11831 0.856734 0
M  V30 4693 C 431.342 2.19754 -2.71126 0
M  V30 4694 C 432.69 2.80334 -3.18901 0
M  V30 4695 O 433.714 2.30049 -2.71948 0
M  V30 4696 O 432.573 3.71766 -4.00565 0
M  V30 4697 H 429.667 0.588117 -0.581418 0
M  V30 4698 H 432.213 0.561328 -1.60147 0
M  V30 4699 H 430.985 1.60316 -3.56952 0
M  V30 4700 H 430.608 3.01351 -2.59371 0
M  V30 4701 N 431.605 1.3629 0.791371 0
M  V30 4702 C 433.021 1.16661 1.08914 0
M  V30 4703 C 433.221 -0.0106266 2.01497 0
M  V30 4704 O 432.277 -0.676596 2.43266 0
M  V30 4705 C 433.59 2.47656 1.70549 0
M  V30 4706 C 435.138 2.54002 1.82899 0
M  V30 4707 C 435.613 3.85078 2.47949 0
M  V30 4708 N 437.104 3.86413 2.5542 0
M  V30 4709 C 437.839 4.84572 3.06557 0
M  V30 4710 N 437.335 5.93124 3.58016 0
M  V30 4711 N 439.128 4.71994 3.05251 0
M  V30 4712 H 431.279 2.11668 0.176238 0
M  V30 4713 H 433.542 0.937486 0.140796 0
M  V30 4714 H 433.248 3.34059 1.09989 0
M  V30 4715 H 433.122 2.63319 2.70079 0
M  V30 4716 H 435.509 1.68018 2.42598 0
M  V30 4717 H 435.59 2.42239 0.821808 0
M  V30 4718 H 435.234 4.71467 1.88895 0
M  V30 4719 H 435.164 3.94135 3.49235 0
M  V30 4720 H 437.655 3.07988 2.18979 0
M  V30 4721 H 437.968 6.63999 3.95381 0
M  V30 4722 H 436.313 5.96796 3.56173 0
M  V30 4723 H 439.504 3.86321 2.64336 0
M  V30 4724 H 439.677 5.48653 3.44796 0
M  V30 4725 N 433.083 -1.0153 1.20538 0
M  V30 4726 C 434.499 -1.27461 0.96051 0
M  V30 4727 C 434.699 -1.98273 -0.359193 0
M  V30 4728 O 433.755 -2.27886 -1.0874 0
M  V30 4729 C 435.068 -2.10837 2.14402 0
M  V30 4730 C 436.616 -2.24099 2.18515 0
M  V30 4731 C 437.091 -3.10852 3.36355 0
M  V30 4732 N 438.582 -3.18441 3.36377 0
M  V30 4733 C 439.317 -3.85795 4.24205 0
M  V30 4734 N 438.813 -4.55264 5.22213 0
M  V30 4735 N 440.606 -3.82331 4.12043 0
M  V30 4736 H 432.757 -0.539907 2.05423 0
M  V30 4737 H 435.02 -0.30092 0.898972 0
M  V30 4738 H 434.726 -1.66144 3.09983 0
M  V30 4739 H 434.6 -3.11576 2.12604 0
M  V30 4740 H 436.987 -2.68016 1.23497 0
M  V30 4741 H 437.068 -1.22865 2.24361 0
M  V30 4742 H 436.712 -2.6764 4.31661 0
M  V30 4743 H 436.642 -4.12177 3.27746 0
M  V30 4744 H 439.133 -2.68978 2.65442 0
M  V30 4745 H 439.446 -5.04331 5.85551 0
M  V30 4746 H 437.791 -4.54085 5.26148 0
M  V30 4747 H 440.982 -3.27207 3.34743 0
M  V30 4748 H 441.155 -4.34547 4.807 0
M  V30 4749 N 434.561 -1.01147 -1.20859 0
M  V30 4750 C 435.524 -0.582224 -2.21682 0
M  V30 4751 C 436.524 0.344887 -1.57058 0
M  V30 4752 O 437.714 0.134281 -1.73682 0
M  V30 4753 C 434.846 0.150496 -3.40568 0
M  V30 4754 H 436.039 -1.47408 -2.61172 0
M  V30 4755 H 433.592 -0.800695 -1.34233 0
M  V30 4756 H 434.327 1.0575 -3.06574 0
M  V30 4757 H 434.112 -0.515444 -3.88697 0
M  V30 4758 H 435.602 0.438344 -4.15293 0
M  V30 4759 N 436.039 1.36541 -0.78704 0
M  V30 4760 C 437.267 2.03561 -0.370199 0
M  V30 4761 C 437.682 1.59347 1.01263 0
M  V30 4762 O 437.039 0.781781 1.64907 0
M  V30 4763 C 437.09 3.59033 -0.421614 0
M  V30 4764 O 436.811 4.01634 -1.7499 0
M  V30 4765 C 438.312 4.433 0.00489763 0
M  V30 4766 H 435.532 0.653346 -0.152904 0
M  V30 4767 H 438.076 1.74566 -1.06522 0
M  V30 4768 H 436.231 3.86746 0.224971 0
M  V30 4769 H 436.645 4.96217 -1.69909 0
M  V30 4770 H 438.119 5.51939 -0.0822184 0
M  V30 4771 H 438.596 4.26285 1.05723 0
M  V30 4772 H 439.202 4.20843 -0.614085 0
M  V30 4773 N 437.518 0.538854 1.48102 0
M  V30 4774 C 438.767 0.0059532 2.01699 0
M  V30 4775 C 439.08 -1.34476 1.42041 0
M  V30 4776 O 440.286 -1.96653 1.87189 0
M  V30 4777 C 438.742 -0.0397627 3.59878 0
M  V30 4778 C 438.35 1.30659 4.28523 0
M  V30 4779 C 440.094 -0.521024 4.2129 0
M  V30 4780 C 438.001 1.22098 5.78659 0
M  V30 4781 H 436.931 -0.00154456 0.753998 0
M  V30 4782 H 439.582 0.683963 1.70277 0
M  V30 4783 H 437.964 -0.783037 3.88181 0
M  V30 4784 H 439.138 2.06613 4.11883 0
M  V30 4785 H 437.453 1.7243 3.79021 0
M  V30 4786 H 440.05 -0.603184 5.31287 0
M  V30 4787 H 440.393 -1.52885 3.8721 0
M  V30 4788 H 440.926 0.166834 3.9745 0
M  V30 4789 H 437.665 2.20424 6.17328 0
M  V30 4790 H 437.185 0.50295 5.97688 0
M  V30 4791 H 438.864 0.915345 6.40492 0
M  V30 4792 N 438.996 -1.55193 0.274407 0
M  V30 4793 C 439.906 -2.26164 -0.623473 0
M  V30 4794 C 440.922 -1.28729 -1.17068 0
M  V30 4795 O 442.098 -1.61663 -1.20112 0
M  V30 4796 C 439.163 -2.96833 -1.7914 0
M  V30 4797 C 438.224 -4.09745 -1.28093 0
M  V30 4798 C 437.457 -4.77034 -2.3932 0
M  V30 4799 O 437.68 -4.4353 -3.5866 0
M  V30 4800 O 436.614 -5.64996 -2.07516 0
M  V30 4801 H 440.44 -3.03661 -0.0485661 0
M  V30 4802 H 438.025 -1.49341 0.0418382 0
M  V30 4803 H 439.907 -3.41248 -2.4724 0
M  V30 4804 H 438.582 -2.22253 -2.35341 0
M  V30 4805 H 437.489 -3.69787 -0.566416 0
M  V30 4806 H 438.822 -4.86224 -0.764683 0
M  V30 4807 N 440.474 -0.00167713 -1.576 0
M  V30 4808 C 441.751 0.719951 -1.81868 0
M  V30 4809 C 442.131 1.91895 -0.879747 0
M  V30 4810 O 441.479 2.28389 0.0711423 0
M  V30 4811 C 441.689 1.12409 -3.30402 0
M  V30 4812 C 443.037 1.52724 -3.96182 0
M  V30 4813 O 444.061 1.21784 -3.34734 0
M  V30 4814 O 442.92 2.10265 -5.04431 0
M  V30 4815 H 440.014 0.350707 -0.748955 0
M  V30 4816 H 442.56 -0.0272597 -1.69678 0
M  V30 4817 H 441.332 0.269532 -3.90371 0
M  V30 4818 H 440.955 1.93035 -3.47596 0
M  V30 4819 N 441.952 1.55251 0.271103 0
M  V30 4820 C 443.201 1.75151 1.00025 0
M  V30 4821 C 443.514 0.561041 1.87381 0
M  V30 4822 O 444.72 0.642506 2.63788 0
M  V30 4823 C 443.176 3.09999 1.82835 0
M  V30 4824 C 442.784 4.3662 1.00336 0
M  V30 4825 C 444.528 3.39249 2.55168 0
M  V30 4826 C 442.435 5.62506 1.82595 0
M  V30 4827 H 441.365 0.652877 0.377183 0
M  V30 4828 H 444.016 1.81708 0.255843 0
M  V30 4829 H 442.398 2.97485 2.61378 0
M  V30 4830 H 443.572 4.60055 0.261959 0
M  V30 4831 H 441.887 4.14527 0.394486 0
M  V30 4832 H 444.484 4.3051 3.1712 0
M  V30 4833 H 444.827 2.59467 3.2555 0
M  V30 4834 H 445.36 3.52869 1.83653 0
M  V30 4835 H 442.099 6.45041 1.16631 0
M  V30 4836 H 441.619 5.43211 2.54327 0
M  V30 4837 H 443.298 6.00875 2.39913 0
M  V30 4838 N 443.43 -0.535701 1.48216 0
M  V30 4839 C 444.393 -1.623 1.61838 0
M  V30 4840 C 445.393 -1.53087 0.492024 0
M  V30 4841 O 446.583 -1.5686 0.757668 0
M  V30 4842 C 443.715 -3.01907 1.58319 0
M  V30 4843 H 444.908 -1.51564 2.58783 0
M  V30 4844 H 442.461 -0.757317 1.36727 0
M  V30 4845 H 443.196 -3.18155 0.628299 0
M  V30 4846 H 442.981 -3.10003 2.40085 0
M  V30 4847 H 444.471 -3.80969 1.71033 0
M  V30 4848 N 444.908 -1.36708 -0.784132 0
M  V30 4849 C 445.856 -1.31533 -1.91838 0
M  V30 4850 C 446.85 -0.206205 -1.6814 0
M  V30 4851 O 448.056 -0.373519 -1.76082 0
M  V30 4852 H 444.431 -0.409613 -0.630651 0
M  V30 4853 H 446.402 -2.2731 -1.9332 0
M  V30 4854 C 445.151 -1.12679 -3.28936 0
M  V30 4855 H 444.474 -1.97274 -3.4774 0
M  V30 4856 H 445.914 -1.13106 -4.08636 0
M  V30 4857 C 444.373 0.168281 -3.36479 0
M  V30 4858 O 444.903 1.15625 -3.84699 0
M  V30 4859 N 443.109 0.214762 -2.89805 0
M  V30 4860 H 442.656 -0.589852 -2.50756 0
M  V30 4861 H 442.614 1.08094 -2.95234 0
M  V30 4862 N 446.386 1.0089 -1.21074 0
M  V30 4863 C 447.336 2.0799 -0.934034 0
M  V30 4864 C 448.32 1.60529 0.10919 0
M  V30 4865 O 449.512 1.76722 -0.0992198 0
M  V30 4866 C 446.641 3.39693 -0.496334 0
M  V30 4867 C 445.727 3.93833 -1.57341 0
M  V30 4868 N 446.118 4.21388 -2.7976 0
M  V30 4869 C 444.416 4.22067 -1.44137 0
M  V30 4870 C 445.117 4.65156 -3.49292 0
M  V30 4871 N 444.093 4.67895 -2.76722 0
M  V30 4872 H 447.895 2.27213 -1.86417 0
M  V30 4873 H 445.409 1.18927 -1.10589 0
M  V30 4874 H 447.406 4.15962 -0.279471 0
M  V30 4875 H 446.066 3.21879 0.427084 0
M  V30 4876 H 447.077 4.10061 -3.1634 0
M  V30 4877 H 443.754 4.1341 -0.582947 0
M  V30 4878 H 445.144 4.95231 -4.54088 0
M  V30 4879 N 447.864 1.01787 1.20321 0
M  V30 4880 C 449.11 0.718699 1.90279 0
M  V30 4881 C 449.465 -0.743669 1.77447 0
M  V30 4882 O 448.758 -1.53345 1.14874 0
M  V30 4883 C 448.952 1.09076 3.40349 0
M  V30 4884 C 448.781 2.58775 3.67784 0
M  V30 4885 C 447.551 3.25578 3.86428 0
M  V30 4886 C 449.749 3.56966 3.70243 0
M  V30 4887 N 447.731 4.64495 4.01395 0
M  V30 4888 C 449.102 4.8145 3.90649 0
M  V30 4889 C 451.157 3.5092 3.53213 0
M  V30 4890 C 449.86 6.00619 3.95789 0
M  V30 4891 C 451.886 4.69493 3.59625 0
M  V30 4892 C 451.248 5.92786 3.80505 0
M  V30 4893 H 447.347 0.31468 0.715891 0
M  V30 4894 H 449.931 1.30295 1.44677 0
M  V30 4895 H 448.102 0.534839 3.847 0
M  V30 4896 H 449.834 0.744997 3.97784 0
M  V30 4897 H 446.589 2.76003 3.84862 0
M  V30 4898 H 447.013 5.36624 4.12752 0
M  V30 4899 H 451.655 2.56593 3.36035 0
M  V30 4900 H 449.373 6.95326 4.11762 0
M  V30 4901 H 452.959 4.66432 3.47754 0
M  V30 4902 H 451.839 6.83003 3.85327 0
M  V30 4903 N 449.342 -1.36122 0.79427 0
M  V30 4904 C 450.588 -1.99846 0.378542 0
M  V30 4905 C 450.943 -1.61898 -1.03955 0
M  V30 4906 O 450.236 -0.866013 -1.70912 0
M  V30 4907 C 450.43 -3.5409 0.48527 0
M  V30 4908 C 450.259 -4.0702 1.91219 0
M  V30 4909 C 449.029 -4.36944 2.53787 0
M  V30 4910 C 451.227 -4.26435 2.87502 0
M  V30 4911 N 449.209 -4.75727 3.88017 0
M  V30 4912 C 450.58 -4.68077 4.06576 0
M  V30 4913 C 452.635 -4.08616 2.84495 0
M  V30 4914 C 451.338 -4.93765 5.23057 0
M  V30 4915 C 453.364 -4.35453 4.00169 0
M  V30 4916 C 452.726 -4.77355 5.17988 0
M  V30 4917 H 448.825 -0.759549 0.186034 0
M  V30 4918 H 451.409 -1.65043 1.0329 0
M  V30 4919 H 449.58 -3.88151 -0.139023 0
M  V30 4920 H 451.312 -4.04675 0.0453192 0
M  V30 4921 H 448.067 -4.26822 2.05231 0
M  V30 4922 H 448.491 -4.99396 4.57092 0
M  V30 4923 H 453.133 -3.75373 1.94564 0
M  V30 4924 H 450.851 -5.25887 6.1357 0
M  V30 4925 H 454.437 -4.2323 3.99208 0
M  V30 4926 H 453.317 -4.97718 6.06008 0
M  V30 4927 N 450.82 -0.546701 -1.47814 0
M  V30 4928 C 452.066 -0.0187684 -2.02791 0
M  V30 4929 C 452.399 1.32338 -1.42128 0
M  V30 4930 O 451.674 1.85867 -0.573023 0
M  V30 4931 C 451.957 0.0854985 -3.59998 0
M  V30 4932 C 451.81 -1.283 -4.31114 0
M  V30 4933 C 453.129 0.80412 -4.32691 0
M  V30 4934 H 450.248 -0.0082946 -0.736953 0
M  V30 4935 H 452.89 -0.706962 -1.76358 0
M  V30 4936 H 451.04 0.671609 -3.82651 0
M  V30 4937 H 452.712 -1.91151 -4.19832 0
M  V30 4938 H 450.955 -1.86049 -3.91878 0
M  V30 4939 H 451.626 -1.16287 -5.39612 0
M  V30 4940 H 454.102 0.306576 -4.14969 0
M  V30 4941 H 452.978 0.846011 -5.42341 0
M  V30 4942 H 453.239 1.85802 -4.01161 0
M  V30 4943 N 452.299 1.55045 -0.282633 0
M  V30 4944 C 453.247 2.24254 0.617478 0
M  V30 4945 C 454.241 1.24215 1.15183 0
M  V30 4946 O 455.447 1.42123 1.10459 0
M  V30 4947 H 451.822 0.719801 0.217693 0
M  V30 4948 H 453.793 2.98398 0.0110076 0
M  V30 4949 C 452.542 2.98281 1.78672 0
M  V30 4950 H 451.865 3.75053 1.38475 0
M  V30 4951 H 453.305 3.50017 2.393 0
M  V30 4952 C 451.764 2.04184 2.67975 0
M  V30 4953 O 452.294 1.59792 3.6855 0
M  V30 4954 N 450.5 1.70526 2.35307 0
M  V30 4955 H 450.047 2.06821 1.53567 0
M  V30 4956 H 450.005 1.07839 2.95327 0
M  V30 4957 N 453.777 0.010035 1.57597 0
M  V30 4958 C 455.023 -0.668011 1.92118 0
M  V30 4959 C 455.378 -1.70821 0.885328 0
M  V30 4960 O 454.671 -1.91333 -0.101187 0
M  V30 4961 C 454.865 -1.34434 3.31153 0
M  V30 4962 C 454.694 -0.371176 4.48166 0
M  V30 4963 C 453.464 0.0220686 5.05295 0
M  V30 4964 C 455.662 0.366731 5.12991 0
M  V30 4965 N 453.644 0.9924 6.05826 0
M  V30 4966 C 455.015 1.19142 6.08445 0
M  V30 4967 C 457.07 0.429489 4.96044 0
M  V30 4968 C 455.773 2.07317 6.88776 0
M  V30 4969 C 457.799 1.2985 5.76969 0
M  V30 4970 C 457.161 2.11101 6.72023 0
M  V30 4971 H 453.26 -0.217337 0.751192 0
M  V30 4972 H 455.844 0.0727375 1.94564 0
M  V30 4973 H 454.015 -2.05533 3.29561 0
M  V30 4974 H 455.747 -1.97789 3.53075 0
M  V30 4975 H 452.502 -0.348409 4.72317 0
M  V30 4976 H 452.926 1.47324 6.60776 0
M  V30 4977 H 457.568 -0.18442 4.22398 0
M  V30 4978 H 455.286 2.69771 7.61741 0
M  V30 4979 H 458.872 1.3511 5.65894 0
M  V30 4980 H 457.752 2.77257 7.33552 0
M  V30 4981 N 455.255 -1.55392 -0.262866 0
M  V30 4982 C 456.503 -1.76127 -0.991147 0
M  V30 4983 C 456.824 -0.571083 -1.8645 0
M  V30 4984 O 456.094 0.413698 -1.91482 0
M  V30 4985 H 454.674 -0.649528 -0.368948 0
M  V30 4986 H 457.336 -1.9281 -0.284655 0
M  V30 4987 H 456.432 -2.6663 -1.62219 0
M  V30 4988 N 456.733 0.527833 -1.48498 0
M  V30 4989 C 457.963 1.30633 -1.60058 0
M  V30 4990 C 458.371 1.87394 -0.260786 0
M  V30 4991 O 457.714 1.67227 0.760317 0
M  V30 4992 C 457.776 2.49361 -2.58958 0
M  V30 4993 C 457.44 2.13671 -4.03972 0
M  V30 4994 C 458.437 1.69217 -4.91591 0
M  V30 4995 C 456.122 2.24129 -4.49524 0
M  V30 4996 C 458.116 1.35689 -6.2279 0
M  V30 4997 C 455.803 1.90212 -5.80743 0
M  V30 4998 C 456.801 1.46063 -6.67199 0
M  V30 4999 O 456.489 1.12593 -7.95976 0
M  V30 5000 H 456.221 0.403444 -0.54241 0
M  V30 5001 H 458.775 0.643233 -1.95068 0
M  V30 5002 H 457.005 3.18659 -2.19073 0
M  V30 5003 H 458.694 3.11421 -2.6033 0
M  V30 5004 H 459.46 1.60607 -4.57636 0
M  V30 5005 H 455.339 2.57447 -3.82416 0
M  V30 5006 H 458.883 1.01157 -6.90227 0
M  V30 5007 H 454.78 1.98464 -6.14233 0
M  V30 5008 H 455.548 1.25972 -8.08748 0
M  V30 5009 N 458.211 1.37122 0.776871 0
M  V30 5010 C 459.158 1.3247 1.88998 0
M  V30 5011 C 460.128 0.191143 1.64997 0
M  V30 5012 O 461.313 0.379683 1.86984 0
M  V30 5013 C 458.453 1.13241 3.25992 0
M  V30 5014 C 457.566 2.35782 3.61982 0
M  V30 5015 C 456.701 2.09465 4.88158 0
M  V30 5016 C 455.74 3.279 5.16864 0
M  V30 5017 N 454.877 3.01167 6.34226 0
M  V30 5018 H 459.717 2.27642 1.9231 0
M  V30 5019 H 457.254 1.13125 0.94027 0
M  V30 5020 H 459.212 1.00115 4.0501 0
M  V30 5021 H 457.842 0.217186 3.22069 0
M  V30 5022 H 456.894 2.59666 2.77989 0
M  V30 5023 H 458.206 3.24125 3.79137 0
M  V30 5024 H 457.36 1.93341 5.75069 0
M  V30 5025 H 456.099 1.18452 4.73097 0
M  V30 5026 H 455.104 3.44569 4.2843 0
M  V30 5027 H 456.329 4.19757 5.33836 0
M  V30 5028 H 454.275 2.12779 6.20533 0
M  V30 5029 H 454.192 3.83052 6.51772 0
M  V30 5030 H 455.46 2.88649 7.24087 0
M  V30 5031 N 459.689 -1.00246 1.21608 0
M  V30 5032 C 460.914 -1.78167 1.06167 0
M  V30 5033 C 461.339 -1.84138 -0.384035 0
M  V30 5034 O 460.697 -1.28683 -1.27712 0
M  V30 5035 C 460.745 -3.19786 1.66642 0
M  V30 5036 O 459.849 -4.02153 0.913613 0
M  V30 5037 H 459.19 -0.549 0.37349 0
M  V30 5038 H 461.72 -1.25994 1.61204 0
M  V30 5039 H 461.73 -3.70451 1.70969 0
M  V30 5040 H 460.405 -3.14754 2.7185 0
M  V30 5041 H 458.982 -3.60711 0.945635 0
M  V30 5042 N 461.167 -1.02423 -1.1978 0
M  V30 5043 C 462.392 -0.7373 -1.93852 0
M  V30 5044 C 462.817 0.696923 -1.74713 0
M  V30 5045 O 462.175 1.48056 -1.04638 0
M  V30 5046 C 462.223 -1.08783 -3.438 0
M  V30 5047 O 461.327 -0.20383 -4.11896 0
M  V30 5048 H 460.668 -0.27284 -0.605355 0
M  V30 5049 H 463.198 -1.36966 -1.51992 0
M  V30 5050 H 463.208 -1.04276 -3.9445 0
M  V30 5051 H 461.883 -2.13274 -3.57053 0
M  V30 5052 H 460.46 -0.307091 -3.71633 0
M  V30 5053 N 462.645 1.35699 -0.801477 0
M  V30 5054 C 463.891 1.99208 -0.380022 0
M  V30 5055 C 464.224 1.63445 1.04878 0
M  V30 5056 O 463.499 0.895223 1.72673 0
M  V30 5057 C 463.782 3.55755 -0.557708 0
M  V30 5058 C 463.635 4.01332 -2.03107 0
M  V30 5059 C 464.954 4.40096 0.0197968 0
M  V30 5060 H 462.073 0.723667 -0.139552 0
M  V30 5061 H 464.715 1.60928 -1.01006 0
M  V30 5062 H 462.865 3.88494 -0.0213741 0
M  V30 5063 H 464.537 3.79026 -2.62939 0
M  V30 5064 H 462.78 3.52429 -2.52936 0
M  V30 5065 H 463.451 5.10234 -2.1063 0
M  V30 5066 H 465.927 4.13786 -0.438179 0
M  V30 5067 H 464.803 5.48735 -0.134477 0
M  V30 5068 H 465.064 4.2786 1.11303 0
M  V30 5069 N 464.123 0.554532 1.47522 0
M  V30 5070 C 465.363 0.0317994 2.04375 0
M  V30 5071 C 465.727 -1.29242 1.41988 0
M  V30 5072 O 466.928 -1.90269 1.89872 0
M  V30 5073 C 465.199 -0.0623344 3.57346 0
M  V30 5074 S 466.758 -0.531578 4.35568 0
M  V30 5075 H 463.576 0.0238553 0.7106 0
M  V30 5076 H 466.178 0.74066 1.80927 0
M  V30 5077 H 464.882 0.905857 4.00278 0
M  V30 5078 H 464.413 -0.794831 3.85287 0
M  V30 5079 H 466.428 -1.79175 4.62721 0
M  V30 5080 N 465.601 -1.54893 0.290851 0
M  V30 5081 C 466.878 -1.91991 -0.373989 0
M  V30 5082 C 467.258 -1.21694 -1.72493 0
M  V30 5083 O 466.606 -0.34917 -2.25816 0
M  V30 5084 C 466.816 -3.45419 -0.498703 0
M  V30 5085 C 468.164 -4.1748 -0.774298 0
M  V30 5086 O 469.188 -3.51398 -0.582908 0
M  V30 5087 O 468.047 -5.3445 -1.14129 0
M  V30 5088 H 465.141 -0.800593 -0.207315 0
M  V30 5089 H 467.687 -1.66297 0.338164 0
M  V30 5090 H 466.459 -3.88688 0.451392 0
M  V30 5091 H 466.082 -3.77117 -1.25972 0
M  V30 5092 N 467.08 -0.0183926 -1.57589 0
M  V30 5093 C 468.32 0.666846 -1.93216 0
M  V30 5094 C 468.684 1.69905 -0.894215 0
M  V30 5095 O 469.885 2.436 -1.13633 0
M  V30 5096 C 468.156 1.27684 -3.33814 0
M  V30 5097 S 469.715 1.98464 -3.91353 0
M  V30 5098 H 466.533 0.219826 -0.676164 0
M  V30 5099 H 469.135 -0.0794893 -1.95338 0
M  V30 5100 H 467.839 0.513006 -4.07181 0
M  V30 5101 H 467.37 2.06071 -3.3511 0
M  V30 5102 H 469.385 3.26189 -3.73918 0
M  V30 5103 N 468.558 1.5553 0.254621 0
M  V30 5104 C 469.835 1.6774 1.00611 0
M  V30 5105 C 470.215 0.555993 2.03647 0
M  V30 5106 O 469.563 -0.441583 2.24193 0
M  V30 5107 C 469.773 3.07725 1.6464 0
M  V30 5108 C 471.121 3.66074 2.15116 0
M  V30 5109 O 472.145 3.10476 1.74595 0
M  V30 5110 O 471.004 4.63526 2.89493 0
M  V30 5111 H 468.098 0.681958 0.467828 0
M  V30 5112 H 470.644 1.67863 0.24902 0
M  V30 5113 H 469.416 3.80792 0.900734 0
M  V30 5114 H 469.039 3.1158 2.46989 0
M  V30 5115 N 470.036 -0.519951 1.48776 0
M  V30 5116 C 470.999 -1.60574 1.6355 0
M  V30 5117 C 471.999 -1.52557 0.508234 0
M  V30 5118 O 473.189 -1.56047 0.774262 0
M  V30 5119 C 470.321 -3.00211 1.61512 0
M  V30 5120 H 471.514 -1.4881 2.60376 0
M  V30 5121 H 469.067 -0.742772 1.37523 0
M  V30 5122 H 469.802 -3.17471 0.662009 0
M  V30 5123 H 469.587 -3.07439 2.43359 0
M  V30 5124 H 471.077 -3.79134 1.75064 0
M  V30 5125 N 471.514 -1.37532 -0.769588 0
M  V30 5126 C 472.444 -1.36172 -1.89682 0
M  V30 5127 C 473.425 -0.23001 -1.68538 0
M  V30 5128 O 474.61 -0.43069 -1.89364 0
M  V30 5129 C 471.74 -1.1701 -3.26995 0
M  V30 5130 C 470.694 -2.27216 -3.62708 0
M  V30 5131 C 470.02 -1.93174 -4.98586 0
M  V30 5132 C 471.32 -3.6941 -3.69234 0
M  V30 5133 H 473.014 -2.30499 -1.91078 0
M  V30 5134 H 470.56 -1.10953 -0.917902 0
M  V30 5135 H 472.513 -1.14688 -4.05493 0
M  V30 5136 H 471.237 -0.191395 -3.26039 0
M  V30 5137 H 469.896 -2.28697 -2.86519 0
M  V30 5138 H 469.544 -0.938281 -4.94171 0
M  V30 5139 H 469.244 -2.66973 -5.23449 0
M  V30 5140 H 470.768 -1.92443 -5.79481 0
M  V30 5141 H 472.182 -3.70047 -4.37879 0
M  V30 5142 H 470.579 -4.4228 -4.05597 0
M  V30 5143 H 471.649 -4.0288 -2.69844 0
M  V30 5144 N 472.992 0.995999 -1.22138 0
M  V30 5145 C 473.942 2.06988 -0.956042 0
M  V30 5146 C 474.926 1.60636 0.0921576 0
M  V30 5147 O 476.118 1.76607 -0.117958 0
M  V30 5148 C 473.247 3.39148 -0.532335 0
M  V30 5149 C 472.333 3.92142 -1.61509 0
M  V30 5150 N 472.724 4.18397 -2.84214 0
M  V30 5151 C 471.022 4.20514 -1.48606 0
M  V30 5152 C 471.723 4.61425 -3.54206 0
M  V30 5153 N 470.699 4.64934 -2.81669 0
M  V30 5154 H 474.501 2.25223 -1.88816 0
M  V30 5155 H 472.015 1.17748 -1.11845 0
M  V30 5156 H 474.012 4.15642 -0.323574 0
M  V30 5157 H 472.672 3.22314 0.392921 0
M  V30 5158 H 473.683 4.06682 -3.20671 0
M  V30 5159 H 470.36 4.12769 -0.626762 0
M  V30 5160 H 471.75 4.90387 -4.59315 0
M  V30 5161 N 474.47 1.03057 1.19235 0
M  V30 5162 C 475.747 0.642608 1.84743 0
M  V30 5163 C 476.127 -0.878577 1.91948 0
M  V30 5164 O 475.475 -1.77597 1.43776 0
M  V30 5165 C 475.685 1.30665 3.23616 0
M  V30 5166 C 477.033 1.43098 3.9976 0
M  V30 5167 O 478.057 1.26396 3.3302 0
M  V30 5168 O 476.916 1.70223 5.19313 0
M  V30 5169 H 474.01 0.223573 0.796206 0
M  V30 5170 H 476.556 1.12883 1.26711 0
M  V30 5171 H 475.328 2.34544 3.13217 0
M  V30 5172 H 474.951 0.808405 3.89295 0
M  V30 5173 N 475.948 -1.35272 0.808662 0
M  V30 5174 C 477.173 -2.03477 0.401475 0
M  V30 5175 C 477.598 -1.60537 -0.980279 0
M  V30 5176 O 476.956 -0.78304 -1.63518 0
M  V30 5177 C 477.004 -3.57181 0.495354 0
M  V30 5178 O 476.108 -4.09474 -0.490397 0
M  V30 5179 H 475.449 -0.642561 0.167366 0
M  V30 5180 H 477.979 -1.72824 1.09512 0
M  V30 5181 H 477.989 -4.06356 0.365912 0
M  V30 5182 H 476.664 -3.87784 1.5032 0
M  V30 5183 H 475.241 -3.71516 -0.321023 0
M  V30 5184 N 477.426 -0.562348 -1.47226 0
M  V30 5185 C 478.336 0.185466 -2.33866 0
M  V30 5186 C 479.352 0.906713 -1.48508 0
M  V30 5187 O 480.528 0.874458 -1.81425 0
M  V30 5188 C 477.593 1.19904 -3.25306 0
M  V30 5189 C 476.654 0.484669 -4.26555 0
M  V30 5190 C 475.887 1.44996 -5.13626 0
M  V30 5191 O 476.11 2.68515 -5.03245 0
M  V30 5192 O 475.044 0.971642 -5.94006 0
M  V30 5193 H 478.87 -0.525361 -2.99121 0
M  V30 5194 H 476.455 -0.322916 -1.45868 0
M  V30 5195 H 478.337 1.78399 -3.81774 0
M  V30 5196 H 477.012 1.8917 -2.62672 0
M  V30 5197 H 475.919 -0.141605 -3.73832 0
M  V30 5198 H 477.252 -0.166634 -4.91918 0
M  V30 5199 N 478.904 1.54736 -0.299062 0
M  V30 5200 C 480.129 2.04975 0.316254 0
M  V30 5201 C 480.554 1.17501 1.46885 0
M  V30 5202 O 479.912 0.178678 1.80417 0
M  V30 5203 C 479.96 3.52672 0.751997 0
M  V30 5204 O 479.064 3.68226 1.85697 0
M  V30 5205 H 478.405 0.661126 0.0617175 0
M  V30 5206 H 480.935 1.99805 -0.440341 0
M  V30 5207 H 480.945 3.94488 1.04133 0
M  V30 5208 H 479.62 4.158 -0.0911482 0
M  V30 5209 H 478.197 3.38316 1.56834 0
M  V30 5210 N 480.382 0.0267497 1.57577 0
M  V30 5211 C 481.793 -0.512413 1.79531 0
M  V30 5212 C 482.144 -1.72391 0.936791 0
M  V30 5213 O 481.269 -2.15903 0.146543 0
M  V30 5214 C 481.864 -0.936378 3.25603 0
M  V30 5215 C 480.423 -1.42067 3.4856 0
M  V30 5216 C 479.57 -0.384278 2.74624 0
M  V30 5217 H 482.521 0.252797 1.56674 0
M  V30 5218 H 482.542 -1.80088 3.35184 0
M  V30 5219 H 482.054 -0.0544332 3.88062 0
M  V30 5220 H 480.155 -2.32262 2.9135 0
M  V30 5221 H 480.268 -1.42968 4.57271 0
M  V30 5222 H 478.632 -0.851855 2.40032 0
M  V30 5223 H 479.415 0.489159 3.39797 0
M  V30 5224 N 481.861 -1.55662 -0.24637 0
M  V30 5225 C 482.791 -1.93377 -1.30873 0
M  V30 5226 C 483.772 -0.798773 -1.50179 0
M  V30 5227 O 484.957 -1.0591 -1.62778 0
M  V30 5228 C 482.087 -2.22893 -2.66338 0
M  V30 5229 C 481.041 -3.38649 -2.61727 0
M  V30 5230 C 480.367 -3.53708 -4.00992 0
M  V30 5231 C 481.667 -4.74323 -2.18666 0
M  V30 5232 H 483.361 -2.82363 -0.995552 0
M  V30 5233 H 480.907 -1.35854 -0.477464 0
M  V30 5234 H 482.86 -2.47866 -3.40794 0
M  V30 5235 H 481.584 -1.30733 -2.99293 0
M  V30 5236 H 480.243 -3.13685 -1.89729 0
M  V30 5237 H 479.891 -2.58967 -4.31214 0
M  V30 5238 H 479.591 -4.31551 -3.98795 0
M  V30 5239 H 481.115 -3.81003 -4.77147 0
M  V30 5240 H 482.529 -4.98665 -2.82854 0
M  V30 5241 H 480.926 -5.55273 -2.27579 0
M  V30 5242 H 481.996 -4.71349 -1.13834 0
M  V30 5243 N 483.339 0.512053 -1.4905 0
M  V30 5244 C 484.269 1.62365 -1.67809 0
M  V30 5245 C 485.25 1.61737 -0.526809 0
M  V30 5246 O 486.435 1.78651 -0.761404 0
M  V30 5247 C 483.565 3.00895 -1.73435 0
M  V30 5248 C 482.519 3.16387 -2.88242 0
M  V30 5249 C 481.845 4.56157 -2.78971 0
M  V30 5250 C 483.145 2.97457 -4.29321 0
M  V30 5251 H 484.839 1.46921 -2.60873 0
M  V30 5252 H 482.385 0.705379 -1.2554 0
M  V30 5253 H 484.338 3.78549 -1.85145 0
M  V30 5254 H 483.062 3.17403 -0.769619 0
M  V30 5255 H 481.721 2.41155 -2.76116 0
M  V30 5256 H 481.369 4.69525 -1.8043 0
M  V30 5257 H 481.069 4.67465 -3.5602 0
M  V30 5258 H 482.593 5.35886 -2.92675 0
M  V30 5259 H 484.007 3.64888 -4.42187 0
M  V30 5260 H 482.404 3.20245 -5.07507 0
M  V30 5261 H 483.474 1.93692 -4.44535 0
M  V30 5262 N 484.817 1.37938 0.762283 0
M  V30 5263 C 485.78 1.34279 1.85747 0
M  V30 5264 C 486.78 0.244969 1.58923 0
M  V30 5265 O 487.97 0.501365 1.66829 0
M  V30 5266 C 485.102 1.08833 3.23061 0
M  V30 5267 H 486.295 2.31705 1.90401 0
M  V30 5268 H 483.848 1.23105 0.963057 0
M  V30 5269 H 484.583 0.119767 3.24079 0
M  V30 5270 H 484.368 1.88306 3.43923 0
M  V30 5271 H 485.858 1.08946 4.03138 0
M  V30 5272 N 486.295 -0.989507 1.22664 0
M  V30 5273 C 487.711 -1.25395 0.987331 0
M  V30 5274 C 487.911 -1.9899 -0.317056 0
M  V30 5275 O 486.967 -2.30141 -1.03882 0
M  V30 5276 C 488.28 -2.06242 2.18826 0
M  V30 5277 C 489.828 -2.19413 2.23219 0
M  V30 5278 C 490.303 -3.03648 3.42873 0
M  V30 5279 N 491.794 -3.11234 3.43056 0
M  V30 5280 C 492.529 -3.7671 4.32293 0
M  V30 5281 N 492.025 -4.44085 5.31752 0
M  V30 5282 N 493.818 -3.73505 4.2006 0
M  V30 5283 H 485.969 -0.496212 2.06522 0
M  V30 5284 H 488.232 -0.281784 0.905153 0
M  V30 5285 H 487.938 -1.59531 3.13437 0
M  V30 5286 H 487.812 -3.06996 2.19165 0
M  V30 5287 H 490.199 -2.65336 1.29154 0
M  V30 5288 H 490.28 -1.18078 2.26917 0
M  V30 5289 H 489.924 -2.58424 4.37241 0
M  V30 5290 H 489.854 -4.05132 3.36416 0
M  V30 5291 H 492.345 -2.63287 2.71088 0
M  V30 5292 H 492.658 -4.91797 5.96117 0
M  V30 5293 H 491.003 -4.42822 5.35662 0
M  V30 5294 H 494.194 -3.20033 3.41609 0
M  V30 5295 H 494.367 -4.24253 4.8981 0
M  V30 5296 N 487.773 -1.03688 -1.18687 0
M  V30 5297 C 489.022 -0.733235 -1.879 0
M  V30 5298 C 489.335 0.741745 -1.8099 0
M  V30 5299 O 490.541 1.15875 -2.4553 0
M  V30 5300 C 488.997 -1.26127 -3.37076 0
M  V30 5301 C 488.605 -2.76461 -3.52524 0
M  V30 5302 C 490.349 -1.03398 -4.11715 0
M  V30 5303 C 488.256 -3.22642 -4.95637 0
M  V30 5304 H 487.186 -0.270584 -0.703776 0
M  V30 5305 H 489.837 -1.25222 -1.34133 0
M  V30 5306 H 488.219 -0.670165 -3.90288 0
M  V30 5307 H 489.393 -3.41296 -3.09602 0
M  V30 5308 H 487.708 -2.97559 -2.91286 0
M  V30 5309 H 490.305 -1.3542 -5.17267 0
M  V30 5310 H 490.648 0.0289246 -4.1629 0
M  V30 5311 H 491.181 -1.5895 -3.64664 0
M  V30 5312 H 487.92 -4.28296 -4.96228 0
M  V30 5313 H 487.44 -2.62539 -5.39289 0
M  V30 5314 H 489.119 -3.16444 -5.64333 0
M  V30 5315 N 489.251 1.34841 -0.815825 0
M  V30 5316 C 490.5 1.97755 -0.396976 0
M  V30 5317 C 490.813 1.65422 1.04379 0
M  V30 5318 O 492.019 2.21771 1.5662 0
M  V30 5319 C 490.475 3.53818 -0.658869 0
M  V30 5320 C 490.083 3.95051 -2.11278 0
M  V30 5321 C 491.827 4.23397 -0.305834 0
M  V30 5322 C 489.734 5.43997 -2.31994 0
M  V30 5323 H 488.664 0.739985 -0.1447 0
M  V30 5324 H 491.315 1.53781 -1.00118 0
M  V30 5325 H 489.697 3.95997 0.0154112 0
M  V30 5326 H 490.871 3.63998 -2.82564 0
M  V30 5327 H 489.186 3.38388 -2.42657 0
M  V30 5328 H 491.783 5.32899 -0.43854 0
M  V30 5329 H 492.126 4.09508 0.748952 0
M  V30 5330 H 492.659 3.8667 -0.934403 0
M  V30 5331 H 489.398 5.62865 -3.35952 0
M  V30 5332 H 488.918 5.76589 -1.65244 0
M  V30 5333 H 490.597 6.10584 -2.14001 0
M  V30 5334 N 490.729 0.570148 1.46925 0
M  V30 5335 C 492.006 -0.0153259 1.95594 0
M  V30 5336 C 492.386 -1.47232 1.51281 0
M  V30 5337 O 491.734 -2.15574 0.757624 0
M  V30 5338 C 491.944 0.143624 3.48704 0
M  V30 5339 C 493.292 0.00494484 4.246 0
M  V30 5340 O 494.316 0.0718214 3.56128 0
M  V30 5341 O 493.175 -0.141175 5.46318 0
M  V30 5342 H 490.269 -0.0568819 0.825041 0
M  V30 5343 H 492.815 0.637583 1.57267 0
M  V30 5344 H 491.587 1.15699 3.73804 0
M  V30 5345 H 491.21 -0.5463 3.93829 0
M  V30 5346 N 492.207 -1.54576 0.307264 0
M  V30 5347 C 493.453 -2.01272 -0.293453 0
M  V30 5348 C 493.808 -1.19178 -1.51044 0
M  V30 5349 O 493.101 -0.261704 -1.89804 0
M  V30 5350 C 493.295 -3.50572 -0.695253 0
M  V30 5351 C 493.124 -4.47118 0.481249 0
M  V30 5352 C 491.894 -4.958 0.97524 0
M  V30 5353 C 494.092 -4.96853 1.32823 0
M  V30 5354 N 492.074 -5.76212 2.11785 0
M  V30 5355 C 493.445 -5.75028 2.31824 0
M  V30 5356 C 495.5 -4.79026 1.35788 0
M  V30 5357 C 494.203 -6.37276 3.33574 0
M  V30 5358 C 496.229 -5.42097 2.364 0
M  V30 5359 C 495.591 -6.2011 3.34129 0
M  V30 5360 H 491.69 -0.778709 -0.0716705 0
M  V30 5361 H 494.274 -1.89695 0.438602 0
M  V30 5362 H 492.445 -3.62427 -1.39647 0
M  V30 5363 H 494.177 -3.84056 -1.27604 0
M  V30 5364 H 490.932 -4.70405 0.549184 0
M  V30 5365 H 491.356 -6.21101 2.69375 0
M  V30 5366 H 495.998 -4.18288 0.616021 0
M  V30 5367 H 493.716 -6.97144 4.08676 0
M  V30 5368 H 497.302 -5.30229 2.39475 0
M  V30 5369 H 496.182 -6.68049 4.10707 0
M  V30 5370 N 493.685 -0.035106 -1.57561 0
M  V30 5371 C 494.635 0.954034 -2.0708 0
M  V30 5372 C 495.619 1.2818 -0.972558 0
M  V30 5373 O 496.811 1.26691 -1.23606 0
M  V30 5374 C 493.94 2.23442 -2.60631 0
M  V30 5375 C 493.026 1.93475 -3.77396 0
M  V30 5376 N 493.417 1.33802 -4.87781 0
M  V30 5377 C 491.715 2.23434 -3.85996 0
M  V30 5378 C 492.416 1.21103 -5.68954 0
M  V30 5379 N 491.392 1.70855 -5.16052 0
M  V30 5380 H 495.194 0.487731 -2.89825 0
M  V30 5381 H 492.708 0.169759 -1.6151 0
M  V30 5382 H 494.705 2.95183 -2.94402 0
M  V30 5383 H 493.365 2.70693 -1.79319 0
M  V30 5384 H 494.376 1.01227 -5.07911 0
M  V30 5385 H 491.053 2.73317 -3.15601 0
M  V30 5386 H 492.443 0.749105 -6.67711 0
M  V30 5387 N 495.163 1.55791 0.238111 0
M  V30 5388 C 496.113 1.87444 1.29803 0
M  V30 5389 C 497.097 0.736043 1.43078 0
M  V30 5390 O 498.289 0.998146 1.46171 0
M  V30 5391 C 495.418 2.18028 2.65177 0
M  V30 5392 C 494.504 3.38217 2.55871 0
M  V30 5393 N 494.895 4.57264 2.16202 0
M  V30 5394 C 493.193 3.41502 2.86866 0
M  V30 5395 C 493.894 5.3941 2.17744 0
M  V30 5396 N 492.87 4.78695 2.57589 0
M  V30 5397 H 496.672 2.7701 0.981965 0
M  V30 5398 H 494.186 1.56135 0.44672 0
M  V30 5399 H 496.183 2.38873 3.4168 0
M  V30 5400 H 494.843 1.29765 2.97643 0
M  V30 5401 H 495.854 4.82727 1.87602 0
M  V30 5402 H 492.531 2.63536 3.23813 0
M  V30 5403 H 493.921 6.44671 1.89339 0
M  V30 5404 N 496.642 -0.504142 1.49319 0
M  V30 5405 C 498.058 -0.835039 1.36012 0
M  V30 5406 C 498.258 -1.97674 0.390808 0
M  V30 5407 O 497.314 -2.51867 -0.178655 0
M  V30 5408 C 498.627 -1.17821 2.76656 0
M  V30 5409 C 500.175 -1.2866 2.85334 0
M  V30 5410 C 500.65 -1.66307 4.26739 0
M  V30 5411 N 502.141 -1.73362 4.29534 0
M  V30 5412 C 502.876 -2.0393 5.35911 0
M  V30 5413 N 502.372 -2.32744 6.52535 0
M  V30 5414 N 504.165 -2.05155 5.23324 0
M  V30 5415 H 496.316 0.248764 2.10938 0
M  V30 5416 H 498.579 0.0486962 0.946748 0
M  V30 5417 H 498.285 -0.412682 3.4927 0
M  V30 5418 H 498.159 -2.12239 3.11825 0
M  V30 5419 H 500.546 -2.04285 2.1296 0
M  V30 5420 H 500.627 -0.323004 2.53752 0
M  V30 5421 H 500.271 -0.91234 4.99639 0
M  V30 5422 H 500.201 -2.63761 4.55782 0
M  V30 5423 H 502.692 -1.53268 3.45424 0
M  V30 5424 H 503.005 -2.55248 7.2943 0
M  V30 5425 H 501.35 -2.30207 6.55767 0
M  V30 5426 H 504.541 -1.82119 4.3122 0
M  V30 5427 H 504.714 -2.28644 6.06322 0
M  V30 5428 N 498.12 -1.38341 -0.754957 0
M  V30 5429 C 499.345 -1.37882 -1.5493 0
M  V30 5430 C 499.77 0.0296385 -1.88077 0
M  V30 5431 O 499.128 1.01133 -1.50472 0
M  V30 5432 C 499.176 -2.23996 -2.82592 0
M  V30 5433 O 498.28 -1.65612 -3.77686 0
M  V30 5434 H 497.621 -0.470384 -0.468652 0
M  V30 5435 H 500.151 -1.82084 -0.933082 0
M  V30 5436 H 500.161 -2.37806 -3.3153 0
M  V30 5437 H 498.836 -3.26365 -2.57796 0
M  V30 5438 H 497.413 -1.60936 -3.36384 0
M  V30 5439 N 499.598 0.982988 -1.23187 0
M  V30 5440 C 500.826 1.75921 -1.08901 0
M  V30 5441 C 501.241 1.85341 0.359719 0
M  V30 5442 O 500.598 1.33072 1.24892 0
M  V30 5443 C 500.649 3.18742 -1.70545 0
M  V30 5444 O 500.37 3.09814 -3.09753 0
M  V30 5445 C 501.871 4.1277 -1.61667 0
M  V30 5446 H 499.091 0.552166 -0.381252 0
M  V30 5447 H 501.635 1.23516 -1.62985 0
M  V30 5448 H 499.79 3.68182 -1.20501 0
M  V30 5449 H 500.204 3.99703 -3.39614 0
M  V30 5450 H 501.678 5.10697 -2.09506 0
M  V30 5451 H 502.155 4.3542 -0.575009 0
M  V30 5452 H 502.761 3.69232 -2.11064 0
M  V30 5453 N 501.076 1.04316 1.18135 0
M  V30 5454 C 502.324 0.746542 1.87806 0
M  V30 5455 C 502.645 -0.728082 1.80898 0
M  V30 5456 O 501.915 -1.52554 1.22899 0
M  V30 5457 H 500.495 0.273157 0.695265 0
M  V30 5458 H 503.157 1.32044 1.43354 0
M  V30 5459 H 502.253 1.05362 2.93778 0
M  V30 5460 N 502.554 -1.34406 0.822964 0
M  V30 5461 C 503.484 -2.32052 0.259608 0
M  V30 5462 C 504.465 -1.58243 -0.623961 0
M  V30 5463 O 505.65 -1.86224 -0.55083 0
M  V30 5464 C 502.78 -3.42434 -0.579314 0
M  V30 5465 C 501.734 -4.27499 0.20712 0
M  V30 5466 C 501.06 -5.29349 -0.754547 0
M  V30 5467 C 502.36 -5.02758 1.41533 0
M  V30 5468 H 504.054 -2.79418 1.07545 0
M  V30 5469 H 501.6 -1.34338 0.518593 0
M  V30 5470 H 503.553 -4.0976 -0.983612 0
M  V30 5471 H 502.277 -2.93717 -1.4282 0
M  V30 5472 H 500.936 -3.61776 0.592787 0
M  V30 5473 H 500.584 -4.76895 -1.59939 0
M  V30 5474 H 500.284 -5.8714 -0.232561 0
M  V30 5475 H 501.808 -5.99544 -1.1567 0
M  V30 5476 H 503.222 -5.62938 1.08504 0
M  V30 5477 H 501.619 -5.70123 1.87296 0
M  V30 5478 H 502.689 -4.32451 2.1935 0
M  V30 5479 N 504.032 -0.577932 -1.46621 0
M  V30 5480 C 504.964 0.195801 -2.28362 0
M  V30 5481 C 505.977 0.859983 -1.38232 0
M  V30 5482 O 507.166 0.730349 -1.62875 0
M  V30 5483 C 504.266 1.29639 -3.13124 0
M  V30 5484 C 503.439 0.725049 -4.31349 0
M  V30 5485 C 502.498 1.71274 -4.97546 0
M  V30 5486 O 501.524 1.25067 -5.5529 0
M  V30 5487 N 502.726 3.04672 -4.94121 0
M  V30 5488 H 505.491 -0.505468 -2.95407 0
M  V30 5489 H 503.052 -0.415381 -1.56481 0
M  V30 5490 H 505.044 1.95631 -3.54275 0
M  V30 5491 H 503.614 1.90059 -2.48186 0
M  V30 5492 H 502.834 -0.112205 -3.9404 0
M  V30 5493 H 504.122 0.323034 -5.07774 0
M  V30 5494 H 503.52 3.4484 -4.48444 0
M  V30 5495 H 502.077 3.66166 -5.39227 0
M  V30 5496 N 505.51 1.54411 -0.315457 0
M  V30 5497 C 506.473 2.22713 0.54142 0
M  V30 5498 C 507.473 1.2179 1.04995 0
M  V30 5499 O 508.663 1.46426 0.943667 0
M  V30 5500 C 505.795 2.92485 1.75116 0
M  V30 5501 H 506.988 2.99849 -0.0555508 0
M  V30 5502 H 504.541 1.56159 -0.0664453 0
M  V30 5503 H 505.276 2.19466 2.38758 0
M  V30 5504 H 505.061 3.66483 1.39401 0
M  V30 5505 H 506.551 3.44548 2.35959 0
M  V30 5506 N 506.988 0.0434614 1.5754 0
M  V30 5507 C 508.265 -0.671479 1.83713 0
M  V30 5508 C 508.645 -1.89495 0.930315 0
M  V30 5509 O 507.993 -2.28498 -0.0105639 0
M  V30 5510 C 508.203 -1.0361 3.33266 0
M  V30 5511 C 509.551 -1.42167 4.00092 0
M  V30 5512 O 510.575 -1.12866 3.37846 0
M  V30 5513 O 509.434 -1.96817 5.09829 0
M  V30 5514 H 506.528 -0.330726 0.75799 0
M  V30 5515 H 509.074 0.0722373 1.69546 0
M  V30 5516 H 507.846 -0.165938 3.90948 0
M  V30 5517 H 507.469 -1.83751 3.52592 0
M  V30 5518 N 508.466 -1.55915 -0.229846 0
M  V30 5519 C 509.694 -1.82617 -0.972562 0
M  V30 5520 C 510.109 -0.621488 -1.78278 0
M  V30 5521 O 509.466 0.409956 -1.77836 0
M  V30 5522 C 509.517 -3.0774 -1.89679 0
M  V30 5523 O 509.238 -4.23559 -1.11934 0
M  V30 5524 C 510.739 -3.47368 -2.75409 0
M  V30 5525 H 507.959 -0.60727 -0.285419 0
M  V30 5526 H 510.503 -2.02996 -0.247579 0
M  V30 5527 H 508.658 -2.89361 -2.57583 0
M  V30 5528 H 509.072 -4.94586 -1.74599 0
M  V30 5529 H 510.546 -4.37977 -3.35977 0
M  V30 5530 H 511.023 -2.68737 -3.47386 0
M  V30 5531 H 511.629 -3.68158 -2.12931 0
M  V30 5532 N 509.944 0.496216 -1.49584 0
M  V30 5533 C 510.854 1.62352 -1.69349 0
M  V30 5534 C 511.87 1.64184 -0.576147 0
M  V30 5535 O 513.046 1.82517 -0.85144 0
M  V30 5536 C 510.111 2.98698 -1.76013 0
M  V30 5537 C 509.172 3.07454 -2.99617 0
M  V30 5538 C 508.405 4.37296 -3.05953 0
M  V30 5539 O 508.628 5.2637 -2.19752 0
M  V30 5540 O 507.562 4.51124 -3.9846 0
M  V30 5541 H 511.388 1.48606 -2.64859 0
M  V30 5542 H 508.973 0.673022 -1.33382 0
M  V30 5543 H 510.855 3.79725 -1.82721 0
M  V30 5544 H 509.53 3.12696 -0.836828 0
M  V30 5545 H 508.437 2.25597 -2.98424 0
M  V30 5546 H 509.77 2.98385 -3.91443 0
M  V30 5547 N 511.423 1.38739 0.74761 0
M  V30 5548 C 512.386 1.36241 1.84312 0
M  V30 5549 C 513.386 0.261811 1.58654 0
M  V30 5550 O 514.576 0.519031 1.66288 0
M  V30 5551 C 511.708 1.12253 3.21888 0
M  V30 5552 H 512.901 2.33712 1.87933 0
M  V30 5553 H 510.454 1.2412 0.949946 0
M  V30 5554 H 511.189 0.154133 3.23934 0
M  V30 5555 H 510.974 1.91943 3.41907 0
M  V30 5556 H 512.464 1.13215 4.0196 0
M  V30 5557 N 512.901 -0.976442 1.23707 0
M  V30 5558 C 513.848 -2.06952 1.02174 0
M  V30 5559 C 514.818 -1.65984 -0.0621034 0
M  V30 5560 O 516.003 -1.90584 0.0907906 0
M  V30 5561 C 513.143 -3.39425 0.62327 0
M  V30 5562 C 512.256 -3.9364 1.77966 0
M  V30 5563 C 511.391 -5.14343 1.3276 0
M  V30 5564 C 510.43 -5.60733 2.45449 0
M  V30 5565 N 509.567 -6.72662 2.01172 0
M  V30 5566 H 514.407 -2.24704 1.95734 0
M  V30 5567 H 511.944 -1.10143 0.975034 0
M  V30 5568 H 513.902 -4.15526 0.37332 0
M  V30 5569 H 512.532 -3.21624 -0.275329 0
M  V30 5570 H 511.584 -3.14258 2.14351 0
M  V30 5571 H 512.896 -4.24035 2.62671 0
M  V30 5572 H 512.05 -5.97789 1.03601 0
M  V30 5573 H 510.789 -4.8561 0.450975 0
M  V30 5574 H 509.794 -4.75865 2.75378 0
M  V30 5575 H 511.019 -5.91483 3.33654 0
M  V30 5576 H 508.965 -6.45681 1.15895 0
M  V30 5577 H 508.882 -7.02462 2.79434 0
M  V30 5578 H 510.15 -7.59572 1.75129 0
M  V30 5579 N 514.379 -1.04941 -1.1758 0
M  V30 5580 C 515.312 -0.592518 -2.20373 0
M  V30 5581 C 516.29 0.377561 -1.58156 0
M  V30 5582 O 517.474 0.28978 -1.86259 0
M  V30 5583 C 514.601 0.133215 -3.38438 0
M  V30 5584 C 513.647 -0.791484 -4.19092 0
M  V30 5585 S 514.48 -2.27925 -4.84572 0
M  V30 5586 C 515.636 -1.56462 -6.06028 0
M  V30 5587 H 515.869 -1.46342 -2.58788 0
M  V30 5588 H 513.402 -0.861148 -1.28155 0
M  V30 5589 H 515.36 0.545746 -4.06856 0
M  V30 5590 H 514.021 0.980124 -2.98416 0
M  V30 5591 H 513.214 -0.230039 -5.03475 0
M  V30 5592 H 512.816 -1.14326 -3.56098 0
M  V30 5593 H 515.108 -0.862539 -6.71987 0
M  V30 5594 H 516.051 -2.38583 -6.66696 0
M  V30 5595 H 516.459 -1.05313 -5.5459 0
M  V30 5596 N 515.857 1.33968 -0.830081 0
M  V30 5597 C 516.804 2.29387 -0.255008 0
M  V30 5598 C 517.774 1.53923 0.624243 0
M  V30 5599 O 518.959 1.82262 0.564372 0
M  V30 5600 C 516.099 3.4034 0.571209 0
M  V30 5601 C 515.212 4.30729 -0.331083 0
M  V30 5602 C 514.347 5.2879 0.505389 0
M  V30 5603 C 513.386 6.10819 -0.395843 0
M  V30 5604 N 512.523 7.00948 0.401979 0
M  V30 5605 H 517.363 2.77972 -1.07404 0
M  V30 5606 H 514.9 1.36785 -0.541133 0
M  V30 5607 H 516.858 4.03361 1.06562 0
M  V30 5608 H 515.488 2.9297 1.35529 0
M  V30 5609 H 514.54 3.68507 -0.943759 0
M  V30 5610 H 515.852 4.88181 -1.02377 0
M  V30 5611 H 515.006 5.97297 1.06399 0
M  V30 5612 H 513.745 4.71894 1.23155 0
M  V30 5613 H 512.75 5.41238 -0.966529 0
M  V30 5614 H 513.975 6.69797 -1.12023 0
M  V30 5615 H 511.921 6.46512 1.11168 0
M  V30 5616 H 511.838 7.55643 -0.232167 0
M  V30 5617 H 513.106 7.73774 0.943102 0
M  V30 5618 N 517.335 0.585699 1.46312 0
M  V30 5619 C 518.583 0.072278 2.01971 0
M  V30 5620 C 518.904 -1.29345 1.45928 0
M  V30 5621 O 518.174 -1.84973 0.645109 0
M  V30 5622 H 516.754 0.023729 0.746623 0
M  V30 5623 H 519.416 0.762155 1.7938 0
M  V30 5624 H 518.512 0.00552767 3.121 0
M  V30 5625 N 518.813 -1.54241 0.323641 0
M  V30 5626 C 519.743 -2.27289 -0.534993 0
M  V30 5627 C 520.724 -1.28087 -1.11927 0
M  V30 5628 O 521.909 -1.56899 -1.14439 0
M  V30 5629 C 519.039 -3.03075 -1.69596 0
M  V30 5630 C 517.993 -4.09614 -1.24098 0
M  V30 5631 C 517.319 -4.73242 -2.4889 0
M  V30 5632 C 518.619 -5.21087 -0.355789 0
M  V30 5633 H 520.313 -2.99308 0.0743257 0
M  V30 5634 H 517.859 -1.43952 0.0371874 0
M  V30 5635 H 519.812 -3.52907 -2.30293 0
M  V30 5636 H 518.536 -2.28673 -2.33187 0
M  V30 5637 H 517.195 -3.60666 -0.656945 0
M  V30 5638 H 516.843 -3.95455 -3.10845 0
M  V30 5639 H 516.543 -5.45209 -2.19138 0
M  V30 5640 H 518.067 -5.25848 -3.10348 0
M  V30 5641 H 519.481 -5.66675 -0.869042 0
M  V30 5642 H 517.878 -5.9991 -0.151045 0
M  V30 5643 H 518.948 -4.81005 0.613339 0
M  V30 5644 N 520.291 -0.0518155 -1.57515 0
M  V30 5645 C 521.254 0.907547 -2.10467 0
M  V30 5646 C 522.254 1.23947 -1.02439 0
M  V30 5647 O 523.444 1.17604 -1.2851 0
M  V30 5648 C 520.576 2.21723 -2.58944 0
M  V30 5649 H 521.769 0.44851 -2.96527 0
M  V30 5650 H 519.322 0.196598 -1.55059 0
M  V30 5651 H 520.057 2.72206 -1.76279 0
M  V30 5652 H 519.842 1.98935 -3.37886 0
M  V30 5653 H 521.332 2.90441 -3.00056 0
M  V30 5654 N 521.769 1.56035 0.221574 0
M  V30 5655 C 522.716 1.92413 1.27459 0
M  V30 5656 C 523.686 0.781323 1.46576 0
M  V30 5657 O 524.871 1.03721 1.60145 0
M  V30 5658 C 522.011 2.24617 2.61995 0
M  V30 5659 C 521.124 3.51831 2.50677 0
M  V30 5660 C 520.259 3.73482 3.77736 0
M  V30 5661 C 519.298 4.94211 3.6114 0
M  V30 5662 N 518.435 5.12252 4.80148 0
M  V30 5663 H 523.275 2.82203 0.957355 0
M  V30 5664 H 520.812 1.39676 0.461415 0
M  V30 5665 H 522.77 2.41298 3.40339 0
M  V30 5666 H 521.4 1.38 2.91815 0
M  V30 5667 H 520.452 3.43343 1.63767 0
M  V30 5668 H 521.764 4.40328 2.34334 0
M  V30 5669 H 520.918 3.9026 4.64523 0
M  V30 5670 H 519.657 2.83266 3.97003 0
M  V30 5671 H 518.662 4.77384 2.72736 0
M  V30 5672 H 519.887 5.85912 3.43343 0
M  V30 5673 H 517.833 4.24978 4.99729 0
M  V30 5674 H 517.75 5.94881 4.66532 0
M  V30 5675 H 519.018 5.33465 5.68362 0
M  V30 5676 N 523.247 -0.488276 1.49845 0
M  V30 5677 C 524.658 -1.06955 1.53028 0
M  V30 5678 C 525.009 -1.9351 0.323797 0
M  V30 5679 O 524.134 -2.08891 -0.565116 0
M  V30 5680 C 524.729 -1.94643 2.77307 0
M  V30 5681 C 523.288 -2.4791 2.83227 0
M  V30 5682 C 522.435 -1.25833 2.47106 0
M  V30 5683 H 525.386 -0.271626 1.56358 0
M  V30 5684 H 525.407 -2.79496 2.5819 0
M  V30 5685 H 524.919 -1.31621 3.65099 0
M  V30 5686 H 523.02 -3.14535 1.99745 0
M  V30 5687 H 523.133 -2.84193 3.85709 0
M  V30 5688 H 521.497 -1.58764 1.99163 0
M  V30 5689 H 522.28 -0.644993 3.37186 0
M  V30 5690 N 524.725 -1.39134 -0.740242 0
M  V30 5691 C 525.953 -1.39334 -1.5295 0
M  V30 5692 C 526.368 0.0135008 -1.88795 0
M  V30 5693 O 525.725 0.983524 -1.5373 0
M  V30 5694 C 525.776 -2.2614 -2.82034 0
M  V30 5695 O 525.497 -3.61345 -2.47712 0
M  V30 5696 C 526.998 -2.34666 -3.76094 0
M  V30 5697 H 524.218 -0.476103 -0.472828 0
M  V30 5698 H 526.762 -1.82883 -0.9151 0
M  V30 5699 H 524.917 -1.86018 -3.39818 0
M  V30 5700 H 525.331 -4.07194 -3.30595 0
M  V30 5701 H 526.805 -2.99663 -4.63579 0
M  V30 5702 H 527.282 -1.36426 -4.17474 0
M  V30 5703 H 527.888 -2.75236 -3.2423 0
M  V30 5704 N 526.204 0.969867 -1.24223 0
M  V30 5705 C 527.432 1.74756 -1.10761 0
M  V30 5706 C 527.847 1.85713 0.340041 0
M  V30 5707 O 527.204 1.34389 1.23474 0
M  V30 5708 C 527.255 3.16915 -1.73917 0
M  V30 5709 O 526.976 3.06511 -3.13021 0
M  V30 5710 C 528.477 4.11032 -1.66036 0
M  V30 5711 H 525.697 0.548092 -0.387087 0
M  V30 5712 H 528.241 1.2178 -1.64286 0
M  V30 5713 H 526.396 3.66884 -1.244 0
M  V30 5714 H 526.81 3.96079 -3.43834 0
M  V30 5715 H 528.284 5.08446 -2.14911 0
M  V30 5716 H 528.761 4.34785 -0.621159 0
M  V30 5717 H 529.367 3.66972 -2.14969 0
M  V30 5718 N 527.682 1.05563 1.17022 0
M  V30 5719 C 528.907 0.788437 1.91829 0
M  V30 5720 C 529.332 -0.650356 1.76499 0
M  V30 5721 O 528.69 -1.45229 1.08527 0
M  V30 5722 C 528.738 1.1786 3.40795 0
M  V30 5723 O 527.842 0.312965 4.11211 0
M  V30 5724 H 527.183 0.288794 0.597908 0
M  V30 5725 H 529.713 1.40948 1.48307 0
M  V30 5726 H 529.723 1.14697 3.91546 0
M  V30 5727 H 528.398 2.22666 3.51273 0
M  V30 5728 H 526.975 0.405515 3.70689 0
M  V30 5729 N 529.16 -1.33526 0.837174 0
M  V30 5730 C 530.07 -2.33023 0.271568 0
M  V30 5731 C 531.086 -1.63272 -0.601514 0
M  V30 5732 O 532.262 -1.94939 -0.506038 0
M  V30 5733 C 529.327 -3.42382 -0.545448 0
M  V30 5734 C 528.388 -4.27857 0.351709 0
M  V30 5735 C 527.621 -5.31994 -0.426409 0
M  V30 5736 O 527.844 -5.45763 -1.65828 0
M  V30 5737 O 526.778 -6.01572 0.1987 0
M  V30 5738 H 530.604 -2.83256 1.09545 0
M  V30 5739 H 528.189 -1.36837 0.599655 0
M  V30 5740 H 530.071 -4.09122 -1.00979 0
M  V30 5741 H 528.746 -2.94369 -1.34641 0
M  V30 5742 H 527.653 -3.6399 0.863853 0
M  V30 5743 H 528.986 -4.79349 1.1174 0
M  V30 5744 N 530.638 -0.59345 -1.46 0
M  V30 5745 C 531.884 -0.0832754 -2.02629 0
M  V30 5746 C 532.217 1.27749 -1.46266 0
M  V30 5747 O 531.492 1.8395 -0.631866 0
M  V30 5748 C 531.775 -0.0290756 -3.60088 0
M  V30 5749 C 531.628 -1.41951 -4.26814 0
M  V30 5750 C 532.947 0.666055 -4.35031 0
M  V30 5751 H 530.066 -0.031736 -0.736316 0
M  V30 5752 H 532.708 -0.762711 -1.74019 0
M  V30 5753 H 530.858 0.549532 -3.84594 0
M  V30 5754 H 532.53 -2.04411 -4.13538 0
M  V30 5755 H 530.773 -1.98422 -3.8576 0
M  V30 5756 H 531.444 -1.33395 -5.3564 0
M  V30 5757 H 533.92 0.174401 -4.15734 0
M  V30 5758 H 532.796 0.673041 -5.44758 0
M  V30 5759 H 533.057 1.72946 -4.06869 0
M  V30 5760 N 532.116 1.54067 -0.331816 0
M  V30 5761 C 533.049 2.20886 0.573127 0
M  V30 5762 C 534.027 1.18876 1.10938 0
M  V30 5763 O 535.211 1.47649 1.17184 0
M  V30 5764 C 532.338 2.87706 1.78726 0
M  V30 5765 C 531.384 4.03505 1.38152 0
M  V30 5766 S 532.217 5.33919 0.41123 0
M  V30 5767 C 533.373 6.04236 1.63246 0
M  V30 5768 H 533.606 2.97299 0.00555737 0
M  V30 5769 H 531.139 1.53964 -0.115893 0
M  V30 5770 H 533.097 3.26825 2.48386 0
M  V30 5771 H 531.758 2.1108 2.32603 0
M  V30 5772 H 530.951 4.49152 2.28645 0
M  V30 5773 H 530.553 3.66102 0.764524 0
M  V30 5774 H 532.845 6.26917 2.56869 0
M  V30 5775 H 533.788 6.97546 1.218 0
M  V30 5776 H 534.196 5.34247 1.82318 0
M  V30 5777 N 533.594 0.0601682 1.57485 0
M  V30 5778 C 534.524 -0.90889 2.15085 0
M  V30 5779 C 535.505 -1.31838 1.07484 0
M  V30 5780 O 536.69 -1.3915 1.35466 0
M  V30 5781 C 533.82 -2.18059 2.7031 0
M  V30 5782 C 532.774 -1.91088 3.82974 0
M  V30 5783 C 532.1 -3.24789 4.24754 0
M  V30 5784 C 533.4 -1.22535 5.07723 0
M  V30 5785 H 535.094 -0.429093 2.96309 0
M  V30 5786 H 532.64 -0.204952 1.42534 0
M  V30 5787 H 534.593 -2.86258 3.09248 0
M  V30 5788 H 533.317 -2.6826 1.8629 0
M  V30 5789 H 531.976 -1.25297 3.44523 0
M  V30 5790 H 531.624 -3.72809 3.37672 0
M  V30 5791 H 531.324 -3.07538 5.00694 0
M  V30 5792 H 532.848 -3.94205 4.66299 0
M  V30 5793 H 534.262 -1.80783 5.4405 0
M  V30 5794 H 532.659 -1.1558 5.88864 0
M  V30 5795 H 533.729 -0.202692 4.84476 0
M  V30 5796 N 535.072 -1.5615 -0.213296 0
M  V30 5797 C 535.982 -1.96265 -1.28519 0
M  V30 5798 C 536.998 -0.86765 -1.50824 0
M  V30 5799 O 538.174 -1.17191 -1.63793 0
M  V30 5800 C 535.239 -2.27836 -2.61327 0
M  V30 5801 C 534.3 -3.50949 -2.47252 0
M  V30 5802 C 533.533 -3.81004 -3.73727 0
M  V30 5803 O 533.756 -3.12612 -4.77106 0
M  V30 5804 O 532.69 -4.74477 -3.70344 0
M  V30 5805 H 536.516 -2.87631 -0.974795 0
M  V30 5806 H 534.101 -1.43467 -0.416832 0
M  V30 5807 H 535.983 -2.49299 -3.39747 0
M  V30 5808 H 534.658 -1.39643 -2.9203 0
M  V30 5809 H 533.565 -3.34754 -1.67004 0
M  V30 5810 H 534.898 -4.39551 -2.21486 0
M  V30 5811 N 536.55 0.480323 -1.50102 0
M  V30 5812 C 537.966 0.813295 -1.37323 0
M  V30 5813 C 538.166 1.97027 -0.422206 0
M  V30 5814 O 537.222 2.5212 0.138563 0
M  V30 5815 C 538.535 1.13404 -2.78496 0
M  V30 5816 C 540.083 1.24104 -2.87345 0
M  V30 5817 C 540.558 1.59497 -4.29331 0
M  V30 5818 N 542.049 1.66507 -4.32238 0
M  V30 5819 C 542.784 1.95378 -5.39087 0
M  V30 5820 N 542.28 2.22333 -6.56155 0
M  V30 5821 N 544.073 1.96803 -5.26522 0
M  V30 5822 H 536.224 -0.282291 -2.10516 0
M  V30 5823 H 538.487 -0.063752 -0.945854 0
M  V30 5824 H 538.193 0.357064 -3.49883 0
M  V30 5825 H 538.067 2.07251 -3.15162 0
M  V30 5826 H 540.454 2.00871 -2.16183 0
M  V30 5827 H 540.535 0.282593 -2.54234 0
M  V30 5828 H 540.179 0.832736 -5.01027 0
M  V30 5829 H 540.109 2.56477 -4.59921 0
M  V30 5830 H 542.6 1.47753 -3.47818 0
M  V30 5831 H 542.913 2.43611 -7.33399 0
M  V30 5832 H 541.258 2.19745 -6.59346 0
M  V30 5833 H 544.449 1.75235 -4.34062 0
M  V30 5834 H 544.622 2.18969 -6.09883 0
M  V30 5835 N 538.028 1.39524 0.732853 0
M  V30 5836 C 538.96 1.34318 1.85718 0
M  V30 5837 C 539.973 0.251576 1.60844 0
M  V30 5838 O 541.162 0.510685 1.71039 0
M  V30 5839 C 538.262 1.06334 3.21786 0
M  V30 5840 C 537.435 2.26813 3.73998 0
M  V30 5841 C 536.494 1.95253 4.88634 0
M  V30 5842 O 535.52 2.67957 5.02183 0
M  V30 5843 N 536.722 0.919984 5.73164 0
M  V30 5844 H 539.487 2.3121 1.90688 0
M  V30 5845 H 537.048 1.33654 0.91368 0
M  V30 5846 H 539.04 0.832363 3.96048 0
M  V30 5847 H 537.61 0.181682 3.12072 0
M  V30 5848 H 536.83 2.65849 2.91064 0
M  V30 5849 H 538.118 3.0717 4.05616 0
M  V30 5850 H 537.516 0.317487 5.64808 0
M  V30 5851 H 536.073 0.748905 6.47483 0
M  V30 5852 N 539.506 -0.963266 1.24736 0
M  V30 5853 C 540.922 -1.23273 1.01371 0
M  V30 5854 C 541.122 -1.99618 -0.274776 0
M  V30 5855 O 540.178 -2.32293 -0.989769 0
M  V30 5856 C 541.491 -2.01554 2.23152 0
M  V30 5857 C 543.039 -2.14629 2.27823 0
M  V30 5858 C 543.514 -2.96307 3.49237 0
M  V30 5859 N 545.005 -3.03887 3.49581 0
M  V30 5860 C 545.74 -3.67456 4.40186 0
M  V30 5861 N 545.236 -4.32706 5.41052 0
M  V30 5862 N 547.029 -3.64511 4.27888 0
M  V30 5863 H 539.18 -0.452294 2.07528 0
M  V30 5864 H 541.443 -0.262521 0.910926 0
M  V30 5865 H 541.149 -1.52847 3.1675 0
M  V30 5866 H 541.023 -3.02278 2.25628 0
M  V30 5867 H 543.41 -2.62537 1.34753 0
M  V30 5868 H 543.491 -1.13238 2.2937 0
M  V30 5869 H 543.135 -2.49091 4.42624 0
M  V30 5870 H 543.065 -3.97905 3.44933 0
M  V30 5871 H 545.556 -2.57477 2.76611 0
M  V30 5872 H 545.869 -4.79042 6.06415 0
M  V30 5873 H 544.214 -4.31361 5.44934 0
M  V30 5874 H 547.405 -3.12715 3.4832 0
M  V30 5875 H 547.578 -4.13768 4.98698 0
M  V30 5876 N 540.985 -1.06182 -1.16461 0
M  V30 5877 C 542.21 -0.798599 -1.91408 0
M  V30 5878 C 542.635 0.640987 -1.76842 0
M  V30 5879 O 541.993 1.44652 -1.09296 0
M  V30 5880 C 542.041 -1.19665 -3.40165 0
M  V30 5881 O 541.145 -0.334768 -4.11039 0
M  V30 5882 H 540.486 -0.291961 -0.596368 0
M  V30 5883 H 543.016 -1.41732 -1.47557 0
M  V30 5884 H 543.026 -1.16772 -3.90933 0
M  V30 5885 H 541.701 -2.24526 -3.50087 0
M  V30 5886 H 540.278 -0.425168 -3.70468 0
M  V30 5887 N 542.463 1.3308 -0.844243 0
M  V30 5888 C 543.393 2.3161 -0.296493 0
M  V30 5889 C 544.374 1.59215 0.598707 0
M  V30 5890 O 545.559 1.87077 0.521134 0
M  V30 5891 C 542.689 3.43313 0.524762 0
M  V30 5892 C 541.643 4.27115 -0.275106 0
M  V30 5893 C 540.969 5.30483 0.670236 0
M  V30 5894 C 542.269 5.00443 -1.49514 0
M  V30 5895 H 543.963 2.77672 -1.11976 0
M  V30 5896 H 541.509 1.33496 -0.539899 0
M  V30 5897 H 543.462 4.11273 0.918298 0
M  V30 5898 H 542.186 2.95952 1.3813 0
M  V30 5899 H 540.845 3.60787 -0.650267 0
M  V30 5900 H 540.493 4.79379 1.52332 0
M  V30 5901 H 540.193 5.87435 0.139123 0
M  V30 5902 H 541.717 6.01308 1.06117 0
M  V30 5903 H 543.131 5.61141 -1.17447 0
M  V30 5904 H 541.528 5.67071 -1.96343 0
M  V30 5905 H 542.598 4.28906 -2.26202 0
M  V30 5906 N 543.941 0.601185 1.45683 0
M  V30 5907 C 544.888 -0.121396 2.30481 0
M  V30 5908 C 545.858 -0.866232 1.41724 0
M  V30 5909 O 547.043 -0.85324 1.70659 0
M  V30 5910 C 544.183 -1.11704 3.26521 0
M  V30 5911 C 543.296 -0.373741 4.3038 0
M  V30 5912 C 542.431 -1.35854 5.13534 0
M  V30 5913 C 541.47 -0.602689 6.09126 0
M  V30 5914 N 540.607 -1.53645 6.85082 0
M  V30 5915 H 545.447 0.607732 2.91737 0
M  V30 5916 H 542.984 0.311502 1.43764 0
M  V30 5917 H 544.942 -1.70735 3.80664 0
M  V30 5918 H 543.572 -1.81366 2.67032 0
M  V30 5919 H 542.624 0.331962 3.78949 0
M  V30 5920 H 543.936 0.2163 4.98331 0
M  V30 5921 H 543.09 -2.02111 5.72046 0
M  V30 5922 H 541.829 -1.98251 4.45587 0
M  V30 5923 H 540.834 0.0735482 5.49751 0
M  V30 5924 H 542.059 0.0161467 6.79098 0
M  V30 5925 H 540.005 -2.14819 6.1983 0
M  V30 5926 H 539.922 -0.999688 7.49361 0
M  V30 5927 H 541.19 -2.1888 7.48139 0
M  V30 5928 N 545.419 -1.53889 0.339982 0
M  V30 5929 C 546.366 -2.24902 -0.518452 0
M  V30 5930 C 547.336 -1.24593 -1.09844 0
M  V30 5931 O 548.521 -1.53317 -1.13572 0
M  V30 5932 C 545.661 -3.02262 -1.66529 0
M  V30 5933 C 544.774 -4.17418 -1.11295 0
M  V30 5934 C 543.909 -4.82273 -2.2268 0
M  V30 5935 C 542.948 -5.89503 -1.6478 0
M  V30 5936 N 542.085 -6.48153 -2.69893 0
M  V30 5937 H 546.925 -2.97853 0.0936579 0
M  V30 5938 H 544.462 -1.46986 0.0579924 0
M  V30 5939 H 546.42 -3.45371 -2.3404 0
M  V30 5940 H 545.05 -2.31614 -2.24844 0
M  V30 5941 H 544.102 -3.78976 -0.328886 0
M  V30 5942 H 545.414 -4.94554 -0.649414 0
M  V30 5943 H 544.568 -5.28435 -2.98063 0
M  V30 5944 H 543.307 -4.04552 -2.72376 0
M  V30 5945 H 542.312 -5.42728 -0.879004 0
M  V30 5946 H 543.537 -6.6913 -1.1594 0
M  V30 5947 H 541.483 -5.73298 -3.1885 0
M  V30 5948 H 541.4 -7.20752 -2.28151 0
M  V30 5949 H 542.668 -6.98968 -3.45056 0
M  V30 5950 N 546.897 -0.0685191 -1.57451 0
M  V30 5951 C 548.122 0.613919 -1.98106 0
M  V30 5952 C 548.547 1.62551 -0.946501 0
M  V30 5953 O 547.905 1.81085 0.0882824 0
M  V30 5954 C 547.953 1.26189 -3.378 0
M  V30 5955 O 547.057 2.37773 -3.36954 0
M  V30 5956 H 546.398 0.158163 -0.644888 0
M  V30 5957 H 548.928 -0.142063 -2.04106 0
M  V30 5958 H 548.938 1.60951 -3.74912 0
M  V30 5959 H 547.613 0.520625 -4.12629 0
M  V30 5960 H 546.19 2.04829 -3.11608 0
M  V30 5961 N 548.375 1.56261 0.205012 0
M  V30 5962 C 549.322 1.93754 1.25411 0
M  V30 5963 C 550.292 0.796826 1.45739 0
M  V30 5964 O 551.477 1.05414 1.59036 0
M  V30 5965 C 548.617 2.27383 2.59598 0
M  V30 5966 C 547.73 3.5447 2.46931 0
M  V30 5967 C 546.865 3.77468 3.73753 0
M  V30 5968 C 545.904 4.98014 3.55877 0
M  V30 5969 N 545.041 5.17316 4.74688 0
M  V30 5970 H 549.881 2.83203 0.92737 0
M  V30 5971 H 547.418 1.40158 0.446574 0
M  V30 5972 H 549.376 2.44895 3.37761 0
M  V30 5973 H 548.006 1.41088 2.90335 0
M  V30 5974 H 547.058 3.45061 1.60116 0
M  V30 5975 H 548.37 4.42789 2.29651 0
M  V30 5976 H 547.524 3.95165 4.60358 0
M  V30 5977 H 546.263 2.87461 3.93976 0
M  V30 5978 H 545.268 4.80249 2.67657 0
M  V30 5979 H 546.493 5.8952 3.37109 0
M  V30 5980 H 544.439 4.30255 4.95194 0
M  V30 5981 H 544.356 5.99796 4.60197 0
M  V30 5982 H 545.624 5.39463 5.62672 0
M  V30 5983 N 549.853 -0.472356 1.50355 0
M  V30 5984 C 550.8 -1.57051 1.69126 0
M  V30 5985 C 551.77 -1.5733 0.532574 0
M  V30 5986 O 552.955 -1.7488 0.762994 0
M  V30 5987 C 550.095 -2.95033 1.79024 0
M  V30 5988 C 549.208 -3.04552 3.06386 0
M  V30 5989 C 548.343 -4.33441 3.07087 0
M  V30 5990 C 547.382 -4.36697 4.28908 0
M  V30 5991 N 546.519 -5.57056 4.27356 0
M  V30 5992 H 551.359 -1.40351 2.62879 0
M  V30 5993 H 548.896 -0.682403 1.30314 0
M  V30 5994 H 550.854 -3.75048 1.82744 0
M  V30 5995 H 549.484 -3.10371 0.887109 0
M  V30 5996 H 548.536 -2.17419 3.12143 0
M  V30 5997 H 549.848 -3.02818 3.96362 0
M  V30 5998 H 549.002 -5.21801 3.09529 0
M  V30 5999 H 547.741 -4.37782 2.14939 0
M  V30 6000 H 546.746 -3.46734 4.2668 0
M  V30 6001 H 547.971 -4.34049 5.22282 0
M  V30 6002 H 545.917 -5.62184 3.3806 0
M  V30 6003 H 545.834 -5.57058 5.111 0
M  V30 6004 H 547.102 -6.47545 4.33942 0
M  V30 6005 N 551.331 -1.39911 -0.725443 0
M  V30 6006 C 552.241 -1.41688 -1.8698 0
M  V30 6007 C 553.257 -0.310579 -1.71206 0
M  V30 6008 O 554.433 -0.55359 -1.93642 0
M  V30 6009 C 551.498 -1.26811 -3.22676 0
M  V30 6010 C 550.559 -2.47497 -3.50776 0
M  V30 6011 C 549.792 -2.3332 -4.79997 0
M  V30 6012 O 550.015 -1.34175 -5.54394 0
M  V30 6013 O 548.949 -3.22498 -5.08211 0
M  V30 6014 H 552.775 -2.38171 -1.88436 0
M  V30 6015 H 550.36 -1.21128 -0.874548 0
M  V30 6016 H 552.242 -1.20684 -4.03749 0
M  V30 6017 H 550.917 -0.334289 -3.21969 0
M  V30 6018 H 549.824 -2.59201 -2.69751 0
M  V30 6019 H 551.157 -3.39606 -3.5627 0
M  V30 6020 N 552.809 0.956637 -1.25245 0
M  V30 6021 C 553.757 2.0743 -1.0524 0
M  V30 6022 C 554.751 1.69392 0.0160725 0
M  V30 6023 O 555.957 1.7946 -0.139382 0
M  V30 6024 H 552.332 0.678921 -0.323373 0
M  V30 6025 H 554.303 2.2146 -1.99995 0
M  V30 6026 C 553.052 3.40872 -0.685702 0
M  V30 6027 H 552.375 3.70607 -1.49968 0
M  V30 6028 H 553.815 4.19939 -0.585415 0
M  V30 6029 C 552.274 3.31367 0.608082 0
M  V30 6030 O 552.804 3.66214 1.65076 0
M  V30 6031 N 551.01 2.84486 0.592955 0
M  V30 6032 H 550.557 2.56326 -0.25592 0
M  V30 6033 H 550.515 2.78509 1.45877 0
M  V30 6034 N 554.287 1.06798 1.15896 0
M  V30 6035 C 555.564 0.701057 1.82605 0
M  V30 6036 C 555.944 -0.817066 1.94646 0
M  V30 6037 O 555.292 -1.72933 1.49353 0
M  V30 6038 C 555.502 1.40895 3.19296 0
M  V30 6039 C 556.85 1.55744 3.95005 0
M  V30 6040 O 557.874 1.36927 3.28831 0
M  V30 6041 O 556.733 1.86658 5.13635 0
M  V30 6042 H 553.827 0.248791 0.78869 0
M  V30 6043 H 556.373 1.16857 1.23055 0
M  V30 6044 H 555.145 2.4439 3.05596 0
M  V30 6045 H 554.768 0.931847 3.86526 0
M  V30 6046 N 555.766 -1.3263 0.851289 0
M  V30 6047 C 557.013 -1.97368 0.453023 0
M  V30 6048 C 557.341 -1.67384 -0.990596 0
M  V30 6049 O 556.596 -0.952665 -1.70947 0
M  V30 6050 C 556.895 -3.51713 0.635015 0
M  V30 6051 C 556.561 -4.01676 2.04859 0
M  V30 6052 C 555.223 -4.15031 2.43522 0
M  V30 6053 C 557.575 -4.28206 2.97135 0
M  V30 6054 C 554.903 -4.52257 3.73739 0
M  V30 6055 C 557.255 -4.66889 4.26846 0
M  V30 6056 C 555.919 -4.7845 4.65448 0
M  V30 6057 H 555.189 -0.722219 0.165773 0
M  V30 6058 H 557.836 -1.58092 1.0807 0
M  V30 6059 H 556.141 -3.91726 -0.0759081 0
M  V30 6060 H 557.838 -3.99823 0.306964 0
M  V30 6061 H 554.428 -3.91764 1.73836 0
M  V30 6062 H 558.612 -4.174 2.68498 0
M  V30 6063 H 553.868 -4.59402 4.03435 0
M  V30 6064 H 558.042 -4.86372 4.98413 0
M  V30 6065 H 555.669 -5.07052 5.66395 0
M  V30 6066 N 557.244 -0.608902 -1.45362 0
M  V30 6067 C 558.207 0.0992563 -2.28985 0
M  V30 6068 C 559.207 0.793841 -1.39838 0
M  V30 6069 O 560.397 0.641804 -1.61946 0
M  V30 6070 C 557.529 1.15073 -3.20891 0
M  V30 6071 H 558.722 -0.635964 -2.93079 0
M  V30 6072 H 556.275 -0.368007 -1.51906 0
M  V30 6073 H 557.01 1.91667 -2.616 0
M  V30 6074 H 556.795 0.656867 -3.86559 0
M  V30 6075 H 558.285 1.64665 -3.83765 0
M  V30 6076 N 558.722 1.53707 -0.348139 0
M  V30 6077 C 559.654 2.22725 0.540946 0
M  V30 6078 C 560.667 1.2354 1.06027 0
M  V30 6079 O 561.856 1.49867 0.96964 0
M  V30 6080 C 558.956 2.89756 1.75768 0
M  V30 6081 C 558.129 4.15297 1.37285 0
M  V30 6082 C 557.188 4.65697 2.44976 0
M  V30 6083 O 556.214 5.29798 2.08092 0
M  V30 6084 N 557.416 4.42017 3.763 0
M  V30 6085 H 560.181 2.99658 -0.0501592 0
M  V30 6086 H 557.742 1.60979 -0.17248 0
M  V30 6087 H 559.734 3.20388 2.47252 0
M  V30 6088 H 558.304 2.16382 2.25605 0
M  V30 6089 H 557.524 3.9116 0.488584 0
M  V30 6090 H 558.812 4.96948 1.09179 0
M  V30 6091 H 558.21 3.9076 4.09051 0
M  V30 6092 H 556.767 4.77242 4.4394 0
M  V30 6093 N 560.2 0.0768682 1.57412 0
M  V30 6094 C 561.425 -0.603404 1.98428 0
M  V30 6095 C 561.85 -1.62047 0.955108 0
M  V30 6096 O 561.208 -1.81129 -0.0786778 0
M  V30 6097 C 561.256 -1.24396 3.38464 0
M  V30 6098 O 560.36 -2.35982 3.3821 0
M  V30 6099 H 559.701 -0.154741 0.645718 0
M  V30 6100 H 562.231 0.152885 2.04028 0
M  V30 6101 H 562.241 -1.5896 3.7576 0
M  V30 6102 H 560.916 -0.498735 4.12899 0
M  V30 6103 H 559.493 -2.03173 3.1269 0
M  V30 6104 N 561.678 -1.56367 -0.196722 0
M  V30 6105 C 562.926 -1.80172 -0.915554 0
M  V30 6106 C 563.247 -0.649649 -1.8386 0
M  V30 6107 O 562.517 0.332111 -1.93064 0
M  V30 6108 H 561.097 -0.664592 -0.341067 0
M  V30 6109 H 563.759 -1.93844 -0.202622 0
M  V30 6110 H 562.855 -2.7327 -1.50764 0
M  V30 6111 N 563.156 0.464375 -1.50603 0
M  V30 6112 C 564.088 1.57916 -1.66118 0
M  V30 6113 C 565.101 1.53497 -0.54246 0
M  V30 6114 O 566.29 1.58763 -0.815877 0
M  V30 6115 C 563.39 2.96809 -1.63577 0
M  V30 6116 C 562.563 3.26026 -2.91592 0
M  V30 6117 C 561.622 4.44506 -2.81604 0
M  V30 6118 O 560.648 4.44484 -3.55559 0
M  V30 6119 N 561.85 5.46549 -1.95614 0
M  V30 6120 H 564.615 1.45022 -2.62276 0
M  V30 6121 H 562.176 0.652903 -1.48151 0
M  V30 6122 H 564.168 3.74048 -1.54499 0
M  V30 6123 H 562.738 3.03438 -0.751262 0
M  V30 6124 H 561.958 2.37337 -3.14746 0
M  V30 6125 H 563.246 3.42361 -3.76386 0
M  V30 6126 H 562.644 5.49391 -1.34854 0
M  V30 6127 H 561.201 6.22746 -1.92435 0
M  V30 6128 N 564.634 1.40294 0.718013 0
M  V30 6129 C 565.911 1.2894 1.47084 0
M  V30 6130 C 566.291 -0.0933625 2.10893 0
M  V30 6131 O 565.639 -1.10598 1.99951 0
M  V30 6132 C 565.849 2.4264 2.50852 0
M  V30 6133 C 567.197 2.8276 3.16752 0
M  V30 6134 O 568.221 2.42215 2.61171 0
M  V30 6135 O 567.08 3.528 4.17366 0
M  V30 6136 H 564.174 0.506236 0.653952 0
M  V30 6137 H 566.72 1.52208 0.750394 0
M  V30 6138 H 565.492 3.35009 2.022 0
M  V30 6139 H 565.115 2.21129 3.30435 0
M  V30 6140 N 566.112 -0.949982 1.2575 0
M  V30 6141 C 567.075 -2.02894 1.06615 0
M  V30 6142 C 568.075 -1.60791 0.0173905 0
M  V30 6143 O 569.265 -1.72249 0.260003 0
M  V30 6144 C 566.397 -3.35219 0.619751 0
M  V30 6145 H 567.59 -2.21302 2.02399 0
M  V30 6146 H 565.143 -1.12772 1.08223 0
M  V30 6147 H 565.878 -3.22508 -0.340486 0
M  V30 6148 H 565.663 -3.67129 1.37692 0
M  V30 6149 H 567.153 -4.14505 0.507443 0
M  V30 6150 N 567.59 -1.07411 -1.15328 0
M  V30 6151 C 568.836 -0.798831 -1.86404 0
M  V30 6152 C 569.169 0.673433 -1.8215 0
M  V30 6153 O 568.444 1.49428 -1.24505 0
M  V30 6154 C 568.727 -1.30846 -3.35487 0
M  V30 6155 C 568.58 -2.84532 -3.4837 0
M  V30 6156 C 569.899 -0.925486 -4.30259 0
M  V30 6157 H 567.018 -0.291659 -0.676834 0
M  V30 6158 H 569.66 -1.332 -1.35491 0
M  V30 6159 H 567.81 -0.854916 -3.78977 0
M  V30 6160 H 569.482 -3.3818 -3.13739 0
M  V30 6161 H 567.725 -3.22699 -2.8991 0
M  V30 6162 H 568.396 -3.15259 -4.53118 0
M  V30 6163 H 570.872 -1.3163 -3.94731 0
M  V30 6164 H 569.748 -1.3094 -5.33053 0
M  V30 6165 H 570.009 0.168525 -4.41779 0
M  V30 6166 N 569.068 1.32177 -0.85831 0
M  V30 6167 C 570.479 1.79381 -0.517621 0
M  V30 6168 C 570.83 1.70841 0.964769 0
M  V30 6169 O 569.955 1.26917 1.75274 0
M  V30 6170 C 570.55 3.25706 -0.932801 0
M  V30 6171 C 569.109 3.70851 -0.643953 0
M  V30 6172 C 568.256 2.53208 -1.13054 0
M  V30 6173 H 571.207 1.19424 -1.04516 0
M  V30 6174 H 571.228 3.79673 -0.250674 0
M  V30 6175 H 570.74 3.31889 -2.01174 0
M  V30 6176 H 568.841 3.70178 0.424112 0
M  V30 6177 H 568.954 4.63495 -1.21281 0
M  V30 6178 H 567.318 2.48676 -0.550679 0
M  V30 6179 H 568.101 2.62143 -2.21666 0
M  V30 6180 N 570.547 0.616602 1.45037 0
M  V30 6181 C 571.457 -0.0985401 2.34393 0
M  V30 6182 C 572.473 -0.850971 1.51771 0
M  V30 6183 O 573.649 -0.806521 1.84546 0
M  V30 6184 C 570.714 -1.07748 3.29532 0
M  V30 6185 C 569.775 -0.326022 4.2806 0
M  V30 6186 C 569.008 -1.25833 5.18654 0
M  V30 6187 O 569.231 -2.49652 5.12864 0
M  V30 6188 O 568.165 -0.750512 5.97203 0
M  V30 6189 H 571.991 0.636016 2.96966 0
M  V30 6190 H 569.576 0.376832 1.44569 0
M  V30 6191 H 571.458 -1.64107 3.88133 0
M  V30 6192 H 570.133 -1.79291 2.69512 0
M  V30 6193 H 569.04 0.280253 3.73049 0
M  V30 6194 H 570.373 0.349091 4.9096 0
M  V30 6195 N 572.025 -1.5352 0.356285 0
M  V30 6196 C 573.25 -2.06007 -0.239961 0
M  V30 6197 C 573.675 -1.22872 -1.42422 0
M  V30 6198 O 573.033 -0.245516 -1.7963 0
M  V30 6199 C 573.081 -3.5522 -0.620587 0
M  V30 6200 O 572.185 -3.74864 -1.71902 0
M  V30 6201 H 571.526 -0.662961 -0.0371377 0
M  V30 6202 H 574.056 -1.98033 0.514194 0
M  V30 6203 H 574.066 -3.98081 -0.894197 0
M  V30 6204 H 572.741 -4.15175 0.245407 0
M  V30 6205 H 571.318 -3.43904 -1.44169 0
M  V30 6206 N 573.503 -0.0852151 -1.57369 0
M  V30 6207 C 574.914 0.445428 -1.81309 0
M  V30 6208 C 575.265 1.68795 -1.00013 0
M  V30 6209 O 574.39 2.15211 -0.226573 0
M  V30 6210 C 574.985 0.814887 -3.28854 0
M  V30 6211 C 573.544 1.29032 -3.53592 0
M  V30 6212 C 572.691 0.282089 -2.75861 0
M  V30 6213 H 575.642 -0.310771 -1.55627 0
M  V30 6214 H 575.663 1.67524 -3.41637 0
M  V30 6215 H 575.175 -0.0896309 -3.87996 0
M  V30 6216 H 573.276 2.21289 -2.9977 0
M  V30 6217 H 573.389 1.25898 -4.62262 0
M  V30 6218 H 571.753 0.762182 -2.43029 0
M  V30 6219 H 572.536 -0.614936 -3.37748 0
M  V30 6220 N 574.981 1.5647 0.188427 0
M  V30 6221 C 576.206 1.85486 0.927891 0
M  V30 6222 C 576.631 0.669575 1.75779 0
M  V30 6223 O 575.989 -0.381573 1.77239 0
M  V30 6224 C 576.037 3.12784 1.7944 0
M  V30 6225 O 575.141 2.93805 2.894 0
M  V30 6226 H 574.482 0.610585 0.260925 0
M  V30 6227 H 577.012 2.037 0.191729 0
M  V30 6228 H 577.022 3.43749 2.19774 0
M  V30 6229 H 575.697 3.98671 1.18468 0
M  V30 6230 H 574.274 2.74153 2.52774 0
M  V30 6231 N 576.459 -0.456382 1.50847 0
M  V30 6232 C 577.406 -1.55249 1.70782 0
M  V30 6233 C 578.376 -1.56757 0.549231 0
M  V30 6234 O 579.561 -1.74061 0.7815 0
M  V30 6235 C 576.701 -2.93118 1.82143 0
M  V30 6236 C 575.814 -3.01285 3.09598 0
M  V30 6237 C 574.949 -4.30159 3.11667 0
M  V30 6238 C 573.988 -4.32124 4.33515 0
M  V30 6239 N 573.125 -5.52492 4.3324 0
M  V30 6240 H 577.965 -1.37555 2.64353 0
M  V30 6241 H 575.502 -0.668543 1.3103 0
M  V30 6242 H 577.46 -3.73088 1.86711 0
M  V30 6243 H 576.09 -3.09413 0.919978 0
M  V30 6244 H 575.142 -2.14096 3.14431 0
M  V30 6245 H 576.454 -2.98597 3.99551 0
M  V30 6246 H 575.608 -5.18489 3.15046 0
M  V30 6247 H 574.347 -4.35477 2.1957 0
M  V30 6248 H 573.352 -3.42189 4.30333 0
M  V30 6249 H 574.577 -4.28485 5.26856 0
M  V30 6250 H 572.523 -5.58567 3.44004 0
M  V30 6251 H 572.44 -5.51605 5.16979 0
M  V30 6252 H 573.708 -6.42906 4.40786 0
M  V30 6253 N 577.937 -1.40673 -0.710563 0
M  V30 6254 C 578.867 -1.44095 -1.83736 0
M  V30 6255 C 579.848 -0.301286 -1.67411 0
M  V30 6256 O 581.033 -0.510618 -1.87367 0
M  V30 6257 C 578.163 -1.30773 -3.21738 0
M  V30 6258 C 577.117 -2.42395 -3.52745 0
M  V30 6259 C 576.443 -2.14147 -4.89944 0
M  V30 6260 C 577.743 -3.84738 -3.53234 0
M  V30 6261 H 579.437 -2.38396 -1.81129 0
M  V30 6262 H 576.983 -1.14746 -0.870017 0
M  V30 6263 H 578.936 -1.31783 -4.00264 0
M  V30 6264 H 577.66 -0.329507 -3.24934 0
M  V30 6265 H 576.319 -2.40643 -2.76562 0
M  V30 6266 H 575.967 -1.14703 -4.89747 0
M  V30 6267 H 575.667 -2.88934 -5.11655 0
M  V30 6268 H 577.191 -2.16848 -5.70797 0
M  V30 6269 H 578.605 -3.88286 -4.2179 0
M  V30 6270 H 577.002 -4.59085 -3.86473 0
M  V30 6271 H 578.072 -4.13962 -2.52514 0
M  V30 6272 N 579.415 0.9433 -1.26252 0
M  V30 6273 C 580.64 1.72898 -1.14547 0
M  V30 6274 C 581.065 1.85761 0.295743 0
M  V30 6275 O 580.423 1.3463 1.21427 0
M  V30 6276 C 580.471 3.11471 -1.8171 0
M  V30 6277 O 579.575 3.97336 -1.10445 0
M  V30 6278 H 578.916 0.530555 -0.399259 0
M  V30 6279 H 581.446 1.18159 -1.67032 0
M  V30 6280 H 581.456 3.61872 -1.88449 0
M  V30 6281 H 580.131 3.01425 -2.86558 0
M  V30 6282 H 578.708 3.55788 -1.11666 0
M  V30 6283 N 580.893 1.08022 1.14757 0
M  V30 6284 C 582.118 0.82895 1.90114 0
M  V30 6285 C 582.543 -0.612772 1.77839 0
M  V30 6286 O 581.901 -1.42895 1.11583 0
M  V30 6287 C 581.949 1.25062 3.38219 0
M  V30 6288 O 581.053 0.400119 4.10454 0
M  V30 6289 H 580.394 0.301412 0.591648 0
M  V30 6290 H 582.924 1.44062 1.45284 0
M  V30 6291 H 582.934 1.22977 3.89025 0
M  V30 6292 H 581.609 2.30067 3.46471 0
M  V30 6293 H 580.186 0.484052 3.69745 0
M  V30 6294 N 582.371 -1.3172 0.865308 0
M  V30 6295 C 583.318 -2.2863 0.315736 0
M  V30 6296 C 584.288 -1.55524 -0.583213 0
M  V30 6297 O 585.473 -1.83694 -0.51585 0
M  V30 6298 C 582.613 -3.41735 -0.480773 0
M  V30 6299 C 581.726 -4.297 0.445167 0
M  V30 6300 C 580.861 -5.29944 -0.365012 0
M  V30 6301 C 579.9 -6.09554 0.557651 0
M  V30 6302 N 579.037 -7.01768 -0.215994 0
M  V30 6303 H 583.877 -2.75026 1.14736 0
M  V30 6304 H 581.414 -1.35302 0.577209 0
M  V30 6305 H 583.372 -4.06045 -0.958306 0
M  V30 6306 H 582.002 -2.96461 -1.27714 0
M  V30 6307 H 581.054 -3.65875 1.04113 0
M  V30 6308 H 582.366 -4.85295 1.15284 0
M  V30 6309 H 581.52 -5.99908 -0.905255 0
M  V30 6310 H 580.259 -4.74994 -1.106 0
M  V30 6311 H 579.264 -5.38485 1.10969 0
M  V30 6312 H 580.489 -6.66591 1.29742 0
M  V30 6313 H 578.435 -6.49232 -0.939878 0
M  V30 6314 H 578.352 -7.54762 0.432431 0
M  V30 6315 H 579.62 -7.76002 -0.737618 0
M  V30 6316 N 583.85 -0.624285 -1.44708 0
M  V30 6317 C 585.266 -0.289322 -1.56956 0
M  V30 6318 C 585.466 1.20773 -1.61295 0
M  V30 6319 O 584.522 1.9915 -1.55227 0
M  V30 6320 C 585.835 -0.975215 -2.84447 0
M  V30 6321 C 587.383 -0.952709 -2.98148 0
M  V30 6322 C 587.858 -1.61893 -4.28433 0
M  V30 6323 N 589.349 -1.5852 -4.35231 0
M  V30 6324 C 590.084 -2.06969 -5.34744 0
M  V30 6325 N 589.58 -2.63579 -6.40701 0
M  V30 6326 N 591.373 -1.97638 -5.26209 0
M  V30 6327 H 583.524 -1.59612 -1.40135 0
M  V30 6328 H 585.787 -0.669592 -0.671081 0
M  V30 6329 H 585.493 -2.02999 -2.87201 0
M  V30 6330 H 585.367 -0.508749 -3.73753 0
M  V30 6331 H 587.754 0.093568 -2.94952 0
M  V30 6332 H 587.835 -1.4576 -2.10209 0
M  V30 6333 H 587.479 -2.66463 -4.32389 0
M  V30 6334 H 587.409 -1.08893 -5.15218 0
M  V30 6335 H 589.899 -1.17183 -3.59272 0
M  V30 6336 H 590.213 -2.98298 -7.12908 0
M  V30 6337 H 588.558 -2.67626 -6.41406 0
M  V30 6338 H 591.749 -1.5314 -4.42341 0
M  V30 6339 H 591.922 -2.35708 -6.03611 0
M  V30 6340 N 585.328 1.53329 -0.364422 0
M  V30 6341 C 586.739 1.86345 0.115039 0
M  V30 6342 C 587.09 1.28505 1.4826 0
M  V30 6343 O 586.215 0.606639 2.07723 0
M  V30 6344 C 586.81 3.38114 0.215522 0
M  V30 6345 C 585.369 3.70932 0.639237 0
M  V30 6346 C 584.516 2.76471 -0.214261 0
M  V30 6347 H 587.467 1.47593 -0.583258 0
M  V30 6348 H 587.488 3.66031 1.0393 0
M  V30 6349 H 587 3.80182 -0.779948 0
M  V30 6350 H 585.101 3.3442 1.64298 0
M  V30 6351 H 585.214 4.77302 0.41465 0
M  V30 6352 H 583.578 2.52724 0.316678 0
M  V30 6353 H 584.361 3.21373 -1.20725 0
M  V30 6354 N 586.806 0.0935595 1.57322 0
M  V30 6355 C 587.753 -0.865935 2.1394 0
M  V30 6356 C 588.723 -1.28083 1.05754 0
M  V30 6357 O 589.908 -1.36285 1.33533 0
M  V30 6358 C 587.048 -2.12023 2.72287 0
M  V30 6359 C 586.161 -1.756 3.94701 0
M  V30 6360 C 585.296 -2.95804 4.41218 0
M  V30 6361 C 584.335 -2.555 5.56225 0
M  V30 6362 N 583.472 -3.68534 5.97601 0
M  V30 6363 H 588.312 -0.376261 2.95615 0
M  V30 6364 H 585.849 -0.174052 1.46067 0
M  V30 6365 H 587.807 -2.85477 3.04235 0
M  V30 6366 H 586.437 -2.58492 1.93343 0
M  V30 6367 H 585.489 -0.921208 3.69077 0
M  V30 6368 H 586.801 -1.41964 4.78171 0
M  V30 6369 H 585.955 -3.77513 4.74941 0
M  V30 6370 H 584.694 -3.32649 3.56645 0
M  V30 6371 H 583.699 -1.72218 5.22131 0
M  V30 6372 H 584.924 -2.19801 6.42545 0
M  V30 6373 H 582.87 -4.051 5.15974 0
M  V30 6374 H 582.787 -3.38737 6.75865 0
M  V30 6375 H 584.055 -4.50757 6.35955 0
M  V30 6376 N 588.284 -1.56567 -0.180126 0
M  V30 6377 C 589.532 -1.81133 -0.896392 0
M  V30 6378 C 589.853 -0.669114 -1.83161 0
M  V30 6379 O 589.123 0.311616 -1.93406 0
M  V30 6380 H 587.703 -0.668172 -0.333999 0
M  V30 6381 H 590.365 -1.94048 -0.182051 0
M  V30 6382 H 589.461 -2.74854 -1.47857 0
M  V30 6383 N 589.762 0.448376 -1.51087 0
M  V30 6384 C 591.011 1.19561 -1.62444 0
M  V30 6385 C 591.324 1.92602 -0.341151 0
M  V30 6386 O 592.53 2.69439 -0.333936 0
M  V30 6387 C 590.986 2.17373 -2.8684 0
M  V30 6388 C 590.594 1.5003 -4.22131 0
M  V30 6389 C 592.338 2.92597 -3.0755 0
M  V30 6390 C 590.245 2.46262 -5.37689 0
M  V30 6391 H 589.175 0.449975 -0.605011 0
M  V30 6392 H 591.826 0.463735 -1.77544 0
M  V30 6393 H 590.208 2.93948 -2.65349 0
M  V30 6394 H 591.382 0.790886 -4.53962 0
M  V30 6395 H 589.697 0.870011 -4.0721 0
M  V30 6396 H 592.294 3.64663 -3.91056 0
M  V30 6397 H 592.637 3.53306 -2.20183 0
M  V30 6398 H 593.17 2.23131 -3.29329 0
M  V30 6399 H 589.909 1.90258 -6.27281 0
M  V30 6400 H 589.429 3.15289 -5.10248 0
M  V30 6401 H 591.108 3.07623 -5.6919 0
M  V30 6402 N 591.24 1.41047 0.703093 0
M  V30 6403 C 592.17 1.45067 1.82969 0
M  V30 6404 C 593.151 0.31016 1.67248 0
M  V30 6405 O 594.336 0.520548 1.87093 0
M  V30 6406 C 591.466 1.32478 3.2104 0
M  V30 6407 C 590.42 2.44262 3.51454 0
M  V30 6408 C 589.746 2.16742 4.88801 0
M  V30 6409 C 591.046 3.86606 3.51189 0
M  V30 6410 H 592.74 2.39353 1.79863 0
M  V30 6411 H 590.286 1.15206 0.863919 0
M  V30 6412 H 592.239 1.33904 3.99559 0
M  V30 6413 H 590.963 0.346735 3.24754 0
M  V30 6414 H 589.622 2.42107 2.75282 0
M  V30 6415 H 589.27 1.17299 4.89132 0
M  V30 6416 H 588.97 2.91643 5.10116 0
M  V30 6417 H 590.494 2.19872 5.69639 0
M  V30 6418 H 591.908 3.90517 4.19725 0
M  V30 6419 H 590.305 4.61128 3.84033 0
M  V30 6420 H 591.375 4.15296 2.50315 0
M  V30 6421 N 592.718 -0.936591 1.26751 0
M  V30 6422 C 593.665 -2.03597 1.08706 0
M  V30 6423 C 594.635 -1.66097 -0.00926542 0
M  V30 6424 O 595.82 -1.90199 0.151377 0
M  V30 6425 C 592.96 -3.3727 0.73094 0
M  V30 6426 C 592.073 -3.87778 1.90399 0
M  V30 6427 C 591.208 -5.09859 1.49056 0
M  V30 6428 C 590.247 -5.5264 2.63164 0
M  V30 6429 N 589.384 -6.65921 2.22471 0
M  V30 6430 H 594.224 -2.18364 2.02784 0
M  V30 6431 H 591.761 -1.06985 1.00958 0
M  V30 6432 H 593.719 -4.14128 0.505328 0
M  V30 6433 H 592.349 -3.22337 -0.172868 0
M  V30 6434 H 591.401 -3.07279 2.2424 0
M  V30 6435 H 592.713 -4.15464 2.76028 0
M  V30 6436 H 591.867 -5.9419 1.22567 0
M  V30 6437 H 590.606 -4.8393 0.60524 0
M  V30 6438 H 589.611 -4.66863 2.90377 0
M  V30 6439 H 590.836 -5.80568 3.52303 0
M  V30 6440 H 588.782 -6.41667 1.36379 0
M  V30 6441 H 588.699 -6.93216 3.01641 0
M  V30 6442 H 589.967 -7.53616 1.99205 0
M  V30 6443 N 594.196 -1.08629 -1.14182 0
M  V30 6444 C 595.143 -0.718299 -2.19338 0
M  V30 6445 C 596.113 0.296587 -1.63431 0
M  V30 6446 O 597.298 0.180079 -1.89948 0
M  V30 6447 C 594.438 -0.136203 -3.44831 0
M  V30 6448 C 593.551 -1.20414 -4.14879 0
M  V30 6449 C 592.686 -0.585666 -5.27962 0
M  V30 6450 C 591.725 -1.63548 -5.89846 0
M  V30 6451 N 590.862 -1.03864 -6.94375 0
M  V30 6452 H 595.702 -1.61932 -2.50164 0
M  V30 6453 H 593.239 -0.80919 -1.22844 0
M  V30 6454 H 595.197 0.219021 -4.16625 0
M  V30 6455 H 593.827 0.728121 -3.14481 0
M  V30 6456 H 592.879 -1.67676 -3.41451 0
M  V30 6457 H 594.191 -1.99959 -4.56966 0
M  V30 6458 H 593.345 -0.178818 -6.06436 0
M  V30 6459 H 592.084 0.24142 -4.87102 0
M  V30 6460 H 591.089 -2.05197 -5.10073 0
M  V30 6461 H 592.314 -2.46509 -6.3278 0
M  V30 6462 H 590.26 -0.232687 -6.55587 0
M  V30 6463 H 590.177 -1.77116 -7.3496 0
M  V30 6464 H 591.445 -0.657724 -7.7672 0
M  V30 6465 N 595.674 1.31259 -0.872281 0
M  V30 6466 C 597.09 1.49283 -0.564521 0
M  V30 6467 C 597.29 1.80243 0.900807 0
M  V30 6468 O 596.346 1.88246 1.68284 0
M  V30 6469 C 597.659 2.62503 -1.46673 0
M  V30 6470 C 599.207 2.76386 -1.46901 0
M  V30 6471 C 599.682 3.92705 -2.35684 0
M  V30 6472 N 601.173 3.99995 -2.33577 0
M  V30 6473 C 601.908 4.89276 -2.98992 0
M  V30 6474 N 601.404 5.83443 -3.73585 0
M  V30 6475 N 603.197 4.82541 -2.88289 0
M  V30 6476 H 595.348 1.09432 -1.82039 0
M  V30 6477 H 597.611 0.540949 -0.77851 0
M  V30 6478 H 597.317 2.46407 -2.50951 0
M  V30 6479 H 597.191 3.58695 -1.16696 0
M  V30 6480 H 599.578 2.91894 -0.433796 0
M  V30 6481 H 599.659 1.80853 -1.80903 0
M  V30 6482 H 599.303 3.77954 -3.39283 0
M  V30 6483 H 599.233 4.87549 -1.99006 0
M  V30 6484 H 601.724 3.32624 -1.7936 0
M  V30 6485 H 602.037 6.48303 -4.20622 0
M  V30 6486 H 600.382 5.83415 -3.77694 0
M  V30 6487 H 603.573 4.07951 -2.2955 0
M  V30 6488 H 603.746 5.51916 -3.39549 0
M  V30 6489 N 597.152 0.631951 1.44375 0
M  V30 6490 C 598.377 0.142146 2.06912 0
M  V30 6491 C 598.802 -1.17456 1.4692 0
M  V30 6492 O 598.16 -1.72074 0.570975 0
M  V30 6493 C 598.208 0.0417952 3.60576 0
M  V30 6494 O 597.312 -1.00194 4.00044 0
M  V30 6495 H 596.653 0.0851491 0.658518 0
M  V30 6496 H 599.183 0.868863 1.85235 0
M  V30 6497 H 599.193 -0.148517 4.0773 0
M  V30 6498 H 597.868 1.0031 4.03622 0
M  V30 6499 H 596.445 -0.786131 3.64519 0
M  V30 6500 N 598.631 -1.53133 0.372548 0
M  V30 6501 C 599.579 -2.27473 -0.485681 0
M  V30 6502 C 600.573 -1.30719 -1.07745 0
M  V30 6503 O 601.779 -1.48321 -1.01985 0
M  V30 6504 H 598.154 -0.731269 -0.175356 0
M  V30 6505 H 600.125 -2.97955 0.162986 0
M  V30 6506 C 598.874 -3.08191 -1.60978 0
M  V30 6507 H 598.197 -3.82488 -1.16373 0
M  V30 6508 H 599.637 -3.63373 -2.18485 0
M  V30 6509 C 598.096 -2.19461 -2.55614 0
M  V30 6510 O 598.626 -1.81008 -3.58607 0
M  V30 6511 N 596.832 -1.83955 -2.24965 0
M  V30 6512 H 596.379 -2.15423 -1.41247 0
M  V30 6513 H 596.337 -1.24874 -2.88538 0
M  V30 6514 N 600.109 -0.101901 -1.5727 0
M  V30 6515 C 601.334 0.571759 -1.99363 0
M  V30 6516 C 601.759 1.60507 -0.980768 0
M  V30 6517 O 601.117 1.81231 0.0498517 0
M  V30 6518 C 601.165 1.18996 -3.404 0
M  V30 6519 O 600.269 2.30572 -3.41922 0
M  V30 6520 H 599.61 0.144449 -0.648098 0
M  V30 6521 H 602.14 -0.185325 -2.03759 0
M  V30 6522 H 602.15 1.52962 -3.78241 0
M  V30 6523 H 600.825 0.432984 -4.1364 0
M  V30 6524 H 599.402 1.98173 -3.15883 0
M  V30 6525 N 601.587 1.56661 0.17182 0
M  V30 6526 C 602.497 1.99604 1.2327 0
M  V30 6527 C 603.513 0.907333 1.4847 0
M  V30 6528 O 604.689 1.21492 1.60629 0
M  V30 6529 C 601.754 2.34685 2.55194 0
M  V30 6530 C 600.815 3.57381 2.3786 0
M  V30 6531 C 600.048 3.90779 3.63494 0
M  V30 6532 O 600.271 3.25152 4.6865 0
M  V30 6533 O 599.205 4.84129 3.57634 0
M  V30 6534 H 603.031 2.90114 0.898192 0
M  V30 6535 H 600.616 1.44522 0.378647 0
M  V30 6536 H 602.498 2.5822 3.33017 0
M  V30 6537 H 601.173 1.47336 2.88225 0
M  V30 6538 H 600.08 3.39064 1.5807 0
M  V30 6539 H 601.413 4.45268 2.09754 0
M  V30 6540 N 603.065 -0.440357 1.51323 0
M  V30 6541 C 604.015 -1.53263 1.68803 0
M  V30 6542 C 604.999 -1.51494 0.542057 0
M  V30 6543 O 606.191 -1.57999 0.797839 0
M  V30 6544 C 603.32 -2.91479 1.8137 0
M  V30 6545 C 602.406 -2.98015 3.01742 0
M  V30 6546 N 602.797 -2.743 4.24962 0
M  V30 6547 C 601.095 -3.29173 3.00934 0
M  V30 6548 C 601.796 -2.86601 5.06197 0
M  V30 6549 N 600.772 -3.1814 4.40781 0
M  V30 6550 H 604.574 -1.33675 2.61741 0
M  V30 6551 H 602.088 -0.647616 1.48929 0
M  V30 6552 H 604.085 -3.70055 1.92002 0
M  V30 6553 H 602.745 -3.12089 0.896117 0
M  V30 6554 H 603.756 -2.49287 4.53957 0
M  V30 6555 H 600.433 -3.55577 2.18796 0
M  V30 6556 H 601.823 -2.72246 6.14274 0
M  V30 6557 N 604.543 -1.41418 -0.695603 0
M  V30 6558 C 605.959 -1.23887 -1.00619 0
M  V30 6559 C 606.159 -0.128206 -2.01092 0
M  V30 6560 O 605.215 0.507408 -2.47349 0
M  V30 6561 C 606.528 -2.58816 -1.53083 0
M  V30 6562 C 608.076 -2.65998 -1.64967 0
M  V30 6563 C 608.551 -4.01244 -2.20833 0
M  V30 6564 N 610.042 -4.0309 -2.28194 0
M  V30 6565 C 610.777 -5.04539 -2.72448 0
M  V30 6566 N 610.273 -6.16378 -3.16306 0
M  V30 6567 N 612.066 -4.91901 -2.72011 0
M  V30 6568 H 604.217 -2.12379 -0.0300061 0
M  V30 6569 H 606.48 -0.944958 -0.0758797 0
M  V30 6570 H 606.186 -3.40842 -0.867147 0
M  V30 6571 H 606.06 -2.81299 -2.51298 0
M  V30 6572 H 608.447 -1.84331 -2.30448 0
M  V30 6573 H 608.528 -2.47325 -0.652982 0
M  V30 6574 H 608.172 -4.83359 -1.55968 0
M  V30 6575 H 608.102 -4.17257 -3.21254 0
M  V30 6576 H 610.593 -3.22341 -1.97242 0
M  V30 6577 H 610.906 -6.89658 -3.487 0
M  V30 6578 H 609.251 -6.19914 -3.14215 0
M  V30 6579 H 612.442 -4.03613 -2.37095 0
M  V30 6580 H 612.615 -5.71102 -3.06181 0
M  V30 6581 N 606.021 0.929856 -1.27246 0
M  V30 6582 C 607.246 1.71674 -1.16374 0
M  V30 6583 C 607.671 1.86064 0.276024 0
M  V30 6584 O 607.029 1.3591 1.19992 0
M  V30 6585 C 607.077 3.09526 -1.85003 0
M  V30 6586 O 606.181 3.96142 -1.14653 0
M  V30 6587 H 605.522 0.52629 -0.404863 0
M  V30 6588 H 608.052 1.16381 -1.68276 0
M  V30 6589 H 608.062 3.59852 -1.92276 0
M  V30 6590 H 606.737 2.98369 -2.89739 0
M  V30 6591 H 605.314 3.54584 -1.15433 0
M  V30 6592 N 607.499 1.09233 1.13605 0
M  V30 6593 C 608.449 0.6994 2.17008 0
M  V30 6594 C 609.433 -0.285238 1.58352 0
M  V30 6595 O 610.625 -0.09592 1.7674 0
M  V30 6596 C 607.754 0.11938 3.43092 0
M  V30 6597 C 606.84 1.13031 4.0876 0
M  V30 6598 N 607.231 2.31673 4.49623 0
M  V30 6599 C 605.529 0.967999 4.35369 0
M  V30 6600 C 606.23 2.95964 5.00779 0
M  V30 6601 N 605.206 2.23534 4.95513 0
M  V30 6602 H 609.008 1.60272 2.46354 0
M  V30 6603 H 606.522 0.968257 1.30378 0
M  V30 6604 H 608.519 -0.180122 4.16511 0
M  V30 6605 H 607.179 -0.778816 3.15221 0
M  V30 6606 H 608.19 2.69277 4.42391 0
M  V30 6607 H 604.867 0.124319 4.17315 0
M  V30 6608 H 606.257 3.96813 5.42208 0
M  V30 6609 N 608.977 -1.30795 0.87923 0
M  V30 6610 C 610.202 -2.01063 0.508769 0
M  V30 6611 C 610.627 -1.65508 -0.893803 0
M  V30 6612 O 609.985 -0.868616 -1.59138 0
M  V30 6613 C 610.033 -3.54054 0.683991 0
M  V30 6614 O 609.137 -4.11498 -0.272654 0
M  V30 6615 H 608.478 -0.632786 0.201191 0
M  V30 6616 H 611.008 -1.66776 1.18519 0
M  V30 6617 H 611.018 -4.03845 0.580798 0
M  V30 6618 H 609.693 -3.79271 1.70665 0
M  V30 6619 H 608.27 -3.72695 -0.12364 0
M  V30 6620 N 610.455 -0.639598 -1.44038 0
M  V30 6621 C 611.683 -0.154811 -2.0632 0
M  V30 6622 C 612.098 1.17406 -1.47856 0
M  V30 6623 O 611.455 1.72193 -0.604638 0
M  V30 6624 C 611.506 -0.0429958 -3.61474 0
M  V30 6625 O 611.227 -1.31932 -4.17763 0
M  V30 6626 C 612.728 0.469486 -4.40807 0
M  V30 6627 H 609.948 -0.0835862 -0.665773 0
M  V30 6628 H 612.492 -0.876397 -1.84769 0
M  V30 6629 H 610.647 0.629075 -3.82258 0
M  V30 6630 H 611.061 -1.16965 -5.11292 0
M  V30 6631 H 612.535 0.496712 -5.49761 0
M  V30 6632 H 613.012 1.49819 -4.12857 0
M  V30 6633 H 613.618 -0.169624 -4.24962 0
M  V30 6634 N 611.933 1.52934 -0.380664 0
M  V30 6635 C 613.181 2.01069 0.203874 0
M  V30 6636 C 613.502 1.26922 1.4804 0
M  V30 6637 O 612.772 0.386787 1.92044 0
M  V30 6638 H 611.352 0.742882 0.0783279 0
M  V30 6639 H 614.014 1.88099 -0.510368 0
M  V30 6640 H 613.11 3.09258 0.42021 0
M  V30 6641 N 613.412 0.11024 1.57214 0
M  V30 6642 C 614.659 -0.54987 1.94891 0
M  V30 6643 C 614.987 -1.67243 0.992984 0
M  V30 6644 O 614.242 -1.95694 0.0152703 0
M  V30 6645 C 614.541 -1.13102 3.39032 0
M  V30 6646 C 614.207 -0.130713 4.5071 0
M  V30 6647 C 612.869 0.14437 4.80983 0
M  V30 6648 C 615.221 0.551472 5.18274 0
M  V30 6649 C 612.549 1.10807 5.76141 0
M  V30 6650 C 614.901 1.50375 6.14467 0
M  V30 6651 C 613.565 1.78691 6.43138 0
M  V30 6652 H 612.835 -0.201212 0.713158 0
M  V30 6653 H 615.482 0.189288 1.90562 0
M  V30 6654 H 613.787 -1.94675 3.40013 0
M  V30 6655 H 615.484 -1.64973 3.65493 0
M  V30 6656 H 612.074 -0.355301 4.27125 0
M  V30 6657 H 616.258 0.35211 4.95049 0
M  V30 6658 H 611.514 1.3343 5.96663 0
M  V30 6659 H 615.688 2.03808 6.65909 0
M  V30 6660 H 613.315 2.53522 7.1668 0
M  V30 6661 N 614.89 -1.56749 -0.16351 0
M  V30 6662 C 616.139 -1.81626 -0.877211 0
M  V30 6663 C 616.452 -0.688791 -1.83071 0
M  V30 6664 O 617.658 -0.822697 -2.58735 0
M  V30 6665 C 616.114 -3.21858 -1.61045 0
M  V30 6666 C 615.722 -4.42494 -0.700195 0
M  V30 6667 C 617.466 -3.56021 -2.31192 0
M  V30 6668 C 615.373 -5.73748 -1.43412 0
M  V30 6669 H 614.303 -0.67731 -0.331312 0
M  V30 6670 H 616.954 -1.83039 -0.13006 0
M  V30 6671 H 615.336 -3.14784 -2.40264 0
M  V30 6672 H 616.51 -4.60766 0.0555849 0
M  V30 6673 H 614.825 -4.1626 -0.10799 0
M  V30 6674 H 617.422 -4.51333 -2.8671 0
M  V30 6675 H 617.765 -2.81277 -3.06902 0
M  V30 6676 H 618.298 -3.64682 -1.58909 0
M  V30 6677 H 615.037 -6.51543 -0.719186 0
M  V30 6678 H 614.557 -5.5944 -2.16302 0
M  V30 6679 H 616.236 -6.15975 -1.9795 0
M  V30 6680 N 616.368 0.432326 -1.51554 0
M  V30 6681 C 617.278 1.55023 -1.76082 0
M  V30 6682 C 618.294 1.61593 -0.645265 0
M  V30 6683 O 619.47 1.78742 -0.928086 0
M  V30 6684 C 616.535 2.90964 -1.88523 0
M  V30 6685 C 615.596 2.9447 -3.12388 0
M  V30 6686 C 614.829 4.23926 -3.24225 0
M  V30 6687 O 615.052 5.16576 -2.4188 0
M  V30 6688 O 613.986 4.33818 -4.17235 0
M  V30 6689 H 617.812 1.37238 -2.70923 0
M  V30 6690 H 615.397 0.615845 -1.36117 0
M  V30 6691 H 617.279 3.71633 -1.98662 0
M  V30 6692 H 615.954 3.08865 -0.9687 0
M  V30 6693 H 614.861 2.12737 -3.07723 0
M  V30 6694 H 616.194 2.81514 -4.03746 0
M  V30 6695 N 617.846 1.41785 0.688094 0
M  V30 6696 C 619.094 1.41264 1.4453 0
M  V30 6697 C 619.415 0.0252946 1.94984 0
M  V30 6698 O 618.685 -0.934081 1.72197 0
M  V30 6699 H 617.265 0.519998 0.536294 0
M  V30 6700 H 619.927 1.7709 0.813941 0
M  V30 6701 H 619.023 2.10439 2.30482 0
M  V30 6702 N 619.324 -0.923095 1.27737 0
M  V30 6703 C 620.57 -1.67375 1.14514 0
M  V30 6704 C 620.903 -1.91751 -0.307424 0
M  V30 6705 O 620.178 -1.51119 -1.22447 0
M  V30 6706 C 620.461 -3.03745 1.9342 0
M  V30 6707 C 620.314 -2.86581 3.46686 0
M  V30 6708 C 621.633 -4.04144 1.74228 0
M  V30 6709 H 618.752 -0.607427 0.417374 0
M  V30 6710 H 621.394 -1.07089 1.56946 0
M  V30 6711 H 619.544 -3.55204 1.5736 0
M  V30 6712 H 621.216 -2.42203 3.92601 0
M  V30 6713 H 619.459 -2.21829 3.72793 0
M  V30 6714 H 620.13 -3.83381 3.97143 0
M  V30 6715 H 622.606 -3.61712 2.05678 0
M  V30 6716 H 621.482 -4.97543 2.31824 0
M  V30 6717 H 621.743 -4.36661 0.691373 0
M  V30 6718 N 620.802 -1.09834 -1.13024 0
M  V30 6719 C 622.048 -0.83819 -1.84668 0
M  V30 6720 C 622.381 0.634645 -1.83537 0
M  V30 6721 O 621.656 1.46753 -1.27647 0
M  V30 6722 C 621.939 -1.37933 -3.32636 0
M  V30 6723 C 621.792 -2.91857 -3.42257 0
M  V30 6724 C 623.111 -1.01654 -4.28199 0
M  V30 6725 H 620.23 -0.30595 -0.670495 0
M  V30 6726 H 622.872 -1.36044 -1.32635 0
M  V30 6727 H 621.022 -0.935111 -3.77078 0
M  V30 6728 H 622.694 -3.44759 -3.06495 0
M  V30 6729 H 620.937 -3.28776 -2.83 0
M  V30 6730 H 621.608 -3.24799 -4.46329 0
M  V30 6731 H 624.084 -1.39973 -3.9185 0
M  V30 6732 H 622.96 -1.42217 -5.30156 0
M  V30 6733 H 623.221 0.0747794 -4.42037 0
M  V30 6734 N 622.28 1.30327 -0.886154 0
M  V30 6735 C 623.528 1.9571 -0.504195 0
M  V30 6736 C 623.849 1.70294 0.950003 0
M  V30 6737 O 623.119 1.02718 1.66811 0
M  V30 6738 H 621.699 0.72412 -0.183465 0
M  V30 6739 H 624.361 1.58835 -1.12949 0
M  V30 6740 H 623.457 3.04704 -0.675431 0
M  V30 6741 N 623.758 0.647228 1.43697 0
M  V30 6742 C 625.169 0.238689 1.85168 0
M  V30 6743 C 625.52 -1.21345 1.54175 0
M  V30 6744 O 624.645 -1.92542 0.987743 0
M  V30 6745 C 625.24 0.426422 3.36106 0
M  V30 6746 C 623.799 0.0722541 3.76331 0
M  V30 6747 C 622.946 0.732153 2.6746 0
M  V30 6748 H 625.897 0.851309 1.33934 0
M  V30 6749 H 625.918 -0.32987 3.79067 0
M  V30 6750 H 625.43 1.48339 3.58632 0
M  V30 6751 H 623.531 -0.982355 3.59417 0
M  V30 6752 H 623.644 0.493541 4.76551 0
M  V30 6753 H 622.008 0.16594 2.54159 0
M  V30 6754 H 622.791 1.79204 2.92816 0
M  V30 6755 N 625.236 -1.5273 0.388769 0
M  V30 6756 C 626.199 -2.25043 -0.434544 0
M  V30 6757 C 627.199 -1.26661 -0.990644 0
M  V30 6758 O 628.389 -1.50762 -0.872731 0
M  V30 6759 C 625.521 -3.00507 -1.60961 0
M  V30 6760 H 626.714 -2.99242 0.198549 0
M  V30 6761 H 624.267 -1.55664 0.140875 0
M  V30 6762 H 625.002 -2.30607 -2.28015 0
M  V30 6763 H 624.787 -3.72716 -1.21757 0
M  V30 6764 H 626.277 -3.55413 -2.19251 0
M  V30 6765 N 626.714 -0.118576 -1.57153 0
M  V30 6766 C 627.644 0.828436 -2.1831 0
M  V30 6767 C 628.625 1.27758 -1.12303 0
M  V30 6768 O 629.81 1.34026 -1.40537 0
M  V30 6769 C 626.94 2.07876 -2.78217 0
M  V30 6770 C 625.894 1.76742 -3.89803 0
M  V30 6771 C 625.22 3.08801 -4.36516 0
M  V30 6772 C 626.52 1.03606 -5.11921 0
M  V30 6773 H 628.214 0.318824 -2.97698 0
M  V30 6774 H 625.76 0.151911 -1.43196 0
M  V30 6775 H 627.713 2.74584 -3.19659 0
M  V30 6776 H 626.437 2.61161 -1.96118 0
M  V30 6777 H 625.096 1.12424 -3.48936 0
M  V30 6778 H 624.744 3.6002 -3.51276 0
M  V30 6779 H 624.444 2.88743 -5.11763 0
M  V30 6780 H 625.968 3.76627 -4.80608 0
M  V30 6781 H 627.382 1.60467 -5.50385 0
M  V30 6782 H 625.779 0.936454 -5.92748 0
M  V30 6783 H 626.849 0.0227421 -4.84895 0
M  V30 6784 N 628.193 1.56834 0.155195 0
M  V30 6785 C 629.604 1.72421 0.716082 0
M  V30 6786 C 629.955 0.731685 1.82046 0
M  V30 6787 O 629.08 -0.103481 2.16152 0
M  V30 6788 C 629.675 3.12629 1.30571 0
M  V30 6789 C 628.234 3.29846 1.81325 0
M  V30 6790 C 627.381 2.68359 0.698494 0
M  V30 6791 H 630.332 1.58544 -0.0703861 0
M  V30 6792 H 630.353 3.12174 2.1755 0
M  V30 6793 H 629.865 3.84844 0.501701 0
M  V30 6794 H 627.966 2.62614 2.64319 0
M  V30 6795 H 628.079 4.37727 1.9476 0
M  V30 6796 H 626.443 2.28604 1.12305 0
M  V30 6797 H 627.226 3.43171 -0.0939366 0
M  V30 6798 N 629.671 -0.424282 1.51781 0
M  V30 6799 C 630.896 -1.19928 1.6921 0
M  V30 6800 C 631.321 -1.8392 0.394355 0
M  V30 6801 O 630.679 -1.69371 -0.646778 0
M  V30 6802 C 630.727 -2.24937 2.81843 0
M  V30 6803 O 629.831 -3.3073 2.46356 0
M  V30 6804 H 629.172 -0.35078 0.563781 0
M  V30 6805 H 631.702 -0.499401 1.98412 0
M  V30 6806 H 631.712 -2.69512 3.06312 0
M  V30 6807 H 630.387 -1.77742 3.76006 0
M  V30 6808 H 628.964 -2.9154 2.32505 0
M  V30 6809 N 631.149 -1.42148 -0.680565 0
M  V30 6810 C 632.377 -1.45696 -1.46902 0
M  V30 6811 C 632.792 -0.0665858 -1.88683 0
M  V30 6812 O 632.149 0.917436 -1.57764 0
M  V30 6813 C 632.2 -2.37898 -2.72188 0
M  V30 6814 O 631.921 -3.71526 -2.32163 0
M  V30 6815 C 633.422 -2.50407 -3.65802 0
M  V30 6816 H 630.642 -0.495729 -0.45221 0
M  V30 6817 H 633.186 -1.866 -0.836709 0
M  V30 6818 H 631.341 -2.00263 -3.31622 0
M  V30 6819 H 631.755 -4.20849 -3.13027 0
M  V30 6820 H 633.229 -3.19056 -4.50452 0
M  V30 6821 H 633.706 -1.5401 -4.11312 0
M  V30 6822 H 634.312 -2.8874 -3.12265 0
M  V30 6823 N 632.627 0.916307 -1.28225 0
M  V30 6824 C 633.874 1.66518 -1.1523 0
M  V30 6825 C 634.202 1.92178 0.299632 0
M  V30 6826 O 633.457 1.51842 1.2346 0
M  V30 6827 C 633.756 3.03125 -1.8934 0
M  V30 6828 C 633.422 2.97135 -3.39148 0
M  V30 6829 C 632.084 2.95208 -3.80007 0
M  V30 6830 C 634.436 2.87574 -4.34685 0
M  V30 6831 C 631.764 2.81518 -5.14747 0
M  V30 6832 C 634.116 2.75424 -5.69495 0
M  V30 6833 C 632.78 2.71854 -6.09632 0
M  V30 6834 H 632.05 0.609334 -0.421655 0
M  V30 6835 H 634.697 1.06776 -1.58969 0
M  V30 6836 H 633.002 3.66639 -1.38143 0
M  V30 6837 H 634.699 3.59968 -1.76704 0
M  V30 6838 H 631.289 2.99428 -3.06661 0
M  V30 6839 H 635.473 2.88152 -4.04082 0
M  V30 6840 H 630.729 2.77148 -5.44976 0
M  V30 6841 H 634.903 2.66993 -6.43185 0
M  V30 6842 H 632.53 2.61003 -7.1399 0
M  V30 6843 N 634.105 1.10431 1.1244 0
M  V30 6844 C 635.052 0.753103 2.18167 0
M  V30 6845 C 636.022 -0.270549 1.63882 0
M  V30 6846 O 637.207 -0.149837 1.90211 0
M  V30 6847 C 634.347 0.191046 3.44571 0
M  V30 6848 C 633.46 1.26999 4.12911 0
M  V30 6849 C 632.595 0.669586 5.26963 0
M  V30 6850 C 631.634 1.72912 5.87169 0
M  V30 6851 N 630.771 1.14898 6.92635 0
M  V30 6852 H 635.611 1.65892 2.47556 0
M  V30 6853 H 633.148 0.828631 1.21541 0
M  V30 6854 H 635.106 -0.152712 4.1692 0
M  V30 6855 H 633.736 -0.677997 3.15599 0
M  V30 6856 H 632.788 1.73087 3.3874 0
M  V30 6857 H 634.1 2.07204 4.53727 0
M  V30 6858 H 633.254 0.275274 6.06075 0
M  V30 6859 H 631.993 -0.163895 4.87425 0
M  V30 6860 H 630.998 2.13286 5.06744 0
M  V30 6861 H 632.223 2.56544 6.28778 0
M  V30 6862 H 630.169 0.336956 6.55134 0
M  V30 6863 H 630.086 1.88786 7.32049 0
M  V30 6864 H 631.354 0.78121 7.75576 0
M  V30 6865 N 635.583 -1.29855 0.893053 0
M  V30 6866 C 636.516 -2.26079 0.3104 0
M  V30 6867 C 637.494 -1.52145 -0.573644 0
M  V30 6868 O 638.678 -1.8113 -0.521937 0
M  V30 6869 C 635.805 -3.34069 -0.558179 0
M  V30 6870 C 634.851 -4.25721 0.257638 0
M  V30 6871 S 635.684 -5.09409 1.65114 0
M  V30 6872 C 636.84 -6.20903 0.789307 0
M  V30 6873 H 637.073 -2.75151 1.12602 0
M  V30 6874 H 634.606 -1.37975 0.692978 0
M  V30 6875 H 636.564 -3.9675 -1.05355 0
M  V30 6876 H 635.225 -2.83705 -1.34797 0
M  V30 6877 H 634.418 -5.02366 -0.405562 0
M  V30 6878 H 634.02 -3.67656 0.685917 0
M  V30 6879 H 636.312 -6.77499 0.00978451 0
M  V30 6880 H 637.255 -6.91426 1.52762 0
M  V30 6881 H 637.663 -5.63435 0.346634 0
M  V30 6882 N 637.061 -0.65484 -1.43351 0
M  V30 6883 C 637.971 0.0363603 -2.34572 0
M  V30 6884 C 638.987 0.810432 -1.53974 0
M  V30 6885 O 640.163 0.757308 -1.86619 0
M  V30 6886 C 637.228 0.989733 -3.32273 0
M  V30 6887 C 636.289 0.212414 -4.28774 0
M  V30 6888 C 635.522 1.12038 -5.21808 0
M  V30 6889 O 635.745 2.35967 -5.19303 0
M  V30 6890 O 634.679 0.59191 -5.98982 0
M  V30 6891 H 638.505 -0.714527 -2.95175 0
M  V30 6892 H 636.09 -0.415029 -1.4352 0
M  V30 6893 H 637.972 1.53759 -3.92347 0
M  V30 6894 H 636.647 1.72082 -2.74171 0
M  V30 6895 H 635.554 -0.379062 -3.72175 0
M  V30 6896 H 636.887 -0.479138 -4.89862 0
M  V30 6897 N 638.539 1.52521 -0.396863 0
M  V30 6898 C 639.471 2.24333 0.469814 0
M  V30 6899 C 640.484 1.2685 1.02043 0
M  V30 6900 O 641.673 1.52876 0.92147 0
M  V30 6901 C 638.773 2.95202 1.66461 0
M  V30 6902 C 637.946 4.19454 1.24003 0
M  V30 6903 C 637.005 4.73255 2.30036 0
M  V30 6904 O 636.031 5.36151 1.91131 0
M  V30 6905 N 637.233 4.53765 3.62047 0
M  V30 6906 H 639.998 2.99347 -0.145468 0
M  V30 6907 H 637.559 1.60348 -0.223606 0
M  V30 6908 H 639.551 3.28092 2.36934 0
M  V30 6909 H 638.121 2.2345 2.18607 0
M  V30 6910 H 637.341 3.92517 0.363892 0
M  V30 6911 H 638.629 5.0017 0.933135 0
M  V30 6912 H 638.027 4.03576 3.96412 0
M  V30 6913 H 636.584 4.91124 4.28533 0
M  V30 6914 N 640.017 0.126909 1.57088 0
M  V30 6915 C 641.294 -0.573152 1.87014 0
M  V30 6916 C 641.674 -1.84297 1.02945 0
M  V30 6917 O 641.022 -2.28232 0.110573 0
M  V30 6918 C 641.232 -0.857984 3.38289 0
M  V30 6919 C 642.58 -1.20759 4.07066 0
M  V30 6920 O 643.604 -0.947992 3.43353 0
M  V30 6921 O 642.463 -1.69516 5.19545 0
M  V30 6922 H 639.557 -0.290082 0.774456 0
M  V30 6923 H 642.103 0.162008 1.68925 0
M  V30 6924 H 640.875 0.0415286 3.91278 0
M  V30 6925 H 640.498 -1.64803 3.61837 0
M  V30 6926 N 641.495 -1.56914 -0.146875 0
M  V30 6927 C 642.425 -2.01308 -1.1831 0
M  V30 6928 C 643.406 -0.892664 -1.44795 0
M  V30 6929 O 644.591 -1.16048 -1.55713 0
M  V30 6930 C 641.721 -2.3938 -2.51624 0
M  V30 6931 C 640.675 -3.54608 -2.3966 0
M  V30 6932 C 640.001 -3.78493 -3.77686 0
M  V30 6933 C 641.301 -4.87269 -1.88058 0
M  V30 6934 H 642.995 -2.88123 -0.813964 0
M  V30 6935 H 640.541 -1.38615 -0.3901 0
M  V30 6936 H 642.494 -2.69037 -3.24341 0
M  V30 6937 H 641.218 -1.49502 -2.90373 0
M  V30 6938 H 639.877 -3.25116 -1.69396 0
M  V30 6939 H 639.525 -2.85866 -4.13871 0
M  V30 6940 H 639.225 -4.56039 -3.70543 0
M  V30 6941 H 640.749 -4.10576 -4.51951 0
M  V30 6942 H 642.163 -5.15644 -2.50568 0
M  V30 6943 H 640.56 -5.68622 -1.91805 0
M  V30 6944 H 641.63 -4.77634 -0.836277 0
M  V30 6945 N 642.974 0.416227 -1.52004 0
M  V30 6946 C 644.214 1.17307 -1.67387 0
M  V30 6947 C 644.578 1.87959 -0.39183 0
M  V30 6948 O 645.779 2.65472 -0.421671 0
M  V30 6949 C 644.05 2.14661 -2.85754 0
M  V30 6950 S 645.609 2.98549 -3.21581 0
M  V30 6951 H 642.427 0.397505 -0.5895 0
M  V30 6952 H 645.029 0.461431 -1.89976 0
M  V30 6953 H 643.733 1.61431 -3.77317 0
M  V30 6954 H 643.264 2.90375 -2.65417 0
M  V30 6955 H 645.279 4.16536 -2.69652 0
M  V30 6956 N 644.452 1.42507 0.673017 0
M  V30 6957 C 645.868 1.25472 0.986355 0
M  V30 6958 C 646.068 0.160181 2.00862 0
M  V30 6959 O 645.124 -0.467993 2.48125 0
M  V30 6960 C 646.437 2.61219 1.48947 0
M  V30 6961 C 647.985 2.68589 1.60715 0
M  V30 6962 C 648.46 4.04707 2.14422 0
M  V30 6963 N 649.951 4.0667 2.21752 0
M  V30 6964 C 650.686 5.0881 2.64386 0
M  V30 6965 N 650.182 6.21332 3.0646 0
M  V30 6966 N 651.975 4.96166 2.64151 0
M  V30 6967 H 644.126 2.124 -0.00378532 0
M  V30 6968 H 646.389 0.946046 0.0608367 0
M  V30 6969 H 646.095 3.42179 0.812812 0
M  V30 6970 H 645.969 2.85261 2.46791 0
M  V30 6971 H 648.356 1.87974 2.27486 0
M  V30 6972 H 648.437 2.48333 0.613552 0
M  V30 6973 H 648.081 4.8578 1.48258 0
M  V30 6974 H 648.011 4.22315 3.14575 0
M  V30 6975 H 650.502 3.25438 1.92089 0
M  V30 6976 H 650.815 6.95118 3.37684 0
M  V30 6977 H 649.16 6.24835 3.04313 0
M  V30 6978 H 652.351 4.07334 2.30644 0
M  V30 6979 H 652.524 5.759 2.97057 0
M  V30 6980 N 645.93 -0.909495 1.28709 0
M  V30 6981 C 647.158 -1.69272 1.18973 0
M  V30 6982 C 647.573 -1.87123 -0.251048 0
M  V30 6983 O 646.93 -1.40127 -1.16922 0
M  V30 6984 C 646.981 -3.08257 1.88839 0
M  V30 6985 O 646.702 -2.91228 3.27289 0
M  V30 6986 C 648.203 -4.02642 1.85457 0
M  V30 6987 H 645.423 -0.528999 0.412797 0
M  V30 6988 H 647.967 -1.13803 1.69909 0
M  V30 6989 H 646.122 -3.6053 1.41762 0
M  V30 6990 H 646.536 -3.79223 3.6234 0
M  V30 6991 H 648.01 -4.97613 2.38925 0
M  V30 6992 H 648.487 -4.31327 0.827893 0
M  V30 6993 H 649.093 -3.56298 2.32233 0
M  V30 6994 N 647.408 -1.11026 -1.11852 0
M  V30 6995 C 648.656 -0.854769 -1.83134 0
M  V30 6996 C 648.977 0.621375 -1.84835 0
M  V30 6997 O 648.247 1.45129 -1.31584 0
M  V30 6998 H 646.827 -0.313229 -0.678157 0
M  V30 6999 H 649.489 -1.40178 -1.35411 0
M  V30 7000 H 648.585 -1.22311 -2.87135 0
M  V30 7001 N 648.886 1.2938 -0.899927 0
M  V30 7002 C 650.132 1.9584 -0.526742 0
M  V30 7003 C 650.465 1.70774 0.924651 0
M  V30 7004 O 649.74 1.02084 1.65557 0
M  V30 7005 C 650.023 3.50638 -0.820062 0
M  V30 7006 C 649.876 3.85161 -2.32317 0
M  V30 7007 C 651.195 4.3903 -0.30671 0
M  V30 7008 H 648.314 0.711322 -0.192848 0
M  V30 7009 H 650.956 1.52992 -1.12665 0
M  V30 7010 H 649.106 3.87265 -0.309491 0
M  V30 7011 H 650.778 3.58477 -2.9033 0
M  V30 7012 H 649.021 3.32696 -2.78381 0
M  V30 7013 H 649.692 4.93204 -2.47898 0
M  V30 7014 H 652.168 4.09396 -0.743908 0
M  V30 7015 H 651.044 5.46226 -0.541144 0
M  V30 7016 H 651.305 4.34937 0.792588 0
M  V30 7017 N 650.364 0.662433 1.43002 0
M  V30 7018 C 651.294 -0.00979809 2.33498 0
M  V30 7019 C 652.275 -0.802329 1.49989 0
M  V30 7020 O 653.46 -0.761964 1.78627 0
M  V30 7021 C 650.59 -0.970446 3.33466 0
M  V30 7022 C 649.544 -0.287383 4.27034 0
M  V30 7023 C 648.87 -1.36012 5.17112 0
M  V30 7024 C 650.17 0.82595 5.15728 0
M  V30 7025 H 651.864 0.745959 2.89958 0
M  V30 7026 H 649.41 0.360172 1.39423 0
M  V30 7027 H 651.363 -1.44971 3.95679 0
M  V30 7028 H 650.087 -1.75748 2.75282 0
M  V30 7029 H 648.746 0.17152 3.66199 0
M  V30 7030 H 648.394 -2.13882 4.55262 0
M  V30 7031 H 648.094 -0.908276 5.80538 0
M  V30 7032 H 649.618 -1.84056 5.82199 0
M  V30 7033 H 651.032 0.42845 5.71697 0
M  V30 7034 H 649.429 1.20282 5.87922 0
M  V30 7035 H 650.499 1.68003 4.54866 0
M  V30 7036 N 651.842 -1.52309 0.404946 0
M  V30 7037 C 652.772 -2.29805 -0.41376 0
M  V30 7038 C 653.753 -1.3384 -1.0498 0
M  V30 7039 O 654.938 -1.62745 -1.05961 0
M  V30 7040 C 652.068 -3.11639 -1.53292 0
M  V30 7041 C 651.022 -4.15616 -1.02211 0
M  V30 7042 C 650.348 -4.8577 -2.23455 0
M  V30 7043 C 651.648 -5.2224 -0.0790725 0
M  V30 7044 H 653.342 -2.98493 0.232878 0
M  V30 7045 H 650.888 -1.43552 0.113441 0
M  V30 7046 H 652.841 -3.64618 -2.11262 0
M  V30 7047 H 651.565 -2.40712 -2.20738 0
M  V30 7048 H 650.224 -3.63641 -0.46484 0
M  V30 7049 H 649.872 -4.11376 -2.89445 0
M  V30 7050 H 649.572 -5.56058 -1.89929 0
M  V30 7051 H 651.096 -5.4156 -2.82038 0
M  V30 7052 H 652.51 -5.70485 -0.567438 0
M  V30 7053 H 650.907 -5.99867 0.167167 0
M  V30 7054 H 651.977 -4.77078 0.867447 0
M  V30 7055 N 653.32 -0.135238 -1.57019 0
M  V30 7056 C 654.731 0.387521 -1.82634 0
M  V30 7057 C 655.082 1.65528 -1.05332 0
M  V30 7058 O 654.207 2.14381 -0.294926 0
M  V30 7059 C 654.802 0.709852 -3.3128 0
M  V30 7060 C 653.361 1.17718 -3.57518 0
M  V30 7061 C 652.508 0.194183 -2.76619 0
M  V30 7062 H 655.459 -0.360126 -1.5456 0
M  V30 7063 H 655.48 1.5657 -3.46794 0
M  V30 7064 H 654.992 -0.213024 -3.87515 0
M  V30 7065 H 653.093 2.1164 -3.06658 0
M  V30 7066 H 653.206 1.11128 -4.66034 0
M  V30 7067 H 651.57 0.684478 -2.4533 0
M  V30 7068 H 652.353 -0.722076 -3.3562 0
M  V30 7069 N 654.798 1.5699 0.138552 0
M  V30 7070 C 656.023 1.88344 0.86841 0
M  V30 7071 C 656.448 0.725159 1.7356 0
M  V30 7072 O 655.806 -0.324992 1.78363 0
M  V30 7073 C 655.854 3.18334 1.69398 0
M  V30 7074 O 654.958 3.02863 2.79907 0
M  V30 7075 H 654.299 0.618577 0.241367 0
M  V30 7076 H 656.829 2.04207 0.126826 0
M  V30 7077 H 656.839 3.50567 2.08726 0
M  V30 7078 H 655.514 4.02238 1.05725 0
M  V30 7079 H 654.091 2.82056 2.43924 0
M  V30 7080 N 656.276 -0.40816 1.52223 0
M  V30 7081 C 657.501 -1.18127 1.70472 0
M  V30 7082 C 657.926 -1.83491 0.41384 0
M  V30 7083 O 657.284 -1.70047 -0.628778 0
M  V30 7084 C 657.332 -2.21935 2.84213 0
M  V30 7085 O 656.436 -3.28099 2.4985 0
M  V30 7086 H 655.777 -0.344781 0.56747 0
M  V30 7087 H 658.307 -0.478328 1.9893 0
M  V30 7088 H 658.317 -2.66248 3.09153 0
M  V30 7089 H 656.992 -1.73744 3.7787 0
M  V30 7090 H 655.569 -2.89058 2.35584 0
M  V30 7091 N 657.755 -1.42862 -0.66545 0
M  V30 7092 C 659.166 -1.3901 -1.24632 0
M  V30 7093 C 659.517 -0.0880285 -1.96002 0
M  V30 7094 O 658.642 0.812947 -2.0055 0
M  V30 7095 C 659.237 -2.51806 -2.2667 0
M  V30 7096 C 657.796 -2.51257 -2.80262 0
M  V30 7097 C 656.943 -2.30124 -1.5472 0
M  V30 7098 H 659.894 -1.5194 -0.458237 0
M  V30 7099 H 659.915 -2.22593 -3.08598 0
M  V30 7100 H 659.427 -3.46558 -1.74697 0
M  V30 7101 H 657.528 -1.60349 -3.36332 0
M  V30 7102 H 657.641 -3.48614 -3.28641 0
M  V30 7103 H 656.005 -1.7856 -1.81627 0
M  V30 7104 H 656.788 -3.26945 -1.04699 0
M  V30 7105 N 659.233 0.902656 -1.29189 0
M  V30 7106 C 660.143 2.03946 -1.15944 0
M  V30 7107 C 661.159 1.738 -0.0833803 0
M  V30 7108 O 662.335 1.9923 -0.29487 0
M  V30 7109 C 659.4 3.36519 -0.834006 0
M  V30 7110 C 658.461 3.80203 -1.9936 0
M  V30 7111 C 657.694 5.06449 -1.68359 0
M  V30 7112 O 657.917 5.67202 -0.603141 0
M  V30 7113 O 656.851 5.46114 -2.53067 0
M  V30 7114 H 660.677 2.18043 -2.11403 0
M  V30 7115 H 658.262 1.02584 -1.08613 0
M  V30 7116 H 660.144 4.16089 -0.666949 0
M  V30 7117 H 658.819 3.23573 0.0908245 0
M  V30 7118 H 657.726 3.01413 -2.21588 0
M  V30 7119 H 659.059 3.97729 -2.89952 0
M  V30 7120 N 660.711 1.11618 1.11262 0
M  V30 7121 C 661.674 0.779447 2.15539 0
M  V30 7122 C 662.674 -0.202081 1.59525 0
M  V30 7123 O 663.864 0.0226356 1.74185 0
M  V30 7124 C 660.996 0.15674 3.40539 0
M  V30 7125 H 662.189 1.70324 2.4684 0
M  V30 7126 H 659.742 0.918298 1.26479 0
M  V30 7127 H 660.477 -0.777186 3.1485 0
M  V30 7128 H 660.262 0.863308 3.82478 0
M  V30 7129 H 661.752 -0.062661 4.17553 0
M  V30 7130 N 662.189 -1.289 0.906776 0
M  V30 7131 C 663.099 -2.31256 0.394707 0
M  V30 7132 C 664.115 -1.66231 -0.514121 0
M  V30 7133 O 665.291 -1.97347 -0.401994 0
M  V30 7134 C 662.356 -3.44792 -0.363191 0
M  V30 7135 C 661.417 -4.25391 0.578012 0
M  V30 7136 C 660.65 -5.33506 -0.143811 0
M  V30 7137 O 660.873 -5.53786 -1.36665 0
M  V30 7138 O 659.807 -5.99673 0.5173 0
M  V30 7139 H 663.633 -2.77051 1.24405 0
M  V30 7140 H 661.218 -1.33466 0.671346 0
M  V30 7141 H 663.1 -4.139 -0.791503 0
M  V30 7142 H 661.775 -3.01093 -1.18848 0
M  V30 7143 H 660.682 -3.58899 1.05558 0
M  V30 7144 H 662.015 -4.72752 1.36992 0
M  V30 7145 N 663.667 -0.670007 -1.42649 0
M  V30 7146 C 664.913 -0.190568 -2.01903 0
M  V30 7147 C 665.246 1.19817 -1.52832 0
M  V30 7148 O 664.521 1.80342 -0.728485 0
M  V30 7149 C 664.804 -0.21991 -3.59428 0
M  V30 7150 C 664.657 -1.64376 -4.18689 0
M  V30 7151 C 665.976 0.434519 -4.3795 0
M  V30 7152 H 663.095 -0.0707219 -0.733599 0
M  V30 7153 H 665.737 -0.853883 -1.69732 0
M  V30 7154 H 663.887 0.344894 -3.86966 0
M  V30 7155 H 665.559 -2.26044 -4.02122 0
M  V30 7156 H 663.802 -2.18591 -3.747 0
M  V30 7157 H 664.473 -1.61601 -5.27815 0
M  V30 7158 H 666.949 -0.0462156 -4.16074 0
M  V30 7159 H 665.825 0.38333 -5.4756 0
M  V30 7160 H 666.086 1.51135 -4.15464 0
M  V30 7161 N 665.145 1.52092 -0.413018 0
M  V30 7162 C 666.556 1.86617 0.0556967 0
M  V30 7163 C 666.907 1.33156 1.44097 0
M  V30 7164 O 666.032 0.672417 2.05688 0
M  V30 7165 C 666.627 3.38628 0.107844 0
M  V30 7166 C 665.186 3.72778 0.520904 0
M  V30 7167 C 664.333 2.75649 -0.302109 0
M  V30 7168 H 667.284 1.45663 -0.629919 0
M  V30 7169 H 667.305 3.69152 0.922324 0
M  V30 7170 H 666.817 3.77508 -0.900506 0
M  V30 7171 H 664.918 3.39478 1.53575 0
M  V30 7172 H 665.031 4.7838 0.262591 0
M  V30 7173 H 663.395 2.53603 0.236115 0
M  V30 7174 H 664.178 3.17369 -1.30888 0
M  V30 7175 N 666.623 0.143563 1.56945 0
M  V30 7176 C 667.871 -0.507402 1.95627 0
M  V30 7177 C 668.192 -1.65626 1.02922 0
M  V30 7178 O 667.462 -1.95693 0.0901136 0
M  V30 7179 H 666.042 -0.190436 0.722318 0
M  V30 7180 H 668.704 0.218257 1.93674 0
M  V30 7181 H 667.8 -0.885816 2.99265 0
M  V30 7182 N 668.101 -1.57061 -0.130224 0
M  V30 7183 C 669.048 -1.99517 -1.16024 0
M  V30 7184 C 670.018 -0.865452 -1.41771 0
M  V30 7185 O 671.203 -1.12882 -1.53826 0
M  V30 7186 C 668.343 -2.3951 -2.48453 0
M  V30 7187 C 667.456 -3.65848 -2.29737 0
M  V30 7188 C 666.591 -3.9487 -3.55318 0
M  V30 7189 C 665.63 -5.14426 -3.31711 0
M  V30 7190 N 664.767 -5.39375 -4.49466 0
M  V30 7191 H 669.607 -2.87305 -0.791194 0
M  V30 7192 H 667.144 -1.42129 -0.379195 0
M  V30 7193 H 669.102 -2.60731 -3.25692 0
M  V30 7194 H 667.732 -1.54779 -2.83272 0
M  V30 7195 H 666.784 -3.52307 -1.4347 0
M  V30 7196 H 668.096 -4.53241 -2.08263 0
M  V30 7197 H 667.25 -4.16679 -4.4098 0
M  V30 7198 H 665.989 -3.05931 -3.79813 0
M  V30 7199 H 664.994 -4.92473 -2.44439 0
M  V30 7200 H 666.219 -6.04933 -3.08598 0
M  V30 7201 H 664.165 -4.53391 -4.74102 0
M  V30 7202 H 664.082 -6.21069 -4.31055 0
M  V30 7203 H 665.35 -5.65694 -5.36293 0
M  V30 7204 N 669.579 0.400081 -1.52437 0
M  V30 7205 C 670.509 1.4947 -1.7939 0
M  V30 7206 C 671.49 1.57383 -0.645329 0
M  V30 7207 O 672.675 1.72511 -0.891826 0
M  V30 7208 C 669.805 2.87201 -1.95276 0
M  V30 7209 C 668.759 2.94134 -3.10917 0
M  V30 7210 C 668.085 4.34207 -3.1204 0
M  V30 7211 C 669.385 2.64791 -4.50203 0
M  V30 7212 H 671.079 1.27165 -2.71052 0
M  V30 7213 H 668.625 0.610312 -1.30427 0
M  V30 7214 H 670.578 3.63772 -2.12715 0
M  V30 7215 H 669.302 3.10819 -1.00294 0
M  V30 7216 H 667.961 2.20009 -2.93243 0
M  V30 7217 H 667.609 4.54848 -2.14761 0
M  V30 7218 H 667.309 4.39768 -3.89715 0
M  V30 7219 H 668.833 5.127 -3.31619 0
M  V30 7220 H 670.247 3.31083 -4.68035 0
M  V30 7221 H 668.644 2.81717 -5.29864 0
M  V30 7222 H 669.714 1.60184 -4.57678 0
M  V30 7223 N 671.057 1.43213 0.657864 0
M  V30 7224 C 672.282 1.48227 1.45064 0
M  V30 7225 C 672.707 0.0999939 1.87834 0
M  V30 7226 O 672.065 -0.905269 1.57081 0
M  V30 7227 C 672.113 2.42931 2.6649 0
M  V30 7228 O 671.217 1.91237 3.6538 0
M  V30 7229 H 670.558 0.501551 0.435135 0
M  V30 7230 H 673.088 1.8808 0.805431 0
M  V30 7231 H 673.098 2.6008 3.1436 0
M  V30 7232 H 671.773 3.43348 2.34701 0
M  V30 7233 H 670.35 1.83726 3.24498 0
M  V30 7234 N 672.536 -0.895792 1.29666 0
M  V30 7235 C 673.947 -1.46195 1.1612 0
M  V30 7236 C 674.298 -1.94699 -0.242195 0
M  V30 7237 O 673.423 -1.8406 -1.13802 0
M  V30 7238 C 674.018 -2.65718 2.10189 0
M  V30 7239 C 672.577 -3.18458 2.00653 0
M  V30 7240 C 671.724 -1.91149 2.00891 0
M  V30 7241 H 674.675 -0.706756 1.42094 0
M  V30 7242 H 674.696 -3.4158 1.6764 0
M  V30 7243 H 674.208 -2.30386 3.12321 0
M  V30 7244 H 672.309 -3.58474 1.01623 0
M  V30 7245 H 672.422 -3.82491 2.88509 0
M  V30 7246 H 670.786 -2.09021 1.45542 0
M  V30 7247 H 671.569 -1.58089 3.04734 0
M  V30 7248 N 674.014 -1.12206 -1.10668 0
M  V30 7249 C 674.961 -0.787716 -2.16942 0
M  V30 7250 C 675.931 0.244442 -1.64291 0
M  V30 7251 O 677.116 0.119558 -1.90425 0
M  V30 7252 C 674.256 -0.24584 -3.44223 0
M  V30 7253 C 673.369 -1.33552 -4.10838 0
M  V30 7254 C 672.504 -0.753337 -5.25831 0
M  V30 7255 C 671.543 -1.82231 -5.84344 0
M  V30 7256 N 670.68 -1.25902 -6.90719 0
M  V30 7257 H 675.52 -1.69809 -2.44885 0
M  V30 7258 H 673.057 -0.847862 -1.20207 0
M  V30 7259 H 675.015 0.0863639 -4.17111 0
M  V30 7260 H 673.645 0.627702 -3.16638 0
M  V30 7261 H 672.697 -1.78454 -3.35944 0
M  V30 7262 H 674.009 -2.14396 -4.50373 0
M  V30 7263 H 673.163 -0.37166 -6.05561 0
M  V30 7264 H 671.902 0.0863297 -4.87624 0
M  V30 7265 H 670.907 -2.2132 -5.03287 0
M  V30 7266 H 672.132 -2.66515 -6.24617 0
M  V30 7267 H 670.078 -0.44114 -6.54515 0
M  V30 7268 H 669.995 -2.00408 -7.28953 0
M  V30 7269 H 671.263 -0.904498 -7.74235 0
M  V30 7270 N 675.492 1.28418 -0.913599 0
M  V30 7271 C 676.424 2.26368 -0.359169 0
M  V30 7272 C 677.437 1.54858 0.502285 0
M  V30 7273 O 678.626 1.75659 0.31719 0
M  V30 7274 C 675.726 3.35112 0.50526 0
M  V30 7275 C 674.899 4.36126 -0.333648 0
M  V30 7276 C 673.958 5.24134 0.465845 0
M  V30 7277 O 672.984 5.6907 -0.121538 0
M  V30 7278 N 674.186 5.52892 1.76891 0
M  V30 7279 H 676.951 2.74579 -1.2011 0
M  V30 7280 H 674.512 1.41898 -0.779532 0
M  V30 7281 H 676.504 3.90926 1.04684 0
M  V30 7282 H 675.074 2.86611 1.2479 0
M  V30 7283 H 674.294 3.79776 -1.0566 0
M  V30 7284 H 675.582 5.00638 -0.907669 0
M  V30 7285 H 674.98 5.18217 2.26865 0
M  V30 7286 H 673.537 6.11464 2.25732 0
M  V30 7287 N 676.97 0.677563 1.42291 0
M  V30 7288 C 678.195 0.207901 2.06355 0
M  V30 7289 C 678.62 -1.12723 1.50583 0
M  V30 7290 O 677.978 -1.70171 0.62543 0
M  V30 7291 C 678.026 0.156489 3.6026 0
M  V30 7292 O 677.13 -0.874162 4.03029 0
M  V30 7293 H 676.471 0.106056 0.655475 0
M  V30 7294 H 679.001 0.927354 1.82377 0
M  V30 7295 H 679.011 -0.0187258 4.07996 0
M  V30 7296 H 677.686 1.13101 4.00226 0
M  V30 7297 H 676.263 -0.669764 3.66836 0
M  V30 7298 N 678.448 -1.51871 0.421078 0
M  V30 7299 C 679.411 -2.25914 -0.386712 0
M  V30 7300 C 680.411 -1.28733 -0.963555 0
M  V30 7301 O 681.601 -1.52579 -0.840556 0
M  V30 7302 C 678.733 -3.03853 -1.54551 0
M  V30 7303 H 679.926 -2.98754 0.261978 0
M  V30 7304 H 677.479 -1.5533 0.173862 0
M  V30 7305 H 678.214 -2.35392 -2.23072 0
M  V30 7306 H 677.999 -3.75215 -1.13824 0
M  V30 7307 H 679.489 -3.59984 -2.11663 0
M  V30 7308 N 679.926 -0.151884 -1.56866 0
M  V30 7309 C 681.154 0.504813 -2.00647 0
M  V30 7310 C 681.569 1.58098 -1.03201 0
M  V30 7311 O 680.926 1.82476 -0.0297814 0
M  V30 7312 C 680.977 1.10099 -3.44326 0
M  V30 7313 O 680.698 0.0678021 -4.38048 0
M  V30 7314 C 682.199 1.83782 -4.03409 0
M  V30 7315 H 679.419 0.130989 -0.65809 0
M  V30 7316 H 681.963 -0.247903 -2.02992 0
M  V30 7317 H 680.118 1.8043 -3.42817 0
M  V30 7318 H 680.532 0.505237 -5.22061 0
M  V30 7319 H 682.006 2.2078 -5.05925 0
M  V30 7320 H 682.483 2.72557 -3.44397 0
M  V30 7321 H 683.089 1.18138 -4.08563 0
M  V30 7322 N 681.404 1.57128 0.121893 0
M  V30 7323 C 682.337 1.95327 1.17995 0
M  V30 7324 C 683.315 0.822524 1.40262 0
M  V30 7325 O 684.499 1.08044 1.54463 0
M  V30 7326 C 681.626 2.24699 2.53432 0
M  V30 7327 C 680.672 3.47263 2.4761 0
M  V30 7328 S 681.505 4.99951 1.91857 0
M  V30 7329 C 682.661 5.32473 3.28973 0
M  V30 7330 H 682.894 2.84765 0.854182 0
M  V30 7331 H 680.427 1.50864 0.328534 0
M  V30 7332 H 682.385 2.423 3.31362 0
M  V30 7333 H 681.046 1.3588 2.83188 0
M  V30 7334 H 680.239 3.65171 3.4737 0
M  V30 7335 H 679.841 3.29034 1.778 0
M  V30 7336 H 682.133 5.27478 4.25175 0
M  V30 7337 H 683.076 6.33732 3.15895 0
M  V30 7338 H 683.484 4.59952 3.27268 0
M  V30 7339 N 682.882 -0.391992 1.52647 0
M  V30 7340 C 684.293 -0.970064 1.5952 0
M  V30 7341 C 684.644 -1.91059 0.446207 0
M  V30 7342 O 683.769 -2.12062 -0.431125 0
M  V30 7343 C 684.364 -1.76614 2.89125 0
M  V30 7344 C 682.923 -2.29396 2.9842 0
M  V30 7345 C 682.07 -1.09864 2.54608 0
M  V30 7346 H 685.021 -0.171638 1.57769 0
M  V30 7347 H 685.042 -2.62511 2.75442 0
M  V30 7348 H 684.554 -1.08135 3.72731 0
M  V30 7349 H 682.655 -3.01196 2.19344 0
M  V30 7350 H 682.768 -2.59088 4.03002 0
M  V30 7351 H 681.132 -1.45777 2.08857 0
M  V30 7352 H 681.915 -0.429249 3.40606 0
M  V30 7353 N 684.36 -1.4356 -0.65026 0
M  V30 7354 C 685.307 -1.48948 -1.76304 0
M  V30 7355 C 686.277 -0.338919 -1.62605 0
M  V30 7356 O 687.462 -0.54649 -1.82806 0
M  V30 7357 C 684.602 -1.42131 -3.14472 0
M  V30 7358 C 683.715 -2.67415 -3.39284 0
M  V30 7359 C 682.85 -2.52565 -4.67316 0
M  V30 7360 C 681.889 -3.73103 -4.85243 0
M  V30 7361 N 681.026 -3.57046 -6.04535 0
M  V30 7362 H 685.866 -2.44032 -1.71034 0
M  V30 7363 H 683.403 -1.21131 -0.834601 0
M  V30 7364 H 685.361 -1.36172 -3.94351 0
M  V30 7365 H 683.991 -0.506273 -3.18805 0
M  V30 7366 H 683.043 -2.8364 -2.53481 0
M  V30 7367 H 684.355 -3.56943 -3.48415 0
M  V30 7368 H 683.509 -2.44331 -5.55326 0
M  V30 7369 H 682.248 -1.60566 -4.60511 0
M  V30 7370 H 681.253 -3.81743 -3.95667 0
M  V30 7371 H 682.478 -4.66115 -4.93876 0
M  V30 7372 H 680.424 -2.67783 -5.98856 0
M  V30 7373 H 680.341 -4.40178 -6.14638 0
M  V30 7374 H 681.609 -3.52669 -6.95158 0
M  V30 7375 N 685.838 0.888903 -1.30139 0
M  V30 7376 C 686.785 1.99422 -1.16188 0
M  V30 7377 C 687.755 1.66017 -0.0523869 0
M  V30 7378 O 688.94 1.89506 -0.221864 0
M  V30 7379 C 686.08 3.34325 -0.855612 0
M  V30 7380 C 685.193 3.80445 -2.0466 0
M  V30 7381 C 684.328 5.03975 -1.67876 0
M  V30 7382 C 683.367 5.42492 -2.83493 0
M  V30 7383 N 682.504 6.57206 -2.47032 0
M  V30 7384 H 687.344 2.10687 -2.10749 0
M  V30 7385 H 684.881 1.03165 -1.04859 0
M  V30 7386 H 686.839 4.11968 -0.658681 0
M  V30 7387 H 685.469 3.22756 0.0531155 0
M  V30 7388 H 684.521 2.98745 -2.3549 0
M  V30 7389 H 685.833 4.04933 -2.91257 0
M  V30 7390 H 684.987 5.89232 -1.44535 0
M  V30 7391 H 683.726 4.8135 -0.784431 0
M  V30 7392 H 682.731 4.55764 -3.07505 0
M  V30 7393 H 683.956 5.67093 -3.73607 0
M  V30 7394 H 681.902 6.36164 -1.601 0
M  V30 7395 H 681.819 6.81543 -3.27161 0
M  V30 7396 H 683.087 7.45704 -2.27038 0
M  V30 7397 N 687.317 1.12792 1.10072 0
M  V30 7398 C 688.565 0.883796 1.81751 0
M  V30 7399 C 688.886 -0.591891 1.858 0
M  V30 7400 O 688.156 -1.43017 1.33876 0
M  V30 7401 H 686.736 0.323978 0.673088 0
M  V30 7402 H 689.398 1.42314 1.33164 0
M  V30 7403 H 688.494 1.26863 2.85153 0
M  V30 7404 N 688.795 -1.27931 0.920396 0
M  V30 7405 C 690.044 -1.93975 0.552867 0
M  V30 7406 C 690.357 -1.73193 -0.909035 0
M  V30 7407 O 691.563 -2.33515 -1.38502 0
M  V30 7408 C 690.019 -3.47463 0.937947 0
M  V30 7409 C 689.627 -3.77013 2.42003 0
M  V30 7410 C 691.371 -4.19628 0.64132 0
M  V30 7411 C 689.278 -5.23841 2.74489 0
M  V30 7412 H 688.208 -0.726146 0.203046 0
M  V30 7413 H 690.859 -1.45339 1.12022 0
M  V30 7414 H 689.241 -3.94867 0.299317 0
M  V30 7415 H 690.415 -3.40393 3.10595 0
M  V30 7416 H 688.73 -3.18035 2.6878 0
M  V30 7417 H 691.327 -5.27729 0.860622 0
M  V30 7418 H 691.67 -4.14164 -0.421168 0
M  V30 7419 H 692.203 -3.78022 1.23872 0
M  V30 7420 H 688.942 -5.34388 3.79618 0
M  V30 7421 H 688.462 -5.61634 2.1054 0
M  V30 7422 H 690.141 -5.91647 2.61845 0
M  V30 7423 N 690.273 -0.685099 -1.4193 0
M  V30 7424 C 691.203 -0.0273506 -2.33484 0
M  V30 7425 C 692.184 0.778366 -1.51246 0
M  V30 7426 O 693.369 0.733449 -1.79817 0
M  V30 7427 C 690.499 0.917272 -3.34968 0
M  V30 7428 C 689.453 0.21941 -4.27437 0
M  V30 7429 C 688.779 1.27768 -5.1921 0
M  V30 7430 C 690.079 -0.907894 -5.14349 0
M  V30 7431 H 691.773 -0.791994 -2.88735 0
M  V30 7432 H 689.319 -0.382308 -1.38832 0
M  V30 7433 H 691.272 1.38657 -3.97935 0
M  V30 7434 H 689.996 1.71346 -2.78043 0
M  V30 7435 H 688.655 -0.229757 -3.65879 0
M  V30 7436 H 688.303 2.06612 -4.58607 0
M  V30 7437 H 688.003 0.815803 -5.81909 0
M  V30 7438 H 689.527 1.7477 -5.85054 0
M  V30 7439 H 690.941 -0.519348 -5.70943 0
M  V30 7440 H 689.338 -1.2962 -5.85934 0
M  V30 7441 H 690.408 -1.75218 -4.52136 0
M  V30 7442 N 691.751 1.51645 -0.429126 0
M  V30 7443 C 692.698 2.27542 0.386446 0
M  V30 7444 C 693.668 1.30786 1.02393 0
M  V30 7445 O 694.853 1.59678 1.0444 0
M  V30 7446 C 691.993 3.11457 1.48623 0
M  V30 7447 C 691.106 4.23196 0.867691 0
M  V30 7448 C 690.241 4.94435 1.94183 0
M  V30 7449 C 689.28 5.98108 1.30129 0
M  V30 7450 N 688.417 6.62786 2.31644 0
M  V30 7451 H 693.257 2.968 -0.267155 0
M  V30 7452 H 690.794 1.46397 -0.143591 0
M  V30 7453 H 692.752 3.58429 2.13506 0
M  V30 7454 H 691.382 2.44329 2.10957 0
M  V30 7455 H 690.434 3.80248 0.107373 0
M  V30 7456 H 691.746 4.97499 0.35997 0
M  V30 7457 H 690.9 5.44914 2.66747 0
M  V30 7458 H 689.639 4.19744 2.48326 0
M  V30 7459 H 688.644 5.4693 0.561082 0
M  V30 7460 H 689.869 6.74751 0.767303 0
M  V30 7461 H 687.815 5.90913 2.84883 0
M  V30 7462 H 687.732 7.32828 1.85741 0
M  V30 7463 H 689 7.17897 3.03717 0
M  V30 7464 N 693.229 0.160201 1.56784 0
M  V30 7465 C 694.176 -0.774416 2.1742 0
M  V30 7466 C 695.146 -1.23483 1.11091 0
M  V30 7467 O 696.331 -1.30499 1.39193 0
M  V30 7468 C 693.471 -2.00283 2.81035 0
M  V30 7469 C 692.584 -1.58701 4.01793 0
M  V30 7470 C 691.719 -2.76824 4.53367 0
M  V30 7471 C 690.758 -2.31679 5.66561 0
M  V30 7472 N 689.895 -3.42856 6.12694 0
M  V30 7473 H 694.735 -0.250542 2.96945 0
M  V30 7474 H 692.272 -0.111943 1.46673 0
M  V30 7475 H 694.23 -2.72316 3.16069 0
M  V30 7476 H 692.86 -2.5006 2.04132 0
M  V30 7477 H 691.912 -0.76384 3.72652 0
M  V30 7478 H 693.224 -1.21555 4.83762 0
M  V30 7479 H 692.378 -3.57029 4.90525 0
M  V30 7480 H 691.117 -3.17223 3.70433 0
M  V30 7481 H 690.122 -1.49917 5.28966 0
M  V30 7482 H 691.347 -1.9235 6.5129 0
M  V30 7483 H 689.293 -3.82852 5.32692 0
M  V30 7484 H 689.21 -3.09767 6.89624 0
M  V30 7485 H 690.478 -4.23379 6.545 0
M  V30 7486 N 694.707 -1.5719 -0.113559 0
M  V30 7487 C 695.935 -1.89328 -0.834422 0
M  V30 7488 C 696.35 -0.752018 -1.73177 0
M  V30 7489 O 695.707 0.276912 -1.80387 0
M  V30 7490 C 695.758 -3.20962 -1.66329 0
M  V30 7491 O 695.479 -4.30695 -0.802069 0
M  V30 7492 C 696.98 -3.6684 -2.48884 0
M  V30 7493 H 694.2 -0.626769 -0.239587 0
M  V30 7494 H 696.744 -2.04273 -0.0963195 0
M  V30 7495 H 694.899 -3.0767 -2.35409 0
M  V30 7496 H 695.313 -5.06175 -1.37431 0
M  V30 7497 H 696.787 -4.61692 -3.02563 0
M  V30 7498 H 697.264 -2.93765 -3.26495 0
M  V30 7499 H 697.87 -3.82938 -1.85036 0
M  V30 7500 N 696.185 0.383891 -1.52853 0
M  V30 7501 C 697.117 1.48889 -1.74255 0
M  V30 7502 C 698.13 1.50405 -0.623063 0
M  V30 7503 O 699.319 1.54215 -0.898887 0
M  V30 7504 C 696.419 2.87721 -1.79081 0
M  V30 7505 C 695.592 3.10111 -3.08464 0
M  V30 7506 C 694.651 4.28954 -3.0477 0
M  V30 7507 O 693.677 4.25012 -3.78621 0
M  V30 7508 N 694.879 5.35411 -2.24311 0
M  V30 7509 H 697.644 1.30915 -2.69595 0
M  V30 7510 H 695.205 0.573454 -1.51404 0
M  V30 7511 H 697.197 3.65333 -1.7411 0
M  V30 7512 H 695.767 2.99029 -0.911052 0
M  V30 7513 H 694.987 2.20319 -3.26884 0
M  V30 7514 H 696.275 3.21928 -3.94005 0
M  V30 7515 H 695.673 5.41471 -1.63787 0
M  V30 7516 H 694.23 6.1167 -2.25175 0
M  V30 7517 N 697.663 1.43903 0.642637 0
M  V30 7518 C 698.595 1.45857 1.768 0
M  V30 7519 C 699.608 0.353358 1.58919 0
M  V30 7520 O 700.797 0.618426 1.67445 0
M  V30 7521 C 697.897 1.26583 3.14372 0
M  V30 7522 C 697.07 2.50139 3.58817 0
M  V30 7523 C 696.129 2.25933 4.75227 0
M  V30 7524 O 695.155 2.99351 4.84125 0
M  V30 7525 N 696.357 1.28263 5.66153 0
M  V30 7526 H 699.122 2.42869 1.75598 0
M  V30 7527 H 696.683 1.39194 0.826832 0
M  V30 7528 H 698.675 1.08255 3.89953 0
M  V30 7529 H 697.245 0.37978 3.10284 0
M  V30 7530 H 696.465 2.83821 2.73568 0
M  V30 7531 H 697.753 3.32344 3.8526 0
M  V30 7532 H 697.151 0.676041 5.61646 0
M  V30 7533 H 695.708 1.15916 6.4141 0
M  V30 7534 N 699.141 -0.881989 1.30609 0
M  V30 7535 C 700.557 -1.16576 1.09005 0
M  V30 7536 C 700.757 -2.00961 -0.14727 0
M  V30 7537 O 699.813 -2.38117 -0.840036 0
M  V30 7538 C 701.126 -1.86954 2.35518 0
M  V30 7539 C 702.674 -1.99706 2.41011 0
M  V30 7540 C 703.149 -2.73497 3.67374 0
M  V30 7541 N 704.64 -2.8104 3.68199 0
M  V30 7542 C 705.375 -3.38718 4.62664 0
M  V30 7543 N 704.871 -3.97421 5.67475 0
M  V30 7544 N 706.664 -3.36561 4.50203 0
M  V30 7545 H 698.815 -0.319398 2.09985 0
M  V30 7546 H 701.078 -0.204058 0.925778 0
M  V30 7547 H 700.784 -1.32393 3.2583 0
M  V30 7548 H 700.658 -2.87317 2.44395 0
M  V30 7549 H 703.045 -2.53436 1.51176 0
M  V30 7550 H 703.126 -0.984218 2.36108 0
M  V30 7551 H 702.77 -2.20438 4.57569 0
M  V30 7552 H 702.7 -3.75163 3.6954 0
M  V30 7553 H 705.191 -2.39365 2.92426 0
M  V30 7554 H 705.504 -4.39507 6.35652 0
M  V30 7555 H 703.849 -3.95832 5.71264 0
M  V30 7556 H 707.04 -2.8993 3.67503 0
M  V30 7557 H 707.213 -3.81215 5.24003 0
M  V30 7558 N 700.619 -1.13374 -1.09472 0
M  V30 7559 C 701.529 -0.824029 -2.19652 0
M  V30 7560 C 702.545 0.19118 -1.72947 0
M  V30 7561 O 703.721 0.0223464 -2.01388 0
M  V30 7562 C 700.786 -0.294009 -3.45451 0
M  V30 7563 C 699.847 -1.3704 -4.0684 0
M  V30 7564 C 699.08 -0.86558 -5.26634 0
M  V30 7565 O 699.303 0.29702 -5.69626 0
M  V30 7566 O 698.237 -1.63968 -5.79136 0
M  V30 7567 H 702.063 -1.74454 -2.48595 0
M  V30 7568 H 699.648 -0.911155 -1.18399 0
M  V30 7569 H 701.53 -0.00381039 -4.214 0
M  V30 7570 H 700.205 0.598921 -3.18111 0
M  V30 7571 H 699.112 -1.71391 -3.3253 0
M  V30 7572 H 700.445 -2.23746 -4.38405 0
M  V30 7573 N 702.098 1.27442 -0.927168 0
M  V30 7574 C 703.323 1.99036 -0.583042 0
M  V30 7575 C 703.748 1.68711 0.83176 0
M  V30 7576 O 703.106 0.927081 1.55804 0
M  V30 7577 C 703.154 3.51271 -0.814925 0
M  V30 7578 O 702.258 4.12226 0.119742 0
M  V30 7579 H 701.599 0.624883 -0.224538 0
M  V30 7580 H 704.129 1.62263 -1.24628 0
M  V30 7581 H 704.139 4.01411 -0.730282 0
M  V30 7582 H 702.814 3.72676 -1.84623 0
M  V30 7583 H 701.391 3.72897 -0.0147688 0
M  V30 7584 N 703.576 0.692616 1.41565 0
M  V30 7585 C 704.824 0.221896 2.00878 0
M  V30 7586 C 705.145 -1.18164 1.5512 0
M  V30 7587 O 704.415 -1.79679 0.78054 0
M  V30 7588 H 702.995 0.0790463 0.742806 0
M  V30 7589 H 705.657 0.893115 1.73232 0
M  V30 7590 H 704.753 0.23702 3.11199 0
M  V30 7591 N 705.054 -1.51416 0.437162 0
M  V30 7592 C 706.284 -2.06204 -0.127859 0
M  V30 7593 C 706.692 -1.30463 -1.37026 0
M  V30 7594 O 706.035 -0.357516 -1.80187 0
M  V30 7595 C 706.097 -3.55783 -0.515632 0
M  V30 7596 C 705.761 -4.52776 0.619937 0
M  V30 7597 C 706.758 -4.98031 1.49201 0
M  V30 7598 C 704.443 -4.95878 0.800618 0
M  V30 7599 C 706.437 -5.85061 2.52947 0
M  V30 7600 C 704.124 -5.82699 1.84135 0
M  V30 7601 C 705.122 -6.27188 2.70416 0
M  V30 7602 O 704.81 -7.12284 3.72702 0
M  V30 7603 H 704.542 -0.675903 -0.011442 0
M  V30 7604 H 707.096 -1.95977 0.614986 0
M  V30 7605 H 705.326 -3.63793 -1.31118 0
M  V30 7606 H 707.015 -3.93087 -1.01179 0
M  V30 7607 H 707.781 -4.65426 1.36395 0
M  V30 7608 H 703.66 -4.60792 0.138617 0
M  V30 7609 H 707.204 -6.19708 3.20325 0
M  V30 7610 H 703.101 -6.14717 1.9696 0
M  V30 7611 H 703.869 -7.30462 3.69281 0
M  V30 7612 N 706.532 -0.168513 -1.56696 0
M  V30 7613 C 707.762 0.482802 -2.0088 0
M  V30 7614 C 708.17 1.57537 -1.0478 0
M  V30 7615 O 707.513 1.83656 -0.0402746 0
M  V30 7616 C 707.575 1.1236 -3.4149 0
M  V30 7617 C 707.239 0.173027 -4.56672 0
M  V30 7618 C 708.236 -0.607565 -5.16338 0
M  V30 7619 C 705.921 0.0696691 -5.02252 0
M  V30 7620 C 707.915 -1.47874 -6.2001 0
M  V30 7621 C 705.602 -0.805096 -6.05773 0
M  V30 7622 C 706.6 -1.57789 -6.64524 0
M  V30 7623 O 706.288 -2.43804 -7.66038 0
M  V30 7624 H 706.02 0.128246 -0.663723 0
M  V30 7625 H 708.574 -0.266532 -2.03663 0
M  V30 7626 H 706.804 1.921 -3.35611 0
M  V30 7627 H 708.493 1.67683 -3.69645 0
M  V30 7628 H 709.259 -0.53787 -4.82008 0
M  V30 7629 H 705.138 0.660957 -4.56237 0
M  V30 7630 H 708.682 -2.0824 -6.65794 0
M  V30 7631 H 704.579 -0.876005 -6.39528 0
M  V30 7632 H 705.347 -2.37289 -7.83349 0
M  V30 7633 N 708.01 1.57248 0.105221 0
M  V30 7634 C 709.235 1.90143 0.828264 0
M  V30 7635 C 709.66 0.761811 1.71983 0
M  V30 7636 O 709.018 -0.287086 1.79013 0
M  V30 7637 C 709.066 3.21856 1.62608 0
M  V30 7638 O 708.17 3.08732 2.7342 0
M  V30 7639 H 707.511 0.623558 0.228192 0
M  V30 7640 H 710.041 2.0443 0.0834826 0
M  V30 7641 H 710.051 3.54916 2.01243 0
M  V30 7642 H 708.726 4.0439 0.971687 0
M  V30 7643 H 707.303 2.87167 2.37886 0
M  V30 7644 N 709.488 -0.375779 1.53054 0
M  V30 7645 C 710.713 -1.14484 1.7294 0
M  V30 7646 C 711.138 -1.82572 0.452668 0
M  V30 7647 O 710.496 -1.71343 -0.592567 0
M  V30 7648 C 710.544 -2.15857 2.88857 0
M  V30 7649 O 709.648 -3.22725 2.56753 0
M  V30 7650 H 708.989 -0.332666 0.574656 0
M  V30 7651 H 711.519 -0.436025 1.999 0
M  V30 7652 H 711.529 -2.59631 3.14731 0
M  V30 7653 H 710.204 -1.65689 3.81471 0
M  V30 7654 H 708.781 -2.83996 2.41663 0
M  V30 7655 N 710.966 -1.44241 -0.634997 0
M  V30 7656 C 712.377 -1.41622 -1.21655 0
M  V30 7657 C 712.728 -0.129584 -1.95772 0
M  V30 7658 O 711.853 0.770225 -2.02229 0
M  V30 7659 C 712.448 -2.56557 -2.21278 0
M  V30 7660 C 711.007 -2.57145 -2.7487 0
M  V30 7661 C 710.154 -2.33354 -1.49804 0
M  V30 7662 H 713.105 -1.52878 -0.425905 0
M  V30 7663 H 713.126 -2.29089 -3.03807 0
M  V30 7664 H 712.638 -3.50186 -1.67306 0
M  V30 7665 H 710.739 -1.67447 -3.32855 0
M  V30 7666 H 710.852 -3.55507 -3.21172 0
M  V30 7667 H 709.216 -1.82372 -1.77799 0
M  V30 7668 H 709.999 -3.29092 -0.977402 0
M  V30 7669 N 712.444 0.87505 -1.31075 0
M  V30 7670 C 713.354 2.01441 -1.20244 0
M  V30 7671 C 714.37 1.73584 -0.120227 0
M  V30 7672 O 715.546 1.98559 -0.337063 0
M  V30 7673 C 712.611 3.34675 -0.905199 0
M  V30 7674 C 711.672 3.75889 -2.0738 0
M  V30 7675 C 710.905 5.02764 -1.79064 0
M  V30 7676 O 711.128 5.65795 -0.723318 0
M  V30 7677 O 710.062 5.40623 -2.64594 0
M  V30 7678 H 713.888 2.13509 -2.1598 0
M  V30 7679 H 711.473 1.00257 -1.10765 0
M  V30 7680 H 713.355 4.1458 -0.755057 0
M  V30 7681 H 712.03 3.23692 0.0221695 0
M  V30 7682 H 710.937 2.96645 -2.27931 0
M  V30 7683 H 712.27 3.91489 -2.98324 0
M  V30 7684 N 713.922 1.13953 1.08869 0
M  V30 7685 C 715.338 0.878924 1.33218 0
M  V30 7686 C 715.538 -0.482478 1.95638 0
M  V30 7687 O 714.594 -1.22778 2.2064 0
M  V30 7688 C 715.907 2.00798 2.23832 0
M  V30 7689 C 717.455 2.04073 2.37325 0
M  V30 7690 C 717.93 3.16258 3.31278 0
M  V30 7691 N 719.421 3.15805 3.38853 0
M  V30 7692 C 720.156 3.99249 4.11567 0
M  V30 7693 N 719.652 4.92721 4.87029 0
M  V30 7694 N 721.445 3.87327 4.0735 0
M  V30 7695 H 713.596 2.01645 0.66731 0
M  V30 7696 H 715.859 0.878395 0.356547 0
M  V30 7697 H 715.565 2.98986 1.85203 0
M  V30 7698 H 715.439 1.92704 3.24261 0
M  V30 7699 H 717.826 1.06495 2.75214 0
M  V30 7700 H 717.907 2.16239 1.36654 0
M  V30 7701 H 717.551 4.14079 2.9411 0
M  V30 7702 H 717.481 3.0133 4.31866 0
M  V30 7703 H 719.972 2.48102 2.8505 0
M  V30 7704 H 720.285 5.52867 5.39961 0
M  V30 7705 H 718.63 4.96723 4.86098 0
M  V30 7706 H 721.821 3.13627 3.475 0
M  V30 7707 H 721.994 4.52585 4.63757 0
M  V30 7708 N 715.4 -1.26948 0.933913 0
M  V30 7709 C 716.625 -1.98724 0.593589 0
M  V30 7710 C 717.05 -1.6915 -0.822801 0
M  V30 7711 O 716.408 -0.93533 -1.5531 0
M  V30 7712 C 716.456 -3.50834 0.833542 0
M  V30 7713 O 715.56 -4.12284 -0.0978788 0
M  V30 7714 H 714.901 -0.623683 0.227849 0
M  V30 7715 H 717.431 -1.61599 1.25486 0
M  V30 7716 H 717.441 -4.01018 0.75156 0
M  V30 7717 H 716.116 -3.71691 1.86597 0
M  V30 7718 H 714.693 -3.72884 0.0345443 0
M  V30 7719 N 716.879 -0.700114 -1.41195 0
M  V30 7720 C 717.789 -0.0382854 -2.34569 0
M  V30 7721 C 718.805 0.761036 -1.56474 0
M  V30 7722 O 719.981 0.697553 -1.88934 0
M  V30 7723 C 717.046 0.883522 -3.35253 0
M  V30 7724 C 716.107 0.0758957 -4.29233 0
M  V30 7725 C 715.34 0.9538 -5.25108 0
M  V30 7726 O 715.563 2.19326 -5.26547 0
M  V30 7727 O 714.497 0.401049 -6.00562 0
M  V30 7728 H 718.323 -0.808073 -2.92752 0
M  V30 7729 H 715.908 -0.460479 -1.42127 0
M  V30 7730 H 717.79 1.41199 -3.9704 0
M  V30 7731 H 716.465 1.63272 -2.79506 0
M  V30 7732 H 715.372 -0.497274 -3.7078 0
M  V30 7733 H 716.705 -0.634741 -4.8809 0
M  V30 7734 N 718.357 1.51182 -0.445186 0
M  V30 7735 C 719.582 2.07056 0.119445 0
M  V30 7736 C 720.007 1.30966 1.35016 0
M  V30 7737 O 719.365 0.349827 1.77893 0
M  V30 7738 C 719.413 3.58234 0.412428 0
M  V30 7739 O 718.517 3.84249 1.49754 0
M  V30 7740 H 717.858 0.663998 -0.00157797 0
M  V30 7741 H 720.388 1.94699 -0.628779 0
M  V30 7742 H 720.398 4.02617 0.660583 0
M  V30 7743 H 719.073 4.13038 -0.487049 0
M  V30 7744 H 717.65 3.51724 1.23873 0
M  V30 7745 N 719.835 0.176821 1.56605 0
M  V30 7746 C 721.06 -0.47599 2.01864 0
M  V30 7747 C 721.485 -1.55645 1.05623 0
M  V30 7748 O 720.843 -1.81263 0.0366729 0
M  V30 7749 C 720.891 -1.02619 3.4569 0
M  V30 7750 O 719.995 -2.13996 3.52533 0
M  V30 7751 H 719.336 -0.113363 0.654251 0
M  V30 7752 H 721.866 0.28233 2.02643 0
M  V30 7753 H 721.876 -1.34742 3.85109 0
M  V30 7754 H 720.551 -0.235138 4.15235 0
M  V30 7755 H 719.128 -1.82876 3.24978 0
M  V30 7756 N 721.313 -1.57302 -0.09688 0
M  V30 7757 C 722.223 -2.05258 -1.13606 0
M  V30 7758 C 723.239 -0.977137 -1.43972 0
M  V30 7759 O 724.415 -1.29018 -1.54649 0
M  V30 7760 C 721.48 -2.46593 -2.43706 0
M  V30 7761 C 720.541 -3.68322 -2.20538 0
M  V30 7762 C 719.774 -4.07676 -3.44435 0
M  V30 7763 O 719.997 -3.47141 -4.52603 0
M  V30 7764 O 718.931 -5.00641 -3.34129 0
M  V30 7765 H 722.757 -2.94069 -0.758752 0
M  V30 7766 H 720.342 -1.46164 -0.309263 0
M  V30 7767 H 722.224 -2.73814 -3.20318 0
M  V30 7768 H 720.899 -1.6092 -2.80867 0
M  V30 7769 H 719.806 -3.4622 -1.41713 0
M  V30 7770 H 721.139 -4.54769 -1.88271 0
M  V30 7771 N 722.791 0.367657 -1.53252 0
M  V30 7772 C 723.721 1.45632 -1.8252 0
M  V30 7773 C 724.702 1.55979 -0.678568 0
M  V30 7774 O 725.887 1.70581 -0.928217 0
M  V30 7775 C 723.017 2.82994 -2.01325 0
M  V30 7776 C 721.971 2.87473 -3.17086 0
M  V30 7777 C 721.297 4.2749 -3.21179 0
M  V30 7778 C 722.597 2.55182 -4.55719 0
M  V30 7779 H 724.291 1.21387 -2.73689 0
M  V30 7780 H 721.837 0.58251 -1.31692 0
M  V30 7781 H 723.79 3.59179 -2.20383 0
M  V30 7782 H 722.514 3.08622 -1.06864 0
M  V30 7783 H 721.173 2.13739 -2.97844 0
M  V30 7784 H 720.821 4.5019 -2.24361 0
M  V30 7785 H 720.521 4.31403 -3.98955 0
M  V30 7786 H 722.045 5.0555 -3.42419 0
M  V30 7787 H 723.459 3.21081 -4.74953 0
M  V30 7788 H 721.856 2.70414 -5.3572 0
M  V30 7789 H 722.926 1.5044 -4.60973 0
M  V30 7790 N 724.269 1.44576 0.627338 0
M  V30 7791 C 725.199 1.54562 1.75022 0
M  V30 7792 C 726.18 0.398378 1.65369 0
M  V30 7793 O 727.365 0.61899 1.84071 0
M  V30 7794 C 724.495 1.49309 3.13567 0
M  V30 7795 C 723.449 2.62549 3.38012 0
M  V30 7796 C 722.775 2.42348 4.76625 0
M  V30 7797 C 724.075 4.04678 3.30202 0
M  V30 7798 H 725.769 2.4855 1.66922 0
M  V30 7799 H 723.315 1.19624 0.801636 0
M  V30 7800 H 725.268 1.54895 3.919 0
M  V30 7801 H 723.992 0.518392 3.2246 0
M  V30 7802 H 722.651 2.56358 2.62061 0
M  V30 7803 H 722.299 1.43062 4.82226 0
M  V30 7804 H 721.999 3.18273 4.93939 0
M  V30 7805 H 723.523 2.49758 5.57183 0
M  V30 7806 H 724.937 4.12217 3.98435 0
M  V30 7807 H 723.334 4.80836 3.5905 0
M  V30 7808 H 724.404 4.2798 2.27949 0
M  V30 7809 N 725.747 -0.868086 1.31537 0
M  V30 7810 C 727.024 -1.60384 1.11965 0
M  V30 7811 C 727.404 -2.08584 -0.324949 0
M  V30 7812 O 726.752 -1.86561 -1.31937 0
M  V30 7813 C 726.962 -2.76038 2.13551 0
M  V30 7814 C 728.31 -3.45954 2.46173 0
M  V30 7815 O 729.334 -2.86247 2.11993 0
M  V30 7816 O 728.193 -4.53666 3.04711 0
M  V30 7817 H 725.287 -0.705705 0.431172 0
M  V30 7818 H 727.833 -0.913385 1.43022 0
M  V30 7819 H 726.605 -2.37849 3.10714 0
M  V30 7820 H 726.228 -3.52769 1.83411 0
M  V30 7821 N 727.225 -1.14528 -1.08264 0
M  V30 7822 C 728.45 -0.938381 -1.84957 0
M  V30 7823 C 728.875 0.508044 -1.81109 0
M  V30 7824 O 728.233 1.36146 -1.19724 0
M  V30 7825 C 728.281 -1.44568 -3.30352 0
M  V30 7826 O 727.385 -0.638745 -4.07423 0
M  V30 7827 H 726.726 -0.335394 -0.573068 0
M  V30 7828 H 729.256 -1.52287 -1.36637 0
M  V30 7829 H 729.266 -1.45449 -3.81194 0
M  V30 7830 H 727.941 -2.49876 -3.32468 0
M  V30 7831 H 726.518 -0.698801 -3.66294 0
M  V30 7832 N 728.703 1.26451 -0.940633 0
M  V30 7833 C 729.651 2.28389 -0.440581 0
M  V30 7834 C 730.645 1.62402 0.481859 0
M  V30 7835 O 731.851 1.76361 0.360132 0
M  V30 7836 H 728.226 0.741716 -0.123938 0
M  V30 7837 H 730.197 2.67967 -1.31288 0
M  V30 7838 C 728.946 3.46576 0.279364 0
M  V30 7839 H 728.269 3.97574 -0.421274 0
M  V30 7840 H 729.709 4.19826 0.59348 0
M  V30 7841 C 728.168 3.01815 1.49697 0
M  V30 7842 O 728.698 3.06607 2.59529 0
M  V30 7843 N 726.904 2.57163 1.35334 0
M  V30 7844 H 726.451 2.53464 0.459743 0
M  V30 7845 H 726.409 2.27578 2.16923 0
M  V30 7846 N 730.181 0.707592 1.40822 0
M  V30 7847 C 731.458 0.171172 1.9485 0
M  V30 7848 C 731.838 -1.32143 1.64625 0
M  V30 7849 O 731.186 -2.07372 0.959647 0
M  V30 7850 C 731.396 0.475334 3.45748 0
M  V30 7851 C 732.744 0.409625 4.22619 0
M  V30 7852 O 733.768 0.410934 3.53822 0
M  V30 7853 O 732.627 0.380185 5.45176 0
M  V30 7854 H 729.721 0.022015 0.826707 0
M  V30 7855 H 732.267 0.784577 1.50474 0
M  V30 7856 H 731.039 1.50801 3.61075 0
M  V30 7857 H 730.662 -0.168439 3.97243 0
M  V30 7858 N 731.66 -1.50943 0.453197 0
M  V30 7859 C 732.906 -2.02512 -0.108082 0
M  V30 7860 C 733.239 -1.33574 -1.40967 0
M  V30 7861 O 732.514 -0.455671 -1.89087 0
M  V30 7862 C 732.797 -3.58759 -0.310453 0
M  V30 7863 C 732.65 -4.38293 1.0109 0
M  V30 7864 C 733.969 -4.26816 -1.07313 0
M  V30 7865 H 731.088 -0.73603 -0.0378064 0
M  V30 7866 H 733.73 -1.80433 0.595295 0
M  V30 7867 H 731.88 -3.77702 -0.909582 0
M  V30 7868 H 733.552 -4.30964 1.64523 0
M  V30 7869 H 731.795 -4.02745 1.61179 0
M  V30 7870 H 732.466 -5.45828 0.82315 0
M  V30 7871 H 734.942 -4.1224 -0.565473 0
M  V30 7872 H 733.818 -5.35989 -1.1835 0
M  V30 7873 H 734.079 -3.88757 -2.10525 0
M  V30 7874 N 733.138 -0.185124 -1.56509 0
M  V30 7875 C 734.071 0.77877 -2.145 0
M  V30 7876 C 735.049 1.21649 -1.07891 0
M  V30 7877 O 736.233 1.30579 -1.35946 0
M  V30 7878 C 733.36 2.05048 -2.69579 0
M  V30 7879 C 732.406 1.75569 -3.88687 0
M  V30 7880 S 733.239 0.912642 -5.27666 0
M  V30 7881 C 734.395 2.19471 -5.8616 0
M  V30 7882 H 734.628 0.285751 -2.95924 0
M  V30 7883 H 732.161 0.0297417 -1.54371 0
M  V30 7884 H 734.119 2.78085 -3.01958 0
M  V30 7885 H 732.78 2.51462 -1.88216 0
M  V30 7886 H 731.973 2.69962 -4.25601 0
M  V30 7887 H 731.575 1.10619 -3.57267 0
M  V30 7888 H 733.867 3.14815 -5.99915 0
M  V30 7889 H 734.81 1.87005 -6.8296 0
M  V30 7890 H 735.218 2.31862 -5.14685 0
M  V30 7891 N 734.616 1.57351 0.0885366 0
M  V30 7892 C 735.864 1.86051 0.789262 0
M  V30 7893 C 736.185 0.774763 1.78948 0
M  V30 7894 O 735.455 -0.198324 1.94894 0
M  V30 7895 H 734.035 0.686508 0.294475 0
M  V30 7896 H 736.697 1.94779 0.0686055 0
M  V30 7897 H 735.793 2.83007 1.31581 0
M  V30 7898 N 736.094 -0.359525 1.53444 0
M  V30 7899 C 737.319 -1.12644 1.74144 0
M  V30 7900 C 737.744 -1.82082 0.472007 0
M  V30 7901 O 737.102 -1.71962 -0.57436 0
M  V30 7902 C 737.15 -2.12781 2.9113 0
M  V30 7903 O 736.254 -3.19984 2.60162 0
M  V30 7904 H 735.595 -0.326553 0.578152 0
M  V30 7905 H 738.125 -0.414798 2.00351 0
M  V30 7906 H 738.135 -2.56278 3.17467 0
M  V30 7907 H 736.81 -1.61634 3.83207 0
M  V30 7908 H 735.387 -2.81417 2.44661 0
M  V30 7909 N 737.572 -1.44907 -0.619662 0
M  V30 7910 C 738.797 -1.52021 -1.41083 0
M  V30 7911 C 739.222 -0.14976 -1.87503 0
M  V30 7912 O 738.58 0.863303 -1.59426 0
M  V30 7913 C 738.628 -2.49911 -2.59955 0
M  V30 7914 O 737.732 -2.00857 -3.60181 0
M  V30 7915 H 737.073 -0.512912 -0.421684 0
M  V30 7916 H 739.603 -1.90149 -0.755282 0
M  V30 7917 H 739.613 -2.68323 -3.07354 0
M  V30 7918 H 738.288 -3.4945 -2.25516 0
M  V30 7919 H 736.865 -1.92265 -3.19513 0
M  V30 7920 N 739.05 0.861098 -1.31996 0
M  V30 7921 C 740.299 1.60965 -1.21545 0
M  V30 7922 C 740.612 1.94325 0.222972 0
M  V30 7923 O 741.818 2.67757 0.449272 0
M  V30 7924 C 740.274 2.90223 -2.12834 0
M  V30 7925 C 739.882 2.64313 -3.61722 0
M  V30 7926 C 741.626 3.68229 -2.11205 0
M  V30 7927 C 739.533 3.89532 -4.44993 0
M  V30 7928 H 738.463 0.603988 -0.451348 0
M  V30 7929 H 741.114 0.951358 -1.56912 0
M  V30 7930 H 739.496 3.57475 -1.70375 0
M  V30 7931 H 740.67 2.05413 -4.12483 0
M  V30 7932 H 738.985 1.99647 -3.65418 0
M  V30 7933 H 741.582 4.61138 -2.70658 0
M  V30 7934 H 741.925 4.01466 -1.1014 0
M  V30 7935 H 742.458 3.07873 -2.51911 0
M  V30 7936 H 739.197 3.61441 -5.46846 0
M  V30 7937 H 738.717 4.47851 -3.98985 0
M  V30 7938 H 740.396 4.57334 -4.57663 0
M  V30 7939 N 740.528 1.15101 1.07655 0
M  V30 7940 C 741.939 0.933848 1.61667 0
M  V30 7941 C 742.29 -0.525569 1.8903 0
M  V30 7942 O 741.415 -1.39605 1.65346 0
M  V30 7943 C 742.01 1.68876 2.93711 0
M  V30 7944 C 740.569 1.51697 3.44478 0
M  V30 7945 C 739.716 1.70633 2.18586 0
M  V30 7946 H 742.667 1.30171 0.907816 0
M  V30 7947 H 742.688 1.15645 3.625 0
M  V30 7948 H 742.2 2.7509 2.73764 0
M  V30 7949 H 740.301 0.478635 3.69513 0
M  V30 7950 H 740.414 2.29194 4.20722 0
M  V30 7951 H 738.778 1.13259 2.28132 0
M  V30 7952 H 739.561 2.78206 2.01137 0
M  V30 7953 N 742.006 -1.2595 0.947325 0
M  V30 7954 C 743.231 -1.98083 0.614633 0
M  V30 7955 C 743.656 -1.70013 -0.804815 0
M  V30 7956 O 743.014 -0.95175 -1.54309 0
M  V30 7957 C 743.062 -3.4993 0.870706 0
M  V30 7958 O 742.166 -4.12364 -0.0541451 0
M  V30 7959 H 741.507 -0.621232 0.234451 0
M  V30 7960 H 744.037 -1.60259 1.27193 0
M  V30 7961 H 744.047 -4.00198 0.794051 0
M  V30 7962 H 742.722 -3.69691 1.90529 0
M  V30 7963 H 741.299 -3.72826 0.0740917 0
M  V30 7964 N 743.484 -0.715051 -1.40445 0
M  V30 7965 C 744.895 -0.326763 -1.83818 0
M  V30 7966 C 745.246 1.13851 -1.59789 0
M  V30 7967 O 744.371 1.87611 -1.07848 0
M  V30 7968 C 744.966 -0.586297 -3.33688 0
M  V30 7969 C 743.525 -0.251724 -3.75557 0
M  V30 7970 C 742.672 -0.858928 -2.63662 0
M  V30 7971 H 745.623 -0.914241 -1.2972 0
M  V30 7972 H 745.644 0.148636 -3.8021 0
M  V30 7973 H 745.156 -1.65281 -3.51146 0
M  V30 7974 H 743.257 0.809754 -3.63695 0
M  V30 7975 H 743.37 -0.720348 -4.73654 0
M  V30 7976 H 741.734 -0.287013 -2.53078 0
M  V30 7977 H 742.517 -1.9297 -2.83932 0
M  V30 7978 N 744.962 1.50701 -0.461195 0
M  V30 7979 C 746.187 2.07171 0.0974773 0
M  V30 7980 C 746.612 1.32391 1.3362 0
M  V30 7981 O 745.97 0.368676 1.77512 0
M  V30 7982 C 746.018 3.58651 0.374409 0
M  V30 7983 O 745.122 3.85816 1.4567 0
M  V30 7984 H 744.463 0.663944 -0.00862047 0
M  V30 7985 H 746.993 1.94021 -0.649394 0
M  V30 7986 H 747.003 4.03295 0.617843 0
M  V30 7987 H 745.678 4.12498 -0.530829 0
M  V30 7988 H 744.255 3.53018 1.20136 0
M  V30 7989 N 746.441 0.193421 1.56409 0
M  V30 7990 C 747.852 -0.319471 1.83946 0
M  V30 7991 C 748.203 -1.61505 1.11403 0
M  V30 7992 O 747.328 -2.13139 0.374289 0
M  V30 7993 C 747.923 -0.586411 3.33686 0
M  V30 7994 C 746.482 -1.04368 3.61641 0
M  V30 7995 C 745.629 -0.0913834 2.77149 0
M  V30 7996 H 748.58 0.417242 1.53117 0
M  V30 7997 H 748.601 -1.43591 3.52366 0
M  V30 7998 H 748.113 0.356701 3.86457 0
M  V30 7999 H 746.214 -2.00113 3.14302 0
M  V30 8000 H 746.327 -0.937549 4.69837 0
M  V30 8001 H 744.691 -0.592954 2.47702 0
M  V30 8002 H 745.474 0.846142 3.32709 0
M  V30 8003 N 747.919 -1.57396 -0.0801906 0
M  V30 8004 C 749.33 -1.75642 -0.633002 0
M  V30 8005 C 749.681 -0.817708 -1.78348 0
M  V30 8006 O 748.806 0.000233743 -2.164 0
M  V30 8007 C 749.401 -3.18502 -1.15507 0
M  V30 8008 C 747.96 -3.38121 -1.65381 0
M  V30 8009 C 747.107 -2.71386 -0.569661 0
M  V30 8010 H 750.058 -1.58027 0.145949 0
M  V30 8011 H 750.079 -3.22198 -2.02408 0
M  V30 8012 H 749.591 -3.86799 -0.317515 0
M  V30 8013 H 747.692 -2.74926 -2.51488 0
M  V30 8014 H 747.805 -4.46521 -1.73654 0
M  V30 8015 H 746.169 -2.33702 -1.0127 0
M  V30 8016 H 746.952 -3.42332 0.257561 0
M  V30 8017 N 749.397 0.351382 -1.53633 0
M  V30 8018 C 750.674 1.10903 -1.6112 0
M  V30 8019 C 751.054 2.06725 -0.427556 0
M  V30 8020 O 750.402 2.20992 0.580916 0
M  V30 8021 C 750.612 1.83561 -2.96827 0
M  V30 8022 C 751.96 2.37587 -3.51906 0
M  V30 8023 O 752.984 1.93669 -2.9895 0
M  V30 8024 O 751.843 3.17913 -4.44515 0
M  V30 8025 H 748.937 0.509558 -0.651368 0
M  V30 8026 H 751.483 0.353504 -1.65977 0
M  V30 8027 H 750.255 1.1371 -3.74414 0
M  V30 8028 H 749.878 2.6599 -2.95525 0
M  V30 8029 N 750.875 1.45233 0.611969 0
M  V30 8030 C 752.286 1.4354 1.19387 0
M  V30 8031 C 752.637 0.160713 1.95541 0
M  V30 8032 O 751.762 -0.737954 2.03429 0
M  V30 8033 C 752.357 2.60045 2.17169 0
M  V30 8034 C 750.916 2.61486 2.70744 0
M  V30 8035 C 750.063 2.35708 1.46072 0
M  V30 8036 H 753.014 1.53536 0.401529 0
M  V30 8037 H 753.035 2.33893 3.00124 0
M  V30 8038 H 752.547 3.52803 1.61714 0
M  V30 8039 H 750.648 1.72721 3.30149 0
M  V30 8040 H 750.761 3.60572 3.15476 0
M  V30 8041 H 749.125 1.85178 1.74875 0
M  V30 8042 H 749.908 3.30606 0.924922 0
M  V30 8043 N 752.353 -0.854086 1.3245 0
M  V30 8044 C 753.316 -1.94427 1.21371 0
M  V30 8045 C 754.316 -1.60219 0.136613 0
M  V30 8046 O 755.506 -1.69846 0.387057 0
M  V30 8047 C 752.638 -3.29698 0.866701 0
M  V30 8048 H 753.831 -2.05679 2.18257 0
M  V30 8049 H 751.384 -1.04434 1.1629 0
M  V30 8050 H 752.119 -3.24145 -0.100319 0
M  V30 8051 H 751.904 -3.55903 1.64545 0
M  V30 8052 H 753.394 -4.09599 0.813515 0
M  V30 8053 N 753.831 -1.1567 -1.07043 0
M  V30 8054 C 755.247 -0.900006 -1.31803 0
M  V30 8055 C 755.447 0.451293 -1.96381 0
M  V30 8056 O 754.503 1.19252 -2.22565 0
M  V30 8057 C 755.816 -2.04334 -2.20609 0
M  V30 8058 C 757.364 -2.07823 -2.34048 0
M  V30 8059 C 757.839 -3.21488 -3.26204 0
M  V30 8060 N 759.33 -3.21156 -3.33786 0
M  V30 8061 C 760.065 -4.05746 -4.05163 0
M  V30 8062 N 759.561 -5.00407 -4.79129 0
M  V30 8063 N 761.354 -3.93759 -4.01136 0
M  V30 8064 H 753.505 -2.02681 -0.635146 0
M  V30 8065 H 755.768 -0.883956 -0.342528 0
M  V30 8066 H 755.474 -3.01895 -1.80423 0
M  V30 8067 H 755.348 -1.97838 -3.21154 0
M  V30 8068 H 757.735 -1.1086 -2.73485 0
M  V30 8069 H 757.816 -2.18386 -1.33197 0
M  V30 8070 H 757.46 -4.18706 -2.87485 0
M  V30 8071 H 757.39 -3.08162 -4.27017 0
M  V30 8072 H 759.881 -2.52606 -2.81067 0
M  V30 8073 H 760.194 -5.61387 -5.31097 0
M  V30 8074 H 758.539 -5.04393 -4.78135 0
M  V30 8075 H 761.73 -3.19115 -3.42466 0
M  V30 8076 H 761.903 -4.59906 -4.56498 0
M  V30 8077 N 755.309 1.25446 -0.953992 0
M  V30 8078 C 756.555 1.9343 -0.60933 0
M  V30 8079 C 756.888 1.74542 0.851388 0
M  V30 8080 O 756.163 1.09014 1.61078 0
M  V30 8081 C 756.446 3.46844 -0.968041 0
M  V30 8082 C 756.299 3.74961 -2.48444 0
M  V30 8083 C 757.618 4.37334 -0.492641 0
M  V30 8084 H 754.737 0.702502 -0.222844 0
M  V30 8085 H 757.379 1.48076 -1.19053 0
M  V30 8086 H 755.529 3.85604 -0.473465 0
M  V30 8087 H 757.201 3.45841 -3.05273 0
M  V30 8088 H 755.444 3.20589 -2.92241 0
M  V30 8089 H 756.115 4.82246 -2.68594 0
M  V30 8090 H 758.591 4.05873 -0.916878 0
M  V30 8091 H 757.467 5.43439 -0.772331 0
M  V30 8092 H 757.728 4.37908 0.607403 0
M  V30 8093 N 756.787 0.722489 1.40064 0
M  V30 8094 C 758.015 0.274838 2.05066 0
M  V30 8095 C 758.43 -1.08586 1.54449 0
M  V30 8096 O 757.787 -1.68375 0.704003 0
M  V30 8097 C 757.838 0.253673 3.60609 0
M  V30 8098 O 757.559 1.56064 4.0936 0
M  V30 8099 C 759.06 -0.211684 4.42794 0
M  V30 8100 H 756.28 0.12226 0.659768 0
M  V30 8101 H 758.824 0.982632 1.79345 0
M  V30 8102 H 756.979 -0.405137 3.85276 0
M  V30 8103 H 757.393 1.46576 5.03603 0
M  V30 8104 H 758.867 -0.175341 5.51721 0
M  V30 8105 H 759.344 -1.25493 4.2089 0
M  V30 8106 H 759.95 0.4171 4.2325 0
M  V30 8107 N 758.265 -1.50454 0.469181 0
M  V30 8108 C 759.49 -2.0722 -0.0864892 0
M  V30 8109 C 759.915 -1.33098 -1.32916 0
M  V30 8110 O 759.273 -0.378084 -1.77314 0
M  V30 8111 C 759.321 -3.58845 -0.355384 0
M  V30 8112 O 758.425 -3.86583 -1.43622 0
M  V30 8113 H 757.766 -0.663889 0.0121414 0
M  V30 8114 H 760.296 -1.93674 0.659674 0
M  V30 8115 H 760.306 -4.03617 -0.596447 0
M  V30 8116 H 758.981 -4.12211 0.552698 0
M  V30 8117 H 757.558 -3.5365 -1.18262 0
M  V30 8118 N 759.743 -0.201713 -1.56304 0
M  V30 8119 C 760.693 0.729444 -2.16016 0
M  V30 8120 C 761.677 1.17164 -1.10279 0
M  V30 8121 O 762.869 1.12893 -1.36324 0
M  V30 8122 C 759.998 1.94594 -2.82822 0
M  V30 8123 C 759.084 1.52434 -3.95758 0
M  V30 8124 N 759.475 0.814106 -4.99205 0
M  V30 8125 C 757.773 1.81314 -4.07481 0
M  V30 8126 C 758.474 0.601896 -5.78578 0
M  V30 8127 N 757.45 1.15263 -5.3124 0
M  V30 8128 H 761.252 0.178163 -2.93359 0
M  V30 8129 H 758.766 -0.00218038 -1.624 0
M  V30 8130 H 760.763 2.62357 -3.23998 0
M  V30 8131 H 759.423 2.50188 -2.06969 0
M  V30 8132 H 760.434 0.468872 -5.15773 0
M  V30 8133 H 757.111 2.3837 -3.42762 0
M  V30 8134 H 758.501 0.0380119 -6.71889 0
M  V30 8135 N 761.222 1.57436 0.0718424 0
M  V30 8136 C 762.447 1.91858 0.787745 0
M  V30 8137 C 762.872 0.798119 1.70328 0
M  V30 8138 O 762.23 -0.24905 1.79581 0
M  V30 8139 C 762.278 3.25232 1.55744 0
M  V30 8140 O 761.382 3.14462 2.6681 0
M  V30 8141 H 760.723 0.628258 0.214914 0
M  V30 8142 H 763.253 2.04561 0.0401012 0
M  V30 8143 H 763.263 3.59105 1.9367 0
M  V30 8144 H 761.938 4.0636 0.885691 0
M  V30 8145 H 760.515 2.92148 2.31741 0
M  V30 8146 N 762.7 -0.34323 1.53817 0
M  V30 8147 C 763.63 -1.42709 1.84814 0
M  V30 8148 C 764.611 -1.5488 0.703297 0
M  V30 8149 O 765.796 -1.69082 0.955237 0
M  V30 8150 C 762.926 -2.79756 2.05801 0
M  V30 8151 C 761.88 -2.82392 3.21619 0
M  V30 8152 C 761.206 -4.22326 3.2794 0
M  V30 8153 C 762.506 -2.479 4.59721 0
M  V30 8154 H 764.2 -1.17018 2.75585 0
M  V30 8155 H 761.746 -0.561485 1.32602 0
M  V30 8156 H 763.699 -3.55627 2.26069 0
M  V30 8157 H 762.423 -3.06883 1.11761 0
M  V30 8158 H 761.082 -2.08974 3.01207 0
M  V30 8159 H 760.73 -4.46564 2.31494 0
M  V30 8160 H 760.43 -4.25001 4.05768 0
M  V30 8161 H 761.954 -5.00039 3.50419 0
M  V30 8162 H 763.368 -3.13484 4.80001 0
M  V30 8163 H 761.765 -2.61857 5.39954 0
M  V30 8164 H 762.835 -1.43087 4.63308 0
M  V30 8165 N 764.178 -1.45556 -0.604258 0
M  V30 8166 C 765.403 -1.53509 -1.39462 0
M  V30 8167 C 765.828 -0.169638 -1.87333 0
M  V30 8168 O 765.186 0.846346 -1.60333 0
M  V30 8169 C 765.234 -2.52654 -2.5729 0
M  V30 8170 O 764.338 -2.04666 -3.5803 0
M  V30 8171 H 763.679 -0.517355 -0.416221 0
M  V30 8172 H 766.209 -1.90939 -0.735072 0
M  V30 8173 H 766.219 -2.71568 -3.04491 0
M  V30 8174 H 764.894 -3.51823 -2.21797 0
M  V30 8175 H 763.471 -1.95643 -3.17456 0
M  V30 8176 N 765.656 0.84705 -1.32902 0
M  V30 8177 C 766.896 1.61554 -1.25218 0
M  V30 8178 C 767.26 1.91141 0.18143 0
M  V30 8179 O 768.461 2.6607 0.382106 0
M  V30 8180 C 766.732 2.89553 -2.09509 0
M  V30 8181 S 768.291 3.80283 -2.18931 0
M  V30 8182 H 765.109 0.554031 -0.445613 0
M  V30 8183 H 767.711 1.00251 -1.67839 0
M  V30 8184 H 766.415 2.65776 -3.12716 0
M  V30 8185 H 765.946 3.55868 -1.67694 0
M  V30 8186 H 767.961 4.77641 -1.34438 0
M  V30 8187 N 767.134 1.16236 1.06428 0
M  V30 8188 C 768.55 0.906983 1.31324 0
M  V30 8189 C 768.75 -0.440872 1.96618 0
M  V30 8190 O 767.806 -1.1807 2.23194 0
M  V30 8191 C 769.119 2.05501 2.19522 0
M  V30 8192 C 770.667 2.09061 2.32943 0
M  V30 8193 C 771.142 3.23214 3.24495 0
M  V30 8194 N 772.633 3.22922 3.32078 0
M  V30 8195 C 773.368 4.07889 4.03006 0
M  V30 8196 N 772.864 5.02941 4.76469 0
M  V30 8197 N 774.657 3.95881 3.99043 0
M  V30 8198 H 766.808 2.03015 0.624388 0
M  V30 8199 H 769.071 0.88576 0.337835 0
M  V30 8200 H 768.777 3.02847 1.78819 0
M  V30 8201 H 768.651 1.99538 3.201 0
M  V30 8202 H 771.038 1.12308 2.72893 0
M  V30 8203 H 771.119 2.19089 1.32037 0
M  V30 8204 H 770.763 4.20225 2.85261 0
M  V30 8205 H 770.693 3.10423 4.25377 0
M  V30 8206 H 773.184 2.54093 2.79724 0
M  V30 8207 H 773.497 5.64196 5.28112 0
M  V30 8208 H 771.842 5.06922 4.75453 0
M  V30 8209 H 775.033 3.20927 3.40769 0
M  V30 8210 H 775.206 4.62321 4.54052 0
M  V30 8211 N 768.612 -1.24939 0.960631 0
M  V30 8212 C 770.028 -1.45039 0.666018 0
M  V30 8213 C 770.228 -1.86021 -0.774501 0
M  V30 8214 O 769.284 -1.99392 -1.54916 0
M  V30 8215 C 770.597 -2.51775 1.64408 0
M  V30 8216 C 772.145 -2.6561 1.65592 0
M  V30 8217 C 772.62 -3.75536 2.62177 0
M  V30 8218 N 774.111 -3.82954 2.60577 0
M  V30 8219 C 774.846 -4.67517 3.31987 0
M  V30 8220 N 774.342 -5.56321 4.1289 0
M  V30 8221 N 776.135 -4.61535 3.20845 0
M  V30 8222 H 768.286 -0.96632 1.89145 0
M  V30 8223 H 770.549 -0.486034 0.813926 0
M  V30 8224 H 770.255 -2.28534 2.67329 0
M  V30 8225 H 770.129 -3.49804 1.41128 0
M  V30 8226 H 772.516 -2.88212 0.633846 0
M  V30 8227 H 772.597 -1.67962 1.92931 0
M  V30 8228 H 772.241 -3.53684 3.64514 0
M  V30 8229 H 772.171 -4.72682 2.32119 0
M  V30 8230 H 774.662 -3.19478 2.01847 0
M  V30 8231 H 774.975 -6.17787 4.64283 0
M  V30 8232 H 773.32 -5.5601 4.16987 0
M  V30 8233 H 776.511 -3.91169 2.57108 0
M  V30 8234 H 776.684 -5.27214 3.76762 0
M  V30 8235 N 770.09 -0.729906 -1.39679 0
M  V30 8236 C 771.037 -0.0866063 -2.30637 0
M  V30 8237 C 772.007 0.735115 -1.48947 0
M  V30 8238 O 773.192 0.696125 -1.77648 0
M  V30 8239 C 770.332 0.818524 -3.35252 0
M  V30 8240 C 769.445 -0.0152635 -4.31997 0
M  V30 8241 C 768.58 0.890669 -5.2368 0
M  V30 8242 C 767.619 0.0518246 -6.12078 0
M  V30 8243 N 766.756 0.913411 -6.96133 0
M  V30 8244 H 771.596 -0.867925 -2.85081 0
M  V30 8245 H 769.133 -0.439673 -1.40376 0
M  V30 8246 H 771.091 1.3577 -3.9449 0
M  V30 8247 H 769.721 1.56587 -2.82277 0
M  V30 8248 H 768.773 -0.671794 -3.74421 0
M  V30 8249 H 770.085 -0.664086 -4.9436 0
M  V30 8250 H 769.239 1.49787 -5.87919 0
M  V30 8251 H 767.978 1.57328 -4.61627 0
M  V30 8252 H 766.983 -0.568209 -5.46856 0
M  V30 8253 H 768.208 -0.627497 -6.76195 0
M  V30 8254 H 766.154 1.58141 -6.36653 0
M  V30 8255 H 766.071 0.320952 -7.55318 0
M  V30 8256 H 767.339 1.50633 -7.64807 0
M  V30 8257 N 771.568 1.50203 -0.477153 0
M  V30 8258 C 772.816 2.01959 0.0755889 0
M  V30 8259 C 773.137 1.3608 1.39668 0
M  V30 8260 O 772.407 0.508136 1.89195 0
M  V30 8261 H 770.987 0.74636 0.0309248 0
M  V30 8262 H 773.649 1.84473 -0.628959 0
M  V30 8263 H 772.745 3.11305 0.222683 0
M  V30 8264 N 773.046 0.209999 1.56195 0
M  V30 8265 C 774.295 -0.425106 1.97169 0
M  V30 8266 C 774.608 -1.61718 1.10031 0
M  V30 8267 O 775.814 -2.32105 1.40853 0
M  V30 8268 C 774.27 -0.80771 3.50719 0
M  V30 8269 C 773.878 0.360902 4.46544 0
M  V30 8270 C 775.622 -1.40906 4.00432 0
M  V30 8271 C 773.529 -0.0434919 5.91384 0
M  V30 8272 H 772.459 -0.162598 0.736259 0
M  V30 8273 H 775.11 0.304382 1.80958 0
M  V30 8274 H 773.492 -1.59429 3.62489 0
M  V30 8275 H 774.666 1.13846 4.46515 0
M  V30 8276 H 772.981 0.874729 4.07109 0
M  V30 8277 H 775.578 -1.72433 5.06133 0
M  V30 8278 H 775.921 -2.32081 3.45607 0
M  V30 8279 H 776.454 -0.686154 3.91838 0
M  V30 8280 H 773.193 0.834448 6.50167 0
M  V30 8281 H 772.713 -0.785598 5.94633 0
M  V30 8282 H 774.392 -0.474176 6.4526 0
M  V30 8283 N 774.524 -1.57472 -0.0634922 0
M  V30 8284 C 775.454 -2.07297 -1.07473 0
M  V30 8285 C 776.435 -0.968162 -1.39859 0
M  V30 8286 O 777.62 -1.24139 -1.49343 0
M  V30 8287 C 774.75 -2.52381 -2.38581 0
M  V30 8288 C 773.704 -3.66813 -2.20526 0
M  V30 8289 C 773.03 -3.97982 -3.57092 0
M  V30 8290 C 774.33 -4.96553 -1.61965 0
M  V30 8291 H 776.024 -2.92033 -0.660092 0
M  V30 8292 H 773.57 -1.40488 -0.316074 0
M  V30 8293 H 775.523 -2.85852 -3.09624 0
M  V30 8294 H 774.247 -1.64684 -2.8204 0
M  V30 8295 H 772.906 -3.33639 -1.51924 0
M  V30 8296 H 772.554 -3.07403 -3.98136 0
M  V30 8297 H 772.254 -4.7504 -3.45848 0
M  V30 8298 H 773.778 -4.33956 -4.29552 0
M  V30 8299 H 775.192 -5.28201 -2.22883 0
M  V30 8300 H 773.589 -5.7799 -1.61394 0
M  V30 8301 H 774.659 -4.81396 -0.581918 0
M  V30 8302 N 776.003 0.335068 -1.53997 0
M  V30 8303 C 776.95 1.41187 -1.82579 0
M  V30 8304 C 777.92 1.51897 -0.672061 0
M  V30 8305 O 779.105 1.673 -0.917346 0
M  V30 8306 C 776.245 2.77717 -2.0486 0
M  V30 8307 C 775.358 2.7573 -3.32561 0
M  V30 8308 C 774.493 4.04032 -3.44864 0
M  V30 8309 C 773.532 3.96308 -4.66483 0
M  V30 8310 N 772.669 5.16317 -4.75774 0
M  V30 8311 H 777.509 1.16113 -2.74448 0
M  V30 8312 H 775.046 0.562305 -1.35928 0
M  V30 8313 H 777.004 3.57071 -2.15768 0
M  V30 8314 H 775.634 3.01124 -1.16294 0
M  V30 8315 H 774.686 1.88432 -3.3045 0
M  V30 8316 H 775.998 2.65902 -4.22016 0
M  V30 8317 H 775.152 4.91814 -3.55251 0
M  V30 8318 H 773.891 4.16652 -2.53481 0
M  V30 8319 H 772.896 3.06911 -4.56164 0
M  V30 8320 H 774.121 3.85263 -5.5924 0
M  V30 8321 H 772.067 5.29464 -3.87303 0
M  V30 8322 H 771.984 5.08779 -5.59178 0
M  V30 8323 H 773.252 6.05846 -4.9048 0
M  V30 8324 N 777.481 1.45874 0.596531 0
M  V30 8325 C 778.431 1.5181 1.70111 0
M  V30 8326 C 779.415 0.380293 1.56341 0
M  V30 8327 O 780.607 0.627849 1.6549 0
M  V30 8328 C 777.736 1.49822 3.08883 0
M  V30 8329 C 776.822 2.68845 3.27998 0
M  V30 8330 N 777.213 3.93873 3.17329 0
M  V30 8331 C 775.511 2.64777 3.589 0
M  V30 8332 C 776.212 4.73371 3.38076 0
M  V30 8333 N 775.188 4.0501 3.62585 0
M  V30 8334 H 778.99 2.46289 1.60372 0
M  V30 8335 H 776.504 1.41321 0.800138 0
M  V30 8336 H 778.501 1.5216 3.8814 0
M  V30 8337 H 777.161 0.564086 3.19763 0
M  V30 8338 H 778.172 4.25329 2.95492 0
M  V30 8339 H 774.849 1.80323 3.7655 0
M  V30 8340 H 776.239 5.82357 3.35127 0
M  V30 8341 N 778.959 -0.83999 1.33349 0
M  V30 8342 C 780.184 -1.63249 1.27924 0
M  V30 8343 C 780.609 -1.87523 -0.147193 0
M  V30 8344 O 779.967 -1.43853 -1.10345 0
M  V30 8345 C 780.015 -2.96046 2.05886 0
M  V30 8346 O 779.119 -3.87303 1.4167 0
M  V30 8347 H 778.46 -0.49715 0.440157 0
M  V30 8348 H 780.99 -1.04512 1.75893 0
M  V30 8349 H 781 -3.45752 2.16609 0
M  V30 8350 H 779.675 -2.77701 3.09605 0
M  V30 8351 H 778.252 -3.45789 1.39585 0
M  V30 8352 N 780.437 -1.16799 -1.0581 0
M  V30 8353 C 781.662 -0.977402 -1.82925 0
M  V30 8354 C 782.087 0.469514 -1.82146 0
M  V30 8355 O 781.445 1.33576 -1.22585 0
M  V30 8356 C 781.493 -1.51543 -3.27211 0
M  V30 8357 O 780.597 -0.725021 -4.05977 0
M  V30 8358 H 779.938 -0.347474 -0.565825 0
M  V30 8359 H 782.468 -1.55151 -1.33376 0
M  V30 8360 H 782.478 -1.53502 -3.78023 0
M  V30 8361 H 781.153 -2.56872 -3.27093 0
M  V30 8362 H 779.73 -0.77634 -3.64729 0
M  V30 8363 N 781.915 1.24427 -0.967243 0
M  V30 8364 C 782.862 2.25398 -0.496419 0
M  V30 8365 C 783.832 1.59667 0.457781 0
M  V30 8366 O 785.017 1.87213 0.368246 0
M  V30 8367 C 782.157 3.44474 0.207693 0
M  V30 8368 C 781.27 4.24804 -0.785221 0
M  V30 8369 C 780.405 5.31169 -0.0572631 0
M  V30 8370 C 779.444 6.03195 -1.04027 0
M  V30 8371 N 778.581 7.01265 -0.34235 0
M  V30 8372 H 783.421 2.65039 -1.36229 0
M  V30 8373 H 780.958 1.30288 -0.682902 0
M  V30 8374 H 782.916 4.12376 0.632612 0
M  V30 8375 H 781.546 3.05672 1.03752 0
M  V30 8376 H 780.598 3.56445 -1.32858 0
M  V30 8377 H 781.91 4.74599 -1.53483 0
M  V30 8378 H 781.064 6.05205 0.425674 0
M  V30 8379 H 779.803 4.8228 0.725047 0
M  V30 8380 H 778.808 5.27964 -1.53409 0
M  V30 8381 H 780.033 6.54173 -1.82302 0
M  V30 8382 H 777.979 6.54648 0.420993 0
M  V30 8383 H 777.896 7.48939 -1.03084 0
M  V30 8384 H 779.164 7.7941 0.118634 0
M  V30 8385 N 783.393 0.737304 1.3929 0
M  V30 8386 C 784.623 0.296143 2.04467 0
M  V30 8387 C 785.031 -1.0748 1.55707 0
M  V30 8388 O 784.374 -1.69082 0.718123 0
M  V30 8389 C 784.436 0.222161 3.58813 0
M  V30 8390 C 784.1 1.53195 4.30558 0
M  V30 8391 C 785.097 2.47809 4.57041 0
M  V30 8392 C 782.782 1.79688 4.6906 0
M  V30 8393 C 784.776 3.67147 5.21039 0
M  V30 8394 C 782.463 2.99304 5.32785 0
M  V30 8395 C 783.461 3.92855 5.58708 0
M  V30 8396 O 783.149 5.1037 6.2111 0
M  V30 8397 H 782.881 0.126896 0.663983 0
M  V30 8398 H 785.435 1.00242 1.79278 0
M  V30 8399 H 783.665 -0.540239 3.82908 0
M  V30 8400 H 785.354 -0.187311 4.05468 0
M  V30 8401 H 786.12 2.28611 4.2774 0
M  V30 8402 H 781.999 1.07716 4.48239 0
M  V30 8403 H 785.543 4.40183 5.41188 0
M  V30 8404 H 781.44 3.18401 5.61508 0
M  V30 8405 H 782.208 5.10735 6.39603 0
M  V30 8406 N 784.871 -1.49948 0.485112 0
M  V30 8407 C 786.096 -2.073 -0.0645059 0
M  V30 8408 C 786.521 -1.345 -1.31497 0
M  V30 8409 O 785.879 -0.39687 -1.76903 0
M  V30 8410 C 785.927 -3.59201 -0.317304 0
M  V30 8411 O 785.031 -3.88085 -1.39514 0
M  V30 8412 H 784.372 -0.663723 0.0191822 0
M  V30 8413 H 786.902 -1.92963 0.680179 0
M  V30 8414 H 786.912 -4.04227 -0.553604 0
M  V30 8415 H 785.587 -4.11602 0.596387 0
M  V30 8416 H 784.164 -3.54885 -1.14504 0
M  V30 8417 N 786.349 -0.21828 -1.56081 0
M  V30 8418 C 787.312 0.679633 -2.18892 0
M  V30 8419 C 788.312 1.12405 -1.14986 0
M  V30 8420 O 789.502 1.03339 -1.40238 0
M  V30 8421 C 786.634 1.93063 -2.80962 0
M  V30 8422 H 787.827 0.132066 -2.99609 0
M  V30 8423 H 785.38 0.0313374 -1.56269 0
M  V30 8424 H 786.115 2.52015 -2.04106 0
M  V30 8425 H 785.9 1.62046 -3.57048 0
M  V30 8426 H 787.39 2.57043 -3.29118 0
M  V30 8427 N 787.827 1.57504 0.0551401 0
M  V30 8428 C 789.075 1.87684 0.74962 0
M  V30 8429 C 789.396 0.812547 1.77264 0
M  V30 8430 O 788.666 -0.15694 1.9527 0
M  V30 8431 H 787.246 0.6926 0.279846 0
M  V30 8432 H 789.908 1.94881 0.0272745 0
M  V30 8433 H 789.004 2.85734 1.25548 0
M  V30 8434 N 789.305 -0.326896 1.54172 0
M  V30 8435 C 790.533 -1.08486 1.76177 0
M  V30 8436 C 790.948 -1.81815 0.508788 0
M  V30 8437 O 790.305 -1.74924 -0.520362 0
M  V30 8438 C 790.356 -2.08552 2.95276 0
M  V30 8439 O 790.077 -1.38202 4.15731 0
M  V30 8440 C 791.578 -2.96593 3.29466 0
M  V30 8441 H 788.798 -0.322835 0.588233 0
M  V30 8442 H 791.342 -0.374036 2.0105 0
M  V30 8443 H 789.497 -2.75174 2.72687 0
M  V30 8444 H 789.911 -2.05186 4.827 0
M  V30 8445 H 791.385 -3.62708 4.16109 0
M  V30 8446 H 791.862 -3.63511 2.46487 0
M  V30 8447 H 792.468 -2.35537 3.54122 0
M  V30 8448 N 790.784 -1.46188 -0.588786 0
M  V30 8449 C 791.717 -1.508 -1.71274 0
M  V30 8450 C 792.695 -0.362635 -1.58505 0
M  V30 8451 O 793.879 -0.565899 -1.79805 0
M  V30 8452 C 791.006 -1.38082 -3.09275 0
M  V30 8453 C 790.052 -2.56723 -3.40581 0
M  V30 8454 S 790.885 -4.1911 -3.33327 0
M  V30 8455 C 792.041 -4.08891 -4.73877 0
M  V30 8456 H 792.274 -2.45895 -1.67102 0
M  V30 8457 H 789.807 -1.34 -0.767025 0
M  V30 8458 H 791.765 -1.31432 -3.88891 0
M  V30 8459 H 790.426 -0.444259 -3.10942 0
M  V30 8460 H 789.619 -2.43801 -4.41109 0
M  V30 8461 H 789.221 -2.60332 -2.68521 0
M  V30 8462 H 791.513 -3.75196 -5.64123 0
M  V30 8463 H 792.456 -5.09395 -4.91856 0
M  V30 8464 H 792.864 -3.40239 -4.50441 0
M  V30 8465 N 792.262 0.832906 -1.33792 0
M  V30 8466 C 793.539 1.57359 -1.16178 0
M  V30 8467 C 793.919 2.09372 0.269532 0
M  V30 8468 O 793.267 1.89993 1.26944 0
M  V30 8469 C 793.477 2.70279 -2.20795 0
M  V30 8470 C 794.825 3.39305 -2.55259 0
M  V30 8471 O 795.849 2.80526 -2.19508 0
M  V30 8472 O 794.708 4.45428 -3.16632 0
M  V30 8473 H 791.802 0.694025 -0.449731 0
M  V30 8474 H 794.348 0.875144 -1.45394 0
M  V30 8475 H 793.12 2.29527 -3.16911 0
M  V30 8476 H 792.743 3.47782 -1.927 0
M  V30 8477 N 793.74 1.17359 1.05189 0
M  V30 8478 C 795.151 0.96793 1.5965 0
M  V30 8479 C 795.502 -0.485355 1.90102 0
M  V30 8480 O 794.627 -1.36066 1.6827 0
M  V30 8481 C 795.222 1.75068 2.90063 0
M  V30 8482 C 793.781 1.58969 3.41183 0
M  V30 8483 C 792.928 1.75231 2.14917 0
M  V30 8484 H 795.879 1.32067 0.880001 0
M  V30 8485 H 795.9 1.23308 3.59966 0
M  V30 8486 H 795.412 2.80835 2.67868 0
M  V30 8487 H 793.513 0.556906 3.68415 0
M  V30 8488 H 793.626 2.38067 4.15766 0
M  V30 8489 H 791.99 1.18073 2.25679 0
M  V30 8490 H 792.773 2.8241 1.95191 0
M  V30 8491 N 795.218 -1.23913 0.973828 0
M  V30 8492 C 796.181 -2.23367 0.51378 0
M  V30 8493 C 797.181 -1.55923 -0.39302 0
M  V30 8494 O 798.371 -1.73187 -0.187626 0
M  V30 8495 C 795.503 -3.39944 -0.255152 0
M  V30 8496 H 796.696 -2.65581 1.39307 0
M  V30 8497 H 794.249 -1.36632 0.759039 0
M  V30 8498 H 794.984 -3.03177 -1.15127 0
M  V30 8499 H 794.769 -3.90098 0.395673 0
M  V30 8500 H 796.259 -4.13749 -0.565842 0
M  V30 8501 N 796.696 -0.74468 -1.38897 0
M  V30 8502 C 797.626 -0.126355 -2.33158 0
M  V30 8503 C 798.607 0.713517 -1.54412 0
M  V30 8504 O 799.792 0.656523 -1.82766 0
M  V30 8505 C 796.922 0.774375 -3.38557 0
M  V30 8506 C 795.876 0.0379214 -4.27983 0
M  V30 8507 C 795.202 1.05631 -5.24162 0
M  V30 8508 C 796.502 -1.12523 -5.10035 0
M  V30 8509 H 798.196 -0.913744 -2.85116 0
M  V30 8510 H 795.742 -0.440847 -1.37086 0
M  V30 8511 H 797.695 1.21655 -4.03458 0
M  V30 8512 H 796.419 1.59399 -2.85061 0
M  V30 8513 H 795.078 -0.384733 -3.64576 0
M  V30 8514 H 794.726 1.86975 -4.66958 0
M  V30 8515 H 794.426 0.568261 -5.84846 0
M  V30 8516 H 795.95 1.49799 -5.9194 0
M  V30 8517 H 797.364 -0.761037 -5.68226 0
M  V30 8518 H 795.761 -1.54355 -5.79909 0
M  V30 8519 H 796.831 -1.94237 -4.44297 0
M  V30 8520 N 798.174 1.49689 -0.493057 0
M  V30 8521 C 799.42 2.02727 0.0543518 0
M  V30 8522 C 799.753 1.37264 1.37376 0
M  V30 8523 O 799.028 0.505644 1.87812 0
M  V30 8524 C 799.311 3.59456 0.215226 0
M  V30 8525 C 799.164 4.35459 -1.12675 0
M  V30 8526 C 800.483 4.29511 0.959586 0
M  V30 8527 H 797.602 0.736773 0.0182786 0
M  V30 8528 H 800.244 1.78792 -0.642924 0
M  V30 8529 H 798.394 3.79981 0.809122 0
M  V30 8530 H 800.066 4.2645 -1.75891 0
M  V30 8531 H 798.309 3.9833 -1.71801 0
M  V30 8532 H 798.98 5.43454 -0.967578 0
M  V30 8533 H 801.456 4.13594 0.455977 0
M  V30 8534 H 800.332 5.38939 1.04098 0
M  V30 8535 H 800.593 3.94202 2.00144 0
M  V30 8536 N 799.652 0.226554 1.55963 0
M  V30 8537 C 800.877 -0.411527 2.03276 0
M  V30 8538 C 801.302 -1.52206 1.10521 0
M  V30 8539 O 800.66 -1.81054 0.0943217 0
M  V30 8540 C 800.708 -0.915694 3.4878 0
M  V30 8541 O 799.812 -2.02672 3.59163 0
M  V30 8542 H 799.153 -0.0924907 0.657527 0
M  V30 8543 H 801.683 0.346656 2.01642 0
M  V30 8544 H 801.693 -1.22421 3.892 0
M  V30 8545 H 800.368 -0.102915 4.15773 0
M  V30 8546 H 798.945 -1.72445 3.30632 0
M  V30 8547 N 801.13 -1.57531 -0.0467866 0
M  V30 8548 C 802.541 -1.76945 -0.595603 0
M  V30 8549 C 802.892 -0.855354 -1.76573 0
M  V30 8550 O 802.017 -0.045668 -2.16352 0
M  V30 8551 C 802.612 -3.20881 -1.08725 0
M  V30 8552 C 801.171 -3.41553 -1.58172 0
M  V30 8553 C 800.318 -2.72533 -0.511968 0
M  V30 8554 H 803.269 -1.57682 0.179436 0
M  V30 8555 H 803.29 -3.26419 -1.95528 0
M  V30 8556 H 802.802 -3.87385 -0.235398 0
M  V30 8557 H 800.903 -2.80199 -2.456 0
M  V30 8558 H 801.016 -4.50104 -1.64143 0
M  V30 8559 H 799.38 -2.35797 -0.962899 0
M  V30 8560 H 800.163 -3.41709 0.330117 0
M  V30 8561 N 802.608 0.318715 -1.54344 0
M  V30 8562 C 803.518 1.41535 -1.87097 0
M  V30 8563 C 804.534 1.56361 -0.763353 0
M  V30 8564 O 805.71 1.71365 -1.05811 0
M  V30 8565 C 802.775 2.76178 -2.09587 0
M  V30 8566 C 801.836 2.70486 -3.3337 0
M  V30 8567 C 801.069 3.98708 -3.54778 0
M  V30 8568 O 801.292 4.9721 -2.79532 0
M  V30 8569 O 800.226 4.01674 -4.48266 0
M  V30 8570 H 804.052 1.16764 -2.80357 0
M  V30 8571 H 801.637 0.51318 -1.4031 0
M  V30 8572 H 803.519 3.55873 -2.25682 0
M  V30 8573 H 802.194 3.00829 -1.19514 0
M  V30 8574 H 801.101 1.89325 -3.22656 0
M  V30 8575 H 802.434 2.50789 -4.23516 0
M  V30 8576 N 804.086 1.46499 0.581025 0
M  V30 8577 C 805.019 1.51706 1.70472 0
M  V30 8578 C 805.997 0.371036 1.5831 0
M  V30 8579 O 807.181 0.575426 1.79502 0
M  V30 8580 C 804.308 1.3972 3.08538 0
M  V30 8581 C 803.354 2.58525 3.39215 0
M  V30 8582 S 804.187 4.20872 3.311 0
M  V30 8583 C 805.343 4.11398 4.71702 0
M  V30 8584 H 805.576 2.46777 1.65796 0
M  V30 8585 H 803.109 1.34405 0.759908 0
M  V30 8586 H 805.067 1.33492 3.88188 0
M  V30 8587 H 803.728 0.460742 3.10702 0
M  V30 8588 H 802.921 2.46137 4.3981 0
M  V30 8589 H 802.523 2.61752 2.67136 0
M  V30 8590 H 804.815 3.78182 5.62125 0
M  V30 8591 H 805.758 5.11997 4.89147 0
M  V30 8592 H 806.166 3.42624 4.48631 0
M  V30 8593 N 805.565 -0.825799 1.34232 0
M  V30 8594 C 806.976 -1.39835 1.23706 0
M  V30 8595 C 807.327 -1.95709 -0.138649 0
M  V30 8596 O 806.452 -1.89833 -1.03886 0
M  V30 8597 C 807.047 -2.54203 2.23978 0
M  V30 8598 C 805.606 -3.07374 2.17251 0
M  V30 8599 C 804.753 -1.80232 2.10741 0
M  V30 8600 H 807.704 -0.630442 1.4564 0
M  V30 8601 H 807.725 -3.32214 1.8551 0
M  V30 8602 H 807.237 -2.13506 3.24094 0
M  V30 8603 H 805.338 -3.52583 1.20483 0
M  V30 8604 H 805.451 -3.6666 3.08379 0
M  V30 8605 H 803.815 -2.01012 1.56417 0
M  V30 8606 H 804.598 -1.41713 3.12686 0
M  V30 8607 N 807.043 -1.17915 -1.04565 0
M  V30 8608 C 808.271 -0.99616 -1.8134 0
M  V30 8609 C 808.686 0.455509 -1.83223 0
M  V30 8610 O 808.043 1.31636 -1.26405 0
M  V30 8611 C 808.094 -1.53758 -3.27171 0
M  V30 8612 O 807.815 -2.93241 -3.25486 0
M  V30 8613 C 809.316 -1.40007 -4.2061 0
M  V30 8614 H 806.536 -0.352055 -0.571225 0
M  V30 8615 H 809.08 -1.56349 -1.31815 0
M  V30 8616 H 807.235 -1.01213 -3.73945 0
M  V30 8617 H 807.649 -3.18392 -4.16805 0
M  V30 8618 H 809.123 -1.82695 -5.2089 0
M  V30 8619 H 809.6 -0.348054 -4.37819 0
M  V30 8620 H 810.206 -1.916 -3.79697 0
M  V30 8621 N 808.521 1.23394 -0.980386 0
M  V30 8622 C 809.451 2.2717 -0.540024 0
M  V30 8623 C 810.432 1.64659 0.426787 0
M  V30 8624 O 811.617 1.91543 0.320153 0
M  V30 8625 C 808.747 3.46939 0.15836 0
M  V30 8626 C 807.701 4.21802 -0.725732 0
M  V30 8627 C 807.027 5.34597 0.104866 0
M  V30 8628 C 808.327 4.81802 -2.01654 0
M  V30 8629 H 810.021 2.64257 -1.40743 0
M  V30 8630 H 807.567 1.2703 -0.678193 0
M  V30 8631 H 809.52 4.18683 0.477737 0
M  V30 8632 H 808.244 3.08912 1.06022 0
M  V30 8633 H 806.903 3.51875 -1.02857 0
M  V30 8634 H 806.551 4.92812 1.00726 0
M  V30 8635 H 806.251 5.85607 -0.483557 0
M  V30 8636 H 807.775 6.09163 0.418624 0
M  V30 8637 H 809.189 5.45554 -1.76193 0
M  V30 8638 H 807.586 5.43098 -2.55273 0
M  V30 8639 H 808.656 4.02549 -2.70338 0
M  V30 8640 N 809.999 0.752036 1.385 0
M  V30 8641 C 810.909 0.125318 2.34265 0
M  V30 8642 C 811.925 -0.702437 1.59191 0
M  V30 8643 O 813.101 -0.626951 1.91393 0
M  V30 8644 C 810.166 -0.758486 3.38301 0
M  V30 8645 C 809.227 0.0834636 4.29219 0
M  V30 8646 C 808.46 -0.758252 5.28286 0
M  V30 8647 O 808.683 -1.99632 5.34325 0
M  V30 8648 O 807.617 -0.177878 6.01637 0
M  V30 8649 H 811.443 0.91617 2.89551 0
M  V30 8650 H 809.028 0.512911 1.4032 0
M  V30 8651 H 810.91 -1.26365 4.02007 0
M  V30 8652 H 809.585 -1.52786 2.85374 0
M  V30 8653 H 808.492 0.634545 3.68679 0
M  V30 8654 H 809.825 0.815455 4.85398 0
M  V30 8655 N 811.477 -1.49425 0.500989 0
M  V30 8656 C 812.702 -2.07356 -0.0425154 0
M  V30 8657 C 813.127 -1.35887 -1.30063 0
M  V30 8658 O 812.485 -0.41561 -1.76472 0
M  V30 8659 C 812.533 -3.59518 -0.279188 0
M  V30 8660 O 811.637 -3.89542 -1.3539 0
M  V30 8661 H 810.978 -0.663482 0.0262207 0
M  V30 8662 H 813.508 -1.92231 0.700607 0
M  V30 8663 H 813.518 -4.04791 -0.5107 0
M  V30 8664 H 812.193 -4.10946 0.640009 0
M  V30 8665 H 810.77 -3.56079 -1.10734 0
M  V30 8666 N 812.955 -0.234822 -1.55841 0
M  V30 8667 C 813.885 0.664217 -2.23854 0
M  V30 8668 C 814.866 1.19076 -1.2147 0
M  V30 8669 O 816.051 1.23232 -1.50091 0
M  V30 8670 C 813.181 1.86666 -2.9287 0
M  V30 8671 C 812.135 1.47341 -4.01839 0
M  V30 8672 C 811.461 2.75571 -4.58219 0
M  V30 8673 C 812.761 0.653479 -5.18196 0
M  V30 8674 H 814.455 0.0971213 -2.99242 0
M  V30 8675 H 812.001 0.0452724 -1.43929 0
M  V30 8676 H 813.954 2.50116 -3.39146 0
M  V30 8677 H 812.678 2.45894 -2.1495 0
M  V30 8678 H 811.337 0.862314 -3.56314 0
M  V30 8679 H 810.985 3.32971 -3.77014 0
M  V30 8680 H 810.685 2.49987 -5.31771 0
M  V30 8681 H 812.209 3.39939 -5.07221 0
M  V30 8682 H 813.623 1.19198 -5.60771 0
M  V30 8683 H 812.02 0.494188 -5.98062 0
M  V30 8684 H 813.09 -0.337004 -4.83728 0
M  V30 8685 N 814.433 1.57553 0.0384317 0
M  V30 8686 C 815.658 1.93485 0.746872 0
M  V30 8687 C 816.083 0.834069 1.68597 0
M  V30 8688 O 815.441 -0.210902 1.80069 0
M  V30 8689 C 815.489 3.28463 1.4881 0
M  V30 8690 O 814.593 3.20051 2.60079 0
M  V30 8691 H 813.934 0.632675 0.201539 0
M  V30 8692 H 816.464 2.046 -0.00329815 0
M  V30 8693 H 816.474 3.63132 1.86009 0
M  V30 8694 H 815.149 4.08147 0.799297 0
M  V30 8695 H 813.726 2.96998 2.25492 0
M  V30 8696 N 815.911 -0.310526 1.54511 0
M  V30 8697 C 816.821 -1.4054 1.87844 0
M  V30 8698 C 817.837 -1.55954 0.771635 0
M  V30 8699 O 819.013 -1.70801 1.06719 0
M  V30 8700 C 816.078 -2.75063 2.11048 0
M  V30 8701 C 815.139 -2.68715 3.348 0
M  V30 8702 C 814.372 -3.96821 3.56887 0
M  V30 8703 O 814.595 -4.95721 2.82165 0
M  V30 8704 O 813.529 -3.99291 4.50389 0
M  V30 8705 H 817.355 -1.15275 2.80972 0
M  V30 8706 H 814.94 -0.505732 1.4058 0
M  V30 8707 H 816.822 -3.54671 2.27566 0
M  V30 8708 H 815.497 -3.00191 1.21108 0
M  V30 8709 H 814.404 -1.87611 3.23655 0
M  V30 8710 H 815.737 -2.4854 4.2484 0
M  V30 8711 N 817.389 -1.46805 -0.573248 0
M  V30 8712 C 818.8 -1.46655 -1.15539 0
M  V30 8713 C 819.151 -0.2125 -1.95046 0
M  V30 8714 O 818.276 0.683759 -2.05314 0
M  V30 8715 C 818.871 -2.65711 -2.10198 0
M  V30 8716 C 817.43 -2.68572 -2.63716 0
M  V30 8717 C 816.577 -2.39498 -1.39772 0
M  V30 8718 H 819.528 -1.54547 -0.36068 0
M  V30 8719 H 819.549 -2.41768 -2.93817 0
M  V30 8720 H 819.061 -3.56967 -1.52303 0
M  V30 8721 H 817.162 -1.81414 -3.25453 0
M  V30 8722 H 817.275 -3.68809 -3.05805 0
M  V30 8723 H 815.639 -1.89749 -1.69904 0
M  V30 8724 H 816.422 -3.32942 -0.836943 0
M  V30 8725 N 818.867 0.818669 -1.34668 0
M  V30 8726 C 820.115 1.57201 -1.27013 0
M  V30 8727 C 820.436 1.94354 0.158599 0
M  V30 8728 O 819.706 1.62626 1.09223 0
M  V30 8729 H 818.286 0.582919 -0.467135 0
M  V30 8730 H 820.948 0.977234 -1.6863 0
M  V30 8731 H 820.044 2.49291 -1.87778 0
M  V30 8732 N 820.346 1.18468 1.03938 0
M  V30 8733 C 821.592 0.982286 1.77423 0
M  V30 8734 C 821.925 -0.48679 1.88 0
M  V30 8735 O 821.2 -1.36146 1.38905 0
M  V30 8736 C 821.483 1.63929 3.20623 0
M  V30 8737 C 821.336 3.18132 3.17982 0
M  V30 8738 C 822.655 1.3536 4.18767 0
M  V30 8739 H 819.774 0.358264 0.644062 0
M  V30 8740 H 822.416 1.46154 1.21405 0
M  V30 8741 H 820.566 1.2318 3.68455 0
M  V30 8742 H 822.238 3.68024 2.78129 0
M  V30 8743 H 820.481 3.50225 2.55978 0
M  V30 8744 H 821.152 3.5924 4.19107 0
M  V30 8745 H 823.628 1.70669 3.79488 0
M  V30 8746 H 822.504 1.83896 5.17178 0
M  V30 8747 H 822.765 0.276722 4.41233 0
M  V30 8748 N 821.824 -1.22873 0.986916 0
M  V30 8749 C 823.235 -1.73264 0.695438 0
M  V30 8750 C 823.586 -1.79679 -0.788023 0
M  V30 8751 O 822.711 -1.43905 -1.61618 0
M  V30 8752 C 823.306 -3.14671 1.2557 0
M  V30 8753 C 821.865 -3.62492 1.01373 0
M  V30 8754 C 821.012 -2.40551 1.37951 0
M  V30 8755 H 823.963 -1.08304 1.15999 0
M  V30 8756 H 823.984 -3.75226 0.631322 0
M  V30 8757 H 823.496 -3.0997 2.33539 0
M  V30 8758 H 821.597 -3.72567 -0.0495917 0
M  V30 8759 H 821.71 -4.48944 1.67289 0
M  V30 8760 H 820.074 -2.41875 0.798033 0
M  V30 8761 H 820.857 -2.38516 2.46911 0
M  V30 8762 N 823.302 -0.75937 -1.38099 0
M  V30 8763 C 824.265 -0.14372 -2.28749 0
M  V30 8764 C 825.265 0.641338 -1.47457 0
M  V30 8765 O 826.455 0.466751 -1.67831 0
M  V30 8766 C 823.587 0.804545 -3.3127 0
M  V30 8767 H 824.78 -0.942663 -2.847 0
M  V30 8768 H 822.333 -0.526757 -1.47156 0
M  V30 8769 H 823.068 1.62895 -2.80421 0
M  V30 8770 H 822.853 0.243939 -3.9134 0
M  V30 8771 H 824.343 1.23111 -3.99041 0
M  V30 8772 N 824.78 1.49157 -0.508906 0
M  V30 8773 C 825.69 2.33045 0.269656 0
M  V30 8774 C 826.706 1.45143 0.959662 0
M  V30 8775 O 827.882 1.78155 0.939295 0
M  V30 8776 C 824.947 3.20772 1.31554 0
M  V30 8777 C 824.008 4.24531 0.638131 0
M  V30 8778 C 823.241 5.08065 1.63418 0
M  V30 8779 O 823.464 4.93238 2.86483 0
M  V30 8780 O 822.398 5.90117 1.18516 0
M  V30 8781 H 826.224 3.00821 -0.417183 0
M  V30 8782 H 823.809 1.46938 -0.270119 0
M  V30 8783 H 825.691 3.75095 1.92047 0
M  V30 8784 H 824.366 2.55681 1.98516 0
M  V30 8785 H 823.273 3.74099 -0.00674357 0
M  V30 8786 H 824.606 4.92199 0.0108155 0
M  V30 8787 N 826.258 0.243083 1.55714 0
M  V30 8788 C 827.506 -0.381964 1.98458 0
M  V30 8789 C 827.827 -1.58745 1.13247 0
M  V30 8790 O 827.097 -1.94723 0.214384 0
M  V30 8791 H 825.677 -0.144114 0.732967 0
M  V30 8792 H 828.339 0.340985 1.91894 0
M  V30 8793 H 827.435 -0.693702 3.04293 0
M  V30 8794 N 827.736 -1.57571 -0.0300757 0
M  V30 8795 C 828.666 -2.0953 -1.03051 0
M  V30 8796 C 829.647 -0.99761 -1.37774 0
M  V30 8797 O 830.832 -1.27279 -1.46676 0
M  V30 8798 C 827.962 -2.57385 -2.33174 0
M  V30 8799 C 826.916 -3.71409 -2.12696 0
M  V30 8800 C 826.242 -4.05467 -3.4857 0
M  V30 8801 C 827.542 -4.99877 -1.51396 0
M  V30 8802 H 829.236 -2.93367 -0.597999 0
M  V30 8803 H 826.782 -1.41127 -0.286203 0
M  V30 8804 H 828.735 -2.92355 -3.03491 0
M  V30 8805 H 827.459 -1.70629 -2.78484 0
M  V30 8806 H 826.118 -3.36786 -1.44813 0
M  V30 8807 H 825.766 -3.15779 -3.91526 0
M  V30 8808 H 825.466 -4.82269 -3.35694 0
M  V30 8809 H 826.99 -4.4297 -4.2025 0
M  V30 8810 H 828.404 -5.3281 -2.11629 0
M  V30 8811 H 826.801 -5.81283 -1.49098 0
M  V30 8812 H 827.871 -4.82522 -0.479676 0
M  V30 8813 N 829.214 0.302327 -1.54673 0
M  V30 8814 C 830.439 1.06103 -1.78205 0
M  V30 8815 C 830.864 1.80204 -0.53926 0
M  V30 8816 O 830.222 1.73975 0.510142 0
M  V30 8817 C 830.27 2.01829 -2.98827 0
M  V30 8818 O 829.374 3.10108 -2.71858 0
M  V30 8819 H 828.715 0.30487 -0.589873 0
M  V30 8820 H 831.245 0.340153 -2.01753 0
M  V30 8821 H 831.255 2.44319 -3.2676 0
M  V30 8822 H 829.93 1.473 -3.88942 0
M  V30 8823 H 828.507 2.72142 -2.54937 0
M  V30 8824 N 830.692 1.47107 0.565454 0
M  V30 8825 C 832.108 1.32443 0.890566 0
M  V30 8826 C 832.308 0.308735 1.99121 0
M  V30 8827 O 831.364 -0.28265 2.50913 0
M  V30 8828 C 832.677 2.71548 1.2916 0
M  V30 8829 C 834.225 2.7977 1.40349 0
M  V30 8830 C 834.7 4.19497 1.83811 0
M  V30 8831 N 836.191 4.21998 1.90975 0
M  V30 8832 C 836.926 5.2702 2.25916 0
M  V30 8833 N 836.422 6.42353 2.59527 0
M  V30 8834 N 838.215 5.14393 2.26619 0
M  V30 8835 H 830.366 2.11786 -0.161328 0
M  V30 8836 H 832.629 0.947952 -0.00950631 0
M  V30 8837 H 832.335 3.47265 0.556753 0
M  V30 8838 H 832.209 3.02782 2.24951 0
M  V30 8839 H 834.596 2.0433 2.12916 0
M  V30 8840 H 834.677 2.522 0.427655 0
M  V30 8841 H 834.321 4.95439 1.11816 0
M  V30 8842 H 834.251 4.44486 2.82382 0
M  V30 8843 H 836.742 3.38791 1.6742 0
M  V30 8844 H 837.055 7.18252 2.85191 0
M  V30 8845 H 835.4 6.45687 2.57126 0
M  V30 8846 H 838.591 4.2332 1.99794 0
M  V30 8847 H 838.764 5.96349 2.5352 0
M  V30 8848 N 832.17 -0.811516 1.35101 0
M  V30 8849 C 833.395 -1.60499 1.31358 0
M  V30 8850 C 833.82 -1.87793 -0.107383 0
M  V30 8851 O 833.178 -1.46161 -1.07268 0
M  V30 8852 C 833.226 -2.91612 2.12119 0
M  V30 8853 O 832.33 -3.84211 1.49853 0
M  V30 8854 H 831.671 -0.487702 0.450603 0
M  V30 8855 H 834.201 -1.00758 1.7807 0
M  V30 8856 H 834.211 -3.4108 2.23894 0
M  V30 8857 H 832.886 -2.71071 3.15426 0
M  V30 8858 H 831.463 -3.42751 1.46889 0
M  V30 8859 N 833.648 -1.19017 -1.03309 0
M  V30 8860 C 834.878 -1.01387 -1.80012 0
M  V30 8861 C 835.286 0.440655 -1.83997 0
M  V30 8862 O 834.629 1.31786 -1.27977 0
M  V30 8863 C 834.691 -1.50171 -3.26633 0
M  V30 8864 C 834.355 -2.98213 -3.46292 0
M  V30 8865 C 835.352 -3.96009 -3.36857 0
M  V30 8866 C 833.037 -3.36812 -3.72643 0
M  V30 8867 C 835.031 -5.30399 -3.5349 0
M  V30 8868 C 832.718 -4.71363 -3.88922 0
M  V30 8869 C 833.716 -5.67966 -3.79347 0
M  V30 8870 O 833.404 -7.00079 -3.95151 0
M  V30 8871 H 833.136 -0.357899 -0.573484 0
M  V30 8872 H 835.69 -1.58171 -1.31039 0
M  V30 8873 H 833.92 -0.877586 -3.7661 0
M  V30 8874 H 835.609 -1.28814 -3.84918 0
M  V30 8875 H 836.375 -3.67534 -3.16455 0
M  V30 8876 H 832.254 -2.62175 -3.7919 0
M  V30 8877 H 835.798 -6.05786 -3.45933 0
M  V30 8878 H 831.695 -4.99536 -4.0882 0
M  V30 8879 H 832.463 -7.07092 -4.12266 0
M  V30 8880 N 835.127 1.22348 -0.993418 0
M  V30 8881 C 836.352 1.95666 -0.687727 0
M  V30 8882 C 836.777 1.72883 0.741161 0
M  V30 8883 O 836.135 1.00837 1.50671 0
M  V30 8884 C 836.183 3.46457 -0.99998 0
M  V30 8885 O 835.287 4.12281 -0.0989386 0
M  V30 8886 H 834.628 0.612102 -0.257346 0
M  V30 8887 H 837.158 1.55428 -1.33054 0
M  V30 8888 H 837.168 3.96976 -0.942035 0
M  V30 8889 H 835.843 3.62365 -2.04118 0
M  V30 8890 H 834.42 3.72295 -0.212413 0
M  V30 8891 N 836.605 0.766683 1.37694 0
M  V30 8892 C 838.021 0.445739 1.53249 0
M  V30 8893 C 838.221 -1.03935 1.72626 0
M  V30 8894 O 837.277 -1.82525 1.74473 0
M  V30 8895 C 838.59 1.2564 2.73194 0
M  V30 8896 C 840.138 1.24779 2.87053 0
M  V30 8897 C 840.613 2.04169 4.09974 0
M  V30 8898 N 842.104 2.01497 4.17077 0
M  V30 8899 C 842.839 2.5971 5.11212 0
M  V30 8900 N 842.335 3.26691 6.10938 0
M  V30 8901 N 844.128 2.49568 5.03659 0
M  V30 8902 H 836.279 1.72899 1.23368 0
M  V30 8903 H 838.542 0.733701 0.600322 0
M  V30 8904 H 838.248 2.30859 2.65324 0
M  V30 8905 H 838.122 0.882133 3.6674 0
M  V30 8906 H 840.509 0.203603 2.94397 0
M  V30 8907 H 840.59 1.66166 1.9448 0
M  V30 8908 H 840.234 3.08606 4.03392 0
M  V30 8909 H 840.164 1.60167 5.01651 0
M  V30 8910 H 842.655 1.52728 3.45662 0
M  V30 8911 H 842.968 3.68497 6.79286 0
M  V30 8912 H 841.313 3.30789 6.11231 0
M  V30 8913 H 844.504 1.96859 4.24693 0
M  V30 8914 H 844.677 2.95231 5.76839 0
M  V30 8915 N 838.083 -1.48885 0.516809 0
M  V30 8916 C 839.494 -1.86557 0.0729921 0
M  V30 8917 C 839.845 -1.42767 -1.34581 0
M  V30 8918 O 838.97 -0.812514 -2.00567 0
M  V30 8919 C 839.565 -3.38567 0.125686 0
M  V30 8920 C 838.124 -3.75481 -0.262867 0
M  V30 8921 C 837.271 -2.72913 0.491281 0
M  V30 8922 H 840.222 -1.40978 0.728767 0
M  V30 8923 H 840.243 -3.74629 -0.665831 0
M  V30 8924 H 839.755 -3.70408 1.15842 0
M  V30 8925 H 837.856 -3.49251 -1.29824 0
M  V30 8926 H 837.969 -4.79052 0.067579 0
M  V30 8927 H 836.333 -2.54627 -0.0608525 0
M  V30 8928 H 837.116 -3.07599 1.5244 0
M  V30 8929 N 839.561 -0.251338 -1.55583 0
M  V30 8930 C 840.786 0.379136 -2.03905 0
M  V30 8931 C 841.211 1.50428 -1.12929 0
M  V30 8932 O 840.569 1.80882 -0.123114 0
M  V30 8933 C 840.617 0.86009 -3.50193 0
M  V30 8934 O 839.721 1.96932 -3.62342 0
M  V30 8935 H 839.062 0.0820183 -0.658915 0
M  V30 8936 H 841.592 -0.378692 -2.01065 0
M  V30 8937 H 841.602 1.16214 -3.91099 0
M  V30 8938 H 840.277 0.0367559 -4.15884 0
M  V30 8939 H 838.854 1.67163 -3.33333 0
M  V30 8940 N 841.039 1.57585 0.0217189 0
M  V30 8941 C 842.264 1.94267 0.726309 0
M  V30 8942 C 842.689 0.851904 1.67703 0
M  V30 8943 O 842.047 -0.191792 1.80283 0
M  V30 8944 C 842.095 3.30023 1.45318 0
M  V30 8945 O 841.199 3.22791 2.5667 0
M  V30 8946 H 840.54 0.634777 0.194818 0
M  V30 8947 H 843.07 2.04585 -0.0249985 0
M  V30 8948 H 843.08 3.65084 1.82147 0
M  V30 8949 H 841.755 4.08972 0.755962 0
M  V30 8950 H 840.332 2.99373 2.2233 0
M  V30 8951 N 842.517 -0.29412 1.54831 0
M  V30 8952 C 843.763 -1.02999 1.74697 0
M  V30 8953 C 844.096 -1.86687 0.534949 0
M  V30 8954 O 843.371 -1.88789 -0.467863 0
M  V30 8955 C 843.654 -1.93024 3.03996 0
M  V30 8956 C 843.507 -1.1247 4.35512 0
M  V30 8957 C 844.826 -2.92085 3.29203 0
M  V30 8958 H 841.945 -0.373039 0.635618 0
M  V30 8959 H 844.587 -0.304065 1.87551 0
M  V30 8960 H 842.737 -2.5492 2.93169 0
M  V30 8961 H 844.409 -0.528067 4.58268 0
M  V30 8962 H 842.652 -0.427574 4.31688 0
M  V30 8963 H 843.323 -1.78728 5.22265 0
M  V30 8964 H 845.799 -2.40319 3.39685 0
M  V30 8965 H 844.675 -3.52234 4.20978 0
M  V30 8966 H 844.936 -3.66107 2.47827 0
M  V30 8967 N 843.995 -1.47404 -0.557645 0
M  V30 8968 C 845.244 -1.53268 -1.31118 0
M  V30 8969 C 845.557 -0.199414 -1.94581 0
M  V30 8970 O 846.763 -0.136039 -2.71159 0
M  V30 8971 C 845.219 -2.70178 -2.37764 0
M  V30 8972 C 844.827 -4.10032 -1.80493 0
M  V30 8973 C 846.571 -2.85334 -3.14301 0
M  V30 8974 C 844.478 -5.18244 -2.84916 0
M  V30 8975 H 843.408 -0.570491 -0.493007 0
M  V30 8976 H 846.059 -1.73678 -0.592308 0
M  V30 8977 H 844.441 -2.43147 -3.12563 0
M  V30 8978 H 845.615 -4.46964 -1.12069 0
M  V30 8979 H 843.93 -3.99759 -1.16542 0
M  V30 8980 H 846.527 -3.63347 -3.92279 0
M  V30 8981 H 846.87 -1.93761 -3.68459 0
M  V30 8982 H 847.403 -3.12133 -2.46613 0
M  V30 8983 H 844.142 -6.11691 -2.35614 0
M  V30 8984 H 843.662 -4.85829 -3.51753 0
M  V30 8985 H 845.341 -5.45174 -3.48417 0
M  V30 8986 N 845.473 0.80434 -1.35529 0
M  V30 8987 C 846.698 1.598 -1.32207 0
M  V30 8988 C 847.123 1.87848 0.0974226 0
M  V30 8989 O 846.481 1.46728 1.06492 0
M  V30 8990 C 846.529 2.90483 -2.13663 0
M  V30 8991 O 845.633 3.83411 -1.51888 0
M  V30 8992 H 844.974 0.485305 -0.453183 0
M  V30 8993 H 847.504 0.998119 -1.78602 0
M  V30 8994 H 847.514 3.39888 -2.257 0
M  V30 8995 H 846.189 2.69395 -3.16859 0
M  V30 8996 H 844.766 3.41967 -1.48704 0
M  V30 8997 N 846.951 1.19563 1.02676 0
M  V30 8998 C 848.228 0.908857 1.73203 0
M  V30 8999 C 848.608 -0.584928 2.02834 0
M  V30 9000 O 847.956 -1.54372 1.68469 0
M  V30 9001 C 848.166 1.77105 3.00724 0
M  V30 9002 C 849.514 2.00667 3.7419 0
M  V30 9003 O 850.538 1.74274 3.10656 0
M  V30 9004 O 849.397 2.4518 4.88415 0
M  V30 9005 H 846.491 0.338909 0.754367 0
M  V30 9006 H 849.037 1.30387 1.08616 0
M  V30 9007 H 847.809 2.78303 2.7507 0
M  V30 9008 H 847.432 1.37546 3.73051 0
M  V30 9009 N 848.429 -1.21819 0.999893 0
M  V30 9010 C 849.706 -1.86318 0.595384 0
M  V30 9011 C 850.086 -1.8965 -0.927143 0
M  V30 9012 O 849.434 -1.3921 -1.81199 0
M  V30 9013 C 849.644 -3.26837 1.22387 0
M  V30 9014 C 850.992 -4.03272 1.32878 0
M  V30 9015 O 852.016 -3.36129 1.1788 0
M  V30 9016 O 850.875 -5.23477 1.56952 0
M  V30 9017 H 847.969 -0.801638 0.203238 0
M  V30 9018 H 850.515 -1.29542 1.09622 0
M  V30 9019 H 849.287 -3.19084 2.26497 0
M  V30 9020 H 848.91 -3.91226 0.709069 0
M  V30 9021 N 849.908 -0.773975 -1.37286 0
M  V30 9022 C 851.133 -0.349561 -2.04433 0
M  V30 9023 C 851.558 1.02082 -1.5799 0
M  V30 9024 O 850.916 1.65458 -0.741172 0
M  V30 9025 C 850.964 -0.404292 -3.58326 0
M  V30 9026 O 850.068 0.594447 -4.08093 0
M  V30 9027 H 849.409 -0.150959 -0.646612 0
M  V30 9028 H 851.939 -1.05079 -1.75555 0
M  V30 9029 H 851.949 -0.262378 -4.07155 0
M  V30 9030 H 850.624 -1.40403 -3.91484 0
M  V30 9031 H 849.201 0.415468 -3.70578 0
M  V30 9032 N 851.386 1.48609 -0.524698 0
M  V30 9033 C 852.632 2.02797 0.0113382 0
M  V30 9034 C 852.965 1.40147 1.34433 0
M  V30 9035 O 852.24 0.545368 1.86698 0
M  V30 9036 C 852.523 3.59832 0.138931 0
M  V30 9037 C 852.376 4.32971 -1.21886 0
M  V30 9038 C 853.695 4.3145 0.868265 0
M  V30 9039 H 850.814 0.736995 0.00264645 0
M  V30 9040 H 853.456 1.77388 -0.680704 0
M  V30 9041 H 851.606 3.81612 0.72834 0
M  V30 9042 H 853.278 4.22624 -1.84897 0
M  V30 9043 H 851.521 3.94597 -1.80211 0
M  V30 9044 H 852.192 5.41279 -1.08263 0
M  V30 9045 H 854.668 4.14468 0.368145 0
M  V30 9046 H 853.544 5.41025 0.926428 0
M  V30 9047 H 853.805 3.98358 1.91737 0
M  V30 9048 N 852.864 0.259585 1.55447 0
M  V30 9049 C 853.794 -0.62852 2.24882 0
M  V30 9050 C 854.775 -1.17128 1.23349 0
M  V30 9051 O 855.96 -1.20829 1.52033 0
M  V30 9052 C 853.09 -1.81983 2.95803 0
M  V30 9053 C 852.044 -1.40929 4.04132 0
M  V30 9054 C 851.37 -2.68246 4.62545 0
M  V30 9055 C 852.67 -0.570956 5.1917 0
M  V30 9056 H 854.364 -0.0495021 2.99359 0
M  V30 9057 H 851.91 -0.0223688 1.43983 0
M  V30 9058 H 853.863 -2.44689 3.43082 0
M  V30 9059 H 852.587 -2.42444 2.18835 0
M  V30 9060 H 851.246 -0.805519 3.57641 0
M  V30 9061 H 850.894 -3.26931 3.82263 0
M  V30 9062 H 850.594 -2.41495 5.35681 0
M  V30 9063 H 852.118 -3.31827 5.12565 0
M  V30 9064 H 853.532 -1.10262 5.62597 0
M  V30 9065 H 851.929 -0.398979 5.98772 0
M  V30 9066 H 852.999 0.413918 4.8313 0
M  V30 9067 N 854.342 -1.57594 -0.0133615 0
M  V30 9068 C 855.567 -1.94649 -0.715996 0
M  V30 9069 C 855.992 -0.860786 -1.67249 0
M  V30 9070 O 855.35 0.182228 -1.80382 0
M  V30 9071 C 855.398 -3.30789 -1.43566 0
M  V30 9072 O 854.502 -3.24148 -2.54955 0
M  V30 9073 H 853.843 -0.635801 -0.191449 0
M  V30 9074 H 856.373 -2.04569 0.0358478 0
M  V30 9075 H 856.383 -3.66045 -1.80208 0
M  V30 9076 H 855.058 -4.09367 -0.734263 0
M  V30 9077 H 853.635 -3.00548 -2.20739 0
M  V30 9078 N 855.82 0.285905 -1.54985 0
M  V30 9079 C 857.045 1.04207 -1.7932 0
M  V30 9080 C 857.47 1.79622 -0.558343 0
M  V30 9081 O 856.828 1.74506 0.491661 0
M  V30 9082 C 856.876 1.98648 -3.0095 0
M  V30 9083 O 855.98 3.07207 -2.75132 0
M  V30 9084 H 855.321 0.298596 -0.593074 0
M  V30 9085 H 857.851 0.318736 -2.02102 0
M  V30 9086 H 857.861 2.4084 -3.29333 0
M  V30 9087 H 856.536 1.43167 -3.90482 0
M  V30 9088 H 855.113 2.69423 -2.57809 0
M  V30 9089 N 857.298 1.47698 0.54982 0
M  V30 9090 C 858.575 1.45185 1.31075 0
M  V30 9091 C 858.955 0.152768 2.10547 0
M  V30 9092 O 858.303 -0.865706 2.11466 0
M  V30 9093 C 858.513 2.70192 2.20902 0
M  V30 9094 C 859.861 3.1771 2.81683 0
M  V30 9095 O 860.885 2.70971 2.312 0
M  V30 9096 O 859.744 3.98986 3.7346 0
M  V30 9097 H 856.838 0.57892 0.590577 0
M  V30 9098 H 859.384 1.59908 0.568112 0
M  V30 9099 H 858.156 3.56269 1.61828 0
M  V30 9100 H 857.779 2.58091 3.02448 0
M  V30 9101 N 858.776 -0.797141 1.35954 0
M  V30 9102 C 860.001 -1.59097 1.33053 0
M  V30 9103 C 860.426 -1.87897 -0.0874592 0
M  V30 9104 O 859.784 -1.47291 -1.05712 0
M  V30 9105 C 859.832 -2.89346 2.152 0
M  V30 9106 O 858.936 -3.826 1.5392 0
M  V30 9107 H 858.277 -0.482895 0.45575 0
M  V30 9108 H 860.807 -0.988633 1.79129 0
M  V30 9109 H 860.817 -3.38686 2.27499 0
M  V30 9110 H 859.492 -2.6771 3.18283 0
M  V30 9111 H 858.069 -3.41174 1.50516 0
M  V30 9112 N 860.254 -1.20106 -1.0204 0
M  V30 9113 C 861.501 -1.00889 -1.75578 0
M  V30 9114 C 861.829 0.459415 -1.88996 0
M  V30 9115 O 861.084 1.35735 -1.40977 0
M  V30 9116 C 861.383 -1.63308 -3.17908 0
M  V30 9117 C 861.049 -3.13091 -3.24476 0
M  V30 9118 C 859.711 -3.53968 -3.25976 0
M  V30 9119 C 862.063 -4.09093 -3.22944 0
M  V30 9120 C 859.391 -4.89381 -3.2361 0
M  V30 9121 C 861.743 -5.44447 -3.22119 0
M  V30 9122 C 860.407 -5.84742 -3.2192 0
M  V30 9123 H 859.677 -0.36918 -0.642485 0
M  V30 9124 H 862.324 -1.49475 -1.19706 0
M  V30 9125 H 860.629 -1.06974 -3.76914 0
M  V30 9126 H 862.326 -1.45958 -3.73493 0
M  V30 9127 H 858.916 -2.80526 -3.24042 0
M  V30 9128 H 863.1 -3.78549 -3.20958 0
M  V30 9129 H 858.356 -5.1987 -3.21785 0
M  V30 9130 H 862.53 -6.18584 -3.19885 0
M  V30 9131 H 860.157 -6.89642 -3.19841 0
M  V30 9132 N 861.732 1.21287 -1.00634 0
M  V30 9133 C 863.009 1.86 -0.605257 0
M  V30 9134 C 863.389 1.90139 0.917072 0
M  V30 9135 O 862.737 1.40169 1.80458 0
M  V30 9136 C 862.947 3.26183 -1.24119 0
M  V30 9137 C 864.295 4.02562 -1.35015 0
M  V30 9138 O 865.319 3.35499 -1.19661 0
M  V30 9139 O 864.178 5.22638 -1.59726 0
M  V30 9140 H 861.272 0.800549 -0.207486 0
M  V30 9141 H 863.818 1.28959 -1.10307 0
M  V30 9142 H 862.59 3.17878 -2.28186 0
M  V30 9143 H 862.213 3.90845 -0.729807 0
M  V30 9144 N 863.21 0.781244 1.36873 0
M  V30 9145 C 864.14 0.188128 2.32741 0
M  V30 9146 C 865.121 -0.672326 1.56249 0
M  V30 9147 O 866.306 -0.607835 1.84442 0
M  V30 9148 C 863.436 -0.684341 3.40491 0
M  V30 9149 C 862.39 0.0755641 4.27933 0
M  V30 9150 C 861.716 -0.916968 5.26779 0
M  V30 9151 C 863.016 1.26006 5.06873 0
M  V30 9152 H 864.71 0.989016 2.82593 0
M  V30 9153 H 862.256 0.477038 1.35869 0
M  V30 9154 H 864.209 -1.10915 4.06541 0
M  V30 9155 H 862.933 -1.51785 2.89187 0
M  V30 9156 H 861.592 0.481258 3.63427 0
M  V30 9157 H 861.24 -1.74528 4.71751 0
M  V30 9158 H 860.94 -0.413 5.86147 0
M  V30 9159 H 862.464 -1.34052 5.95703 0
M  V30 9160 H 863.878 0.911425 5.66009 0
M  V30 9161 H 862.275 1.69676 5.75613 0
M  V30 9162 H 863.345 2.05948 4.38991 0
M  V30 9163 N 864.689 -1.48329 0.532571 0
M  V30 9164 C 865.619 -2.32485 -0.217511 0
M  V30 9165 C 866.6 -1.42255 -0.932598 0
M  V30 9166 O 867.785 -1.7114 -0.917873 0
M  V30 9167 C 864.915 -3.23509 -1.26329 0
M  V30 9168 C 863.869 -4.22784 -0.666191 0
M  V30 9169 C 863.195 -5.0296 -1.81482 0
M  V30 9170 C 864.495 -5.21031 0.363813 0
M  V30 9171 H 866.189 -2.95445 0.485014 0
M  V30 9172 H 863.735 -1.42075 0.234694 0
M  V30 9173 H 865.688 -3.81211 -1.79601 0
M  V30 9174 H 864.412 -2.58554 -1.99543 0
M  V30 9175 H 863.071 -3.66272 -0.15498 0
M  V30 9176 H 862.719 -4.34427 -2.5354 0
M  V30 9177 H 862.419 -5.70154 -1.4212 0
M  V30 9178 H 863.943 -5.63514 -2.35126 0
M  V30 9179 H 865.357 -5.73241 -0.0819079 0
M  V30 9180 H 863.754 -5.96292 0.674956 0
M  V30 9181 H 864.824 -4.6801 1.26865 0
M  V30 9182 N 866.167 -0.267825 -1.55308 0
M  V30 9183 C 867.444 0.402449 -1.91415 0
M  V30 9184 C 867.824 1.7428 -1.1912 0
M  V30 9185 O 867.172 2.2631 -0.315609 0
M  V30 9186 C 867.382 0.549926 -3.4464 0
M  V30 9187 C 868.73 0.836188 -4.16285 0
M  V30 9188 O 869.754 0.635009 -3.50494 0
M  V30 9189 O 868.613 1.22051 -5.32697 0
M  V30 9190 H 865.707 0.219177 -0.797427 0
M  V30 9191 H 868.253 -0.313439 -1.6678 0
M  V30 9192 H 867.025 -0.393641 -3.89315 0
M  V30 9193 H 866.648 1.31556 -3.75205 0
M  V30 9194 N 867.645 1.57599 0.00500368 0
M  V30 9195 C 868.575 2.11143 0.99705 0
M  V30 9196 C 869.556 1.0194 1.3617 0
M  V30 9197 O 870.741 1.29596 1.44632 0
M  V30 9198 C 867.871 2.61062 2.2905 0
M  V30 9199 C 866.825 3.74745 2.0676 0
M  V30 9200 C 866.151 4.10961 3.42075 0
M  V30 9201 C 867.451 5.02222 1.43424 0
M  V30 9202 H 869.145 2.94281 0.551251 0
M  V30 9203 H 866.691 1.41565 0.263715 0
M  V30 9204 H 868.644 2.97146 2.98801 0
M  V30 9205 H 867.368 1.75038 2.75734 0
M  V30 9206 H 866.027 3.39047 1.39436 0
M  V30 9207 H 865.675 3.21968 3.86453 0
M  V30 9208 H 865.375 4.87549 3.27979 0
M  V30 9209 H 866.899 4.49599 4.1315 0
M  V30 9210 H 868.313 5.36109 2.03125 0
M  V30 9211 H 866.71 5.83581 1.39831 0
M  V30 9212 H 867.78 4.83224 0.40285 0
M  V30 9213 N 869.123 -0.277682 1.55134 0
M  V30 9214 C 870.055 -1.36531 1.84098 0
M  V30 9215 C 871.068 -1.45756 0.725194 0
M  V30 9216 O 872.257 -1.47656 1.00299 0
M  V30 9217 C 869.357 -2.74701 1.98476 0
M  V30 9218 C 868.53 -2.88125 3.29094 0
M  V30 9219 C 867.589 -4.0694 3.33596 0
M  V30 9220 O 866.615 -3.9792 4.06999 0
M  V30 9221 N 867.817 -5.18687 2.60661 0
M  V30 9222 H 870.582 -1.12032 2.77973 0
M  V30 9223 H 868.143 -0.467793 1.54995 0
M  V30 9224 H 870.135 -3.52471 1.98863 0
M  V30 9225 H 868.705 -2.92043 1.11488 0
M  V30 9226 H 867.925 -1.97277 3.41285 0
M  V30 9227 H 869.213 -2.94021 4.15246 0
M  V30 9228 H 868.611 -5.28901 2.00699 0
M  V30 9229 H 867.168 -5.94705 2.66776 0
M  V30 9230 N 870.601 -1.47988 -0.541979 0
M  V30 9231 C 871.511 -1.64276 -1.67483 0
M  V30 9232 C 872.527 -0.525387 -1.65879 0
M  V30 9233 O 873.703 -0.794912 -1.85049 0
M  V30 9234 C 870.768 -1.66744 -3.03969 0
M  V30 9235 C 869.829 -2.90021 -3.16522 0
M  V30 9236 C 869.062 -2.92362 -4.46498 0
M  V30 9237 O 869.285 -2.03462 -5.32878 0
M  V30 9238 O 868.219 -3.84399 -4.63164 0
M  V30 9239 H 872.045 -2.60164 -1.5668 0
M  V30 9240 H 869.63 -1.31249 -0.71372 0
M  V30 9241 H 871.512 -1.70958 -3.85164 0
M  V30 9242 H 870.187 -0.740277 -3.15122 0
M  V30 9243 H 869.094 -2.91345 -2.34667 0
M  V30 9244 H 870.427 -3.82082 -3.10281 0
M  V30 9245 N 872.079 0.78992 -1.36375 0
M  V30 9246 C 873.027 1.92394 -1.30719 0
M  V30 9247 C 874.021 1.68226 -0.199076 0
M  V30 9248 O 875.227 1.76239 -0.366051 0
M  V30 9249 H 871.602 0.632382 -0.406936 0
M  V30 9250 H 873.573 1.94282 -2.26488 0
M  V30 9251 C 872.322 3.2941 -1.11284 0
M  V30 9252 H 871.645 3.48573 -1.95798 0
M  V30 9253 H 873.085 4.09111 -1.11373 0
M  V30 9254 C 871.544 3.36405 0.182543 0
M  V30 9255 O 872.074 3.84206 1.17255 0
M  V30 9256 N 870.28 2.89712 0.227046 0
M  V30 9257 H 869.827 2.51004 -0.579217 0
M  V30 9258 H 869.785 2.94773 1.09344 0
M  V30 9259 N 873.557 1.20646 1.01402 0
M  V30 9260 C 874.973 0.961866 1.27359 0
M  V30 9261 C 875.173 -0.357083 1.98311 0
M  V30 9262 O 874.229 -1.08498 2.28001 0
M  V30 9263 C 875.542 2.14627 2.10609 0
M  V30 9264 C 877.09 2.18753 2.23866 0
M  V30 9265 C 877.565 3.36686 3.10494 0
M  V30 9266 N 879.056 3.36716 3.18083 0
M  V30 9267 C 879.791 4.24615 3.85343 0
M  V30 9268 N 879.287 5.22697 4.54708 0
M  V30 9269 N 881.08 4.12449 3.81893 0
M  V30 9270 H 873.231 2.05481 0.537721 0
M  V30 9271 H 875.494 0.899292 0.299963 0
M  V30 9272 H 875.2 3.10159 1.65814 0
M  V30 9273 H 875.074 2.12935 3.11349 0
M  V30 9274 H 877.461 1.23782 2.67885 0
M  V30 9275 H 877.542 2.24492 1.22626 0
M  V30 9276 H 877.186 4.31945 2.67181 0
M  V30 9277 H 877.116 3.28185 4.11828 0
M  V30 9278 H 879.607 2.65728 2.68695 0
M  V30 9279 H 879.92 5.86087 5.03708 0
M  V30 9280 H 878.265 5.26631 4.53525 0
M  V30 9281 H 881.456 3.35091 3.26851 0
M  V30 9282 H 881.629 4.81162 4.34035 0
M  V30 9283 N 875.035 -1.20752 1.01276 0
M  V30 9284 C 876.446 -1.7175 0.732033 0
M  V30 9285 C 876.797 -1.8131 -0.749733 0
M  V30 9286 O 875.922 -1.47301 -1.58529 0
M  V30 9287 C 876.517 -3.11936 1.32217 0
M  V30 9288 C 875.076 -3.6026 1.09039 0
M  V30 9289 C 874.223 -2.37571 1.43022 0
M  V30 9290 H 877.174 -1.0582 1.1827 0
M  V30 9291 H 877.195 -3.73802 0.710771 0
M  V30 9292 H 876.707 -3.04946 2.40061 0
M  V30 9293 H 874.808 -3.72588 0.0294464 0
M  V30 9294 H 874.921 -4.45295 1.76775 0
M  V30 9295 H 873.285 -2.40128 0.849159 0
M  V30 9296 H 874.068 -2.33225 2.51915 0
M  V30 9297 N 876.513 -0.788492 -1.36457 0
M  V30 9298 C 877.476 -0.192209 -2.28393 0
M  V30 9299 C 878.476 0.609916 -1.48784 0
M  V30 9300 O 879.666 0.431046 -1.68783 0
M  V30 9301 C 876.798 0.734096 -3.32902 0
M  V30 9302 H 877.991 -1.00284 -2.82636 0
M  V30 9303 H 875.544 -0.557852 -1.46006 0
M  V30 9304 H 876.279 1.5691 -2.83813 0
M  V30 9305 H 876.064 0.160875 -3.9177 0
M  V30 9306 H 877.554 1.1462 -4.01562 0
M  V30 9307 N 877.991 1.48044 -0.54043 0
M  V30 9308 C 879.407 1.58354 -0.199006 0
M  V30 9309 C 879.607 1.54118 1.29807 0
M  V30 9310 O 878.663 1.43573 2.07709 0
M  V30 9311 C 879.976 2.89563 -0.810797 0
M  V30 9312 C 881.524 3.03113 -0.780486 0
M  V30 9313 C 881.999 4.36997 -1.37104 0
M  V30 9314 N 883.49 4.43591 -1.33347 0
M  V30 9315 C 884.225 5.45714 -1.76021 0
M  V30 9316 N 883.721 6.54738 -2.26473 0
M  V30 9317 N 885.514 5.36659 -1.67194 0
M  V30 9318 H 877.665 1.49041 -1.51329 0
M  V30 9319 H 879.928 0.708309 -0.630081 0
M  V30 9320 H 879.634 2.9835 -1.86227 0
M  V30 9321 H 879.508 3.76053 -0.293977 0
M  V30 9322 H 881.895 2.93932 0.262246 0
M  V30 9323 H 881.976 2.18207 -1.33489 0
M  V30 9324 H 881.62 4.46932 -2.41276 0
M  V30 9325 H 881.55 5.20607 -0.792229 0
M  V30 9326 H 884.041 3.65391 -0.964259 0
M  V30 9327 H 884.354 7.28814 -2.57002 0
M  V30 9328 H 882.699 6.55673 -2.30473 0
M  V30 9329 H 885.89 4.50382 -1.27569 0
M  V30 9330 H 886.063 6.16113 -2.00771 0
M  V30 9331 N 879.47 0.276058 1.55163 0
M  V30 9332 C 880.402 -0.644254 2.19959 0
M  V30 9333 C 881.415 -1.11675 1.18459 0
M  V30 9334 O 882.604 -1.0385 1.45181 0
M  V30 9335 C 879.704 -1.89093 2.81242 0
M  V30 9336 C 878.877 -1.56509 4.08441 0
M  V30 9337 C 877.936 -2.66433 4.53762 0
M  V30 9338 O 876.962 -2.32579 5.19515 0
M  V30 9339 N 878.164 -3.96509 4.23982 0
M  V30 9340 H 880.929 -0.0896808 2.99566 0
M  V30 9341 H 878.49 0.0971981 1.61608 0
M  V30 9342 H 880.482 -2.61929 3.08505 0
M  V30 9343 H 879.052 -2.35453 2.05622 0
M  V30 9344 H 878.272 -0.670522 3.88455 0
M  V30 9345 H 879.56 -1.32242 4.91314 0
M  V30 9346 H 878.958 -4.26834 3.71254 0
M  V30 9347 H 877.515 -4.6572 4.56014 0
M  V30 9348 N 880.948 -1.576 0.00335426 0
M  V30 9349 C 882.364 -1.55653 -0.352766 0
M  V30 9350 C 882.564 -1.00632 -1.74572 0
M  V30 9351 O 881.62 -0.641621 -2.44212 0
M  V30 9352 C 882.933 -2.99858 -0.224929 0
M  V30 9353 C 884.481 -3.11563 -0.299619 0
M  V30 9354 C 884.956 -4.57559 -0.200868 0
M  V30 9355 N 886.447 -4.62477 -0.258663 0
M  V30 9356 C 887.182 -5.73031 -0.205644 0
M  V30 9357 N 886.678 -6.92723 -0.103027 0
M  V30 9358 N 888.471 -5.61509 -0.257754 0
M  V30 9359 H 880.622 -1.91703 0.914539 0
M  V30 9360 H 882.885 -0.88068 0.350865 0
M  V30 9361 H 882.591 -3.43964 0.733595 0
M  V30 9362 H 882.465 -3.63547 -1.00564 0
M  V30 9363 H 884.852 -2.67384 -1.24859 0
M  V30 9364 H 884.933 -2.50644 0.511025 0
M  V30 9365 H 884.577 -5.02413 0.744572 0
M  V30 9366 H 884.507 -5.16428 -1.03004 0
M  V30 9367 H 886.998 -3.76375 -0.339168 0
M  V30 9368 H 887.311 -7.7277 -0.0685593 0
M  V30 9369 H 885.656 -6.94966 -0.0686069 0
M  V30 9370 H 888.847 -4.66892 -0.336142 0
M  V30 9371 H 889.02 -6.4765 -0.21297 0
M  V30 9372 N 882.426 0.269451 -1.5528 0
M  V30 9373 C 883.675 0.998381 -1.75258 0
M  V30 9374 C 883.988 1.87321 -0.563034 0
M  V30 9375 O 885.194 2.63719 -0.645313 0
M  V30 9376 C 883.65 1.82505 -3.10193 0
M  V30 9377 C 883.258 0.99871 -4.36726 0
M  V30 9378 C 885.002 2.54807 -3.3952 0
M  V30 9379 C 882.909 1.81997 -5.627 0
M  V30 9380 H 881.839 0.376488 -0.653278 0
M  V30 9381 H 884.49 0.253909 -1.81735 0
M  V30 9382 H 882.872 2.61061 -2.97763 0
M  V30 9383 H 884.046 0.257064 -4.60082 0
M  V30 9384 H 882.361 0.390074 -4.14569 0
M  V30 9385 H 884.958 3.16662 -4.30847 0
M  V30 9386 H 885.301 3.25273 -2.59813 0
M  V30 9387 H 885.834 1.83278 -3.53064 0
M  V30 9388 H 882.573 1.15945 -6.45164 0
M  V30 9389 H 882.093 2.53749 -5.43481 0
M  V30 9390 H 883.772 2.39274 -6.0113 0
M  V30 9391 N 883.904 1.48273 0.534124 0
M  V30 9392 C 885.32 1.34302 0.862272 0
M  V30 9393 C 885.52 0.350902 1.98421 0
M  V30 9394 O 884.576 -0.229364 2.51456 0
M  V30 9395 C 885.889 2.74227 1.23371 0
M  V30 9396 C 887.437 2.82684 1.34383 0
M  V30 9397 C 887.912 4.23301 1.74871 0
M  V30 9398 N 889.403 4.25954 1.81981 0
M  V30 9399 C 890.138 5.31693 2.14686 0
M  V30 9400 N 889.634 6.47714 2.45844 0
M  V30 9401 N 891.427 5.19084 2.15657 0
M  V30 9402 H 883.578 2.11397 -0.206215 0
M  V30 9403 H 885.841 0.947537 -0.0296116 0
M  V30 9404 H 885.547 3.48368 0.482967 0
M  V30 9405 H 885.421 3.07485 2.18478 0
M  V30 9406 H 887.808 2.08801 2.08534 0
M  V30 9407 H 887.889 2.5305 0.374063 0
M  V30 9408 H 887.533 4.97699 1.01282 0
M  V30 9409 H 887.463 4.50376 2.7289 0
M  V30 9410 H 889.954 3.42266 1.60196 0
M  V30 9411 H 890.267 7.2414 2.69892 0
M  V30 9412 H 888.612 6.50995 2.43372 0
M  V30 9413 H 891.803 4.27463 1.9077 0
M  V30 9414 H 891.976 6.01592 2.40813 0
M  V30 9415 N 885.382 -0.782676 1.36792 0
M  V30 9416 C 886.607 -1.57676 1.34733 0
M  V30 9417 C 887.032 -1.87979 -0.0675253 0
M  V30 9418 O 886.39 -1.48404 -1.04144 0
M  V30 9419 C 886.438 -2.87047 2.18257 0
M  V30 9420 O 885.542 -3.80946 1.57969 0
M  V30 9421 H 884.883 -0.478034 0.460846 0
M  V30 9422 H 887.413 -0.969578 1.80168 0
M  V30 9423 H 887.423 -3.36254 2.31079 0
M  V30 9424 H 886.098 -2.64319 3.21104 0
M  V30 9425 H 884.675 -3.39558 1.54126 0
M  V30 9426 N 886.86 -1.21182 -1.00761 0
M  V30 9427 C 888.1 -1.03886 -1.76031 0
M  V30 9428 C 888.464 0.420593 -1.87337 0
M  V30 9429 O 889.665 0.713994 -2.59144 0
M  V30 9430 C 887.936 -1.71394 -3.13622 0
M  V30 9431 S 889.495 -1.69319 -4.04816 0
M  V30 9432 H 886.313 -0.372327 -0.605717 0
M  V30 9433 H 888.915 -1.53885 -1.20581 0
M  V30 9434 H 887.619 -2.76773 -3.03026 0
M  V30 9435 H 887.15 -1.21564 -3.74147 0
M  V30 9436 H 889.165 -0.732434 -4.90765 0
M  V30 9437 N 888.338 1.20213 -1.01915 0
M  V30 9438 C 889.584 1.89928 -0.711007 0
M  V30 9439 C 889.917 1.7881 0.75767 0
M  V30 9440 O 889.192 1.17399 1.55073 0
M  V30 9441 C 889.475 3.41225 -1.15053 0
M  V30 9442 C 889.328 3.61264 -2.67971 0
M  V30 9443 C 890.647 4.34108 -0.72377 0
M  V30 9444 H 887.766 0.689702 -0.259768 0
M  V30 9445 H 890.408 1.41557 -1.26734 0
M  V30 9446 H 888.558 3.82552 -0.677199 0
M  V30 9447 H 890.23 3.29173 -3.23176 0
M  V30 9448 H 888.473 3.04647 -3.08824 0
M  V30 9449 H 889.144 4.67331 -2.93779 0
M  V30 9450 H 891.62 4.00442 -1.13073 0
M  V30 9451 H 890.496 5.38581 -1.05931 0
M  V30 9452 H 890.757 4.40512 0.374424 0
M  V30 9453 N 889.816 0.795718 1.36037 0
M  V30 9454 C 891.041 0.38204 2.03851 0
M  V30 9455 C 891.466 -0.995553 1.59594 0
M  V30 9456 O 890.824 -1.64258 0.767401 0
M  V30 9457 C 890.872 0.461248 3.57638 0
M  V30 9458 O 889.976 -0.529448 4.08987 0
M  V30 9459 H 889.317 0.161227 0.644129 0
M  V30 9460 H 891.847 1.07858 1.73861 0
M  V30 9461 H 891.857 0.32712 4.06687 0
M  V30 9462 H 890.532 1.46613 3.89201 0
M  V30 9463 H 889.109 -0.35646 3.71192 0
M  V30 9464 N 891.294 -1.47756 0.548274 0
M  V30 9465 C 892.257 -2.28379 -0.193857 0
M  V30 9466 C 893.257 -1.36436 -0.850986 0
M  V30 9467 O 894.447 -1.59154 -0.70822 0
M  V30 9468 C 891.579 -3.15858 -1.28243 0
M  V30 9469 H 892.772 -2.95458 0.514231 0
M  V30 9470 H 890.325 -1.53298 0.304879 0
M  V30 9471 H 891.06 -2.5345 -2.0232 0
M  V30 9472 H 890.845 -3.83512 -0.816148 0
M  V30 9473 H 892.335 -3.76627 -1.80393 0
M  V30 9474 N 892.772 -0.284283 -1.55015 0
M  V30 9475 C 893.682 0.60906 -2.26556 0
M  V30 9476 C 894.698 1.16246 -1.29472 0
M  V30 9477 O 895.874 1.1908 -1.62425 0
M  V30 9478 C 892.939 1.77246 -2.97968 0
M  V30 9479 C 892 1.25482 -4.10552 0
M  V30 9480 C 891.233 2.36277 -4.78549 0
M  V30 9481 O 891.456 3.55829 -4.45805 0
M  V30 9482 O 890.39 2.03914 -5.66306 0
M  V30 9483 H 894.216 0.0292298 -3.03686 0
M  V30 9484 H 891.801 -0.0513466 -1.49312 0
M  V30 9485 H 893.683 2.45062 -3.42815 0
M  V30 9486 H 892.358 2.33921 -2.23747 0
M  V30 9487 H 891.265 0.542859 -3.7014 0
M  V30 9488 H 892.598 0.733708 -4.86701 0
M  V30 9489 N 894.251 1.57596 -0.0117121 0
M  V30 9490 C 895.199 2.1029 0.994035 0
M  V30 9491 C 896.193 1.02549 1.34833 0
M  V30 9492 O 897.399 1.21003 1.3326 0
M  V30 9493 H 893.774 0.671624 0.338268 0
M  V30 9494 H 895.745 2.93761 0.524147 0
M  V30 9495 C 894.494 2.63099 2.27319 0
M  V30 9496 H 893.817 3.45642 2.00927 0
M  V30 9497 H 895.257 3.03635 2.95942 0
M  V30 9498 C 893.716 1.55044 2.99104 0
M  V30 9499 O 894.246 0.940127 3.90544 0
M  V30 9500 N 892.452 1.27506 2.61133 0
M  V30 9501 H 891.999 1.77322 1.86855 0
M  V30 9502 H 891.957 0.554292 3.09475 0
M  V30 9503 N 895.729 -0.261212 1.5542 0
M  V30 9504 C 896.976 -0.99123 1.76581 0
M  V30 9505 C 897.304 -1.85854 0.573457 0
M  V30 9506 O 896.559 -1.90604 -0.443705 0
M  V30 9507 C 896.858 -1.89395 3.03091 0
M  V30 9508 C 896.524 -1.18318 4.351 0
M  V30 9509 C 895.186 -0.986688 4.70975 0
M  V30 9510 C 897.538 -0.678299 5.16767 0
M  V30 9511 C 894.866 -0.272788 5.86065 0
M  V30 9512 C 897.218 0.0220646 6.32596 0
M  V30 9513 C 895.882 0.230161 6.67103 0
M  V30 9514 H 895.152 -0.362717 0.646156 0
M  V30 9515 H 897.799 -0.262506 1.89692 0
M  V30 9516 H 896.104 -2.68927 2.8493 0
M  V30 9517 H 897.801 -2.46022 3.16661 0
M  V30 9518 H 894.391 -1.34625 4.06908 0
M  V30 9519 H 898.575 -0.817691 4.89518 0
M  V30 9520 H 893.831 -0.10095 6.11317 0
M  V30 9521 H 898.005 0.420981 6.95126 0
M  V30 9522 H 895.632 0.785312 7.56133 0
M  V30 9523 N 897.207 -1.48554 -0.526253 0
M  V30 9524 C 898.137 -1.66252 -1.63959 0
M  V30 9525 C 899.118 -0.511351 -1.62232 0
M  V30 9526 O 900.303 -0.744322 -1.7937 0
M  V30 9527 C 897.433 -1.70556 -3.02536 0
M  V30 9528 C 896.387 -2.8521 -3.19123 0
M  V30 9529 C 895.713 -2.74606 -4.58798 0
M  V30 9530 C 897.013 -4.26463 -3.0154 0
M  V30 9531 H 898.707 -2.59459 -1.49404 0
M  V30 9532 H 896.253 -1.24862 -0.717326 0
M  V30 9533 H 898.206 -1.81524 -3.80298 0
M  V30 9534 H 896.93 -0.739297 -3.18123 0
M  V30 9535 H 895.589 -2.73802 -2.43779 0
M  V30 9536 H 895.237 -1.75941 -4.71226 0
M  V30 9537 H 894.937 -3.51544 -4.70841 0
M  V30 9538 H 896.461 -2.87548 -5.38655 0
M  V30 9539 H 897.875 -4.38685 -3.69091 0
M  V30 9540 H 896.272 -5.04428 -3.25073 0
M  V30 9541 H 897.342 -4.42667 -1.97925 0
M  V30 9542 N 898.685 0.775411 -1.37205 0
M  V30 9543 C 899.617 1.89761 -1.28544 0
M  V30 9544 C 900.63 1.61542 -0.201996 0
M  V30 9545 O 901.819 1.72528 -0.457848 0
M  V30 9546 C 898.919 3.24904 -0.963885 0
M  V30 9547 C 898.092 3.80796 -2.15205 0
M  V30 9548 C 897.151 4.94407 -1.80135 0
M  V30 9549 O 896.177 5.10185 -2.52388 0
M  V30 9550 N 897.379 5.75722 -0.743298 0
M  V30 9551 H 900.144 1.97708 -2.25237 0
M  V30 9552 H 897.705 0.954348 -1.30782 0
M  V30 9553 H 899.697 3.9842 -0.710182 0
M  V30 9554 H 898.267 3.12483 -0.085632 0
M  V30 9555 H 897.487 2.99101 -2.56773 0
M  V30 9556 H 898.775 4.1487 -2.94552 0
M  V30 9557 H 898.173 5.65518 -0.143655 0
M  V30 9558 H 896.73 6.4948 -0.549446 0
M  V30 9559 N 900.163 1.21714 1.00117 0
M  V30 9560 C 901.412 1.03087 1.73367 0
M  V30 9561 C 901.725 -0.435532 1.90689 0
M  V30 9562 O 902.931 -0.741291 2.61184 0
M  V30 9563 C 901.387 1.79593 3.11888 0
M  V30 9564 C 900.995 3.30428 3.02525 0
M  V30 9565 C 902.739 1.69386 3.89241 0
M  V30 9566 C 900.646 3.99408 4.3615 0
M  V30 9567 H 899.576 0.382117 0.650002 0
M  V30 9568 H 902.227 1.45486 1.11831 0
M  V30 9569 H 900.609 1.29988 3.74058 0
M  V30 9570 H 901.783 3.87364 2.49571 0
M  V30 9571 H 900.098 3.4122 2.38659 0
M  V30 9572 H 902.695 2.18251 4.8813 0
M  V30 9573 H 903.038 0.652773 4.1115 0
M  V30 9574 H 903.571 2.16489 3.33733 0
M  V30 9575 H 900.31 5.03735 4.19442 0
M  V30 9576 H 899.83 3.47261 4.8905 0
M  V30 9577 H 901.509 4.04537 5.04934 0
M  V30 9578 N 901.641 -1.19671 1.02551 0
M  V30 9579 C 902.573 -2.22215 0.561517 0
M  V30 9580 C 903.586 -1.58751 -0.360821 0
M  V30 9581 O 904.775 -1.77802 -0.157749 0
M  V30 9582 C 901.875 -3.383 -0.201494 0
M  V30 9583 C 901.048 -4.3135 0.724952 0
M  V30 9584 C 900.107 -5.26199 0.00794334 0
M  V30 9585 O 899.133 -5.65665 0.633398 0
M  V30 9586 N 900.335 -5.66573 -1.26394 0
M  V30 9587 H 903.1 -2.6265 1.44343 0
M  V30 9588 H 900.661 -1.34303 0.904122 0
M  V30 9589 H 902.653 -3.98764 -0.690625 0
M  V30 9590 H 901.223 -2.96683 -0.98479 0
M  V30 9591 H 900.443 -3.6872 1.39423 0
M  V30 9592 H 901.731 -4.90433 1.35472 0
M  V30 9593 H 901.129 -5.36538 -1.79287 0
M  V30 9594 H 899.686 -6.29304 -1.69763 0
M  V30 9595 N 903.119 -0.802921 -1.35613 0
M  V30 9596 C 904.396 -0.304993 -1.93208 0
M  V30 9597 C 904.776 1.20488 -1.73337 0
M  V30 9598 O 904.124 2.00268 -1.10022 0
M  V30 9599 C 904.334 -0.712383 -3.41652 0
M  V30 9600 C 905.682 -0.699785 -4.18794 0
M  V30 9601 O 906.706 -0.653698 -3.5015 0
M  V30 9602 O 905.565 -0.754842 -5.41262 0
M  V30 9603 H 902.659 -0.0789127 -0.823226 0
M  V30 9604 H 905.205 -0.886372 -1.44712 0
M  V30 9605 H 903.977 -1.75316 -3.49829 0
M  V30 9606 H 903.6 -0.105614 -3.9746 0
M  V30 9607 N 904.597 1.47463 -0.556102 0
M  V30 9608 C 905.844 2.02475 -0.0316337 0
M  V30 9609 C 906.172 1.43057 1.31777 0
M  V30 9610 O 905.427 0.575376 1.87051 0
M  V30 9611 C 905.726 3.57224 0.112126 0
M  V30 9612 C 905.392 4.35557 -1.16624 0
M  V30 9613 C 904.054 4.56678 -1.51654 0
M  V30 9614 C 906.406 4.8074 -2.01342 0
M  V30 9615 C 903.734 5.20231 -2.7125 0
M  V30 9616 C 906.086 5.45613 -3.2014 0
M  V30 9617 C 904.75 5.64967 -3.55484 0
M  V30 9618 H 904.02 0.74091 -0.0115756 0
M  V30 9619 H 906.667 1.77148 -0.727392 0
M  V30 9620 H 904.972 3.81538 0.890842 0
M  V30 9621 H 906.669 3.97438 0.533261 0
M  V30 9622 H 903.259 4.19395 -0.883489 0
M  V30 9623 H 907.443 4.64201 -1.75587 0
M  V30 9624 H 902.699 5.3341 -2.98804 0
M  V30 9625 H 906.873 5.79587 -3.86073 0
M  V30 9626 H 904.5 6.13984 -4.4825 0
M  V30 9627 N 906.075 0.2925 1.54862 0
M  V30 9628 C 906.985 -0.597036 2.26876 0
M  V30 9629 C 908.001 -1.15558 1.30086 0
M  V30 9630 O 909.177 -1.18217 1.63054 0
M  V30 9631 C 906.242 -1.75664 2.98903 0
M  V30 9632 C 905.303 -1.23303 4.11212 0
M  V30 9633 C 904.536 -2.33736 4.79795 0
M  V30 9634 O 904.759 -3.53459 4.47686 0
M  V30 9635 O 903.693 -2.00908 5.67379 0
M  V30 9636 H 907.519 -0.0131242 3.03697 0
M  V30 9637 H 905.104 0.0592642 1.49282 0
M  V30 9638 H 906.986 -2.43241 3.4411 0
M  V30 9639 H 905.661 -2.32731 2.24984 0
M  V30 9640 H 904.568 -0.523222 3.70423 0
M  V30 9641 H 905.901 -0.707887 4.87083 0
M  V30 9642 N 907.553 -1.57587 0.0200696 0
M  V30 9643 C 908.801 -1.91046 -0.65922 0
M  V30 9644 C 909.122 -0.896197 -1.73186 0
M  V30 9645 O 908.392 0.0635952 -1.95797 0
M  V30 9646 H 906.972 -0.705163 -0.246483 0
M  V30 9647 H 909.634 -1.94789 0.0657368 0
M  V30 9648 H 908.73 -2.91399 -1.11773 0
M  V30 9649 N 909.032 0.252966 -1.55557 0
M  V30 9650 C 909.962 1.31691 -1.9282 0
M  V30 9651 C 910.943 1.50516 -0.7924 0
M  V30 9652 O 912.128 1.63225 -1.05219 0
M  V30 9653 C 909.258 2.67281 -2.21762 0
M  V30 9654 C 908.212 2.6316 -3.37536 0
M  V30 9655 C 907.538 4.02488 -3.52005 0
M  V30 9656 C 908.838 2.20675 -4.73392 0
M  V30 9657 H 910.532 1.00751 -2.81939 0
M  V30 9658 H 908.078 0.483219 -1.3565 0
M  V30 9659 H 910.031 3.41842 -2.46419 0
M  V30 9660 H 908.755 2.99845 -1.29463 0
M  V30 9661 H 907.414 1.91057 -3.12878 0
M  V30 9662 H 907.062 4.32307 -2.57137 0
M  V30 9663 H 906.762 4.00621 -4.29857 0
M  V30 9664 H 908.286 4.78758 -3.78977 0
M  V30 9665 H 909.7 2.84965 -4.97461 0
M  V30 9666 H 908.097 2.29931 -5.54303 0
M  V30 9667 H 909.167 1.15831 -4.70862 0
M  V30 9668 N 910.51 1.48831 0.518367 0
M  V30 9669 C 911.442 1.60317 1.63802 0
M  V30 9670 C 912.455 0.486771 1.55352 0
M  V30 9671 O 913.644 0.758111 1.61601 0
M  V30 9672 C 910.744 1.52771 3.02513 0
M  V30 9673 C 909.917 2.79649 3.36326 0
M  V30 9674 C 908.976 2.65396 4.54369 0
M  V30 9675 O 908.002 3.39304 4.57013 0
M  V30 9676 N 909.204 1.75784 5.53245 0
M  V30 9677 H 911.969 2.56878 1.54383 0
M  V30 9678 H 909.53 1.45701 0.705889 0
M  V30 9679 H 911.522 1.40914 3.79375 0
M  V30 9680 H 910.092 0.641381 3.05949 0
M  V30 9681 H 909.312 3.05985 2.48529 0
M  V30 9682 H 910.6 3.63799 3.55707 0
M  V30 9683 H 909.998 1.14961 5.53896 0
M  V30 9684 H 908.555 1.69859 6.29278 0
M  V30 9685 N 911.988 -0.768124 1.37614 0
M  V30 9686 C 912.936 -1.9029 1.33763 0
M  V30 9687 C 913.93 -1.67888 0.225814 0
M  V30 9688 O 915.136 -1.75634 0.394043 0
M  V30 9689 H 911.511 -0.625828 0.416945 0
M  V30 9690 H 913.482 -1.90654 2.29551 0
M  V30 9691 C 912.231 -3.27598 1.16511 0
M  V30 9692 H 911.554 -3.45414 2.01318 0
M  V30 9693 H 912.994 -4.07288 1.17867 0
M  V30 9694 C 911.453 -3.36653 -0.129001 0
M  V30 9695 O 911.983 -3.86023 -1.11128 0
M  V30 9696 N 910.189 -2.90036 -0.180926 0
M  V30 9697 H 909.736 -2.5005 0.619076 0
M  V30 9698 H 909.694 -2.96475 -1.04641 0
M  V30 9699 N 913.466 -1.22244 -0.994698 0
M  V30 9700 C 914.882 -0.982006 -1.25813 0
M  V30 9701 C 915.082 0.325488 -1.98854 0
M  V30 9702 O 914.138 1.04857 -2.29698 0
M  V30 9703 C 915.451 -2.1795 -2.07167 0
M  V30 9704 C 916.999 -2.22287 -2.20358 0
M  V30 9705 C 917.474 -3.41583 -3.05098 0
M  V30 9706 N 918.965 -3.41734 -3.12686 0
M  V30 9707 C 919.7 -4.30692 -3.78539 0
M  V30 9708 N 919.196 -5.29865 -4.46335 0
M  V30 9709 N 920.989 -4.18473 -3.75283 0
M  V30 9710 H 913.14 -2.0631 -0.504963 0
M  V30 9711 H 915.403 -0.90395 -0.285618 0
M  V30 9712 H 915.109 -3.12758 -1.60858 0
M  V30 9713 H 914.983 -2.17862 -3.07922 0
M  V30 9714 H 917.37 -1.28028 -2.65881 0
M  V30 9715 H 917.451 -2.26414 -1.19039 0
M  V30 9716 H 917.095 -4.36141 -2.60275 0
M  V30 9717 H 917.025 -3.34695 -4.06555 0
M  V30 9718 H 919.516 -2.69969 -2.64433 0
M  V30 9719 H 919.829 -5.94027 -4.9432 0
M  V30 9720 H 918.174 -5.3378 -4.45089 0
M  V30 9721 H 921.365 -3.40249 -3.21478 0
M  V30 9722 H 921.538 -4.88007 -4.26326 0
M  V30 9723 N 914.944 1.19125 -1.03184 0
M  V30 9724 C 916.355 1.70564 -0.759264 0
M  V30 9725 C 916.706 1.8248 0.720794 0
M  V30 9726 O 915.831 1.49804 1.56166 0
M  V30 9727 C 916.426 3.09793 -1.37163 0
M  V30 9728 C 914.985 3.5848 -1.14757 0
M  V30 9729 C 914.132 2.35265 -1.46784 0
M  V30 9730 H 917.083 1.03925 -1.19939 0
M  V30 9731 H 917.104 3.72624 -0.77015 0
M  V30 9732 H 916.616 3.01088 -2.44882 0
M  V30 9733 H 914.717 3.72494 -0.0887182 0
M  V30 9734 H 914.83 4.42426 -1.83836 0
M  V30 9735 H 913.194 2.38747 -0.887254 0
M  V30 9736 H 913.977 2.29188 -2.55593 0
M  V30 9737 N 916.422 0.810101 1.35185 0
M  V30 9738 C 917.838 0.494269 1.51754 0
M  V30 9739 C 918.038 -0.983907 1.75845 0
M  V30 9740 O 917.094 -1.76882 1.80191 0
M  V30 9741 C 918.407 1.34268 2.69059 0
M  V30 9742 C 919.955 1.33848 2.82938 0
M  V30 9743 C 920.43 2.17109 4.03271 0
M  V30 9744 N 921.921 2.14664 4.10456 0
M  V30 9745 C 922.656 2.75843 5.02691 0
M  V30 9746 N 922.152 3.45962 6.00235 0
M  V30 9747 N 923.945 2.65465 4.95464 0
M  V30 9748 H 916.096 1.76736 1.17805 0
M  V30 9749 H 918.359 0.752429 0.576676 0
M  V30 9750 H 918.065 2.39183 2.57845 0
M  V30 9751 H 917.939 0.998362 3.63748 0
M  V30 9752 H 920.326 0.29716 2.936 0
M  V30 9753 H 920.407 1.72269 1.89095 0
M  V30 9754 H 920.051 3.21283 3.93369 0
M  V30 9755 H 919.981 1.76046 4.96302 0
M  V30 9756 H 922.472 1.63648 3.40628 0
M  V30 9757 H 922.785 3.89922 6.67219 0
M  V30 9758 H 921.13 3.50067 6.00398 0
M  V30 9759 H 924.321 2.1027 4.18215 0
M  V30 9760 H 924.494 3.13433 5.67154 0
M  V30 9761 N 917.9 -1.47166 0.563914 0
M  V30 9762 C 919.311 -1.86231 0.132307 0
M  V30 9763 C 919.662 -1.46976 -1.29971 0
M  V30 9764 O 918.787 -0.875911 -1.97881 0
M  V30 9765 C 919.382 -3.37996 0.233335 0
M  V30 9766 C 917.941 -3.76127 -0.143278 0
M  V30 9767 C 917.088 -2.71212 0.577857 0
M  V30 9768 H 920.039 -1.38588 0.773249 0
M  V30 9769 H 920.06 -3.76558 -0.546309 0
M  V30 9770 H 919.572 -3.66535 1.27568 0
M  V30 9771 H 917.673 -3.53205 -1.18648 0
M  V30 9772 H 917.786 -4.78595 0.219952 0
M  V30 9773 H 916.15 -2.54692 0.020186 0
M  V30 9774 H 916.933 -3.02593 1.62149 0
M  V30 9775 N 919.378 -0.300708 -1.54705 0
M  V30 9776 C 920.31 0.609179 -2.20956 0
M  V30 9777 C 921.323 1.09776 -1.20221 0
M  V30 9778 O 922.512 1.01527 -1.46815 0
M  V30 9779 C 919.612 1.84595 -2.84214 0
M  V30 9780 C 918.785 1.49991 -4.10879 0
M  V30 9781 C 917.844 2.5918 -4.57943 0
M  V30 9782 O 916.87 2.24285 -5.23149 0
M  V30 9783 N 918.072 3.89714 -4.30236 0
M  V30 9784 H 920.837 0.0420111 -2.99671 0
M  V30 9785 H 918.398 -0.122896 -1.61433 0
M  V30 9786 H 920.39 2.56988 -3.12633 0
M  V30 9787 H 918.96 2.32152 -2.09342 0
M  V30 9788 H 918.18 0.608637 -3.89473 0
M  V30 9789 H 919.468 1.24409 -4.93356 0
M  V30 9790 H 918.866 4.20874 -3.77997 0
M  V30 9791 H 917.423 4.58406 -4.63365 0
M  V30 9792 N 920.856 1.57574 -0.0284266 0
M  V30 9793 C 922.086 1.95787 0.659617 0
M  V30 9794 C 922.494 0.903475 1.66235 0
M  V30 9795 O 921.837 -0.12329 1.83286 0
M  V30 9796 C 921.899 3.30139 1.42298 0
M  V30 9797 C 921.563 4.53322 0.578658 0
M  V30 9798 C 922.56 5.19696 -0.145751 0
M  V30 9799 C 920.245 4.9964 0.516264 0
M  V30 9800 C 922.239 6.30708 -0.921235 0
M  V30 9801 C 919.926 6.10534 -0.262925 0
M  V30 9802 C 920.924 6.75927 -0.980382 0
M  V30 9803 O 920.612 7.84692 -1.7468 0
M  V30 9804 H 920.344 0.649681 0.186792 0
M  V30 9805 H 922.898 2.05227 -0.0842687 0
M  V30 9806 H 921.128 3.17188 2.21199 0
M  V30 9807 H 922.817 3.53259 1.99906 0
M  V30 9808 H 923.583 4.84882 -0.106876 0
M  V30 9809 H 919.462 4.48547 1.06427 0
M  V30 9810 H 923.006 6.81682 -1.48176 0
M  V30 9811 H 918.903 6.44786 -0.303519 0
M  V30 9812 H 919.671 8.01355 -1.6665 0
M  V30 9813 N 922.334 -0.244713 1.55689 0
M  V30 9814 C 923.264 -1.30667 1.93516 0
M  V30 9815 C 924.245 -1.50094 0.800371 0
M  V30 9816 O 925.43 -1.62665 1.06083 0
M  V30 9817 C 922.56 -2.66101 2.23176 0
M  V30 9818 C 921.514 -2.61366 3.38927 0
M  V30 9819 C 920.84 -4.00616 3.54134 0
M  V30 9820 C 922.14 -2.18161 4.74555 0
M  V30 9821 H 923.834 -0.992546 2.82469 0
M  V30 9822 H 921.38 -0.476018 1.35905 0
M  V30 9823 H 923.333 -3.4053 2.48228 0
M  V30 9824 H 922.057 -2.99154 1.31051 0
M  V30 9825 H 920.716 -1.89395 3.13887 0
M  V30 9826 H 920.364 -4.30938 2.59426 0
M  V30 9827 H 920.064 -3.98335 4.31975 0
M  V30 9828 H 921.588 -4.76741 3.8151 0
M  V30 9829 H 923.002 -2.82323 4.98965 0
M  V30 9830 H 921.399 -2.26988 5.55515 0
M  V30 9831 H 922.469 -1.13333 4.7147 0
M  V30 9832 N 923.813 -1.49104 -0.510467 0
M  V30 9833 C 924.76 -1.65074 -1.61305 0
M  V30 9834 C 925.73 -0.492362 -1.58635 0
M  V30 9835 O 926.915 -0.718241 -1.76765 0
M  V30 9836 C 924.055 -1.71457 -2.99493 0
M  V30 9837 C 923.168 -2.98536 -3.12251 0
M  V30 9838 C 922.303 -2.95957 -4.41116 0
M  V30 9839 C 921.342 -4.17655 -4.47471 0
M  V30 9840 N 920.479 -4.13041 -5.67751 0
M  V30 9841 H 925.319 -2.59222 -1.46996 0
M  V30 9842 H 922.856 -1.28535 -0.715346 0
M  V30 9843 H 924.814 -1.7314 -3.79577 0
M  V30 9844 H 923.444 -0.807834 -3.12528 0
M  V30 9845 H 922.496 -3.06509 -2.25292 0
M  V30 9846 H 923.808 -3.88527 -3.12807 0
M  V30 9847 H 922.962 -2.96149 -5.2951 0
M  V30 9848 H 921.701 -2.03728 -4.4311 0
M  V30 9849 H 920.706 -4.17717 -3.57481 0
M  V30 9850 H 921.931 -5.11066 -4.472 0
M  V30 9851 H 919.877 -3.23643 -5.70606 0
M  V30 9852 H 919.794 -4.96757 -5.69884 0
M  V30 9853 H 921.062 -4.17322 -6.58379 0
M  V30 9854 N 925.291 0.760815 -1.38019 0
M  V30 9855 C 926.707 1.06289 -1.19058 0
M  V30 9856 C 926.907 2.01471 -0.0342603 0
M  V30 9857 O 925.963 2.44713 0.62224 0
M  V30 9858 C 927.276 1.6499 -2.51394 0
M  V30 9859 C 928.824 1.77196 -2.58013 0
M  V30 9860 C 929.299 2.3931 -3.90506 0
M  V30 9861 N 930.79 2.46749 -3.92007 0
M  V30 9862 C 931.525 2.95687 -4.91281 0
M  V30 9863 N 931.021 3.44715 -6.00952 0
M  V30 9864 N 932.814 2.94661 -4.78677 0
M  V30 9865 H 924.965 0.129045 -2.12008 0
M  V30 9866 H 927.228 0.119878 -0.94039 0
M  V30 9867 H 926.934 1.0252 -3.36426 0
M  V30 9868 H 926.808 2.64146 -2.6927 0
M  V30 9869 H 929.195 2.38796 -1.7338 0
M  V30 9870 H 929.276 0.767645 -2.4401 0
M  V30 9871 H 928.92 1.78346 -4.75558 0
M  V30 9872 H 928.85 3.40369 -4.01817 0
M  V30 9873 H 931.341 2.12064 -3.12789 0
M  V30 9874 H 931.654 3.80492 -6.72641 0
M  V30 9875 H 929.999 3.42791 -6.04582 0
M  V30 9876 H 933.19 2.55665 -3.92113 0
M  V30 9877 H 933.363 3.32489 -5.56197 0
M  V30 9878 N 926.769 1.22769 0.988202 0
M  V30 9879 C 927.999 1.07998 1.76125 0
M  V30 9880 C 928.407 -0.372062 1.85506 0
M  V30 9881 O 927.75 -1.26946 1.3278 0
M  V30 9882 C 927.812 1.6219 3.20834 0
M  V30 9883 C 927.476 3.1086 3.34986 0
M  V30 9884 C 928.473 4.08239 3.21927 0
M  V30 9885 C 926.158 3.50411 3.59886 0
M  V30 9886 C 928.152 5.43154 3.33561 0
M  V30 9887 C 925.839 4.85473 3.71159 0
M  V30 9888 C 926.837 5.81653 3.58006 0
M  V30 9889 O 926.525 7.14263 3.68895 0
M  V30 9890 H 926.257 0.378937 0.559806 0
M  V30 9891 H 928.811 1.62925 1.25078 0
M  V30 9892 H 927.041 1.01676 3.73094 0
M  V30 9893 H 928.73 1.43011 3.79872 0
M  V30 9894 H 929.496 3.79025 3.02597 0
M  V30 9895 H 925.375 2.76068 3.69198 0
M  V30 9896 H 928.919 6.18207 3.23211 0
M  V30 9897 H 924.816 5.14365 3.89998 0
M  V30 9898 H 925.584 7.21906 3.85739 0
M  V30 9899 N 928.247 -1.18576 1.03814 0
M  V30 9900 C 929.663 -1.4051 0.756909 0
M  V30 9901 C 929.863 -1.9057 -0.654631 0
M  V30 9902 O 928.919 -2.0884 -1.41922 0
M  V30 9903 C 930.232 -2.4081 1.80087 0
M  V30 9904 C 931.78 -2.54541 1.82148 0
M  V30 9905 C 932.255 -3.58102 2.85529 0
M  V30 9906 N 933.746 -3.65607 2.84404 0
M  V30 9907 C 934.481 -4.45458 3.61047 0
M  V30 9908 N 933.977 -5.28937 4.47434 0
M  V30 9909 N 935.77 -4.40196 3.49548 0
M  V30 9910 H 927.921 -0.844075 1.94908 0
M  V30 9911 H 930.184 -0.433287 0.843188 0
M  V30 9912 H 929.89 -2.1107 2.81322 0
M  V30 9913 H 929.764 -3.4012 1.63089 0
M  V30 9914 H 932.151 -2.83598 0.815855 0
M  V30 9915 H 932.232 -1.55352 2.03223 0
M  V30 9916 H 931.876 -3.29786 3.86269 0
M  V30 9917 H 931.806 -4.56963 2.6171 0
M  V30 9918 H 934.297 -3.05994 2.21756 0
M  V30 9919 H 934.61 -5.8701 5.02632 0
M  V30 9920 H 932.955 -5.28366 4.51503 0
M  V30 9921 H 936.146 -3.74026 2.81464 0
M  V30 9922 H 936.319 -5.02186 4.09528 0
M  V30 9923 N 929.725 -0.817259 -1.34754 0
M  V30 9924 C 930.673 -0.223352 -2.31525 0
M  V30 9925 C 931.667 0.632785 -1.57137 0
M  V30 9926 O 932.873 0.524757 -1.72181 0
M  V30 9927 H 929.248 -0.0534765 -0.750096 0
M  V30 9928 H 931.219 -1.05446 -2.79148 0
M  V30 9929 C 929.968 0.604784 -3.424 0
M  V30 9930 H 929.291 -0.0446664 -3.99775 0
M  V30 9931 H 930.731 0.986543 -4.12363 0
M  V30 9932 C 929.19 1.77478 -2.86362 0
M  V30 9933 O 929.72 2.87273 -2.8078 0
M  V30 9934 N 927.926 1.58971 -2.43263 0
M  V30 9935 H 927.473 0.696598 -2.48003 0
M  V30 9936 H 927.431 2.37408 -2.06119 0
M  V30 9937 N 931.203 1.46865 -0.571711 0
M  V30 9938 C 932.619 1.57897 -0.23255 0
M  V30 9939 C 932.819 1.56836 1.26509 0
M  V30 9940 O 931.875 1.47947 2.04617 0
M  V30 9941 C 933.188 2.87778 -0.872036 0
M  V30 9942 C 934.736 3.01389 -0.844605 0
M  V30 9943 C 935.211 4.33991 -1.46343 0
M  V30 9944 N 936.702 4.40662 -1.42727 0
M  V30 9945 C 937.437 5.41858 -1.87557 0
M  V30 9946 N 936.933 6.49787 -2.4031 0
M  V30 9947 N 938.726 5.32992 -1.7854 0
M  V30 9948 H 930.877 1.45798 -1.54457 0
M  V30 9949 H 933.14 0.694785 -0.644964 0
M  V30 9950 H 932.846 2.94332 -1.92513 0
M  V30 9951 H 932.72 3.75345 -0.373677 0
M  V30 9952 H 935.107 2.94423 0.19984 0
M  V30 9953 H 935.188 2.15327 -1.38087 0
M  V30 9954 H 934.832 4.41714 -2.50701 0
M  V30 9955 H 934.762 5.18809 -0.902479 0
M  V30 9956 H 937.253 3.63263 -1.04155 0
M  V30 9957 H 937.566 7.23199 -2.72403 0
M  V30 9958 H 935.911 6.50637 -2.44329 0
M  V30 9959 H 939.102 4.47575 -1.37093 0
M  V30 9960 H 939.275 6.11716 -2.13794 0
M  V30 9961 N 932.681 0.308908 1.54543 0
M  V30 9962 C 933.611 -0.556657 2.26768 0
M  V30 9963 C 934.592 -1.13145 1.27013 0
M  V30 9964 O 935.777 -1.15931 1.558 0
M  V30 9965 C 932.907 -1.72481 3.01443 0
M  V30 9966 C 931.861 -1.28001 4.08411 0
M  V30 9967 C 931.187 -2.53395 4.70845 0
M  V30 9968 C 932.487 -0.405497 5.20724 0
M  V30 9969 H 934.181 0.0457618 2.99365 0
M  V30 9970 H 931.727 0.0234495 1.43981 0
M  V30 9971 H 933.68 -2.3365 3.50693 0
M  V30 9972 H 932.404 -2.35359 2.26437 0
M  V30 9973 H 931.063 -0.69133 3.60022 0
M  V30 9974 H 930.711 -3.14604 3.92471 0
M  V30 9975 H 930.411 -2.2433 5.43093 0
M  V30 9976 H 931.935 -3.15352 5.22863 0
M  V30 9977 H 933.349 -0.923076 5.6582 0
M  V30 9978 H 931.746 -0.208282 5.99738 0
M  V30 9979 H 932.816 0.567412 4.81569 0
M  V30 9980 N 934.159 -1.57557 0.0367827 0
M  V30 9981 C 935.122 -2.09591 -0.927589 0
M  V30 9982 C 936.122 -1.01252 -1.24919 0
M  V30 9983 O 937.312 -1.27382 -1.18825 0
M  V30 9984 C 934.444 -2.56816 -2.24184 0
M  V30 9985 H 935.637 -2.96086 -0.476784 0
M  V30 9986 H 933.19 -1.54864 -0.211385 0
M  V30 9987 H 933.925 -1.73673 -2.73876 0
M  V30 9988 H 933.71 -3.35973 -2.0215 0
M  V30 9989 H 935.2 -2.97271 -2.93291 0
M  V30 9990 N 935.637 0.236453 -1.55816 0
M  V30 9991 C 936.914 0.986463 -1.68903 0
M  V30 9992 C 937.294 2.02984 -0.579722 0
M  V30 9993 O 936.642 2.24693 0.415389 0
M  V30 9994 C 936.852 1.61038 -3.09625 0
M  V30 9995 C 938.2 2.10829 -3.6856 0
M  V30 9996 O 939.224 1.7096 -3.12492 0
M  V30 9997 O 938.083 2.84064 -4.66873 0
M  V30 9998 H 935.177 0.459837 -0.687371 0
M  V30 9999 H 937.723 0.229412 -1.68142 0
M  V30 10000 H 936.495 0.856232 -3.81817 0
M  V30 10001 H 936.118 2.43336 -3.14441 0
M  V30 10002 N 937.115 1.49373 0.502552 0
M  V30 10003 C 938.34 1.62752 1.28556 0
M  V30 10004 C 938.765 0.298285 1.8572 0
M  V30 10005 O 938.123 -0.733885 1.65782 0
M  V30 10006 C 938.171 2.69778 2.39274 0
M  V30 10007 O 937.275 2.28843 3.43081 0
M  V30 10008 H 936.616 0.544799 0.379592 0
M  V30 10009 H 939.146 1.9555 0.601792 0
M  V30 10010 H 939.156 2.91899 2.8506 0
M  V30 10011 H 937.831 3.66266 1.97033 0
M  V30 10012 H 936.408 2.17047 3.03224 0
M  V30 10013 N 938.594 -0.753485 1.38421 0
M  V30 10014 C 939.819 -1.54783 1.38047 0
M  V30 10015 C 940.244 -1.8808 -0.0276371 0
M  V30 10016 O 939.602 -1.5058 -1.00973 0
M  V30 10017 C 939.65 -2.82353 2.24297 0
M  V30 10018 O 938.754 -3.77509 1.66014 0
M  V30 10019 H 938.095 -0.468151 0.470883 0
M  V30 10020 H 940.625 -0.931144 1.82184 0
M  V30 10021 H 940.635 -3.31277 2.38159 0
M  V30 10022 H 939.31 -2.57449 3.26639 0
M  V30 10023 H 937.887 -3.36212 1.61294 0
M  V30 10024 N 940.072 -1.23292 -0.981677 0
M  V30 10025 C 941.319 -1.06424 -1.72279 0
M  V30 10026 C 941.647 0.399055 -1.90362 0
M  V30 10027 O 940.902 1.31181 -1.45224 0
M  V30 10028 C 941.201 -1.73339 -3.12551 0
M  V30 10029 C 940.867 -3.23256 -3.14351 0
M  V30 10030 C 939.529 -3.64159 -3.14549 0
M  V30 10031 C 941.881 -4.1916 -3.09765 0
M  V30 10032 C 939.209 -4.99428 -3.07877 0
M  V30 10033 C 941.561 -5.54419 -3.04635 0
M  V30 10034 C 940.225 -5.94688 -3.03154 0
M  V30 10035 H 939.495 -0.389434 -0.630415 0
M  V30 10036 H 942.142 -1.53208 -1.1489 0
M  V30 10037 H 940.447 -1.18911 -3.73319 0
M  V30 10038 H 942.144 -1.57767 -3.68661 0
M  V30 10039 H 938.734 -2.90693 -3.14953 0
M  V30 10040 H 942.918 -3.88569 -3.08753 0
M  V30 10041 H 938.174 -5.29844 -3.05083 0
M  V30 10042 H 942.348 -6.28448 -3.00043 0
M  V30 10043 H 939.975 -6.99468 -2.97739 0
M  V30 10044 N 941.55 1.18024 -1.04442 0
M  V30 10045 C 942.775 1.92573 -0.770097 0
M  V30 10046 C 943.2 1.75871 0.667169 0
M  V30 10047 O 942.558 1.07136 1.46258 0
M  V30 10048 C 942.606 3.41904 -1.14602 0
M  V30 10049 O 941.71 4.11491 -0.273712 0
M  V30 10050 H 941.051 0.600636 -0.283076 0
M  V30 10051 H 943.581 1.49645 -1.39526 0
M  V30 10052 H 943.591 3.92623 -1.10956 0
M  V30 10053 H 942.266 3.53382 -2.19304 0
M  V30 10054 H 940.843 3.71059 -0.370124 0
M  V30 10055 N 943.028 0.824394 1.34319 0
M  V30 10056 C 943.958 0.262077 2.32025 0
M  V30 10057 C 944.939 -0.622277 1.58309 0
M  V30 10058 O 946.124 -0.548848 1.86283 0
M  V30 10059 C 943.254 -0.57567 3.42496 0
M  V30 10060 C 942.208 0.21167 4.27476 0
M  V30 10061 C 941.534 -0.748913 5.29429 0
M  V30 10062 C 942.834 1.42068 5.02607 0
M  V30 10063 H 944.528 1.07842 2.79304 0
M  V30 10064 H 942.074 0.520022 1.34282 0
M  V30 10065 H 944.027 -0.979251 4.09864 0
M  V30 10066 H 942.751 -1.42508 2.93869 0
M  V30 10067 H 941.41 0.596636 3.61712 0
M  V30 10068 H 941.058 -1.59432 4.77064 0
M  V30 10069 H 940.758 -0.226313 5.87164 0
M  V30 10070 H 942.282 -1.15032 5.99667 0
M  V30 10071 H 943.696 1.09103 5.62823 0
M  V30 10072 H 942.093 1.87903 5.69923 0
M  V30 10073 H 943.163 2.1981 4.32217 0
M  V30 10074 N 944.506 -1.46559 0.579492 0
M  V30 10075 C 945.436 -2.33059 -0.143437 0
M  V30 10076 C 946.417 -1.4515 -0.886868 0
M  V30 10077 O 947.602 -1.73973 -0.862961 0
M  V30 10078 C 944.732 -3.27364 -1.15973 0
M  V30 10079 C 943.686 -4.24689 -0.531348 0
M  V30 10080 C 943.012 -5.08479 -1.65388 0
M  V30 10081 C 944.312 -5.1961 0.529391 0
M  V30 10082 H 946.006 -2.93753 0.578762 0
M  V30 10083 H 943.552 -1.41256 0.279775 0
M  V30 10084 H 945.505 -3.86732 -1.67382 0
M  V30 10085 H 944.229 -2.64771 -1.91217 0
M  V30 10086 H 942.888 -3.6658 -0.0383749 0
M  V30 10087 H 942.536 -4.42273 -2.3959 0
M  V30 10088 H 942.236 -5.74387 -1.23909 0
M  V30 10089 H 943.76 -5.70709 -2.17079 0
M  V30 10090 H 945.174 -5.73212 0.100506 0
M  V30 10091 H 943.571 -5.93843 0.86432 0
M  V30 10092 H 944.641 -4.63737 1.4169 0
M  V30 10093 N 945.984 -0.3171 -1.54377 0
M  V30 10094 C 947.212 0.289558 -2.04864 0
M  V30 10095 C 947.627 1.46284 -1.19359 0
M  V30 10096 O 946.984 1.81135 -0.222795 0
M  V30 10097 C 947.035 0.730273 -3.54047 0
M  V30 10098 O 946.756 -0.396325 -4.36304 0
M  V30 10099 C 948.257 1.40041 -4.20599 0
M  V30 10100 H 945.477 0.0605836 -0.668259 0
M  V30 10101 H 948.021 -0.461411 -1.99227 0
M  V30 10102 H 946.176 1.43123 -3.59992 0
M  V30 10103 H 946.59 -0.0502901 -5.24476 0
M  V30 10104 H 948.064 1.65979 -5.26455 0
M  V30 10105 H 948.541 2.34565 -3.71316 0
M  V30 10106 H 949.147 0.742206 -4.18774 0
M  V30 10107 N 947.462 1.57535 -0.0451378 0
M  V30 10108 C 948.739 1.83785 0.669523 0
M  V30 10109 C 949.119 0.932331 1.89396 0
M  V30 10110 O 948.467 -0.00813229 2.28499 0
M  V30 10111 C 948.677 3.33376 1.03255 0
M  V30 10112 C 950.025 4.00243 1.41741 0
M  V30 10113 O 951.049 3.37965 1.12507 0
M  V30 10114 O 949.908 5.10038 1.96275 0
M  V30 10115 H 947.002 0.758342 0.329919 0
M  V30 10116 H 949.548 1.69538 -0.0740415 0
M  V30 10117 H 948.32 3.90965 0.161777 0
M  V30 10118 H 947.943 3.52787 1.83376 0
M  V30 10119 N 948.94 -0.228186 1.55939 0
M  V30 10120 C 949.873 -1.30971 1.86874 0
M  V30 10121 C 950.851 -1.45517 0.725496 0
M  V30 10122 O 952.035 -1.61436 0.973181 0
M  V30 10123 C 949.162 -2.68089 2.06992 0
M  V30 10124 C 948.208 -2.70594 3.29669 0
M  V30 10125 S 949.041 -2.25325 4.85787 0
M  V30 10126 C 950.197 -3.64331 5.08934 0
M  V30 10127 H 950.43 -1.04536 2.78315 0
M  V30 10128 H 947.963 -0.430103 1.48288 0
M  V30 10129 H 949.921 -3.47033 2.19267 0
M  V30 10130 H 948.582 -2.91752 1.16359 0
M  V30 10131 H 947.775 -3.71338 3.4077 0
M  V30 10132 H 947.377 -1.99708 3.16216 0
M  V30 10133 H 949.669 -4.59972 4.97425 0
M  V30 10134 H 950.612 -3.58151 6.10847 0
M  V30 10135 H 951.02 -3.57711 4.36695 0
M  V30 10136 N 950.418 -1.49637 -0.494624 0
M  V30 10137 C 951.695 -1.4995 -1.25596 0
M  V30 10138 C 952.075 -0.230805 -2.09834 0
M  V30 10139 O 951.423 0.786625 -2.14533 0
M  V30 10140 C 951.633 -2.78204 -2.10721 0
M  V30 10141 C 952.981 -3.27946 -2.69698 0
M  V30 10142 O 954.005 -2.79365 -2.20984 0
M  V30 10143 O 952.864 -4.12571 -3.58395 0
M  V30 10144 H 949.958 -0.60044 -0.568684 0
M  V30 10145 H 952.504 -1.61906 -0.508371 0
M  V30 10146 H 951.276 -3.62029 -1.48494 0
M  V30 10147 H 950.899 -2.69139 -2.92661 0
M  V30 10148 N 951.896 0.746133 -1.38819 0
M  V30 10149 C 953.173 1.49652 -1.25951 0
M  V30 10150 C 953.553 2.10663 0.135833 0
M  V30 10151 O 952.901 1.97682 1.14604 0
M  V30 10152 C 953.111 2.5569 -2.37537 0
M  V30 10153 C 954.459 3.22385 -2.76321 0
M  V30 10154 O 955.483 2.65998 -2.36904 0
M  V30 10155 O 954.342 4.2439 -3.44319 0
M  V30 10156 H 951.436 0.664019 -0.492958 0
M  V30 10157 H 953.982 0.780908 -1.50665 0
M  V30 10158 H 952.754 2.08908 -3.30867 0
M  V30 10159 H 952.377 3.34823 -2.14427 0
M  V30 10160 N 953.375 1.23811 0.975125 0
M  V30 10161 C 954.621 1.07495 1.71967 0
M  V30 10162 C 954.954 -0.386451 1.90316 0
M  V30 10163 O 954.229 -1.28591 1.45927 0
M  V30 10164 C 954.512 1.80694 3.11483 0
M  V30 10165 C 954.365 3.3454 3.00671 0
M  V30 10166 C 955.684 1.57367 4.11003 0
M  V30 10167 H 952.803 0.3919 0.624166 0
M  V30 10168 H 955.445 1.52383 1.13487 0
M  V30 10169 H 953.595 1.42538 3.61407 0
M  V30 10170 H 955.267 3.8225 2.5823 0
M  V30 10171 H 953.51 3.63301 2.37054 0
M  V30 10172 H 954.181 3.80951 3.99475 0
M  V30 10173 H 956.657 1.90545 3.69908 0
M  V30 10174 H 955.533 2.11052 5.06703 0
M  V30 10175 H 955.794 0.510221 4.39146 0
M  V30 10176 N 954.853 -1.17469 1.05066 0
M  V30 10177 C 956.081 -1.9162 0.780334 0
M  V30 10178 C 956.496 -1.76745 -0.663817 0
M  V30 10179 O 955.853 -1.10377 -1.45338 0
M  V30 10180 C 955.904 -3.42723 1.14992 0
M  V30 10181 O 955.625 -3.57139 2.53739 0
M  V30 10182 C 957.126 -4.33952 0.905549 0
M  V30 10183 H 954.346 -0.608022 0.283814 0
M  V30 10184 H 956.89 -1.4897 1.401 0
M  V30 10185 H 955.045 -3.83124 0.57403 0
M  V30 10186 H 955.459 -4.5075 2.68189 0
M  V30 10187 H 956.933 -5.38487 1.21391 0
M  V30 10188 H 957.41 -4.38911 -0.159295 0
M  V30 10189 H 958.016 -3.99263 1.46522 0
M  V30 10190 N 956.331 -0.831506 -1.3388 0
M  V30 10191 C 957.263 -0.216908 -2.28171 0
M  V30 10192 C 958.276 0.598141 -1.51414 0
M  V30 10193 O 959.465 0.426416 -1.73332 0
M  V30 10194 C 956.565 0.713831 -3.31297 0
M  V30 10195 C 955.738 -0.0602673 -4.37358 0
M  V30 10196 C 954.797 0.792696 -5.20195 0
M  V30 10197 O 953.823 0.234564 -5.68716 0
M  V30 10198 N 955.025 2.11119 -5.40748 0
M  V30 10199 H 957.79 -1.02704 -2.81553 0
M  V30 10200 H 955.351 -0.689272 -1.46495 0
M  V30 10201 H 957.343 1.28925 -3.83615 0
M  V30 10202 H 955.913 1.42469 -2.78247 0
M  V30 10203 H 955.133 -0.817041 -3.8564 0
M  V30 10204 H 956.421 -0.592822 -5.05335 0
M  V30 10205 H 955.819 2.58828 -5.03016 0
M  V30 10206 H 954.376 2.63527 -5.96151 0
M  V30 10207 N 957.809 1.4625 -0.587256 0
M  V30 10208 C 959.055 2.02662 -0.0746851 0
M  V30 10209 C 959.388 1.45723 1.28368 0
M  V30 10210 O 958.663 0.624062 1.84216 0
M  V30 10211 C 958.946 3.60097 -0.0138109 0
M  V30 10212 C 958.799 4.27412 -1.4014 0
M  V30 10213 C 960.118 4.34744 0.684491 0
M  V30 10214 H 957.237 0.736444 -0.0286144 0
M  V30 10215 H 959.879 1.74341 -0.755328 0
M  V30 10216 H 958.029 3.84357 0.56583 0
M  V30 10217 H 959.701 4.14401 -2.02656 0
M  V30 10218 H 957.944 3.86598 -1.96785 0
M  V30 10219 H 958.615 5.362 -1.31124 0
M  V30 10220 H 961.091 4.15657 0.192023 0
M  V30 10221 H 959.967 5.44468 0.696127 0
M  V30 10222 H 960.228 4.06132 1.74669 0
M  V30 10223 N 959.287 0.325282 1.54207 0
M  V30 10224 C 960.517 -0.278285 2.04717 0
M  V30 10225 C 960.925 -1.46198 1.20095 0
M  V30 10226 O 960.268 -1.82319 0.224813 0
M  V30 10227 C 960.33 -0.774387 3.51061 0
M  V30 10228 C 959.994 0.287225 4.56096 0
M  V30 10229 C 960.991 1.12388 5.07607 0
M  V30 10230 C 958.676 0.435908 5.00405 0
M  V30 10231 C 960.67 2.09492 6.0199 0
M  V30 10232 C 958.357 1.41037 5.94602 0
M  V30 10233 C 959.355 2.23834 6.45281 0
M  V30 10234 O 959.043 3.19625 7.37628 0
M  V30 10235 H 958.775 -0.0608309 0.673257 0
M  V30 10236 H 961.329 0.470049 1.99949 0
M  V30 10237 H 959.559 -1.57366 3.53232 0
M  V30 10238 H 961.248 -1.29649 3.84637 0
M  V30 10239 H 962.014 1.02 4.74153 0
M  V30 10240 H 957.893 -0.198668 4.60572 0
M  V30 10241 H 961.437 2.74157 6.4147 0
M  V30 10242 H 957.334 1.51487 6.27473 0
M  V30 10243 H 958.102 3.14884 7.55507 0
M  V30 10244 N 960.765 -1.57509 0.0534917 0
M  V30 10245 C 961.712 -2.11667 -0.920101 0
M  V30 10246 C 962.682 -1.0246 -1.30733 0
M  V30 10247 O 963.867 -1.30021 -1.39639 0
M  V30 10248 C 961.007 -2.66803 -2.18883 0
M  V30 10249 C 960.12 -3.90104 -1.85588 0
M  V30 10250 C 959.255 -4.33547 -3.06937 0
M  V30 10251 C 958.294 -5.49542 -2.69573 0
M  V30 10252 N 957.431 -5.88029 -3.83623 0
M  V30 10253 H 962.271 -2.94562 -0.451371 0
M  V30 10254 H 959.808 -1.45576 -0.211168 0
M  V30 10255 H 961.766 -2.96871 -2.93127 0
M  V30 10256 H 960.396 -1.86702 -2.63329 0
M  V30 10257 H 959.448 -3.66613 -1.01484 0
M  V30 10258 H 960.76 -4.74404 -1.54087 0
M  V30 10259 H 959.914 -4.6518 -3.89477 0
M  V30 10260 H 958.653 -3.48064 -3.41618 0
M  V30 10261 H 957.658 -5.17579 -1.8545 0
M  V30 10262 H 958.883 -6.36743 -2.36082 0
M  V30 10263 H 956.829 -5.05498 -4.181 0
M  V30 10264 H 956.746 -6.67025 -3.55828 0
M  V30 10265 H 958.014 -6.24277 -4.66796 0
M  V30 10266 N 962.243 0.219913 -1.56058 0
M  V30 10267 C 963.175 1.29604 -1.89038 0
M  V30 10268 C 964.188 1.42964 -0.778791 0
M  V30 10269 O 965.377 1.43832 -1.0571 0
M  V30 10270 C 962.477 2.67145 -2.08534 0
M  V30 10271 C 961.65 2.75712 -3.39561 0
M  V30 10272 C 960.709 3.94279 -3.48469 0
M  V30 10273 O 959.735 3.8254 -4.21487 0
M  V30 10274 N 960.937 5.08655 -2.79732 0
M  V30 10275 H 963.702 1.01638 -2.81939 0
M  V30 10276 H 961.263 0.409945 -1.56624 0
M  V30 10277 H 963.255 3.44847 -2.11808 0
M  V30 10278 H 961.825 2.87704 -1.2225 0
M  V30 10279 H 961.045 1.84475 -3.48371 0
M  V30 10280 H 962.333 2.78407 -4.25872 0
M  V30 10281 H 961.731 5.21088 -2.2019 0
M  V30 10282 H 960.288 5.84394 -2.88665 0
M  V30 10283 N 963.721 1.49897 0.486681 0
M  V30 10284 C 964.684 1.67086 1.56891 0
M  V30 10285 C 965.684 0.54209 1.51387 0
M  V30 10286 O 966.874 0.80883 1.54284 0
M  V30 10287 C 964.006 1.68159 2.96539 0
M  V30 10288 H 965.199 2.63626 1.42974 0
M  V30 10289 H 962.752 1.39143 0.711954 0
M  V30 10290 H 963.487 0.732562 3.15918 0
M  V30 10291 H 963.272 2.50147 3.01942 0
M  V30 10292 H 964.762 1.83466 3.7514 0
M  V30 10293 N 965.199 -0.738761 1.39212 0
M  V30 10294 C 966.129 -1.86602 1.40364 0
M  V30 10295 C 967.11 -1.67984 0.267495 0
M  V30 10296 O 968.295 -1.88358 0.472765 0
M  V30 10297 C 965.425 -3.24308 1.24265 0
M  V30 10298 C 964.379 -3.57557 2.35239 0
M  V30 10299 C 963.705 -4.94159 2.04233 0
M  V30 10300 C 965.005 -3.60914 3.77543 0
M  V30 10301 H 966.699 -1.85896 2.34698 0
M  V30 10302 H 964.245 -0.892959 1.1297 0
M  V30 10303 H 966.198 -4.02838 1.23692 0
M  V30 10304 H 964.922 -3.25531 0.263974 0
M  V30 10305 H 963.581 -2.81354 2.35022 0
M  V30 10306 H 963.229 -4.91959 1.04813 0
M  V30 10307 H 962.929 -5.17373 2.78567 0
M  V30 10308 H 964.453 -5.7505 2.05303 0
M  V30 10309 H 965.867 -4.29528 3.79709 0
M  V30 10310 H 964.264 -3.95644 4.51205 0
M  V30 10311 H 965.334 -2.60803 4.08791 0
M  V30 10312 N 966.677 -1.24326 -0.968545 0
M  V30 10313 C 967.587 -1.05194 -2.09694 0
M  V30 10314 C 968.603 0.00701291 -1.73999 0
M  V30 10315 O 969.779 -0.190981 -2.00492 0
M  V30 10316 C 966.844 -0.658075 -3.40397 0
M  V30 10317 C 965.905 -1.79341 -3.90045 0
M  V30 10318 C 965.138 -1.41824 -5.14511 0
M  V30 10319 O 965.361 -0.307693 -5.69569 0
M  V30 10320 O 964.295 -2.24358 -5.58522 0
M  V30 10321 H 968.121 -1.99791 -2.2873 0
M  V30 10322 H 965.706 -1.03138 -1.08088 0
M  V30 10323 H 967.588 -0.449911 -4.18991 0
M  V30 10324 H 966.263 0.258782 -3.22664 0
M  V30 10325 H 965.17 -2.05632 -3.12516 0
M  V30 10326 H 966.503 -2.68901 -4.12254 0
M  V30 10327 N 968.156 1.1691 -1.05688 0
M  V30 10328 C 969.405 1.86629 -0.765022 0
M  V30 10329 C 969.718 1.82223 0.710918 0
M  V30 10330 O 970.924 2.47462 1.11691 0
M  V30 10331 C 969.38 3.34886 -1.3183 0
M  V30 10332 C 968.988 3.47781 -2.82404 0
M  V30 10333 C 970.732 4.099 -1.10372 0
M  V30 10334 C 968.639 4.9009 -3.31008 0
M  V30 10335 H 967.569 0.699082 -0.282491 0
M  V30 10336 H 970.22 1.31989 -1.27481 0
M  V30 10337 H 968.602 3.89094 -0.736312 0
M  V30 10338 H 969.776 3.03765 -3.46502 0
M  V30 10339 H 968.091 2.86193 -3.02461 0
M  V30 10340 H 970.688 5.14894 -1.4418 0
M  V30 10341 H 971.031 4.16279 -0.0417372 0
M  V30 10342 H 971.564 3.61913 -1.65117 0
M  V30 10343 H 968.303 4.88887 -4.36657 0
M  V30 10344 H 967.823 5.34756 -2.71655 0
M  V30 10345 H 969.502 5.58881 -3.25977 0
M  V30 10346 N 969.634 0.838594 1.33437 0
M  V30 10347 C 970.874 0.440239 1.99603 0
M  V30 10348 C 971.238 -0.982061 1.64984 0
M  V30 10349 O 972.439 -1.48413 2.24114 0
M  V30 10350 C 970.71 0.654201 3.51362 0
M  V30 10351 S 972.269 0.351025 4.37394 0
M  V30 10352 H 969.087 0.165608 0.691444 0
M  V30 10353 H 971.689 1.08782 1.6244 0
M  V30 10354 H 970.393 1.68873 3.74045 0
M  V30 10355 H 969.924 -0.00754449 3.93399 0
M  V30 10356 H 971.939 -0.829298 4.89221 0
M  V30 10357 N 971.112 -1.45937 0.595003 0
M  V30 10358 C 972.337 -2.07207 0.0894416 0
M  V30 10359 C 972.762 -1.43884 -1.21157 0
M  V30 10360 O 972.12 -0.526998 -1.73472 0
M  V30 10361 C 972.168 -3.60565 -0.0499828 0
M  V30 10362 O 971.272 -3.97364 -1.10342 0
M  V30 10363 H 970.613 -0.660471 0.0683627 0
M  V30 10364 H 973.143 -1.87386 0.82144 0
M  V30 10365 H 973.153 -4.0722 -0.252234 0
M  V30 10366 H 971.828 -4.06044 0.90006 0
M  V30 10367 H 970.405 -3.62401 -0.878645 0
M  V30 10368 N 972.59 -0.333456 -1.54032 0
M  V30 10369 C 973.537 0.527981 -2.2468 0
M  V30 10370 C 974.507 1.10371 -1.24127 0
M  V30 10371 O 975.692 1.14221 -1.52834 0
M  V30 10372 C 972.832 1.67808 -3.01553 0
M  V30 10373 C 971.945 1.13064 -4.16942 0
M  V30 10374 C 971.08 2.24722 -4.81325 0
M  V30 10375 C 970.119 1.67277 -5.88799 0
M  V30 10376 N 969.256 2.72638 -6.47003 0
M  V30 10377 H 974.096 -0.0810308 -2.9789 0
M  V30 10378 H 971.633 -0.051761 -1.47009 0
M  V30 10379 H 973.591 2.35502 -3.44376 0
M  V30 10380 H 972.221 2.25823 -2.30659 0
M  V30 10381 H 971.273 0.344948 -3.78833 0
M  V30 10382 H 972.585 0.670373 -4.94275 0
M  V30 10383 H 971.739 3.00301 -5.27166 0
M  V30 10384 H 970.478 2.74089 -4.03394 0
M  V30 10385 H 969.483 0.902002 -5.4235 0
M  V30 10386 H 970.708 1.18775 -6.68632 0
M  V30 10387 H 968.654 3.21277 -5.71941 0
M  V30 10388 H 968.571 2.31204 -7.19778 0
M  V30 10389 H 969.839 3.48015 -6.97499 0
M  V30 10390 N 974.068 1.57479 -0.061844 0
M  V30 10391 C 974.998 2.15181 0.9066 0
M  V30 10392 C 975.979 1.07624 1.31724 0
M  V30 10393 O 977.164 1.35614 1.39006 0
M  V30 10394 C 974.294 2.70542 2.17771 0
M  V30 10395 C 973.248 3.83178 1.9068 0
M  V30 10396 C 972.574 4.25099 3.24337 0
M  V30 10397 C 973.874 5.07853 1.21994 0
M  V30 10398 H 975.568 2.96355 0.42594 0
M  V30 10399 H 973.114 1.42556 0.203435 0
M  V30 10400 H 975.067 3.09552 2.85929 0
M  V30 10401 H 973.791 1.86575 2.68062 0
M  V30 10402 H 972.45 3.44656 1.24931 0
M  V30 10403 H 972.098 3.38069 3.72449 0
M  V30 10404 H 971.798 5.01021 3.07005 0
M  V30 10405 H 973.322 4.66718 3.93709 0
M  V30 10406 H 974.736 5.44242 1.80204 0
M  V30 10407 H 973.133 5.88987 1.14954 0
M  V30 10408 H 974.203 4.84497 0.197536 0
M  V30 10409 N 975.546 -0.211634 1.56173 0
M  V30 10410 C 976.494 -1.28188 1.94089 0
M  V30 10411 C 977.488 -1.47999 0.824167 0
M  V30 10412 O 978.694 -1.49056 1.00907 0
M  V30 10413 H 975.069 -0.42999 0.616938 0
M  V30 10414 H 977.04 -0.934962 2.83374 0
M  V30 10415 C 975.789 -2.62294 2.28248 0
M  V30 10416 H 975.112 -2.4786 3.13696 0
M  V30 10417 H 976.552 -3.35967 2.58655 0
M  V30 10418 C 975.011 -3.18049 1.11113 0
M  V30 10419 O 975.541 -3.99923 0.377458 0
M  V30 10420 N 973.747 -2.76561 0.892321 0
M  V30 10421 H 973.294 -2.10088 1.49067 0
M  V30 10422 H 973.252 -3.14206 0.110344 0
M  V30 10423 O 977.063 -1.57505 -0.357004 0
M  V30 10424 H 977.754 -1.65447 -1.00731 0
M  V30 END ATOM
M  V30 BEGIN BOND
M  V30 END BOND
M  V30 END CTAB
M  END
$$$$
