drugbank_target|P30153 Serine/threonine-protein phosphatase 2A 65 kDa regulatory subunit A alpha isoform (DB02506; DB06905)
 OpenBabel12092120383D

  0  0  0     0  0            999 V3000
M  V30 BEGIN CTAB
M  V30 COUNTS 9253 9327 0 0 0
M  V30 BEGIN ATOM
M  V30 1 H -0.908 1.98254 -0.117106 0
M  V30 2 N 0 1.576 0 0
M  V30 3 C 0.933 2.03868 1.02534 0
M  V30 4 C 1.911 0.928543 1.3348 0
M  V30 5 O 3.095 1.19667 1.45644 0
M  V30 6 C 0.222 2.43627 2.35294 0
M  V30 7 C -0.732 3.65373 2.2001 0
M  V30 8 S 0.101 5.13292 1.52614 0
M  V30 9 C 1.257 5.56322 2.86805 0
M  V30 10 H 1.49 2.90518 0.631377 0
M  V30 11 H -0.977 1.52953 0.210867 0
M  V30 12 H 0.981 2.67203 3.11629 0
M  V30 13 H -0.358 1.57376 2.7183 0
M  V30 14 H -1.165 3.90944 3.18086 0
M  V30 15 H -1.563 3.418 1.51819 0
M  V30 16 H 0.729 5.58782 3.83104 0
M  V30 17 H 1.672 6.56266 2.65933 0
M  V30 18 H 2.08 4.83886 2.90714 0
M  V30 19 N 1.4781 -0.272755 1.55222 0
M  V30 20 C 2.4411 -1.32041 1.87344 0
M  V30 21 C 3.4411 -1.42342 0.74803 0
M  V30 22 O 4.6311 -1.41488 1.0162 0
M  V30 23 C 1.7631 -2.70173 2.07893 0
M  V30 24 H 2.9561 -1.04789 2.80997 0
M  V30 25 H 0.5091 -0.51083 1.47717 0
M  V30 26 H 1.2441 -3.02605 1.16622 0
M  V30 27 H 1.0291 -2.64082 2.89833 0
M  V30 28 H 2.5191 -3.45869 2.34017 0
M  V30 29 N 2.9562 -1.48159 -0.537278 0
M  V30 30 C 3.9192 -1.61665 -1.62472 0
M  V30 31 C 4.9192 -0.490395 -1.5314 0
M  V30 32 O 6.1092 -0.755998 -1.5694 0
M  V30 33 C 3.2412 -1.57997 -3.02076 0
M  V30 34 H 4.4342 -2.58621 -1.51839 0
M  V30 35 H 1.9872 -1.36647 -0.758771 0
M  V30 36 H 2.7222 -0.624913 -3.18222 0
M  V30 37 H 2.5072 -2.39755 -3.10258 0
M  V30 38 H 3.9972 -1.70627 -3.81151 0
M  V30 39 N 4.4343 0.785586 -1.36625 0
M  V30 40 C 5.3973 1.87999 -1.31107 0
M  V30 41 C 6.3973 1.59316 -0.217959 0
M  V30 42 O 7.5873 1.67656 -0.472977 0
M  V30 43 C 4.7193 3.24861 -1.03334 0
M  V30 44 H 5.9123 1.94307 -2.2844 0
M  V30 45 H 3.4653 0.983813 -1.21453 0
M  V30 46 H 4.2003 3.24235 -0.0647432 0
M  V30 47 H 3.9853 3.4707 -1.82441 0
M  V30 48 H 5.4753 4.04929 -1.02088 0
M  V30 49 N 5.9124 1.20967 1.01018 0
M  V30 50 C 7.1894 0.93264 1.71934 0
M  V30 51 C 7.5694 -0.55692 2.03621 0
M  V30 52 O 6.9174 -1.52035 1.7058 0
M  V30 53 C 7.1274 1.81233 2.98254 0
M  V30 54 C 8.4754 2.05804 3.71389 0
M  V30 55 O 9.4994 1.78539 3.08225 0
M  V30 56 O 8.3584 2.51888 4.84989 0
M  V30 57 H 5.4524 0.349272 0.749625 0
M  V30 58 H 7.9984 1.31871 1.06808 0
M  V30 59 H 6.7704 2.82067 2.71208 0
M  V30 60 H 6.3934 1.42674 3.7112 0
M  V30 61 N 7.3905 -1.2043 1.01659 0
M  V30 62 C 8.6385 -1.89423 0.704522 0
M  V30 63 C 8.9595 -1.79231 -0.768197 0
M  V30 64 O 8.2295 -1.1947 -1.55254 0
M  V30 65 H 6.8095 -0.701178 0.257602 0
M  V30 66 H 9.4715 -1.4626 1.28818 0
M  V30 67 H 8.5675 -2.96052 0.987916 0
M  V30 68 N 8.8686 -0.792821 -1.36206 0
M  V30 69 C 10.1456 -0.290627 -1.93429 0
M  V30 70 C 10.5256 1.21773 -1.72437 0
M  V30 71 O 9.8736 2.0108 -1.08531 0
M  V30 72 C 10.0836 -0.686973 -3.42172 0
M  V30 73 C 11.4316 -0.668643 -4.19302 0
M  V30 74 O 12.4556 -0.627658 -3.50626 0
M  V30 75 O 11.3146 -0.714597 -5.41808 0
M  V30 76 H 8.4086 -0.0727927 -0.82379 0
M  V30 77 H 10.9546 -0.875593 -1.45367 0
M  V30 78 H 9.7266 -1.72711 -3.51122 0
M  V30 79 H 9.3496 -0.0760733 -3.97527 0
M  V30 80 N 10.3467 1.47872 -0.545128 0
M  V30 81 C 11.6237 1.9554 0.0485222 0
M  V30 82 C 12.0037 1.4876 1.49779 0
M  V30 83 O 11.3517 0.720925 2.16829 0
M  V30 84 C 11.5617 3.48898 -0.084417 0
M  V30 85 C 12.9097 4.24547 0.0671239 0
M  V30 86 O 13.9337 3.56198 -0.0113649 0
M  V30 87 O 12.7927 5.45999 0.233882 0
M  V30 88 H 9.8867 0.823957 0.0708773 0
M  V30 89 H 12.4327 1.58327 -0.610798 0
M  V30 90 H 11.2047 3.75714 -1.09337 0
M  V30 91 H 10.8277 3.92845 0.613066 0
M  V30 92 N 11.8248 0.280983 1.55075 0
M  V30 93 C 13.0498 -0.340154 2.04592 0
M  V30 94 C 13.4748 -1.48246 1.15779 0
M  V30 95 O 12.8328 -1.80614 0.15761 0
M  V30 96 C 12.8808 -0.793104 3.5177 0
M  V30 97 O 11.9848 -1.89981 3.66034 0
M  V30 98 H 11.3258 -0.0694289 0.66036 0
M  V30 99 H 13.8558 0.416993 2.00306 0
M  V30 100 H 13.8658 -1.08729 3.93245 0
M  V30 101 H 12.5408 0.0426163 4.15878 0
M  V30 102 H 11.1178 -1.60771 3.36463 0
M  V30 103 N 13.3029 -1.57598 0.00835791 0
M  V30 104 C 14.2329 -2.1198 -0.979113 0
M  V30 105 C 15.2139 -1.03091 -1.35301 0
M  V30 106 O 16.3989 -1.30818 -1.43528 0
M  V30 107 C 13.5289 -2.62995 -2.26828 0
M  V30 108 C 12.4829 -3.76485 -2.03576 0
M  V30 109 C 11.8089 -4.13846 -3.38579 0
M  V30 110 C 13.1089 -5.0342 -1.39161 0
M  V30 111 H 14.8029 -2.94738 -0.526281 0
M  V30 112 H 12.3489 -1.41783 -0.251704 0
M  V30 113 H 14.3019 -2.99669 -2.96271 0
M  V30 114 H 13.0259 -1.7737 -2.7424 0
M  V30 115 H 11.6849 -3.40217 -1.36557 0
M  V30 116 H 11.3329 -3.25232 -3.83709 0
M  V30 117 H 11.0329 -4.90312 -3.23834 0
M  V30 118 H 12.5569 -4.53086 -4.09323 0
M  V30 119 H 13.9709 -5.37812 -1.98573 0
M  V30 120 H 12.3679 -5.84746 -1.34878 0
M  V30 121 H 13.4379 -4.83548 -0.361868 0
M  V30 122 N 14.781 0.264519 -1.55364 0
M  V30 123 C 16.011 1.01153 -1.80143 0
M  V30 124 C 16.419 1.80115 -0.579253 0
M  V30 125 O 15.762 1.77813 0.46132 0
M  V30 126 C 15.824 2.01098 -2.97993 0
M  V30 127 C 15.488 1.40995 -4.34706 0
M  V30 128 C 16.485 0.821316 -5.13372 0
M  V30 129 C 14.17 1.43461 -4.81378 0
M  V30 130 C 16.164 0.265339 -6.36847 0
M  V30 131 C 13.851 0.874771 -6.04807 0
M  V30 132 C 14.849 0.291146 -6.82379 0
M  V30 133 O 14.537 -0.260093 -8.03479 0
M  V30 134 H 14.269 0.304125 -0.603725 0
M  V30 135 H 16.823 0.298089 -2.03225 0
M  V30 136 H 15.053 2.76224 -2.70623 0
M  V30 137 H 16.742 2.61997 -3.1002 0
M  V30 138 H 17.508 0.794903 -4.78442 0
M  V30 139 H 13.387 1.87826 -4.21002 0
M  V30 140 H 16.931 -0.190837 -6.97339 0
M  V30 141 H 12.828 0.898452 -6.39217 0
M  V30 142 H 13.596 -0.150265 -8.18362 0
M  V30 143 N 16.2591 1.48442 0.529413 0
M  V30 144 C 17.6701 1.5002 1.11134 0
M  V30 145 C 18.0211 0.27031 1.94329 0
M  V30 146 O 17.1461 -0.622507 2.07253 0
M  V30 147 C 17.7411 2.71834 2.02217 0
M  V30 148 C 16.3001 2.76283 2.55627 0
M  V30 149 C 15.4471 2.43542 1.326 0
M  V30 150 H 18.3981 1.5555 0.314641 0
M  V30 151 H 18.4191 2.50384 2.8651 0
M  V30 152 H 17.9311 3.61331 1.41639 0
M  V30 153 H 16.0321 1.90995 3.19924 0
M  V30 154 H 16.1451 3.77725 2.94721 0
M  V30 155 H 14.5091 1.94709 1.64196 0
M  V30 156 H 15.2921 3.3528 0.737734 0
M  V30 157 N 17.7372 -0.778329 1.37039 0
M  V30 158 C 18.9862 -1.53189 1.3121 0
M  V30 159 C 19.2992 -1.95328 -0.103095 0
M  V30 160 O 20.5052 -2.70012 -0.283826 0
M  V30 161 C 18.9612 -2.76591 2.30272 0
M  V30 162 C 18.5692 -2.41577 3.77286 0
M  V30 163 C 20.3132 -3.5455 2.33441 0
M  V30 164 C 18.2202 -3.61441 4.68096 0
M  V30 165 H 17.1502 -0.5751 0.487622 0
M  V30 166 H 19.8012 -0.853101 1.62464 0
M  V30 167 H 18.1832 -3.46326 1.92027 0
M  V30 168 H 19.3572 -1.79668 4.2433 0
M  V30 169 H 17.6722 -1.76806 3.76999 0
M  V30 170 H 20.2692 -4.43628 2.98493 0
M  V30 171 H 20.6122 -3.93936 1.34611 0
M  V30 172 H 21.1452 -2.91805 2.7036 0
M  V30 173 H 17.8842 -3.27142 5.6803 0
M  V30 174 H 17.4042 -4.22478 4.25761 0
M  V30 175 H 19.0832 -4.28335 4.8491 0
M  V30 176 N 19.2153 -1.21501 -1.00376 0
M  V30 177 C 20.1783 -0.976927 -2.07337 0
M  V30 178 C 21.1783 0.0525322 -1.60714 0
M  V30 179 O 22.3683 -0.184869 -1.73216 0
M  V30 180 C 19.5003 -0.473423 -3.37597 0
M  V30 181 H 20.6933 -1.92587 -2.29892 0
M  V30 182 H 18.2463 -1.03217 -1.17371 0
M  V30 183 H 18.9813 0.480379 -3.20722 0
M  V30 184 H 18.7663 -1.216 -3.72768 0
M  V30 185 H 20.2563 -0.32675 -4.1632 0
M  V30 186 N 20.6934 1.19889 -1.02296 0
M  V30 187 C 21.9394 1.89701 -0.717033 0
M  V30 188 C 22.2724 1.7905 0.751989 0
M  V30 189 O 21.5474 1.17891 1.547 0
M  V30 190 C 21.8304 3.40858 -1.16136 0
M  V30 191 C 21.6834 3.60411 -2.69117 0
M  V30 192 C 23.0024 4.33876 -0.737549 0
M  V30 193 H 20.1214 0.688874 -0.261957 0
M  V30 194 H 22.7634 1.41154 -1.27183 0
M  V30 195 H 20.9134 3.82335 -0.689342 0
M  V30 196 H 22.5854 3.28145 -3.2422 0
M  V30 197 H 20.8284 3.03665 -3.0979 0
M  V30 198 H 21.4994 4.66396 -2.95261 0
M  V30 199 H 23.9754 4.00081 -1.14344 0
M  V30 200 H 22.8514 5.38242 -1.0764 0
M  V30 201 H 23.1124 4.40628 0.360436 0
M  V30 202 N 22.1715 0.800033 1.35784 0
M  V30 203 C 23.1015 0.220184 2.3246 0
M  V30 204 C 24.0825 -0.65073 1.57161 0
M  V30 205 O 25.2675 -0.582359 1.85263 0
M  V30 206 C 22.3975 -0.637353 3.41402 0
M  V30 207 C 21.3515 0.134531 4.27789 0
M  V30 208 C 20.6775 -0.844285 5.27992 0
M  V30 209 C 21.9775 1.32979 5.05088 0
M  V30 210 H 23.6715 1.02787 2.81203 0
M  V30 211 H 21.2175 0.495717 1.35199 0
M  V30 212 H 23.1705 -1.05302 4.08031 0
M  V30 213 H 21.8945 -1.47785 2.91251 0
M  V30 214 H 20.5535 0.531296 3.6273 0
M  V30 215 H 20.2015 -1.68011 4.74111 0
M  V30 216 H 19.9015 -0.332184 5.8666 0
M  V30 217 H 21.4255 -1.2583 5.97494 0
M  V30 218 H 22.8395 0.98934 5.64699 0
M  V30 219 H 21.2365 1.77593 5.7322 0
M  V30 220 H 22.3065 2.11978 4.36111 0
M  V30 221 N 23.6496 -1.47581 0.552962 0
M  V30 222 C 24.8986 -2.01684 0.0251995 0
M  V30 223 C 25.2116 -1.43317 -1.33115 0
M  V30 224 O 26.4176 -1.89057 -1.94858 0
M  V30 225 C 24.8736 -3.599 -0.00542052 0
M  V30 226 C 24.4816 -4.27257 1.34742 0
M  V30 227 C 26.2256 -4.21768 -0.4808 0
M  V30 228 C 24.1326 -5.77467 1.27614 0
M  V30 229 H 23.0626 -0.753979 0.00565033 0
M  V30 230 H 25.7136 -1.69616 0.70018 0
M  V30 231 H 24.0956 -3.88911 -0.745961 0
M  V30 232 H 25.2696 -4.09893 2.10534 0
M  V30 233 H 23.5846 -3.77358 1.76039 0
M  V30 234 H 26.1816 -5.31838 -0.55246 0
M  V30 235 H 26.5246 -3.88651 -1.49184 0
M  V30 236 H 27.0576 -3.97273 0.204752 0
M  V30 237 H 23.7966 -6.15196 2.26304 0
M  V30 238 H 23.3166 -5.9718 0.55996 0
M  V30 239 H 24.9956 -6.3959 0.976421 0
M  V30 240 N 25.1277 -0.289203 -1.54924 0
M  V30 241 C 26.4047 0.376032 -1.91951 0
M  V30 242 C 26.7847 1.72622 -1.21511 0
M  V30 243 O 26.1327 2.25853 -0.346767 0
M  V30 244 C 26.3427 0.502378 -3.45365 0
M  V30 245 C 27.6907 0.778741 -4.17398 0
M  V30 246 O 28.7147 0.586647 -3.51336 0
M  V30 247 O 27.5737 1.14698 -5.34328 0
M  V30 248 H 24.6677 0.208167 -0.800372 0
M  V30 249 H 27.2137 -0.336394 -1.66332 0
M  V30 250 H 25.9857 -0.447255 -3.88736 0
M  V30 251 H 25.6087 1.26373 -3.76982 0
M  V30 252 N 26.6058 1.57591 -0.0167156 0
M  V30 253 C 27.5158 2.1291 0.98521 0
M  V30 254 C 28.5318 1.07834 1.36557 0
M  V30 255 O 29.7078 1.39826 1.44951 0
M  V30 256 C 26.7728 2.63512 2.25305 0
M  V30 257 C 25.8338 3.83256 1.93426 0
M  V30 258 C 25.0668 4.31435 3.14165 0
M  V30 259 O 25.2898 3.78851 4.26413 0
M  V30 260 O 24.2238 5.23416 2.97186 0
M  V30 261 H 28.0498 2.98772 0.544888 0
M  V30 262 H 25.6348 1.48012 0.203141 0
M  V30 263 H 27.5168 2.96183 2.99756 0
M  V30 264 H 26.1918 1.8074 2.68542 0
M  V30 265 H 25.0988 3.55531 1.16398 0
M  V30 266 H 26.4318 4.67153 1.55013 0
M  V30 267 N 28.0839 -0.256276 1.55502 0
M  V30 268 C 29.0139 -1.32102 1.92539 0
M  V30 269 C 29.9949 -1.50684 0.789194 0
M  V30 270 O 31.1799 -1.63449 1.04872 0
M  V30 271 C 28.3099 -2.67752 2.21192 0
M  V30 272 C 27.2639 -2.63878 3.36975 0
M  V30 273 C 26.5899 -4.03236 3.51147 0
M  V30 274 C 27.8899 -2.21682 4.72921 0
M  V30 275 H 29.5839 -1.01351 2.81724 0
M  V30 276 H 27.1299 -0.486105 1.35547 0
M  V30 277 H 29.0829 -3.42365 2.45691 0
M  V30 278 H 27.8069 -3.0012 1.28824 0
M  V30 279 H 26.4659 -1.91722 3.12471 0
M  V30 280 H 26.1139 -4.32854 2.56216 0
M  V30 281 H 25.8139 -4.01535 4.29003 0
M  V30 282 H 27.3379 -4.79563 3.77957 0
M  V30 283 H 28.7519 -2.86023 4.96854 0
M  V30 284 H 27.1489 -2.3111 5.53812 0
M  V30 285 H 28.2189 -1.16833 4.70615 0
M  V30 286 N 29.562 -1.4872 -0.521534 0
M  V30 287 C 30.978 -1.35028 -0.850855 0
M  V30 288 C 31.178 -0.367712 -1.98116 0
M  V30 289 O 30.234 0.208037 -2.51642 0
M  V30 290 C 31.547 -2.75263 -1.21041 0
M  V30 291 C 33.095 -2.83813 -1.31981 0
M  V30 292 C 33.57 -4.24769 -1.71276 0
M  V30 293 N 35.061 -4.27482 -1.78363 0
M  V30 294 C 35.796 -5.33494 -2.1017 0
M  V30 295 N 35.292 -6.49775 -2.40343 0
M  V30 296 N 37.085 -5.20894 -2.11248 0
M  V30 297 H 29.236 -2.11214 0.22413 0
M  V30 298 H 31.499 -0.947252 0.0376439 0
M  V30 299 H 31.205 -3.48765 -0.453415 0
M  V30 300 H 31.079 -3.09327 -2.15863 0
M  V30 301 H 33.466 -2.10561 -2.06756 0
M  V30 302 H 33.547 -2.53358 -0.352596 0
M  V30 303 H 33.191 -4.9854 -0.970588 0
M  V30 304 H 33.121 -4.52673 -2.69062 0
M  V30 305 H 35.612 -3.43611 -1.57288 0
M  V30 306 H 35.925 -7.26402 -2.63743 0
M  V30 307 H 34.27 -6.53035 -2.37844 0
M  V30 308 H 37.461 -4.29065 -1.87139 0
M  V30 309 H 37.634 -6.03612 -2.35704 0
M  V30 310 N 31.0401 0.771051 -1.3745 0
M  V30 311 C 31.9881 1.90574 -1.33358 0
M  V30 312 C 32.9821 1.67936 -0.22224 0
M  V30 313 O 34.1881 1.75717 -0.390304 0
M  V30 314 H 30.5631 0.626714 -0.415612 0
M  V30 315 H 32.5341 1.91142 -2.29144 0
M  V30 316 C 31.2831 3.27845 -1.15813 0
M  V30 317 H 30.6061 3.45842 -2.00583 0
M  V30 318 H 32.0461 4.07538 -1.17 0
M  V30 319 C 30.5051 3.36625 0.136165 0
M  V30 320 O 31.0351 3.85785 1.11949 0
M  V30 321 N 29.2411 2.89997 0.187099 0
M  V30 322 H 28.7881 2.50182 -0.613753 0
M  V30 323 H 28.7461 2.96252 1.05272 0
M  V30 324 N 32.5182 1.22032 0.997298 0
M  V30 325 C 33.4282 1.00271 2.12092 0
M  V30 326 C 34.4442 -0.047621 1.73935 0
M  V30 327 O 35.6202 0.144136 2.00884 0
M  V30 328 C 32.6852 0.578449 3.4184 0
M  V30 329 C 31.7462 1.70189 3.94125 0
M  V30 330 C 30.9792 1.29778 5.17681 0
M  V30 331 O 31.2022 0.174676 5.70132 0
M  V30 332 O 30.1362 2.11261 5.63607 0
M  V30 333 H 33.9622 1.94398 2.3333 0
M  V30 334 H 31.5472 1.00587 1.10465 0
M  V30 335 H 33.4292 0.351998 4.19927 0
M  V30 336 H 32.1042 -0.334019 3.21972 0
M  V30 337 H 31.0112 1.98282 3.1723 0
M  V30 338 H 32.3442 2.59206 4.18417 0
M  V30 339 N 33.9963 -1.19345 1.0293 0
M  V30 340 C 35.2733 -1.84811 0.640642 0
M  V30 341 C 35.6533 -1.91855 -0.88062 0
M  V30 342 O 35.0013 -1.43587 -1.7775 0
M  V30 343 C 35.2113 -3.23755 1.30321 0
M  V30 344 C 36.5593 -3.99912 1.42673 0
M  V30 345 O 37.5833 -3.33155 1.26041 0
M  V30 346 O 36.4423 -5.19494 1.6967 0
M  V30 347 H 33.5363 -0.796443 0.222726 0
M  V30 348 H 36.0823 -1.26831 1.12748 0
M  V30 349 H 34.8543 -3.13466 2.34211 0
M  V30 350 H 34.4773 -3.89381 0.804261 0
M  V30 351 N 35.4744 -0.807222 -1.35358 0
M  V30 352 C 36.7204 -0.388463 -1.99045 0
M  V30 353 C 37.0534 1.04184 -1.63888 0
M  V30 354 O 36.3284 1.72292 -0.902535 0
M  V30 355 C 36.6114 -0.572783 -3.55515 0
M  V30 356 C 36.4644 -2.04807 -4.00468 0
M  V30 357 C 37.7834 0.00114064 -4.401 0
M  V30 358 H 34.9024 -0.142619 -0.723069 0
M  V30 359 H 37.5444 -1.01687 -1.60498 0
M  V30 360 H 35.6944 -0.0378425 -3.88482 0
M  V30 361 H 37.3664 -2.64544 -3.77908 0
M  V30 362 H 35.6094 -2.54427 -3.51353 0
M  V30 363 H 36.2804 -2.12792 -5.09337 0
M  V30 364 H 38.7564 -0.455716 -4.13597 0
M  V30 365 H 37.6324 -0.157737 -5.48673 0
M  V30 366 H 37.8934 1.09488 -4.28328 0
M  V30 367 N 36.9525 1.47285 -0.560781 0
M  V30 368 C 37.8845 2.28118 0.222438 0
M  V30 369 C 38.8975 1.37219 0.876056 0
M  V30 370 O 40.0865 1.62011 0.749307 0
M  V30 371 C 37.1865 3.1159 1.33285 0
M  V30 372 C 36.3595 4.30473 0.77534 0
M  V30 373 C 35.4185 4.95513 1.77069 0
M  V30 374 O 34.4445 5.53792 1.31539 0
M  V30 375 N 35.6465 4.90531 3.10418 0
M  V30 376 H 38.4115 2.95976 -0.470958 0
M  V30 377 H 35.9725 1.56955 -0.39709 0
M  V30 378 H 37.9645 3.51967 1.99752 0
M  V30 379 H 36.5345 2.45951 1.92943 0
M  V30 380 H 35.7545 3.94144 -0.0662113 0
M  V30 381 H 37.0425 5.07362 0.382272 0
M  V30 382 H 36.4405 4.44389 3.5005 0
M  V30 383 H 34.9975 5.34917 3.72434 0
M  V30 384 N 38.4306 0.297415 1.54768 0
M  V30 385 C 39.3606 -0.573494 2.26348 0
M  V30 386 C 40.3416 -1.14085 1.26169 0
M  V30 387 O 41.5266 -1.17086 1.54934 0
M  V30 388 C 38.6566 -1.74716 3.00153 0
M  V30 389 C 37.6106 -1.31032 4.07449 0
M  V30 390 C 36.9366 -2.56887 4.68949 0
M  V30 391 C 38.2366 -0.444183 5.20408 0
M  V30 392 H 39.9306 0.0235131 2.99391 0
M  V30 393 H 37.4766 0.0127488 1.43994 0
M  V30 394 H 39.4296 -2.3625 3.48947 0
M  V30 395 H 38.1536 -2.37035 2.24682 0
M  V30 396 H 36.8126 -0.718066 3.59499 0
M  V30 397 H 36.4606 -3.17512 3.90122 0
M  V30 398 H 36.1606 -2.2836 5.41411 0
M  V30 399 H 37.6846 -3.19229 5.20505 0
M  V30 400 H 39.0986 -0.9651 5.65118 0
M  V30 401 H 37.4956 -0.252846 5.99567 0
M  V30 402 H 38.5656 0.531609 4.81977 0
M  V30 403 N 39.9087 -1.5758 0.0250728 0
M  V30 404 C 41.3247 -1.56124 -0.331282 0
M  V30 405 C 41.5247 -1.03029 -1.73169 0
M  V30 406 O 40.5807 -0.675215 -2.43305 0
M  V30 407 C 41.8937 -3.00139 -0.183584 0
M  V30 408 C 43.4417 -3.11946 -0.256654 0
M  V30 409 C 43.9167 -4.57793 -0.137792 0
M  V30 410 N 45.4077 -4.6279 -0.194904 0
M  V30 411 C 46.1427 -5.7326 -0.126655 0
M  V30 412 N 45.6387 -6.928 -0.00755288 0
M  V30 413 N 47.4317 -5.61811 -0.180348 0
M  V30 414 H 39.5827 -1.90424 0.94087 0
M  V30 415 H 41.8457 -0.875761 0.362968 0
M  V30 416 H 41.5517 -3.4292 0.780927 0
M  V30 417 H 41.4257 -3.64899 -0.955448 0
M  V30 418 H 43.8127 -2.69079 -1.21162 0
M  V30 419 H 43.8937 -2.49915 0.545517 0
M  V30 420 H 43.5377 -5.01339 0.813739 0
M  V30 421 H 43.4677 -5.17798 -0.958775 0
M  V30 422 H 45.9587 -3.76807 -0.287267 0
M  V30 423 H 46.2717 -7.72791 0.0379428 0
M  V30 424 H 44.6167 -6.94995 0.0271731 0
M  V30 425 H 47.8077 -4.6731 -0.271767 0
M  V30 426 H 47.9807 -6.47882 -0.123697 0
M  V30 427 N 41.3868 0.248026 -1.55636 0
M  V30 428 C 42.3168 1.31079 -1.93237 0
M  V30 429 C 43.2978 1.50264 -0.797174 0
M  V30 430 O 44.4828 1.62891 -1.05737 0
M  V30 431 C 41.6128 2.66575 -2.22609 0
M  V30 432 C 40.5668 2.62087 -3.3837 0
M  V30 433 C 39.8928 4.01369 -3.53281 0
M  V30 434 C 41.1928 2.19171 -4.7409 0
M  V30 435 H 42.8868 0.998556 -2.82257 0
M  V30 436 H 40.4328 0.47891 -1.35803 0
M  V30 437 H 42.3858 3.41057 -2.47503 0
M  V30 438 H 41.1098 2.99432 -1.30414 0
M  V30 439 H 39.7688 1.90063 -3.13483 0
M  V30 440 H 39.4168 4.31489 -2.58508 0
M  V30 441 H 39.1168 3.99254 -4.31127 0
M  V30 442 H 40.6408 4.77552 -3.80495 0
M  V30 443 H 42.0548 2.83384 -4.98363 0
M  V30 444 H 40.4518 2.2817 -5.5503 0
M  V30 445 H 41.5218 1.14336 -4.71227 0
M  V30 446 N 42.8649 1.48995 0.513639 0
M  V30 447 C 43.8129 1.65199 1.63744 0
M  V30 448 C 44.8069 0.51809 1.61283 0
M  V30 449 O 46.0129 0.697335 1.65943 0
M  V30 450 H 42.3879 0.52069 0.542574 0
M  V30 451 H 44.3589 2.59552 1.47226 0
M  V30 452 C 43.1079 1.72409 3.01945 0
M  V30 453 H 42.4309 2.59029 3.04539 0
M  V30 454 H 43.8709 1.87785 3.80148 0
M  V30 455 C 42.3299 0.46618 3.33659 0
M  V30 456 O 42.8599 -0.413744 3.99564 0
M  V30 457 N 41.0659 0.332931 2.88687 0
M  V30 458 H 40.6129 1.04996 2.35231 0
M  V30 459 H 40.5709 -0.507665 3.10274 0
M  V30 460 N 44.343 -0.763751 1.37857 0
M  V30 461 C 45.568 -1.55805 1.36893 0
M  V30 462 C 45.993 -1.88054 -0.0416135 0
M  V30 463 O 45.351 -1.49825 -1.02089 0
M  V30 464 C 45.399 -2.84012 2.22192 0
M  V30 465 O 44.503 -3.78732 1.63204 0
M  V30 466 H 43.844 -0.471638 0.46739 0
M  V30 467 H 46.374 -0.944657 1.81487 0
M  V30 468 H 46.384 -3.33037 2.35691 0
M  V30 469 H 45.059 -2.59869 3.24716 0
M  V30 470 H 43.636 -3.37402 1.58791 0
M  V30 471 N 45.8211 -1.22559 -0.990812 0
M  V30 472 C 47.0701 -1.04553 -1.72486 0
M  V30 473 C 47.3831 0.419349 -1.91052 0
M  V30 474 O 48.5891 0.719121 -2.61803 0
M  V30 475 C 47.0451 -1.82231 -3.10355 0
M  V30 476 C 46.6531 -3.32981 -2.99713 0
M  V30 477 C 48.3971 -1.7268 -3.87791 0
M  V30 478 C 46.3041 -4.03091 -4.32748 0
M  V30 479 H 45.2341 -0.387614 -0.646739 0
M  V30 480 H 47.8851 -1.46429 -1.10593 0
M  V30 481 H 46.2671 -1.33155 -3.72942 0
M  V30 482 H 47.4411 -3.89466 -2.46278 0
M  V30 483 H 45.7561 -3.43231 -2.35758 0
M  V30 484 H 48.3531 -2.22381 -4.86262 0
M  V30 485 H 48.6961 -0.687607 -4.10582 0
M  V30 486 H 49.2291 -2.1931 -3.31885 0
M  V30 487 H 45.9681 -5.07273 -4.15156 0
M  V30 488 H 45.4881 -3.51394 -4.86089 0
M  V30 489 H 47.1671 -4.08804 -5.01486 0
M  V30 490 N 47.2992 1.18797 -1.03562 0
M  V30 491 C 48.2462 2.22253 -0.622259 0
M  V30 492 C 49.2162 1.61987 0.36736 0
M  V30 493 O 50.4012 1.88986 0.262492 0
M  V30 494 C 47.5412 3.45097 0.0138462 0
M  V30 495 C 46.6542 4.19722 -1.02263 0
M  V30 496 C 45.7892 5.30009 -0.355573 0
M  V30 497 C 44.8282 5.96399 -1.37749 0
M  V30 498 N 43.9652 6.98234 -0.735766 0
M  V30 499 H 48.8052 2.56968 -1.50903 0
M  V30 500 H 46.3422 1.26245 -0.755017 0
M  V30 501 H 48.3002 4.15279 0.399948 0
M  V30 502 H 46.9302 3.11018 0.864158 0
M  V30 503 H 45.9822 3.48418 -1.52673 0
M  V30 504 H 47.2942 4.65227 -1.79903 0
M  V30 505 H 46.4482 6.0664 0.0850095 0
M  V30 506 H 45.1872 4.85592 0.452967 0
M  V30 507 H 44.1922 5.18512 -1.82826 0
M  V30 508 H 45.4172 6.42899 -2.18764 0
M  V30 509 H 43.3632 6.55979 0.0525597 0
M  V30 510 H 43.2802 7.41965 -1.44995 0
M  V30 511 H 44.5482 7.78845 -0.31941 0
M  V30 512 N 48.7773 0.814389 1.34928 0
M  V30 513 C 49.7243 0.22822 2.29669 0
M  V30 514 C 50.6943 -0.642164 1.53184 0
M  V30 515 O 51.8793 -0.585605 1.81591 0
M  V30 516 C 49.0193 -0.61089 3.3965 0
M  V30 517 C 48.1323 0.280792 4.31086 0
M  V30 518 C 47.2673 -0.567067 5.28165 0
M  V30 519 C 46.3063 0.324531 6.11239 0
M  V30 520 N 45.4433 -0.483756 7.00431 0
M  V30 521 H 50.2833 1.04153 2.79206 0
M  V30 522 H 47.8203 0.525133 1.37407 0
M  V30 523 H 49.7783 -1.11263 4.0209 0
M  V30 524 H 48.4083 -1.38939 2.91369 0
M  V30 525 H 47.4603 0.900688 3.69583 0
M  V30 526 H 48.7723 0.966723 4.89342 0
M  V30 527 H 47.9263 -1.13363 5.96015 0
M  V30 528 H 46.6653 -1.28654 4.70425 0
M  V30 529 H 45.6703 0.903298 5.42329 0
M  V30 530 H 46.8953 1.04198 6.71059 0
M  V30 531 H 44.8413 -1.18706 6.45171 0
M  V30 532 H 44.7583 0.143965 7.55863 0
M  V30 533 H 46.0263 -1.03334 7.7262 0
M  V30 534 N 50.2554 -1.46986 0.568584 0
M  V30 535 C 51.1854 -2.32946 -0.160753 0
M  V30 536 C 52.1664 -1.44487 -0.897631 0
M  V30 537 O 53.3514 -1.73327 -0.875867 0
M  V30 538 C 50.4814 -3.26494 -1.18403 0
M  V30 539 C 49.4354 -4.24282 -0.562895 0
M  V30 540 C 48.7614 -5.07236 -1.69163 0
M  V30 541 C 50.0614 -5.19989 0.490761 0
M  V30 542 H 51.7554 -2.94175 0.556916 0
M  V30 543 H 49.3014 -1.4146 0.26927 0
M  V30 544 H 51.2544 -3.85477 -1.70251 0
M  V30 545 H 49.9784 -2.63343 -1.93179 0
M  V30 546 H 48.6374 -3.66541 -0.0656164 0
M  V30 547 H 48.2854 -4.4048 -2.42871 0
M  V30 548 H 47.9854 -5.7345 -1.28174 0
M  V30 549 H 49.5094 -5.6908 -2.21314 0
M  V30 550 H 50.9234 -5.73271 0.0579047 0
M  V30 551 H 49.3204 -5.94469 0.820165 0
M  V30 552 H 50.3904 -4.64777 1.3824 0
M  V30 553 N 51.7335 -0.305618 -1.54608 0
M  V30 554 C 52.9585 0.307562 -2.05107 0
M  V30 555 C 53.3835 1.46385 -1.18123 0
M  V30 556 O 52.7415 1.8034 -0.186324 0
M  V30 557 C 52.7895 0.73704 -3.52987 0
M  V30 558 O 51.8935 1.84134 -3.6901 0
M  V30 559 H 51.2345 0.0589143 -0.661381 0
M  V30 560 H 53.7645 -0.448807 -1.99617 0
M  V30 561 H 53.7745 1.02459 -3.94925 0
M  V30 562 H 52.4495 -0.108773 -4.15758 0
M  V30 563 H 51.0265 1.55398 -3.38978 0
M  V30 564 N 53.2116 1.57565 -0.0334293 0
M  V30 565 C 54.4396 1.9628 0.654347 0
M  V30 566 C 54.8546 0.910138 1.65414 0
M  V30 567 O 54.2116 -0.107595 1.82183 0
M  V30 568 C 54.2626 3.35067 1.35693 0
M  V30 569 O 53.9836 4.36296 0.397191 0
M  V30 570 C 55.4846 3.88439 2.13613 0
M  V30 571 H 52.7046 0.646369 0.180132 0
M  V30 572 H 55.2486 2.04282 -0.0944721 0
M  V30 573 H 53.4036 3.2827 2.05712 0
M  V30 574 H 53.8176 5.1678 0.896597 0
M  V30 575 H 55.2916 4.8788 2.58219 0
M  V30 576 H 55.7686 3.22914 2.97696 0
M  V30 577 H 56.3746 3.98516 1.48543 0
M  V30 578 N 54.6897 -0.239769 1.55765 0
M  V30 579 C 55.9387 -0.964754 1.77131 0
M  V30 580 C 56.2517 -1.86213 0.59868 0
M  V30 581 O 57.4577 -2.6244 0.695522 0
M  V30 582 C 55.9137 -1.76552 3.1362 0
M  V30 583 C 55.5217 -0.915185 4.38553 0
M  V30 584 C 57.2657 -2.48281 3.44321 0
M  V30 585 C 55.1727 -1.71225 5.66071 0
M  V30 586 H 54.1027 -0.363953 0.660344 0
M  V30 587 H 56.7537 -0.219181 1.82186 0
M  V30 588 H 55.1357 -2.55331 3.02691 0
M  V30 589 H 56.3097 -0.169217 4.60489 0
M  V30 590 H 54.6247 -0.310889 4.15238 0
M  V30 591 H 57.2217 -3.08382 4.36812 0
M  V30 592 H 57.5647 -3.20256 2.65973 0
M  V30 593 H 58.0977 -1.76507 3.56497 0
M  V30 594 H 54.8367 -1.03612 6.4726 0
M  V30 595 H 54.3567 -2.43331 5.48224 0
M  V30 596 H 56.0357 -2.27758 6.05587 0
M  V30 597 N 56.1678 -1.49265 -0.50573 0
M  V30 598 C 57.1308 -1.65075 -1.59006 0
M  V30 599 C 58.1308 -0.522768 -1.52065 0
M  V30 600 O 59.3208 -0.789117 -1.55302 0
M  V30 601 C 56.4528 -1.64369 -2.98656 0
M  V30 602 H 57.6458 -2.61784 -1.46319 0
M  V30 603 H 55.1988 -1.38226 -0.729616 0
M  V30 604 H 55.9338 -0.692272 -3.16825 0
M  V30 605 H 55.7188 -2.46282 -3.05103 0
M  V30 606 H 57.2088 -1.78674 -3.77446 0
M  V30 607 N 57.6459 0.756429 -1.3826 0
M  V30 608 C 58.5759 1.88374 -1.37976 0
M  V30 609 C 59.5569 1.68311 -0.246082 0
M  V30 610 O 60.7419 1.88944 -0.44874 0
M  V30 611 C 57.8719 3.25864 -1.20125 0
M  V30 612 C 56.8259 3.60523 -2.30666 0
M  V30 613 C 56.1519 4.9672 -1.97923 0
M  V30 614 C 57.4519 3.65692 -3.72916 0
M  V30 615 H 59.1459 1.88869 -2.32312 0
M  V30 616 H 56.6919 0.907272 -1.11824 0
M  V30 617 H 58.6449 4.0438 -1.18552 0
M  V30 618 H 57.3689 3.25841 -0.222498 0
M  V30 619 H 56.0279 2.84324 -2.3142 0
M  V30 620 H 55.6759 4.93253 -0.985393 0
M  V30 621 H 55.3759 5.20878 -2.71955 0
M  V30 622 H 56.8999 5.77618 -1.97964 0
M  V30 623 H 58.3139 4.34328 -3.74208 0
M  V30 624 H 56.7109 4.01358 -4.4613 0
M  V30 625 H 57.7809 2.65987 -4.05436 0
M  V30 626 N 59.124 1.23083 0.984299 0
M  V30 627 C 60.087 1.00979 2.05757 0
M  V30 628 C 61.087 -0.0269573 1.60777 0
M  V30 629 O 62.277 0.212403 1.729 0
M  V30 630 C 59.409 0.527072 3.36801 0
M  V30 631 H 60.602 1.9622 2.26799 0
M  V30 632 H 58.155 1.05072 1.15714 0
M  V30 633 H 58.89 -0.429294 3.21446 0
M  V30 634 H 58.675 1.27515 3.70786 0
M  V30 635 H 60.165 0.392942 4.15747 0
M  V30 636 N 60.6021 -1.18246 1.0419 0
M  V30 637 C 61.5321 -2.24127 0.654914 0
M  V30 638 C 62.5131 -1.66617 -0.342451 0
M  V30 639 O 63.6981 -1.92924 -0.222277 0
M  V30 640 C 60.8281 -3.47295 0.0183757 0
M  V30 641 C 59.7821 -4.17563 0.939414 0
M  V30 642 C 59.1081 -5.34438 0.167286 0
M  V30 643 C 60.4081 -4.70917 2.25908 0
M  V30 644 H 62.1021 -2.56753 1.54007 0
M  V30 645 H 59.6481 -1.23414 0.74195 0
M  V30 646 H 61.6011 -4.20572 -0.264082 0
M  V30 647 H 60.3251 -3.13907 -0.901664 0
M  V30 648 H 58.9841 -3.46186 1.20628 0
M  V30 649 H 58.6321 -4.97298 -0.7552 0
M  V30 650 H 58.3321 -5.82388 0.780901 0
M  V30 651 H 59.8561 -6.10504 -0.108125 0
M  V30 652 H 61.2701 -5.35882 2.03724 0
M  V30 653 H 59.6671 -5.29406 2.82577 0
M  V30 654 H 60.7371 -3.88272 2.9047 0
M  V30 655 N 62.0802 -0.821533 -1.34494 0
M  V30 656 C 63.3282 -0.408139 -1.97936 0
M  V30 657 C 63.6492 1.03193 -1.65457 0
M  V30 658 O 62.9192 1.71622 -0.944595 0
M  V30 659 H 61.4992 -0.147928 -0.732206 0
M  V30 660 H 64.1612 -1.05067 -1.64155 0
M  V30 661 H 63.2572 -0.52601 -3.07635 0
M  V30 662 N 63.5583 1.46682 -0.576371 0
M  V30 663 C 64.8043 2.02712 -0.0596221 0
M  V30 664 C 65.1373 1.44765 1.29448 0
M  V30 665 O 64.4123 0.610355 1.84675 0
M  V30 666 C 64.6953 3.60098 0.0129503 0
M  V30 667 C 64.5483 4.28441 -1.3696 0
M  V30 668 C 65.8673 4.34224 0.71678 0
M  V30 669 H 62.9863 0.736637 -0.0231407 0
M  V30 670 H 65.6283 1.74898 -0.742351 0
M  V30 671 H 63.7783 3.83926 0.594378 0
M  V30 672 H 65.4503 4.15896 -1.9957 0
M  V30 673 H 63.6933 3.8805 -1.93907 0
M  V30 674 H 64.3643 5.3716 -1.27135 0
M  V30 675 H 66.8403 4.15503 0.222908 0
M  V30 676 H 65.7163 5.43936 0.73657 0
M  V30 677 H 65.9773 4.04823 1.77682 0
M  V30 678 N 65.0364 0.313813 1.54444 0
M  V30 679 C 65.9464 -0.565714 2.27677 0
M  V30 680 C 66.9624 -1.13754 1.31666 0
M  V30 681 O 68.1384 -1.15959 1.64668 0
M  V30 682 C 65.2034 -1.71528 3.01296 0
M  V30 683 C 64.2644 -1.17624 4.12872 0
M  V30 684 C 63.4974 -2.27102 4.8297 0
M  V30 685 O 63.7204 -3.47256 4.52514 0
M  V30 686 O 62.6544 -1.9307 5.70094 0
M  V30 687 H 66.4804 0.0287296 3.03686 0
M  V30 688 H 64.0654 0.0798312 1.49187 0
M  V30 689 H 65.9474 -2.38476 3.4743 0
M  V30 690 H 64.6224 -2.29608 2.2817 0
M  V30 691 H 63.5294 -0.472124 3.71109 0
M  V30 692 H 64.8624 -0.640695 4.88012 0
M  V30 693 N 66.5145 -1.57545 0.0417849 0
M  V30 694 C 67.9305 -1.56467 -0.314704 0
M  V30 695 C 68.1305 -1.04859 -1.72066 0
M  V30 696 O 67.1865 -0.700983 -2.42575 0
M  V30 697 C 68.4995 -3.00317 -0.15174 0
M  V30 698 C 70.0475 -3.12201 -0.223553 0
M  V30 699 C 70.5225 -4.57913 -0.0892295 0
M  V30 700 N 72.0135 -4.6297 -0.145808 0
M  V30 701 C 72.7485 -5.73362 -0.0658459 0
M  V30 702 N 72.2445 -6.92769 0.0659282 0
M  V30 703 N 74.0375 -5.6197 -0.12075 0
M  V30 704 H 66.1885 -1.89416 0.961014 0
M  V30 705 H 68.4515 -0.871862 0.372237 0
M  V30 706 H 68.1575 -3.42073 0.817254 0
M  V30 707 H 68.0315 -3.65892 -0.916692 0
M  V30 708 H 70.4185 -2.70349 -1.18301 0
M  V30 709 H 70.4995 -2.49323 0.571994 0
M  V30 710 H 70.1435 -5.00448 0.866867 0
M  V30 711 H 70.0735 -5.18786 -0.903802 0
M  V30 712 H 72.5645 -3.7709 -0.247286 0
M  V30 713 H 72.8775 -7.72707 0.119905 0
M  V30 714 H 71.2225 -6.94927 0.100885 0
M  V30 715 H 74.4135 -4.67572 -0.222187 0
M  V30 716 H 74.5865 -6.47977 -0.0549735 0
M  V30 717 N 67.9926 0.231505 -1.5589 0
M  V30 718 C 69.2206 0.974505 -1.82513 0
M  V30 719 C 69.6356 1.78344 -0.619591 0
M  V30 720 O 68.9926 1.77792 0.411848 0
M  V30 721 C 69.0436 1.90007 -3.07538 0
M  V30 722 O 68.7646 1.12385 -4.2344 0
M  V30 723 C 70.2656 2.75779 -3.47075 0
M  V30 724 H 67.4856 0.286065 -0.606966 0
M  V30 725 H 70.0296 0.249739 -2.02969 0
M  V30 726 H 68.1846 2.57891 -2.89086 0
M  V30 727 H 68.5986 1.75125 -4.944 0
M  V30 728 H 70.0726 3.36443 -4.37619 0
M  V30 729 H 70.5496 3.47672 -2.68367 0
M  V30 730 H 71.1556 2.13323 -3.67931 0
M  V30 731 N 69.4707 1.49531 0.497807 0
M  V30 732 C 70.8867 1.36365 0.829266 0
M  V30 733 C 71.0867 0.399184 1.97506 0
M  V30 734 O 70.1427 -0.167977 2.51941 0
M  V30 735 C 71.4557 2.77153 1.16647 0
M  V30 736 C 73.0037 2.85877 1.27449 0
M  V30 737 C 73.4787 4.2744 1.64497 0
M  V30 738 N 74.9697 4.30265 1.7154 0
M  V30 739 C 75.7047 5.3677 2.01656 0
M  V30 740 N 75.2007 6.53516 2.29976 0
M  V30 741 N 76.9937 5.24189 2.02934 0
M  V30 742 H 69.1447 2.10831 -0.257703 0
M  V30 743 H 71.4077 0.946534 -0.0527091 0
M  V30 744 H 71.1137 3.49442 0.397872 0
M  V30 745 H 70.9877 3.12722 2.10915 0
M  V30 746 H 73.3747 2.13824 2.0338 0
M  V30 747 H 73.4557 2.53887 0.312244 0
M  V30 748 H 73.0997 5.00021 0.891151 0
M  V30 749 H 73.0297 4.56896 2.61827 0
M  V30 750 H 75.5207 3.4607 1.51802 0
M  V30 751 H 75.8337 7.30506 2.52153 0
M  V30 752 H 74.1787 6.56737 2.27425 0
M  V30 753 H 77.3697 4.31988 1.80289 0
M  V30 754 H 77.5427 6.07286 2.26071 0
M  V30 755 N 70.9488 -0.749086 1.3866 0
M  V30 756 C 72.1738 -1.54344 1.38538 0
M  V30 757 C 72.5988 -1.88088 -0.0216655 0
M  V30 758 O 71.9568 -1.50899 -1.00494 0
M  V30 759 C 72.0048 -2.8164 2.25192 0
M  V30 760 O 71.1088 -3.7698 1.67212 0
M  V30 761 H 70.4498 -0.466654 0.472367 0
M  V30 762 H 72.9798 -0.925355 1.82478 0
M  V30 763 H 72.9898 -3.30519 2.3921 0
M  V30 764 H 71.6648 -2.56411 3.27454 0
M  V30 765 H 70.2418 -3.35699 1.6236 0
M  V30 766 N 72.4269 -1.23603 -0.977757 0
M  V30 767 C 73.3369 -1.03632 -2.1047 0
M  V30 768 C 74.3529 0.0199435 -1.73989 0
M  V30 769 O 75.5289 -0.176076 -2.00629 0
M  V30 770 C 72.5939 -0.63276 -3.40877 0
M  V30 771 C 71.6549 -1.76437 -3.91367 0
M  V30 772 C 70.8879 -1.37997 -5.15551 0
M  V30 773 O 71.1109 -0.265357 -5.69782 0
M  V30 774 O 70.0449 -2.20201 -5.60174 0
M  V30 775 H 73.8709 -1.98086 -2.30208 0
M  V30 776 H 71.4559 -1.02332 -1.08851 0
M  V30 777 H 73.3379 -0.418761 -4.19314 0
M  V30 778 H 72.0129 0.282754 -3.22463 0
M  V30 779 H 70.9199 -2.03304 -3.14036 0
M  V30 780 H 72.2529 -2.6583 -4.14241 0
M  V30 781 N 73.905 1.17692 -1.04816 0
M  V30 782 C 74.835 2.23777 -0.666791 0
M  V30 783 C 75.816 1.66796 0.33361 0
M  V30 784 O 77.001 1.93039 0.212042 0
M  V30 785 C 74.131 3.47281 -0.0367933 0
M  V30 786 C 73.085 4.17059 -0.961546 0
M  V30 787 C 72.411 5.34342 -0.195626 0
M  V30 788 C 73.711 4.69713 -2.28402 0
M  V30 789 H 75.405 2.55933 -1.55367 0
M  V30 790 H 72.951 1.23019 -0.748484 0
M  V30 791 H 74.904 4.20706 0.241775 0
M  V30 792 H 73.628 3.14381 0.885004 0
M  V30 793 H 72.287 3.45541 -1.22462 0
M  V30 794 H 71.935 4.97692 0.728816 0
M  V30 795 H 71.635 5.81966 -0.811775 0
M  V30 796 H 73.159 6.10553 0.0757473 0
M  V30 797 H 74.573 5.34794 -2.06563 0
M  V30 798 H 72.97 5.279 -2.8538 0
M  V30 799 H 74.04 3.86726 -2.92525 0
M  V30 800 N 75.3831 0.828654 1.34056 0
M  V30 801 C 76.3131 0.269443 2.3194 0
M  V30 802 C 77.2941 -0.617247 1.58506 0
M  V30 803 O 78.4791 -0.542931 1.86456 0
M  V30 804 C 75.6091 -0.564793 3.42677 0
M  V30 805 C 74.5631 0.225241 4.27407 0
M  V30 806 C 73.8891 -0.7321 5.29664 0
M  V30 807 C 75.1891 1.43663 5.02154 0
M  V30 808 H 76.8831 1.08728 2.7896 0
M  V30 809 H 74.4291 0.524283 1.34117 0
M  V30 810 H 76.3821 -0.966233 4.10173 0
M  V30 811 H 75.1061 -1.41574 2.9432 0
M  V30 812 H 73.7651 0.608117 3.61521 0
M  V30 813 H 73.4131 -1.57916 4.77568 0
M  V30 814 H 73.1131 -0.20767 5.87233 0
M  V30 815 H 74.6371 -1.13128 6.00029 0
M  V30 816 H 76.0511 1.1089 5.62473 0
M  V30 817 H 74.4481 1.89711 5.69324 0
M  V30 818 H 75.5181 2.21181 4.31517 0
M  V30 819 N 76.8612 -1.46375 0.584142 0
M  V30 820 C 78.2722 -1.86031 0.157959 0
M  V30 821 C 78.6232 -1.48753 -1.27933 0
M  V30 822 O 77.7482 -0.903098 -1.96655 0
M  V30 823 C 78.3432 -3.37642 0.279892 0
M  V30 824 C 76.9022 -3.76289 -0.09143 0
M  V30 825 C 76.0492 -2.7039 0.615178 0
M  V30 826 H 79.0002 -1.37509 0.792274 0
M  V30 827 H 79.0212 -3.77275 -0.494364 0
M  V30 828 H 78.5332 -3.64742 1.32607 0
M  V30 829 H 76.6342 -3.54806 -1.13769 0
M  V30 830 H 76.7472 -4.78246 0.285886 0
M  V30 831 H 75.1112 -2.5464 0.0552833 0
M  V30 832 H 75.8942 -3.0033 1.66303 0
M  V30 833 N 78.3393 -0.321999 -1.54275 0
M  V30 834 C 79.5863 0.281044 -2.0054 0
M  V30 835 C 79.9143 1.52265 -1.21019 0
M  V30 836 O 79.1693 1.93687 -0.279982 0
M  V30 837 C 79.4683 0.661769 -3.5122 0
M  V30 838 C 79.1343 -0.480482 -4.48333 0
M  V30 839 C 77.7963 -0.794005 -4.74604 0
M  V30 840 C 80.1483 -1.24783 -5.06042 0
M  V30 841 C 77.4763 -1.87763 -5.55844 0
M  V30 842 C 79.8283 -2.32153 -5.88462 0
M  V30 843 C 78.4923 -2.64089 -6.13036 0
M  V30 844 H 77.7623 0.102841 -0.733829 0
M  V30 845 H 80.4093 -0.445453 -1.86247 0
M  V30 846 H 78.7143 1.46867 -3.63232 0
M  V30 847 H 80.4113 1.13989 -3.84457 0
M  V30 848 H 77.0013 -0.226039 -4.28004 0
M  V30 849 H 81.1853 -1.01887 -4.85729 0
M  V30 850 H 76.4413 -2.12954 -5.73115 0
M  V30 851 H 80.6153 -2.92057 -6.32199 0
M  V30 852 H 78.2423 -3.48185 -6.75775 0
M  V30 853 N 79.8174 1.5752 -0.0501392 0
M  V30 854 C 80.7474 2.14502 0.922566 0
M  V30 855 C 81.7284 1.06642 1.3252 0
M  V30 856 O 82.9134 1.34577 1.4001 0
M  V30 857 C 80.0434 2.68916 2.19776 0
M  V30 858 C 78.9974 3.8175 1.93523 0
M  V30 859 C 78.3234 4.22677 3.27487 0
M  V30 860 C 79.6234 5.06932 1.25765 0
M  V30 861 H 81.3174 2.9603 0.447952 0
M  V30 862 H 78.8634 1.42401 0.214024 0
M  V30 863 H 80.8164 3.07419 2.88222 0
M  V30 864 H 79.5404 1.84578 2.69441 0
M  V30 865 H 78.1994 3.43718 1.27489 0
M  V30 866 H 77.8474 3.35291 3.74952 0
M  V30 867 H 77.5474 4.98725 3.1072 0
M  V30 868 H 79.0714 4.63779 3.97166 0
M  V30 869 H 80.4854 5.42888 1.84244 0
M  V30 870 H 78.8824 5.88116 1.19328 0
M  V30 871 H 79.9524 4.84337 0.233536 0
M  V30 872 N 81.2955 -0.223234 1.56011 0
M  V30 873 C 82.5235 -0.964812 1.83027 0
M  V30 874 C 82.9385 -1.78013 0.62904 0
M  V30 875 O 82.2955 -1.78008 -0.402414 0
M  V30 876 C 82.3465 -1.88373 3.08542 0
M  V30 877 O 82.0675 -1.10137 4.2403 0
M  V30 878 C 83.5685 -2.73934 3.48533 0
M  V30 879 H 80.7885 -0.282842 0.608475 0
M  V30 880 H 83.3325 -0.238971 2.03099 0
M  V30 881 H 81.4875 -2.56354 2.9045 0
M  V30 882 H 81.9015 -1.72501 4.95322 0
M  V30 883 H 83.3755 -3.34117 4.39397 0
M  V30 884 H 83.8525 -3.46244 2.70207 0
M  V30 885 H 84.4585 -2.11369 3.69057 0
M  V30 886 N 82.7736 -1.49793 -0.48987 0
M  V30 887 C 84.0506 -1.50348 -1.25119 0
M  V30 888 C 84.4306 -0.237466 -2.0976 0
M  V30 889 O 83.7786 0.77981 -2.14782 0
M  V30 890 C 83.9886 -2.78872 -2.09837 0
M  V30 891 C 85.3366 -3.288 -2.68655 0
M  V30 892 O 86.3606 -2.80065 -2.20096 0
M  V30 893 O 85.2196 -4.13707 -3.57083 0
M  V30 894 H 82.3136 -0.602242 -0.566775 0
M  V30 895 H 84.8596 -1.62067 -0.503229 0
M  V30 896 H 83.6316 -3.62499 -1.47343 0
M  V30 897 H 83.2546 -2.70066 -2.91805 0
M  V30 898 N 84.2517 0.741722 -1.39055 0
M  V30 899 C 85.4797 1.53098 -1.39171 0
M  V30 900 C 85.8947 1.88794 0.0155099 0
M  V30 901 O 85.2517 1.53626 0.985159 0
M  V30 902 C 85.3027 2.82274 -2.2584 0
M  V30 903 O 85.0237 2.48097 -3.61081 0
M  V30 904 C 86.5247 3.76343 -2.34266 0
M  V30 905 H 83.7447 0.473335 -0.4756 0
M  V30 906 H 86.2887 0.917045 -1.82785 0
M  V30 907 H 84.4437 3.40015 -1.85656 0
M  V30 908 H 84.8577 3.31029 -4.06842 0
M  V30 909 H 86.3317 4.63898 -2.9917 0
M  V30 910 H 86.8087 4.17619 -1.35982 0
M  V30 911 H 87.4147 3.24523 -2.74891 0
M  V30 912 N 85.7298 1.2412 0.971189 0
M  V30 913 C 86.9788 1.07284 1.70801 0
M  V30 914 C 87.2918 -0.388902 1.91695 0
M  V30 915 O 88.4978 -0.677379 2.62914 0
M  V30 916 C 86.9538 1.87145 3.07416 0
M  V30 917 C 86.5618 3.37707 2.94377 0
M  V30 918 C 88.3058 1.78828 3.84995 0
M  V30 919 C 86.2128 4.09925 4.26281 0
M  V30 920 H 85.1428 0.397854 0.64049 0
M  V30 921 H 87.7938 1.4817 1.0825 0
M  V30 922 H 86.1758 1.39071 3.70777 0
M  V30 923 H 87.3498 3.93335 2.4005 0
M  V30 924 H 85.6648 3.46938 2.30267 0
M  V30 925 H 88.2618 2.30089 4.82662 0
M  V30 926 H 88.6048 0.75284 4.09436 0
M  V30 927 H 89.1378 2.24563 3.28354 0
M  V30 928 H 85.8768 5.13813 4.07033 0
M  V30 929 H 85.3968 3.59083 4.80437 0
M  V30 930 H 87.0758 4.1673 4.94919 0
M  V30 931 N 87.2079 -1.17134 1.05439 0
M  V30 932 C 88.4379 -1.91094 0.785274 0
M  V30 933 C 88.8459 -1.77198 -0.663142 0
M  V30 934 O 88.1889 -1.10835 -1.46497 0
M  V30 935 C 88.2509 -3.42594 1.08949 0
M  V30 936 C 87.9149 -3.80274 2.53458 0
M  V30 937 C 88.9119 -3.82912 3.51673 0
M  V30 938 C 86.5969 -4.11162 2.88532 0
M  V30 939 C 88.5909 -4.15913 4.83006 0
M  V30 940 C 86.2779 -4.43831 4.20068 0
M  V30 941 C 87.2759 -4.46185 5.17115 0
M  V30 942 O 86.9639 -4.78083 6.46291 0
M  V30 943 H 86.6959 -0.613073 0.284811 0
M  V30 944 H 89.2499 -1.49461 1.40893 0
M  V30 945 H 87.4799 -3.84534 0.408741 0
M  V30 946 H 89.1689 -3.97817 0.805991 0
M  V30 947 H 89.9349 -3.5917 3.25917 0
M  V30 948 H 85.8139 -4.085 2.13656 0
M  V30 949 H 89.3579 -4.17665 5.5875 0
M  V30 950 H 85.2549 -4.67037 4.45586 0
M  V30 951 H 86.0229 -4.9593 6.51149 0
M  V30 952 N 88.686 -0.835752 -1.33615 0
M  V30 953 C 89.963 -0.352017 -1.92406 0
M  V30 954 C 90.343 1.16225 -1.76224 0
M  V30 955 O 89.691 1.97526 -1.14873 0
M  V30 956 C 89.901 -0.795485 -3.39813 0
M  V30 957 C 91.249 -0.801703 -4.16963 0
M  V30 958 O 92.273 -0.738889 -3.48452 0
M  V30 959 O 91.132 -0.886607 -5.3926 0
M  V30 960 H 88.226 -0.0989641 -0.821057 0
M  V30 961 H 90.772 -0.921397 -1.42507 0
M  V30 962 H 89.544 -1.83795 -3.45449 0
M  V30 963 H 89.167 -0.202505 -3.97084 0
M  V30 964 N 90.1641 1.46063 -0.591896 0
M  V30 965 C 91.0741 2.34192 0.13831 0
M  V30 966 C 92.0901 1.50305 0.876608 0
M  V30 967 O 93.2661 1.8315 0.837728 0
M  V30 968 C 90.3311 3.27656 1.13326 0
M  V30 969 C 89.3921 4.27445 0.39863 0
M  V30 970 C 88.6251 5.16443 1.34618 0
M  V30 971 O 88.8481 5.08553 2.58321 0
M  V30 972 O 87.7821 5.95843 0.851768 0
M  V30 973 H 91.6081 2.98002 -0.58552 0
M  V30 974 H 89.1931 1.45188 -0.352239 0
M  V30 975 H 91.0751 3.85291 1.70671 0
M  V30 976 H 89.7501 2.6643 1.83839 0
M  V30 977 H 88.6571 3.73471 -0.216895 0
M  V30 978 H 89.9901 4.91482 -0.265709 0
M  V30 979 N 91.6422 0.330177 1.54103 0
M  V30 980 C 92.9192 -0.325007 1.92881 0
M  V30 981 C 93.2992 -1.6934 1.26045 0
M  V30 982 O 92.6472 -2.24855 0.406526 0
M  V30 983 C 92.8572 -0.410634 3.46576 0
M  V30 984 C 94.2052 -0.667801 4.19316 0
M  V30 985 O 95.2292 -0.49329 3.52768 0
M  V30 986 O 94.0882 -1.00491 5.37181 0
M  V30 987 H 91.1822 -0.186873 0.80561 0
M  V30 988 H 93.7282 0.380376 1.65382 0
M  V30 989 H 92.5002 0.550164 3.87413 0
M  V30 990 H 92.1232 -1.16333 3.802 0
M  V30 991 N 93.1203 -1.57491 0.0584922 0
M  V30 992 C 94.0303 -2.15448 -0.928414 0
M  V30 993 C 95.0463 -1.11416 -1.3365 0
M  V30 994 O 96.2223 -1.4362 -1.41193 0
M  V30 995 C 93.2873 -2.69393 -2.18239 0
M  V30 996 C 92.3483 -3.88249 -1.83196 0
M  V30 997 C 91.5813 -4.39613 -3.02616 0
M  V30 998 O 91.8043 -3.90023 -4.16219 0
M  V30 999 O 90.7383 -5.31111 -2.83204 0
M  V30 1000 H 94.5643 -3.00112 -0.465483 0
M  V30 1001 H 92.1493 -1.48499 -0.163826 0
M  V30 1002 H 94.0313 -3.04026 -2.91798 0
M  V30 1003 H 92.7063 -1.87796 -2.63656 0
M  V30 1004 H 91.6133 -3.58492 -1.06931 0
M  V30 1005 H 92.9463 -4.71098 -1.42573 0
M  V30 1006 N 94.5984 0.214957 -1.56127 0
M  V30 1007 C 95.8444 0.939762 -1.79712 0
M  V30 1008 C 96.1774 1.83723 -0.629247 0
M  V30 1009 O 95.4524 1.90925 0.371197 0
M  V30 1010 C 95.7354 1.77306 -3.13424 0
M  V30 1011 C 95.5884 0.90164 -4.40671 0
M  V30 1012 C 96.9074 2.74956 -3.43638 0
M  V30 1013 H 94.0264 0.340214 -0.653776 0
M  V30 1014 H 96.6684 0.20824 -1.88855 0
M  V30 1015 H 94.8184 2.39673 -3.0576 0
M  V30 1016 H 96.4904 0.294206 -4.60361 0
M  V30 1017 H 94.7334 0.207368 -4.33304 0
M  V30 1018 H 95.4044 1.51923 -5.30682 0
M  V30 1019 H 97.8804 2.22724 -3.51473 0
M  V30 1020 H 96.7564 3.30358 -4.38355 0
M  V30 1021 H 97.0174 3.53023 -2.66134 0
M  V30 1022 N 96.0765 1.50051 0.48192 0
M  V30 1023 C 97.0065 1.71046 1.58951 0
M  V30 1024 C 97.9875 0.559288 1.60642 0
M  V30 1025 O 99.1725 0.797243 1.77081 0
M  V30 1026 C 96.3025 1.79462 2.97339 0
M  V30 1027 C 95.2565 2.94558 3.10515 0
M  V30 1028 C 94.5825 2.88105 4.50444 0
M  V30 1029 C 95.8825 4.35227 2.88747 0
M  V30 1030 H 97.5765 2.6378 1.41635 0
M  V30 1031 H 95.1225 1.26936 0.679942 0
M  V30 1032 H 97.0755 1.92734 3.74742 0
M  V30 1033 H 95.7995 0.833412 3.15788 0
M  V30 1034 H 94.4585 2.80918 2.35543 0
M  V30 1035 H 94.1065 1.89853 4.65795 0
M  V30 1036 H 93.8065 3.65366 4.60197 0
M  V30 1037 H 95.3305 3.03412 5.29881 0
M  V30 1038 H 96.7445 4.49449 3.55905 0
M  V30 1039 H 95.1415 5.13856 3.09955 0
M  V30 1040 H 96.2115 4.48347 1.84696 0
M  V30 1041 N 97.5546 -0.734337 1.39446 0
M  V30 1042 C 98.4846 -1.86155 1.40955 0
M  V30 1043 C 99.4656 -1.67898 0.272827 0
M  V30 1044 O 100.651 -1.88207 0.478743 0
M  V30 1045 C 97.7806 -3.23912 1.25294 0
M  V30 1046 C 96.7346 -3.56808 2.36373 0
M  V30 1047 C 96.0606 -4.93508 2.058 0
M  V30 1048 C 97.3606 -3.59713 3.78687 0
M  V30 1049 H 99.0546 -1.8515 2.35287 0
M  V30 1050 H 96.6006 -0.889367 1.13253 0
M  V30 1051 H 98.5536 -4.02443 1.2497 0
M  V30 1052 H 97.2776 -3.25446 0.274308 0
M  V30 1053 H 95.9366 -2.80606 2.35914 0
M  V30 1054 H 95.5846 -4.91623 1.06374 0
M  V30 1055 H 95.2846 -5.16486 2.80208 0
M  V30 1056 H 96.8086 -5.74396 2.07128 0
M  V30 1057 H 98.2226 -4.2832 3.81071 0
M  V30 1058 H 96.6196 -3.94209 4.52459 0
M  V30 1059 H 97.6896 -2.59504 4.09617 0
M  V30 1060 N 99.0327 -1.24633 -0.964593 0
M  V30 1061 C 99.9957 -1.0424 -2.04124 0
M  V30 1062 C 100.996 0.00137563 -1.608 0
M  V30 1063 O 102.186 -0.239883 -1.7254 0
M  V30 1064 C 99.3177 -0.580588 -3.3592 0
M  V30 1065 H 100.511 -1.99803 -2.23649 0
M  V30 1066 H 98.0637 -1.06899 -1.14027 0
M  V30 1067 H 98.7987 0.3781 -3.22088 0
M  V30 1068 H 98.5837 -1.33398 -3.6871 0
M  V30 1069 H 100.074 -0.459034 -4.15069 0
M  V30 1070 N 100.511 1.16574 -1.06058 0
M  V30 1071 C 101.441 2.23057 -0.690488 0
M  V30 1072 C 102.422 1.67141 0.315901 0
M  V30 1073 O 103.607 1.93253 0.191556 0
M  V30 1074 C 100.737 3.47222 -0.073625 0
M  V30 1075 C 99.6908 4.16016 -1.00573 0
M  V30 1076 C 99.0168 5.34104 -0.252289 0
M  V30 1077 C 100.317 4.67264 -2.33371 0
M  V30 1078 H 102.011 2.54271 -1.58072 0
M  V30 1079 H 99.5568 1.22218 -0.76149 0
M  V30 1080 H 101.51 4.20939 0.19714 0
M  V30 1081 H 100.234 3.15302 0.85161 0
M  V30 1082 H 98.8928 3.44223 -1.2612 0
M  V30 1083 H 98.5408 4.98437 0.675988 0
M  V30 1084 H 98.2408 5.81072 -0.873455 0
M  V30 1085 H 99.7648 6.10599 0.0109857 0
M  V30 1086 H 101.179 5.32573 -2.12223 0
M  V30 1087 H 99.5758 5.24843 -2.90963 0
M  V30 1088 H 100.646 3.83602 -2.96611 0
M  V30 1089 N 101.989 0.842826 1.3317 0
M  V30 1090 C 102.952 0.284065 2.27433 0
M  V30 1091 C 103.952 -0.54948 1.5112 0
M  V30 1092 O 105.142 -0.362699 1.70382 0
M  V30 1093 C 102.274 -0.599384 3.35589 0
M  V30 1094 H 103.467 1.11589 2.78366 0
M  V30 1095 H 101.02 0.616221 1.4364 0
M  V30 1096 H 101.755 -1.45349 2.89904 0
M  V30 1097 H 101.54 -0.00291266 3.921 0
M  V30 1098 H 103.03 -0.983488 4.05854 0
M  V30 1099 N 103.467 -1.45747 0.599634 0
M  V30 1100 C 104.377 -2.34262 -0.125888 0
M  V30 1101 C 105.393 -1.50768 -0.868625 0
M  V30 1102 O 106.569 -1.83592 -0.828003 0
M  V30 1103 C 103.634 -3.28252 -1.11587 0
M  V30 1104 C 102.695 -4.27651 -0.375956 0
M  V30 1105 C 101.928 -5.1715 -1.31877 0
M  V30 1106 O 102.151 -5.09916 -2.55621 0
M  V30 1107 O 101.085 -5.96286 -0.820157 0
M  V30 1108 H 104.911 -2.97688 0.601315 0
M  V30 1109 H 102.496 -1.44999 0.359934 0
M  V30 1110 H 104.378 -3.86191 -1.68626 0
M  V30 1111 H 103.053 -2.67401 -1.82424 0
M  V30 1112 H 101.96 -3.7335 0.236698 0
M  V30 1113 H 103.293 -4.91334 0.29177 0
M  V30 1114 N 104.945 -0.338344 -1.53925 0
M  V30 1115 C 105.877 0.555117 -2.22376 0
M  V30 1116 C 106.89 1.06812 -1.22862 0
M  V30 1117 O 108.079 0.979163 -1.49247 0
M  V30 1118 C 105.179 1.77609 -2.88631 0
M  V30 1119 C 104.352 1.39927 -4.14414 0
M  V30 1120 C 103.411 2.47936 -4.64127 0
M  V30 1121 O 102.437 2.11461 -5.28463 0
M  V30 1122 N 103.639 3.79107 -4.39612 0
M  V30 1123 H 106.404 -0.0310778 -2.99684 0
M  V30 1124 H 103.965 -0.162226 -1.61085 0
M  V30 1125 H 105.957 2.49287 -3.18807 0
M  V30 1126 H 104.527 2.26978 -2.14941 0
M  V30 1127 H 103.747 0.513481 -3.90841 0
M  V30 1128 H 105.035 1.12341 -4.96243 0
M  V30 1129 H 104.433 4.11531 -3.88148 0
M  V30 1130 H 102.99 4.4697 -4.74406 0
M  V30 1131 N 106.423 1.57458 -0.0668435 0
M  V30 1132 C 107.353 2.15468 0.899764 0
M  V30 1133 C 108.334 1.08042 1.31381 0
M  V30 1134 O 109.519 1.36054 1.38574 0
M  V30 1135 C 106.649 2.71232 2.16911 0
M  V30 1136 C 105.603 3.83781 1.89463 0
M  V30 1137 C 104.929 4.26127 3.22986 0
M  V30 1138 C 106.229 5.08238 1.20381 0
M  V30 1139 H 107.923 2.96488 0.416529 0
M  V30 1140 H 105.469 1.4262 0.198908 0
M  V30 1141 H 107.422 3.10458 2.84945 0
M  V30 1142 H 106.146 1.87426 2.67468 0
M  V30 1143 H 104.805 3.45051 1.23836 0
M  V30 1144 H 104.453 3.39249 3.71374 0
M  V30 1145 H 104.153 5.01993 3.05413 0
M  V30 1146 H 105.677 4.67966 3.92225 0
M  V30 1147 H 107.091 5.44811 1.78475 0
M  V30 1148 H 105.488 5.89349 1.13083 0
M  V30 1149 H 106.558 4.84558 0.182153 0
M  V30 1150 N 107.901 -0.206675 1.56239 0
M  V30 1151 C 109.149 -0.927007 1.79586 0
M  V30 1152 C 109.47 -1.8427 0.637929 0
M  V30 1153 O 108.74 -1.92849 -0.344398 0
M  V30 1154 H 107.32 -0.345292 0.662407 0
M  V30 1155 H 109.982 -0.21496 1.93711 0
M  V30 1156 H 109.078 -1.52501 2.72305 0
M  V30 1157 N 109.379 -1.50304 -0.473955 0
M  V30 1158 C 110.607 -1.64902 -1.24959 0
M  V30 1159 C 111.022 -0.331198 -1.85872 0
M  V30 1160 O 110.379 0.68652 -1.69095 0
M  V30 1161 C 110.43 -2.73803 -2.36038 0
M  V30 1162 O 110.151 -4.00477 -1.77624 0
M  V30 1163 C 111.652 -2.99349 -3.26964 0
M  V30 1164 H 108.872 -0.554383 -0.378022 0
M  V30 1165 H 111.416 -1.9651 -0.566054 0
M  V30 1166 H 109.571 -2.44898 -3.00173 0
M  V30 1167 H 109.985 -4.60678 -2.5075 0
M  V30 1168 H 111.459 -3.79217 -4.01121 0
M  V30 1169 H 111.936 -2.10307 -3.85574 0
M  V30 1170 H 112.542 -3.29774 -2.68569 0
M  V30 1171 N 110.857 0.726932 -1.39834 0
M  V30 1172 C 112.104 1.48664 -1.37496 0
M  V30 1173 C 112.432 1.94482 0.0264678 0
M  V30 1174 O 111.687 1.67692 1.00886 0
M  V30 1175 C 111.986 2.73495 -2.30077 0
M  V30 1176 C 111.652 2.46502 -3.77555 0
M  V30 1177 C 110.314 2.3885 -4.17737 0
M  V30 1178 C 112.666 2.23604 -4.70798 0
M  V30 1179 C 109.994 2.06352 -5.49214 0
M  V30 1180 C 112.346 1.92622 -6.02561 0
M  V30 1181 C 111.01 1.83444 -6.41798 0
M  V30 1182 H 110.28 0.544001 -0.503135 0
M  V30 1183 H 112.927 0.833657 -1.72402 0
M  V30 1184 H 111.232 3.43575 -1.88317 0
M  V30 1185 H 112.929 3.31549 -2.25558 0
M  V30 1186 H 109.519 2.5334 -3.45712 0
M  V30 1187 H 113.703 2.28479 -4.40581 0
M  V30 1188 H 108.959 1.97776 -5.78528 0
M  V30 1189 H 113.133 1.73914 -6.74334 0
M  V30 1190 H 110.76 1.58029 -7.43593 0
M  V30 1191 N 112.336 1.25143 0.95797 0
M  V30 1192 C 113.564 1.12424 1.73691 0
M  V30 1193 C 113.979 -0.322304 1.86029 0
M  V30 1194 O 113.336 -1.22186 1.35561 0
M  V30 1195 C 113.387 1.76933 3.15241 0
M  V30 1196 O 113.108 3.15932 3.03511 0
M  V30 1197 C 114.609 1.6995 4.09429 0
M  V30 1198 H 111.829 0.3923 0.544373 0
M  V30 1199 H 114.373 1.6544 1.20207 0
M  V30 1200 H 112.528 1.27895 3.6568 0
M  V30 1201 H 112.942 3.47598 3.9278 0
M  V30 1202 H 114.416 2.19753 5.06372 0
M  V30 1203 H 114.893 0.662619 4.34173 0
M  V30 1204 H 115.499 2.18461 3.64904 0
M  V30 1205 N 113.814 -1.1601 1.06675 0
M  V30 1206 C 115.042 -1.90527 0.806667 0
M  V30 1207 C 115.457 -1.77643 -0.639396 0
M  V30 1208 O 114.814 -1.12369 -1.43803 0
M  V30 1209 C 114.865 -3.41106 1.19705 0
M  V30 1210 O 114.586 -3.53608 2.58636 0
M  V30 1211 C 116.087 -4.32663 0.965266 0
M  V30 1212 H 113.307 -0.604053 0.292166 0
M  V30 1213 H 115.851 -1.47026 1.4214 0
M  V30 1214 H 114.006 -3.82296 0.626774 0
M  V30 1215 H 114.42 -4.47011 2.74375 0
M  V30 1216 H 115.894 -5.36763 1.288 0
M  V30 1217 H 116.371 -4.39089 -0.0987936 0
M  V30 1218 H 116.977 -3.97206 1.52011 0
M  V30 1219 N 115.292 -0.849877 -1.32721 0
M  V30 1220 C 116.222 -0.306308 -2.31482 0
M  V30 1221 C 117.203 0.591952 -1.59468 0
M  V30 1222 O 118.388 0.513199 -1.87296 0
M  V30 1223 C 115.518 0.510204 -3.43532 0
M  V30 1224 C 114.472 -0.293209 -4.26994 0
M  V30 1225 C 113.798 0.647743 -5.30762 0
M  V30 1226 C 115.098 -1.51634 -4.99804 0
M  V30 1227 H 116.792 -1.13153 -2.77195 0
M  V30 1228 H 114.338 -0.545553 -1.33266 0
M  V30 1229 H 116.291 0.900856 -4.11658 0
M  V30 1230 H 115.015 1.36874 -2.96535 0
M  V30 1231 H 113.674 -0.665555 -3.60508 0
M  V30 1232 H 113.322 1.50299 -4.8002 0
M  V30 1233 H 113.022 0.11422 -5.87489 0
M  V30 1234 H 114.546 1.03567 -6.01753 0
M  V30 1235 H 115.96 -1.19824 -5.60638 0
M  V30 1236 H 114.357 -1.98745 -5.66234 0
M  V30 1237 H 115.427 -2.28018 -4.27943 0
M  V30 1238 N 116.77 1.45427 -0.607355 0
M  V30 1239 C 118.016 2.0254 -0.102607 0
M  V30 1240 C 118.349 1.47478 1.26348 0
M  V30 1241 O 117.624 0.64939 1.83339 0
M  V30 1242 C 117.907 3.60044 -0.0634347 0
M  V30 1243 C 117.76 4.2544 -1.46017 0
M  V30 1244 C 119.079 4.35646 0.624514 0
M  V30 1245 H 116.198 0.73598 -0.0387607 0
M  V30 1246 H 118.84 1.73284 -0.779282 0
M  V30 1247 H 116.99 3.85101 0.512808 0
M  V30 1248 H 118.662 4.11569 -2.08347 0
M  V30 1249 H 116.905 3.83849 -2.02094 0
M  V30 1250 H 117.576 5.34342 -1.385 0
M  V30 1251 H 120.052 4.15882 0.134723 0
M  V30 1252 H 118.928 5.45376 0.621028 0
M  V30 1253 H 119.189 4.08501 1.69055 0
M  V30 1254 N 118.248 0.346503 1.53744 0
M  V30 1255 C 119.496 -0.248612 2.00565 0
M  V30 1256 C 119.817 -1.5083 1.23593 0
M  V30 1257 O 119.087 -1.92858 0.343912 0
M  V30 1258 H 117.667 -0.0948564 0.740953 0
M  V30 1259 H 120.329 0.468341 1.89189 0
M  V30 1260 H 119.425 -0.488994 3.08245 0
M  V30 1261 N 119.726 -1.57421 0.075193 0
M  V30 1262 C 120.974 -1.93236 -0.591974 0
M  V30 1263 C 121.295 -0.956241 -1.69944 0
M  V30 1264 O 120.565 -0.00494792 -1.95899 0
M  V30 1265 H 119.145 -0.713355 -0.22166 0
M  V30 1266 H 121.807 -1.9444 0.133848 0
M  V30 1267 H 120.903 -2.95131 -1.01509 0
M  V30 1268 N 121.204 0.198386 -1.56346 0
M  V30 1269 C 122.615 0.763358 -1.70381 0
M  V30 1270 C 122.966 1.83995 -0.681203 0
M  V30 1271 O 122.091 2.15785 0.16305 0
M  V30 1272 C 122.686 1.39143 -3.08909 0
M  V30 1273 C 121.245 1.90352 -3.2472 0
M  V30 1274 C 120.392 0.772233 -2.6633 0
M  V30 1275 H 123.343 -0.0266377 -1.58678 0
M  V30 1276 H 123.364 2.26076 -3.06055 0
M  V30 1277 H 122.876 0.607638 -3.83314 0
M  V30 1278 H 120.977 2.71461 -2.55225 0
M  V30 1279 H 121.09 2.06757 -4.3219 0
M  V30 1280 H 119.454 1.18566 -2.2542 0
M  V30 1281 H 120.237 0.00073556 -3.433 0
M  V30 1282 N 122.682 1.50554 0.465978 0
M  V30 1283 C 123.592 1.72585 1.58907 0
M  V30 1284 C 124.608 0.60911 1.6299 0
M  V30 1285 O 125.784 0.88804 1.80765 0
M  V30 1286 C 122.849 1.81995 2.95091 0
M  V30 1287 C 121.91 3.05751 3.01355 0
M  V30 1288 C 121.143 3.14702 4.31043 0
M  V30 1289 O 121.366 2.30313 5.21835 0
M  V30 1290 O 120.3 4.07468 4.43005 0
M  V30 1291 H 124.126 2.67799 1.43239 0
M  V30 1292 H 121.711 1.34711 0.646013 0
M  V30 1293 H 123.593 1.90335 3.75966 0
M  V30 1294 H 122.268 0.899659 3.10947 0
M  V30 1295 H 121.175 3.02908 2.19539 0
M  V30 1296 H 122.508 3.97375 2.90437 0
M  V30 1297 N 124.16 -0.719506 1.40217 0
M  V30 1298 C 125.39 -1.50646 1.41384 0
M  V30 1299 C 125.798 -1.89197 0.0107743 0
M  V30 1300 O 125.141 -1.55709 -0.974708 0
M  V30 1301 C 125.203 -2.81405 2.23722 0
M  V30 1302 C 124.867 -2.65199 3.72181 0
M  V30 1303 C 125.864 -2.32717 4.64907 0
M  V30 1304 C 123.549 -2.81586 4.1595 0
M  V30 1305 C 125.543 -2.16827 5.99387 0
M  V30 1306 C 123.23 -2.65313 5.50502 0
M  V30 1307 C 124.228 -2.32981 6.42035 0
M  V30 1308 O 123.916 -2.16827 7.74107 0
M  V30 1309 H 123.648 -0.471606 0.484318 0
M  V30 1310 H 126.202 -0.895456 1.84853 0
M  V30 1311 H 124.432 -3.44823 1.75026 0
M  V30 1312 H 126.121 -3.43102 2.16878 0
M  V30 1313 H 126.887 -2.19694 4.32388 0
M  V30 1314 H 122.766 -3.0574 3.45027 0
M  V30 1315 H 126.31 -1.91513 6.70797 0
M  V30 1316 H 122.207 -2.7792 5.82607 0
M  V30 1317 H 122.975 -2.31778 7.84998 0
M  V30 1318 N 125.638 -1.25649 -0.95132 0
M  V30 1319 C 126.884 -1.10757 -1.69884 0
M  V30 1320 C 127.217 0.350061 -1.91019 0
M  V30 1321 O 126.492 1.25783 -1.48354 0
M  V30 1322 C 126.775 -1.86606 -3.07978 0
M  V30 1323 C 126.628 -3.40217 -2.94232 0
M  V30 1324 C 127.947 -1.65182 -4.07925 0
M  V30 1325 H 125.066 -0.40374 -0.616574 0
M  V30 1326 H 127.708 -1.54521 -1.10558 0
M  V30 1327 H 125.858 -1.49409 -3.58621 0
M  V30 1328 H 127.53 -3.87108 -2.50889 0
M  V30 1329 H 125.773 -3.67759 -2.30078 0
M  V30 1330 H 126.444 -3.88505 -3.92133 0
M  V30 1331 H 128.92 -1.9757 -3.66204 0
M  V30 1332 H 127.796 -2.20683 -5.02583 0
M  V30 1333 H 128.057 -0.593933 -4.38092 0
M  V30 1334 N 127.117 1.15442 -1.07289 0
M  V30 1335 C 128.067 2.18164 -0.662467 0
M  V30 1336 C 129.051 1.57845 0.312074 0
M  V30 1337 O 130.243 1.76552 0.125905 0
M  V30 1338 C 127.372 3.43246 -0.0611295 0
M  V30 1339 C 126.458 4.1062 -1.06077 0
M  V30 1340 N 126.849 4.53491 -2.24008 0
M  V30 1341 C 125.147 4.36949 -0.893964 0
M  V30 1342 C 125.848 5.05731 -2.87422 0
M  V30 1343 N 124.824 4.99236 -2.15091 0
M  V30 1344 H 128.626 2.49038 -1.56068 0
M  V30 1345 H 126.14 1.32003 -0.945988 0
M  V30 1346 H 128.137 4.16145 0.250792 0
M  V30 1347 H 126.797 3.13854 0.832207 0
M  V30 1348 H 127.808 4.46898 -2.6173 0
M  V30 1349 H 124.485 4.17466 -0.0534693 0
M  V30 1350 H 125.875 5.48865 -3.87553 0
M  V30 1351 N 128.595 0.856903 1.32268 0
M  V30 1352 C 129.835 0.467705 1.98977 0
M  V30 1353 C 130.199 -0.959231 1.66321 0
M  V30 1354 O 131.4 -1.4531 2.26138 0
M  V30 1355 C 129.671 0.70256 3.50427 0
M  V30 1356 S 131.23 0.411269 4.36868 0
M  V30 1357 H 128.048 0.175121 0.689096 0
M  V30 1358 H 130.65 1.1101 1.60925 0
M  V30 1359 H 129.354 1.74012 3.71683 0
M  V30 1360 H 128.885 0.0466707 3.93372 0
M  V30 1361 H 130.9 -0.761799 4.90317 0
M  V30 1362 N 130.073 -1.45103 0.615059 0
M  V30 1363 C 131.003 -2.33339 -0.0865619 0
M  V30 1364 C 131.984 -1.4727 -0.851209 0
M  V30 1365 O 133.169 -1.76026 -0.820281 0
M  V30 1366 C 130.299 -3.30095 -1.07956 0
M  V30 1367 C 129.253 -4.25858 -0.427628 0
M  V30 1368 C 128.579 -5.12361 -1.5294 0
M  V30 1369 C 129.879 -5.18165 0.655944 0
M  V30 1370 H 131.573 -2.92254 0.650224 0
M  V30 1371 H 129.119 -1.40532 0.314138 0
M  V30 1372 H 131.072 -3.90698 -1.57901 0
M  V30 1373 H 129.796 -2.69355 -1.84703 0
M  V30 1374 H 128.455 -3.66564 0.0510292 0
M  V30 1375 H 128.103 -4.47984 -2.28734 0
M  V30 1376 H 127.803 -5.77238 -1.09865 0
M  V30 1377 H 129.327 -5.75833 -2.03098 0
M  V30 1378 H 130.741 -5.72796 0.240257 0
M  V30 1379 H 129.138 -5.91559 1.00888 0
M  V30 1380 H 130.208 -4.60144 1.52957 0
M  V30 1381 N 131.551 -0.354651 -1.53558 0
M  V30 1382 C 132.481 0.489091 -2.2832 0
M  V30 1383 C 133.462 1.09324 -1.30316 0
M  V30 1384 O 134.647 1.11255 -1.59173 0
M  V30 1385 C 131.777 1.63456 -3.0643 0
M  V30 1386 C 130.731 1.1582 -4.12031 0
M  V30 1387 C 130.057 2.39305 -4.7816 0
M  V30 1388 C 131.357 0.250731 -5.21698 0
M  V30 1389 H 133.051 -0.134614 -2.99097 0
M  V30 1390 H 130.597 -0.0661826 -1.43848 0
M  V30 1391 H 132.55 2.23136 -3.57475 0
M  V30 1392 H 131.274 2.28533 -2.33325 0
M  V30 1393 H 129.933 0.584146 -3.61916 0
M  V30 1394 H 129.581 3.02814 -4.01637 0
M  V30 1395 H 129.281 2.08109 -5.49513 0
M  V30 1396 H 130.805 2.99691 -5.31994 0
M  V30 1397 H 132.219 0.754695 -5.68311 0
M  V30 1398 H 130.616 0.0301468 -6.00092 0
M  V30 1399 H 131.686 -0.710125 -4.79672 0
M  V30 1400 N 133.029 1.57378 -0.0835403 0
M  V30 1401 C 134.44 1.81261 0.447358 0
M  V30 1402 C 134.791 0.998331 1.68902 0
M  V30 1403 O 133.916 0.224282 2.15235 0
M  V30 1404 C 134.511 3.28767 0.818386 0
M  V30 1405 C 133.07 3.53455 1.29409 0
M  V30 1406 C 132.217 2.75831 0.285024 0
M  V30 1407 H 135.168 1.5566 -0.309115 0
M  V30 1408 H 135.189 3.41459 1.67887 0
M  V30 1409 H 134.701 3.88006 -0.0855019 0
M  V30 1410 H 132.802 2.99534 2.21608 0
M  V30 1411 H 132.915 4.62128 1.2639 0
M  V30 1412 H 131.279 2.42947 0.764767 0
M  V30 1413 H 132.062 3.37813 -0.611341 0
M  V30 1414 N 134.507 -0.190092 1.56449 0
M  V30 1415 C 135.918 -0.754312 1.70784 0
M  V30 1416 C 136.269 -1.83631 0.690951 0
M  V30 1417 O 135.394 -2.15868 -0.151604 0
M  V30 1418 C 135.989 -1.37503 3.09642 0
M  V30 1419 C 134.548 -1.88628 3.25725 0
M  V30 1420 C 133.695 -0.758098 2.66736 0
M  V30 1421 H 136.646 0.0350524 1.58661 0
M  V30 1422 H 136.667 -2.2445 3.0725 0
M  V30 1423 H 136.179 -0.587302 3.83631 0
M  V30 1424 H 134.28 -2.70103 2.56661 0
M  V30 1425 H 134.393 -2.04462 4.3328 0
M  V30 1426 H 132.757 -1.17369 2.26046 0
M  V30 1427 H 133.54 0.0174705 3.43296 0
M  V30 1428 N 135.985 -1.50799 -0.457987 0
M  V30 1429 C 136.915 -1.73553 -1.5621 0
M  V30 1430 C 137.896 -0.584774 -1.59732 0
M  V30 1431 O 139.081 -0.825314 -1.7579 0
M  V30 1432 C 136.211 -1.84169 -2.94447 0
M  V30 1433 C 135.165 -2.99461 -3.0579 0
M  V30 1434 C 134.491 -2.95235 -4.45803 0
M  V30 1435 C 135.791 -4.39766 -2.81786 0
M  V30 1436 H 137.485 -2.66 -1.37421 0
M  V30 1437 H 135.031 -1.28002 -0.659662 0
M  V30 1438 H 136.984 -1.98672 -3.71628 0
M  V30 1439 H 135.708 -0.883545 -3.14422 0
M  V30 1440 H 134.367 -2.8463 -2.31044 0
M  V30 1441 H 134.015 -1.97239 -4.62715 0
M  V30 1442 H 133.715 -3.72642 -4.54326 0
M  V30 1443 H 135.239 -3.11803 -5.24987 0
M  V30 1444 H 136.653 -4.55054 -3.4871 0
M  V30 1445 H 135.05 -5.18722 -3.0174 0
M  V30 1446 H 136.12 -4.51229 -1.7754 0
M  V30 1447 N 137.463 0.71206 -1.40597 0
M  V30 1448 C 138.373 1.8562 -1.43466 0
M  V30 1449 C 139.389 1.70902 -0.326902 0
M  V30 1450 O 140.565 1.93105 -0.572043 0
M  V30 1451 C 137.63 3.21451 -1.29884 0
M  V30 1452 C 136.691 3.48398 -2.50833 0
M  V30 1453 C 135.924 4.77749 -2.3789 0
M  V30 1454 O 136.147 5.53089 -1.39459 0
M  V30 1455 O 135.081 5.05111 -3.27333 0
M  V30 1456 H 138.907 1.86155 -2.39958 0
M  V30 1457 H 136.492 0.86295 -1.21957 0
M  V30 1458 H 138.374 4.02579 -1.24531 0
M  V30 1459 H 137.049 3.21636 -0.364997 0
M  V30 1460 H 135.956 2.67265 -2.61763 0
M  V30 1461 H 137.289 3.53014 -3.4299 0
M  V30 1462 N 138.941 1.26152 0.944643 0
M  V30 1463 C 140.166 1.14363 1.7302 0
M  V30 1464 C 140.591 -0.29772 1.85729 0
M  V30 1465 O 139.949 -1.2157 1.34501 0
M  V30 1466 C 139.997 1.81378 3.11664 0
M  V30 1467 O 139.101 1.10022 3.97453 0
M  V30 1468 H 138.442 0.398694 0.53098 0
M  V30 1469 H 140.972 1.66906 1.18337 0
M  V30 1470 H 140.982 1.88064 3.62072 0
M  V30 1471 H 139.657 2.86237 3.0173 0
M  V30 1472 H 138.234 1.11287 3.55907 0
M  V30 1473 N 140.419 -1.14872 1.07899 0
M  V30 1474 C 141.349 -2.2193 0.725887 0
M  V30 1475 C 142.33 -1.67622 -0.28927 0
M  V30 1476 O 143.515 -1.93533 -0.160787 0
M  V30 1477 C 140.645 -3.47061 0.128856 0
M  V30 1478 C 139.599 -4.14363 1.07178 0
M  V30 1479 C 138.925 -5.33636 0.337229 0
M  V30 1480 C 140.225 -4.63492 2.40775 0
M  V30 1481 H 141.919 -2.51724 1.62097 0
M  V30 1482 H 139.465 -1.20991 0.780838 0
M  V30 1483 H 141.418 -4.21199 -0.130147 0
M  V30 1484 H 140.142 -3.16617 -0.80134 0
M  V30 1485 H 138.801 -3.42173 1.3158 0
M  V30 1486 H 138.449 -4.99449 -0.596606 0
M  V30 1487 H 138.149 -5.79609 0.965788 0
M  V30 1488 H 139.673 -6.10539 0.0861567 0
M  V30 1489 H 141.087 -5.2913 2.20669 0
M  V30 1490 H 139.484 -5.20148 2.99276 0
M  V30 1491 H 140.554 -3.78834 3.02676 0
M  V30 1492 N 141.898 -0.863906 -1.31812 0
M  V30 1493 C 142.861 -0.320212 -2.26952 0
M  V30 1494 C 143.861 0.525369 -1.51975 0
M  V30 1495 O 145.051 0.335547 -1.70938 0
M  V30 1496 C 142.183 0.545919 -3.365 0
M  V30 1497 H 143.376 -1.16004 -2.76556 0
M  V30 1498 H 140.929 -0.638995 -1.42641 0
M  V30 1499 H 141.664 1.40718 -2.92179 0
M  V30 1500 H 141.449 -0.0594674 -3.92055 0
M  V30 1501 H 142.939 0.918796 -4.07367 0
M  V30 1502 N 143.376 1.44774 -0.622745 0
M  V30 1503 C 144.604 2.06487 -0.130722 0
M  V30 1504 C 145.019 1.46476 1.19123 0
M  V30 1505 O 144.376 0.584502 1.72887 0
M  V30 1506 C 144.427 3.615 -0.000807207 0
M  V30 1507 O 144.148 4.19274 -1.27048 0
M  V30 1508 C 145.649 4.40229 0.520898 0
M  V30 1509 H 142.869 0.666704 -0.0758106 0
M  V30 1510 H 145.413 1.85779 -0.854774 0
M  V30 1511 H 143.568 3.81498 0.673643 0
M  V30 1512 H 143.982 5.12622 -1.1099 0
M  V30 1513 H 145.456 5.49144 0.560838 0
M  V30 1514 H 145.933 4.1108 1.54627 0
M  V30 1515 H 146.539 4.25131 -0.120018 0
M  V30 1516 N 144.854 0.36279 1.53368 0
M  V30 1517 C 146.1 -0.228113 2.01513 0
M  V30 1518 C 146.433 -1.48648 1.2497 0
M  V30 1519 O 145.708 -1.91459 0.342616 0
M  V30 1520 C 145.991 -0.522884 3.56284 0
M  V30 1521 C 145.844 0.74892 4.43521 0
M  V30 1522 C 147.163 -1.32461 4.19693 0
M  V30 1523 H 144.282 -0.0814343 0.732487 0
M  V30 1524 H 146.924 0.48713 1.83649 0
M  V30 1525 H 145.074 -1.1322 3.71636 0
M  V30 1526 H 146.746 1.38648 4.39971 0
M  V30 1527 H 144.989 1.36986 4.11603 0
M  V30 1528 H 145.66 0.497667 5.49752 0
M  V30 1529 H 148.136 -0.809203 4.08156 0
M  V30 1530 H 147.012 -1.49961 5.28018 0
M  V30 1531 H 147.273 -2.33232 3.75573 0
M  V30 1532 N 146.332 -1.57332 0.0918853 0
M  V30 1533 C 147.242 -2.17368 -0.882505 0
M  V30 1534 C 148.258 -1.14226 -1.31257 0
M  V30 1535 O 149.434 -1.46582 -1.38115 0
M  V30 1536 C 146.499 -2.73962 -2.12476 0
M  V30 1537 C 145.56 -3.92048 -1.7492 0
M  V30 1538 C 144.793 -4.45933 -2.93223 0
M  V30 1539 O 145.016 -3.98764 -4.07852 0
M  V30 1540 O 143.95 -5.36999 -2.71875 0
M  V30 1541 H 147.776 -3.01031 -0.40172 0
M  V30 1542 H 145.361 -1.48813 -0.132291 0
M  V30 1543 H 147.243 -3.10147 -2.85283 0
M  V30 1544 H 145.918 -1.93347 -2.59613 0
M  V30 1545 H 144.825 -3.6068 -0.993025 0
M  V30 1546 H 146.158 -4.74017 -1.32548 0
M  V30 1547 N 147.81 0.181792 -1.56548 0
M  V30 1548 C 148.72 1.24538 -1.98815 0
M  V30 1549 C 149.736 1.49045 -0.897861 0
M  V30 1550 O 150.912 1.61399 -1.20467 0
M  V30 1551 C 147.977 2.56683 -2.33055 0
M  V30 1552 C 147.038 2.40131 -3.55859 0
M  V30 1553 C 146.271 3.65975 -3.88456 0
M  V30 1554 O 146.494 4.70711 -3.22161 0
M  V30 1555 O 145.428 3.6071 -4.81842 0
M  V30 1556 H 149.254 0.916647 -2.89536 0
M  V30 1557 H 146.839 0.387842 -1.44278 0
M  V30 1558 H 148.721 3.34655 -2.56094 0
M  V30 1559 H 147.396 2.89157 -1.45498 0
M  V30 1560 H 146.303 1.60226 -3.38051 0
M  V30 1561 H 147.636 2.12585 -4.43924 0
M  V30 1562 N 149.288 1.51039 0.449983 0
M  V30 1563 C 150.516 1.66869 1.2232 0
M  V30 1564 C 150.931 0.360727 1.85322 0
M  V30 1565 O 150.288 -0.659531 1.70166 0
M  V30 1566 C 150.339 2.77524 2.31652 0
M  V30 1567 O 150.06 4.03252 1.7123 0
M  V30 1568 C 151.561 3.04512 3.2216 0
M  V30 1569 H 148.781 0.560326 0.369155 0
M  V30 1570 H 151.325 1.97385 0.534719 0
M  V30 1571 H 149.48 2.49642 2.96239 0
M  V30 1572 H 149.894 4.64609 2.43389 0
M  V30 1573 H 151.368 3.85551 3.95038 0
M  V30 1574 H 151.845 2.16415 3.8218 0
M  V30 1575 H 152.451 3.34005 2.63288 0
M  V30 1576 N 150.766 -0.704594 1.40972 0
M  V30 1577 C 152.012 -1.46675 1.40051 0
M  V30 1578 C 152.345 -1.94199 0.00641102 0
M  V30 1579 O 151.62 -1.68916 -0.964235 0
M  V30 1580 C 151.903 -2.68505 2.39952 0
M  V30 1581 C 151.756 -2.26805 3.88432 0
M  V30 1582 C 153.075 -3.70686 2.37233 0
M  V30 1583 H 150.194 -0.532015 0.510028 0
M  V30 1584 H 152.836 -0.803255 1.72185 0
M  V30 1585 H 150.986 -3.25114 2.1268 0
M  V30 1586 H 152.658 -1.75592 4.26574 0
M  V30 1587 H 150.901 -1.58685 4.03734 0
M  V30 1588 H 151.572 -3.14181 4.53866 0
M  V30 1589 H 154.048 -3.23731 2.61415 0
M  V30 1590 H 152.924 -4.53553 3.09162 0
M  V30 1591 H 153.185 -4.19754 1.38777 0
M  V30 1592 N 152.244 -1.26651 -0.937939 0
M  V30 1593 C 153.49 -1.12553 -1.687 0
M  V30 1594 C 153.823 0.329782 -1.91379 0
M  V30 1595 O 153.098 1.24202 -1.4968 0
M  V30 1596 C 153.381 -1.89862 -3.05981 0
M  V30 1597 C 153.234 -3.43318 -2.90607 0
M  V30 1598 C 154.553 -1.69499 -4.0615 0
M  V30 1599 H 151.672 -0.410257 -0.612257 0
M  V30 1600 H 154.314 -1.55685 -1.08913 0
M  V30 1601 H 152.464 -1.53204 -3.57017 0
M  V30 1602 H 154.136 -3.89747 -2.46769 0
M  V30 1603 H 152.379 -3.70179 -2.26164 0
M  V30 1604 H 153.05 -3.92642 -3.8799 0
M  V30 1605 H 155.526 -2.01442 -3.64088 0
M  V30 1606 H 154.402 -2.26002 -5.00214 0
M  V30 1607 H 154.663 -0.640365 -4.37438 0
M  V30 1608 N 153.722 1.14298 -1.08507 0
M  V30 1609 C 155.138 1.37347 -0.812901 0
M  V30 1610 C 155.338 1.93052 0.577325 0
M  V30 1611 O 154.394 2.14389 1.33393 0
M  V30 1612 C 155.707 2.33359 -1.89642 0
M  V30 1613 C 157.255 2.46996 -1.92255 0
M  V30 1614 C 157.73 3.46309 -2.99724 0
M  V30 1615 N 159.221 3.53853 -2.98902 0
M  V30 1616 C 159.956 4.3055 -3.787 0
M  V30 1617 N 159.452 5.10482 -4.6838 0
M  V30 1618 N 161.245 4.25757 -3.66998 0
M  V30 1619 H 153.396 0.764867 -1.9815 0
M  V30 1620 H 155.659 0.398966 -0.859959 0
M  V30 1621 H 155.365 1.99565 -2.89597 0
M  V30 1622 H 155.239 3.33274 -1.76659 0
M  V30 1623 H 157.626 2.80081 -0.929445 0
M  V30 1624 H 157.707 1.47039 -2.09316 0
M  V30 1625 H 157.351 3.13957 -3.99241 0
M  V30 1626 H 157.281 4.46049 -2.79907 0
M  V30 1627 H 159.772 2.96812 -2.33904 0
M  V30 1628 H 160.085 5.66284 -5.25873 0
M  V30 1629 H 158.43 5.09747 -4.72422 0
M  V30 1630 H 161.621 3.62383 -2.96304 0
M  V30 1631 H 161.794 4.85279 -4.29427 0
M  V30 1632 N 155.201 0.870884 1.31352 0
M  V30 1633 C 156.478 0.402907 1.91405 0
M  V30 1634 C 156.858 -1.11512 1.79244 0
M  V30 1635 O 156.206 -1.94411 1.2007 0
M  V30 1636 C 156.416 0.885301 3.37585 0
M  V30 1637 C 157.764 0.911971 4.14691 0
M  V30 1638 O 158.788 0.831016 3.46371 0
M  V30 1639 O 157.647 1.02927 5.3672 0
M  V30 1640 H 154.741 0.120698 0.818145 0
M  V30 1641 H 157.287 0.958857 1.40014 0
M  V30 1642 H 156.059 1.92889 3.40455 0
M  V30 1643 H 155.682 0.307714 3.96407 0
M  V30 1644 N 156.679 -1.44442 0.630414 0
M  V30 1645 C 157.626 -2.30678 -0.0749355 0
M  V30 1646 C 158.596 -1.4344 -0.837502 0
M  V30 1647 O 159.781 -1.72343 -0.818684 0
M  V30 1648 C 156.921 -3.28706 -1.05103 0
M  V30 1649 C 156.034 -4.31046 -0.286954 0
M  V30 1650 C 155.169 -5.16167 -1.2548 0
M  V30 1651 C 154.208 -6.10216 -0.479843 0
M  V30 1652 N 153.345 -6.88039 -1.39811 0
M  V30 1653 H 158.185 -2.90454 0.666386 0
M  V30 1654 H 155.722 -1.43107 0.340404 0
M  V30 1655 H 157.68 -3.84027 -1.63031 0
M  V30 1656 H 156.31 -2.70632 -1.75949 0
M  V30 1657 H 155.362 -3.78203 0.408243 0
M  V30 1658 H 156.674 -4.97794 0.316657 0
M  V30 1659 H 155.828 -5.76002 -1.90544 0
M  V30 1660 H 154.567 -4.49491 -1.89233 0
M  V30 1661 H 153.572 -5.49491 0.184295 0
M  V30 1662 H 154.797 -6.78928 0.152965 0
M  V30 1663 H 152.743 -6.24032 -2.02287 0
M  V30 1664 H 152.66 -7.51223 -0.848508 0
M  V30 1665 H 153.928 -7.52397 -2.03762 0
M  V30 1666 N 158.157 -0.370918 -1.53173 0
M  V30 1667 C 159.12 0.460778 -2.24521 0
M  V30 1668 C 160.12 1.00536 -1.25496 0
M  V30 1669 O 161.31 0.890266 -1.49733 0
M  V30 1670 C 158.442 1.64457 -2.98608 0
M  V30 1671 H 159.635 -0.163613 -2.99453 0
M  V30 1672 H 157.188 -0.122699 -1.55818 0
M  V30 1673 H 157.923 2.30691 -2.2793 0
M  V30 1674 H 157.708 1.26099 -3.7127 0
M  V30 1675 H 159.198 2.23384 -3.5283 0
M  V30 1676 N 159.635 1.57281 -0.100228 0
M  V30 1677 C 160.881 1.94826 0.563101 0
M  V30 1678 C 161.214 0.982475 1.67514 0
M  V30 1679 O 160.489 0.0164069 1.94493 0
M  V30 1680 C 160.772 3.42453 1.11346 0
M  V30 1681 C 160.625 4.498 0.00612081 0
M  V30 1682 C 161.944 3.91506 2.01024 0
M  V30 1683 H 159.063 0.708428 0.203221 0
M  V30 1684 H 161.705 1.8922 -0.171979 0
M  V30 1685 H 159.855 3.47361 1.7399 0
M  V30 1686 H 161.527 4.57 -0.628357 0
M  V30 1687 H 159.77 4.28756 -0.659581 0
M  V30 1688 H 160.441 5.50306 0.432109 0
M  V30 1689 H 162.917 3.88784 1.48278 0
M  V30 1690 H 161.793 4.95358 2.36457 0
M  V30 1691 H 162.054 3.31099 2.92961 0
M  V30 1692 N 161.113 -0.173488 1.56642 0
M  V30 1693 C 162.023 -1.23482 1.99473 0
M  V30 1694 C 163.039 -1.48567 0.905752 0
M  V30 1695 O 164.215 -1.60758 1.21321 0
M  V30 1696 C 161.28 -2.55444 2.34413 0
M  V30 1697 C 160.341 -2.38241 3.57127 0
M  V30 1698 C 159.574 -3.63909 3.90392 0
M  V30 1699 O 159.797 -4.68996 3.24653 0
M  V30 1700 O 158.731 -3.58149 4.83749 0
M  V30 1701 H 162.557 -0.901279 2.90018 0
M  V30 1702 H 160.142 -0.380185 1.44482 0
M  V30 1703 H 162.024 -3.33292 2.57865 0
M  V30 1704 H 160.699 -2.88382 1.4703 0
M  V30 1705 H 159.606 -1.58431 3.38896 0
M  V30 1706 H 160.939 -2.10228 4.45045 0
M  V30 1707 N 162.591 -1.51276 -0.441967 0
M  V30 1708 C 163.816 -1.67799 -1.21895 0
M  V30 1709 C 164.241 -0.372864 -1.84367 0
M  V30 1710 O 163.599 0.666501 -1.68604 0
M  V30 1711 C 163.647 -2.79199 -2.28211 0
M  V30 1712 O 162.751 -2.42479 -3.33583 0
M  V30 1713 H 162.092 -0.559649 -0.357336 0
M  V30 1714 H 164.622 -1.97815 -0.522522 0
M  V30 1715 H 164.632 -3.03146 -2.73069 0
M  V30 1716 H 163.307 -3.73906 -1.82118 0
M  V30 1717 H 161.884 -2.29087 -2.94234 0
M  V30 1718 N 164.069 0.697108 -1.41344 0
M  V30 1719 C 164.999 1.82353 -1.45841 0
M  V30 1720 C 165.98 1.67115 -0.317247 0
M  V30 1721 O 167.165 1.86871 -0.528474 0
M  V30 1722 C 164.295 3.20476 -1.33838 0
M  V30 1723 C 163.249 3.50415 -2.4575 0
M  V30 1724 C 162.575 4.87878 -2.18813 0
M  V30 1725 C 163.875 3.49546 -3.88091 0
M  V30 1726 H 165.569 1.78846 -2.40113 0
M  V30 1727 H 163.115 0.859028 -1.15571 0
M  V30 1728 H 165.068 3.98988 -1.35596 0
M  V30 1729 H 163.792 3.24604 -0.360498 0
M  V30 1730 H 162.451 2.74253 -2.43271 0
M  V30 1731 H 162.099 4.8863 -1.19371 0
M  V30 1732 H 161.799 5.08875 -2.93803 0
M  V30 1733 H 163.323 5.68702 -2.22284 0
M  V30 1734 H 164.737 4.18066 -3.92293 0
M  V30 1735 H 163.134 3.82075 -4.62751 0
M  V30 1736 H 164.204 2.48552 -4.16353 0
M  V30 1737 N 165.547 1.27147 0.931209 0
M  V30 1738 C 166.963 1.04475 1.20653 0
M  V30 1739 C 167.163 -0.223885 2.00252 0
M  V30 1740 O 166.219 -0.930332 2.34736 0
M  V30 1741 C 167.532 2.28209 1.95809 0
M  V30 1742 C 169.08 2.33211 2.08762 0
M  V30 1743 C 169.555 3.56665 2.87323 0
M  V30 1744 N 171.046 3.57201 2.94892 0
M  V30 1745 C 171.781 4.49395 3.56134 0
M  V30 1746 N 171.277 5.51889 4.18796 0
M  V30 1747 N 173.07 4.37026 3.53504 0
M  V30 1748 H 165.221 2.08612 0.399333 0
M  V30 1749 H 167.484 0.917312 0.239253 0
M  V30 1750 H 167.19 3.20538 1.44736 0
M  V30 1751 H 167.064 2.33247 2.96438 0
M  V30 1752 H 169.451 1.41391 2.59023 0
M  V30 1753 H 169.532 2.32178 1.07364 0
M  V30 1754 H 169.176 4.4882 2.37746 0
M  V30 1755 H 169.106 3.54948 3.88998 0
M  V30 1756 H 171.597 2.83074 2.50354 0
M  V30 1757 H 171.91 6.18409 4.63454 0
M  V30 1758 H 170.255 5.55735 4.17353 0
M  V30 1759 H 173.446 3.56166 3.03749 0
M  V30 1760 H 173.619 5.09067 4.00942 0
M  V30 1761 N 167.025 -1.13721 1.09112 0
M  V30 1762 C 167.988 -2.17222 0.731241 0
M  V30 1763 C 168.988 -1.59035 -0.237566 0
M  V30 1764 O 170.178 -1.74192 -0.0161704 0
M  V30 1765 C 167.31 -3.40804 0.0808443 0
M  V30 1766 H 168.503 -2.50573 1.64783 0
M  V30 1767 H 166.056 -1.28493 0.889897 0
M  V30 1768 H 166.791 -3.1304 -0.847127 0
M  V30 1769 H 166.576 -3.84306 0.777896 0
M  V30 1770 H 168.066 -4.1731 -0.155657 0
M  V30 1771 N 168.503 -0.877838 -1.30888 0
M  V30 1772 C 169.752 -0.488793 -1.95688 0
M  V30 1773 C 170.065 0.965485 -1.70111 0
M  V30 1774 O 171.271 1.46104 -2.28836 0
M  V30 1775 C 169.727 -0.823201 -3.50359 0
M  V30 1776 C 169.335 -2.29477 -3.84765 0
M  V30 1777 C 171.079 -0.503009 -4.21509 0
M  V30 1778 C 168.986 -2.57118 -5.32583 0
M  V30 1779 H 167.916 -0.179062 -0.732429 0
M  V30 1780 H 170.567 -1.07183 -1.48943 0
M  V30 1781 H 168.949 -0.169331 -3.95638 0
M  V30 1782 H 170.123 -2.99236 -3.5042 0
M  V30 1783 H 168.438 -2.58178 -3.267 0
M  V30 1784 H 171.035 -0.68665 -5.30273 0
M  V30 1785 H 171.378 0.557109 -4.12555 0
M  V30 1786 H 171.911 -1.11376 -3.8189 0
M  V30 1787 H 168.65 -3.61843 -5.4658 0
M  V30 1788 H 168.17 -1.91961 -5.68253 0
M  V30 1789 H 169.849 -2.42251 -5.99936 0
M  V30 1790 N 169.982 1.44106 -0.638065 0
M  V30 1791 C 171.207 2.0685 -0.150916 0
M  V30 1792 C 171.632 1.47417 1.16833 0
M  V30 1793 O 170.99 0.578264 1.71831 0
M  V30 1794 C 171.038 3.60555 -0.05708 0
M  V30 1795 O 170.142 4.00465 0.984972 0
M  V30 1796 H 169.483 0.658151 -0.0879399 0
M  V30 1797 H 172.013 1.84865 -0.876707 0
M  V30 1798 H 172.023 4.07789 0.131232 0
M  V30 1799 H 170.698 4.03193 -1.02021 0
M  V30 1800 H 169.275 3.64849 0.770672 0
M  V30 1801 N 171.46 0.379036 1.52974 0
M  V30 1802 C 172.41 -0.477772 2.22938 0
M  V30 1803 C 173.394 -1.03792 1.22948 0
M  V30 1804 O 174.586 -0.965725 1.48333 0
M  V30 1805 C 171.715 -1.60994 3.03209 0
M  V30 1806 C 170.801 -1.06203 4.10587 0
M  V30 1807 N 171.192 -0.238214 5.05239 0
M  V30 1808 C 169.49 -1.33554 4.25534 0
M  V30 1809 C 170.191 0.0633235 5.81666 0
M  V30 1810 N 169.167 -0.537901 5.40932 0
M  V30 1811 H 172.969 0.158295 2.93473 0
M  V30 1812 H 170.483 0.187778 1.61311 0
M  V30 1813 H 172.48 -2.23607 3.5186 0
M  V30 1814 H 171.14 -2.24893 2.34207 0
M  V30 1815 H 172.151 0.123695 5.17752 0
M  V30 1816 H 168.828 -1.97632 3.6776 0
M  V30 1817 H 170.218 0.730161 6.67921 0
M  V30 1818 N 172.938 -1.57226 0.108567 0
M  V30 1819 C 173.848 -2.18292 -0.859401 0
M  V30 1820 C 174.864 -1.15612 -1.30038 0
M  V30 1821 O 176.04 -1.48039 -1.36552 0
M  V30 1822 C 173.105 -2.762 -2.09558 0
M  V30 1823 C 172.166 -3.93881 -1.70752 0
M  V30 1824 C 171.399 -4.49018 -2.88477 0
M  V30 1825 O 171.622 -4.03068 -4.036 0
M  V30 1826 O 170.556 -5.39852 -2.66164 0
M  V30 1827 H 174.382 -3.01441 -0.369769 0
M  V30 1828 H 171.967 -1.48945 -0.1165 0
M  V30 1829 H 173.849 -3.13156 -2.81978 0
M  V30 1830 H 172.524 -1.96089 -2.57548 0
M  V30 1831 H 171.431 -3.61713 -0.954714 0
M  V30 1832 H 172.764 -4.75396 -1.27513 0
M  V30 1833 N 174.416 0.165178 -1.56732 0
M  V30 1834 C 175.366 1.20917 -1.93295 0
M  V30 1835 C 176.35 1.39488 -0.801985 0
M  V30 1836 O 177.542 1.41356 -1.06525 0
M  V30 1837 C 174.671 2.54718 -2.3016 0
M  V30 1838 C 173.757 2.39815 -3.49785 0
M  V30 1839 N 174.148 1.94637 -4.66851 0
M  V30 1840 C 172.446 2.70623 -3.54513 0
M  V30 1841 C 173.147 1.92344 -5.4898 0
M  V30 1842 N 172.123 2.34978 -4.9019 0
M  V30 1843 H 175.925 0.851675 -2.81289 0
M  V30 1844 H 173.439 0.373399 -1.58049 0
M  V30 1845 H 175.436 3.30165 -2.54552 0
M  V30 1846 H 174.096 2.91265 -1.43508 0
M  V30 1847 H 175.107 1.6488 -4.90953 0
M  V30 1848 H 171.784 3.11167 -2.78354 0
M  V30 1849 H 173.174 1.5906 -6.52801 0
M  V30 1850 N 175.894 1.51508 0.433938 0
M  V30 1851 C 177.119 1.68443 1.21003 0
M  V30 1852 C 177.544 0.382636 1.84167 0
M  V30 1853 O 176.902 -0.65755 1.68956 0
M  V30 1854 C 176.95 2.80405 2.26727 0
M  V30 1855 O 176.054 2.44245 3.32292 0
M  V30 1856 H 175.395 0.561536 0.354363 0
M  V30 1857 H 177.925 1.9809 0.512024 0
M  V30 1858 H 177.935 3.0459 2.71457 0
M  V30 1859 H 176.61 3.74867 1.80132 0
M  V30 1860 H 175.187 2.30644 2.93015 0
M  V30 1861 N 177.372 -0.689602 1.41712 0
M  V30 1862 C 178.783 -1.26973 1.36875 0
M  V30 1863 C 179.134 -1.96124 0.054748 0
M  V30 1864 O 178.259 -1.99141 -0.84687 0
M  V30 1865 C 178.854 -2.30912 2.47922 0
M  V30 1866 C 177.413 -2.84486 2.46464 0
M  V30 1867 C 176.56 -1.58603 2.27465 0
M  V30 1868 H 179.511 -0.48396 1.51141 0
M  V30 1869 H 179.532 -3.12331 2.17323 0
M  V30 1870 H 179.044 -1.80554 3.43543 0
M  V30 1871 H 177.145 -3.39005 1.54617 0
M  V30 1872 H 177.258 -3.34511 3.42986 0
M  V30 1873 H 175.622 -1.84632 1.75451 0
M  V30 1874 H 176.405 -1.10233 3.25121 0
M  V30 1875 N 178.85 -1.27639 -0.924453 0
M  V30 1876 C 180.075 -1.17101 -1.71179 0
M  V30 1877 C 180.5 0.268134 -1.86179 0
M  V30 1878 O 179.858 1.19415 -1.36418 0
M  V30 1879 C 179.906 -1.86313 -3.08739 0
M  V30 1880 O 179.01 -1.16331 -3.95652 0
M  V30 1881 H 178.351 -0.407091 -0.524569 0
M  V30 1882 H 180.881 -1.68767 -1.15666 0
M  V30 1883 H 180.891 -1.938 -3.59034 0
M  V30 1884 H 179.566 -2.91001 -2.97138 0
M  V30 1885 H 178.143 -1.16935 -3.54091 0
M  V30 1886 N 180.328 1.1314 -1.09713 0
M  V30 1887 C 181.605 1.80762 -0.747302 0
M  V30 1888 C 181.985 1.96663 0.767265 0
M  V30 1889 O 181.333 1.53706 1.69076 0
M  V30 1890 C 181.543 3.15606 -1.48975 0
M  V30 1891 C 182.891 3.90914 -1.65746 0
M  V30 1892 O 183.915 3.25239 -1.45251 0
M  V30 1893 O 182.774 5.08718 -1.9967 0
M  V30 1894 H 179.868 0.782103 -0.268782 0
M  V30 1895 H 182.414 1.20041 -1.19951 0
M  V30 1896 H 181.186 2.99278 -2.52088 0
M  V30 1897 H 180.809 3.84029 -1.02991 0
M  V30 1898 N 181.806 0.884767 1.30421 0
M  V30 1899 C 182.736 0.367574 2.30589 0
M  V30 1900 C 183.717 -0.549464 1.60981 0
M  V30 1901 O 184.902 -0.46336 1.88591 0
M  V30 1902 C 182.032 -0.418944 3.44764 0
M  V30 1903 C 180.986 0.406316 4.26067 0
M  V30 1904 C 180.312 -0.506793 5.32293 0
M  V30 1905 C 181.612 1.64832 4.95608 0
M  V30 1906 H 183.306 1.20462 2.74097 0
M  V30 1907 H 180.852 0.580695 1.31772 0
M  V30 1908 H 182.805 -0.791395 4.13902 0
M  V30 1909 H 181.529 -1.28964 3.0006 0
M  V30 1910 H 180.188 0.760903 3.58617 0
M  V30 1911 H 179.836 -1.37519 4.83836 0
M  V30 1912 H 179.536 0.0415828 5.87585 0
M  V30 1913 H 181.06 -0.875764 6.04287 0
M  V30 1914 H 182.474 1.34646 5.57264 0
M  V30 1915 H 180.871 2.13688 5.60765 0
M  V30 1916 H 181.941 2.39284 4.21748 0
M  V30 1917 N 183.284 -1.43765 0.645699 0
M  V30 1918 C 184.194 -2.34544 -0.0512957 0
M  V30 1919 C 185.21 -1.53455 -0.82022 0
M  V30 1920 O 186.386 -1.86133 -0.769176 0
M  V30 1921 C 183.451 -3.31636 -1.01087 0
M  V30 1922 C 182.512 -4.2863 -0.239712 0
M  V30 1923 C 181.745 -5.21084 -1.15358 0
M  V30 1924 O 181.968 -5.1779 -2.39269 0
M  V30 1925 O 180.902 -5.98593 -0.630038 0
M  V30 1926 H 184.728 -2.95624 0.695718 0
M  V30 1927 H 182.313 -1.43781 0.405882 0
M  V30 1928 H 184.195 -3.9136 -1.56254 0
M  V30 1929 H 182.87 -2.73069 -1.73824 0
M  V30 1930 H 181.777 -3.72408 0.355356 0
M  V30 1931 H 183.11 -4.90157 0.447936 0
M  V30 1932 N 184.763 -0.387143 -1.52771 0
M  V30 1933 C 185.726 0.436939 -2.24997 0
M  V30 1934 C 186.726 0.991991 -1.26555 0
M  V30 1935 O 187.916 0.874335 -1.50669 0
M  V30 1936 C 185.048 1.61281 -3.00335 0
M  V30 1937 H 186.241 -0.195365 -2.99263 0
M  V30 1938 H 183.794 -0.139218 -1.55679 0
M  V30 1939 H 184.529 2.2826 -2.30364 0
M  V30 1940 H 184.314 1.22154 -3.72587 0
M  V30 1941 H 185.804 2.19629 -3.5518 0
M  V30 1942 N 186.241 1.57166 -0.116904 0
M  V30 1943 C 187.191 2.11756 0.845178 0
M  V30 1944 C 188.175 1.03783 1.22955 0
M  V30 1945 O 189.367 1.3002 1.20099 0
M  V30 1946 C 186.496 2.71886 2.09602 0
M  V30 1947 C 185.582 3.86937 1.7361 0
M  V30 1948 N 185.973 4.94073 1.08284 0
M  V30 1949 C 184.271 3.97082 2.03082 0
M  V30 1950 C 184.972 5.74477 0.913855 0
M  V30 1951 N 183.948 5.2423 1.43818 0
M  V30 1952 H 187.75 2.91967 0.336523 0
M  V30 1953 H 185.264 1.62174 0.0856332 0
M  V30 1954 H 187.261 3.09338 2.79492 0
M  V30 1955 H 185.921 1.93138 2.61013 0
M  V30 1956 H 186.932 5.12483 0.747067 0
M  V30 1957 H 183.609 3.29372 2.56554 0
M  V30 1958 H 184.999 6.70701 0.40125 0
M  V30 1959 N 187.719 -0.156864 1.56817 0
M  V30 1960 C 188.966 -0.871125 1.82805 0
M  V30 1961 C 189.294 -1.81611 0.696262 0
M  V30 1962 O 188.549 -1.93141 -0.315459 0
M  V30 1963 C 188.848 -1.68737 3.1506 0
M  V30 1964 C 188.514 -0.890045 4.42028 0
M  V30 1965 C 187.176 -0.670042 4.76512 0
M  V30 1966 C 189.528 -0.331769 5.20143 0
M  V30 1967 C 186.856 0.119104 5.86579 0
M  V30 1968 C 189.208 0.444365 6.31037 0
M  V30 1969 C 187.872 0.675035 6.64078 0
M  V30 1970 H 187.142 -0.318767 0.668931 0
M  V30 1971 H 189.789 -0.135274 1.91022 0
M  V30 1972 H 188.094 -2.49304 3.0225 0
M  V30 1973 H 189.791 -2.24331 3.3238 0
M  V30 1974 H 186.381 -1.07157 4.14988 0
M  V30 1975 H 190.565 -0.489043 4.93885 0
M  V30 1976 H 185.821 0.307417 6.10627 0
M  V30 1977 H 189.995 0.884139 6.90765 0
M  V30 1978 H 187.622 1.28839 7.49203 0
M  V30 1979 N 189.197 -1.51736 -0.425897 0
M  V30 1980 C 190.443 -1.65214 -1.1761 0
M  V30 1981 C 190.776 -0.372778 -1.90589 0
M  V30 1982 O 190.051 0.628139 -1.84078 0
M  V30 1983 C 190.334 -2.86312 -2.18398 0
M  V30 1984 C 190.187 -4.24254 -1.49426 0
M  V30 1985 C 191.506 -3.02925 -3.19256 0
M  V30 1986 H 188.625 -0.601263 -0.426206 0
M  V30 1987 H 191.267 -1.8425 -0.463882 0
M  V30 1988 H 189.417 -2.70213 -2.79137 0
M  V30 1989 H 191.089 -4.52046 -0.919362 0
M  V30 1990 H 189.332 -4.26426 -0.796432 0
M  V30 1991 H 190.003 -5.05001 -2.22885 0
M  V30 1992 H 192.479 -3.1781 -2.68581 0
M  V30 1993 H 191.355 -3.89199 -3.8706 0
M  V30 1994 H 191.616 -2.15497 -3.86023 0
M  V30 1995 N 190.675 0.682077 -1.42076 0
M  V30 1996 C 192.086 1.26246 -1.37546 0
M  V30 1997 C 192.437 1.96092 -0.0651481 0
M  V30 1998 O 191.562 1.99587 0.836297 0
M  V30 1999 C 192.157 2.29594 -2.49143 0
M  V30 2000 C 190.716 2.83175 -2.47969 0
M  V30 2001 C 189.863 1.57395 -2.28303 0
M  V30 2002 H 192.814 0.475937 -1.51395 0
M  V30 2003 H 192.835 3.11175 -2.18976 0
M  V30 2004 H 192.347 1.78729 -3.44496 0
M  V30 2005 H 190.448 3.3818 -1.56413 0
M  V30 2006 H 190.561 3.32687 -3.44755 0
M  V30 2007 H 188.925 1.83699 -1.76428 0
M  V30 2008 H 189.708 1.08507 -3.25701 0
M  V30 2009 N 192.153 1.28127 0.917671 0
M  V30 2010 C 193.083 1.14248 2.03641 0
M  V30 2011 C 194.064 0.0412748 1.7005 0
M  V30 2012 O 195.249 0.217566 1.92977 0
M  V30 2013 C 192.379 0.799431 3.37974 0
M  V30 2014 C 191.333 1.85497 3.85713 0
M  V30 2015 C 190.659 1.36565 5.16966 0
M  V30 2016 C 191.959 3.26085 4.08002 0
M  V30 2017 H 193.653 2.07835 2.15511 0
M  V30 2018 H 191.199 1.00064 1.03553 0
M  V30 2019 H 193.152 0.689114 4.15727 0
M  V30 2020 H 191.876 -0.172145 3.26146 0
M  V30 2021 H 190.535 1.95437 3.10161 0
M  V30 2022 H 190.183 0.383253 5.01538 0
M  V30 2023 H 189.883 2.07143 5.49878 0
M  V30 2024 H 191.407 1.26848 5.97279 0
M  V30 2025 H 192.821 3.19089 4.76293 0
M  V30 2026 H 191.218 3.94462 4.52238 0
M  V30 2027 H 192.288 3.70394 3.12948 0
M  V30 2028 N 193.631 -1.12557 1.10312 0
M  V30 2029 C 194.877 -1.84311 0.846011 0
M  V30 2030 C 195.21 -1.83805 -0.626859 0
M  V30 2031 O 194.485 -1.28268 -1.46211 0
M  V30 2032 C 194.768 -3.32048 1.39341 0
M  V30 2033 C 194.621 -3.41016 2.93305 0
M  V30 2034 C 195.94 -4.27764 1.03468 0
M  V30 2035 H 193.059 -0.669192 0.30879 0
M  V30 2036 H 195.701 -1.32057 1.36605 0
M  V30 2037 H 193.851 -3.76678 0.951087 0
M  V30 2038 H 195.523 -3.05031 3.46055 0
M  V30 2039 H 193.766 -2.81603 3.29973 0
M  V30 2040 H 194.437 -4.44948 3.26689 0
M  V30 2041 H 196.913 -3.91253 1.41633 0
M  V30 2042 H 195.789 -5.29549 1.44463 0
M  V30 2043 H 196.05 -4.42064 -0.0560404 0
M  V30 2044 N 195.109 -0.891671 -1.2995 0
M  V30 2045 C 196.056 -0.361736 -2.27948 0
M  V30 2046 C 197.026 0.551761 -1.56668 0
M  V30 2047 O 198.211 0.478736 -1.84696 0
M  V30 2048 C 195.351 0.411825 -3.42634 0
M  V30 2049 C 194.464 -0.531651 -4.28716 0
M  V30 2050 C 193.599 0.258167 -5.30572 0
M  V30 2051 C 192.638 -0.680349 -6.08307 0
M  V30 2052 N 191.775 0.0745613 -7.0206 0
M  V30 2053 H 196.615 -1.20254 -2.72659 0
M  V30 2054 H 194.152 -0.604352 -1.34112 0
M  V30 2055 H 196.11 0.876304 -4.07893 0
M  V30 2056 H 194.74 1.21715 -2.98974 0
M  V30 2057 H 193.792 -1.11463 -3.63703 0
M  V30 2058 H 195.104 -1.25038 -4.82874 0
M  V30 2059 H 194.258 0.784204 -6.0161 0
M  V30 2060 H 192.997 1.01008 -4.77126 0
M  V30 2061 H 192.002 -1.21796 -5.3614 0
M  V30 2062 H 193.227 -1.43145 -6.63842 0
M  V30 2063 H 191.173 0.808883 -6.50994 0
M  V30 2064 H 191.09 -0.584409 -7.53738 0
M  V30 2065 H 192.358 0.581123 -7.77331 0
M  V30 2066 N 196.587 1.43421 -0.653314 0
M  V30 2067 C 198.003 1.56341 -0.320886 0
M  V30 2068 C 198.203 1.63696 1.17499 0
M  V30 2069 O 197.259 1.59208 1.95982 0
M  V30 2070 C 198.572 2.82424 -1.03233 0
M  V30 2071 C 200.12 2.96168 -1.01259 0
M  V30 2072 C 200.595 4.25084 -1.70492 0
M  V30 2073 N 202.086 4.31948 -1.67257 0
M  V30 2074 C 202.821 5.30466 -2.17701 0
M  V30 2075 N 202.317 6.35261 -2.76434 0
M  V30 2076 N 204.11 5.2212 -2.082 0
M  V30 2077 H 196.261 1.3689 -1.62403 0
M  V30 2078 H 198.524 0.657455 -0.682977 0
M  V30 2079 H 198.23 2.83053 -2.08744 0
M  V30 2080 H 198.104 3.72653 -0.583948 0
M  V30 2081 H 200.491 2.9508 0.0341235 0
M  V30 2082 H 200.572 2.07229 -1.49966 0
M  V30 2083 H 200.216 4.26932 -2.7512 0
M  V30 2084 H 200.146 5.1292 -1.19251 0
M  V30 2085 H 202.637 3.56838 -1.24398 0
M  V30 2086 H 202.95 7.06754 -3.12601 0
M  V30 2087 H 201.295 6.35884 -2.80495 0
M  V30 2088 H 204.486 4.39166 -1.62021 0
M  V30 2089 H 204.659 5.98739 -2.47822 0
M  V30 2090 N 198.065 0.39524 1.52563 0
M  V30 2091 C 198.995 -0.428384 2.29537 0
M  V30 2092 C 199.976 -1.05831 1.33169 0
M  V30 2093 O 201.161 -1.06995 1.62067 0
M  V30 2094 C 198.291 -1.55274 3.10656 0
M  V30 2095 C 197.245 -1.04855 4.14957 0
M  V30 2096 C 196.571 -2.26543 4.84337 0
M  V30 2097 C 197.871 -0.112324 5.22179 0
M  V30 2098 H 199.565 0.213867 2.98635 0
M  V30 2099 H 197.111 0.104298 1.43622 0
M  V30 2100 H 199.064 -2.1358 3.63265 0
M  V30 2101 H 197.788 -2.22266 2.39302 0
M  V30 2102 H 196.447 -0.487985 3.63338 0
M  V30 2103 H 196.095 -2.92059 4.09525 0
M  V30 2104 H 195.795 -1.93466 5.54837 0
M  V30 2105 H 197.319 -2.85481 5.39753 0
M  V30 2106 H 198.733 -0.603752 5.70112 0
M  V30 2107 H 197.13 0.128968 5.99961 0
M  V30 2108 H 198.2 0.837052 4.77621 0
M  V30 2109 N 199.544 -1.57102 0.125237 0
M  V30 2110 C 200.507 -2.14471 -0.80838 0
M  V30 2111 C 201.507 -1.0811 -1.19033 0
M  V30 2112 O 202.697 -1.33856 -1.11482 0
M  V30 2113 C 199.829 -2.69005 -2.09402 0
M  V30 2114 H 201.022 -2.98297 -0.309696 0
M  V30 2115 H 198.575 -1.55807 -0.124051 0
M  V30 2116 H 199.31 -1.88785 -2.63687 0
M  V30 2117 H 199.095 -3.46799 -1.82957 0
M  V30 2118 H 200.585 -3.13278 -2.76128 0
M  V30 2119 N 201.022 0.148545 -1.56898 0
M  V30 2120 C 202.27 0.859717 -1.82902 0
M  V30 2121 C 202.591 1.81775 -0.70588 0
M  V30 2122 O 201.861 1.93994 0.272586 0
M  V30 2123 H 200.441 0.320469 -0.674766 0
M  V30 2124 H 203.103 0.142918 -1.94375 0
M  V30 2125 H 202.199 1.4229 -2.77777 0
M  V30 2126 N 202.5 1.5196 0.417844 0
M  V30 2127 C 203.748 1.65263 1.16329 0
M  V30 2128 C 204.069 0.380634 1.91249 0
M  V30 2129 O 203.339 -0.604214 1.86349 0
M  V30 2130 H 201.919 0.60912 0.432414 0
M  V30 2131 H 204.581 1.88969 0.477162 0
M  V30 2132 H 203.677 2.4896 1.88217 0
M  V30 2133 N 203.978 -0.674533 1.42435 0
M  V30 2134 C 205.255 -1.4305 1.33402 0
M  V30 2135 C 205.635 -2.11081 -0.0284674 0
M  V30 2136 O 204.983 -2.03257 -1.04397 0
M  V30 2137 C 205.193 -2.43272 2.50239 0
M  V30 2138 C 206.541 -3.07907 2.92367 0
M  V30 2139 O 207.565 -2.53599 2.50132 0
M  V30 2140 O 206.424 -4.0632 3.65467 0
M  V30 2141 H 203.518 -0.638076 0.526106 0
M  V30 2142 H 206.064 -0.703235 1.54443 0
M  V30 2143 H 204.836 -1.91803 3.41068 0
M  V30 2144 H 204.459 -3.23479 2.31186 0
M  V30 2145 N 205.456 -1.28612 -0.910864 0
M  V30 2146 C 206.702 -1.17116 -1.66299 0
M  V30 2147 C 207.057 0.276917 -1.90397 0
M  V30 2148 O 206.35 1.19795 -1.49532 0
M  V30 2149 C 206.544 -1.90624 -3.0232 0
M  V30 2150 C 206.373 -3.42431 -2.91498 0
M  V30 2151 C 205.143 -4.11773 -2.92867 0
M  V30 2152 C 207.341 -4.38124 -2.69355 0
M  V30 2153 N 205.323 -5.50025 -2.72664 0
M  V30 2154 C 206.694 -5.63759 -2.58023 0
M  V30 2155 C 208.749 -4.28016 -2.54375 0
M  V30 2156 C 207.452 -6.80436 -2.33238 0
M  V30 2157 C 209.478 -5.44433 -2.30969 0
M  V30 2158 C 208.84 -6.69034 -2.20394 0
M  V30 2159 H 204.939 -0.483506 -0.61461 0
M  V30 2160 H 207.523 -1.62299 -1.0755 0
M  V30 2161 H 205.694 -1.4787 -3.5915 0
M  V30 2162 H 207.426 -1.71488 -3.66571 0
M  V30 2163 H 204.181 -3.63378 -3.03732 0
M  V30 2164 H 204.605 -6.22705 -2.65646 0
M  V30 2165 H 209.247 -3.32388 -2.613 0
M  V30 2166 H 206.965 -7.7613 -2.25051 0
M  V30 2167 H 210.551 -5.38504 -2.20238 0
M  V30 2168 H 209.431 -7.57595 -2.02531 0
M  V30 2169 N 206.934 1.1197 -1.10907 0
M  V30 2170 C 208.181 1.83588 -0.854507 0
M  V30 2171 C 208.509 1.84357 0.6199 0
M  V30 2172 O 207.764 1.28809 1.47332 0
M  V30 2173 C 208.063 3.30749 -1.35425 0
M  V30 2174 C 207.729 3.50146 -2.84093 0
M  V30 2175 C 206.391 3.55148 -3.2469 0
M  V30 2176 C 208.743 3.56857 -3.79872 0
M  V30 2177 C 206.071 3.6441 -4.59806 0
M  V30 2178 C 208.423 3.6765 -5.14797 0
M  V30 2179 C 207.087 3.7091 -5.54961 0
M  V30 2180 H 206.357 0.671795 -0.312686 0
M  V30 2181 H 209.004 1.32091 -1.38652 0
M  V30 2182 H 207.309 3.84703 -0.742361 0
M  V30 2183 H 209.006 3.8464 -1.1337 0
M  V30 2184 H 205.596 3.46919 -2.51685 0
M  V30 2185 H 209.78 3.52258 -3.49611 0
M  V30 2186 H 205.036 3.65208 -4.9034 0
M  V30 2187 H 209.21 3.71786 -5.88853 0
M  V30 2188 H 206.837 3.7784 -6.59652 0
M  V30 2189 N 208.412 0.89855 1.29475 0
M  V30 2190 C 209.64 0.539261 1.99749 0
M  V30 2191 C 210.055 -0.875716 1.67262 0
M  V30 2192 O 209.412 -1.57786 0.917049 0
M  V30 2193 C 209.463 0.72061 3.54245 0
M  V30 2194 O 209.184 2.07989 3.8558 0
M  V30 2195 C 210.685 0.366118 4.41786 0
M  V30 2196 H 207.905 0.207047 0.638258 0
M  V30 2197 H 210.449 1.20758 1.65039 0
M  V30 2198 H 208.604 0.0994862 3.87272 0
M  V30 2199 H 209.018 2.10841 4.80257 0
M  V30 2200 H 210.492 0.543848 5.49314 0
M  V30 2201 H 210.969 -0.696763 4.33638 0
M  V30 2202 H 211.575 0.964135 4.14228 0
M  V30 2203 N 209.89 -1.43072 0.660911 0
M  V30 2204 C 211.115 -2.06584 0.183805 0
M  V30 2205 C 211.54 -1.49257 -1.14472 0
M  V30 2206 O 210.898 -0.605528 -1.70889 0
M  V30 2207 C 210.946 -3.60418 0.114434 0
M  V30 2208 O 210.05 -4.01981 -0.921137 0
M  V30 2209 H 209.391 -0.656669 0.0983994 0
M  V30 2210 H 211.921 -1.83447 0.906006 0
M  V30 2211 H 211.931 -4.07946 -0.0663394 0
M  V30 2212 H 210.606 -4.01519 1.08422 0
M  V30 2213 H 209.183 -3.66029 -0.71253 0
M  V30 2214 N 211.368 -0.403325 -1.52352 0
M  V30 2215 C 212.784 -0.0539281 -1.59509 0
M  V30 2216 C 212.984 1.43307 -1.41652 0
M  V30 2217 O 212.04 2.19924 -1.24056 0
M  V30 2218 C 213.353 -0.543654 -2.95745 0
M  V30 2219 C 214.901 -0.501125 -3.08962 0
M  V30 2220 C 215.376 -0.967267 -4.47669 0
M  V30 2221 N 216.867 -0.923849 -4.53893 0
M  V30 2222 C 217.602 -1.25578 -5.5948 0
M  V30 2223 N 217.098 -1.65889 -6.72646 0
M  V30 2224 N 218.891 -1.17613 -5.49658 0
M  V30 2225 H 211.042 -1.37123 -1.62206 0
M  V30 2226 H 213.305 -0.56294 -0.76276 0
M  V30 2227 H 213.011 -1.58275 -3.14073 0
M  V30 2228 H 212.885 0.0498042 -3.77167 0
M  V30 2229 H 215.272 0.528909 -2.90321 0
M  V30 2230 H 215.353 -1.13056 -2.2946 0
M  V30 2231 H 214.997 -1.9956 -4.67053 0
M  V30 2232 H 214.927 -0.314698 -5.25659 0
M  V30 2233 H 217.418 -0.627403 -3.72655 0
M  V30 2234 H 217.731 -1.89543 -7.49195 0
M  V30 2235 H 216.076 -1.69787 -6.73942 0
M  V30 2236 H 219.267 -0.860115 -4.6013 0
M  V30 2237 H 219.44 -1.43812 -6.3184 0
M  V30 2238 N 212.846 1.57033 -0.133567 0
M  V30 2239 C 214.074 2.00044 0.528195 0
M  V30 2240 C 214.489 1.01349 1.59291 0
M  V30 2241 O 213.846 0.00848369 1.82498 0
M  V30 2242 C 213.897 3.43018 1.1411 0
M  V30 2243 O 213.618 4.37939 0.11892 0
M  V30 2244 C 215.119 4.01237 1.88477 0
M  V30 2245 H 212.339 0.656517 0.138661 0
M  V30 2246 H 214.883 2.03267 -0.224196 0
M  V30 2247 H 213.038 3.40688 1.84418 0
M  V30 2248 H 213.452 5.21436 0.56613 0
M  V30 2249 H 214.926 5.03314 2.26669 0
M  V30 2250 H 215.403 3.41193 2.76558 0
M  V30 2251 H 216.009 4.07156 1.22898 0
M  V30 2252 N 214.325 -0.140222 1.56975 0
M  V30 2253 C 215.55 -0.870414 1.88251 0
M  V30 2254 C 215.975 -1.73637 0.723312 0
M  V30 2255 O 215.333 -1.78329 -0.32689 0
M  V30 2256 C 215.381 -1.69737 3.18154 0
M  V30 2257 O 214.485 -2.80229 3.02565 0
M  V30 2258 H 213.826 -0.242025 0.61832 0
M  V30 2259 H 216.356 -0.128999 2.04193 0
M  V30 2260 H 216.366 -2.09099 3.50345 0
M  V30 2261 H 215.041 -1.06152 4.02125 0
M  V30 2262 H 213.618 -2.44224 2.81796 0
M  V30 2263 N 215.803 -1.52179 -0.40978 0
M  V30 2264 C 216.766 -1.74853 -1.48186 0
M  V30 2265 C 217.766 -0.618417 -1.48433 0
M  V30 2266 O 218.956 -0.886286 -1.49969 0
M  V30 2267 C 216.088 -1.8303 -2.87598 0
M  V30 2268 H 217.281 -2.70559 -1.29374 0
M  V30 2269 H 214.834 -1.42586 -0.640233 0
M  V30 2270 H 215.569 -0.89236 -3.11781 0
M  V30 2271 H 215.354 -2.65187 -2.88822 0
M  V30 2272 H 216.844 -2.02316 -3.65319 0
M  V30 2273 N 217.281 0.66697 -1.42791 0
M  V30 2274 C 218.521 1.43892 -1.4517 0
M  V30 2275 C 218.885 1.91877 -0.0687551 0
M  V30 2276 O 220.086 2.6878 0.0327455 0
M  V30 2277 C 218.357 2.59839 -2.45395 0
M  V30 2278 S 219.916 3.48572 -2.66539 0
M  V30 2279 H 216.734 0.491356 -0.513897 0
M  V30 2280 H 219.336 0.775656 -1.79454 0
M  V30 2281 H 218.04 2.22838 -3.44632 0
M  V30 2282 H 217.571 3.3103 -2.12562 0
M  V30 2283 H 219.586 4.56094 -1.95429 0
M  V30 2284 N 218.759 1.29093 0.90403 0
M  V30 2285 C 220.007 1.16583 1.65085 0
M  V30 2286 C 220.328 -0.283933 1.92922 0
M  V30 2287 O 219.598 -1.19509 1.55224 0
M  V30 2288 H 218.178 0.428467 0.611903 0
M  V30 2289 H 220.84 1.61959 1.08422 0
M  V30 2290 H 219.936 1.71266 2.6091 0
M  V30 2291 N 220.237 -1.11381 1.11499 0
M  V30 2292 C 221.167 -2.19509 0.796125 0
M  V30 2293 C 222.148 -1.68458 -0.235796 0
M  V30 2294 O 223.333 -1.93947 -0.0991344 0
M  V30 2295 C 220.463 -3.46475 0.239205 0
M  V30 2296 C 219.417 -4.10744 1.20307 0
M  V30 2297 C 218.743 -5.32293 0.50683 0
M  V30 2298 C 220.043 -4.55597 2.55399 0
M  V30 2299 H 221.737 -2.46439 1.70024 0
M  V30 2300 H 219.283 -1.18446 0.818935 0
M  V30 2301 H 221.236 -4.214 0.00392006 0
M  V30 2302 H 219.96 -3.19006 -0.700206 0
M  V30 2303 H 218.619 -3.37813 1.42399 0
M  V30 2304 H 218.267 -5.01095 -0.437408 0
M  V30 2305 H 217.967 -5.76243 1.1497 0
M  V30 2306 H 219.491 -6.09956 0.280351 0
M  V30 2307 H 220.905 -5.21841 2.37391 0
M  V30 2308 H 219.302 -5.10363 3.15673 0
M  V30 2309 H 220.372 -3.69013 3.14575 0
M  V30 2310 N 221.715 -0.905404 -1.28997 0
M  V30 2311 C 222.962 -0.534248 -1.95325 0
M  V30 2312 C 223.29 0.920535 -1.71337 0
M  V30 2313 O 222.545 1.66861 -1.02254 0
M  V30 2314 C 222.844 -0.779906 -3.48787 0
M  V30 2315 C 222.51 -2.21293 -3.92861 0
M  V30 2316 C 221.172 -2.60475 -4.04606 0
M  V30 2317 C 223.524 -3.14587 -4.15553 0
M  V30 2318 C 220.852 -3.9212 -4.36416 0
M  V30 2319 C 223.204 -4.45787 -4.48839 0
M  V30 2320 C 221.868 -4.84834 -4.58794 0
M  V30 2321 H 221.138 -0.195495 -0.714747 0
M  V30 2322 H 223.785 -1.14514 -1.53488 0
M  V30 2323 H 222.09 -0.0861365 -3.91705 0
M  V30 2324 H 223.787 -0.472029 -3.98212 0
M  V30 2325 H 220.377 -1.89887 -3.84241 0
M  V30 2326 H 224.561 -2.85528 -4.0594 0
M  V30 2327 H 219.817 -4.22086 -4.42327 0
M  V30 2328 H 223.991 -5.18098 -4.65346 0
M  V30 2329 H 221.618 -5.86877 -4.83197 0
M  V30 2330 N 223.193 1.4272 -0.668489 0
M  V30 2331 C 224.418 2.06484 -0.194758 0
M  V30 2332 C 224.843 1.49862 1.13679 0
M  V30 2333 O 224.201 0.614582 1.70565 0
M  V30 2334 C 224.249 3.60353 -0.133546 0
M  V30 2335 O 223.353 4.02464 0.899806 0
M  V30 2336 H 222.694 0.656137 -0.10188 0
M  V30 2337 H 225.224 1.82964 -0.915722 0
M  V30 2338 H 225.234 4.07976 0.0447041 0
M  V30 2339 H 223.909 4.00938 -1.1055 0
M  V30 2340 H 222.486 3.66402 0.693109 0
M  V30 2341 N 224.671 0.411399 1.52136 0
M  V30 2342 C 225.917 -0.163888 2.02137 0
M  V30 2343 C 226.25 -1.44597 1.29636 0
M  V30 2344 O 225.525 -1.90272 0.403353 0
M  V30 2345 C 225.808 -0.40927 3.57767 0
M  V30 2346 C 225.661 0.889643 4.40914 0
M  V30 2347 C 226.98 -1.19042 4.23694 0
M  V30 2348 H 224.099 -0.0580896 0.734707 0
M  V30 2349 H 226.741 0.54531 1.82007 0
M  V30 2350 H 224.891 -1.0134 3.7505 0
M  V30 2351 H 226.563 1.52575 4.35337 0
M  V30 2352 H 224.806 1.50011 4.07037 0
M  V30 2353 H 225.477 0.672314 5.4789 0
M  V30 2354 H 227.953 -0.678942 4.10524 0
M  V30 2355 H 226.829 -1.33086 5.32522 0
M  V30 2356 H 227.09 -2.21166 3.82803 0
M  V30 2357 N 226.149 -1.5696 0.141893 0
M  V30 2358 C 227.389 -1.9785 -0.513304 0
M  V30 2359 C 227.753 -1.02467 -1.62371 0
M  V30 2360 O 228.954 -1.32382 -2.33941 0
M  V30 2361 C 227.225 -3.42797 -1.01118 0
M  V30 2362 S 228.784 -4.05709 -1.67169 0
M  V30 2363 H 225.602 -0.691318 -0.166135 0
M  V30 2364 H 228.204 -1.94114 0.232398 0
M  V30 2365 H 226.908 -4.0995 -0.192179 0
M  V30 2366 H 226.439 -3.50235 -1.79162 0
M  V30 2367 H 228.454 -3.98342 -2.95868 0
M  V30 2368 N 227.627 0.131896 -1.57047 0
M  V30 2369 C 228.857 0.855219 -1.88068 0
M  V30 2370 C 229.265 1.74557 -0.729817 0
M  V30 2371 O 228.608 1.81083 0.308962 0
M  V30 2372 C 228.67 1.75119 -3.13964 0
M  V30 2373 C 228.334 1.03646 -4.45091 0
M  V30 2374 C 229.331 0.383276 -5.18485 0
M  V30 2375 C 227.016 1.02148 -4.91804 0
M  V30 2376 C 229.01 -0.275347 -6.36805 0
M  V30 2377 C 226.697 0.359047 -6.10044 0
M  V30 2378 C 227.695 -0.288222 -6.82392 0
M  V30 2379 O 227.383 -0.94011 -7.98384 0
M  V30 2380 H 227.115 0.251864 -0.627328 0
M  V30 2381 H 229.669 0.124782 -2.05021 0
M  V30 2382 H 227.899 2.52295 -2.9306 0
M  V30 2383 H 229.588 2.3478 -3.31109 0
M  V30 2384 H 230.354 0.386562 -4.83457 0
M  V30 2385 H 226.233 1.5147 -4.35405 0
M  V30 2386 H 229.777 -0.781148 -6.93213 0
M  V30 2387 H 225.674 0.35348 -6.44531 0
M  V30 2388 H 226.442 -0.84329 -8.14144 0
M  V30 2389 N 229.106 1.52395 0.401703 0
M  V30 2390 C 230.517 1.58899 0.980202 0
M  V30 2391 C 230.868 0.434032 1.91339 0
M  V30 2392 O 229.993 -0.444619 2.11783 0
M  V30 2393 C 230.588 2.87994 1.78451 0
M  V30 2394 C 229.147 2.96953 2.31292 0
M  V30 2395 C 228.294 2.53903 1.11483 0
M  V30 2396 H 231.245 1.57657 0.18168 0
M  V30 2397 H 231.266 2.73765 2.64259 0
M  V30 2398 H 230.778 3.72035 1.10506 0
M  V30 2399 H 228.879 2.17422 3.02586 0
M  V30 2400 H 228.992 4.01344 2.61649 0
M  V30 2401 H 227.356 2.07925 1.47104 0
M  V30 2402 H 228.139 3.40326 0.450928 0
M  V30 2403 N 230.584 -0.659388 1.43143 0
M  V30 2404 C 232 -0.974337 1.26407 0
M  V30 2405 C 232.2 -2.007 0.179341 0
M  V30 2406 O 231.256 -2.4856 -0.444295 0
M  V30 2407 C 232.569 -1.46447 2.62628 0
M  V30 2408 C 234.117 -1.58144 2.7011 0
M  V30 2409 C 234.592 -2.1055 4.06734 0
M  V30 2410 N 236.083 -2.17861 4.08767 0
M  V30 2411 C 236.818 -2.59519 5.1131 0
M  V30 2412 N 236.314 -3.00518 6.24228 0
M  V30 2413 N 238.107 -2.59404 4.98664 0
M  V30 2414 H 230.258 0.0240528 2.12386 0
M  V30 2415 H 232.521 -0.0518065 0.946583 0
M  V30 2416 H 232.227 -0.780123 3.42939 0
M  V30 2417 H 232.101 -2.44058 2.87603 0
M  V30 2418 H 234.488 -2.25682 1.90136 0
M  V30 2419 H 234.569 -0.589828 2.48907 0
M  V30 2420 H 234.213 -1.43616 4.87172 0
M  V30 2421 H 234.143 -3.10531 4.25298 0
M  V30 2422 H 236.634 -1.88975 3.27257 0
M  V30 2423 H 236.947 -3.31036 6.98309 0
M  V30 2424 H 235.292 -2.98337 6.2771 0
M  V30 2425 H 238.483 -2.26747 4.09516 0
M  V30 2426 H 238.656 -2.91548 5.78709 0
M  V30 2427 N 232.062 -1.29571 -0.897171 0
M  V30 2428 C 233.308 -1.17863 -1.65034 0
M  V30 2429 C 233.641 0.268729 -1.92332 0
M  V30 2430 O 232.916 1.19378 -1.53555 0
M  V30 2431 C 233.199 -1.995 -2.99786 0
M  V30 2432 C 233.052 -3.5239 -2.79538 0
M  V30 2433 C 234.371 -1.82335 -4.00552 0
M  V30 2434 H 231.49 -0.429528 -0.598895 0
M  V30 2435 H 234.132 -1.59072 -1.03905 0
M  V30 2436 H 232.282 -1.64485 -3.51962 0
M  V30 2437 H 233.954 -3.97401 -2.34244 0
M  V30 2438 H 232.197 -3.77187 -2.14273 0
M  V30 2439 H 232.868 -4.04787 -3.75302 0
M  V30 2440 H 235.344 -2.12924 -3.57495 0
M  V30 2441 H 234.22 -2.41801 -4.92771 0
M  V30 2442 H 234.481 -0.779209 -4.35179 0
M  V30 2443 N 233.54 1.10788 -1.12088 0
M  V30 2444 C 234.765 1.87002 -0.896949 0
M  V30 2445 C 235.19 1.79933 0.548261 0
M  V30 2446 O 234.548 1.16662 1.38779 0
M  V30 2447 C 234.596 3.3349 -1.37174 0
M  V30 2448 O 233.7 4.08745 -0.547831 0
M  V30 2449 H 233.041 0.580397 -0.322545 0
M  V30 2450 H 235.571 1.39996 -1.49206 0
M  V30 2451 H 235.581 3.84339 -1.36922 0
M  V30 2452 H 234.256 3.37951 -2.42408 0
M  V30 2453 H 232.833 3.6776 -0.617034 0
M  V30 2454 N 235.018 0.912232 1.28515 0
M  V30 2455 C 236.243 0.559774 1.99703 0
M  V30 2456 C 236.668 -0.851393 1.67729 0
M  V30 2457 O 236.026 -1.56875 0.908834 0
M  V30 2458 C 236.074 0.773874 3.52198 0
M  V30 2459 O 235.178 -0.167842 4.12058 0
M  V30 2460 H 234.519 0.21723 0.627461 0
M  V30 2461 H 237.049 1.22725 1.63706 0
M  V30 2462 H 237.059 0.683386 4.02236 0
M  V30 2463 H 235.734 1.80261 3.74805 0
M  V30 2464 H 234.311 -0.0287509 3.72889 0
M  V30 2465 N 236.496 -1.42363 0.676048 0
M  V30 2466 C 237.459 -2.29199 0.00766941 0
M  V30 2467 C 238.459 -1.43389 -0.727745 0
M  V30 2468 O 239.649 -1.64764 -0.56556 0
M  V30 2469 C 236.781 -3.2591 -0.999785 0
M  V30 2470 H 237.974 -2.89794 0.771988 0
M  V30 2471 H 235.527 -1.50024 0.438468 0
M  V30 2472 H 236.262 -2.70256 -1.79255 0
M  V30 2473 H 236.047 -3.89202 -0.475829 0
M  V30 2474 H 237.537 -3.91028 -1.46583 0
M  V30 2475 N 237.974 -0.419461 -1.51915 0
M  V30 2476 C 239.22 0.153166 -2.02221 0
M  V30 2477 C 239.553 1.43907 -1.30401 0
M  V30 2478 O 238.828 1.90055 -0.413438 0
M  V30 2479 C 239.111 0.390291 -3.57979 0
M  V30 2480 C 238.964 -0.913014 -4.40436 0
M  V30 2481 C 240.283 1.16794 -4.2432 0
M  V30 2482 H 237.402 0.0541924 -0.735005 0
M  V30 2483 H 240.044 -0.554955 -1.81715 0
M  V30 2484 H 238.194 0.993491 -3.75582 0
M  V30 2485 H 239.866 -1.54882 -4.34522 0
M  V30 2486 H 238.109 -1.52168 -4.06236 0
M  V30 2487 H 238.78 -0.701361 -5.47526 0
M  V30 2488 H 241.256 0.657161 -4.10878 0
M  V30 2489 H 240.132 1.3026 -5.3322 0
M  V30 2490 H 240.393 2.19132 -3.83971 0
M  V30 2491 N 239.452 1.56882 -0.150215 0
M  V30 2492 C 240.399 2.16922 0.788244 0
M  V30 2493 C 241.369 1.10303 1.24187 0
M  V30 2494 O 242.554 1.38359 1.31383 0
M  V30 2495 C 239.694 2.79754 2.02068 0
M  V30 2496 C 238.807 4.00775 1.61257 0
M  V30 2497 C 237.942 4.51595 2.79705 0
M  V30 2498 C 236.981 5.65074 2.35282 0
M  V30 2499 N 236.118 6.10499 3.4675 0
M  V30 2500 H 240.958 2.96779 0.269444 0
M  V30 2501 H 238.495 1.46599 0.12128 0
M  V30 2502 H 240.453 3.14329 2.74323 0
M  V30 2503 H 239.083 2.02536 2.51354 0
M  V30 2504 H 238.135 3.72158 0.787553 0
M  V30 2505 H 239.447 4.82978 1.24633 0
M  V30 2506 H 238.601 4.88242 3.60145 0
M  V30 2507 H 237.34 3.68406 3.19576 0
M  V30 2508 H 236.345 5.28 1.53283 0
M  V30 2509 H 237.57 6.50052 1.96493 0
M  V30 2510 H 235.516 5.30243 3.86236 0
M  V30 2511 H 235.433 6.87637 3.14152 0
M  V30 2512 H 236.701 6.51791 4.27537 0
M  V30 2513 N 240.93 -0.123565 1.57115 0
M  V30 2514 C 241.893 -1.13583 1.99076 0
M  V30 2515 C 242.893 -1.34564 0.880296 0
M  V30 2516 O 244.083 -1.31158 1.14644 0
M  V30 2517 C 241.215 -2.49128 2.32698 0
M  V30 2518 H 242.408 -0.775287 2.89706 0
M  V30 2519 H 239.961 -0.36771 1.51913 0
M  V30 2520 H 240.696 -2.90111 1.44934 0
M  V30 2521 H 240.481 -2.35255 3.13684 0
M  V30 2522 H 241.971 -3.2199 2.65918 0
M  V30 2523 N 242.408 -1.52605 -0.393616 0
M  V30 2524 C 243.318 -1.79971 -1.50492 0
M  V30 2525 C 244.334 -0.686181 -1.59899 0
M  V30 2526 O 245.51 -0.973274 -1.76322 0
M  V30 2527 C 242.575 -1.95867 -2.86072 0
M  V30 2528 C 241.636 -3.19781 -2.86424 0
M  V30 2529 C 240.869 -3.34909 -4.15538 0
M  V30 2530 O 241.092 -2.54948 -5.10253 0
M  V30 2531 O 240.026 -4.28141 -4.23059 0
M  V30 2532 H 243.852 -2.74328 -1.30299 0
M  V30 2533 H 241.437 -1.3764 -0.581005 0
M  V30 2534 H 243.319 -2.08056 -3.66457 0
M  V30 2535 H 241.994 -1.04699 -3.063 0
M  V30 2536 H 240.901 -3.13038 -2.04837 0
M  V30 2537 H 242.234 -4.1078 -2.71147 0
M  V30 2538 N 243.887 0.651787 -1.4349 0
M  V30 2539 C 244.817 1.77621 -1.51569 0
M  V30 2540 C 245.798 1.66022 -0.370253 0
M  V30 2541 O 246.983 1.85095 -0.587658 0
M  V30 2542 C 244.113 3.16056 -1.43966 0
M  V30 2543 C 243.067 3.4242 -2.56774 0
M  V30 2544 C 242.393 4.8067 -2.34223 0
M  V30 2545 C 243.693 3.37023 -3.99015 0
M  V30 2546 H 245.387 1.71117 -2.45681 0
M  V30 2547 H 242.933 0.821825 -1.18246 0
M  V30 2548 H 244.886 3.94472 -1.48221 0
M  V30 2549 H 243.61 3.23293 -0.463586 0
M  V30 2550 H 242.269 2.66375 -2.51873 0
M  V30 2551 H 241.917 4.84585 -1.34856 0
M  V30 2552 H 241.617 4.9927 -3.09844 0
M  V30 2553 H 243.141 5.61342 -2.40265 0
M  V30 2554 H 244.555 4.05374 -4.05395 0
M  V30 2555 H 242.952 3.67159 -4.74673 0
M  V30 2556 H 244.022 2.3518 -4.2405 0
M  V30 2557 N 245.365 1.30045 0.890287 0
M  V30 2558 C 246.781 1.08261 1.17268 0
M  V30 2559 C 246.981 -0.160063 2.00863 0
M  V30 2560 O 246.037 -0.855181 2.37577 0
M  V30 2561 C 247.35 2.34323 1.8845 0
M  V30 2562 C 248.898 2.39735 2.01237 0
M  V30 2563 C 249.373 3.65625 2.7583 0
M  V30 2564 N 250.864 3.66402 2.83379 0
M  V30 2565 C 251.599 4.60498 3.41657 0
M  V30 2566 N 251.095 5.64933 4.01026 0
M  V30 2567 N 252.888 4.48051 3.39421 0
M  V30 2568 H 245.039 2.09777 0.332762 0
M  V30 2569 H 247.302 0.92446 0.209948 0
M  V30 2570 H 247.008 3.2498 1.34465 0
M  V30 2571 H 246.882 2.4256 2.88867 0
M  V30 2572 H 249.269 1.4956 2.54393 0
M  V30 2573 H 249.35 2.35476 0.999232 0
M  V30 2574 H 248.994 4.56156 2.23347 0
M  V30 2575 H 248.924 3.67144 3.77509 0
M  V30 2576 H 251.415 2.90896 2.41222 0
M  V30 2577 H 251.728 6.32841 4.43545 0
M  V30 2578 H 250.073 5.68732 3.99461 0
M  V30 2579 H 253.264 3.65649 2.92264 0
M  V30 2580 H 253.437 5.21565 3.84544 0
M  V30 2581 N 246.843 -1.10192 1.12674 0
M  V30 2582 C 247.775 -2.16418 0.754701 0
M  V30 2583 C 248.788 -1.61309 -0.21986 0
M  V30 2584 O 249.977 -1.785 -0.000826841 0
M  V30 2585 C 247.077 -3.38762 0.096698 0
M  V30 2586 C 246.25 -4.23307 1.10136 0
M  V30 2587 C 245.309 -5.24092 0.470513 0
M  V30 2588 O 244.335 -5.57906 1.12824 0
M  V30 2589 N 245.537 -5.75491 -0.760948 0
M  V30 2590 H 248.302 -2.48943 1.66875 0
M  V30 2591 H 245.863 -1.25834 1.01869 0
M  V30 2592 H 247.855 -4.03291 -0.337384 0
M  V30 2593 H 246.425 -3.04192 -0.720153 0
M  V30 2594 H 245.645 -3.55036 1.71299 0
M  V30 2595 H 246.933 -4.76624 1.78064 0
M  V30 2596 H 246.331 -5.50222 -1.31424 0
M  V30 2597 H 244.888 -6.41792 -1.13781 0
M  V30 2598 N 248.321 -0.919034 -1.28029 0
M  V30 2599 C 249.551 -0.570143 -1.98577 0
M  V30 2600 C 249.959 0.854172 -1.68821 0
M  V30 2601 O 249.302 1.57807 -0.940351 0
M  V30 2602 C 249.364 -0.705734 -3.52505 0
M  V30 2603 C 249.028 -2.10057 -4.05863 0
M  V30 2604 C 250.025 -3.07385 -4.19298 0
M  V30 2605 C 247.71 -2.41517 -4.40426 0
M  V30 2606 C 249.704 -4.34287 -4.66555 0
M  V30 2607 C 247.391 -3.68657 -4.87376 0
M  V30 2608 C 248.389 -4.64856 -5.00398 0
M  V30 2609 O 248.077 -5.89735 -5.46322 0
M  V30 2610 H 247.809 -0.215592 -0.6407 0
M  V30 2611 H 250.363 -1.23583 -1.64062 0
M  V30 2612 H 248.593 0.0170414 -3.86696 0
M  V30 2613 H 250.282 -0.363172 -4.04272 0
M  V30 2614 H 251.048 -2.84398 -3.92865 0
M  V30 2615 H 246.927 -1.67389 -4.29537 0
M  V30 2616 H 250.471 -5.09377 -4.76635 0
M  V30 2617 H 246.368 -3.91466 -5.13249 0
M  V30 2618 H 247.136 -5.92599 -5.64596 0
M  V30 2619 N 249.799 1.42003 -0.683588 0
M  V30 2620 C 251.046 2.01413 -0.209514 0
M  V30 2621 C 251.374 1.54088 1.1869 0
M  V30 2622 O 250.629 0.737591 1.81268 0
M  V30 2623 C 250.928 3.56827 -0.202357 0
M  V30 2624 C 250.594 4.23617 -1.54464 0
M  V30 2625 C 249.256 4.41577 -1.91215 0
M  V30 2626 C 251.608 4.61178 -2.42826 0
M  V30 2627 C 248.936 4.9437 -3.15935 0
M  V30 2628 C 251.288 5.15355 -3.66867 0
M  V30 2629 C 249.952 5.31528 -4.03776 0
M  V30 2630 H 249.222 0.737023 -0.0766668 0
M  V30 2631 H 251.869 1.70067 -0.880312 0
M  V30 2632 H 250.174 3.87892 0.551969 0
M  V30 2633 H 251.871 4.00588 0.181793 0
M  V30 2634 H 248.461 4.10004 -1.24877 0
M  V30 2635 H 252.645 4.46968 -2.15717 0
M  V30 2636 H 247.901 5.05076 -3.44541 0
M  V30 2637 H 252.075 5.43402 -4.35531 0
M  V30 2638 H 249.702 5.72199 -5.00492 0
M  V30 2639 N 251.277 0.427512 1.51691 0
M  V30 2640 C 252.693 0.0792977 1.59403 0
M  V30 2641 C 252.893 -1.41035 1.43914 0
M  V30 2642 O 251.949 -2.17922 1.27539 0
M  V30 2643 C 253.262 0.590636 2.94842 0
M  V30 2644 C 254.81 0.550215 3.08126 0
M  V30 2645 C 255.285 1.03836 4.46074 0
M  V30 2646 N 256.776 0.995943 4.52366 0
M  V30 2647 C 257.511 1.34463 5.57411 0
M  V30 2648 N 257.007 1.76569 6.69922 0
M  V30 2649 N 258.8 1.26343 5.47717 0
M  V30 2650 H 250.951 1.39687 1.60004 0
M  V30 2651 H 253.214 0.575003 0.753708 0
M  V30 2652 H 252.92 1.63251 3.11516 0
M  V30 2653 H 252.794 0.0102061 3.77199 0
M  V30 2654 H 255.181 -0.482654 2.91126 0
M  V30 2655 H 255.262 1.16693 2.27632 0
M  V30 2656 H 254.906 2.06965 4.63819 0
M  V30 2657 H 254.836 0.398286 5.25092 0
M  V30 2658 H 257.327 0.68661 3.7161 0
M  V30 2659 H 257.64 2.01438 7.46085 0
M  V30 2660 H 255.985 1.80488 6.71155 0
M  V30 2661 H 259.176 0.933209 4.58703 0
M  V30 2662 H 259.349 1.53846 6.29472 0
M  V30 2663 N 252.755 -1.56801 0.158532 0
M  V30 2664 C 253.703 -2.18638 -0.793729 0
M  V30 2665 C 254.697 -1.14669 -1.24689 0
M  V30 2666 O 255.903 -1.32895 -1.21403 0
M  V30 2667 H 252.278 -0.700226 -0.274204 0
M  V30 2668 H 254.249 -2.97367 -0.248095 0
M  V30 2669 C 252.998 -2.83139 -2.0181 0
M  V30 2670 H 252.321 -3.62863 -1.67841 0
M  V30 2671 H 253.761 -3.29894 -2.66357 0
M  V30 2672 C 252.22 -1.82244 -2.83353 0
M  V30 2673 O 252.75 -1.3 -3.80083 0
M  V30 2674 N 250.956 -1.51288 -2.48114 0
M  V30 2675 H 250.503 -1.93964 -1.69516 0
M  V30 2676 H 250.461 -0.840296 -3.02963 0
M  V30 2677 N 254.233 0.115231 -1.57178 0
M  V30 2678 C 255.163 1.1423 -2.03651 0
M  V30 2679 C 256.144 1.42967 -0.921655 0
M  V30 2680 O 257.329 1.53343 -1.19162 0
M  V30 2681 C 254.459 2.4675 -2.44401 0
M  V30 2682 C 253.413 2.32467 -3.59365 0
M  V30 2683 C 252.739 3.69984 -3.86026 0
M  V30 2684 C 254.039 1.78203 -4.90959 0
M  V30 2685 H 255.733 0.755749 -2.89705 0
M  V30 2686 H 253.279 0.362093 -1.39373 0
M  V30 2687 H 255.232 3.18854 -2.75517 0
M  V30 2688 H 253.956 2.87302 -1.55322 0
M  V30 2689 H 252.615 1.62811 -3.28463 0
M  V30 2690 H 252.263 4.08028 -2.94147 0
M  V30 2691 H 251.963 3.61279 -4.63412 0
M  V30 2692 H 253.487 4.43587 -4.19599 0
M  V30 2693 H 254.901 2.40128 -5.20587 0
M  V30 2694 H 253.298 1.8031 -5.72371 0
M  V30 2695 H 254.368 0.739876 -4.79222 0
M  V30 2696 N 255.711 1.52812 0.385517 0
M  V30 2697 C 256.951 1.69716 1.13911 0
M  V30 2698 C 257.315 0.42962 1.87132 0
M  V30 2699 O 258.516 0.475071 2.64569 0
M  V30 2700 C 256.787 2.90021 2.0886 0
M  V30 2701 S 258.346 3.27531 2.92009 0
M  V30 2702 H 255.164 0.59739 0.385547 0
M  V30 2703 H 257.766 1.90868 0.423061 0
M  V30 2704 H 256.47 3.80493 1.53797 0
M  V30 2705 H 256.001 2.71213 2.84969 0
M  V30 2706 H 258.016 2.77989 4.11019 0
M  V30 2707 N 257.189 -0.644168 1.43834 0
M  V30 2708 C 258.414 -1.43642 1.49605 0
M  V30 2709 C 258.839 -1.8773 0.117913 0
M  V30 2710 O 258.197 -1.57938 -0.890239 0
M  V30 2711 C 258.245 -2.6416 2.45463 0
M  V30 2712 O 257.349 -3.63538 1.94714 0
M  V30 2713 H 256.69 -0.430329 0.50568 0
M  V30 2714 H 259.22 -0.787448 1.8884 0
M  V30 2715 H 259.23 -3.11864 2.63068 0
M  V30 2716 H 257.905 -2.31414 3.45572 0
M  V30 2717 H 256.482 -3.2273 1.86814 0
M  V30 2718 N 258.668 -1.30515 -0.883378 0
M  V30 2719 C 259.945 -1.10086 -1.6168 0
M  V30 2720 C 260.325 0.349269 -2.08191 0
M  V30 2721 O 259.673 1.34105 -1.85008 0
M  V30 2722 C 259.883 -2.10315 -2.78511 0
M  V30 2723 C 261.231 -2.42119 -3.48803 0
M  V30 2724 O 262.255 -2.08638 -2.88702 0
M  V30 2725 O 261.114 -2.99396 -4.57192 0
M  V30 2726 H 258.208 -0.422907 -0.710689 0
M  V30 2727 H 260.754 -1.41947 -0.930015 0
M  V30 2728 H 259.526 -3.07917 -2.41459 0
M  V30 2729 H 259.149 -1.79282 -3.54886 0
M  V30 2730 N 260.146 1.09593 -1.13257 0
M  V30 2731 C 261.423 1.78293 -0.804432 0
M  V30 2732 C 261.803 1.99004 0.70431 0
M  V30 2733 O 261.151 1.59007 1.641 0
M  V30 2734 C 261.361 3.10707 -1.5894 0
M  V30 2735 C 262.709 3.85443 -1.78099 0
M  V30 2736 O 263.733 3.20454 -1.55525 0
M  V30 2737 O 262.592 5.02108 -2.15753 0
M  V30 2738 H 259.686 0.773156 -0.293528 0
M  V30 2739 H 262.232 1.16164 -1.23709 0
M  V30 2740 H 261.004 2.91106 -2.61482 0
M  V30 2741 H 260.627 3.80558 -1.15157 0
M  V30 2742 N 261.624 0.925811 1.2754 0
M  V30 2743 C 262.852 0.581509 1.9856 0
M  V30 2744 C 263.267 -0.840041 1.69082 0
M  V30 2745 O 262.624 -1.55805 0.950312 0
M  V30 2746 C 262.675 0.795589 3.52637 0
M  V30 2747 O 262.396 2.16121 3.81082 0
M  V30 2748 C 263.897 0.459744 4.4091 0
M  V30 2749 H 261.117 0.220538 0.633722 0
M  V30 2750 H 263.661 1.24232 1.6244 0
M  V30 2751 H 261.816 0.18161 3.86974 0
M  V30 2752 H 262.23 2.2098 4.75676 0
M  V30 2753 H 263.704 0.660244 5.48037 0
M  V30 2754 H 264.181 -0.604625 4.35018 0
M  V30 2755 H 264.787 1.05178 4.12089 0
M  V30 2756 N 263.102 -1.41638 0.69111 0
M  V30 2757 C 264.513 -1.84346 0.295517 0
M  V30 2758 C 264.864 -1.57833 -1.16547 0
M  V30 2759 O 263.989 -1.04648 -1.89414 0
M  V30 2760 C 264.584 -3.34636 0.529575 0
M  V30 2761 C 263.143 -3.7593 0.187944 0
M  V30 2762 C 262.29 -2.65082 0.814052 0
M  V30 2763 H 265.241 -1.31253 0.892092 0
M  V30 2764 H 265.262 -3.79903 -0.213148 0
M  V30 2765 H 264.774 -3.53901 1.59297 0
M  V30 2766 H 262.875 -3.62268 -0.871367 0
M  V30 2767 H 262.988 -4.74808 0.63985 0
M  V30 2768 H 261.352 -2.53528 0.244017 0
M  V30 2769 H 262.135 -2.87167 1.88123 0
M  V30 2770 N 264.58 -0.43555 -1.51462 0
M  V30 2771 C 265.513 0.421989 -2.24264 0
M  V30 2772 C 266.491 1.02619 -1.26127 0
M  V30 2773 O 267.675 1.069 -1.55257 0
M  V30 2774 C 264.802 1.588 -2.99166 0
M  V30 2775 C 263.848 1.10465 -4.11946 0
M  V30 2776 S 264.681 0.048146 -5.35478 0
M  V30 2777 C 265.837 1.21887 -6.13917 0
M  V30 2778 H 266.07 -0.196102 -2.96653 0
M  V30 2779 H 263.603 -0.220054 -1.52824 0
M  V30 2780 H 265.561 2.25647 -3.42919 0
M  V30 2781 H 264.222 2.1775 -2.26371 0
M  V30 2782 H 263.415 1.97654 -4.63626 0
M  V30 2783 H 263.017 0.51445 -3.70445 0
M  V30 2784 H 265.309 2.13756 -6.42895 0
M  V30 2785 H 266.252 0.742076 -7.04201 0
M  V30 2786 H 266.66 1.45663 -5.45383 0
M  V30 2787 N 266.058 1.56714 -0.166846 0
M  V30 2788 C 267.304 1.97039 0.479962 0
M  V30 2789 C 267.637 1.05264 1.63197 0
M  V30 2790 O 266.912 0.0988833 1.94248 0
M  V30 2791 C 267.195 3.46867 0.967212 0
M  V30 2792 C 267.048 4.49421 -0.18466 0
M  V30 2793 C 268.367 3.9968 1.84238 0
M  V30 2794 H 265.486 0.71641 0.172992 0
M  V30 2795 H 268.128 1.8832 -0.252079 0
M  V30 2796 H 266.278 3.54428 1.59101 0
M  V30 2797 H 267.95 4.53924 -0.821621 0
M  V30 2798 H 266.193 4.25573 -0.840837 0
M  V30 2799 H 266.864 5.51644 0.198317 0
M  V30 2800 H 269.34 3.94723 1.31655 0
M  V30 2801 H 268.216 5.04941 2.15234 0
M  V30 2802 H 268.477 3.43226 2.78654 0
M  V30 2803 N 267.536 -0.106894 1.57237 0
M  V30 2804 C 268.952 -0.46078 1.52804 0
M  V30 2805 C 269.152 -1.81184 0.881746 0
M  V30 2806 O 268.208 -2.48102 0.469224 0
M  V30 2807 C 269.521 -0.434127 2.9755 0
M  V30 2808 C 271.069 -0.516821 3.08704 0
M  V30 2809 C 271.544 -0.520436 4.55033 0
M  V30 2810 N 273.035 -0.58153 4.59535 0
M  V30 2811 C 273.77 -0.605973 5.70189 0
M  V30 2812 N 273.266 -0.587331 6.90306 0
M  V30 2813 N 275.059 -0.649895 5.5833 0
M  V30 2814 H 267.21 0.778203 1.9763 0
M  V30 2815 H 269.473 0.288403 0.903066 0
M  V30 2816 H 269.179 0.491197 3.48253 0
M  V30 2817 H 269.053 -1.25748 3.55622 0
M  V30 2818 H 271.44 -1.43256 2.57995 0
M  V30 2819 H 271.521 0.334449 2.53604 0
M  V30 2820 H 271.165 0.391313 5.0639 0
M  V30 2821 H 271.095 -1.38876 5.07958 0
M  V30 2822 H 273.586 -0.60161 3.73081 0
M  V30 2823 H 273.899 -0.60894 7.70397 0
M  V30 2824 H 272.244 -0.554564 6.92784 0
M  V30 2825 H 275.435 -0.661907 4.63397 0
M  V30 2826 H 275.608 -0.665476 6.44574 0
M  V30 2827 N 269.014 -1.53014 -0.377408 0
M  V30 2828 C 270.43 -1.42523 -0.718281 0
M  V30 2829 C 270.63 -0.55487 -1.9371 0
M  V30 2830 O 269.686 -0.0327593 -2.52479 0
M  V30 2831 C 270.999 -2.85546 -0.942539 0
M  V30 2832 C 272.547 -2.95101 -1.04329 0
M  V30 2833 C 273.022 -4.3916 -1.3001 0
M  V30 2834 N 274.513 -4.42536 -1.36806 0
M  V30 2835 C 275.248 -5.51097 -1.58364 0
M  V30 2836 N 274.744 -6.69724 -1.77317 0
M  V30 2837 N 276.537 -5.38657 -1.60638 0
M  V30 2838 H 268.688 -2.08116 0.424426 0
M  V30 2839 H 270.951 -0.939352 0.127759 0
M  V30 2840 H 270.657 -3.51499 -0.118929 0
M  V30 2841 H 270.531 -3.28493 -1.85397 0
M  V30 2842 H 272.918 -2.29309 -1.85745 0
M  V30 2843 H 272.999 -2.55566 -0.109505 0
M  V30 2844 H 272.643 -5.05521 -0.490991 0
M  V30 2845 H 272.573 -4.76258 -2.24691 0
M  V30 2846 H 275.064 -3.57039 -1.23821 0
M  V30 2847 H 275.377 -7.48233 -1.93306 0
M  V30 2848 H 273.722 -6.72732 -1.74518 0
M  V30 2849 H 276.913 -4.44948 -1.45391 0
M  V30 2850 H 277.086 -6.2333 -1.77098 0
M  V30 2851 N 270.492 0.636531 -1.44174 0
M  V30 2852 C 271.455 1.73063 -1.50273 0
M  V30 2853 C 272.455 1.56113 -0.385397 0
M  V30 2854 O 273.645 1.61707 -0.64781 0
M  V30 2855 C 270.777 3.12096 -1.37145 0
M  V30 2856 H 271.97 1.69031 -2.47727 0
M  V30 2857 H 269.523 0.849706 -1.31186 0
M  V30 2858 H 270.258 3.21728 -0.407636 0
M  V30 2859 H 270.043 3.25805 -2.18159 0
M  V30 2860 H 271.533 3.91846 -1.44382 0
M  V30 2861 N 271.97 1.30982 0.876444 0
M  V30 2862 C 272.933 1.18054 1.96459 0
M  V30 2863 C 273.933 0.109399 1.60427 0
M  V30 2864 O 275.123 0.358173 1.70478 0
M  V30 2865 C 272.255 0.810616 3.31122 0
M  V30 2866 H 273.448 2.14735 2.09354 0
M  V30 2867 H 271.001 1.145 1.06392 0
M  V30 2868 H 271.736 -0.155322 3.23928 0
M  V30 2869 H 271.521 1.58481 3.58645 0
M  V30 2870 H 273.011 0.743876 4.10921 0
M  V30 2871 N 273.449 -1.08991 1.13837 0
M  V30 2872 C 274.412 -2.13925 0.822715 0
M  V30 2873 C 275.412 -1.599 -0.1699 0
M  V30 2874 O 276.602 -1.74104 0.0577251 0
M  V30 2875 C 273.734 -3.40155 0.225318 0
M  V30 2876 H 274.927 -2.43358 1.75262 0
M  V30 2877 H 272.48 -1.24603 0.943594 0
M  V30 2878 H 273.215 -3.16352 -0.713594 0
M  V30 2879 H 273 -3.80661 0.940193 0
M  V30 2880 H 274.49 -4.17594 0.0214784 0
M  V30 2881 N 274.927 -0.932562 -1.27047 0
M  V30 2882 C 276.152 -0.591474 -1.98787 0
M  V30 2883 C 276.577 0.824601 -1.69062 0
M  V30 2884 O 275.935 1.5541 -0.933677 0
M  V30 2885 C 275.983 -0.829808 -3.50922 0
M  V30 2886 O 275.087 0.102266 -4.12273 0
M  V30 2887 H 274.428 -0.227185 -0.623926 0
M  V30 2888 H 276.958 -1.25314 -1.61733 0
M  V30 2889 H 276.968 -0.747292 -4.01098 0
M  V30 2890 H 275.643 -1.86201 -3.7189 0
M  V30 2891 H 274.22 -0.0305761 -3.72887 0
M  V30 2892 N 276.405 1.4127 -0.698611 0
M  V30 2893 C 277.352 2.30773 -0.0352094 0
M  V30 2894 C 278.322 1.47273 0.768111 0
M  V30 2895 O 279.507 1.76053 0.735524 0
M  V30 2896 C 276.647 3.33346 0.893 0
M  V30 2897 C 275.76 4.31924 0.0809695 0
M  V30 2898 C 274.895 5.21566 1.0071 0
M  V30 2899 C 273.934 6.11811 0.188155 0
M  V30 2900 N 273.071 6.93926 1.06825 0
M  V30 2901 H 277.911 2.86943 -0.804207 0
M  V30 2902 H 275.448 1.4132 -0.408294 0
M  V30 2903 H 277.406 3.91368 1.44523 0
M  V30 2904 H 276.036 2.78719 1.62836 0
M  V30 2905 H 275.088 3.75825 -0.588224 0
M  V30 2906 H 276.4 4.95716 -0.553801 0
M  V30 2907 H 275.554 5.84437 1.62845 0
M  V30 2908 H 274.293 4.58008 1.67572 0
M  V30 2909 H 273.298 5.47986 -0.446254 0
M  V30 2910 H 274.523 6.77425 -0.476716 0
M  V30 2911 H 272.469 6.32973 1.72283 0
M  V30 2912 H 272.386 7.54416 0.489123 0
M  V30 2913 H 273.654 7.61262 1.67632 0
M  V30 2914 N 277.883 0.443576 1.51229 0
M  V30 2915 C 278.813 -0.355142 2.30783 0
M  V30 2916 C 279.794 -1.0154 1.36468 0
M  V30 2917 O 280.979 -1.01785 1.65389 0
M  V30 2918 C 278.109 -1.45312 3.15439 0
M  V30 2919 C 277.063 -0.916002 4.18083 0
M  V30 2920 C 276.389 -2.1102 4.91299 0
M  V30 2921 C 277.689 0.0538602 5.22272 0
M  V30 2922 H 279.383 0.308767 2.97804 0
M  V30 2923 H 276.929 0.149937 1.43217 0
M  V30 2924 H 278.882 -2.01914 3.69876 0
M  V30 2925 H 277.606 -2.14541 2.46252 0
M  V30 2926 H 276.265 -0.372145 3.64706 0
M  V30 2927 H 275.913 -2.78882 4.18609 0
M  V30 2928 H 275.613 -1.75717 5.60712 0
M  V30 2929 H 277.137 -2.68164 5.48562 0
M  V30 2930 H 278.551 -0.422069 5.71744 0
M  V30 2931 H 276.948 0.319776 5.99247 0
M  V30 2932 H 278.018 0.98858 4.74716 0
M  V30 2933 N 279.361 -1.56624 0.175154 0
M  V30 2934 C 280.609 -1.96609 -0.467885 0
M  V30 2935 C 280.93 -1.06238 -1.63519 0
M  V30 2936 O 280.2 -0.129523 -1.95471 0
M  V30 2937 H 278.78 -0.726008 -0.175845 0
M  V30 2938 H 281.442 -1.93195 0.257234 0
M  V30 2939 H 280.538 -3.00989 -0.825342 0
M  V30 2940 N 280.839 0.0985539 -1.57292 0
M  V30 2941 C 281.749 1.13824 -2.05137 0
M  V30 2942 C 282.765 1.44076 -0.975604 0
M  V30 2943 O 283.941 1.54786 -1.28853 0
M  V30 2944 C 281.006 2.43969 -2.46333 0
M  V30 2945 C 280.067 2.2093 -3.68087 0
M  V30 2946 C 279.3 3.44869 -4.0731 0
M  V30 2947 O 279.523 4.52972 -3.46659 0
M  V30 2948 O 278.457 3.34661 -5.00285 0
M  V30 2949 H 282.283 0.761881 -2.93988 0
M  V30 2950 H 279.868 0.310818 -1.46131 0
M  V30 2951 H 281.75 3.20609 -2.73473 0
M  V30 2952 H 280.425 2.81038 -1.60621 0
M  V30 2953 H 279.332 1.42081 -3.46069 0
M  V30 2954 H 280.665 1.88755 -4.54568 0
M  V30 2955 N 282.317 1.53212 0.369288 0
M  V30 2956 C 283.564 1.69215 1.11232 0
M  V30 2957 C 283.892 0.442048 1.8941 0
M  V30 2958 O 283.147 -0.575944 1.87033 0
M  V30 2959 C 283.446 2.89101 2.10132 0
M  V30 2960 C 283.112 4.25758 1.48463 0
M  V30 2961 C 281.774 4.6292 1.31372 0
M  V30 2962 C 284.126 5.10757 1.03811 0
M  V30 2963 C 281.454 5.82722 0.68207 0
M  V30 2964 C 283.806 6.31201 0.420487 0
M  V30 2965 C 282.47 6.67079 0.237038 0
M  V30 2966 H 281.74 0.619201 0.407027 0
M  V30 2967 H 284.387 1.87391 0.394552 0
M  V30 2968 H 282.692 2.65421 2.88199 0
M  V30 2969 H 284.389 2.98676 2.6757 0
M  V30 2970 H 280.979 3.96494 1.62758 0
M  V30 2971 H 285.163 4.82599 1.1581 0
M  V30 2972 H 280.419 6.09113 0.528316 0
M  V30 2973 H 284.593 6.96368 0.0662874 0
M  V30 2974 H 282.22 7.59774 -0.254477 0
M  V30 2975 N 283.795 -0.628877 1.44509 0
M  V30 2976 C 284.758 -1.72263 1.51188 0
M  V30 2977 C 285.758 -1.55907 0.39367 0
M  V30 2978 O 286.948 -1.61361 0.656377 0
M  V30 2979 C 284.08 -3.11365 1.38798 0
M  V30 2980 H 285.273 -1.67714 2.4862 0
M  V30 2981 H 282.826 -0.842737 1.31634 0
M  V30 2982 H 283.561 -3.21507 0.424693 0
M  V30 2983 H 283.346 -3.24644 2.19884 0
M  V30 2984 H 284.836 -3.91075 1.46458 0
M  V30 2985 N 285.273 -1.31445 -0.869486 0
M  V30 2986 C 286.22 -1.19135 -1.97675 0
M  V30 2987 C 287.19 -0.0770266 -1.65921 0
M  V30 2988 O 288.375 -0.249972 -1.89155 0
M  V30 2989 C 285.515 -0.905149 -3.33018 0
M  V30 2990 C 284.628 -2.10285 -3.77365 0
M  V30 2991 C 283.763 -1.75339 -5.01427 0
M  V30 2992 C 282.802 -2.91515 -5.38224 0
M  V30 2993 N 281.939 -2.56762 -6.53466 0
M  V30 2994 H 286.779 -2.13853 -2.07535 0
M  V30 2995 H 284.316 -1.06379 -1.01597 0
M  V30 2996 H 286.274 -0.719765 -4.10944 0
M  V30 2997 H 284.904 0.00519624 -3.228 0
M  V30 2998 H 283.956 -2.39899 -2.95216 0
M  V30 2999 H 285.268 -2.97237 -4.00564 0
M  V30 3000 H 284.422 -1.53266 -5.87022 0
M  V30 3001 H 283.161 -0.855801 -4.80133 0
M  V30 3002 H 282.166 -3.14237 -4.51149 0
M  V30 3003 H 283.391 -3.81985 -5.61484 0
M  V30 3004 H 281.337 -1.69526 -6.33717 0
M  V30 3005 H 281.254 -3.37243 -6.76612 0
M  V30 3006 H 282.522 -2.38083 -7.42251 0
M  V30 3007 N 286.751 1.08385 -1.14413 0
M  V30 3008 C 287.997 1.81044 -0.913834 0
M  V30 3009 C 288.33 1.86004 0.558209 0
M  V30 3010 O 287.605 1.33606 1.4135 0
M  V30 3011 C 287.888 3.26648 -1.51569 0
M  V30 3012 C 287.741 3.29895 -3.0576 0
M  V30 3013 C 289.06 4.23629 -1.19273 0
M  V30 3014 H 286.179 0.65727 -0.333414 0
M  V30 3015 H 288.821 1.26896 -1.41412 0
M  V30 3016 H 286.971 3.72889 -1.09023 0
M  V30 3017 H 288.643 2.91977 -3.57137 0
M  V30 3018 H 286.886 2.69163 -3.40197 0
M  V30 3019 H 287.557 4.32516 -3.42977 0
M  V30 3020 H 290.033 3.85727 -1.56057 0
M  V30 3021 H 288.909 5.23822 -1.64017 0
M  V30 3022 H 289.17 4.41968 -0.108068 0
M  V30 3023 N 288.23 0.939286 1.26551 0
M  V30 3024 C 289.16 0.465044 2.28822 0
M  V30 3025 C 290.141 -0.480692 1.63167 0
M  V30 3026 O 291.326 -0.382955 1.90387 0
M  V30 3027 C 288.456 -0.27234 3.46231 0
M  V30 3028 C 287.41 0.58666 4.2396 0
M  V30 3029 C 286.736 -0.280573 5.33963 0
M  V30 3030 C 288.036 1.85704 4.88171 0
M  V30 3031 H 289.73 1.31979 2.68741 0
M  V30 3032 H 287.276 0.636061 1.29191 0
M  V30 3033 H 289.229 -0.615133 4.16886 0
M  V30 3034 H 287.953 -1.16121 3.0526 0
M  V30 3035 H 286.612 0.91232 3.55067 0
M  V30 3036 H 286.26 -1.16874 4.89234 0
M  V30 3037 H 285.96 0.29076 5.8688 0
M  V30 3038 H 287.484 -0.618678 6.07458 0
M  V30 3039 H 288.898 1.58161 5.51052 0
M  V30 3040 H 287.295 2.37279 5.51197 0
M  V30 3041 H 288.365 2.56957 4.11219 0
M  V30 3042 N 289.708 -1.40897 0.706093 0
M  V30 3043 C 290.618 -2.3455 0.0482286 0
M  V30 3044 C 291.634 -1.56796 -0.754396 0
M  V30 3045 O 292.81 -1.89228 -0.689538 0
M  V30 3046 C 289.875 -3.35625 -0.869303 0
M  V30 3047 C 288.936 -4.29261 -0.0576994 0
M  V30 3048 C 288.169 -5.25508 -0.931531 0
M  V30 3049 O 288.392 -5.27472 -2.17092 0
M  V30 3050 O 287.326 -6.00727 -0.375587 0
M  V30 3051 H 291.152 -2.92407 0.820476 0
M  V30 3052 H 288.737 -1.4193 0.4665 0
M  V30 3053 H 290.619 -3.97635 -1.39514 0
M  V30 3054 H 289.294 -2.80196 -1.62086 0
M  V30 3055 H 288.201 -3.70566 0.512988 0
M  V30 3056 H 289.534 -4.87817 0.655426 0
M  V30 3057 N 291.186 -0.45159 -1.50991 0
M  V30 3058 C 292.116 0.342898 -2.30969 0
M  V30 3059 C 293.097 1.00815 -1.37005 0
M  V30 3060 O 294.282 1.00907 -1.65926 0
M  V30 3061 C 291.412 1.43637 -3.16205 0
M  V30 3062 C 290.366 0.893818 -4.18563 0
M  V30 3063 C 289.692 2.08411 -4.92411 0
M  V30 3064 C 290.992 -0.0815568 -5.22236 0
M  V30 3065 H 292.686 -0.324556 -2.97636 0
M  V30 3066 H 290.232 -0.157531 -1.43136 0
M  V30 3067 H 292.185 1.9995 -3.70942 0
M  V30 3068 H 290.909 2.13232 -2.47386 0
M  V30 3069 H 289.568 0.352798 -3.64898 0
M  V30 3070 H 289.216 2.76658 -4.20082 0
M  V30 3071 H 288.916 1.72741 -5.61636 0
M  V30 3072 H 290.44 2.65251 -5.49976 0
M  V30 3073 H 291.854 0.391742 -5.7196 0
M  V30 3074 H 290.251 -0.351551 -5.99069 0
M  V30 3075 H 291.321 -1.01374 -4.74185 0
M  V30 3076 N 292.664 1.56529 -0.183458 0
M  V30 3077 C 293.941 1.88959 0.50536 0
M  V30 3078 C 294.321 1.09523 1.80466 0
M  V30 3079 O 293.669 0.19278 2.27685 0
M  V30 3080 C 293.879 3.41162 0.73547 0
M  V30 3081 C 295.227 4.11155 1.06005 0
M  V30 3082 O 296.251 3.46548 0.823594 0
M  V30 3083 O 295.11 5.25318 1.50675 0
M  V30 3084 H 292.204 0.78441 0.261973 0
M  V30 3085 H 294.75 1.68231 -0.222802 0
M  V30 3086 H 293.522 3.90874 -0.182561 0
M  V30 3087 H 293.145 3.67543 1.51651 0
M  V30 3088 N 294.142 -0.090211 1.57342 0
M  V30 3089 C 295.09 -1.12792 2.03422 0
M  V30 3090 C 296.084 -1.41182 0.936166 0
M  V30 3091 O 297.29 -1.40805 1.12133 0
M  V30 3092 H 293.665 -0.380986 0.648347 0
M  V30 3093 H 295.636 -0.71299 2.89757 0
M  V30 3094 C 294.385 -2.43855 2.47851 0
M  V30 3095 H 293.708 -2.22855 3.31927 0
M  V30 3096 H 295.148 -3.14955 2.83865 0
M  V30 3097 C 293.607 -3.08503 1.3538 0
M  V30 3098 O 294.137 -3.95805 0.685641 0
M  V30 3099 N 292.343 -2.68831 1.10355 0
M  V30 3100 H 291.89 -1.97929 1.64869 0
M  V30 3101 H 291.848 -3.12412 0.353031 0
M  V30 3102 N 295.62 -1.53406 -0.361157 0
M  V30 3103 C 296.866 -1.70054 -1.10496 0
M  V30 3104 C 297.199 -0.453278 -1.88836 0
M  V30 3105 O 296.474 0.5495 -1.86576 0
M  V30 3106 C 296.757 -2.95317 -2.06058 0
M  V30 3107 C 296.61 -4.3021 -1.31298 0
M  V30 3108 C 297.929 -3.16193 -3.06121 0
M  V30 3109 H 295.048 -0.618799 -0.400321 0
M  V30 3110 H 297.69 -1.86052 -0.385318 0
M  V30 3111 H 295.84 -2.81809 -2.67425 0
M  V30 3112 H 297.512 -4.55538 -0.726807 0
M  V30 3113 H 295.755 -4.29421 -0.614853 0
M  V30 3114 H 296.426 -5.14 -2.01265 0
M  V30 3115 H 298.902 -3.28916 -2.5486 0
M  V30 3116 H 297.778 -4.05266 -3.70204 0
M  V30 3117 H 298.039 -2.31676 -3.76535 0
M  V30 3118 N 297.098 0.621204 -1.44841 0
M  V30 3119 C 298.045 1.73267 -1.5247 0
M  V30 3120 C 299.015 1.6189 -0.371611 0
M  V30 3121 O 300.2 1.81668 -0.58321 0
M  V30 3122 C 297.34 3.11545 -1.48438 0
M  V30 3123 C 296.453 3.33827 -2.74196 0
M  V30 3124 C 295.588 4.62133 -2.61929 0
M  V30 3125 C 294.627 4.77627 -3.82804 0
M  V30 3126 N 293.764 5.97219 -3.69153 0
M  V30 3127 H 298.604 1.66082 -2.47428 0
M  V30 3128 H 296.141 0.810026 -1.22788 0
M  V30 3129 H 298.099 3.91528 -1.4409 0
M  V30 3130 H 296.729 3.1772 -0.570402 0
M  V30 3131 H 295.781 2.47715 -2.88689 0
M  V30 3132 H 297.093 3.41153 -3.6389 0
M  V30 3133 H 296.247 5.50291 -2.5547 0
M  V30 3134 H 294.986 4.57182 -1.69811 0
M  V30 3135 H 293.991 3.87896 -3.89637 0
M  V30 3136 H 295.216 4.84385 -4.75971 0
M  V30 3137 H 293.162 5.93339 -2.79794 0
M  V30 3138 H 293.079 6.05644 -4.52472 0
M  V30 3139 H 294.347 6.87912 -3.66603 0
M  V30 3140 N 298.576 1.31904 0.862503 0
M  V30 3141 C 299.801 1.25135 1.65397 0
M  V30 3142 C 300.226 -0.179 1.87246 0
M  V30 3143 O 299.584 -1.1277 1.4196 0
M  V30 3144 C 299.632 2.00832 2.99498 0
M  V30 3145 O 298.736 1.35075 3.89652 0
M  V30 3146 H 298.077 0.431655 0.504549 0
M  V30 3147 H 300.607 1.74094 1.07483 0
M  V30 3148 H 300.617 2.10709 3.49379 0
M  V30 3149 H 299.292 3.04847 2.82916 0
M  V30 3150 H 297.869 1.33696 3.48109 0
M  V30 3151 N 300.054 -1.07777 1.14986 0
M  V30 3152 C 300.964 -2.18404 0.856546 0
M  V30 3153 C 301.98 -1.73211 -0.165485 0
M  V30 3154 O 303.156 -2.01399 0.00755219 0
M  V30 3155 C 300.221 -3.44977 0.34526 0
M  V30 3156 C 299.282 -4.0476 1.43065 0
M  V30 3157 C 298.515 -5.25291 0.943663 0
M  V30 3158 O 298.738 -5.70004 -0.212426 0
M  V30 3159 O 297.672 -5.76638 1.72547 0
M  V30 3160 H 301.498 -2.45978 1.78125 0
M  V30 3161 H 299.083 -1.17033 0.928631 0
M  V30 3162 H 300.965 -4.21348 0.0663671 0
M  V30 3163 H 299.64 -3.18965 -0.551631 0
M  V30 3164 H 298.547 -3.29949 1.76309 0
M  V30 3165 H 299.88 -4.35035 2.30229 0
M  V30 3166 N 301.532 -0.945985 -1.26051 0
M  V30 3167 C 302.781 -0.591836 -1.92822 0
M  V30 3168 C 303.094 0.873956 -1.7499 0
M  V30 3169 O 304.3 1.33769 -2.36259 0
M  V30 3170 C 302.756 -1.00776 -3.45503 0
M  V30 3171 C 302.364 -2.4955 -3.7206 0
M  V30 3172 C 304.108 -0.725735 -4.1825 0
M  V30 3173 C 302.015 -2.84988 -5.18205 0
M  V30 3174 H 300.945 -0.217635 -0.721908 0
M  V30 3175 H 303.596 -1.14927 -1.43052 0
M  V30 3176 H 301.978 -0.378812 -3.94184 0
M  V30 3177 H 303.152 -3.1739 -3.34066 0
M  V30 3178 H 301.467 -2.75133 -3.12555 0
M  V30 3179 H 304.064 -0.966771 -5.25887 0
M  V30 3180 H 304.407 0.337639 -4.14929 0
M  V30 3181 H 304.94 -1.31463 -3.7545 0
M  V30 3182 H 301.679 -3.90307 -5.26631 0
M  V30 3183 H 301.199 -2.21813 -5.57278 0
M  V30 3184 H 302.878 -2.73712 -5.86252 0
M  V30 3185 N 303.011 1.40521 -0.713556 0
M  V30 3186 C 304.26 2.00155 -0.249192 0
M  V30 3187 C 304.573 1.57224 1.16362 0
M  V30 3188 O 305.779 2.09542 1.72639 0
M  V30 3189 C 304.235 3.5773 -0.3946 0
M  V30 3190 C 303.843 4.09635 -1.81392 0
M  V30 3191 C 305.587 4.24499 0.00907364 0
M  V30 3192 C 303.494 5.59707 -1.91003 0
M  V30 3193 H 302.424 0.74868 -0.0894114 0
M  V30 3194 H 305.075 1.60784 -0.884352 0
M  V30 3195 H 303.457 3.94792 0.30911 0
M  V30 3196 H 304.631 3.83955 -2.54785 0
M  V30 3197 H 302.946 3.55456 -2.16888 0
M  V30 3198 H 305.543 5.34683 -0.0420404 0
M  V30 3199 H 305.886 4.02824 1.05065 0
M  V30 3200 H 306.419 3.92536 -0.645007 0
M  V30 3201 H 303.158 5.86234 -2.93275 0
M  V30 3202 H 302.678 5.87258 -1.22019 0
M  V30 3203 H 304.357 6.24776 -1.6812 0
M  V30 3204 N 304.489 0.459591 1.5075 0
M  V30 3205 C 305.9 0.00171547 1.867 0
M  V30 3206 C 306.251 -1.39934 1.37525 0
M  V30 3207 O 305.376 -2.03523 0.735349 0
M  V30 3208 C 305.971 -0.00366298 3.388 0
M  V30 3209 C 304.53 -0.406026 3.74204 0
M  V30 3210 C 303.677 0.38673 2.7459 0
M  V30 3211 H 306.628 0.674413 1.43657 0
M  V30 3212 H 306.649 -0.808371 3.71814 0
M  V30 3213 H 306.161 1.01617 3.74561 0
M  V30 3214 H 304.262 -1.43063 3.4404 0
M  V30 3215 H 304.375 -0.115362 4.78961 0
M  V30 3216 H 302.739 -0.158019 2.54209 0
M  V30 3217 H 303.522 1.40585 3.13194 0
M  V30 3218 N 305.967 -1.56429 0.191757 0
M  V30 3219 C 306.9 -2.14829 -0.76967 0
M  V30 3220 C 307.878 -1.08405 -1.2119 0
M  V30 3221 O 309.062 -1.36498 -1.30002 0
M  V30 3222 C 306.189 -2.70446 -2.03903 0
M  V30 3223 C 305.235 -3.89428 -1.7392 0
M  V30 3224 S 306.068 -5.28048 -0.890265 0
M  V30 3225 C 307.224 -5.87085 -2.16984 0
M  V30 3226 H 307.457 -2.96042 -0.273204 0
M  V30 3227 H 304.99 -1.54383 -0.0231975 0
M  V30 3228 H 306.948 -3.03134 -2.76803 0
M  V30 3229 H 305.609 -1.89281 -2.50662 0
M  V30 3230 H 304.802 -4.26742 -2.68155 0
M  V30 3231 H 304.404 -3.57732 -1.09103 0
M  V30 3232 H 306.696 -6.01244 -3.12269 0
M  V30 3233 H 307.639 -6.83747 -1.84108 0
M  V30 3234 H 308.047 -5.15663 -2.29678 0
M  V30 3235 N 307.445 0.0818655 -1.57387 0
M  V30 3236 C 308.692 0.782914 -1.86753 0
M  V30 3237 C 309.02 1.78082 -0.782118 0
M  V30 3238 O 308.275 1.94426 0.22295 0
M  V30 3239 C 308.574 1.53513 -3.22752 0
M  V30 3240 C 308.24 0.678134 -4.45771 0
M  V30 3241 C 306.902 0.441929 -4.79166 0
M  V30 3242 C 309.254 0.0832243 -5.21134 0
M  V30 3243 C 306.582 -0.398833 -5.85343 0
M  V30 3244 C 308.934 -0.744935 -6.28199 0
M  V30 3245 C 307.598 -0.991107 -6.60101 0
M  V30 3246 H 306.868 0.286489 -0.683378 0
M  V30 3247 H 309.515 0.0439808 -1.91449 0
M  V30 3248 H 307.82 2.34599 -3.138 0
M  V30 3249 H 309.517 2.08218 -3.42705 0
M  V30 3250 H 306.107 0.872357 -4.19628 0
M  V30 3251 H 310.291 0.252847 -4.95655 0
M  V30 3252 H 305.547 -0.598405 -6.08465 0
M  V30 3253 H 309.721 -1.21271 -6.8576 0
M  V30 3254 H 307.348 -1.64437 -7.42202 0
M  V30 3255 N 308.923 1.53595 0.353017 0
M  V30 3256 C 310.148 1.7462 1.11904 0
M  V30 3257 C 310.573 0.479721 1.8188 0
M  V30 3258 O 309.931 -0.567066 1.72204 0
M  V30 3259 C 309.979 2.92029 2.11545 0
M  V30 3260 O 309.083 2.61516 3.18878 0
M  V30 3261 H 308.424 0.579531 0.324099 0
M  V30 3262 H 310.954 2.00525 0.406301 0
M  V30 3263 H 310.964 3.18551 2.5493 0
M  V30 3264 H 309.639 3.83888 1.60008 0
M  V30 3265 H 308.216 2.45852 2.80377 0
M  V30 3266 N 310.401 -0.613514 1.45168 0
M  V30 3267 C 311.349 -1.74572 1.53712 0
M  V30 3268 C 312.343 -1.64426 0.407505 0
M  V30 3269 O 313.549 -1.70291 0.583176 0
M  V30 3270 H 309.924 -0.576641 0.48269 0
M  V30 3271 H 311.895 -1.64492 2.48968 0
M  V30 3272 C 310.644 -3.12943 1.51532 0
M  V30 3273 H 309.967 -3.21407 2.37776 0
M  V30 3274 H 311.407 -3.9201 1.61569 0
M  V30 3275 C 309.866 -3.36053 0.238798 0
M  V30 3276 O 310.396 -3.95837 -0.6838 0
M  V30 3277 N 308.602 -2.9028 0.136359 0
M  V30 3278 H 308.149 -2.41811 0.887999 0
M  V30 3279 H 308.107 -3.06116 -0.716944 0
M  V30 3280 N 311.879 -1.3236 -0.855495 0
M  V30 3281 C 312.809 -1.23833 -1.97958 0
M  V30 3282 C 313.79 -0.122361 -1.69659 0
M  V30 3283 O 314.975 -0.30939 -1.9172 0
M  V30 3284 C 312.105 -0.959772 -3.33775 0
M  V30 3285 C 311.059 -2.03689 -3.76424 0
M  V30 3286 C 310.385 -1.61075 -5.09862 0
M  V30 3287 C 311.685 -3.4518 -3.9198 0
M  V30 3288 H 313.379 -2.1788 -2.0535 0
M  V30 3289 H 310.925 -1.04891 -0.986605 0
M  V30 3290 H 312.878 -0.886678 -4.11966 0
M  V30 3291 H 311.602 0.0163404 -3.26596 0
M  V30 3292 H 310.261 -2.10012 -3.00484 0
M  V30 3293 H 309.909 -0.622107 -4.99138 0
M  V30 3294 H 309.609 -2.33143 -5.39368 0
M  V30 3295 H 311.133 -1.55201 -5.90546 0
M  V30 3296 H 312.547 -3.4145 -4.60526 0
M  V30 3297 H 310.944 -4.1559 -4.32903 0
M  V30 3298 H 312.014 -3.84903 -2.94919 0
M  V30 3299 N 313.357 1.07166 -1.15556 0
M  V30 3300 C 314.32 2.12589 -0.856644 0
M  V30 3301 C 315.32 1.6015 0.14444 0
M  V30 3302 O 316.51 1.7399 -0.0854163 0
M  V30 3303 C 313.642 3.39753 -0.279405 0
M  V30 3304 H 314.835 2.40539 -1.79112 0
M  V30 3305 H 312.388 1.23086 -0.963298 0
M  V30 3306 H 313.123 3.17447 0.663174 0
M  V30 3307 H 312.908 3.79117 -1.00063 0
M  V30 3308 H 314.398 4.17507 -0.0879113 0
M  V30 3309 N 314.835 0.952656 1.25548 0
M  V30 3310 C 316.06 0.623025 1.97821 0
M  V30 3311 C 316.485 -0.7976 1.70352 0
M  V30 3312 O 315.843 -1.53905 0.958283 0
M  V30 3313 C 315.891 0.885532 3.49558 0
M  V30 3314 O 314.995 -0.0366641 4.12384 0
M  V30 3315 H 314.336 0.237082 0.620232 0
M  V30 3316 H 316.866 1.27871 1.59719 0
M  V30 3317 H 316.876 0.811009 3.99858 0
M  V30 3318 H 315.551 1.92094 3.6888 0
M  V30 3319 H 314.128 0.0898954 3.72792 0
M  V30 3320 N 316.313 -1.40141 0.720998 0
M  V30 3321 C 317.59 -1.94677 0.189757 0
M  V30 3322 C 317.97 -1.65879 -1.30566 0
M  V30 3323 O 317.318 -0.979391 -2.06447 0
M  V30 3324 C 317.528 -3.45279 0.508304 0
M  V30 3325 C 318.876 -4.22209 0.449934 0
M  V30 3326 O 319.9 -3.53413 0.444677 0
M  V30 3327 O 318.759 -5.44788 0.432189 0
M  V30 3328 H 315.853 -0.826459 0.0299026 0
M  V30 3329 H 318.399 -1.49719 0.7989 0
M  V30 3330 H 317.171 -3.59619 1.54239 0
M  V30 3331 H 316.794 -3.97386 -0.130525 0
M  V30 3332 N 317.792 -0.46758 -1.50504 0
M  V30 3333 C 318.702 0.33382 -2.32213 0
M  V30 3334 C 319.718 0.999323 -1.42441 0
M  V30 3335 O 320.894 0.988068 -1.75497 0
M  V30 3336 C 317.959 1.4035 -3.17022 0
M  V30 3337 C 317.02 0.754961 -4.2261 0
M  V30 3338 C 316.253 1.77367 -5.03365 0
M  V30 3339 O 316.476 2.99976 -4.8515 0
M  V30 3340 O 315.41 1.34744 -5.86624 0
M  V30 3341 H 319.236 -0.334067 -3.01857 0
M  V30 3342 H 316.821 -0.229496 -1.47627 0
M  V30 3343 H 318.703 2.02318 -3.69656 0
M  V30 3344 H 317.378 2.05492 -2.5011 0
M  V30 3345 H 316.285 0.0964244 -3.73976 0
M  V30 3346 H 317.618 0.146545 -4.91982 0
M  V30 3347 N 319.27 1.56325 -0.20005 0
M  V30 3348 C 320.202 2.16555 0.750771 0
M  V30 3349 C 321.215 1.12871 1.1732 0
M  V30 3350 O 322.404 1.39943 1.10807 0
M  V30 3351 C 319.504 2.71684 2.02586 0
M  V30 3352 C 318.677 4.00321 1.76244 0
M  V30 3353 C 317.736 4.40227 2.88248 0
M  V30 3354 O 316.762 5.07552 2.57642 0
M  V30 3355 N 317.964 4.04138 4.16717 0
M  V30 3356 H 320.729 2.98772 0.235685 0
M  V30 3357 H 318.29 1.6189 -0.0182594 0
M  V30 3358 H 320.282 2.95363 2.76664 0
M  V30 3359 H 318.852 1.93893 2.45202 0
M  V30 3360 H 318.072 3.84723 0.85919 0
M  V30 3361 H 319.36 4.84279 1.56048 0
M  V30 3362 H 318.758 3.49993 4.44434 0
M  V30 3363 H 317.315 4.32756 4.87407 0
M  V30 3364 N 320.748 -0.0735177 1.57428 0
M  V30 3365 C 322.025 -0.805903 1.78226 0
M  V30 3366 C 322.405 -1.95874 0.787189 0
M  V30 3367 O 321.753 -2.2779 -0.180029 0
M  V30 3368 C 321.963 -1.28045 3.24662 0
M  V30 3369 C 323.311 -1.71453 3.88444 0
M  V30 3370 O 324.335 -1.37616 3.28543 0
M  V30 3371 O 323.194 -2.34093 4.93825 0
M  V30 3372 H 320.288 -0.386041 0.73137 0
M  V30 3373 H 322.834 -0.0537269 1.69615 0
M  V30 3374 H 321.606 -0.455476 3.8864 0
M  V30 3375 H 321.229 -2.094 3.37991 0
M  V30 3376 N 322.226 -1.5378 -0.344866 0
M  V30 3377 C 323.451 -1.75211 -1.10977 0
M  V30 3378 C 323.876 -0.48936 -1.81623 0
M  V30 3379 O 323.234 0.557925 -1.72502 0
M  V30 3380 C 323.282 -2.93147 -2.09993 0
M  V30 3381 O 322.386 -2.63203 -3.17487 0
M  V30 3382 H 321.727 -0.581241 -0.321021 0
M  V30 3383 H 324.257 -2.00738 -0.395661 0
M  V30 3384 H 324.267 -3.19898 -2.53237 0
M  V30 3385 H 322.942 -3.84731 -1.5797 0
M  V30 3386 H 321.519 -2.47336 -2.79069 0
M  V30 3387 N 323.704 0.605807 -1.45491 0
M  V30 3388 C 324.95 1.36679 -1.49823 0
M  V30 3389 C 325.283 1.93693 -0.140175 0
M  V30 3390 O 324.558 1.75158 0.845581 0
M  V30 3391 C 324.841 2.51337 -2.57879 0
M  V30 3392 C 324.694 1.99508 -4.03134 0
M  V30 3393 C 326.013 3.53463 -2.62205 0
M  V30 3394 H 323.132 0.495617 -0.545466 0
M  V30 3395 H 325.774 0.682732 -1.7731 0
M  V30 3396 H 323.924 3.09691 -2.34571 0
M  V30 3397 H 325.596 1.45789 -4.37656 0
M  V30 3398 H 323.839 1.30496 -4.13707 0
M  V30 3399 H 324.51 2.82169 -4.74431 0
M  V30 3400 H 326.986 3.04953 -2.83095 0
M  V30 3401 H 325.862 4.31178 -3.39672 0
M  V30 3402 H 326.123 4.09197 -1.67363 0
M  V30 3403 N 325.182 1.32811 0.848464 0
M  V30 3404 C 326.598 1.11937 1.13764 0
M  V30 3405 C 326.798 -0.0960789 2.01271 0
M  V30 3406 O 325.854 -0.779165 2.40178 0
M  V30 3407 C 327.167 2.402 1.809 0
M  V30 3408 C 328.715 2.46016 1.93508 0
M  V30 3409 C 329.19 3.74215 2.64059 0
M  V30 3410 N 330.681 3.75232 2.71579 0
M  V30 3411 C 331.416 4.71134 3.26833 0
M  V30 3412 N 330.912 5.77406 3.8285 0
M  V30 3413 N 332.705 4.58623 3.24995 0
M  V30 3414 H 324.856 2.1073 0.265855 0
M  V30 3415 H 327.119 0.930671 0.180431 0
M  V30 3416 H 326.825 3.29093 1.24058 0
M  V30 3417 H 326.699 2.51628 2.81004 0
M  V30 3418 H 329.086 1.57577 2.49506 0
M  V30 3419 H 329.167 2.38536 0.923811 0
M  V30 3420 H 328.811 4.63031 2.08722 0
M  V30 3421 H 328.741 3.78968 3.65637 0
M  V30 3422 H 331.232 2.98423 2.31845 0
M  V30 3423 H 331.545 6.46632 4.23187 0
M  V30 3424 H 329.89 5.81152 3.81165 0
M  V30 3425 H 333.081 3.74762 2.80484 0
M  V30 3426 H 333.254 5.33535 3.67756 0
M  V30 3427 N 326.66 -1.06551 1.16123 0
M  V30 3428 C 327.59 -2.15935 0.88851 0
M  V30 3429 C 328.571 -1.69306 -0.164135 0
M  V30 3430 O 329.756 -1.94193 -0.0167857 0
M  V30 3431 C 326.886 -3.45149 0.385942 0
M  V30 3432 C 325.84 -4.05271 1.3762 0
M  V30 3433 C 325.166 -5.29664 0.732137 0
M  V30 3434 C 326.466 -4.44355 2.74493 0
M  V30 3435 H 328.16 -2.39006 1.80323 0
M  V30 3436 H 325.706 -1.14866 0.868435 0
M  V30 3437 H 327.659 -4.21004 0.182647 0
M  V30 3438 H 326.383 -3.21689 -0.564274 0
M  V30 3439 H 325.042 -3.3147 1.56599 0
M  V30 3440 H 324.69 -5.02499 -0.224483 0
M  V30 3441 H 324.39 -5.70848 1.39307 0
M  V30 3442 H 325.914 -6.08218 0.538802 0
M  V30 3443 H 327.328 -5.11303 2.59311 0
M  V30 3444 H 325.725 -4.96515 3.37035 0
M  V30 3445 H 326.795 -3.55339 3.29943 0
M  V30 3446 N 328.138 -0.959301 -1.25041 0
M  V30 3447 C 329.068 -0.501388 -2.28053 0
M  V30 3448 C 330.049 0.454673 -1.63911 0
M  V30 3449 O 331.234 0.352618 -1.90972 0
M  V30 3450 C 328.364 0.217224 -3.4662 0
M  V30 3451 C 327.318 -0.654034 -4.22973 0
M  V30 3452 C 326.644 0.195589 -5.34342 0
M  V30 3453 C 327.944 -1.93447 -4.85155 0
M  V30 3454 H 329.638 -1.36238 -2.66608 0
M  V30 3455 H 327.184 -0.656534 -1.28163 0
M  V30 3456 H 329.137 0.548732 -4.17812 0
M  V30 3457 H 327.861 1.1125 -3.07068 0
M  V30 3458 H 326.52 -0.968693 -3.5357 0
M  V30 3459 H 326.168 1.09076 -4.91031 0
M  V30 3460 H 325.868 -0.384091 -5.86343 0
M  V30 3461 H 327.392 0.521958 -6.08365 0
M  V30 3462 H 328.806 -1.66908 -5.48466 0
M  V30 3463 H 327.203 -2.46018 -5.47353 0
M  V30 3464 H 328.273 -2.63466 -4.07079 0
M  V30 3465 N 329.616 1.39756 -0.72842 0
M  V30 3466 C 330.579 2.29012 -0.0927297 0
M  V30 3467 C 331.579 1.45992 0.674025 0
M  V30 3468 O 332.769 1.66749 0.50402 0
M  V30 3469 C 329.901 3.29396 0.878137 0
M  V30 3470 H 331.094 2.86729 -0.879011 0
M  V30 3471 H 328.647 1.48293 -0.493847 0
M  V30 3472 H 329.382 2.76722 1.69101 0
M  V30 3473 H 329.167 3.907 0.331051 0
M  V30 3474 H 330.657 3.96199 1.3197 0
M  V30 3475 N 331.094 0.475555 1.50254 0
M  V30 3476 C 332.34 -0.0780073 2.0265 0
M  V30 3477 C 332.673 -1.38968 1.35652 0
M  V30 3478 O 331.948 -1.8839 0.483691 0
M  V30 3479 C 332.231 -0.257161 3.59181 0
M  V30 3480 C 332.084 1.07585 4.36744 0
M  V30 3481 C 333.403 -1.00965 4.28362 0
M  V30 3482 H 330.522 -0.0268758 0.73651 0
M  V30 3483 H 333.164 0.622015 1.7953 0
M  V30 3484 H 331.314 -0.853412 3.79011 0
M  V30 3485 H 332.986 1.70902 4.28474 0
M  V30 3486 H 331.229 1.6714 4.00308 0
M  V30 3487 H 331.9 0.904088 5.44546 0
M  V30 3488 H 334.376 -0.504214 4.13034 0
M  V30 3489 H 333.252 -1.10381 5.37687 0
M  V30 3490 H 333.513 -2.04731 3.91839 0
M  V30 3491 N 332.573 -1.56217 0.208337 0
M  V30 3492 C 333.483 -2.23316 -0.718836 0
M  V30 3493 C 334.499 -1.23648 -1.22422 0
M  V30 3494 O 335.675 -1.56423 -1.26861 0
M  V30 3495 C 332.74 -2.88968 -1.91568 0
M  V30 3496 C 331.801 -4.03943 -1.45357 0
M  V30 3497 C 331.034 -4.66455 -2.59337 0
M  V30 3498 O 331.257 -4.27919 -3.77149 0
M  V30 3499 O 330.191 -5.55686 -2.31293 0
M  V30 3500 H 334.017 -3.03182 -0.177315 0
M  V30 3501 H 331.602 -1.49384 -0.0215402 0
M  V30 3502 H 333.484 -3.30455 -2.61491 0
M  V30 3503 H 332.159 -2.12071 -2.44556 0
M  V30 3504 H 331.066 -3.67052 -0.722746 0
M  V30 3505 H 332.399 -4.82543 -0.970219 0
M  V30 3506 N 334.051 0.0651679 -1.57465 0
M  V30 3507 C 335.014 1.06117 -2.03155 0
M  V30 3508 C 336.014 1.31204 -0.929632 0
M  V30 3509 O 337.204 1.26813 -1.19432 0
M  V30 3510 C 334.336 2.4032 -2.41783 0
M  V30 3511 H 335.529 0.667231 -2.92383 0
M  V30 3512 H 333.082 0.311075 -1.53173 0
M  V30 3513 H 333.817 2.84532 -1.55601 0
M  V30 3514 H 333.602 2.23451 -3.22199 0
M  V30 3515 H 335.092 3.11898 -2.77685 0
M  V30 3516 N 335.529 1.53961 0.336706 0
M  V30 3517 C 336.769 1.73254 1.08454 0
M  V30 3518 C 337.133 0.488937 1.8567 0
M  V30 3519 O 338.334 0.559001 2.62923 0
M  V30 3520 C 336.605 2.96519 1.99528 0
M  V30 3521 S 338.164 3.36655 2.81441 0
M  V30 3522 H 334.982 0.609353 0.366347 0
M  V30 3523 H 337.584 1.92117 0.362124 0
M  V30 3524 H 336.288 3.85193 1.41614 0
M  V30 3525 H 335.819 2.80142 2.76196 0
M  V30 3526 H 337.834 2.90925 4.01967 0
M  V30 3527 N 337.007 -0.598083 1.45811 0
M  V30 3528 C 338.253 -1.35882 1.50545 0
M  V30 3529 C 338.586 -1.93616 0.150445 0
M  V30 3530 O 337.861 -1.75604 -0.83628 0
M  V30 3531 C 338.144 -2.49966 2.59208 0
M  V30 3532 C 337.997 -1.97367 4.04186 0
M  V30 3533 C 339.316 -3.52068 2.64076 0
M  V30 3534 H 336.435 -0.492717 0.548087 0
M  V30 3535 H 339.077 -0.673319 1.77669 0
M  V30 3536 H 337.227 -3.08443 2.3621 0
M  V30 3537 H 338.899 -1.43466 4.38423 0
M  V30 3538 H 337.142 -1.283 4.14393 0
M  V30 3539 H 337.813 -2.79649 4.75921 0
M  V30 3540 H 340.289 -3.03448 2.84708 0
M  V30 3541 H 339.165 -4.2937 3.41954 0
M  V30 3542 H 339.426 -4.08304 1.69531 0
M  V30 3543 N 338.485 -1.33259 -0.841409 0
M  V30 3544 C 339.433 -1.23279 -1.97244 0
M  V30 3545 C 340.427 -0.134706 -1.68864 0
M  V30 3546 O 341.633 -0.298501 -1.77508 0
M  V30 3547 H 338.008 -0.382497 -0.647457 0
M  V30 3548 H 339.979 -2.18906 -2.02787 0
M  V30 3549 C 338.728 -0.986268 -3.33419 0
M  V30 3550 H 338.051 -1.82347 -3.55794 0
M  V30 3551 H 339.491 -0.956728 -4.13065 0
M  V30 3552 C 337.95 0.310842 -3.35463 0
M  V30 3553 O 338.48 1.31838 -3.79449 0
M  V30 3554 N 336.686 0.337485 -2.88634 0
M  V30 3555 H 336.233 -0.482967 -2.53032 0
M  V30 3556 H 336.191 1.20518 -2.90384 0
M  V30 3557 N 339.963 1.05934 -1.16686 0
M  V30 3558 C 341.212 1.78188 -0.945085 0
M  V30 3559 C 341.525 1.88338 0.528021 0
M  V30 3560 O 342.731 2.57258 0.867799 0
M  V30 3561 C 341.187 3.20277 -1.64167 0
M  V30 3562 C 340.795 3.18281 -3.15279 0
M  V30 3563 C 342.539 3.97039 -1.502 0
M  V30 3564 C 340.446 4.55112 -3.7766 0
M  V30 3565 H 339.376 0.667866 -0.349959 0
M  V30 3566 H 342.027 1.18794 -1.39858 0
M  V30 3567 H 340.409 3.79952 -1.11589 0
M  V30 3568 H 341.583 2.68167 -3.74731 0
M  V30 3569 H 339.898 2.55018 -3.29173 0
M  V30 3570 H 342.495 4.98194 -1.94183 0
M  V30 3571 H 342.838 4.13845 -0.451461 0
M  V30 3572 H 343.371 3.43894 -1.99954 0
M  V30 3573 H 340.11 4.43512 -4.82677 0
M  V30 3574 H 339.63 5.05406 -3.22994 0
M  V30 3575 H 341.309 5.24064 -3.79428 0
M  V30 3576 N 341.441 0.965919 1.2453 0
M  V30 3577 C 342.404 0.499547 2.2369 0
M  V30 3578 C 343.404 -0.40294 1.5567 0
M  V30 3579 O 344.594 -0.19865 1.73064 0
M  V30 3580 C 341.726 -0.276792 3.39774 0
M  V30 3581 H 342.919 1.37613 2.66463 0
M  V30 3582 H 340.472 0.750324 1.37112 0
M  V30 3583 H 341.207 -1.17055 3.02438 0
M  V30 3584 H 340.992 0.370826 3.90343 0
M  V30 3585 H 342.482 -0.592175 4.1338 0
M  V30 3586 N 342.919 -1.39368 0.735821 0
M  V30 3587 C 343.851 -2.2913 0.0567723 0
M  V30 3588 C 344.864 -1.46859 -0.702589 0
M  V30 3589 O 346.053 -1.69925 -0.546616 0
M  V30 3590 C 343.153 -3.25492 -0.943823 0
M  V30 3591 C 342.326 -4.36709 -0.24581 0
M  V30 3592 C 341.385 -5.13376 -1.15463 0
M  V30 3593 O 340.411 -5.65683 -0.631803 0
M  V30 3594 N 341.613 -5.24656 -2.48427 0
M  V30 3595 H 344.378 -2.88047 0.827582 0
M  V30 3596 H 341.939 -1.50957 0.585112 0
M  V30 3597 H 343.931 -3.73657 -1.55443 0
M  V30 3598 H 342.501 -2.676 -1.61583 0
M  V30 3599 H 341.721 -3.9041 0.545286 0
M  V30 3600 H 343.009 -5.08244 0.237891 0
M  V30 3601 H 342.407 -4.83679 -2.93379 0
M  V30 3602 H 340.964 -5.76258 -3.04582 0
M  V30 3603 N 344.397 -0.483516 -1.5 0
M  V30 3604 C 345.327 0.293829 -2.31644 0
M  V30 3605 C 346.308 0.978864 -1.39112 0
M  V30 3606 O 347.493 0.973644 -1.68029 0
M  V30 3607 C 344.623 1.36897 -3.19181 0
M  V30 3608 C 343.577 0.804833 -4.20365 0
M  V30 3609 C 342.903 1.9792 -4.96721 0
M  V30 3610 C 344.203 -0.192313 -5.21946 0
M  V30 3611 H 345.897 -0.387616 -2.9688 0
M  V30 3612 H 343.443 -0.187856 -1.42769 0
M  V30 3613 H 345.396 1.92037 -3.751 0
M  V30 3614 H 344.12 2.07936 -2.51853 0
M  V30 3615 H 342.779 0.275319 -3.65565 0
M  V30 3616 H 342.427 2.67686 -4.25856 0
M  V30 3617 H 342.127 1.60789 -5.65173 0
M  V30 3618 H 343.651 2.53526 -5.55479 0
M  V30 3619 H 345.065 0.270333 -5.72662 0
M  V30 3620 H 343.462 -0.478543 -5.98189 0
M  V30 3621 H 344.532 -1.11409 -4.71928 0
M  V30 3622 N 345.875 1.56104 -0.216619 0
M  V30 3623 C 346.805 2.23063 0.690296 0
M  V30 3624 C 347.786 1.20072 1.20485 0
M  V30 3625 O 348.971 1.48643 1.24976 0
M  V30 3626 C 346.101 2.90672 1.90072 0
M  V30 3627 C 345.055 4.00092 1.5202 0
M  V30 3628 C 344.381 4.54972 2.80899 0
M  V30 3629 C 345.681 5.17398 0.71391 0
M  V30 3630 H 347.375 2.99109 0.132038 0
M  V30 3631 H 344.921 1.43866 0.0620664 0
M  V30 3632 H 346.874 3.36204 2.54057 0
M  V30 3633 H 345.598 2.12066 2.48386 0
M  V30 3634 H 344.257 3.55283 0.903839 0
M  V30 3635 H 343.905 3.73102 3.37348 0
M  V30 3636 H 343.605 5.28817 2.56176 0
M  V30 3637 H 345.129 5.0322 3.45836 0
M  V30 3638 H 346.543 5.59342 1.25735 0
M  V30 3639 H 344.94 5.97444 0.563951 0
M  V30 3640 H 346.01 4.84088 -0.280527 0
M  V30 3641 N 347.353 -0.0568162 1.57498 0
M  V30 3642 C 348.764 -0.606858 1.76562 0
M  V30 3643 C 349.115 -1.77114 0.844094 0
M  V30 3644 O 348.24 -2.16376 0.0318911 0
M  V30 3645 C 348.835 -1.10766 3.20182 0
M  V30 3646 C 347.394 -1.60344 3.40539 0
M  V30 3647 C 346.541 -0.529311 2.72201 0
M  V30 3648 H 349.492 0.169393 1.57793 0
M  V30 3649 H 349.513 -1.97602 3.25167 0
M  V30 3650 H 349.025 -0.26006 3.87228 0
M  V30 3651 H 347.126 -2.47379 2.78629 0
M  V30 3652 H 347.239 -1.67006 4.4905 0
M  V30 3653 H 345.603 -0.977893 2.35179 0
M  V30 3654 H 346.386 0.308352 3.41912 0
M  V30 3655 N 348.832 -1.54138 -0.328536 0
M  V30 3656 C 349.764 -1.79509 -1.4251 0
M  V30 3657 C 350.777 -0.67688 -1.48061 0
M  V30 3658 O 351.966 -0.953898 -1.50874 0
M  V30 3659 C 349.066 -1.89337 -2.81078 0
M  V30 3660 C 348.239 -3.19443 -2.98789 0
M  V30 3661 C 347.298 -3.20036 -4.17688 0
M  V30 3662 O 346.324 -3.93697 -4.11086 0
M  V30 3663 N 347.526 -2.43467 -5.26976 0
M  V30 3664 H 350.291 -2.74139 -1.21111 0
M  V30 3665 H 347.852 -1.53373 -0.518499 0
M  V30 3666 H 349.844 -1.87167 -3.58818 0
M  V30 3667 H 348.414 -1.01826 -2.95551 0
M  V30 3668 H 347.634 -3.34614 -2.08391 0
M  V30 3669 H 348.922 -4.05354 -3.07515 0
M  V30 3670 H 348.32 -1.83201 -5.35214 0
M  V30 3671 H 346.877 -2.4708 -6.03154 0
M  V30 3672 N 350.31 0.590341 -1.46126 0
M  V30 3673 C 351.22 1.72793 -1.58681 0
M  V30 3674 C 352.236 1.67516 -0.470566 0
M  V30 3675 O 353.412 1.87562 -0.733642 0
M  V30 3676 C 350.477 3.09287 -1.5666 0
M  V30 3677 C 349.538 3.25886 -2.79458 0
M  V30 3678 C 348.771 4.55869 -2.77524 0
M  V30 3679 O 348.994 5.3928 -1.85832 0
M  V30 3680 O 347.928 4.75552 -3.68964 0
M  V30 3681 H 351.754 1.65149 -2.54872 0
M  V30 3682 H 349.339 0.756486 -1.28832 0
M  V30 3683 H 351.221 3.90577 -1.58202 0
M  V30 3684 H 349.896 3.17385 -0.636271 0
M  V30 3685 H 348.803 2.44119 -2.83472 0
M  V30 3686 H 350.136 3.22675 -3.71674 0
M  V30 3687 N 351.788 1.33704 0.83433 0
M  V30 3688 C 353.065 1.16011 1.57483 0
M  V30 3689 C 353.445 -0.27176 2.09343 0
M  V30 3690 O 352.793 -1.27146 1.89858 0
M  V30 3691 C 353.003 2.20507 2.70514 0
M  V30 3692 C 354.351 2.54898 3.39577 0
M  V30 3693 O 355.375 2.19209 2.80759 0
M  V30 3694 O 354.234 3.16158 4.45765 0
M  V30 3695 H 351.328 0.448992 0.694503 0
M  V30 3696 H 353.874 1.453 0.876691 0
M  V30 3697 H 352.646 3.16667 2.29865 0
M  V30 3698 H 352.269 1.92329 3.47987 0
M  V30 3699 N 353.266 -1.05314 1.17247 0
M  V30 3700 C 354.196 -2.1498 0.911362 0
M  V30 3701 C 355.177 -1.69471 -0.146169 0
M  V30 3702 O 356.362 -1.942 0.003812 0
M  V30 3703 C 353.492 -3.4472 0.422528 0
M  V30 3704 C 352.446 -4.03789 1.4191 0
M  V30 3705 C 351.772 -5.28858 0.788274 0
M  V30 3706 C 353.072 -4.41418 2.7919 0
M  V30 3707 H 354.766 -2.3708 1.82848 0
M  V30 3708 H 352.312 -1.13938 0.880569 0
M  V30 3709 H 354.265 -4.20787 0.227289 0
M  V30 3710 H 352.989 -3.22269 -0.530123 0
M  V30 3711 H 351.648 -3.2979 1.60106 0
M  V30 3712 H 351.296 -5.02709 -0.171173 0
M  V30 3713 H 350.996 -5.69338 1.45353 0
M  V30 3714 H 352.52 -6.07612 0.603282 0
M  V30 3715 H 353.934 -5.08524 2.64719 0
M  V30 3716 H 352.331 -4.92913 3.42282 0
M  V30 3717 H 353.401 -3.51819 3.33693 0
M  V30 3718 N 354.744 -0.972509 -1.24016 0
M  V30 3719 C 355.654 -0.5143 -2.28893 0
M  V30 3720 C 356.67 0.427078 -1.68677 0
M  V30 3721 O 357.846 0.298939 -1.99169 0
M  V30 3722 C 354.911 0.183598 -3.46214 0
M  V30 3723 C 353.972 -0.798202 -4.21814 0
M  V30 3724 C 353.205 -0.133514 -5.33533 0
M  V30 3725 O 353.428 1.07714 -5.60137 0
M  V30 3726 O 352.362 -0.828103 -5.96176 0
M  V30 3727 H 356.188 -1.38629 -2.70214 0
M  V30 3728 H 353.773 -0.739769 -1.29799 0
M  V30 3729 H 355.655 0.575433 -4.17453 0
M  V30 3730 H 354.33 1.03048 -3.0686 0
M  V30 3731 H 353.237 -1.24059 -3.52931 0
M  V30 3732 H 354.57 -1.61364 -4.64997 0
M  V30 3733 N 356.222 1.38976 -0.743202 0
M  V30 3734 C 357.185 2.28901 -0.117014 0
M  V30 3735 C 358.185 1.46698 0.658503 0
M  V30 3736 O 359.375 1.67274 0.486305 0
M  V30 3737 C 356.507 3.30309 0.84315 0
M  V30 3738 H 357.7 2.8578 -0.909373 0
M  V30 3739 H 355.253 1.47761 -0.509547 0
M  V30 3740 H 355.988 2.785 1.66157 0
M  V30 3741 H 355.773 3.91029 0.289594 0
M  V30 3742 H 357.263 3.97577 1.2776 0
M  V30 3743 N 357.7 0.491464 1.49741 0
M  V30 3744 C 358.63 -0.28154 2.31796 0
M  V30 3745 C 359.611 -0.971473 1.3963 0
M  V30 3746 O 360.796 -0.964719 1.68543 0
M  V30 3747 C 357.926 -1.35203 3.19902 0
M  V30 3748 C 356.88 -0.782529 4.20786 0
M  V30 3749 C 356.206 -1.95283 4.97764 0
M  V30 3750 C 357.506 0.21999 5.21837 0
M  V30 3751 H 359.2 0.403355 2.96671 0
M  V30 3752 H 356.746 0.195425 1.42668 0
M  V30 3753 H 358.699 -1.90045 3.76113 0
M  V30 3754 H 357.423 -2.06598 2.52953 0
M  V30 3755 H 356.082 -0.255928 3.65706 0
M  V30 3756 H 355.73 -2.65423 4.2727 0
M  V30 3757 H 355.43 -1.57789 5.66018 0
M  V30 3758 H 356.954 -2.50577 5.56816 0
M  V30 3759 H 358.368 -0.23996 5.72798 0
M  V30 3760 H 356.765 0.51026 5.97927 0
M  V30 3761 H 357.835 1.13911 4.7133 0
M  V30 3762 N 359.178 -1.55987 0.224894 0
M  V30 3763 C 360.424 -1.98684 -0.406502 0
M  V30 3764 C 360.757 -1.11248 -1.59177 0
M  V30 3765 O 360.032 -0.170909 -1.93748 0
M  V30 3766 C 360.315 -3.50218 -0.837808 0
M  V30 3767 C 360.168 -4.48426 0.351332 0
M  V30 3768 C 361.487 -4.06243 -1.69278 0
M  V30 3769 H 358.606 -0.722337 -0.146283 0
M  V30 3770 H 361.248 -1.87255 0.321799 0
M  V30 3771 H 359.398 -3.60089 -1.45837 0
M  V30 3772 H 361.07 -4.50562 0.989526 0
M  V30 3773 H 359.313 -4.22159 0.998207 0
M  V30 3774 H 359.984 -5.52 0.00655905 0
M  V30 3775 H 362.46 -3.99337 -1.16914 0
M  V30 3776 H 361.336 -5.12581 -1.96346 0
M  V30 3777 H 361.597 -3.53332 -2.65723 0
M  V30 3778 N 360.656 0.0484629 -1.57525 0
M  V30 3779 C 361.589 1.08755 -2.00618 0
M  V30 3780 C 362.567 1.36272 -0.887058 0
M  V30 3781 O 363.751 1.49255 -1.15131 0
M  V30 3782 C 360.878 2.42675 -2.36277 0
M  V30 3783 C 359.924 2.31142 -3.58435 0
M  V30 3784 S 360.757 1.68326 -5.08357 0
M  V30 3785 C 361.913 3.03776 -5.47239 0
M  V30 3786 H 362.146 0.720415 -2.88439 0
M  V30 3787 H 359.679 0.257801 -1.52233 0
M  V30 3788 H 361.637 3.19699 -2.57494 0
M  V30 3789 H 360.298 2.76541 -1.48942 0
M  V30 3790 H 359.491 3.29957 -3.80978 0
M  V30 3791 H 359.093 1.62258 -3.36969 0
M  V30 3792 H 361.385 4.00106 -5.46737 0
M  V30 3793 H 362.328 2.85988 -6.47778 0
M  V30 3794 H 362.736 3.05456 -4.74718 0
M  V30 3795 N 362.134 1.5431 0.320358 0
M  V30 3796 C 363.545 1.63872 0.894594 0
M  V30 3797 C 363.896 0.534847 1.88769 0
M  V30 3798 O 363.021 -0.331732 2.13842 0
M  V30 3799 C 363.616 2.97049 1.62934 0
M  V30 3800 C 362.175 3.08796 2.15226 0
M  V30 3801 C 361.322 2.59456 0.978671 0
M  V30 3802 H 364.273 1.58398 0.0978544 0
M  V30 3803 H 364.294 2.87388 2.49376 0
M  V30 3804 H 363.806 3.7737 0.906302 0
M  V30 3805 H 361.907 2.33156 2.90636 0
M  V30 3806 H 362.02 4.14649 2.40006 0
M  V30 3807 H 360.384 2.1543 1.35875 0
M  V30 3808 H 361.167 3.42237 0.269895 0
M  V30 3809 N 363.613 -0.582584 1.46437 0
M  V30 3810 C 364.841 -1.36682 1.55324 0
M  V30 3811 C 365.256 -1.87796 0.194409 0
M  V30 3812 O 364.613 -1.63623 -0.808318 0
M  V30 3813 C 364.664 -2.55426 2.55812 0
M  V30 3814 O 364.385 -2.0643 3.86417 0
M  V30 3815 C 365.886 -3.47976 2.74641 0
M  V30 3816 H 363.106 -0.417545 0.525259 0
M  V30 3817 H 365.65 -0.708219 1.91845 0
M  V30 3818 H 363.805 -3.17275 2.22295 0
M  V30 3819 H 364.219 -2.83762 4.41111 0
M  V30 3820 H 365.693 -4.27775 3.48874 0
M  V30 3821 H 366.17 -3.99919 1.81553 0
M  V30 3822 H 366.776 -2.91962 3.09255 0
M  V30 3823 N 365.091 -1.34144 -0.827227 0
M  V30 3824 C 366.021 -1.28005 -1.95287 0
M  V30 3825 C 367.002 -0.158321 -1.69362 0
M  V30 3826 O 368.187 -0.349987 -1.9102 0
M  V30 3827 C 365.317 -1.03036 -3.31664 0
M  V30 3828 C 364.271 -2.11628 -3.72019 0
M  V30 3829 C 363.597 -1.71854 -5.0633 0
M  V30 3830 C 364.897 -3.53417 -3.8457 0
M  V30 3831 H 366.591 -2.22187 -2.00682 0
M  V30 3832 H 364.137 -1.0696 -0.964135 0
M  V30 3833 H 366.09 -0.973863 -4.09993 0
M  V30 3834 H 364.814 -0.0529391 -3.26557 0
M  V30 3835 H 363.473 -2.16339 -2.95961 0
M  V30 3836 H 363.121 -0.727841 -4.97706 0
M  V30 3837 H 362.821 -2.44531 -5.34302 0
M  V30 3838 H 364.345 -1.67692 -5.87122 0
M  V30 3839 H 365.759 -3.51142 -4.5318 0
M  V30 3840 H 364.156 -4.24679 -4.2399 0
M  V30 3841 H 365.226 -3.91072 -2.86689 0
M  V30 3842 N 366.569 1.04691 -1.17803 0
M  V30 3843 C 367.985 1.29963 -0.926379 0
M  V30 3844 C 368.185 1.97251 0.411635 0
M  V30 3845 O 367.241 2.24922 1.14744 0
M  V30 3846 C 368.554 2.16447 -2.08737 0
M  V30 3847 C 370.102 2.29814 -2.12496 0
M  V30 3848 C 370.577 3.19661 -3.27995 0
M  V30 3849 N 372.068 3.27247 -3.27816 0
M  V30 3850 C 372.803 3.96906 -4.13827 0
M  V30 3851 N 372.299 4.6895 -5.09959 0
M  V30 3852 N 374.092 3.93122 -4.01761 0
M  V30 3853 H 366.243 0.594182 -2.0392 0
M  V30 3854 H 368.506 0.324649 -0.890678 0
M  V30 3855 H 368.212 1.74304 -3.05469 0
M  V30 3856 H 368.086 3.17103 -2.04268 0
M  V30 3857 H 370.473 2.71196 -1.16347 0
M  V30 3858 H 370.554 1.2877 -2.21025 0
M  V30 3859 H 370.198 2.78991 -4.24413 0
M  V30 3860 H 370.128 4.20722 -3.16703 0
M  V30 3861 H 372.619 2.75921 -2.58217 0
M  V30 3862 H 372.932 5.19679 -5.71974 0
M  V30 3863 H 371.277 4.67875 -5.13924 0
M  V30 3864 H 374.468 3.35967 -3.2595 0
M  V30 3865 H 374.641 4.47139 -4.6901 0
M  V30 3866 N 368.047 0.979072 1.23499 0
M  V30 3867 C 368.979 0.476271 2.24197 0
M  V30 3868 C 369.992 -0.421166 1.57258 0
M  V30 3869 O 371.181 -0.225515 1.7707 0
M  V30 3870 C 368.281 -0.330503 3.37285 0
M  V30 3871 C 367.454 0.559744 4.33804 0
M  V30 3872 C 366.513 -0.192954 5.25846 0
M  V30 3873 O 365.539 0.416978 5.67671 0
M  V30 3874 N 366.741 -1.47932 5.61334 0
M  V30 3875 H 369.506 1.34211 2.67969 0
M  V30 3876 H 367.067 0.852189 1.37657 0
M  V30 3877 H 369.059 -0.842361 3.95836 0
M  V30 3878 H 367.629 -1.09734 2.92707 0
M  V30 3879 H 366.849 1.25245 3.73775 0
M  V30 3880 H 368.137 1.1665 4.95248 0
M  V30 3881 H 367.535 -1.9964 5.29302 0
M  V30 3882 H 366.092 -1.93664 6.22364 0
M  V30 3883 N 369.525 -1.3858 0.750561 0
M  V30 3884 C 370.488 -2.28836 0.129152 0
M  V30 3885 C 371.488 -1.47045 -0.650714 0
M  V30 3886 O 372.678 -1.6753 -0.477428 0
M  V30 3887 C 369.81 -3.30751 -0.825622 0
M  V30 3888 H 371.003 -2.85294 0.924516 0
M  V30 3889 H 368.556 -1.47489 0.517376 0
M  V30 3890 H 369.291 -2.79378 -1.64677 0
M  V30 3891 H 369.076 -3.91177 -0.268852 0
M  V30 3892 H 370.566 -3.98249 -1.2565 0
M  V30 3893 N 371.003 -0.499398 -1.49478 0
M  V30 3894 C 371.966 0.268838 -2.27618 0
M  V30 3895 C 372.966 0.895383 -1.33565 0
M  V30 3896 O 374.156 0.760164 -1.56739 0
M  V30 3897 C 371.288 1.38559 -3.11471 0
M  V30 3898 H 372.481 -0.416812 -2.96989 0
M  V30 3899 H 370.034 -0.254313 -1.54217 0
M  V30 3900 H 370.769 2.10544 -2.46661 0
M  V30 3901 H 370.554 0.941797 -3.80621 0
M  V30 3902 H 372.044 1.92678 -3.70493 0
M  V30 3903 N 372.481 1.55866 -0.233164 0
M  V30 3904 C 373.391 2.24431 0.683217 0
M  V30 3905 C 374.407 1.2558 1.2044 0
M  V30 3906 O 375.583 1.58422 1.24356 0
M  V30 3907 C 372.648 2.91979 1.86947 0
M  V30 3908 C 371.709 4.06204 1.38912 0
M  V30 3909 C 370.942 4.70522 2.51883 0
M  V30 3910 O 371.165 4.33865 3.70293 0
M  V30 3911 O 370.099 5.59296 2.22423 0
M  V30 3912 H 373.925 3.03426 0.129059 0
M  V30 3913 H 371.51 1.494 -0.0022283 0
M  V30 3914 H 373.392 3.34573 2.56201 0
M  V30 3915 H 372.067 2.15935 2.41151 0
M  V30 3916 H 370.974 3.68155 0.664259 0
M  V30 3917 H 372.307 4.84025 0.893328 0
M  V30 3918 N 373.959 -0.0401083 1.57549 0
M  V30 3919 C 375.236 -0.767917 1.79896 0
M  V30 3920 C 375.616 -1.9416 0.82856 0
M  V30 3921 O 374.964 -2.2812 -0.131671 0
M  V30 3922 C 375.174 -1.2113 3.27305 0
M  V30 3923 C 376.522 -1.63175 3.91994 0
M  V30 3924 O 377.546 -1.30616 3.31388 0
M  V30 3925 O 376.405 -2.23565 4.98679 0
M  V30 3926 H 373.499 -0.370441 0.739393 0
M  V30 3927 H 376.045 -0.017737 1.69691 0
M  V30 3928 H 374.817 -0.372937 3.89519 0
M  V30 3929 H 374.44 -2.02183 3.42356 0
M  V30 3930 N 375.437 -1.54477 -0.31217 0
M  V30 3931 C 376.384 -1.84655 -1.38461 0
M  V30 3932 C 377.354 -0.694536 -1.50882 0
M  V30 3933 O 378.539 -0.942081 -1.6592 0
M  V30 3934 C 375.679 -2.0896 -2.74645 0
M  V30 3935 C 374.792 -3.36618 -2.70763 0
M  V30 3936 C 373.927 -3.50824 -3.98868 0
M  V30 3937 C 372.966 -4.72315 -3.89339 0
M  V30 3938 N 372.103 -4.83387 -5.09197 0
M  V30 3939 H 376.943 -2.76142 -1.12026 0
M  V30 3940 H 374.48 -1.36748 -0.542065 0
M  V30 3941 H 376.438 -2.21045 -3.53829 0
M  V30 3942 H 375.068 -1.20752 -2.99364 0
M  V30 3943 H 374.12 -3.33211 -1.83506 0
M  V30 3944 H 375.432 -4.25917 -2.59608 0
M  V30 3945 H 374.586 -3.62513 -4.86486 0
M  V30 3946 H 373.325 -2.59638 -4.12843 0
M  V30 3947 H 372.33 -4.6067 -3.00105 0
M  V30 3948 H 373.555 -5.64897 -3.76919 0
M  V30 3949 H 371.501 -3.9512 -5.23657 0
M  V30 3950 H 371.418 -5.66669 -5.00422 0
M  V30 3951 H 372.686 -4.9942 -5.98498 0
M  V30 3952 N 376.915 0.57481 -1.46744 0
M  V30 3953 C 378.14 1.36341 -1.56288 0
M  V30 3954 C 378.565 1.86954 -0.207347 0
M  V30 3955 O 377.923 1.62006 0.813871 0
M  V30 3956 C 377.971 2.52147 -2.57787 0
M  V30 3957 O 377.075 3.53834 -2.11838 0
M  V30 3958 H 376.416 0.405713 -0.525636 0
M  V30 3959 H 378.946 0.696453 -1.92382 0
M  V30 3960 H 378.956 2.98958 -2.77648 0
M  V30 3961 H 377.631 2.14663 -3.5622 0
M  V30 3962 H 376.208 3.1345 -2.01999 0
M  V30 3963 N 378.394 1.34581 0.820102 0
M  V30 3964 C 379.64 1.28294 1.57836 0
M  V30 3965 C 379.995 -0.145099 1.91852 0
M  V30 3966 O 379.288 -1.09209 1.57429 0
M  V30 3967 C 379.482 2.10997 2.8847 0
M  V30 3968 C 379.311 3.61698 2.67216 0
M  V30 3969 C 378.081 4.3097 2.63805 0
M  V30 3970 C 380.279 4.55638 2.38534 0
M  V30 3971 N 378.261 5.67502 2.34126 0
M  V30 3972 C 379.632 5.80194 2.18574 0
M  V30 3973 C 381.687 4.44523 2.24285 0
M  V30 3974 C 380.39 6.94886 1.8581 0
M  V30 3975 C 382.416 5.5905 1.92916 0
M  V30 3976 C 381.778 6.82627 1.73782 0
M  V30 3977 H 377.877 0.524697 0.579842 0
M  V30 3978 H 380.461 1.69323 0.961139 0
M  V30 3979 H 378.632 1.7226 3.48111 0
M  V30 3980 H 380.364 1.96333 3.53886 0
M  V30 3981 H 377.119 3.83438 2.77978 0
M  V30 3982 H 377.543 6.39525 2.22118 0
M  V30 3983 H 382.185 3.49599 2.37782 0
M  V30 3984 H 379.903 7.89789 1.7105 0
M  V30 3985 H 383.489 5.52396 1.82619 0
M  V30 3986 H 382.369 7.69748 1.49861 0
M  V30 3987 N 379.872 -1.04064 1.18357 0
M  V30 3988 C 381.288 -1.2947 0.933258 0
M  V30 3989 C 381.488 -1.97466 -0.401169 0
M  V30 3990 O 380.544 -2.25528 -1.13549 0
M  V30 3991 C 381.857 -2.15337 2.09882 0
M  V30 3992 C 383.405 -2.28683 2.13712 0
M  V30 3993 C 383.88 -3.17917 3.29686 0
M  V30 3994 N 385.371 -3.25504 3.29547 0
M  V30 3995 C 386.106 -3.94706 4.15926 0
M  V30 3996 N 385.602 -4.66239 5.12439 0
M  V30 3997 N 387.395 -3.90986 4.0384 0
M  V30 3998 H 379.546 -0.583359 2.04232 0
M  V30 3999 H 381.809 -0.319921 0.892387 0
M  V30 4000 H 381.515 -1.72682 3.06389 0
M  V30 4001 H 381.389 -3.16015 2.05947 0
M  V30 4002 H 383.776 -2.70575 1.17784 0
M  V30 4003 H 383.857 -1.27596 2.21705 0
M  V30 4004 H 383.501 -2.76736 4.25887 0
M  V30 4005 H 383.431 -4.19036 3.1893 0
M  V30 4006 H 385.922 -2.74547 2.59677 0
M  V30 4007 H 386.235 -5.16638 5.74722 0
M  V30 4008 H 384.58 -4.65143 5.16398 0
M  V30 4009 H 387.771 -3.34234 3.27727 0
M  V30 4010 H 387.944 -4.44646 4.71375 0
M  V30 4011 N 381.35 -0.985608 -1.22978 0
M  V30 4012 C 382.596 -0.65836 -1.91816 0
M  V30 4013 C 382.929 0.806692 -1.76653 0
M  V30 4014 O 382.204 1.58252 -1.13078 0
M  V30 4015 C 382.487 -1.056 -3.44268 0
M  V30 4016 C 382.34 -2.57906 -3.68516 0
M  V30 4017 C 383.659 -0.603781 -4.35939 0
M  V30 4018 H 380.778 -0.24065 -0.696604 0
M  V30 4019 H 383.42 -1.22783 -1.44998 0
M  V30 4020 H 381.57 -0.571445 -3.84274 0
M  V30 4021 H 383.242 -3.13976 -3.3796 0
M  V30 4022 H 381.485 -3.00305 -3.13048 0
M  V30 4023 H 382.156 -2.80779 -4.75255 0
M  V30 4024 H 384.632 -1.01987 -4.03408 0
M  V30 4025 H 383.508 -0.910383 -5.41298 0
M  V30 4026 H 383.769 0.495761 -4.39312 0
M  V30 4027 N 382.828 1.3818 -0.7579 0
M  V30 4028 C 384.244 1.5353 -0.435972 0
M  V30 4029 C 384.444 1.71961 1.05032 0
M  V30 4030 O 383.5 1.73307 1.83633 0
M  V30 4031 C 384.813 2.73989 -1.23898 0
M  V30 4032 C 386.361 2.87841 -1.22949 0
M  V30 4033 C 386.836 4.11266 -2.01554 0
M  V30 4034 N 388.327 4.18352 -1.98837 0
M  V30 4035 C 389.062 5.12856 -2.5645 0
M  V30 4036 N 388.558 6.13005 -3.22794 0
M  V30 4037 N 390.351 5.05238 -2.46356 0
M  V30 4038 H 382.502 1.24467 -1.7211 0
M  V30 4039 H 384.765 0.604982 -0.729864 0
M  V30 4040 H 384.471 2.66789 -2.29165 0
M  V30 4041 H 384.345 3.67294 -0.858764 0
M  V30 4042 H 386.732 2.9452 -0.184854 0
M  V30 4043 H 386.813 1.95534 -1.64924 0
M  V30 4044 H 386.457 4.05349 -3.06031 0
M  V30 4045 H 386.387 5.02661 -1.5697 0
M  V30 4046 H 388.878 3.46628 -1.50524 0
M  V30 4047 H 389.191 6.81619 -3.64165 0
M  V30 4048 H 387.536 6.13325 -3.2689 0
M  V30 4049 H 390.727 4.25938 -1.9415 0
M  V30 4050 H 390.9 5.78707 -2.91552 0
M  V30 4051 N 384.306 0.507319 1.49211 0
M  V30 4052 C 385.536 -0.0315292 2.06576 0
M  V30 4053 C 385.944 -1.30791 1.36713 0
M  V30 4054 O 385.287 -1.78324 0.441181 0
M  V30 4055 C 385.349 -0.349104 3.57801 0
M  V30 4056 C 385.013 0.830475 4.49391 0
M  V30 4057 C 386.01 1.72271 4.90529 0
M  V30 4058 C 383.695 1.03107 4.91604 0
M  V30 4059 C 385.689 2.79964 5.72625 0
M  V30 4060 C 383.376 2.11116 5.73475 0
M  V30 4061 C 384.374 2.99379 6.1389 0
M  V30 4062 O 384.062 4.05523 6.94123 0
M  V30 4063 H 383.794 0.0201002 0.675701 0
M  V30 4064 H 386.348 0.705737 1.92895 0
M  V30 4065 H 384.578 -1.14005 3.69513 0
M  V30 4066 H 386.267 -0.827319 3.97379 0
M  V30 4067 H 387.033 1.57958 4.58557 0
M  V30 4068 H 382.912 0.353417 4.59643 0
M  V30 4069 H 386.456 3.48884 6.04091 0
M  V30 4070 H 382.353 2.25421 6.0486 0
M  V30 4071 H 383.121 4.02953 7.1244 0
M  V30 4072 N 385.784 -1.5574 0.241426 0
M  V30 4073 C 386.717 -2.17168 -0.700935 0
M  V30 4074 C 387.695 -1.12206 -1.1768 0
M  V30 4075 O 388.879 -1.40565 -1.25593 0
M  V30 4076 C 386.006 -2.76796 -1.95196 0
M  V30 4077 C 385.052 -3.94764 -1.61442 0
M  V30 4078 S 385.885 -5.30613 -0.72182 0
M  V30 4079 C 387.041 -5.93691 -1.98197 0
M  V30 4080 H 387.274 -2.96761 -0.178882 0
M  V30 4081 H 384.807 -1.54378 0.0259299 0
M  V30 4082 H 386.765 -3.11787 -2.67019 0
M  V30 4083 H 385.426 -1.9716 -2.44514 0
M  V30 4084 H 384.619 -4.35057 -2.54443 0
M  V30 4085 H 384.221 -3.61022 -0.976672 0
M  V30 4086 H 386.513 -6.10874 -2.92983 0
M  V30 4087 H 387.456 -6.89258 -1.62262 0
M  V30 4088 H 387.864 -5.22709 -2.13156 0
M  V30 4089 N 387.262 0.0317525 -1.57568 0
M  V30 4090 C 388.508 0.724175 -1.8943 0
M  V30 4091 C 388.841 1.75149 -0.838836 0
M  V30 4092 O 388.116 1.93948 0.146422 0
M  V30 4093 C 388.399 1.39615 -3.31933 0
M  V30 4094 C 388.252 0.382537 -4.4817 0
M  V30 4095 C 389.571 2.33084 -3.73309 0
M  V30 4096 H 386.69 0.261797 -0.688935 0
M  V30 4097 H 389.332 -0.013017 -1.89996 0
M  V30 4098 H 387.482 2.02451 -3.31581 0
M  V30 4099 H 389.154 -0.243689 -4.60656 0
M  V30 4100 H 387.397 -0.29844 -4.32772 0
M  V30 4101 H 388.068 0.891145 -5.44759 0
M  V30 4102 H 390.544 1.80295 -3.7501 0
M  V30 4103 H 389.42 2.77084 -4.73831 0
M  V30 4104 H 389.681 3.19643 -3.05419 0
M  V30 4105 N 388.74 1.54641 0.303973 0
M  V30 4106 C 389.703 1.84646 1.35789 0
M  V30 4107 C 390.703 0.7192 1.4382 0
M  V30 4108 O 391.893 0.987491 1.43507 0
M  V30 4109 C 389.025 2.02407 2.74307 0
M  V30 4110 H 390.218 2.78829 1.10429 0
M  V30 4111 H 387.771 1.46658 0.540487 0
M  V30 4112 H 388.506 1.10502 3.04893 0
M  V30 4113 H 388.291 2.84453 2.69868 0
M  V30 4114 H 389.781 2.27002 3.50514 0
M  V30 4115 N 390.218 -0.567019 1.47046 0
M  V30 4116 C 391.495 -1.3276 1.43646 0
M  V30 4117 C 391.875 -2.1071 0.128186 0
M  V30 4118 O 391.223 -2.10441 -0.890326 0
M  V30 4119 C 391.433 -2.2404 2.67595 0
M  V30 4120 C 392.781 -2.85372 3.14401 0
M  V30 4121 O 393.805 -2.34346 2.68254 0
M  V30 4122 O 392.664 -3.78091 3.946 0
M  V30 4123 H 389.758 -0.597293 0.571988 0
M  V30 4124 H 392.304 -0.586735 1.59234 0
M  V30 4125 H 391.076 -1.65975 3.54356 0
M  V30 4126 H 390.699 -3.05439 2.54544 0
M  V30 4127 N 391.696 -1.35014 -0.812953 0
M  V30 4128 C 392.643 -1.27412 -1.92444 0
M  V30 4129 C 393.613 -0.14733 -1.65445 0
M  V30 4130 O 394.798 -0.329974 -1.87925 0
M  V30 4131 C 391.938 -1.04558 -3.28879 0
M  V30 4132 C 391.051 -2.26101 -3.68106 0
M  V30 4133 C 390.186 -1.96449 -4.9354 0
M  V30 4134 C 389.225 -3.14081 -5.25376 0
M  V30 4135 N 388.362 -2.84246 -6.41988 0
M  V30 4136 H 393.202 -2.22463 -1.98278 0
M  V30 4137 H 390.739 -1.10593 -0.969933 0
M  V30 4138 H 392.697 -0.893413 -4.07522 0
M  V30 4139 H 391.327 -0.131719 -3.22531 0
M  V30 4140 H 390.379 -2.52204 -2.84775 0
M  V30 4141 H 391.691 -3.13959 -3.87597 0
M  V30 4142 H 390.845 -1.78026 -5.79993 0
M  V30 4143 H 389.584 -1.05867 -4.76071 0
M  V30 4144 H 388.589 -3.33089 -4.37415 0
M  V30 4145 H 389.814 -4.05455 -5.44778 0
M  V30 4146 H 387.76 -1.96252 -6.25956 0
M  V30 4147 H 387.677 -3.65637 -6.61699 0
M  V30 4148 H 388.945 -2.6935 -7.31485 0
M  V30 4149 N 393.175 1.03435 -1.18907 0
M  V30 4150 C 394.422 1.76743 -0.988334 0
M  V30 4151 C 394.75 1.88447 0.481441 0
M  V30 4152 O 394.005 1.39383 1.37371 0
M  V30 4153 C 394.304 3.19792 -1.59586 0
M  V30 4154 C 393.97 3.28108 -3.09283 0
M  V30 4155 C 392.632 3.30084 -3.5014 0
M  V30 4156 C 394.984 3.27696 -4.05296 0
M  V30 4157 C 392.312 3.29299 -4.85571 0
M  V30 4158 C 394.664 3.28451 -5.4065 0
M  V30 4159 C 393.328 3.28723 -5.80946 0
M  V30 4160 H 392.598 0.64675 -0.361657 0
M  V30 4161 H 395.245 1.21442 -1.48068 0
M  V30 4162 H 393.55 3.78136 -1.02568 0
M  V30 4163 H 395.247 3.75171 -1.41589 0
M  V30 4164 H 391.837 3.27294 -2.76725 0
M  V30 4165 H 396.021 3.25354 -3.74778 0
M  V30 4166 H 391.277 3.2783 -5.16079 0
M  V30 4167 H 395.451 3.27082 -6.14809 0
M  V30 4168 H 393.078 3.27868 -6.85862 0
M  V30 4169 N 394.653 0.992116 1.22453 0
M  V30 4170 C 395.881 0.685944 1.95198 0
M  V30 4171 C 396.296 -0.749233 1.73297 0
M  V30 4172 O 395.653 -1.50549 1.03156 0
M  V30 4173 C 395.704 0.981395 3.47924 0
M  V30 4174 O 395.425 2.36018 3.6909 0
M  V30 4175 C 396.926 0.692815 4.37853 0
M  V30 4176 H 394.146 0.253821 0.621141 0
M  V30 4177 H 396.69 1.32668 1.55626 0
M  V30 4178 H 394.845 0.386481 3.85467 0
M  V30 4179 H 395.259 2.45884 4.63294 0
M  V30 4180 H 396.733 0.949818 5.43767 0
M  V30 4181 H 397.21 -0.373181 4.37612 0
M  V30 4182 H 397.816 1.26874 4.05935 0
M  V30 4183 N 396.131 -1.37776 0.765217 0
M  V30 4184 C 397.041 -2.34135 0.147666 0
M  V30 4185 C 398.057 -1.59854 -0.687215 0
M  V30 4186 O 399.233 -1.91983 -0.608659 0
M  V30 4187 C 396.298 -3.3901 -0.72617 0
M  V30 4188 C 395.359 -4.2912 0.124417 0
M  V30 4189 C 394.592 -5.28986 -0.707807 0
M  V30 4190 O 394.815 -5.36205 -1.94525 0
M  V30 4191 O 393.749 -6.01779 -0.12046 0
M  V30 4192 H 397.575 -2.88664 0.943758 0
M  V30 4193 H 395.16 -1.39824 0.526277 0
M  V30 4194 H 397.042 -4.03195 -1.22524 0
M  V30 4195 H 395.717 -2.86819 -1.50056 0
M  V30 4196 H 394.624 -3.68057 0.669696 0
M  V30 4197 H 395.957 -4.84598 0.861736 0
M  V30 4198 N 397.609 -0.515225 -1.4894 0
M  V30 4199 C 398.539 0.244628 -2.32215 0
M  V30 4200 C 399.52 0.949136 -1.41157 0
M  V30 4201 O 400.705 0.937783 -1.70057 0
M  V30 4202 C 397.835 1.30096 -3.22013 0
M  V30 4203 C 396.789 0.715486 -4.21977 0
M  V30 4204 C 396.115 1.87339 -5.00808 0
M  V30 4205 C 397.415 -0.302982 -5.2142 0
M  V30 4206 H 399.109 -0.450501 -2.95991 0
M  V30 4207 H 396.655 -0.218098 -1.42339 0
M  V30 4208 H 398.608 1.84037 -3.79089 0
M  V30 4209 H 397.332 2.02547 -2.56207 0
M  V30 4210 H 395.991 0.197715 -3.66066 0
M  V30 4211 H 395.639 2.58592 -4.31438 0
M  V30 4212 H 395.339 1.48764 -5.68457 0
M  V30 4213 H 396.863 2.41686 -5.60732 0
M  V30 4214 H 398.277 0.148802 -5.73107 0
M  V30 4215 H 396.674 -0.60532 -5.97039 0
M  V30 4216 H 397.744 -1.21395 -4.69459 0
M  V30 4217 N 399.087 1.5561 -0.249682 0
M  V30 4218 C 400.019 2.18834 0.681496 0
M  V30 4219 C 401.032 1.16546 1.1367 0
M  V30 4220 O 402.221 1.43397 1.06299 0
M  V30 4221 C 399.321 2.77992 1.9384 0
M  V30 4222 C 398.494 4.05725 1.63419 0
M  V30 4223 C 397.553 4.49174 2.74096 0
M  V30 4224 O 396.579 5.15492 2.41364 0
M  V30 4225 N 397.781 4.17191 4.03649 0
M  V30 4226 H 400.546 2.9937 0.140514 0
M  V30 4227 H 398.107 1.6175 -0.0697541 0
M  V30 4228 H 400.099 3.04015 2.67127 0
M  V30 4229 H 398.669 2.01596 2.38909 0
M  V30 4230 H 397.889 3.87261 0.736358 0
M  V30 4231 H 399.177 4.88999 1.40562 0
M  V30 4232 H 398.575 3.63955 4.33074 0
M  V30 4233 H 397.132 4.48043 4.73393 0
M  V30 4234 N 400.565 -0.0233959 1.57583 0
M  V30 4235 C 401.512 -1.02224 2.06927 0
M  V30 4236 C 402.482 -1.35575 0.959617 0
M  V30 4237 O 403.667 -1.45815 1.23055 0
M  V30 4238 C 400.807 -2.31636 2.5581 0
M  V30 4239 C 399.92 -2.04394 3.80588 0
M  V30 4240 C 399.055 -3.27717 4.18061 0
M  V30 4241 C 398.094 -2.96056 5.3574 0
M  V30 4242 N 397.231 -4.11847 5.68618 0
M  V30 4243 H 402.071 -0.594504 2.9201 0
M  V30 4244 H 399.608 -0.281921 1.44373 0
M  V30 4245 H 401.566 -3.07258 2.82221 0
M  V30 4246 H 400.196 -2.72122 1.73636 0
M  V30 4247 H 399.248 -1.19244 3.61227 0
M  V30 4248 H 400.56 -1.77042 4.66323 0
M  V30 4249 H 399.714 -4.11702 4.4563 0
M  V30 4250 H 398.453 -3.58188 3.30988 0
M  V30 4251 H 397.458 -2.10474 5.07918 0
M  V30 4252 H 398.683 -2.66857 6.24471 0
M  V30 4253 H 396.629 -4.42258 4.84504 0
M  V30 4254 H 396.546 -3.87938 6.48876 0
M  V30 4255 H 397.814 -4.96689 6.00766 0
M  V30 4256 N 402.043 -1.548 -0.295768 0
M  V30 4257 C 403.006 -1.85363 -1.34808 0
M  V30 4258 C 404.006 -0.726817 -1.43436 0
M  V30 4259 O 405.196 -0.995088 -1.42981 0
M  V30 4260 C 402.328 -2.03859 -2.73229 0
M  V30 4261 H 403.521 -2.7941 -1.08949 0
M  V30 4262 H 401.074 -1.46942 -0.532702 0
M  V30 4263 H 401.809 -1.12117 -3.04303 0
M  V30 4264 H 401.594 -2.8588 -2.68356 0
M  V30 4265 H 403.084 -2.28857 -3.49305 0
M  V30 4266 N 403.521 0.559213 -1.47345 0
M  V30 4267 C 404.767 1.31843 -1.54095 0
M  V30 4268 C 405.1 1.93149 -0.201726 0
M  V30 4269 O 404.375 1.77759 0.789428 0
M  V30 4270 C 404.658 2.43006 -2.65744 0
M  V30 4271 C 404.511 1.86581 -4.09277 0
M  V30 4272 C 405.83 3.44943 -2.73318 0
M  V30 4273 H 402.949 0.478012 -0.560957 0
M  V30 4274 H 405.591 0.625977 -1.79392 0
M  V30 4275 H 403.741 3.02072 -2.44305 0
M  V30 4276 H 405.413 1.31792 -4.42073 0
M  V30 4277 H 403.656 1.17268 -4.17649 0
M  V30 4278 H 404.327 2.66933 -4.83168 0
M  V30 4279 H 406.803 2.95793 -2.92653 0
M  V30 4280 H 405.679 4.20153 -3.53218 0
M  V30 4281 H 405.94 4.03665 -1.80296 0
M  V30 4282 N 404.999 1.35443 0.805782 0
M  V30 4283 C 406.247 1.28507 1.55982 0
M  V30 4284 C 406.568 -0.140046 1.94496 0
M  V30 4285 O 405.838 -1.07666 1.63661 0
M  V30 4286 H 404.418 0.472676 0.578434 0
M  V30 4287 H 407.08 1.69555 0.961098 0
M  V30 4288 H 406.176 1.90148 2.47488 0
M  V30 4289 N 406.477 -1.02803 1.19454 0
M  V30 4290 C 407.888 -1.57667 0.999899 0
M  V30 4291 C 408.239 -1.91041 -0.446956 0
M  V30 4292 O 407.364 -1.70978 -1.32648 0
M  V30 4293 C 407.959 -2.86477 1.80877 0
M  V30 4294 C 406.518 -3.37911 1.65811 0
M  V30 4295 C 405.665 -2.11343 1.79526 0
M  V30 4296 H 408.616 -0.853214 1.33813 0
M  V30 4297 H 408.637 -3.57408 1.30536 0
M  V30 4298 H 408.149 -2.62155 2.86175 0
M  V30 4299 H 406.25 -3.67218 0.63102 0
M  V30 4300 H 406.363 -4.10885 2.46395 0
M  V30 4301 H 404.727 -2.23254 1.22596 0
M  V30 4302 H 405.51 -1.89461 2.86285 0
M  V30 4303 N 407.956 -0.998596 -1.21925 0
M  V30 4304 C 408.866 -0.562736 -2.27751 0
M  V30 4305 C 409.882 0.391203 -1.69545 0
M  V30 4306 O 411.058 0.256625 -1.99758 0
M  V30 4307 C 408.123 0.11012 -3.46525 0
M  V30 4308 C 407.184 -0.887495 -4.20026 0
M  V30 4309 C 406.417 -0.246654 -5.3313 0
M  V30 4310 O 406.64 0.958088 -5.62296 0
M  V30 4311 O 405.574 -0.954374 -5.94286 0
M  V30 4312 H 409.4 -1.44329 -2.67213 0
M  V30 4313 H 406.985 -0.767135 -1.28201 0
M  V30 4314 H 408.867 0.486756 -4.18579 0
M  V30 4315 H 407.542 0.965154 -3.08976 0
M  V30 4316 H 406.449 -1.31517 -3.5022 0
M  V30 4317 H 407.782 -1.71191 -4.6147 0
M  V30 4318 N 409.434 1.37368 -0.772513 0
M  V30 4319 C 410.683 1.98918 -0.333861 0
M  V30 4320 C 410.996 1.62017 1.09589 0
M  V30 4321 O 412.202 2.16676 1.63596 0
M  V30 4322 C 410.658 3.55735 -0.545971 0
M  V30 4323 C 410.266 4.01573 -1.98603 0
M  V30 4324 C 412.01 4.24156 -0.170979 0
M  V30 4325 C 409.917 5.51102 -2.1457 0
M  V30 4326 H 408.847 0.744214 -0.121085 0
M  V30 4327 H 411.498 1.56888 -0.95175 0
M  V30 4328 H 409.88 3.95748 0.141387 0
M  V30 4329 H 411.054 3.72803 -2.7084 0
M  V30 4330 H 409.369 3.45937 -2.31769 0
M  V30 4331 H 411.966 5.34024 -0.26878 0
M  V30 4332 H 412.309 4.06917 0.878855 0
M  V30 4333 H 412.842 3.89447 -0.810914 0
M  V30 4334 H 409.581 5.73268 -3.17875 0
M  V30 4335 H 409.101 5.81554 -1.46817 0
M  V30 4336 H 410.78 6.17083 -1.94468 0
M  V30 4337 N 410.912 0.523116 1.48665 0
M  V30 4338 C 412.14 -0.0096312 2.06898 0
M  V30 4339 C 412.555 -1.28784 1.38059 0
M  V30 4340 O 411.912 -1.76453 0.465893 0
M  V30 4341 C 411.963 -0.244386 3.60673 0
M  V30 4342 O 411.684 0.983172 4.26925 0
M  V30 4343 C 413.185 -0.818289 4.35682 0
M  V30 4344 H 410.405 0.0304161 0.67031 0
M  V30 4345 H 412.949 0.726799 1.91149 0
M  V30 4346 H 411.104 -0.930847 3.76051 0
M  V30 4347 H 411.518 0.759653 5.1897 0
M  V30 4348 H 412.992 -0.93201 5.44075 0
M  V30 4349 H 413.469 -1.82153 3.99646 0
M  V30 4350 H 414.075 -0.168609 4.24966 0
M  V30 4351 N 412.39 -1.55475 0.257931 0
M  V30 4352 C 413.337 -2.21837 -0.636939 0
M  V30 4353 C 414.307 -1.18596 -1.16294 0
M  V30 4354 O 415.492 -1.47081 -1.21539 0
M  V30 4355 C 412.632 -2.9301 -1.82317 0
M  V30 4356 C 411.745 -4.10931 -1.33265 0
M  V30 4357 C 410.88 -4.69791 -2.47931 0
M  V30 4358 C 409.919 -5.7994 -1.95796 0
M  V30 4359 N 409.056 -6.32935 -3.0387 0
M  V30 4360 H 413.896 -2.9793 -0.0643591 0
M  V30 4361 H 411.433 -1.47086 -0.0200031 0
M  V30 4362 H 413.391 -3.3248 -2.52018 0
M  V30 4363 H 412.021 -2.1937 -2.36805 0
M  V30 4364 H 411.073 -3.76699 -0.52931 0
M  V30 4365 H 412.385 -4.90417 -0.910654 0
M  V30 4366 H 411.539 -5.11892 -3.25656 0
M  V30 4367 H 410.278 -3.89545 -2.93438 0
M  V30 4368 H 409.283 -5.37305 -1.16546 0
M  V30 4369 H 410.508 -6.62043 -1.51246 0
M  V30 4370 H 408.454 -5.55591 -3.48791 0
M  V30 4371 H 408.371 -7.07645 -2.66035 0
M  V30 4372 H 409.639 -6.79695 -3.81621 0
M  V30 4373 N 413.868 0.0150385 -1.57593 0
M  V30 4374 C 415.096 0.714395 -1.94175 0
M  V30 4375 C 415.511 1.68135 -0.858841 0
M  V30 4376 O 414.868 1.81766 0.163567 0
M  V30 4377 C 414.919 1.45933 -3.30735 0
M  V30 4378 O 414.64 0.531167 -4.34868 0
M  V30 4379 C 416.141 2.25456 -3.81686 0
M  V30 4380 H 413.361 0.199923 -0.640525 0
M  V30 4381 H 415.905 -0.0316096 -2.04476 0
M  V30 4382 H 414.06 2.15709 -3.21789 0
M  V30 4383 H 414.474 1.05509 -5.13778 0
M  V30 4384 H 415.948 2.731 -4.79709 0
M  V30 4385 H 416.425 3.07485 -3.13607 0
M  V30 4386 H 417.031 1.60727 -3.9376 0
M  V30 4387 N 415.346 1.54954 0.287554 0
M  V30 4388 C 416.623 1.65569 1.04146 0
M  V30 4389 C 417.003 0.512672 2.0478 0
M  V30 4390 O 416.351 -0.489038 2.23205 0
M  V30 4391 C 416.561 3.04163 1.71131 0
M  V30 4392 C 417.909 3.61429 2.22832 0
M  V30 4393 O 418.933 3.06702 1.81141 0
M  V30 4394 O 417.792 4.57281 2.9926 0
M  V30 4395 H 414.886 0.671881 0.482188 0
M  V30 4396 H 417.432 1.67297 0.28457 0
M  V30 4397 H 416.204 3.78796 0.981303 0
M  V30 4398 H 415.827 3.06271 2.53543 0
M  V30 4399 N 416.824 -0.551391 1.4764 0
M  V30 4400 C 417.754 -1.66757 1.63445 0
M  V30 4401 C 418.735 -1.63077 0.483742 0
M  V30 4402 O 419.92 -1.80607 0.71377 0
M  V30 4403 C 417.05 -3.05387 1.65396 0
M  V30 4404 C 416.004 -3.23918 2.79752 0
M  V30 4405 C 415.33 -4.63393 2.66779 0
M  V30 4406 C 416.63 -3.08735 4.21284 0
M  V30 4407 H 418.324 -1.53786 2.56886 0
M  V30 4408 H 415.87 -0.738415 1.23626 0
M  V30 4409 H 417.823 -3.83325 1.75043 0
M  V30 4410 H 416.547 -3.19332 0.685195 0
M  V30 4411 H 415.206 -2.48391 2.69625 0
M  V30 4412 H 414.854 -4.74144 1.67918 0
M  V30 4413 H 414.554 -4.7674 3.43501 0
M  V30 4414 H 416.078 -5.43458 2.78364 0
M  V30 4415 H 417.492 -3.76484 4.32357 0
M  V30 4416 H 415.889 -3.33588 4.98838 0
M  V30 4417 H 416.959 -2.0541 4.39243 0
M  V30 4418 N 418.302 -1.35869 -0.798587 0
M  V30 4419 C 419.548 -1.2978 -1.55836 0
M  V30 4420 C 419.881 0.125322 -1.93795 0
M  V30 4421 O 419.156 1.07658 -1.61987 0
M  V30 4422 C 419.439 -2.21188 -2.84162 0
M  V30 4423 C 419.292 -3.72155 -2.52628 0
M  V30 4424 C 420.611 -2.11545 -3.85923 0
M  V30 4425 H 417.73 -0.472769 -0.565383 0
M  V30 4426 H 420.372 -1.66341 -0.918192 0
M  V30 4427 H 418.522 -1.90139 -3.38791 0
M  V30 4428 H 420.194 -4.13682 -2.04121 0
M  V30 4429 H 418.437 -3.92042 -1.85704 0
M  V30 4430 H 419.108 -4.31511 -3.44242 0
M  V30 4431 H 421.584 -2.38855 -3.40716 0
M  V30 4432 H 420.46 -2.77688 -4.73477 0
M  V30 4433 H 420.721 -1.09987 -4.282 0
M  V30 4434 N 419.78 1.02168 -1.19998 0
M  V30 4435 C 421.191 1.57135 -1.00825 0
M  V30 4436 C 421.542 1.91276 0.436818 0
M  V30 4437 O 420.667 1.71679 1.3174 0
M  V30 4438 C 421.262 2.85514 -1.82393 0
M  V30 4439 C 419.821 3.37027 -1.67601 0
M  V30 4440 C 418.968 2.10388 -1.80644 0
M  V30 4441 H 421.919 0.846106 -1.34264 0
M  V30 4442 H 421.94 3.56711 -1.32429 0
M  V30 4443 H 421.452 2.60634 -2.87561 0
M  V30 4444 H 419.553 3.66878 -0.650485 0
M  V30 4445 H 419.666 4.09572 -2.4857 0
M  V30 4446 H 418.03 2.22601 -1.23778 0
M  V30 4447 H 418.813 1.8794 -2.87286 0
M  V30 4448 N 421.258 1.00505 1.21394 0
M  V30 4449 C 422.221 0.570459 2.21987 0
M  V30 4450 C 423.221 -0.353211 1.56873 0
M  V30 4451 O 424.411 -0.14349 1.73608 0
M  V30 4452 C 421.543 -0.168555 3.40483 0
M  V30 4453 H 422.736 1.46021 2.6195 0
M  V30 4454 H 420.289 0.793565 1.34656 0
M  V30 4455 H 421.024 -1.07374 3.06009 0
M  V30 4456 H 420.809 0.494823 3.88965 0
M  V30 4457 H 422.299 -0.460362 4.15055 0
M  V30 4458 N 422.737 -1.36956 0.779787 0
M  V30 4459 C 423.984 -1.99491 0.347766 0
M  V30 4460 C 424.312 -1.61898 -1.07793 0
M  V30 4461 O 423.567 -0.86071 -1.75756 0
M  V30 4462 C 423.866 -3.54585 0.447686 0
M  V30 4463 C 423.532 -4.1197 1.83279 0
M  V30 4464 C 422.194 -4.27356 2.2118 0
M  V30 4465 C 424.546 -4.43354 2.74019 0
M  V30 4466 C 421.874 -4.71432 3.4924 0
M  V30 4467 C 424.226 -4.88858 4.01497 0
M  V30 4468 C 422.89 -5.0245 4.39432 0
M  V30 4469 H 422.16 -0.729991 0.127257 0
M  V30 4470 H 424.807 -1.63599 0.995376 0
M  V30 4471 H 423.112 -3.90773 -0.283447 0
M  V30 4472 H 424.809 -4.00888 0.0945948 0
M  V30 4473 H 421.399 -4.00428 1.52825 0
M  V30 4474 H 425.583 -4.31045 2.45995 0
M  V30 4475 H 420.839 -4.80141 3.78516 0
M  V30 4476 H 425.013 -5.12108 4.71931 0
M  V30 4477 H 422.64 -5.36362 5.38721 0
M  V30 4478 N 424.215 -0.530993 -1.48385 0
M  V30 4479 C 425.147 0.268353 -2.27624 0
M  V30 4480 C 426.16 0.903525 -1.35426 0
M  V30 4481 O 427.349 0.781796 -1.60469 0
M  V30 4482 C 424.449 1.39535 -3.08842 0
M  V30 4483 C 423.622 0.861913 -4.28824 0
M  V30 4484 C 422.681 1.87016 -4.91845 0
M  V30 4485 O 421.707 1.4267 -5.5103 0
M  V30 4486 N 422.909 3.20238 -4.84178 0
M  V30 4487 H 425.674 -0.41123 -2.96865 0
M  V30 4488 H 423.235 -0.365387 -1.57723 0
M  V30 4489 H 425.227 2.06803 -3.47871 0
M  V30 4490 H 423.797 1.97859 -2.42014 0
M  V30 4491 H 423.017 0.0132126 -3.94198 0
M  V30 4492 H 424.305 0.484415 -5.06489 0
M  V30 4493 H 423.703 3.58932 -4.37246 0
M  V30 4494 H 422.26 3.83136 -5.27305 0
M  V30 4495 N 425.693 1.55336 -0.266172 0
M  V30 4496 C 426.641 2.23587 0.641228 0
M  V30 4497 C 427.635 1.22986 1.16494 0
M  V30 4498 O 428.841 1.40943 1.1196 0
M  V30 4499 H 425.216 0.717452 0.225315 0
M  V30 4500 H 427.187 2.9837 0.0426561 0
M  V30 4501 C 425.936 2.96369 1.81826 0
M  V30 4502 H 425.259 3.73563 1.42445 0
M  V30 4503 H 426.699 3.47459 2.42998 0
M  V30 4504 C 425.158 2.0133 2.70125 0
M  V30 4505 O 425.688 1.55875 3.70224 0
M  V30 4506 N 423.894 1.6802 2.37102 0
M  V30 4507 H 423.441 2.05181 1.55751 0
M  V30 4508 H 423.399 1.047 2.96454 0
M  V30 4509 N 427.171 -0.0066808 1.57599 0
M  V30 4510 C 428.101 -0.999296 2.11036 0
M  V30 4511 C 429.082 -1.36278 1.01795 0
M  V30 4512 O 430.267 -1.4477 1.29442 0
M  V30 4513 C 427.397 -2.29328 2.60818 0
M  V30 4514 C 426.351 -2.07159 3.74525 0
M  V30 4515 C 425.677 -3.42512 4.10596 0
M  V30 4516 C 426.977 -1.43959 5.02069 0
M  V30 4517 H 428.671 -0.554382 2.94223 0
M  V30 4518 H 426.217 -0.265221 1.41536 0
M  V30 4519 H 428.17 -2.99117 2.96828 0
M  V30 4520 H 426.894 -2.7592 1.74745 0
M  V30 4521 H 425.553 -1.39797 3.38899 0
M  V30 4522 H 425.201 -3.86795 3.21556 0
M  V30 4523 H 424.901 -3.28498 4.87199 0
M  V30 4524 H 426.425 -4.13628 4.4916 0
M  V30 4525 H 427.839 -2.03696 5.35893 0
M  V30 4526 H 426.236 -1.40452 5.83432 0
M  V30 4527 H 427.306 -0.407992 4.83181 0
M  V30 4528 N 428.649 -1.55105 -0.279332 0
M  V30 4529 C 429.582 -1.82467 -1.37044 0
M  V30 4530 C 430.56 -0.677261 -1.47824 0
M  V30 4531 O 431.744 -0.919578 -1.64548 0
M  V30 4532 C 428.871 -1.98066 -2.7475 0
M  V30 4533 C 427.917 -3.20594 -2.81286 0
M  V30 4534 S 428.75 -4.78116 -2.41175 0
M  V30 4535 C 429.906 -4.9668 -3.80867 0
M  V30 4536 H 430.139 -2.74728 -1.1363 0
M  V30 4537 H 427.672 -1.46794 -0.478625 0
M  V30 4538 H 429.63 -2.07739 -3.54055 0
M  V30 4539 H 428.291 -1.06704 -2.9542 0
M  V30 4540 H 427.484 -3.28376 -3.82341 0
M  V30 4541 H 427.086 -3.09479 -2.09996 0
M  V30 4542 H 429.378 -4.82033 -4.76078 0
M  V30 4543 H 430.321 -5.98741 -3.78041 0
M  V30 4544 H 430.729 -4.24698 -3.71876 0
M  V30 4545 N 430.127 0.543554 -1.4793 0
M  V30 4546 C 431.074 1.64942 -1.6144 0
M  V30 4547 C 432.044 1.59692 -0.456903 0
M  V30 4548 O 433.229 1.78321 -0.678688 0
M  V30 4549 C 430.369 3.03238 -1.64744 0
M  V30 4550 C 429.482 3.18823 -2.91506 0
M  V30 4551 C 428.617 4.47599 -2.86057 0
M  V30 4552 C 427.656 4.56664 -4.07584 0
M  V30 4553 N 426.793 5.76811 -4.00292 0
M  V30 4554 H 431.633 1.52733 -2.55884 0
M  V30 4555 H 429.17 0.7438 -1.2691 0
M  V30 4556 H 431.128 3.83339 -1.64641 0
M  V30 4557 H 429.758 3.1425 -0.738017 0
M  V30 4558 H 428.81 2.32064 -3.01414 0
M  V30 4559 H 430.122 3.21384 -3.81463 0
M  V30 4560 H 429.276 5.35975 -2.84281 0
M  V30 4561 H 428.015 4.47538 -1.93807 0
M  V30 4562 H 427.02 3.66697 -4.09651 0
M  V30 4563 H 428.245 4.58474 -5.00978 0
M  V30 4564 H 426.191 5.77673 -3.10853 0
M  V30 4565 H 426.108 5.80808 -4.8394 0
M  V30 4566 H 427.376 6.67512 -4.02553 0
M  V30 4567 N 431.605 1.3629 0.791371 0
M  V30 4568 C 432.882 1.20962 1.53712 0
M  V30 4569 C 433.262 -0.205021 2.10102 0
M  V30 4570 O 432.61 -1.21042 1.93807 0
M  V30 4571 C 432.82 2.29002 2.63361 0
M  V30 4572 C 434.168 2.65572 3.31295 0
M  V30 4573 O 435.192 2.2803 2.73643 0
M  V30 4574 O 434.051 3.3018 4.35481 0
M  V30 4575 H 431.145 0.47086 0.679867 0
M  V30 4576 H 433.691 1.48016 0.830021 0
M  V30 4577 H 432.463 3.2382 2.19674 0
M  V30 4578 H 432.086 2.03303 3.41692 0
M  V30 4579 N 433.083 -1.0153 1.20538 0
M  V30 4580 C 434.323 -1.76689 1.02763 0
M  V30 4581 C 434.687 -1.87065 -0.432513 0
M  V30 4582 O 435.888 -2.58684 -0.730481 0
M  V30 4583 C 434.159 -3.14707 1.69393 0
M  V30 4584 S 435.718 -4.05886 1.66738 0
M  V30 4585 H 432.536 -0.608076 0.368463 0
M  V30 4586 H 435.138 -1.21558 1.53114 0
M  V30 4587 H 433.842 -3.04782 2.74838 0
M  V30 4588 H 433.373 -3.74913 1.19179 0
M  V30 4589 H 435.388 -4.91221 0.70117 0
M  V30 4590 N 434.561 -1.01147 -1.20859 0
M  V30 4591 C 435.471 -0.58686 -2.27141 0
M  V30 4592 C 436.487 0.373198 -1.69951 0
M  V30 4593 O 437.663 0.235423 -2.00019 0
M  V30 4594 C 434.728 0.0733602 -3.46622 0
M  V30 4595 C 433.789 -0.931995 -4.19061 0
M  V30 4596 C 433.022 -0.303186 -5.32838 0
M  V30 4597 O 433.245 0.898395 -5.63281 0
M  V30 4598 O 432.179 -1.01735 -5.9324 0
M  V30 4599 H 436.005 -1.47155 -2.65667 0
M  V30 4600 H 433.59 -0.780689 -1.2738 0
M  V30 4601 H 435.472 0.442333 -4.19072 0
M  V30 4602 H 434.147 0.932329 -3.09983 0
M  V30 4603 H 433.054 -1.35224 -3.48805 0
M  V30 4604 H 434.387 -1.76076 -4.59628 0
M  V30 4605 N 436.039 1.36541 -0.78704 0
M  V30 4606 C 437.002 2.28413 -0.189778 0
M  V30 4607 C 438.002 1.48719 0.611499 0
M  V30 4608 O 439.192 1.68737 0.432842 0
M  V30 4609 C 436.324 3.32824 0.737638 0
M  V30 4610 H 437.517 2.82743 -0.999831 0
M  V30 4611 H 435.07 1.46065 -0.556298 0
M  V30 4612 H 435.805 2.83646 1.57212 0
M  V30 4613 H 435.59 3.91752 0.165044 0
M  V30 4614 H 437.08 4.0144 1.15047 0
M  V30 4615 N 437.518 0.538854 1.48102 0
M  V30 4616 C 438.428 -0.222648 2.33541 0
M  V30 4617 C 439.444 -0.930225 1.47047 0
M  V30 4618 O 440.62 -0.903211 1.80011 0
M  V30 4619 C 437.685 -1.25064 3.23357 0
M  V30 4620 C 436.746 -0.552469 4.2573 0
M  V30 4621 C 435.979 -1.53149 5.11254 0
M  V30 4622 O 436.202 -2.76487 4.9891 0
M  V30 4623 O 435.136 -1.06602 5.92385 0
M  V30 4624 H 438.962 0.477707 2.99919 0
M  V30 4625 H 436.547 0.299669 1.46364 0
M  V30 4626 H 438.429 -1.8445 3.78888 0
M  V30 4627 H 437.104 -1.93325 2.59629 0
M  V30 4628 H 436.011 0.082114 3.7401 0
M  V30 4629 H 437.344 0.0883526 4.92121 0
M  V30 4630 N 438.996 -1.55193 0.274407 0
M  V30 4631 C 440.242 -1.99877 -0.343086 0
M  V30 4632 C 440.575 -1.16256 -1.55558 0
M  V30 4633 O 439.85 -0.232462 -1.93106 0
M  V30 4634 C 440.133 -3.52706 -0.725965 0
M  V30 4635 C 439.986 -4.47081 0.493818 0
M  V30 4636 C 441.305 -4.11422 -1.56268 0
M  V30 4637 H 438.424 -0.726625 -0.123229 0
M  V30 4638 H 441.066 -1.86136 0.38121 0
M  V30 4639 H 439.216 -3.64546 -1.34307 0
M  V30 4640 H 440.888 -4.47186 1.13237 0
M  V30 4641 H 439.131 -4.1877 1.13201 0
M  V30 4642 H 439.802 -5.51699 0.18217 0
M  V30 4643 H 442.278 -4.02855 -1.04151 0
M  V30 4644 H 441.154 -5.18568 -1.79939 0
M  V30 4645 H 441.415 -3.61607 -2.54348 0
M  V30 4646 N 440.474 -0.00167713 -1.576 0
M  V30 4647 C 441.89 0.354422 -1.55615 0
M  V30 4648 C 442.09 1.74679 -1.00447 0
M  V30 4649 O 441.146 2.4428 -0.639022 0
M  V30 4650 C 442.459 0.22812 -2.99833 0
M  V30 4651 C 444.007 0.302934 -3.11531 0
M  V30 4652 C 444.482 0.205737 -4.57538 0
M  V30 4653 N 445.973 0.263584 -4.62449 0
M  V30 4654 C 446.708 0.211742 -5.73009 0
M  V30 4655 N 446.204 0.110399 -6.92712 0
M  V30 4656 N 447.997 0.263729 -5.61481 0
M  V30 4657 H 440.148 -0.912498 -1.918 0
M  V30 4658 H 442.411 -0.349928 -0.881053 0
M  V30 4659 H 442.117 -0.729934 -3.44042 0
M  V30 4660 H 441.991 1.00951 -3.6344 0
M  V30 4661 H 444.378 1.25143 -2.67251 0
M  V30 4662 H 444.459 -0.508357 -2.50698 0
M  V30 4663 H 444.103 -0.739225 -5.02492 0
M  V30 4664 H 444.033 1.03554 -5.16318 0
M  V30 4665 H 446.524 0.343173 -3.76339 0
M  V30 4666 H 446.837 0.0767828 -7.72762 0
M  V30 4667 H 445.182 0.0760025 -6.94958 0
M  V30 4668 H 448.373 0.34111 -4.66855 0
M  V30 4669 H 448.546 0.219862 -6.47627 0
M  V30 4670 N 441.952 1.55251 0.271103 0
M  V30 4671 C 442.915 1.87484 1.31842 0
M  V30 4672 C 443.915 0.749545 1.42262 0
M  V30 4673 O 445.105 1.01771 1.4138 0
M  V30 4674 C 442.237 2.0818 2.69951 0
M  V30 4675 H 443.43 2.81108 1.0449 0
M  V30 4676 H 440.983 1.47771 0.509258 0
M  V30 4677 H 441.718 1.16944 3.02481 0
M  V30 4678 H 441.503 2.90114 2.63774 0
M  V30 4679 H 442.993 2.34385 3.4562 0
M  V30 4680 N 443.43 -0.535701 1.48216 0
M  V30 4681 C 444.393 -1.623 1.61838 0
M  V30 4682 C 445.393 -1.53087 0.492024 0
M  V30 4683 O 446.583 -1.5686 0.757668 0
M  V30 4684 C 443.715 -3.01907 1.58319 0
M  V30 4685 H 444.908 -1.51564 2.58783 0
M  V30 4686 H 442.461 -0.757317 1.36727 0
M  V30 4687 H 443.196 -3.18155 0.628299 0
M  V30 4688 H 442.981 -3.10003 2.40085 0
M  V30 4689 H 444.471 -3.80969 1.71033 0
M  V30 4690 N 444.908 -1.36708 -0.784132 0
M  V30 4691 C 445.871 -1.31307 -1.87859 0
M  V30 4692 C 446.871 -0.219654 -1.59293 0
M  V30 4693 O 448.061 -0.47476 -1.67606 0
M  V30 4694 C 445.193 -1.03679 -3.24751 0
M  V30 4695 H 446.386 -2.28647 -1.94064 0
M  V30 4696 H 443.939 -1.21558 -0.98252 0
M  V30 4697 H 444.674 -0.0681936 -3.24228 0
M  V30 4698 H 444.459 -1.82811 -3.46876 0
M  V30 4699 H 445.949 -1.02518 -4.04821 0
M  V30 4700 N 446.386 1.0089 -1.21074 0
M  V30 4701 C 447.611 1.78727 -1.05221 0
M  V30 4702 C 448.036 1.83932 0.393795 0
M  V30 4703 O 447.394 1.28004 1.28393 0
M  V30 4704 C 447.442 3.20665 -1.64944 0
M  V30 4705 O 446.546 4.02632 -0.892273 0
M  V30 4706 H 445.887 0.550973 -0.370574 0
M  V30 4707 H 448.417 1.26847 -1.60534 0
M  V30 4708 H 448.427 3.71352 -1.69002 0
M  V30 4709 H 447.102 3.16191 -2.70177 0
M  V30 4710 H 445.679 3.61207 -0.926492 0
M  V30 4711 N 447.864 1.01787 1.20321 0
M  V30 4712 C 448.814 0.559976 2.21016 0
M  V30 4713 C 449.798 -0.385366 1.56217 0
M  V30 4714 O 450.99 -0.208126 1.75772 0
M  V30 4715 C 448.119 -0.0990553 3.43157 0
M  V30 4716 C 447.205 0.86807 4.15121 0
M  V30 4717 N 447.596 2.0261 4.63447 0
M  V30 4718 C 445.894 0.689162 4.40643 0
M  V30 4719 C 446.595 2.63518 5.18588 0
M  V30 4720 N 445.571 1.91569 5.08726 0
M  V30 4721 H 449.373 1.44281 2.56048 0
M  V30 4722 H 446.887 0.883381 1.36272 0
M  V30 4723 H 448.884 -0.444643 4.14522 0
M  V30 4724 H 447.544 -0.977709 3.0963 0
M  V30 4725 H 448.555 2.40598 4.58621 0
M  V30 4726 H 445.232 -0.14133 4.17261 0
M  V30 4727 H 446.622 3.61527 5.66346 0
M  V30 4728 N 449.342 -1.36122 0.79427 0
M  V30 4729 C 450.289 -2.29982 0.194101 0
M  V30 4730 C 451.259 -1.52214 -0.664833 0
M  V30 4731 O 452.444 -1.80702 -0.612498 0
M  V30 4732 C 449.584 -3.38706 -0.661244 0
M  V30 4733 C 448.697 -4.31456 0.216766 0
M  V30 4734 C 447.832 -5.27265 -0.645411 0
M  V30 4735 C 446.871 -6.11653 0.233756 0
M  V30 4736 N 446.008 -6.99636 -0.587682 0
M  V30 4737 H 450.848 -2.80722 0.999965 0
M  V30 4738 H 448.385 -1.38172 0.504677 0
M  V30 4739 H 450.343 -4.00394 -1.17219 0
M  V30 4740 H 448.973 -2.89274 -1.43249 0
M  V30 4741 H 448.025 -3.7088 0.845724 0
M  V30 4742 H 449.337 -4.90724 0.893973 0
M  V30 4743 H 448.491 -5.94266 -1.22198 0
M  V30 4744 H 447.23 -4.68463 -1.35623 0
M  V30 4745 H 446.235 -5.4361 0.82269 0
M  V30 4746 H 447.46 -6.72531 0.942247 0
M  V30 4747 H 445.406 -6.43337 -1.2827 0
M  V30 4748 H 445.323 -7.55993 0.0317402 0
M  V30 4749 H 446.591 -7.71001 -1.14792 0
M  V30 4750 N 450.82 -0.546701 -1.47814 0
M  V30 4751 C 452.066 -0.0187684 -2.02791 0
M  V30 4752 C 452.399 1.32338 -1.42128 0
M  V30 4753 O 451.674 1.85867 -0.573023 0
M  V30 4754 C 451.957 0.0854985 -3.59998 0
M  V30 4755 C 451.81 -1.283 -4.31114 0
M  V30 4756 C 453.129 0.80412 -4.32691 0
M  V30 4757 H 450.248 -0.0082946 -0.736953 0
M  V30 4758 H 452.89 -0.706962 -1.76358 0
M  V30 4759 H 451.04 0.671609 -3.82651 0
M  V30 4760 H 452.712 -1.91151 -4.19832 0
M  V30 4761 H 450.955 -1.86049 -3.91878 0
M  V30 4762 H 451.626 -1.16287 -5.39612 0
M  V30 4763 H 454.102 0.306576 -4.14969 0
M  V30 4764 H 452.978 0.846011 -5.42341 0
M  V30 4765 H 453.239 1.85802 -4.01161 0
M  V30 4766 N 452.299 1.55045 -0.282633 0
M  V30 4767 C 453.246 2.22822 0.601566 0
M  V30 4768 C 454.216 1.20431 1.14392 0
M  V30 4769 O 455.401 1.48996 1.19184 0
M  V30 4770 C 452.541 2.95873 1.77632 0
M  V30 4771 C 451.654 4.12999 1.26711 0
M  V30 4772 C 450.789 4.73676 2.40426 0
M  V30 4773 C 449.828 5.82981 1.86545 0
M  V30 4774 N 448.965 6.3769 2.93762 0
M  V30 4775 H 453.805 2.97995 0.0169528 0
M  V30 4776 H 451.342 1.471 -0.00339964 0
M  V30 4777 H 453.3 3.36447 2.46697 0
M  V30 4778 H 451.93 2.2311 2.33285 0
M  V30 4779 H 450.982 3.77494 0.469314 0
M  V30 4780 H 452.294 4.91803 0.832518 0
M  V30 4781 H 451.448 5.17008 3.17471 0
M  V30 4782 H 450.187 3.94164 2.87203 0
M  V30 4783 H 449.192 5.39092 1.07983 0
M  V30 4784 H 450.417 6.64366 1.40694 0
M  V30 4785 H 448.363 5.61069 3.39908 0
M  V30 4786 H 448.28 7.11788 2.54744 0
M  V30 4787 H 449.548 6.8568 3.7076 0
M  V30 4788 N 453.777 0.010035 1.57597 0
M  V30 4789 C 454.687 -0.994226 2.12491 0
M  V30 4790 C 455.703 -1.37013 1.07254 0
M  V30 4791 O 456.879 -1.45542 1.3921 0
M  V30 4792 C 453.944 -2.2642 2.62555 0
M  V30 4793 C 453.005 -1.95049 3.82432 0
M  V30 4794 C 452.238 -3.15991 4.30099 0
M  V30 4795 O 452.461 -4.28015 3.7704 0
M  V30 4796 O 451.395 -2.99403 5.22151 0
M  V30 4797 H 455.221 -0.557549 2.98538 0
M  V30 4798 H 452.806 -0.209413 1.47925 0
M  V30 4799 H 454.688 -3.01009 2.9491 0
M  V30 4800 H 453.363 -2.69306 1.796 0
M  V30 4801 H 452.27 -1.17904 3.55034 0
M  V30 4802 H 453.603 -1.56992 4.66491 0
M  V30 4803 N 455.255 -1.55392 -0.262866 0
M  V30 4804 C 456.502 -1.76476 -0.993109 0
M  V30 4805 C 456.83 -0.571479 -1.85915 0
M  V30 4806 O 456.085 0.445733 -1.90556 0
M  V30 4807 C 456.384 -3.02889 -1.89718 0
M  V30 4808 C 456.05 -4.34974 -1.18781 0
M  V30 4809 C 454.712 -4.7087 -0.991699 0
M  V30 4810 C 457.064 -5.16695 -0.683798 0
M  V30 4811 C 454.392 -5.86036 -0.279024 0
M  V30 4812 C 456.744 -6.32598 0.0153327 0
M  V30 4813 C 455.408 -6.67127 0.223062 0
M  V30 4814 H 454.678 -0.64577 -0.363404 0
M  V30 4815 H 457.325 -1.89664 -0.264525 0
M  V30 4816 H 455.63 -2.84644 -2.6923 0
M  V30 4817 H 457.327 -3.16399 -2.46359 0
M  V30 4818 H 453.917 -4.06765 -1.35058 0
M  V30 4819 H 458.101 -4.8943 -0.8229 0
M  V30 4820 H 453.357 -6.11306 -0.107456 0
M  V30 4821 H 457.531 -6.95171 0.413584 0
M  V30 4822 H 455.158 -7.56216 0.777265 0
M  V30 4823 N 456.733 0.527833 -1.48498 0
M  V30 4824 C 457.973 1.29401 -1.58224 0
M  V30 4825 C 458.337 1.90348 -0.251327 0
M  V30 4826 O 459.538 2.67868 -0.223588 0
M  V30 4827 C 457.809 2.35266 -2.69044 0
M  V30 4828 S 459.368 3.2158 -2.98549 0
M  V30 4829 H 456.186 0.440138 -0.558391 0
M  V30 4830 H 458.788 0.601079 -1.8603 0
M  V30 4831 H 457.492 1.88975 -3.64303 0
M  V30 4832 H 457.023 3.09263 -2.43146 0
M  V30 4833 H 459.038 4.35391 -2.38011 0
M  V30 4834 N 458.211 1.37122 0.776871 0
M  V30 4835 C 459.121 1.34651 1.9211 0
M  V30 4836 C 460.137 0.246824 1.7224 0
M  V30 4837 O 461.313 0.48134 1.95563 0
M  V30 4838 C 458.378 1.14748 3.2716 0
M  V30 4839 C 457.439 2.34308 3.5972 0
M  V30 4840 C 456.672 2.15345 4.88326 0
M  V30 4841 O 456.895 1.13507 5.58992 0
M  V30 4842 O 455.829 3.03414 5.1983 0
M  V30 4843 H 459.655 2.31013 1.97146 0
M  V30 4844 H 457.24 1.17799 0.918901 0
M  V30 4845 H 459.122 1.05616 4.0795 0
M  V30 4846 H 457.797 0.214562 3.22988 0
M  V30 4847 H 456.704 2.49011 2.79185 0
M  V30 4848 H 458.037 3.26149 3.68629 0
M  V30 4849 N 459.689 -1.00246 1.21608 0
M  V30 4850 C 460.637 -2.11193 0.97469 0
M  V30 4851 C 461.631 -1.69216 -0.0789303 0
M  V30 4852 O 462.837 -1.79853 0.0726806 0
M  V30 4853 H 459.212 -0.690455 0.297953 0
M  V30 4854 H 461.183 -2.2873 1.91638 0
M  V30 4855 C 459.932 -3.43182 0.558717 0
M  V30 4856 H 459.255 -3.75918 1.3611 0
M  V30 4857 H 460.695 -4.21823 0.429154 0
M  V30 4858 C 459.154 -3.28882 -0.730648 0
M  V30 4859 O 459.684 -3.59835 -1.78554 0
M  V30 4860 N 457.89 -2.8209 -0.698131 0
M  V30 4861 H 457.437 -2.57099 0.16061 0
M  V30 4862 H 457.395 -2.72903 -1.56113 0
M  V30 4863 N 461.167 -1.02423 -1.1978 0
M  V30 4864 C 462.097 -0.62157 -2.25075 0
M  V30 4865 C 463.078 0.367148 -1.6609 0
M  V30 4866 O 464.263 0.250892 -1.92573 0
M  V30 4867 C 461.393 0.0331826 -3.47284 0
M  V30 4868 C 460.347 -0.877323 -4.18912 0
M  V30 4869 C 459.673 -0.0879296 -5.34628 0
M  V30 4870 C 460.973 -2.18892 -4.74219 0
M  V30 4871 H 462.667 -1.50179 -2.59011 0
M  V30 4872 H 460.213 -0.723547 -1.24502 0
M  V30 4873 H 462.166 0.326488 -4.20133 0
M  V30 4874 H 460.89 0.948164 -3.12534 0
M  V30 4875 H 459.549 -1.15475 -3.47938 0
M  V30 4876 H 459.197 0.828941 -4.96123 0
M  V30 4877 H 458.897 -0.694359 -5.83483 0
M  V30 4878 H 460.421 0.198743 -6.10276 0
M  V30 4879 H 461.835 -1.95746 -5.38847 0
M  V30 4880 H 460.232 -2.74686 -5.33542 0
M  V30 4881 H 461.302 -2.84674 -3.92541 0
M  V30 4882 N 462.645 1.35699 -0.801477 0
M  V30 4883 C 463.87 2.03687 -0.390678 0
M  V30 4884 C 464.295 1.60015 0.988778 0
M  V30 4885 O 463.653 0.774357 1.63931 0
M  V30 4886 C 463.701 3.57439 -0.476404 0
M  V30 4887 O 462.805 4.09208 0.512106 0
M  V30 4888 H 462.146 0.64344 -0.163956 0
M  V30 4889 H 464.676 1.73403 -1.08594 0
M  V30 4890 H 464.686 4.06544 -0.344357 0
M  V30 4891 H 463.361 3.88576 -1.48262 0
M  V30 4892 H 461.938 3.7134 0.340721 0
M  V30 4893 N 464.123 0.554532 1.47522 0
M  V30 4894 C 465.086 -0.184174 2.28459 0
M  V30 4895 C 466.086 -0.845195 1.36796 0
M  V30 4896 O 467.276 -0.701467 1.59452 0
M  V30 4897 C 464.408 -1.26903 3.16399 0
M  V30 4898 H 465.601 0.526751 2.95238 0
M  V30 4899 H 463.154 0.311375 1.53167 0
M  V30 4900 H 463.889 -2.01244 2.54306 0
M  V30 4901 H 463.674 -0.799883 3.83854 0
M  V30 4902 H 465.164 -1.78794 3.77389 0
M  V30 4903 N 465.601 -1.54893 0.290851 0
M  V30 4904 C 466.878 -1.91991 -0.373989 0
M  V30 4905 C 467.258 -1.21694 -1.72493 0
M  V30 4906 O 466.606 -0.34917 -2.25816 0
M  V30 4907 C 466.816 -3.45419 -0.498703 0
M  V30 4908 C 468.164 -4.1748 -0.774298 0
M  V30 4909 O 469.188 -3.51398 -0.582908 0
M  V30 4910 O 468.047 -5.3445 -1.14129 0
M  V30 4911 H 465.141 -0.800593 -0.207315 0
M  V30 4912 H 467.687 -1.66297 0.338164 0
M  V30 4913 H 466.459 -3.88688 0.451392 0
M  V30 4914 H 466.082 -3.77117 -1.25972 0
M  V30 4915 N 467.08 -0.0183926 -1.57589 0
M  V30 4916 C 468.32 0.666846 -1.93216 0
M  V30 4917 C 468.684 1.69905 -0.894215 0
M  V30 4918 O 469.885 2.436 -1.13633 0
M  V30 4919 C 468.156 1.27684 -3.33814 0
M  V30 4920 S 469.715 1.98464 -3.91353 0
M  V30 4921 H 466.533 0.219826 -0.676164 0
M  V30 4922 H 469.135 -0.0794893 -1.95338 0
M  V30 4923 H 467.839 0.513006 -4.07181 0
M  V30 4924 H 467.37 2.06071 -3.3511 0
M  V30 4925 H 469.385 3.26189 -3.73918 0
M  V30 4926 N 468.558 1.5553 0.254621 0
M  V30 4927 C 469.974 1.4778 0.602753 0
M  V30 4928 C 470.174 0.707047 1.88688 0
M  V30 4929 O 469.23 0.233288 2.5142 0
M  V30 4930 C 470.543 2.92133 0.712648 0
M  V30 4931 C 472.091 3.02458 0.805488 0
M  V30 4932 C 472.566 4.48102 0.947009 0
M  V30 4933 N 474.057 4.52008 1.01207 0
M  V30 4934 C 474.792 5.61939 1.1407 0
M  V30 4935 N 474.288 6.81697 1.23536 0
M  V30 4936 N 476.081 5.49719 1.17325 0
M  V30 4937 H 468.232 2.04085 -0.588463 0
M  V30 4938 H 470.495 0.926229 -0.202001 0
M  V30 4939 H 470.201 3.51332 -0.160766 0
M  V30 4940 H 470.075 3.42187 1.58707 0
M  V30 4941 H 472.462 2.43344 1.66936 0
M  V30 4942 H 472.543 2.55627 -0.0939266 0
M  V30 4943 H 472.187 5.07824 0.087725 0
M  V30 4944 H 472.117 4.92607 1.86135 0
M  V30 4945 H 474.608 3.65749 0.950577 0
M  V30 4946 H 474.921 7.61228 1.33236 0
M  V30 4947 H 473.266 6.84473 1.20508 0
M  V30 4948 H 476.457 4.55095 1.09573 0
M  V30 4949 H 476.63 6.35432 1.27005 0
M  V30 4950 N 470.036 -0.519951 1.48776 0
M  V30 4951 C 470.946 -1.65025 1.66745 0
M  V30 4952 C 471.962 -1.6508 0.549954 0
M  V30 4953 O 473.138 -1.83848 0.822295 0
M  V30 4954 C 470.203 -3.0146 1.71238 0
M  V30 4955 C 469.264 -3.12182 2.94688 0
M  V30 4956 C 468.497 -4.42109 2.98958 0
M  V30 4957 O 468.72 -5.29799 2.1135 0
M  V30 4958 O 467.654 -4.57406 3.91233 0
M  V30 4959 H 471.48 -1.52801 2.62461 0
M  V30 4960 H 469.065 -0.694157 1.32294 0
M  V30 4961 H 470.947 -3.82584 1.76657 0
M  V30 4962 H 469.622 -3.13988 0.786975 0
M  V30 4963 H 468.529 -2.30316 2.94797 0
M  V30 4964 H 469.862 -3.04574 3.86646 0
M  V30 4965 N 471.514 -1.37532 -0.769588 0
M  V30 4966 C 472.462 -1.33561 -1.90432 0
M  V30 4967 C 473.456 -0.224027 -1.67912 0
M  V30 4968 O 474.662 -0.392174 -1.75676 0
M  V30 4969 H 471.037 -0.416279 -0.626271 0
M  V30 4970 H 473.008 -2.29348 -1.90899 0
M  V30 4971 C 471.757 -1.16162 -3.27722 0
M  V30 4972 H 471.08 -2.00951 -3.45628 0
M  V30 4973 H 472.52 -1.17434 -4.07413 0
M  V30 4974 C 470.979 0.132583 -3.36639 0
M  V30 4975 O 471.509 1.11539 -3.85904 0
M  V30 4976 N 469.715 0.184013 -2.90017 0
M  V30 4977 H 469.262 -0.616415 -2.50116 0
M  V30 4978 H 469.22 1.04956 -2.96364 0
M  V30 4979 N 472.992 0.995999 -1.22138 0
M  V30 4980 C 474.238 1.73767 -1.04561 0
M  V30 4981 C 474.571 1.89633 0.418698 0
M  V30 4982 O 473.846 1.43723 1.3105 0
M  V30 4983 C 474.129 3.14505 -1.75382 0
M  V30 4984 C 473.982 3.06306 -3.29388 0
M  V30 4985 C 475.301 4.13615 -1.50369 0
M  V30 4986 H 472.42 0.630728 -0.38125 0
M  V30 4987 H 475.062 1.16057 -1.50435 0
M  V30 4988 H 473.212 3.63775 -1.36383 0
M  V30 4989 H 474.884 2.64681 -3.77812 0
M  V30 4990 H 473.127 2.43186 -3.59226 0
M  V30 4991 H 473.798 4.05884 -3.74116 0
M  V30 4992 H 476.274 3.73089 -1.84239 0
M  V30 4993 H 475.15 5.10212 -2.02421 0
M  V30 4994 H 475.411 4.39949 -0.435611 0
M  V30 4995 N 474.47 1.03057 1.19235 0
M  V30 4996 C 475.719 0.72326 1.88287 0
M  V30 4997 C 476.032 -0.751333 1.80594 0
M  V30 4998 O 477.238 -1.17176 2.44912 0
M  V30 4999 C 475.694 1.24338 3.3774 0
M  V30 5000 C 475.302 2.74587 3.53986 0
M  V30 5001 C 477.046 1.01213 4.12257 0
M  V30 5002 C 474.953 3.20009 4.97341 0
M  V30 5003 H 473.883 0.266848 0.705201 0
M  V30 5004 H 476.534 1.24509 1.34795 0
M  V30 5005 H 474.916 0.649457 3.90638 0
M  V30 5006 H 476.09 3.39649 3.11408 0
M  V30 5007 H 474.405 2.9601 2.9286 0
M  V30 5008 H 477.002 1.32675 5.17978 0
M  V30 5009 H 477.345 -0.051001 4.16269 0
M  V30 5010 H 477.878 1.57014 3.65501 0
M  V30 5011 H 474.617 4.25659 4.98493 0
M  V30 5012 H 474.137 2.59676 5.40674 0
M  V30 5013 H 475.816 3.13447 5.66003 0
M  V30 5014 N 475.948 -1.35272 0.808662 0
M  V30 5015 C 476.881 -2.27595 0.165994 0
M  V30 5016 C 477.859 -1.48189 -0.669241 0
M  V30 5017 O 479.043 -1.77444 -0.636073 0
M  V30 5018 C 476.17 -3.29843 -0.769505 0
M  V30 5019 C 475.216 -4.26498 -0.0136267 0
M  V30 5020 S 476.049 -5.18878 1.32384 0
M  V30 5021 C 477.205 -6.24666 0.392838 0
M  V30 5022 H 477.438 -2.81755 0.948756 0
M  V30 5023 H 474.971 -1.42103 0.603828 0
M  V30 5024 H 476.929 -3.89247 -1.30374 0
M  V30 5025 H 475.59 -2.74558 -1.52567 0
M  V30 5026 H 474.783 -4.98769 -0.724227 0
M  V30 5027 H 474.385 -3.71274 0.450713 0
M  V30 5028 H 476.677 -6.7619 -0.4211 0
M  V30 5029 H 477.62 -6.99741 1.0848 0
M  V30 5030 H 478.028 -5.64499 -0.0123908 0
M  V30 5031 N 477.426 -0.562348 -1.47226 0
M  V30 5032 C 478.651 -0.0432632 -2.07355 0
M  V30 5033 C 479.076 1.24332 -1.41149 0
M  V30 5034 O 478.434 1.74603 -0.488226 0
M  V30 5035 C 478.482 0.130288 -3.60365 0
M  V30 5036 O 477.586 1.19166 -3.94808 0
M  V30 5037 H 476.927 -0.0536334 -0.66183 0
M  V30 5038 H 479.457 -0.779495 -1.89169 0
M  V30 5039 H 479.467 0.342881 -4.06557 0
M  V30 5040 H 478.142 -0.809389 -4.07948 0
M  V30 5041 H 476.719 0.959153 -3.60354 0
M  V30 5042 N 478.904 1.54736 -0.299062 0
M  V30 5043 C 479.836 2.20891 0.61153 0
M  V30 5044 C 480.849 1.20104 1.09904 0
M  V30 5045 O 482.038 1.46707 1.01683 0
M  V30 5046 C 479.138 2.84018 1.84897 0
M  V30 5047 C 478.311 4.10719 1.50428 0
M  V30 5048 C 477.37 4.57667 2.59667 0
M  V30 5049 O 476.396 5.2291 2.24842 0
M  V30 5050 N 477.598 4.29821 3.90172 0
M  V30 5051 H 480.363 2.99666 0.0452001 0
M  V30 5052 H 477.924 1.61446 -0.121178 0
M  V30 5053 H 479.916 3.1236 2.5732 0
M  V30 5054 H 478.486 2.09095 2.32375 0
M  V30 5055 H 477.706 3.89408 0.612781 0
M  V30 5056 H 478.994 4.93223 1.24934 0
M  V30 5057 H 478.392 3.77549 4.21276 0
M  V30 5058 H 476.949 4.62877 4.58899 0
M  V30 5059 N 480.382 0.0267497 1.57577 0
M  V30 5060 C 481.631 -0.651736 1.9088 0
M  V30 5061 C 481.944 -1.73427 0.904576 0
M  V30 5062 O 483.15 -2.46923 1.12877 0
M  V30 5063 C 481.606 -1.21048 3.38933 0
M  V30 5064 C 481.214 -0.161362 4.47709 0
M  V30 5065 C 482.958 -1.86562 3.81307 0
M  V30 5066 C 480.865 -0.731611 5.86857 0
M  V30 5067 H 479.795 -0.247198 0.712326 0
M  V30 5068 H 482.446 0.0916641 1.83271 0
M  V30 5069 H 480.828 -2.00542 3.41466 0
M  V30 5070 H 482.002 0.61094 4.56732 0
M  V30 5071 H 480.317 0.394877 4.14523 0
M  V30 5072 H 482.914 -2.30178 4.8262 0
M  V30 5073 H 483.257 -2.70735 3.16241 0
M  V30 5074 H 483.79 -1.13762 3.81186 0
M  V30 5075 H 480.529 0.0719329 6.55461 0
M  V30 5076 H 480.049 -1.47245 5.81445 0
M  V30 5077 H 481.728 -1.22208 6.35354 0
M  V30 5078 N 481.861 -1.55662 -0.24637 0
M  V30 5079 C 482.791 -1.93377 -1.30873 0
M  V30 5080 C 483.772 -0.798773 -1.50179 0
M  V30 5081 O 484.957 -1.0591 -1.62778 0
M  V30 5082 C 482.087 -2.22893 -2.66338 0
M  V30 5083 C 481.041 -3.38649 -2.61727 0
M  V30 5084 C 480.367 -3.53708 -4.00992 0
M  V30 5085 C 481.667 -4.74323 -2.18666 0
M  V30 5086 H 483.361 -2.82363 -0.995552 0
M  V30 5087 H 480.907 -1.35854 -0.477464 0
M  V30 5088 H 482.86 -2.47866 -3.40794 0
M  V30 5089 H 481.584 -1.30733 -2.99293 0
M  V30 5090 H 480.243 -3.13685 -1.89729 0
M  V30 5091 H 479.891 -2.58967 -4.31214 0
M  V30 5092 H 479.591 -4.31551 -3.98795 0
M  V30 5093 H 481.115 -3.81003 -4.77147 0
M  V30 5094 H 482.529 -4.98665 -2.82854 0
M  V30 5095 H 480.926 -5.55273 -2.27579 0
M  V30 5096 H 481.996 -4.71349 -1.13834 0
M  V30 5097 N 483.339 0.512053 -1.4905 0
M  V30 5098 C 484.75 1.09376 -1.51307 0
M  V30 5099 C 485.101 1.94 -0.292971 0
M  V30 5100 O 484.226 2.07965 0.598277 0
M  V30 5101 C 484.821 1.99031 -2.74176 0
M  V30 5102 C 483.38 2.52385 -2.79247 0
M  V30 5103 C 482.527 1.29749 -2.45073 0
M  V30 5104 H 485.478 0.296467 -1.55906 0
M  V30 5105 H 485.499 2.83569 -2.53711 0
M  V30 5106 H 485.011 1.37412 -3.62959 0
M  V30 5107 H 483.112 3.17673 -1.94716 0
M  V30 5108 H 483.225 2.90293 -3.81139 0
M  V30 5109 H 481.589 1.61912 -1.96612 0
M  V30 5110 H 482.372 0.698555 -3.36118 0
M  V30 5111 N 484.817 1.37938 0.762283 0
M  V30 5112 C 486.057 1.35076 1.53407 0
M  V30 5113 C 486.421 -0.061546 1.91901 0
M  V30 5114 O 487.622 -0.214973 2.67939 0
M  V30 5115 C 485.893 2.27206 2.75884 0
M  V30 5116 S 487.452 2.42283 3.65848 0
M  V30 5117 H 484.27 0.479387 0.52508 0
M  V30 5118 H 486.872 1.7378 0.895586 0
M  V30 5119 H 485.576 3.28724 2.457 0
M  V30 5120 H 485.107 1.8962 3.44685 0
M  V30 5121 H 487.122 1.64044 4.68299 0
M  V30 5122 N 486.295 -0.989507 1.22664 0
M  V30 5123 C 487.544 -1.72375 1.04737 0
M  V30 5124 C 487.857 -1.91096 -0.417316 0
M  V30 5125 O 489.063 -2.6188 -0.716334 0
M  V30 5126 C 487.519 -3.10161 1.82561 0
M  V30 5127 C 487.127 -2.99358 3.333 0
M  V30 5128 C 488.871 -3.87607 1.73093 0
M  V30 5129 C 486.778 -4.32319 4.03552 0
M  V30 5130 H 485.708 -0.646326 0.388302 0
M  V30 5131 H 488.359 -1.10437 1.46546 0
M  V30 5132 H 486.741 -3.728 1.33552 0
M  V30 5133 H 487.915 -2.45863 3.89728 0
M  V30 5134 H 486.23 -2.35392 3.43481 0
M  V30 5135 H 488.827 -4.86025 2.22899 0
M  V30 5136 H 489.17 -4.10509 0.691976 0
M  V30 5137 H 489.703 -3.31652 2.19663 0
M  V30 5138 H 486.442 -4.14616 5.07714 0
M  V30 5139 H 485.962 -4.85714 3.51911 0
M  V30 5140 H 487.641 -5.01051 4.09337 0
M  V30 5141 N 487.773 -1.03688 -1.18687 0
M  V30 5142 C 488.72 -0.624624 -2.22187 0
M  V30 5143 C 489.69 0.365636 -1.62026 0
M  V30 5144 O 490.875 0.260481 -1.89014 0
M  V30 5145 C 488.015 0.0101738 -3.45099 0
M  V30 5146 C 487.128 -1.02709 -4.19613 0
M  V30 5147 C 486.263 -0.361213 -5.2997 0
M  V30 5148 C 485.302 -1.38384 -5.96252 0
M  V30 5149 N 484.439 -0.743196 -6.98155 0
M  V30 5150 H 489.279 -1.51176 -2.56807 0
M  V30 5151 H 486.816 -0.75636 -1.26165 0
M  V30 5152 H 488.774 0.395528 -4.15321 0
M  V30 5153 H 487.404 0.860848 -3.1111 0
M  V30 5154 H 486.456 -1.53043 -3.48256 0
M  V30 5155 H 487.768 -1.80398 -4.65036 0
M  V30 5156 H 486.922 0.0785537 -6.06649 0
M  V30 5157 H 485.661 0.447799 -4.8564 0
M  V30 5158 H 484.666 -1.83378 -5.18317 0
M  V30 5159 H 485.891 -2.19448 -6.42666 0
M  V30 5160 H 483.837 0.0455789 -6.55984 0
M  V30 5161 H 483.754 -1.45784 -7.41811 0
M  V30 5162 H 485.022 -0.327698 -7.78811 0
M  V30 5163 N 489.251 1.34841 -0.815825 0
M  V30 5164 C 490.161 2.33425 -0.234462 0
M  V30 5165 C 491.177 1.62295 0.627413 0
M  V30 5166 O 492.353 1.94109 0.536987 0
M  V30 5167 C 489.418 3.41471 0.599849 0
M  V30 5168 C 488.479 4.28362 -0.283596 0
M  V30 5169 C 487.712 5.31248 0.51099 0
M  V30 5170 O 487.935 5.43056 1.7449 0
M  V30 5171 O 486.869 6.01812 -0.10297 0
M  V30 5172 H 490.695 2.84962 -1.05024 0
M  V30 5173 H 488.28 1.37774 -0.577809 0
M  V30 5174 H 490.162 4.07464 1.07475 0
M  V30 5175 H 488.837 2.9219 1.39308 0
M  V30 5176 H 487.744 3.65318 -0.805836 0
M  V30 5177 H 489.077 4.81066 -1.041 0
M  V30 5178 N 490.729 0.570148 1.46925 0
M  V30 5179 C 491.659 -0.158274 2.32963 0
M  V30 5180 C 492.64 -0.896093 1.44583 0
M  V30 5181 O 493.825 -0.874022 1.7342 0
M  V30 5182 C 490.955 -1.18055 3.26619 0
M  V30 5183 C 489.909 -0.558379 4.24342 0
M  V30 5184 C 489.235 -1.68623 5.07415 0
M  V30 5185 C 490.535 0.496295 5.19937 0
M  V30 5186 H 492.229 0.560046 2.94115 0
M  V30 5187 H 489.775 0.270775 1.41431 0
M  V30 5188 H 491.728 -1.69841 3.85658 0
M  V30 5189 H 490.452 -1.92899 2.63548 0
M  V30 5190 H 489.111 -0.0617157 3.66548 0
M  V30 5191 H 488.759 -2.42402 4.40738 0
M  V30 5192 H 488.459 -1.27564 5.73586 0
M  V30 5193 H 489.983 -2.20709 5.69315 0
M  V30 5194 H 491.397 0.0640052 5.73264 0
M  V30 5195 H 489.794 0.82649 5.94381 0
M  V30 5196 H 490.864 1.38735 4.6463 0
M  V30 5197 N 492.207 -1.54576 0.307264 0
M  V30 5198 C 493.453 -2.0056 -0.300612 0
M  V30 5199 C 493.786 -1.1953 -1.53057 0
M  V30 5200 O 493.061 -0.27337 -1.92569 0
M  V30 5201 C 493.344 -3.54167 -0.650987 0
M  V30 5202 C 493.197 -4.45933 0.588539 0
M  V30 5203 C 494.516 -4.14645 -1.47506 0
M  V30 5204 H 491.635 -0.729075 -0.107788 0
M  V30 5205 H 494.277 -1.85286 0.420606 0
M  V30 5206 H 492.427 -3.67313 -1.26544 0
M  V30 5207 H 494.099 -4.44683 1.22697 0
M  V30 5208 H 492.342 -4.16274 1.22058 0
M  V30 5209 H 493.013 -5.51189 0.299153 0
M  V30 5210 H 495.489 -4.04973 -0.955821 0
M  V30 5211 H 494.365 -5.22269 -1.68899 0
M  V30 5212 H 494.626 -3.66921 -2.4662 0
M  V30 5213 N 493.685 -0.035106 -1.57561 0
M  V30 5214 C 494.91 0.655802 -1.96759 0
M  V30 5215 C 495.335 1.64523 -0.911809 0
M  V30 5216 O 494.693 1.80857 0.126673 0
M  V30 5217 C 494.741 1.33326 -3.35047 0
M  V30 5218 O 493.845 2.44866 -3.31835 0
M  V30 5219 H 493.186 0.171807 -0.641388 0
M  V30 5220 H 495.716 -0.0987369 -2.04362 0
M  V30 5221 H 495.726 1.68867 -3.71413 0
M  V30 5222 H 494.401 0.608033 -4.11431 0
M  V30 5223 H 492.978 2.11392 -3.07193 0
M  V30 5224 N 495.163 1.55791 0.238111 0
M  V30 5225 C 496.44 1.68798 0.98826 0
M  V30 5226 C 496.82 0.577562 2.03045 0
M  V30 5227 O 496.168 -0.41778 2.24648 0
M  V30 5228 C 496.378 3.09454 1.61367 0
M  V30 5229 C 497.726 3.68335 2.11221 0
M  V30 5230 O 498.75 3.1231 1.71292 0
M  V30 5231 O 497.609 4.6657 2.84561 0
M  V30 5232 H 494.703 0.686881 0.460568 0
M  V30 5233 H 497.249 1.68118 0.231202 0
M  V30 5234 H 496.021 3.81726 0.860295 0
M  V30 5235 H 495.644 3.14182 2.4367 0
M  V30 5236 N 496.642 -0.504142 1.49319 0
M  V30 5237 C 497.605 -1.5883 1.65244 0
M  V30 5238 C 498.605 -1.52009 0.524386 0
M  V30 5239 O 499.795 -1.55218 0.79077 0
M  V30 5240 C 496.927 -2.98481 1.64687 0
M  V30 5241 H 498.12 -1.4604 2.61939 0
M  V30 5242 H 495.673 -0.728144 1.38303 0
M  V30 5243 H 496.408 -3.16751 0.695644 0
M  V30 5244 H 496.193 -3.0484 2.46607 0
M  V30 5245 H 497.683 -3.77256 1.79075 0
M  V30 5246 N 498.12 -1.38341 -0.754957 0
M  V30 5247 C 499.068 -1.35573 -1.89005 0
M  V30 5248 C 500.062 -0.241824 -1.67665 0
M  V30 5249 O 501.268 -0.410785 -1.7525 0
M  V30 5250 H 497.643 -0.422898 -0.621821 0
M  V30 5251 H 499.614 -2.31359 -1.88455 0
M  V30 5252 C 498.363 -1.19631 -3.26471 0
M  V30 5253 H 497.686 -2.04605 -3.43477 0
M  V30 5254 H 499.126 -1.21748 -4.06144 0
M  V30 5255 C 497.585 0.0968705 -3.36761 0
M  V30 5256 O 498.115 1.07439 -3.87066 0
M  V30 5257 N 496.321 0.153242 -2.90196 0
M  V30 5258 H 495.868 -0.642908 -2.49448 0
M  V30 5259 H 495.826 1.01807 -2.9746 0
M  V30 5260 N 499.598 0.982988 -1.23187 0
M  V30 5261 C 500.53 2.07729 -0.968572 0
M  V30 5262 C 501.543 1.62702 0.0564821 0
M  V30 5263 O 502.732 1.77603 -0.178733 0
M  V30 5264 C 499.832 3.36071 -0.436974 0
M  V30 5265 C 499.005 4.10081 -1.52159 0
M  V30 5266 C 498.064 5.16701 -0.99532 0
M  V30 5267 O 497.09 5.43727 -1.68373 0
M  V30 5268 N 498.292 5.80226 0.178192 0
M  V30 5269 H 501.057 2.30894 -1.9107 0
M  V30 5270 H 498.618 1.14949 -1.1401 0
M  V30 5271 H 500.61 4.04639 -0.0700051 0
M  V30 5272 H 499.18 3.09893 0.410509 0
M  V30 5273 H 498.4 3.36004 -2.06144 0
M  V30 5274 H 499.688 4.56295 -2.25105 0
M  V30 5275 H 499.086 5.60651 0.754096 0
M  V30 5276 H 497.643 6.49982 0.486449 0
M  V30 5277 N 501.076 1.04316 1.18135 0
M  V30 5278 C 502.026 0.606731 2.19779 0
M  V30 5279 C 503.01 -0.352144 1.56999 0
M  V30 5280 O 504.202 -0.170795 1.76174 0
M  V30 5281 C 501.331 -0.0262443 3.4329 0
M  V30 5282 C 500.417 0.955928 4.13186 0
M  V30 5283 N 500.808 2.12395 4.59045 0
M  V30 5284 C 499.106 0.782473 4.39082 0
M  V30 5285 C 499.807 2.74458 5.12882 0
M  V30 5286 N 498.783 2.02316 5.04548 0
M  V30 5287 H 502.585 1.49679 2.5293 0
M  V30 5288 H 500.099 0.912088 1.34368 0
M  V30 5289 H 502.096 -0.356617 4.15372 0
M  V30 5290 H 500.756 -0.911811 3.11635 0
M  V30 5291 H 501.767 2.50272 4.53414 0
M  V30 5292 H 498.444 -0.0527906 4.17467 0
M  V30 5293 H 499.834 3.73459 5.5855 0
M  V30 5294 N 502.554 -1.34406 0.822964 0
M  V30 5295 C 503.8 -1.98578 0.411666 0
M  V30 5296 C 504.133 -1.65093 -1.02264 0
M  V30 5297 O 503.408 -0.92258 -1.71227 0
M  V30 5298 C 503.691 -3.54823 0.614235 0
M  V30 5299 C 503.544 -3.9805 2.09466 0
M  V30 5300 C 504.863 -4.40071 0.050221 0
M  V30 5301 H 501.982 -0.721355 0.151047 0
M  V30 5302 H 504.624 -1.59301 1.03554 0
M  V30 5303 H 502.774 -3.88411 0.0831774 0
M  V30 5304 H 504.446 -3.74795 2.68936 0
M  V30 5305 H 502.689 -3.4836 2.5851 0
M  V30 5306 H 503.36 -5.06819 2.18721 0
M  V30 5307 H 505.836 -4.13037 0.503953 0
M  V30 5308 H 504.712 -5.48452 0.221759 0
M  V30 5309 H 504.973 -4.29576 -1.04482 0
M  V30 5310 N 504.032 -0.577932 -1.46621 0
M  V30 5311 C 504.979 0.158048 -2.30258 0
M  V30 5312 C 505.949 0.888669 -1.40328 0
M  V30 5313 O 507.134 0.880283 -1.6928 0
M  V30 5314 C 504.274 1.16884 -3.24703 0
M  V30 5315 C 503.387 0.442163 -4.29731 0
M  V30 5316 C 502.522 1.44007 -5.11308 0
M  V30 5317 C 501.561 0.69952 -6.0809 0
M  V30 5318 N 500.698 1.64525 -6.82551 0
M  V30 5319 H 505.538 -0.561242 -2.92667 0
M  V30 5320 H 503.075 -0.288591 -1.44241 0
M  V30 5321 H 505.033 1.7677 -3.779 0
M  V30 5322 H 503.663 1.85591 -2.64113 0
M  V30 5323 H 502.715 -0.271632 -3.79429 0
M  V30 5324 H 504.027 -0.136992 -4.98612 0
M  V30 5325 H 503.181 2.11186 -5.68758 0
M  V30 5326 H 501.92 2.05315 -4.42377 0
M  V30 5327 H 500.925 0.0139217 -5.49798 0
M  V30 5328 H 502.15 0.091894 -6.79038 0
M  V30 5329 H 500.096 2.24653 -6.16334 0
M  V30 5330 H 500.013 1.11878 -7.47676 0
M  V30 5331 H 501.281 2.30754 -7.44562 0
M  V30 5332 N 505.51 1.54411 -0.315457 0
M  V30 5333 C 506.735 2.05299 0.294496 0
M  V30 5334 C 507.16 1.19052 1.4563 0
M  V30 5335 O 506.518 0.197804 1.80218 0
M  V30 5336 C 506.566 3.5345 0.714549 0
M  V30 5337 O 505.67 3.70175 1.81781 0
M  V30 5338 H 505.011 0.661743 0.0547019 0
M  V30 5339 H 507.541 1.99327 -0.461508 0
M  V30 5340 H 507.551 3.9557 0.999426 0
M  V30 5341 H 506.226 4.1568 -0.135244 0
M  V30 5342 H 504.803 3.3996 1.53236 0
M  V30 5343 N 506.988 0.0434614 1.5754 0
M  V30 5344 C 507.951 -0.918696 2.09982 0
M  V30 5345 C 508.951 -1.24488 1.01781 0
M  V30 5346 O 510.141 -1.18284 1.27885 0
M  V30 5347 C 507.273 -2.23093 2.57764 0
M  V30 5348 H 508.466 -0.464229 2.96285 0
M  V30 5349 H 506.019 -0.204818 1.54952 0
M  V30 5350 H 506.754 -2.73137 1.74832 0
M  V30 5351 H 506.539 -2.00724 3.36827 0
M  V30 5352 H 508.029 -2.92028 2.98512 0
M  V30 5353 N 508.466 -1.55915 -0.229846 0
M  V30 5354 C 509.396 -1.94754 -1.28815 0
M  V30 5355 C 510.377 -0.814657 -1.49323 0
M  V30 5356 O 511.562 -1.07631 -1.61645 0
M  V30 5357 C 508.692 -2.25705 -2.63959 0
M  V30 5358 C 507.646 -3.41406 -2.5812 0
M  V30 5359 C 506.972 -3.57941 -3.97218 0
M  V30 5360 C 508.272 -4.76616 -2.13623 0
M  V30 5361 H 509.966 -2.83404 -0.965547 0
M  V30 5362 H 507.512 -1.36353 -0.463028 0
M  V30 5363 H 509.465 -2.51467 -3.38146 0
M  V30 5364 H 508.189 -1.339 -2.9789 0
M  V30 5365 H 506.848 -3.1568 -1.86391 0
M  V30 5366 H 506.496 -2.63526 -4.28443 0
M  V30 5367 H 506.196 -4.35757 -3.94195 0
M  V30 5368 H 507.72 -3.86042 -4.73079 0
M  V30 5369 H 509.134 -5.01637 -2.77549 0
M  V30 5370 H 507.531 -5.57655 -2.21677 0
M  V30 5371 H 508.601 -4.7253 -1.08829 0
M  V30 5372 N 509.944 0.496216 -1.49584 0
M  V30 5373 C 510.907 1.57952 -1.66084 0
M  V30 5374 C 511.907 1.51729 -0.53244 0
M  V30 5375 O 513.097 1.54796 -0.79899 0
M  V30 5376 C 510.229 2.97604 -1.66268 0
M  V30 5377 H 511.422 1.44649 -2.6271 0
M  V30 5378 H 508.975 0.7208 -1.38687 0
M  V30 5379 H 509.71 3.16378 -0.712432 0
M  V30 5380 H 509.495 3.03528 -2.4822 0
M  V30 5381 H 510.985 3.76301 -1.81073 0
M  V30 5382 N 511.423 1.38739 0.74761 0
M  V30 5383 C 512.648 1.38702 1.54197 0
M  V30 5384 C 513.073 -0.019664 1.8809 0
M  V30 5385 O 512.431 -1.00333 1.51006 0
M  V30 5386 C 512.479 2.25492 2.814 0
M  V30 5387 O 511.583 1.67613 3.76802 0
M  V30 5388 H 510.924 0.472863 0.466151 0
M  V30 5389 H 513.454 1.82577 0.923413 0
M  V30 5390 H 513.464 2.39561 3.30264 0
M  V30 5391 H 512.139 3.27727 2.56062 0
M  V30 5392 H 510.716 1.62718 3.35526 0
M  V30 5393 N 512.901 -0.976442 1.23707 0
M  V30 5394 C 514.147 -1.72081 1.07312 0
M  V30 5395 C 514.48 -1.90275 -0.388476 0
M  V30 5396 O 513.755 -1.4579 -1.28746 0
M  V30 5397 C 514.038 -3.11675 1.80363 0
M  V30 5398 C 513.891 -3.01027 3.3422 0
M  V30 5399 C 515.21 -4.1117 1.5693 0
M  V30 5400 H 512.329 -0.624583 0.391236 0
M  V30 5401 H 514.971 -1.13649 1.52263 0
M  V30 5402 H 513.121 -3.61559 1.42153 0
M  V30 5403 H 514.793 -2.58637 3.81975 0
M  V30 5404 H 513.036 -2.3744 3.63049 0
M  V30 5405 H 513.707 -3.9988 3.80525 0
M  V30 5406 H 516.183 -3.7011 1.90151 0
M  V30 5407 H 515.059 -5.06928 2.10513 0
M  V30 5408 H 515.32 -4.392 0.505548 0
M  V30 5409 N 514.379 -1.04941 -1.1758 0
M  V30 5410 C 515.628 -0.753124 -1.87112 0
M  V30 5411 C 515.941 0.722507 -1.81767 0
M  V30 5412 O 517.147 1.13265 -2.46746 0
M  V30 5413 C 515.603 -1.29695 -3.35719 0
M  V30 5414 C 515.211 -2.80184 -3.49572 0
M  V30 5415 C 516.955 -1.07759 -4.10595 0
M  V30 5416 C 514.862 -3.2788 -4.92187 0
M  V30 5417 H 513.792 -0.278034 -0.700866 0
M  V30 5418 H 516.443 -1.26637 -1.32798 0
M  V30 5419 H 514.825 -0.711522 -3.89555 0
M  V30 5420 H 515.999 -3.44561 -3.05965 0
M  V30 5421 H 514.314 -3.00632 -2.88113 0
M  V30 5422 H 516.911 -1.40899 -5.15802 0
M  V30 5423 H 517.254 -0.0152302 -4.16297 0
M  V30 5424 H 517.787 -1.62809 -3.62957 0
M  V30 5425 H 514.526 -4.33535 -4.91658 0
M  V30 5426 H 514.046 -2.68245 -5.36475 0
M  V30 5427 H 515.725 -3.22412 -5.60945 0
M  V30 5428 N 515.857 1.33968 -0.830081 0
M  V30 5429 C 516.79 2.27303 -0.202182 0
M  V30 5430 C 517.768 1.49235 0.645581 0
M  V30 5431 O 518.952 1.78433 0.607762 0
M  V30 5432 C 516.079 3.31025 0.716932 0
M  V30 5433 C 515.125 4.26466 -0.0542271 0
M  V30 5434 S 515.958 5.16707 -1.40622 0
M  V30 5435 C 517.114 6.23962 -0.492167 0
M  V30 5436 H 517.347 2.8021 -0.99346 0
M  V30 5437 H 514.88 1.41124 -0.626359 0
M  V30 5438 H 516.838 3.91271 1.24165 0
M  V30 5439 H 515.499 2.76951 1.4818 0
M  V30 5440 H 514.692 4.99858 0.644785 0
M  V30 5441 H 514.294 3.7051 -0.509722 0
M  V30 5442 H 516.586 6.76774 0.31347 0
M  V30 5443 H 517.529 6.97927 -1.19599 0
M  V30 5444 H 517.937 5.64447 -0.0774176 0
M  V30 5445 N 517.335 0.585699 1.46312 0
M  V30 5446 C 518.583 0.072278 2.01971 0
M  V30 5447 C 518.904 -1.29345 1.45928 0
M  V30 5448 O 518.174 -1.84973 0.645109 0
M  V30 5449 H 516.754 0.023729 0.746623 0
M  V30 5450 H 519.416 0.762155 1.7938 0
M  V30 5451 H 518.512 0.00552767 3.121 0
M  V30 5452 N 518.813 -1.54241 0.323641 0
M  V30 5453 C 519.743 -2.27289 -0.534993 0
M  V30 5454 C 520.724 -1.28087 -1.11927 0
M  V30 5455 O 521.909 -1.56899 -1.14439 0
M  V30 5456 C 519.039 -3.03075 -1.69596 0
M  V30 5457 C 517.993 -4.09614 -1.24098 0
M  V30 5458 C 517.319 -4.73242 -2.4889 0
M  V30 5459 C 518.619 -5.21087 -0.355789 0
M  V30 5460 H 520.313 -2.99308 0.0743257 0
M  V30 5461 H 517.859 -1.43952 0.0371874 0
M  V30 5462 H 519.812 -3.52907 -2.30293 0
M  V30 5463 H 518.536 -2.28673 -2.33187 0
M  V30 5464 H 517.195 -3.60666 -0.656945 0
M  V30 5465 H 516.843 -3.95455 -3.10845 0
M  V30 5466 H 516.543 -5.45209 -2.19138 0
M  V30 5467 H 518.067 -5.25848 -3.10348 0
M  V30 5468 H 519.481 -5.66675 -0.869042 0
M  V30 5469 H 517.878 -5.9991 -0.151045 0
M  V30 5470 H 518.948 -4.81005 0.613339 0
M  V30 5471 N 520.291 -0.0518155 -1.57515 0
M  V30 5472 C 521.516 0.634896 -1.97443 0
M  V30 5473 C 521.941 1.63546 -0.929207 0
M  V30 5474 O 521.299 1.80981 0.107484 0
M  V30 5475 C 521.347 1.29765 -3.36442 0
M  V30 5476 O 520.451 2.41333 -3.34413 0
M  V30 5477 H 519.792 0.164994 -0.643174 0
M  V30 5478 H 522.322 -0.120407 -2.04245 0
M  V30 5479 H 522.332 1.64918 -3.73184 0
M  V30 5480 H 521.007 0.564361 -4.12053 0
M  V30 5481 H 519.584 2.08122 -3.09418 0
M  V30 5482 N 521.769 1.56035 0.221574 0
M  V30 5483 C 523.18 1.69229 0.788567 0
M  V30 5484 C 523.531 0.653814 1.84986 0
M  V30 5485 O 522.656 -0.195065 2.15519 0
M  V30 5486 C 523.251 3.06809 1.43713 0
M  V30 5487 C 521.81 3.21858 1.95152 0
M  V30 5488 C 520.957 2.65155 0.811685 0
M  V30 5489 H 523.908 1.587 -0.00307894 0
M  V30 5490 H 523.929 3.02666 2.30594 0
M  V30 5491 H 523.441 3.82369 0.664475 0
M  V30 5492 H 521.542 2.51167 2.7522 0
M  V30 5493 H 521.655 4.29073 2.1315 0
M  V30 5494 H 520.019 2.23635 1.21899 0
M  V30 5495 H 520.802 3.43261 0.0516987 0
M  V30 5496 N 523.247 -0.488276 1.49845 0
M  V30 5497 C 524.496 -1.23826 1.59217 0
M  V30 5498 C 524.809 -1.93439 0.289966 0
M  V30 5499 O 526.015 -2.70229 0.262382 0
M  V30 5500 C 524.471 -2.24902 2.80976 0
M  V30 5501 C 524.079 -1.6117 4.18005 0
M  V30 5502 C 525.823 -3.00648 2.99685 0
M  V30 5503 C 523.73 -2.60431 5.3097 0
M  V30 5504 H 522.66 -0.465858 0.592868 0
M  V30 5505 H 525.311 -0.510645 1.76252 0
M  V30 5506 H 523.693 -3.0088 2.57463 0
M  V30 5507 H 524.867 -0.910968 4.51706 0
M  V30 5508 H 523.182 -0.97767 4.0476 0
M  V30 5509 H 525.779 -3.74903 3.81251 0
M  V30 5510 H 526.122 -3.5902 2.10738 0
M  V30 5511 H 526.655 -2.31784 3.23297 0
M  V30 5512 H 523.394 -2.06823 6.22017 0
M  V30 5513 H 522.914 -3.28707 5.01709 0
M  V30 5514 H 524.593 -3.22606 5.60834 0
M  V30 5515 N 524.725 -1.39134 -0.740242 0
M  V30 5516 C 525.655 -1.40165 -1.86751 0
M  V30 5517 C 526.636 -0.265708 -1.68012 0
M  V30 5518 O 527.821 -0.47076 -1.88408 0
M  V30 5519 C 524.951 -1.2392 -3.2444 0
M  V30 5520 C 523.905 -2.34858 -3.57807 0
M  V30 5521 C 523.231 -2.03707 -4.94376 0
M  V30 5522 C 524.531 -3.77159 -3.61315 0
M  V30 5523 H 526.225 -2.345 -1.86145 0
M  V30 5524 H 523.771 -1.12875 -0.89416 0
M  V30 5525 H 525.724 -1.23263 -4.02969 0
M  V30 5526 H 524.448 -0.26051 -3.25559 0
M  V30 5527 H 523.107 -2.34723 -2.81604 0
M  V30 5528 H 522.755 -1.04289 -4.9207 0
M  V30 5529 H 522.455 -2.78016 -5.17669 0
M  V30 5530 H 523.979 -2.04691 -5.75268 0
M  V30 5531 H 525.393 -3.79252 -4.29931 0
M  V30 5532 H 523.79 -4.50784 -3.96124 0
M  V30 5533 H 524.86 -4.08513 -2.61238 0
M  V30 5534 N 526.204 0.969867 -1.24223 0
M  V30 5535 C 527.452 1.70918 -1.0785 0
M  V30 5536 C 527.773 1.91186 0.383763 0
M  V30 5537 O 527.043 1.48806 1.27411 0
M  V30 5538 H 525.623 0.633334 -0.396103 0
M  V30 5539 H 528.285 1.16689 -1.56108 0
M  V30 5540 H 527.381 2.69455 -1.57482 0
M  V30 5541 N 527.682 1.05563 1.17022 0
M  V30 5542 C 528.629 0.659893 2.21165 0
M  V30 5543 C 529.599 -0.339813 1.62587 0
M  V30 5544 O 530.784 -0.230378 1.89404 0
M  V30 5545 C 527.924 0.0447297 3.45071 0
M  V30 5546 C 527.037 1.09372 4.17926 0
M  V30 5547 C 526.172 0.445481 5.29329 0
M  V30 5548 C 525.211 1.47852 5.93975 0
M  V30 5549 N 524.348 0.854172 6.96885 0
M  V30 5550 H 529.188 1.55243 2.54369 0
M  V30 5551 H 526.725 0.776336 1.24946 0
M  V30 5552 H 528.683 -0.329404 4.15898 0
M  V30 5553 H 527.313 -0.811244 3.1244 0
M  V30 5554 H 526.365 1.58564 3.45777 0
M  V30 5555 H 527.677 1.87773 4.62107 0
M  V30 5556 H 526.831 0.0179688 6.06697 0
M  V30 5557 H 525.57 -0.370481 4.86291 0
M  V30 5558 H 524.575 1.91601 5.15334 0
M  V30 5559 H 525.8 2.29645 6.39093 0
M  V30 5560 H 523.746 0.0587882 6.55974 0
M  V30 5561 H 523.663 1.57567 7.39397 0
M  V30 5562 H 524.931 0.451559 7.78191 0
M  V30 5563 N 529.16 -1.33526 0.837174 0
M  V30 5564 C 530.437 -1.92369 0.354065 0
M  V30 5565 C 530.817 -1.76348 -1.16038 0
M  V30 5566 O 530.165 -1.15083 -1.97403 0
M  V30 5567 C 530.375 -3.39728 0.799101 0
M  V30 5568 C 531.723 -4.16877 0.806139 0
M  V30 5569 O 532.747 -3.48373 0.742597 0
M  V30 5570 O 531.606 -5.39166 0.892345 0
M  V30 5571 H 528.7 -0.820952 0.0998378 0
M  V30 5572 H 531.246 -1.42409 0.922913 0
M  V30 5573 H 530.018 -3.45254 1.84162 0
M  V30 5574 H 529.641 -3.97062 0.206731 0
M  V30 5575 N 530.638 -0.59345 -1.46 0
M  V30 5576 C 531.586 0.146268 -2.3214 0
M  V30 5577 C 532.58 0.873743 -1.45128 0
M  V30 5578 O 533.786 0.790912 -1.61693 0
M  V30 5579 H 530.161 0.0660349 -0.749095 0
M  V30 5580 H 532.132 -0.598895 -2.92328 0
M  V30 5581 C 530.881 1.1396 -3.28494 0
M  V30 5582 H 530.204 0.589252 -3.95434 0
M  V30 5583 H 531.644 1.62738 -3.91526 0
M  V30 5584 C 530.103 2.20604 -2.54628 0
M  V30 5585 O 530.633 3.28128 -2.31722 0
M  V30 5586 N 528.839 1.95502 -2.15005 0
M  V30 5587 H 528.386 1.0807 -2.33834 0
M  V30 5588 H 528.344 2.67064 -1.65904 0
M  V30 5589 N 532.116 1.54067 -0.331816 0
M  V30 5590 C 533.344 2.05131 0.269996 0
M  V30 5591 C 533.759 1.20749 1.45138 0
M  V30 5592 O 533.116 0.240069 1.80914 0
M  V30 5593 C 533.167 3.54728 0.696456 0
M  V30 5594 O 532.888 4.35906 -0.43794 0
M  V30 5595 C 534.389 4.21916 1.36021 0
M  V30 5596 H 531.609 0.668807 0.0542042 0
M  V30 5597 H 534.153 1.98777 -0.4804 0
M  V30 5598 H 532.308 3.61342 1.39681 0
M  V30 5599 H 532.722 5.24404 -0.100334 0
M  V30 5600 H 534.196 5.28015 1.60947 0
M  V30 5601 H 534.673 3.73538 2.31011 0
M  V30 5602 H 535.279 4.19463 0.702212 0
M  V30 5603 N 533.594 0.0601682 1.57485 0
M  V30 5604 C 534.843 -0.611101 1.9222 0
M  V30 5605 C 535.156 -1.71469 0.941159 0
M  V30 5606 O 536.362 -2.44473 1.18089 0
M  V30 5607 C 534.818 -1.13832 3.41424 0
M  V30 5608 C 534.426 -0.0663596 4.47951 0
M  V30 5609 C 536.17 -1.78432 3.85178 0
M  V30 5610 C 534.077 -0.606965 5.88277 0
M  V30 5611 H 533.007 -0.232033 0.71741 0
M  V30 5612 H 535.658 0.130518 1.83035 0
M  V30 5613 H 534.04 -1.93254 3.45643 0
M  V30 5614 H 535.214 0.707682 4.55333 0
M  V30 5615 H 533.529 0.482715 4.13593 0
M  V30 5616 H 536.126 -2.1989 4.87394 0
M  V30 5617 H 536.469 -2.63966 3.21913 0
M  V30 5618 H 537.002 -1.05651 3.83514 0
M  V30 5619 H 533.741 0.21095 6.5516 0
M  V30 5620 H 533.261 -1.34879 5.84438 0
M  V30 5621 H 534.94 -1.08704 6.37803 0
M  V30 5622 N 535.072 -1.5615 -0.213296 0
M  V30 5623 C 535.982 -1.96265 -1.28519 0
M  V30 5624 C 536.998 -0.86765 -1.50824 0
M  V30 5625 O 538.174 -1.17191 -1.63793 0
M  V30 5626 C 535.239 -2.27836 -2.61327 0
M  V30 5627 C 534.3 -3.50949 -2.47252 0
M  V30 5628 C 533.533 -3.81004 -3.73727 0
M  V30 5629 O 533.756 -3.12612 -4.77106 0
M  V30 5630 O 532.69 -4.74477 -3.70344 0
M  V30 5631 H 536.516 -2.87631 -0.974795 0
M  V30 5632 H 534.101 -1.43467 -0.416832 0
M  V30 5633 H 535.983 -2.49299 -3.39747 0
M  V30 5634 H 534.658 -1.39643 -2.9203 0
M  V30 5635 H 533.565 -3.34754 -1.67004 0
M  V30 5636 H 534.898 -4.39551 -2.21486 0
M  V30 5637 N 536.55 0.480323 -1.50102 0
M  V30 5638 C 537.5 1.57685 -1.6468 0
M  V30 5639 C 538.484 1.52878 -0.5017 0
M  V30 5640 O 539.676 1.60058 -0.755668 0
M  V30 5641 C 536.805 2.96185 -1.73578 0
M  V30 5642 C 535.891 3.0591 -2.93734 0
M  V30 5643 N 536.282 2.85471 -4.1754 0
M  V30 5644 C 534.58 3.37036 -2.92101 0
M  V30 5645 C 535.281 2.99921 -4.9842 0
M  V30 5646 N 534.257 3.29715 -4.32191 0
M  V30 5647 H 538.059 1.40568 -2.58104 0
M  V30 5648 H 535.573 0.686874 -1.47159 0
M  V30 5649 H 537.57 3.75015 -1.82124 0
M  V30 5650 H 536.23 3.14356 -0.813057 0
M  V30 5651 H 537.241 2.61235 -4.47188 0
M  V30 5652 H 533.918 3.61253 -2.09291 0
M  V30 5653 H 535.308 2.88436 -6.06839 0
M  V30 5654 N 538.028 1.39524 0.732853 0
M  V30 5655 C 538.958 1.41153 1.86005 0
M  V30 5656 C 539.939 0.274614 1.67869 0
M  V30 5657 O 541.124 0.480745 1.88155 0
M  V30 5658 C 538.254 1.25638 3.23778 0
M  V30 5659 C 537.208 2.36752 3.56556 0
M  V30 5660 C 536.534 2.06326 4.93289 0
M  V30 5661 C 537.834 3.79069 3.5931 0
M  V30 5662 H 539.528 2.35484 1.84899 0
M  V30 5663 H 537.074 1.13348 0.888162 0
M  V30 5664 H 539.027 1.25398 4.0231 0
M  V30 5665 H 537.751 0.277772 3.25417 0
M  V30 5666 H 536.41 2.36213 2.80355 0
M  V30 5667 H 536.058 1.06897 4.9151 0
M  V30 5668 H 535.758 2.80757 5.16187 0
M  V30 5669 H 537.282 2.07739 5.74175 0
M  V30 5670 H 538.696 3.81526 4.27914 0
M  V30 5671 H 537.093 4.52878 3.93728 0
M  V30 5672 H 538.163 4.09893 2.59068 0
M  V30 5673 N 539.506 -0.963266 1.24736 0
M  V30 5674 C 540.436 -2.07628 1.06832 0
M  V30 5675 C 541.417 -1.70088 -0.0200566 0
M  V30 5676 O 542.602 -1.93636 0.147854 0
M  V30 5677 C 539.732 -3.40636 0.677069 0
M  V30 5678 C 538.686 -3.9215 1.71471 0
M  V30 5679 C 538.012 -5.21553 1.1784 0
M  V30 5680 C 539.312 -4.19493 3.11164 0
M  V30 5681 H 541.006 -2.22864 1.9993 0
M  V30 5682 H 538.552 -1.07093 0.96266 0
M  V30 5683 H 540.505 -4.17941 0.538792 0
M  V30 5684 H 539.229 -3.25313 -0.289612 0
M  V30 5685 H 537.888 -3.17005 1.84128 0
M  V30 5686 H 537.536 -5.02593 0.202195 0
M  V30 5687 H 537.236 -5.56988 1.87185 0
M  V30 5688 H 538.76 -6.01463 1.05233 0
M  V30 5689 H 540.174 -4.87487 3.01711 0
M  V30 5690 H 538.571 -4.66165 3.77902 0
M  V30 5691 H 539.641 -3.26097 3.58871 0
M  V30 5692 N 540.985 -1.06182 -1.16461 0
M  V30 5693 C 542.396 -0.802426 -1.68576 0
M  V30 5694 C 542.747 0.67412 -1.84255 0
M  V30 5695 O 541.872 1.52303 -1.5373 0
M  V30 5696 C 542.467 -1.45002 -3.06202 0
M  V30 5697 C 541.026 -1.23843 -3.55443 0
M  V30 5698 C 540.173 -1.52724 -2.31454 0
M  V30 5699 H 543.124 -1.22545 -1.00839 0
M  V30 5700 H 543.145 -0.864731 -3.70544 0
M  V30 5701 H 542.657 -2.52466 -2.94759 0
M  V30 5702 H 540.758 -0.183487 -3.72148 0
M  V30 5703 H 540.871 -1.95036 -4.37604 0
M  V30 5704 H 539.235 -0.947726 -2.36411 0
M  V30 5705 H 540.018 -2.61343 -2.22609 0
M  V30 5706 N 542.463 1.3308 -0.844243 0
M  V30 5707 C 543.393 2.3161 -0.296493 0
M  V30 5708 C 544.374 1.59215 0.598707 0
M  V30 5709 O 545.559 1.87077 0.521134 0
M  V30 5710 C 542.689 3.43313 0.524762 0
M  V30 5711 C 541.643 4.27115 -0.275106 0
M  V30 5712 C 540.969 5.30483 0.670236 0
M  V30 5713 C 542.269 5.00443 -1.49514 0
M  V30 5714 H 543.963 2.77672 -1.11976 0
M  V30 5715 H 541.509 1.33496 -0.539899 0
M  V30 5716 H 543.462 4.11273 0.918298 0
M  V30 5717 H 542.186 2.95952 1.3813 0
M  V30 5718 H 540.845 3.60787 -0.650267 0
M  V30 5719 H 540.493 4.79379 1.52332 0
M  V30 5720 H 540.193 5.87435 0.139123 0
M  V30 5721 H 541.717 6.01308 1.06117 0
M  V30 5722 H 543.131 5.61141 -1.17447 0
M  V30 5723 H 541.528 5.67071 -1.96343 0
M  V30 5724 H 542.598 4.28906 -2.26202 0
M  V30 5725 N 543.941 0.601185 1.45683 0
M  V30 5726 C 545.188 0.0938811 2.02282 0
M  V30 5727 C 545.516 -1.27315 1.47041 0
M  V30 5728 O 544.771 -1.85193 0.632623 0
M  V30 5729 C 545.07 -0.00222425 3.574 0
M  V30 5730 C 544.736 1.29963 4.31764 0
M  V30 5731 C 543.398 1.65625 4.51798 0
M  V30 5732 C 545.75 2.1603 4.74321 0
M  V30 5733 C 543.078 2.87119 5.11644 0
M  V30 5734 C 545.43 3.36766 5.3551 0
M  V30 5735 C 544.094 3.72689 5.53768 0
M  V30 5736 H 543.364 0.0343535 0.740203 0
M  V30 5737 H 546.011 0.781522 1.74827 0
M  V30 5738 H 544.316 -0.773096 3.84097 0
M  V30 5739 H 546.013 -0.410794 3.9889 0
M  V30 5740 H 542.603 1.01204 4.1648 0
M  V30 5741 H 546.787 1.89778 4.58582 0
M  V30 5742 H 542.043 3.15065 5.2397 0
M  V30 5743 H 546.217 4.03713 5.67441 0
M  V30 5744 H 543.844 4.66918 5.99909 0
M  V30 5745 N 545.419 -1.53889 0.339982 0
M  V30 5746 C 546.349 -2.27843 -0.510856 0
M  V30 5747 C 547.33 -1.29267 -1.10563 0
M  V30 5748 O 548.515 -1.58104 -1.12768 0
M  V30 5749 C 545.645 -3.04857 -1.66372 0
M  V30 5750 C 544.599 -4.10907 -1.19746 0
M  V30 5751 C 543.925 -4.75855 -2.43857 0
M  V30 5752 C 545.225 -5.21435 -0.300501 0
M  V30 5753 H 546.919 -2.99212 0.106067 0
M  V30 5754 H 544.465 -1.43904 0.0524533 0
M  V30 5755 H 546.418 -3.5533 -2.26537 0
M  V30 5756 H 545.142 -2.31133 -2.30749 0
M  V30 5757 H 543.801 -3.61342 -0.618654 0
M  V30 5758 H 543.449 -3.9873 -3.06633 0
M  V30 5759 H 543.149 -5.47502 -2.13343 0
M  V30 5760 H 544.673 -5.2911 -3.04754 0
M  V30 5761 H 546.087 -5.67565 -0.80889 0
M  V30 5762 H 544.484 -6.00036 -0.0874076 0
M  V30 5763 H 545.554 -4.80328 0.664321 0
M  V30 5764 N 546.897 -0.0685191 -1.57451 0
M  V30 5765 C 547.86 0.885173 -2.11417 0
M  V30 5766 C 548.86 1.22853 -1.03748 0
M  V30 5767 O 550.05 1.16235 -1.2975 0
M  V30 5768 C 547.182 2.18964 -2.61281 0
M  V30 5769 H 548.375 0.417034 -2.96986 0
M  V30 5770 H 545.928 0.18014 -1.55258 0
M  V30 5771 H 546.663 2.70321 -1.79156 0
M  V30 5772 H 546.448 1.9534 -3.39977 0
M  V30 5773 H 547.938 2.87242 -3.0312 0
M  V30 5774 N 548.375 1.56261 0.205012 0
M  V30 5775 C 549.307 1.90266 1.27795 0
M  V30 5776 C 550.32 0.792397 1.42214 0
M  V30 5777 O 551.509 1.07077 1.42817 0
M  V30 5778 C 548.609 2.11074 2.65143 0
M  V30 5779 C 547.782 3.42176 2.7246 0
M  V30 5780 C 546.841 3.52216 3.90936 0
M  V30 5781 O 545.867 4.25119 3.78501 0
M  V30 5782 N 547.069 2.84573 5.05963 0
M  V30 5783 H 549.834 2.82896 0.989434 0
M  V30 5784 H 547.395 1.57008 0.394981 0
M  V30 5785 H 549.387 2.15089 3.4281 0
M  V30 5786 H 547.957 1.2499 2.86524 0
M  V30 5787 H 547.177 3.50116 1.81142 0
M  V30 5788 H 548.465 4.28509 2.74331 0
M  V30 5789 H 547.863 2.25152 5.18963 0
M  V30 5790 H 546.42 2.94228 5.81613 0
M  V30 5791 N 549.853 -0.472356 1.50355 0
M  V30 5792 C 550.783 -1.57859 1.72055 0
M  V30 5793 C 551.764 -1.60283 0.569505 0
M  V30 5794 O 552.949 -1.7657 0.808503 0
M  V30 5795 C 550.079 -2.96191 1.81351 0
M  V30 5796 C 549.033 -3.08633 2.96529 0
M  V30 5797 C 548.359 -4.486 2.90968 0
M  V30 5798 C 549.659 -2.85969 4.37057 0
M  V30 5799 H 551.353 -1.39953 2.64676 0
M  V30 5800 H 548.899 -0.671846 1.27367 0
M  V30 5801 H 550.852 -3.73507 1.95117 0
M  V30 5802 H 549.576 -3.15251 0.853502 0
M  V30 5803 H 548.235 -2.33749 2.82413 0
M  V30 5804 H 547.883 -4.64577 1.92815 0
M  V30 5805 H 547.583 -4.57861 3.68289 0
M  V30 5806 H 549.107 -5.27938 3.0678 0
M  V30 5807 H 550.521 -3.53036 4.51706 0
M  V30 5808 H 548.918 -3.06677 5.15819 0
M  V30 5809 H 549.988 -1.81838 4.49514 0
M  V30 5810 N 551.331 -1.39911 -0.725443 0
M  V30 5811 C 552.278 -1.39393 -1.83952 0
M  V30 5812 C 553.248 -0.252249 -1.64173 0
M  V30 5813 O 554.433 -0.44882 -1.85446 0
M  V30 5814 C 551.573 -1.25262 -3.21564 0
M  V30 5815 C 550.686 -2.49054 -3.52982 0
M  V30 5816 C 549.821 -2.27439 -4.80047 0
M  V30 5817 C 548.86 -3.46857 -5.04338 0
M  V30 5818 N 547.997 -3.24499 -6.22611 0
M  V30 5819 H 552.837 -2.34622 -1.83729 0
M  V30 5820 H 550.374 -1.16537 -0.897636 0
M  V30 5821 H 552.332 -1.15077 -4.01015 0
M  V30 5822 H 550.962 -0.33657 -3.21041 0
M  V30 5823 H 550.014 -2.69805 -2.6816 0
M  V30 5824 H 551.326 -3.37973 -3.66846 0
M  V30 5825 H 550.48 -2.14551 -5.67497 0
M  V30 5826 H 549.219 -1.35929 -4.68374 0
M  V30 5827 H 548.224 -3.60232 -4.15346 0
M  V30 5828 H 549.449 -4.3928 -5.17889 0
M  V30 5829 H 547.395 -2.35663 -6.12208 0
M  V30 5830 H 547.312 -4.06978 -6.37106 0
M  V30 5831 H 548.58 -3.15325 -7.12875 0
M  V30 5832 N 552.809 0.956637 -1.25245 0
M  V30 5833 C 554.086 1.67716 -1.00651 0
M  V30 5834 C 554.466 2.0585 0.467866 0
M  V30 5835 O 553.814 1.77029 1.44475 0
M  V30 5836 C 554.024 2.90093 -1.94028 0
M  V30 5837 C 555.372 3.6209 -2.21756 0
M  V30 5838 O 556.396 3.00171 -1.9177 0
M  V30 5839 O 555.255 4.7358 -2.72735 0
M  V30 5840 H 552.349 0.733731 -0.381533 0
M  V30 5841 H 554.895 1.00974 -1.3639 0
M  V30 5842 H 553.667 2.58689 -2.93591 0
M  V30 5843 H 553.29 3.64566 -1.58674 0
M  V30 5844 N 554.287 1.06798 1.15896 0
M  V30 5845 C 555.197 0.694564 2.24083 0
M  V30 5846 C 556.213 -0.291687 1.71538 0
M  V30 5847 O 557.389 -0.139723 2.00915 0
M  V30 5848 C 554.454 0.0921014 3.46578 0
M  V30 5849 C 553.515 1.13087 4.14137 0
M  V30 5850 C 552.748 0.557064 5.30785 0
M  V30 5851 O 552.971 -0.628623 5.66925 0
M  V30 5852 O 551.905 1.29924 5.8771 0
M  V30 5853 H 555.731 1.59663 2.58344 0
M  V30 5854 H 553.316 0.840575 1.2351 0
M  V30 5855 H 555.198 -0.241884 4.20705 0
M  V30 5856 H 553.873 -0.78337 3.14078 0
M  V30 5857 H 552.78 1.51712 3.41957 0
M  V30 5858 H 554.113 1.97805 4.50704 0
M  V30 5859 N 555.766 -1.3263 0.851289 0
M  V30 5860 C 557.006 -1.99174 0.459266 0
M  V30 5861 C 557.37 -1.65913 -0.966273 0
M  V30 5862 O 558.571 -2.2552 -1.46267 0
M  V30 5863 C 556.842 -3.50721 0.687698 0
M  V30 5864 S 558.401 -4.37039 0.392746 0
M  V30 5865 H 555.219 -0.689832 0.172199 0
M  V30 5866 H 557.821 -1.61395 1.10327 0
M  V30 5867 H 556.525 -3.72417 1.72435 0
M  V30 5868 H 556.056 -3.93389 0.0299949 0
M  V30 5869 H 558.071 -4.8999 -0.782578 0
M  V30 5870 N 557.244 -0.608902 -1.45362 0
M  V30 5871 C 558.655 -0.189511 -1.85736 0
M  V30 5872 C 559.006 1.2539 -1.50903 0
M  V30 5873 O 558.131 1.95094 -0.936347 0
M  V30 5874 C 558.726 -0.33716 -3.37118 0
M  V30 5875 C 557.285 0.0275487 -3.7639 0
M  V30 5876 C 556.432 -0.660983 -2.69307 0
M  V30 5877 H 559.383 -0.815499 -1.36144 0
M  V30 5878 H 559.404 0.430257 -3.7806 0
M  V30 5879 H 558.916 -1.38779 -3.62439 0
M  V30 5880 H 557.017 1.0773 -3.56686 0
M  V30 5881 H 557.13 -0.367018 -4.77692 0
M  V30 5882 H 555.494 -0.0984958 -2.54509 0
M  V30 5883 H 556.277 -1.71377 -2.97464 0
M  V30 5884 N 558.722 1.53707 -0.348139 0
M  V30 5885 C 559.632 2.28881 0.514857 0
M  V30 5886 C 560.648 1.34168 1.10793 0
M  V30 5887 O 561.824 1.6721 1.12262 0
M  V30 5888 C 558.889 3.05042 1.64774 0
M  V30 5889 C 557.95 4.15389 1.08398 0
M  V30 5890 C 557.183 4.87909 2.16287 0
M  V30 5891 O 557.406 4.60137 3.3709 0
M  V30 5892 O 556.34 5.74254 1.80323 0
M  V30 5893 H 560.166 3.03547 -0.0963699 0
M  V30 5894 H 557.751 1.48972 -0.113043 0
M  V30 5895 H 559.633 3.52656 2.30677 0
M  V30 5896 H 558.308 2.33228 2.24469 0
M  V30 5897 H 557.215 3.72068 0.389341 0
M  V30 5898 H 558.548 4.89318 0.531829 0
M  V30 5899 N 560.2 0.0768682 1.57412 0
M  V30 5900 C 561.446 -0.591961 1.93968 0
M  V30 5901 C 561.779 -1.68954 0.9575 0
M  V30 5902 O 561.054 -1.94496 -0.0124675 0
M  V30 5903 C 561.337 -1.16418 3.40762 0
M  V30 5904 C 561.19 -0.0728933 4.49741 0
M  V30 5905 C 562.509 -2.06814 3.88479 0
M  V30 5906 H 559.628 -0.213716 0.705333 0
M  V30 5907 H 562.27 0.14387 1.89455 0
M  V30 5908 H 560.42 -1.79128 3.4474 0
M  V30 5909 H 562.092 0.560446 4.57883 0
M  V30 5910 H 560.335 0.595859 4.29688 0
M  V30 5911 H 561.006 -0.513755 5.49604 0
M  V30 5912 H 563.482 -1.54033 3.8654 0
M  V30 5913 H 562.358 -2.43785 4.91793 0
M  V30 5914 H 562.619 -2.97844 3.26713 0
M  V30 5915 N 561.678 -1.56367 -0.196722 0
M  V30 5916 C 563.094 -1.49916 -0.54749 0
M  V30 5917 C 563.294 -0.77659 -1.85934 0
M  V30 5918 O 562.35 -0.32644 -2.50381 0
M  V30 5919 C 563.663 -2.94577 -0.603734 0
M  V30 5920 C 565.211 -3.05239 -0.692677 0
M  V30 5921 C 565.686 -4.51308 -0.780046 0
M  V30 5922 N 567.177 -4.55453 -0.843616 0
M  V30 5923 C 567.912 -5.65786 -0.931358 0
M  V30 5924 N 567.408 -6.85812 -0.981503 0
M  V30 5925 N 569.201 -5.53695 -0.968421 0
M  V30 5926 H 561.352 -2.01761 0.663803 0
M  V30 5927 H 563.615 -0.918094 0.236238 0
M  V30 5928 H 563.321 -3.50494 0.29105 0
M  V30 5929 H 563.195 -3.47841 -1.45898 0
M  V30 5930 H 565.582 -2.49372 -1.57789 0
M  V30 5931 H 565.663 -2.55103 0.188736 0
M  V30 5932 H 565.307 -5.078 0.100811 0
M  V30 5933 H 565.237 -4.99176 -1.67724 0
M  V30 5934 H 567.728 -3.69025 -0.814176 0
M  V30 5935 H 568.041 -7.65648 -1.04892 0
M  V30 5936 H 566.386 -6.88474 -0.950208 0
M  V30 5937 H 569.577 -4.58848 -0.926072 0
M  V30 5938 H 569.75 -6.39708 -1.03334 0
M  V30 5939 N 563.156 0.464375 -1.50603 0
M  V30 5940 C 564.086 1.56944 -1.72889 0
M  V30 5941 C 565.067 1.59979 -0.577997 0
M  V30 5942 O 566.252 1.76138 -0.817855 0
M  V30 5943 C 563.382 2.95225 -1.8292 0
M  V30 5944 C 562.336 3.07056 -2.98162 0
M  V30 5945 C 561.662 4.47051 -2.93343 0
M  V30 5946 C 562.962 2.83648 -4.38567 0
M  V30 5947 H 564.656 1.38547 -2.65415 0
M  V30 5948 H 562.202 0.665082 -1.27721 0
M  V30 5949 H 564.155 3.72467 -1.97095 0
M  V30 5950 H 562.879 3.14793 -0.870209 0
M  V30 5951 H 561.538 2.32248 -2.83648 0
M  V30 5952 H 561.186 4.63547 -1.95276 0
M  V30 5953 H 560.886 4.55902 -3.70712 0
M  V30 5954 H 562.41 5.26304 -3.09575 0
M  V30 5955 H 563.824 3.50636 -4.53572 0
M  V30 5956 H 562.221 3.03937 -5.17438 0
M  V30 5957 H 563.291 1.79451 -4.50472 0
M  V30 5958 N 564.634 1.40294 0.718013 0
M  V30 5959 C 565.582 1.40536 1.85344 0
M  V30 5960 C 566.576 0.286192 1.66965 0
M  V30 5961 O 567.782 0.457105 1.74099 0
M  V30 5962 H 564.157 0.439236 0.61039 0
M  V30 5963 H 566.128 2.36275 1.82255 0
M  V30 5964 C 564.877 1.28245 3.23185 0
M  V30 5965 H 564.2 2.1364 3.37932 0
M  V30 5966 H 565.64 1.32474 4.02774 0
M  V30 5967 C 564.099 -0.0075503 3.36899 0
M  V30 5968 O 564.629 -0.971391 3.89778 0
M  V30 5969 N 562.835 -0.0762479 2.905 0
M  V30 5970 H 562.382 0.708819 2.47656 0
M  V30 5971 H 562.34 -0.938846 3.00055 0
M  V30 5972 N 566.112 -0.949982 1.2575 0
M  V30 5973 C 567.361 -1.68956 1.10168 0
M  V30 5974 C 567.674 -1.92327 -0.356309 0
M  V30 5975 O 568.88 -2.64026 -0.632657 0
M  V30 5976 C 567.336 -3.04196 1.92336 0
M  V30 5977 C 566.944 -2.88603 3.42655 0
M  V30 5978 C 568.688 -3.81904 1.85336 0
M  V30 5979 C 566.595 -4.19262 4.17101 0
M  V30 5980 H 565.525 -0.633645 0.408668 0
M  V30 5981 H 568.176 -1.05719 1.49986 0
M  V30 5982 H 566.558 -3.68363 1.45344 0
M  V30 5983 H 567.732 -2.3334 3.97353 0
M  V30 5984 H 566.047 -2.24345 3.50796 0
M  V30 5985 H 568.644 -4.78688 2.38248 0
M  V30 5986 H 568.987 -4.08099 0.822226 0
M  V30 5987 H 569.52 -3.24495 2.30104 0
M  V30 5988 H 566.259 -3.98254 5.20648 0
M  V30 5989 H 565.779 -4.74273 3.67186 0
M  V30 5990 H 567.458 -4.87775 4.25071 0
M  V30 5991 N 567.59 -1.07411 -1.15328 0
M  V30 5992 C 568.839 -0.792643 -1.85473 0
M  V30 5993 C 569.152 0.683789 -1.83259 0
M  V30 5994 O 570.358 1.08005 -2.49093 0
M  V30 5995 C 568.814 -1.36787 -3.32892 0
M  V30 5996 C 568.422 -2.87536 -3.43551 0
M  V30 5997 C 570.166 -1.16444 -4.08217 0
M  V30 5998 C 568.073 -3.38247 -4.85122 0
M  V30 5999 H 567.003 -0.292838 -0.694811 0
M  V30 6000 H 569.654 -1.29426 -1.30082 0
M  V30 6001 H 568.036 -0.793993 -3.87958 0
M  V30 6002 H 569.21 -3.50973 -2.98588 0
M  V30 6003 H 567.525 -3.06676 -2.81672 0
M  V30 6004 H 570.122 -1.51808 -5.12697 0
M  V30 6005 H 570.465 -0.10353 -4.16171 0
M  V30 6006 H 570.998 -1.70472 -3.59422 0
M  V30 6007 H 567.737 -4.43866 -4.82351 0
M  V30 6008 H 567.257 -2.79564 -5.30664 0
M  V30 6009 H 568.936 -3.34238 -5.5398 0
M  V30 6010 N 569.068 1.32177 -0.85831 0
M  V30 6011 C 570.293 2.01847 -0.476718 0
M  V30 6012 C 570.718 1.64065 0.920021 0
M  V30 6013 O 570.076 0.843189 1.60499 0
M  V30 6014 C 570.124 3.55097 -0.627578 0
M  V30 6015 O 569.228 4.11012 0.338086 0
M  V30 6016 H 568.569 0.635907 -0.191099 0
M  V30 6017 H 571.099 1.68641 -1.15851 0
M  V30 6018 H 571.109 4.04718 -0.516476 0
M  V30 6019 H 569.784 3.81938 -1.64609 0
M  V30 6020 H 568.361 3.72451 0.182917 0
M  V30 6021 N 570.547 0.616602 1.45037 0
M  V30 6022 C 571.495 -0.109318 2.32343 0
M  V30 6023 C 572.489 -0.850543 1.465 0
M  V30 6024 O 573.695 -0.765088 1.62931 0
M  V30 6025 H 570.07 -0.0541091 0.750051 0
M  V30 6026 H 572.041 0.645326 2.91338 0
M  V30 6027 C 570.79 -1.0872 3.30266 0
M  V30 6028 H 570.113 -0.526267 3.96321 0
M  V30 6029 H 571.553 -1.56489 3.94065 0
M  V30 6030 C 570.012 -2.16525 2.58105 0
M  V30 6031 O 570.542 -3.244 2.36913 0
M  V30 6032 N 568.748 -1.92057 2.18088 0
M  V30 6033 H 568.295 -1.04337 2.35524 0
M  V30 6034 H 568.253 -2.64391 1.70131 0
M  V30 6035 N 572.025 -1.5352 0.356285 0
M  V30 6036 C 572.955 -2.28372 -0.486661 0
M  V30 6037 C 573.936 -1.30432 -1.09185 0
M  V30 6038 O 575.121 -1.59291 -1.11085 0
M  V30 6039 C 572.251 -3.06604 -1.63129 0
M  V30 6040 C 571.205 -4.12154 -1.15381 0
M  V30 6041 C 570.531 -4.78415 -2.38796 0
M  V30 6042 C 571.831 -5.21724 -0.245179 0
M  V30 6043 H 573.525 -2.99083 0.137797 0
M  V30 6044 H 571.071 -1.43841 0.0677134 0
M  V30 6045 H 573.024 -3.57712 -2.22755 0
M  V30 6046 H 571.748 -2.33568 -2.28284 0
M  V30 6047 H 570.407 -3.61978 -0.580294 0
M  V30 6048 H 570.055 -4.01959 -3.02387 0
M  V30 6049 H 569.755 -5.49734 -2.07524 0
M  V30 6050 H 571.279 -5.32313 -2.99125 0
M  V30 6051 H 572.693 -5.68391 -0.748646 0
M  V30 6052 H 571.09 -6.00095 -0.0237608 0
M  V30 6053 H 572.16 -4.79596 0.715229 0
M  V30 6054 N 573.503 -0.0852151 -1.57369 0
M  V30 6055 C 574.78 0.622534 -1.85429 0
M  V30 6056 C 575.16 1.86962 -0.980229 0
M  V30 6057 O 574.508 2.28445 -0.0500219 0
M  V30 6058 C 574.718 0.947374 -3.35896 0
M  V30 6059 C 576.066 1.31509 -4.03721 0
M  V30 6060 O 577.09 1.03869 -3.40719 0
M  V30 6061 O 575.949 1.83231 -5.14868 0
M  V30 6062 H 573.043 0.310513 -0.766492 0
M  V30 6063 H 575.589 -0.117164 -1.69295 0
M  V30 6064 H 574.361 0.0622264 -3.91251 0
M  V30 6065 H 573.984 1.74338 -3.5734 0
M  V30 6066 N 574.981 1.5647 0.188427 0
M  V30 6067 C 576.221 1.82803 0.914469 0
M  V30 6068 C 576.585 0.663681 1.80165 0
M  V30 6069 O 577.786 0.807059 2.56398 0
M  V30 6070 C 576.057 3.14187 1.70357 0
M  V30 6071 S 577.616 3.61947 2.48072 0
M  V30 6072 H 574.434 0.641497 0.306599 0
M  V30 6073 H 577.036 1.94694 0.177361 0
M  V30 6074 H 575.74 3.96937 1.04255 0
M  V30 6075 H 575.271 3.05192 2.48237 0
M  V30 6076 H 577.286 3.27913 3.72407 0
M  V30 6077 N 576.459 -0.456382 1.50847 0
M  V30 6078 C 577.705 -1.20914 1.62811 0
M  V30 6079 C 578.038 -1.91301 0.334304 0
M  V30 6080 O 577.313 -1.82775 -0.665098 0
M  V30 6081 C 577.596 -2.24122 2.81853 0
M  V30 6082 C 577.449 -1.57944 4.21158 0
M  V30 6083 C 578.768 -3.25295 2.96431 0
M  V30 6084 H 575.887 -0.438233 0.592554 0
M  V30 6085 H 578.529 -0.50091 1.83278 0
M  V30 6086 H 576.679 -2.84524 2.64534 0
M  V30 6087 H 578.351 -1.01025 4.50102 0
M  V30 6088 H 576.594 -0.882185 4.24735 0
M  V30 6089 H 577.265 -2.33014 5.00408 0
M  V30 6090 H 579.741 -2.7493 3.12335 0
M  V30 6091 H 578.617 -3.94822 3.81322 0
M  V30 6092 H 578.878 -3.90286 2.07676 0
M  V30 6093 N 577.937 -1.40673 -0.710563 0
M  V30 6094 C 578.885 -1.41517 -1.84596 0
M  V30 6095 C 579.879 -0.295043 -1.66811 0
M  V30 6096 O 581.085 -0.466331 -1.73854 0
M  V30 6097 H 577.46 -0.442467 -0.608052 0
M  V30 6098 H 579.431 -2.37238 -1.80999 0
M  V30 6099 C 578.18 -1.29957 -3.225 0
M  V30 6100 H 577.503 -2.15429 -3.36794 0
M  V30 6101 H 578.943 -1.34608 -4.02066 0
M  V30 6102 C 577.402 -0.0103164 -3.36898 0
M  V30 6103 O 577.932 0.950707 -3.90288 0
M  V30 6104 N 576.138 0.0608409 -2.90536 0
M  V30 6105 H 575.685 -0.721943 -2.47277 0
M  V30 6106 H 575.643 0.92292 -3.00549 0
M  V30 6107 N 579.415 0.9433 -1.26252 0
M  V30 6108 C 580.325 2.07532 -1.09397 0
M  V30 6109 C 581.341 1.73977 -0.0280449 0
M  V30 6110 O 582.517 2.00067 -0.231337 0
M  V30 6111 C 579.582 3.39002 -0.726523 0
M  V30 6112 C 578.643 3.86353 -1.87163 0
M  V30 6113 C 577.876 5.11549 -1.52162 0
M  V30 6114 O 578.099 5.68834 -0.422385 0
M  V30 6115 O 577.033 5.53889 -2.35565 0
M  V30 6116 H 580.859 2.24658 -2.04359 0
M  V30 6117 H 578.444 1.05988 -1.05295 0
M  V30 6118 H 580.326 4.18 -0.534236 0
M  V30 6119 H 579.001 3.2312 0.193721 0
M  V30 6120 H 577.908 3.0831 -2.11886 0
M  V30 6121 H 579.241 4.06752 -2.77152 0
M  V30 6122 N 580.893 1.08022 1.14757 0
M  V30 6123 C 582.139 0.808705 1.85978 0
M  V30 6124 C 582.472 -0.663764 1.82504 0
M  V30 6125 O 581.747 -1.48765 1.25296 0
M  V30 6126 C 582.03 1.32623 3.34788 0
M  V30 6127 C 581.883 2.86375 3.46856 0
M  V30 6128 C 583.202 0.948291 4.29762 0
M  V30 6129 H 580.321 0.295244 0.675278 0
M  V30 6130 H 582.963 1.33917 1.34783 0
M  V30 6131 H 581.113 0.875002 3.78518 0
M  V30 6132 H 582.785 3.39839 3.11941 0
M  V30 6133 H 581.028 3.24232 2.88194 0
M  V30 6134 H 581.699 3.17658 4.51439 0
M  V30 6135 H 584.175 1.33722 3.94028 0
M  V30 6136 H 583.051 1.33765 5.32352 0
M  V30 6137 H 583.312 -0.145094 4.41862 0
M  V30 6138 N 582.371 -1.3172 0.865308 0
M  V30 6139 C 583.62 -1.96145 0.470098 0
M  V30 6140 C 583.933 -1.69182 -0.981674 0
M  V30 6141 O 585.139 -2.27431 -1.48281 0
M  V30 6142 C 583.595 -3.51129 0.789732 0
M  V30 6143 C 583.203 -3.86938 2.25795 0
M  V30 6144 C 584.947 -4.2197 0.462765 0
M  V30 6145 C 582.854 -5.35012 2.52024 0
M  V30 6146 H 581.784 -0.734105 0.172065 0
M  V30 6147 H 584.435 -1.49959 1.05757 0
M  V30 6148 H 582.817 -3.95781 0.131571 0
M  V30 6149 H 583.991 -3.5326 2.95879 0
M  V30 6150 H 582.306 -3.29149 2.55049 0
M  V30 6151 H 584.903 -5.30904 0.636019 0
M  V30 6152 H 585.246 -4.12005 -0.59645 0
M  V30 6153 H 585.779 -3.82936 1.07727 0
M  V30 6154 H 582.518 -5.50008 3.56611 0
M  V30 6155 H 582.038 -5.70058 1.8653 0
M  V30 6156 H 583.717 -6.0222 2.36515 0
M  V30 6157 N 583.85 -0.624285 -1.44708 0
M  V30 6158 C 585.098 -0.125802 -2.01708 0
M  V30 6159 C 585.418 1.2543 -1.49306 0
M  V30 6160 O 584.689 1.83198 -0.693924 0
M  V30 6161 H 583.269 -0.0435161 -0.745731 0
M  V30 6162 H 585.931 -0.809446 -1.77296 0
M  V30 6163 H 585.027 -0.0882734 -3.11975 0
M  V30 6164 N 585.328 1.53329 -0.364422 0
M  V30 6165 C 586.577 2.00421 0.226747 0
M  V30 6166 C 586.89 1.25581 1.49963 0
M  V30 6167 O 588.096 1.63256 2.16933 0
M  V30 6168 C 586.552 3.57017 0.454618 0
M  V30 6169 C 586.16 4.40734 -0.803568 0
M  V30 6170 C 587.904 4.12468 1.00351 0
M  V30 6171 C 585.811 5.8888 -0.545345 0
M  V30 6172 H 584.741 0.748787 0.0885082 0
M  V30 6173 H 587.392 1.7703 -0.482983 0
M  V30 6174 H 585.774 3.76558 1.22558 0
M  V30 6175 H 586.948 4.32967 -1.57723 0
M  V30 6176 H 585.263 3.96381 -1.27559 0
M  V30 6177 H 587.86 5.20783 1.212 0
M  V30 6178 H 588.203 3.6699 1.9653 0
M  V30 6179 H 588.736 3.96721 0.29274 0
M  V30 6180 H 585.475 6.38633 -1.47743 0
M  V30 6181 H 584.995 5.99499 0.189842 0
M  V30 6182 H 586.674 6.46776 -0.170425 0
M  V30 6183 N 586.806 0.0935595 1.57322 0
M  V30 6184 C 588.222 -0.263091 1.57417 0
M  V30 6185 C 588.422 -1.68526 1.1046 0
M  V30 6186 O 587.478 -2.40139 0.780357 0
M  V30 6187 C 588.791 -0.0529201 3.00653 0
M  V30 6188 C 590.339 -0.120788 3.12767 0
M  V30 6189 C 590.814 0.0613707 4.57959 0
M  V30 6190 N 592.305 0.00648534 4.632 0
M  V30 6191 C 593.04 0.122699 5.73269 0
M  V30 6192 N 592.536 0.29366 6.92177 0
M  V30 6193 N 594.329 0.0640787 5.62063 0
M  V30 6194 H 586.48 1.02277 1.86154 0
M  V30 6195 H 588.743 0.4007 0.859153 0
M  V30 6196 H 588.449 0.929279 3.39201 0
M  V30 6197 H 588.323 -0.795899 3.68708 0
M  V30 6198 H 590.71 -1.09349 2.74093 0
M  V30 6199 H 590.791 0.653656 2.47307 0
M  V30 6200 H 590.435 1.03093 4.97327 0
M  V30 6201 H 590.365 -0.732748 5.21477 0
M  V30 6202 H 592.856 -0.123173 3.77699 0
M  V30 6203 H 593.169 0.37389 7.71895 0
M  V30 6204 H 591.514 0.329307 6.94219 0
M  V30 6205 H 594.705 -0.0683396 4.6805 0
M  V30 6206 H 594.878 0.158097 6.47807 0
M  V30 6207 N 588.284 -1.56567 -0.180126 0
M  V30 6208 C 589.216 -1.92275 -1.24751 0
M  V30 6209 C 590.229 -0.814922 -1.40936 0
M  V30 6210 O 591.418 -1.09336 -1.41095 0
M  V30 6211 C 588.518 -2.15265 -2.61752 0
M  V30 6212 C 587.691 -3.46467 -2.66981 0
M  V30 6213 C 586.75 -3.58391 -3.85283 0
M  V30 6214 O 585.776 -4.31086 -3.7169 0
M  V30 6215 N 586.978 -2.92587 -5.01371 0
M  V30 6216 H 589.743 -2.84435 -0.944302 0
M  V30 6217 H 587.304 -1.57617 -0.369952 0
M  V30 6218 H 589.296 -2.20515 -3.39345 0
M  V30 6219 H 587.866 -1.29533 -2.845 0
M  V30 6220 H 587.086 -3.52953 -1.75549 0
M  V30 6221 H 588.374 -4.32819 -2.67479 0
M  V30 6222 H 587.772 -2.3338 -5.15316 0
M  V30 6223 H 586.329 -3.03444 -5.76858 0
M  V30 6224 N 589.762 0.448376 -1.51087 0
M  V30 6225 C 590.692 1.55102 -1.74544 0
M  V30 6226 C 591.673 1.59357 -0.594932 0
M  V30 6227 O 592.858 1.75261 -0.836491 0
M  V30 6228 C 589.988 2.93268 -1.86041 0
M  V30 6229 C 588.942 3.03877 -3.01402 0
M  V30 6230 C 588.268 4.43914 -2.98068 0
M  V30 6231 C 589.568 2.7898 -4.41551 0
M  V30 6232 H 591.262 1.35724 -2.66869 0
M  V30 6233 H 588.808 0.651498 -1.28419 0
M  V30 6234 H 590.761 3.70356 -2.01034 0
M  V30 6235 H 589.485 3.13853 -0.903548 0
M  V30 6236 H 588.144 2.29227 -2.86096 0
M  V30 6237 H 587.792 4.6145 -2.00182 0
M  V30 6238 H 587.492 4.51944 -3.75527 0
M  V30 6239 H 589.016 5.22991 -3.1514 0
M  V30 6240 H 590.43 3.45805 -4.57265 0
M  V30 6241 H 588.827 2.98431 -5.20633 0
M  V30 6242 H 589.897 1.74663 -4.5235 0
M  V30 6243 N 591.24 1.41047 0.703093 0
M  V30 6244 C 592.465 1.43537 1.49706 0
M  V30 6245 C 592.89 0.0401853 1.88057 0
M  V30 6246 O 592.248 -0.954785 1.54122 0
M  V30 6247 C 592.296 2.3433 2.74084 0
M  V30 6248 O 591.4 1.79515 3.71279 0
M  V30 6249 H 590.741 0.487454 0.450871 0
M  V30 6250 H 593.271 1.85422 0.86486 0
M  V30 6251 H 593.281 2.49947 3.22476 0
M  V30 6252 H 591.956 3.35708 2.45506 0
M  V30 6253 H 590.533 1.7331 3.30179 0
M  V30 6254 N 592.718 -0.936591 1.26751 0
M  V30 6255 C 593.65 -2.03991 1.045 0
M  V30 6256 C 594.663 -1.628 0.00394261 0
M  V30 6257 O 595.852 -1.76817 0.244526 0
M  V30 6258 C 592.952 -3.34218 0.561403 0
M  V30 6259 C 592.125 -4.04151 1.67274 0
M  V30 6260 C 591.184 -5.12651 1.1864 0
M  V30 6261 O 590.21 -5.37104 1.88437 0
M  V30 6262 N 591.412 -5.80488 0.037278 0
M  V30 6263 H 594.177 -2.23644 1.99508 0
M  V30 6264 H 591.738 -1.10638 1.18198 0
M  V30 6265 H 593.73 -4.04101 0.220136 0
M  V30 6266 H 592.3 -3.11203 -0.295211 0
M  V30 6267 H 591.52 -3.28121 2.18472 0
M  V30 6268 H 592.808 -4.47626 2.41885 0
M  V30 6269 H 592.206 -5.63064 -0.545494 0
M  V30 6270 H 590.763 -6.5134 -0.244877 0
M  V30 6271 N 594.196 -1.08629 -1.14182 0
M  V30 6272 C 595.421 -0.83902 -1.89671 0
M  V30 6273 C 595.846 0.603332 -1.78161 0
M  V30 6274 O 595.204 1.42301 -1.12339 0
M  V30 6275 C 595.252 -1.26854 -3.37551 0
M  V30 6276 O 594.356 -0.42188 -4.10236 0
M  V30 6277 H 593.697 -0.304545 -0.590041 0
M  V30 6278 H 596.227 -1.4483 -1.44518 0
M  V30 6279 H 596.237 -1.25038 -3.88368 0
M  V30 6280 H 594.912 -2.31901 -3.45246 0
M  V30 6281 H 593.489 -0.503654 -3.69483 0
M  V30 6282 N 595.674 1.31259 -0.872281 0
M  V30 6283 C 596.604 2.30929 -0.345554 0
M  V30 6284 C 597.585 1.60449 0.5648 0
M  V30 6285 O 598.77 1.8814 0.481335 0
M  V30 6286 C 595.9 3.44348 0.451823 0
M  V30 6287 C 594.854 4.26435 -0.365641 0
M  V30 6288 C 594.18 5.31785 0.557562 0
M  V30 6289 C 595.48 4.97159 -1.60095 0
M  V30 6290 H 597.174 2.75234 -1.17841 0
M  V30 6291 H 594.72 1.3232 -0.568094 0
M  V30 6292 H 596.673 4.13128 0.830854 0
M  V30 6293 H 595.397 2.98816 1.31821 0
M  V30 6294 H 594.056 3.59326 -0.726649 0
M  V30 6295 H 593.704 4.82502 1.4213 0
M  V30 6296 H 593.404 5.87598 0.0144878 0
M  V30 6297 H 594.928 6.03424 0.933387 0
M  V30 6298 H 596.342 5.58523 -1.29323 0
M  V30 6299 H 594.739 5.62779 -2.08327 0
M  V30 6300 H 595.809 4.24012 -2.35249 0
M  V30 6301 N 597.152 0.631951 1.44375 0
M  V30 6302 C 598.082 -0.0593243 2.33425 0
M  V30 6303 C 599.063 -0.833964 1.48253 0
M  V30 6304 O 600.248 -0.799682 1.76971 0
M  V30 6305 C 597.378 -1.04096 3.31333 0
M  V30 6306 C 596.332 -0.377899 4.26328 0
M  V30 6307 C 595.658 -1.4695 5.14111 0
M  V30 6308 C 596.958 0.716371 5.17364 0
M  V30 6309 H 598.652 0.684287 2.91475 0
M  V30 6310 H 596.198 0.330518 1.40156 0
M  V30 6311 H 598.151 -1.53331 3.92514 0
M  V30 6312 H 596.875 -1.81547 2.71493 0
M  V30 6313 H 595.534 0.0938054 3.6648 0
M  V30 6314 H 595.182 -2.2349 4.50623 0
M  V30 6315 H 594.882 -1.03121 5.78481 0
M  V30 6316 H 596.406 -1.96363 5.78164 0
M  V30 6317 H 597.82 0.307089 5.72477 0
M  V30 6318 H 596.217 1.07784 5.90341 0
M  V30 6319 H 597.287 1.58316 4.58327 0
M  V30 6320 N 598.631 -1.53133 0.372548 0
M  V30 6321 C 600.042 -1.86404 -0.105155 0
M  V30 6322 C 600.393 -1.29289 -1.47576 0
M  V30 6323 O 599.518 -0.617646 -2.07398 0
M  V30 6324 C 600.113 -3.38223 -0.197588 0
M  V30 6325 C 598.672 -3.71266 -0.619556 0
M  V30 6326 C 597.819 -2.76353 0.228919 0
M  V30 6327 H 600.77 -1.47282 0.591077 0
M  V30 6328 H 600.791 -3.66577 -1.01987 0
M  V30 6329 H 600.303 -3.79763 0.800099 0
M  V30 6330 H 598.404 -3.35287 -1.62522 0
M  V30 6331 H 598.517 -4.77515 -0.389332 0
M  V30 6332 H 596.881 -2.52888 -0.303271 0
M  V30 6333 H 597.664 -3.20728 1.22428 0
M  V30 6334 N 600.109 -0.101901 -1.5727 0
M  V30 6335 C 601.072 0.840129 -2.13247 0
M  V30 6336 C 602.072 1.20625 -1.06331 0
M  V30 6337 O 603.262 1.13456 -1.32186 0
M  V30 6338 C 600.394 2.13372 -2.65867 0
M  V30 6339 H 601.587 0.353945 -2.97804 0
M  V30 6340 H 599.14 0.147167 -1.55606 0
M  V30 6341 H 599.875 2.66461 -1.84849 0
M  V30 6342 H 599.66 1.88085 -3.44044 0
M  V30 6343 H 601.15 2.80748 -3.09145 0
M  V30 6344 N 601.587 1.56661 0.17182 0
M  V30 6345 C 602.836 1.81158 0.886831 0
M  V30 6346 C 603.149 0.679072 1.83434 0
M  V30 6347 O 604.355 0.808964 2.59168 0
M  V30 6348 C 602.811 3.20999 1.6275 0
M  V30 6349 C 602.419 4.42117 0.723652 0
M  V30 6350 C 604.163 3.5479 2.33076 0
M  V30 6351 C 602.07 5.7298 1.46452 0
M  V30 6352 H 601 0.675543 0.334899 0
M  V30 6353 H 603.651 1.82967 0.139765 0
M  V30 6354 H 602.033 3.13506 2.4193 0
M  V30 6355 H 603.207 4.60789 -0.0311485 0
M  V30 6356 H 601.522 4.16197 0.130063 0
M  V30 6357 H 604.119 4.49806 2.89099 0
M  V30 6358 H 604.462 2.79646 3.08389 0
M  V30 6359 H 604.995 3.63834 1.6084 0
M  V30 6360 H 601.734 6.51152 0.753729 0
M  V30 6361 H 601.254 5.58285 2.19266 0
M  V30 6362 H 602.933 6.14916 2.01214 0
M  V30 6363 N 603.065 -0.440357 1.51323 0
M  V30 6364 C 604.311 -1.19181 1.64085 0
M  V30 6365 C 604.644 -1.90936 0.354575 0
M  V30 6366 O 603.919 -1.8347 -0.645675 0
M  V30 6367 C 604.202 -2.2112 2.84215 0
M  V30 6368 C 604.055 -1.53468 4.22809 0
M  V30 6369 C 605.374 -3.22133 2.99864 0
M  V30 6370 H 602.493 -0.431924 0.597169 0
M  V30 6371 H 605.135 -0.481443 1.83799 0
M  V30 6372 H 603.285 -2.81703 2.67537 0
M  V30 6373 H 604.957 -0.962455 4.51148 0
M  V30 6374 H 603.2 -0.837086 4.25647 0
M  V30 6375 H 603.871 -2.27694 5.02852 0
M  V30 6376 H 606.347 -2.71601 3.15233 0
M  V30 6377 H 605.223 -3.90756 3.85488 0
M  V30 6378 H 605.484 -3.88061 2.11804 0
M  V30 6379 N 604.543 -1.41418 -0.695603 0
M  V30 6380 C 605.453 -1.45622 -1.83933 0
M  V30 6381 C 606.469 -0.346825 -1.70508 0
M  V30 6382 O 607.645 -0.59454 -1.92424 0
M  V30 6383 C 604.71 -1.33627 -3.19914 0
M  V30 6384 C 603.771 -2.54882 -3.45447 0
M  V30 6385 C 603.004 -2.43449 -4.7494 0
M  V30 6386 O 603.227 -1.45905 -5.51424 0
M  V30 6387 O 602.161 -3.33206 -5.01256 0
M  V30 6388 H 605.987 -2.42114 -1.83342 0
M  V30 6389 H 603.572 -1.22956 -0.848658 0
M  V30 6390 H 605.454 -1.29221 -4.01098 0
M  V30 6391 H 604.129 -0.402508 -3.21188 0
M  V30 6392 H 603.036 -2.64865 -2.64192 0
M  V30 6393 H 604.369 -3.47087 -3.48987 0
M  V30 6394 N 606.021 0.929856 -1.27246 0
M  V30 6395 C 606.951 2.04722 -1.12299 0
M  V30 6396 C 607.932 1.70082 -0.0250464 0
M  V30 6397 O 609.117 1.93176 -0.199141 0
M  V30 6398 C 606.247 3.38721 -0.767145 0
M  V30 6399 C 605.201 3.87466 -1.81808 0
M  V30 6400 C 604.527 5.18246 -1.31626 0
M  V30 6401 C 605.827 4.11095 -3.22177 0
M  V30 6402 H 607.521 2.17485 -2.05769 0
M  V30 6403 H 605.067 1.04503 -0.990715 0
M  V30 6404 H 607.02 4.16366 -0.649413 0
M  V30 6405 H 605.744 3.25967 0.203259 0
M  V30 6406 H 604.403 3.12012 -1.92468 0
M  V30 6407 H 604.051 5.01881 -0.335378 0
M  V30 6408 H 603.751 5.51829 -2.01887 0
M  V30 6409 H 605.275 5.98462 -1.21143 0
M  V30 6410 H 606.689 4.79316 -3.1453 0
M  V30 6411 H 605.086 4.55982 -3.90129 0
M  V30 6412 H 606.156 3.16468 -3.67391 0
M  V30 6413 N 607.499 1.09233 1.13605 0
M  V30 6414 C 608.462 0.733553 2.17144 0
M  V30 6415 C 609.462 -0.235873 1.59061 0
M  V30 6416 O 610.652 -0.0143167 1.74194 0
M  V30 6417 C 607.784 0.084471 3.40795 0
M  V30 6418 H 608.977 1.65049 2.50397 0
M  V30 6419 H 606.53 0.891264 1.28399 0
M  V30 6420 H 607.265 -0.843795 3.1313 0
M  V30 6421 H 607.05 0.781985 3.84223 0
M  V30 6422 H 608.54 -0.151216 4.17326 0
M  V30 6423 N 608.977 -1.30795 0.87923 0
M  V30 6424 C 609.887 -2.32041 0.345565 0
M  V30 6425 C 610.903 -1.65103 -0.549265 0
M  V30 6426 O 612.079 -1.9645 -0.443763 0
M  V30 6427 C 609.144 -3.43944 -0.436245 0
M  V30 6428 C 608.205 -4.26521 0.48765 0
M  V30 6429 C 607.438 -5.33081 -0.256943 0
M  V30 6430 O 607.661 -5.50762 -1.48381 0
M  V30 6431 O 606.595 -6.00635 0.389985 0
M  V30 6432 H 610.421 -2.79627 1.18501 0
M  V30 6433 H 608.006 -1.3486 0.642885 0
M  V30 6434 H 609.888 -4.12128 -0.879119 0
M  V30 6435 H 608.563 -2.98504 -1.25208 0
M  V30 6436 H 607.47 -3.61057 0.979216 0
M  V30 6437 H 608.803 -4.75551 1.26933 0
M  V30 6438 N 610.455 -0.639598 -1.44038 0
M  V30 6439 C 611.732 -0.078012 -1.95444 0
M  V30 6440 C 612.112 1.39847 -1.58133 0
M  V30 6441 O 611.46 2.11714 -0.859614 0
M  V30 6442 C 611.67 -0.309832 -3.47622 0
M  V30 6443 C 613.018 -0.207521 -4.24093 0
M  V30 6444 O 614.042 -0.241653 -3.55379 0
M  V30 6445 O 612.901 -0.119641 -5.46369 0
M  V30 6446 H 609.995 0.0174534 -0.826816 0
M  V30 6447 H 612.541 -0.711891 -1.54046 0
M  V30 6448 H 611.313 -1.33401 -3.67858 0
M  V30 6449 H 610.936 0.357777 -3.95987 0
M  V30 6450 N 611.933 1.52934 -0.380664 0
M  V30 6451 C 612.896 2.24809 0.446473 0
M  V30 6452 C 613.896 1.26133 0.997347 0
M  V30 6453 O 615.086 1.50297 0.880714 0
M  V30 6454 C 612.218 2.99649 1.62553 0
M  V30 6455 H 613.411 2.99343 -0.182677 0
M  V30 6456 H 610.964 1.55736 -0.132618 0
M  V30 6457 H 611.699 2.29395 2.29235 0
M  V30 6458 H 611.484 3.72066 1.23732 0
M  V30 6459 H 612.974 3.54246 2.21133 0
M  V30 6460 N 613.412 0.11024 1.57214 0
M  V30 6461 C 614.359 -0.843195 2.14846 0
M  V30 6462 C 615.329 -1.26954 1.07107 0
M  V30 6463 O 616.514 -1.34861 1.34971 0
M  V30 6464 C 613.654 -2.09123 2.74521 0
M  V30 6465 C 612.767 -1.71404 3.96541 0
M  V30 6466 C 611.902 -2.91107 4.44331 0
M  V30 6467 C 610.941 -2.49586 5.58903 0
M  V30 6468 N 610.078 -3.62175 6.01477 0
M  V30 6469 H 614.918 -0.344886 2.95998 0
M  V30 6470 H 612.455 -0.15855 1.46243 0
M  V30 6471 H 614.413 -2.82234 3.07246 0
M  V30 6472 H 613.043 -2.56427 1.96074 0
M  V30 6473 H 612.095 -0.88201 3.70033 0
M  V30 6474 H 613.407 -1.36884 4.7965 0
M  V30 6475 H 612.561 -3.72454 4.78919 0
M  V30 6476 H 611.3 -3.28848 3.60153 0
M  V30 6477 H 610.305 -1.6667 5.23929 0
M  V30 6478 H 611.53 -2.12973 6.4484 0
M  V30 6479 H 609.476 -3.99605 5.20242 0
M  V30 6480 H 609.393 -3.3155 6.79419 0
M  V30 6481 H 610.661 -4.43987 6.407 0
M  V30 6482 N 614.89 -1.56749 -0.16351 0
M  V30 6483 C 616.136 -1.83597 -0.875436 0
M  V30 6484 C 616.491 -0.691907 -1.79528 0
M  V30 6485 O 615.784 0.311193 -1.89056 0
M  V30 6486 C 615.978 -3.14342 -1.70071 0
M  V30 6487 C 615.807 -4.41356 -0.862265 0
M  V30 6488 C 614.577 -5.02467 -0.534299 0
M  V30 6489 C 616.775 -5.1391 -0.200203 0
M  V30 6490 N 614.757 -6.13068 0.31947 0
M  V30 6491 C 616.128 -6.17862 0.514398 0
M  V30 6492 C 618.183 -4.97757 -0.119171 0
M  V30 6493 C 616.886 -7.07412 1.30236 0
M  V30 6494 C 618.912 -5.87756 0.655477 0
M  V30 6495 C 618.274 -6.91178 1.35842 0
M  V30 6496 H 614.373 -0.722702 -0.298708 0
M  V30 6497 H 616.957 -1.94182 -0.141883 0
M  V30 6498 H 615.128 -3.04933 -2.40562 0
M  V30 6499 H 616.86 -3.29156 -2.35453 0
M  V30 6500 H 613.615 -4.65611 -0.866222 0
M  V30 6501 H 614.039 -6.72978 0.736893 0
M  V30 6502 H 618.681 -4.178 -0.648278 0
M  V30 6503 H 616.399 -7.86808 1.84278 0
M  V30 6504 H 619.985 -5.77328 0.719948 0
M  V30 6505 H 618.865 -7.59614 1.94822 0
M  V30 6506 N 616.368 0.432326 -1.51554 0
M  V30 6507 C 617.784 0.769195 -1.39841 0
M  V30 6508 C 617.984 1.95584 -0.484675 0
M  V30 6509 O 617.04 2.52433 0.0582829 0
M  V30 6510 C 618.353 1.04487 -2.81963 0
M  V30 6511 C 619.901 1.149 -2.91148 0
M  V30 6512 C 620.376 1.45758 -4.34187 0
M  V30 6513 N 621.867 1.52671 -4.37317 0
M  V30 6514 C 622.602 1.78129 -5.4503 0
M  V30 6515 N 622.098 2.01345 -6.62897 0
M  V30 6516 N 623.891 1.79953 -5.32516 0
M  V30 6517 H 616.042 -0.349122 -2.09511 0
M  V30 6518 H 618.305 -0.0938113 -0.943347 0
M  V30 6519 H 618.011 0.24557 -3.50842 0
M  V30 6520 H 617.885 1.97119 -3.21596 0
M  V30 6521 H 620.272 1.93891 -2.22464 0
M  V30 6522 H 620.353 0.201568 -2.55005 0
M  V30 6523 H 619.997 0.672917 -5.03423 0
M  V30 6524 H 619.927 2.41715 -4.67848 0
M  V30 6525 H 622.418 1.36612 -3.52343 0
M  V30 6526 H 622.731 2.20155 -7.40778 0
M  V30 6527 H 621.076 1.98657 -6.66003 0
M  V30 6528 H 624.267 1.61337 -4.39418 0
M  V30 6529 H 624.44 1.99455 -6.1654 0
M  V30 6530 N 617.846 1.41785 0.688094 0
M  V30 6531 C 619.092 1.41753 1.4503 0
M  V30 6532 C 619.425 0.0290745 1.94178 0
M  V30 6533 O 618.7 -0.944456 1.7003 0
M  V30 6534 C 618.983 2.43069 2.65686 0
M  V30 6535 C 618.836 3.91053 2.22256 0
M  V30 6536 C 620.155 2.41543 3.67893 0
M  V30 6537 H 617.274 0.516202 0.526027 0
M  V30 6538 H 619.916 1.73111 0.783105 0
M  V30 6539 H 618.066 2.1646 3.2261 0
M  V30 6540 H 619.738 4.28594 1.70602 0
M  V30 6541 H 617.981 4.05559 1.53963 0
M  V30 6542 H 618.652 4.57501 3.08863 0
M  V30 6543 H 621.128 2.65175 3.20658 0
M  V30 6544 H 620.004 3.14434 4.49914 0
M  V30 6545 H 620.265 1.43666 4.18106 0
M  V30 6546 N 619.324 -0.923095 1.27737 0
M  V30 6547 C 620.74 -1.19985 1.05241 0
M  V30 6548 C 620.94 -2.00391 -0.21113 0
M  V30 6549 O 619.996 -2.35324 -0.915366 0
M  V30 6550 C 621.309 -1.94352 2.29451 0
M  V30 6551 C 622.857 -2.07273 2.34536 0
M  V30 6552 C 623.332 -2.85046 3.58487 0
M  V30 6553 N 624.823 -2.92612 3.59072 0
M  V30 6554 C 625.558 -3.53266 4.51654 0
M  V30 6555 N 625.054 -4.15274 5.54545 0
M  V30 6556 N 626.847 -3.50714 4.39268 0
M  V30 6557 H 618.998 -0.386042 2.08862 0
M  V30 6558 H 621.261 -0.233407 0.918817 0
M  V30 6559 H 620.967 -1.42692 3.21453 0
M  V30 6560 H 620.841 -2.94947 2.3513 0
M  V30 6561 H 623.228 -2.58117 1.43037 0
M  V30 6562 H 623.309 -1.05884 2.32857 0
M  V30 6563 H 622.953 -2.34884 4.50324 0
M  V30 6564 H 622.883 -3.8673 3.57418 0
M  V30 6565 H 625.374 -2.48547 2.84663 0
M  V30 6566 H 625.687 -4.59507 6.21348 0
M  V30 6567 H 624.032 -4.13806 5.58382 0
M  V30 6568 H 627.223 -3.01475 3.58093 0
M  V30 6569 H 627.396 -3.97693 5.1161 0
M  V30 6570 N 620.802 -1.09834 -1.13024 0
M  V30 6571 C 621.732 -0.763451 -2.20666 0
M  V30 6572 C 622.713 0.260778 -1.68089 0
M  V30 6573 O 623.898 0.127915 -1.93778 0
M  V30 6574 C 621.028 -0.187744 -3.46792 0
M  V30 6575 C 619.982 -1.14196 -4.12484 0
M  V30 6576 C 619.308 -0.427755 -5.32986 0
M  V30 6577 C 620.608 -2.48607 -4.59338 0
M  V30 6578 H 622.302 -1.66347 -2.48936 0
M  V30 6579 H 619.848 -0.801261 -1.19649 0
M  V30 6580 H 621.801 0.0586375 -4.21359 0
M  V30 6581 H 620.525 0.747485 -3.17931 0
M  V30 6582 H 619.184 -1.37369 -3.3989 0
M  V30 6583 H 618.832 0.511747 -5.0039 0
M  V30 6584 H 618.532 -1.06403 -5.77886 0
M  V30 6585 H 620.056 -0.189772 -6.10305 0
M  V30 6586 H 621.47 -2.29618 -5.25308 0
M  V30 6587 H 619.867 -3.08062 -5.14993 0
M  V30 6588 H 620.937 -3.09062 -3.73642 0
M  V30 6589 N 622.28 1.30327 -0.886154 0
M  V30 6590 C 623.243 2.26376 -0.358687 0
M  V30 6591 C 624.243 1.52845 0.499498 0
M  V30 6592 O 625.433 1.71483 0.306485 0
M  V30 6593 C 622.565 3.37379 0.488726 0
M  V30 6594 H 623.758 2.74547 -1.20681 0
M  V30 6595 H 621.311 1.41536 -0.663113 0
M  V30 6596 H 622.046 2.94526 1.35739 0
M  V30 6597 H 621.831 3.91897 -0.126003 0
M  V30 6598 H 623.321 4.08868 0.84952 0
M  V30 6599 N 623.758 0.647228 1.43697 0
M  V30 6600 C 625.007 0.155552 2.01099 0
M  V30 6601 C 625.32 -1.23569 1.51624 0
M  V30 6602 O 626.526 -1.82226 2.01261 0
M  V30 6603 C 624.982 0.227296 3.59182 0
M  V30 6604 C 624.59 1.62086 4.17651 0
M  V30 6605 C 626.334 -0.207085 4.23995 0
M  V30 6606 C 624.241 1.64685 5.68008 0
M  V30 6607 H 623.171 0.0543895 0.752036 0
M  V30 6608 H 625.822 0.808386 1.64734 0
M  V30 6609 H 624.204 -0.492937 3.9292 0
M  V30 6610 H 625.378 2.36597 3.95422 0
M  V30 6611 H 623.693 2.0007 3.65186 0
M  V30 6612 H 626.29 -0.207426 5.34298 0
M  V30 6613 H 626.633 -1.23742 3.97484 0
M  V30 6614 H 627.166 0.461193 3.95118 0
M  V30 6615 H 623.905 2.65608 5.99277 0
M  V30 6616 H 623.425 0.944914 5.9231 0
M  V30 6617 H 625.104 1.38792 6.31938 0
M  V30 6618 N 625.236 -1.5273 0.388769 0
M  V30 6619 C 626.485 -2.00757 -0.194833 0
M  V30 6620 C 626.798 -1.27951 -1.47946 0
M  V30 6621 O 628.004 -1.66686 -2.14308 0
M  V30 6622 C 626.46 -3.57695 -0.397762 0
M  V30 6623 C 626.068 -4.394 0.873583 0
M  V30 6624 C 627.812 -4.14012 -0.937759 0
M  V30 6625 C 625.719 -5.87938 0.638962 0
M  V30 6626 H 624.649 -0.750101 -0.0765845 0
M  V30 6627 H 627.3 -1.76239 0.511086 0
M  V30 6628 H 625.682 -3.7846 -1.16552 0
M  V30 6629 H 626.856 -4.30403 1.64591 0
M  V30 6630 H 625.171 -3.94301 1.33849 0
M  V30 6631 H 627.768 -5.22645 -1.12899 0
M  V30 6632 H 628.111 -3.7007 -1.90666 0
M  V30 6633 H 628.644 -3.97137 -0.229588 0
M  V30 6634 H 625.383 -6.36202 1.57885 0
M  V30 6635 H 624.903 -5.99726 -0.094443 0
M  V30 6636 H 626.582 -6.46423 0.273299 0
M  V30 6637 N 626.714 -0.118576 -1.57153 0
M  V30 6638 C 627.624 0.845484 -2.18835 0
M  V30 6639 C 628.64 1.29299 -1.16438 0
M  V30 6640 O 629.816 1.35607 -1.48905 0
M  V30 6641 C 626.881 2.07795 -2.77529 0
M  V30 6642 C 625.942 1.6824 -3.9496 0
M  V30 6643 C 625.175 2.85612 -4.50845 0
M  V30 6644 O 625.398 4.01025 -4.05629 0
M  V30 6645 O 624.332 2.62721 -5.41536 0
M  V30 6646 H 628.158 0.350568 -3.0167 0
M  V30 6647 H 625.743 0.107013 -1.49016 0
M  V30 6648 H 627.625 2.79978 -3.14945 0
M  V30 6649 H 626.3 2.56294 -1.97725 0
M  V30 6650 H 625.207 0.931663 -3.62313 0
M  V30 6651 H 626.54 1.24484 -4.76198 0
M  V30 6652 N 628.193 1.56834 0.155195 0
M  V30 6653 C 629.423 1.86778 0.883044 0
M  V30 6654 C 629.831 0.703824 1.75622 0
M  V30 6655 O 629.174 -0.33581 1.80605 0
M  V30 6656 C 629.236 3.1133 1.79761 0
M  V30 6657 C 628.9 4.43504 1.10242 0
M  V30 6658 C 629.897 5.17859 0.460204 0
M  V30 6659 C 627.582 4.90233 1.09437 0
M  V30 6660 C 629.576 6.37144 -0.180782 0
M  V30 6661 C 627.263 6.09444 0.449569 0
M  V30 6662 C 628.261 6.82744 -0.186888 0
M  V30 6663 O 627.949 7.99692 -0.821486 0
M  V30 6664 H 627.681 0.62352 0.261149 0
M  V30 6665 H 630.235 2.04813 0.155204 0
M  V30 6666 H 628.465 2.89282 2.56618 0
M  V30 6667 H 630.154 3.27587 2.39669 0
M  V30 6668 H 630.92 4.8283 0.458289 0
M  V30 6669 H 626.799 4.33109 1.57917 0
M  V30 6670 H 630.343 6.94296 -0.678154 0
M  V30 6671 H 626.24 6.43936 0.449123 0
M  V30 6672 H 627.008 8.15306 -0.722337 0
M  V30 6673 N 629.671 -0.424282 1.51781 0
M  V30 6674 C 630.604 -1.53633 1.68737 0
M  V30 6675 C 631.582 -1.53549 0.534915 0
M  V30 6676 O 632.766 -1.72483 0.760391 0
M  V30 6677 C 629.893 -2.92195 1.71288 0
M  V30 6678 C 628.939 -3.10251 2.92654 0
M  V30 6679 S 629.772 -2.85166 4.53256 0
M  V30 6680 C 630.928 -4.25986 4.58571 0
M  V30 6681 H 631.161 -1.39018 2.62795 0
M  V30 6682 H 628.694 -0.614854 1.41629 0
M  V30 6683 H 630.652 -3.72059 1.73443 0
M  V30 6684 H 629.313 -3.04162 0.783847 0
M  V30 6685 H 628.506 -4.1159 2.90877 0
M  V30 6686 H 628.108 -2.38231 2.88308 0
M  V30 6687 H 630.4 -5.19392 4.35015 0
M  V30 6688 H 631.343 -4.32792 5.60444 0
M  V30 6689 H 631.751 -4.1025 3.87757 0
M  V30 6690 N 631.149 -1.42148 -0.680565 0
M  V30 6691 C 632.56 -1.3768 -1.26099 0
M  V30 6692 C 632.911 -0.0672348 -1.96085 0
M  V30 6693 O 632.036 0.834172 -1.99676 0
M  V30 6694 C 632.631 -2.49387 -2.29328 0
M  V30 6695 C 631.19 -2.4827 -2.82911 0
M  V30 6696 C 630.337 -2.2847 -1.57152 0
M  V30 6697 H 633.288 -1.51446 -0.474326 0
M  V30 6698 H 633.309 -2.19307 -3.10941 0
M  V30 6699 H 632.821 -3.44686 -1.78363 0
M  V30 6700 H 630.922 -1.56773 -3.38013 0
M  V30 6701 H 631.035 -3.45109 -3.3232 0
M  V30 6702 H 629.399 -1.76623 -1.83511 0
M  V30 6703 H 630.182 -3.25816 -1.0816 0
M  V30 6704 N 632.627 0.916307 -1.28225 0
M  V30 6705 C 633.557 2.0352 -1.14464 0
M  V30 6706 C 634.538 1.70045 -0.0430844 0
M  V30 6707 O 635.723 1.92954 -0.219619 0
M  V30 6708 C 632.853 3.37889 -0.803027 0
M  V30 6709 C 631.807 3.85516 -1.85908 0
M  V30 6710 C 631.133 5.1682 -1.37116 0
M  V30 6711 C 632.433 4.07655 -3.26519 0
M  V30 6712 H 634.127 2.1529 -2.08064 0
M  V30 6713 H 631.673 1.03446 -1.00174 0
M  V30 6714 H 633.626 4.15654 -0.693537 0
M  V30 6715 H 632.35 3.26164 0.168674 0
M  V30 6716 H 631.009 3.09953 -1.95767 0
M  V30 6717 H 630.657 5.01497 -0.38859 0
M  V30 6718 H 630.357 5.49657 -2.07728 0
M  V30 6719 H 631.881 5.97143 -1.27484 0
M  V30 6720 H 633.295 4.75953 -3.19596 0
M  V30 6721 H 631.692 4.51818 -3.94943 0
M  V30 6722 H 632.762 3.12553 -3.70727 0
M  V30 6723 N 634.105 1.10431 1.1244 0
M  V30 6724 C 635.035 0.775143 2.20258 0
M  V30 6725 C 636.016 -0.25186 1.68225 0
M  V30 6726 O 637.201 -0.117637 1.93843 0
M  V30 6727 C 634.331 0.206133 3.46688 0
M  V30 6728 C 633.285 1.16382 4.11873 0
M  V30 6729 C 632.611 0.456014 5.32752 0
M  V30 6730 C 633.911 2.5104 4.58013 0
M  V30 6731 H 635.605 1.67665 2.4805 0
M  V30 6732 H 633.151 0.807595 1.19222 0
M  V30 6733 H 635.104 -0.036291 4.21384 0
M  V30 6734 H 633.828 -0.730614 3.18323 0
M  V30 6735 H 632.487 1.39169 3.39157 0
M  V30 6736 H 632.135 -0.485203 5.00654 0
M  V30 6737 H 631.835 1.09466 5.77314 0
M  V30 6738 H 633.359 0.222135 6.10196 0
M  V30 6739 H 634.773 2.32401 5.24083 0
M  V30 6740 H 633.17 3.10789 5.13352 0
M  V30 6741 H 634.24 3.11039 3.71998 0
M  V30 6742 N 635.583 -1.29855 0.893053 0
M  V30 6743 C 636.546 -2.26183 0.370687 0
M  V30 6744 C 637.546 -1.53108 -0.491385 0
M  V30 6745 O 638.736 -1.71643 -0.297386 0
M  V30 6746 C 635.868 -3.37633 -0.470827 0
M  V30 6747 H 637.061 -2.73903 1.22135 0
M  V30 6748 H 634.614 -1.41183 0.67061 0
M  V30 6749 H 635.349 -2.95241 -1.34175 0
M  V30 6750 H 635.134 -3.91825 0.146784 0
M  V30 6751 H 636.624 -4.09313 -0.827825 0
M  V30 6752 N 637.061 -0.65484 -1.43351 0
M  V30 6753 C 638.309 -0.168559 -2.01396 0
M  V30 6754 C 638.63 1.22235 -1.51933 0
M  V30 6755 O 637.9 1.81685 -0.732627 0
M  V30 6756 H 636.48 -0.0593244 -0.744641 0
M  V30 6757 H 639.142 -0.846871 -1.75539 0
M  V30 6758 H 638.238 -0.154428 -3.11718 0
M  V30 6759 N 638.539 1.52521 -0.396863 0
M  V30 6760 C 639.471 2.24333 0.469814 0
M  V30 6761 C 640.484 1.2685 1.02043 0
M  V30 6762 O 641.673 1.52876 0.92147 0
M  V30 6763 C 638.773 2.95202 1.66461 0
M  V30 6764 C 637.946 4.19454 1.24003 0
M  V30 6765 C 637.005 4.73255 2.30036 0
M  V30 6766 O 636.031 5.36151 1.91131 0
M  V30 6767 N 637.233 4.53765 3.62047 0
M  V30 6768 H 639.998 2.99347 -0.145468 0
M  V30 6769 H 637.559 1.60348 -0.223606 0
M  V30 6770 H 639.551 3.28092 2.36934 0
M  V30 6771 H 638.121 2.2345 2.18607 0
M  V30 6772 H 637.341 3.92517 0.363892 0
M  V30 6773 H 638.629 5.0017 0.933135 0
M  V30 6774 H 638.027 4.03576 3.96412 0
M  V30 6775 H 636.584 4.91124 4.28533 0
M  V30 6776 N 640.017 0.126909 1.57088 0
M  V30 6777 C 640.947 -0.816847 2.18746 0
M  V30 6778 C 641.928 -1.27161 1.12979 0
M  V30 6779 O 643.113 -1.33279 1.41246 0
M  V30 6780 C 640.243 -2.06398 2.79315 0
M  V30 6781 C 639.197 -1.74673 3.90735 0
M  V30 6782 C 638.523 -3.06482 4.38147 0
M  V30 6783 C 639.823 -1.0089 5.12463 0
M  V30 6784 H 641.517 -0.303032 2.97863 0
M  V30 6785 H 639.063 -0.144314 1.43275 0
M  V30 6786 H 641.016 -2.72885 3.2111 0
M  V30 6787 H 639.74 -2.60118 1.975 0
M  V30 6788 H 638.399 -1.10572 3.49527 0
M  V30 6789 H 638.047 -3.58152 3.5318 0
M  V30 6790 H 637.747 -2.86025 5.13287 0
M  V30 6791 H 639.271 -3.74073 4.82599 0
M  V30 6792 H 640.685 -1.57546 5.51228 0
M  V30 6793 H 639.082 -0.905006 5.93237 0
M  V30 6794 H 640.152 0.00297335 4.849 0
M  V30 6795 N 641.495 -1.56914 -0.146875 0
M  V30 6796 C 642.743 -1.82994 -0.85777 0
M  V30 6797 C 643.064 -0.707814 -1.817 0
M  V30 6798 O 642.334 0.270521 -1.94023 0
M  V30 6799 H 640.914 -0.675106 -0.319751 0
M  V30 6800 H 643.576 -1.9439 -0.140849 0
M  V30 6801 H 642.672 -2.77928 -1.41994 0
M  V30 6802 N 642.974 0.416227 -1.52004 0
M  V30 6803 C 644.22 1.16555 -1.6596 0
M  V30 6804 C 644.553 1.90347 -0.384906 0
M  V30 6805 O 643.828 1.84474 0.616405 0
M  V30 6806 C 644.111 2.1657 -2.87696 0
M  V30 6807 C 643.964 1.46722 -4.25197 0
M  V30 6808 C 645.283 3.17321 -3.04951 0
M  V30 6809 H 642.402 0.422369 -0.603965 0
M  V30 6810 H 645.044 0.452141 -1.84542 0
M  V30 6811 H 643.194 2.77411 -2.71985 0
M  V30 6812 H 644.866 0.89056 -4.52622 0
M  V30 6813 H 643.109 0.769263 -4.26925 0
M  V30 6814 H 643.78 2.19665 -5.0641 0
M  V30 6815 H 646.256 2.66552 -3.19514 0
M  V30 6816 H 645.132 3.84573 -3.91656 0
M  V30 6817 H 645.393 3.84643 -2.17951 0
M  V30 6818 N 644.452 1.42507 0.673017 0
M  V30 6819 C 645.362 1.4853 1.81593 0
M  V30 6820 C 646.378 0.373907 1.69935 0
M  V30 6821 O 647.554 0.625078 1.91454 0
M  V30 6822 C 644.619 1.387 3.17747 0
M  V30 6823 C 643.68 2.60346 3.41348 0
M  V30 6824 C 642.913 2.50975 4.71007 0
M  V30 6825 O 643.136 1.54659 5.49033 0
M  V30 6826 O 642.07 3.41138 4.95892 0
M  V30 6827 H 645.896 2.45001 1.79467 0
M  V30 6828 H 643.481 1.2429 0.82899 0
M  V30 6829 H 645.363 1.35586 3.98992 0
M  V30 6830 H 644.038 0.453555 3.20507 0
M  V30 6831 H 642.945 2.69034 2.59945 0
M  V30 6832 H 644.278 3.52595 3.43421 0
M  V30 6833 N 645.93 -0.909495 1.28709 0
M  V30 6834 C 647.177 -1.65905 1.16111 0
M  V30 6835 C 647.505 -1.92334 -0.289436 0
M  V30 6836 O 646.76 -1.52495 -1.22653 0
M  V30 6837 C 647.059 -3.02117 1.90945 0
M  V30 6838 C 646.725 -2.95332 3.40719 0
M  V30 6839 C 645.387 -2.93189 3.81567 0
M  V30 6840 C 647.739 -2.85264 4.36204 0
M  V30 6841 C 645.067 -2.78784 5.16233 0
M  V30 6842 C 647.419 -2.724 5.70948 0
M  V30 6843 C 646.083 -2.68617 6.11066 0
M  V30 6844 H 645.353 -0.60709 0.42488 0
M  V30 6845 H 648 -1.05932 1.59533 0
M  V30 6846 H 646.305 -3.65901 1.40085 0
M  V30 6847 H 648.002 -3.59026 1.7861 0
M  V30 6848 H 644.592 -2.97797 3.08245 0
M  V30 6849 H 648.776 -2.86005 4.05605 0
M  V30 6850 H 644.032 -2.74254 5.46438 0
M  V30 6851 H 648.206 -2.63579 6.44592 0
M  V30 6852 H 645.833 -2.57213 7.15364 0
M  V30 6853 N 647.408 -1.11026 -1.11852 0
M  V30 6854 C 648.655 -0.85646 -1.83497 0
M  V30 6855 C 648.983 0.617938 -1.84423 0
M  V30 6856 O 648.238 1.47194 -1.28966 0
M  V30 6857 C 648.537 -1.35777 -3.30604 0
M  V30 6858 C 648.203 -2.84465 -3.49843 0
M  V30 6859 C 646.865 -3.25068 -3.54802 0
M  V30 6860 C 649.217 -3.80251 -3.56453 0
M  V30 6861 C 646.545 -4.60194 -3.63921 0
M  V30 6862 C 648.897 -5.15188 -3.67102 0
M  V30 6863 C 647.561 -5.55356 -3.70319 0
M  V30 6864 H 646.831 -0.313401 -0.671462 0
M  V30 6865 H 649.478 -1.38792 -1.31943 0
M  V30 6866 H 647.783 -0.746455 -3.84624 0
M  V30 6867 H 649.48 -1.13779 -3.8452 0
M  V30 6868 H 646.07 -2.52054 -3.46651 0
M  V30 6869 H 650.254 -3.49986 -3.51886 0
M  V30 6870 H 645.51 -4.90728 -3.64686 0
M  V30 6871 H 649.684 -5.89248 -3.71159 0
M  V30 6872 H 647.311 -6.60054 -3.77138 0
M  V30 6873 N 648.886 1.2938 -0.899927 0
M  V30 6874 C 650.163 1.9046 -0.445443 0
M  V30 6875 C 650.543 1.81683 1.07492 0
M  V30 6876 O 649.891 1.24371 1.91688 0
M  V30 6877 C 650.101 3.35529 -0.960279 0
M  V30 6878 C 651.449 4.12556 -1.00412 0
M  V30 6879 O 652.473 3.44434 -0.907965 0
M  V30 6880 O 651.332 5.34294 -1.14857 0
M  V30 6881 H 648.426 0.815253 -0.138893 0
M  V30 6882 H 650.972 1.37844 -0.989808 0
M  V30 6883 H 649.744 3.36074 -2.00425 0
M  V30 6884 H 649.367 3.95624 -0.395939 0
M  V30 6885 N 650.364 0.662433 1.43002 0
M  V30 6886 C 651.274 -0.0239199 2.34588 0
M  V30 6887 C 652.29 -0.802255 1.54402 0
M  V30 6888 O 653.466 -0.747401 1.87018 0
M  V30 6889 C 650.531 -0.972098 3.32793 0
M  V30 6890 C 649.592 -0.189673 4.28881 0
M  V30 6891 C 648.825 -1.09269 5.22395 0
M  V30 6892 O 649.048 -2.33209 5.20547 0
M  V30 6893 O 647.982 -0.560136 5.99288 0
M  V30 6894 H 651.808 0.730171 2.94792 0
M  V30 6895 H 649.393 0.422635 1.43297 0
M  V30 6896 H 651.275 -1.51676 3.93157 0
M  V30 6897 H 649.95 -1.70626 2.75079 0
M  V30 6898 H 648.857 0.398794 3.71968 0
M  V30 6899 H 650.19 0.50511 4.89601 0
M  V30 6900 N 651.842 -1.52309 0.404946 0
M  V30 6901 C 652.789 -2.26898 -0.422597 0
M  V30 6902 C 653.759 -1.2914 -1.04461 0
M  V30 6903 O 654.944 -1.57996 -1.06967 0
M  V30 6904 C 652.084 -3.09053 -1.53559 0
M  V30 6905 C 651.197 -4.21762 -0.934908 0
M  V30 6906 C 650.332 -4.91283 -2.02025 0
M  V30 6907 C 649.371 -5.95962 -1.39628 0
M  V30 6908 N 648.508 -6.59017 -2.42159 0
M  V30 6909 H 653.348 -2.97188 0.219903 0
M  V30 6910 H 650.885 -1.46607 0.120282 0
M  V30 6911 H 652.843 -3.54987 -2.19181 0
M  V30 6912 H 651.473 -2.40942 -2.14818 0
M  V30 6913 H 650.525 -3.80029 -0.167854 0
M  V30 6914 H 651.837 -4.96864 -0.439073 0
M  V30 6915 H 650.991 -5.40601 -2.75383 0
M  V30 6916 H 649.73 -4.15741 -2.54973 0
M  V30 6917 H 648.735 -5.45968 -0.648023 0
M  V30 6918 H 649.96 -6.73445 -0.874553 0
M  V30 6919 H 647.906 -5.86306 -2.94247 0
M  V30 6920 H 647.823 -7.2978 -1.97376 0
M  V30 6921 H 649.091 -7.12974 -3.15099 0
M  V30 6922 N 653.32 -0.135238 -1.57019 0
M  V30 6923 C 654.25 0.805235 -2.19176 0
M  V30 6924 C 655.231 1.2656 -1.13651 0
M  V30 6925 O 656.416 1.32528 -1.4195 0
M  V30 6926 C 653.546 2.04914 -2.80406 0
M  V30 6927 C 652.5 1.72598 -3.91655 0
M  V30 6928 C 651.826 3.04154 -4.39766 0
M  V30 6929 C 653.126 0.981709 -5.12991 0
M  V30 6930 H 654.82 0.287232 -2.98019 0
M  V30 6931 H 652.366 0.136714 -1.4335 0
M  V30 6932 H 654.319 2.71178 -3.22553 0
M  V30 6933 H 653.043 2.59067 -1.98877 0
M  V30 6934 H 651.702 1.08717 -3.50109 0
M  V30 6935 H 651.35 3.56274 -3.55075 0
M  V30 6936 H 651.05 2.83299 -5.14796 0
M  V30 6937 H 652.574 3.71509 -4.84576 0
M  V30 6938 H 653.988 1.5462 -5.52056 0
M  V30 6939 H 652.385 0.873533 -5.93708 0
M  V30 6940 H 653.455 -0.0286887 -4.84892 0
M  V30 6941 N 654.798 1.5699 0.138552 0
M  V30 6942 C 655.746 1.99858 1.18994 0
M  V30 6943 C 656.74 0.89231 1.43994 0
M  V30 6944 O 657.946 1.0775 1.44187 0
M  V30 6945 H 654.321 0.636325 0.400743 0
M  V30 6946 H 656.292 2.87427 0.801755 0
M  V30 6947 C 655.041 2.40235 2.51361 0
M  V30 6948 H 654.364 3.24917 2.32957 0
M  V30 6949 H 655.804 2.74045 3.23535 0
M  V30 6950 C 654.263 1.25829 3.1252 0
M  V30 6951 O 654.793 0.563604 3.97727 0
M  V30 6952 N 652.999 1.02036 2.72097 0
M  V30 6953 H 652.546 1.58705 2.02905 0
M  V30 6954 H 652.504 0.256796 3.1335 0
M  V30 6955 N 656.276 -0.40816 1.52223 0
M  V30 6956 C 657.501 -1.18127 1.70472 0
M  V30 6957 C 657.926 -1.83491 0.41384 0
M  V30 6958 O 657.284 -1.70047 -0.628778 0
M  V30 6959 C 657.332 -2.21935 2.84213 0
M  V30 6960 O 656.436 -3.28099 2.4985 0
M  V30 6961 H 655.777 -0.344781 0.56747 0
M  V30 6962 H 658.307 -0.478328 1.9893 0
M  V30 6963 H 658.317 -2.66248 3.09153 0
M  V30 6964 H 656.992 -1.73744 3.7787 0
M  V30 6965 H 655.569 -2.89058 2.35584 0
M  V30 6966 N 657.755 -1.42862 -0.66545 0
M  V30 6967 C 658.685 -1.49867 -1.79059 0
M  V30 6968 C 659.666 -0.354394 -1.66367 0
M  V30 6969 O 660.851 -0.569969 -1.85647 0
M  V30 6970 C 657.981 -1.40943 -3.17415 0
M  V30 6971 C 656.935 -2.53495 -3.44854 0
M  V30 6972 C 656.261 -2.29626 -4.82883 0
M  V30 6973 C 657.561 -3.95781 -3.40815 0
M  V30 6974 H 659.255 -2.44037 -1.73453 0
M  V30 6975 H 656.801 -1.17456 -0.833071 0
M  V30 6976 H 658.754 -1.4445 -3.95869 0
M  V30 6977 H 657.478 -0.432716 -3.23721 0
M  V30 6978 H 656.137 -2.4932 -2.68766 0
M  V30 6979 H 655.785 -1.30226 -4.8585 0
M  V30 6980 H 655.485 -3.05065 -5.02204 0
M  V30 6981 H 657.009 -2.34897 -5.63609 0
M  V30 6982 H 658.423 -4.01508 -4.09224 0
M  V30 6983 H 656.82 -4.71148 -3.71672 0
M  V30 6984 H 657.89 -4.21786 -2.39216 0
M  V30 6985 N 659.233 0.902656 -1.29189 0
M  V30 6986 C 660.473 1.6672 -1.18254 0
M  V30 6987 C 660.837 1.90199 0.262336 0
M  V30 6988 O 662.038 2.6421 0.494612 0
M  V30 6989 C 660.309 2.98178 -1.9704 0
M  V30 6990 S 661.868 3.89226 -2.02605 0
M  V30 6991 H 658.686 0.572432 -0.421714 0
M  V30 6992 H 661.288 1.07279 -1.63436 0
M  V30 6993 H 659.992 2.788 -3.01163 0
M  V30 6994 H 659.523 3.62661 -1.5245 0
M  V30 6995 H 661.538 4.82913 -1.14059 0
M  V30 6996 N 660.711 1.11618 1.11262 0
M  V30 6997 C 661.644 0.719995 2.16544 0
M  V30 6998 C 662.622 -0.28471 1.60088 0
M  V30 6999 O 663.806 -0.180693 1.87632 0
M  V30 7000 C 660.933 0.0643302 3.38639 0
M  V30 7001 C 659.979 1.03448 4.13764 0
M  V30 7002 S 660.812 2.55789 4.70459 0
M  V30 7003 C 661.968 1.91529 5.95875 0
M  V30 7004 H 662.201 1.61181 2.49816 0
M  V30 7005 H 659.734 0.934401 1.22916 0
M  V30 7006 H 661.692 -0.307609 4.09346 0
M  V30 7007 H 660.353 -0.804471 3.03623 0
M  V30 7008 H 659.546 0.523188 5.01277 0
M  V30 7009 H 659.148 1.34893 3.48826 0
M  V30 7010 H 661.44 1.25286 6.65815 0
M  V30 7011 H 662.383 2.77047 6.51652 0
M  V30 7012 H 662.791 1.37468 5.47506 0
M  V30 7013 N 662.189 -1.289 0.906776 0
M  V30 7014 C 663.152 -2.25777 0.394656 0
M  V30 7015 C 664.152 -1.53621 -0.475119 0
M  V30 7016 O 665.342 -1.71949 -0.279165 0
M  V30 7017 C 662.474 -3.38113 -0.43499 0
M  V30 7018 H 663.667 -2.72592 1.25033 0
M  V30 7019 H 661.22 -1.40463 0.685547 0
M  V30 7020 H 661.955 -2.96648 -1.31036 0
M  V30 7021 H 661.74 -3.91647 0.188334 0
M  V30 7022 H 663.23 -4.10168 -0.784365 0
M  V30 7023 N 663.667 -0.670007 -1.42649 0
M  V30 7024 C 664.913 -0.19923 -2.02422 0
M  V30 7025 C 665.268 1.17947 -1.52007 0
M  V30 7026 O 664.561 1.77939 -0.710512 0
M  V30 7027 C 664.755 -0.168298 -3.57004 0
M  V30 7028 C 664.584 -1.54246 -4.22419 0
M  V30 7029 C 663.354 -2.13904 -4.57792 0
M  V30 7030 C 665.552 -2.4842 -4.50324 0
M  V30 7031 N 663.534 -3.44151 -5.08364 0
M  V30 7032 C 664.905 -3.63317 -5.02395 0
M  V30 7033 C 666.96 -2.47011 -4.32308 0
M  V30 7034 C 665.663 -4.77051 -5.38345 0
M  V30 7035 C 667.689 -3.59838 -4.6933 0
M  V30 7036 C 667.051 -4.73462 -5.21549 0
M  V30 7037 H 663.15 -0.117717 -0.773089 0
M  V30 7038 H 665.734 -0.881955 -1.73579 0
M  V30 7039 H 663.905 0.483824 -3.85375 0
M  V30 7040 H 665.637 0.314914 -4.03473 0
M  V30 7041 H 662.392 -1.66441 -4.4339 0
M  V30 7042 H 662.816 -4.10846 -5.38084 0
M  V30 7043 H 667.458 -1.60394 -3.91195 0
M  V30 7044 H 665.176 -5.64347 -5.78393 0
M  V30 7045 H 668.762 -3.59969 -4.57071 0
M  V30 7046 H 667.642 -5.59321 -5.49663 0
M  V30 7047 N 665.145 1.52092 -0.413018 0
M  V30 7048 C 666.075 2.30021 0.401567 0
M  V30 7049 C 667.056 1.34395 1.04269 0
M  V30 7050 O 668.241 1.63304 1.05097 0
M  V30 7051 C 665.371 3.12447 1.51638 0
M  V30 7052 C 664.325 4.16153 1.00005 0
M  V30 7053 C 663.651 4.86948 2.20875 0
M  V30 7054 C 664.951 5.22275 0.0513757 0
M  V30 7055 H 666.645 2.98365 -0.248704 0
M  V30 7056 H 664.191 1.4349 -0.121052 0
M  V30 7057 H 666.144 3.65733 2.09326 0
M  V30 7058 H 664.868 2.41879 2.19458 0
M  V30 7059 H 663.527 3.63882 0.445549 0
M  V30 7060 H 663.175 4.12905 2.8726 0
M  V30 7061 H 662.875 5.57057 1.86978 0
M  V30 7062 H 664.399 5.43048 2.79162 0
M  V30 7063 H 665.813 5.70778 0.537176 0
M  V30 7064 H 664.21 5.9977 -0.198977 0
M  V30 7065 H 665.28 4.76611 -0.892736 0
M  V30 7066 N 666.623 0.143563 1.56945 0
M  V30 7067 C 667.869 -0.50916 1.96304 0
M  V30 7068 C 668.202 -1.64741 1.0283 0
M  V30 7069 O 667.477 -1.94374 0.0700361 0
M  V30 7070 C 667.76 -1.0186 3.45393 0
M  V30 7071 C 667.613 0.117923 4.49645 0
M  V30 7072 C 668.932 -1.90151 3.96901 0
M  V30 7073 H 666.051 -0.183608 0.713763 0
M  V30 7074 H 668.693 0.224095 1.88674 0
M  V30 7075 H 666.843 -1.64345 3.52027 0
M  V30 7076 H 668.515 0.754145 4.55094 0
M  V30 7077 H 666.758 0.777568 4.26774 0
M  V30 7078 H 667.429 -0.280187 5.51288 0
M  V30 7079 H 669.905 -1.375 3.92725 0
M  V30 7080 H 668.781 -2.22707 5.0169 0
M  V30 7081 H 669.042 -2.83718 3.39052 0
M  V30 7082 N 668.101 -1.57061 -0.130224 0
M  V30 7083 C 669.378 -1.75205 -0.869631 0
M  V30 7084 C 669.758 -0.716063 -1.98584 0
M  V30 7085 O 669.106 0.262032 -2.26993 0
M  V30 7086 C 669.316 -3.19835 -1.39666 0
M  V30 7087 C 670.664 -3.82011 -1.85345 0
M  V30 7088 O 671.688 -3.23368 -1.49371 0
M  V30 7089 O 670.547 -4.85064 -2.51744 0
M  V30 7090 H 667.641 -0.716977 -0.412157 0
M  V30 7091 H 670.187 -1.69311 -0.11484 0
M  V30 7092 H 668.959 -3.86745 -0.595288 0
M  V30 7093 H 668.582 -3.30222 -2.21448 0
M  V30 7094 N 669.579 0.400081 -1.52437 0
M  V30 7095 C 670.529 1.48734 -1.72807 0
M  V30 7096 C 671.513 1.50004 -0.582032 0
M  V30 7097 O 672.705 1.55828 -0.839449 0
M  V30 7098 C 669.834 2.86568 -1.89034 0
M  V30 7099 C 668.92 2.8991 -3.09537 0
M  V30 7100 N 669.311 2.62937 -4.32086 0
M  V30 7101 C 667.609 3.21078 -3.09556 0
M  V30 7102 C 668.31 2.73079 -5.13617 0
M  V30 7103 N 667.286 3.06342 -4.49061 0
M  V30 7104 H 671.088 1.26689 -2.65193 0
M  V30 7105 H 668.602 0.607902 -1.50593 0
M  V30 7106 H 670.599 3.64834 -2.01746 0
M  V30 7107 H 669.259 3.09604 -0.978547 0
M  V30 7108 H 670.27 2.37163 -4.60406 0
M  V30 7109 H 666.947 3.49651 -2.28146 0
M  V30 7110 H 668.337 2.55863 -6.21276 0
M  V30 7111 N 671.057 1.43213 0.657864 0
M  V30 7112 C 672.303 1.44798 1.41991 0
M  V30 7113 C 672.636 0.070256 1.94073 0
M  V30 7114 O 671.911 -0.908177 1.71995 0
M  V30 7115 C 672.194 2.4865 2.60471 0
M  V30 7116 C 672.047 3.95679 2.13911 0
M  V30 7117 C 673.366 2.49292 3.62686 0
M  V30 7118 H 670.485 0.527244 0.514959 0
M  V30 7119 H 673.127 1.74733 0.74621 0
M  V30 7120 H 671.277 2.23254 3.17946 0
M  V30 7121 H 672.949 4.32116 1.61472 0
M  V30 7122 H 671.192 4.08733 1.45325 0
M  V30 7123 H 671.863 4.6395 2.99089 0
M  V30 7124 H 674.339 2.71917 3.14961 0
M  V30 7125 H 673.215 3.23907 4.43143 0
M  V30 7126 H 673.476 1.52502 4.14964 0
M  V30 7127 N 672.536 -0.895792 1.29666 0
M  V30 7128 C 673.766 -1.67757 1.20586 0
M  V30 7129 C 674.174 -1.87729 -0.235432 0
M  V30 7130 O 673.517 -1.41706 -1.16898 0
M  V30 7131 C 673.579 -3.08117 1.85215 0
M  V30 7132 C 673.243 -3.1136 3.3452 0
M  V30 7133 C 674.24 -2.91217 4.30684 0
M  V30 7134 C 671.925 -3.33302 3.75786 0
M  V30 7135 C 673.919 -2.92955 5.66089 0
M  V30 7136 C 671.606 -3.3467 5.11311 0
M  V30 7137 C 672.604 -3.14519 6.06273 0
M  V30 7138 O 672.292 -3.15684 7.39323 0
M  V30 7139 H 672.024 -0.530601 0.418854 0
M  V30 7140 H 674.578 -1.12831 1.71634 0
M  V30 7141 H 672.808 -3.64661 1.28683 0
M  V30 7142 H 674.497 -3.68399 1.70403 0
M  V30 7143 H 675.263 -2.74074 4.00136 0
M  V30 7144 H 671.142 -3.48025 3.02324 0
M  V30 7145 H 674.686 -2.77145 6.40185 0
M  V30 7146 H 670.583 -3.51346 5.41504 0
M  V30 7147 H 671.351 -3.31924 7.48177 0
M  V30 7148 N 674.014 -1.12206 -1.10668 0
M  V30 7149 C 674.977 -0.790867 -2.15123 0
M  V30 7150 C 675.977 0.193618 -1.5963 0
M  V30 7151 O 677.167 -0.0318728 -1.74171 0
M  V30 7152 C 674.299 -0.174797 -3.40452 0
M  V30 7153 H 675.492 -1.7163 -2.45933 0
M  V30 7154 H 673.045 -0.924993 -1.2599 0
M  V30 7155 H 673.78 0.760478 -3.15257 0
M  V30 7156 H 673.565 -0.88358 -3.82015 0
M  V30 7157 H 675.055 0.0405162 -4.1758 0
M  V30 7158 N 675.492 1.28418 -0.913599 0
M  V30 7159 C 676.741 1.94265 -0.542572 0
M  V30 7160 C 677.054 1.72709 0.918207 0
M  V30 7161 O 678.26 2.32778 1.39738 0
M  V30 7162 C 676.716 3.47956 -0.919507 0
M  V30 7163 C 676.324 3.78291 -2.4 0
M  V30 7164 C 678.068 4.19962 -0.619057 0
M  V30 7165 C 675.975 5.2529 -2.71707 0
M  V30 7166 H 674.905 0.727213 -0.199192 0
M  V30 7167 H 677.556 1.45931 -1.11249 0
M  V30 7168 H 675.938 3.9502 -0.278372 0
M  V30 7169 H 677.112 3.42035 -3.08786 0
M  V30 7170 H 675.427 3.19456 -2.67089 0
M  V30 7171 H 678.024 5.28178 -0.832623 0
M  V30 7172 H 678.367 4.13935 0.443126 0
M  V30 7173 H 678.9 3.78674 -1.21865 0
M  V30 7174 H 675.639 5.36394 -3.76778 0
M  V30 7175 H 675.159 5.62743 -2.07559 0
M  V30 7176 H 676.838 5.93027 -2.58703 0
M  V30 7177 N 676.97 0.677563 1.42291 0
M  V30 7178 C 678.386 0.347376 1.55774 0
M  V30 7179 C 678.586 -1.14703 1.65667 0
M  V30 7180 O 677.642 -1.93252 1.62512 0
M  V30 7181 C 678.955 1.08011 2.80631 0
M  V30 7182 C 680.503 1.06271 2.94407 0
M  V30 7183 C 680.978 1.77683 4.22129 0
M  V30 7184 N 682.469 1.74564 4.29047 0
M  V30 7185 C 683.204 2.26673 5.26694 0
M  V30 7186 N 682.7 2.87176 6.30477 0
M  V30 7187 N 684.493 2.17032 5.18511 0
M  V30 7188 H 676.644 1.64703 1.34114 0
M  V30 7189 H 678.907 0.694038 0.645768 0
M  V30 7190 H 678.613 2.13518 2.79469 0
M  V30 7191 H 678.487 0.647115 3.71608 0
M  V30 7192 H 680.874 0.0159658 2.95096 0
M  V30 7193 H 680.955 1.53461 2.04654 0
M  V30 7194 H 680.599 2.82327 4.22201 0
M  V30 7195 H 680.529 1.2794 5.10822 0
M  V30 7196 H 683.02 1.30436 3.54676 0
M  V30 7197 H 683.333 3.24551 7.01346 0
M  V30 7198 H 681.678 2.91247 6.31031 0
M  V30 7199 H 684.869 1.69451 4.36353 0
M  V30 7200 H 685.042 2.57948 5.94446 0
M  V30 7201 N 678.448 -1.51871 0.421078 0
M  V30 7202 C 679.358 -2.31077 -0.405069 0
M  V30 7203 C 680.374 -1.39301 -1.04265 0
M  V30 7204 O 681.55 -1.72376 -1.04157 0
M  V30 7205 C 678.615 -3.12556 -1.50032 0
M  V30 7206 C 677.676 -4.20088 -0.884559 0
M  V30 7207 C 676.909 -4.97673 -1.92762 0
M  V30 7208 O 677.132 -4.75696 -3.14753 0
M  V30 7209 O 676.066 -5.82203 -1.52719 0
M  V30 7210 H 679.892 -3.02742 0.241086 0
M  V30 7211 H 677.477 -1.48263 0.183991 0
M  V30 7212 H 679.359 -3.6326 -2.13589 0
M  V30 7213 H 678.034 -2.43672 -2.13086 0
M  V30 7214 H 676.941 -3.73502 -0.211379 0
M  V30 7215 H 678.274 -4.91298 -0.297763 0
M  V30 7216 N 679.926 -0.151884 -1.56866 0
M  V30 7217 C 680.889 0.771861 -2.15812 0
M  V30 7218 C 681.889 1.17181 -1.10115 0
M  V30 7219 O 683.079 1.09194 -1.35729 0
M  V30 7220 C 680.211 2.04806 -2.7252 0
M  V30 7221 H 681.404 0.259021 -2.98779 0
M  V30 7222 H 678.957 0.097588 -1.55995 0
M  V30 7223 H 679.692 2.60445 -1.93233 0
M  V30 7224 H 679.477 1.77044 -3.49854 0
M  V30 7225 H 680.967 2.70771 -3.1792 0
M  V30 7226 N 681.404 1.57128 0.121893 0
M  V30 7227 C 682.367 1.99197 1.13372 0
M  V30 7228 C 683.367 0.881728 1.3447 0
M  V30 7229 O 684.557 1.14783 1.31036 0
M  V30 7230 C 681.689 2.32963 2.4888 0
M  V30 7231 H 682.882 2.89788 0.772204 0
M  V30 7232 H 680.435 1.51952 0.366093 0
M  V30 7233 H 681.17 1.45243 2.89957 0
M  V30 7234 H 680.955 3.13934 2.34921 0
M  V30 7235 H 682.445 2.66261 3.21706 0
M  V30 7236 N 682.882 -0.391992 1.52647 0
M  V30 7237 C 684.11 -1.1586 1.71418 0
M  V30 7238 C 684.525 -1.8381 0.431216 0
M  V30 7239 O 683.882 -1.7256 -0.594085 0
M  V30 7240 C 683.933 -2.20888 2.86165 0
M  V30 7241 O 683.654 -1.5571 4.09495 0
M  V30 7242 C 685.155 -3.103 3.1659 0
M  V30 7243 H 682.375 -0.347494 0.574011 0
M  V30 7244 H 684.919 -0.458972 1.99283 0
M  V30 7245 H 683.074 -2.86492 2.6077 0
M  V30 7246 H 683.488 -2.25474 4.73563 0
M  V30 7247 H 684.962 -3.8003 4.00351 0
M  V30 7248 H 685.439 -3.73639 2.30848 0
M  V30 7249 H 686.045 -2.50345 3.43813 0
M  V30 7250 N 684.36 -1.4356 -0.65026 0
M  V30 7251 C 685.585 -1.48995 -1.44275 0
M  V30 7252 C 686.01 -0.109954 -1.87778 0
M  V30 7253 O 685.368 0.896926 -1.57559 0
M  V30 7254 C 685.416 -2.44341 -2.65198 0
M  V30 7255 O 684.52 -1.93172 -3.6436 0
M  V30 7256 H 683.861 -0.503852 -0.432469 0
M  V30 7257 H 686.391 -1.88504 -0.795446 0
M  V30 7258 H 686.401 -2.61743 -3.12977 0
M  V30 7259 H 685.076 -3.44588 -2.32877 0
M  V30 7260 H 683.653 -1.85445 -3.23519 0
M  V30 7261 N 685.838 0.888903 -1.30139 0
M  V30 7262 C 686.786 2.0156 -1.16088 0
M  V30 7263 C 687.78 1.69239 -0.0737413 0
M  V30 7264 O 688.986 1.78468 -0.234313 0
M  V30 7265 H 685.361 0.660825 -0.358907 0
M  V30 7266 H 687.332 2.10547 -2.11453 0
M  V30 7267 C 686.081 3.36758 -0.865426 0
M  V30 7268 H 685.404 3.62137 -1.69402 0
M  V30 7269 H 686.844 4.16246 -0.807192 0
M  V30 7270 C 685.303 3.34124 0.431577 0
M  V30 7271 O 685.833 3.7445 1.45431 0
M  V30 7272 N 684.039 2.87229 0.441321 0
M  V30 7273 H 683.586 2.54609 -0.391433 0
M  V30 7274 H 683.544 2.8585 1.30909 0
M  V30 7275 N 687.317 1.12792 1.10072 0
M  V30 7276 C 688.247 0.821688 2.18565 0
M  V30 7277 C 689.228 -0.21612 1.68721 0
M  V30 7278 O 690.413 -0.0764932 1.94049 0
M  V30 7279 C 687.543 0.279624 3.46172 0
M  V30 7280 C 686.497 1.25092 4.09312 0
M  V30 7281 C 685.823 0.568916 5.31665 0
M  V30 7282 C 687.123 2.60699 4.52585 0
M  V30 7283 H 688.817 1.72888 2.44438 0
M  V30 7284 H 686.363 0.832702 1.17482 0
M  V30 7285 H 688.316 0.053099 4.21367 0
M  V30 7286 H 687.04 -0.662929 3.19801 0
M  V30 7287 H 685.699 1.46332 3.36129 0
M  V30 7288 H 685.347 -0.378898 5.01571 0
M  V30 7289 H 685.047 1.21687 5.74862 0
M  V30 7290 H 686.571 0.351517 6.09587 0
M  V30 7291 H 687.985 2.43465 5.19035 0
M  V30 7292 H 686.382 3.21608 5.06644 0
M  V30 7293 H 687.452 3.1886 3.65317 0
M  V30 7294 N 688.795 -1.27931 0.920396 0
M  V30 7295 C 689.742 -2.27085 0.412422 0
M  V30 7296 C 690.712 -1.57858 -0.516725 0
M  V30 7297 O 691.897 -1.85717 -0.437475 0
M  V30 7298 C 689.037 -3.43466 -0.335399 0
M  V30 7299 C 688.15 -4.27425 0.627017 0
M  V30 7300 C 687.285 -5.31016 -0.139916 0
M  V30 7301 C 686.324 -6.06641 0.815683 0
M  V30 7302 N 685.461 -7.02052 0.0818439 0
M  V30 7303 H 690.301 -2.69913 1.26298 0
M  V30 7304 H 687.838 -1.32732 0.634076 0
M  V30 7305 H 689.796 -4.09744 -0.785226 0
M  V30 7306 H 688.426 -3.01611 -1.15025 0
M  V30 7307 H 687.478 -3.6113 1.19537 0
M  V30 7308 H 688.79 -4.79969 1.35763 0
M  V30 7309 H 687.944 -6.03208 -0.649998 0
M  V30 7310 H 686.683 -4.79257 -0.903543 0
M  V30 7311 H 685.688 -5.33294 1.33708 0
M  V30 7312 H 686.913 -6.60489 1.57897 0
M  V30 7313 H 684.859 -6.52634 -0.663671 0
M  V30 7314 H 684.776 -7.52249 0.752163 0
M  V30 7315 H 686.044 -7.78432 -0.407825 0
M  V30 7316 N 690.273 -0.685099 -1.4193 0
M  V30 7317 C 691.22 -0.0131869 -2.30796 0
M  V30 7318 C 692.19 0.782129 -1.46533 0
M  V30 7319 O 693.375 0.75229 -1.75343 0
M  V30 7320 C 690.515 0.924768 -3.32479 0
M  V30 7321 C 689.628 0.122181 -4.31827 0
M  V30 7322 C 688.763 1.05682 -5.20581 0
M  V30 7323 C 687.802 0.246526 -6.11603 0
M  V30 7324 N 686.939 1.13442 -6.92875 0
M  V30 7325 H 691.779 -0.776789 -2.87698 0
M  V30 7326 H 689.316 -0.394791 -1.41703 0
M  V30 7327 H 691.274 1.48251 -3.89971 0
M  V30 7328 H 689.904 1.65488 -2.77152 0
M  V30 7329 H 688.956 -0.552335 -3.76369 0
M  V30 7330 H 690.268 -0.506473 -4.96222 0
M  V30 7331 H 689.422 1.68415 -5.82856 0
M  V30 7332 H 688.161 1.71935 -4.56388 0
M  V30 7333 H 687.166 -0.393944 -5.48387 0
M  V30 7334 H 688.391 -0.412053 -6.77849 0
M  V30 7335 H 686.337 1.78316 -6.313 0
M  V30 7336 H 686.254 0.561089 -7.53915 0
M  V30 7337 H 687.522 1.74889 -7.59628 0
M  V30 7338 N 691.751 1.51645 -0.429126 0
M  V30 7339 C 692.681 2.30434 0.377148 0
M  V30 7340 C 693.662 1.35493 1.02838 0
M  V30 7341 O 694.847 1.6441 1.03359 0
M  V30 7342 C 691.977 3.14038 1.48315 0
M  V30 7343 C 690.931 4.1719 0.955855 0
M  V30 7344 C 690.257 4.89263 2.15698 0
M  V30 7345 C 691.557 5.223 -0.00402136 0
M  V30 7346 H 693.251 2.98085 -0.280336 0
M  V30 7347 H 690.797 1.43354 -0.136265 0
M  V30 7348 H 692.75 3.67933 2.05435 0
M  V30 7349 H 691.474 2.44193 2.16881 0
M  V30 7350 H 690.133 3.64335 0.406929 0
M  V30 7351 H 689.781 4.15929 2.82864 0
M  V30 7352 H 689.481 5.59009 1.81059 0
M  V30 7353 H 691.005 5.45978 2.73387 0
M  V30 7354 H 692.419 5.71315 0.476607 0
M  V30 7355 H 690.816 5.99525 -0.26258 0
M  V30 7356 H 691.886 4.75638 -0.943236 0
M  V30 7357 N 693.229 0.160201 1.56784 0
M  V30 7358 C 694.475 -0.48831 1.96833 0
M  V30 7359 C 694.808 -1.63641 1.04571 0
M  V30 7360 O 694.083 -1.94289 0.0906481 0
M  V30 7361 C 694.366 -0.981908 3.46454 0
M  V30 7362 C 694.219 0.165607 4.49495 0
M  V30 7363 C 695.538 -1.85931 3.98896 0
M  V30 7364 H 692.657 -0.176027 0.71567 0
M  V30 7365 H 695.299 0.244093 1.88426 0
M  V30 7366 H 693.449 -1.60602 3.5375 0
M  V30 7367 H 695.121 0.802372 4.54268 0
M  V30 7368 H 693.364 0.822789 4.25926 0
M  V30 7369 H 694.035 -0.221699 5.51555 0
M  V30 7370 H 696.511 -1.33327 3.94161 0
M  V30 7371 H 695.387 -2.17373 5.04024 0
M  V30 7372 H 695.648 -2.80106 3.42042 0
M  V30 7373 N 694.707 -1.5719 -0.113559 0
M  V30 7374 C 695.617 -2.04041 -1.15777 0
M  V30 7375 C 696.633 -0.961812 -1.45001 0
M  V30 7376 O 697.809 -1.2737 -1.56009 0
M  V30 7377 C 694.874 -2.43994 -2.46308 0
M  V30 7378 C 693.935 -3.65962 -2.24433 0
M  V30 7379 C 693.168 -4.04 -3.4874 0
M  V30 7380 O 693.391 -3.42321 -4.56259 0
M  V30 7381 O 692.325 -4.97069 -3.3942 0
M  V30 7382 H 696.151 -2.93248 -0.789899 0
M  V30 7383 H 693.736 -1.45828 -0.324748 0
M  V30 7384 H 695.618 -2.70401 -3.23204 0
M  V30 7385 H 694.293 -1.57932 -2.82558 0
M  V30 7386 H 693.2 -3.44697 -1.45377 0
M  V30 7387 H 694.533 -4.52746 -1.93084 0
M  V30 7388 N 696.185 0.383891 -1.52853 0
M  V30 7389 C 697.132 1.46924 -1.77995 0
M  V30 7390 C 698.102 1.53958 -0.623396 0
M  V30 7391 O 699.287 1.70134 -0.863657 0
M  V30 7392 C 696.427 2.84093 -1.95921 0
M  V30 7393 C 695.54 2.86171 -3.23621 0
M  V30 7394 C 694.675 4.14799 -3.31836 0
M  V30 7395 C 693.714 4.10948 -4.53639 0
M  V30 7396 N 692.851 5.31192 -4.59107 0
M  V30 7397 H 697.691 1.24786 -2.70615 0
M  V30 7398 H 695.228 0.605265 -1.34071 0
M  V30 7399 H 697.186 3.63755 -2.04299 0
M  V30 7400 H 695.816 3.04671 -1.06656 0
M  V30 7401 H 694.868 1.9885 -3.24288 0
M  V30 7402 H 696.18 2.79194 -4.13343 0
M  V30 7403 H 695.334 5.02867 -3.39425 0
M  V30 7404 H 694.073 4.24505 -2.40097 0
M  V30 7405 H 693.078 3.21268 -4.46169 0
M  V30 7406 H 694.303 4.0286 -5.467 0
M  V30 7407 H 692.249 5.41518 -3.70262 0
M  V30 7408 H 692.166 5.26311 -5.42708 0
M  V30 7409 H 693.434 6.21143 -4.70958 0
M  V30 7410 N 697.663 1.43903 0.642637 0
M  V30 7411 C 698.91 1.46079 1.40239 0
M  V30 7412 C 699.238 0.0890335 1.94296 0
M  V30 7413 O 698.493 -0.907533 1.73385 0
M  V30 7414 C 698.792 2.45907 2.59354 0
M  V30 7415 C 698.458 3.91522 2.23654 0
M  V30 7416 C 697.12 4.31179 2.1363 0
M  V30 7417 C 699.472 4.83242 1.95261 0
M  V30 7418 C 696.8 5.60495 1.73384 0
M  V30 7419 C 699.152 6.12933 1.56511 0
M  V30 7420 C 697.816 6.51556 1.4502 0
M  V30 7421 H 697.086 0.534542 0.513172 0
M  V30 7422 H 699.733 1.77047 0.72984 0
M  V30 7423 H 698.038 2.08381 3.3179 0
M  V30 7424 H 699.735 2.44842 3.17574 0
M  V30 7425 H 696.325 3.60142 2.32369 0
M  V30 7426 H 700.509 4.53367 2.0192 0
M  V30 7427 H 695.765 5.89249 1.63082 0
M  V30 7428 H 699.939 6.83469 1.33576 0
M  V30 7429 H 697.566 7.51663 1.13606 0
M  V30 7430 N 699.141 -0.881989 1.30609 0
M  V30 7431 C 700.389 -1.63082 1.19368 0
M  V30 7432 C 700.71 -1.93376 -0.251147 0
M  V30 7433 O 699.98 -1.5723 -1.16857 0
M  V30 7434 H 698.56 -0.604542 0.438791 0
M  V30 7435 H 701.222 -1.05658 1.63776 0
M  V30 7436 H 700.318 -2.57966 1.7567 0
M  V30 7437 N 700.619 -1.13374 -1.09472 0
M  V30 7438 C 701.566 -0.810682 -2.16094 0
M  V30 7439 C 702.536 0.227003 -1.64541 0
M  V30 7440 O 703.721 0.0993538 -1.90541 0
M  V30 7441 C 700.861 -0.282336 -3.43943 0
M  V30 7442 C 699.974 -1.37902 -4.09398 0
M  V30 7443 C 699.109 -0.809066 -5.25002 0
M  V30 7444 C 698.148 -1.88419 -5.82379 0
M  V30 7445 N 697.285 -1.33221 -6.89345 0
M  V30 7446 H 702.125 -1.72397 -2.43071 0
M  V30 7447 H 699.662 -0.860564 -1.19301 0
M  V30 7448 H 701.62 0.0421189 -4.17179 0
M  V30 7449 H 700.25 0.594083 -3.17286 0
M  V30 7450 H 699.302 -1.82008 -3.34032 0
M  V30 7451 H 700.614 -2.19161 -4.48074 0
M  V30 7452 H 699.768 -0.435867 -6.05132 0
M  V30 7453 H 698.507 0.0346058 -4.87688 0
M  V30 7454 H 697.512 -2.26646 -5.00911 0
M  V30 7455 H 698.737 -2.73125 -6.21755 0
M  V30 7456 H 696.683 -0.510535 -6.5401 0
M  V30 7457 H 696.6 -2.08129 -7.26786 0
M  V30 7458 H 697.868 -0.986565 -7.73232 0
M  V30 7459 N 702.098 1.27442 -0.927168 0
M  V30 7460 C 703.008 2.30599 -0.431448 0
M  V30 7461 C 704.024 1.67028 0.48761 0
M  V30 7462 O 705.2 1.97962 0.370546 0
M  V30 7463 C 702.265 3.45327 0.308292 0
M  V30 7464 C 701.326 4.24418 -0.645615 0
M  V30 7465 C 700.559 5.33667 0.0589164 0
M  V30 7466 O 700.782 5.5589 1.27838 0
M  V30 7467 O 699.716 5.98774 -0.612638 0
M  V30 7468 H 703.542 2.75036 -1.28797 0
M  V30 7469 H 701.127 1.32382 -0.692495 0
M  V30 7470 H 703.009 4.15107 0.725555 0
M  V30 7471 H 701.684 3.02945 1.14043 0
M  V30 7472 H 700.591 3.57174 -1.11255 0
M  V30 7473 H 701.924 4.70512 -1.44496 0
M  V30 7474 N 703.576 0.692616 1.41565 0
M  V30 7475 C 704.822 0.231408 2.02079 0
M  V30 7476 C 705.177 -1.15514 1.53864 0
M  V30 7477 O 704.47 -1.76786 0.73873 0
M  V30 7478 C 704.664 0.225073 3.56691 0
M  V30 7479 C 704.493 1.60947 4.19912 0
M  V30 7480 C 703.263 2.2116 4.54331 0
M  V30 7481 C 705.461 2.55553 4.46315 0
M  V30 7482 N 703.443 3.52195 5.02824 0
M  V30 7483 C 704.814 3.71263 4.96552 0
M  V30 7484 C 706.869 2.53857 4.28323 0
M  V30 7485 C 705.572 4.85555 5.30687 0
M  V30 7486 C 707.598 3.67259 4.63546 0
M  V30 7487 C 706.96 4.81699 5.13951 0
M  V30 7488 H 703.059 0.130001 0.771119 0
M  V30 7489 H 705.643 0.909459 1.72154 0
M  V30 7490 H 703.814 -0.422453 3.86096 0
M  V30 7491 H 705.546 -0.250685 4.03923 0
M  V30 7492 H 702.301 1.73474 4.40685 0
M  V30 7493 H 702.725 4.19354 5.3148 0
M  V30 7494 H 707.367 1.66598 3.88594 0
M  V30 7495 H 705.085 5.73477 5.69341 0
M  V30 7496 H 708.671 3.67195 4.51286 0
M  V30 7497 H 707.551 5.67995 5.40695 0
M  V30 7498 N 705.054 -1.51416 0.437162 0
M  V30 7499 C 706.017 -2.26312 -0.362729 0
M  V30 7500 C 707.017 -1.29748 -0.949847 0
M  V30 7501 O 708.207 -1.53462 -0.824325 0
M  V30 7502 C 705.339 -3.05475 -1.5132 0
M  V30 7503 H 706.532 -2.98459 0.29365 0
M  V30 7504 H 704.085 -1.55137 0.190327 0
M  V30 7505 H 704.82 -2.37744 -2.20563 0
M  V30 7506 H 704.605 -3.76401 -1.09838 0
M  V30 7507 H 706.095 -3.62209 -2.07833 0
M  V30 7508 N 706.532 -0.168513 -1.56696 0
M  V30 7509 C 707.482 0.7751 -2.14421 0
M  V30 7510 C 708.466 1.19476 -1.07769 0
M  V30 7511 O 709.658 1.15759 -1.33898 0
M  V30 7512 C 706.787 2.00549 -2.7863 0
M  V30 7513 C 705.873 1.60795 -3.92436 0
M  V30 7514 N 706.264 0.919812 -4.97366 0
M  V30 7515 C 704.562 1.89917 -4.03544 0
M  V30 7516 C 705.263 0.724485 -5.77171 0
M  V30 7517 N 704.239 1.26505 -5.28675 0
M  V30 7518 H 708.041 0.240349 -2.92916 0
M  V30 7519 H 705.555 0.0322675 -1.62368 0
M  V30 7520 H 707.552 2.6917 -3.1836 0
M  V30 7521 H 706.212 2.54522 -2.01615 0
M  V30 7522 H 707.223 0.578169 -5.14663 0
M  V30 7523 H 703.9 2.45587 -3.37629 0
M  V30 7524 H 705.29 0.180521 -6.71657 0
M  V30 7525 N 708.01 1.57248 0.105221 0
M  V30 7526 C 708.973 2.00388 1.11252 0
M  V30 7527 C 709.973 0.89594 1.33527 0
M  V30 7528 O 711.163 1.16166 1.29811 0
M  V30 7529 C 708.295 2.35589 2.46395 0
M  V30 7530 H 709.488 2.90591 0.741424 0
M  V30 7531 H 707.041 1.52332 0.349956 0
M  V30 7532 H 707.776 1.4831 2.884 0
M  V30 7533 H 707.561 3.16408 2.31578 0
M  V30 7534 H 709.051 2.69658 3.18864 0
M  V30 7535 N 709.488 -0.375779 1.53054 0
M  V30 7536 C 710.716 -1.14036 1.72637 0
M  V30 7537 C 711.131 -1.83342 0.450687 0
M  V30 7538 O 710.488 -1.7318 -0.575749 0
M  V30 7539 C 710.539 -2.17841 2.88492 0
M  V30 7540 O 710.26 -1.51358 4.11123 0
M  V30 7541 C 711.761 -3.06924 3.19863 0
M  V30 7542 H 708.981 -0.341386 0.577665 0
M  V30 7543 H 711.525 -0.437809 1.99759 0
M  V30 7544 H 709.68 -2.8371 2.63794 0
M  V30 7545 H 710.094 -2.20439 4.75928 0
M  V30 7546 H 711.568 -3.75763 4.04359 0
M  V30 7547 H 712.045 -3.71169 2.34798 0
M  V30 7548 H 712.651 -2.46684 3.46449 0
M  V30 7549 N 710.966 -1.44241 -0.634997 0
M  V30 7550 C 712.215 -1.46102 -1.39058 0
M  V30 7551 C 712.528 -0.0959909 -1.95364 0
M  V30 7552 O 713.734 0.00788751 -2.71499 0
M  V30 7553 C 712.19 -2.57195 -2.51751 0
M  V30 7554 C 711.798 -3.99888 -2.01974 0
M  V30 7555 C 713.542 -2.68272 -3.28984 0
M  V30 7556 C 711.449 -5.02412 -3.11987 0
M  V30 7557 H 710.379 -0.543556 -0.522554 0
M  V30 7558 H 713.03 -1.70294 -0.683538 0
M  V30 7559 H 711.412 -2.26237 -3.25012 0
M  V30 7560 H 712.586 -4.40396 -1.35604 0
M  V30 7561 H 710.901 -3.93019 -1.37568 0
M  V30 7562 H 713.498 -3.42042 -4.10988 0
M  V30 7563 H 713.841 -1.73957 -3.78212 0
M  V30 7564 H 714.374 -2.98622 -2.62812 0
M  V30 7565 H 711.113 -5.98342 -2.67707 0
M  V30 7566 H 710.633 -4.66501 -3.77011 0
M  V30 7567 H 712.312 -5.25939 -3.76825 0
M  V30 7568 N 712.444 0.87505 -1.31075 0
M  V30 7569 C 713.693 1.62245 -1.19831 0
M  V30 7570 C 714.006 1.94078 0.24357 0
M  V30 7571 O 715.212 2.67265 0.477646 0
M  V30 7572 C 713.668 2.92464 -2.09744 0
M  V30 7573 C 713.276 2.68134 -3.58898 0
M  V30 7574 C 715.02 3.70449 -2.07287 0
M  V30 7575 C 712.927 3.9423 -4.40836 0
M  V30 7576 H 711.857 0.608741 -0.444916 0
M  V30 7577 H 714.508 0.967947 -1.55894 0
M  V30 7578 H 712.89 3.59262 -1.66574 0
M  V30 7579 H 714.064 2.09776 -4.10281 0
M  V30 7580 H 712.379 2.03511 -3.6328 0
M  V30 7581 H 714.976 4.63983 -2.65752 0
M  V30 7582 H 715.319 4.02611 -1.05876 0
M  V30 7583 H 715.852 3.10528 -2.48631 0
M  V30 7584 H 712.591 3.67221 -5.42982 0
M  V30 7585 H 712.111 4.52058 -3.94213 0
M  V30 7586 H 713.79 4.62162 -4.52786 0
M  V30 7587 N 713.922 1.13953 1.08869 0
M  V30 7588 C 715.333 0.916649 1.62648 0
M  V30 7589 C 715.684 -0.545589 1.88462 0
M  V30 7590 O 714.809 -1.41351 1.63856 0
M  V30 7591 C 715.404 1.65751 2.95486 0
M  V30 7592 C 713.963 1.48034 3.46068 0
M  V30 7593 C 713.11 1.68305 2.20383 0
M  V30 7594 H 716.061 1.292 0.921572 0
M  V30 7595 H 716.082 1.11794 3.63707 0
M  V30 7596 H 715.594 2.72171 2.76667 0
M  V30 7597 H 713.695 0.439416 3.7 0
M  V30 7598 H 713.808 2.24719 4.23129 0
M  V30 7599 H 712.172 1.10833 2.29321 0
M  V30 7600 H 712.955 2.76057 2.04077 0
M  V30 7601 N 715.4 -1.26948 0.933913 0
M  V30 7602 C 716.347 -2.26635 0.436484 0
M  V30 7603 C 717.317 -1.58397 -0.499953 0
M  V30 7604 O 718.502 -1.86171 -0.417753 0
M  V30 7605 C 715.642 -3.43803 -0.298951 0
M  V30 7606 C 714.755 -4.26736 0.672316 0
M  V30 7607 C 713.89 -5.31134 -0.0835872 0
M  V30 7608 C 712.929 -6.05742 0.879979 0
M  V30 7609 N 712.066 -7.01926 0.156301 0
M  V30 7610 H 716.906 -2.68558 1.29154 0
M  V30 7611 H 714.443 -1.32052 0.648118 0
M  V30 7612 H 716.401 -4.10554 -0.741723 0
M  V30 7613 H 715.031 -3.02814 -1.1182 0
M  V30 7614 H 714.083 -3.59842 1.23361 0
M  V30 7615 H 715.395 -4.78502 1.40846 0
M  V30 7616 H 714.549 -6.03863 -0.585984 0
M  V30 7617 H 713.288 -4.80188 -0.852661 0
M  V30 7618 H 712.293 -5.31846 1.39357 0
M  V30 7619 H 713.518 -6.58777 1.64894 0
M  V30 7620 H 711.464 -6.53301 -0.594413 0
M  V30 7621 H 711.381 -7.51409 0.831906 0
M  V30 7622 H 712.649 -7.78821 -0.325239 0
M  V30 7623 N 716.879 -0.700114 -1.41195 0
M  V30 7624 C 718.125 -0.233351 -2.01453 0
M  V30 7625 C 718.458 1.16548 -1.55339 0
M  V30 7626 O 717.733 1.78756 -0.766575 0
M  V30 7627 C 718.016 -0.2961 -3.58881 0
M  V30 7628 C 717.869 -1.7322 -4.15108 0
M  V30 7629 C 719.188 0.341525 -4.38773 0
M  V30 7630 H 716.307 -0.0862667 -0.731934 0
M  V30 7631 H 718.949 -0.889693 -1.67882 0
M  V30 7632 H 717.099 0.262736 -3.87611 0
M  V30 7633 H 718.771 -2.34523 -3.97236 0
M  V30 7634 H 717.014 -2.2649 -3.69979 0
M  V30 7635 H 717.685 -1.7276 -5.24269 0
M  V30 7636 H 720.161 -0.134461 -4.15883 0
M  V30 7637 H 719.037 0.267098 -5.4825 0
M  V30 7638 H 719.298 1.42289 -4.18577 0
M  V30 7639 N 718.357 1.51182 -0.445186 0
M  V30 7640 C 719.287 2.30821 0.352686 0
M  V30 7641 C 720.268 1.36576 1.01395 0
M  V30 7642 O 721.453 1.65497 1.01609 0
M  V30 7643 C 718.583 3.15593 1.44976 0
M  V30 7644 C 717.537 4.1818 0.911553 0
M  V30 7645 C 716.863 4.91523 2.10497 0
M  V30 7646 C 718.163 5.22266 -0.059418 0
M  V30 7647 H 719.857 2.97771 -0.311936 0
M  V30 7648 H 717.403 1.43201 -0.151461 0
M  V30 7649 H 719.356 3.70091 2.01521 0
M  V30 7650 H 718.08 2.4648 2.14278 0
M  V30 7651 H 716.739 3.64746 0.368264 0
M  V30 7652 H 716.387 4.18906 2.78437 0
M  V30 7653 H 716.087 5.60898 1.7512 0
M  V30 7654 H 717.611 5.48847 2.6758 0
M  V30 7655 H 719.025 5.71789 0.415985 0
M  V30 7656 H 717.422 5.99213 -0.326152 0
M  V30 7657 H 718.492 4.7461 -0.993631 0
M  V30 7658 N 719.835 0.176821 1.56605 0
M  V30 7659 C 720.798 -0.737429 2.17013 0
M  V30 7660 C 721.798 -1.15414 1.11965 0
M  V30 7661 O 722.988 -1.0702 1.37449 0
M  V30 7662 C 720.12 -2.00445 2.75744 0
M  V30 7663 H 721.313 -0.211455 2.99154 0
M  V30 7664 H 718.866 -0.0727582 1.56131 0
M  V30 7665 H 719.601 -2.57338 1.97352 0
M  V30 7666 H 719.386 -1.71456 3.52626 0
M  V30 7667 H 720.876 -2.65679 3.22187 0
M  V30 7668 N 721.313 -1.57302 -0.09688 0
M  V30 7669 C 722.246 -1.97179 -1.14872 0
M  V30 7670 C 723.224 -0.844734 -1.38935 0
M  V30 7671 O 724.408 -1.10487 -1.52725 0
M  V30 7672 C 721.535 -2.28703 -2.49826 0
M  V30 7673 C 720.581 -3.51158 -2.42054 0
M  V30 7674 S 721.414 -5.0294 -1.83879 0
M  V30 7675 C 722.57 -5.37639 -3.2046 0
M  V30 7676 H 722.803 -2.86088 -0.808771 0
M  V30 7677 H 720.336 -1.51368 -0.304492 0
M  V30 7678 H 722.294 -2.47541 -3.27466 0
M  V30 7679 H 720.955 -1.40368 -2.8099 0
M  V30 7680 H 720.148 -3.70651 -3.41517 0
M  V30 7681 H 719.75 -3.31821 -1.72543 0
M  V30 7682 H 722.042 -5.34175 -4.16729 0
M  V30 7683 H 722.985 -6.38677 -3.05773 0
M  V30 7684 H 723.393 -4.651 -3.19909 0
M  V30 7685 N 722.791 0.367657 -1.53252 0
M  V30 7686 C 724.016 1.13566 -1.73544 0
M  V30 7687 C 724.441 1.82329 -0.462344 0
M  V30 7688 O 723.799 1.71655 0.583472 0
M  V30 7689 C 723.847 2.14322 -2.89997 0
M  V30 7690 O 722.951 3.21359 -2.58461 0
M  V30 7691 H 722.292 0.329614 -0.576412 0
M  V30 7692 H 724.822 0.425417 -2.00128 0
M  V30 7693 H 724.832 2.57958 -3.16104 0
M  V30 7694 H 723.507 1.63664 -3.82344 0
M  V30 7695 H 722.084 2.8271 -2.43165 0
M  V30 7696 N 724.269 1.44576 0.627338 0
M  V30 7697 C 725.517 1.47267 1.38408 0
M  V30 7698 C 725.838 0.107971 1.94701 0
M  V30 7699 O 725.108 -0.860206 1.76004 0
M  V30 7700 H 723.688 0.542276 0.513756 0
M  V30 7701 H 726.35 1.80383 0.738099 0
M  V30 7702 H 725.446 2.20025 2.21349 0
M  V30 7703 N 725.747 -0.868086 1.31537 0
M  V30 7704 C 727.024 -1.60384 1.11965 0
M  V30 7705 C 727.404 -2.08584 -0.324949 0
M  V30 7706 O 726.752 -1.86561 -1.31937 0
M  V30 7707 C 726.962 -2.76038 2.13551 0
M  V30 7708 C 728.31 -3.45954 2.46173 0
M  V30 7709 O 729.334 -2.86247 2.11993 0
M  V30 7710 O 728.193 -4.53666 3.04711 0
M  V30 7711 H 725.287 -0.705705 0.431172 0
M  V30 7712 H 727.833 -0.913385 1.43022 0
M  V30 7713 H 726.605 -2.37849 3.10714 0
M  V30 7714 H 726.228 -3.52769 1.83411 0
M  V30 7715 N 727.225 -1.14528 -1.08264 0
M  V30 7716 C 728.636 -0.925261 -1.6216 0
M  V30 7717 C 728.987 0.535587 -1.88748 0
M  V30 7718 O 728.112 1.4048 -1.64604 0
M  V30 7719 C 728.707 -1.67316 -2.94603 0
M  V30 7720 C 727.266 -1.49868 -3.45278 0
M  V30 7721 C 726.413 -1.69471 -2.19487 0
M  V30 7722 H 729.364 -1.29687 -0.914707 0
M  V30 7723 H 729.385 -1.13721 -3.63109 0
M  V30 7724 H 728.897 -2.73635 -2.75219 0
M  V30 7725 H 726.998 -0.459032 -3.69762 0
M  V30 7726 H 727.111 -2.2696 -4.21931 0
M  V30 7727 H 725.475 -1.12048 -2.2873 0
M  V30 7728 H 726.258 -2.77136 -2.0261 0
M  V30 7729 N 728.703 1.26451 -0.940633 0
M  V30 7730 C 729.651 2.28389 -0.440581 0
M  V30 7731 C 730.645 1.62402 0.481859 0
M  V30 7732 O 731.851 1.76361 0.360132 0
M  V30 7733 H 728.226 0.741716 -0.123938 0
M  V30 7734 H 730.197 2.67967 -1.31288 0
M  V30 7735 C 728.946 3.46576 0.279364 0
M  V30 7736 H 728.269 3.97574 -0.421274 0
M  V30 7737 H 729.709 4.19826 0.59348 0
M  V30 7738 C 728.168 3.01815 1.49697 0
M  V30 7739 O 728.698 3.06607 2.59529 0
M  V30 7740 N 726.904 2.57163 1.35334 0
M  V30 7741 H 726.451 2.53464 0.459743 0
M  V30 7742 H 726.409 2.27578 2.16923 0
M  V30 7743 N 730.181 0.707592 1.40822 0
M  V30 7744 C 731.411 0.252706 2.05049 0
M  V30 7745 C 731.819 -1.10758 1.53393 0
M  V30 7746 O 731.162 -1.70567 0.682097 0
M  V30 7747 C 731.224 0.146001 3.59203 0
M  V30 7748 C 730.888 1.44027 4.33711 0
M  V30 7749 C 731.885 2.38058 4.62195 0
M  V30 7750 C 729.57 1.69698 4.72766 0
M  V30 7751 C 731.564 3.56013 5.28709 0
M  V30 7752 C 729.251 2.87936 5.39014 0
M  V30 7753 C 730.249 3.80915 5.66915 0
M  V30 7754 O 729.937 4.9708 6.31796 0
M  V30 7755 H 729.669 0.112784 0.666525 0
M  V30 7756 H 732.223 0.96417 1.81364 0
M  V30 7757 H 730.453 -0.621338 3.81676 0
M  V30 7758 H 732.142 -0.273275 4.04979 0
M  V30 7759 H 732.908 2.19487 4.32493 0
M  V30 7760 H 728.787 0.981835 4.50423 0
M  V30 7761 H 732.331 4.28604 5.50404 0
M  V30 7762 H 728.228 3.06419 5.68135 0
M  V30 7763 H 728.996 4.97053 6.50293 0
M  V30 7764 N 731.66 -1.50943 0.453197 0
M  V30 7765 C 732.59 -2.31005 -0.34044 0
M  V30 7766 C 733.571 -1.37112 -1.00669 0
M  V30 7767 O 734.756 -1.66033 -1.0073 0
M  V30 7768 C 731.886 -3.16358 -1.433 0
M  V30 7769 C 730.84 -4.18658 -0.889363 0
M  V30 7770 C 730.166 -4.92633 -2.07887 0
M  V30 7771 C 731.466 -5.22227 0.0871142 0
M  V30 7772 H 733.16 -2.97601 0.327723 0
M  V30 7773 H 730.706 -1.43119 0.159054 0
M  V30 7774 H 732.659 -3.71155 -1.99555 0
M  V30 7775 H 731.383 -2.47613 -2.12968 0
M  V30 7776 H 730.042 -3.64936 -0.348915 0
M  V30 7777 H 729.69 -4.20376 -2.76211 0
M  V30 7778 H 729.39 -5.61819 -1.72143 0
M  V30 7779 H 730.914 -5.50258 -2.64666 0
M  V30 7780 H 732.328 -5.72001 -0.385656 0
M  V30 7781 H 730.725 -5.99032 0.357926 0
M  V30 7782 H 731.795 -4.74077 1.01879 0
M  V30 7783 N 733.138 -0.185124 -1.56509 0
M  V30 7784 C 734.088 0.752315 -2.15231 0
M  V30 7785 C 735.072 1.18327 -1.0903 0
M  V30 7786 O 736.264 1.14333 -1.35119 0
M  V30 7787 C 733.393 1.97583 -2.80742 0
M  V30 7788 C 732.479 1.56623 -3.94119 0
M  V30 7789 N 732.87 0.867008 -4.98314 0
M  V30 7790 C 731.168 1.85626 -4.05535 0
M  V30 7791 C 731.869 0.663228 -5.77907 0
M  V30 7792 N 730.845 1.20891 -5.29987 0
M  V30 7793 H 734.647 0.209267 -2.93154 0
M  V30 7794 H 732.161 0.0150444 -1.62393 0
M  V30 7795 H 734.158 2.65779 -3.21197 0
M  V30 7796 H 732.818 2.52369 -2.04303 0
M  V30 7797 H 733.829 0.52355 -5.15247 0
M  V30 7798 H 730.506 2.41992 -3.40215 0
M  V30 7799 H 731.896 0.109273 -6.71811 0
M  V30 7800 N 734.616 1.57351 0.0885366 0
M  V30 7801 C 736.032 1.53331 0.442916 0
M  V30 7802 C 736.232 0.902831 1.80142 0
M  V30 7803 O 735.288 0.498147 2.47537 0
M  V30 7804 C 736.601 2.98036 0.399372 0
M  V30 7805 C 738.149 3.09286 0.480759 0
M  V30 7806 C 738.624 4.5561 0.467296 0
M  V30 7807 N 740.115 4.60182 0.52786 0
M  V30 7808 C 740.85 5.70857 0.539388 0
M  V30 7809 N 740.346 6.90944 0.506729 0
M  V30 7810 N 742.139 5.59051 0.584691 0
M  V30 7811 H 734.29 1.96709 -0.801215 0
M  V30 7812 H 736.553 0.899639 -0.298922 0
M  V30 7813 H 736.259 3.47656 -0.531806 0
M  V30 7814 H 736.133 3.57066 1.21589 0
M  V30 7815 H 738.52 2.5965 1.40236 0
M  V30 7816 H 738.601 2.53197 -0.364023 0
M  V30 7817 H 738.245 5.05899 -0.450384 0
M  V30 7818 H 738.175 5.09544 1.32938 0
M  V30 7819 H 740.666 3.73757 0.558028 0
M  V30 7820 H 740.979 7.71055 0.518989 0
M  V30 7821 H 739.324 6.93384 0.473675 0
M  V30 7822 H 742.515 4.64138 0.607781 0
M  V30 7823 H 742.688 6.45307 0.590206 0
M  V30 7824 N 736.094 -0.359525 1.53444 0
M  V30 7825 C 737.027 -1.46338 1.75101 0
M  V30 7826 C 738.005 -1.51142 0.599559 0
M  V30 7827 O 739.189 -1.69102 0.832862 0
M  V30 7828 C 736.316 -2.84667 1.83527 0
M  V30 7829 C 735.362 -2.9756 3.05549 0
M  V30 7830 S 736.195 -2.65685 4.64943 0
M  V30 7831 C 737.351 -4.06153 4.76225 0
M  V30 7832 H 737.584 -1.27747 2.68455 0
M  V30 7833 H 735.117 -0.554231 1.4411 0
M  V30 7834 H 737.075 -3.64368 1.89067 0
M  V30 7835 H 735.736 -3.00564 0.912147 0
M  V30 7836 H 734.929 -3.98883 3.08072 0
M  V30 7837 H 734.531 -2.25789 2.98153 0
M  V30 7838 H 736.823 -5.00475 4.56652 0
M  V30 7839 H 737.766 -4.08632 5.78295 0
M  V30 7840 H 738.174 -3.93435 4.04808 0
M  V30 7841 N 737.572 -1.44907 -0.619662 0
M  V30 7842 C 738.8 -1.51795 -1.40591 0
M  V30 7843 C 739.215 -0.146553 -1.8823 0
M  V30 7844 O 738.572 0.849698 -1.61513 0
M  V30 7845 C 738.623 -2.49229 -2.61853 0
M  V30 7846 O 738.344 -3.81039 -2.16197 0
M  V30 7847 C 739.845 -2.65696 -3.54853 0
M  V30 7848 H 737.065 -0.514463 -0.430777 0
M  V30 7849 H 739.609 -1.8998 -0.756813 0
M  V30 7850 H 737.764 -2.14149 -3.2283 0
M  V30 7851 H 738.178 -4.33747 -2.94896 0
M  V30 7852 H 739.652 -3.37874 -4.36515 0
M  V30 7853 H 740.129 -1.71316 -4.0441 0
M  V30 7854 H 740.735 -3.01724 -2.99737 0
M  V30 7855 N 739.05 0.861098 -1.31996 0
M  V30 7856 C 740.278 1.6474 -1.25173 0
M  V30 7857 C 740.693 1.87926 0.181425 0
M  V30 7858 O 740.05 1.4437 1.1164 0
M  V30 7859 C 740.101 3.01036 -2.0015 0
M  V30 7860 O 739.822 2.7888 -3.37872 0
M  V30 7861 C 741.323 3.95481 -2.00273 0
M  V30 7862 H 738.543 0.513314 -0.432146 0
M  V30 7863 H 741.087 1.07419 -1.74016 0
M  V30 7864 H 739.242 3.55021 -1.55046 0
M  V30 7865 H 739.656 3.65514 -3.76165 0
M  V30 7866 H 741.13 4.88403 -2.57229 0
M  V30 7867 H 741.607 4.27957 -0.987407 0
M  V30 7868 H 742.213 3.47433 -2.45296 0
M  V30 7869 N 740.528 1.15101 1.07655 0
M  V30 7870 C 741.458 0.867864 2.16773 0
M  V30 7871 C 742.439 -0.180283 1.69142 0
M  V30 7872 O 743.624 -0.0353152 1.94168 0
M  V30 7873 C 740.754 0.35299 3.45501 0
M  V30 7874 C 739.708 1.33746 4.06566 0
M  V30 7875 C 739.034 0.681562 5.30338 0
M  V30 7876 C 740.334 2.7024 4.46954 0
M  V30 7877 H 742.028 1.78034 2.40716 0
M  V30 7878 H 739.574 0.857435 1.15689 0
M  V30 7879 H 741.527 0.142465 4.21159 0
M  V30 7880 H 740.251 -0.594945 3.21135 0
M  V30 7881 H 738.91 1.53429 3.32949 0
M  V30 7882 H 738.558 -0.272422 5.02262 0
M  V30 7883 H 738.258 1.33853 5.72151 0
M  V30 7884 H 739.782 0.48074 6.08705 0
M  V30 7885 H 741.196 2.5442 5.13754 0
M  V30 7886 H 739.593 3.32282 4.99709 0
M  V30 7887 H 740.663 3.26537 3.58471 0
M  V30 7888 N 742.006 -1.2595 0.947325 0
M  V30 7889 C 743.253 -1.93463 0.598178 0
M  V30 7890 C 743.581 -1.74271 -0.863705 0
M  V30 7891 O 742.836 -1.07684 -1.63409 0
M  V30 7892 C 743.135 -3.46034 0.894158 0
M  V30 7893 C 742.801 -3.85373 2.3409 0
M  V30 7894 C 741.463 -3.95823 2.73637 0
M  V30 7895 C 743.815 -4.04986 3.2808 0
M  V30 7896 C 741.143 -4.23288 4.06257 0
M  V30 7897 C 743.495 -4.3394 4.60303 0
M  V30 7898 C 742.159 -4.42606 4.99656 0
M  V30 7899 H 741.429 -0.707933 0.218889 0
M  V30 7900 H 744.076 -1.4964 1.19499 0
M  V30 7901 H 742.381 -3.9121 0.214874 0
M  V30 7902 H 744.078 -3.96445 0.602698 0
M  V30 7903 H 740.668 -3.7779 2.02417 0
M  V30 7904 H 744.852 -3.96333 2.9872 0
M  V30 7905 H 740.108 -4.28211 4.36401 0
M  V30 7906 H 744.282 -4.48061 5.33118 0
M  V30 7907 H 741.909 -4.63641 6.02446 0
M  V30 7908 N 743.484 -0.715051 -1.40445 0
M  V30 7909 C 744.724 -0.258742 -2.02756 0
M  V30 7910 C 745.088 1.12661 -1.55472 0
M  V30 7911 O 746.289 1.67988 -2.09842 0
M  V30 7912 C 744.56 -0.335201 -3.55825 0
M  V30 7913 S 746.119 0.044201 -4.38778 0
M  V30 7914 H 742.937 -0.102683 -0.703546 0
M  V30 7915 H 745.539 -0.937151 -1.71574 0
M  V30 7916 H 744.243 -1.34511 -3.87731 0
M  V30 7917 H 743.774 0.361705 -3.91734 0
M  V30 7918 H 745.789 1.26639 -4.79768 0
M  V30 7919 N 744.962 1.50701 -0.461195 0
M  V30 7920 C 746.211 2.01458 0.0988277 0
M  V30 7921 C 746.524 1.34863 1.41673 0
M  V30 7922 O 747.73 1.76721 2.06111 0
M  V30 7923 C 746.186 3.59186 0.226648 0
M  V30 7924 C 745.794 4.34732 -1.08223 0
M  V30 7925 C 747.538 4.18015 0.73916 0
M  V30 7926 C 745.445 5.8422 -0.918747 0
M  V30 7927 H 744.375 0.7529 0.040709 0
M  V30 7928 H 747.026 1.736 -0.594589 0
M  V30 7929 H 745.408 3.83589 0.983621 0
M  V30 7930 H 746.582 4.22059 -1.84939 0
M  V30 7931 H 744.897 3.87466 -1.52509 0
M  V30 7932 H 747.494 5.27436 0.878347 0
M  V30 7933 H 747.837 3.78746 1.72793 0
M  V30 7934 H 748.37 3.9778 0.0398469 0
M  V30 7935 H 745.109 6.27944 -1.88059 0
M  V30 7936 H 744.629 5.99493 -0.191801 0
M  V30 7937 H 746.308 6.44382 -0.581405 0
M  V30 7938 N 746.441 0.193421 1.56409 0
M  V30 7939 C 747.389 -0.744829 2.20352 0
M  V30 7940 C 748.383 -1.22104 1.17418 0
M  V30 7941 O 749.589 -1.18413 1.35567 0
M  V30 7942 H 745.964 -0.258538 0.70616 0
M  V30 7943 H 747.935 -0.181794 2.97846 0
M  V30 7944 C 746.684 -1.95453 2.87565 0
M  V30 7945 H 746.007 -1.59716 3.66512 0
M  V30 7946 H 747.447 -2.58942 3.35745 0
M  V30 7947 C 745.906 -2.79223 1.8851 0
M  V30 7948 O 746.436 -3.77093 1.38434 0
M  V30 7949 N 744.642 -2.44682 1.56777 0
M  V30 7950 H 744.189 -1.65153 1.97692 0
M  V30 7951 H 744.147 -3.01016 0.907573 0
M  V30 7952 N 747.919 -1.57396 -0.0801906 0
M  V30 7953 C 749.165 -1.87113 -0.782083 0
M  V30 7954 C 749.498 -0.78458 -1.77646 0
M  V30 7955 O 748.773 0.205993 -1.93406 0
M  V30 7956 C 749.056 -3.27483 -1.49756 0
M  V30 7957 C 748.909 -4.46782 -0.520171 0
M  V30 7958 C 750.228 -3.65965 -2.44454 0
M  V30 7959 H 747.347 -0.680559 -0.282858 0
M  V30 7960 H 749.989 -1.89946 -0.0454139 0
M  V30 7961 H 748.139 -3.25199 -2.12551 0
M  V30 7962 H 749.811 -4.61187 0.101919 0
M  V30 7963 H 748.054 -4.33485 0.165219 0
M  V30 7964 H 748.725 -5.41761 -1.05824 0
M  V30 7965 H 751.201 -3.69289 -1.91742 0
M  V30 7966 H 750.077 -4.65086 -2.91524 0
M  V30 7967 H 750.338 -2.95446 -3.28883 0
M  V30 7968 N 749.397 0.351382 -1.53633 0
M  V30 7969 C 750.327 1.43688 -1.84055 0
M  V30 7970 C 751.308 1.55251 -0.695073 0
M  V30 7971 O 752.493 1.69587 -0.946257 0
M  V30 7972 C 749.623 2.80843 -2.04315 0
M  V30 7973 C 748.577 2.84094 -3.20117 0
M  V30 7974 C 747.903 4.2406 -3.25696 0
M  V30 7975 C 749.203 2.50334 -4.58399 0
M  V30 7976 H 750.897 1.18478 -2.74961 0
M  V30 7977 H 748.443 0.568509 -1.32303 0
M  V30 7978 H 750.396 3.56821 -2.2418 0
M  V30 7979 H 749.12 3.07471 -1.10132 0
M  V30 7980 H 747.779 2.10568 -3.00094 0
M  V30 7981 H 747.427 4.47785 -2.29123 0
M  V30 7982 H 747.127 4.27147 -4.03509 0
M  V30 7983 H 748.651 5.0189 -3.47762 0
M  V30 7984 H 750.065 3.16025 -4.78332 0
M  V30 7985 H 748.462 2.64717 -5.38558 0
M  V30 7986 H 749.532 1.45542 -4.62543 0
M  V30 7987 N 750.875 1.45233 0.611969 0
M  V30 7988 C 752.1 1.52767 1.40274 0
M  V30 7989 C 752.525 0.159701 1.87421 0
M  V30 7990 O 751.883 -0.854837 1.59882 0
M  V30 7991 C 751.931 2.51286 2.58626 0
M  V30 7992 O 751.035 2.02764 3.59111 0
M  V30 7993 H 750.376 0.515141 0.418958 0
M  V30 7994 H 752.906 1.90547 0.745188 0
M  V30 7995 H 752.916 2.69949 3.05927 0
M  V30 7996 H 751.591 3.50641 2.23659 0
M  V30 7997 H 750.168 1.93957 3.18489 0
M  V30 7998 N 752.353 -0.854086 1.3245 0
M  V30 7999 C 753.263 -1.99503 1.23434 0
M  V30 8000 C 754.279 -1.73371 0.147828 0
M  V30 8001 O 755.455 -1.97998 0.368609 0
M  V30 8002 C 752.52 -3.33192 0.958328 0
M  V30 8003 C 751.581 -3.72542 2.13333 0
M  V30 8004 C 750.814 -4.99852 1.8704 0
M  V30 8005 O 751.037 -5.64573 0.813239 0
M  V30 8006 O 749.971 -5.36345 2.73161 0
M  V30 8007 H 753.797 -2.10046 2.1935 0
M  V30 8008 H 751.382 -0.984823 1.12346 0
M  V30 8009 H 753.264 -4.13327 0.820918 0
M  V30 8010 H 751.939 -3.23687 0.0293299 0
M  V30 8011 H 750.846 -2.92981 2.32622 0
M  V30 8012 H 752.179 -3.86694 3.04514 0
M  V30 8013 N 753.831 -1.1567 -1.07043 0
M  V30 8014 C 755.077 -0.9349 -1.79965 0
M  V30 8015 C 755.41 0.536464 -1.86643 0
M  V30 8016 O 754.685 1.39781 -1.35247 0
M  V30 8017 C 754.968 -1.55371 -3.24857 0
M  V30 8018 C 754.821 -3.09589 -3.26305 0
M  V30 8019 C 756.14 -1.24209 -4.22209 0
M  V30 8020 H 753.259 -0.341061 -0.653335 0
M  V30 8021 H 755.901 -1.42883 -1.25237 0
M  V30 8022 H 754.051 -1.13368 -3.71591 0
M  V30 8023 H 755.723 -3.60521 -2.87789 0
M  V30 8024 H 753.966 -3.43315 -2.65174 0
M  V30 8025 H 754.637 -3.48002 -4.28484 0
M  V30 8026 H 757.113 -1.60548 -3.8388 0
M  V30 8027 H 755.989 -1.70119 -5.21872 0
M  V30 8028 H 756.25 -0.15964 -4.41812 0
M  V30 8029 N 755.309 1.25446 -0.953992 0
M  V30 8030 C 756.549 1.94894 -0.616087 0
M  V30 8031 C 756.913 1.73067 0.831374 0
M  V30 8032 O 758.114 2.3643 1.27884 0
M  V30 8033 C 756.385 3.44147 -0.964225 0
M  V30 8034 S 757.944 4.32536 -0.738798 0
M  V30 8035 H 754.762 0.673967 -0.226472 0
M  V30 8036 H 757.364 1.52117 -1.22803 0
M  V30 8037 H 756.068 3.57537 -2.01484 0
M  V30 8038 H 755.599 3.91906 -0.342507 0
M  V30 8039 H 757.614 4.94659 0.390732 0
M  V30 8040 N 756.787 0.722489 1.40064 0
M  V30 8041 C 758.035 0.264455 2.00362 0
M  V30 8042 C 758.356 -1.14847 1.57592 0
M  V30 8043 O 757.626 -1.77982 0.818477 0
M  V30 8044 H 756.206 0.0947846 0.740962 0
M  V30 8045 H 758.868 0.929659 1.71299 0
M  V30 8046 H 757.964 0.302977 3.10626 0
M  V30 8047 N 758.265 -1.50454 0.469181 0
M  V30 8048 C 759.197 -2.26319 -0.362247 0
M  V30 8049 C 760.21 -1.31574 -0.958751 0
M  V30 8050 O 761.399 -1.57099 -0.847482 0
M  V30 8051 C 758.499 -3.02808 -1.52187 0
M  V30 8052 C 757.672 -4.24893 -1.03849 0
M  V30 8053 C 756.731 -4.83691 -2.07194 0
M  V30 8054 O 755.757 -5.44659 -1.65333 0
M  V30 8055 N 756.959 -4.70522 -3.39985 0
M  V30 8056 H 759.724 -2.98312 0.288124 0
M  V30 8057 H 757.285 -1.59099 0.299856 0
M  V30 8058 H 759.277 -3.39023 -2.21011 0
M  V30 8059 H 757.847 -2.33625 -2.07697 0
M  V30 8060 H 757.067 -3.93806 -0.176203 0
M  V30 8061 H 758.355 -5.04053 -0.693435 0
M  V30 8062 H 757.753 -4.2203 -3.76706 0
M  V30 8063 H 756.31 -5.11011 -4.04612 0
M  V30 8064 N 759.743 -0.201713 -1.56304 0
M  V30 8065 C 761.02 0.483273 -1.89536 0
M  V30 8066 C 761.4 1.79176 -1.11621 0
M  V30 8067 O 760.748 2.27445 -0.219339 0
M  V30 8068 C 760.958 0.695604 -3.41998 0
M  V30 8069 C 762.306 1.012 -4.12364 0
M  V30 8070 O 763.33 0.783094 -3.47485 0
M  V30 8071 O 762.189 1.44534 -5.27041 0
M  V30 8072 H 759.283 0.252801 -0.787414 0
M  V30 8073 H 761.829 -0.24242 -1.6796 0
M  V30 8074 H 760.601 -0.228165 -3.90634 0
M  V30 8075 H 760.224 1.47351 -3.69288 0
M  V30 8076 N 761.222 1.57436 0.0718424 0
M  V30 8077 C 762.471 1.86431 0.769826 0
M  V30 8078 C 762.784 0.794355 1.78744 0
M  V30 8079 O 763.99 0.972148 2.53499 0
M  V30 8080 C 762.446 3.307 1.42006 0
M  V30 8081 C 762.054 4.45824 0.441017 0
M  V30 8082 C 763.798 3.68894 2.10041 0
M  V30 8083 C 761.705 5.81134 1.09717 0
M  V30 8084 H 760.635 0.695474 0.291259 0
M  V30 8085 H 763.286 1.83485 0.0231224 0
M  V30 8086 H 761.668 3.28257 2.21502 0
M  V30 8087 H 762.842 4.59659 -0.32413 0
M  V30 8088 H 761.157 4.16181 -0.134886 0
M  V30 8089 H 763.754 4.67281 2.59908 0
M  V30 8090 H 764.097 2.98692 2.89981 0
M  V30 8091 H 764.63 3.73326 1.37376 0
M  V30 8092 H 761.369 6.54628 0.338095 0
M  V30 8093 H 760.889 5.711 1.83317 0
M  V30 8094 H 762.568 6.26468 1.617 0
M  V30 8095 N 762.7 -0.34323 1.53817 0
M  V30 8096 C 763.928 -1.10348 1.75017 0
M  V30 8097 C 764.343 -1.82345 0.489475 0
M  V30 8098 O 763.7 -1.74362 -0.538886 0
M  V30 8099 C 763.751 -2.11672 2.93048 0
M  V30 8100 O 763.472 -1.42603 4.14241 0
M  V30 8101 C 764.973 -3.0007 3.26301 0
M  V30 8102 H 762.193 -0.329056 0.584776 0
M  V30 8103 H 764.737 -0.395339 2.00642 0
M  V30 8104 H 762.892 -2.78051 2.69753 0
M  V30 8105 H 763.306 -2.10294 4.80496 0
M  V30 8106 H 764.78 -3.67101 4.12239 0
M  V30 8107 H 765.257 -3.66105 2.42618 0
M  V30 8108 H 765.863 -2.3928 3.51604 0
M  V30 8109 N 764.178 -1.45556 -0.604258 0
M  V30 8110 C 765.406 -1.53278 -1.38973 0
M  V30 8111 C 765.821 -0.166509 -1.88064 0
M  V30 8112 O 765.178 0.832519 -1.62405 0
M  V30 8113 C 765.229 -2.51992 -2.59195 0
M  V30 8114 O 764.95 -3.8331 -2.12143 0
M  V30 8115 C 766.451 -2.69445 -3.52015 0
M  V30 8116 H 763.671 -0.519003 -0.425297 0
M  V30 8117 H 766.215 -1.90773 -0.736621 0
M  V30 8118 H 764.37 -2.17561 -3.2054 0
M  V30 8119 H 764.784 -4.3685 -2.90279 0
M  V30 8120 H 766.258 -3.42485 -4.32907 0
M  V30 8121 H 766.735 -1.75596 -4.0257 0
M  V30 8122 H 767.341 -3.04886 -2.9652 0
M  V30 8123 N 765.656 0.84705 -1.32902 0
M  V30 8124 C 766.603 1.95624 -1.22473 0
M  V30 8125 C 767.573 1.65767 -0.105178 0
M  V30 8126 O 768.758 1.88704 -0.282042 0
M  V30 8127 C 765.898 3.31434 -0.961542 0
M  V30 8128 C 765.011 3.73741 -2.1666 0
M  V30 8129 C 764.146 4.98379 -1.83825 0
M  V30 8130 C 763.185 5.33199 -3.00609 0
M  V30 8131 N 762.322 6.49014 -2.67816 0
M  V30 8132 H 767.162 2.03875 -2.17345 0
M  V30 8133 H 764.699 0.997764 -1.08088 0
M  V30 8134 H 766.657 4.09663 -0.789411 0
M  V30 8135 H 765.287 3.22762 -0.0495938 0
M  V30 8136 H 764.339 2.91102 -2.44875 0
M  V30 8137 H 765.651 3.95462 -3.03993 0
M  V30 8138 H 764.805 5.84336 -1.63208 0
M  V30 8139 H 763.544 4.78611 -0.937172 0
M  V30 8140 H 762.549 4.4575 -3.21849 0
M  V30 8141 H 763.774 5.5492 -3.9146 0
M  V30 8142 H 761.72 6.30748 -1.80258 0
M  V30 8143 H 761.637 6.7079 -3.48679 0
M  V30 8144 H 762.905 7.38103 -2.50647 0
M  V30 8145 N 767.134 1.16236 1.06428 0
M  V30 8146 C 768.084 0.835994 2.12121 0
M  V30 8147 C 769.068 -0.183955 1.59845 0
M  V30 8148 O 770.26 0.0166741 1.76992 0
M  V30 8149 C 767.389 0.337333 3.41639 0
M  V30 8150 C 766.475 1.38798 4.00744 0
M  V30 8151 N 766.866 2.59799 4.3398 0
M  V30 8152 C 765.164 1.24292 4.28331 0
M  V30 8153 C 765.865 3.27213 4.80943 0
M  V30 8154 N 764.841 2.54594 4.80294 0
M  V30 8155 H 768.643 1.75615 2.35662 0
M  V30 8156 H 766.157 1.04921 1.23957 0
M  V30 8157 H 768.154 0.0851274 4.16813 0
M  V30 8158 H 766.814 -0.57677 3.19536 0
M  V30 8159 H 767.825 2.96867 4.24371 0
M  V30 8160 H 764.502 0.389464 4.15679 0
M  V30 8161 H 765.892 4.30492 5.15874 0
M  V30 8162 N 768.612 -1.24939 0.960631 0
M  V30 8163 C 769.545 -2.24116 0.429804 0
M  V30 8164 C 770.523 -1.54972 -0.492188 0
M  V30 8165 O 771.707 -1.83642 -0.42519 0
M  V30 8166 C 768.834 -3.36558 -0.380312 0
M  V30 8167 C 767.88 -4.23757 0.482941 0
M  V30 8168 S 768.713 -4.9994 1.91885 0
M  V30 8169 C 769.869 -6.15846 1.11732 0
M  V30 8170 H 770.102 -2.68795 1.27029 0
M  V30 8171 H 767.635 -1.34108 0.765141 0
M  V30 8172 H 769.593 -4.01777 -0.841764 0
M  V30 8173 H 768.254 -2.90451 -1.19569 0
M  V30 8174 H 767.447 -5.03809 -0.138699 0
M  V30 8175 H 767.049 -3.63504 0.879839 0
M  V30 8176 H 769.341 -6.76495 0.368898 0
M  V30 8177 H 770.284 -6.82356 1.89198 0
M  V30 8178 H 770.692 -5.60805 0.644812 0
M  V30 8179 N 770.09 -0.729906 -1.39679 0
M  V30 8180 C 771.02 -0.101618 -2.33279 0
M  V30 8181 C 772.001 0.729854 -1.53646 0
M  V30 8182 O 773.186 0.67587 -1.82059 0
M  V30 8183 C 770.316 0.81024 -3.37716 0
M  V30 8184 C 769.27 0.0833126 -4.27919 0
M  V30 8185 C 768.596 1.11185 -5.23012 0
M  V30 8186 C 769.896 -1.07107 -5.112 0
M  V30 8187 H 771.59 -0.883452 -2.86069 0
M  V30 8188 H 769.136 -0.426283 -1.37546 0
M  V30 8189 H 771.089 1.25927 -4.02145 0
M  V30 8190 H 769.813 1.62413 -2.83354 0
M  V30 8191 H 768.472 -0.346043 -3.64963 0
M  V30 8192 H 768.12 1.91917 -4.64948 0
M  V30 8193 H 767.82 0.63026 -5.8421 0
M  V30 8194 H 769.344 1.56068 -5.90318 0
M  V30 8195 H 770.758 -0.700726 -5.69002 0
M  V30 8196 H 769.155 -1.48196 -5.81514 0
M  V30 8197 H 770.225 -1.89513 -4.46332 0
M  V30 8198 N 771.568 1.50203 -0.477153 0
M  V30 8199 C 772.979 1.86685 -0.0235041 0
M  V30 8200 C 773.33 1.39148 1.38319 0
M  V30 8201 O 772.455 0.759051 2.02651 0
M  V30 8202 C 773.05 3.38781 -0.0358767 0
M  V30 8203 C 771.609 3.74652 0.362327 0
M  V30 8204 C 770.756 2.7412 -0.41875 0
M  V30 8205 H 773.707 1.4286 -0.691133 0
M  V30 8206 H 773.728 3.72732 0.764924 0
M  V30 8207 H 773.24 3.73349 -1.05981 0
M  V30 8208 H 771.341 3.45686 1.39039 0
M  V30 8209 H 771.454 4.79063 0.059457 0
M  V30 8210 H 769.818 2.54376 0.128341 0
M  V30 8211 H 770.601 3.11532 -1.44231 0
M  V30 8212 N 773.046 0.209999 1.56195 0
M  V30 8213 C 774.274 -0.429996 2.02382 0
M  V30 8214 C 774.689 -1.54159 1.08998 0
M  V30 8215 O 774.046 -1.82239 0.0974856 0
M  V30 8216 C 774.097 -0.972433 3.48175 0
M  V30 8217 O 773.818 0.0948231 4.37997 0
M  V30 8218 C 775.319 -1.68683 4.09952 0
M  V30 8219 H 772.539 -0.106475 0.662498 0
M  V30 8220 H 775.083 0.323072 2.01932 0
M  V30 8221 H 773.238 -1.67582 3.49278 0
M  V30 8222 H 773.652 -0.31113 5.23576 0
M  V30 8223 H 775.126 -2.01851 5.13771 0
M  V30 8224 H 775.603 -2.59587 3.54276 0
M  V30 8225 H 776.209 -1.02893 4.12666 0
M  V30 8226 N 774.524 -1.57472 -0.0634922 0
M  V30 8227 C 775.77 -1.87932 -0.762194 0
M  V30 8228 C 776.103 -0.803377 -1.76804 0
M  V30 8229 O 775.378 0.185468 -1.93614 0
M  V30 8230 C 775.661 -3.29053 -1.46275 0
M  V30 8231 C 775.514 -4.47309 -0.472755 0
M  V30 8232 C 776.833 -3.68537 -2.40558 0
M  V30 8233 H 773.952 -0.683521 -0.275624 0
M  V30 8234 H 776.594 -1.89983 -0.0252651 0
M  V30 8235 H 774.744 -3.27435 -2.0909 0
M  V30 8236 H 776.416 -4.61053 0.150828 0
M  V30 8237 H 774.659 -4.33286 0.211187 0
M  V30 8238 H 775.33 -5.42853 -1.00072 0
M  V30 8239 H 777.806 -3.71302 -1.87814 0
M  V30 8240 H 776.682 -4.68152 -2.86574 0
M  V30 8241 H 776.943 -2.98917 -3.25731 0
M  V30 8242 N 776.003 0.335068 -1.53997 0
M  V30 8243 C 776.933 1.41727 -1.85568 0
M  V30 8244 C 777.914 1.54505 -0.7115 0
M  V30 8245 O 779.099 1.68573 -0.964191 0
M  V30 8246 C 776.229 2.7866 -2.07282 0
M  V30 8247 C 775.183 2.80682 -3.23112 0
M  V30 8248 C 774.509 4.20581 -3.30175 0
M  V30 8249 C 775.809 2.45458 -4.61029 0
M  V30 8250 H 777.503 1.15555 -2.76202 0
M  V30 8251 H 775.049 0.554445 -1.32898 0
M  V30 8252 H 777.002 3.54423 -2.27952 0
M  V30 8253 H 775.726 3.06286 -1.13387 0
M  V30 8254 H 774.385 2.07373 -3.02311 0
M  V30 8255 H 774.033 4.4533 -2.33859 0
M  V30 8256 H 773.733 4.22843 -4.08016 0
M  V30 8257 H 775.257 4.98174 -3.53066 0
M  V30 8258 H 776.671 3.10934 -4.81656 0
M  V30 8259 H 775.068 2.5899 -5.41336 0
M  V30 8260 H 776.138 1.40628 -4.6406 0
M  V30 8261 N 777.481 1.45874 0.596531 0
M  V30 8262 C 778.897 1.30524 0.918459 0
M  V30 8263 C 779.097 0.266429 1.99731 0
M  V30 8264 O 778.153 -0.335809 2.50257 0
M  V30 8265 C 779.466 2.68747 1.3489 0
M  V30 8266 C 781.014 2.7673 1.46251 0
M  V30 8267 C 781.489 4.15504 1.92667 0
M  V30 8268 N 782.98 4.17853 1.99883 0
M  V30 8269 C 783.715 5.22109 2.37044 0
M  V30 8270 N 783.211 6.36704 2.73094 0
M  V30 8271 N 785.004 5.09471 2.37479 0
M  V30 8272 H 777.155 2.12081 -0.116368 0
M  V30 8273 H 779.418 0.947941 0.0106033 0
M  V30 8274 H 779.124 3.46006 0.630288 0
M  V30 8275 H 778.998 2.97942 2.31323 0
M  V30 8276 H 781.385 1.99768 2.17202 0
M  V30 8277 H 781.466 2.51236 0.481054 0
M  V30 8278 H 781.11 4.92956 1.223 0
M  V30 8279 H 781.04 4.38396 2.91747 0
M  V30 8280 H 783.531 3.35163 1.74568 0
M  V30 8281 H 783.844 7.12041 3.00362 0
M  V30 8282 H 782.189 6.40087 2.70764 0
M  V30 8283 H 785.38 4.18987 2.08728 0
M  V30 8284 H 785.553 5.90837 2.66112 0
M  V30 8285 N 778.959 -0.83999 1.33349 0
M  V30 8286 C 779.892 -1.95415 1.17848 0
M  V30 8287 C 780.87 -1.6243 0.0742296 0
M  V30 8288 O 782.054 -1.87014 0.23626 0
M  V30 8289 C 779.181 -3.28938 0.807295 0
M  V30 8290 C 778.227 -3.80895 1.91888 0
M  V30 8291 S 779.06 -4.02709 3.52967 0
M  V30 8292 C 780.216 -5.39185 3.17853 0
M  V30 8293 H 780.449 -2.08265 2.12162 0
M  V30 8294 H 777.982 -0.993643 1.18178 0
M  V30 8295 H 779.94 -4.06093 0.599914 0
M  V30 8296 H 778.601 -3.13881 -0.117234 0
M  V30 8297 H 777.794 -4.77508 1.6125 0
M  V30 8298 H 777.396 -3.10633 2.08286 0
M  V30 8299 H 779.688 -6.21978 2.68608 0
M  V30 8300 H 780.631 -5.74795 4.13542 0
M  V30 8301 H 781.039 -5.03885 2.5448 0
M  V30 8302 N 780.437 -1.16799 -1.0581 0
M  V30 8303 C 781.4 -0.881396 -2.11575 0
M  V30 8304 C 782.4 0.12574 -1.60308 0
M  V30 8305 O 783.59 -0.105716 -1.73879 0
M  V30 8306 C 780.722 -0.319037 -3.39404 0
M  V30 8307 H 781.915 -1.81907 -2.38432 0
M  V30 8308 H 779.468 -0.977597 -1.21954 0
M  V30 8309 H 780.203 0.626082 -3.18199 0
M  V30 8310 H 779.988 -1.04481 -3.77923 0
M  V30 8311 H 781.478 -0.13663 -4.17376 0
M  V30 8312 N 781.915 1.24427 -0.967243 0
M  V30 8313 C 783.163 1.92107 -0.627638 0
M  V30 8314 C 783.484 1.75991 0.83978 0
M  V30 8315 O 782.754 1.13118 1.59941 0
M  V30 8316 H 781.334 0.710986 -0.229145 0
M  V30 8317 H 783.996 1.51331 -1.22821 0
M  V30 8318 H 783.092 2.99791 -0.867844 0
M  V30 8319 N 783.393 0.737304 1.3929 0
M  V30 8320 C 784.67 0.212464 1.94443 0
M  V30 8321 C 785.05 -1.28621 1.67391 0
M  V30 8322 O 784.398 -2.0529 1.00342 0
M  V30 8323 C 784.608 0.548565 3.44662 0
M  V30 8324 C 785.956 0.499177 4.21656 0
M  V30 8325 O 786.98 0.485892 3.5287 0
M  V30 8326 O 785.839 0.495739 5.44247 0
M  V30 8327 H 782.933 0.0395457 0.826054 0
M  V30 8328 H 785.479 0.816319 1.48776 0
M  V30 8329 H 784.251 1.58426 3.57795 0
M  V30 8330 H 783.874 -0.0841399 3.97511 0
M  V30 8331 N 784.871 -1.49948 0.485112 0
M  V30 8332 C 786.282 -1.8667 0.0334041 0
M  V30 8333 C 786.633 -1.3988 -1.37579 0
M  V30 8334 O 785.758 -0.769788 -2.02245 0
M  V30 8335 C 786.353 -3.38757 0.0538426 0
M  V30 8336 C 784.912 -3.74839 -0.342453 0
M  V30 8337 C 784.059 -2.73894 0.433281 0
M  V30 8338 H 787.01 -1.42492 0.698699 0
M  V30 8339 H 787.031 -3.73132 -0.745146 0
M  V30 8340 H 786.543 -3.72782 1.07959 0
M  V30 8341 H 784.644 -3.46419 -1.37203 0
M  V30 8342 H 784.757 -4.79088 -0.0340503 0
M  V30 8343 H 783.121 -2.54441 -0.114849 0
M  V30 8344 H 783.904 -3.10763 1.45881 0
M  V30 8345 N 786.349 -0.21828 -1.56081 0
M  V30 8346 C 787.595 0.414921 -1.9851 0
M  V30 8347 C 787.928 1.59648 -1.10573 0
M  V30 8348 O 787.203 1.93818 -0.162695 0
M  V30 8349 C 787.486 0.852647 -3.4986 0
M  V30 8350 C 787.339 -0.33232 -4.48571 0
M  V30 8351 C 788.658 1.70998 -4.05521 0
M  V30 8352 H 785.777 0.149344 -0.72171 0
M  V30 8353 H 788.419 -0.313858 -1.8739 0
M  V30 8354 H 786.569 1.47362 -3.59467 0
M  V30 8355 H 788.241 -0.970418 -4.50977 0
M  V30 8356 H 786.484 -0.980302 -4.22578 0
M  V30 8357 H 787.155 0.0168407 -5.51997 0
M  V30 8358 H 789.631 1.18606 -3.98838 0
M  V30 8359 H 788.507 1.98517 -5.11744 0
M  V30 8360 H 788.768 2.67219 -3.52202 0
M  V30 8361 N 787.827 1.57504 0.0551401 0
M  V30 8362 C 788.79 2.03826 1.04821 0
M  V30 8363 C 789.79 0.937968 1.30609 0
M  V30 8364 O 790.98 1.20237 1.2605 0
M  V30 8365 C 788.112 2.43309 2.38775 0
M  V30 8366 H 789.305 2.92802 0.6486 0
M  V30 8367 H 786.858 1.53368 0.301315 0
M  V30 8368 H 787.593 1.5741 2.83536 0
M  V30 8369 H 787.378 3.23615 2.21395 0
M  V30 8370 H 788.868 2.79666 3.10124 0
M  V30 8371 N 789.305 -0.326896 1.54172 0
M  V30 8372 C 790.253 -1.42232 1.84046 0
M  V30 8373 C 791.247 -1.53705 0.712115 0
M  V30 8374 O 792.453 -1.56131 0.895724 0
M  V30 8375 H 788.828 -0.474568 0.583343 0
M  V30 8376 H 790.799 -1.14259 2.75658 0
M  V30 8377 C 789.548 -2.78502 2.08163 0
M  V30 8378 H 788.871 -2.70447 2.94446 0
M  V30 8379 H 790.311 -3.54228 2.33021 0
M  V30 8380 C 788.77 -3.25415 0.872152 0
M  V30 8381 O 789.3 -4.01621 0.0797648 0
M  V30 8382 N 787.506 -2.82418 0.684716 0
M  V30 8383 H 787.053 -2.20566 1.33072 0
M  V30 8384 H 787.011 -3.14159 -0.123031 0
M  V30 8385 N 790.784 -1.46188 -0.588786 0
M  V30 8386 C 792.03 -1.51407 -1.34921 0
M  V30 8387 C 792.363 -0.162771 -1.93517 0
M  V30 8388 O 791.638 0.825082 -1.76132 0
M  V30 8389 C 791.921 -2.60795 -2.48311 0
M  V30 8390 C 791.774 -4.05435 -1.94789 0
M  V30 8391 C 793.093 -2.66313 -3.50379 0
M  V30 8392 H 790.212 -0.551213 -0.489217 0
M  V30 8393 H 792.854 -1.78095 -0.661993 0
M  V30 8394 H 791.004 -2.3817 -3.06932 0
M  V30 8395 H 792.676 -4.39328 -1.40672 0
M  V30 8396 H 790.919 -4.15202 -1.25659 0
M  V30 8397 H 791.59 -4.77691 -2.76613 0
M  V30 8398 H 794.066 -2.86634 -3.01629 0
M  V30 8399 H 792.942 -3.44681 -4.27184 0
M  V30 8400 H 793.203 -1.72127 -4.07216 0
M  V30 8401 N 792.262 0.832906 -1.33792 0
M  V30 8402 C 793.678 1.1245 -1.13257 0
M  V30 8403 C 793.878 2.01369 0.0725832 0
M  V30 8404 O 792.934 2.41071 0.751082 0
M  V30 8405 C 794.247 1.78084 -2.42294 0
M  V30 8406 C 795.795 1.90624 -2.48257 0
M  V30 8407 C 796.27 2.59673 -3.77271 0
M  V30 8408 N 797.761 2.67181 -3.78376 0
M  V30 8409 C 798.496 3.21313 -4.74916 0
M  V30 8410 N 797.992 3.76086 -5.81835 0
M  V30 8411 N 799.785 3.19621 -4.62384 0
M  V30 8412 H 791.936 0.241244 -2.11026 0
M  V30 8413 H 794.199 0.169557 -0.932713 0
M  V30 8414 H 793.905 1.20209 -3.30519 0
M  V30 8415 H 793.779 2.78049 -2.5489 0
M  V30 8416 H 796.166 2.4765 -1.60478 0
M  V30 8417 H 796.247 0.89591 -2.39598 0
M  V30 8418 H 795.891 2.03304 -4.65435 0
M  V30 8419 H 795.821 3.61189 -3.8321 0
M  V30 8420 H 798.312 2.28346 -3.01108 0
M  V30 8421 H 798.625 4.15612 -6.51526 0
M  V30 8422 H 796.97 3.74357 -5.85561 0
M  V30 8423 H 800.161 2.76091 -3.7801 0
M  V30 8424 H 800.334 3.61504 -5.37791 0
M  V30 8425 N 793.74 1.17359 1.05189 0
M  V30 8426 C 794.987 0.961987 1.78191 0
M  V30 8427 C 795.315 -0.509363 1.87712 0
M  V30 8428 O 794.57 -1.39425 1.37329 0
M  V30 8429 C 794.869 1.54821 3.22126 0
M  V30 8430 C 794.535 3.04378 3.32663 0
M  V30 8431 C 793.197 3.45201 3.35246 0
M  V30 8432 C 795.549 4.00387 3.33677 0
M  V30 8433 C 792.877 4.80629 3.36471 0
M  V30 8434 C 795.229 5.35715 3.36441 0
M  V30 8435 C 793.893 5.76002 3.37311 0
M  V30 8436 H 793.163 0.352016 0.652047 0
M  V30 8437 H 795.81 1.46249 1.23627 0
M  V30 8438 H 794.115 0.969432 3.79617 0
M  V30 8439 H 795.812 1.36004 3.77232 0
M  V30 8440 H 792.402 2.71836 3.31366 0
M  V30 8441 H 796.586 3.69906 3.30882 0
M  V30 8442 H 791.842 5.11155 3.35455 0
M  V30 8443 H 796.016 6.09886 3.36173 0
M  V30 8444 H 793.643 6.80919 3.38013 0
M  V30 8445 N 795.218 -1.23913 0.973828 0
M  V30 8446 C 796.166 -2.27141 0.50098 0
M  V30 8447 C 797.16 -1.63623 -0.438631 0
M  V30 8448 O 798.366 -1.77253 -0.313247 0
M  V30 8449 H 794.741 -0.73817 0.14356 0
M  V30 8450 H 796.712 -2.64392 1.38346 0
M  V30 8451 C 795.461 -3.47195 -0.187377 0
M  V30 8452 H 794.784 -3.96318 0.526535 0
M  V30 8453 H 796.224 -4.21252 -0.481962 0
M  V30 8454 C 794.683 -3.05678 -1.41642 0
M  V30 8455 O 795.213 -3.1338 -2.51309 0
M  V30 8456 N 793.419 -2.60661 -1.28469 0
M  V30 8457 H 792.966 -2.54594 -0.39238 0
M  V30 8458 H 792.924 -2.33249 -2.10813 0
M  V30 8459 N 796.696 -0.74468 -1.38897 0
M  V30 8460 C 797.942 -0.297324 -2.00609 0
M  V30 8461 C 798.275 1.11547 -1.58968 0
M  V30 8462 O 797.55 1.76227 -0.823057 0
M  V30 8463 C 797.833 -0.410125 -3.57757 0
M  V30 8464 C 797.686 -1.86338 -4.09387 0
M  V30 8465 C 799.005 0.20176 -4.39637 0
M  V30 8466 H 796.124 -0.109509 -0.728819 0
M  V30 8467 H 798.766 -0.942653 -1.64967 0
M  V30 8468 H 796.916 0.139287 -3.8825 0
M  V30 8469 H 798.588 -2.47042 -3.89574 0
M  V30 8470 H 796.831 -2.38146 -3.62586 0
M  V30 8471 H 797.502 -1.89352 -5.18507 0
M  V30 8472 H 799.978 -0.266703 -4.15244 0
M  V30 8473 H 798.854 0.0925415 -5.48822 0
M  V30 8474 H 799.115 1.289 -4.22891 0
M  V30 8475 N 798.174 1.49689 -0.493057 0
M  V30 8476 C 799.137 2.27502 0.278485 0
M  V30 8477 C 800.137 1.33184 0.901037 0
M  V30 8478 O 801.327 1.56415 0.766801 0
M  V30 8479 C 798.459 3.10881 1.39878 0
M  V30 8480 H 799.652 2.97163 -0.404219 0
M  V30 8481 H 797.205 1.54324 -0.247774 0
M  V30 8482 H 797.94 2.45767 2.11587 0
M  V30 8483 H 797.725 3.80219 0.957924 0
M  V30 8484 H 799.215 3.69673 1.94247 0
M  V30 8485 N 799.652 0.226554 1.55963 0
M  V30 8486 C 800.599 -0.681504 2.20509 0
M  V30 8487 C 801.569 -1.1866 1.16229 0
M  V30 8488 O 802.754 -1.24478 1.44602 0
M  V30 8489 C 799.894 -1.88183 2.89277 0
M  V30 8490 C 799.007 -1.41517 4.08163 0
M  V30 8491 C 798.142 -2.57346 4.647 0
M  V30 8492 C 797.181 -2.07441 5.75877 0
M  V30 8493 N 796.318 -3.16561 6.26685 0
M  V30 8494 H 801.158 -0.124372 2.9774 0
M  V30 8495 H 798.695 -0.0496333 1.47016 0
M  V30 8496 H 800.653 -2.58666 3.27335 0
M  V30 8497 H 799.283 -2.41177 2.14555 0
M  V30 8498 H 798.335 -0.605099 3.75557 0
M  V30 8499 H 799.647 -1.00928 4.88482 0
M  V30 8500 H 798.801 -3.35903 5.05227 0
M  V30 8501 H 797.54 -3.01227 3.83554 0
M  V30 8502 H 796.545 -1.27347 5.34848 0
M  V30 8503 H 797.77 -1.64554 6.58862 0
M  V30 8504 H 795.716 -3.59914 5.48451 0
M  V30 8505 H 795.633 -2.80239 7.02141 0
M  V30 8506 H 796.901 -3.95238 6.71868 0
M  V30 8507 N 801.13 -1.57531 -0.0467866 0
M  V30 8508 C 802.355 -1.93087 -0.757123 0
M  V30 8509 C 802.78 -0.825116 -1.69037 0
M  V30 8510 O 802.138 0.220449 -1.79955 0
M  V30 8511 C 802.186 -3.27669 -1.5055 0
M  V30 8512 O 801.29 -3.18667 -2.61773 0
M  V30 8513 H 800.631 -0.631597 -0.204892 0
M  V30 8514 H 803.161 -2.04599 -0.00755232 0
M  V30 8515 H 803.171 -3.6214 -1.87932 0
M  V30 8516 H 801.846 -4.07717 -0.820931 0
M  V30 8517 H 800.423 -2.95798 -2.27064 0
M  V30 8518 N 802.608 0.318715 -1.54344 0
M  V30 8519 C 803.538 1.39751 -1.87061 0
M  V30 8520 C 804.519 1.53741 -0.727848 0
M  V30 8521 O 805.704 1.67541 -0.982016 0
M  V30 8522 C 802.834 2.76446 -2.10226 0
M  V30 8523 C 801.788 2.77239 -3.26071 0
M  V30 8524 C 801.114 4.17056 -3.34617 0
M  V30 8525 C 802.414 2.40555 -4.63606 0
M  V30 8526 H 804.108 1.12619 -2.77412 0
M  V30 8527 H 801.654 0.540318 -1.33479 0
M  V30 8528 H 803.607 3.51985 -2.31699 0
M  V30 8529 H 802.331 3.05066 -1.16629 0
M  V30 8530 H 800.99 2.04155 -3.04493 0
M  V30 8531 H 800.638 4.42824 -2.3857 0
M  V30 8532 H 800.338 4.18492 -4.12478 0
M  V30 8533 H 801.862 4.94401 -3.5833 0
M  V30 8534 H 803.276 3.05808 -4.84927 0
M  V30 8535 H 801.673 2.53234 -5.44052 0
M  V30 8536 H 802.743 1.35698 -4.65526 0
M  V30 8537 N 804.086 1.46499 0.581025 0
M  V30 8538 C 805.018 1.53225 1.70455 0
M  V30 8539 C 806.031 0.420443 1.57277 0
M  V30 8540 O 807.22 0.688888 1.64671 0
M  V30 8541 C 804.32 1.39803 3.08721 0
M  V30 8542 C 803.493 2.65132 3.47884 0
M  V30 8543 C 802.552 2.45886 4.65217 0
M  V30 8544 O 801.578 3.19615 4.70993 0
M  V30 8545 N 802.78 1.5216 5.60203 0
M  V30 8546 H 805.545 2.50098 1.65139 0
M  V30 8547 H 803.106 1.42576 0.76705 0
M  V30 8548 H 805.098 1.24697 3.8501 0
M  V30 8549 H 803.668 0.51104 3.08394 0
M  V30 8550 H 802.888 2.95169 2.61284 0
M  V30 8551 H 804.176 3.48385 3.70817 0
M  V30 8552 H 803.574 0.913646 5.58273 0
M  V30 8553 H 802.131 1.43017 6.35916 0
M  V30 8554 N 805.565 -0.825799 1.34232 0
M  V30 8555 C 806.512 -1.93651 1.2557 0
M  V30 8556 C 807.482 -1.65578 0.131536 0
M  V30 8557 O 808.667 -1.88231 0.312027 0
M  V30 8558 C 805.807 -3.29862 1.01415 0
M  V30 8559 C 804.92 -3.70247 2.22579 0
M  V30 8560 C 804.055 -4.95392 1.91731 0
M  V30 8561 C 803.094 -5.28349 3.09053 0
M  V30 8562 N 802.231 -6.44671 2.78107 0
M  V30 8563 H 807.071 -2.00392 2.20561 0
M  V30 8564 H 804.608 -0.980441 1.09662 0
M  V30 8565 H 806.566 -4.08356 0.854485 0
M  V30 8566 H 805.196 -3.22642 0.100936 0
M  V30 8567 H 804.248 -2.87169 2.49476 0
M  V30 8568 H 805.56 -3.90575 3.10246 0
M  V30 8569 H 804.714 -5.81665 1.72484 0
M  V30 8570 H 803.453 -4.77059 1.0132 0
M  V30 8571 H 802.458 -4.40574 3.289 0
M  V30 8572 H 803.683 -5.48622 4.00239 0
M  V30 8573 H 801.629 -6.278 1.9027 0
M  V30 8574 H 801.546 -6.65158 3.59306 0
M  V30 8575 H 802.814 -7.34022 2.62358 0
M  V30 8576 N 807.043 -1.17915 -1.04565 0
M  V30 8577 C 808.292 -0.965816 -1.77073 0
M  V30 8578 C 808.605 0.506005 -1.88942 0
M  V30 8579 O 809.811 0.837717 -2.58253 0
M  V30 8580 C 808.267 -1.67894 -3.18339 0
M  V30 8581 C 807.875 -3.18972 -3.1458 0
M  V30 8582 C 809.619 -1.54823 -3.9526 0
M  V30 8583 C 807.526 -3.82946 -4.50674 0
M  V30 8584 H 806.456 -0.357729 -0.663736 0
M  V30 8585 H 809.107 -1.41235 -1.17153 0
M  V30 8586 H 807.489 -1.16016 -3.78624 0
M  V30 8587 H 808.663 -3.77835 -2.63776 0
M  V30 8588 H 806.978 -3.32127 -2.51159 0
M  V30 8589 H 809.575 -1.99984 -4.95894 0
M  V30 8590 H 809.918 -0.499727 -4.1329 0
M  V30 8591 H 810.451 -2.03953 -3.41538 0
M  V30 8592 H 807.19 -4.8782 -4.37849 0
M  V30 8593 H 806.71 -3.2887 -5.01602 0
M  V30 8594 H 808.389 -3.85518 -5.196 0
M  V30 8595 N 808.521 1.23394 -0.980386 0
M  V30 8596 C 809.769 1.91431 -0.647978 0
M  V30 8597 C 810.09 1.76871 0.821066 0
M  V30 8598 O 809.36 1.14808 1.58732 0
M  V30 8599 H 807.94 0.708516 -0.236673 0
M  V30 8600 H 810.602 1.50019 -1.2442 0
M  V30 8601 H 809.698 2.98854 -0.899592 0
M  V30 8602 N 809.999 0.752036 1.385 0
M  V30 8603 C 811.41 0.375385 1.82887 0
M  V30 8604 C 811.761 -1.09575 1.62751 0
M  V30 8605 O 810.886 -1.84685 1.12785 0
M  V30 8606 C 811.481 0.674563 3.32017 0
M  V30 8607 C 810.04 0.351208 3.74758 0
M  V30 8608 C 809.187 0.928531 2.61292 0
M  V30 8609 H 812.138 0.948313 1.27251 0
M  V30 8610 H 812.159 -0.0477781 3.8047 0
M  V30 8611 H 811.671 1.74533 3.46641 0
M  V30 8612 H 809.772 -0.713042 3.65714 0
M  V30 8613 H 809.885 0.845675 4.71577 0
M  V30 8614 H 808.249 0.354012 2.52228 0
M  V30 8615 H 809.032 2.0043 2.78716 0
M  V30 8616 N 811.477 -1.49425 0.500989 0
M  V30 8617 C 812.726 -2.01649 -0.04538 0
M  V30 8618 C 813.039 -1.38572 -1.38047 0
M  V30 8619 O 814.245 -1.82124 -2.01353 0
M  V30 8620 C 812.701 -3.5966 -0.131337 0
M  V30 8621 C 812.309 -4.3171 1.19711 0
M  V30 8622 C 814.053 -4.19828 -0.628071 0
M  V30 8623 C 811.96 -5.81579 1.07332 0
M  V30 8624 H 810.89 -0.753715 -0.0207329 0
M  V30 8625 H 813.541 -1.71962 0.640407 0
M  V30 8626 H 811.923 -3.86063 -0.881574 0
M  V30 8627 H 813.097 -4.17008 1.96064 0
M  V30 8628 H 811.412 -3.83286 1.62729 0
M  V30 8629 H 814.009 -5.2958 -0.738198 0
M  V30 8630 H 814.352 -3.83194 -1.6269 0
M  V30 8631 H 814.885 -3.97746 0.0656314 0
M  V30 8632 H 811.624 -6.22738 2.04642 0
M  V30 8633 H 811.144 -5.98774 0.350679 0
M  V30 8634 H 812.823 -6.42614 0.752047 0
M  V30 8635 N 812.955 -0.234822 -1.55841 0
M  V30 8636 C 813.885 0.664217 -2.23854 0
M  V30 8637 C 814.866 1.19076 -1.2147 0
M  V30 8638 O 816.051 1.23232 -1.50091 0
M  V30 8639 C 813.181 1.86666 -2.9287 0
M  V30 8640 C 812.135 1.47341 -4.01839 0
M  V30 8641 C 811.461 2.75571 -4.58219 0
M  V30 8642 C 812.761 0.653479 -5.18196 0
M  V30 8643 H 814.455 0.0971213 -2.99242 0
M  V30 8644 H 812.001 0.0452724 -1.43929 0
M  V30 8645 H 813.954 2.50116 -3.39146 0
M  V30 8646 H 812.678 2.45894 -2.1495 0
M  V30 8647 H 811.337 0.862314 -3.56314 0
M  V30 8648 H 810.985 3.32971 -3.77014 0
M  V30 8649 H 810.685 2.49987 -5.31771 0
M  V30 8650 H 812.209 3.39939 -5.07221 0
M  V30 8651 H 813.623 1.19198 -5.60771 0
M  V30 8652 H 812.02 0.494188 -5.98062 0
M  V30 8653 H 813.09 -0.337004 -4.83728 0
M  V30 8654 N 814.433 1.57553 0.0384317 0
M  V30 8655 C 815.71 1.79977 0.766002 0
M  V30 8656 C 816.09 0.830625 1.94072 0
M  V30 8657 O 815.438 -0.129243 2.28134 0
M  V30 8658 C 815.648 3.27434 1.20781 0
M  V30 8659 C 816.996 3.92167 1.62758 0
M  V30 8660 O 818.02 3.31527 1.30263 0
M  V30 8661 O 816.879 4.98917 2.23035 0
M  V30 8662 H 813.973 0.739787 0.369654 0
M  V30 8663 H 816.519 1.69693 0.0159312 0
M  V30 8664 H 815.291 3.89558 0.368792 0
M  V30 8665 H 814.914 3.42571 2.01819 0
M  V30 8666 N 815.911 -0.310526 1.54511 0
M  V30 8667 C 816.859 -1.40272 1.85544 0
M  V30 8668 C 817.853 -1.52941 0.728377 0
M  V30 8669 O 819.059 -1.55172 0.912234 0
M  V30 8670 H 815.434 -0.468355 0.588343 0
M  V30 8671 H 817.405 -1.11329 2.76855 0
M  V30 8672 C 816.154 -2.76279 2.11105 0
M  V30 8673 H 815.477 -2.67308 2.97298 0
M  V30 8674 H 816.917 -3.51736 2.36765 0
M  V30 8675 C 815.376 -3.24472 0.906618 0
M  V30 8676 O 815.906 -4.01514 0.122358 0
M  V30 8677 N 814.112 -2.81676 0.714632 0
M  V30 8678 H 813.659 -2.19143 1.35404 0
M  V30 8679 H 813.617 -3.14272 -0.089703 0
M  V30 8680 N 817.389 -1.46805 -0.573248 0
M  V30 8681 C 818.614 -1.56433 -1.36175 0
M  V30 8682 C 819.039 -0.209336 -1.86932 0
M  V30 8683 O 818.397 0.812146 -1.62092 0
M  V30 8684 C 818.445 -2.58055 -2.51873 0
M  V30 8685 O 817.549 -2.12214 -3.53609 0
M  V30 8686 H 816.89 -0.526068 -0.405153 0
M  V30 8687 H 819.42 -1.92456 -0.694405 0
M  V30 8688 H 819.43 -2.77966 -2.98662 0
M  V30 8689 H 818.105 -3.56448 -2.14284 0
M  V30 8690 H 816.682 -2.02333 -3.13234 0
M  V30 8691 N 818.867 0.818669 -1.34668 0
M  V30 8692 C 820.095 1.60674 -1.30351 0
M  V30 8693 C 820.51 1.88408 0.121546 0
M  V30 8694 O 819.867 1.47849 1.06991 0
M  V30 8695 C 819.918 2.94516 -2.09625 0
M  V30 8696 O 819.639 2.6799 -3.46573 0
M  V30 8697 C 821.14 3.8891 -2.12754 0
M  V30 8698 H 818.36 0.499306 -0.448258 0
M  V30 8699 H 820.904 1.01828 -1.77345 0
M  V30 8700 H 819.059 3.49908 -1.66262 0
M  V30 8701 H 819.473 3.53361 -3.87603 0
M  V30 8702 H 820.947 4.79972 -2.72637 0
M  V30 8703 H 821.424 4.24599 -1.12306 0
M  V30 8704 H 822.03 3.39453 -2.56225 0
M  V30 8705 N 820.346 1.18468 1.03938 0
M  V30 8706 C 821.276 0.936389 2.13902 0
M  V30 8707 C 822.257 -0.126381 1.6963 0
M  V30 8708 O 823.442 0.0264757 1.94182 0
M  V30 8709 C 820.572 0.462729 3.44204 0
M  V30 8710 C 819.526 1.46613 4.02105 0
M  V30 8711 C 818.852 0.84994 5.27902 0
M  V30 8712 C 820.152 2.84323 4.3813 0
M  V30 8713 H 821.846 1.85602 2.3493 0
M  V30 8714 H 819.392 0.893806 1.12903 0
M  V30 8715 H 821.345 0.276382 4.20493 0
M  V30 8716 H 820.069 -0.492477 3.22866 0
M  V30 8717 H 818.728 1.63944 3.27899 0
M  V30 8718 H 818.376 -0.112493 5.02874 0
M  V30 8719 H 818.076 1.51988 5.67603 0
M  V30 8720 H 819.6 0.674152 6.06867 0
M  V30 8721 H 821.014 2.70636 5.054 0
M  V30 8722 H 819.411 3.48012 4.88884 0
M  V30 8723 H 820.481 3.37776 3.47901 0
M  V30 8724 N 821.824 -1.22873 0.986916 0
M  V30 8725 C 822.756 -2.23889 0.490537 0
M  V30 8726 C 823.769 -1.57523 -0.411144 0
M  V30 8727 O 824.958 -1.7721 -0.214236 0
M  V30 8728 C 822.058 -3.37488 -0.30902 0
M  V30 8729 C 821.231 -4.33438 0.587354 0
M  V30 8730 C 820.29 -5.25958 -0.159467 0
M  V30 8731 O 819.316 -5.67394 0.453115 0
M  V30 8732 N 820.518 -5.62265 -1.44355 0
M  V30 8733 H 823.283 -2.67109 1.35914 0
M  V30 8734 H 820.844 -1.37111 0.860937 0
M  V30 8735 H 822.836 -3.96365 -0.817139 0
M  V30 8736 H 821.406 -2.934 -1.07868 0
M  V30 8737 H 820.626 -3.72969 1.27622 0
M  V30 8738 H 821.914 -4.94495 1.19801 0
M  V30 8739 H 821.312 -5.30562 -1.96266 0
M  V30 8740 H 819.869 -6.23585 -1.89698 0
M  V30 8741 N 823.302 -0.75937 -1.38099 0
M  V30 8742 C 824.527 -0.327859 -2.04792 0
M  V30 8743 C 824.952 1.03752 -1.56899 0
M  V30 8744 O 824.31 1.66235 -0.723581 0
M  V30 8745 C 824.358 -0.366264 -3.58735 0
M  V30 8746 O 823.462 0.637697 -4.0744 0
M  V30 8747 H 822.803 -0.144092 -0.648177 0
M  V30 8748 H 825.333 -1.03211 -1.7666 0
M  V30 8749 H 825.343 -0.219179 -4.07411 0
M  V30 8750 H 824.018 -1.36243 -3.92951 0
M  V30 8751 H 822.595 0.454749 -3.70117 0
M  V30 8752 N 824.78 1.49157 -0.508906 0
M  V30 8753 C 825.69 2.33045 0.269656 0
M  V30 8754 C 826.706 1.45143 0.959662 0
M  V30 8755 O 827.882 1.78155 0.939295 0
M  V30 8756 C 824.947 3.20772 1.31554 0
M  V30 8757 C 824.008 4.24531 0.638131 0
M  V30 8758 C 823.241 5.08065 1.63418 0
M  V30 8759 O 823.464 4.93238 2.86483 0
M  V30 8760 O 822.398 5.90117 1.18516 0
M  V30 8761 H 826.224 3.00821 -0.417183 0
M  V30 8762 H 823.809 1.46938 -0.270119 0
M  V30 8763 H 825.691 3.75095 1.92047 0
M  V30 8764 H 824.366 2.55681 1.98516 0
M  V30 8765 H 823.273 3.74099 -0.00674357 0
M  V30 8766 H 824.606 4.92199 0.0108155 0
M  V30 8767 N 826.258 0.243083 1.55714 0
M  V30 8768 C 827.504 -0.383287 1.99145 0
M  V30 8769 C 827.837 -1.57868 1.13098 0
M  V30 8770 O 827.112 -1.93535 0.193509 0
M  V30 8771 C 827.395 -0.796879 3.51172 0
M  V30 8772 C 827.248 0.403642 4.47985 0
M  V30 8773 C 828.567 -1.64525 4.08191 0
M  V30 8774 H 825.686 -0.137843 0.723995 0
M  V30 8775 H 828.328 0.343631 1.86867 0
M  V30 8776 H 826.478 -1.41625 3.61766 0
M  V30 8777 H 828.15 1.04204 4.49376 0
M  V30 8778 H 826.393 1.04741 4.20965 0
M  V30 8779 H 827.064 0.0709794 5.51954 0
M  V30 8780 H 829.54 -1.12246 4.00674 0
M  V30 8781 H 828.416 -1.9035 5.14838 0
M  V30 8782 H 828.677 -2.61582 3.56409 0
M  V30 8783 N 827.736 -1.57571 -0.0300757 0
M  V30 8784 C 828.683 -2.06492 -1.03101 0
M  V30 8785 C 829.653 -0.953862 -1.3598 0
M  V30 8786 O 830.838 -1.22436 -1.46335 0
M  V30 8787 C 827.978 -2.54826 -2.32718 0
M  V30 8788 C 827.091 -3.79718 -2.06006 0
M  V30 8789 C 826.226 -4.16668 -3.29487 0
M  V30 8790 C 825.265 -5.3448 -2.98324 0
M  V30 8791 N 824.402 -5.66867 -4.14254 0
M  V30 8792 H 829.242 -2.91755 -0.606877 0
M  V30 8793 H 826.779 -1.44252 -0.288038 0
M  V30 8794 H 828.737 -2.80916 -3.08451 0
M  V30 8795 H 827.367 -1.72481 -2.72856 0
M  V30 8796 H 826.419 -3.60718 -1.20774 0
M  V30 8797 H 827.731 -4.65569 -1.79017 0
M  V30 8798 H 826.885 -4.43881 -4.13588 0
M  V30 8799 H 825.624 -3.29466 -3.59588 0
M  V30 8800 H 824.629 -5.07021 -2.12625 0
M  V30 8801 H 825.854 -6.23334 -2.69502 0
M  V30 8802 H 823.8 -4.82625 -4.44308 0
M  V30 8803 H 823.717 -6.47226 -3.90685 0
M  V30 8804 H 824.985 -5.98656 -4.99231 0
M  V30 8805 N 829.214 0.302327 -1.54673 0
M  V30 8806 C 830.625 0.875409 -1.64904 0
M  V30 8807 C 830.976 1.88132 -0.55684 0
M  V30 8808 O 830.101 2.14215 0.306754 0
M  V30 8809 C 830.696 1.59457 -2.9893 0
M  V30 8810 C 829.255 2.11607 -3.11287 0
M  V30 8811 C 828.402 0.948324 -2.6058 0
M  V30 8812 H 831.353 0.079362 -1.58501 0
M  V30 8813 H 831.374 2.46005 -2.90279 0
M  V30 8814 H 830.886 0.8622 -3.78402 0
M  V30 8815 H 828.987 2.87895 -2.36532 0
M  V30 8816 H 829.1 2.35151 -4.17422 0
M  V30 8817 H 827.464 1.33352 -2.17001 0
M  V30 8818 H 828.247 0.229936 -3.42529 0
M  V30 8819 N 830.692 1.47107 0.565454 0
M  V30 8820 C 831.941 1.5257 1.31929 0
M  V30 8821 C 832.254 0.189092 1.94684 0
M  V30 8822 O 833.46 0.121657 2.71227 0
M  V30 8823 C 831.916 2.68914 2.39193 0
M  V30 8824 C 831.524 4.09069 1.82665 0
M  V30 8825 C 833.268 2.83663 3.1581 0
M  V30 8826 C 831.175 5.16726 2.87661 0
M  V30 8827 H 830.105 0.567869 0.496025 0
M  V30 8828 H 832.756 1.73361 0.60151 0
M  V30 8829 H 831.138 2.41486 3.13848 0
M  V30 8830 H 832.312 4.46364 1.14438 0
M  V30 8831 H 830.627 3.99135 1.1866 0
M  V30 8832 H 833.224 3.61261 3.94201 0
M  V30 8833 H 833.567 1.91804 3.69482 0
M  V30 8834 H 834.1 3.10821 2.48265 0
M  V30 8835 H 830.839 6.10433 2.38854 0
M  V30 8836 H 830.359 4.83957 3.54324 0
M  V30 8837 H 832.038 5.43319 3.51303 0
M  V30 8838 N 832.17 -0.811516 1.35101 0
M  V30 8839 C 833.1 -1.9378 1.30275 0
M  V30 8840 C 834.081 -1.69165 0.178075 0
M  V30 8841 O 835.266 -1.90599 0.372256 0
M  V30 8842 C 832.396 -3.30439 1.06899 0
M  V30 8843 C 831.35 -3.69523 2.15955 0
M  V30 8844 C 830.676 -5.0429 1.77751 0
M  V30 8845 C 831.976 -3.80419 3.57881 0
M  V30 8846 H 833.67 -1.98075 2.24514 0
M  V30 8847 H 831.216 -0.951586 1.08078 0
M  V30 8848 H 833.169 -4.08828 1.02164 0
M  V30 8849 H 831.893 -3.26473 0.0910462 0
M  V30 8850 H 830.552 -2.93416 2.19778 0
M  V30 8851 H 830.2 -4.96823 0.785876 0
M  V30 8852 H 829.9 -5.31411 2.5075 0
M  V30 8853 H 831.424 -5.85125 1.74533 0
M  V30 8854 H 832.838 -4.49051 3.56407 0
M  V30 8855 H 831.235 -4.19005 4.29598 0
M  V30 8856 H 832.305 -2.82105 3.94391 0
M  V30 8857 N 833.648 -1.19017 -1.03309 0
M  V30 8858 C 834.558 -0.939303 -2.14975 0
M  V30 8859 C 835.574 0.0992359 -1.73717 0
M  V30 8860 O 836.75 -0.0844362 -2.01223 0
M  V30 8861 C 833.815 -0.476712 -3.43407 0
M  V30 8862 C 832.876 -1.58413 -3.99003 0
M  V30 8863 C 832.109 -1.14352 -5.21305 0
M  V30 8864 O 832.332 -0.00534408 -5.704 0
M  V30 8865 O 831.266 -1.94436 -5.6963 0
M  V30 8866 H 835.092 -1.87386 -2.38998 0
M  V30 8867 H 832.677 -0.972635 -1.13403 0
M  V30 8868 H 834.559 -0.22718 -4.20787 0
M  V30 8869 H 833.234 0.429455 -3.20839 0
M  V30 8870 H 832.141 -1.88777 -3.22977 0
M  V30 8871 H 833.474 -2.4667 -4.25928 0
M  V30 8872 N 835.127 1.22348 -0.993418 0
M  V30 8873 C 836.074 2.24294 -0.544118 0
M  V30 8874 C 837.044 1.60602 0.42381 0
M  V30 8875 O 838.229 1.87952 0.328453 0
M  V30 8876 C 835.369 3.44837 0.134578 0
M  V30 8877 C 834.482 4.23043 -0.875151 0
M  V30 8878 C 833.617 5.30928 -0.169919 0
M  V30 8879 C 832.656 6.00853 -1.16798 0
M  V30 8880 N 831.793 7.00381 -0.491021 0
M  V30 8881 H 836.633 2.6209 -1.4182 0
M  V30 8882 H 834.17 1.2881 -0.710384 0
M  V30 8883 H 836.128 4.13625 0.544998 0
M  V30 8884 H 834.758 3.07804 0.972446 0
M  V30 8885 H 833.81 3.53546 -1.40389 0
M  V30 8886 H 835.122 4.71237 -1.63516 0
M  V30 8887 H 834.276 6.05972 0.297205 0
M  V30 8888 H 833.015 4.8371 0.622586 0
M  V30 8889 H 832.02 5.24591 -1.64573 0
M  V30 8890 H 833.245 6.50159 -1.96137 0
M  V30 8891 H 831.191 6.55393 0.282037 0
M  V30 8892 H 831.108 7.46584 -1.18947 0
M  V30 8893 H 832.376 7.79486 -0.0467169 0
M  V30 8894 N 836.605 0.766683 1.37694 0
M  V30 8895 C 837.535 0.163432 2.32927 0
M  V30 8896 C 838.516 -0.688861 1.55527 0
M  V30 8897 O 839.701 -0.627363 1.83787 0
M  V30 8898 C 836.831 -0.720416 3.39746 0
M  V30 8899 C 835.785 0.0301718 4.27989 0
M  V30 8900 C 835.111 -0.972788 5.25776 0
M  V30 8901 C 836.411 1.20623 5.0818 0
M  V30 8902 H 838.105 0.958988 2.83626 0
M  V30 8903 H 835.651 0.462601 1.36367 0
M  V30 8904 H 837.604 -1.15221 4.05342 0
M  V30 8905 H 836.328 -1.54844 2.8756 0
M  V30 8906 H 834.987 0.442685 3.63917 0
M  V30 8907 H 834.635 -1.79522 4.69873 0
M  V30 8908 H 834.335 -0.475145 5.85676 0
M  V30 8909 H 835.859 -1.40362 5.94248 0
M  V30 8910 H 837.273 0.851341 5.66944 0
M  V30 8911 H 835.67 1.63561 5.7738 0
M  V30 8912 H 836.74 2.01281 4.41151 0
M  V30 8913 N 838.083 -1.48885 0.516809 0
M  V30 8914 C 839.311 -2.06892 -0.0184017 0
M  V30 8915 C 839.726 -1.37511 -1.29368 0
M  V30 8916 O 839.083 -0.458409 -1.76649 0
M  V30 8917 C 839.134 -3.60566 -0.259673 0
M  V30 8918 O 838.855 -4.27338 0.965065 0
M  V30 8919 C 840.356 -4.35331 -0.836751 0
M  V30 8920 H 837.576 -0.670433 0.0275743 0
M  V30 8921 H 840.12 -1.91455 0.718689 0
M  V30 8922 H 838.275 -3.75653 -0.94678 0
M  V30 8923 H 838.689 -5.19287 0.737647 0
M  V30 8924 H 840.163 -5.43675 -0.955065 0
M  V30 8925 H 840.64 -3.9887 -1.83845 0
M  V30 8926 H 841.246 -4.2489 -0.186622 0
M  V30 8927 N 839.561 -0.251338 -1.55583 0
M  V30 8928 C 840.493 0.679167 -2.18906 0
M  V30 8929 C 841.506 1.13545 -1.16667 0
M  V30 8930 O 842.695 1.06146 -1.4351 0
M  V30 8931 C 839.795 1.93544 -2.78198 0
M  V30 8932 C 838.968 1.62987 -4.05899 0
M  V30 8933 C 838.027 2.73618 -4.49466 0
M  V30 8934 O 837.053 2.40815 -5.15749 0
M  V30 8935 N 838.255 4.03204 -4.1762 0
M  V30 8936 H 841.02 0.137328 -2.99385 0
M  V30 8937 H 838.581 -0.0714754 -1.61742 0
M  V30 8938 H 840.573 2.66804 -3.04299 0
M  V30 8939 H 839.143 2.38695 -2.0185 0
M  V30 8940 H 838.363 0.732237 -3.8734 0
M  V30 8941 H 839.651 1.40041 -4.89148 0
M  V30 8942 H 839.049 4.32686 -3.64416 0
M  V30 8943 H 837.606 4.72916 -4.48547 0
M  V30 8944 N 841.039 1.57585 0.0217189 0
M  V30 8945 C 842.316 1.80779 0.74687 0
M  V30 8946 C 842.696 0.851163 1.9318 0
M  V30 8947 O 842.044 -0.105039 2.28258 0
M  V30 8948 C 842.254 3.28696 1.17302 0
M  V30 8949 C 843.602 3.93871 1.58589 0
M  V30 8950 O 844.626 3.3289 1.2674 0
M  V30 8951 O 843.485 5.01254 2.1773 0
M  V30 8952 H 840.579 0.743666 0.361786 0
M  V30 8953 H 843.125 1.697 -0.00206785 0
M  V30 8954 H 841.897 3.89927 0.327453 0
M  V30 8955 H 841.52 3.44692 1.98174 0
M  V30 8956 N 842.517 -0.29412 1.54831 0
M  V30 8957 C 843.449 -1.38476 1.82639 0
M  V30 8958 C 844.462 -1.46517 0.709694 0
M  V30 8959 O 845.651 -1.48712 0.987269 0
M  V30 8960 C 842.751 -2.76791 1.95551 0
M  V30 8961 C 841.924 -2.91599 3.26019 0
M  V30 8962 C 840.983 -4.10456 3.29261 0
M  V30 8963 O 840.009 -4.02214 4.02756 0
M  V30 8964 N 841.211 -5.21422 2.55145 0
M  V30 8965 H 843.976 -1.14974 2.76769 0
M  V30 8966 H 841.537 -0.484206 1.5449 0
M  V30 8967 H 843.529 -3.5456 1.95113 0
M  V30 8968 H 842.099 -2.93209 1.08384 0
M  V30 8969 H 841.319 -2.00886 3.39173 0
M  V30 8970 H 842.607 -2.98409 4.12104 0
M  V30 8971 H 842.005 -5.31 1.95078 0
M  V30 8972 H 840.562 -5.97501 2.60454 0
M  V30 8973 N 843.995 -1.47404 -0.557645 0
M  V30 8974 C 845.272 -1.44488 -1.31843 0
M  V30 8975 C 845.652 -0.1416 -2.10625 0
M  V30 8976 O 845 0.876908 -2.11004 0
M  V30 8977 C 845.21 -2.69016 -2.22331 0
M  V30 8978 C 846.558 -3.16212 -2.83364 0
M  V30 8979 O 847.582 -2.69741 -2.32634 0
M  V30 8980 O 846.441 -3.96999 -3.75571 0
M  V30 8981 H 843.535 -0.57578 -0.593639 0
M  V30 8982 H 846.081 -1.59605 -0.576584 0
M  V30 8983 H 844.853 -3.55406 -1.63715 0
M  V30 8984 H 844.476 -2.56484 -3.03812 0
M  V30 8985 N 845.473 0.80434 -1.35529 0
M  V30 8986 C 846.719 1.56385 -1.29118 0
M  V30 8987 C 847.052 1.9374 0.133536 0
M  V30 8988 O 846.327 1.6153 1.08344 0
M  V30 8989 C 846.61 2.85097 -2.19981 0
M  V30 8990 C 846.463 2.54204 -3.7108 0
M  V30 8991 C 847.782 3.86817 -2.09907 0
M  V30 8992 H 844.901 0.567382 -0.470368 0
M  V30 8993 H 847.543 0.925235 -1.6595 0
M  V30 8994 H 845.693 3.39594 -1.88701 0
M  V30 8995 H 847.365 2.05872 -4.12813 0
M  V30 8996 H 845.608 1.87364 -3.91251 0
M  V30 8997 H 846.279 3.46068 -4.30048 0
M  V30 8998 H 848.755 3.41725 -2.37409 0
M  V30 8999 H 847.631 4.7465 -2.75678 0
M  V30 9000 H 847.892 4.28663 -1.08171 0
M  V30 9001 N 846.951 1.19563 1.02676 0
M  V30 9002 C 848.228 0.908857 1.73203 0
M  V30 9003 C 848.608 -0.584928 2.02834 0
M  V30 9004 O 847.956 -1.54372 1.68469 0
M  V30 9005 C 848.166 1.77105 3.00724 0
M  V30 9006 C 849.514 2.00667 3.7419 0
M  V30 9007 O 850.538 1.74274 3.10656 0
M  V30 9008 O 849.397 2.4518 4.88415 0
M  V30 9009 H 846.491 0.338909 0.754367 0
M  V30 9010 H 849.037 1.30387 1.08616 0
M  V30 9011 H 847.809 2.78303 2.7507 0
M  V30 9012 H 847.432 1.37546 3.73051 0
M  V30 9013 N 848.429 -1.21819 0.999893 0
M  V30 9014 C 849.675 -1.91035 0.680701 0
M  V30 9015 C 850.008 -1.77582 -0.786021 0
M  V30 9016 O 849.283 -1.14917 -1.56921 0
M  V30 9017 C 849.566 -3.43013 1.0961 0
M  V30 9018 C 849.419 -3.65481 2.6219 0
M  V30 9019 C 850.738 -4.35204 0.654616 0
M  V30 9020 H 847.857 -0.693748 0.248763 0
M  V30 9021 H 850.499 -1.43555 1.24466 0
M  V30 9022 H 848.649 -3.83581 0.616253 0
M  V30 9023 H 850.321 -3.34273 3.17899 0
M  V30 9024 H 848.564 -3.09522 3.03938 0
M  V30 9025 H 849.235 -4.71945 2.86307 0
M  V30 9026 H 851.711 -4.0219 1.06688 0
M  V30 9027 H 850.587 -5.40198 0.973492 0
M  V30 9028 H 850.848 -4.3986 -0.444458 0
M  V30 9029 N 849.908 -0.773975 -1.37286 0
M  V30 9030 C 850.855 -0.159938 -2.30245 0
M  V30 9031 C 851.825 0.687356 -1.51211 0
M  V30 9032 O 853.01 0.639255 -1.79773 0
M  V30 9033 C 850.15 0.711452 -3.37687 0
M  V30 9034 C 849.263 -0.152692 -4.3173 0
M  V30 9035 C 848.398 0.723613 -5.26248 0
M  V30 9036 C 847.437 -0.14293 -6.11933 0
M  V30 9037 N 846.574 0.691479 -6.98687 0
M  V30 9038 H 851.414 -0.958182 -2.82175 0
M  V30 9039 H 848.951 -0.48411 -1.38906 0
M  V30 9040 H 850.909 1.2315 -3.9861 0
M  V30 9041 H 849.539 1.47528 -2.87116 0
M  V30 9042 H 848.591 -0.790574 -3.72094 0
M  V30 9043 H 849.903 -0.821027 -4.91997 0
M  V30 9044 H 849.057 1.31006 -5.92387 0
M  V30 9045 H 847.796 1.42562 -4.66398 0
M  V30 9046 H 846.801 -0.7419 -5.44771 0
M  V30 9047 H 848.026 -0.842305 -6.73856 0
M  V30 9048 H 845.972 1.37806 -6.41362 0
M  V30 9049 H 845.889 0.0804911 -7.55957 0
M  V30 9050 H 847.157 1.26225 -7.69212 0
M  V30 9051 N 851.386 1.48609 -0.524698 0
M  V30 9052 C 852.616 2.06599 0.00741868 0
M  V30 9053 C 853.024 1.3823 1.29186 0
M  V30 9054 O 852.367 0.461962 1.77797 0
M  V30 9055 C 852.429 3.58184 0.307324 0
M  V30 9056 C 852.093 4.48391 -0.882864 0
M  V30 9057 C 853.09 4.88485 -1.77984 0
M  V30 9058 C 850.775 4.90367 -1.08837 0
M  V30 9059 C 852.769 5.69319 -2.86627 0
M  V30 9060 C 850.456 5.70972 -2.17794 0
M  V30 9061 C 851.454 6.10355 -3.06523 0
M  V30 9062 O 851.142 6.89343 -4.13596 0
M  V30 9063 H 850.874 0.675421 -0.0279846 0
M  V30 9064 H 853.428 1.92058 -0.7282 0
M  V30 9065 H 851.658 3.70818 1.09685 0
M  V30 9066 H 853.347 3.98318 0.780886 0
M  V30 9067 H 854.113 4.56682 -1.63299 0
M  V30 9068 H 849.992 4.592 -0.407035 0
M  V30 9069 H 853.536 5.99978 -3.55911 0
M  V30 9070 H 849.433 6.02188 -2.32465 0
M  V30 9071 H 850.201 7.07689 -4.1124 0
M  V30 9072 N 852.864 0.259585 1.55447 0
M  V30 9073 C 854.111 -0.361607 1.99245 0
M  V30 9074 C 854.439 -1.57017 1.14787 0
M  V30 9075 O 853.694 -1.94658 0.201724 0
M  V30 9076 C 853.993 -0.802727 3.48269 0
M  V30 9077 C 853.659 0.299472 4.49904 0
M  V30 9078 C 852.321 0.602157 4.77418 0
M  V30 9079 C 854.673 1.04295 5.10658 0
M  V30 9080 C 852.001 1.65217 5.62957 0
M  V30 9081 C 854.353 2.08257 5.97337 0
M  V30 9082 C 853.017 2.39177 6.23178 0
M  V30 9083 H 852.287 -0.132322 0.72909 0
M  V30 9084 H 854.934 0.370059 1.8789 0
M  V30 9085 H 853.239 -1.61381 3.5702 0
M  V30 9086 H 854.936 -1.29385 3.79553 0
M  V30 9087 H 851.526 0.0534256 4.28567 0
M  V30 9088 H 855.71 0.822358 4.89439 0
M  V30 9089 H 850.966 1.89692 5.81229 0
M  V30 9090 H 855.14 2.6635 6.43452 0
M  V30 9091 H 852.767 3.20677 6.89253 0
M  V30 9092 N 854.342 -1.57594 -0.0133615 0
M  V30 9093 C 855.305 -2.06534 -0.993799 0
M  V30 9094 C 856.305 -0.972267 -1.28077 0
M  V30 9095 O 857.495 -1.23537 -1.22818 0
M  V30 9096 C 854.627 -2.49554 -2.3224 0
M  V30 9097 H 855.82 -2.94419 -0.570741 0
M  V30 9098 H 853.373 -1.54113 -0.260546 0
M  V30 9099 H 854.108 -1.64872 -2.79263 0
M  V30 9100 H 853.893 -3.29371 -2.12737 0
M  V30 9101 H 855.383 -2.8779 -3.026 0
M  V30 9102 N 855.82 0.285905 -1.54985 0
M  V30 9103 C 856.752 1.37505 -1.83371 0
M  V30 9104 C 857.765 1.46138 -0.717454 0
M  V30 9105 O 858.954 1.48186 -0.995142 0
M  V30 9106 C 856.054 2.7575 -1.97016 0
M  V30 9107 C 855.227 2.89866 -3.27561 0
M  V30 9108 C 854.286 4.08704 -3.31433 0
M  V30 9109 O 853.312 4.00073 -4.04883 0
M  V30 9110 N 854.514 5.20062 -2.57907 0
M  V30 9111 H 857.279 1.13505 -2.77375 0
M  V30 9112 H 854.84 0.476006 -1.54744 0
M  V30 9113 H 856.832 3.5352 -1.96991 0
M  V30 9114 H 855.402 2.9263 -1.09938 0
M  V30 9115 H 854.622 1.99085 -3.40234 0
M  V30 9116 H 855.91 2.96219 -4.13681 0
M  V30 9117 H 855.308 5.29958 -1.97891 0
M  V30 9118 H 853.865 5.96111 -2.63619 0
M  V30 9119 N 857.298 1.47698 0.54982 0
M  V30 9120 C 858.208 1.63386 1.68351 0
M  V30 9121 C 859.224 0.516583 1.66155 0
M  V30 9122 O 860.4 0.785088 1.85468 0
M  V30 9123 C 857.465 1.6513 3.04849 0
M  V30 9124 C 856.526 2.88338 3.18056 0
M  V30 9125 C 855.759 2.8999 4.48042 0
M  V30 9126 O 855.982 2.00633 5.3395 0
M  V30 9127 O 854.916 3.81938 4.65196 0
M  V30 9128 H 858.742 2.59329 1.58057 0
M  V30 9129 H 856.327 1.30869 0.72067 0
M  V30 9130 H 858.209 1.68913 3.86065 0
M  V30 9131 H 856.884 0.723555 3.1551 0
M  V30 9132 H 855.791 2.90097 2.36209 0
M  V30 9133 H 857.124 3.80431 3.12302 0
M  V30 9134 N 858.776 -0.797141 1.35954 0
M  V30 9135 C 859.739 -1.89104 1.29508 0
M  V30 9136 C 860.739 -1.59495 0.204444 0
M  V30 9137 O 861.929 -1.68051 0.458746 0
M  V30 9138 C 859.061 -3.25726 1.00576 0
M  V30 9139 H 860.254 -1.96237 2.26785 0
M  V30 9140 H 857.807 -0.994075 1.20614 0
M  V30 9141 H 858.542 -3.24279 0.0372519 0
M  V30 9142 H 858.327 -3.48604 1.79492 0
M  V30 9143 H 859.817 -4.0578 0.986508 0
M  V30 9144 N 860.254 -1.20106 -1.0204 0
M  V30 9145 C 861.184 -0.970301 -2.12385 0
M  V30 9146 C 862.165 0.099378 -1.69809 0
M  V30 9147 O 863.35 -0.057365 -1.94115 0
M  V30 9148 C 860.48 -0.517431 -3.43424 0
M  V30 9149 C 859.434 -1.52992 -3.99722 0
M  V30 9150 C 858.76 -0.933817 -5.26483 0
M  V30 9151 C 860.06 -2.91257 -4.33551 0
M  V30 9152 H 861.754 -1.89316 -2.31948 0
M  V30 9153 H 859.3 -0.911655 -1.11467 0
M  V30 9154 H 861.253 -0.343243 -4.2 0
M  V30 9155 H 859.977 0.441049 -3.23608 0
M  V30 9156 H 858.636 -1.6914 -3.2525 0
M  V30 9157 H 858.284 0.0324763 -5.0299 0
M  V30 9158 H 857.984 -1.60999 -5.65113 0
M  V30 9159 H 859.508 -0.770614 -6.05718 0
M  V30 9160 H 860.922 -2.78642 -5.0103 0
M  V30 9161 H 859.319 -3.55745 -4.83286 0
M  V30 9162 H 860.389 -3.43269 -3.42483 0
M  V30 9163 N 861.732 1.21287 -1.00634 0
M  V30 9164 C 862.96 1.94385 -0.708678 0
M  V30 9165 C 863.375 1.7416 0.728957 0
M  V30 9166 O 862.732 1.04906 1.49335 0
M  V30 9167 C 862.783 3.46755 -1.02193 0
M  V30 9168 O 862.504 3.6631 -2.40309 0
M  V30 9169 C 864.005 4.37014 -0.743867 0
M  V30 9170 H 861.225 0.618136 -0.261052 0
M  V30 9171 H 863.769 1.54067 -1.34475 0
M  V30 9172 H 861.924 3.8499 -0.431441 0
M  V30 9173 H 862.338 4.60393 -2.51274 0
M  V30 9174 H 863.812 5.42621 -1.01321 0
M  V30 9175 H 864.289 4.38017 0.322084 0
M  V30 9176 H 864.895 4.04426 -1.31603 0
M  V30 9177 N 863.21 0.781244 1.36873 0
M  V30 9178 C 864.456 0.350407 1.9975 0
M  V30 9179 C 864.789 -1.07293 1.6187 0
M  V30 9180 O 864.064 -1.73983 0.869491 0
M  V30 9181 C 864.347 0.504834 3.56544 0
M  V30 9182 C 864.2 1.97127 4.04303 0
M  V30 9183 C 865.519 -0.0851272 4.40018 0
M  V30 9184 H 862.638 0.128794 0.725659 0
M  V30 9185 H 865.28 0.98606 1.6241 0
M  V30 9186 H 863.43 -0.0363006 3.88483 0
M  V30 9187 H 865.102 2.57284 3.82887 0
M  V30 9188 H 863.345 2.47676 3.56145 0
M  V30 9189 H 864.016 2.03033 5.13305 0
M  V30 9190 H 866.492 0.376704 4.14391 0
M  V30 9191 H 865.368 0.0530015 5.48874 0
M  V30 9192 H 865.629 -1.17642 4.2616 0
M  V30 9193 N 864.689 -1.48329 0.532571 0
M  V30 9194 C 865.619 -2.32485 -0.217511 0
M  V30 9195 C 866.6 -1.42255 -0.932598 0
M  V30 9196 O 867.785 -1.7114 -0.917873 0
M  V30 9197 C 864.915 -3.23509 -1.26329 0
M  V30 9198 C 863.869 -4.22784 -0.666191 0
M  V30 9199 C 863.195 -5.0296 -1.81482 0
M  V30 9200 C 864.495 -5.21031 0.363813 0
M  V30 9201 H 866.189 -2.95445 0.485014 0
M  V30 9202 H 863.735 -1.42075 0.234694 0
M  V30 9203 H 865.688 -3.81211 -1.79601 0
M  V30 9204 H 864.412 -2.58554 -1.99543 0
M  V30 9205 H 863.071 -3.66272 -0.15498 0
M  V30 9206 H 862.719 -4.34427 -2.5354 0
M  V30 9207 H 862.419 -5.70154 -1.4212 0
M  V30 9208 H 863.943 -5.63514 -2.35126 0
M  V30 9209 H 865.357 -5.73241 -0.0819079 0
M  V30 9210 H 863.754 -5.96292 0.674956 0
M  V30 9211 H 864.824 -4.6801 1.26865 0
M  V30 9212 N 866.167 -0.267825 -1.55308 0
M  V30 9213 C 867.392 0.357487 -2.04296 0
M  V30 9214 C 867.817 1.49222 -1.14518 0
M  V30 9215 O 867.175 1.80741 -0.142292 0
M  V30 9216 C 867.223 0.822899 -3.51085 0
M  V30 9217 O 866.327 1.93078 -3.6441 0
M  V30 9218 H 865.668 0.075025 -0.659748 0
M  V30 9219 H 868.198 -0.399996 -2.00652 0
M  V30 9220 H 868.208 1.12059 -3.92309 0
M  V30 9221 H 866.883 -0.0073562 -4.15899 0
M  V30 9222 H 865.46 1.63618 -3.35087 0
M  V30 9223 N 867.645 1.57599 0.00500368 0
M  V30 9224 C 868.575 2.11143 0.99705 0
M  V30 9225 C 869.556 1.0194 1.3617 0
M  V30 9226 O 870.741 1.29596 1.44632 0
M  V30 9227 C 867.871 2.61062 2.2905 0
M  V30 9228 C 866.825 3.74745 2.0676 0
M  V30 9229 C 866.151 4.10961 3.42075 0
M  V30 9230 C 867.451 5.02222 1.43424 0
M  V30 9231 H 869.145 2.94281 0.551251 0
M  V30 9232 H 866.691 1.41565 0.263715 0
M  V30 9233 H 868.644 2.97146 2.98801 0
M  V30 9234 H 867.368 1.75038 2.75734 0
M  V30 9235 H 866.027 3.39047 1.39436 0
M  V30 9236 H 865.675 3.21968 3.86453 0
M  V30 9237 H 865.375 4.87549 3.27979 0
M  V30 9238 H 866.899 4.49599 4.1315 0
M  V30 9239 H 868.313 5.36109 2.03125 0
M  V30 9240 H 866.71 5.83581 1.39831 0
M  V30 9241 H 867.78 4.83224 0.40285 0
M  V30 9242 N 869.123 -0.277682 1.55134 0
M  V30 9243 C 870.086 -1.32635 1.86924 0
M  V30 9244 C 871.086 -1.42578 0.743507 0
M  V30 9245 O 872.276 -1.4181 1.01171 0
M  V30 9246 C 869.408 -2.70832 2.07034 0
M  V30 9247 H 870.601 -1.0568 2.80663 0
M  V30 9248 H 868.154 -0.515517 1.47554 0
M  V30 9249 H 868.889 -3.02974 1.15661 0
M  V30 9250 H 868.674 -2.65001 2.88993 0
M  V30 9251 H 870.164 -3.46611 2.32918 0
M  V30 9252 O 870.64 -1.55849 -0.423486 0
M  V30 9253 H 871.331 -1.61026 -1.07658 0
M  V30 END ATOM
M  V30 BEGIN BOND
M  V30 END BOND
M  V30 END CTAB
M  END
$$$$
