drugbank_target|P10515 Dihydrolipoyllysine-residue acetyltransferase component of pyruvate dehydrogenase complex, mitochondrial (DB00157; DB03758; DB03760)
 OpenBabel12092119233D

  0  0  0     0  0            999 V3000
M  V30 BEGIN CTAB
M  V30 COUNTS 9810 9927 0 0 0
M  V30 BEGIN ATOM
M  V30 1 H -0.908 1.98254 -0.117106 0
M  V30 2 N 0 1.576 0 0
M  V30 3 C 0.933 2.03868 1.02534 0
M  V30 4 C 1.911 0.928543 1.3348 0
M  V30 5 O 3.095 1.19667 1.45644 0
M  V30 6 C 0.222 2.43627 2.35294 0
M  V30 7 C -0.732 3.65373 2.2001 0
M  V30 8 S 0.101 5.13292 1.52614 0
M  V30 9 C 1.257 5.56322 2.86805 0
M  V30 10 H 1.49 2.90518 0.631377 0
M  V30 11 H -0.977 1.52953 0.210867 0
M  V30 12 H 0.981 2.67203 3.11629 0
M  V30 13 H -0.358 1.57376 2.7183 0
M  V30 14 H -1.165 3.90944 3.18086 0
M  V30 15 H -1.563 3.418 1.51819 0
M  V30 16 H 0.729 5.58782 3.83104 0
M  V30 17 H 1.672 6.56266 2.65933 0
M  V30 18 H 2.08 4.83886 2.90714 0
M  V30 19 N 1.4781 -0.272755 1.55222 0
M  V30 20 C 2.7241 -1.00172 1.77023 0
M  V30 21 C 3.0791 -1.83928 0.564633 0
M  V30 22 O 2.3721 -1.86416 -0.442674 0
M  V30 23 C 2.5661 -1.91642 3.01675 0
M  V30 24 C 2.3951 -1.16888 4.34243 0
M  V30 25 C 1.1651 -0.884464 4.97499 0
M  V30 26 C 3.3631 -0.55919 5.11251 0
M  V30 27 N 1.3451 -0.11015 6.13801 0
M  V30 28 C 2.7161 0.0809469 6.19947 0
M  V30 29 C 4.7711 -0.467058 4.95705 0
M  V30 30 C 3.4741 0.804335 7.14789 0
M  V30 31 C 5.5001 0.242739 5.90902 0
M  V30 32 C 4.8621 0.871613 6.98987 0
M  V30 33 H 0.9611 -0.348529 0.700037 0
M  V30 34 H 3.5451 -0.277365 1.92714 0
M  V30 35 H 1.7161 -2.61303 2.87359 0
M  V30 36 H 3.4481 -2.57901 3.1188 0
M  V30 37 H 0.2031 -1.18979 4.58411 0
M  V30 38 H 0.6271 0.264344 6.76484 0
M  V30 39 H 5.2691 -0.93894 4.12242 0
M  V30 40 H 2.9871 1.2879 7.97771 0
M  V30 41 H 6.5731 0.314347 5.8095 0
M  V30 42 H 5.4531 1.4121 7.71381 0
M  V30 43 N 2.9562 -1.48159 -0.537278 0
M  V30 44 C 4.3722 -1.34118 -0.865129 0
M  V30 45 C 4.5722 -0.346678 -1.98495 0
M  V30 46 O 3.6282 0.234715 -2.51407 0
M  V30 47 C 4.9412 -2.73963 -1.23954 0
M  V30 48 C 6.4892 -2.82397 -1.34984 0
M  V30 49 C 6.9642 -4.22928 -1.75772 0
M  V30 50 N 8.4552 -4.25566 -1.82887 0
M  V30 51 C 9.1902 -5.31235 -2.15817 0
M  V30 52 N 8.6862 -6.47189 -2.47222 0
M  V30 53 N 10.4792 -5.18624 -2.16761 0
M  V30 54 H 2.6302 -2.1144 0.201715 0
M  V30 55 H 4.8932 -0.947598 0.0275949 0
M  V30 56 H 4.5992 -3.48264 -0.490381 0
M  V30 57 H 4.4732 -3.0702 -2.19132 0
M  V30 58 H 6.8602 -2.08356 -2.08978 0
M  V30 59 H 6.9412 -2.5297 -0.379448 0
M  V30 60 H 6.5852 -4.97482 -1.02341 0
M  V30 61 H 6.5152 -4.49794 -2.73848 0
M  V30 62 H 9.0062 -3.41924 -1.60924 0
M  V30 63 H 9.3192 -7.23564 -2.71433 0
M  V30 64 H 7.6642 -6.50476 -2.44757 0
M  V30 65 H 10.8552 -4.27056 -1.91679 0
M  V30 66 H 11.0282 -6.01078 -2.42093 0
M  V30 67 N 4.4343 0.785586 -1.36625 0
M  V30 68 C 5.6803 1.54591 -1.31261 0
M  V30 69 C 6.0133 1.93906 0.106823 0
M  V30 70 O 5.2883 1.63007 1.06108 0
M  V30 71 C 5.5713 2.82038 -2.23889 0
M  V30 72 C 5.4243 2.49066 -3.74548 0
M  V30 73 C 6.7433 3.83887 -2.15217 0
M  V30 74 H 3.8623 0.560846 -0.478143 0
M  V30 75 H 6.5043 0.902278 -1.67209 0
M  V30 76 H 4.6543 3.36961 -1.93363 0
M  V30 77 H 6.3263 2.00164 -4.15611 0
M  V30 78 H 4.5693 1.81954 -3.93796 0
M  V30 79 H 5.2403 3.40109 -4.34776 0
M  V30 80 H 7.7163 3.38421 -2.42096 0
M  V30 81 H 6.5923 4.70806 -2.82193 0
M  V30 82 H 6.8533 4.27131 -1.14068 0
M  V30 83 N 5.9124 1.20967 1.01018 0
M  V30 84 C 7.1524 1.03511 1.76252 0
M  V30 85 C 7.5164 -0.42458 1.87247 0
M  V30 86 O 8.7174 -0.719508 2.58991 0
M  V30 87 C 6.9884 1.70726 3.13986 0
M  V30 88 S 8.5474 1.68458 4.05176 0
M  V30 89 H 5.3654 0.371037 0.606508 0
M  V30 90 H 7.9674 1.53628 1.20908 0
M  V30 91 H 6.6714 2.76128 3.03614 0
M  V30 92 H 6.2024 1.20767 3.74405 0
M  V30 93 H 8.2174 0.721987 4.90919 0
M  V30 94 N 7.3905 -1.2043 1.01659 0
M  V30 95 C 8.3535 -2.21433 0.591616 0
M  V30 96 C 9.3535 -1.57203 -0.338226 0
M  V30 97 O 10.5435 -1.73737 -0.126918 0
M  V30 98 C 7.6755 -3.40628 -0.136058 0
M  V30 99 H 8.8685 -2.60545 1.48514 0
M  V30 100 H 6.4215 -1.33893 0.806379 0
M  V30 101 H 7.1565 -3.07019 -1.04449 0
M  V30 102 H 6.9415 -3.88475 0.531917 0
M  V30 103 H 8.4315 -4.15475 -0.420735 0
M  V30 104 N 8.8686 -0.792821 -1.36206 0
M  V30 105 C 10.2846 -0.474903 -1.52371 0
M  V30 106 C 10.4846 1.00622 -1.74578 0
M  V30 107 O 9.5406 1.79162 -1.77924 0
M  V30 108 C 10.8536 -1.3083 -2.70747 0
M  V30 109 C 12.4016 -1.30234 -2.84619 0
M  V30 110 C 12.8766 -2.11956 -4.06004 0
M  V30 111 N 14.3676 -2.09419 -4.13156 0
M  V30 112 C 15.1026 -2.69419 -5.06163 0
M  V30 113 N 14.5986 -3.3829 -6.04592 0
M  V30 114 N 16.3916 -2.59134 -4.98804 0
M  V30 115 H 8.5426 -1.75222 -1.20046 0
M  V30 116 H 10.8056 -0.745024 -0.586211 0
M  V30 117 H 10.5116 -2.35881 -2.6087 0
M  V30 118 H 10.3856 -0.95196 -3.6499 0
M  V30 119 H 12.7726 -0.259748 -2.93955 0
M  V30 120 H 12.8536 -1.69847 -1.91274 0
M  V30 121 H 12.4976 -3.16248 -3.97429 0
M  V30 122 H 12.4276 -1.69711 -4.98503 0
M  V30 123 H 14.9186 -1.59297 -3.42685 0
M  V30 124 H 15.2316 -3.81394 -6.7213 0
M  V30 125 H 13.5766 -3.42393 -6.04807 0
M  V30 126 H 16.7676 -2.04927 -4.20859 0
M  V30 127 H 16.9406 -3.06185 -5.711 0
M  V30 128 N 10.3467 1.47872 -0.545128 0
M  V30 129 C 11.7627 1.5829 -0.204032 0
M  V30 130 C 11.9627 1.54529 1.29317 0
M  V30 131 O 11.0187 1.44232 2.07252 0
M  V30 132 C 12.3317 2.89304 -0.819987 0
M  V30 133 C 13.8797 3.02864 -0.790105 0
M  V30 134 C 14.3547 4.3656 -1.38491 0
M  V30 135 N 15.8457 4.43165 -1.34755 0
M  V30 136 C 16.5807 5.45153 -1.77753 0
M  V30 137 N 16.0767 6.54016 -2.2855 0
M  V30 138 N 17.8697 5.36125 -1.68897 0
M  V30 139 H 10.0207 1.4856 -1.51802 0
M  V30 140 H 12.2837 0.706305 -0.632327 0
M  V30 141 H 11.9897 2.97757 -1.87173 0
M  V30 142 H 11.8637 3.75957 -0.305915 0
M  V30 143 H 14.2507 2.94014 0.252913 0
M  V30 144 H 14.3317 2.17782 -1.34181 0
M  V30 145 H 13.9757 4.46164 -2.42693 0
M  V30 146 H 13.9057 5.20353 -0.808754 0
M  V30 147 H 16.3967 3.65083 -0.975855 0
M  V30 148 H 16.7097 7.27994 -2.59314 0
M  V30 149 H 15.0547 6.54938 -2.32553 0
M  V30 150 H 18.2457 4.49975 -1.28998 0
M  V30 151 H 18.4187 6.15472 -2.02726 0
M  V30 152 N 11.8248 0.280983 1.55075 0
M  V30 153 C 12.7878 -0.590896 2.21452 0
M  V30 154 C 13.7878 -1.07682 1.19421 0
M  V30 155 O 14.9778 -0.97605 1.44288 0
M  V30 156 C 12.1098 -1.81587 2.88511 0
M  V30 157 H 13.3028 -0.0112554 2.99898 0
M  V30 158 H 10.8558 0.0316438 1.56268 0
M  V30 159 H 11.5908 -2.43587 2.14093 0
M  V30 160 H 11.3758 -1.4753 3.63287 0
M  V30 161 H 12.8658 -2.43575 3.39206 0
M  V30 162 N 13.3029 -1.57598 0.00835791 0
M  V30 163 C 14.2349 -2.05811 -1.00868 0
M  V30 164 C 15.2479 -0.977579 -1.30182 0
M  V30 165 O 16.4369 -1.25421 -1.27011 0
M  V30 166 C 13.5369 -2.45016 -2.34137 0
M  V30 167 C 12.7099 -3.75903 -2.23643 0
M  V30 168 C 11.7689 -4.01884 -3.3967 0
M  V30 169 O 10.7949 -4.72433 -3.17483 0
M  V30 170 N 11.9969 -3.50432 -4.62793 0
M  V30 171 H 14.7619 -2.93684 -0.597458 0
M  V30 172 H 12.3229 -1.60909 -0.178852 0
M  V30 173 H 14.3149 -2.59506 -3.10546 0
M  V30 174 H 12.8849 -1.62618 -2.66972 0
M  V30 175 H 12.1049 -3.7141 -1.32091 0
M  V30 176 H 13.3929 -4.61695 -2.13812 0
M  V30 177 H 12.7909 -2.93317 -4.83716 0
M  V30 178 H 11.3479 -3.70236 -5.3644 0
M  V30 179 N 14.781 0.264519 -1.55364 0
M  V30 180 C 15.729 1.34702 -1.89626 0
M  V30 181 C 16.723 1.50712 -0.773459 0
M  V30 182 O 17.929 1.52395 -0.957897 0
M  V30 183 H 14.304 0.450682 -0.601988 0
M  V30 184 H 16.275 1.0306 -2.80038 0
M  V30 185 C 15.024 2.6989 -2.19214 0
M  V30 186 H 14.347 2.58365 -3.05103 0
M  V30 187 H 15.787 3.44553 -2.47102 0
M  V30 188 C 14.246 3.21637 -1.00254 0
M  V30 189 O 14.776 4.00973 -0.241501 0
M  V30 190 N 12.982 2.7943 -0.797938 0
M  V30 191 H 12.529 2.15026 -1.4185 0
M  V30 192 H 12.487 3.144 -0.00363422 0
M  V30 193 N 16.2591 1.48442 0.529413 0
M  V30 194 C 17.5051 1.5672 1.28711 0
M  V30 195 C 17.8381 0.2406 1.92704 0
M  V30 196 O 17.1131 -0.753454 1.79313 0
M  V30 197 C 17.3961 2.70587 2.37603 0
M  V30 198 C 17.2491 4.12953 1.78297 0
M  V30 199 C 18.5681 2.80212 3.39366 0
M  V30 200 H 15.6871 0.570474 0.466613 0
M  V30 201 H 18.3291 1.80617 0.589706 0
M  V30 202 H 16.4791 2.50342 2.97088 0
M  V30 203 H 18.1511 4.44639 1.22858 0
M  V30 204 H 16.3941 4.19927 1.0883 0
M  V30 205 H 17.0651 4.88448 2.57144 0
M  V30 206 H 19.5411 2.98553 2.89836 0
M  V30 207 H 18.4171 3.61611 4.12951 0
M  V30 208 H 18.6781 1.88393 3.99951 0
M  V30 209 N 17.7372 -0.778329 1.37039 0
M  V30 210 C 18.7002 -1.87301 1.32102 0
M  V30 211 C 19.7002 -1.59198 0.226405 0
M  V30 212 O 20.8902 -1.67403 0.481861 0
M  V30 213 C 18.0222 -3.24309 1.05055 0
M  V30 214 H 19.2152 -1.93093 2.29467 0
M  V30 215 H 16.7682 -0.977358 1.21973 0
M  V30 216 H 17.5032 -3.24196 0.0819373 0
M  V30 217 H 17.2882 -3.46098 1.84279 0
M  V30 218 H 18.7782 -4.04382 1.04234 0
M  V30 219 N 19.2153 -1.21501 -1.00376 0
M  V30 220 C 20.6263 -1.03146 -1.55621 0
M  V30 221 C 20.9773 0.408375 -1.91903 0
M  V30 222 O 20.1023 1.29177 -1.73616 0
M  V30 223 C 20.6973 -1.86612 -2.82775 0
M  V30 224 C 19.2563 -1.72586 -3.34501 0
M  V30 225 C 18.4033 -1.83747 -2.07683 0
M  V30 226 H 21.3543 -1.35505 -0.826081 0
M  V30 227 H 21.3753 -1.3771 -3.54706 0
M  V30 228 H 20.8873 -2.91399 -2.56336 0
M  V30 229 H 18.9883 -0.704877 -3.65872 0
M  V30 230 H 19.1013 -2.54623 -4.05837 0
M  V30 231 H 17.4653 -1.27069 -2.20739 0
M  V30 232 H 18.2483 -2.90044 -1.83655 0
M  V30 233 N 20.6934 1.19889 -1.02296 0
M  V30 234 C 21.9394 1.89973 -0.726759 0
M  V30 235 C 22.2944 1.7776 0.73614 0
M  V30 236 O 21.5874 1.15523 1.52856 0
M  V30 237 C 21.7814 3.39883 -1.10518 0
M  V30 238 C 21.6104 3.66684 -2.60332 0
M  V30 239 C 20.3804 3.85045 -3.27213 0
M  V30 240 C 22.5784 3.68727 -3.58532 0
M  V30 241 N 20.5604 3.99422 -4.66192 0
M  V30 242 C 21.9314 3.88604 -4.83101 0
M  V30 243 C 23.9864 3.51722 -3.52414 0
M  V30 244 C 22.6894 3.9324 -6.02292 0
M  V30 245 C 24.7154 3.57632 -4.71013 0
M  V30 246 C 24.0774 3.77988 -5.94394 0
M  V30 247 H 20.1764 0.714551 -0.317712 0
M  V30 248 H 22.7604 1.44123 -1.30907 0
M  V30 249 H 20.9314 3.8447 -0.551142 0
M  V30 250 H 22.6634 3.97464 -0.761853 0
M  V30 251 H 19.4184 3.83689 -2.77632 0
M  V30 252 H 19.8424 4.10473 -5.38368 0
M  V30 253 H 24.4844 3.34945 -2.58015 0
M  V30 254 H 22.2024 4.08811 -6.97065 0
M  V30 255 H 25.7884 3.45773 -4.67902 0
M  V30 256 H 24.6684 3.82428 -6.8463 0
M  V30 257 N 22.1715 0.800033 1.35784 0
M  V30 258 C 23.1345 0.211565 2.28221 0
M  V30 259 C 24.1345 -0.59728 1.49296 0
M  V30 260 O 25.3245 -0.416721 1.69142 0
M  V30 261 C 22.4565 -0.705846 3.33513 0
M  V30 262 H 23.6495 1.02677 2.81776 0
M  V30 263 H 21.2025 0.570211 1.45528 0
M  V30 264 H 21.9375 -1.54498 2.85133 0
M  V30 265 H 21.7225 -0.127655 3.91892 0
M  V30 266 H 23.2125 -1.11211 4.02519 0
M  V30 267 N 23.6496 -1.47581 0.552962 0
M  V30 268 C 24.8976 -2.02082 0.0272703 0
M  V30 269 C 25.2186 -1.4301 -1.32563 0
M  V30 270 O 24.4886 -0.603745 -1.86365 0
M  V30 271 H 23.0686 -0.746966 0.00709182 0
M  V30 272 H 25.7306 -1.81033 0.722008 0
M  V30 273 H 24.8266 -3.12034 -0.0639951 0
M  V30 274 N 25.1277 -0.289203 -1.54924 0
M  V30 275 C 26.0577 0.58549 -2.2604 0
M  V30 276 C 27.0387 1.14753 -1.25562 0
M  V30 277 O 28.2237 1.17906 -1.54311 0
M  V30 278 C 25.3537 1.76305 -2.99222 0
M  V30 279 C 24.3077 1.33191 -4.06748 0
M  V30 280 C 23.6337 2.5937 -4.6758 0
M  V30 281 C 24.9337 0.471775 -5.20165 0
M  V30 282 H 26.6277 -0.00763532 -2.99399 0
M  V30 283 H 24.1737 -0.00511229 -1.43999 0
M  V30 284 H 26.1267 2.38097 -3.47689 0
M  V30 285 H 24.8507 2.38223 -2.23422 0
M  V30 286 H 23.5097 0.737121 -3.59113 0
M  V30 287 H 23.1577 3.19576 -3.88433 0
M  V30 288 H 22.8577 2.31228 -5.40192 0
M  V30 289 H 24.3817 3.21985 -5.18804 0
M  V30 290 H 25.7957 0.995056 -5.64599 0
M  V30 291 H 24.1927 0.284639 -5.99425 0
M  V30 292 H 25.2627 -0.506041 -4.82252 0
M  V30 293 N 26.6058 1.57591 -0.0167156 0
M  V30 294 C 27.5158 2.1291 0.98521 0
M  V30 295 C 28.5318 1.07834 1.36557 0
M  V30 296 O 29.7078 1.39826 1.44951 0
M  V30 297 C 26.7728 2.63512 2.25305 0
M  V30 298 C 25.8338 3.83256 1.93426 0
M  V30 299 C 25.0668 4.31435 3.14165 0
M  V30 300 O 25.2898 3.78851 4.26413 0
M  V30 301 O 24.2238 5.23416 2.97186 0
M  V30 302 H 28.0498 2.98772 0.544888 0
M  V30 303 H 25.6348 1.48012 0.203141 0
M  V30 304 H 27.5168 2.96183 2.99756 0
M  V30 305 H 26.1918 1.8074 2.68542 0
M  V30 306 H 25.0988 3.55531 1.16398 0
M  V30 307 H 26.4318 4.67153 1.55013 0
M  V30 308 N 28.0839 -0.256276 1.55502 0
M  V30 309 C 29.0469 -1.30047 1.88734 0
M  V30 310 C 30.0469 -1.4154 0.763086 0
M  V30 311 O 31.2369 -1.40403 1.03115 0
M  V30 312 C 28.3689 -2.67953 2.10747 0
M  V30 313 H 29.5619 -1.01802 2.82093 0
M  V30 314 H 27.1149 -0.495134 1.4825 0
M  V30 315 H 27.8499 -3.01351 1.19825 0
M  V30 316 H 27.6349 -2.60993 2.92617 0
M  V30 317 H 29.1249 -3.43368 2.37673 0
M  V30 318 N 29.562 -1.4872 -0.521534 0
M  V30 319 C 30.978 -1.35028 -0.850855 0
M  V30 320 C 31.178 -0.367712 -1.98116 0
M  V30 321 O 30.234 0.208037 -2.51642 0
M  V30 322 C 31.547 -2.75263 -1.21041 0
M  V30 323 C 33.095 -2.83813 -1.31981 0
M  V30 324 C 33.57 -4.24769 -1.71276 0
M  V30 325 N 35.061 -4.27482 -1.78363 0
M  V30 326 C 35.796 -5.33494 -2.1017 0
M  V30 327 N 35.292 -6.49775 -2.40343 0
M  V30 328 N 37.085 -5.20894 -2.11248 0
M  V30 329 H 29.236 -2.11214 0.22413 0
M  V30 330 H 31.499 -0.947252 0.0376439 0
M  V30 331 H 31.205 -3.48765 -0.453415 0
M  V30 332 H 31.079 -3.09327 -2.15863 0
M  V30 333 H 33.466 -2.10561 -2.06756 0
M  V30 334 H 33.547 -2.53358 -0.352596 0
M  V30 335 H 33.191 -4.9854 -0.970588 0
M  V30 336 H 33.121 -4.52673 -2.69062 0
M  V30 337 H 35.612 -3.43611 -1.57288 0
M  V30 338 H 35.925 -7.26402 -2.63743 0
M  V30 339 H 34.27 -6.53035 -2.37844 0
M  V30 340 H 37.461 -4.29065 -1.87139 0
M  V30 341 H 37.634 -6.03612 -2.35704 0
M  V30 342 N 31.0401 0.771051 -1.3745 0
M  V30 343 C 32.2861 1.53109 -1.339 0
M  V30 344 C 32.6411 1.9225 0.0758401 0
M  V30 345 O 31.9341 1.61264 1.03463 0
M  V30 346 C 32.1281 2.80676 -2.2126 0
M  V30 347 C 31.9571 2.54003 -3.71096 0
M  V30 348 C 30.7271 2.48097 -4.402 0
M  V30 349 C 32.9251 2.21953 -4.63941 0
M  V30 350 N 30.9071 2.13515 -5.75573 0
M  V30 351 C 32.2781 1.97516 -5.87697 0
M  V30 352 C 34.3331 2.08114 -4.5232 0
M  V30 353 C 33.0361 1.60638 -7.01133 0
M  V30 354 C 35.0621 1.72636 -5.65642 0
M  V30 355 C 34.4241 1.4906 -6.88448 0
M  V30 356 H 30.5231 0.56055 -0.54526 0
M  V30 357 H 33.1071 0.899472 -1.72678 0
M  V30 358 H 31.2781 3.41674 -1.84698 0
M  V30 359 H 33.0101 3.46578 -2.08963 0
M  V30 360 H 29.7651 2.63974 -3.93211 0
M  V30 361 H 30.1891 1.98919 -6.47117 0
M  V30 362 H 34.8311 2.25024 -3.57944 0
M  V30 363 H 32.5491 1.42467 -7.95443 0
M  V30 364 H 36.1351 1.62586 -5.58621 0
M  V30 365 H 35.0151 1.22014 -7.7465 0
M  V30 366 N 32.5182 1.22032 0.997298 0
M  V30 367 C 33.7462 1.06841 1.7718 0
M  V30 368 C 34.1612 -0.381325 1.84909 0
M  V30 369 O 33.5182 -1.26437 1.31605 0
M  V30 370 C 33.5692 1.66814 3.20711 0
M  V30 371 O 33.2902 3.06116 3.13408 0
M  V30 372 C 34.7912 1.56838 4.14628 0
M  V30 373 H 32.0112 0.374782 0.556578 0
M  V30 374 H 34.5552 1.61532 1.2541 0
M  V30 375 H 32.7102 1.16196 3.69564 0
M  V30 376 H 33.1242 3.34926 4.0364 0
M  V30 377 H 34.5982 2.03532 5.13107 0
M  V30 378 H 35.0752 0.524155 4.36061 0
M  V30 379 H 35.6812 2.06741 3.7167 0
M  V30 380 N 33.9963 -1.19345 1.0293 0
M  V30 381 C 34.9593 -2.20793 0.615069 0
M  V30 382 C 35.9593 -1.57553 -0.321533 0
M  V30 383 O 37.1493 -1.73862 -0.108483 0
M  V30 384 C 34.2813 -3.40754 -0.0999222 0
M  V30 385 H 35.4743 -2.58955 1.51269 0
M  V30 386 H 33.0273 -1.3303 0.820534 0
M  V30 387 H 33.7623 -3.0811 -1.01187 0
M  V30 388 H 33.5473 -3.87889 0.57309 0
M  V30 389 H 35.0373 -4.15898 -0.376645 0
M  V30 390 N 35.4744 -0.807222 -1.35358 0
M  V30 391 C 36.4044 -0.232509 -2.3234 0
M  V30 392 C 37.3854 0.642386 -1.57504 0
M  V30 393 O 38.5704 0.572526 -1.85569 0
M  V30 394 C 35.7004 0.619238 -3.41735 0
M  V30 395 C 34.6544 -0.157215 -4.27711 0
M  V30 396 C 33.9804 0.816273 -5.28433 0
M  V30 397 C 35.2804 -1.35656 -5.04376 0
M  V30 398 H 36.9744 -1.04276 -2.80654 0
M  V30 399 H 34.5204 -0.50288 -1.34934 0
M  V30 400 H 36.4734 1.03137 -4.08584 0
M  V30 401 H 35.1974 1.46239 -2.92031 0
M  V30 402 H 33.8564 -0.550525 -3.62443 0
M  V30 403 H 33.5044 1.65494 -4.74996 0
M  V30 404 H 33.2044 0.301067 -5.86828 0
M  V30 405 H 34.7284 1.22659 -5.98153 0
M  V30 406 H 36.1424 -1.01927 -5.64166 0
M  V30 407 H 34.5394 -1.8063 -5.7227 0
M  V30 408 H 35.6094 -2.14288 -4.34981 0
M  V30 409 N 36.9525 1.47285 -0.560781 0
M  V30 410 C 37.8845 2.28118 0.222438 0
M  V30 411 C 38.8975 1.37219 0.876056 0
M  V30 412 O 40.0865 1.62011 0.749307 0
M  V30 413 C 37.1865 3.1159 1.33285 0
M  V30 414 C 36.3595 4.30473 0.77534 0
M  V30 415 C 35.4185 4.95513 1.77069 0
M  V30 416 O 34.4445 5.53792 1.31539 0
M  V30 417 N 35.6465 4.90531 3.10418 0
M  V30 418 H 38.4115 2.95976 -0.470958 0
M  V30 419 H 35.9725 1.56955 -0.39709 0
M  V30 420 H 37.9645 3.51967 1.99752 0
M  V30 421 H 36.5345 2.45951 1.92943 0
M  V30 422 H 35.7545 3.94144 -0.0662113 0
M  V30 423 H 37.0425 5.07362 0.382272 0
M  V30 424 H 36.4405 4.44389 3.5005 0
M  V30 425 H 34.9975 5.34917 3.72434 0
M  V30 426 N 38.4306 0.297415 1.54768 0
M  V30 427 C 39.3406 -0.58983 2.27064 0
M  V30 428 C 40.3566 -1.15144 1.30453 0
M  V30 429 O 41.5326 -1.17699 1.63428 0
M  V30 430 C 38.5976 -1.74714 2.9946 0
M  V30 431 C 37.6586 -1.21997 4.11601 0
M  V30 432 C 36.8916 -2.32212 4.80535 0
M  V30 433 O 37.1146 -3.52036 4.48806 0
M  V30 434 O 36.0486 -1.99106 5.68014 0
M  V30 435 H 39.8746 -0.00348199 3.037 0
M  V30 436 H 37.4596 0.0640035 1.49263 0
M  V30 437 H 39.3416 -2.42147 3.44881 0
M  V30 438 H 38.0166 -2.32016 2.25722 0
M  V30 439 H 36.9236 -0.511458 3.70587 0
M  V30 440 H 38.2566 -0.692419 4.87305 0
M  V30 441 N 39.9087 -1.5758 0.0250728 0
M  V30 442 C 41.1547 -1.91917 -0.655413 0
M  V30 443 C 41.4877 -0.901433 -1.72011 0
M  V30 444 O 40.7627 0.0764069 -1.9435 0
M  V30 445 C 41.0457 -3.36751 -1.27558 0
M  V30 446 C 40.8987 -4.49258 -0.220719 0
M  V30 447 C 42.2177 -3.81469 -2.19475 0
M  V30 448 H 39.3367 -0.697925 -0.23679 0
M  V30 449 H 41.9787 -1.89825 0.0815036 0
M  V30 450 H 40.1287 -3.38664 -1.90365 0
M  V30 451 H 41.8007 -4.59478 0.409601 0
M  V30 452 H 40.0437 -4.31415 0.454264 0
M  V30 453 H 40.7147 -5.47618 -0.694175 0
M  V30 454 H 43.1907 -3.81266 -1.66659 0
M  V30 455 H 42.0667 -4.83512 -2.59822 0
M  V30 456 H 42.3277 -3.16744 -3.08424 0
M  V30 457 N 41.3868 0.248026 -1.55636 0
M  V30 458 C 42.7978 0.817177 -1.67866 0
M  V30 459 C 43.1488 1.86069 -0.622322 0
M  V30 460 O 42.2738 2.15157 0.231618 0
M  V30 461 C 42.8688 1.489 -3.04326 0
M  V30 462 C 41.4278 2.00587 -3.185 0
M  V30 463 C 40.5748 0.856573 -2.63739 0
M  V30 464 H 43.5258 0.0238579 -1.58682 0
M  V30 465 H 43.5468 2.35698 -2.98708 0
M  V30 466 H 43.0588 0.729279 -3.81186 0
M  V30 467 H 41.1598 2.79443 -2.4646 0
M  V30 468 H 41.2728 2.20402 -4.25393 0
M  V30 469 H 39.6368 1.25678 -2.21534 0
M  V30 470 H 40.4198 0.109953 -3.43124 0
M  V30 471 N 42.8649 1.48995 0.513639 0
M  V30 472 C 44.1129 1.57531 1.26604 0
M  V30 473 C 44.4339 0.258236 1.93283 0
M  V30 474 O 43.7039 -0.721502 1.8213 0
M  V30 475 H 42.2839 0.580387 0.470276 0
M  V30 476 H 44.9459 1.85552 0.596373 0
M  V30 477 H 44.0419 2.36486 2.03669 0
M  V30 478 N 44.343 -0.763751 1.37857 0
M  V30 479 C 45.571 -1.55293 1.36718 0
M  V30 480 C 45.986 -1.88745 -0.0455434 0
M  V30 481 O 45.343 -1.52039 -1.00947 0
M  V30 482 C 45.394 -2.85831 2.2132 0
M  V30 483 O 45.115 -2.5381 3.57089 0
M  V30 484 C 46.616 -3.80023 2.28249 0
M  V30 485 H 43.836 -0.480841 0.468009 0
M  V30 486 H 46.38 -0.946009 1.81303 0
M  V30 487 H 44.535 -3.42926 1.80223 0
M  V30 488 H 44.949 -3.37459 4.01524 0
M  V30 489 H 46.423 -4.68599 2.91752 0
M  V30 490 H 46.9 -4.1973 1.2932 0
M  V30 491 H 47.506 -3.28855 2.69693 0
M  V30 492 N 45.8211 -1.22559 -0.990812 0
M  V30 493 C 47.2321 -1.04791 -1.54518 0
M  V30 494 C 47.5831 0.387998 -1.92325 0
M  V30 495 O 46.7081 1.27328 -1.74976 0
M  V30 496 C 47.3031 -1.896 -2.80779 0
M  V30 497 C 45.8621 -1.76124 -3.32652 0
M  V30 498 C 45.0091 -1.8594 -2.05722 0
M  V30 499 H 47.9601 -1.36374 -0.811662 0
M  V30 500 H 47.9811 -1.41464 -3.53225 0
M  V30 501 H 47.4931 -2.94101 -2.53231 0
M  V30 502 H 45.5941 -0.743643 -3.65104 0
M  V30 503 H 45.7071 -2.58913 -4.03114 0
M  V30 504 H 44.0711 -1.29403 -2.19379 0
M  V30 505 H 44.8541 -2.91976 -1.80568 0
M  V30 506 N 47.2992 1.18797 -1.03562 0
M  V30 507 C 48.7152 1.40671 -0.753917 0
M  V30 508 C 48.9152 1.9043 0.658686 0
M  V30 509 O 47.9712 2.08538 1.42366 0
M  V30 510 C 49.2842 2.41192 -1.79574 0
M  V30 511 C 50.8322 2.54928 -1.81606 0
M  V30 512 C 51.3072 3.58709 -2.84766 0
M  V30 513 N 52.7982 3.66212 -2.83625 0
M  V30 514 C 53.5332 4.46225 -3.60098 0
M  V30 515 N 53.0292 5.29888 -4.46308 0
M  V30 516 N 54.8222 4.40939 -3.4861 0
M  V30 517 H 46.9732 0.848221 -1.94728 0
M  V30 518 H 49.2362 0.435081 -0.842264 0
M  V30 519 H 48.9422 2.11669 -2.80872 0
M  V30 520 H 48.8162 3.40467 -1.62365 0
M  V30 521 H 51.2032 2.83771 -0.809817 0
M  V30 522 H 51.2842 1.55784 -2.02891 0
M  V30 523 H 50.9282 3.30607 -3.85566 0
M  V30 524 H 50.8582 4.57519 -2.60737 0
M  V30 525 H 53.3492 3.06466 -2.21105 0
M  V30 526 H 53.6622 5.88078 -5.01382 0
M  V30 527 H 52.0072 5.29326 -4.50377 0
M  V30 528 H 55.1982 3.74624 -2.80668 0
M  V30 529 H 55.3712 5.03056 -4.08459 0
M  V30 530 N 48.7773 0.814389 1.34928 0
M  V30 531 C 50.0233 0.399013 1.98836 0
M  V30 532 C 50.3563 -1.03314 1.64438 0
M  V30 533 O 49.6313 -1.71811 0.911659 0
M  V30 534 C 49.9143 0.591629 3.55207 0
M  V30 535 C 49.7673 2.06928 3.99376 0
M  V30 536 C 51.0863 0.022199 4.40094 0
M  V30 537 H 48.2053 0.146451 0.722303 0
M  V30 538 H 50.8473 1.02537 1.59957 0
M  V30 539 H 48.9973 0.0584441 3.88456 0
M  V30 540 H 50.6693 2.66544 3.76499 0
M  V30 541 H 48.9123 2.56287 3.49999 0
M  V30 542 H 49.5833 2.1549 5.08201 0
M  V30 543 H 52.0593 0.477643 4.13349 0
M  V30 544 H 50.9353 0.186832 5.48582 0
M  V30 545 H 51.1963 -1.07215 4.28902 0
M  V30 546 N 50.2554 -1.46986 0.568584 0
M  V30 547 C 51.4834 -2.0683 0.0539956 0
M  V30 548 C 51.8984 -1.41953 -1.24478 0
M  V30 549 O 51.2554 -0.519933 -1.74937 0
M  V30 550 C 51.3064 -3.61254 -0.133362 0
M  V30 551 O 51.0274 -4.237 1.11399 0
M  V30 552 C 52.5284 -4.37992 -0.683927 0
M  V30 553 H 49.7484 -0.669058 0.0510141 0
M  V30 554 H 52.2924 -1.88824 0.785234 0
M  V30 555 H 50.4474 -3.78735 -0.81477 0
M  V30 556 H 50.8614 -5.16388 0.91888 0
M  V30 557 H 52.3354 -5.46684 -0.764263 0
M  V30 558 H 52.8124 -4.05058 -1.69778 0
M  V30 559 H 53.4184 -4.25283 -0.0378494 0
M  V30 560 N 51.7335 -0.305618 -1.54608 0
M  V30 561 C 52.9585 0.307562 -2.05107 0
M  V30 562 C 53.3835 1.46385 -1.18123 0
M  V30 563 O 52.7415 1.8034 -0.186324 0
M  V30 564 C 52.7895 0.73704 -3.52987 0
M  V30 565 O 51.8935 1.84134 -3.6901 0
M  V30 566 H 51.2345 0.0589143 -0.661381 0
M  V30 567 H 53.7645 -0.448807 -1.99617 0
M  V30 568 H 53.7745 1.02459 -3.94925 0
M  V30 569 H 52.4495 -0.108773 -4.15758 0
M  V30 570 H 51.0265 1.55398 -3.38978 0
M  V30 571 N 53.2116 1.57565 -0.0334293 0
M  V30 572 C 54.6276 1.56297 0.322997 0
M  V30 573 C 54.8276 1.03945 1.7262 0
M  V30 574 O 53.8836 0.688109 2.42943 0
M  V30 575 C 55.1966 3.00232 0.167664 0
M  V30 576 C 56.7446 3.12078 0.240107 0
M  V30 577 C 57.2196 4.57859 0.113513 0
M  V30 578 N 58.7106 4.62887 0.170359 0
M  V30 579 C 59.4456 5.73319 0.0962517 0
M  V30 580 N 58.9416 6.92794 -0.0291881 0
M  V30 581 N 60.7346 5.61898 0.150551 0
M  V30 582 H 52.8856 1.89923 -0.950956 0
M  V30 583 H 55.1486 0.873824 -0.367608 0
M  V30 584 H 54.8546 3.42501 -0.799102 0
M  V30 585 H 54.7286 3.654 0.936083 0
M  V30 586 H 57.1156 2.69718 1.19733 0
M  V30 587 H 57.1966 2.49623 -0.558763 0
M  V30 588 H 56.8406 5.009 -0.840314 0
M  V30 589 H 56.7706 5.18299 0.931302 0
M  V30 590 H 59.2616 3.76954 0.26728 0
M  V30 591 H 59.5746 7.7276 -0.0789252 0
M  V30 592 H 57.9196 6.94971 -0.0640299 0
M  V30 593 H 61.1106 4.67448 0.246981 0
M  V30 594 H 61.2836 6.47938 0.0893365 0
M  V30 595 N 54.6897 -0.239769 1.55765 0
M  V30 596 C 55.9147 -0.988373 1.82335 0
M  V30 597 C 56.3397 -1.77886 0.611421 0
M  V30 598 O 55.6977 -1.75889 -0.439639 0
M  V30 599 C 55.7457 -1.89627 3.06715 0
M  V30 600 O 54.8497 -2.98904 2.84131 0
M  V30 601 H 54.1907 -0.280858 0.601677 0
M  V30 602 H 56.7207 -0.258597 2.02959 0
M  V30 603 H 56.7307 -2.30957 3.36338 0
M  V30 604 H 55.4057 -1.31511 3.9456 0
M  V30 605 H 53.9827 -2.61651 2.65694 0
M  V30 606 N 56.1678 -1.49265 -0.50573 0
M  V30 607 C 57.4158 -1.582 -1.25766 0
M  V30 608 C 57.7368 -0.268482 -1.93143 0
M  V30 609 O 57.0068 0.711833 -1.8251 0
M  V30 610 H 55.5868 -0.582873 -0.467191 0
M  V30 611 H 58.2488 -1.85865 -0.586525 0
M  V30 612 H 57.3448 -2.37563 -2.02412 0
M  V30 613 N 57.6459 0.756429 -1.3826 0
M  V30 614 C 59.0569 1.33359 -1.30661 0
M  V30 615 C 59.4079 1.96161 0.0388875 0
M  V30 616 O 58.5329 1.94874 0.940918 0
M  V30 617 C 59.1279 2.42477 -2.36622 0
M  V30 618 C 57.6869 2.95922 -2.3261 0
M  V30 619 C 56.8339 1.69275 -2.19639 0
M  V30 620 H 59.7849 0.55552 -1.4866 0
M  V30 621 H 59.8059 3.22345 -2.02174 0
M  V30 622 H 59.3179 1.96739 -3.34538 0
M  V30 623 H 57.4189 3.45996 -1.38267 0
M  V30 624 H 57.5319 3.50494 -3.26636 0
M  V30 625 H 55.8959 1.92793 -1.66442 0
M  V30 626 H 56.6789 1.25619 -3.19491 0
M  V30 627 N 59.124 1.23083 0.984299 0
M  V30 628 C 60.087 1.00979 2.05757 0
M  V30 629 C 61.087 -0.0269573 1.60777 0
M  V30 630 O 62.277 0.212403 1.729 0
M  V30 631 C 59.409 0.527072 3.36801 0
M  V30 632 H 60.602 1.9622 2.26799 0
M  V30 633 H 58.155 1.05072 1.15714 0
M  V30 634 H 58.89 -0.429294 3.21446 0
M  V30 635 H 58.675 1.27515 3.70786 0
M  V30 636 H 60.165 0.392942 4.15747 0
M  V30 637 N 60.6021 -1.18246 1.0419 0
M  V30 638 C 62.0131 -1.69914 0.773698 0
M  V30 639 C 62.3641 -1.83085 -0.705297 0
M  V30 640 O 61.4891 -1.51123 -1.5489 0
M  V30 641 C 62.0841 -3.08619 1.39784 0
M  V30 642 C 60.6431 -3.57494 1.17792 0
M  V30 643 C 59.7901 -2.34013 1.48773 0
M  V30 644 H 62.7411 -1.02904 1.20816 0
M  V30 645 H 62.7621 -3.71958 0.801714 0
M  V30 646 H 62.2741 -2.99001 2.47426 0
M  V30 647 H 60.3751 -3.72406 0.120295 0
M  V30 648 H 60.4881 -4.40852 1.87581 0
M  V30 649 H 58.8521 -2.37986 0.907463 0
M  V30 650 H 59.6351 -2.27013 2.57527 0
M  V30 651 N 62.0802 -0.821533 -1.34494 0
M  V30 652 C 63.0432 -0.247847 -2.27856 0
M  V30 653 C 64.0432 0.573453 -1.50227 0
M  V30 654 O 65.2332 0.389759 -1.69784 0
M  V30 655 C 62.3652 0.652698 -3.34593 0
M  V30 656 H 63.5582 -1.07146 -2.80107 0
M  V30 657 H 61.1112 -0.593291 -1.44602 0
M  V30 658 H 61.8462 1.49943 -2.87555 0
M  V30 659 H 61.6312 0.065292 -3.92046 0
M  V30 660 H 63.1212 1.04793 -4.04238 0
M  V30 661 N 63.5583 1.46682 -0.576371 0
M  V30 662 C 64.9743 1.57822 -0.237562 0
M  V30 663 C 65.1743 1.57237 1.26011 0
M  V30 664 O 64.2303 1.48596 2.04146 0
M  V30 665 C 65.5433 2.87499 -0.881168 0
M  V30 666 C 67.0913 3.01119 -0.85417 0
M  V30 667 C 67.5663 4.33524 -1.4772 0
M  V30 668 N 69.0573 4.40207 -1.44125 0
M  V30 669 C 69.7923 5.4126 -1.89276 0
M  V30 670 N 69.2883 6.49021 -2.42371 0
M  V30 671 N 71.0813 5.32422 -1.80231 0
M  V30 672 H 63.2323 1.45306 -1.54919 0
M  V30 673 H 65.4953 0.692733 -0.647167 0
M  V30 674 H 65.2013 2.9372 -1.93447 0
M  V30 675 H 65.0753 3.75224 -0.385592 0
M  V30 676 H 67.4623 2.94485 0.190491 0
M  V30 677 H 67.5433 2.14887 -1.3877 0
M  V30 678 H 67.1873 4.40916 -2.52103 0
M  V30 679 H 67.1173 5.1852 -0.918947 0
M  V30 680 H 69.6083 3.62931 -1.05307 0
M  V30 681 H 69.9213 7.2233 -2.74698 0
M  V30 682 H 68.2663 6.49858 -2.46393 0
M  V30 683 H 71.4573 4.47137 -1.38514 0
M  V30 684 H 71.6303 6.11034 -2.15735 0
M  V30 685 N 65.0364 0.313813 1.54444 0
M  V30 686 C 66.4524 -0.0391619 1.59552 0
M  V30 687 C 66.6524 -1.51322 1.33056 0
M  V30 688 O 65.7084 -2.26782 1.11022 0
M  V30 689 C 67.0214 0.370302 2.98411 0
M  V30 690 C 68.5694 0.320139 3.11358 0
M  V30 691 C 69.0444 0.704617 4.52547 0
M  V30 692 N 70.5354 0.657645 4.58508 0
M  V30 693 C 71.2704 0.927453 5.6585 0
M  V30 694 N 70.7664 1.26389 6.81174 0
M  V30 695 N 72.5594 0.853662 5.5558 0
M  V30 696 H 64.7104 1.27433 1.69925 0
M  V30 697 H 66.9734 0.517511 0.794284 0
M  V30 698 H 66.6794 1.39694 3.22767 0
M  V30 699 H 66.5534 -0.269619 3.76235 0
M  V30 700 H 68.9404 -0.697275 2.86744 0
M  V30 701 H 69.0214 0.99486 2.35661 0
M  V30 702 H 68.6654 1.7199 4.77893 0
M  V30 703 H 68.5954 0.00768843 5.26599 0
M  V30 704 H 71.0864 0.409067 3.75679 0
M  V30 705 H 71.3994 1.4554 7.58972 0
M  V30 706 H 69.7444 1.30206 6.82694 0
M  V30 707 H 72.9354 0.590383 4.64362 0
M  V30 708 H 73.1084 1.0673 6.3915 0
M  V30 709 N 66.5145 -1.57545 0.0417849 0
M  V30 710 C 67.4625 -2.12148 -0.953723 0
M  V30 711 C 68.4565 -1.05104 -1.32852 0
M  V30 712 O 69.6625 -1.23524 -1.30927 0
M  V30 713 H 66.0375 -0.677957 -0.325389 0
M  V30 714 H 68.0085 -2.94707 -0.467991 0
M  V30 715 C 66.7575 -2.6739 -2.22257 0
M  V30 716 H 66.0805 -3.49413 -1.94295 0
M  V30 717 H 67.5205 -3.09227 -2.90094 0
M  V30 718 C 65.9795 -1.60723 -2.96091 0
M  V30 719 O 66.5095 -1.01449 -3.88679 0
M  V30 720 N 64.7155 -1.32466 -2.58652 0
M  V30 721 H 64.2625 -1.80856 -1.83437 0
M  V30 722 H 64.2205 -0.61325 -3.08361 0
M  V30 723 N 67.9926 0.231505 -1.5589 0
M  V30 724 C 69.2176 0.978689 -1.82856 0
M  V30 725 C 69.6426 1.77559 -0.620846 0
M  V30 726 O 69.0006 1.76119 0.430305 0
M  V30 727 C 69.0486 1.87997 -3.07716 0
M  V30 728 O 68.1526 2.97393 -2.85712 0
M  V30 729 H 67.4936 0.277663 -0.603158 0
M  V30 730 H 70.0236 0.24783 -2.03093 0
M  V30 731 H 70.0336 2.2917 -3.37558 0
M  V30 732 H 68.7086 1.29417 -3.95252 0
M  V30 733 H 67.2856 2.60238 -2.67078 0
M  V30 734 N 69.4707 1.49531 0.497807 0
M  V30 735 C 70.7167 1.59415 1.25358 0
M  V30 736 C 71.0497 0.281422 1.9215 0
M  V30 737 O 70.3247 -0.715249 1.80871 0
M  V30 738 C 70.6077 2.75566 2.3181 0
M  V30 739 C 70.4607 4.16642 1.69498 0
M  V30 740 C 71.7797 2.87347 3.33346 0
M  V30 741 H 68.8987 0.580244 0.454408 0
M  V30 742 H 71.5407 1.81827 0.551262 0
M  V30 743 H 69.6907 2.56587 2.91711 0
M  V30 744 H 71.3627 4.47145 1.13399 0
M  V30 745 H 69.6057 4.22141 0.998978 0
M  V30 746 H 70.2767 4.93792 2.46725 0
M  V30 747 H 72.7527 3.04634 2.83438 0
M  V30 748 H 71.6287 3.70289 4.05188 0
M  V30 749 H 71.8897 1.96834 3.95865 0
M  V30 750 N 70.9488 -0.749086 1.3866 0
M  V30 751 C 72.1768 -1.53834 1.38358 0
M  V30 752 C 72.5918 -1.88783 -0.0255219 0
M  V30 753 O 71.9488 -1.53101 -0.993292 0
M  V30 754 C 71.9998 -2.83468 2.2434 0
M  V30 755 O 71.7208 -2.50008 3.5976 0
M  V30 756 C 73.2218 -3.7758 2.32267 0
M  V30 757 H 70.4418 -0.47585 0.473083 0
M  V30 758 H 72.9858 -0.926726 1.82297 0
M  V30 759 H 71.1408 -3.40995 1.83851 0
M  V30 760 H 71.5548 -3.33182 4.05081 0
M  V30 761 H 73.0288 -4.65478 2.96706 0
M  V30 762 H 73.5058 -4.18334 1.33765 0
M  V30 763 H 74.1118 -3.25976 2.73166 0
M  V30 764 N 72.4269 -1.23603 -0.977757 0
M  V30 765 C 73.6549 -1.09646 -1.75458 0
M  V30 766 C 74.0699 0.351859 -1.85492 0
M  V30 767 O 73.4269 1.24327 -1.336 0
M  V30 768 C 73.4779 -1.71895 -3.18016 0
M  V30 769 O 73.1989 -3.11063 -3.08498 0
M  V30 770 C 74.6999 -1.63415 -4.12081 0
M  V30 771 H 71.9199 -0.38359 -0.550545 0
M  V30 772 H 74.4639 -1.63507 -1.22824 0
M  V30 773 H 72.6189 -1.22061 -3.67668 0
M  V30 774 H 73.0329 -3.41305 -3.9826 0
M  V30 775 H 74.5069 -2.11669 -5.09804 0
M  V30 776 H 74.9839 -0.593462 -4.35172 0
M  V30 777 H 75.5899 -2.12628 -3.68334 0
M  V30 778 N 73.905 1.17692 -1.04816 0
M  V30 779 C 75.153 1.87488 -0.754497 0
M  V30 780 C 75.474 1.81205 0.720407 0
M  V30 781 O 74.744 1.23544 1.52032 0
M  V30 782 H 73.324 0.694101 -0.276102 0
M  V30 783 H 75.986 1.42793 -1.32651 0
M  V30 784 H 75.082 2.93328 -1.06606 0
M  V30 785 N 75.3831 0.828654 1.34056 0
M  V30 786 C 76.6131 0.431993 2.02033 0
M  V30 787 C 77.0211 -0.96844 1.62536 0
M  V30 788 O 76.3641 -1.6391 0.829408 0
M  V30 789 C 76.4261 0.461224 3.56529 0
M  V30 790 C 76.0901 1.81599 4.1937 0
M  V30 791 C 77.0871 2.7777 4.39477 0
M  V30 792 C 74.7721 2.10604 4.56017 0
M  V30 793 C 76.7661 4.01115 4.95364 0
M  V30 794 C 74.4531 3.34207 5.11614 0
M  V30 795 C 75.4511 4.2928 5.31232 0
M  V30 796 O 75.1391 5.50699 5.8565 0
M  V30 797 H 74.8711 0.170943 0.654029 0
M  V30 798 H 77.4251 1.11988 1.72185 0
M  V30 799 H 75.6551 -0.283388 3.8566 0
M  V30 800 H 77.3441 0.0838149 4.05813 0
M  V30 801 H 78.1101 2.56659 4.11523 0
M  V30 802 H 73.9891 1.37402 4.40047 0
M  V30 803 H 77.5331 4.75333 5.10592 0
M  V30 804 H 73.4301 3.55179 5.38997 0
M  V30 805 H 74.1981 5.52298 6.04077 0
M  V30 806 N 76.8612 -1.46375 0.584142 0
M  V30 807 C 78.1092 -2.01978 0.0701287 0
M  V30 808 C 78.4302 -1.4579 -1.295 0
M  V30 809 O 77.7002 -0.64314 -1.85042 0
M  V30 810 H 76.2802 -0.746648 0.0229345 0
M  V30 811 H 78.9422 -1.79461 0.760245 0
M  V30 812 H 78.0382 -3.121 0.0022064 0
M  V30 813 N 78.3393 -0.321999 -1.54275 0
M  V30 814 C 79.5873 0.280489 -2.00144 0
M  V30 815 C 79.9083 1.52777 -1.21178 0
M  V30 816 O 79.1783 1.9338 -0.313187 0
M  V30 817 H 77.7583 0.106632 -0.73935 0
M  V30 818 H 80.4203 -0.438184 -1.8991 0
M  V30 819 H 79.5163 0.537972 -3.07428 0
M  V30 820 N 79.8174 1.5752 -0.0501392 0
M  V30 821 C 81.0634 1.92936 0.624798 0
M  V30 822 C 81.3964 0.928685 1.70555 0
M  V30 823 O 80.6714 -0.0454779 1.94447 0
M  V30 824 C 80.9544 3.38737 1.22185 0
M  V30 825 C 80.8074 4.49552 0.149218 0
M  V30 826 C 82.1264 3.84913 2.13378 0
M  V30 827 H 79.2454 0.701604 0.225657 0
M  V30 828 H 81.8874 1.89671 -0.111693 0
M  V30 829 H 80.0374 3.4165 1.84953 0
M  V30 830 H 81.7094 4.58768 -0.482648 0
M  V30 831 H 79.9524 4.30638 -0.522841 0
M  V30 832 H 80.6234 5.48653 0.606966 0
M  V30 833 H 83.0994 3.8387 1.60572 0
M  V30 834 H 81.9754 4.87584 2.52097 0
M  V30 835 H 82.2364 3.21611 3.03346 0
M  V30 836 N 81.2955 -0.223234 1.56011 0
M  V30 837 C 82.7115 -0.572856 1.48965 0
M  V30 838 C 82.9115 -1.87225 0.74492 0
M  V30 839 O 81.9675 -2.50899 0.283896 0
M  V30 840 C 83.2805 -0.653646 2.9351 0
M  V30 841 C 84.8285 -0.744386 3.0402 0
M  V30 842 C 85.3035 -0.856535 4.49919 0
M  V30 843 N 86.7945 -0.9208 4.53955 0
M  V30 844 C 87.5295 -1.02726 5.64123 0
M  V30 845 N 87.0255 -1.09777 6.84047 0
M  V30 846 N 88.8185 -1.06226 5.51971 0
M  V30 847 H 80.9695 0.629462 2.02858 0
M  V30 848 H 83.2325 0.220621 0.921971 0
M  V30 849 H 82.9385 0.231518 3.50937 0
M  V30 850 H 82.8125 -1.51781 3.45315 0
M  V30 851 H 85.1995 -1.61999 2.46658 0
M  V30 852 H 85.2805 0.14541 2.55386 0
M  V30 853 H 84.9245 0.0146069 5.07898 0
M  V30 854 H 84.8545 -1.76172 4.96257 0
M  V30 855 H 87.3455 -0.876694 3.6759 0
M  V30 856 H 87.6585 -1.17872 7.63758 0
M  V30 857 H 86.0035 -1.06693 6.86762 0
M  V30 858 H 89.1945 -1.00382 4.5721 0
M  V30 859 H 89.3675 -1.14177 6.37862 0
M  V30 860 N 82.7736 -1.49793 -0.48987 0
M  V30 861 C 83.7366 -1.66752 -1.57246 0
M  V30 862 C 84.7366 -0.538867 -1.51502 0
M  V30 863 O 85.9266 -0.805545 -1.54456 0
M  V30 864 C 83.0586 -1.67528 -2.96896 0
M  V30 865 H 84.2516 -2.63321 -1.43534 0
M  V30 866 H 81.8046 -1.38992 -0.714914 0
M  V30 867 H 82.5396 -0.725837 -3.16073 0
M  V30 868 H 82.3246 -2.49504 -3.02473 0
M  V30 869 H 83.8146 -1.82667 -3.7553 0
M  V30 870 N 84.2517 0.741722 -1.39055 0
M  V30 871 C 85.1817 1.869 -1.39966 0
M  V30 872 C 86.1627 1.6804 -0.26392 0
M  V30 873 O 87.3477 1.88458 -0.468755 0
M  V30 874 C 84.4777 3.24572 -1.23574 0
M  V30 875 C 83.4317 3.58056 -2.34477 0
M  V30 876 C 82.7577 4.94593 -2.0318 0
M  V30 877 C 84.0577 3.61716 -3.76774 0
M  V30 878 H 85.7517 1.86395 -2.34302 0
M  V30 879 H 83.2977 0.895361 -1.1278 0
M  V30 880 H 85.2507 4.031 -1.22834 0
M  V30 881 H 83.9747 3.25587 -0.257045 0
M  V30 882 H 82.6337 2.81854 -2.34423 0
M  V30 883 H 82.2817 4.92181 -1.03765 0
M  V30 884 H 81.9817 5.17964 -2.77465 0
M  V30 885 H 83.5057 5.75486 -2.04079 0
M  V30 886 H 84.9197 4.30335 -3.78794 0
M  V30 887 H 83.3167 3.96603 -4.50362 0
M  V30 888 H 84.3867 2.61672 -4.08235 0
M  V30 889 N 85.7298 1.2412 0.971189 0
M  V30 890 C 86.9698 1.09066 1.7287 0
M  V30 891 C 87.3338 -0.364794 1.88503 0
M  V30 892 O 88.5348 -0.636748 2.61149 0
M  V30 893 C 86.8058 1.80629 3.08396 0
M  V30 894 S 88.3648 1.81263 3.99611 0
M  V30 895 H 85.1828 0.390145 0.594397 0
M  V30 896 H 87.7848 1.57397 1.15959 0
M  V30 897 H 86.4888 2.85647 2.94676 0
M  V30 898 H 86.0198 1.32617 3.70373 0
M  V30 899 H 88.0348 0.877804 4.88374 0
M  V30 900 N 87.2079 -1.17134 1.05439 0
M  V30 901 C 88.4559 -1.87085 0.764429 0
M  V30 902 C 88.7769 -1.81584 -0.710787 0
M  V30 903 O 88.0469 -1.24349 -1.51374 0
M  V30 904 H 86.6269 -0.692627 0.279779 0
M  V30 905 H 89.2889 -1.42087 1.33406 0
M  V30 906 H 88.3849 -2.92759 1.0816 0
M  V30 907 N 88.686 -0.835752 -1.33615 0
M  V30 908 C 89.932 -0.439817 -1.98588 0
M  V30 909 C 90.287 0.989274 -1.65019 0
M  V30 910 O 89.58 1.68168 -0.918159 0
M  V30 911 C 89.774 -0.593925 -3.52431 0
M  V30 912 C 89.603 -2.03644 -4.00948 0
M  V30 913 C 88.373 -2.67103 -4.28934 0
M  V30 914 C 90.571 -3.00479 -4.17393 0
M  V30 915 N 88.553 -4.02462 -4.6357 0
M  V30 916 C 89.924 -4.20777 -4.55353 0
M  V30 917 C 91.979 -2.96926 -3.99674 0
M  V30 918 C 90.682 -5.37994 -4.77447 0
M  V30 919 C 92.708 -4.1337 -4.22941 0
M  V30 920 C 92.07 -5.32422 -4.61201 0
M  V30 921 H 88.169 -0.209303 -0.75347 0
M  V30 922 H 90.753 -1.08316 -1.61789 0
M  V30 923 H 88.924 0.019599 -3.88395 0
M  V30 924 H 90.656 -0.169738 -4.04344 0
M  V30 925 H 87.411 -2.18259 -4.20309 0
M  V30 926 H 87.835 -4.72232 -4.85104 0
M  V30 927 H 92.477 -2.06015 -3.69212 0
M  V30 928 H 90.195 -6.29451 -5.06771 0
M  V30 929 H 93.781 -4.12034 -4.10754 0
M  V30 930 H 92.661 -6.21027 -4.78848 0
M  V30 931 N 90.1641 1.46063 -0.591896 0
M  V30 932 C 91.3921 2.06717 -0.0868936 0
M  V30 933 C 91.8071 1.43916 1.22203 0
M  V30 934 O 91.1641 0.547698 1.74088 0
M  V30 935 C 91.2151 3.6142 0.0758725 0
M  V30 936 O 90.9361 4.21874 -1.18126 0
M  V30 937 C 92.4371 4.39025 0.61416 0
M  V30 938 H 89.6571 0.668162 -0.0616518 0
M  V30 939 H 92.2011 1.8755 -0.815175 0
M  V30 940 H 90.3561 3.79983 0.754413 0
M  V30 941 H 90.7701 5.14861 -1.00092 0
M  V30 942 H 92.2441 5.4783 0.677193 0
M  V30 943 H 92.7211 4.07708 1.63312 0
M  V30 944 H 93.3271 4.2529 -0.0298142 0
M  V30 945 N 91.6422 0.330177 1.54103 0
M  V30 946 C 93.0532 -0.15652 1.86043 0
M  V30 947 C 93.4042 -1.51086 1.2517 0
M  V30 948 O 92.5292 -2.09023 0.560217 0
M  V30 949 C 93.1242 -0.290784 3.3755 0
M  V30 950 C 91.6832 -0.721705 3.69416 0
M  V30 951 C 90.8302 0.152622 2.7688 0
M  V30 952 H 93.7812 0.550237 1.48856 0
M  V30 953 H 93.8022 -1.12058 3.63625 0
M  V30 954 H 93.3142 0.695068 3.81825 0
M  V30 955 H 91.4152 -1.71706 3.30678 0
M  V30 956 H 91.5282 -0.520869 4.7626 0
M  V30 957 H 89.8922 -0.372894 2.51956 0
M  V30 958 H 90.6752 1.13536 3.23982 0
M  V30 959 N 93.1203 -1.57491 0.0584922 0
M  V30 960 C 94.3453 -1.97711 -0.62652 0
M  V30 961 C 94.7703 -0.936132 -1.63151 0
M  V30 962 O 94.1283 0.099811 -1.81025 0
M  V30 963 C 94.1763 -3.36989 -1.28338 0
M  V30 964 O 93.2803 -3.35433 -2.39913 0
M  V30 965 H 92.6213 -0.643868 -0.162266 0
M  V30 966 H 95.1513 -2.04193 0.129064 0
M  V30 967 H 95.1613 -3.73879 -1.63335 0
M  V30 968 H 93.8363 -4.12289 -0.546889 0
M  V30 969 H 92.4133 -3.10298 -2.06809 0
M  V30 970 N 94.5984 0.214957 -1.56127 0
M  V30 971 C 95.8234 0.95924 -1.83884 0
M  V30 972 C 96.2484 1.7689 -0.639644 0
M  V30 973 O 95.6064 1.76566 0.411601 0
M  V30 974 C 95.6544 1.84723 -3.09693 0
M  V30 975 O 94.7584 2.94346 -2.8885 0
M  V30 976 H 94.0994 0.27125 -0.606069 0
M  V30 977 H 96.6294 0.226276 -2.03345 0
M  V30 978 H 96.6394 2.25576 -3.39969 0
M  V30 979 H 95.3144 1.25218 -3.96602 0
M  V30 980 H 93.8914 2.57391 -2.69823 0
M  V30 981 N 96.0765 1.50051 0.48192 0
M  V30 982 C 97.3245 1.60181 1.23234 0
M  V30 983 C 97.6455 0.299176 1.92691 0
M  V30 984 O 96.9155 -0.682708 1.83619 0
M  V30 985 H 95.4955 0.590232 0.457859 0
M  V30 986 H 98.1575 1.86775 0.556881 0
M  V30 987 H 97.2535 2.40753 1.98607 0
M  V30 988 N 97.5546 -0.734337 1.39446 0
M  V30 989 C 98.5176 -1.83004 1.37994 0
M  V30 990 C 99.5176 -1.58397 0.276938 0
M  V30 991 O 100.708 -1.65785 0.534875 0
M  V30 992 C 97.8396 -3.20802 1.1532 0
M  V30 993 H 99.0326 -1.85694 2.35494 0
M  V30 994 H 96.5856 -0.938059 1.25021 0
M  V30 995 H 97.3206 -3.23772 0.185036 0
M  V30 996 H 97.1056 -3.4006 1.95197 0
M  V30 997 H 98.5956 -4.00862 1.17046 0
M  V30 998 N 99.0327 -1.24633 -0.964593 0
M  V30 999 C 100.261 -1.11501 -1.74285 0
M  V30 1000 C 100.676 0.332165 -1.85855 0
M  V30 1001 O 100.033 1.22903 -1.34911 0
M  V30 1002 C 100.084 -1.75258 -3.16175 0
M  V30 1003 O 99.8047 -3.14318 -3.05182 0
M  V30 1004 C 101.306 -1.67776 -4.10324 0
M  V30 1005 H 98.5257 -0.389407 -0.546446 0
M  V30 1006 H 101.07 -1.64801 -1.21083 0
M  V30 1007 H 99.2247 -1.25954 -3.66353 0
M  V30 1008 H 99.6387 -3.4551 -3.94618 0
M  V30 1009 H 101.113 -2.17064 -5.0753 0
M  V30 1010 H 101.59 -0.639584 -4.34518 0
M  V30 1011 H 102.196 -2.16522 -3.66058 0
M  V30 1012 N 100.511 1.16574 -1.06058 0
M  V30 1013 C 101.922 1.68662 -0.800632 0
M  V30 1014 C 102.273 1.84184 0.67608 0
M  V30 1015 O 101.398 1.53568 1.52466 0
M  V30 1016 C 101.993 3.06356 -1.44676 0
M  V30 1017 C 100.552 3.55575 -1.23465 0
M  V30 1018 C 99.6988 2.31616 -1.52477 0
M  V30 1019 H 102.65 1.00969 -1.22438 0
M  V30 1020 H 102.671 3.70636 -0.860788 0
M  V30 1021 H 102.183 2.95027 -2.52152 0
M  V30 1022 H 100.284 3.72167 -0.179527 0
M  V30 1023 H 100.397 4.37812 -1.94571 0
M  V30 1024 H 98.7608 2.36512 -0.945209 0
M  V30 1025 H 99.5438 2.22887 -2.61106 0
M  V30 1026 N 101.989 0.842826 1.3317 0
M  V30 1027 C 103.405 0.531128 1.50503 0
M  V30 1028 C 103.605 -0.940734 1.78192 0
M  V30 1029 O 102.661 -1.72436 1.84451 0
M  V30 1030 C 103.974 1.40789 2.65705 0
M  V30 1031 C 105.522 1.40708 2.79589 0
M  V30 1032 C 105.997 2.26878 3.97857 0
M  V30 1033 N 107.488 2.24609 4.05099 0
M  V30 1034 C 108.223 2.88019 4.95815 0
M  V30 1035 N 107.719 3.60496 5.9162 0
M  V30 1036 N 109.512 2.77469 4.88843 0
M  V30 1037 H 101.663 1.79557 1.1346 0
M  V30 1038 H 103.926 0.766267 0.558156 0
M  V30 1039 H 103.632 2.454 2.51936 0
M  V30 1040 H 103.506 1.08677 3.61205 0
M  V30 1041 H 105.893 0.368668 2.92788 0
M  V30 1042 H 105.974 1.76829 1.84838 0
M  V30 1043 H 105.618 3.3078 3.85418 0
M  V30 1044 H 105.548 1.88096 4.91861 0
M  V30 1045 H 108.039 1.71906 3.36536 0
M  V30 1046 H 108.352 4.06076 6.57512 0
M  V30 1047 H 106.697 3.64604 5.91683 0
M  V30 1048 H 109.888 2.20406 4.12963 0
M  V30 1049 H 110.061 3.2717 5.59342 0
M  V30 1050 N 103.467 -1.45747 0.599634 0
M  V30 1051 C 104.415 -2.322 -0.136426 0
M  V30 1052 C 105.409 -1.45497 -0.867583 0
M  V30 1053 O 106.615 -1.62027 -0.78405 0
M  V30 1054 H 102.99 -0.749368 -0.0628588 0
M  V30 1055 H 104.961 -2.92072 0.611281 0
M  V30 1056 C 103.71 -3.28974 -1.12567 0
M  V30 1057 H 103.033 -3.9568 -0.572484 0
M  V30 1058 H 104.473 -3.92212 -1.61077 0
M  V30 1059 C 102.932 -2.55561 -2.19523 0
M  V30 1060 O 103.462 -2.33111 -3.27143 0
M  V30 1061 N 101.668 -2.15832 -1.94589 0
M  V30 1062 H 101.215 -2.3429 -1.07078 0
M  V30 1063 H 101.173 -1.67034 -2.66359 0
M  V30 1064 N 104.945 -0.338344 -1.53925 0
M  V30 1065 C 106.361 0.0137736 -1.59594 0
M  V30 1066 C 106.561 1.49186 -1.35447 0
M  V30 1067 O 105.617 2.24987 -1.14616 0
M  V30 1068 C 106.93 -0.41773 -2.97784 0
M  V30 1069 C 108.478 -0.369633 -3.1081 0
M  V30 1070 C 108.953 -0.776524 -4.51369 0
M  V30 1071 N 110.444 -0.730506 -4.57403 0
M  V30 1072 C 111.179 -1.01736 -5.64303 0
M  V30 1073 N 110.675 -1.3721 -6.79077 0
M  V30 1074 N 112.468 -0.941942 -5.54151 0
M  V30 1075 H 104.619 -1.3012 -1.67876 0
M  V30 1076 H 106.882 -0.530082 -0.78595 0
M  V30 1077 H 106.588 -1.44811 -3.20504 0
M  V30 1078 H 106.462 0.209729 -3.76616 0
M  V30 1079 H 108.849 0.651568 -2.87817 0
M  V30 1080 H 108.93 -1.03223 -2.34049 0
M  V30 1081 H 108.574 -1.79571 -4.75096 0
M  V30 1082 H 108.504 -0.0914649 -5.26521 0
M  V30 1083 H 110.995 -0.468783 -3.74981 0
M  V30 1084 H 111.308 -1.57597 -7.5656 0
M  V30 1085 H 109.653 -1.4105 -6.80536 0
M  V30 1086 H 112.844 -0.664184 -4.63364 0
M  V30 1087 H 113.017 -1.16884 -6.37371 0
M  V30 1088 N 106.423 1.57458 -0.0668435 0
M  V30 1089 C 107.353 2.15468 0.899764 0
M  V30 1090 C 108.334 1.08042 1.31381 0
M  V30 1091 O 109.519 1.36054 1.38574 0
M  V30 1092 C 106.649 2.71232 2.16911 0
M  V30 1093 C 105.603 3.83781 1.89463 0
M  V30 1094 C 104.929 4.26127 3.22986 0
M  V30 1095 C 106.229 5.08238 1.20381 0
M  V30 1096 H 107.923 2.96488 0.416529 0
M  V30 1097 H 105.469 1.4262 0.198908 0
M  V30 1098 H 107.422 3.10458 2.84945 0
M  V30 1099 H 106.146 1.87426 2.67468 0
M  V30 1100 H 104.805 3.45051 1.23836 0
M  V30 1101 H 104.453 3.39249 3.71374 0
M  V30 1102 H 104.153 5.01993 3.05413 0
M  V30 1103 H 105.677 4.67966 3.92225 0
M  V30 1104 H 107.091 5.44811 1.78475 0
M  V30 1105 H 105.488 5.89349 1.13083 0
M  V30 1106 H 106.558 4.84558 0.182153 0
M  V30 1107 N 107.901 -0.206675 1.56239 0
M  V30 1108 C 108.831 -1.25909 1.96645 0
M  V30 1109 C 109.812 -1.48097 0.836734 0
M  V30 1110 O 110.997 -1.6003 1.10019 0
M  V30 1111 C 108.127 -2.6058 2.29599 0
M  V30 1112 C 107.081 -2.53024 3.452 0
M  V30 1113 C 106.407 -3.91861 3.63798 0
M  V30 1114 C 107.707 -2.06524 4.79734 0
M  V30 1115 H 109.401 -0.923369 2.84806 0
M  V30 1116 H 106.947 -0.442735 1.37025 0
M  V30 1117 H 108.9 -3.34375 2.56459 0
M  V30 1118 H 107.624 -2.95869 1.38307 0
M  V30 1119 H 106.283 -1.81684 3.18412 0
M  V30 1120 H 105.931 -4.24483 2.69857 0
M  V30 1121 H 105.631 -3.87683 4.4156 0
M  V30 1122 H 107.155 -4.67296 3.93022 0
M  V30 1123 H 108.569 -2.70072 5.05702 0
M  V30 1124 H 106.966 -2.13374 5.60885 0
M  V30 1125 H 108.036 -1.01802 4.74093 0
M  V30 1126 N 109.379 -1.50304 -0.473955 0
M  V30 1127 C 110.309 -1.71886 -1.58042 0
M  V30 1128 C 111.29 -0.567799 -1.60344 0
M  V30 1129 O 112.475 -0.806623 -1.76656 0
M  V30 1130 C 109.605 -1.81036 -2.96384 0
M  V30 1131 C 108.559 -2.962 -3.08949 0
M  V30 1132 C 107.885 -2.9049 -4.48909 0
M  V30 1133 C 109.185 -4.36752 -2.86434 0
M  V30 1134 H 110.879 -2.64527 -1.40234 0
M  V30 1135 H 108.425 -1.27295 -0.673201 0
M  V30 1136 H 110.378 -1.94719 -3.73714 0
M  V30 1137 H 109.102 -0.850147 -3.15341 0
M  V30 1138 H 107.761 -2.82164 -2.3405 0
M  V30 1139 H 107.409 -1.92321 -4.64781 0
M  V30 1140 H 107.109 -3.67802 -4.58253 0
M  V30 1141 H 108.633 -3.06218 -5.28264 0
M  V30 1142 H 110.047 -4.5133 -3.53517 0
M  V30 1143 H 108.444 -5.15493 -3.07225 0
M  V30 1144 H 109.514 -4.49321 -1.82316 0
M  V30 1145 N 110.857 0.726932 -1.39834 0
M  V30 1146 C 111.789 1.85147 -1.35104 0
M  V30 1147 C 112.802 1.60736 -0.258392 0
M  V30 1148 O 113.991 1.70821 -0.517931 0
M  V30 1149 C 111.091 3.21332 -1.07697 0
M  V30 1150 C 110.264 3.73033 -2.28396 0
M  V30 1151 C 109.323 4.87802 -1.97322 0
M  V30 1152 O 108.349 5.01043 -2.70083 0
M  V30 1153 N 109.551 5.72768 -0.944273 0
M  V30 1154 H 112.316 1.89706 -2.32017 0
M  V30 1155 H 109.877 0.908006 -1.3404 0
M  V30 1156 H 111.869 3.95691 -0.849144 0
M  V30 1157 H 110.439 3.11992 -0.194909 0
M  V30 1158 H 109.659 2.89934 -2.6708 0
M  V30 1159 H 110.947 4.0431 -3.08887 0
M  V30 1160 H 110.345 5.64669 -0.341427 0
M  V30 1161 H 108.902 6.4716 -0.776346 0
M  V30 1162 N 112.336 1.25143 0.95797 0
M  V30 1163 C 113.266 1.07711 2.07173 0
M  V30 1164 C 114.247 -0.0128462 1.70095 0
M  V30 1165 O 115.432 0.156061 1.93572 0
M  V30 1166 C 112.562 0.691503 3.40346 0
M  V30 1167 C 111.516 1.73132 3.9142 0
M  V30 1168 C 110.842 1.20049 5.21049 0
M  V30 1169 C 112.142 3.1294 4.1817 0
M  V30 1170 H 113.836 2.00873 2.22014 0
M  V30 1171 H 111.382 0.967191 1.06684 0
M  V30 1172 H 113.335 0.556505 4.17709 0
M  V30 1173 H 112.059 -0.275819 3.25433 0
M  V30 1174 H 110.718 1.8547 3.16222 0
M  V30 1175 H 110.366 0.223499 5.02503 0
M  V30 1176 H 110.066 1.89545 5.56189 0
M  V30 1177 H 111.59 1.07782 6.01012 0
M  V30 1178 H 113.004 3.03775 4.86203 0
M  V30 1179 H 111.401 3.79875 4.64559 0
M  V30 1180 H 112.471 3.6025 3.24573 0
M  V30 1181 N 113.814 -1.1601 1.06675 0
M  V30 1182 C 114.744 -2.22688 0.702307 0
M  V30 1183 C 115.725 -1.67306 -0.307032 0
M  V30 1184 O 116.91 -1.93352 -0.181305 0
M  V30 1185 C 114.04 -3.47178 0.092038 0
M  V30 1186 C 112.994 -4.15477 1.02777 0
M  V30 1187 C 112.32 -5.33963 0.28061 0
M  V30 1188 C 113.62 -4.66019 2.35846 0
M  V30 1189 H 115.314 -2.53429 1.59419 0
M  V30 1190 H 112.86 -1.21813 0.767961 0
M  V30 1191 H 114.813 -4.21037 -0.174814 0
M  V30 1192 H 113.537 -3.15749 -0.834877 0
M  V30 1193 H 112.196 -3.43549 1.27944 0
M  V30 1194 H 111.844 -4.98788 -0.649545 0
M  V30 1195 H 111.544 -5.806 0.904258 0
M  V30 1196 H 113.068 -6.10596 0.021396 0
M  V30 1197 H 114.482 -5.3144 2.15045 0
M  V30 1198 H 112.879 -5.23293 2.93743 0
M  V30 1199 H 113.949 -3.82023 2.98641 0
M  V30 1200 N 115.292 -0.849877 -1.32721 0
M  V30 1201 C 116.54 -0.450032 -1.97026 0
M  V30 1202 C 116.861 0.996604 -1.67609 0
M  V30 1203 O 116.131 1.6958 -0.980786 0
M  V30 1204 H 114.711 -0.163426 -0.728904 0
M  V30 1205 H 117.373 -1.08526 -1.6189 0
M  V30 1206 H 116.469 -0.591146 -3.0645 0
M  V30 1207 N 116.77 1.45427 -0.607355 0
M  V30 1208 C 117.995 2.07124 -0.107006 0
M  V30 1209 C 118.42 1.44906 1.19933 0
M  V30 1210 O 117.778 0.541687 1.73019 0
M  V30 1211 C 117.826 3.60595 0.0194119 0
M  V30 1212 O 116.93 3.98285 1.0697 0
M  V30 1213 H 116.271 0.659868 -0.0739597 0
M  V30 1214 H 118.801 1.86683 -0.837297 0
M  V30 1215 H 118.811 4.07419 0.2177 0
M  V30 1216 H 117.486 4.05266 -0.934453 0
M  V30 1217 H 116.063 3.63133 0.847889 0
M  V30 1218 N 118.248 0.346503 1.53744 0
M  V30 1219 C 119.659 -0.136779 1.86198 0
M  V30 1220 C 120.01 -1.49749 1.26766 0
M  V30 1221 O 119.135 -2.08417 0.582355 0
M  V30 1222 C 119.73 -0.254966 3.37839 0
M  V30 1223 C 118.289 -0.682482 3.70161 0
M  V30 1224 C 117.436 0.181981 2.76702 0
M  V30 1225 H 120.387 0.565994 1.48264 0
M  V30 1226 H 120.408 -1.08195 3.64793 0
M  V30 1227 H 119.92 0.735526 3.81066 0
M  V30 1228 H 118.021 -1.68189 3.3248 0
M  V30 1229 H 118.134 -0.470326 4.76786 0
M  V30 1230 H 116.498 -0.34615 2.52337 0
M  V30 1231 H 117.281 1.16966 3.2276 0
M  V30 1232 N 119.726 -1.57421 0.075193 0
M  V30 1233 C 120.974 -1.93236 -0.591974 0
M  V30 1234 C 121.295 -0.956241 -1.69944 0
M  V30 1235 O 120.565 -0.00494792 -1.95899 0
M  V30 1236 H 119.145 -0.713355 -0.22166 0
M  V30 1237 H 121.807 -1.9444 0.133848 0
M  V30 1238 H 120.903 -2.95131 -1.01509 0
M  V30 1239 N 121.204 0.198386 -1.56346 0
M  V30 1240 C 122.62 0.549085 -1.49857 0
M  V30 1241 C 122.82 1.86016 -0.774611 0
M  V30 1242 O 121.876 2.50416 -0.323776 0
M  V30 1243 C 123.189 0.606868 -2.94512 0
M  V30 1244 C 124.737 0.695925 -3.05165 0
M  V30 1245 C 125.212 0.784848 -4.51225 0
M  V30 1246 N 126.703 0.848463 -4.55363 0
M  V30 1247 C 127.438 0.937378 -5.65686 0
M  V30 1248 N 126.934 0.9888 -6.85707 0
M  V30 1249 N 128.727 0.974312 -5.53592 0
M  V30 1250 H 120.878 -0.661655 -2.01831 0
M  V30 1251 H 123.141 -0.235261 -0.918344 0
M  V30 1252 H 122.847 -0.28732 -3.50524 0
M  V30 1253 H 122.721 1.46268 -3.47686 0
M  V30 1254 H 125.108 1.58055 -2.49204 0
M  V30 1255 H 125.189 -0.186022 -2.55123 0
M  V30 1256 H 124.833 -0.0954072 -5.0781 0
M  V30 1257 H 124.763 1.68255 -4.98997 0
M  V30 1258 H 127.254 0.818103 -3.68938 0
M  V30 1259 H 127.567 1.05707 -7.65536 0
M  V30 1260 H 125.912 0.957534 -6.88372 0
M  V30 1261 H 129.103 0.930954 -4.58749 0
M  V30 1262 H 129.276 1.04015 -6.39597 0
M  V30 1263 N 122.682 1.50554 0.465978 0
M  V30 1264 C 124.098 1.38093 0.800154 0
M  V30 1265 C 124.298 0.440988 1.96615 0
M  V30 1266 O 123.354 -0.114499 2.5224 0
M  V30 1267 C 124.667 2.79565 1.10742 0
M  V30 1268 C 126.215 2.88516 1.21357 0
M  V30 1269 C 126.69 4.30833 1.55393 0
M  V30 1270 N 128.181 4.33807 1.62375 0
M  V30 1271 C 128.916 5.40927 1.90225 0
M  V30 1272 N 128.412 6.58247 2.16062 0
M  V30 1273 N 130.205 5.28376 1.9177 0
M  V30 1274 H 122.356 2.10237 -0.302366 0
M  V30 1275 H 124.619 0.945203 -0.0727746 0
M  V30 1276 H 124.325 3.50208 0.323661 0
M  V30 1277 H 124.199 3.17125 2.04234 0
M  V30 1278 H 126.586 2.1809 1.98799 0
M  V30 1279 H 126.667 2.54492 0.258321 0
M  V30 1280 H 126.311 5.01799 0.784889 0
M  V30 1281 H 126.241 4.62347 2.52076 0
M  V30 1282 H 128.732 3.49212 1.44427 0
M  V30 1283 H 129.045 7.3569 2.36601 0
M  V30 1284 H 127.39 6.61413 2.13444 0
M  V30 1285 H 130.581 4.35715 1.71085 0
M  V30 1286 H 130.754 6.11944 2.13139 0
M  V30 1287 N 124.16 -0.719506 1.40217 0
M  V30 1288 C 125.39 -1.50646 1.41384 0
M  V30 1289 C 125.798 -1.89197 0.0107743 0
M  V30 1290 O 125.141 -1.55709 -0.974708 0
M  V30 1291 C 125.203 -2.81405 2.23722 0
M  V30 1292 C 124.867 -2.65199 3.72181 0
M  V30 1293 C 125.864 -2.32717 4.64907 0
M  V30 1294 C 123.549 -2.81586 4.1595 0
M  V30 1295 C 125.543 -2.16827 5.99387 0
M  V30 1296 C 123.23 -2.65313 5.50502 0
M  V30 1297 C 124.228 -2.32981 6.42035 0
M  V30 1298 O 123.916 -2.16827 7.74107 0
M  V30 1299 H 123.648 -0.471606 0.484318 0
M  V30 1300 H 126.202 -0.895456 1.84853 0
M  V30 1301 H 124.432 -3.44823 1.75026 0
M  V30 1302 H 126.121 -3.43102 2.16878 0
M  V30 1303 H 126.887 -2.19694 4.32388 0
M  V30 1304 H 122.766 -3.0574 3.45027 0
M  V30 1305 H 126.31 -1.91513 6.70797 0
M  V30 1306 H 122.207 -2.7792 5.82607 0
M  V30 1307 H 122.975 -2.31778 7.84998 0
M  V30 1308 N 125.638 -1.25649 -0.95132 0
M  V30 1309 C 126.868 -1.13179 -1.72841 0
M  V30 1310 C 127.276 0.316827 -1.86528 0
M  V30 1311 O 126.619 1.22948 -1.3649 0
M  V30 1312 C 126.681 -1.71644 -3.15878 0
M  V30 1313 C 126.345 -3.20667 -3.25609 0
M  V30 1314 C 127.342 -4.17616 -3.09666 0
M  V30 1315 C 125.027 -3.6094 -3.49324 0
M  V30 1316 C 127.021 -5.52817 -3.17289 0
M  V30 1317 C 124.708 -4.96278 -3.56584 0
M  V30 1318 C 125.706 -5.92025 -3.40581 0
M  V30 1319 O 125.394 -7.24899 -3.47528 0
M  V30 1320 H 125.126 -0.395389 -0.54831 0
M  V30 1321 H 127.68 -1.66566 -1.20187 0
M  V30 1322 H 125.91 -1.12707 -3.69911 0
M  V30 1323 H 127.599 -1.54225 -3.75459 0
M  V30 1324 H 128.365 -3.87842 -2.91211 0
M  V30 1325 H 124.244 -2.86907 -3.6084 0
M  V30 1326 H 127.788 -6.2753 -3.04716 0
M  V30 1327 H 123.685 -5.25716 -3.74556 0
M  V30 1328 H 124.453 -7.33039 -3.64138 0
M  V30 1329 N 127.117 1.15442 -1.07289 0
M  V30 1330 C 128.342 1.90638 -0.816828 0
M  V30 1331 C 128.767 1.77445 0.624083 0
M  V30 1332 O 128.125 1.10671 1.43602 0
M  V30 1333 C 128.173 3.39008 -1.22906 0
M  V30 1334 O 127.277 4.10701 -0.373975 0
M  V30 1335 H 126.618 0.593555 -0.297638 0
M  V30 1336 H 129.148 1.46198 -1.43134 0
M  V30 1337 H 129.158 3.89801 -1.20497 0
M  V30 1338 H 127.833 3.47929 -2.27856 0
M  V30 1339 H 126.41 3.70046 -0.460499 0
M  V30 1340 N 128.595 0.856903 1.32268 0
M  V30 1341 C 129.525 0.31858 2.31316 0
M  V30 1342 C 130.506 -0.583487 1.59779 0
M  V30 1343 O 131.691 -0.503259 1.87566 0
M  V30 1344 C 128.821 -0.491979 3.43798 0
M  V30 1345 C 127.775 0.315849 4.26833 0
M  V30 1346 C 127.101 -0.619586 5.31098 0
M  V30 1347 C 128.401 1.54282 4.98993 0
M  V30 1348 H 130.095 1.14621 2.76591 0
M  V30 1349 H 127.641 0.552613 1.32974 0
M  V30 1350 H 129.594 -0.879012 4.1213 0
M  V30 1351 H 128.318 -1.35299 2.97257 0
M  V30 1352 H 126.977 0.684664 3.6015 0
M  V30 1353 H 126.625 -1.47751 4.8081 0
M  V30 1354 H 126.325 -0.0830621 5.87541 0
M  V30 1355 H 127.849 -1.00375 6.02293 0
M  V30 1356 H 129.263 1.22796 5.59995 0
M  V30 1357 H 127.66 2.01745 5.65172 0
M  V30 1358 H 128.73 2.30285 4.26728 0
M  V30 1359 N 130.073 -1.45103 0.615059 0
M  V30 1360 C 131.484 -1.85654 0.197383 0
M  V30 1361 C 131.835 -1.51433 -1.24749 0
M  V30 1362 O 130.96 -0.944608 -1.94695 0
M  V30 1363 C 131.555 -3.36972 0.351448 0
M  V30 1364 C 130.114 -3.76398 -0.011593 0
M  V30 1365 C 129.261 -2.69024 0.672394 0
M  V30 1366 H 132.212 -1.35797 0.821263 0
M  V30 1367 H 132.233 -3.78239 -0.414227 0
M  V30 1368 H 131.745 -3.61847 1.40314 0
M  V30 1369 H 129.846 -3.5714 -1.06217 0
M  V30 1370 H 129.959 -4.77532 0.387265 0
M  V30 1371 H 128.323 -2.54465 0.109284 0
M  V30 1372 H 129.106 -2.96735 1.72636 0
M  V30 1373 N 131.551 -0.354651 -1.53558 0
M  V30 1374 C 132.962 0.126902 -1.86268 0
M  V30 1375 C 133.313 1.49075 -1.27558 0
M  V30 1376 O 132.438 2.08105 -0.5934 0
M  V30 1377 C 133.033 0.237046 -3.3797 0
M  V30 1378 C 131.592 0.662842 -3.70518 0
M  V30 1379 C 130.739 -0.196652 -2.76602 0
M  V30 1380 H 133.69 -0.573849 -1.47962 0
M  V30 1381 H 133.711 1.06259 -3.65362 0
M  V30 1382 H 133.223 -0.755725 -3.80671 0
M  V30 1383 H 131.324 1.66424 -3.33367 0
M  V30 1384 H 131.437 0.445034 -4.77029 0
M  V30 1385 H 129.801 0.332763 -2.52517 0
M  V30 1386 H 130.584 -1.18676 -3.22135 0
M  V30 1387 N 133.029 1.57378 -0.0835403 0
M  V30 1388 C 133.979 2.09916 0.889905 0
M  V30 1389 C 134.963 1.01151 1.25129 0
M  V30 1390 O 136.155 1.27443 1.2283 0
M  V30 1391 C 133.284 2.67379 2.15322 0
M  V30 1392 C 132.37 3.83167 1.81779 0
M  V30 1393 N 132.761 4.91665 1.18739 0
M  V30 1394 C 131.059 3.92685 2.11459 0
M  V30 1395 C 131.76 5.72409 1.0355 0
M  V30 1396 N 130.736 5.21062 1.54906 0
M  V30 1397 H 134.538 2.91188 0.398378 0
M  V30 1398 H 132.052 1.61956 0.120013 0
M  V30 1399 H 134.049 3.0334 2.8599 0
M  V30 1400 H 132.709 1.87558 2.65051 0
M  V30 1401 H 133.72 5.10784 0.855604 0
M  V30 1402 H 130.397 3.23856 2.63483 0
M  V30 1403 H 131.787 6.69699 0.543425 0
M  V30 1404 N 134.507 -0.190092 1.56449 0
M  V30 1405 C 135.439 -1.25973 1.91477 0
M  V30 1406 C 136.452 -1.41452 0.805931 0
M  V30 1407 O 137.641 -1.41789 1.08435 0
M  V30 1408 C 134.741 -2.63117 2.13594 0
M  V30 1409 C 133.914 -2.69182 3.4476 0
M  V30 1410 C 132.973 -3.87557 3.5593 0
M  V30 1411 O 131.999 -3.74427 4.28711 0
M  V30 1412 N 133.201 -5.03224 2.89388 0
M  V30 1413 H 135.966 -0.962394 2.83828 0
M  V30 1414 H 133.527 -0.379981 1.57378 0
M  V30 1415 H 135.519 -3.40742 2.1835 0
M  V30 1416 H 134.089 -2.85319 1.27719 0
M  V30 1417 H 133.309 -1.77793 3.51828 0
M  V30 1418 H 134.597 -2.70229 4.31107 0
M  V30 1419 H 133.995 -5.16791 2.30094 0
M  V30 1420 H 132.552 -5.78778 2.99764 0
M  V30 1421 N 135.985 -1.50799 -0.457987 0
M  V30 1422 C 136.932 -1.70617 -1.5543 0
M  V30 1423 C 137.902 -0.547562 -1.56815 0
M  V30 1424 O 139.087 -0.779647 -1.74144 0
M  V30 1425 C 136.227 -1.81831 -2.93311 0
M  V30 1426 C 135.34 -3.09278 -3.01615 0
M  V30 1427 C 134.475 -3.11209 -4.30491 0
M  V30 1428 C 133.514 -4.33055 -4.32585 0
M  V30 1429 N 132.651 -4.32652 -5.52952 0
M  V30 1430 H 137.491 -2.64207 -1.37836 0
M  V30 1431 H 135.028 -1.30959 -0.669937 0
M  V30 1432 H 136.986 -1.86314 -3.73287 0
M  V30 1433 H 135.616 -0.916685 -3.0951 0
M  V30 1434 H 134.668 -3.14203 -2.1443 0
M  V30 1435 H 135.98 -3.99233 -2.99022 0
M  V30 1436 H 135.134 -3.14494 -5.18824 0
M  V30 1437 H 133.873 -2.19106 -4.35711 0
M  V30 1438 H 132.878 -4.29969 -3.42647 0
M  V30 1439 H 134.103 -5.264 -4.29046 0
M  V30 1440 H 132.049 -3.43409 -5.58933 0
M  V30 1441 H 131.966 -5.16392 -5.52155 0
M  V30 1442 H 133.234 -4.40101 -6.43375 0
M  V30 1443 N 137.463 0.71206 -1.40597 0
M  V30 1444 C 138.709 1.47416 -1.39271 0
M  V30 1445 C 139.042 1.942 0.00388791 0
M  V30 1446 O 138.317 1.68403 0.973179 0
M  V30 1447 C 138.6 2.69774 -2.38525 0
M  V30 1448 C 138.453 2.28861 -3.87224 0
M  V30 1449 C 139.772 3.71939 -2.35264 0
M  V30 1450 H 136.891 0.534713 -0.5072 0
M  V30 1451 H 139.533 0.812375 -1.71757 0
M  V30 1452 H 137.683 3.26238 -2.10953 0
M  V30 1453 H 139.355 1.77852 -4.25636 0
M  V30 1454 H 137.598 1.60824 -4.02887 0
M  V30 1455 H 138.269 3.16584 -4.52193 0
M  V30 1456 H 140.745 3.25113 -2.59694 0
M  V30 1457 H 139.621 4.55186 -3.06753 0
M  V30 1458 H 139.882 4.20484 -1.36549 0
M  V30 1459 N 138.941 1.26152 0.944643 0
M  V30 1460 C 140.352 1.10454 1.50522 0
M  V30 1461 C 140.703 -0.31635 1.93633 0
M  V30 1462 O 139.828 -1.20746 1.79581 0
M  V30 1463 C 140.423 1.99891 2.73549 0
M  V30 1464 C 138.982 1.88348 3.25886 0
M  V30 1465 C 138.129 1.93447 1.9868 0
M  V30 1466 H 141.08 1.39292 0.760489 0
M  V30 1467 H 141.101 1.54477 3.47732 0
M  V30 1468 H 140.613 3.03297 2.42141 0
M  V30 1469 H 138.714 0.878636 3.62092 0
M  V30 1470 H 138.827 2.73696 3.93227 0
M  V30 1471 H 137.191 1.37456 2.14425 0
M  V30 1472 H 137.974 2.98476 1.69607 0
M  V30 1473 N 140.419 -1.14872 1.07899 0
M  V30 1474 C 141.349 -2.2193 0.725887 0
M  V30 1475 C 142.33 -1.67622 -0.28927 0
M  V30 1476 O 143.515 -1.93533 -0.160787 0
M  V30 1477 C 140.645 -3.47061 0.128856 0
M  V30 1478 C 139.599 -4.14363 1.07178 0
M  V30 1479 C 138.925 -5.33636 0.337229 0
M  V30 1480 C 140.225 -4.63492 2.40775 0
M  V30 1481 H 141.919 -2.51724 1.62097 0
M  V30 1482 H 139.465 -1.20991 0.780838 0
M  V30 1483 H 141.418 -4.21199 -0.130147 0
M  V30 1484 H 140.142 -3.16617 -0.80134 0
M  V30 1485 H 138.801 -3.42173 1.3158 0
M  V30 1486 H 138.449 -4.99449 -0.596606 0
M  V30 1487 H 138.149 -5.79609 0.965788 0
M  V30 1488 H 139.673 -6.10539 0.0861567 0
M  V30 1489 H 141.087 -5.2913 2.20669 0
M  V30 1490 H 139.484 -5.20148 2.99276 0
M  V30 1491 H 140.554 -3.78834 3.02676 0
M  V30 1492 N 141.898 -0.863906 -1.31812 0
M  V30 1493 C 143.309 -0.52522 -1.7916 0
M  V30 1494 C 143.66 0.957518 -1.71248 0
M  V30 1495 O 142.785 1.74734 -1.27659 0
M  V30 1496 C 143.38 -0.9466 -3.25307 0
M  V30 1497 C 141.939 -0.659668 -3.70574 0
M  V30 1498 C 141.086 -1.14126 -2.52726 0
M  V30 1499 H 144.037 -1.05022 -1.1898 0
M  V30 1500 H 144.058 -0.266766 -3.79564 0
M  V30 1501 H 143.57 -2.02579 -3.31034 0
M  V30 1502 H 141.671 0.408416 -3.70355 0
M  V30 1503 H 141.784 -1.23245 -4.62977 0
M  V30 1504 H 140.148 -0.561216 -2.4844 0
M  V30 1505 H 140.931 -2.22775 -2.61201 0
M  V30 1506 N 143.376 1.44774 -0.622745 0
M  V30 1507 C 144.601 2.06999 -0.128968 0
M  V30 1508 C 145.026 1.4617 1.1839 0
M  V30 1509 O 144.384 0.560007 1.72434 0
M  V30 1510 C 144.432 3.60595 -0.0188351 0
M  V30 1511 O 143.536 3.99398 1.02739 0
M  V30 1512 H 142.877 0.659047 -0.0809544 0
M  V30 1513 H 145.407 1.85784 -0.85705 0
M  V30 1514 H 145.417 4.07627 0.174476 0
M  V30 1515 H 144.092 4.04252 -0.977384 0
M  V30 1516 H 142.669 3.64011 0.809326 0
M  V30 1517 N 144.854 0.36279 1.53368 0
M  V30 1518 C 145.784 -0.476976 2.28576 0
M  V30 1519 C 146.765 -1.08631 1.30894 0
M  V30 1520 O 147.95 -1.10409 1.59761 0
M  V30 1521 C 145.08 -1.61828 3.07293 0
M  V30 1522 C 144.034 -1.13633 4.1264 0
M  V30 1523 C 143.36 -2.36766 4.79423 0
M  V30 1524 C 144.66 -0.223061 5.21823 0
M  V30 1525 H 146.354 0.150474 2.99022 0
M  V30 1526 H 143.9 0.0738103 1.43811 0
M  V30 1527 H 145.853 -2.21237 3.58653 0
M  V30 1528 H 144.577 -2.27292 2.34533 0
M  V30 1529 H 143.236 -0.564945 3.62221 0
M  V30 1530 H 142.884 -3.0068 4.03238 0
M  V30 1531 H 142.584 -2.05192 5.50609 0
M  V30 1532 H 144.108 -2.96865 5.33576 0
M  V30 1533 H 145.522 -0.724545 5.68703 0
M  V30 1534 H 143.919 0.001678 6.001 0
M  V30 1535 H 144.989 0.735553 4.79289 0
M  V30 1536 N 146.332 -1.57332 0.0918853 0
M  V30 1537 C 147.557 -1.98995 -0.584442 0
M  V30 1538 C 147.982 -0.970528 -1.61128 0
M  V30 1539 O 147.34 0.0613904 -1.81196 0
M  V30 1540 C 147.388 -3.39636 -1.21161 0
M  V30 1541 O 146.492 -3.40447 -2.32744 0
M  V30 1542 H 145.833 -0.647165 -0.148572 0
M  V30 1543 H 148.363 -2.03873 0.172347 0
M  V30 1544 H 148.373 -3.7726 -1.55367 0
M  V30 1545 H 147.048 -4.13356 -0.459313 0
M  V30 1546 H 145.625 -3.14614 -2.0018 0
M  V30 1547 N 147.81 0.181792 -1.56548 0
M  V30 1548 C 149.221 0.745244 -1.71181 0
M  V30 1549 C 149.572 1.83262 -0.70068 0
M  V30 1550 O 148.697 2.15946 0.140154 0
M  V30 1551 C 149.292 1.35859 -3.10367 0
M  V30 1552 C 147.851 1.86898 -3.2672 0
M  V30 1553 C 146.998 0.743942 -2.67134 0
M  V30 1554 H 149.949 -0.0434661 -1.5864 0
M  V30 1555 H 149.97 2.22817 -3.08436 0
M  V30 1556 H 149.482 0.566948 -3.83937 0
M  V30 1557 H 147.583 2.68738 -2.5809 0
M  V30 1558 H 147.696 2.02162 -4.34359 0
M  V30 1559 H 146.06 1.16169 -2.26665 0
M  V30 1560 H 146.843 -0.035676 -3.43281 0
M  V30 1561 N 149.288 1.51039 0.449983 0
M  V30 1562 C 150.516 1.66869 1.2232 0
M  V30 1563 C 150.931 0.360727 1.85322 0
M  V30 1564 O 150.288 -0.659531 1.70166 0
M  V30 1565 C 150.339 2.77524 2.31652 0
M  V30 1566 O 150.06 4.03252 1.7123 0
M  V30 1567 C 151.561 3.04512 3.2216 0
M  V30 1568 H 148.781 0.560326 0.369155 0
M  V30 1569 H 151.325 1.97385 0.534719 0
M  V30 1570 H 149.48 2.49642 2.96239 0
M  V30 1571 H 149.894 4.64609 2.43389 0
M  V30 1572 H 151.368 3.85551 3.95038 0
M  V30 1573 H 151.845 2.16415 3.8218 0
M  V30 1574 H 152.451 3.34005 2.63288 0
M  V30 1575 N 150.766 -0.704594 1.40972 0
M  V30 1576 C 151.699 -1.82861 1.36518 0
M  V30 1577 C 152.677 -1.6091 0.23382 0
M  V30 1578 O 153.861 -1.83778 0.419271 0
M  V30 1579 C 150.988 -3.1939 1.12729 0
M  V30 1580 C 150.034 -3.60148 2.28463 0
M  V30 1581 S 150.867 -3.65994 3.90907 0
M  V30 1582 C 152.023 -5.05264 3.69403 0
M  V30 1583 H 152.256 -1.86361 2.3164 0
M  V30 1584 H 149.789 -0.872439 1.27389 0
M  V30 1585 H 151.747 -3.98211 0.996893 0
M  V30 1586 H 150.408 -3.1351 0.192427 0
M  V30 1587 H 149.601 -4.59309 2.07489 0
M  V30 1588 H 149.203 -2.88612 2.37863 0
M  V30 1589 H 151.495 -5.92504 3.28551 0
M  V30 1590 H 152.438 -5.31278 4.68134 0
M  V30 1591 H 152.846 -4.76377 3.02862 0
M  V30 1592 N 152.244 -1.26651 -0.937939 0
M  V30 1593 C 153.176 -1.04283 -2.04102 0
M  V30 1594 C 154.189 -0.00221014 -1.628 0
M  V30 1595 O 155.378 -0.242645 -1.76843 0
M  V30 1596 C 152.478 -0.557846 -3.34277 0
M  V30 1597 C 151.651 -1.66843 -4.04329 0
M  V30 1598 C 150.71 -1.18095 -5.12777 0
M  V30 1599 O 149.736 -1.87865 -5.37304 0
M  V30 1600 N 150.938 -0.0311006 -5.80492 0
M  V30 1601 H 153.703 -1.9927 -2.23856 0
M  V30 1602 H 151.264 -1.1808 -1.10764 0
M  V30 1603 H 153.256 -0.215836 -4.04124 0
M  V30 1604 H 151.826 0.298523 -3.11171 0
M  V30 1605 H 151.046 -2.18123 -3.28353 0
M  V30 1606 H 152.334 -2.41408 -4.47883 0
M  V30 1607 H 151.732 0.551486 -5.63005 0
M  V30 1608 H 150.289 0.251809 -6.51313 0
M  V30 1609 N 153.722 1.14298 -1.08507 0
M  V30 1610 C 154.685 2.17607 -0.719711 0
M  V30 1611 C 155.685 1.58907 0.245997 0
M  V30 1612 O 156.875 1.74181 0.0254081 0
M  V30 1613 C 154.007 3.40842 -0.0627695 0
M  V30 1614 H 155.2 2.51443 -1.63452 0
M  V30 1615 H 152.753 1.28963 -0.88307 0
M  V30 1616 H 153.488 3.12587 0.863716 0
M  V30 1617 H 153.273 3.84713 -0.757504 0
M  V30 1618 H 154.763 4.17221 0.177786 0
M  V30 1619 N 155.201 0.870884 1.31352 0
M  V30 1620 C 156.449 0.48132 1.96285 0
M  V30 1621 C 156.77 -0.969813 1.69173 0
M  V30 1622 O 156.04 -1.67998 1.00764 0
M  V30 1623 H 154.62 0.175002 0.726212 0
M  V30 1624 H 157.282 1.11087 1.60143 0
M  V30 1625 H 156.378 0.639825 3.05471 0
M  V30 1626 N 156.679 -1.44442 0.630414 0
M  V30 1627 C 157.907 -2.06414 0.141671 0
M  V30 1628 C 158.322 -1.47105 -1.18345 0
M  V30 1629 O 157.679 -0.593662 -1.72574 0
M  V30 1630 C 157.73 -3.61494 0.0199784 0
M  V30 1631 O 157.451 -4.18594 1.29269 0
M  V30 1632 C 158.952 -4.40499 -0.497544 0
M  V30 1633 H 156.172 -0.666292 0.0793452 0
M  V30 1634 H 158.716 -1.85323 0.864614 0
M  V30 1635 H 156.871 -3.8185 -0.653402 0
M  V30 1636 H 157.285 -5.12026 1.13707 0
M  V30 1637 H 158.759 -5.49433 -0.531708 0
M  V30 1638 H 159.236 -4.11895 -1.52445 0
M  V30 1639 H 159.842 -4.25061 0.142562 0
M  V30 1640 N 158.157 -0.370918 -1.53173 0
M  V30 1641 C 159.406 0.218249 -2.00516 0
M  V30 1642 C 159.719 1.49429 -1.26215 0
M  V30 1643 O 160.925 2.16239 -1.64174 0
M  V30 1644 C 159.381 0.43948 -3.57207 0
M  V30 1645 C 158.989 -0.822244 -4.4039 0
M  V30 1646 C 160.733 0.986012 -4.1289 0
M  V30 1647 C 158.64 -0.570304 -5.88644 0
M  V30 1648 H 157.57 0.0853333 -0.749156 0
M  V30 1649 H 160.221 -0.490483 -1.76823 0
M  V30 1650 H 158.603 1.20961 -3.77074 0
M  V30 1651 H 159.777 -1.59557 -4.32294 0
M  V30 1652 H 158.092 -1.29238 -3.95836 0
M  V30 1653 H 160.689 1.18991 -5.21292 0
M  V30 1654 H 161.032 1.94972 -3.6782 0
M  V30 1655 H 161.565 0.27592 -3.96842 0
M  V30 1656 H 158.304 -1.50449 -6.38001 0
M  V30 1657 H 157.824 0.164427 -5.99575 0
M  V30 1658 H 159.503 -0.19784 -6.46697 0
M  V30 1659 N 159.635 1.57281 -0.100228 0
M  V30 1660 C 160.598 2.13158 0.842398 0
M  V30 1661 C 161.598 1.06202 1.20738 0
M  V30 1662 O 162.788 1.32066 1.13597 0
M  V30 1663 C 159.92 2.65639 2.13655 0
M  V30 1664 H 161.113 2.97766 0.357114 0
M  V30 1665 H 158.666 1.5559 0.148823 0
M  V30 1666 H 159.401 1.84566 2.66657 0
M  V30 1667 H 159.186 3.43844 1.88451 0
M  V30 1668 H 160.676 3.08846 2.81077 0
M  V30 1669 N 161.113 -0.173488 1.56642 0
M  V30 1670 C 162.529 -0.525174 1.50712 0
M  V30 1671 C 162.729 -1.8476 0.804107 0
M  V30 1672 O 161.785 -2.49869 0.363574 0
M  V30 1673 C 163.098 -0.559937 2.95441 0
M  V30 1674 C 164.646 -0.647288 3.06234 0
M  V30 1675 C 165.121 -0.712963 4.52417 0
M  V30 1676 N 166.612 -0.775911 4.56655 0
M  V30 1677 C 167.347 -0.847264 5.67106 0
M  V30 1678 N 166.843 -0.879585 6.87194 0
M  V30 1679 N 168.636 -0.886117 5.55071 0
M  V30 1680 H 160.787 0.693681 2.00753 0
M  V30 1681 H 163.05 0.249841 0.914485 0
M  V30 1682 H 162.756 0.343049 3.50023 0
M  V30 1683 H 162.63 -1.40718 3.49969 0
M  V30 1684 H 165.017 -1.5407 2.51687 0
M  V30 1685 H 165.098 0.226586 2.54794 0
M  V30 1686 H 164.742 0.176183 5.07594 0
M  V30 1687 H 164.672 -1.60295 5.0161 0
M  V30 1688 H 167.163 -0.759304 3.70193 0
M  V30 1689 H 167.476 -0.935144 7.67121 0
M  V30 1690 H 165.821 -0.847898 6.89808 0
M  V30 1691 H 169.012 -0.857853 4.60172 0
M  V30 1692 H 169.185 -0.938263 6.41171 0
M  V30 1693 N 162.591 -1.51276 -0.441967 0
M  V30 1694 C 163.837 -1.6492 -1.1905 0
M  V30 1695 C 164.192 -0.358731 -1.89026 0
M  V30 1696 O 163.485 0.645193 -1.8041 0
M  V30 1697 C 163.679 -2.78746 -2.23686 0
M  V30 1698 C 163.508 -4.18737 -1.63979 0
M  V30 1699 C 162.278 -4.84739 -1.42674 0
M  V30 1700 C 164.476 -5.01988 -1.11858 0
M  V30 1701 N 162.458 -6.08858 -0.785159 0
M  V30 1702 C 163.829 -6.17071 -0.601989 0
M  V30 1703 C 165.884 -4.87551 -1.0099 0
M  V30 1704 C 164.587 -7.19299 0.0126012 0
M  V30 1705 C 166.613 -5.89983 -0.409206 0
M  V30 1706 C 165.975 -7.04333 0.0968651 0
M  V30 1707 H 162.074 -0.657416 -0.423471 0
M  V30 1708 H 164.658 -1.8849 -0.48782 0
M  V30 1709 H 162.829 -2.56848 -2.91348 0
M  V30 1710 H 164.561 -2.81595 -2.90666 0
M  V30 1711 H 161.316 -4.42528 -1.68719 0
M  V30 1712 H 161.74 -6.75282 -0.481942 0
M  V30 1713 H 166.382 -3.99401 -1.38703 0
M  V30 1714 H 164.1 -8.071 0.401879 0
M  V30 1715 H 167.686 -5.8088 -0.327079 0
M  V30 1716 H 166.566 -7.82238 0.554373 0
M  V30 1717 N 164.069 0.697108 -1.41344 0
M  V30 1718 C 164.979 1.84088 -1.45427 0
M  V30 1719 C 165.995 1.70545 -0.34501 0
M  V30 1720 O 167.171 1.92488 -0.592492 0
M  V30 1721 C 164.236 3.20056 -1.33286 0
M  V30 1722 C 163.297 3.45718 -2.54514 0
M  V30 1723 C 162.53 4.75199 -2.42944 0
M  V30 1724 O 162.753 5.51579 -1.45318 0
M  V30 1725 O 161.687 5.0161 -3.32672 0
M  V30 1726 H 165.513 1.836 -2.41919 0
M  V30 1727 H 163.098 0.849966 -1.22866 0
M  V30 1728 H 164.98 4.01236 -1.28794 0
M  V30 1729 H 163.655 3.2123 -0.39909 0
M  V30 1730 H 162.562 2.64474 -2.64583 0
M  V30 1731 H 163.895 3.49356 -3.46715 0
M  V30 1732 N 165.547 1.27147 0.931209 0
M  V30 1733 C 166.494 1.09568 2.03134 0
M  V30 1734 C 167.464 -0.00222433 1.661 0
M  V30 1735 O 168.649 0.159439 1.90133 0
M  V30 1736 C 165.789 0.745231 3.36957 0
M  V30 1737 C 164.902 1.92041 3.86968 0
M  V30 1738 C 164.037 1.51216 5.09222 0
M  V30 1739 C 163.076 2.65504 5.5152 0
M  V30 1740 N 162.213 2.25291 6.64972 0
M  V30 1741 H 167.053 2.03708 2.17502 0
M  V30 1742 H 164.59 1.01411 1.06556 0
M  V30 1743 H 166.548 0.522878 4.1391 0
M  V30 1744 H 165.178 -0.159202 3.22407 0
M  V30 1745 H 164.23 2.25541 3.06326 0
M  V30 1746 H 165.542 2.77787 4.1429 0
M  V30 1747 H 164.696 1.25084 5.93666 0
M  V30 1748 H 163.435 0.625749 4.83669 0
M  V30 1749 H 162.44 2.92354 4.65628 0
M  V30 1750 H 163.665 3.54761 5.7907 0
M  V30 1751 H 161.611 1.39098 6.41083 0
M  V30 1752 H 161.528 3.04577 6.91931 0
M  V30 1753 H 162.796 2.02398 7.52765 0
M  V30 1754 N 167.025 -1.13721 1.09112 0
M  V30 1755 C 167.972 -2.19031 0.727591 0
M  V30 1756 C 168.942 -1.63555 -0.289656 0
M  V30 1757 O 170.127 -1.90023 -0.172026 0
M  V30 1758 C 167.267 -3.4477 0.15082 0
M  V30 1759 C 166.38 -4.14365 1.22172 0
M  V30 1760 C 165.515 -5.27709 0.608042 0
M  V30 1761 C 164.554 -5.89147 1.66047 0
M  V30 1762 N 163.691 -6.93929 1.06806 0
M  V30 1763 H 168.531 -2.49475 1.62991 0
M  V30 1764 H 166.068 -1.22499 0.81439 0
M  V30 1765 H 168.026 -4.16714 -0.201358 0
M  V30 1766 H 166.656 -3.14787 -0.714783 0
M  V30 1767 H 165.708 -3.40737 1.69122 0
M  V30 1768 H 167.02 -4.56114 2.01895 0
M  V30 1769 H 166.174 -6.06355 0.204523 0
M  V30 1770 H 164.913 -4.872 -0.220769 0
M  V30 1771 H 163.918 -5.09198 2.07357 0
M  V30 1772 H 165.143 -6.31729 2.49189 0
M  V30 1773 H 163.089 -6.55483 0.260476 0
M  V30 1774 H 163.006 -7.34202 1.8023 0
M  V30 1775 H 164.274 -7.76434 0.690644 0
M  V30 1776 N 168.503 -0.877838 -1.30888 0
M  V30 1777 C 169.413 -0.343096 -2.32078 0
M  V30 1778 C 170.429 0.551022 -1.65045 0
M  V30 1779 O 171.605 0.445854 -1.96403 0
M  V30 1780 C 168.67 0.439905 -3.43898 0
M  V30 1781 C 167.731 -0.483111 -4.26573 0
M  V30 1782 C 166.964 0.262616 -5.33053 0
M  V30 1783 O 167.187 1.48967 -5.50604 0
M  V30 1784 O 166.121 -0.383593 -6.00676 0
M  V30 1785 H 169.947 -1.18203 -2.79753 0
M  V30 1786 H 167.532 -0.64145 -1.34929 0
M  V30 1787 H 169.414 0.883504 -4.12034 0
M  V30 1788 H 168.089 1.25526 -2.98371 0
M  V30 1789 H 166.996 -0.975374 -3.61161 0
M  V30 1790 H 168.329 -1.26427 -4.75686 0
M  V30 1791 N 169.982 1.44106 -0.638065 0
M  V30 1792 C 171.23 2.01579 -0.145043 0
M  V30 1793 C 171.551 1.50496 1.24 0
M  V30 1794 O 170.821 0.711374 1.82527 0
M  V30 1795 H 169.401 0.745282 -0.05063 0
M  V30 1796 H 172.063 1.76516 -0.826327 0
M  V30 1797 H 171.159 3.11877 -0.118039 0
M  V30 1798 N 171.46 0.379036 1.52974 0
M  V30 1799 C 172.737 -0.263479 1.93817 0
M  V30 1800 C 173.117 -1.65244 1.31368 0
M  V30 1801 O 172.465 -2.23448 0.477856 0
M  V30 1802 C 172.675 -0.300166 3.47707 0
M  V30 1803 C 174.023 -0.534061 4.21228 0
M  V30 1804 O 175.047 -0.38081 3.54159 0
M  V30 1805 O 173.906 -0.833501 5.40106 0
M  V30 1806 H 171 -0.161149 0.811147 0
M  V30 1807 H 173.546 0.432798 1.64088 0
M  V30 1808 H 172.318 0.673138 3.85467 0
M  V30 1809 H 171.941 -1.04179 3.83709 0
M  V30 1810 N 172.938 -1.57226 0.108567 0
M  V30 1811 C 173.885 -2.14756 -0.845481 0
M  V30 1812 C 174.855 -1.06971 -1.27068 0
M  V30 1813 O 176.04 -1.34827 -1.35005 0
M  V30 1814 C 173.18 -2.74298 -2.09415 0
M  V30 1815 C 172.293 -3.96358 -1.71826 0
M  V30 1816 C 171.428 -4.44021 -2.9158 0
M  V30 1817 C 170.467 -5.58637 -2.50181 0
M  V30 1818 N 169.604 -6.01091 -3.62814 0
M  V30 1819 H 174.444 -2.95961 -0.348035 0
M  V30 1820 H 171.981 -1.46226 -0.160106 0
M  V30 1821 H 173.939 -3.06945 -2.82561 0
M  V30 1822 H 172.569 -1.95801 -2.56636 0
M  V30 1823 H 171.621 -3.69939 -0.885947 0
M  V30 1824 H 172.933 -4.79504 -1.37394 0
M  V30 1825 H 172.087 -4.78522 -3.72963 0
M  V30 1826 H 170.826 -3.59803 -3.29231 0
M  V30 1827 H 169.831 -5.23751 -1.67228 0
M  V30 1828 H 171.056 -6.44613 -2.13659 0
M  V30 1829 H 169.002 -5.19817 -4.00158 0
M  V30 1830 H 168.919 -6.79066 -3.32273 0
M  V30 1831 H 170.187 -6.40227 -4.44668 0
M  V30 1832 N 174.416 0.165178 -1.56732 0
M  V30 1833 C 175.665 0.879143 -1.81532 0
M  V30 1834 C 175.978 1.83144 -0.686842 0
M  V30 1835 O 177.184 2.58823 -0.819944 0
M  V30 1836 C 175.64 1.61388 -3.21686 0
M  V30 1837 C 175.248 0.704904 -4.4242 0
M  V30 1838 C 176.992 2.3157 -3.55774 0
M  V30 1839 C 174.899 1.44022 -5.73595 0
M  V30 1840 H 173.829 0.332033 -0.676957 0
M  V30 1841 H 176.48 0.132008 -1.83025 0
M  V30 1842 H 174.862 2.40599 -3.14529 0
M  V30 1843 H 176.036 -0.0506815 -4.60772 0
M  V30 1844 H 174.351 0.112419 -4.16248 0
M  V30 1845 H 176.948 2.8719 -4.51028 0
M  V30 1846 H 177.291 3.07201 -2.8095 0
M  V30 1847 H 177.824 1.59297 -3.64513 0
M  V30 1848 H 174.563 0.72612 -6.51466 0
M  V30 1849 H 174.083 2.16898 -5.5921 0
M  V30 1850 H 175.762 1.98606 -6.15764 0
M  V30 1851 N 175.894 1.51508 0.433938 0
M  V30 1852 C 176.842 1.73646 1.54757 0
M  V30 1853 C 177.836 0.602854 1.5831 0
M  V30 1854 O 179.042 0.784318 1.62014 0
M  V30 1855 H 175.417 0.548718 0.51421 0
M  V30 1856 H 177.388 2.66991 1.33261 0
M  V30 1857 C 176.137 1.88172 2.92381 0
M  V30 1858 H 175.46 2.74808 2.90381 0
M  V30 1859 H 176.9 2.07672 3.6966 0
M  V30 1860 C 175.359 0.64239 3.30719 0
M  V30 1861 O 175.889 -0.201362 4.01195 0
M  V30 1862 N 174.095 0.485489 2.86516 0
M  V30 1863 H 173.642 1.17318 2.29334 0
M  V30 1864 H 173.6 -0.342482 3.12529 0
M  V30 1865 N 177.372 -0.689602 1.41712 0
M  V30 1866 C 178.282 -1.83314 1.46401 0
M  V30 1867 C 179.298 -1.7036 0.35405 0
M  V30 1868 O 180.474 -1.92171 0.602692 0
M  V30 1869 C 177.539 -3.19344 1.34982 0
M  V30 1870 C 176.6 -3.44363 2.56344 0
M  V30 1871 C 175.833 -4.73904 2.45461 0
M  V30 1872 O 176.056 -5.508 1.48241 0
M  V30 1873 O 174.99 -4.99839 3.35328 0
M  V30 1874 H 178.816 -1.82314 2.42889 0
M  V30 1875 H 176.401 -0.843438 1.23315 0
M  V30 1876 H 178.283 -4.00547 1.3092 0
M  V30 1877 H 176.958 -3.21014 0.41612 0
M  V30 1878 H 175.865 -2.63067 2.65982 0
M  V30 1879 H 177.198 -3.47512 3.48563 0
M  V30 1880 N 178.85 -1.27639 -0.924453 0
M  V30 1881 C 180.098 -1.13941 -1.66918 0
M  V30 1882 C 180.419 0.314589 -1.92446 0
M  V30 1883 O 179.689 1.21964 -1.53303 0
M  V30 1884 H 178.269 -0.418678 -0.618642 0
M  V30 1885 H 180.931 -1.60213 -1.10985 0
M  V30 1886 H 180.027 -1.67094 -2.63602 0
M  V30 1887 N 180.328 1.1314 -1.09713 0
M  V30 1888 C 181.605 1.80762 -0.747302 0
M  V30 1889 C 181.985 1.96663 0.767265 0
M  V30 1890 O 181.333 1.53706 1.69076 0
M  V30 1891 C 181.543 3.15606 -1.48975 0
M  V30 1892 C 182.891 3.90914 -1.65746 0
M  V30 1893 O 183.915 3.25239 -1.45251 0
M  V30 1894 O 182.774 5.08718 -1.9967 0
M  V30 1895 H 179.868 0.782103 -0.268782 0
M  V30 1896 H 182.414 1.20041 -1.19951 0
M  V30 1897 H 181.186 2.99278 -2.52088 0
M  V30 1898 H 180.809 3.84029 -1.02991 0
M  V30 1899 N 181.806 0.884767 1.30421 0
M  V30 1900 C 182.736 0.367574 2.30589 0
M  V30 1901 C 183.717 -0.549464 1.60981 0
M  V30 1902 O 184.902 -0.46336 1.88591 0
M  V30 1903 C 182.032 -0.418944 3.44764 0
M  V30 1904 C 180.986 0.406316 4.26067 0
M  V30 1905 C 180.312 -0.506793 5.32293 0
M  V30 1906 C 181.612 1.64832 4.95608 0
M  V30 1907 H 183.306 1.20462 2.74097 0
M  V30 1908 H 180.852 0.580695 1.31772 0
M  V30 1909 H 182.805 -0.791395 4.13902 0
M  V30 1910 H 181.529 -1.28964 3.0006 0
M  V30 1911 H 180.188 0.760903 3.58617 0
M  V30 1912 H 179.836 -1.37519 4.83836 0
M  V30 1913 H 179.536 0.0415828 5.87585 0
M  V30 1914 H 181.06 -0.875764 6.04287 0
M  V30 1915 H 182.474 1.34646 5.57264 0
M  V30 1916 H 180.871 2.13688 5.60765 0
M  V30 1917 H 181.941 2.39284 4.21748 0
M  V30 1918 N 183.284 -1.43765 0.645699 0
M  V30 1919 C 184.533 -2.01116 0.153412 0
M  V30 1920 C 184.846 -1.51493 -1.23731 0
M  V30 1921 O 186.052 -2.01067 -1.8244 0
M  V30 1922 C 184.508 -3.59206 0.223473 0
M  V30 1923 C 184.116 -4.17823 1.61642 0
M  V30 1924 C 185.86 -4.23972 -0.211597 0
M  V30 1925 C 183.767 -5.68183 1.64081 0
M  V30 1926 H 182.697 -0.752093 0.0535891 0
M  V30 1927 H 185.348 -1.6482 0.806633 0
M  V30 1928 H 183.73 -3.92867 -0.497118 0
M  V30 1929 H 184.904 -3.95674 2.36176 0
M  V30 1930 H 183.219 -3.65399 1.99681 0
M  V30 1931 H 185.816 -5.34275 -0.213112 0
M  V30 1932 H 186.159 -3.97352 -1.24165 0
M  V30 1933 H 186.692 -3.95166 0.456988 0
M  V30 1934 H 183.431 -5.99559 2.64971 0
M  V30 1935 H 182.951 -5.9241 0.938611 0
M  V30 1936 H 184.63 -6.32085 1.3812 0
M  V30 1937 N 184.763 -0.387143 -1.52771 0
M  V30 1938 C 185.726 0.436939 -2.24997 0
M  V30 1939 C 186.726 0.991991 -1.26555 0
M  V30 1940 O 187.916 0.874335 -1.50669 0
M  V30 1941 C 185.048 1.61281 -3.00335 0
M  V30 1942 H 186.241 -0.195365 -2.99263 0
M  V30 1943 H 183.794 -0.139218 -1.55679 0
M  V30 1944 H 184.529 2.2826 -2.30364 0
M  V30 1945 H 184.314 1.22154 -3.72587 0
M  V30 1946 H 185.804 2.19629 -3.5518 0
M  V30 1947 N 186.241 1.57166 -0.116904 0
M  V30 1948 C 187.151 2.18745 0.847812 0
M  V30 1949 C 188.167 1.163 1.29423 0
M  V30 1950 O 189.343 1.48761 1.35765 0
M  V30 1951 C 186.408 2.77307 2.0809 0
M  V30 1952 C 185.469 3.94781 1.68661 0
M  V30 1953 C 184.702 4.50541 2.86091 0
M  V30 1954 O 184.925 4.05202 4.01456 0
M  V30 1955 O 183.859 5.41256 2.63298 0
M  V30 1956 H 187.685 3.01632 0.353778 0
M  V30 1957 H 185.27 1.49005 0.108599 0
M  V30 1958 H 187.152 3.14647 2.80313 0
M  V30 1959 H 185.827 1.97452 2.56504 0
M  V30 1960 H 184.734 3.62214 0.935518 0
M  V30 1961 H 186.067 4.76065 1.24991 0
M  V30 1962 N 187.719 -0.156864 1.56817 0
M  V30 1963 C 188.965 -0.872416 1.83076 0
M  V30 1964 C 189.298 -1.81261 0.697001 0
M  V30 1965 O 188.573 -1.92171 -0.30008 0
M  V30 1966 C 188.856 -1.65551 3.19789 0
M  V30 1967 C 188.709 -0.737467 4.43713 0
M  V30 1968 C 190.028 -2.62012 3.53606 0
M  V30 1969 H 187.147 -0.315715 0.665953 0
M  V30 1970 H 189.789 -0.138004 1.89498 0
M  V30 1971 H 187.939 -2.28159 3.14445 0
M  V30 1972 H 189.611 -0.123143 4.61136 0
M  V30 1973 H 187.854 -0.0464067 4.33775 0
M  V30 1974 H 188.525 -1.32122 5.35955 0
M  V30 1975 H 191.001 -2.09525 3.59497 0
M  V30 1976 H 189.877 -3.13861 4.50314 0
M  V30 1977 H 190.138 -3.42902 2.79053 0
M  V30 1978 N 189.197 -1.51736 -0.425897 0
M  V30 1979 C 190.107 -1.76738 -1.54275 0
M  V30 1980 C 191.123 -0.65211 -1.61318 0
M  V30 1981 O 192.299 -0.935654 -1.78346 0
M  V30 1982 C 189.364 -1.89755 -2.90162 0
M  V30 1983 C 188.425 -3.13633 -2.93143 0
M  V30 1984 C 187.658 -3.2602 -4.22548 0
M  V30 1985 O 187.881 -2.44067 -5.15546 0
M  V30 1986 O 186.815 -4.19071 -4.32046 0
M  V30 1987 H 190.641 -2.71502 -1.36089 0
M  V30 1988 H 188.226 -1.36376 -0.610069 0
M  V30 1989 H 190.108 -2.00236 -3.70788 0
M  V30 1990 H 188.783 -0.981785 -3.08452 0
M  V30 1991 H 187.69 -3.08622 -2.11431 0
M  V30 1992 H 189.023 -4.04936 -2.798 0
M  V30 1993 N 190.675 0.682077 -1.42076 0
M  V30 1994 C 191.903 1.47057 -1.4554 0
M  V30 1995 C 192.318 1.8869 -0.0645779 0
M  V30 1996 O 191.675 1.57666 0.919115 0
M  V30 1997 C 191.726 2.72442 -2.37609 0
M  V30 1998 O 191.447 2.32559 -3.71279 0
M  V30 1999 C 192.948 3.66069 -2.50017 0
M  V30 2000 H 190.168 0.452737 -0.495248 0
M  V30 2001 H 192.712 0.838695 -1.8651 0
M  V30 2002 H 190.867 3.31835 -1.9991 0
M  V30 2003 H 191.281 3.13475 -4.20516 0
M  V30 2004 H 192.755 4.50792 -3.18576 0
M  V30 2005 H 193.232 4.11476 -1.53572 0
M  V30 2006 H 193.838 3.12572 -2.88407 0
M  V30 2007 N 192.153 1.28127 0.917671 0
M  V30 2008 C 193.43 1.05761 1.64542 0
M  V30 2009 C 193.81 -0.404344 2.07191 0
M  V30 2010 O 193.158 -1.38963 1.81388 0
M  V30 2011 C 193.368 2.02857 2.83989 0
M  V30 2012 C 194.716 2.32786 3.551 0
M  V30 2013 O 195.74 2.0091 2.94132 0
M  V30 2014 O 194.599 2.87169 4.64969 0
M  V30 2015 H 191.693 0.403916 0.721652 0
M  V30 2016 H 194.239 1.39431 0.967322 0
M  V30 2017 H 193.011 3.01407 2.49538 0
M  V30 2018 H 192.634 1.69809 3.59514 0
M  V30 2019 N 193.631 -1.12557 1.10312 0
M  V30 2020 C 194.578 -2.18247 0.750781 0
M  V30 2021 C 195.548 -1.63853 -0.272293 0
M  V30 2022 O 196.733 -1.90195 -0.151862 0
M  V30 2023 C 193.873 -3.44591 0.187379 0
M  V30 2024 C 192.986 -4.13046 1.2656 0
M  V30 2025 C 192.121 -5.27034 0.663978 0
M  V30 2026 C 191.16 -5.87353 1.72287 0
M  V30 2027 N 190.297 -6.92757 1.1416 0
M  V30 2028 H 195.137 -2.47732 1.65628 0
M  V30 2029 H 192.674 -1.21629 0.827337 0
M  V30 2030 H 194.632 -4.16904 -0.157148 0
M  V30 2031 H 193.262 -3.15527 -0.681355 0
M  V30 2032 H 192.314 -3.38924 1.72727 0
M  V30 2033 H 193.626 -4.53947 2.06721 0
M  V30 2034 H 192.78 -6.06104 0.268824 0
M  V30 2035 H 191.519 -4.87407 -0.169082 0
M  V30 2036 H 190.524 -5.06971 2.12746 0
M  V30 2037 H 191.749 -6.29051 2.55875 0
M  V30 2038 H 189.695 -6.5517 0.329984 0
M  V30 2039 H 189.612 -7.3225 1.88007 0
M  V30 2040 H 190.88 -7.75658 0.772956 0
M  V30 2041 N 195.109 -0.891671 -1.2995 0
M  V30 2042 C 196.072 -0.36828 -2.26222 0
M  V30 2043 C 197.072 0.493014 -1.53056 0
M  V30 2044 O 198.262 0.299213 -1.71611 0
M  V30 2045 C 195.394 0.47442 -3.37583 0
M  V30 2046 H 196.587 -1.21844 -2.74033 0
M  V30 2047 H 194.14 -0.669107 -1.41254 0
M  V30 2048 H 194.875 1.34489 -2.95099 0
M  V30 2049 H 194.66 -0.142615 -3.91841 0
M  V30 2050 H 196.15 0.83218 -4.09224 0
M  V30 2051 N 196.587 1.43421 -0.653314 0
M  V30 2052 C 197.815 2.06163 -0.174491 0
M  V30 2053 C 198.23 1.48969 1.1599 0
M  V30 2054 O 197.587 0.621042 1.71608 0
M  V30 2055 C 197.638 3.61417 -0.0774865 0
M  V30 2056 O 197.359 4.16485 -1.35912 0
M  V30 2057 C 198.86 4.41235 0.427402 0
M  V30 2058 H 196.08 0.664946 -0.0899353 0
M  V30 2059 H 198.624 1.83924 -0.893988 0
M  V30 2060 H 196.779 3.82841 0.59257 0
M  V30 2061 H 197.193 5.10153 -1.21839 0
M  V30 2062 H 198.667 5.5021 0.44423 0
M  V30 2063 H 199.144 4.14268 1.45873 0
M  V30 2064 H 199.75 4.2478 -0.210167 0
M  V30 2065 N 198.065 0.39524 1.52563 0
M  V30 2066 C 199.311 -0.185318 2.01952 0
M  V30 2067 C 199.644 -1.45964 1.28095 0
M  V30 2068 O 198.919 -1.90689 0.38315 0
M  V30 2069 C 199.202 -0.447193 3.57312 0
M  V30 2070 C 199.055 0.842828 4.41833 0
M  V30 2071 C 200.374 -1.23529 4.22408 0
M  V30 2072 H 197.493 -0.0658788 0.73405 0
M  V30 2073 H 200.135 0.525975 1.82575 0
M  V30 2074 H 198.285 -1.05312 3.73954 0
M  V30 2075 H 199.957 1.4795 4.36931 0
M  V30 2076 H 198.2 1.45686 4.08605 0
M  V30 2077 H 198.871 0.614165 5.48573 0
M  V30 2078 H 201.347 -0.722445 4.0978 0
M  V30 2079 H 200.223 -1.38727 5.3108 0
M  V30 2080 H 200.484 -2.25213 3.80436 0
M  V30 2081 N 199.544 -1.57102 0.125237 0
M  V30 2082 C 200.792 -1.95021 -0.530198 0
M  V30 2083 C 201.113 -1.00982 -1.66816 0
M  V30 2084 O 200.383 -0.0672693 -1.95784 0
M  V30 2085 H 198.963 -0.720046 -0.198853 0
M  V30 2086 H 201.625 -1.93916 0.19564 0
M  V30 2087 H 200.721 -2.98211 -0.920681 0
M  V30 2088 N 201.022 0.148545 -1.56898 0
M  V30 2089 C 202.269 0.861418 -1.83264 0
M  V30 2090 C 202.597 1.81239 -0.705883 0
M  V30 2091 O 201.852 1.93305 0.305212 0
M  V30 2092 C 202.151 1.67064 -3.1595 0
M  V30 2093 C 201.817 0.866591 -4.42494 0
M  V30 2094 C 200.479 0.644762 -4.76861 0
M  V30 2095 C 202.831 0.30418 -5.20312 0
M  V30 2096 C 200.159 -0.15021 -5.86508 0
M  V30 2097 C 202.511 -0.477824 -6.30793 0
M  V30 2098 C 201.175 -0.710244 -6.63711 0
M  V30 2099 H 200.445 0.315215 -0.670612 0
M  V30 2100 H 203.092 0.125142 -1.91091 0
M  V30 2101 H 201.397 2.47698 -3.03567 0
M  V30 2102 H 203.094 2.22566 -3.33565 0
M  V30 2103 H 199.684 1.04955 -4.15551 0
M  V30 2104 H 203.868 0.462844 -4.94137 0
M  V30 2105 H 199.124 -0.339796 -6.10455 0
M  V30 2106 H 203.298 -0.92076 -6.90286 0
M  V30 2107 H 200.925 -1.3281 -7.48509 0
M  V30 2108 N 202.5 1.5196 0.417844 0
M  V30 2109 C 203.41 1.77554 1.53336 0
M  V30 2110 C 204.426 0.660655 1.6097 0
M  V30 2111 O 205.602 0.945099 1.77848 0
M  V30 2112 C 202.667 1.91291 2.89152 0
M  V30 2113 C 201.728 3.15183 2.91475 0
M  V30 2114 C 200.961 3.28256 4.20813 0
M  V30 2115 O 201.184 2.46798 5.14244 0
M  V30 2116 O 200.118 4.21356 4.29817 0
M  V30 2117 H 203.944 2.7222 1.34647 0
M  V30 2118 H 201.529 1.36698 0.602828 0
M  V30 2119 H 203.411 2.02199 3.69721 0
M  V30 2120 H 202.086 0.998129 3.07927 0
M  V30 2121 H 200.993 3.09739 2.09791 0
M  V30 2122 H 202.326 4.06414 2.77648 0
M  V30 2123 N 203.978 -0.674533 1.42435 0
M  V30 2124 C 205.203 -1.46784 1.46524 0
M  V30 2125 C 205.628 -1.87938 0.078066 0
M  V30 2126 O 204.986 -1.56014 -0.92354 0
M  V30 2127 C 205.034 -2.69307 2.39805 0
M  V30 2128 O 204.138 -3.67587 1.86959 0
M  V30 2129 H 203.479 -0.440959 0.496439 0
M  V30 2130 H 206.009 -0.827326 1.87127 0
M  V30 2131 H 206.019 -3.17374 2.56393 0
M  V30 2132 H 204.694 -2.38692 3.40586 0
M  V30 2133 H 203.271 -3.2662 1.79927 0
M  V30 2134 N 205.456 -1.28612 -0.910864 0
M  V30 2135 C 206.386 -1.15326 -2.03032 0
M  V30 2136 C 207.367 -0.0502924 -1.70026 0
M  V30 2137 O 208.552 -0.227797 -1.92859 0
M  V30 2138 C 205.682 -0.817343 -3.37545 0
M  V30 2139 C 204.636 -1.8754 -3.84724 0
M  V30 2140 C 203.962 -1.39305 -5.16235 0
M  V30 2141 C 205.262 -3.28244 -4.06267 0
M  V30 2142 H 206.956 -2.08975 -2.14406 0
M  V30 2143 H 204.502 -1.00612 -1.03021 0
M  V30 2144 H 206.455 -0.711151 -4.15356 0
M  V30 2145 H 205.179 0.154846 -3.26233 0
M  V30 2146 H 203.838 -1.97079 -3.09121 0
M  V30 2147 H 203.486 -0.409846 -5.01328 0
M  V30 2148 H 203.186 -2.10057 -5.48771 0
M  V30 2149 H 204.71 -1.30014 -5.96598 0
M  V30 2150 H 206.124 -3.21611 -4.74594 0
M  V30 2151 H 204.521 -3.96855 -4.5014 0
M  V30 2152 H 205.591 -3.72048 -3.10979 0
M  V30 2153 N 206.934 1.1197 -1.10907 0
M  V30 2154 C 207.844 2.21433 -0.774896 0
M  V30 2155 C 208.86 1.72478 0.229657 0
M  V30 2156 O 210.036 2.01288 0.0672008 0
M  V30 2157 C 207.101 3.4602 -0.216986 0
M  V30 2158 C 206.162 4.09791 -1.27944 0
M  V30 2159 C 205.395 5.28431 -0.748055 0
M  V30 2160 O 205.618 5.68823 0.423833 0
M  V30 2161 O 204.552 5.82644 -1.51027 0
M  V30 2162 H 208.378 2.5242 -1.68873 0
M  V30 2163 H 205.963 1.20399 -0.884555 0
M  V30 2164 H 207.845 4.21304 0.090059 0
M  V30 2165 H 206.52 3.16698 0.669633 0
M  V30 2166 H 205.427 3.36265 -1.63941 0
M  V30 2167 H 206.76 4.4328 -2.13925 0
M  V30 2168 N 208.412 0.89855 1.29475 0
M  V30 2169 C 209.322 0.379974 2.31502 0
M  V30 2170 C 210.338 -0.524695 1.659 0
M  V30 2171 O 211.514 -0.414551 1.97087 0
M  V30 2172 C 208.579 -0.385138 3.44554 0
M  V30 2173 C 207.64 0.550914 4.2575 0
M  V30 2174 C 206.873 -0.177778 5.33404 0
M  V30 2175 O 207.096 -1.40189 5.52904 0
M  V30 2176 O 206.03 0.479106 5.9999 0
M  V30 2177 H 209.856 1.22639 2.77837 0
M  V30 2178 H 207.441 0.662834 1.33891 0
M  V30 2179 H 209.323 -0.817841 4.13388 0
M  V30 2180 H 207.998 -1.20763 3.0033 0
M  V30 2181 H 206.905 1.03271 3.59564 0
M  V30 2182 H 208.238 1.33979 4.73614 0
M  V30 2183 N 209.89 -1.43072 0.660911 0
M  V30 2184 C 211.13 -2.03596 0.181146 0
M  V30 2185 C 211.494 -1.51057 -1.18515 0
M  V30 2186 O 212.695 -2.03275 -1.75877 0
M  V30 2187 C 210.966 -3.56845 0.19911 0
M  V30 2188 S 212.525 -4.38289 -0.211684 0
M  V30 2189 H 209.343 -0.706954 0.0757479 0
M  V30 2190 H 211.945 -1.75027 0.870965 0
M  V30 2191 H 210.649 -3.92583 1.1961 0
M  V30 2192 H 210.18 -3.90067 -0.510996 0
M  V30 2193 H 212.195 -4.74583 -1.44863 0
M  V30 2194 N 211.368 -0.403325 -1.52352 0
M  V30 2195 C 212.598 0.17376 -2.05868 0
M  V30 2196 C 213.006 1.39898 -1.27378 0
M  V30 2197 O 212.349 1.80939 -0.31729 0
M  V30 2198 C 212.411 0.594756 -3.54546 0
M  V30 2199 C 212.075 -0.518926 -4.54044 0
M  V30 2200 C 213.072 -1.3807 -5.01231 0
M  V30 2201 C 210.757 -0.689961 -4.97539 0
M  V30 2202 C 212.751 -2.39852 -5.90551 0
M  V30 2203 C 210.438 -1.71109 -5.86656 0
M  V30 2204 C 211.436 -2.56378 -6.33056 0
M  V30 2205 O 211.124 -3.56743 -7.20409 0
M  V30 2206 H 210.856 0.0264951 -0.675481 0
M  V30 2207 H 213.41 -0.571179 -1.97299 0
M  V30 2208 H 211.64 1.39189 -3.60782 0
M  V30 2209 H 213.329 1.0991 -3.90736 0
M  V30 2210 H 214.095 -1.25994 -4.68349 0
M  V30 2211 H 209.974 -0.035939 -4.60986 0
M  V30 2212 H 213.518 -3.06441 -6.26689 0
M  V30 2213 H 209.415 -1.83218 -6.18952 0
M  V30 2214 H 210.183 -3.52918 -7.38506 0
M  V30 2215 N 212.846 1.57033 -0.133567 0
M  V30 2216 C 213.779 2.11824 0.848872 0
M  V30 2217 C 214.757 1.03833 1.2513 0
M  V30 2218 O 215.941 1.31579 1.34978 0
M  V30 2219 C 213.068 2.62692 2.138 0
M  V30 2220 C 212.114 3.82705 1.88253 0
M  V30 2221 S 212.947 5.2438 1.08563 0
M  V30 2222 C 214.103 5.78627 2.38624 0
M  V30 2223 H 214.336 2.94824 0.38289 0
M  V30 2224 H 211.869 1.5419 0.0804796 0
M  V30 2225 H 213.827 2.92652 2.87863 0
M  V30 2226 H 212.488 1.79847 2.57515 0
M  V30 2227 H 211.681 4.16496 2.83809 0
M  V30 2228 H 211.283 3.53437 1.22305 0
M  V30 2229 H 213.575 5.8924 3.34369 0
M  V30 2230 H 214.518 6.76443 2.09358 0
M  V30 2231 H 214.926 5.06783 2.48658 0
M  V30 2232 N 214.325 -0.140222 1.56975 0
M  V30 2233 C 215.288 -1.15689 1.97861 0
M  V30 2234 C 216.288 -1.3549 0.865974 0
M  V30 2235 O 217.478 -1.32367 1.13246 0
M  V30 2236 C 214.61 -2.51582 2.30042 0
M  V30 2237 H 215.803 -0.805971 2.88867 0
M  V30 2238 H 213.356 -0.383801 1.51515 0
M  V30 2239 H 214.091 -2.91632 1.41849 0
M  V30 2240 H 213.876 -2.38569 3.11171 0
M  V30 2241 H 215.366 -3.24792 2.62488 0
M  V30 2242 N 215.803 -1.52179 -0.40978 0
M  V30 2243 C 216.75 -1.75475 -1.49924 0
M  V30 2244 C 217.72 -0.597175 -1.54994 0
M  V30 2245 O 218.905 -0.834655 -1.71575 0
M  V30 2246 C 216.045 -1.9107 -2.87378 0
M  V30 2247 C 215.158 -3.18717 -2.91622 0
M  V30 2248 C 214.293 -3.24747 -4.20372 0
M  V30 2249 C 213.332 -4.46598 -4.18588 0
M  V30 2250 N 212.469 -4.50025 -5.38908 0
M  V30 2251 H 217.309 -2.68458 -1.29361 0
M  V30 2252 H 214.846 -1.33024 -0.627934 0
M  V30 2253 H 216.804 -1.98096 -3.6717 0
M  V30 2254 H 215.434 -1.01469 -3.06437 0
M  V30 2255 H 214.486 -3.20866 -2.04326 0
M  V30 2256 H 215.798 -4.08544 -2.86169 0
M  V30 2257 H 214.952 -3.30841 -5.08556 0
M  V30 2258 H 213.691 -2.32857 -4.28519 0
M  V30 2259 H 212.696 -4.40652 -3.28794 0
M  V30 2260 H 213.921 -5.39783 -4.12081 0
M  V30 2261 H 211.867 -3.61017 -5.47725 0
M  V30 2262 H 211.784 -5.33697 -5.35447 0
M  V30 2263 H 213.052 -4.60347 -6.29048 0
M  V30 2264 N 217.281 0.66697 -1.42791 0
M  V30 2265 C 218.53 1.42278 -1.42968 0
M  V30 2266 C 218.843 1.9553 -0.0524489 0
M  V30 2267 O 220.049 2.71414 0.068363 0
M  V30 2268 C 218.505 2.57418 -2.51524 0
M  V30 2269 C 218.113 2.10832 -3.9529 0
M  V30 2270 C 219.857 3.34878 -2.60877 0
M  V30 2271 C 217.764 3.23101 -4.95338 0
M  V30 2272 H 216.694 0.534533 -0.531781 0
M  V30 2273 H 219.345 0.721302 -1.68729 0
M  V30 2274 H 217.727 3.29971 -2.18941 0
M  V30 2275 H 218.901 1.4538 -4.37266 0
M  V30 2276 H 217.216 1.46289 -3.89857 0
M  V30 2277 H 219.813 4.18505 -3.32802 0
M  V30 2278 H 220.156 3.81993 -1.6549 0
M  V30 2279 H 220.689 2.69398 -2.92693 0
M  V30 2280 H 217.428 2.80969 -5.9223 0
M  V30 2281 H 216.948 3.87309 -4.57987 0
M  V30 2282 H 218.627 3.88447 -5.17415 0
M  V30 2283 N 218.759 1.29093 0.90403 0
M  V30 2284 C 219.689 1.16401 2.02418 0
M  V30 2285 C 220.67 0.0593085 1.69997 0
M  V30 2286 O 221.855 0.238021 1.92736 0
M  V30 2287 C 218.985 0.835233 3.37107 0
M  V30 2288 C 217.939 1.89578 3.83724 0
M  V30 2289 C 217.265 1.42041 5.15489 0
M  V30 2290 C 218.565 3.30394 4.04521 0
M  V30 2291 H 220.259 2.10109 2.13295 0
M  V30 2292 H 217.805 1.01157 1.02486 0
M  V30 2293 H 219.758 0.733169 4.14973 0
M  V30 2294 H 218.482 -0.137543 3.2631 0
M  V30 2295 H 217.141 1.98715 3.08071 0
M  V30 2296 H 216.789 0.436426 5.01103 0
M  V30 2297 H 216.489 2.12964 5.4765 0
M  V30 2298 H 218.013 1.33176 5.959 0
M  V30 2299 H 219.427 3.24123 4.72882 0
M  V30 2300 H 217.824 3.99237 4.48029 0
M  V30 2301 H 218.894 3.73692 3.09002 0
M  V30 2302 N 220.237 -1.11381 1.11499 0
M  V30 2303 C 221.483 -1.83403 0.865512 0
M  V30 2304 C 221.816 -1.84459 -0.607329 0
M  V30 2305 O 221.091 -1.29811 -1.44842 0
M  V30 2306 C 221.374 -3.30552 1.42855 0
M  V30 2307 C 221.227 -3.37886 2.96906 0
M  V30 2308 C 222.546 -4.26643 1.08 0
M  V30 2309 H 219.665 -0.665879 0.31587 0
M  V30 2310 H 222.307 -1.30601 1.37998 0
M  V30 2311 H 220.457 -3.75648 0.990985 0
M  V30 2312 H 222.129 -3.01343 3.49271 0
M  V30 2313 H 220.372 -2.78088 3.32941 0
M  V30 2314 H 221.043 -4.41458 3.31389 0
M  V30 2315 H 223.519 -3.89729 1.45775 0
M  V30 2316 H 222.395 -5.27986 1.50072 0
M  V30 2317 H 222.656 -4.42099 -0.00915037 0
M  V30 2318 N 221.715 -0.905404 -1.28997 0
M  V30 2319 C 222.678 -0.392253 -2.25819 0
M  V30 2320 C 223.678 0.476753 -1.5357 0
M  V30 2321 O 224.868 0.280994 -1.71919 0
M  V30 2322 C 222 0.438588 -3.38067 0
M  V30 2323 H 223.193 -1.24743 -2.72725 0
M  V30 2324 H 220.746 -0.684051 -1.40536 0
M  V30 2325 H 221.481 1.31352 -2.96508 0
M  V30 2326 H 221.266 -0.184167 -3.91667 0
M  V30 2327 H 222.756 0.78873 -4.10084 0
M  V30 2328 N 223.193 1.4272 -0.668489 0
M  V30 2329 C 224.103 2.34596 0.0139753 0
M  V30 2330 C 225.119 1.5474 0.795703 0
M  V30 2331 O 226.295 1.87334 0.739466 0
M  V30 2332 C 223.36 3.33202 0.957982 0
M  V30 2333 C 222.421 4.28957 0.17149 0
M  V30 2334 C 221.654 5.22853 1.07053 0
M  V30 2335 O 221.877 5.21531 2.31001 0
M  V30 2336 O 220.811 5.9952 0.534727 0
M  V30 2337 H 224.637 2.9448 -0.742661 0
M  V30 2338 H 222.222 1.43117 -0.428705 0
M  V30 2339 H 224.104 3.93796 1.50008 0
M  V30 2340 H 222.779 2.758 1.69458 0
M  V30 2341 H 221.686 3.71796 -0.414558 0
M  V30 2342 H 223.019 4.89383 -0.52586 0
M  V30 2343 N 224.671 0.411399 1.52136 0
M  V30 2344 C 225.919 -0.163322 2.01439 0
M  V30 2345 C 226.24 -1.45453 1.29879 0
M  V30 2346 O 225.51 -1.91225 0.4254 0
M  V30 2347 H 224.09 -0.0633447 0.744309 0
M  V30 2348 H 226.752 0.548161 1.87033 0
M  V30 2349 H 225.848 -0.357817 3.10042 0
M  V30 2350 N 226.149 -1.5696 0.141893 0
M  V30 2351 C 227.377 -2.00322 -0.517579 0
M  V30 2352 C 227.792 -1.02193 -1.58752 0
M  V30 2353 O 227.149 -0.0181619 -1.82491 0
M  V30 2354 C 227.2 -3.43618 -1.12289 0
M  V30 2355 O 226.921 -4.37995 -0.0956929 0
M  V30 2356 C 228.422 -4.02231 -1.86347 0
M  V30 2357 H 225.642 -0.657243 -0.135177 0
M  V30 2358 H 228.186 -2.03146 0.234973 0
M  V30 2359 H 226.341 -3.41662 -1.82609 0
M  V30 2360 H 226.755 -5.21729 -0.538469 0
M  V30 2361 H 228.229 -5.04509 -2.23997 0
M  V30 2362 H 228.706 -3.42655 -2.74744 0
M  V30 2363 H 229.312 -4.07802 -1.20737 0
M  V30 2364 N 227.627 0.131896 -1.57047 0
M  V30 2365 C 229.043 0.485031 -1.52051 0
M  V30 2366 C 229.243 1.82563 -0.85281 0
M  V30 2367 O 228.299 2.48817 -0.429694 0
M  V30 2368 C 229.612 0.481409 -2.96821 0
M  V30 2369 C 231.16 0.565868 -3.07842 0
M  V30 2370 C 231.635 0.592762 -4.54148 0
M  V30 2371 N 233.126 0.654564 -4.58552 0
M  V30 2372 C 233.861 0.696608 -5.69153 0
M  V30 2373 N 233.357 0.697078 -6.89284 0
M  V30 2374 N 235.15 0.738639 -5.57226 0
M  V30 2375 H 227.301 -0.746664 -1.98843 0
M  V30 2376 H 229.564 -0.273999 -0.90754 0
M  V30 2377 H 229.27 -0.435731 -3.4899 0
M  V30 2378 H 229.144 1.3139 -3.53577 0
M  V30 2379 H 231.531 1.47343 -2.55684 0
M  V30 2380 H 231.612 -0.29406 -2.54104 0
M  V30 2381 H 231.256 -0.310701 -5.06949 0
M  V30 2382 H 231.186 1.46939 -5.05684 0
M  V30 2383 H 233.677 0.660887 -3.72076 0
M  V30 2384 H 233.99 0.731426 -7.69331 0
M  V30 2385 H 232.335 0.66471 -6.91814 0
M  V30 2386 H 235.526 0.735545 -4.62285 0
M  V30 2387 H 235.699 0.767938 -6.43434 0
M  V30 2388 N 229.106 1.52395 0.401703 0
M  V30 2389 C 230.383 1.57387 1.16141 0
M  V30 2390 C 230.763 0.359359 2.08019 0
M  V30 2391 O 230.111 -0.65326 2.18963 0
M  V30 2392 C 230.321 2.90631 1.93221 0
M  V30 2393 C 231.669 3.43904 2.49028 0
M  V30 2394 O 232.693 2.92421 2.03393 0
M  V30 2395 O 231.552 4.33823 3.32356 0
M  V30 2396 H 228.646 0.634262 0.530698 0
M  V30 2397 H 231.192 1.64725 0.407883 0
M  V30 2398 H 229.964 3.70473 1.25958 0
M  V30 2399 H 229.587 2.8662 2.75563 0
M  V30 2400 N 230.584 -0.659388 1.43143 0
M  V30 2401 C 231.83 -1.42145 1.44647 0
M  V30 2402 C 232.163 -1.9408 0.0681907 0
M  V30 2403 O 231.438 -1.71899 -0.910007 0
M  V30 2404 C 231.721 -2.60735 2.48373 0
M  V30 2405 C 231.574 -2.14332 3.95451 0
M  V30 2406 C 232.893 -3.62951 2.48906 0
M  V30 2407 H 230.012 -0.51552 0.526696 0
M  V30 2408 H 232.654 -0.748069 1.74654 0
M  V30 2409 H 230.804 -3.18184 2.22916 0
M  V30 2410 H 232.476 -1.61932 4.31944 0
M  V30 2411 H 230.719 -1.4576 4.08578 0
M  V30 2412 H 231.39 -2.99583 4.63631 0
M  V30 2413 H 233.866 -3.1525 2.71582 0
M  V30 2414 H 232.742 -4.43487 3.23435 0
M  V30 2415 H 233.003 -4.15126 1.52061 0
M  V30 2416 N 232.062 -1.29571 -0.897171 0
M  V30 2417 C 233.473 -1.15964 -1.46319 0
M  V30 2418 C 233.824 0.244267 -1.94674 0
M  V30 2419 O 232.949 1.13998 -1.83939 0
M  V30 2420 C 233.544 -2.09906 -2.65942 0
M  V30 2421 C 232.103 -2.00314 -3.18671 0
M  V30 2422 C 231.25 -2.00687 -1.91363 0
M  V30 2423 H 234.201 -1.42019 -0.708268 0
M  V30 2424 H 234.222 -1.67276 -3.41759 0
M  V30 2425 H 233.734 -3.12075 -2.30718 0
M  V30 2426 H 231.835 -1.01242 -3.58582 0
M  V30 2427 H 231.948 -2.88102 -3.82798 0
M  V30 2428 H 230.312 -1.45319 -2.09175 0
M  V30 2429 H 231.095 -3.04566 -1.58413 0
M  V30 2430 N 233.54 1.10788 -1.12088 0
M  V30 2431 C 234.789 1.82036 -0.868659 0
M  V30 2432 C 235.102 1.85929 0.607426 0
M  V30 2433 O 236.308 2.53346 0.97613 0
M  V30 2434 C 234.764 3.26951 -1.50435 0
M  V30 2435 C 234.372 3.31367 -3.01496 0
M  V30 2436 C 236.116 4.03053 -1.33225 0
M  V30 2437 C 234.023 4.7072 -3.58017 0
M  V30 2438 H 232.953 0.682108 -0.321318 0
M  V30 2439 H 235.604 1.24618 -1.34694 0
M  V30 2440 H 233.986 3.84343 -0.953735 0
M  V30 2441 H 235.16 2.83819 -3.6302 0
M  V30 2442 H 233.475 2.6875 -3.18061 0
M  V30 2443 H 236.072 5.05981 -1.72878 0
M  V30 2444 H 236.415 4.15387 -0.275529 0
M  V30 2445 H 236.948 3.52066 -1.85188 0
M  V30 2446 H 233.687 4.63585 -4.63432 0
M  V30 2447 H 233.207 5.1865 -3.01268 0
M  V30 2448 H 234.886 5.39685 -3.56859 0
M  V30 2449 N 235.018 0.912232 1.28515 0
M  V30 2450 C 236.266 0.543523 1.94654 0
M  V30 2451 C 236.587 -0.9155 1.72173 0
M  V30 2452 O 235.857 -1.64708 1.06058 0
M  V30 2453 H 234.437 0.198017 0.720277 0
M  V30 2454 H 237.099 1.16126 1.56527 0
M  V30 2455 H 236.195 0.736684 3.03281 0
M  V30 2456 N 236.496 -1.42363 0.676048 0
M  V30 2457 C 237.459 -2.29199 0.00766941 0
M  V30 2458 C 238.459 -1.43389 -0.727745 0
M  V30 2459 O 239.649 -1.64764 -0.56556 0
M  V30 2460 C 236.781 -3.2591 -0.999785 0
M  V30 2461 H 237.974 -2.89794 0.771988 0
M  V30 2462 H 235.527 -1.50024 0.438468 0
M  V30 2463 H 236.262 -2.70256 -1.79255 0
M  V30 2464 H 236.047 -3.89202 -0.475829 0
M  V30 2465 H 237.537 -3.91028 -1.46583 0
M  V30 2466 N 237.974 -0.419461 -1.51915 0
M  V30 2467 C 239.223 0.154346 -2.01109 0
M  V30 2468 C 239.536 1.45338 -1.30905 0
M  V30 2469 O 240.742 2.10906 -1.7097 0
M  V30 2470 C 239.198 0.325615 -3.58424 0
M  V30 2471 C 238.806 -0.961934 -4.37551 0
M  V30 2472 C 240.55 0.854155 -4.15818 0
M  V30 2473 C 238.457 -0.757287 -5.86531 0
M  V30 2474 H 237.387 0.0614563 -0.751491 0
M  V30 2475 H 240.038 -0.54649 -1.75173 0
M  V30 2476 H 238.42 1.08903 -3.80731 0
M  V30 2477 H 239.594 -1.7323 -4.26999 0
M  V30 2478 H 237.909 -1.41766 -3.91524 0
M  V30 2479 H 240.506 1.02346 -5.24814 0
M  V30 2480 H 240.849 1.83172 -3.73837 0
M  V30 2481 H 241.382 0.149528 -3.97519 0
M  V30 2482 H 238.121 -1.70671 -6.32892 0
M  V30 2483 H 237.641 -0.0264061 -5.99794 0
M  V30 2484 H 239.32 -0.403482 -6.45741 0
M  V30 2485 N 239.452 1.56882 -0.150215 0
M  V30 2486 C 240.701 1.95403 0.500071 0
M  V30 2487 C 241.014 1.03777 1.658 0
M  V30 2488 O 242.22 1.31889 2.37313 0
M  V30 2489 C 240.676 3.4738 0.941018 0
M  V30 2490 C 240.284 4.47596 -0.190158 0
M  V30 2491 C 242.028 3.9476 1.56091 0
M  V30 2492 C 239.935 5.90787 0.269237 0
M  V30 2493 H 238.865 0.729515 0.190588 0
M  V30 2494 H 241.516 1.81988 -0.235074 0
M  V30 2495 H 239.898 3.56138 1.73152 0
M  V30 2496 H 241.072 4.50536 -0.967157 0
M  V30 2497 H 239.387 4.10151 -0.718666 0
M  V30 2498 H 241.984 4.99181 1.9163 0
M  V30 2499 H 242.327 3.36494 2.45107 0
M  V30 2500 H 242.86 3.88932 0.835249 0
M  V30 2501 H 239.599 6.52879 -0.585621 0
M  V30 2502 H 239.119 5.912 1.01204 0
M  V30 2503 H 240.798 6.42979 0.720176 0
M  V30 2504 N 240.93 -0.123565 1.57115 0
M  V30 2505 C 242.17 -0.838097 1.86428 0
M  V30 2506 C 242.534 -1.77266 0.737611 0
M  V30 2507 O 243.735 -2.52842 0.912389 0
M  V30 2508 C 242.006 -1.57219 3.20962 0
M  V30 2509 S 243.565 -2.32893 3.71896 0
M  V30 2510 H 240.383 -0.279811 0.653626 0
M  V30 2511 H 242.985 -0.0967034 1.95261 0
M  V30 2512 H 241.689 -0.877522 4.00909 0
M  V30 2513 H 241.22 -2.35405 3.15195 0
M  V30 2514 H 243.235 -3.5853 3.43032 0
M  V30 2515 N 242.408 -1.52605 -0.393616 0
M  V30 2516 C 243.657 -1.66649 -1.13627 0
M  V30 2517 C 243.97 -0.410364 -1.91247 0
M  V30 2518 O 245.176 -0.430854 -2.68059 0
M  V30 2519 C 243.632 -2.9449 -2.06891 0
M  V30 2520 C 243.24 -4.27266 -1.34714 0
M  V30 2521 C 244.984 -3.17899 -2.81319 0
M  V30 2522 C 242.891 -5.46217 -2.26717 0
M  V30 2523 H 241.821 -0.62084 -0.427871 0
M  V30 2524 H 244.472 -1.791 -0.399428 0
M  V30 2525 H 242.854 -2.75774 -2.84191 0
M  V30 2526 H 244.028 -4.56518 -0.626714 0
M  V30 2527 H 242.343 -4.10081 -0.722643 0
M  V30 2528 H 244.94 -4.03949 -3.50328 0
M  V30 2529 H 245.283 -2.32777 -3.45139 0
M  V30 2530 H 245.816 -3.37159 -2.11113 0
M  V30 2531 H 242.555 -6.33733 -1.67521 0
M  V30 2532 H 242.075 -5.21283 -2.96689 0
M  V30 2533 H 243.754 -5.7991 -2.86903 0
M  V30 2534 N 243.887 0.651787 -1.4349 0
M  V30 2535 C 245.115 1.43937 -1.48626 0
M  V30 2536 C 245.53 1.8851 -0.104587 0
M  V30 2537 O 244.887 1.5958 0.885464 0
M  V30 2538 C 244.938 2.6734 -2.43334 0
M  V30 2539 O 244.659 2.24631 -3.76128 0
M  V30 2540 C 246.16 3.60683 -2.57726 0
M  V30 2541 H 243.38 0.44213 -0.504739 0
M  V30 2542 H 245.924 0.798944 -1.88248 0
M  V30 2543 H 244.079 3.2752 -2.06904 0
M  V30 2544 H 244.493 3.04485 -4.2707 0
M  V30 2545 H 245.967 4.43933 -3.28067 0
M  V30 2546 H 246.444 4.08126 -1.62265 0
M  V30 2547 H 247.05 3.06384 -2.94973 0
M  V30 2548 N 245.365 1.30045 0.890287 0
M  V30 2549 C 246.611 1.18737 1.64406 0
M  V30 2550 C 246.944 -0.258525 1.92472 0
M  V30 2551 O 246.219 -1.18562 1.54186 0
M  V30 2552 C 246.502 2.01087 2.98724 0
M  V30 2553 C 246.355 3.53867 2.77665 0
M  V30 2554 C 247.674 1.84457 3.9958 0
M  V30 2555 H 244.793 0.432698 0.596608 0
M  V30 2556 H 247.435 1.5962 1.0306 0
M  V30 2557 H 245.585 1.66349 3.51084 0
M  V30 2558 H 247.257 3.98637 2.32133 0
M  V30 2559 H 245.5 3.78318 2.12269 0
M  V30 2560 H 246.171 4.06772 3.7315 0
M  V30 2561 H 248.647 2.14817 3.56361 0
M  V30 2562 H 247.523 2.44411 4.91482 0
M  V30 2563 H 247.784 0.802276 4.3476 0
M  V30 2564 N 246.843 -1.10192 1.12674 0
M  V30 2565 C 248.091 -1.81845 0.881861 0
M  V30 2566 C 248.412 -1.85737 -0.593867 0
M  V30 2567 O 247.682 -1.33724 -1.4316 0
M  V30 2568 H 246.262 -0.673432 0.323261 0
M  V30 2569 H 248.924 -1.33316 1.42172 0
M  V30 2570 H 248.02 -2.85288 1.2656 0
M  V30 2571 N 248.321 -0.919034 -1.28029 0
M  V30 2572 C 249.268 -0.410005 -2.27129 0
M  V30 2573 C 250.238 0.518405 -1.57803 0
M  V30 2574 O 251.423 0.439451 -1.8567 0
M  V30 2575 C 248.563 0.339054 -3.4343 0
M  V30 2576 C 247.676 -0.622468 -4.27492 0
M  V30 2577 C 246.811 0.145567 -5.31001 0
M  V30 2578 C 245.85 -0.809226 -6.06727 0
M  V30 2579 N 244.987 -0.0743728 -7.02061 0
M  V30 2580 H 249.827 -1.26011 -2.70047 0
M  V30 2581 H 247.364 -0.632663 -1.328 0
M  V30 2582 H 249.322 0.789586 -4.0966 0
M  V30 2583 H 247.952 1.15346 -3.01488 0
M  V30 2584 H 247.004 -1.19153 -3.61257 0
M  V30 2585 H 248.316 -1.35252 -4.80113 0
M  V30 2586 H 247.47 0.656417 -6.03139 0
M  V30 2587 H 246.209 0.908643 -4.79161 0
M  V30 2588 H 245.214 -1.3314 -5.33436 0
M  V30 2589 H 246.439 -1.57194 -6.60656 0
M  V30 2590 H 244.385 0.670616 -6.52563 0
M  V30 2591 H 244.302 -0.744157 -7.52329 0
M  V30 2592 H 245.57 0.416109 -7.78389 0
M  V30 2593 N 249.799 1.42003 -0.683588 0
M  V30 2594 C 251.21 1.84501 -0.285736 0
M  V30 2595 C 251.561 1.57213 1.17382 0
M  V30 2596 O 250.686 1.03642 1.89966 0
M  V30 2597 C 251.281 3.34912 -0.511821 0
M  V30 2598 C 249.84 3.76025 -0.168005 0
M  V30 2599 C 248.987 2.6551 -0.799983 0
M  V30 2600 H 251.938 1.31724 -0.885119 0
M  V30 2601 H 251.959 3.79784 0.233292 0
M  V30 2602 H 251.471 3.54741 -1.57418 0
M  V30 2603 H 249.572 3.61801 0.890567 0
M  V30 2604 H 249.685 4.75141 -0.614661 0
M  V30 2605 H 248.049 2.53654 -0.230568 0
M  V30 2606 H 248.832 2.8816 -1.86597 0
M  V30 2607 N 251.277 0.427512 1.51691 0
M  V30 2608 C 252.187 -0.39527 2.31246 0
M  V30 2609 C 253.203 -1.03674 1.39742 0
M  V30 2610 O 254.379 -1.03425 1.72816 0
M  V30 2611 C 251.444 -1.48706 3.13189 0
M  V30 2612 C 250.505 -0.866743 4.20459 0
M  V30 2613 C 249.738 -1.90651 4.98486 0
M  V30 2614 O 249.961 -3.12733 4.77026 0
M  V30 2615 O 248.895 -1.5025 5.82845 0
M  V30 2616 H 252.721 0.253918 3.02637 0
M  V30 2617 H 250.306 0.190274 1.48183 0
M  V30 2618 H 252.188 -2.12047 3.64162 0
M  V30 2619 H 250.863 -2.12051 2.44573 0
M  V30 2620 H 249.77 -0.195544 3.73589 0
M  V30 2621 H 251.103 -0.276934 4.9142 0
M  V30 2622 N 252.755 -1.56801 0.158532 0
M  V30 2623 C 254.032 -1.88131 -0.535357 0
M  V30 2624 C 254.412 -1.06638 -1.82186 0
M  V30 2625 O 253.76 -0.156533 -2.27963 0
M  V30 2626 C 253.97 -3.39949 -0.789653 0
M  V30 2627 C 255.318 -4.09416 -1.12533 0
M  V30 2628 O 256.342 -3.45194 -0.878622 0
M  V30 2629 O 255.201 -5.22855 -1.59014 0
M  V30 2630 H 252.295 -0.780143 -0.27442 0
M  V30 2631 H 254.841 -1.68564 0.19601 0
M  V30 2632 H 253.613 -3.91115 0.120353 0
M  V30 2633 H 253.236 -3.65084 -1.57479 0
M  V30 2634 N 254.233 0.115231 -1.57178 0
M  V30 2635 C 255.482 0.820945 -1.84237 0
M  V30 2636 C 255.795 1.80866 -0.744761 0
M  V30 2637 O 257.001 2.56083 -0.901871 0
M  V30 2638 C 255.457 1.51072 -3.26658 0
M  V30 2639 C 255.065 0.563795 -4.44438 0
M  V30 2640 C 256.809 2.20134 -3.62962 0
M  V30 2641 C 254.716 1.25701 -5.77887 0
M  V30 2642 H 253.646 0.310328 -0.687177 0
M  V30 2643 H 256.297 0.0737134 -1.83352 0
M  V30 2644 H 254.679 2.30471 -3.22024 0
M  V30 2645 H 255.853 -0.197247 -4.60378 0
M  V30 2646 H 254.168 -0.0200638 -4.16395 0
M  V30 2647 H 256.765 2.72696 -4.59936 0
M  V30 2648 H 257.108 2.98107 -2.90582 0
M  V30 2649 H 257.641 1.47619 -3.69396 0
M  V30 2650 H 254.38 0.518493 -6.53446 0
M  V30 2651 H 253.9 1.98997 -5.65827 0
M  V30 2652 H 255.579 1.78915 -6.2177 0
M  V30 2653 N 255.711 1.52812 0.385517 0
M  V30 2654 C 256.621 1.80766 1.49535 0
M  V30 2655 C 257.637 0.694651 1.59532 0
M  V30 2656 O 258.813 0.982611 1.75803 0
M  V30 2657 C 255.878 1.97381 2.85029 0
M  V30 2658 C 254.939 3.21295 2.84724 0
M  V30 2659 C 254.172 3.37108 4.13756 0
M  V30 2660 O 254.395 2.5765 5.08893 0
M  V30 2661 O 253.329 4.30378 4.20783 0
M  V30 2662 H 257.155 2.75015 1.28842 0
M  V30 2663 H 254.74 1.37946 0.573697 0
M  V30 2664 H 256.622 2.09996 3.65349 0
M  V30 2665 H 255.297 1.06322 3.05741 0
M  V30 2666 H 254.204 3.1412 2.03174 0
M  V30 2667 H 255.537 4.12212 2.68965 0
M  V30 2668 N 257.189 -0.644168 1.43834 0
M  V30 2669 C 258.152 -1.73857 1.49353 0
M  V30 2670 C 259.152 -1.56315 0.377112 0
M  V30 2671 O 260.342 -1.62048 0.639226 0
M  V30 2672 C 257.474 -3.12819 1.35488 0
M  V30 2673 H 258.667 -1.70342 2.46827 0
M  V30 2674 H 256.22 -0.856652 1.30733 0
M  V30 2675 H 256.955 -3.2194 0.390569 0
M  V30 2676 H 256.74 -3.26958 2.16428 0
M  V30 2677 H 258.23 -3.92606 1.42302 0
M  V30 2678 N 258.668 -1.30515 -0.883378 0
M  V30 2679 C 259.915 -1.1943 -1.63532 0
M  V30 2680 C 260.243 0.250627 -1.92878 0
M  V30 2681 O 259.498 1.19556 -1.54935 0
M  V30 2682 C 259.797 -1.96994 -2.98209 0
M  V30 2683 C 259.463 -3.466 -2.88408 0
M  V30 2684 C 258.125 -3.87397 -2.85442 0
M  V30 2685 C 260.477 -4.41863 -2.76418 0
M  V30 2686 C 257.805 -5.21745 -2.68327 0
M  V30 2687 C 260.157 -5.7632 -2.60841 0
M  V30 2688 C 258.821 -6.16354 -2.56251 0
M  V30 2689 H 258.091 -0.437025 -0.598406 0
M  V30 2690 H 260.738 -1.61635 -1.02696 0
M  V30 2691 H 259.043 -1.47429 -3.63004 0
M  V30 2692 H 260.74 -1.85808 -3.55354 0
M  V30 2693 H 257.33 -3.14182 -2.91527 0
M  V30 2694 H 261.514 -4.11285 -2.77775 0
M  V30 2695 H 256.77 -5.51853 -2.63189 0
M  V30 2696 H 260.944 -6.49772 -2.50538 0
M  V30 2697 H 258.571 -7.20401 -2.42748 0
M  V30 2698 N 260.146 1.09593 -1.13257 0
M  V30 2699 C 261.093 2.1618 -0.808381 0
M  V30 2700 C 262.063 1.64517 0.228754 0
M  V30 2701 O 263.248 1.9053 0.101381 0
M  V30 2702 C 260.388 3.43973 -0.278675 0
M  V30 2703 C 259.501 4.09545 -1.37466 0
M  V30 2704 C 258.636 5.25088 -0.803479 0
M  V30 2705 C 257.675 5.82579 -1.87799 0
M  V30 2706 N 256.812 6.89486 -1.32488 0
M  V30 2707 H 261.652 2.43254 -1.72138 0
M  V30 2708 H 259.189 1.19392 -0.859294 0
M  V30 2709 H 261.147 4.17174 0.0465583 0
M  V30 2710 H 259.777 3.17223 0.597459 0
M  V30 2711 H 258.829 3.34226 -1.81652 0
M  V30 2712 H 260.141 4.48307 -2.18684 0
M  V30 2713 H 259.295 6.05178 -0.429427 0
M  V30 2714 H 258.034 4.87684 0.0397956 0
M  V30 2715 H 257.039 5.01152 -2.26113 0
M  V30 2716 H 258.264 6.22045 -2.72463 0
M  V30 2717 H 256.21 6.54064 -0.503575 0
M  V30 2718 H 256.127 7.27007 -2.07355 0
M  V30 2719 H 257.395 7.73336 -0.978336 0
M  V30 2720 N 261.624 0.925811 1.2754 0
M  V30 2721 C 262.572 0.413897 2.28888 0
M  V30 2722 C 263.566 -0.500779 1.61829 0
M  V30 2723 O 264.772 -0.38069 1.75928 0
M  V30 2724 H 261.147 0.115274 0.743112 0
M  V30 2725 H 263.118 1.28151 2.69481 0
M  V30 2726 C 261.867 -0.319792 3.46226 0
M  V30 2727 H 261.19 0.374846 3.98039 0
M  V30 2728 H 262.63 -0.642435 4.19105 0
M  V30 2729 C 261.089 -1.53209 3.00048 0
M  V30 2730 O 261.619 -2.6309 3.03557 0
M  V30 2731 N 259.825 -1.38326 2.55566 0
M  V30 2732 H 259.372 -0.489292 2.5291 0
M  V30 2733 H 259.33 -2.19564 2.25031 0
M  V30 2734 N 263.102 -1.41638 0.69111 0
M  V30 2735 C 264.332 -2.0533 0.228758 0
M  V30 2736 C 264.74 -1.52089 -1.12541 0
M  V30 2737 O 264.083 -0.662145 -1.71351 0
M  V30 2738 C 264.145 -3.59349 0.10407 0
M  V30 2739 C 263.809 -4.35362 1.38956 0
M  V30 2740 C 264.806 -4.64942 2.32648 0
M  V30 2741 C 262.491 -4.74714 1.64169 0
M  V30 2742 C 264.485 -5.32828 3.49818 0
M  V30 2743 C 262.172 -5.42338 2.81625 0
M  V30 2744 C 263.17 -5.71322 3.74273 0
M  V30 2745 O 262.858 -6.37554 4.89673 0
M  V30 2746 H 262.59 -0.667796 0.104997 0
M  V30 2747 H 265.144 -1.82477 0.942938 0
M  V30 2748 H 263.374 -3.80924 -0.665839 0
M  V30 2749 H 265.063 -4.04633 -0.320519 0
M  V30 2750 H 265.829 -4.35025 2.14425 0
M  V30 2751 H 261.708 -4.51538 0.929202 0
M  V30 2752 H 265.252 -5.55368 4.22152 0
M  V30 2753 H 261.149 -5.71673 2.99768 0
M  V30 2754 H 261.917 -6.56049 4.8943 0
M  V30 2755 N 264.58 -0.43555 -1.51462 0
M  V30 2756 C 265.808 0.130242 -2.0649 0
M  V30 2757 C 266.223 1.36614 -1.30315 0
M  V30 2758 O 265.58 1.78869 -0.362223 0
M  V30 2759 C 265.631 0.454253 -3.58635 0
M  V30 2760 O 265.352 -0.73259 -4.31931 0
M  V30 2761 C 266.853 1.07091 -4.3017 0
M  V30 2762 H 264.073 0.00871669 -0.670943 0
M  V30 2763 H 266.617 -0.614117 -1.95061 0
M  V30 2764 H 264.772 1.14851 -3.69984 0
M  V30 2765 H 265.186 -0.455787 -5.22516 0
M  V30 2766 H 266.66 1.24764 -5.37716 0
M  V30 2767 H 267.137 2.05144 -3.88346 0
M  V30 2768 H 267.743 0.416089 -4.2326 0
M  V30 2769 N 266.058 1.56714 -0.166846 0
M  V30 2770 C 266.988 2.20754 0.760913 0
M  V30 2771 C 267.969 1.16178 1.24244 0
M  V30 2772 O 269.154 1.44592 1.29641 0
M  V30 2773 C 266.284 2.84478 1.99223 0
M  V30 2774 C 265.238 3.95053 1.64672 0
M  V30 2775 C 264.564 4.45805 2.95232 0
M  V30 2776 C 265.864 5.14865 0.878155 0
M  V30 2777 H 267.558 2.98537 0.22713 0
M  V30 2778 H 265.104 1.43596 0.107805 0
M  V30 2779 H 267.057 3.27951 2.64624 0
M  V30 2780 H 265.781 2.04056 2.55007 0
M  V30 2781 H 264.44 3.52228 1.01641 0
M  V30 2782 H 264.088 3.62181 3.49047 0
M  V30 2783 H 263.788 5.204 2.7287 0
M  V30 2784 H 265.312 4.91962 3.6167 0
M  V30 2785 H 266.726 5.55059 1.43466 0
M  V30 2786 H 265.123 5.95348 0.753738 0
M  V30 2787 H 266.193 4.84735 -0.126377 0
M  V30 2788 N 267.536 -0.106894 1.57237 0
M  V30 2789 C 268.813 -0.843526 1.76477 0
M  V30 2790 C 269.193 -1.97499 0.745464 0
M  V30 2791 O 268.541 -2.27357 -0.228306 0
M  V30 2792 C 268.751 -1.34903 3.21873 0
M  V30 2793 C 270.099 -1.79654 3.8472 0
M  V30 2794 O 271.123 -1.44554 3.2555 0
M  V30 2795 O 269.982 -2.44515 4.88748 0
M  V30 2796 H 267.076 -0.401468 0.723016 0
M  V30 2797 H 269.622 -0.0896927 1.69463 0
M  V30 2798 H 268.394 -0.53781 3.87586 0
M  V30 2799 H 268.017 -2.16522 3.33473 0
M  V30 2800 N 269.014 -1.53014 -0.377408 0
M  V30 2801 C 270.239 -1.72818 -1.14668 0
M  V30 2802 C 270.664 -0.450725 -1.8262 0
M  V30 2803 O 270.022 0.59439 -1.7128 0
M  V30 2804 C 270.07 -2.88627 -2.16164 0
M  V30 2805 O 269.174 -2.56409 -3.22998 0
M  V30 2806 H 268.515 -0.574301 -0.333278 0
M  V30 2807 H 271.045 -1.99853 -0.438152 0
M  V30 2808 H 271.055 -3.14455 -2.59966 0
M  V30 2809 H 269.73 -3.81294 -1.66095 0
M  V30 2810 H 268.307 -2.4136 -2.84253 0
M  V30 2811 N 270.492 0.636531 -1.44174 0
M  V30 2812 C 271.717 1.42847 -1.50364 0
M  V30 2813 C 272.142 1.87665 -0.127867 0
M  V30 2814 O 271.5 1.58408 0.88185 0
M  V30 2815 C 271.548 2.62854 -2.4686 0
M  V30 2816 O 270.652 3.62501 -1.9664 0
M  V30 2817 H 269.993 0.427642 -0.507955 0
M  V30 2818 H 272.523 0.777422 -1.89255 0
M  V30 2819 H 272.533 3.10465 -2.64718 0
M  V30 2820 H 271.208 2.29578 -3.46795 0
M  V30 2821 H 269.785 3.21735 -1.88523 0
M  V30 2822 N 271.97 1.30982 0.876444 0
M  V30 2823 C 272.933 1.18054 1.96459 0
M  V30 2824 C 273.933 0.109399 1.60427 0
M  V30 2825 O 275.123 0.358173 1.70478 0
M  V30 2826 C 272.255 0.810616 3.31122 0
M  V30 2827 H 273.448 2.14735 2.09354 0
M  V30 2828 H 271.001 1.145 1.06392 0
M  V30 2829 H 271.736 -0.155322 3.23928 0
M  V30 2830 H 271.521 1.58481 3.58645 0
M  V30 2831 H 273.011 0.743876 4.10921 0
M  V30 2832 N 273.449 -1.08991 1.13837 0
M  V30 2833 C 274.412 -2.13925 0.822715 0
M  V30 2834 C 275.412 -1.599 -0.1699 0
M  V30 2835 O 276.602 -1.74104 0.0577251 0
M  V30 2836 C 273.734 -3.40155 0.225318 0
M  V30 2837 H 274.927 -2.43358 1.75262 0
M  V30 2838 H 272.48 -1.24603 0.943594 0
M  V30 2839 H 273.215 -3.16352 -0.713594 0
M  V30 2840 H 273 -3.80661 0.940193 0
M  V30 2841 H 274.49 -4.17594 0.0214784 0
M  V30 2842 N 274.927 -0.932562 -1.27047 0
M  V30 2843 C 276.338 -0.619451 -1.76124 0
M  V30 2844 C 276.689 0.865397 -1.76083 0
M  V30 2845 O 275.814 1.67722 -1.36742 0
M  V30 2846 C 276.409 -1.11771 -3.19832 0
M  V30 2847 C 274.968 -0.855174 -3.66557 0
M  V30 2848 C 274.115 -1.27362 -2.46321 0
M  V30 2849 H 277.066 -1.11181 -1.13245 0
M  V30 2850 H 277.087 -0.46759 -3.77616 0
M  V30 2851 H 276.599 -2.19842 -3.1983 0
M  V30 2852 H 274.7 0.211524 -3.71999 0
M  V30 2853 H 274.813 -1.47613 -4.55793 0
M  V30 2854 H 273.177 -0.692119 -2.45116 0
M  V30 2855 H 273.96 -2.36307 -2.49025 0
M  V30 2856 N 276.405 1.4127 -0.698611 0
M  V30 2857 C 277.633 2.05503 -0.239992 0
M  V30 2858 C 278.048 1.52584 1.11191 0
M  V30 2859 O 277.405 0.675323 1.69545 0
M  V30 2860 C 277.456 3.60987 -0.192429 0
M  V30 2861 O 277.177 4.1195 -1.49094 0
M  V30 2862 C 278.678 4.42371 0.28681 0
M  V30 2863 H 275.898 0.661748 -0.111045 0
M  V30 2864 H 278.442 1.80987 -0.95205 0
M  V30 2865 H 276.597 3.84533 0.470472 0
M  V30 2866 H 277.011 5.06018 -1.38007 0
M  V30 2867 H 278.485 5.51344 0.26896 0
M  V30 2868 H 278.962 4.18699 1.32619 0
M  V30 2869 H 279.568 4.23897 -0.345201 0
M  V30 2870 N 277.883 0.443576 1.51229 0
M  V30 2871 C 279.294 -0.0180867 1.86691 0
M  V30 2872 C 279.645 -1.41384 1.36033 0
M  V30 2873 O 278.77 -2.04291 0.713722 0
M  V30 2874 C 279.365 -0.039597 3.38777 0
M  V30 2875 C 277.924 -0.445692 3.73752 0
M  V30 2876 C 277.071 0.357584 2.74985 0
M  V30 2877 H 280.022 0.659138 1.44364 0
M  V30 2878 H 280.043 -0.847761 3.70936 0
M  V30 2879 H 279.555 0.976382 3.75617 0
M  V30 2880 H 277.656 -1.46704 3.42503 0
M  V30 2881 H 277.769 -0.166155 4.78812 0
M  V30 2882 H 276.133 -0.184973 2.54027 0
M  V30 2883 H 276.916 1.37256 3.14668 0
M  V30 2884 N 279.361 -1.56624 0.175154 0
M  V30 2885 C 280.293 -2.15333 -0.785128 0
M  V30 2886 C 281.306 -1.1099 -1.19101 0
M  V30 2887 O 282.495 -1.38162 -1.13019 0
M  V30 2888 C 279.595 -2.68427 -2.06882 0
M  V30 2889 C 278.768 -3.97466 -1.8259 0
M  V30 2890 C 277.827 -4.35585 -2.95215 0
M  V30 2891 O 276.853 -5.03389 -2.65684 0
M  V30 2892 N 278.055 -3.97457 -4.23094 0
M  V30 2893 H 280.82 -2.98359 -0.283187 0
M  V30 2894 H 278.381 -1.61898 -0.00749817 0
M  V30 2895 H 280.373 -2.90924 -2.81328 0
M  V30 2896 H 278.943 -1.89968 -2.48256 0
M  V30 2897 H 278.163 -3.83307 -0.920287 0
M  V30 2898 H 279.451 -4.81736 -1.63733 0
M  V30 2899 H 278.849 -3.42878 -4.49945 0
M  V30 2900 H 277.406 -4.24947 -4.9423 0
M  V30 2901 N 280.839 0.0985539 -1.57292 0
M  V30 2902 C 281.802 1.10402 -2.00858 0
M  V30 2903 C 282.802 1.33146 -0.901593 0
M  V30 2904 O 283.992 1.29318 -1.16716 0
M  V30 2905 C 281.124 2.45394 -2.36632 0
M  V30 2906 H 282.317 0.729099 -2.90902 0
M  V30 2907 H 279.87 0.343495 -1.52479 0
M  V30 2908 H 280.605 2.87769 -1.49531 0
M  V30 2909 H 280.39 2.30235 -3.17387 0
M  V30 2910 H 281.88 3.17718 -2.71007 0
M  V30 2911 N 282.317 1.53212 0.369288 0
M  V30 2912 C 283.28 1.7872 1.43498 0
M  V30 2913 C 284.28 0.657554 1.46741 0
M  V30 2914 O 285.47 0.925736 1.47566 0
M  V30 2915 C 282.602 1.90591 2.82645 0
M  V30 2916 H 283.795 2.73894 1.22156 0
M  V30 2917 H 281.348 1.44233 0.602203 0
M  V30 2918 H 282.083 0.974709 3.09306 0
M  V30 2919 H 281.868 2.72751 2.8169 0
M  V30 2920 H 283.358 2.11931 3.59826 0
M  V30 2921 N 283.795 -0.628877 1.44509 0
M  V30 2922 C 285.206 -1.21054 1.42137 0
M  V30 2923 C 285.557 -1.95715 0.137881 0
M  V30 2924 O 284.682 -2.02554 -0.761645 0
M  V30 2925 C 285.277 -2.20189 2.57493 0
M  V30 2926 C 283.836 -2.73777 2.58308 0
M  V30 2927 C 282.983 -1.48813 2.33987 0
M  V30 2928 H 285.934 -0.41942 1.53057 0
M  V30 2929 H 285.955 -3.02833 2.30375 0
M  V30 2930 H 285.467 -1.6582 3.50892 0
M  V30 2931 H 283.568 -3.32142 1.68856 0
M  V30 2932 H 283.681 -3.19662 3.56865 0
M  V30 2933 H 282.045 -1.77024 1.83124 0
M  V30 2934 H 282.828 -0.963442 3.29504 0
M  V30 2935 N 285.273 -1.31445 -0.869486 0
M  V30 2936 C 286.236 -1.19094 -1.9583 0
M  V30 2937 C 287.236 -0.117906 -1.60367 0
M  V30 2938 O 288.426 -0.367208 -1.70286 0
M  V30 2939 C 285.558 -0.828165 -3.30688 0
M  V30 2940 H 286.751 -2.15842 -2.08212 0
M  V30 2941 H 284.304 -1.15063 -1.05784 0
M  V30 2942 H 285.039 0.138142 -3.24006 0
M  V30 2943 H 284.824 -1.6038 -3.578 0
M  V30 2944 H 286.314 -0.765658 -4.10521 0
M  V30 2945 N 286.751 1.08385 -1.14413 0
M  V30 2946 C 288.162 1.62258 -0.923535 0
M  V30 2947 C 288.513 1.88691 0.537595 0
M  V30 2948 O 287.638 1.64454 1.40655 0
M  V30 2949 C 288.233 2.94781 -1.67002 0
M  V30 2950 C 286.792 3.45437 -1.495 0
M  V30 2951 C 285.939 2.19668 -1.69238 0
M  V30 2952 H 288.89 0.916086 -1.2959 0
M  V30 2953 H 288.911 3.63229 -1.13334 0
M  V30 2954 H 288.423 2.7551 -2.73342 0
M  V30 2955 H 286.524 3.6981 -0.455097 0
M  V30 2956 H 286.637 4.22173 -2.2651 0
M  V30 2957 H 285.001 2.28849 -1.11804 0
M  V30 2958 H 285.784 2.02905 -2.7692 0
M  V30 2959 N 288.23 0.939286 1.26551 0
M  V30 2960 C 289.458 0.602536 1.97932 0
M  V30 2961 C 289.873 -0.82206 1.69964 0
M  V30 2962 O 289.23 -1.54789 0.966784 0
M  V30 2963 C 289.281 0.832946 3.51773 0
M  V30 2964 O 289.002 2.20151 3.78768 0
M  V30 2965 C 290.503 0.506483 4.40397 0
M  V30 2966 H 287.723 0.227248 0.631347 0
M  V30 2967 H 290.267 1.25948 1.61113 0
M  V30 2968 H 288.422 0.222644 3.8676 0
M  V30 2969 H 288.836 2.26013 4.73306 0
M  V30 2970 H 290.31 0.718333 5.47306 0
M  V30 2971 H 290.787 -0.558451 4.35635 0
M  V30 2972 H 291.393 1.09543 4.10951 0
M  V30 2973 N 289.708 -1.40897 0.706093 0
M  V30 2974 C 291.119 -1.84023 0.315052 0
M  V30 2975 C 291.47 -1.5906 -1.14866 0
M  V30 2976 O 290.595 -1.06651 -1.88293 0
M  V30 2977 C 291.19 -3.34055 0.565038 0
M  V30 2978 C 289.749 -3.7571 0.227806 0
M  V30 2979 C 288.896 -2.64204 0.842122 0
M  V30 2980 H 291.847 -1.303 0.905963 0
M  V30 2981 H 291.868 -3.80107 -0.172843 0
M  V30 2982 H 291.38 -3.52192 1.63042 0
M  V30 2983 H 289.481 -3.63172 -0.832895 0
M  V30 2984 H 289.594 -4.74103 0.690174 0
M  V30 2985 H 287.958 -2.53255 0.270893 0
M  V30 2986 H 288.741 -2.85155 1.91158 0
M  V30 2987 N 291.186 -0.45159 -1.50991 0
M  V30 2988 C 292.149 0.341117 -2.26647 0
M  V30 2989 C 293.149 0.937422 -1.30649 0
M  V30 2990 O 294.339 0.809644 -1.54241 0
M  V30 2991 C 291.471 1.48398 -3.06905 0
M  V30 2992 H 292.664 -0.322117 -2.98165 0
M  V30 2993 H 290.217 -0.205122 -1.54948 0
M  V30 2994 H 290.952 2.18284 -2.39838 0
M  V30 2995 H 290.737 1.06241 -3.77432 0
M  V30 2996 H 292.227 2.04367 -3.64176 0
M  V30 2997 N 292.664 1.56529 -0.183458 0
M  V30 2998 C 293.627 2.17324 0.728223 0
M  V30 2999 C 294.627 1.12453 1.14939 0
M  V30 3000 O 295.817 1.37902 1.06437 0
M  V30 3001 C 292.949 2.76591 1.99274 0
M  V30 3002 H 294.142 2.99241 0.198772 0
M  V30 3003 H 291.695 1.5616 0.0661391 0
M  V30 3004 H 292.43 1.98441 2.56499 0
M  V30 3005 H 292.215 3.5335 1.69959 0
M  V30 3006 H 293.705 3.23311 2.6431 0
M  V30 3007 N 294.142 -0.090211 1.57342 0
M  V30 3008 C 295.37 -0.806224 1.90546 0
M  V30 3009 C 295.785 -1.72041 0.777644 0
M  V30 3010 O 295.142 -1.80778 -0.250103 0
M  V30 3011 C 295.193 -1.61546 3.23396 0
M  V30 3012 O 294.914 -0.738043 4.31839 0
M  V30 3013 C 296.415 -2.4341 3.70495 0
M  V30 3014 H 293.635 -0.230256 0.630257 0
M  V30 3015 H 296.179 -0.0659843 2.04394 0
M  V30 3016 H 294.334 -2.30816 3.11131 0
M  V30 3017 H 294.748 -1.29901 5.08159 0
M  V30 3018 H 296.222 -2.95676 4.66133 0
M  V30 3019 H 296.699 -3.22098 2.98579 0
M  V30 3020 H 297.305 -1.79331 3.85643 0
M  V30 3021 N 295.62 -1.53406 -0.361157 0
M  V30 3022 C 296.583 -1.79479 -1.42548 0
M  V30 3023 C 297.583 -0.665327 -1.4639 0
M  V30 3024 O 298.773 -0.933549 -1.47073 0
M  V30 3025 C 295.905 -1.92087 -2.8163 0
M  V30 3026 H 297.098 -2.74538 -1.20701 0
M  V30 3027 H 294.651 -1.4455 -0.594546 0
M  V30 3028 H 295.386 -0.991099 -3.08784 0
M  V30 3029 H 295.171 -2.74241 -2.80239 0
M  V30 3030 H 296.661 -2.13836 -3.58697 0
M  V30 3031 N 297.098 0.621204 -1.44841 0
M  V30 3032 C 298.323 1.41244 -1.51871 0
M  V30 3033 C 298.748 1.87519 -0.147764 0
M  V30 3034 O 298.106 1.59334 0.865 0
M  V30 3035 C 298.154 2.60221 -2.49634 0
M  V30 3036 O 297.258 3.60395 -2.00473 0
M  V30 3037 H 296.599 0.42223 -0.512463 0
M  V30 3038 H 299.129 0.757305 -1.90069 0
M  V30 3039 H 299.139 3.0764 -2.67996 0
M  V30 3040 H 297.814 2.25887 -3.4921 0
M  V30 3041 H 296.391 3.19717 -1.91925 0
M  V30 3042 N 298.576 1.31904 0.862503 0
M  V30 3043 C 299.987 1.19803 1.43193 0
M  V30 3044 C 300.338 -0.192567 1.95253 0
M  V30 3045 O 299.463 -1.09081 1.86896 0
M  V30 3046 C 300.058 2.16883 2.60283 0
M  V30 3047 C 298.617 2.08692 3.13248 0
M  V30 3048 C 297.764 2.05691 1.85975 0
M  V30 3049 H 300.715 1.43846 0.670365 0
M  V30 3050 H 300.736 1.76278 3.37204 0
M  V30 3051 H 300.248 3.18083 2.22363 0
M  V30 3052 H 298.349 1.10713 3.55771 0
M  V30 3053 H 298.462 2.9815 3.75025 0
M  V30 3054 H 296.826 1.50814 2.05249 0
M  V30 3055 H 297.609 3.08659 1.50282 0
M  V30 3056 N 300.054 -1.07777 1.14986 0
M  V30 3057 C 301.465 -1.61766 0.932127 0
M  V30 3058 C 301.816 -1.88974 -0.527581 0
M  V30 3059 O 300.941 -1.65198 -1.39781 0
M  V30 3060 C 301.536 -2.93891 1.68563 0
M  V30 3061 C 300.095 -3.44639 1.5133 0
M  V30 3062 C 299.242 -2.18767 1.704 0
M  V30 3063 H 302.193 -0.909201 1.30074 0
M  V30 3064 H 302.214 -3.62623 1.15259 0
M  V30 3065 H 301.726 -2.74057 2.74799 0
M  V30 3066 H 299.827 -3.69564 0.474702 0
M  V30 3067 H 299.94 -4.20966 2.28746 0
M  V30 3068 H 298.304 -2.28253 1.13016 0
M  V30 3069 H 299.087 -2.01433 2.77992 0
M  V30 3070 N 301.532 -0.945985 -1.26051 0
M  V30 3071 C 302.76 -0.613025 -1.9761 0
M  V30 3072 C 303.175 0.813035 -1.70397 0
M  V30 3073 O 302.532 1.54274 -0.974979 0
M  V30 3074 C 302.583 -0.85159 -3.51326 0
M  V30 3075 O 302.304 -2.22157 -3.77595 0
M  V30 3076 C 303.805 -0.529831 -4.40122 0
M  V30 3077 H 301.025 -0.230593 -0.630133 0
M  V30 3078 H 303.569 -1.268 -1.60443 0
M  V30 3079 H 301.724 -0.243151 -3.86636 0
M  V30 3080 H 302.138 -2.2852 -4.721 0
M  V30 3081 H 303.612 -0.747348 -5.46917 0
M  V30 3082 H 304.089 0.535341 -4.35925 0
M  V30 3083 H 304.695 -1.11721 -4.10364 0
M  V30 3084 N 303.011 1.40521 -0.713556 0
M  V30 3085 C 304.422 1.83853 -0.324807 0
M  V30 3086 C 304.773 1.59667 1.14021 0
M  V30 3087 O 303.898 1.07649 1.87725 0
M  V30 3088 C 304.493 3.33751 -0.582746 0
M  V30 3089 C 303.052 3.75584 -0.247727 0
M  V30 3090 C 302.199 2.63753 -0.856121 0
M  V30 3091 H 305.15 1.29817 -0.91286 0
M  V30 3092 H 305.171 3.80194 0.152682 0
M  V30 3093 H 304.683 3.51322 -1.64908 0
M  V30 3094 H 302.784 3.63608 0.813624 0
M  V30 3095 H 302.897 4.7373 -0.715307 0
M  V30 3096 H 301.261 2.53108 -0.28432 0
M  V30 3097 H 302.044 2.84137 -1.92668 0
M  V30 3098 N 304.489 0.459591 1.5075 0
M  V30 3099 C 305.714 -0.0996819 2.0716 0
M  V30 3100 C 306.139 -1.33761 1.32249 0
M  V30 3101 O 305.497 -1.77551 0.366786 0
M  V30 3102 C 305.545 -0.378226 3.58611 0
M  V30 3103 O 304.649 -1.46081 3.85661 0
M  V30 3104 H 303.99 0.00791392 0.663953 0
M  V30 3105 H 306.52 0.647329 1.9409 0
M  V30 3106 H 306.53 -0.622135 4.03229 0
M  V30 3107 H 305.205 0.526439 4.12555 0
M  V30 3108 H 303.782 -1.20511 3.5289 0
M  V30 3109 N 305.967 -1.56429 0.191757 0
M  V30 3110 C 306.93 -2.17707 -0.716688 0
M  V30 3111 C 307.93 -1.13061 -1.14341 0
M  V30 3112 O 309.12 -1.38464 -1.05704 0
M  V30 3113 C 306.252 -2.77644 -1.97804 0
M  V30 3114 H 307.445 -2.99342 -0.1829 0
M  V30 3115 H 304.998 -1.56193 -0.0578566 0
M  V30 3116 H 305.733 -1.99799 -2.55443 0
M  V30 3117 H 305.518 -3.54246 -1.68083 0
M  V30 3118 H 307.008 -3.24708 -2.62592 0
M  V30 3119 N 307.445 0.0818655 -1.57387 0
M  V30 3120 C 308.377 1.12484 -1.997 0
M  V30 3121 C 309.39 1.35564 -0.90146 0
M  V30 3122 O 310.579 1.33982 -1.17945 0
M  V30 3123 C 307.679 2.47778 -2.31213 0
M  V30 3124 C 306.852 2.44793 -3.62485 0
M  V30 3125 C 305.911 3.62117 -3.81782 0
M  V30 3126 O 304.937 3.44005 -4.53486 0
M  V30 3127 N 306.139 4.82094 -3.23367 0
M  V30 3128 H 308.904 0.764585 -2.89783 0
M  V30 3129 H 306.465 0.270664 -1.59621 0
M  V30 3130 H 308.457 3.24891 -2.41304 0
M  V30 3131 H 307.027 2.75843 -1.4707 0
M  V30 3132 H 306.247 1.53134 -3.6324 0
M  V30 3133 H 307.535 2.39889 -4.48699 0
M  V30 3134 H 306.933 4.99713 -2.65148 0
M  V30 3135 H 305.49 5.56753 -3.38923 0
M  V30 3136 N 308.923 1.53595 0.353017 0
M  V30 3137 C 309.886 1.80232 1.41594 0
M  V30 3138 C 310.886 0.673081 1.46035 0
M  V30 3139 O 312.076 0.941335 1.46576 0
M  V30 3140 C 309.208 1.93578 2.80607 0
M  V30 3141 H 310.401 2.75174 1.19244 0
M  V30 3142 H 307.954 1.44864 0.586872 0
M  V30 3143 H 308.689 1.00746 3.08254 0
M  V30 3144 H 308.474 2.75724 2.78781 0
M  V30 3145 H 309.964 2.15735 3.57558 0
M  V30 3146 N 310.401 -0.613514 1.45168 0
M  V30 3147 C 311.812 -1.19539 1.43413 0
M  V30 3148 C 312.163 -1.95558 0.158632 0
M  V30 3149 O 311.288 -2.0335 -0.740119 0
M  V30 3150 C 311.883 -2.17445 2.59813 0
M  V30 3151 C 310.442 -2.71022 2.61197 0
M  V30 3152 C 309.589 -1.46323 2.35552 0
M  V30 3153 H 312.54 -0.403163 1.53494 0
M  V30 3154 H 312.561 -3.00373 2.33574 0
M  V30 3155 H 312.073 -1.62089 3.52631 0
M  V30 3156 H 310.174 -3.30332 1.7237 0
M  V30 3157 H 310.287 -3.15859 3.60236 0
M  V30 3158 H 308.651 -1.75072 1.84992 0
M  V30 3159 H 309.434 -0.92844 3.30507 0
M  V30 3160 N 311.879 -1.3236 -0.855495 0
M  V30 3161 C 313.127 -1.22629 -1.60644 0
M  V30 3162 C 313.448 0.212136 -1.93843 0
M  V30 3163 O 312.718 1.13666 -1.59552 0
M  V30 3164 H 311.298 -0.450882 -0.595579 0
M  V30 3165 H 313.96 -1.65871 -1.02337 0
M  V30 3166 H 313.056 -1.80832 -2.54374 0
M  V30 3167 N 313.357 1.07166 -1.15556 0
M  V30 3168 C 314.582 1.84053 -0.955988 0
M  V30 3169 C 315.007 1.81586 0.490739 0
M  V30 3170 O 314.365 1.21018 1.34997 0
M  V30 3171 C 314.413 3.28957 -1.47714 0
M  V30 3172 O 313.517 4.06795 -0.677593 0
M  V30 3173 H 312.858 0.569842 -0.340847 0
M  V30 3174 H 315.388 1.35178 -1.53584 0
M  V30 3175 H 315.398 3.79788 -1.4908 0
M  V30 3176 H 314.073 3.30068 -2.53037 0
M  V30 3177 H 312.65 3.6561 -0.733721 0
M  V30 3178 N 314.835 0.952656 1.25548 0
M  V30 3179 C 316.06 0.623025 1.97821 0
M  V30 3180 C 316.485 -0.7976 1.70352 0
M  V30 3181 O 315.843 -1.53905 0.958283 0
M  V30 3182 C 315.891 0.885532 3.49558 0
M  V30 3183 O 314.995 -0.0366641 4.12384 0
M  V30 3184 H 314.336 0.237082 0.620232 0
M  V30 3185 H 316.866 1.27871 1.59719 0
M  V30 3186 H 316.876 0.811009 3.99858 0
M  V30 3187 H 315.551 1.92094 3.6888 0
M  V30 3188 H 314.128 0.0898954 3.72792 0
M  V30 3189 N 316.313 -1.40141 0.720998 0
M  V30 3190 C 317.543 -2.04798 0.27226 0
M  V30 3191 C 317.951 -1.54442 -1.09289 0
M  V30 3192 O 317.294 -0.698342 -1.69908 0
M  V30 3193 C 317.356 -3.59048 0.18027 0
M  V30 3194 C 317.02 -4.32317 1.48159 0
M  V30 3195 C 318.017 -4.59902 2.42458 0
M  V30 3196 C 315.702 -4.71125 1.74202 0
M  V30 3197 C 317.696 -5.25288 3.61042 0
M  V30 3198 C 315.383 -5.36242 2.93066 0
M  V30 3199 C 316.381 -5.63254 3.86308 0
M  V30 3200 O 316.069 -6.27024 5.03086 0
M  V30 3201 H 315.801 -0.665419 0.119139 0
M  V30 3202 H 318.355 -1.80436 0.981432 0
M  V30 3203 H 316.585 -3.82251 -0.58489 0
M  V30 3204 H 318.274 -4.05221 -0.234618 0
M  V30 3205 H 319.04 -4.30379 2.23604 0
M  V30 3206 H 314.919 -4.49466 1.02477 0
M  V30 3207 H 318.463 -5.46289 4.33837 0
M  V30 3208 H 314.36 -5.65185 3.11826 0
M  V30 3209 H 315.128 -6.4552 5.03235 0
M  V30 3210 N 317.792 -0.46758 -1.50504 0
M  V30 3211 C 319.203 -0.0116166 -1.86696 0
M  V30 3212 C 319.554 1.39202 -1.38265 0
M  V30 3213 O 318.679 2.0313 -0.746132 0
M  V30 3214 C 319.274 -0.0143044 -3.38797 0
M  V30 3215 C 317.833 0.386175 -3.74414 0
M  V30 3216 C 316.98 -0.401287 -2.74381 0
M  V30 3217 H 319.931 -0.682022 -1.43297 0
M  V30 3218 H 319.952 0.788641 -3.72237 0
M  V30 3219 H 319.464 -1.03602 -3.74016 0
M  V30 3220 H 317.565 1.41237 -3.44794 0
M  V30 3221 H 317.678 0.0899596 -4.79016 0
M  V30 3222 H 316.042 0.144536 -2.5429 0
M  V30 3223 H 316.825 -1.42244 -3.12444 0
M  V30 3224 N 319.27 1.56325 -0.20005 0
M  V30 3225 C 320.681 1.8408 0.31167 0
M  V30 3226 C 321.032 1.12087 1.61031 0
M  V30 3227 O 320.157 0.38332 2.12978 0
M  V30 3228 C 320.752 3.33932 0.57226 0
M  V30 3229 C 319.311 3.6208 1.02834 0
M  V30 3230 C 318.458 2.77186 0.079634 0
M  V30 3231 H 321.409 1.52939 -0.423729 0
M  V30 3232 H 321.43 3.52971 1.42096 0
M  V30 3233 H 320.942 3.86303 -0.37308 0
M  V30 3234 H 319.043 3.15147 1.98778 0
M  V30 3235 H 319.156 4.7023 0.917624 0
M  V30 3236 H 317.52 2.47951 0.582448 0
M  V30 3237 H 318.303 3.32347 -0.860238 0
M  V30 3238 N 320.748 -0.0735177 1.57428 0
M  V30 3239 C 321.698 -1.09442 2.00016 0
M  V30 3240 C 322.682 -1.34575 0.881947 0
M  V30 3241 O 323.874 -1.34905 1.14585 0
M  V30 3242 C 321.003 -2.40865 2.4462 0
M  V30 3243 C 320.089 -2.19014 3.63172 0
M  V30 3244 N 320.48 -1.67087 4.77405 0
M  V30 3245 C 318.778 -2.49494 3.69688 0
M  V30 3246 C 319.479 -1.6001 5.5926 0
M  V30 3247 N 318.455 -2.05999 5.03056 0
M  V30 3248 H 322.257 -0.686227 2.85776 0
M  V30 3249 H 319.771 -0.280617 1.59957 0
M  V30 3250 H 321.768 -3.14763 2.73368 0
M  V30 3251 H 320.428 -2.82403 1.60246 0
M  V30 3252 H 321.439 -1.35975 4.99731 0
M  V30 3253 H 318.116 -2.94409 2.96023 0
M  V30 3254 H 319.506 -1.2073 6.60964 0
M  V30 3255 N 322.226 -1.5378 -0.344866 0
M  V30 3256 C 323.159 -1.7649 -1.4466 0
M  V30 3257 C 324.137 -0.613954 -1.50563 0
M  V30 3258 O 325.321 -0.84896 -1.683 0
M  V30 3259 C 322.448 -1.86235 -2.82903 0
M  V30 3260 C 321.494 -3.08375 -2.94631 0
M  V30 3261 S 322.327 -4.67457 -2.61236 0
M  V30 3262 C 323.483 -4.80079 -4.0159 0
M  V30 3263 H 323.716 -2.69661 -1.2518 0
M  V30 3264 H 321.249 -1.44632 -0.540455 0
M  V30 3265 H 323.207 -1.92535 -3.62547 0
M  V30 3266 H 321.868 -0.940786 -2.9968 0
M  V30 3267 H 321.061 -3.11865 -3.95925 0
M  V30 3268 H 320.663 -3.00294 -2.22934 0
M  V30 3269 H 322.955 -4.61407 -4.96094 0
M  V30 3270 H 323.898 -5.82168 -4.03095 0
M  V30 3271 H 324.306 -4.08544 -3.89554 0
M  V30 3272 N 323.704 0.605807 -1.45491 0
M  V30 3273 C 324.636 1.73031 -1.5031 0
M  V30 3274 C 325.649 1.57968 -0.393687 0
M  V30 3275 O 326.838 1.65817 -0.660839 0
M  V30 3276 C 323.938 3.11049 -1.34543 0
M  V30 3277 C 323.111 3.52334 -2.59189 0
M  V30 3278 C 322.17 4.69323 -2.37954 0
M  V30 3279 O 321.196 4.7635 -3.11575 0
M  V30 3280 N 322.398 5.62705 -1.4263 0
M  V30 3281 H 325.163 1.6936 -2.4726 0
M  V30 3282 H 322.724 0.79114 -1.41254 0
M  V30 3283 H 324.716 3.87071 -1.18144 0
M  V30 3284 H 323.286 3.09217 -0.458623 0
M  V30 3285 H 322.506 2.66256 -2.90691 0
M  V30 3286 H 323.794 3.76677 -3.42041 0
M  V30 3287 H 323.192 5.59744 -0.818758 0
M  V30 3288 H 321.749 6.38252 -1.32202 0
M  V30 3289 N 325.182 1.32811 0.848464 0
M  V30 3290 C 326.428 1.23907 1.60546 0
M  V30 3291 C 326.761 -0.197161 1.93197 0
M  V30 3292 O 326.036 -1.13596 1.5788 0
M  V30 3293 C 326.319 2.10489 2.92175 0
M  V30 3294 C 326.172 3.62522 2.66266 0
M  V30 3295 C 327.491 1.97075 3.93509 0
M  V30 3296 H 324.61 0.451459 0.58254 0
M  V30 3297 H 327.252 1.62818 0.979296 0
M  V30 3298 H 325.402 1.77434 3.45614 0
M  V30 3299 H 327.074 4.05821 2.19334 0
M  V30 3300 H 325.317 3.84879 2.00126 0
M  V30 3301 H 325.988 4.18437 3.6002 0
M  V30 3302 H 328.464 2.26045 3.49346 0
M  V30 3303 H 327.34 2.59923 4.83457 0
M  V30 3304 H 327.601 0.940186 4.31987 0
M  V30 3305 N 326.66 -1.06551 1.16123 0
M  V30 3306 C 327.59 -2.15935 0.88851 0
M  V30 3307 C 328.571 -1.69306 -0.164135 0
M  V30 3308 O 329.756 -1.94193 -0.0167857 0
M  V30 3309 C 326.886 -3.45149 0.385942 0
M  V30 3310 C 325.84 -4.05271 1.3762 0
M  V30 3311 C 325.166 -5.29664 0.732137 0
M  V30 3312 C 326.466 -4.44355 2.74493 0
M  V30 3313 H 328.16 -2.39006 1.80323 0
M  V30 3314 H 325.706 -1.14866 0.868435 0
M  V30 3315 H 327.659 -4.21004 0.182647 0
M  V30 3316 H 326.383 -3.21689 -0.564274 0
M  V30 3317 H 325.042 -3.3147 1.56599 0
M  V30 3318 H 324.69 -5.02499 -0.224483 0
M  V30 3319 H 324.39 -5.70848 1.39307 0
M  V30 3320 H 325.914 -6.08218 0.538802 0
M  V30 3321 H 327.328 -5.11303 2.59311 0
M  V30 3322 H 325.725 -4.96515 3.37035 0
M  V30 3323 H 326.795 -3.55339 3.29943 0
M  V30 3324 N 328.138 -0.959301 -1.25041 0
M  V30 3325 C 329.068 -0.501388 -2.28053 0
M  V30 3326 C 330.049 0.454673 -1.63911 0
M  V30 3327 O 331.234 0.352618 -1.90972 0
M  V30 3328 C 328.364 0.217224 -3.4662 0
M  V30 3329 C 327.318 -0.654034 -4.22973 0
M  V30 3330 C 326.644 0.195589 -5.34342 0
M  V30 3331 C 327.944 -1.93447 -4.85155 0
M  V30 3332 H 329.638 -1.36238 -2.66608 0
M  V30 3333 H 327.184 -0.656534 -1.28163 0
M  V30 3334 H 329.137 0.548732 -4.17812 0
M  V30 3335 H 327.861 1.1125 -3.07068 0
M  V30 3336 H 326.52 -0.968693 -3.5357 0
M  V30 3337 H 326.168 1.09076 -4.91031 0
M  V30 3338 H 325.868 -0.384091 -5.86343 0
M  V30 3339 H 327.392 0.521958 -6.08365 0
M  V30 3340 H 328.806 -1.66908 -5.48466 0
M  V30 3341 H 327.203 -2.46018 -5.47353 0
M  V30 3342 H 328.273 -2.63466 -4.07079 0
M  V30 3343 N 329.616 1.39756 -0.72842 0
M  V30 3344 C 331.027 1.83498 -0.344289 0
M  V30 3345 C 331.378 1.60868 1.12321 0
M  V30 3346 O 330.503 1.09634 1.86573 0
M  V30 3347 C 331.098 3.33114 -0.618112 0
M  V30 3348 C 329.657 3.753 -0.287549 0
M  V30 3349 C 328.804 2.62831 -0.884048 0
M  V30 3350 H 331.755 1.28842 -0.926578 0
M  V30 3351 H 331.776 3.80334 0.112349 0
M  V30 3352 H 331.288 3.49553 -1.68625 0
M  V30 3353 H 329.389 3.64451 0.775012 0
M  V30 3354 H 329.502 4.72945 -0.765512 0
M  V30 3355 H 327.866 2.52792 -0.311149 0
M  V30 3356 H 328.649 2.82078 -1.95671 0
M  V30 3357 N 331.094 0.475555 1.50254 0
M  V30 3358 C 332.057 -0.305016 2.27161 0
M  V30 3359 C 333.057 -0.916519 1.32123 0
M  V30 3360 O 334.247 -0.785003 1.5551 0
M  V30 3361 C 331.379 -1.43496 3.09227 0
M  V30 3362 H 332.572 0.369511 2.97615 0
M  V30 3363 H 330.125 0.229747 1.54602 0
M  V30 3364 H 330.86 -2.14441 2.43281 0
M  V30 3365 H 330.645 -1.00223 3.79075 0
M  V30 3366 H 332.135 -1.98548 3.67381 0
M  V30 3367 N 332.573 -1.56217 0.208337 0
M  V30 3368 C 333.503 -2.22694 -0.702116 0
M  V30 3369 C 334.484 -1.19432 -1.2112 0
M  V30 3370 O 335.669 -1.47978 -1.25762 0
M  V30 3371 C 332.799 -2.8966 -1.9161 0
M  V30 3372 C 331.753 -3.9928 -1.5414 0
M  V30 3373 C 331.079 -4.53476 -2.83308 0
M  V30 3374 C 332.379 -5.17012 -0.741339 0
M  V30 3375 H 334.073 -2.99034 -0.147898 0
M  V30 3376 H 331.619 -1.43831 -0.0696951 0
M  V30 3377 H 333.572 -3.34852 -2.55836 0
M  V30 3378 H 332.296 -2.10746 -2.49507 0
M  V30 3379 H 330.955 -3.54799 -0.922668 0
M  V30 3380 H 330.603 -3.71308 -3.39322 0
M  V30 3381 H 330.303 -5.27451 -2.58976 0
M  V30 3382 H 331.827 -5.01378 -3.485 0
M  V30 3383 H 333.241 -5.58667 -1.28699 0
M  V30 3384 H 331.638 -5.97137 -0.595627 0
M  V30 3385 H 332.708 -4.8423 0.254851 0
M  V30 3386 N 334.051 0.0651679 -1.57465 0
M  V30 3387 C 335.276 0.779605 -1.9219 0
M  V30 3388 C 335.701 1.69988 -0.805333 0
M  V30 3389 O 335.059 1.79685 0.241435 0
M  V30 3390 C 335.107 1.54364 -3.2589 0
M  V30 3391 O 334.211 2.65474 -3.1559 0
M  V30 3392 H 333.552 0.212249 -0.629163 0
M  V30 3393 H 336.082 0.0314294 -2.04576 0
M  V30 3394 H 336.092 1.92146 -3.59922 0
M  V30 3395 H 334.767 0.868457 -4.06732 0
M  V30 3396 H 333.344 2.30501 -2.93128 0
M  V30 3397 N 335.529 1.53961 0.336706 0
M  V30 3398 C 336.94 1.62914 0.911925 0
M  V30 3399 C 337.291 0.514795 1.89326 0
M  V30 3400 O 336.416 -0.354395 2.13478 0
M  V30 3401 C 337.011 2.95304 1.66076 0
M  V30 3402 C 335.57 3.06496 2.18489 0
M  V30 3403 C 334.717 2.58403 1.00613 0
M  V30 3404 H 337.668 1.58285 0.114649 0
M  V30 3405 H 337.689 2.84727 2.5241 0
M  V30 3406 H 337.201 3.76387 0.946276 0
M  V30 3407 H 335.302 2.3006 2.93092 0
M  V30 3408 H 335.415 4.1208 2.44391 0
M  V30 3409 H 333.779 2.13977 1.38152 0
M  V30 3410 H 334.562 3.41932 0.306179 0
M  V30 3411 N 337.007 -0.598083 1.45811 0
M  V30 3412 C 338.235 -1.38322 1.53866 0
M  V30 3413 C 338.65 -1.87992 0.174479 0
M  V30 3414 O 338.007 -1.62756 -0.825627 0
M  V30 3415 C 338.058 -2.58125 2.53089 0
M  V30 3416 O 337.779 -2.10516 3.84206 0
M  V30 3417 C 339.28 -3.50869 2.70935 0
M  V30 3418 H 336.5 -0.423093 0.520801 0
M  V30 3419 H 339.044 -0.728527 1.91083 0
M  V30 3420 H 337.199 -3.19615 2.18917 0
M  V30 3421 H 337.613 -2.88425 4.38077 0
M  V30 3422 H 339.087 -4.31451 3.44317 0
M  V30 3423 H 339.564 -4.01822 1.77301 0
M  V30 3424 H 340.17 -2.95225 3.06141 0
M  V30 3425 N 338.485 -1.33259 -0.841409 0
M  V30 3426 C 339.418 -1.1764 -1.95541 0
M  V30 3427 C 340.396 -0.072501 -1.62438 0
M  V30 3428 O 341.58 -0.23427 -1.87039 0
M  V30 3429 C 338.707 -0.803794 -3.29024 0
M  V30 3430 C 337.753 -1.91482 -3.81099 0
M  V30 3431 S 338.586 -3.52538 -4.03085 0
M  V30 3432 C 339.742 -3.17279 -5.39523 0
M  V30 3433 H 339.975 -2.11941 -2.08491 0
M  V30 3434 H 337.508 -1.18072 -0.9949 0
M  V30 3435 H 339.466 -0.595592 -4.06156 0
M  V30 3436 H 338.127 0.120574 -3.13868 0
M  V30 3437 H 337.32 -1.60742 -4.7768 0
M  V30 3438 H 336.922 -2.07956 -3.10854 0
M  V30 3439 H 339.214 -2.67946 -6.22263 0
M  V30 3440 H 340.157 -4.1293 -5.75234 0
M  V30 3441 H 340.565 -2.53943 -5.04156 0
M  V30 3442 N 339.963 1.05934 -1.16686 0
M  V30 3443 C 341.191 1.8249 -0.974929 0
M  V30 3444 C 341.606 1.82679 0.476861 0
M  V30 3445 O 340.963 1.2486 1.33103 0
M  V30 3446 C 341.014 3.28943 -1.49929 0
M  V30 3447 O 340.735 3.28886 -2.89423 0
M  V30 3448 C 342.236 4.22215 -1.35089 0
M  V30 3449 H 339.456 0.575295 -0.345365 0
M  V30 3450 H 342 1.33631 -1.548 0
M  V30 3451 H 340.155 3.751 -0.968423 0
M  V30 3452 H 340.569 4.20493 -3.13506 0
M  V30 3453 H 342.043 5.22987 -1.76603 0
M  V30 3454 H 342.52 4.38195 -0.296935 0
M  V30 3455 H 343.126 3.81907 -1.87155 0
M  V30 3456 N 341.441 0.965919 1.2453 0
M  V30 3457 C 342.374 0.4393 2.23932 0
M  V30 3458 C 343.352 -0.485615 1.55179 0
M  V30 3459 O 344.536 -0.417402 1.83821 0
M  V30 3460 C 341.663 -0.366042 3.36716 0
M  V30 3461 C 340.709 0.5009 4.23548 0
M  V30 3462 S 341.542 1.94002 4.99123 0
M  V30 3463 C 342.698 1.14342 6.15367 0
M  V30 3464 H 342.931 1.28167 2.68254 0
M  V30 3465 H 340.464 0.770819 1.33782 0
M  V30 3466 H 342.422 -0.824724 4.0213 0
M  V30 3467 H 341.083 -1.18337 2.90956 0
M  V30 3468 H 340.276 -0.117341 5.03863 0
M  V30 3469 H 339.878 0.89524 3.63127 0
M  V30 3470 H 342.17 0.397572 6.76332 0
M  V30 3471 H 343.113 1.92089 6.81548 0
M  V30 3472 H 343.521 0.668579 5.60527 0
M  V30 3473 N 342.919 -1.39368 0.735821 0
M  V30 3474 C 344.167 -2.00101 0.283562 0
M  V30 3475 C 344.488 -1.5868 -1.13338 0
M  V30 3476 O 343.758 -0.835423 -1.77193 0
M  V30 3477 H 342.338 -0.740024 0.101851 0
M  V30 3478 H 345 -1.70404 0.945962 0
M  V30 3479 H 344.096 -3.10323 0.332604 0
M  V30 3480 N 344.397 -0.483516 -1.5 0
M  V30 3481 C 345.625 0.0644831 -2.06799 0
M  V30 3482 C 346.04 1.32399 -1.34596 0
M  V30 3483 O 345.397 1.77626 -0.418946 0
M  V30 3484 C 345.448 0.339927 -3.59898 0
M  V30 3485 O 345.169 -0.869635 -4.29382 0
M  V30 3486 C 346.67 0.933515 -4.33359 0
M  V30 3487 H 343.89 -0.0126333 -0.670881 0
M  V30 3488 H 346.434 -0.675864 -1.93009 0
M  V30 3489 H 344.589 1.03022 -3.7345 0
M  V30 3490 H 345.003 -0.62179 -5.20801 0
M  V30 3491 H 346.477 1.07593 -5.41413 0
M  V30 3492 H 346.954 1.92685 -3.94676 0
M  V30 3493 H 347.56 0.281221 -4.24369 0
M  V30 3494 N 345.875 1.56104 -0.216619 0
M  V30 3495 C 347.121 1.98466 0.417033 0
M  V30 3496 C 347.454 1.10403 1.59765 0
M  V30 3497 O 346.729 0.160632 1.93836 0
M  V30 3498 C 347.012 3.49769 0.85637 0
M  V30 3499 C 346.865 4.48606 -0.327546 0
M  V30 3500 C 348.184 4.05339 1.7143 0
M  V30 3501 H 345.303 0.721551 0.150112 0
M  V30 3502 H 347.945 1.87423 -0.311864 0
M  V30 3503 H 346.095 3.5931 1.47745 0
M  V30 3504 H 347.767 4.5108 -0.965618 0
M  V30 3505 H 346.01 4.22682 -0.975805 0
M  V30 3506 H 346.681 5.51995 0.0227149 0
M  V30 3507 H 349.157 3.98712 1.19031 0
M  V30 3508 H 348.033 5.11533 1.99061 0
M  V30 3509 H 348.294 3.51918 2.67593 0
M  V30 3510 N 347.353 -0.0568162 1.57498 0
M  V30 3511 C 348.285 -1.09292 2.01464 0
M  V30 3512 C 349.298 -1.34112 0.922913 0
M  V30 3513 O 350.487 -1.32089 1.20062 0
M  V30 3514 C 347.587 -2.44068 2.35125 0
M  V30 3515 C 346.76 -2.38995 3.66333 0
M  V30 3516 C 345.819 -3.55997 3.87495 0
M  V30 3517 O 344.845 -3.36746 4.58901 0
M  V30 3518 N 346.047 -4.76888 3.30996 0
M  V30 3519 H 348.812 -0.718386 2.90963 0
M  V30 3520 H 346.373 -0.245235 1.60032 0
M  V30 3521 H 348.365 -3.21011 2.46443 0
M  V30 3522 H 346.935 -2.73468 1.5144 0
M  V30 3523 H 346.155 -1.47336 3.65631 0
M  V30 3524 H 347.443 -2.3272 4.52458 0
M  V30 3525 H 346.841 -4.95431 2.73065 0
M  V30 3526 H 345.398 -5.51291 3.47738 0
M  V30 3527 N 348.832 -1.54138 -0.328536 0
M  V30 3528 C 350.248 -1.44736 -0.672574 0
M  V30 3529 C 350.448 -0.616217 -1.91846 0
M  V30 3530 O 349.504 -0.113067 -2.52247 0
M  V30 3531 C 350.817 -2.884 -0.851217 0
M  V30 3532 C 352.365 -2.98271 -0.948877 0
M  V30 3533 C 352.84 -4.43074 -1.15973 0
M  V30 3534 N 354.331 -4.46665 -1.22658 0
M  V30 3535 C 355.066 -5.55857 -1.40751 0
M  V30 3536 N 354.562 -6.75026 -1.5592 0
M  V30 3537 N 356.355 -5.43495 -1.4342 0
M  V30 3538 H 348.506 -2.06661 0.490421 0
M  V30 3539 H 350.769 -0.934812 0.157579 0
M  V30 3540 H 350.475 -3.51699 -0.00704236 0
M  V30 3541 H 350.349 -3.34225 -1.74853 0
M  V30 3542 H 352.736 -2.35102 -1.78356 0
M  V30 3543 H 352.817 -2.55785 -0.0281435 0
M  V30 3544 H 352.461 -5.06827 -0.329915 0
M  V30 3545 H 352.391 -4.83165 -2.09426 0
M  V30 3546 H 354.882 -3.60797 -1.124 0
M  V30 3547 H 355.195 -7.54004 -1.69404 0
M  V30 3548 H 353.54 -6.77944 -1.53027 0
M  V30 3549 H 356.731 -4.49349 -1.31162 0
M  V30 3550 H 356.904 -6.28649 -1.57178 0
M  V30 3551 N 350.31 0.590341 -1.46126 0
M  V30 3552 C 351.556 1.34874 -1.52252 0
M  V30 3553 C 351.911 1.91658 -0.168807 0
M  V30 3554 O 351.204 1.73093 0.821556 0
M  V30 3555 C 351.398 2.5032 -2.55097 0
M  V30 3556 C 351.227 2.04843 -4.00337 0
M  V30 3557 C 349.997 1.90213 -4.68132 0
M  V30 3558 C 352.195 1.61267 -4.88362 0
M  V30 3559 N 350.177 1.38727 -5.9802 0
M  V30 3560 C 351.548 1.21319 -6.08015 0
M  V30 3561 C 353.603 1.49015 -4.75078 0
M  V30 3562 C 352.306 0.7034 -7.15852 0
M  V30 3563 C 354.332 0.994401 -5.8298 0
M  V30 3564 C 353.694 0.604659 -7.018 0
M  V30 3565 H 349.793 0.486803 -0.612002 0
M  V30 3566 H 352.377 0.673007 -1.82698 0
M  V30 3567 H 350.548 3.15466 -2.26574 0
M  V30 3568 H 352.28 3.1725 -2.51266 0
M  V30 3569 H 349.035 2.11927 -4.23537 0
M  V30 3570 H 349.459 1.15168 -6.67132 0
M  V30 3571 H 354.101 1.77768 -3.83612 0
M  V30 3572 H 351.819 0.403446 -8.07092 0
M  V30 3573 H 355.405 0.903621 -5.7474 0
M  V30 3574 H 354.285 0.226963 -7.83871 0
M  V30 3575 N 351.788 1.33704 0.83433 0
M  V30 3576 C 352.698 1.26382 1.97648 0
M  V30 3577 C 353.714 0.173548 1.73132 0
M  V30 3578 O 354.89 0.397962 1.97429 0
M  V30 3579 C 351.955 1.00769 3.31733 0
M  V30 3580 C 351.016 2.1884 3.69334 0
M  V30 3581 C 350.249 1.9444 4.9702 0
M  V30 3582 O 350.472 0.896961 5.63303 0
M  V30 3583 O 349.406 2.81093 5.32231 0
M  V30 3584 H 353.232 2.22444 2.06767 0
M  V30 3585 H 350.817 1.13795 0.968037 0
M  V30 3586 H 352.699 0.882186 4.12062 0
M  V30 3587 H 351.374 0.0773783 3.23608 0
M  V30 3588 H 350.281 2.36946 2.89495 0
M  V30 3589 H 351.614 3.10221 3.82131 0
M  V30 3590 N 353.266 -1.05314 1.17247 0
M  V30 3591 C 354.213 -2.13031 0.888058 0
M  V30 3592 C 355.183 -1.65253 -0.167537 0
M  V30 3593 O 356.368 -1.90775 -0.0305974 0
M  V30 3594 C 353.508 -3.42702 0.406147 0
M  V30 3595 C 352.621 -4.04161 1.52572 0
M  V30 3596 C 351.756 -5.21744 0.997808 0
M  V30 3597 C 350.795 -5.75207 2.09291 0
M  V30 3598 N 349.932 -6.84094 1.57986 0
M  V30 3599 H 354.772 -2.36698 1.81048 0
M  V30 3600 H 352.309 -1.16121 0.903013 0
M  V30 3601 H 354.267 -4.17059 0.108305 0
M  V30 3602 H 352.897 -3.19222 -0.479313 0
M  V30 3603 H 351.949 -3.27253 1.93931 0
M  V30 3604 H 353.261 -4.39881 2.35172 0
M  V30 3605 H 352.415 -6.03168 0.653739 0
M  V30 3606 H 351.154 -4.87495 0.141232 0
M  V30 3607 H 350.159 -4.92414 2.44557 0
M  V30 3608 H 351.384 -6.11505 2.95362 0
M  V30 3609 H 349.33 -6.51745 0.74598 0
M  V30 3610 H 349.247 -7.18811 2.34195 0
M  V30 3611 H 350.515 -7.69172 1.26468 0
M  V30 3612 N 354.744 -0.972509 -1.24016 0
M  V30 3613 C 355.691 -0.505969 -2.25186 0
M  V30 3614 C 356.661 0.451009 -1.5986 0
M  V30 3615 O 357.846 0.360307 -1.87367 0
M  V30 3616 C 354.986 0.193089 -3.44559 0
M  V30 3617 C 354.099 -0.803222 -4.24467 0
M  V30 3618 C 353.234 -0.0797793 -5.3114 0
M  V30 3619 C 352.273 -1.06583 -6.02749 0
M  V30 3620 N 351.41 -0.372074 -7.01113 0
M  V30 3621 H 356.25 -1.37351 -2.64459 0
M  V30 3622 H 353.787 -0.688419 -1.29997 0
M  V30 3623 H 355.745 0.615125 -4.1264 0
M  V30 3624 H 354.375 1.02455 -3.06109 0
M  V30 3625 H 353.427 -1.34368 -3.55878 0
M  V30 3626 H 354.739 -1.55494 -4.73944 0
M  V30 3627 H 353.893 0.400015 -6.0538 0
M  V30 3628 H 352.632 0.704597 -4.82583 0
M  V30 3629 H 351.637 -1.55645 -5.27309 0
M  V30 3630 H 352.862 -1.85074 -6.53395 0
M  V30 3631 H 350.808 0.393238 -6.5482 0
M  V30 3632 H 350.725 -1.06258 -7.48495 0
M  V30 3633 H 351.993 0.0855932 -7.79453 0
M  V30 3634 N 356.222 1.38976 -0.743202 0
M  V30 3635 C 357.468 2.0064 -0.295189 0
M  V30 3636 C 357.801 1.5885 1.11716 0
M  V30 3637 O 357.076 0.821181 1.76315 0
M  V30 3638 C 357.359 3.578 -0.406318 0
M  V30 3639 C 357.212 4.09586 -1.85903 0
M  V30 3640 C 358.531 4.39616 0.206439 0
M  V30 3641 H 355.65 0.728935 -0.108733 0
M  V30 3642 H 358.292 1.65067 -0.940897 0
M  V30 3643 H 356.442 3.88235 0.143419 0
M  V30 3644 H 358.114 3.89837 -2.46627 0
M  V30 3645 H 356.357 3.6284 -2.3776 0
M  V30 3646 H 357.028 5.18708 -1.888 0
M  V30 3647 H 359.504 4.15273 -0.262283 0
M  V30 3648 H 358.38 5.48812 0.0983819 0
M  V30 3649 H 358.641 4.22754 1.2935 0
M  V30 3650 N 357.7 0.491464 1.49741 0
M  V30 3651 C 358.948 -0.0563141 2.02022 0
M  V30 3652 C 359.269 -1.38363 1.37407 0
M  V30 3653 O 358.539 -1.88702 0.526166 0
M  V30 3654 H 357.119 -0.0238014 0.746621 0
M  V30 3655 H 359.781 0.646533 1.83864 0
M  V30 3656 H 358.877 -0.192967 3.11503 0
M  V30 3657 N 359.178 -1.55987 0.224894 0
M  V30 3658 C 360.088 -2.24066 -0.69511 0
M  V30 3659 C 361.104 -1.24939 -1.21104 0
M  V30 3660 O 362.28 -1.5776 -1.25195 0
M  V30 3661 C 359.345 -2.90983 -1.88493 0
M  V30 3662 C 358.406 -4.05462 -1.41064 0
M  V30 3663 C 357.639 -4.69179 -2.54375 0
M  V30 3664 O 357.862 -4.31895 -3.72589 0
M  V30 3665 O 356.796 -5.58108 -2.25386 0
M  V30 3666 H 360.622 -3.03353 -0.145149 0
M  V30 3667 H 358.207 -1.49399 -0.00569476 0
M  V30 3668 H 360.089 -3.33209 -2.57972 0
M  V30 3669 H 358.764 -2.14653 -2.42293 0
M  V30 3670 H 357.671 -3.67798 -0.683774 0
M  V30 3671 H 359.004 -4.83545 -0.918985 0
M  V30 3672 N 360.656 0.0484629 -1.57525 0
M  V30 3673 C 361.603 1.05504 -2.05275 0
M  V30 3674 C 362.573 1.37084 -0.937927 0
M  V30 3675 O 363.758 1.47754 -1.2072 0
M  V30 3676 C 360.898 2.35676 -2.52093 0
M  V30 3677 C 360.011 2.10423 -3.77288 0
M  V30 3678 C 359.146 3.34327 -4.12794 0
M  V30 3679 C 358.185 3.04542 -5.30962 0
M  V30 3680 N 357.322 4.20841 -5.61994 0
M  V30 3681 H 362.162 0.640885 -2.91027 0
M  V30 3682 H 359.699 0.304854 -1.43906 0
M  V30 3683 H 361.657 3.11709 -2.77297 0
M  V30 3684 H 360.287 2.7485 -1.69285 0
M  V30 3685 H 359.339 1.24976 -3.59284 0
M  V30 3686 H 360.651 1.84438 -4.63448 0
M  V30 3687 H 359.805 4.1874 -4.39024 0
M  V30 3688 H 358.544 3.63408 -3.25247 0
M  V30 3689 H 357.549 2.18528 -5.04505 0
M  V30 3690 H 358.774 2.76758 -6.20146 0
M  V30 3691 H 356.72 4.4991 -4.77406 0
M  V30 3692 H 356.637 3.98212 -6.42622 0
M  V30 3693 H 357.905 5.06184 -5.92789 0
M  V30 3694 N 362.134 1.5431 0.320358 0
M  V30 3695 C 363.064 1.86912 1.3995 0
M  V30 3696 C 364.045 0.726211 1.53819 0
M  V30 3697 O 365.23 0.980233 1.67646 0
M  V30 3698 C 362.36 2.09932 2.7667 0
M  V30 3699 C 361.314 3.25776 2.77586 0
M  V30 3700 C 360.64 3.34173 4.17412 0
M  V30 3701 C 361.94 4.6335 2.41048 0
M  V30 3702 H 363.634 2.77292 1.12914 0
M  V30 3703 H 361.18 1.33421 0.541738 0
M  V30 3704 H 363.133 2.31324 3.52232 0
M  V30 3705 H 361.857 1.16304 3.0519 0
M  V30 3706 H 360.516 3.04276 2.04479 0
M  V30 3707 H 360.164 2.38098 4.43078 0
M  V30 3708 H 359.864 4.12033 4.18931 0
M  V30 3709 H 361.388 3.57803 4.94782 0
M  V30 3710 H 362.802 4.84602 3.06324 0
M  V30 3711 H 361.199 5.43782 2.53813 0
M  V30 3712 H 362.269 4.65381 1.36193 0
M  V30 3713 N 363.613 -0.582584 1.46437 0
M  V30 3714 C 364.838 -1.37168 1.55563 0
M  V30 3715 C 365.263 -1.87061 0.19743 0
M  V30 3716 O 364.621 -1.61572 -0.822451 0
M  V30 3717 C 364.669 -2.53511 2.56446 0
M  V30 3718 O 363.773 -3.54953 2.09958 0
M  V30 3719 H 363.114 -0.408494 0.523477 0
M  V30 3720 H 365.644 -0.706646 1.9201 0
M  V30 3721 H 365.654 -3.00426 2.76058 0
M  V30 3722 H 364.329 -2.16549 3.55076 0
M  V30 3723 H 362.906 -3.14516 2.00334 0
M  V30 3724 N 365.091 -1.34144 -0.827227 0
M  V30 3725 C 366.001 -1.27428 -1.96975 0
M  V30 3726 C 367.017 -0.182728 -1.73038 0
M  V30 3727 O 368.193 -0.408426 -1.97215 0
M  V30 3728 C 365.258 -1.02526 -3.31194 0
M  V30 3729 C 364.319 -2.20796 -3.68168 0
M  V30 3730 C 363.552 -1.97073 -4.95982 0
M  V30 3731 O 363.775 -0.926822 -5.6282 0
M  V30 3732 O 362.709 -2.83912 -5.30733 0
M  V30 3733 H 366.535 -2.23537 -2.05584 0
M  V30 3734 H 364.12 -1.14307 -0.961989 0
M  V30 3735 H 366.002 -0.904026 -4.11589 0
M  V30 3736 H 364.677 -0.0945389 -3.23562 0
M  V30 3737 H 363.584 -2.38477 -2.88235 0
M  V30 3738 H 364.917 -3.12243 -3.8048 0
M  V30 3739 N 366.569 1.04691 -1.17803 0
M  V30 3740 C 367.817 1.7743 -0.967617 0
M  V30 3741 C 368.138 1.88359 0.504574 0
M  V30 3742 O 367.408 1.40402 1.36617 0
M  V30 3743 H 365.988 0.657242 -0.355024 0
M  V30 3744 H 368.65 1.2638 -1.48371 0
M  V30 3745 H 367.746 2.78924 -1.40027 0
M  V30 3746 N 368.047 0.979072 1.23499 0
M  V30 3747 C 369.324 0.563674 1.87302 0
M  V30 3748 C 369.704 -0.959199 1.88049 0
M  V30 3749 O 369.052 -1.83535 1.36114 0
M  V30 3750 C 369.262 1.16822 3.28867 0
M  V30 3751 C 370.61 1.26014 4.0547 0
M  V30 3752 O 371.634 1.12158 3.38082 0
M  V30 3753 O 370.493 1.48044 5.26066 0
M  V30 3754 H 367.587 0.189602 0.804972 0
M  V30 3755 H 370.133 1.07407 1.31384 0
M  V30 3756 H 368.905 2.21049 3.22883 0
M  V30 3757 H 368.528 0.642564 3.92373 0
M  V30 3758 N 369.525 -1.3858 0.750561 0
M  V30 3759 C 370.455 -2.33102 0.136237 0
M  V30 3760 C 371.436 -1.54713 -0.706965 0
M  V30 3761 O 372.621 -1.83043 -0.648769 0
M  V30 3762 C 369.751 -3.38882 -0.760017 0
M  V30 3763 C 368.705 -4.27995 -0.0197785 0
M  V30 3764 C 368.031 -5.24605 -1.03408 0
M  V30 3765 C 369.331 -5.09554 1.14684 0
M  V30 3766 H 371.025 -2.84726 0.925822 0
M  V30 3767 H 368.571 -1.36898 0.446654 0
M  V30 3768 H 370.524 -4.0397 -1.19943 0
M  V30 3769 H 369.248 -2.85734 -1.58189 0
M  V30 3770 H 367.907 -3.64409 0.400184 0
M  V30 3771 H 367.555 -4.67746 -1.84994 0
M  V30 3772 H 367.255 -5.85081 -0.543464 0
M  V30 3773 H 368.779 -5.9257 -1.47288 0
M  V30 3774 H 370.193 -5.67899 0.785118 0
M  V30 3775 H 368.59 -5.7925 1.56812 0
M  V30 3776 H 369.66 -4.4347 1.96118 0
M  V30 3777 N 371.003 -0.499398 -1.49478 0
M  V30 3778 C 371.933 0.269244 -2.31943 0
M  V30 3779 C 372.914 0.964054 -1.40143 0
M  V30 3780 O 374.099 0.955767 -1.69052 0
M  V30 3781 C 371.229 1.33504 -3.20615 0
M  V30 3782 C 370.183 0.760202 -4.21195 0
M  V30 3783 C 369.509 1.9264 -4.98792 0
M  V30 3784 C 370.809 -0.247661 -5.21712 0
M  V30 3785 H 372.503 -0.419082 -2.96452 0
M  V30 3786 H 370.049 -0.202988 -1.42562 0
M  V30 3787 H 372.002 1.88048 -3.77115 0
M  V30 3788 H 370.726 2.05253 -2.54045 0
M  V30 3789 H 369.385 0.23653 -3.65836 0
M  V30 3790 H 369.033 2.63154 -4.28671 0
M  V30 3791 H 368.733 1.54785 -5.66847 0
M  V30 3792 H 370.257 2.4762 -5.58137 0
M  V30 3793 H 371.671 0.209579 -5.72917 0
M  V30 3794 H 370.068 -0.541962 -5.97648 0
M  V30 3795 H 371.138 -1.16409 -4.7072 0
M  V30 3796 N 372.481 1.55866 -0.233164 0
M  V30 3797 C 373.444 2.1953 0.658715 0
M  V30 3798 C 374.444 1.16053 1.11303 0
M  V30 3799 O 375.634 1.41218 1.01996 0
M  V30 3800 C 372.766 2.82791 1.90373 0
M  V30 3801 H 373.959 2.99721 0.10347 0
M  V30 3802 H 371.512 1.56291 0.0164245 0
M  V30 3803 H 372.247 2.06501 2.50056 0
M  V30 3804 H 372.032 3.58578 1.58632 0
M  V30 3805 H 373.522 3.31556 2.53891 0
M  V30 3806 N 373.959 -0.0401083 1.57549 0
M  V30 3807 C 374.869 -1.06133 2.0922 0
M  V30 3808 C 375.885 -1.40356 1.0284 0
M  V30 3809 O 377.061 -1.49897 1.34509 0
M  V30 3810 C 374.126 -2.34658 2.55218 0
M  V30 3811 C 373.187 -2.07117 3.76033 0
M  V30 3812 C 372.42 -3.29514 4.19829 0
M  V30 3813 O 372.643 -4.39794 3.63232 0
M  V30 3814 O 371.577 -3.15863 5.12362 0
M  V30 3815 H 375.403 -0.652244 2.96613 0
M  V30 3816 H 372.988 -0.256368 1.47184 0
M  V30 3817 H 374.87 -3.10239 2.85184 0
M  V30 3818 H 373.545 -2.74883 1.70941 0
M  V30 3819 H 372.452 -1.29139 3.51104 0
M  V30 3820 H 373.785 -1.71754 4.61261 0
M  V30 3821 N 375.437 -1.54477 -0.31217 0
M  V30 3822 C 376.686 -1.72438 -1.04633 0
M  V30 3823 C 376.999 -0.511163 -1.88803 0
M  V30 3824 O 378.205 -0.572341 -2.65399 0
M  V30 3825 C 376.661 -3.05043 -1.9099 0
M  V30 3826 C 376.269 -4.33806 -1.11877 0
M  V30 3827 C 378.013 -3.32364 -2.64073 0
M  V30 3828 C 375.92 -5.57467 -1.97445 0
M  V30 3829 H 374.85 -0.642647 -0.394361 0
M  V30 3830 H 377.501 -1.80966 -0.303929 0
M  V30 3831 H 375.883 -2.90451 -2.69173 0
M  V30 3832 H 377.057 -4.59199 -0.383843 0
M  V30 3833 H 375.372 -4.13336 -0.504252 0
M  V30 3834 H 377.969 -4.21951 -3.28423 0
M  V30 3835 H 378.312 -2.50745 -3.32314 0
M  V30 3836 H 378.845 -3.47875 -1.92944 0
M  V30 3837 H 375.584 -6.41722 -1.33692 0
M  V30 3838 H 375.104 -5.36277 -2.6864 0
M  V30 3839 H 376.783 -5.94303 -2.5576 0
M  V30 3840 N 376.915 0.57481 -1.46744 0
M  V30 3841 C 377.825 1.711 -1.60505 0
M  V30 3842 C 378.841 1.67008 -0.488307 0
M  V30 3843 O 380.017 1.86774 -0.753495 0
M  V30 3844 C 377.082 3.07608 -1.59932 0
M  V30 3845 C 376.143 3.22904 -2.82898 0
M  V30 3846 C 375.376 4.529 -2.82343 0
M  V30 3847 O 375.599 5.37278 -1.91542 0
M  V30 3848 O 374.533 4.71611 -3.73987 0
M  V30 3849 H 378.359 1.62436 -2.56609 0
M  V30 3850 H 375.944 0.742779 -1.29627 0
M  V30 3851 H 377.826 3.88877 -1.62336 0
M  V30 3852 H 376.501 3.16692 -0.669898 0
M  V30 3853 H 375.408 2.41099 -2.86046 0
M  V30 3854 H 376.741 3.18715 -3.75076 0
M  V30 3855 N 378.394 1.34581 0.820102 0
M  V30 3856 C 379.622 1.3018 1.60813 0
M  V30 3857 C 380.037 -0.123551 1.88395 0
M  V30 3858 O 379.394 -1.07148 1.47735 0
M  V30 3859 C 379.445 2.09312 2.94739 0
M  V30 3860 O 379.166 3.46288 2.68358 0
M  V30 3861 C 380.667 2.1234 3.89136 0
M  V30 3862 H 377.887 0.447726 0.499782 0
M  V30 3863 H 380.431 1.77237 1.02017 0
M  V30 3864 H 378.586 1.65889 3.50085 0
M  V30 3865 H 379 3.87227 3.53774 0
M  V30 3866 H 380.474 2.72126 4.80262 0
M  V30 3867 H 380.951 1.11854 4.24718 0
M  V30 3868 H 381.557 2.55864 3.39726 0
M  V30 3869 N 379.872 -1.04064 1.18357 0
M  V30 3870 C 381.149 -1.74252 0.888581 0
M  V30 3871 C 381.529 -2.02138 -0.60856 0
M  V30 3872 O 380.877 -1.66656 -1.56327 0
M  V30 3873 C 381.087 -3.0277 1.73584 0
M  V30 3874 C 382.435 -3.76506 1.96286 0
M  V30 3875 O 383.459 -3.12668 1.70637 0
M  V30 3876 O 382.318 -4.91243 2.39464 0
M  V30 3877 H 379.412 -0.758271 0.330082 0
M  V30 3878 H 381.958 -1.1013 1.2911 0
M  V30 3879 H 380.73 -2.78299 2.75073 0
M  V30 3880 H 380.353 -3.74631 1.33183 0
M  V30 3881 N 381.35 -0.985608 -1.22978 0
M  V30 3882 C 382.297 -0.529825 -2.24636 0
M  V30 3883 C 383.267 0.434028 -1.60329 0
M  V30 3884 O 384.452 0.340414 -1.87739 0
M  V30 3885 C 381.592 0.156533 -3.44745 0
M  V30 3886 C 380.705 -0.848197 -4.23591 0
M  V30 3887 C 379.84 -0.136109 -5.31026 0
M  V30 3888 C 378.879 -1.1297 -6.01585 0
M  V30 3889 N 378.016 -0.446415 -7.00679 0
M  V30 3890 H 382.856 -1.40148 -2.62988 0
M  V30 3891 H 380.393 -0.702168 -1.29259 0
M  V30 3892 H 382.351 0.571324 -4.1327 0
M  V30 3893 H 380.981 0.992025 -3.07179 0
M  V30 3894 H 380.033 -1.38135 -3.54433 0
M  V30 3895 H 381.345 -1.60512 -4.72268 0
M  V30 3896 H 380.499 0.335784 -6.0577 0
M  V30 3897 H 379.238 0.653373 -4.83304 0
M  V30 3898 H 378.243 -1.6123 -5.25628 0
M  V30 3899 H 379.468 -1.91993 -6.51395 0
M  V30 3900 H 377.414 0.323763 -6.55201 0
M  V30 3901 H 377.331 -1.1419 -7.47326 0
M  V30 3902 H 378.599 0.00291697 -7.795 0
M  V30 3903 N 382.828 1.3818 -0.7579 0
M  V30 3904 C 383.791 2.28764 -0.141286 0
M  V30 3905 C 384.791 1.47388 0.642907 0
M  V30 3906 O 385.981 1.67781 0.468536 0
M  V30 3907 C 383.113 3.31184 0.808069 0
M  V30 3908 H 384.306 2.848 -0.939633 0
M  V30 3909 H 381.859 1.47212 -0.525191 0
M  V30 3910 H 382.594 2.80247 1.63193 0
M  V30 3911 H 382.379 3.91314 0.248104 0
M  V30 3912 H 383.869 3.98909 1.23536 0
M  V30 3913 N 384.306 0.507319 1.49211 0
M  V30 3914 C 385.534 -0.0315749 2.06876 0
M  V30 3915 C 385.949 -1.30241 1.36685 0
M  V30 3916 O 385.306 -1.76937 0.447152 0
M  V30 3917 C 385.357 -0.282627 3.60393 0
M  V30 3918 O 385.078 0.937835 4.27944 0
M  V30 3919 C 386.579 -0.864453 4.3479 0
M  V30 3920 H 383.799 0.0233048 0.670595 0
M  V30 3921 H 386.343 0.706484 1.91909 0
M  V30 3922 H 384.498 -0.97068 3.75042 0
M  V30 3923 H 384.912 0.704567 5.19746 0
M  V30 3924 H 386.386 -0.989664 5.43056 0
M  V30 3925 H 386.863 -1.86382 3.97692 0
M  V30 3926 H 387.469 -0.213672 4.24763 0
M  V30 3927 N 385.784 -1.5574 0.241426 0
M  V30 3928 C 387.033 -1.97986 -0.385295 0
M  V30 3929 C 387.346 -1.13267 -1.59468 0
M  V30 3930 O 388.552 -1.45501 -2.2922 0
M  V30 3931 C 387.008 -3.52275 -0.736884 0
M  V30 3932 C 386.616 -4.45726 0.450796 0
M  V30 3933 C 388.36 -4.03189 -1.3281 0
M  V30 3934 C 386.267 -5.91352 0.0756662 0
M  V30 3935 H 385.197 -0.739386 -0.147731 0
M  V30 3936 H 387.848 -1.80308 0.340779 0
M  V30 3937 H 386.23 -3.65628 -1.52094 0
M  V30 3938 H 387.404 -4.44131 1.22819 0
M  V30 3939 H 385.719 -4.05264 0.956573 0
M  V30 3940 H 388.316 -5.09505 -1.62201 0
M  V30 3941 H 388.659 -3.50212 -2.25071 0
M  V30 3942 H 389.192 -3.93141 -0.607069 0
M  V30 3943 H 385.931 -6.48354 0.965272 0
M  V30 3944 H 385.451 -5.96095 -0.665635 0
M  V30 3945 H 387.13 -6.46084 -0.344075 0
M  V30 3946 N 387.262 0.0317525 -1.57568 0
M  V30 3947 C 388.51 0.721676 -1.88776 0
M  V30 3948 C 388.831 1.76039 -0.838772 0
M  V30 3949 O 388.101 1.95482 0.127935 0
M  V30 3950 H 386.681 0.269534 -0.696678 0
M  V30 3951 H 389.343 -0.00165879 -1.949 0
M  V30 3952 H 388.439 1.21293 -2.87566 0
M  V30 3953 N 388.74 1.54641 0.303973 0
M  V30 3954 C 389.987 1.7378 1.03955 0
M  V30 3955 C 390.315 0.521986 1.87365 0
M  V30 3956 O 389.57 -0.496099 1.89308 0
M  V30 3957 C 389.869 2.97753 1.97681 0
M  V30 3958 C 389.535 4.31671 1.30271 0
M  V30 3959 C 388.197 4.68075 1.11619 0
M  V30 3960 C 390.549 5.147 0.82055 0
M  V30 3961 C 387.877 5.8509 0.434304 0
M  V30 3962 C 390.229 6.32416 0.152395 0
M  V30 3963 C 388.893 6.67484 -0.0461067 0
M  V30 3964 H 388.163 0.635908 0.380398 0
M  V30 3965 H 390.81 1.88896 0.314718 0
M  V30 3966 H 389.115 2.77406 2.76682 0
M  V30 3967 H 390.812 3.09756 2.54661 0
M  V30 3968 H 387.402 4.03041 1.45795 0
M  V30 3969 H 391.586 4.87077 0.952374 0
M  V30 3970 H 386.842 6.10806 0.269495 0
M  V30 3971 H 391.016 6.96023 -0.229126 0
M  V30 3972 H 388.643 7.58011 -0.576494 0
M  V30 3973 N 390.218 -0.567019 1.47046 0
M  V30 3974 C 391.128 -1.70247 1.6141 0
M  V30 3975 C 392.144 -1.66746 0.497157 0
M  V30 3976 O 393.32 -1.86371 0.763389 0
M  V30 3977 C 390.385 -3.06756 1.61561 0
M  V30 3978 C 389.446 -3.21399 2.84607 0
M  V30 3979 C 388.679 -4.51396 2.84741 0
M  V30 3980 O 388.902 -5.36255 1.94388 0
M  V30 3981 O 387.836 -4.69621 3.76483 0
M  V30 3982 H 391.662 -1.61073 2.57467 0
M  V30 3983 H 389.247 -0.735894 1.30019 0
M  V30 3984 H 391.129 -3.8801 1.64396 0
M  V30 3985 H 389.804 -3.16333 0.686684 0
M  V30 3986 H 388.711 -2.39579 2.8732 0
M  V30 3987 H 390.044 -3.16721 3.76761 0
M  V30 3988 N 391.696 -1.35014 -0.812953 0
M  V30 3989 C 392.942 -1.2812 -1.57204 0
M  V30 3990 C 393.275 0.145869 -1.93651 0
M  V30 3991 O 392.55 1.0937 -1.60836 0
M  V30 3992 C 392.833 -2.18162 -2.86492 0
M  V30 3993 C 392.686 -3.69454 -2.56561 0
M  V30 3994 C 394.005 -2.07439 -3.88145 0
M  V30 3995 H 391.124 -0.466746 -0.570366 0
M  V30 3996 H 393.766 -1.65357 -0.935783 0
M  V30 3997 H 391.916 -1.86535 -3.40789 0
M  V30 3998 H 393.588 -4.11493 -2.08497 0
M  V30 3999 H 391.831 -3.9005 -1.89851 0
M  V30 4000 H 392.502 -4.27835 -3.48799 0
M  V30 4001 H 394.978 -2.35228 -3.4323 0
M  V30 4002 H 393.854 -2.7265 -4.76396 0
M  V30 4003 H 394.115 -1.05439 -4.29343 0
M  V30 4004 N 393.175 1.03435 -1.18907 0
M  V30 4005 C 394.107 2.1165 -0.879595 0
M  V30 4006 C 395.12 1.62316 0.125439 0
M  V30 4007 O 396.309 1.78201 -0.103245 0
M  V30 4008 C 393.409 3.37622 -0.294042 0
M  V30 4009 C 392.582 4.16166 -1.34629 0
M  V30 4010 C 391.641 5.20457 -0.775274 0
M  V30 4011 O 390.667 5.50379 -1.4516 0
M  V30 4012 N 391.869 5.78949 0.424126 0
M  V30 4013 H 394.634 2.38791 -1.81105 0
M  V30 4014 H 392.195 1.19681 -1.09032 0
M  V30 4015 H 394.187 4.04572 0.101679 0
M  V30 4016 H 392.757 3.07873 0.541575 0
M  V30 4017 H 391.977 3.44444 -1.91707 0
M  V30 4018 H 393.265 4.65432 -2.05549 0
M  V30 4019 H 392.663 5.56948 0.991209 0
M  V30 4020 H 391.22 6.47334 0.761691 0
M  V30 4021 N 394.653 0.992116 1.22453 0
M  V30 4022 C 395.563 0.55065 2.28046 0
M  V30 4023 C 396.579 -0.400189 1.69335 0
M  V30 4024 O 397.755 -0.267215 1.99619 0
M  V30 4025 C 394.82 -0.128496 3.46462 0
M  V30 4026 C 393.881 0.865208 4.20491 0
M  V30 4027 C 393.114 0.218377 5.33253 0
M  V30 4028 O 393.337 -0.987894 5.6178 0
M  V30 4029 O 392.271 0.922845 5.94783 0
M  V30 4030 H 396.097 1.4291 2.67975 0
M  V30 4031 H 393.682 0.760326 1.28606 0
M  V30 4032 H 395.564 -0.508947 4.18315 0
M  V30 4033 H 394.239 -0.981526 3.0846 0
M  V30 4034 H 393.146 1.29658 3.50913 0
M  V30 4035 H 394.479 1.68741 4.62371 0
M  V30 4036 N 396.131 -1.37776 0.765217 0
M  V30 4037 C 397.041 -2.34135 0.147666 0
M  V30 4038 C 398.057 -1.59854 -0.687215 0
M  V30 4039 O 399.233 -1.91983 -0.608659 0
M  V30 4040 C 396.298 -3.3901 -0.72617 0
M  V30 4041 C 395.359 -4.2912 0.124417 0
M  V30 4042 C 394.592 -5.28986 -0.707807 0
M  V30 4043 O 394.815 -5.36205 -1.94525 0
M  V30 4044 O 393.749 -6.01779 -0.12046 0
M  V30 4045 H 397.575 -2.88664 0.943758 0
M  V30 4046 H 395.16 -1.39824 0.526277 0
M  V30 4047 H 397.042 -4.03195 -1.22524 0
M  V30 4048 H 395.717 -2.86819 -1.50056 0
M  V30 4049 H 394.624 -3.68057 0.669696 0
M  V30 4050 H 395.957 -4.84598 0.861736 0
M  V30 4051 N 397.609 -0.515225 -1.4894 0
M  V30 4052 C 398.857 0.0241671 -2.02086 0
M  V30 4053 C 399.178 1.3616 -1.3959 0
M  V30 4054 O 398.448 1.87841 -0.556121 0
M  V30 4055 H 397.028 0.0119203 -0.746905 0
M  V30 4056 H 399.69 -0.675702 -1.82812 0
M  V30 4057 H 398.786 0.143385 -3.1177 0
M  V30 4058 N 399.087 1.5561 -0.249682 0
M  V30 4059 C 400.317 2.03116 0.377803 0
M  V30 4060 C 400.725 1.12822 1.51881 0
M  V30 4061 O 400.068 0.13562 1.83199 0
M  V30 4062 C 400.13 3.46866 0.944693 0
M  V30 4063 C 399.794 4.56955 -0.0644259 0
M  V30 4064 C 400.791 5.12485 -0.874957 0
M  V30 4065 C 398.476 5.01936 -0.19132 0
M  V30 4066 C 400.47 6.11491 -1.79881 0
M  V30 4067 C 398.157 6.00773 -1.11868 0
M  V30 4068 C 399.155 6.5543 -1.92095 0
M  V30 4069 O 398.843 7.5234 -2.83267 0
M  V30 4070 H 398.575 0.669489 0.0935961 0
M  V30 4071 H 401.129 2.02004 -0.371966 0
M  V30 4072 H 399.359 3.45136 1.74407 0
M  V30 4073 H 401.048 3.77856 1.48255 0
M  V30 4074 H 401.814 4.78564 -0.787523 0
M  V30 4075 H 397.693 4.59055 0.423072 0
M  V30 4076 H 401.237 6.54078 -2.42543 0
M  V30 4077 H 397.134 6.34114 -1.20703 0
M  V30 4078 H 397.902 7.69966 -2.7766 0
M  V30 4079 N 400.565 -0.0233959 1.57583 0
M  V30 4080 C 401.495 -1.02162 2.09965 0
M  V30 4081 C 402.476 -1.3735 1.00344 0
M  V30 4082 O 403.661 -1.46135 1.27899 0
M  V30 4083 C 400.791 -2.32081 2.58371 0
M  V30 4084 C 399.745 -2.1112 3.72307 0
M  V30 4085 C 399.071 -3.46848 4.06941 0
M  V30 4086 C 400.371 -1.49276 5.00514 0
M  V30 4087 H 402.065 -0.585557 2.93618 0
M  V30 4088 H 399.611 -0.280218 1.41247 0
M  V30 4089 H 401.564 -3.02249 2.93639 0
M  V30 4090 H 400.288 -2.77758 1.71808 0
M  V30 4091 H 398.947 -1.43384 3.37397 0
M  V30 4092 H 398.595 -3.90184 3.17436 0
M  V30 4093 H 398.295 -3.33646 4.83688 0
M  V30 4094 H 399.819 -4.18369 4.44747 0
M  V30 4095 H 401.233 -2.09368 5.33702 0
M  V30 4096 H 399.63 -1.46632 5.8191 0
M  V30 4097 H 400.7 -0.459217 4.82721 0
M  V30 4098 N 402.043 -1.548 -0.295768 0
M  V30 4099 C 403.006 -1.85363 -1.34808 0
M  V30 4100 C 404.006 -0.726817 -1.43436 0
M  V30 4101 O 405.196 -0.995088 -1.42981 0
M  V30 4102 C 402.328 -2.03859 -2.73229 0
M  V30 4103 H 403.521 -2.7941 -1.08949 0
M  V30 4104 H 401.074 -1.46942 -0.532702 0
M  V30 4105 H 401.809 -1.12117 -3.04303 0
M  V30 4106 H 401.594 -2.8588 -2.68356 0
M  V30 4107 H 403.084 -2.28857 -3.49305 0
M  V30 4108 N 403.521 0.559213 -1.47345 0
M  V30 4109 C 404.468 1.66645 -1.59682 0
M  V30 4110 C 405.438 1.60168 -0.43994 0
M  V30 4111 O 406.623 1.79031 -0.659736 0
M  V30 4112 C 403.763 3.04969 -1.61518 0
M  V30 4113 C 402.876 3.21897 -2.88108 0
M  V30 4114 C 402.011 4.50608 -2.81294 0
M  V30 4115 C 401.05 4.60961 -4.02717 0
M  V30 4116 N 400.187 5.81024 -3.94151 0
M  V30 4117 H 405.027 1.55439 -2.54249 0
M  V30 4118 H 402.564 0.757219 -1.26113 0
M  V30 4119 H 404.522 3.85064 -1.60566 0
M  V30 4120 H 403.152 3.15015 -0.704645 0
M  V30 4121 H 402.204 2.35248 -2.98936 0
M  V30 4122 H 403.516 3.25412 -3.78032 0
M  V30 4123 H 402.67 5.3896 -2.7858 0
M  V30 4124 H 401.409 4.49568 -1.89049 0
M  V30 4125 H 400.414 3.71021 -4.05738 0
M  V30 4126 H 401.639 4.63761 -4.96087 0
M  V30 4127 H 399.585 5.80938 -3.04708 0
M  V30 4128 H 399.502 5.85909 -4.77752 0
M  V30 4129 H 400.77 6.71744 -3.9545 0
M  V30 4130 N 404.999 1.35443 0.805782 0
M  V30 4131 C 406.248 1.28097 1.55801 0
M  V30 4132 C 406.561 -0.142428 1.95081 0
M  V30 4133 O 407.767 -0.33817 2.69386 0
M  V30 4134 C 406.223 2.24653 2.81174 0
M  V30 4135 C 405.831 3.72342 2.49129 0
M  V30 4136 C 407.575 2.2625 3.59181 0
M  V30 4137 C 405.482 4.60719 3.70799 0
M  V30 4138 H 404.412 0.475937 0.584808 0
M  V30 4139 H 407.063 1.60712 0.885661 0
M  V30 4140 H 405.445 1.85011 3.50124 0
M  V30 4141 H 406.619 4.20624 1.88181 0
M  V30 4142 H 404.934 3.73361 1.84366 0
M  V30 4143 H 407.531 2.89495 4.49552 0
M  V30 4144 H 407.874 1.26647 3.96568 0
M  V30 4145 H 408.407 2.64426 2.97193 0
M  V30 4146 H 405.146 5.61324 3.3852 0
M  V30 4147 H 404.666 4.17163 4.3097 0
M  V30 4148 H 406.345 4.76182 4.38018 0
M  V30 4149 N 406.477 -1.02803 1.19454 0
M  V30 4150 C 407.407 -2.12999 0.956758 0
M  V30 4151 C 408.388 -1.69743 -0.110188 0
M  V30 4152 O 409.573 -1.94148 0.0450038 0
M  V30 4153 C 406.703 -3.43746 0.495553 0
M  V30 4154 C 405.657 -4.00688 1.50443 0
M  V30 4155 C 404.983 -5.27067 0.900275 0
M  V30 4156 C 406.283 -4.35397 2.8849 0
M  V30 4157 H 407.977 -2.33148 1.87836 0
M  V30 4158 H 405.523 -1.12045 0.904539 0
M  V30 4159 H 407.476 -4.2021 0.316493 0
M  V30 4160 H 406.2 -3.23321 -0.461646 0
M  V30 4161 H 404.859 -3.2632 1.67065 0
M  V30 4162 H 404.507 -5.02959 -0.064503 0
M  V30 4163 H 404.207 -5.66127 1.57397 0
M  V30 4164 H 405.731 -6.06196 0.73203 0
M  V30 4165 H 407.145 -5.02795 2.75446 0
M  V30 4166 H 405.542 -4.85541 3.52661 0
M  V30 4167 H 406.612 -3.44662 3.41081 0
M  V30 4168 N 407.956 -0.998596 -1.21925 0
M  V30 4169 C 409.202 -0.678667 -1.91107 0
M  V30 4170 C 409.535 0.78791 -1.77498 0
M  V30 4171 O 408.81 1.57043 -1.1475 0
M  V30 4172 C 409.093 -1.09245 -3.43129 0
M  V30 4173 C 408.946 -2.61801 -3.6576 0
M  V30 4174 C 410.265 -0.649984 -4.35274 0
M  V30 4175 H 407.384 -0.248025 -0.694012 0
M  V30 4176 H 410.026 -1.24314 -1.43688 0
M  V30 4177 H 408.176 -0.612171 -3.83647 0
M  V30 4178 H 409.848 -3.17543 -3.34611 0
M  V30 4179 H 408.091 -3.03609 -3.09845 0
M  V30 4180 H 408.762 -2.85804 -4.7225 0
M  V30 4181 H 411.238 -1.0626 -4.02303 0
M  V30 4182 H 410.114 -0.967743 -5.40302 0
M  V30 4183 H 410.375 0.449139 -4.39813 0
M  V30 4184 N 409.434 1.37368 -0.772513 0
M  V30 4185 C 410.845 1.8231 -0.402493 0
M  V30 4186 C 411.196 1.6436 1.07146 0
M  V30 4187 O 410.321 1.15514 1.82991 0
M  V30 4188 C 410.916 3.30979 -0.723776 0
M  V30 4189 C 409.475 3.74195 -0.406802 0
M  V30 4190 C 408.622 2.59885 -0.967218 0
M  V30 4191 H 411.573 1.25829 -0.967099 0
M  V30 4192 H 411.594 3.80499 -0.00870832 0
M  V30 4193 H 411.106 3.44011 -1.7966 0
M  V30 4194 H 409.207 3.66732 0.658673 0
M  V30 4195 H 409.32 4.7027 -0.915588 0
M  V30 4196 H 407.684 2.51674 -0.391416 0
M  V30 4197 H 408.467 2.7571 -2.04546 0
M  V30 4198 N 410.912 0.523116 1.48665 0
M  V30 4199 C 411.822 -0.247406 2.33292 0
M  V30 4200 C 412.838 -0.945769 1.46052 0
M  V30 4201 O 414.014 -0.922253 1.79043 0
M  V30 4202 C 411.079 -1.28487 3.22012 0
M  V30 4203 C 410.14 -0.597592 4.2512 0
M  V30 4204 C 409.373 -1.58563 5.09601 0
M  V30 4205 O 409.596 -2.81763 4.95949 0
M  V30 4206 O 408.53 -1.12879 5.91221 0
M  V30 4207 H 412.356 0.445869 3.00409 0
M  V30 4208 H 409.941 0.284128 1.46673 0
M  V30 4209 H 411.823 -1.88459 3.7691 0
M  V30 4210 H 410.498 -1.96068 2.57564 0
M  V30 4211 H 409.405 0.0424407 3.74076 0
M  V30 4212 H 410.738 0.0361517 4.92187 0
M  V30 4213 N 412.39 -1.55475 0.257931 0
M  V30 4214 C 413.638 -1.98813 -0.363009 0
M  V30 4215 C 413.959 -1.14757 -1.57657 0
M  V30 4216 O 413.229 -0.232956 -1.9451 0
M  V30 4217 H 411.809 -0.734308 -0.137113 0
M  V30 4218 H 414.471 -1.9156 0.359281 0
M  V30 4219 H 413.567 -3.04941 -0.664634 0
M  V30 4220 N 413.868 0.0150385 -1.57593 0
M  V30 4221 C 415.096 0.714395 -1.94175 0
M  V30 4222 C 415.511 1.68135 -0.858841 0
M  V30 4223 O 414.868 1.81766 0.163567 0
M  V30 4224 C 414.919 1.45933 -3.30735 0
M  V30 4225 O 414.64 0.531167 -4.34868 0
M  V30 4226 C 416.141 2.25456 -3.81686 0
M  V30 4227 H 413.361 0.199923 -0.640525 0
M  V30 4228 H 415.905 -0.0316096 -2.04476 0
M  V30 4229 H 414.06 2.15709 -3.21789 0
M  V30 4230 H 414.474 1.05509 -5.13778 0
M  V30 4231 H 415.948 2.731 -4.79709 0
M  V30 4232 H 416.425 3.07485 -3.13607 0
M  V30 4233 H 417.031 1.60727 -3.9376 0
M  V30 4234 N 415.346 1.54954 0.287554 0
M  V30 4235 C 416.762 1.46469 0.633964 0
M  V30 4236 C 416.962 0.666865 1.90145 0
M  V30 4237 O 416.018 0.179906 2.51858 0
M  V30 4238 C 417.331 2.90556 0.774454 0
M  V30 4239 C 418.879 3.00681 0.869462 0
M  V30 4240 C 419.354 4.45993 1.04184 0
M  V30 4241 N 420.845 4.4976 1.10772 0
M  V30 4242 C 421.58 5.59393 1.25964 0
M  V30 4243 N 421.076 6.78923 1.37968 0
M  V30 4244 N 422.869 5.47107 1.28959 0
M  V30 4245 H 415.02 2.05288 -0.545041 0
M  V30 4246 H 417.283 0.930305 -0.182308 0
M  V30 4247 H 416.989 3.51594 -0.086207 0
M  V30 4248 H 416.863 3.38743 1.6593 0
M  V30 4249 H 419.25 2.39749 1.7206 0
M  V30 4250 H 419.331 2.55769 -0.0396831 0
M  V30 4251 H 418.975 5.07524 0.195422 0
M  V30 4252 H 418.905 4.88548 1.96542 0
M  V30 4253 H 421.396 3.63651 1.02794 0
M  V30 4254 H 421.709 7.58231 1.49353 0
M  V30 4255 H 420.054 6.81763 1.34999 0
M  V30 4256 H 423.245 4.52668 1.19202 0
M  V30 4257 H 423.418 6.32595 1.40455 0
M  V30 4258 N 416.824 -0.551391 1.4764 0
M  V30 4259 C 418.101 -1.31229 1.45046 0
M  V30 4260 C 418.481 -2.10563 0.150527 0
M  V30 4261 O 417.829 -2.11374 -0.867956 0
M  V30 4262 C 418.039 -2.21189 2.69956 0
M  V30 4263 C 419.387 -2.82021 3.1741 0
M  V30 4264 O 420.411 -2.31488 2.70724 0
M  V30 4265 O 419.27 -3.73885 3.98588 0
M  V30 4266 H 416.364 -0.591193 0.578291 0
M  V30 4267 H 418.91 -0.569813 1.59847 0
M  V30 4268 H 417.682 -1.62207 3.56096 0
M  V30 4269 H 417.305 -3.02722 2.57769 0
M  V30 4270 N 418.302 -1.35869 -0.798587 0
M  V30 4271 C 419.548 -1.2978 -1.55836 0
M  V30 4272 C 419.881 0.125322 -1.93795 0
M  V30 4273 O 419.156 1.07658 -1.61987 0
M  V30 4274 C 419.439 -2.21188 -2.84162 0
M  V30 4275 C 419.292 -3.72155 -2.52628 0
M  V30 4276 C 420.611 -2.11545 -3.85923 0
M  V30 4277 H 417.73 -0.472769 -0.565383 0
M  V30 4278 H 420.372 -1.66341 -0.918192 0
M  V30 4279 H 418.522 -1.90139 -3.38791 0
M  V30 4280 H 420.194 -4.13682 -2.04121 0
M  V30 4281 H 418.437 -3.92042 -1.85704 0
M  V30 4282 H 419.108 -4.31511 -3.44242 0
M  V30 4283 H 421.584 -2.38855 -3.40716 0
M  V30 4284 H 420.46 -2.77688 -4.73477 0
M  V30 4285 H 420.721 -1.09987 -4.282 0
M  V30 4286 N 419.78 1.02168 -1.19998 0
M  V30 4287 C 421.191 1.57135 -1.00825 0
M  V30 4288 C 421.542 1.91276 0.436818 0
M  V30 4289 O 420.667 1.71679 1.3174 0
M  V30 4290 C 421.262 2.85514 -1.82393 0
M  V30 4291 C 419.821 3.37027 -1.67601 0
M  V30 4292 C 418.968 2.10388 -1.80644 0
M  V30 4293 H 421.919 0.846106 -1.34264 0
M  V30 4294 H 421.94 3.56711 -1.32429 0
M  V30 4295 H 421.452 2.60634 -2.87561 0
M  V30 4296 H 419.553 3.66878 -0.650485 0
M  V30 4297 H 419.666 4.09572 -2.4857 0
M  V30 4298 H 418.03 2.22601 -1.23778 0
M  V30 4299 H 418.813 1.8794 -2.87286 0
M  V30 4300 N 421.258 1.00505 1.21394 0
M  V30 4301 C 422.188 0.585684 2.26035 0
M  V30 4302 C 423.169 -0.393525 1.65485 0
M  V30 4303 O 424.354 -0.281497 1.92149 0
M  V30 4304 C 421.484 -0.0884283 3.47187 0
M  V30 4305 C 420.438 0.810567 4.20254 0
M  V30 4306 C 419.764 0.00286382 5.347 0
M  V30 4307 C 421.064 2.1132 4.77641 0
M  V30 4308 H 422.758 1.46039 2.61368 0
M  V30 4309 H 420.304 0.703648 1.25638 0
M  V30 4310 H 422.257 -0.393286 4.19561 0
M  V30 4311 H 420.981 -0.997766 3.10986 0
M  V30 4312 H 419.64 1.09925 3.49731 0
M  V30 4313 H 419.288 -0.907765 4.94741 0
M  V30 4314 H 418.988 0.601444 5.84514 0
M  V30 4315 H 420.512 -0.295808 6.09883 0
M  V30 4316 H 421.926 1.87148 5.41893 0
M  V30 4317 H 420.323 2.66164 5.37845 0
M  V30 4318 H 421.393 2.78393 3.9702 0
M  V30 4319 N 422.737 -1.36956 0.779787 0
M  V30 4320 C 423.985 -1.99097 0.347079 0
M  V30 4321 C 424.306 -1.62206 -1.08232 0
M  V30 4322 O 423.576 -0.891373 -1.74446 0
M  V30 4323 H 422.156 -0.736409 0.125342 0
M  V30 4324 H 424.818 -1.67308 0.999696 0
M  V30 4325 H 423.914 -3.09107 0.431162 0
M  V30 4326 N 424.215 -0.530993 -1.48385 0
M  V30 4327 C 425.443 -0.00134122 -2.069 0
M  V30 4328 C 425.858 1.2805 -1.3874 0
M  V30 4329 O 425.215 1.76204 -0.475244 0
M  V30 4330 C 425.266 0.225256 -3.60798 0
M  V30 4331 O 424.987 -1.0058 -4.26398 0
M  V30 4332 C 426.488 0.795172 -4.3611 0
M  V30 4333 H 423.708 -0.0339704 -0.67014 0
M  V30 4334 H 426.252 -0.736926 -1.90761 0
M  V30 4335 H 424.407 0.910891 -3.76539 0
M  V30 4336 H 424.821 -0.787165 -5.1856 0
M  V30 4337 H 426.295 0.903143 -5.44562 0
M  V30 4338 H 426.772 1.80031 -4.00606 0
M  V30 4339 H 427.378 0.146069 -4.25049 0
M  V30 4340 N 425.693 1.55336 -0.266172 0
M  V30 4341 C 427.104 1.85236 0.233315 0
M  V30 4342 C 427.455 1.18816 1.56132 0
M  V30 4343 O 426.58 0.473307 2.11161 0
M  V30 4344 C 427.175 3.36059 0.430113 0
M  V30 4345 C 425.734 3.66116 0.873842 0
M  V30 4346 C 424.881 2.77274 -0.0380016 0
M  V30 4347 H 427.832 1.51004 -0.488214 0
M  V30 4348 H 427.853 3.58681 1.26998 0
M  V30 4349 H 427.365 3.84373 -0.536588 0
M  V30 4350 H 425.466 3.23295 1.85233 0
M  V30 4351 H 425.579 4.73699 0.717358 0
M  V30 4352 H 423.943 2.50198 0.476759 0
M  V30 4353 H 424.726 3.284 -1.00042 0
M  V30 4354 N 427.171 -0.0066808 1.57599 0
M  V30 4355 C 428.101 -0.999296 2.11036 0
M  V30 4356 C 429.082 -1.36278 1.01795 0
M  V30 4357 O 430.267 -1.4477 1.29442 0
M  V30 4358 C 427.397 -2.29328 2.60818 0
M  V30 4359 C 426.351 -2.07159 3.74525 0
M  V30 4360 C 425.677 -3.42512 4.10596 0
M  V30 4361 C 426.977 -1.43959 5.02069 0
M  V30 4362 H 428.671 -0.554382 2.94223 0
M  V30 4363 H 426.217 -0.265221 1.41536 0
M  V30 4364 H 428.17 -2.99117 2.96828 0
M  V30 4365 H 426.894 -2.7592 1.74745 0
M  V30 4366 H 425.553 -1.39797 3.38899 0
M  V30 4367 H 425.201 -3.86795 3.21556 0
M  V30 4368 H 424.901 -3.28498 4.87199 0
M  V30 4369 H 426.425 -4.13628 4.4916 0
M  V30 4370 H 427.839 -2.03696 5.35893 0
M  V30 4371 H 426.236 -1.40452 5.83432 0
M  V30 4372 H 427.306 -0.407992 4.83181 0
M  V30 4373 N 428.649 -1.55105 -0.279332 0
M  V30 4374 C 429.889 -1.7716 -1.01949 0
M  V30 4375 C 430.253 -0.557511 -1.83728 0
M  V30 4376 O 431.454 -0.656198 -2.60667 0
M  V30 4377 C 429.725 -3.0372 -1.88385 0
M  V30 4378 S 431.284 -3.46868 -2.68752 0
M  V30 4379 H 428.102 -0.62253 -0.343478 0
M  V30 4380 H 430.704 -1.93329 -0.290572 0
M  V30 4381 H 429.408 -3.90184 -1.2722 0
M  V30 4382 H 428.939 -2.902 -2.65608 0
M  V30 4383 H 430.954 -3.05643 -3.90892 0
M  V30 4384 N 430.127 0.543554 -1.4793 0
M  V30 4385 C 431.376 1.29649 -1.54512 0
M  V30 4386 C 431.689 1.94382 -0.217973 0
M  V30 4387 O 432.895 2.71017 -0.161908 0
M  V30 4388 C 431.351 2.35175 -2.72435 0
M  V30 4389 C 430.959 1.76572 -4.11736 0
M  V30 4390 C 432.703 3.11564 -2.8832 0
M  V30 4391 C 430.61 2.79958 -5.20939 0
M  V30 4392 H 429.54 0.487541 -0.57517 0
M  V30 4393 H 432.191 0.575708 -1.74235 0
M  V30 4394 H 430.573 3.10229 -2.46118 0
M  V30 4395 H 431.747 1.07799 -4.48013 0
M  V30 4396 H 430.062 1.12722 -4.00852 0
M  V30 4397 H 432.659 3.88794 -3.67074 0
M  V30 4398 H 433.002 3.66594 -1.97268 0
M  V30 4399 H 433.535 2.43623 -3.14472 0
M  V30 4400 H 430.274 2.29766 -6.13912 0
M  V30 4401 H 429.794 3.47101 -4.89164 0
M  V30 4402 H 431.473 3.43198 -5.48474 0
M  V30 4403 N 431.605 1.3629 0.791371 0
M  V30 4404 C 432.854 1.29742 1.54434 0
M  V30 4405 C 433.167 -0.121729 1.95221 0
M  V30 4406 O 434.373 -0.309579 2.69729 0
M  V30 4407 C 432.829 2.27623 2.78776 0
M  V30 4408 C 432.437 3.74963 2.45166 0
M  V30 4409 C 434.181 2.30047 3.56761 0
M  V30 4410 C 432.088 4.64626 3.65891 0
M  V30 4411 H 431.018 0.482113 0.579727 0
M  V30 4412 H 433.669 1.61642 0.868565 0
M  V30 4413 H 432.051 1.88714 3.48142 0
M  V30 4414 H 433.225 4.22596 1.83709 0
M  V30 4415 H 431.54 3.75295 1.80396 0
M  V30 4416 H 434.137 2.94247 4.46456 0
M  V30 4417 H 434.48 1.30846 3.95203 0
M  V30 4418 H 435.013 2.67563 2.94372 0
M  V30 4419 H 431.752 5.64883 3.32547 0
M  V30 4420 H 431.272 4.2171 4.26521 0
M  V30 4421 H 432.951 4.80801 4.32943 0
M  V30 4422 N 433.083 -1.0153 1.20538 0
M  V30 4423 C 434.329 -1.75408 1.01783 0
M  V30 4424 C 434.662 -1.88943 -0.448814 0
M  V30 4425 O 433.937 -1.4162 -1.33319 0
M  V30 4426 C 434.22 -3.17255 1.70356 0
M  V30 4427 C 434.073 -3.11508 3.24473 0
M  V30 4428 C 435.392 -4.15955 1.43769 0
M  V30 4429 H 432.511 -0.636713 0.371167 0
M  V30 4430 H 435.153 -1.18436 1.4857 0
M  V30 4431 H 433.303 -3.65898 1.30578 0
M  V30 4432 H 434.975 -2.70658 3.73553 0
M  V30 4433 H 433.218 -2.4887 3.55311 0
M  V30 4434 H 433.889 -4.11784 3.67611 0
M  V30 4435 H 436.365 -3.75973 1.7828 0
M  V30 4436 H 435.241 -5.13368 1.94279 0
M  V30 4437 H 435.502 -4.40586 0.365564 0
M  V30 4438 N 434.561 -1.01147 -1.20859 0
M  V30 4439 C 435.471 -0.58686 -2.27141 0
M  V30 4440 C 436.487 0.373198 -1.69951 0
M  V30 4441 O 437.663 0.235423 -2.00019 0
M  V30 4442 C 434.728 0.0733602 -3.46622 0
M  V30 4443 C 433.789 -0.931995 -4.19061 0
M  V30 4444 C 433.022 -0.303186 -5.32838 0
M  V30 4445 O 433.245 0.898395 -5.63281 0
M  V30 4446 O 432.179 -1.01735 -5.9324 0
M  V30 4447 H 436.005 -1.47155 -2.65667 0
M  V30 4448 H 433.59 -0.780689 -1.2738 0
M  V30 4449 H 435.472 0.442333 -4.19072 0
M  V30 4450 H 434.147 0.932329 -3.09983 0
M  V30 4451 H 433.054 -1.35224 -3.48805 0
M  V30 4452 H 434.387 -1.76076 -4.59628 0
M  V30 4453 N 436.039 1.36541 -0.78704 0
M  V30 4454 C 436.986 2.30082 -0.181901 0
M  V30 4455 C 437.956 1.5186 0.672896 0
M  V30 4456 O 439.141 1.80374 0.622072 0
M  V30 4457 C 436.281 3.3835 0.679197 0
M  V30 4458 C 435.394 4.31565 -0.193882 0
M  V30 4459 C 434.529 5.26915 0.673364 0
M  V30 4460 C 433.568 6.11769 -0.201315 0
M  V30 4461 N 432.705 6.99315 0.624777 0
M  V30 4462 H 437.545 2.81248 -0.985064 0
M  V30 4463 H 435.082 1.38437 -0.497342 0
M  V30 4464 H 437.04 3.99767 1.19341 0
M  V30 4465 H 435.67 2.8851 1.44781 0
M  V30 4466 H 434.722 3.71323 -0.826044 0
M  V30 4467 H 436.034 4.91191 -0.867937 0
M  V30 4468 H 435.188 5.9361 1.25348 0
M  V30 4469 H 433.927 4.67737 1.38105 0
M  V30 4470 H 432.932 5.44039 -0.793849 0
M  V30 4471 H 434.157 6.73022 -0.906568 0
M  V30 4472 H 432.103 6.42648 1.3168 0
M  V30 4473 H 432.02 7.56 0.00835237 0
M  V30 4474 H 433.288 7.70382 1.18879 0
M  V30 4475 N 437.518 0.538854 1.48102 0
M  V30 4476 C 438.428 -0.222648 2.33541 0
M  V30 4477 C 439.444 -0.930225 1.47047 0
M  V30 4478 O 440.62 -0.903211 1.80011 0
M  V30 4479 C 437.685 -1.25064 3.23357 0
M  V30 4480 C 436.746 -0.552469 4.2573 0
M  V30 4481 C 435.979 -1.53149 5.11254 0
M  V30 4482 O 436.202 -2.76487 4.9891 0
M  V30 4483 O 435.136 -1.06602 5.92385 0
M  V30 4484 H 438.962 0.477707 2.99919 0
M  V30 4485 H 436.547 0.299669 1.46364 0
M  V30 4486 H 438.429 -1.8445 3.78888 0
M  V30 4487 H 437.104 -1.93325 2.59629 0
M  V30 4488 H 436.011 0.082114 3.7401 0
M  V30 4489 H 437.344 0.0883526 4.92121 0
M  V30 4490 N 438.996 -1.55193 0.274407 0
M  V30 4491 C 439.959 -2.212 -0.600279 0
M  V30 4492 C 440.959 -1.18963 -1.08187 0
M  V30 4493 O 442.149 -1.43873 -0.982158 0
M  V30 4494 C 439.281 -2.87739 -1.82809 0
M  V30 4495 H 440.474 -2.9989 -0.0239682 0
M  V30 4496 H 438.027 -1.5628 0.0250192 0
M  V30 4497 H 438.762 -2.13058 -2.44493 0
M  V30 4498 H 438.547 -3.62658 -1.49069 0
M  V30 4499 H 440.037 -3.38171 -2.45011 0
M  V30 4500 N 440.474 -0.00167713 -1.576 0
M  V30 4501 C 441.751 0.719951 -1.81868 0
M  V30 4502 C 442.131 1.91895 -0.879747 0
M  V30 4503 O 441.479 2.28389 0.0711423 0
M  V30 4504 C 441.689 1.12409 -3.30402 0
M  V30 4505 C 443.037 1.52724 -3.96182 0
M  V30 4506 O 444.061 1.21784 -3.34734 0
M  V30 4507 O 442.92 2.10265 -5.04431 0
M  V30 4508 H 440.014 0.350707 -0.748955 0
M  V30 4509 H 442.56 -0.0272597 -1.69678 0
M  V30 4510 H 441.332 0.269532 -3.90371 0
M  V30 4511 H 440.955 1.93035 -3.47596 0
M  V30 4512 N 441.952 1.55251 0.271103 0
M  V30 4513 C 443.201 1.75151 1.00025 0
M  V30 4514 C 443.514 0.561041 1.87381 0
M  V30 4515 O 444.72 0.642506 2.63788 0
M  V30 4516 C 443.176 3.09999 1.82835 0
M  V30 4517 C 442.784 4.3662 1.00336 0
M  V30 4518 C 444.528 3.39249 2.55168 0
M  V30 4519 C 442.435 5.62506 1.82595 0
M  V30 4520 H 441.365 0.652877 0.377183 0
M  V30 4521 H 444.016 1.81708 0.255843 0
M  V30 4522 H 442.398 2.97485 2.61378 0
M  V30 4523 H 443.572 4.60055 0.261959 0
M  V30 4524 H 441.887 4.14527 0.394486 0
M  V30 4525 H 444.484 4.3051 3.1712 0
M  V30 4526 H 444.827 2.59467 3.2555 0
M  V30 4527 H 445.36 3.52869 1.83653 0
M  V30 4528 H 442.099 6.45041 1.16631 0
M  V30 4529 H 441.619 5.43211 2.54327 0
M  V30 4530 H 443.298 6.00875 2.39913 0
M  V30 4531 N 443.43 -0.535701 1.48216 0
M  V30 4532 C 444.655 -1.32149 1.59848 0
M  V30 4533 C 445.08 -1.86338 0.256842 0
M  V30 4534 O 444.438 -1.64107 -0.770632 0
M  V30 4535 C 444.486 -2.45224 2.64381 0
M  V30 4536 O 443.59 -3.48093 2.21144 0
M  V30 4537 H 442.931 -0.391634 0.536208 0
M  V30 4538 H 445.461 -0.645202 1.94161 0
M  V30 4539 H 445.471 -2.91491 2.85476 0
M  V30 4540 H 444.146 -2.05143 3.61786 0
M  V30 4541 H 442.723 -3.07984 2.10239 0
M  V30 4542 N 444.908 -1.36708 -0.784132 0
M  V30 4543 C 445.871 -1.31307 -1.87859 0
M  V30 4544 C 446.871 -0.219654 -1.59293 0
M  V30 4545 O 448.061 -0.47476 -1.67606 0
M  V30 4546 C 445.193 -1.03679 -3.24751 0
M  V30 4547 H 446.386 -2.28647 -1.94064 0
M  V30 4548 H 443.939 -1.21558 -0.98252 0
M  V30 4549 H 444.674 -0.0681936 -3.24228 0
M  V30 4550 H 444.459 -1.82811 -3.46876 0
M  V30 4551 H 445.949 -1.02518 -4.04821 0
M  V30 4552 N 446.386 1.0089 -1.21074 0
M  V30 4553 C 447.633 1.74607 -1.0256 0
M  V30 4554 C 447.961 1.89426 0.44136 0
M  V30 4555 O 447.216 1.42266 1.34384 0
M  V30 4556 C 447.515 3.16335 -1.66334 0
M  V30 4557 C 447.181 3.21474 -3.16173 0
M  V30 4558 C 445.843 3.22583 -3.57062 0
M  V30 4559 C 448.195 3.19025 -4.12156 0
M  V30 4560 C 445.523 3.18925 -4.92446 0
M  V30 4561 C 447.875 3.16909 -5.47496 0
M  V30 4562 C 446.539 3.16326 -5.87787 0
M  V30 4563 H 445.809 0.638933 -0.375294 0
M  V30 4564 H 448.456 1.18274 -1.50611 0
M  V30 4565 H 446.761 3.75876 -1.10566 0
M  V30 4566 H 448.458 3.72083 -1.49516 0
M  V30 4567 H 445.048 3.2135 -2.83605 0
M  V30 4568 H 449.232 3.17332 -3.81595 0
M  V30 4569 H 444.488 3.16809 -5.22917 0
M  V30 4570 H 448.662 3.13968 -6.21609 0
M  V30 4571 H 446.289 3.13246 -6.92662 0
M  V30 4572 N 447.864 1.01787 1.20321 0
M  V30 4573 C 448.827 0.593972 2.2137 0
M  V30 4574 C 449.827 -0.336553 1.57239 0
M  V30 4575 O 451.017 -0.125069 1.7375 0
M  V30 4576 C 448.149 -0.132433 3.40643 0
M  V30 4577 H 449.342 1.48791 2.60387 0
M  V30 4578 H 446.895 0.807803 1.33807 0
M  V30 4579 H 447.63 -1.04123 3.0713 0
M  V30 4580 H 447.415 0.53605 3.88418 0
M  V30 4581 H 448.905 -0.416314 4.1552 0
M  V30 4582 N 449.342 -1.36122 0.79427 0
M  V30 4583 C 450.619 -1.93398 0.292685 0
M  V30 4584 C 450.999 -1.72567 -1.21589 0
M  V30 4585 O 450.347 -1.08745 -2.00965 0
M  V30 4586 C 450.557 -3.42099 0.690614 0
M  V30 4587 C 451.905 -4.19231 0.673105 0
M  V30 4588 O 452.929 -3.50559 0.631389 0
M  V30 4589 O 451.788 -5.41732 0.720362 0
M  V30 4590 H 448.882 -0.823712 0.0736693 0
M  V30 4591 H 451.428 -1.45273 0.87714 0
M  V30 4592 H 450.2 -3.50938 1.73085 0
M  V30 4593 H 449.823 -3.97519 0.0803036 0
M  V30 4594 N 450.82 -0.546701 -1.47814 0
M  V30 4595 C 452.05 -0.0232519 -2.06587 0
M  V30 4596 C 452.458 1.2712 -1.40133 0
M  V30 4597 O 451.801 1.77091 -0.488305 0
M  V30 4598 C 451.863 0.254117 -3.58601 0
M  V30 4599 C 451.527 -0.949331 -4.47031 0
M  V30 4600 C 452.524 -1.85216 -4.85789 0
M  V30 4601 C 450.209 -1.16104 -4.88697 0
M  V30 4602 C 452.203 -2.95047 -5.65001 0
M  V30 4603 C 449.89 -2.26247 -5.67676 0
M  V30 4604 C 450.888 -3.1555 -6.05737 0
M  V30 4605 O 450.576 -4.23784 -6.83127 0
M  V30 4606 H 450.308 -0.0380082 -0.674931 0
M  V30 4607 H 452.862 -0.756631 -1.90956 0
M  V30 4608 H 451.092 1.04168 -3.72406 0
M  V30 4609 H 452.781 0.72167 -3.99433 0
M  V30 4610 H 453.547 -1.70061 -4.54207 0
M  V30 4611 H 449.426 -0.475159 -4.58545 0
M  V30 4612 H 452.97 -3.64778 -5.94628 0
M  V30 4613 H 448.867 -2.41379 -5.98671 0
M  V30 4614 H 449.635 -4.21701 -7.01506 0
M  V30 4615 N 452.299 1.55045 -0.282633 0
M  V30 4616 C 453.715 1.59441 0.0712997 0
M  V30 4617 C 453.915 1.2998 1.53972 0
M  V30 4618 O 452.971 1.06431 2.28973 0
M  V30 4619 C 454.284 2.99097 -0.310104 0
M  V30 4620 C 455.832 3.1194 -0.257343 0
M  V30 4621 C 456.307 4.53875 -0.613297 0
M  V30 4622 N 457.798 4.5974 -0.565134 0
M  V30 4623 C 458.533 5.67603 -0.81326 0
M  V30 4624 N 458.029 6.83582 -1.1264 0
M  V30 4625 N 459.822 5.57187 -0.741553 0
M  V30 4626 H 451.973 1.72458 -1.23984 0
M  V30 4627 H 454.236 0.804549 -0.501403 0
M  V30 4628 H 453.942 3.25516 -1.33163 0
M  V30 4629 H 453.816 3.75616 0.345366 0
M  V30 4630 H 456.203 2.85281 0.754905 0
M  V30 4631 H 456.284 2.37618 -0.947178 0
M  V30 4632 H 455.928 4.81261 -1.62327 0
M  V30 4633 H 455.858 5.26508 0.09841 0
M  V30 4634 H 458.349 3.76427 -0.333294 0
M  V30 4635 H 458.662 7.6175 -1.30219 0
M  V30 4636 H 457.007 6.85179 -1.16425 0
M  V30 4637 H 460.198 4.65457 -0.496705 0
M  V30 4638 H 460.371 6.41171 -0.938306 0
M  V30 4639 N 453.777 0.010035 1.57597 0
M  V30 4640 C 455.188 -0.531426 1.78977 0
M  V30 4641 C 455.539 -1.73375 0.918454 0
M  V30 4642 O 454.664 -2.16047 0.123635 0
M  V30 4643 C 455.259 -0.97086 3.24592 0
M  V30 4644 C 453.818 -1.45756 3.47033 0
M  V30 4645 C 452.965 -0.413384 2.74201 0
M  V30 4646 H 455.916 0.236166 1.56933 0
M  V30 4647 H 455.937 -1.83633 3.33255 0
M  V30 4648 H 455.449 -0.0955893 3.87982 0
M  V30 4649 H 453.55 -2.35339 2.88871 0
M  V30 4650 H 453.663 -1.4781 4.55729 0
M  V30 4651 H 452.027 -0.877266 2.39115 0
M  V30 4652 H 452.81 0.453092 3.40297 0
M  V30 4653 N 455.255 -1.55392 -0.262866 0
M  V30 4654 C 456.483 -1.80513 -1.01108 0
M  V30 4655 C 456.898 -0.583533 -1.79556 0
M  V30 4656 O 456.255 0.447585 -1.76926 0
M  V30 4657 C 456.306 -3.03648 -1.96164 0
M  V30 4658 O 456.027 -4.2109 -1.20893 0
M  V30 4659 C 457.528 -3.41448 -2.82715 0
M  V30 4660 H 454.748 -0.601079 -0.298236 0
M  V30 4661 H 457.292 -2.02425 -0.290582 0
M  V30 4662 H 455.447 -2.83832 -2.63663 0
M  V30 4663 H 455.861 -4.90771 -1.85051 0
M  V30 4664 H 457.335 -4.30751 -3.45192 0
M  V30 4665 H 457.812 -2.61308 -3.53008 0
M  V30 4666 H 458.418 -3.63559 -2.20693 0
M  V30 4667 N 456.733 0.527833 -1.48498 0
M  V30 4668 C 457.643 1.65907 -1.65867 0
M  V30 4669 C 458.659 1.6537 -0.541192 0
M  V30 4670 O 459.835 1.84282 -0.812534 0
M  V30 4671 C 456.9 3.02364 -1.69637 0
M  V30 4672 C 455.961 3.1374 -2.93028 0
M  V30 4673 C 455.194 4.43688 -2.96609 0
M  V30 4674 O 455.417 5.30913 -2.08538 0
M  V30 4675 O 454.351 4.59475 -3.88802 0
M  V30 4676 H 458.177 1.5419 -2.61647 0
M  V30 4677 H 455.762 0.701163 -1.31924 0
M  V30 4678 H 457.644 3.83515 -1.74625 0
M  V30 4679 H 456.319 3.14401 -0.770312 0
M  V30 4680 H 455.226 2.31877 -2.93571 0
M  V30 4681 H 456.559 3.06621 -3.85026 0
M  V30 4682 N 458.211 1.37122 0.776871 0
M  V30 4683 C 459.457 1.32243 1.53752 0
M  V30 4684 C 459.79 -0.0944745 1.9397 0
M  V30 4685 O 459.065 -1.05068 1.6368 0
M  V30 4686 C 459.348 2.25681 2.80607 0
M  V30 4687 C 459.201 3.76127 2.46676 0
M  V30 4688 C 460.52 2.17657 3.82509 0
M  V30 4689 H 457.639 0.481704 0.557791 0
M  V30 4690 H 460.281 1.6778 0.891612 0
M  V30 4691 H 458.431 1.95505 3.35723 0
M  V30 4692 H 460.103 4.16877 1.97513 0
M  V30 4693 H 458.346 3.94946 1.79443 0
M  V30 4694 H 459.017 4.36933 3.37333 0
M  V30 4695 H 461.493 2.44245 3.36873 0
M  V30 4696 H 460.369 2.85185 4.69 0
M  V30 4697 H 460.63 1.16785 4.26396 0
M  V30 4698 N 459.689 -1.00246 1.21608 0
M  V30 4699 C 460.917 -1.77631 1.06089 0
M  V30 4700 C 461.332 -1.84746 -0.38916 0
M  V30 4701 O 460.689 -1.31068 -1.26994 0
M  V30 4702 C 460.74 -3.21415 1.65453 0
M  V30 4703 O 460.461 -3.14703 3.04785 0
M  V30 4704 C 461.962 -4.15289 1.55079 0
M  V30 4705 H 459.182 -0.558162 0.37242 0
M  V30 4706 H 461.726 -1.26093 1.60999 0
M  V30 4707 H 459.881 -3.70053 1.14629 0
M  V30 4708 H 460.295 -4.05056 3.33212 0
M  V30 4709 H 461.769 -5.13965 2.01355 0
M  V30 4710 H 462.246 -4.36279 0.505665 0
M  V30 4711 H 462.852 -3.72543 2.05163 0
M  V30 4712 N 461.167 -1.02423 -1.1978 0
M  V30 4713 C 462.444 -0.632802 -1.85081 0
M  V30 4714 C 462.824 0.888745 -1.9148 0
M  V30 4715 O 462.172 1.78357 -1.42832 0
M  V30 4716 C 462.382 -1.28947 -3.24305 0
M  V30 4717 C 463.73 -1.40976 -4.00513 0
M  V30 4718 O 464.754 -1.24628 -3.33686 0
M  V30 4719 O 463.613 -1.67467 -5.20209 0
M  V30 4720 H 460.707 -0.219348 -0.79738 0
M  V30 4721 H 463.253 -1.12209 -1.27307 0
M  V30 4722 H 462.025 -2.3288 -3.14456 0
M  V30 4723 H 461.648 -0.787748 -3.89718 0
M  V30 4724 N 462.645 1.35699 -0.801477 0
M  V30 4725 C 463.575 2.32436 -0.222658 0
M  V30 4726 C 464.556 1.5723 0.649057 0
M  V30 4727 O 465.741 1.85324 0.580387 0
M  V30 4728 C 462.871 3.41469 0.633719 0
M  V30 4729 C 461.825 4.27774 -0.139083 0
M  V30 4730 C 461.151 5.28082 0.838666 0
M  V30 4731 C 462.451 5.04946 -1.33517 0
M  V30 4732 H 464.145 2.81094 -1.03086 0
M  V30 4733 H 461.691 1.35146 -0.497155 0
M  V30 4734 H 463.644 4.08143 1.04868 0
M  V30 4735 H 462.368 2.91408 1.47475 0
M  V30 4736 H 461.027 3.62673 -0.535156 0
M  V30 4737 H 460.675 4.7429 1.67506 0
M  V30 4738 H 460.375 5.86695 0.32594 0
M  V30 4739 H 461.899 5.97628 1.25194 0
M  V30 4740 H 463.313 5.64593 -0.995349 0
M  V30 4741 H 461.71 5.7303 -1.78202 0
M  V30 4742 H 462.78 4.35886 -2.12442 0
M  V30 4743 N 464.123 0.554532 1.47522 0
M  V30 4744 C 465.07 -0.19466 2.29978 0
M  V30 4745 C 466.04 -0.910882 1.38896 0
M  V30 4746 O 467.225 -0.907102 1.67858 0
M  V30 4747 C 464.365 -1.22035 3.22802 0
M  V30 4748 C 463.478 -0.510474 4.28973 0
M  V30 4749 C 462.613 -1.52123 5.08952 0
M  V30 4750 C 461.652 -0.796173 6.069 0
M  V30 4751 N 460.789 -1.75363 6.79847 0
M  V30 4752 H 465.629 0.51461 2.93523 0
M  V30 4753 H 463.166 0.265607 1.44682 0
M  V30 4754 H 465.124 -1.8276 3.7504 0
M  V30 4755 H 463.754 -1.89769 2.61127 0
M  V30 4756 H 462.806 0.211234 3.79813 0
M  V30 4757 H 464.118 0.0576503 4.98767 0
M  V30 4758 H 463.272 -2.20207 5.65326 0
M  V30 4759 H 462.011 -2.12327 4.39054 0
M  V30 4760 H 461.016 -0.101388 5.49707 0
M  V30 4761 H 462.241 -0.199911 6.78806 0
M  V30 4762 H 460.187 -2.3443 6.12682 0
M  V30 4763 H 460.104 -1.23759 7.45801 0
M  V30 4764 H 461.372 -2.4257 7.40797 0
M  V30 4765 N 465.601 -1.54893 0.290851 0
M  V30 4766 C 467.012 -1.85584 -0.203816 0
M  V30 4767 C 467.363 -1.21285 -1.54222 0
M  V30 4768 O 466.488 -0.506841 -2.10381 0
M  V30 4769 C 467.083 -3.367 -0.376595 0
M  V30 4770 C 465.642 -3.6746 -0.815485 0
M  V30 4771 C 464.789 -2.77178 0.0821087 0
M  V30 4772 H 467.74 -1.50208 0.512175 0
M  V30 4773 H 467.761 -3.60656 -1.21275 0
M  V30 4774 H 467.273 -3.8347 0.59767 0
M  V30 4775 H 465.374 -3.26201 -1.80066 0
M  V30 4776 H 465.487 -4.7478 -0.641905 0
M  V30 4777 H 463.851 -2.50925 -0.436895 0
M  V30 4778 H 464.634 -3.26767 1.05254 0
M  V30 4779 N 467.08 -0.0183926 -1.57589 0
M  V30 4780 C 468.012 0.995557 -2.06449 0
M  V30 4781 C 469.025 1.29556 -0.985849 0
M  V30 4782 O 470.214 1.2621 -1.26227 0
M  V30 4783 C 467.314 2.32572 -2.46502 0
M  V30 4784 C 466.487 2.21245 -3.77319 0
M  V30 4785 C 465.546 3.37104 -4.04039 0
M  V30 4786 O 464.572 3.14468 -4.74445 0
M  V30 4787 N 465.774 4.60553 -3.53372 0
M  V30 4788 H 468.539 0.578746 -2.94059 0
M  V30 4789 H 466.1 0.168603 -1.6102 0
M  V30 4790 H 468.092 3.08887 -2.61478 0
M  V30 4791 H 466.662 2.65931 -1.64315 0
M  V30 4792 H 465.882 1.29723 -3.72244 0
M  V30 4793 H 467.17 2.10868 -4.63047 0
M  V30 4794 H 466.568 4.81839 -2.96391 0
M  V30 4795 H 465.125 5.34072 -3.73644 0
M  V30 4796 N 468.558 1.5553 0.254621 0
M  V30 4797 C 469.804 1.77262 0.985193 0
M  V30 4798 C 470.137 0.582286 1.85265 0
M  V30 4799 O 469.412 -0.419666 1.89919 0
M  V30 4800 C 469.695 3.0881 1.85225 0
M  V30 4801 C 469.548 4.38233 1.0135 0
M  V30 4802 C 470.867 3.3653 2.83612 0
M  V30 4803 H 467.986 0.644906 0.356742 0
M  V30 4804 H 470.628 1.88264 0.256236 0
M  V30 4805 H 468.778 2.99562 2.47376 0
M  V30 4806 H 470.45 4.59463 0.411269 0
M  V30 4807 H 468.693 4.32636 0.317574 0
M  V30 4808 H 469.364 5.26644 1.65379 0
M  V30 4809 H 471.84 3.45691 2.31596 0
M  V30 4810 H 470.716 4.29805 3.41407 0
M  V30 4811 H 470.977 2.57064 3.59681 0
M  V30 4812 N 470.036 -0.519951 1.48776 0
M  V30 4813 C 471.447 -1.10177 1.50725 0
M  V30 4814 C 471.798 -1.94153 0.282678 0
M  V30 4815 O 470.923 -2.07645 -0.609298 0
M  V30 4816 C 471.518 -2.00482 2.73116 0
M  V30 4817 C 470.077 -2.53862 2.77905 0
M  V30 4818 C 469.224 -1.31047 2.44381 0
M  V30 4819 H 472.175 -0.30473 1.55747 0
M  V30 4820 H 472.196 -2.8491 2.52203 0
M  V30 4821 H 471.708 -1.39335 3.62225 0
M  V30 4822 H 469.809 -3.18702 1.93029 0
M  V30 4823 H 469.922 -2.9231 3.79594 0
M  V30 4824 H 468.286 -1.62953 1.95751 0
M  V30 4825 H 469.069 -0.71637 3.35743 0
M  V30 4826 N 471.514 -1.37532 -0.769588 0
M  V30 4827 C 472.925 -1.29382 -1.346 0
M  V30 4828 C 473.276 0.0576039 -1.96115 0
M  V30 4829 O 472.401 0.95947 -1.93967 0
M  V30 4830 C 472.996 -2.34298 -2.44724 0
M  V30 4831 C 471.555 -2.29776 -2.98128 0
M  V30 4832 C 470.702 -2.18013 -1.71364 0
M  V30 4833 H 473.653 -1.48123 -0.56968 0
M  V30 4834 H 473.674 -1.99089 -3.24259 0
M  V30 4835 H 473.186 -3.32645 -1.99922 0
M  V30 4836 H 471.287 -1.34959 -3.47299 0
M  V30 4837 H 471.4 -3.23276 -3.53595 0
M  V30 4838 H 469.764 -1.64595 -1.94372 0
M  V30 4839 H 470.547 -3.18278 -1.28662 0
M  V30 4840 N 472.992 0.995999 -1.22138 0
M  V30 4841 C 474.403 1.54961 -1.04135 0
M  V30 4842 C 474.754 1.92159 0.396147 0
M  V30 4843 O 473.879 1.74435 1.28069 0
M  V30 4844 C 474.474 2.81581 -1.88408 0
M  V30 4845 C 473.033 3.33396 -1.74712 0
M  V30 4846 C 472.18 2.06509 -1.85066 0
M  V30 4847 H 475.131 0.817436 -1.36028 0
M  V30 4848 H 475.152 3.53822 -1.39966 0
M  V30 4849 H 474.664 2.54476 -2.93025 0
M  V30 4850 H 472.765 3.65416 -0.728159 0
M  V30 4851 H 472.878 4.04208 -2.57202 0
M  V30 4852 H 471.242 2.19925 -1.28472 0
M  V30 4853 H 472.025 1.81804 -2.91208 0
M  V30 4854 N 474.47 1.03057 1.19235 0
M  V30 4855 C 475.698 0.747697 1.92917 0
M  V30 4856 C 476.113 -0.69372 1.75593 0
M  V30 4857 O 475.47 -1.47191 1.07894 0
M  V30 4858 C 475.521 1.09159 3.44625 0
M  V30 4859 O 475.242 2.47641 3.61394 0
M  V30 4860 C 476.743 0.831763 4.35427 0
M  V30 4861 H 473.963 0.273453 0.612751 0
M  V30 4862 H 476.507 1.37552 1.51327 0
M  V30 4863 H 474.662 0.508919 3.84043 0
M  V30 4864 H 475.076 2.60499 4.55237 0
M  V30 4865 H 476.55 1.12233 5.4047 0
M  V30 4866 H 477.027 -0.233769 4.38577 0
M  V30 4867 H 477.633 1.39725 4.01693 0
M  V30 4868 N 475.948 -1.35272 0.808662 0
M  V30 4869 C 477.359 -1.81179 0.450688 0
M  V30 4870 C 477.71 -1.67143 -1.02751 0
M  V30 4871 O 476.835 -1.20325 -1.79864 0
M  V30 4872 C 477.43 -3.28943 0.811275 0
M  V30 4873 C 475.989 -3.72985 0.505871 0
M  V30 4874 C 475.136 -2.57229 1.03578 0
M  V30 4875 H 478.087 -1.2322 1.00012 0
M  V30 4876 H 478.108 -3.80342 0.109588 0
M  V30 4877 H 477.62 -3.39127 1.88718 0
M  V30 4878 H 475.721 -3.68349 -0.561209 0
M  V30 4879 H 475.834 -4.67677 1.03995 0
M  V30 4880 H 474.198 -2.50548 0.458005 0
M  V30 4881 H 474.981 -2.7019 2.11784 0
M  V30 4882 N 477.426 -0.562348 -1.47226 0
M  V30 4883 C 478.837 -0.130325 -1.86245 0
M  V30 4884 C 479.188 1.30128 -1.46838 0
M  V30 4885 O 478.313 1.97974 -0.873805 0
M  V30 4886 C 478.908 -0.229738 -3.3802 0
M  V30 4887 C 477.467 0.14728 -3.76112 0
M  V30 4888 C 476.614 -0.574971 -2.71274 0
M  V30 4889 H 479.565 -0.771773 -1.3867 0
M  V30 4890 H 479.586 0.550316 -3.76499 0
M  V30 4891 H 479.098 -1.27178 -3.66671 0
M  V30 4892 H 477.199 1.19023 -3.53078 0
M  V30 4893 H 477.312 -0.214858 -4.78618 0
M  V30 4894 H 475.676 -0.0174756 -2.54694 0
M  V30 4895 H 476.459 -1.61827 -3.02766 0
M  V30 4896 N 478.904 1.54736 -0.299062 0
M  V30 4897 C 480.315 1.8569 0.193971 0
M  V30 4898 C 480.666 1.22101 1.53577 0
M  V30 4899 O 479.791 0.51799 2.10109 0
M  V30 4900 C 480.386 3.36895 0.358733 0
M  V30 4901 C 478.945 3.67887 0.795986 0
M  V30 4902 C 478.092 2.77131 -0.096807 0
M  V30 4903 H 481.043 1.49934 -0.520134 0
M  V30 4904 H 481.064 3.61294 1.19361 0
M  V30 4905 H 480.576 3.83148 -0.617998 0
M  V30 4906 H 478.677 3.27151 1.78334 0
M  V30 4907 H 478.79 4.75114 0.616718 0
M  V30 4908 H 477.154 2.51153 0.423581 0
M  V30 4909 H 477.937 3.26204 -1.06986 0
M  V30 4910 N 480.382 0.0267497 1.57577 0
M  V30 4911 C 481.628 -0.653371 1.91987 0
M  V30 4912 C 481.961 -1.71915 0.903263 0
M  V30 4913 O 481.236 -1.94358 -0.0743387 0
M  V30 4914 C 481.519 -1.272 3.36886 0
M  V30 4915 C 481.372 -0.215938 4.49281 0
M  V30 4916 C 482.691 -2.19069 3.81703 0
M  V30 4917 H 479.81 -0.236047 0.698177 0
M  V30 4918 H 482.452 0.0835236 1.89816 0
M  V30 4919 H 480.602 -1.90005 3.38866 0
M  V30 4920 H 482.274 0.41449 4.59434 0
M  V30 4921 H 480.517 0.458855 4.31366 0
M  V30 4922 H 481.188 -0.688347 5.47691 0
M  V30 4923 H 483.664 -1.66253 3.81444 0
M  V30 4924 H 482.54 -2.59307 4.83788 0
M  V30 4925 H 482.801 -3.08087 3.17072 0
M  V30 4926 N 481.861 -1.55662 -0.24637 0
M  V30 4927 C 482.824 -1.89558 -1.28842 0
M  V30 4928 C 483.824 -0.772082 -1.41052 0
M  V30 4929 O 485.014 -1.04007 -1.39743 0
M  V30 4930 C 482.146 -2.12449 -2.66605 0
M  V30 4931 H 483.339 -2.82735 -1.00004 0
M  V30 4932 H 480.892 -1.48562 -0.485684 0
M  V30 4933 H 481.627 -1.21742 -3.00582 0
M  V30 4934 H 481.412 -2.94273 -2.59125 0
M  V30 4935 H 482.902 -2.39854 -3.41847 0
M  V30 4936 N 483.339 0.512053 -1.4905 0
M  V30 4937 C 484.302 1.59704 -1.64399 0
M  V30 4938 C 485.302 1.52285 -0.516317 0
M  V30 4939 O 486.492 1.55635 -0.782527 0
M  V30 4940 C 483.624 2.9935 -1.63102 0
M  V30 4941 H 484.817 1.47428 -2.61161 0
M  V30 4942 H 482.37 0.735469 -1.37915 0
M  V30 4943 H 483.105 3.17116 -0.678836 0
M  V30 4944 H 482.89 3.06144 -2.44986 0
M  V30 4945 H 484.38 3.782 -1.77072 0
M  V30 4946 N 484.817 1.37938 0.762283 0
M  V30 4947 C 486.063 1.33866 1.52341 0
M  V30 4948 C 486.396 -0.0738961 1.94059 0
M  V30 4949 O 485.671 -1.03326 1.64785 0
M  V30 4950 C 485.954 2.28644 2.78197 0
M  V30 4951 C 485.807 3.78722 2.42672 0
M  V30 4952 C 487.126 2.21702 3.80179 0
M  V30 4953 H 484.245 0.487593 0.55265 0
M  V30 4954 H 486.887 1.68717 0.873767 0
M  V30 4955 H 485.037 1.99055 3.33631 0
M  V30 4956 H 486.709 4.18948 1.93081 0
M  V30 4957 H 484.952 3.96827 1.75244 0
M  V30 4958 H 485.623 4.40486 3.3268 0
M  V30 4959 H 488.099 2.47805 3.34263 0
M  V30 4960 H 486.975 2.90143 4.65949 0
M  V30 4961 H 487.236 1.21301 4.25133 0
M  V30 4962 N 486.295 -0.989507 1.22664 0
M  V30 4963 C 487.706 -1.54406 1.04955 0
M  V30 4964 C 488.057 -1.92366 -0.385951 0
M  V30 4965 O 487.182 -1.75111 -1.27142 0
M  V30 4966 C 487.777 -2.80578 1.89899 0
M  V30 4967 C 486.336 -3.32464 1.76478 0
M  V30 4968 C 485.483 -2.05524 1.86159 0
M  V30 4969 H 488.434 -0.810211 1.3646 0
M  V30 4970 H 488.455 -3.53075 1.4184 0
M  V30 4971 H 487.967 -2.52918 2.94371 0
M  V30 4972 H 486.068 -3.65024 0.747528 0
M  V30 4973 H 486.181 -4.02838 2.59342 0
M  V30 4974 H 484.545 -2.19241 1.29636 0
M  V30 4975 H 485.328 -1.80258 2.92168 0
M  V30 4976 N 487.773 -1.03688 -1.18687 0
M  V30 4977 C 489.184 -0.766488 -1.70241 0
M  V30 4978 C 489.535 0.713052 -1.82784 0
M  V30 4979 O 488.66 1.55529 -1.50465 0
M  V30 4980 C 489.255 -1.38475 -3.09209 0
M  V30 4981 C 487.814 -1.16276 -3.5799 0
M  V30 4982 C 486.961 -1.4778 -2.34641 0
M  V30 4983 H 489.912 -1.20378 -1.03415 0
M  V30 4984 H 489.933 -0.785939 -3.72295 0
M  V30 4985 H 489.445 -2.46157 -3.00048 0
M  V30 4986 H 487.546 -0.104508 -3.72453 0
M  V30 4987 H 487.659 -1.8571 -4.41643 0
M  V30 4988 H 486.023 -0.897366 -2.38368 0
M  V30 4989 H 486.806 -2.56562 -2.28102 0
M  V30 4990 N 489.251 1.34841 -0.815825 0
M  V30 4991 C 490.479 2.0273 -0.413294 0
M  V30 4992 C 490.894 1.61459 0.978599 0
M  V30 4993 O 490.251 0.816584 1.63212 0
M  V30 4994 C 490.302 3.58058 -0.497676 0
M  V30 4995 O 490.023 3.97832 -1.8347 0
M  V30 4996 C 491.524 4.4321 -0.0891339 0
M  V30 4997 H 488.744 0.649956 -0.166728 0
M  V30 4998 H 491.288 1.72267 -1.10201 0
M  V30 4999 H 489.443 3.87136 0.142886 0
M  V30 5000 H 489.857 4.92501 -1.80396 0
M  V30 5001 H 491.331 5.5164 -0.199274 0
M  V30 5002 H 491.808 4.28432 0.966571 0
M  V30 5003 H 492.414 4.19446 -0.703214 0
M  V30 5004 N 490.729 0.570148 1.46925 0
M  V30 5005 C 492.14 0.1402 1.86173 0
M  V30 5006 C 492.491 -1.29347 1.47526 0
M  V30 5007 O 491.616 -1.97508 0.884292 0
M  V30 5008 C 492.211 0.247661 3.37894 0
M  V30 5009 C 490.77 -0.127332 3.76185 0
M  V30 5010 C 489.917 0.589349 2.70965 0
M  V30 5011 H 492.868 0.779117 1.38259 0
M  V30 5012 H 492.889 -0.530341 3.76786 0
M  V30 5013 H 492.401 1.29121 3.65991 0
M  V30 5014 H 490.502 -1.17149 3.53704 0
M  V30 5015 H 490.615 0.240238 4.78497 0
M  V30 5016 H 488.979 0.0309824 2.54681 0
M  V30 5017 H 489.762 1.6343 3.01903 0
M  V30 5018 N 492.207 -1.54576 0.307264 0
M  V30 5019 C 493.139 -2.21212 -0.599807 0
M  V30 5020 C 494.152 -1.20685 -1.09266 0
M  V30 5021 O 495.341 -1.47244 -1.00903 0
M  V30 5022 C 492.441 -2.84994 -1.83389 0
M  V30 5023 C 491.614 -4.11511 -1.48248 0
M  V30 5024 C 490.673 -4.59038 -2.57237 0
M  V30 5025 O 489.699 -5.24095 -2.22065 0
M  V30 5026 N 490.901 -4.31884 -3.87887 0
M  V30 5027 H 493.666 -2.99686 -0.0293075 0
M  V30 5028 H 491.227 -1.61379 0.129738 0
M  V30 5029 H 493.219 -3.1372 -2.5566 0
M  V30 5030 H 491.789 -2.10324 -2.31263 0
M  V30 5031 H 491.009 -3.89728 -0.592122 0
M  V30 5032 H 492.297 -4.93879 -1.22316 0
M  V30 5033 H 491.695 -3.79778 -4.19268 0
M  V30 5034 H 490.252 -4.65304 -4.56438 0
M  V30 5035 N 493.685 -0.035106 -1.57561 0
M  V30 5036 C 495.096 0.502885 -1.798 0
M  V30 5037 C 495.447 1.71892 -0.945921 0
M  V30 5038 O 494.572 2.15822 -0.157991 0
M  V30 5039 C 495.167 0.919097 -3.26095 0
M  V30 5040 C 493.726 1.40216 -3.49308 0
M  V30 5041 C 492.873 0.369709 -2.74824 0
M  V30 5042 H 495.824 -0.261102 -1.56537 0
M  V30 5043 H 495.845 1.78308 -3.36135 0
M  V30 5044 H 495.357 0.0338526 -3.88085 0
M  V30 5045 H 493.458 2.30714 -2.92578 0
M  V30 5046 H 493.571 1.40541 -4.58023 0
M  V30 5047 H 491.935 0.839113 -2.40481 0
M  V30 5048 H 492.718 -0.507173 -3.39533 0
M  V30 5049 N 495.163 1.55791 0.238111 0
M  V30 5050 C 496.093 1.94068 1.29846 0
M  V30 5051 C 497.074 0.806726 1.49753 0
M  V30 5052 O 498.259 1.06772 1.62214 0
M  V30 5053 C 495.389 2.24302 2.65153 0
M  V30 5054 C 494.343 3.40032 2.59927 0
M  V30 5055 C 493.669 3.55829 3.99111 0
M  V30 5056 C 494.969 4.75476 2.16148 0
M  V30 5057 H 496.663 2.82887 0.980563 0
M  V30 5058 H 494.209 1.36105 0.470253 0
M  V30 5059 H 496.162 2.4967 3.39475 0
M  V30 5060 H 494.886 1.32318 2.98596 0
M  V30 5061 H 493.545 3.14687 1.88063 0
M  V30 5062 H 493.193 2.6125 4.29834 0
M  V30 5063 H 492.893 4.3366 3.96501 0
M  V30 5064 H 494.417 3.83528 4.7512 0
M  V30 5065 H 495.831 5.00158 2.80205 0
M  V30 5066 H 494.228 5.56472 2.24631 0
M  V30 5067 H 495.298 4.71946 1.11333 0
M  V30 5068 N 496.642 -0.504142 1.49319 0
M  V30 5069 C 497.605 -1.5883 1.65244 0
M  V30 5070 C 498.605 -1.52009 0.524386 0
M  V30 5071 O 499.795 -1.55218 0.79077 0
M  V30 5072 C 496.927 -2.98481 1.64687 0
M  V30 5073 H 498.12 -1.4604 2.61939 0
M  V30 5074 H 495.673 -0.728144 1.38303 0
M  V30 5075 H 496.408 -3.16751 0.695644 0
M  V30 5076 H 496.193 -3.0484 2.46607 0
M  V30 5077 H 497.683 -3.77256 1.79075 0
M  V30 5078 N 498.12 -1.38341 -0.754957 0
M  V30 5079 C 499.531 -1.30803 -1.3322 0
M  V30 5080 C 499.882 0.0368 -1.96165 0
M  V30 5081 O 499.007 0.938844 -1.94974 0
M  V30 5082 C 499.602 -2.3688 -2.42225 0
M  V30 5083 C 498.161 -2.32925 -2.95674 0
M  V30 5084 C 497.308 -2.19819 -1.69042 0
M  V30 5085 H 500.259 -1.48719 -0.553937 0
M  V30 5086 H 500.28 -2.02517 -3.22129 0
M  V30 5087 H 499.792 -3.34747 -1.96383 0
M  V30 5088 H 497.893 -1.38635 -3.45848 0
M  V30 5089 H 498.006 -3.27008 -3.50146 0
M  V30 5090 H 496.37 -1.66648 -1.92615 0
M  V30 5091 H 497.153 -3.19625 -1.25279 0
M  V30 5092 N 499.598 0.982988 -1.23187 0
M  V30 5093 C 500.826 1.75921 -1.08901 0
M  V30 5094 C 501.241 1.85341 0.359719 0
M  V30 5095 O 500.598 1.33072 1.24892 0
M  V30 5096 C 500.649 3.18742 -1.70545 0
M  V30 5097 O 500.37 3.09814 -3.09753 0
M  V30 5098 C 501.871 4.1277 -1.61667 0
M  V30 5099 H 499.091 0.552166 -0.381252 0
M  V30 5100 H 501.635 1.23516 -1.62985 0
M  V30 5101 H 499.79 3.68182 -1.20501 0
M  V30 5102 H 500.204 3.99703 -3.39614 0
M  V30 5103 H 501.678 5.10697 -2.09506 0
M  V30 5104 H 502.155 4.3542 -0.575009 0
M  V30 5105 H 502.761 3.69232 -2.11064 0
M  V30 5106 N 501.076 1.04316 1.18135 0
M  V30 5107 C 502.487 0.775505 1.69832 0
M  V30 5108 C 502.838 -0.703348 1.8316 0
M  V30 5109 O 501.963 -1.54729 1.51287 0
M  V30 5110 C 502.558 1.40112 3.0847 0
M  V30 5111 C 501.117 1.18172 3.57368 0
M  V30 5112 C 500.264 1.49022 2.33854 0
M  V30 5113 H 503.215 1.20925 1.02775 0
M  V30 5114 H 503.236 0.805672 3.71873 0
M  V30 5115 H 502.748 2.47744 2.98738 0
M  V30 5116 H 500.849 0.124258 3.72393 0
M  V30 5117 H 500.962 1.8805 4.40652 0
M  V30 5118 H 499.326 0.909995 2.37889 0
M  V30 5119 H 500.109 2.57768 2.26738 0
M  V30 5120 N 502.554 -1.34406 0.822964 0
M  V30 5121 C 503.779 -2.0304 0.423034 0
M  V30 5122 C 504.204 -1.61568 -0.963196 0
M  V30 5123 O 503.562 -0.800339 -1.62678 0
M  V30 5124 C 503.61 -3.56636 0.53321 0
M  V30 5125 O 502.714 -4.09971 -0.446939 0
M  V30 5126 H 502.055 -0.64075 0.174171 0
M  V30 5127 H 504.585 -1.71653 1.11339 0
M  V30 5128 H 504.595 -4.05945 0.408991 0
M  V30 5129 H 503.27 -3.86168 1.54425 0
M  V30 5130 H 501.847 -3.71835 -0.281601 0
M  V30 5131 N 504.032 -0.577932 -1.46621 0
M  V30 5132 C 504.995 0.147805 -2.28723 0
M  V30 5133 C 505.995 0.823325 -1.38123 0
M  V30 5134 O 507.185 0.676011 -1.60548 0
M  V30 5135 C 504.317 1.21853 -3.18378 0
M  V30 5136 H 505.51 -0.573654 -2.94362 0
M  V30 5137 H 503.063 -0.335703 -1.52652 0
M  V30 5138 H 503.798 1.97173 -2.57475 0
M  V30 5139 H 503.583 0.738714 -3.85078 0
M  V30 5140 H 505.073 1.72768 -3.80186 0
M  V30 5141 N 505.51 1.54411 -0.315457 0
M  V30 5142 C 506.921 1.85885 0.174265 0
M  V30 5143 C 507.272 1.23723 1.52273 0
M  V30 5144 O 506.397 0.540246 2.09548 0
M  V30 5145 C 506.992 3.37257 0.322981 0
M  V30 5146 C 505.551 3.68711 0.756922 0
M  V30 5147 C 504.698 2.77013 -0.126195 0
M  V30 5148 H 507.649 1.49374 -0.536007 0
M  V30 5149 H 507.67 3.62539 1.15522 0
M  V30 5150 H 507.182 3.82471 -0.658602 0
M  V30 5151 H 505.283 3.29024 1.74854 0
M  V30 5152 H 505.396 4.75741 0.566291 0
M  V30 5153 H 503.76 2.51588 0.39692 0
M  V30 5154 H 504.543 3.25051 -1.1044 0
M  V30 5155 N 506.988 0.0434614 1.5754 0
M  V30 5156 C 508.228 -0.636023 1.94253 0
M  V30 5157 C 508.592 -1.68461 0.921132 0
M  V30 5158 O 509.793 -2.41762 1.17494 0
M  V30 5159 C 508.064 -1.22357 3.35803 0
M  V30 5160 S 509.623 -1.92213 3.94461 0
M  V30 5161 H 506.441 -0.209041 0.679575 0
M  V30 5162 H 509.043 0.110556 1.95187 0
M  V30 5163 H 507.747 -0.448162 4.07946 0
M  V30 5164 H 507.278 -2.00713 3.38346 0
M  V30 5165 H 509.293 -3.20199 3.79061 0
M  V30 5166 N 508.466 -1.55915 -0.229846 0
M  V30 5167 C 509.877 -1.68809 -0.797531 0
M  V30 5168 C 510.228 -0.643995 -1.8533 0
M  V30 5169 O 509.353 0.206492 -2.15413 0
M  V30 5170 C 509.948 -3.06043 -1.45338 0
M  V30 5171 C 508.507 -3.20819 -1.96856 0
M  V30 5172 C 507.654 -2.6472 -0.825736 0
M  V30 5173 H 510.605 -1.58699 -0.00533733 0
M  V30 5174 H 510.626 -3.01438 -2.32196 0
M  V30 5175 H 510.138 -3.82012 -0.684743 0
M  V30 5176 H 508.239 -2.49704 -2.76548 0
M  V30 5177 H 508.352 -4.27937 -2.15423 0
M  V30 5178 H 506.716 -2.22985 -1.23084 0
M  V30 5179 H 507.499 -3.43229 -0.0699019 0
M  V30 5180 N 509.944 0.496216 -1.49584 0
M  V30 5181 C 510.907 1.57952 -1.66084 0
M  V30 5182 C 511.907 1.51729 -0.53244 0
M  V30 5183 O 513.097 1.54796 -0.79899 0
M  V30 5184 C 510.229 2.97604 -1.66268 0
M  V30 5185 H 511.422 1.44649 -2.6271 0
M  V30 5186 H 508.975 0.7208 -1.38687 0
M  V30 5187 H 509.71 3.16378 -0.712432 0
M  V30 5188 H 509.495 3.03528 -2.4822 0
M  V30 5189 H 510.985 3.76301 -1.81073 0
M  V30 5190 N 511.423 1.38739 0.74761 0
M  V30 5191 C 512.651 1.38521 1.53686 0
M  V30 5192 C 513.066 -0.0235129 1.88785 0
M  V30 5193 O 512.423 -0.991662 1.53207 0
M  V30 5194 C 512.474 2.24641 2.83229 0
M  V30 5195 O 512.195 3.60026 2.49625 0
M  V30 5196 C 513.696 2.32669 3.77333 0
M  V30 5197 H 510.916 0.473589 0.475347 0
M  V30 5198 H 513.46 1.82395 0.924786 0
M  V30 5199 H 511.615 1.84213 3.40799 0
M  V30 5200 H 512.029 4.05435 3.3275 0
M  V30 5201 H 513.503 2.97201 4.65162 0
M  V30 5202 H 513.98 1.3421 4.18192 0
M  V30 5203 H 514.586 2.73512 3.25685 0
M  V30 5204 N 512.901 -0.976442 1.23707 0
M  V30 5205 C 514.312 -1.53284 1.06587 0
M  V30 5206 C 514.663 -1.92765 -0.365526 0
M  V30 5207 O 513.788 -1.7645 -1.25277 0
M  V30 5208 C 514.383 -2.78548 1.92864 0
M  V30 5209 C 512.942 -3.30574 1.79994 0
M  V30 5210 C 512.089 -2.03538 1.88328 0
M  V30 5211 H 515.04 -0.795692 1.37311 0
M  V30 5212 H 515.061 -3.5155 1.45577 0
M  V30 5213 H 514.573 -2.49782 2.97037 0
M  V30 5214 H 512.674 -3.64211 0.786202 0
M  V30 5215 H 512.787 -4.00065 2.636 0
M  V30 5216 H 511.151 -2.17853 1.31954 0
M  V30 5217 H 511.934 -1.77149 2.94063 0
M  V30 5218 N 514.379 -1.04941 -1.1758 0
M  V30 5219 C 515.342 -0.652456 -2.19717 0
M  V30 5220 C 516.342 0.294745 -1.58076 0
M  V30 5221 O 517.532 0.0789579 -1.74021 0
M  V30 5222 C 514.664 0.0420712 -3.40874 0
M  V30 5223 H 515.857 -1.55642 -2.5635 0
M  V30 5224 H 513.41 -0.842995 -1.31618 0
M  V30 5225 H 514.145 0.95943 -3.09783 0
M  V30 5226 H 513.93 -0.638844 -3.86861 0
M  V30 5227 H 515.42 0.306 -4.16477 0
M  V30 5228 N 515.857 1.33968 -0.830081 0
M  V30 5229 C 517.105 1.97672 -0.420734 0
M  V30 5230 C 517.426 1.66111 1.02138 0
M  V30 5231 O 516.696 0.955503 1.71017 0
M  V30 5232 H 515.276 0.73125 -0.152587 0
M  V30 5233 H 517.938 1.63483 -1.0611 0
M  V30 5234 H 517.034 3.07294 -0.545588 0
M  V30 5235 N 517.335 0.585699 1.46312 0
M  V30 5236 C 518.746 0.159938 1.86014 0
M  V30 5237 C 519.097 -1.27775 1.48889 0
M  V30 5238 O 518.222 -1.96559 0.90519 0
M  V30 5239 C 518.817 0.283485 3.37612 0
M  V30 5240 C 517.376 -0.0874256 3.76298 0
M  V30 5241 C 516.523 0.618055 2.70325 0
M  V30 5242 H 519.474 0.793737 1.37425 0
M  V30 5243 H 519.495 -0.490348 3.77327 0
M  V30 5244 H 519.007 1.32995 3.64601 0
M  V30 5245 H 517.108 -1.13391 3.54927 0
M  V30 5246 H 517.221 0.290975 4.78216 0
M  V30 5247 H 515.585 0.057993 2.54634 0
M  V30 5248 H 516.368 1.66623 3.00153 0
M  V30 5249 N 518.813 -1.54241 0.323641 0
M  V30 5250 C 519.76 -2.24339 -0.542277 0
M  V30 5251 C 520.73 -1.23421 -1.11159 0
M  V30 5252 O 521.915 -1.52104 -1.15192 0
M  V30 5253 C 519.055 -3.00479 -1.69725 0
M  V30 5254 C 518.168 -4.16214 -1.15716 0
M  V30 5255 C 517.303 -4.79884 -2.27783 0
M  V30 5256 C 516.342 -5.87722 -1.71023 0
M  V30 5257 N 515.479 -6.45254 -2.76752 0
M  V30 5258 H 520.319 -2.97935 0.0620613 0
M  V30 5259 H 517.856 -1.47039 0.0423993 0
M  V30 5260 H 519.814 -3.42869 -2.3769 0
M  V30 5261 H 518.444 -2.29217 -2.27288 0
M  V30 5262 H 517.496 -3.78605 -0.369063 0
M  V30 5263 H 518.808 -4.93838 -0.701832 0
M  V30 5264 H 517.962 -5.25243 -3.03651 0
M  V30 5265 H 516.701 -4.01641 -2.76652 0
M  V30 5266 H 515.706 -5.41765 -0.936518 0
M  V30 5267 H 516.931 -6.67863 -1.2303 0
M  V30 5268 H 514.877 -5.69884 -3.24912 0
M  V30 5269 H 514.794 -7.18292 -2.35782 0
M  V30 5270 H 516.062 -6.95269 -3.5245 0
M  V30 5271 N 520.291 -0.0518155 -1.57515 0
M  V30 5272 C 521.539 0.620595 -1.92336 0
M  V30 5273 C 521.86 1.71345 -0.930907 0
M  V30 5274 O 521.13 1.95885 0.0241341 0
M  V30 5275 H 519.71 0.232226 -0.709986 0
M  V30 5276 H 522.372 -0.104969 -1.94617 0
M  V30 5277 H 521.468 1.05879 -2.93592 0
M  V30 5278 N 521.769 1.56035 0.221574 0
M  V30 5279 C 523.185 1.49026 0.571271 0
M  V30 5280 C 523.385 0.746912 1.87146 0
M  V30 5281 O 522.441 0.286566 2.50869 0
M  V30 5282 C 523.754 2.93579 0.650522 0
M  V30 5283 C 525.302 3.04099 0.741151 0
M  V30 5284 C 525.777 4.5001 0.851747 0
M  V30 5285 N 527.268 4.54053 0.915968 0
M  V30 5286 C 528.003 5.64232 1.02125 0
M  V30 5287 N 527.499 6.84164 1.09049 0
M  V30 5288 N 529.292 5.52084 1.05639 0
M  V30 5289 H 521.443 2.02791 -0.63162 0
M  V30 5290 H 523.706 0.921736 -0.221602 0
M  V30 5291 H 523.412 3.50912 -0.235253 0
M  V30 5292 H 523.286 3.45476 1.51413 0
M  V30 5293 H 525.673 2.4683 1.61737 0
M  V30 5294 H 525.754 2.55371 -0.148128 0
M  V30 5295 H 525.398 5.07896 -0.0200117 0
M  V30 5296 H 525.328 4.96444 1.75644 0
M  V30 5297 H 527.819 3.67683 0.872782 0
M  V30 5298 H 528.132 7.63883 1.1706 0
M  V30 5299 H 526.477 6.86875 1.05962 0
M  V30 5300 H 529.668 4.57317 0.998953 0
M  V30 5301 H 529.841 6.37983 1.13498 0
M  V30 5302 N 523.247 -0.488276 1.49845 0
M  V30 5303 C 524.493 -1.24341 1.6021 0
M  V30 5304 C 524.826 -1.91967 0.293651 0
M  V30 5305 O 524.101 -1.81323 -0.703718 0
M  V30 5306 C 524.384 -2.3005 2.77036 0
M  V30 5307 C 524.237 -1.66842 4.17713 0
M  V30 5308 C 525.556 -3.31509 2.89464 0
M  V30 5309 H 522.675 -0.450704 0.583125 0
M  V30 5310 H 525.317 -0.539673 1.82174 0
M  V30 5311 H 523.467 -2.90071 2.58439 0
M  V30 5312 H 525.139 -1.1055 4.47858 0
M  V30 5313 H 523.382 -0.972079 4.22768 0
M  V30 5314 H 524.053 -2.43576 4.95353 0
M  V30 5315 H 526.529 -2.81493 3.06433 0
M  V30 5316 H 525.405 -4.02822 3.72861 0
M  V30 5317 H 525.666 -3.94603 1.99351 0
M  V30 5318 N 524.725 -1.39134 -0.740242 0
M  V30 5319 C 525.972 -1.36071 -1.49969 0
M  V30 5320 C 526.3 0.0450245 -1.94448 0
M  V30 5321 O 525.555 1.02482 -1.66721 0
M  V30 5322 C 525.854 -2.27457 -2.75678 0
M  V30 5323 C 525.52 -3.75185 -2.50094 0
M  V30 5324 C 524.182 -4.15439 -2.42825 0
M  V30 5325 C 526.534 -4.68643 -2.28086 0
M  V30 5326 C 523.862 -5.4722 -2.11584 0
M  V30 5327 C 526.214 -6.00695 -1.98363 0
M  V30 5328 C 524.878 -6.40018 -1.8956 0
M  V30 5329 H 524.148 -0.497921 -0.548777 0
M  V30 5330 H 526.795 -1.71599 -0.85007 0
M  V30 5331 H 525.1 -1.8503 -3.45356 0
M  V30 5332 H 526.797 -2.22384 -3.33686 0
M  V30 5333 H 523.387 -3.43279 -2.56627 0
M  V30 5334 H 527.571 -4.3838 -2.32672 0
M  V30 5335 H 522.827 -5.76615 -2.03287 0
M  V30 5336 H 527.001 -6.72644 -1.80341 0
M  V30 5337 H 524.628 -7.42051 -1.65117 0
M  V30 5338 N 526.204 0.969867 -1.24223 0
M  V30 5339 C 527.45 1.7151 -1.08223 0
M  V30 5340 C 527.783 1.90478 0.37838 0
M  V30 5341 O 527.058 1.4647 1.27971 0
M  V30 5342 C 527.341 3.10714 -1.82013 0
M  V30 5343 C 527.194 2.9925 -3.35811 0
M  V30 5344 C 528.513 4.10332 -1.59108 0
M  V30 5345 H 525.632 0.622499 -0.394543 0
M  V30 5346 H 528.274 1.1284 -1.52863 0
M  V30 5347 H 526.424 3.608 -1.44068 0
M  V30 5348 H 528.096 2.56608 -3.83341 0
M  V30 5349 H 526.339 2.35512 -3.64303 0
M  V30 5350 H 527.01 3.97857 -3.82641 0
M  V30 5351 H 529.486 3.69097 -1.92111 0
M  V30 5352 H 528.362 5.05804 -2.13198 0
M  V30 5353 H 528.623 4.38926 -0.528832 0
M  V30 5354 N 527.682 1.05563 1.17022 0
M  V30 5355 C 528.907 0.788437 1.91829 0
M  V30 5356 C 529.332 -0.650356 1.76499 0
M  V30 5357 O 528.69 -1.45229 1.08527 0
M  V30 5358 C 528.738 1.1786 3.40795 0
M  V30 5359 O 527.842 0.312965 4.11211 0
M  V30 5360 H 527.183 0.288794 0.597908 0
M  V30 5361 H 529.713 1.40948 1.48307 0
M  V30 5362 H 529.723 1.14697 3.91546 0
M  V30 5363 H 528.398 2.22666 3.51273 0
M  V30 5364 H 526.975 0.405515 3.70689 0
M  V30 5365 N 529.16 -1.33526 0.837174 0
M  V30 5366 C 530.571 -1.80182 0.489017 0
M  V30 5367 C 530.922 -1.69285 -0.991826 0
M  V30 5368 O 530.047 -1.24113 -1.77271 0
M  V30 5369 C 530.642 -3.27149 0.880866 0
M  V30 5370 C 529.201 -3.71828 0.584872 0
M  V30 5371 C 528.348 -2.54974 1.09011 0
M  V30 5372 H 531.299 -1.21071 1.02603 0
M  V30 5373 H 531.32 -3.80024 0.190239 0
M  V30 5374 H 530.832 -3.35048 1.95869 0
M  V30 5375 H 528.933 -3.69457 -0.48295 0
M  V30 5376 H 529.046 -4.65366 1.13892 0
M  V30 5377 H 527.41 -2.4952 0.511047 0
M  V30 5378 H 528.193 -2.65637 2.17467 0
M  V30 5379 N 530.638 -0.59345 -1.46 0
M  V30 5380 C 531.568 0.121192 -2.33185 0
M  V30 5381 C 532.549 0.872977 -1.4599 0
M  V30 5382 O 533.734 0.846321 -1.74789 0
M  V30 5383 C 530.864 1.12844 -3.28456 0
M  V30 5384 C 529.818 0.4908 -4.25177 0
M  V30 5385 C 529.144 1.60529 -5.10034 0
M  V30 5386 C 530.444 -0.578949 -5.19081 0
M  V30 5387 H 532.138 -0.606767 -2.93187 0
M  V30 5388 H 529.684 -0.293242 -1.40983 0
M  V30 5389 H 531.637 1.63684 -3.88311 0
M  V30 5390 H 530.361 1.88681 -2.66584 0
M  V30 5391 H 529.02 0.00339328 -3.666 0
M  V30 5392 H 528.668 2.35359 -4.44539 0
M  V30 5393 H 528.368 1.18422 -5.75543 0
M  V30 5394 H 529.892 2.11623 -5.72755 0
M  V30 5395 H 531.306 -0.155199 -5.7309 0
M  V30 5396 H 529.703 -0.920947 -5.92991 0
M  V30 5397 H 530.773 -1.46109 -4.62364 0
M  V30 5398 N 532.116 1.54067 -0.331816 0
M  V30 5399 C 533.079 2.23275 0.517768 0
M  V30 5400 C 534.079 1.22897 1.03697 0
M  V30 5401 O 535.269 1.47419 0.928084 0
M  V30 5402 C 532.401 2.94326 1.72004 0
M  V30 5403 H 533.594 2.99773 -0.0873507 0
M  V30 5404 H 531.147 1.56079 -0.0830042 0
M  V30 5405 H 531.882 2.21986 2.36417 0
M  V30 5406 H 531.667 3.67941 1.35507 0
M  V30 5407 H 533.157 3.47031 2.32291 0
M  V30 5408 N 533.594 0.0601682 1.57485 0
M  V30 5409 C 534.541 -0.91112 2.12055 0
M  V30 5410 C 535.511 -1.30298 1.03013 0
M  V30 5411 O 536.696 -1.39087 1.30612 0
M  V30 5412 C 533.836 -2.1775 2.67729 0
M  V30 5413 C 532.949 -1.83933 3.90887 0
M  V30 5414 C 532.084 -3.05096 4.34845 0
M  V30 5415 C 531.123 -2.67241 5.5068 0
M  V30 5416 N 530.26 -3.81127 5.8965 0
M  V30 5417 H 535.1 -0.43888 2.9475 0
M  V30 5418 H 532.637 -0.204995 1.45665 0
M  V30 5419 H 534.595 -2.91866 2.98111 0
M  V30 5420 H 533.225 -2.62535 1.87816 0
M  V30 5421 H 532.277 -0.999287 3.6704 0
M  V30 5422 H 533.589 -1.52074 4.75052 0
M  V30 5423 H 532.743 -3.87502 4.66827 0
M  V30 5424 H 531.482 -3.40139 3.49509 0
M  V30 5425 H 530.487 -1.83254 5.18361 0
M  V30 5426 H 531.712 -2.3338 6.37738 0
M  V30 5427 H 529.658 -4.15954 5.07266 0
M  V30 5428 H 529.575 -3.52997 6.68528 0
M  V30 5429 H 530.843 -4.64145 6.2625 0
M  V30 5430 N 535.072 -1.5615 -0.213296 0
M  V30 5431 C 536.019 -1.93086 -1.26437 0
M  V30 5432 C 536.989 -0.789086 -1.4616 0
M  V30 5433 O 538.174 -1.04569 -1.59593 0
M  V30 5434 C 535.314 -2.26003 -2.608 0
M  V30 5435 C 534.427 -3.53156 -2.48807 0
M  V30 5436 C 533.562 -3.7548 -3.7575 0
M  V30 5437 C 532.601 -4.96119 -3.58514 0
M  V30 5438 N 531.738 -5.14791 -4.77425 0
M  V30 5439 H 536.578 -2.82707 -0.942376 0
M  V30 5440 H 534.115 -1.39919 -0.454001 0
M  V30 5441 H 536.073 -2.431 -3.39055 0
M  V30 5442 H 534.703 -1.39546 -2.91079 0
M  V30 5443 H 533.755 -3.44207 -1.61944 0
M  V30 5444 H 535.067 -4.41565 -2.31996 0
M  V30 5445 H 534.221 -3.92718 -4.62447 0
M  V30 5446 H 532.96 -2.85368 -3.95495 0
M  V30 5447 H 531.965 -4.78823 -2.70201 0
M  V30 5448 H 533.19 -5.87724 -3.40231 0
M  V30 5449 H 531.136 -4.27623 -4.97468 0
M  V30 5450 H 531.053 -5.97347 -4.63371 0
M  V30 5451 H 532.321 -5.36471 -5.65525 0
M  V30 5452 N 536.55 0.480323 -1.50102 0
M  V30 5453 C 537.48 1.58769 -1.71215 0
M  V30 5454 C 538.461 1.60583 -0.560997 0
M  V30 5455 O 539.646 1.76996 -0.799127 0
M  V30 5456 C 536.776 2.97148 -1.79778 0
M  V30 5457 C 535.73 3.10201 -2.94888 0
M  V30 5458 C 535.056 4.50137 -2.88584 0
M  V30 5459 C 536.356 2.88283 -4.35534 0
M  V30 5460 H 538.05 1.41354 -2.6393 0
M  V30 5461 H 535.596 0.678591 -1.27008 0
M  V30 5462 H 537.549 3.74536 -1.93133 0
M  V30 5463 H 536.273 3.15699 -0.836772 0
M  V30 5464 H 534.932 2.35244 -2.81169 0
M  V30 5465 H 534.58 4.65593 -1.90349 0
M  V30 5466 H 534.28 4.59808 -3.65856 0
M  V30 5467 H 535.804 5.29558 -3.03976 0
M  V30 5468 H 537.218 3.55427 -4.49827 0
M  V30 5469 H 535.615 3.09408 -5.14186 0
M  V30 5470 H 536.685 1.84219 -4.48544 0
M  V30 5471 N 538.028 1.39524 0.732853 0
M  V30 5472 C 538.991 1.38189 1.82857 0
M  V30 5473 C 539.991 0.278624 1.58368 0
M  V30 5474 O 541.181 0.536639 1.65728 0
M  V30 5475 C 538.313 1.15661 3.2068 0
M  V30 5476 H 539.506 2.35692 1.85444 0
M  V30 5477 H 537.059 1.2512 0.936728 0
M  V30 5478 H 537.794 0.188482 3.23752 0
M  V30 5479 H 537.579 1.95559 3.39852 0
M  V30 5480 H 539.069 1.17472 4.00737 0
M  V30 5481 N 539.506 -0.963266 1.24736 0
M  V30 5482 C 540.752 -1.70933 1.09131 0
M  V30 5483 C 541.085 -1.90676 -0.368273 0
M  V30 5484 O 540.36 -1.47147 -1.27193 0
M  V30 5485 C 540.643 -3.09744 1.83658 0
M  V30 5486 C 540.496 -2.97465 3.37394 0
M  V30 5487 C 541.815 -4.09483 1.61282 0
M  V30 5488 H 538.934 -0.620398 0.397838 0
M  V30 5489 H 541.576 -1.12028 1.53459 0
M  V30 5490 H 539.726 -3.60031 1.4598 0
M  V30 5491 H 541.398 -2.54571 3.84696 0
M  V30 5492 H 539.641 -2.33576 3.65547 0
M  V30 5493 H 540.312 -3.95822 3.84745 0
M  V30 5494 H 542.788 -3.68073 1.94066 0
M  V30 5495 H 541.664 -5.04666 2.15878 0
M  V30 5496 H 541.925 -4.38639 0.552102 0
M  V30 5497 N 540.985 -1.06182 -1.16461 0
M  V30 5498 C 541.895 -0.682671 -2.24448 0
M  V30 5499 C 542.911 0.30078 -1.71381 0
M  V30 5500 O 544.087 0.150376 -2.00838 0
M  V30 5501 C 541.152 -0.0737202 -3.46622 0
M  V30 5502 C 540.213 -1.10889 -4.14731 0
M  V30 5503 C 539.446 -0.528908 -5.31073 0
M  V30 5504 O 539.669 0.65868 -5.66584 0
M  V30 5505 O 538.603 -1.26805 -5.88391 0
M  V30 5506 H 542.429 -1.58291 -2.59187 0
M  V30 5507 H 540.014 -0.834013 -1.23954 0
M  V30 5508 H 541.896 0.264192 -4.20571 0
M  V30 5509 H 540.571 0.800015 -3.13658 0
M  V30 5510 H 539.478 -1.49896 -3.42756 0
M  V30 5511 H 540.811 -1.95412 -4.51747 0
M  V30 5512 N 542.463 1.3308 -0.844243 0
M  V30 5513 C 543.41 2.29104 -0.279323 0
M  V30 5514 C 544.38 1.54577 0.607882 0
M  V30 5515 O 545.565 1.8285 0.545009 0
M  V30 5516 C 542.705 3.40927 0.53508 0
M  V30 5517 C 541.818 4.30354 -0.376749 0
M  V30 5518 C 540.953 5.29297 0.449276 0
M  V30 5519 C 539.992 6.10365 -0.460606 0
M  V30 5520 N 539.129 7.01335 0.327612 0
M  V30 5521 H 543.969 2.76817 -1.10346 0
M  V30 5522 H 541.506 1.36203 -0.555611 0
M  V30 5523 H 543.464 4.04469 1.02278 0
M  V30 5524 H 542.094 2.94391 1.32414 0
M  V30 5525 H 541.146 3.67485 -0.982791 0
M  V30 5526 H 542.458 4.87067 -1.07549 0
M  V30 5527 H 541.612 5.98392 1.00058 0
M  V30 5528 H 540.351 4.73174 1.18143 0
M  V30 5529 H 539.356 5.40182 -1.02388 0
M  V30 5530 H 540.581 6.68571 -1.1912 0
M  V30 5531 H 538.527 6.47655 1.04305 0
M  V30 5532 H 538.444 7.55355 -0.3123 0
M  V30 5533 H 539.712 7.74731 0.86098 0
M  V30 5534 N 543.941 0.601185 1.45683 0
M  V30 5535 C 545.189 0.0936957 2.01883 0
M  V30 5536 C 545.51 -1.2779 1.47291 0
M  V30 5537 O 544.78 -1.84279 0.664691 0
M  V30 5538 H 543.36 0.0316466 0.746329 0
M  V30 5539 H 546.022 0.781137 1.78562 0
M  V30 5540 H 545.118 0.0386297 3.12076 0
M  V30 5541 N 545.419 -1.53889 0.339982 0
M  V30 5542 C 546.668 -2.00035 -0.258604 0
M  V30 5543 C 546.981 -1.23179 -1.51942 0
M  V30 5544 O 548.187 -1.59784 -2.19503 0
M  V30 5545 C 546.643 -3.56249 -0.511359 0
M  V30 5546 C 546.251 -4.41957 0.733349 0
M  V30 5547 C 547.995 -4.1082 -1.069 0
M  V30 5548 C 545.902 -5.89673 0.451591 0
M  V30 5549 H 544.832 -0.747284 -0.10041 0
M  V30 5550 H 547.483 -1.77776 0.454758 0
M  V30 5551 H 545.865 -3.7456 -1.28533 0
M  V30 5552 H 547.039 -4.35421 1.50815 0
M  V30 5553 H 545.354 -3.9836 1.21237 0
M  V30 5554 H 547.951 -5.18789 -1.2947 0
M  V30 5555 H 548.294 -3.63817 -2.02343 0
M  V30 5556 H 548.827 -3.96205 -0.355817 0
M  V30 5557 H 545.566 -6.40903 1.37565 0
M  V30 5558 H 545.086 -5.99122 -0.285193 0
M  V30 5559 H 546.765 -6.46965 0.0675067 0
M  V30 5560 N 546.897 -0.0685191 -1.57451 0
M  V30 5561 C 548.174 0.642167 -1.84758 0
M  V30 5562 C 548.554 1.87991 -0.960344 0
M  V30 5563 O 547.902 2.28485 -0.0257894 0
M  V30 5564 C 548.112 0.982946 -3.34872 0
M  V30 5565 C 549.46 1.35784 -4.02303 0
M  V30 5566 O 550.484 1.07477 -3.39598 0
M  V30 5567 O 549.343 1.88681 -5.12895 0
M  V30 5568 H 546.437 0.318625 -0.763156 0
M  V30 5569 H 548.983 -0.0992015 -1.6941 0
M  V30 5570 H 547.755 0.10372 -3.91163 0
M  V30 5571 H 547.378 1.78119 -3.55471 0
M  V30 5572 N 548.375 1.56261 0.205012 0
M  V30 5573 C 549.305 1.96779 1.257 0
M  V30 5574 C 550.286 0.838309 1.48008 0
M  V30 5575 O 551.471 1.10189 1.59913 0
M  V30 5576 C 548.601 2.29876 2.60335 0
M  V30 5577 C 547.555 3.45469 2.52656 0
M  V30 5578 C 546.881 3.64215 3.91473 0
M  V30 5579 C 548.181 4.79954 2.06014 0
M  V30 5580 H 549.875 2.84904 0.920338 0
M  V30 5581 H 547.421 1.37072 0.441277 0
M  V30 5582 H 549.374 2.56814 3.34102 0
M  V30 5583 H 548.098 1.38622 2.95722 0
M  V30 5584 H 546.757 3.18605 1.81345 0
M  V30 5585 H 546.405 2.70309 4.24196 0
M  V30 5586 H 546.105 4.41973 3.87213 0
M  V30 5587 H 547.629 3.93519 4.66878 0
M  V30 5588 H 549.043 5.05989 2.69533 0
M  V30 5589 H 547.44 5.61111 2.12777 0
M  V30 5590 H 548.51 4.74201 1.01297 0
M  V30 5591 N 549.853 -0.472356 1.50355 0
M  V30 5592 C 551.081 -1.24784 1.65035 0
M  V30 5593 C 551.496 -1.85837 0.333176 0
M  V30 5594 O 550.853 -1.69168 -0.68472 0
M  V30 5595 C 550.904 -2.35747 2.74054 0
M  V30 5596 O 550.625 -1.77197 4.00665 0
M  V30 5597 C 552.126 -3.26645 2.99696 0
M  V30 5598 H 549.346 -0.377432 0.554785 0
M  V30 5599 H 551.89 -0.563962 1.9657 0
M  V30 5600 H 550.045 -2.99912 2.45217 0
M  V30 5601 H 550.459 -2.5026 4.60945 0
M  V30 5602 H 551.933 -4.00718 3.79644 0
M  V30 5603 H 552.41 -3.8535 2.10718 0
M  V30 5604 H 553.016 -2.68218 3.3006 0
M  V30 5605 N 551.331 -1.39911 -0.725443 0
M  V30 5606 C 552.263 -1.35301 -1.85003 0
M  V30 5607 C 553.276 -0.260102 -1.60709 0
M  V30 5608 O 554.465 -0.519749 -1.70766 0
M  V30 5609 C 551.565 -1.08039 -3.21218 0
M  V30 5610 C 550.738 -2.28793 -3.7279 0
M  V30 5611 C 549.797 -1.97841 -4.87591 0
M  V30 5612 O 548.823 -2.70616 -5.00755 0
M  V30 5613 N 550.025 -0.950367 -5.72668 0
M  V30 5614 H 552.79 -2.32218 -1.89459 0
M  V30 5615 H 550.351 -1.34137 -0.90658 0
M  V30 5616 H 552.343 -0.853354 -3.95601 0
M  V30 5617 H 550.913 -0.198229 -3.11971 0
M  V30 5618 H 550.133 -2.67388 -2.8965 0
M  V30 5619 H 551.421 -3.09317 -4.03981 0
M  V30 5620 H 550.819 -0.347436 -5.64632 0
M  V30 5621 H 549.376 -0.783232 -6.47077 0
M  V30 5622 N 552.809 0.956637 -1.25245 0
M  V30 5623 C 554.055 1.70352 -1.10036 0
M  V30 5624 C 554.388 1.90869 0.358156 0
M  V30 5625 O 553.663 1.47819 1.26411 0
M  V30 5626 C 553.946 3.08766 -1.85298 0
M  V30 5627 C 553.799 2.95672 -3.38966 0
M  V30 5628 C 555.118 4.08622 -1.63451 0
M  V30 5629 H 552.237 0.618279 -0.401123 0
M  V30 5630 H 554.879 1.11212 -1.54051 0
M  V30 5631 H 553.029 3.59252 -1.47887 0
M  V30 5632 H 554.701 2.52527 -3.86041 0
M  V30 5633 H 552.944 2.31634 -3.6678 0
M  V30 5634 H 553.615 3.93776 -3.86839 0
M  V30 5635 H 556.091 3.67038 -1.96015 0
M  V30 5636 H 554.967 5.03514 -2.18551 0
M  V30 5637 H 555.228 4.3834 -0.575357 0
M  V30 5638 N 554.287 1.06798 1.15896 0
M  V30 5639 C 555.234 0.683314 2.20453 0
M  V30 5640 C 556.204 -0.32255 1.62938 0
M  V30 5641 O 557.389 -0.210276 1.89638 0
M  V30 5642 C 554.529 0.0813266 3.45004 0
M  V30 5643 C 553.642 1.13799 4.16742 0
M  V30 5644 C 552.777 0.501598 5.28826 0
M  V30 5645 C 551.816 1.54144 5.92373 0
M  V30 5646 N 550.953 0.928038 6.9594 0
M  V30 5647 H 555.793 1.57932 2.52708 0
M  V30 5648 H 553.33 0.789544 1.24115 0
M  V30 5649 H 555.288 -0.285274 4.16224 0
M  V30 5650 H 553.918 -0.77806 3.13283 0
M  V30 5651 H 552.97 1.62223 3.44075 0
M  V30 5652 H 554.282 1.92664 4.60089 0
M  V30 5653 H 553.436 0.0823162 6.06644 0
M  V30 5654 H 552.175 -0.318883 4.86656 0
M  V30 5655 H 551.18 1.97056 5.13273 0
M  V30 5656 H 552.405 2.3641 6.36621 0
M  V30 5657 H 550.351 0.12836 6.55874 0
M  V30 5658 H 550.268 1.65401 7.37685 0
M  V30 5659 H 551.536 0.534071 7.77668 0
M  V30 5660 N 555.766 -1.3263 0.851289 0
M  V30 5661 C 557.014 -1.96978 0.452128 0
M  V30 5662 C 557.335 -1.67715 -0.99482 0
M  V30 5663 O 556.605 -0.98259 -1.69476 0
M  V30 5664 H 555.185 -0.72873 0.164202 0
M  V30 5665 H 557.847 -1.61774 1.08698 0
M  V30 5666 H 556.943 -3.06387 0.594407 0
M  V30 5667 N 557.244 -0.608902 -1.45362 0
M  V30 5668 C 558.472 -0.111013 -2.06602 0
M  V30 5669 C 558.887 1.20516 -1.45332 0
M  V30 5670 O 558.244 1.73437 -0.567978 0
M  V30 5671 C 558.295 0.033688 -3.61484 0
M  V30 5672 O 558.016 -1.23041 -4.20467 0
M  V30 5673 C 559.517 0.562882 -4.39712 0
M  V30 5674 H 556.737 -0.0694453 -0.667397 0
M  V30 5675 H 559.281 -0.837008 -1.86586 0
M  V30 5676 H 557.436 0.710016 -3.80838 0
M  V30 5677 H 557.85 -1.06094 -5.13658 0
M  V30 5678 H 559.324 0.613213 -5.48583 0
M  V30 5679 H 559.801 1.58543 -4.09586 0
M  V30 5680 H 560.407 -0.0794454 -4.25226 0
M  V30 5681 N 558.722 1.53707 -0.348139 0
M  V30 5682 C 559.97 2.00591 0.246478 0
M  V30 5683 C 560.291 1.23753 1.50699 0
M  V30 5684 O 559.561 0.345964 1.92821 0
M  V30 5685 H 558.141 0.741053 0.0940679 0
M  V30 5686 H 560.803 1.89139 -0.470354 0
M  V30 5687 H 559.899 3.08297 0.485714 0
M  V30 5688 N 560.2 0.0768682 1.57412 0
M  V30 5689 C 561.611 -0.455037 1.8107 0
M  V30 5690 C 561.962 -1.69323 0.991162 0
M  V30 5691 O 561.087 -2.15328 0.215156 0
M  V30 5692 C 561.682 -0.832316 3.28417 0
M  V30 5693 C 560.241 -1.30906 3.52903 0
M  V30 5694 C 559.388 -0.296714 2.75708 0
M  V30 5695 H 562.339 0.302514 1.5579 0
M  V30 5696 H 562.36 -1.69333 3.40744 0
M  V30 5697 H 561.872 0.0690532 3.88039 0
M  V30 5698 H 559.973 -2.22875 2.98592 0
M  V30 5699 H 560.086 -1.28348 4.61588 0
M  V30 5700 H 558.45 -0.775059 2.42621 0
M  V30 5701 H 559.233 0.597015 3.38069 0
M  V30 5702 N 561.678 -1.56367 -0.196722 0
M  V30 5703 C 562.955 -1.71359 -0.943159 0
M  V30 5704 C 563.335 -0.631192 -2.01443 0
M  V30 5705 O 562.683 0.358071 -2.25677 0
M  V30 5706 C 562.893 -3.13623 -1.53106 0
M  V30 5707 C 564.241 -3.73806 -2.01381 0
M  V30 5708 O 565.265 -3.16742 -1.62951 0
M  V30 5709 O 564.124 -4.73951 -2.7209 0
M  V30 5710 H 561.218 -0.698851 -0.442195 0
M  V30 5711 H 563.764 -1.68672 -0.186547 0
M  V30 5712 H 562.536 -3.83873 -0.758785 0
M  V30 5713 H 562.159 -3.20532 -2.35255 0
M  V30 5714 N 563.156 0.464375 -1.50603 0
M  V30 5715 C 564.404 1.21356 -1.61608 0
M  V30 5716 C 564.725 1.92329 -0.321643 0
M  V30 5717 O 563.995 1.84403 0.661232 0
M  V30 5718 H 562.575 0.45094 -0.595535 0
M  V30 5719 H 565.237 0.535046 -1.87412 0
M  V30 5720 H 564.333 1.95783 -2.43054 0
M  V30 5721 N 564.634 1.40294 0.718013 0
M  V30 5722 C 566.05 1.2227 1.02577 0
M  V30 5723 C 566.25 0.0961976 2.0127 0
M  V30 5724 O 565.306 -0.546695 2.46511 0
M  V30 5725 C 566.619 2.56348 1.57182 0
M  V30 5726 C 568.167 2.6334 1.69178 0
M  V30 5727 C 568.642 3.9768 2.27188 0
M  V30 5728 N 570.133 3.99409 2.34578 0
M  V30 5729 C 570.868 5.00141 2.8044 0
M  V30 5730 N 570.364 6.11268 3.26073 0
M  V30 5731 N 572.157 4.87511 2.79802 0
M  V30 5732 H 564.308 2.12304 0.0637899 0
M  V30 5733 H 566.571 0.943632 0.0909036 0
M  V30 5734 H 566.277 3.3942 0.921262 0
M  V30 5735 H 566.151 2.77266 2.55741 0
M  V30 5736 H 568.538 1.80641 2.33351 0
M  V30 5737 H 568.619 2.46255 0.692247 0
M  V30 5738 H 568.263 4.80817 1.63638 0
M  V30 5739 H 568.193 4.12093 3.27852 0
M  V30 5740 H 570.684 3.19162 2.02346 0
M  V30 5741 H 570.997 6.84023 3.59628 0
M  V30 5742 H 569.342 6.14837 3.24038 0
M  V30 5743 H 572.533 3.9979 2.43487 0
M  V30 5744 H 572.706 5.66158 3.15228 0
M  V30 5745 N 566.112 -0.949982 1.2575 0
M  V30 5746 C 567.361 -1.68956 1.10168 0
M  V30 5747 C 567.674 -1.92327 -0.356309 0
M  V30 5748 O 568.88 -2.64026 -0.632657 0
M  V30 5749 C 567.336 -3.04196 1.92336 0
M  V30 5750 C 566.944 -2.88603 3.42655 0
M  V30 5751 C 568.688 -3.81904 1.85336 0
M  V30 5752 C 566.595 -4.19262 4.17101 0
M  V30 5753 H 565.525 -0.633645 0.408668 0
M  V30 5754 H 568.176 -1.05719 1.49986 0
M  V30 5755 H 566.558 -3.68363 1.45344 0
M  V30 5756 H 567.732 -2.3334 3.97353 0
M  V30 5757 H 566.047 -2.24345 3.50796 0
M  V30 5758 H 568.644 -4.78688 2.38248 0
M  V30 5759 H 568.987 -4.08099 0.822226 0
M  V30 5760 H 569.52 -3.24495 2.30104 0
M  V30 5761 H 566.259 -3.98254 5.20648 0
M  V30 5762 H 565.779 -4.74273 3.67186 0
M  V30 5763 H 567.458 -4.87775 4.25071 0
M  V30 5764 N 567.59 -1.07411 -1.15328 0
M  V30 5765 C 568.818 -0.818782 -1.90009 0
M  V30 5766 C 569.233 0.628072 -1.78047 0
M  V30 5767 O 568.59 1.43085 -1.13282 0
M  V30 5768 C 568.641 -1.21874 -3.40337 0
M  V30 5769 O 568.362 -2.60883 -3.51954 0
M  V30 5770 C 569.863 -0.992796 -4.3204 0
M  V30 5771 H 567.083 -0.296007 -0.60218 0
M  V30 5772 H 569.627 -1.43073 -1.46117 0
M  V30 5773 H 567.782 -0.651103 -3.81889 0
M  V30 5774 H 568.196 -2.77216 -4.45255 0
M  V30 5775 H 569.67 -1.32215 -5.35932 0
M  V30 5776 H 570.147 0.0708331 -4.39143 0
M  V30 5777 H 570.753 -1.54537 -3.9623 0
M  V30 5778 N 569.068 1.32177 -0.85831 0
M  V30 5779 C 570.015 2.28794 -0.303607 0
M  V30 5780 C 570.985 1.55213 0.591453 0
M  V30 5781 O 572.17 1.83418 0.525585 0
M  V30 5782 C 569.31 3.41475 0.49889 0
M  V30 5783 C 568.423 4.2993 -0.422373 0
M  V30 5784 C 567.558 5.29743 0.393111 0
M  V30 5785 C 566.597 6.09842 -0.525317 0
M  V30 5786 N 565.734 7.01643 0.253208 0
M  V30 5787 H 570.574 2.75631 -1.13276 0
M  V30 5788 H 568.111 1.35606 -0.570026 0
M  V30 5789 H 570.069 4.05531 0.979826 0
M  V30 5790 H 568.699 2.95779 1.29284 0
M  V30 5791 H 567.751 3.66422 -1.02171 0
M  V30 5792 H 569.063 4.85899 -1.12709 0
M  V30 5793 H 568.217 5.9942 0.937056 0
M  V30 5794 H 566.956 4.744 1.13117 0
M  V30 5795 H 565.961 5.39066 -1.08112 0
M  V30 5796 H 567.186 6.6727 -1.26205 0
M  V30 5797 H 565.132 6.48725 0.974295 0
M  V30 5798 H 565.049 7.54981 -0.392398 0
M  V30 5799 H 566.317 7.756 0.778761 0
M  V30 5800 N 570.547 0.616602 1.45037 0
M  V30 5801 C 571.494 -0.0969439 2.30596 0
M  V30 5802 C 572.464 -0.851151 1.42635 0
M  V30 5803 O 573.649 -0.835092 1.71554 0
M  V30 5804 C 570.789 -1.08234 3.27688 0
M  V30 5805 C 569.902 -0.328072 4.30752 0
M  V30 5806 C 569.037 -1.30399 5.14946 0
M  V30 5807 C 568.076 -0.538049 6.09731 0
M  V30 5808 N 567.213 -1.46371 6.86673 0
M  V30 5809 H 572.053 0.63864 2.91076 0
M  V30 5810 H 569.59 0.326733 1.43425 0
M  V30 5811 H 571.548 -1.66688 3.82454 0
M  V30 5812 H 570.178 -1.78523 2.68941 0
M  V30 5813 H 569.23 0.372136 3.78575 0
M  V30 5814 H 570.542 0.269142 4.98073 0
M  V30 5815 H 569.696 -1.96032 5.74157 0
M  V30 5816 H 568.435 -1.93514 4.47665 0
M  V30 5817 H 567.44 0.131852 5.49642 0
M  V30 5818 H 568.665 0.0881732 6.79043 0
M  V30 5819 H 566.611 -2.08233 6.22073 0
M  V30 5820 H 566.528 -0.920152 7.50379 0
M  V30 5821 H 567.796 -2.10932 7.50418 0
M  V30 5822 N 572.025 -1.5352 0.356285 0
M  V30 5823 C 573.302 -1.93405 -0.292223 0
M  V30 5824 C 573.682 -1.28901 -1.67176 0
M  V30 5825 O 573.03 -0.444632 -2.24132 0
M  V30 5826 C 573.24 -3.47223 -0.35175 0
M  V30 5827 C 574.588 -4.20389 -0.596534 0
M  V30 5828 O 575.612 -3.53554 -0.433344 0
M  V30 5829 O 574.471 -5.3881 -0.913589 0
M  V30 5830 H 571.565 -0.808666 -0.173172 0
M  V30 5831 H 574.111 -1.64713 0.408391 0
M  V30 5832 H 572.883 -3.86423 0.615841 0
M  V30 5833 H 572.506 -3.8212 -1.09864 0
M  V30 5834 N 573.503 -0.0852151 -1.57369 0
M  V30 5835 C 574.752 0.580443 -1.93168 0
M  V30 5836 C 575.065 1.6995 -0.968319 0
M  V30 5837 O 576.271 2.42564 -1.21963 0
M  V30 5838 C 574.727 1.08386 -3.43192 0
M  V30 5839 C 574.335 -0.00491388 -4.48 0
M  V30 5840 C 576.079 1.72281 -3.87968 0
M  V30 5841 C 573.986 0.513299 -5.89168 0
M  V30 5842 H 572.916 0.22059 -0.72101 0
M  V30 5843 H 575.567 -0.159621 -1.82804 0
M  V30 5844 H 573.949 1.8773 -3.48674 0
M  V30 5845 H 575.123 -0.780032 -4.5415 0
M  V30 5846 H 573.438 -0.548453 -4.12772 0
M  V30 5847 H 576.035 2.12108 -4.9083 0
M  V30 5848 H 576.378 2.58811 -3.26071 0
M  V30 5849 H 576.911 0.995359 -3.85146 0
M  V30 5850 H 573.65 -0.315153 -6.54742 0
M  V30 5851 H 573.17 1.25564 -5.8651 0
M  V30 5852 H 574.849 0.985433 -6.39451 0
M  V30 5853 N 574.981 1.5647 0.188427 0
M  V30 5854 C 576.258 1.71857 0.934058 0
M  V30 5855 C 576.638 0.641867 2.01105 0
M  V30 5856 O 575.986 -0.346098 2.25864 0
M  V30 5857 C 576.196 3.14431 1.5144 0
M  V30 5858 C 577.544 3.74869 1.99396 0
M  V30 5859 O 578.568 3.17601 1.61269 0
M  V30 5860 O 577.427 4.75387 2.69573 0
M  V30 5861 H 574.521 0.701186 0.438483 0
M  V30 5862 H 577.067 1.68768 0.177599 0
M  V30 5863 H 575.839 3.8427 0.738416 0
M  V30 5864 H 575.462 3.21775 2.33552 0
M  V30 5865 N 576.459 -0.456382 1.50847 0
M  V30 5866 C 577.684 -1.2349 1.66628 0
M  V30 5867 C 578.109 -1.84715 0.355254 0
M  V30 5868 O 577.467 -1.67961 -0.682559 0
M  V30 5869 C 577.515 -2.30865 2.77009 0
M  V30 5870 O 576.619 -3.35882 2.39285 0
M  V30 5871 H 575.96 -0.36266 0.556214 0
M  V30 5872 H 578.49 -0.541374 1.97308 0
M  V30 5873 H 578.5 -2.75949 3.00526 0
M  V30 5874 H 577.175 -1.85677 3.72152 0
M  V30 5875 H 575.752 -2.96406 2.26269 0
M  V30 5876 N 577.937 -1.40673 -0.710563 0
M  V30 5877 C 579.184 -1.39222 -1.47049 0
M  V30 5878 C 579.512 0.0037691 -1.945 0
M  V30 5879 O 578.767 0.989224 -1.68857 0
M  V30 5880 C 579.066 -2.33253 -2.70791 0
M  V30 5881 C 578.732 -3.80406 -2.42079 0
M  V30 5882 C 577.394 -4.20496 -2.33959 0
M  V30 5883 C 579.746 -4.73375 -2.18094 0
M  V30 5884 C 577.074 -5.51584 -1.99929 0
M  V30 5885 C 579.426 -6.04768 -1.85576 0
M  V30 5886 C 578.09 -6.43895 -1.75941 0
M  V30 5887 H 577.36 -0.509449 -0.538092 0
M  V30 5888 H 580.007 -1.73363 -0.81348 0
M  V30 5889 H 578.312 -1.92314 -3.41354 0
M  V30 5890 H 580.009 -2.29412 -3.28894 0
M  V30 5891 H 576.599 -3.48645 -2.49288 0
M  V30 5892 H 580.783 -4.43217 -2.23321 0
M  V30 5893 H 576.039 -5.80797 -1.91011 0
M  V30 5894 H 580.213 -6.76318 -1.66033 0
M  V30 5895 H 577.84 -7.45387 -1.4934 0
M  V30 5896 N 579.415 0.9433 -1.26252 0
M  V30 5897 C 580.661 1.69175 -1.11837 0
M  V30 5898 C 580.994 1.91238 0.337891 0
M  V30 5899 O 580.269 1.49152 1.24836 0
M  V30 5900 C 580.552 3.06783 -1.88563 0
M  V30 5901 C 580.405 2.9206 -3.42083 0
M  V30 5902 C 581.724 4.06865 -1.67776 0
M  V30 5903 H 578.843 0.61399 -0.407658 0
M  V30 5904 H 581.485 1.09572 -1.55222 0
M  V30 5905 H 579.635 3.57663 -1.51689 0
M  V30 5906 H 581.307 2.48419 -3.88698 0
M  V30 5907 H 579.55 2.27731 -3.69217 0
M  V30 5908 H 580.221 3.89651 -3.90994 0
M  V30 5909 H 582.697 3.64939 -1.99897 0
M  V30 5910 H 581.573 5.01168 -2.23879 0
M  V30 5911 H 581.834 4.37705 -0.621816 0
M  V30 5912 N 580.893 1.08022 1.14757 0
M  V30 5913 C 582.304 0.829144 1.67279 0
M  V30 5914 C 582.655 -0.644721 1.85305 0
M  V30 5915 O 581.78 -1.49838 1.56133 0
M  V30 5916 C 582.375 1.49855 3.03857 0
M  V30 5917 C 580.934 1.29482 3.53428 0
M  V30 5918 C 580.081 1.56386 2.28995 0
M  V30 5919 H 583.032 1.24134 0.988762 0
M  V30 5920 H 583.053 0.923572 3.69121 0
M  V30 5921 H 582.565 2.57123 2.90705 0
M  V30 5922 H 580.666 0.242669 3.71809 0
M  V30 5923 H 580.779 2.01974 4.34446 0
M  V30 5924 H 579.143 0.985217 2.34874 0
M  V30 5925 H 579.926 2.64851 2.18423 0
M  V30 5926 N 582.371 -1.3172 0.865308 0
M  V30 5927 C 583.596 -2.01591 0.487415 0
M  V30 5928 C 584.021 -1.6455 -0.911307 0
M  V30 5929 O 583.379 -0.851689 -1.6005 0
M  V30 5930 C 583.427 -3.54759 0.646401 0
M  V30 5931 O 582.531 -4.11185 -0.316284 0
M  V30 5932 H 581.872 -0.634884 0.194468 0
M  V30 5933 H 584.402 -1.68024 1.16744 0
M  V30 5934 H 584.412 -4.04438 0.537932 0
M  V30 5935 H 583.087 -3.8106 1.66632 0
M  V30 5936 H 581.664 -3.72543 -0.163162 0
M  V30 5937 N 583.85 -0.624285 -1.44708 0
M  V30 5938 C 584.797 0.0847135 -2.30644 0
M  V30 5939 C 585.767 0.843575 -1.43084 0
M  V30 5940 O 586.952 0.825982 -1.71995 0
M  V30 5941 C 584.091 1.06495 -3.28257 0
M  V30 5942 C 583.205 0.305224 -4.3092 0
M  V30 5943 C 582.34 1.27667 -5.1563 0
M  V30 5944 C 581.379 0.505706 -6.10007 0
M  V30 5945 N 580.516 1.42727 -6.8744 0
M  V30 5946 H 585.356 -0.654068 -2.90733 0
M  V30 5947 H 582.893 -0.334334 -1.4325 0
M  V30 5948 H 584.851 1.64658 -3.83332 0
M  V30 5949 H 583.481 1.77094 -2.69884 0
M  V30 5950 H 582.533 -0.392207 -3.78373 0
M  V30 5951 H 583.845 -0.295553 -4.97924 0
M  V30 5952 H 582.999 1.92984 -5.75189 0
M  V30 5953 H 581.738 1.91137 -4.48685 0
M  V30 5954 H 580.743 -0.160999 -5.49564 0
M  V30 5955 H 581.968 -0.124183 -6.78986 0
M  V30 5956 H 579.913 2.04931 -6.23169 0
M  V30 5957 H 579.831 0.880345 -7.50857 0
M  V30 5958 H 581.099 2.0695 -7.51526 0
M  V30 5959 N 585.328 1.53329 -0.364422 0
M  V30 5960 C 586.574 2.01537 0.225969 0
M  V30 5961 C 586.907 1.25128 1.48515 0
M  V30 5962 O 586.182 0.344653 1.91422 0
M  V30 5963 C 586.465 3.56339 0.519092 0
M  V30 5964 C 586.318 4.43441 -0.753639 0
M  V30 5965 C 587.637 4.19833 1.32015 0
M  V30 5966 H 584.756 0.732573 0.0806548 0
M  V30 5967 H 587.398 1.83597 -0.489084 0
M  V30 5968 H 585.548 3.71756 1.12825 0
M  V30 5969 H 587.22 4.39823 -1.39116 0
M  V30 5970 H 585.463 4.11457 -1.37424 0
M  V30 5971 H 586.134 5.49699 -0.503517 0
M  V30 5972 H 588.61 4.08242 0.804859 0
M  V30 5973 H 587.486 5.28177 1.49399 0
M  V30 5974 H 587.747 3.75821 2.32832 0
M  V30 5975 N 586.806 0.0935595 1.57322 0
M  V30 5976 C 587.769 -0.851426 2.12799 0
M  V30 5977 C 588.769 -1.21187 1.0569 0
M  V30 5978 O 589.959 -1.14156 1.31583 0
M  V30 5979 C 587.091 -2.14779 2.64731 0
M  V30 5980 H 588.284 -0.369733 2.97612 0
M  V30 5981 H 585.837 -0.155417 1.55525 0
M  V30 5982 H 586.572 -2.67437 1.83434 0
M  V30 5983 H 586.357 -1.89907 3.43042 0
M  V30 5984 H 587.847 -2.82383 3.07651 0
M  V30 5985 N 588.284 -1.56567 -0.180126 0
M  V30 5986 C 589.695 -1.7126 -0.743422 0
M  V30 5987 C 590.046 -0.70263 -1.83187 0
M  V30 5988 O 589.171 0.137856 -2.1596 0
M  V30 5989 C 589.766 -3.10512 -1.35528 0
M  V30 5990 C 588.325 -3.26919 -1.8655 0
M  V30 5991 C 587.472 -2.67213 -0.741099 0
M  V30 5992 H 590.423 -1.58636 0.0451543 0
M  V30 5993 H 590.444 -3.08673 -2.22489 0
M  V30 5994 H 589.956 -3.83997 -0.562862 0
M  V30 5995 H 588.057 -2.58376 -2.68464 0
M  V30 5996 H 588.17 -4.34574 -2.01699 0
M  V30 5997 H 586.534 -2.26788 -1.15927 0
M  V30 5998 H 587.317 -3.43277 0.0393291 0
M  V30 5999 N 589.762 0.448376 -1.51087 0
M  V30 6000 C 590.725 1.52588 -1.71025 0
M  V30 6001 C 591.725 1.49958 -0.580442 0
M  V30 6002 O 592.915 1.52176 -0.847833 0
M  V30 6003 C 590.047 2.92163 -1.75652 0
M  V30 6004 H 591.24 1.36218 -2.67179 0
M  V30 6005 H 588.793 0.676313 -1.4091 0
M  V30 6006 H 589.528 3.13951 -0.812724 0
M  V30 6007 H 589.313 2.95478 -2.57751 0
M  V30 6008 H 590.803 3.70349 -1.92953 0
M  V30 6009 N 591.24 1.41047 0.703093 0
M  V30 6010 C 592.651 1.35657 1.28274 0
M  V30 6011 C 593.002 0.0360309 1.96167 0
M  V30 6012 O 592.127 -0.865833 1.98324 0
M  V30 6013 C 592.722 2.45707 2.33267 0
M  V30 6014 C 591.281 2.43738 2.86825 0
M  V30 6015 C 590.428 2.25941 1.60767 0
M  V30 6016 H 593.379 1.50672 0.49836 0
M  V30 6017 H 593.4 2.14333 3.14391 0
M  V30 6018 H 592.912 3.41805 1.83824 0
M  V30 6019 H 591.013 1.51375 3.40465 0
M  V30 6020 H 591.126 3.39779 3.37768 0
M  V30 6021 H 589.49 1.73681 1.86298 0
M  V30 6022 H 590.273 3.24054 1.1333 0
M  V30 6023 N 592.718 -0.936591 1.26751 0
M  V30 6024 C 593.681 -2.01752 1.08761 0
M  V30 6025 C 594.681 -1.60763 0.0344435 0
M  V30 6026 O 595.871 -1.71963 0.278258 0
M  V30 6027 C 593.003 -3.34543 0.655271 0
M  V30 6028 H 594.196 -2.19143 2.04735 0
M  V30 6029 H 591.749 -1.11618 1.09413 0
M  V30 6030 H 592.484 -3.22851 -0.30626 0
M  V30 6031 H 592.269 -3.65647 1.41578 0
M  V30 6032 H 593.759 -4.13944 0.551378 0
M  V30 6033 N 594.196 -1.08629 -1.14182 0
M  V30 6034 C 595.159 -0.722027 -2.1753 0
M  V30 6035 C 596.159 0.244305 -1.58933 0
M  V30 6036 O 597.349 0.0235545 -1.74184 0
M  V30 6037 C 594.481 -0.0663966 -3.40835 0
M  V30 6038 H 595.674 -1.63719 -2.51269 0
M  V30 6039 H 593.227 -0.884442 -1.28869 0
M  V30 6040 H 593.962 0.860389 -3.12678 0
M  V30 6041 H 593.747 -0.761598 -3.84632 0
M  V30 6042 H 595.237 0.173346 -4.1724 0
M  V30 6043 N 595.674 1.31259 -0.872281 0
M  V30 6044 C 596.92 1.96913 -0.485083 0
M  V30 6045 C 597.253 1.68774 0.960667 0
M  V30 6046 O 596.528 0.985495 1.67685 0
M  V30 6047 C 596.811 3.52299 -0.745502 0
M  V30 6048 C 596.664 3.90002 -2.24095 0
M  V30 6049 C 597.983 4.39582 -0.213516 0
M  V30 6050 H 595.102 0.715252 -0.177716 0
M  V30 6051 H 597.744 1.55347 -1.09395 0
M  V30 6052 H 595.894 3.87835 -0.227276 0
M  V30 6053 H 597.566 3.64555 -2.82661 0
M  V30 6054 H 595.809 3.38526 -2.71261 0
M  V30 6055 H 596.48 4.98352 -2.37381 0
M  V30 6056 H 598.956 4.10882 -0.656902 0
M  V30 6057 H 597.832 5.47251 -0.42516 0
M  V30 6058 H 598.093 4.33158 0.884666 0
M  V30 6059 N 597.152 0.631951 1.44375 0
M  V30 6060 C 598.398 0.13697 2.02337 0
M  V30 6061 C 598.731 -1.23826 1.49602 0
M  V30 6062 O 598.006 -1.8221 0.680415 0
M  V30 6063 C 598.289 0.124536 3.59885 0
M  V30 6064 C 598.142 1.53217 4.229 0
M  V30 6065 C 599.461 -0.550481 4.36644 0
M  V30 6066 H 596.58 0.051247 0.735216 0
M  V30 6067 H 599.222 0.808581 1.71936 0
M  V30 6068 H 597.372 -0.44737 3.85916 0
M  V30 6069 H 599.044 2.15303 4.07973 0
M  V30 6070 H 597.287 2.0858 3.80364 0
M  V30 6071 H 597.958 1.4755 5.31914 0
M  V30 6072 H 600.434 -0.0641154 4.16051 0
M  V30 6073 H 599.31 -0.528371 5.46351 0
M  V30 6074 H 599.571 -1.62097 4.11311 0
M  V30 6075 N 598.631 -1.53133 0.372548 0
M  V30 6076 C 600.042 -1.86404 -0.105155 0
M  V30 6077 C 600.393 -1.29289 -1.47576 0
M  V30 6078 O 599.518 -0.617646 -2.07398 0
M  V30 6079 C 600.113 -3.38223 -0.197588 0
M  V30 6080 C 598.672 -3.71266 -0.619556 0
M  V30 6081 C 597.819 -2.76353 0.228919 0
M  V30 6082 H 600.77 -1.47282 0.591077 0
M  V30 6083 H 600.791 -3.66577 -1.01987 0
M  V30 6084 H 600.303 -3.79763 0.800099 0
M  V30 6085 H 598.404 -3.35287 -1.62522 0
M  V30 6086 H 598.517 -4.77515 -0.389332 0
M  V30 6087 H 596.881 -2.52888 -0.303271 0
M  V30 6088 H 597.664 -3.20728 1.22428 0
M  V30 6089 N 600.109 -0.101901 -1.5727 0
M  V30 6090 C 601.52 0.426173 -1.81771 0
M  V30 6091 C 601.871 1.67725 -1.01797 0
M  V30 6092 O 600.996 2.14958 -0.249386 0
M  V30 6093 C 601.591 0.779962 -3.297 0
M  V30 6094 C 600.15 1.25275 -3.54941 0
M  V30 6095 C 599.297 0.252814 -2.76145 0
M  V30 6096 H 602.248 -0.32726 -1.55289 0
M  V30 6097 H 602.269 1.63891 -3.43395 0
M  V30 6098 H 601.781 -0.130778 -3.8788 0
M  V30 6099 H 599.882 2.18097 -3.021 0
M  V30 6100 H 599.995 1.20988 -4.63572 0
M  V30 6101 H 598.359 0.736362 -2.43823 0
M  V30 6102 H 599.142 -0.650724 -3.37076 0
M  V30 6103 N 601.587 1.56661 0.17182 0
M  V30 6104 C 602.815 1.861 0.904115 0
M  V30 6105 C 603.23 0.687227 1.75848 0
M  V30 6106 O 602.587 -0.343671 1.79235 0
M  V30 6107 C 602.638 3.14568 1.78127 0
M  V30 6108 O 602.359 4.27422 0.961366 0
M  V30 6109 C 603.86 3.5735 2.62327 0
M  V30 6110 H 601.08 0.617445 0.262684 0
M  V30 6111 H 603.624 2.03775 0.172068 0
M  V30 6112 H 601.779 2.98721 2.46666 0
M  V30 6113 H 602.193 5.00725 1.56123 0
M  V30 6114 H 603.667 4.50144 3.1949 0
M  V30 6115 H 604.144 2.81445 3.37173 0
M  V30 6116 H 604.75 3.75807 1.99121 0
M  V30 6117 N 603.065 -0.440357 1.51323 0
M  V30 6118 C 604.313 -1.18769 1.63518 0
M  V30 6119 C 604.634 -1.91793 0.352201 0
M  V30 6120 O 603.904 -1.85432 -0.631811 0
M  V30 6121 H 602.484 -0.441408 0.602634 0
M  V30 6122 H 605.146 -0.505162 1.8824 0
M  V30 6123 H 604.242 -1.91892 2.46138 0
M  V30 6124 N 604.543 -1.41418 -0.695603 0
M  V30 6125 C 605.954 -1.36335 -1.27552 0
M  V30 6126 C 606.305 -0.0464336 -1.96145 0
M  V30 6127 O 605.43 0.855304 -1.9878 0
M  V30 6128 C 606.025 -2.46941 -2.3196 0
M  V30 6129 C 604.584 -2.45256 -2.85529 0
M  V30 6130 C 603.731 -2.2679 -1.59566 0
M  V30 6131 H 606.682 -1.50934 -0.490362 0
M  V30 6132 H 606.703 -2.15997 -3.1325 0
M  V30 6133 H 606.215 -3.42775 -1.82008 0
M  V30 6134 H 604.316 -1.53179 -3.39657 0
M  V30 6135 H 604.429 -3.41565 -3.35961 0
M  V30 6136 H 602.793 -1.74667 -1.85374 0
M  V30 6137 H 603.576 -3.24651 -1.1161 0
M  V30 6138 N 606.021 0.929856 -1.27246 0
M  V30 6139 C 607.269 1.674 -1.13233 0
M  V30 6140 C 607.59 1.92311 0.322744 0
M  V30 6141 O 606.86 1.52784 1.22612 0
M  V30 6142 H 605.44 0.620411 -0.416052 0
M  V30 6143 H 608.102 1.11663 -1.59741 0
M  V30 6144 H 607.198 2.64308 -1.65975 0
M  V30 6145 N 607.499 1.09233 1.13605 0
M  V30 6146 C 608.432 0.6739 2.18023 0
M  V30 6147 C 609.41 -0.318603 1.59448 0
M  V30 6148 O 610.594 -0.220452 1.87206 0
M  V30 6149 C 607.721 -0.00751458 3.38699 0
M  V30 6150 C 606.767 0.946481 4.15865 0
M  V30 6151 S 607.6 2.45753 4.75779 0
M  V30 6152 C 608.756 1.78846 5.99804 0
M  V30 6153 H 608.989 1.55846 2.53178 0
M  V30 6154 H 606.522 0.908118 1.2487 0
M  V30 6155 H 608.48 -0.394368 4.08601 0
M  V30 6156 H 607.141 -0.868693 3.01849 0
M  V30 6157 H 606.334 0.416742 5.02274 0
M  V30 6158 H 605.936 1.27464 3.51609 0
M  V30 6159 H 608.228 1.11135 6.68323 0
M  V30 6160 H 609.171 2.63163 6.57382 0
M  V30 6161 H 609.579 1.25823 5.50299 0
M  V30 6162 N 608.977 -1.30795 0.87923 0
M  V30 6163 C 609.94 -2.26563 0.346676 0
M  V30 6164 C 610.94 -1.52578 -0.507597 0
M  V30 6165 O 612.13 -1.71318 -0.315575 0
M  V30 6166 C 609.262 -3.37115 -0.506611 0
M  V30 6167 H 610.455 -2.75183 1.19223 0
M  V30 6168 H 608.008 -1.41886 0.655598 0
M  V30 6169 H 608.743 -2.93802 -1.37299 0
M  V30 6170 H 608.528 -3.91959 0.105218 0
M  V30 6171 H 610.018 -4.08412 -0.871192 0
M  V30 6172 N 610.455 -0.639598 -1.44038 0
M  V30 6173 C 611.866 -0.228866 -1.85292 0
M  V30 6174 C 612.217 1.22161 -1.53529 0
M  V30 6175 O 611.342 1.93064 -0.977518 0
M  V30 6176 C 611.937 -0.408592 -3.36327 0
M  V30 6177 C 610.496 -0.0522953 -3.76364 0
M  V30 6178 C 609.643 -0.717959 -2.67844 0
M  V30 6179 H 612.594 -0.844194 -1.34384 0
M  V30 6180 H 612.615 0.349968 -3.78887 0
M  V30 6181 H 612.127 -1.46435 -3.59414 0
M  V30 6182 H 610.228 1.0014 -3.58891 0
M  V30 6183 H 610.341 -0.468261 -4.76806 0
M  V30 6184 H 608.705 -0.152459 -2.54243 0
M  V30 6185 H 609.488 -1.77648 -2.93762 0
M  V30 6186 N 611.933 1.52934 -0.380664 0
M  V30 6187 C 613.179 2.01765 0.20458 0
M  V30 6188 C 613.512 1.26696 1.47179 0
M  V30 6189 O 612.787 0.364936 1.91046 0
M  V30 6190 C 613.07 3.56869 0.481269 0
M  V30 6191 C 612.923 4.42617 -0.800629 0
M  V30 6192 C 614.242 4.2121 1.27554 0
M  V30 6193 H 611.361 0.733388 0.0728803 0
M  V30 6194 H 614.003 1.83068 -0.50853 0
M  V30 6195 H 612.153 3.72932 1.08875 0
M  V30 6196 H 613.825 4.38323 -1.43773 0
M  V30 6197 H 612.068 4.09977 -1.4178 0
M  V30 6198 H 612.739 5.49134 -0.561791 0
M  V30 6199 H 615.215 4.09072 0.761514 0
M  V30 6200 H 614.091 5.29732 1.43788 0
M  V30 6201 H 614.352 3.78269 2.28833 0
M  V30 6202 N 613.412 0.11024 1.57214 0
M  V30 6203 C 614.823 -0.416527 1.81994 0
M  V30 6204 C 615.174 -1.67183 1.02686 0
M  V30 6205 O 614.299 -2.14823 0.260782 0
M  V30 6206 C 614.894 -0.762466 3.30109 0
M  V30 6207 C 613.453 -1.23391 3.556 0
M  V30 6208 C 612.6 -0.238166 2.76275 0
M  V30 6209 H 615.551 0.335491 1.55113 0
M  V30 6210 H 615.572 -1.62068 3.44259 0
M  V30 6211 H 615.084 0.151346 3.87805 0
M  V30 6212 H 613.185 -2.16492 3.03253 0
M  V30 6213 H 613.298 -1.18528 4.64207 0
M  V30 6214 H 611.662 -0.723421 2.4421 0
M  V30 6215 H 612.445 0.668591 3.36727 0
M  V30 6216 N 614.89 -1.56749 -0.16351 0
M  V30 6217 C 616.118 -1.86577 -0.894233 0
M  V30 6218 C 616.533 -0.696543 -1.75481 0
M  V30 6219 O 615.89 0.334161 -1.79415 0
M  V30 6220 C 615.941 -3.15508 -1.76456 0
M  V30 6221 O 615.662 -4.27926 -0.938685 0
M  V30 6222 C 617.163 -3.58737 -2.60428 0
M  V30 6223 H 614.383 -0.618829 -0.259405 0
M  V30 6224 H 616.927 -2.03863 -0.161259 0
M  V30 6225 H 615.082 -3.00025 -2.45079 0
M  V30 6226 H 615.496 -5.01546 -1.53465 0
M  V30 6227 H 616.97 -4.51832 -3.17099 0
M  V30 6228 H 617.447 -2.83229 -3.35675 0
M  V30 6229 H 618.053 -3.76858 -1.97125 0
M  V30 6230 N 616.368 0.432326 -1.51554 0
M  V30 6231 C 617.616 1.17901 -1.64146 0
M  V30 6232 C 617.937 1.91604 -0.362367 0
M  V30 6233 O 617.207 1.85764 0.621968 0
M  V30 6234 H 615.787 0.438206 -0.604966 0
M  V30 6235 H 618.449 0.495172 -1.88505 0
M  V30 6236 H 617.545 1.90584 -2.47152 0
M  V30 6237 N 617.846 1.41785 0.688094 0
M  V30 6238 C 619.092 1.41753 1.4503 0
M  V30 6239 C 619.425 0.0290745 1.94178 0
M  V30 6240 O 618.7 -0.944456 1.7003 0
M  V30 6241 C 618.983 2.43069 2.65686 0
M  V30 6242 C 618.836 3.91053 2.22256 0
M  V30 6243 C 620.155 2.41543 3.67893 0
M  V30 6244 H 617.274 0.516202 0.526027 0
M  V30 6245 H 619.916 1.73111 0.783105 0
M  V30 6246 H 618.066 2.1646 3.2261 0
M  V30 6247 H 619.738 4.28594 1.70602 0
M  V30 6248 H 617.981 4.05559 1.53963 0
M  V30 6249 H 618.652 4.57501 3.08863 0
M  V30 6250 H 621.128 2.65175 3.20658 0
M  V30 6251 H 620.004 3.14434 4.49914 0
M  V30 6252 H 620.265 1.43666 4.18106 0
M  V30 6253 N 619.324 -0.923095 1.27737 0
M  V30 6254 C 620.571 -1.67127 1.14345 0
M  V30 6255 C 620.899 -1.92017 -0.30982 0
M  V30 6256 O 620.154 -1.51185 -1.24264 0
M  V30 6257 C 620.453 -3.04125 1.8773 0
M  V30 6258 C 620.119 -2.98929 3.37568 0
M  V30 6259 C 618.781 -2.9722 3.78436 0
M  V30 6260 C 621.133 -2.89875 4.33154 0
M  V30 6261 C 618.461 -2.84244 5.13247 0
M  V30 6262 C 620.813 -2.7844 5.68026 0
M  V30 6263 C 619.477 -2.75083 6.08182 0
M  V30 6264 H 618.747 -0.611562 0.418417 0
M  V30 6265 H 621.394 -1.07618 1.584 0
M  V30 6266 H 619.699 -3.67366 1.36196 0
M  V30 6267 H 621.396 -3.609 1.74792 0
M  V30 6268 H 617.986 -3.0105 3.05069 0
M  V30 6269 H 622.17 -2.9029 4.02548 0
M  V30 6270 H 617.426 -2.80034 5.43499 0
M  V30 6271 H 621.6 -2.70401 6.4176 0
M  V30 6272 H 619.227 -2.64786 7.12596 0
M  V30 6273 N 620.802 -1.09834 -1.13024 0
M  V30 6274 C 622.03 -0.858902 -1.8823 0
M  V30 6275 C 622.445 0.590164 -1.79339 0
M  V30 6276 O 621.802 1.4065 -1.16292 0
M  V30 6277 C 621.853 -1.29066 -3.37675 0
M  V30 6278 O 621.574 -2.6829 -3.46341 0
M  V30 6279 C 623.075 -1.08421 -4.29837 0
M  V30 6280 H 620.295 -0.308713 -0.595766 0
M  V30 6281 H 622.839 -1.4614 -1.4305 0
M  V30 6282 H 620.994 -0.731961 -3.80422 0
M  V30 6283 H 621.408 -2.86598 -4.39274 0
M  V30 6284 H 622.882 -1.43553 -5.33007 0
M  V30 6285 H 623.359 -0.0223315 -4.39194 0
M  V30 6286 H 623.965 -1.62907 -3.92863 0
M  V30 6287 N 622.28 1.30327 -0.886154 0
M  V30 6288 C 623.557 1.90922 -0.425217 0
M  V30 6289 C 623.937 1.80533 1.09413 0
M  V30 6290 O 623.285 1.2233 1.92996 0
M  V30 6291 C 623.495 3.36529 -0.924638 0
M  V30 6292 C 624.843 4.13598 -0.960305 0
M  V30 6293 O 625.867 3.45377 -0.871382 0
M  V30 6294 O 624.726 5.35482 -1.09184 0
M  V30 6295 H 621.82 0.81668 -0.130238 0
M  V30 6296 H 624.366 1.38886 -0.975132 0
M  V30 6297 H 623.138 3.38181 -1.96849 0
M  V30 6298 H 622.761 3.96021 -0.353955 0
M  V30 6299 N 623.758 0.647228 1.43697 0
M  V30 6300 C 625.007 0.155552 2.01099 0
M  V30 6301 C 625.32 -1.23569 1.51624 0
M  V30 6302 O 626.526 -1.82226 2.01261 0
M  V30 6303 C 624.982 0.227296 3.59182 0
M  V30 6304 C 624.59 1.62086 4.17651 0
M  V30 6305 C 626.334 -0.207085 4.23995 0
M  V30 6306 C 624.241 1.64685 5.68008 0
M  V30 6307 H 623.171 0.0543895 0.752036 0
M  V30 6308 H 625.822 0.808386 1.64734 0
M  V30 6309 H 624.204 -0.492937 3.9292 0
M  V30 6310 H 625.378 2.36597 3.95422 0
M  V30 6311 H 623.693 2.0007 3.65186 0
M  V30 6312 H 626.29 -0.207426 5.34298 0
M  V30 6313 H 626.633 -1.23742 3.97484 0
M  V30 6314 H 627.166 0.461193 3.95118 0
M  V30 6315 H 623.905 2.65608 5.99277 0
M  V30 6316 H 623.425 0.944914 5.9231 0
M  V30 6317 H 625.104 1.38792 6.31938 0
M  V30 6318 N 625.236 -1.5273 0.388769 0
M  V30 6319 C 626.647 -1.86505 -0.0853788 0
M  V30 6320 C 626.998 -1.30847 -1.46197 0
M  V30 6321 O 626.123 -0.639609 -2.06732 0
M  V30 6322 C 626.718 -3.38414 -0.161703 0
M  V30 6323 C 625.277 -3.71902 -0.580144 0
M  V30 6324 C 624.424 -2.76095 0.258218 0
M  V30 6325 H 627.375 -1.46647 0.606665 0
M  V30 6326 H 627.396 -3.67638 -0.980936 0
M  V30 6327 H 626.908 -3.78893 0.840333 0
M  V30 6328 H 625.009 -3.36992 -1.58957 0
M  V30 6329 H 625.122 -4.77902 -0.338663 0
M  V30 6330 H 623.486 -2.53195 -0.276432 0
M  V30 6331 H 624.269 -3.19411 1.25822 0
M  V30 6332 N 626.714 -0.118576 -1.57153 0
M  V30 6333 C 627.963 0.539339 -1.94355 0
M  V30 6334 C 628.276 1.67858 -1.00415 0
M  V30 6335 O 629.482 2.39922 -1.27081 0
M  V30 6336 C 627.938 1.01082 -3.45414 0
M  V30 6337 C 627.546 -0.0999402 -4.47889 0
M  V30 6338 C 629.29 1.64013 -3.91535 0
M  V30 6339 C 627.197 0.388212 -5.90124 0
M  V30 6340 H 626.127 0.205247 -0.725527 0
M  V30 6341 H 628.778 -0.19836 -1.82425 0
M  V30 6342 H 627.16 1.80292 -3.52577 0
M  V30 6343 H 628.334 -0.876189 -4.52393 0
M  V30 6344 H 626.649 -0.635885 -4.11516 0
M  V30 6345 H 629.246 2.01649 -4.95219 0
M  V30 6346 H 629.589 2.51836 -3.31488 0
M  V30 6347 H 630.122 0.913439 -3.87171 0
M  V30 6348 H 626.861 -0.453963 -6.53926 0
M  V30 6349 H 626.381 1.13095 -5.89041 0
M  V30 6350 H 628.06 0.849574 -6.41398 0
M  V30 6351 N 628.193 1.56834 0.155195 0
M  V30 6352 C 629.418 1.87412 0.888337 0
M  V30 6353 C 629.843 0.70671 1.74319 0
M  V30 6354 O 629.201 -0.343892 1.78009 0
M  V30 6355 C 629.249 3.1652 1.72765 0
M  V30 6356 O 628.353 2.99877 2.83103 0
M  V30 6357 H 627.694 0.615983 0.247914 0
M  V30 6358 H 630.224 2.04061 0.148478 0
M  V30 6359 H 630.234 3.48334 2.12433 0
M  V30 6360 H 628.909 4.01094 1.09985 0
M  V30 6361 H 627.486 2.79453 2.46902 0
M  V30 6362 N 629.671 -0.424282 1.51781 0
M  V30 6363 C 630.619 -1.53649 1.74628 0
M  V30 6364 C 631.613 -1.57923 0.612922 0
M  V30 6365 O 632.819 -1.61511 0.794618 0
M  V30 6366 H 629.194 -0.510706 0.551981 0
M  V30 6367 H 631.165 -1.31558 2.67834 0
M  V30 6368 C 629.914 -2.91177 1.9003 0
M  V30 6369 H 629.237 -2.88625 2.76651 0
M  V30 6370 H 630.677 -3.6833 2.10021 0
M  V30 6371 C 629.136 -3.30303 0.663435 0
M  V30 6372 O 629.666 -4.01315 -0.175812 0
M  V30 6373 N 627.872 -2.86201 0.503723 0
M  V30 6374 H 627.419 -2.28583 1.18776 0
M  V30 6375 H 627.377 -3.12741 -0.322575 0
M  V30 6376 N 631.149 -1.42148 -0.680565 0
M  V30 6377 C 632.398 -1.41604 -1.43636 0
M  V30 6378 C 632.711 -0.0337887 -1.95571 0
M  V30 6379 O 633.917 0.0942588 -2.71336 0
M  V30 6380 C 632.373 -2.49056 -2.59806 0
M  V30 6381 C 631.981 -3.9326 -2.14594 0
M  V30 6382 C 633.725 -2.5767 -3.37352 0
M  V30 6383 C 631.632 -4.92232 -3.27813 0
M  V30 6384 H 630.562 -0.526656 -0.539583 0
M  V30 6385 H 633.213 -1.68033 -0.737369 0
M  V30 6386 H 631.595 -2.15782 -3.32045 0
M  V30 6387 H 632.769 -4.35858 -1.49546 0
M  V30 6388 H 631.084 -3.88443 -1.50002 0
M  V30 6389 H 633.681 -3.28794 -4.21662 0
M  V30 6390 H 634.024 -1.61837 -3.83555 0
M  V30 6391 H 634.557 -2.90109 -2.72179 0
M  V30 6392 H 631.296 -5.89522 -2.86607 0
M  V30 6393 H 630.816 -4.5427 -3.91661 0
M  V30 6394 H 632.495 -5.13684 -3.93367 0
M  V30 6395 N 632.627 0.916307 -1.28225 0
M  V30 6396 C 634.043 1.19425 -1.05876 0
M  V30 6397 C 634.243 2.005 0.2005 0
M  V30 6398 O 633.299 2.35806 0.902873 0
M  V30 6399 C 634.612 1.93133 -2.30478 0
M  V30 6400 C 636.16 2.06026 -2.35632 0
M  V30 6401 C 636.635 2.83141 -3.59994 0
M  V30 6402 N 638.126 2.90704 -3.60618 0
M  V30 6403 C 638.861 3.50865 -4.53521 0
M  V30 6404 N 638.357 4.12327 -5.56739 0
M  V30 6405 N 640.15 3.48379 -4.41122 0
M  V30 6406 H 632.301 0.37496 -2.09064 0
M  V30 6407 H 634.564 0.228531 -0.920042 0
M  V30 6408 H 634.27 1.40985 -3.22205 0
M  V30 6409 H 634.144 2.93696 -2.36691 0
M  V30 6410 H 636.531 2.57355 -1.44404 0
M  V30 6411 H 636.612 1.04647 -2.33415 0
M  V30 6412 H 636.256 2.32492 -4.51564 0
M  V30 6413 H 636.186 3.84829 -3.59464 0
M  V30 6414 H 638.677 2.47034 -2.85977 0
M  V30 6415 H 638.99 4.56205 -6.23776 0
M  V30 6416 H 637.335 4.10839 -5.60568 0
M  V30 6417 H 640.526 2.99572 -3.59686 0
M  V30 6418 H 640.699 3.94974 -5.13712 0
M  V30 6419 N 634.105 1.10431 1.1244 0
M  V30 6420 C 635.521 0.836096 1.35947 0
M  V30 6421 C 635.721 -0.544475 1.94004 0
M  V30 6422 O 634.777 -1.29735 2.16622 0
M  V30 6423 C 636.09 1.93575 2.30107 0
M  V30 6424 C 637.638 1.9642 2.43697 0
M  V30 6425 C 638.113 3.05559 3.41171 0
M  V30 6426 N 639.604 3.04865 3.48728 0
M  V30 6427 C 640.339 3.85954 4.24061 0
M  V30 6428 N 639.835 4.76977 5.02458 0
M  V30 6429 N 641.628 3.74172 4.19466 0
M  V30 6430 H 633.779 1.9942 0.731124 0
M  V30 6431 H 636.042 0.866607 0.384312 0
M  V30 6432 H 635.748 2.92943 1.94621 0
M  V30 6433 H 635.622 1.8229 3.30227 0
M  V30 6434 H 638.009 0.97685 2.78463 0
M  V30 6435 H 638.09 2.11782 1.43465 0
M  V30 6436 H 637.734 4.04513 3.07135 0
M  V30 6437 H 637.664 2.87438 4.41234 0
M  V30 6438 H 640.155 2.38908 2.92799 0
M  V30 6439 H 640.468 5.35409 5.57277 0
M  V30 6440 H 638.813 4.81006 5.01655 0
M  V30 6441 H 642.004 3.02412 3.57302 0
M  V30 6442 H 642.177 4.37602 4.77921 0
M  V30 6443 N 635.583 -1.29855 0.893053 0
M  V30 6444 C 636.829 -1.96116 0.516349 0
M  V30 6445 C 637.162 -1.70281 -0.933695 0
M  V30 6446 O 636.437 -1.01205 -1.66096 0
M  V30 6447 C 636.72 -3.51068 0.801455 0
M  V30 6448 C 636.573 -3.86387 2.30272 0
M  V30 6449 C 637.892 -4.39186 0.283423 0
M  V30 6450 H 635.011 -0.712335 0.189072 0
M  V30 6451 H 637.653 -1.53587 1.11852 0
M  V30 6452 H 635.803 -3.87424 0.288949 0
M  V30 6453 H 637.475 -3.60012 2.88425 0
M  V30 6454 H 635.718 -3.34167 2.76613 0
M  V30 6455 H 636.389 -4.94512 2.45279 0
M  V30 6456 H 638.865 -4.09785 0.722187 0
M  V30 6457 H 637.741 -5.46505 0.512169 0
M  V30 6458 H 638.002 -4.34511 -0.815643 0
M  V30 6459 N 637.061 -0.65484 -1.43351 0
M  V30 6460 C 638.31 -0.166215 -2.01014 0
M  V30 6461 C 638.623 1.22764 -1.52278 0
M  V30 6462 O 639.829 1.81156 -2.02224 0
M  V30 6463 C 638.285 -0.246341 -3.59056 0
M  V30 6464 C 637.893 -1.64299 -4.16785 0
M  V30 6465 C 639.637 0.184597 -4.24098 0
M  V30 6466 C 637.544 -1.67695 -5.67126 0
M  V30 6467 H 636.474 -0.0583769 -0.751737 0
M  V30 6468 H 639.125 -0.817111 -1.64303 0
M  V30 6469 H 637.507 0.472092 -3.93176 0
M  V30 6470 H 638.681 -2.3869 -3.94162 0
M  V30 6471 H 636.996 -2.02004 -3.6412 0
M  V30 6472 H 639.593 0.179088 -5.344 0
M  V30 6473 H 639.936 1.21632 -3.98135 0
M  V30 6474 H 640.469 -0.482141 -3.94867 0
M  V30 6475 H 637.208 -2.68783 -5.9786 0
M  V30 6476 H 636.728 -0.976313 -5.91801 0
M  V30 6477 H 638.407 -1.42142 -6.31193 0
M  V30 6478 N 638.539 1.52521 -0.396863 0
M  V30 6479 C 639.502 2.2527 0.422604 0
M  V30 6480 C 640.502 1.27184 0.983913 0
M  V30 6481 O 641.692 1.51222 0.864723 0
M  V30 6482 C 638.824 3.01356 1.59365 0
M  V30 6483 H 640.017 2.99133 -0.214416 0
M  V30 6484 H 637.57 1.55587 -0.149128 0
M  V30 6485 H 638.305 2.31813 2.26789 0
M  V30 6486 H 638.09 3.73357 1.19779 0
M  V30 6487 H 639.58 3.56571 2.17363 0
M  V30 6488 N 640.017 0.126909 1.57088 0
M  V30 6489 C 640.949 -0.850973 2.12817 0
M  V30 6490 C 641.962 -1.22457 1.07276 0
M  V30 6491 O 643.151 -1.17215 1.34622 0
M  V30 6492 C 640.251 -2.15039 2.61938 0
M  V30 6493 C 639.424 -1.94726 3.91664 0
M  V30 6494 C 638.483 -3.0847 4.26301 0
M  V30 6495 O 637.509 -2.81038 4.94981 0
M  V30 6496 N 638.711 -4.35116 3.84259 0
M  V30 6497 H 641.476 -0.3748 2.97347 0
M  V30 6498 H 639.037 -0.0572793 1.61799 0
M  V30 6499 H 641.029 -2.90141 2.82135 0
M  V30 6500 H 639.599 -2.5398 1.82244 0
M  V30 6501 H 638.819 -1.03772 3.80296 0
M  V30 6502 H 640.107 -1.78469 4.76473 0
M  V30 6503 H 639.505 -4.60276 3.2888 0
M  V30 6504 H 638.062 -5.07064 4.09548 0
M  V30 6505 N 641.495 -1.56914 -0.146875 0
M  V30 6506 C 642.911 -1.51582 -0.499518 0
M  V30 6507 C 643.111 -0.83535 -1.83369 0
M  V30 6508 O 642.167 -0.405932 -2.49216 0
M  V30 6509 C 643.48 -2.96349 -0.509711 0
M  V30 6510 C 645.028 -3.07288 -0.595217 0
M  V30 6511 C 645.503 -4.53562 -0.636071 0
M  V30 6512 N 646.994 -4.57906 -0.69829 0
M  V30 6513 C 647.729 -5.68462 -0.750886 0
M  V30 6514 N 647.225 -6.88588 -0.76282 0
M  V30 6515 N 649.018 -5.56496 -0.791777 0
M  V30 6516 H 641.169 -1.99547 0.727656 0
M  V30 6517 H 643.432 -0.910113 0.265327 0
M  V30 6518 H 643.138 -3.4939 0.402409 0
M  V30 6519 H 643.012 -3.52307 -1.34758 0
M  V30 6520 H 645.399 -2.54266 -1.49776 0
M  V30 6521 H 645.48 -2.54373 0.2698 0
M  V30 6522 H 645.124 -5.07222 0.262313 0
M  V30 6523 H 645.054 -5.04259 -1.51758 0
M  V30 6524 H 647.545 -3.71429 -0.696362 0
M  V30 6525 H 647.858 -7.68598 -0.804804 0
M  V30 6526 H 646.203 -6.91148 -0.730694 0
M  V30 6527 H 649.394 -4.61562 -0.779624 0
M  V30 6528 H 649.567 -6.42671 -0.829301 0
M  V30 6529 N 642.974 0.416227 -1.52004 0
M  V30 6530 C 643.904 1.51365 -1.77795 0
M  V30 6531 C 644.885 1.58059 -0.628601 0
M  V30 6532 O 646.07 1.73447 -0.873478 0
M  V30 6533 C 643.2 2.89256 -1.92219 0
M  V30 6534 C 642.154 2.97415 -3.0778 0
M  V30 6535 C 641.48 4.37492 -3.07417 0
M  V30 6536 C 642.78 2.69551 -4.47369 0
M  V30 6537 H 644.474 1.30033 -2.69688 0
M  V30 6538 H 642.02 0.624112 -1.29772 0
M  V30 6539 H 643.973 3.66008 -2.08845 0
M  V30 6540 H 642.697 3.11866 -0.969917 0
M  V30 6541 H 641.356 2.23107 -2.90893 0
M  V30 6542 H 641.004 4.571 -2.09925 0
M  V30 6543 H 640.704 4.43877 -3.85029 0
M  V30 6544 H 642.228 5.16188 -3.26162 0
M  V30 6545 H 643.642 3.36028 -4.64497 0
M  V30 6546 H 642.039 2.87321 -5.26846 0
M  V30 6547 H 643.109 1.65029 -4.55953 0
M  V30 6548 N 644.452 1.42507 0.673017 0
M  V30 6549 C 645.385 1.40557 1.79774 0
M  V30 6550 C 646.363 0.269606 1.60349 0
M  V30 6551 O 647.547 0.460105 1.82798 0
M  V30 6552 C 644.674 1.19815 3.168 0
M  V30 6553 C 643.72 2.36429 3.5497 0
M  V30 6554 S 644.553 3.98963 3.57196 0
M  V30 6555 C 645.709 3.80567 4.9691 0
M  V30 6556 H 645.942 2.35734 1.81154 0
M  V30 6557 H 643.475 1.293 0.843846 0
M  V30 6558 H 645.433 1.08535 3.95892 0
M  V30 6559 H 644.094 0.262215 3.13004 0
M  V30 6560 H 643.287 2.17669 4.54573 0
M  V30 6561 H 642.889 2.44233 2.83242 0
M  V30 6562 H 645.181 3.41668 5.85038 0
M  V30 6563 H 646.124 4.79852 5.20718 0
M  V30 6564 H 646.532 3.13399 4.69512 0
M  V30 6565 N 645.93 -0.909495 1.28709 0
M  V30 6566 C 646.862 -2.01729 1.08804 0
M  V30 6567 C 647.875 -1.62755 0.0384739 0
M  V30 6568 O 649.064 -1.76259 0.281977 0
M  V30 6569 C 646.164 -3.32952 0.63217 0
M  V30 6570 C 645.337 -4.00512 1.75809 0
M  V30 6571 C 644.396 -5.10019 1.29488 0
M  V30 6572 O 643.422 -5.32986 1.99787 0
M  V30 6573 N 644.624 -5.80278 0.1604 0
M  V30 6574 H 647.389 -2.19362 2.04207 0
M  V30 6575 H 644.95 -1.08106 1.20518 0
M  V30 6576 H 646.942 -4.03543 0.305802 0
M  V30 6577 H 645.512 -3.11759 -0.229134 0
M  V30 6578 H 644.732 -3.23413 2.25383 0
M  V30 6579 H 646.02 -4.42395 2.51325 0
M  V30 6580 H 645.418 -5.64094 -0.425937 0
M  V30 6581 H 643.975 -6.51713 -0.106663 0
M  V30 6582 N 647.408 -1.11026 -1.11852 0
M  V30 6583 C 648.633 -0.879064 -1.87849 0
M  V30 6584 C 649.058 0.565406 -1.79401 0
M  V30 6585 O 648.416 1.39886 -1.15333 0
M  V30 6586 C 648.464 -1.33985 -3.34784 0
M  V30 6587 O 647.568 -0.508803 -4.09249 0
M  V30 6588 H 646.909 -0.316992 -0.583448 0
M  V30 6589 H 649.439 -1.47863 -1.41413 0
M  V30 6590 H 649.449 -1.33248 -3.85628 0
M  V30 6591 H 648.124 -2.39172 -3.40249 0
M  V30 6592 H 646.701 -0.581913 -3.68332 0
M  V30 6593 N 648.886 1.2938 -0.899927 0
M  V30 6594 C 649.833 2.27713 -0.376243 0
M  V30 6595 C 650.803 1.57016 0.541774 0
M  V30 6596 O 651.988 1.84997 0.466966 0
M  V30 6597 C 649.128 3.42889 0.39 0
M  V30 6598 C 648.241 4.28369 -0.558938 0
M  V30 6599 C 647.376 5.30726 0.224379 0
M  V30 6600 C 646.415 6.07862 -0.719068 0
M  V30 6601 N 645.552 7.02094 0.0298569 0
M  V30 6602 H 650.392 2.71888 -1.21988 0
M  V30 6603 H 647.929 1.33724 -0.612879 0
M  V30 6604 H 649.887 4.08443 0.850314 0
M  V30 6605 H 648.517 2.99743 1.19809 0
M  V30 6606 H 647.569 3.62986 -1.13777 0
M  V30 6607 H 648.881 4.82068 -1.2811 0
M  V30 6608 H 648.035 6.02098 0.745881 0
M  V30 6609 H 646.774 4.77759 0.979674 0
M  V30 6610 H 645.779 5.35353 -1.25207 0
M  V30 6611 H 647.004 6.62917 -1.4737 0
M  V30 6612 H 644.95 6.51496 0.767415 0
M  V30 6613 H 644.867 7.5335 -0.632391 0
M  V30 6614 H 646.135 7.77685 0.531615 0
M  V30 6615 N 650.364 0.662433 1.43002 0
M  V30 6616 C 651.296 -0.062326 2.29115 0
M  V30 6617 C 652.309 -0.777926 1.43011 0
M  V30 6618 O 653.498 -0.634146 1.66856 0
M  V30 6619 C 650.598 -1.11163 3.2015 0
M  V30 6620 C 649.771 -0.472327 4.34842 0
M  V30 6621 C 648.83 -1.41974 5.06685 0
M  V30 6622 O 647.856 -0.924795 5.61637 0
M  V30 6623 N 649.058 -2.75345 5.11043 0
M  V30 6624 H 651.823 0.676838 2.91957 0
M  V30 6625 H 649.384 0.505907 1.53793 0
M  V30 6626 H 651.376 -1.74643 3.65078 0
M  V30 6627 H 649.946 -1.75266 2.58845 0
M  V30 6628 H 649.166 0.341751 3.92716 0
M  V30 6629 H 650.454 -0.0264381 5.08793 0
M  V30 6630 H 649.852 -3.18108 4.67786 0
M  V30 6631 H 648.409 -3.34105 5.59658 0
M  V30 6632 N 651.842 -1.52309 0.404946 0
M  V30 6633 C 653.07 -2.06185 -0.171818 0
M  V30 6634 C 653.485 -1.27536 -1.39212 0
M  V30 6635 O 652.842 -0.326112 -1.79563 0
M  V30 6636 C 652.893 -3.57647 -0.526417 0
M  V30 6637 O 652.614 -4.3332 0.645417 0
M  V30 6638 C 654.115 -4.27925 -1.15736 0
M  V30 6639 H 651.335 -0.670632 -0.0222328 0
M  V30 6640 H 653.879 -1.96259 0.574692 0
M  V30 6641 H 652.034 -3.67595 -1.22282 0
M  V30 6642 H 652.448 -5.23328 0.35042 0
M  V30 6643 H 653.922 -5.35093 -1.35572 0
M  V30 6644 H 654.399 -3.84134 -2.12926 0
M  V30 6645 H 655.005 -4.22335 -0.501281 0
M  V30 6646 N 653.32 -0.135238 -1.57019 0
M  V30 6647 C 654.569 0.518694 -1.94917 0
M  V30 6648 C 654.882 1.66783 -1.0219 0
M  V30 6649 O 656.088 2.38561 -1.29619 0
M  V30 6650 C 654.544 0.974123 -3.46466 0
M  V30 6651 C 654.152 -0.147439 -4.47757 0
M  V30 6652 C 655.896 1.59851 -3.93253 0
M  V30 6653 C 653.803 0.325599 -5.90503 0
M  V30 6654 H 652.733 0.19754 -0.727663 0
M  V30 6655 H 655.384 -0.217698 -1.82204 0
M  V30 6656 H 653.766 1.76542 -3.5447 0
M  V30 6657 H 654.94 -0.924122 -4.51438 0
M  V30 6658 H 653.255 -0.679496 -4.10818 0
M  V30 6659 H 655.852 1.96385 -4.9733 0
M  V30 6660 H 656.195 2.48306 -3.3414 0
M  V30 6661 H 656.728 0.872323 -3.88118 0
M  V30 6662 H 653.467 -0.523295 -6.53408 0
M  V30 6663 H 652.987 1.06841 -5.90208 0
M  V30 6664 H 654.666 0.781498 -6.42263 0
M  V30 6665 N 654.798 1.5699 0.138552 0
M  V30 6666 C 656.209 1.73171 0.697754 0
M  V30 6667 C 656.56 0.750952 1.8126 0
M  V30 6668 O 655.685 -0.080549 2.1625 0
M  V30 6669 C 656.28 3.13996 1.27248 0
M  V30 6670 C 654.839 3.3175 1.77816 0
M  V30 6671 C 653.986 2.69084 0.669991 0
M  V30 6672 H 656.937 1.5846 -0.0871979 0
M  V30 6673 H 656.958 3.14463 2.14227 0
M  V30 6674 H 656.47 3.85354 0.460855 0
M  V30 6675 H 654.571 2.65403 2.61519 0
M  V30 6676 H 654.684 4.39768 1.90107 0
M  V30 6677 H 653.048 2.29782 1.09874 0
M  V30 6678 H 653.831 3.43053 -0.130329 0
M  V30 6679 N 656.276 -0.40816 1.52223 0
M  V30 6680 C 657.226 -1.49648 1.72016 0
M  V30 6681 C 658.21 -1.50311 0.574069 0
M  V30 6682 O 659.402 -1.56271 0.831173 0
M  V30 6683 C 656.531 -2.87566 1.87512 0
M  V30 6684 C 655.617 -2.91547 3.07995 0
M  V30 6685 N 656.008 -2.65225 4.30685 0
M  V30 6686 C 654.306 -3.22715 3.07849 0
M  V30 6687 C 655.007 -2.75799 5.12162 0
M  V30 6688 N 653.983 -3.08719 4.4743 0
M  V30 6689 H 657.785 -1.28093 2.64517 0
M  V30 6690 H 655.299 -0.61588 1.50269 0
M  V30 6691 H 657.296 -3.65899 1.99809 0
M  V30 6692 H 655.956 -3.10118 0.962114 0
M  V30 6693 H 656.967 -2.39601 4.59142 0
M  V30 6694 H 653.644 -3.50856 2.26289 0
M  V30 6695 H 655.034 -2.59155 6.1991 0
M  V30 6696 N 657.755 -1.42862 -0.66545 0
M  V30 6697 C 658.985 -1.47032 -1.45138 0
M  V30 6698 C 659.393 -0.0829977 -1.89018 0
M  V30 6699 O 658.736 0.914551 -1.59316 0
M  V30 6700 C 658.798 -2.34302 -2.72659 0
M  V30 6701 C 658.462 -3.82034 -2.50796 0
M  V30 6702 C 659.459 -4.73453 -2.14799 0
M  V30 6703 C 657.144 -4.26397 -2.655 0
M  V30 6704 C 659.138 -6.07228 -1.93785 0
M  V30 6705 C 656.825 -5.6023 -2.44103 0
M  V30 6706 C 657.823 -6.50462 -2.08299 0
M  V30 6707 O 657.511 -7.8182 -1.87116 0
M  V30 6708 H 657.243 -0.501969 -0.452772 0
M  V30 6709 H 659.797 -1.88137 -0.82423 0
M  V30 6710 H 658.027 -1.88063 -3.37889 0
M  V30 6711 H 659.716 -2.29818 -3.34572 0
M  V30 6712 H 660.482 -4.4046 -2.03026 0
M  V30 6713 H 656.361 -3.56448 -2.92345 0
M  V30 6714 H 659.905 -6.7762 -1.65763 0
M  V30 6715 H 655.802 -5.92793 -2.55475 0
M  V30 6716 H 656.57 -7.93274 -2.01639 0
M  V30 6717 N 659.233 0.902656 -1.29189 0
M  V30 6718 C 660.463 1.68394 -1.19695 0
M  V30 6719 C 660.871 1.87602 0.245384 0
M  V30 6720 O 660.214 1.41084 1.17648 0
M  V30 6721 C 660.276 3.09094 -1.83578 0
M  V30 6722 C 659.94 3.1313 -3.32864 0
M  V30 6723 C 660.937 2.93497 -4.29134 0
M  V30 6724 C 658.622 3.3529 -3.74013 0
M  V30 6725 C 660.616 2.95953 -5.64527 0
M  V30 6726 C 658.303 3.37377 -5.09529 0
M  V30 6727 C 659.301 3.1773 -6.04596 0
M  V30 6728 O 658.989 3.196 -7.37639 0
M  V30 6729 H 658.721 0.532815 -0.416034 0
M  V30 6730 H 661.275 1.1374 -1.71033 0
M  V30 6731 H 659.505 3.65338 -1.26747 0
M  V30 6732 H 661.194 3.69297 -1.68447 0
M  V30 6733 H 661.96 2.76192 -3.98677 0
M  V30 6734 H 657.839 3.49623 -3.00474 0
M  V30 6735 H 661.383 2.80536 -6.38706 0
M  V30 6736 H 657.28 3.54213 -5.39633 0
M  V30 6737 H 658.048 3.35887 -7.46406 0
M  V30 6738 N 660.711 1.11618 1.11262 0
M  V30 6739 C 661.641 0.79846 2.19424 0
M  V30 6740 C 662.622 -0.234003 1.68483 0
M  V30 6741 O 663.807 -0.0970704 1.93957 0
M  V30 6742 C 660.937 0.242892 3.4645 0
M  V30 6743 C 659.891 1.20744 4.10615 0
M  V30 6744 C 659.217 0.512494 5.32238 0
M  V30 6745 C 660.517 2.55884 4.55325 0
M  V30 6746 H 662.211 1.70286 2.46258 0
M  V30 6747 H 659.757 0.820195 1.18359 0
M  V30 6748 H 661.71 0.00840447 4.21399 0
M  V30 6749 H 660.434 -0.696811 3.1908 0
M  V30 6750 H 659.093 1.42759 3.37662 0
M  V30 6751 H 658.741 -0.432075 5.01141 0
M  V30 6752 H 658.441 1.15583 5.7612 0
M  V30 6753 H 659.965 0.286842 6.09926 0
M  V30 6754 H 661.379 2.37946 5.21588 0
M  V30 6755 H 659.776 3.16216 5.10027 0
M  V30 6756 H 660.846 3.14968 3.68678 0
M  V30 6757 N 662.189 -1.289 0.906776 0
M  V30 6758 C 663.414 -1.99939 0.551303 0
M  V30 6759 C 663.839 -1.67366 -0.858496 0
M  V30 6760 O 663.197 -0.902176 -1.57259 0
M  V30 6761 C 663.245 -3.52523 0.758937 0
M  V30 6762 O 662.349 -4.11983 -0.185308 0
M  V30 6763 H 661.69 -0.628376 0.214568 0
M  V30 6764 H 664.22 -1.64225 1.2203 0
M  V30 6765 H 664.23 -4.02522 0.666329 0
M  V30 6766 H 662.905 -3.75566 1.78671 0
M  V30 6767 H 661.482 -3.72873 -0.0445577 0
M  V30 6768 N 663.667 -0.670007 -1.42649 0
M  V30 6769 C 664.916 -0.187526 -2.00826 0
M  V30 6770 C 665.229 1.21142 -1.53571 0
M  V30 6771 O 666.435 1.79001 -2.04134 0
M  V30 6772 C 664.891 -0.284409 -3.58774 0
M  V30 6773 C 664.499 -1.6871 -4.15019 0
M  V30 6774 C 666.243 0.139605 -4.2427 0
M  V30 6775 C 664.15 -1.73701 -5.65316 0
M  V30 6776 H 663.08 -0.0663468 -0.751075 0
M  V30 6777 H 665.731 -0.834492 -1.63427 0
M  V30 6778 H 664.113 0.430364 -3.93655 0
M  V30 6779 H 665.287 -2.42857 -3.91608 0
M  V30 6780 H 663.602 -2.05855 -3.61957 0
M  V30 6781 H 666.199 0.122398 -5.3456 0
M  V30 6782 H 666.542 1.17403 -3.99402 0
M  V30 6783 H 667.075 -0.523995 -3.94334 0
M  V30 6784 H 663.814 -2.75109 -5.94975 0
M  V30 6785 H 663.334 -1.03903 -5.90732 0
M  V30 6786 H 665.013 -1.48829 -6.2965 0
M  V30 6787 N 665.145 1.52092 -0.413018 0
M  V30 6788 C 666.422 1.94356 0.22024 0
M  V30 6789 C 666.802 1.35017 1.62277 0
M  V30 6790 O 666.15 0.527511 2.22328 0
M  V30 6791 C 666.36 3.48289 0.222638 0
M  V30 6792 C 667.708 4.22313 0.440098 0
M  V30 6793 O 668.732 3.54919 0.301826 0
M  V30 6794 O 667.591 5.41829 0.712984 0
M  V30 6795 H 664.685 0.814536 0.14304 0
M  V30 6796 H 667.231 1.63083 -0.469242 0
M  V30 6797 H 666.003 3.83872 -0.758836 0
M  V30 6798 H 665.626 3.85934 0.956057 0
M  V30 6799 N 666.623 0.143563 1.56945 0
M  V30 6800 C 667.869 -0.50916 1.96304 0
M  V30 6801 C 668.202 -1.64741 1.0283 0
M  V30 6802 O 667.477 -1.94374 0.0700361 0
M  V30 6803 C 667.76 -1.0186 3.45393 0
M  V30 6804 C 667.613 0.117923 4.49645 0
M  V30 6805 C 668.932 -1.90151 3.96901 0
M  V30 6806 H 666.051 -0.183608 0.713763 0
M  V30 6807 H 668.693 0.224095 1.88674 0
M  V30 6808 H 666.843 -1.64345 3.52027 0
M  V30 6809 H 668.515 0.754145 4.55094 0
M  V30 6810 H 666.758 0.777568 4.26774 0
M  V30 6811 H 667.429 -0.280187 5.51288 0
M  V30 6812 H 669.905 -1.375 3.92725 0
M  V30 6813 H 668.781 -2.22707 5.0169 0
M  V30 6814 H 669.042 -2.83718 3.39052 0
M  V30 6815 N 668.101 -1.57061 -0.130224 0
M  V30 6816 C 669.049 -2.00486 -1.17933 0
M  V30 6817 C 670.043 -0.899933 -1.43519 0
M  V30 6818 O 671.249 -1.08514 -1.43613 0
M  V30 6819 H 667.624 -0.638441 -0.397363 0
M  V30 6820 H 669.595 -2.87848 -0.786501 0
M  V30 6821 C 668.344 -2.41565 -2.50084 0
M  V30 6822 H 667.667 -3.26148 -2.31231 0
M  V30 6823 H 669.107 -2.75757 -3.22078 0
M  V30 6824 C 667.566 -1.27485 -3.11848 0
M  V30 6825 O 668.096 -0.584688 -3.97422 0
M  V30 6826 N 666.302 -1.03478 -2.71552 0
M  V30 6827 H 665.849 -1.59779 -2.02061 0
M  V30 6828 H 665.807 -0.27341 -3.13209 0
M  V30 6829 N 669.579 0.400081 -1.52437 0
M  V30 6830 C 670.512 1.50929 -1.7116 0
M  V30 6831 C 671.49 1.52679 -0.559275 0
M  V30 6832 O 672.674 1.71251 -0.787735 0
M  V30 6833 C 669.801 2.89433 -1.75915 0
M  V30 6834 C 668.847 3.05556 -2.97553 0
M  V30 6835 S 669.68 2.77919 -4.57735 0
M  V30 6836 C 670.836 4.18636 -4.6529 0
M  V30 6837 H 671.069 1.3482 -2.64973 0
M  V30 6838 H 668.602 0.592245 -1.4259 0
M  V30 6839 H 670.56 3.69253 -1.7934 0
M  V30 6840 H 669.221 3.02877 -0.832137 0
M  V30 6841 H 668.414 4.0691 -2.97388 0
M  V30 6842 H 668.016 2.33615 -2.92062 0
M  V30 6843 H 670.308 5.12406 -4.43223 0
M  V30 6844 H 671.251 4.23821 -5.67258 0
M  V30 6845 H 671.659 4.04029 -3.94234 0
M  V30 6846 N 671.057 1.43213 0.657864 0
M  V30 6847 C 672.305 1.44298 1.41501 0
M  V30 6848 C 672.626 0.0666478 1.94886 0
M  V30 6849 O 671.896 -0.897345 1.74139 0
M  V30 6850 H 670.476 0.531257 0.525143 0
M  V30 6851 H 673.138 1.78777 0.776195 0
M  V30 6852 H 672.234 2.1528 2.25966 0
M  V30 6853 N 672.536 -0.895792 1.29666 0
M  V30 6854 C 673.446 -2.03329 1.17024 0
M  V30 6855 C 674.462 -1.73753 0.0925962 0
M  V30 6856 O 675.638 -1.99071 0.305431 0
M  V30 6857 C 672.703 -3.36072 0.851841 0
M  V30 6858 C 671.764 -3.7914 2.01373 0
M  V30 6859 C 670.997 -5.05549 1.71043 0
M  V30 6860 O 671.22 -5.66874 0.633213 0
M  V30 6861 O 670.154 -5.44764 2.5596 0
M  V30 6862 H 673.98 -2.16918 2.12556 0
M  V30 6863 H 671.565 -1.02007 1.09156 0
M  V30 6864 H 673.447 -4.15729 0.689006 0
M  V30 6865 H 672.122 -3.23616 -0.0736634 0
M  V30 6866 H 671.029 -3.00233 2.23183 0
M  V30 6867 H 672.362 -3.96186 2.92058 0
M  V30 6868 N 674.014 -1.12206 -1.10668 0
M  V30 6869 C 675.26 -0.877172 -1.82848 0
M  V30 6870 C 675.593 0.595571 -1.84842 0
M  V30 6871 O 674.868 1.44013 -1.30731 0
M  V30 6872 C 675.151 -1.44957 -3.29635 0
M  V30 6873 C 675.004 -2.99051 -3.35989 0
M  V30 6874 C 676.323 -1.10714 -4.25946 0
M  V30 6875 H 673.442 -0.320103 -0.663854 0
M  V30 6876 H 676.084 -1.38827 -1.2972 0
M  V30 6877 H 674.234 -1.01488 -3.7501 0
M  V30 6878 H 675.906 -3.51182 -2.99113 0
M  V30 6879 H 674.149 -3.34705 -2.75962 0
M  V30 6880 H 674.82 -3.34194 -4.39339 0
M  V30 6881 H 677.296 -1.48254 -3.88793 0
M  V30 6882 H 676.172 -1.5343 -5.2702 0
M  V30 6883 H 676.433 -0.019 -4.42096 0
M  V30 6884 N 675.492 1.28418 -0.913599 0
M  V30 6885 C 676.422 2.29713 -0.418847 0
M  V30 6886 C 677.403 1.62165 0.513469 0
M  V30 6887 O 678.588 1.89576 0.421235 0
M  V30 6888 C 675.718 3.45612 0.342042 0
M  V30 6889 C 674.672 4.25056 -0.501123 0
M  V30 6890 C 673.998 5.3329 0.388097 0
M  V30 6891 C 675.298 4.91814 -1.75831 0
M  V30 6892 H 676.992 2.71346 -1.26538 0
M  V30 6893 H 674.538 1.30446 -0.609903 0
M  V30 6894 H 676.491 4.15562 0.699 0
M  V30 6895 H 675.215 3.02858 1.22248 0
M  V30 6896 H 673.874 3.56833 -0.840598 0
M  V30 6897 H 673.522 4.8678 1.26707 0
M  V30 6898 H 673.222 5.87347 -0.172459 0
M  V30 6899 H 674.746 6.06088 0.74094 0
M  V30 6900 H 676.16 5.54126 -1.47026 0
M  V30 6901 H 674.557 5.55866 -2.26126 0
M  V30 6902 H 675.627 4.16313 -2.4862 0
M  V30 6903 N 676.97 0.677563 1.42291 0
M  V30 6904 C 677.9 0.014968 2.33495 0
M  V30 6905 C 678.881 -0.786376 1.50831 0
M  V30 6906 O 680.066 -0.742975 1.79426 0
M  V30 6907 C 677.196 -0.935023 3.34477 0
M  V30 6908 C 676.15 -0.242074 4.27315 0
M  V30 6909 C 675.476 -1.30519 5.18526 0
M  V30 6910 C 676.776 0.880604 5.14823 0
M  V30 6911 H 678.47 0.776671 2.89151 0
M  V30 6912 H 676.016 0.37494 1.39033 0
M  V30 6913 H 677.969 -1.40766 3.97194 0
M  V30 6914 H 676.693 -1.72818 2.77131 0
M  V30 6915 H 675.352 0.210351 3.65996 0
M  V30 6916 H 675 -2.09041 4.57505 0
M  V30 6917 H 674.7 -0.846652 5.81468 0
M  V30 6918 H 676.224 -1.7787 5.84119 0
M  V30 6919 H 677.638 0.489062 5.7121 0
M  V30 6920 H 676.035 1.26511 5.86613 0
M  V30 6921 H 677.105 1.72818 4.53059 0
M  V30 6922 N 678.448 -1.51871 0.421078 0
M  V30 6923 C 679.694 -2.02237 -0.151014 0
M  V30 6924 C 680.027 -1.30554 -1.43768 0
M  V30 6925 O 679.302 -0.41546 -1.90011 0
M  V30 6926 C 679.585 -3.5802 -0.386482 0
M  V30 6927 C 679.438 -4.40339 0.9177 0
M  V30 6928 C 680.757 -4.24444 -1.16342 0
M  V30 6929 H 677.876 -0.735062 -0.0534102 0
M  V30 6930 H 680.518 -1.81656 0.556888 0
M  V30 6931 H 678.668 -3.75688 -0.989494 0
M  V30 6932 H 680.34 -4.34357 1.55344 0
M  V30 6933 H 678.583 -4.06073 1.526 0
M  V30 6934 H 679.254 -5.47451 0.707187 0
M  V30 6935 H 681.73 -4.10948 -0.652788 0
M  V30 6936 H 680.606 -5.33358 -1.29693 0
M  V30 6937 H 680.867 -3.84204 -2.18724 0
M  V30 6938 N 679.926 -0.151884 -1.56866 0
M  V30 6939 C 681.342 0.204486 -1.58285 0
M  V30 6940 C 681.542 1.6431 -1.16639 0
M  V30 6941 O 680.598 2.37077 -0.868946 0
M  V30 6942 C 681.911 -0.0587019 -3.00643 0
M  V30 6943 C 683.459 0.00462303 -3.13 0
M  V30 6944 C 683.934 -0.231297 -4.57416 0
M  V30 6945 N 685.425 -0.178394 -4.62856 0
M  V30 6946 C 686.16 -0.335379 -5.72418 0
M  V30 6947 N 685.656 -0.550355 -6.90611 0
M  V30 6948 N 687.449 -0.272641 -5.61438 0
M  V30 6949 H 679.6 -1.09116 -1.82229 0
M  V30 6950 H 681.863 -0.432311 -0.843689 0
M  V30 6951 H 681.569 -1.05453 -3.35518 0
M  V30 6952 H 681.443 0.658508 -3.71407 0
M  V30 6953 H 683.83 0.991009 -2.77962 0
M  V30 6954 H 683.911 -0.744992 -2.44711 0
M  V30 6955 H 683.555 -1.2148 -4.93158 0
M  V30 6956 H 683.485 0.5387 -5.23837 0
M  V30 6957 H 685.976 -0.0170923 -3.77896 0
M  V30 6958 H 686.289 -0.660116 -7.69976 0
M  V30 6959 H 684.634 -0.586736 -6.92519 0
M  V30 6960 H 687.825 -0.105421 -4.67981 0
M  V30 6961 H 687.998 -0.398418 -6.46774 0
M  V30 6962 N 681.404 1.57128 0.121893 0
M  V30 6963 C 682.351 2.0013 1.14964 0
M  V30 6964 C 683.321 0.872959 1.4131 0
M  V30 6965 O 684.506 1.13696 1.53225 0
M  V30 6966 C 681.646 2.40824 2.4718 0
M  V30 6967 C 680.759 3.67061 2.27794 0
M  V30 6968 C 679.894 3.96749 3.53219 0
M  V30 6969 C 678.933 5.16178 3.28978 0
M  V30 6970 N 678.07 5.41751 4.46599 0
M  V30 6971 H 682.91 2.8772 0.775947 0
M  V30 6972 H 680.447 1.42328 0.371652 0
M  V30 6973 H 682.405 2.62454 3.24305 0
M  V30 6974 H 681.035 1.56279 2.82448 0
M  V30 6975 H 680.087 3.53063 1.416 0
M  V30 6976 H 681.399 4.5434 2.05857 0
M  V30 6977 H 680.553 4.19012 4.38764 0
M  V30 6978 H 679.292 3.07941 3.78185 0
M  V30 6979 H 678.297 4.93762 2.41824 0
M  V30 6980 H 679.522 6.06561 3.05386 0
M  V30 6981 H 677.468 4.55899 4.71691 0
M  V30 6982 H 677.385 6.23347 4.27756 0
M  V30 6983 H 678.653 5.68531 5.33285 0
M  V30 6984 N 682.882 -0.391992 1.52647 0
M  V30 6985 C 683.792 -1.503 1.80131 0
M  V30 6986 C 684.808 -1.59825 0.687882 0
M  V30 6987 O 685.984 -1.76218 0.975149 0
M  V30 6988 C 683.049 -2.85863 1.96171 0
M  V30 6989 C 682.11 -2.86084 3.20085 0
M  V30 6990 C 681.343 -4.15181 3.35351 0
M  V30 6991 O 681.566 -5.09981 2.55491 0
M  V30 6992 O 680.5 -4.22603 4.28591 0
M  V30 6993 H 684.326 -1.30007 2.74466 0
M  V30 6994 H 681.911 -0.579539 1.37701 0
M  V30 6995 H 683.793 -3.66236 2.08445 0
M  V30 6996 H 682.468 -3.06189 1.05025 0
M  V30 6997 H 681.375 -2.04504 3.13256 0
M  V30 6998 H 682.708 -2.7071 4.11068 0
M  V30 6999 N 684.36 -1.4356 -0.65026 0
M  V30 7000 C 685.29 -1.51758 -1.77459 0
M  V30 7001 C 686.271 -0.372019 -1.65982 0
M  V30 7002 O 687.456 -0.589627 -1.85033 0
M  V30 7003 C 684.586 -1.44302 -3.15902 0
M  V30 7004 C 683.54 -2.57138 -3.42146 0
M  V30 7005 C 682.866 -2.34735 -4.8042 0
M  V30 7006 C 684.166 -3.99373 -3.36598 0
M  V30 7007 H 685.86 -2.45863 -1.70855 0
M  V30 7008 H 683.406 -1.18333 -0.820566 0
M  V30 7009 H 685.359 -1.48641 -3.94314 0
M  V30 7010 H 684.083 -0.467026 -3.23244 0
M  V30 7011 H 682.742 -2.52157 -2.66106 0
M  V30 7012 H 682.39 -1.35372 -4.84441 0
M  V30 7013 H 682.09 -3.10375 -4.9894 0
M  V30 7014 H 683.614 -2.40862 -5.61086 0
M  V30 7015 H 685.028 -4.05826 -4.04942 0
M  V30 7016 H 683.425 -4.75063 -3.66654 0
M  V30 7017 H 684.495 -4.243 -2.34729 0
M  V30 7018 N 685.838 0.888903 -1.30139 0
M  V30 7019 C 686.786 2.0156 -1.16088 0
M  V30 7020 C 687.78 1.69239 -0.0737413 0
M  V30 7021 O 688.986 1.78468 -0.234313 0
M  V30 7022 H 685.361 0.660825 -0.358907 0
M  V30 7023 H 687.332 2.10547 -2.11453 0
M  V30 7024 C 686.081 3.36758 -0.865426 0
M  V30 7025 H 685.404 3.62137 -1.69402 0
M  V30 7026 H 686.844 4.16246 -0.807192 0
M  V30 7027 C 685.303 3.34124 0.431577 0
M  V30 7028 O 685.833 3.7445 1.45431 0
M  V30 7029 N 684.039 2.87229 0.441321 0
M  V30 7030 H 683.586 2.54609 -0.391433 0
M  V30 7031 H 683.544 2.8585 1.30909 0
M  V30 7032 N 687.317 1.12792 1.10072 0
M  V30 7033 C 688.264 0.79921 2.16521 0
M  V30 7034 C 689.234 -0.235726 1.64419 0
M  V30 7035 O 690.419 -0.109457 1.90486 0
M  V30 7036 C 687.559 0.264091 3.44088 0
M  V30 7037 C 686.672 1.35729 4.10124 0
M  V30 7038 C 685.807 0.781212 5.25424 0
M  V30 7039 C 684.846 1.85327 5.8337 0
M  V30 7040 N 683.983 1.29564 6.90042 0
M  V30 7041 H 688.823 1.71105 2.43981 0
M  V30 7042 H 686.36 0.854225 1.19756 0
M  V30 7043 H 688.318 -0.0642423 4.17151 0
M  V30 7044 H 686.948 -0.610901 3.16967 0
M  V30 7045 H 686 1.80234 3.34993 0
M  V30 7046 H 687.312 2.16782 4.4923 0
M  V30 7047 H 686.466 0.403769 6.05355 0
M  V30 7048 H 685.205 -0.0604686 4.87663 0
M  V30 7049 H 684.21 2.23986 5.02106 0
M  V30 7050 H 685.435 2.69824 6.23195 0
M  V30 7051 H 683.381 0.475844 6.54272 0
M  V30 7052 H 683.298 2.04271 7.2788 0
M  V30 7053 H 684.566 0.945545 7.73744 0
M  V30 7054 N 688.795 -1.27931 0.920396 0
M  V30 7055 C 690.044 -1.93975 0.552867 0
M  V30 7056 C 690.357 -1.73193 -0.909035 0
M  V30 7057 O 691.563 -2.33515 -1.38502 0
M  V30 7058 C 690.019 -3.47463 0.937947 0
M  V30 7059 C 689.627 -3.77013 2.42003 0
M  V30 7060 C 691.371 -4.19628 0.64132 0
M  V30 7061 C 689.278 -5.23841 2.74489 0
M  V30 7062 H 688.208 -0.726146 0.203046 0
M  V30 7063 H 690.859 -1.45339 1.12022 0
M  V30 7064 H 689.241 -3.94867 0.299317 0
M  V30 7065 H 690.415 -3.40393 3.10595 0
M  V30 7066 H 688.73 -3.18035 2.6878 0
M  V30 7067 H 691.327 -5.27729 0.860622 0
M  V30 7068 H 691.67 -4.14164 -0.421168 0
M  V30 7069 H 692.203 -3.78022 1.23872 0
M  V30 7070 H 688.942 -5.34388 3.79618 0
M  V30 7071 H 688.462 -5.61634 2.1054 0
M  V30 7072 H 690.141 -5.91647 2.61845 0
M  V30 7073 N 690.273 -0.685099 -1.4193 0
M  V30 7074 C 691.203 -0.0273506 -2.33484 0
M  V30 7075 C 692.184 0.778366 -1.51246 0
M  V30 7076 O 693.369 0.733449 -1.79817 0
M  V30 7077 C 690.499 0.917272 -3.34968 0
M  V30 7078 C 689.453 0.21941 -4.27437 0
M  V30 7079 C 688.779 1.27768 -5.1921 0
M  V30 7080 C 690.079 -0.907894 -5.14349 0
M  V30 7081 H 691.773 -0.791994 -2.88735 0
M  V30 7082 H 689.319 -0.382308 -1.38832 0
M  V30 7083 H 691.272 1.38657 -3.97935 0
M  V30 7084 H 689.996 1.71346 -2.78043 0
M  V30 7085 H 688.655 -0.229757 -3.65879 0
M  V30 7086 H 688.303 2.06612 -4.58607 0
M  V30 7087 H 688.003 0.815803 -5.81909 0
M  V30 7088 H 689.527 1.7477 -5.85054 0
M  V30 7089 H 690.941 -0.519348 -5.70943 0
M  V30 7090 H 689.338 -1.2962 -5.85934 0
M  V30 7091 H 690.408 -1.75218 -4.52136 0
M  V30 7092 N 691.751 1.51645 -0.429126 0
M  V30 7093 C 692.661 2.31288 0.392809 0
M  V30 7094 C 693.677 1.39852 1.03525 0
M  V30 7095 O 694.853 1.72926 1.03241 0
M  V30 7096 C 691.918 3.13347 1.48372 0
M  V30 7097 C 690.979 4.20551 0.862268 0
M  V30 7098 C 690.212 4.98688 1.9012 0
M  V30 7099 O 690.435 4.77359 3.12225 0
M  V30 7100 O 689.369 5.83005 1.4963 0
M  V30 7101 H 693.195 3.02609 -0.257138 0
M  V30 7102 H 690.78 1.48163 -0.191851 0
M  V30 7103 H 692.662 3.64387 2.1166 0
M  V30 7104 H 691.337 2.44799 2.1179 0
M  V30 7105 H 690.244 3.73609 0.191568 0
M  V30 7106 H 691.577 4.91449 0.271704 0
M  V30 7107 N 693.229 0.160201 1.56784 0
M  V30 7108 C 694.477 -0.486625 1.96154 0
M  V30 7109 C 694.798 -1.64525 1.04673 0
M  V30 7110 O 694.068 -1.95586 0.110864 0
M  V30 7111 H 692.648 -0.182764 0.724297 0
M  V30 7112 H 695.31 0.238787 1.93432 0
M  V30 7113 H 694.406 -0.854025 3.00188 0
M  V30 7114 N 694.707 -1.5719 -0.113559 0
M  V30 7115 C 696.123 -1.52607 -0.467253 0
M  V30 7116 C 696.323 -0.874058 -1.81556 0
M  V30 7117 O 695.379 -0.458703 -2.48299 0
M  V30 7118 C 696.692 -2.97363 -0.446736 0
M  V30 7119 C 698.24 -3.08482 -0.529903 0
M  V30 7120 C 698.715 -4.54809 -0.539721 0
M  V30 7121 N 700.206 -4.59284 -0.601005 0
M  V30 7122 C 700.941 -5.69927 -0.630138 0
M  V30 7123 N 700.437 -6.90051 -0.616589 0
M  V30 7124 N 702.23 -5.5805 -0.673558 0
M  V30 7125 H 694.381 -1.97958 0.769819 0
M  V30 7126 H 696.644 -0.90428 0.284572 0
M  V30 7127 H 696.35 -3.48458 0.47643 0
M  V30 7128 H 696.224 -3.55086 -1.27254 0
M  V30 7129 H 698.611 -2.57386 -1.44349 0
M  V30 7130 H 698.692 -2.53744 0.323695 0
M  V30 7131 H 698.336 -5.06552 0.369843 0
M  V30 7132 H 698.266 -5.07364 -1.41028 0
M  V30 7133 H 700.757 -3.72822 -0.617419 0
M  V30 7134 H 701.07 -7.70132 -0.641592 0
M  V30 7135 H 699.415 -6.92543 -0.583927 0
M  V30 7136 H 702.606 -4.63112 -0.681544 0
M  V30 7137 H 702.779 -6.44286 -0.692794 0
M  V30 7138 N 696.185 0.383891 -1.52853 0
M  V30 7139 C 697.41 1.154 -1.7233 0
M  V30 7140 C 697.835 1.82809 -0.44298 0
M  V30 7141 O 697.193 1.71026 0.601645 0
M  V30 7142 C 697.241 2.17386 -2.87708 0
M  V30 7143 O 696.345 3.24082 -2.55038 0
M  V30 7144 H 695.686 0.335709 -0.572883 0
M  V30 7145 H 698.216 0.44662 -1.99666 0
M  V30 7146 H 698.226 2.61296 -3.1335 0
M  V30 7147 H 696.901 1.6771 -3.80587 0
M  V30 7148 H 695.478 2.85273 -2.40153 0
M  V30 7149 N 697.663 1.43903 0.642637 0
M  V30 7150 C 698.61 1.49881 1.75512 0
M  V30 7151 C 699.58 0.347538 1.62423 0
M  V30 7152 O 700.765 0.556177 1.82514 0
M  V30 7153 C 697.905 1.43797 3.13714 0
M  V30 7154 C 697.018 2.6921 3.37861 0
M  V30 7155 C 696.153 2.5504 4.6597 0
M  V30 7156 C 695.192 3.75671 4.83257 0
M  V30 7157 N 694.329 3.60247 6.02633 0
M  V30 7158 H 699.169 2.44935 1.69737 0
M  V30 7159 H 696.706 1.21572 0.828165 0
M  V30 7160 H 698.664 1.38262 3.93624 0
M  V30 7161 H 697.294 0.523173 3.18532 0
M  V30 7162 H 696.346 2.8498 2.51973 0
M  V30 7163 H 697.658 3.58786 3.46517 0
M  V30 7164 H 696.812 2.47273 5.54023 0
M  V30 7165 H 695.551 1.63006 4.59653 0
M  V30 7166 H 694.556 3.83836 3.93637 0
M  V30 7167 H 695.781 4.68728 4.91397 0
M  V30 7168 H 693.727 2.70955 5.97427 0
M  V30 7169 H 693.644 4.43431 6.12295 0
M  V30 7170 H 694.912 3.56351 6.93278 0
M  V30 7171 N 699.141 -0.881989 1.30609 0
M  V30 7172 C 700.39 -1.62878 1.18969 0
M  V30 7173 C 700.703 -1.93946 -0.253859 0
M  V30 7174 O 701.909 -2.67008 -0.491813 0
M  V30 7175 C 700.365 -2.93573 2.0819 0
M  V30 7176 C 699.973 -2.70034 3.57471 0
M  V30 7177 C 701.717 -3.71543 2.0532 0
M  V30 7178 C 699.624 -3.96563 4.38739 0
M  V30 7179 H 698.554 -0.611092 0.441682 0
M  V30 7180 H 701.205 -0.976201 1.55379 0
M  V30 7181 H 699.587 -3.6014 1.64666 0
M  V30 7182 H 700.761 -2.11949 4.09163 0
M  V30 7183 H 699.076 -2.05435 3.62195 0
M  V30 7184 H 701.673 -4.65386 2.63288 0
M  V30 7185 H 702.016 -4.03167 1.03739 0
M  V30 7186 H 702.549 -3.11842 2.46981 0
M  V30 7187 H 699.288 -3.70095 5.41027 0
M  V30 7188 H 698.808 -4.54142 3.9181 0
M  V30 7189 H 700.487 -4.64557 4.50329 0
M  V30 7190 N 700.619 -1.13374 -1.09472 0
M  V30 7191 C 701.844 -0.918711 -1.85942 0
M  V30 7192 C 702.269 0.527225 -1.8056 0
M  V30 7193 O 701.627 1.37408 -1.18274 0
M  V30 7194 C 701.675 -1.41056 -3.31867 0
M  V30 7195 O 700.779 -0.595496 -4.08078 0
M  V30 7196 H 700.12 -0.329297 -0.576593 0
M  V30 7197 H 702.65 -1.50829 -1.38245 0
M  V30 7198 H 702.66 -1.41398 -3.82715 0
M  V30 7199 H 701.335 -2.46335 -3.35099 0
M  V30 7200 H 699.912 -0.659911 -3.67014 0
M  V30 7201 N 702.098 1.27442 -0.927168 0
M  V30 7202 C 703.344 1.94679 -0.568164 0
M  V30 7203 C 703.677 1.72697 0.888219 0
M  V30 7204 O 702.952 1.05573 1.63354 0
M  V30 7205 C 703.235 3.4882 -0.894253 0
M  V30 7206 C 703.088 3.80146 -2.40435 0
M  V30 7207 C 704.407 4.38281 -0.399766 0
M  V30 7208 H 701.526 0.707071 -0.207892 0
M  V30 7209 H 704.168 1.50568 -1.15885 0
M  V30 7210 H 702.318 3.86522 -0.391566 0
M  V30 7211 H 703.99 3.52238 -2.97869 0
M  V30 7212 H 702.233 3.26716 -2.85375 0
M  V30 7213 H 702.904 4.87835 -2.58304 0
M  V30 7214 H 705.38 4.07726 -0.83058 0
M  V30 7215 H 704.256 5.44955 -0.656885 0
M  V30 7216 H 704.517 4.36521 0.700153 0
M  V30 7217 N 703.576 0.692616 1.41565 0
M  V30 7218 C 704.524 0.0139952 2.32596 0
M  V30 7219 C 705.518 -0.771691 1.50802 0
M  V30 7220 O 706.724 -0.677646 1.66757 0
M  V30 7221 H 703.099 -0.0142745 0.751865 0
M  V30 7222 H 705.07 0.798851 2.87508 0
M  V30 7223 C 703.819 -0.910602 3.35564 0
M  V30 7224 H 703.142 -0.315446 3.98554 0
M  V30 7225 H 704.582 -1.3538 4.01806 0
M  V30 7226 C 703.041 -2.02539 2.6922 0
M  V30 7227 O 703.571 -3.11386 2.53775 0
M  V30 7228 N 701.777 -1.80227 2.27962 0
M  V30 7229 H 701.324 -0.917054 2.40724 0
M  V30 7230 H 701.282 -2.55001 1.83907 0
M  V30 7231 N 705.054 -1.51416 0.437162 0
M  V30 7232 C 706.331 -1.94682 -0.189292 0
M  V30 7233 C 706.711 -1.37581 -1.60108 0
M  V30 7234 O 706.059 -0.562815 -2.2146 0
M  V30 7235 C 706.269 -3.48599 -0.167201 0
M  V30 7236 C 707.617 -4.2296 -0.372856 0
M  V30 7237 O 708.641 -3.55354 -0.245323 0
M  V30 7238 O 707.5 -5.42895 -0.626693 0
M  V30 7239 H 704.594 -0.816708 -0.130063 0
M  V30 7240 H 707.14 -1.62316 0.495128 0
M  V30 7241 H 705.912 -3.82616 0.81981 0
M  V30 7242 H 705.535 -3.87406 -0.894537 0
M  V30 7243 N 706.532 -0.168513 -1.56696 0
M  V30 7244 C 707.779 0.477158 -1.96798 0
M  V30 7245 C 708.107 1.63442 -1.05437 0
M  V30 7246 O 707.362 1.95503 -0.0878903 0
M  V30 7247 C 707.661 1.00441 -3.42996 0
M  V30 7248 C 707.327 -0.0366556 -4.50885 0
M  V30 7249 C 705.989 -0.322785 -4.80116 0
M  V30 7250 C 708.341 -0.743447 -5.1587 0
M  V30 7251 C 705.669 -1.32114 -5.71632 0
M  V30 7252 C 708.021 -1.73077 -6.08463 0
M  V30 7253 C 706.685 -2.02437 -6.36062 0
M  V30 7254 H 705.955 0.174604 -0.720135 0
M  V30 7255 H 708.602 -0.259884 -1.89728 0
M  V30 7256 H 706.907 1.81922 -3.47004 0
M  V30 7257 H 708.604 1.51294 -3.71364 0
M  V30 7258 H 705.194 0.196532 -4.28149 0
M  V30 7259 H 709.378 -0.535602 -4.93401 0
M  V30 7260 H 704.634 -1.55482 -5.913 0
M  V30 7261 H 708.808 -2.28382 -6.57886 0
M  V30 7262 H 706.435 -2.79946 -7.06777 0
M  V30 7263 N 708.01 1.57248 0.105221 0
M  V30 7264 C 709.259 1.84756 0.809198 0
M  V30 7265 C 709.572 0.756262 1.80389 0
M  V30 7266 O 710.778 0.918158 2.55504 0
M  V30 7267 C 709.234 3.27613 1.48989 0
M  V30 7268 C 708.842 4.44788 0.535484 0
M  V30 7269 C 710.586 3.64356 2.17819 0
M  V30 7270 C 708.493 5.78676 1.22019 0
M  V30 7271 H 707.423 0.689139 0.305946 0
M  V30 7272 H 710.074 1.83395 0.0620371 0
M  V30 7273 H 708.456 3.23485 2.28415 0
M  V30 7274 H 709.63 4.60243 -0.226557 0
M  V30 7275 H 707.945 4.16374 -0.0465769 0
M  V30 7276 H 710.542 4.61663 2.69761 0
M  V30 7277 H 710.885 2.92474 2.96251 0
M  V30 7278 H 711.418 3.70328 1.45264 0
M  V30 7279 H 708.157 6.53763 0.476875 0
M  V30 7280 H 707.677 5.67083 1.9539 0
M  V30 7281 H 709.356 6.22897 1.74952 0
M  V30 7282 N 709.488 -0.375779 1.53054 0
M  V30 7283 C 710.737 -1.11674 1.67964 0
M  V30 7284 C 711.05 -1.90755 0.432655 0
M  V30 7285 O 712.256 -2.67538 0.462109 0
M  V30 7286 C 710.712 -2.0344 2.96884 0
M  V30 7287 C 710.32 -1.29719 4.28809 0
M  V30 7288 C 712.064 -2.7759 3.2116 0
M  V30 7289 C 709.971 -2.20327 5.48826 0
M  V30 7290 H 708.901 -0.420597 0.625791 0
M  V30 7291 H 711.552 -0.378499 1.79554 0
M  V30 7292 H 709.934 -2.80953 2.79072 0
M  V30 7293 H 711.108 -0.573394 4.57219 0
M  V30 7294 H 709.423 -0.674735 4.10897 0
M  V30 7295 H 712.02 -3.4559 4.0801 0
M  V30 7296 H 712.363 -3.42399 2.36789 0
M  V30 7297 H 712.896 -2.07164 3.396 0
M  V30 7298 H 709.635 -1.60113 6.35645 0
M  V30 7299 H 709.155 -2.90585 5.2471 0
M  V30 7300 H 710.834 -2.80116 5.83219 0
M  V30 7301 N 710.966 -1.44241 -0.634997 0
M  V30 7302 C 711.913 -1.5081 -1.74714 0
M  V30 7303 C 712.883 -0.356147 -1.62237 0
M  V30 7304 O 714.068 -0.565848 -1.82216 0
M  V30 7305 C 711.208 -1.45458 -3.12947 0
M  V30 7306 C 710.321 -2.70998 -3.36428 0
M  V30 7307 C 709.456 -2.57507 -4.64611 0
M  V30 7308 C 708.495 -3.78229 -4.81258 0
M  V30 7309 N 707.632 -3.63438 -6.00714 0
M  V30 7310 H 712.472 -2.45832 -1.68436 0
M  V30 7311 H 710.009 -1.2201 -0.821706 0
M  V30 7312 H 711.967 -1.40347 -3.92885 0
M  V30 7313 H 710.597 -0.540058 -3.1825 0
M  V30 7314 H 709.649 -2.86312 -2.50458 0
M  V30 7315 H 710.961 -3.60619 -3.44609 0
M  V30 7316 H 710.115 -2.50207 -5.52703 0
M  V30 7317 H 708.854 -1.65441 -4.58782 0
M  V30 7318 H 707.859 -3.85918 -3.91596 0
M  V30 7319 H 709.084 -4.71327 -4.88904 0
M  V30 7320 H 707.03 -2.7412 -5.95982 0
M  V30 7321 H 706.947 -4.46672 -6.09934 0
M  V30 7322 H 708.215 -3.60022 -6.91378 0
M  V30 7323 N 712.444 0.87505 -1.31075 0
M  V30 7324 C 713.407 1.96333 -1.18263 0
M  V30 7325 C 714.407 1.60416 -0.111106 0
M  V30 7326 O 715.597 1.7044 -0.359987 0
M  V30 7327 C 712.729 3.31036 -0.81414 0
M  V30 7328 H 713.922 2.09125 -2.14958 0
M  V30 7329 H 711.475 1.06271 -1.14614 0
M  V30 7330 H 712.21 3.23944 0.151875 0
M  V30 7331 H 711.995 3.58476 -1.58862 0
M  V30 7332 H 713.485 4.10842 -0.748249 0
M  V30 7333 N 713.922 1.13953 1.08869 0
M  V30 7334 C 715.147 0.928559 1.85452 0
M  V30 7335 C 715.572 -0.517642 1.80837 0
M  V30 7336 O 714.93 -1.36779 1.19001 0
M  V30 7337 C 714.978 1.42814 3.31114 0
M  V30 7338 O 714.082 0.617129 4.07756 0
M  V30 7339 H 713.423 0.33235 0.574839 0
M  V30 7340 H 715.953 1.5156 1.37443 0
M  V30 7341 H 715.963 1.43425 3.8196 0
M  V30 7342 H 714.638 2.48109 3.33788 0
M  V30 7343 H 713.215 0.679365 3.66659 0
M  V30 7344 N 715.4 -1.26948 0.933913 0
M  V30 7345 C 716.363 -2.24889 0.442457 0
M  V30 7346 C 717.363 -1.54594 -0.442426 0
M  V30 7347 O 718.553 -1.72502 -0.242629 0
M  V30 7348 C 715.685 -3.3896 -0.363173 0
M  V30 7349 H 716.878 -2.69879 1.30787 0
M  V30 7350 H 714.431 -1.38978 0.715187 0
M  V30 7351 H 715.166 -2.99361 -1.24714 0
M  V30 7352 H 714.951 -3.9116 0.271366 0
M  V30 7353 H 716.441 -4.11739 -0.697186 0
M  V30 7354 N 716.879 -0.700114 -1.41195 0
M  V30 7355 C 717.809 -0.0521132 -2.33442 0
M  V30 7356 C 718.79 0.76228 -1.52063 0
M  V30 7357 O 719.975 0.714336 -1.80585 0
M  V30 7358 C 717.105 0.881693 -3.35922 0
M  V30 7359 C 716.059 0.174062 -4.27646 0
M  V30 7360 C 715.385 1.22254 -5.20536 0
M  V30 7361 C 716.685 -0.962396 -5.13357 0
M  V30 7362 H 718.379 -0.822574 -2.87879 0
M  V30 7363 H 715.925 -0.397011 -1.38419 0
M  V30 7364 H 717.878 1.34429 -3.99383 0
M  V30 7365 H 716.602 1.68387 -2.79845 0
M  V30 7366 H 715.261 -0.268551 -3.65615 0
M  V30 7367 H 714.909 2.01736 -4.60773 0
M  V30 7368 H 714.609 0.754038 -5.82742 0
M  V30 7369 H 716.133 1.68555 -5.86874 0
M  V30 7370 H 717.547 -0.579875 -5.7036 0
M  V30 7371 H 715.944 -1.35828 -5.84526 0
M  V30 7372 H 717.014 -1.80003 -4.50252 0
M  V30 7373 N 718.357 1.51182 -0.445186 0
M  V30 7374 C 719.32 2.26501 0.350722 0
M  V30 7375 C 720.32 1.3025 0.942952 0
M  V30 7376 O 721.51 1.53897 0.816175 0
M  V30 7377 C 718.642 3.06274 1.49697 0
M  V30 7378 H 719.835 2.98299 -0.309474 0
M  V30 7379 H 717.388 1.55034 -0.198551 0
M  V30 7380 H 718.123 2.38911 2.19299 0
M  V30 7381 H 717.908 3.76979 1.0784 0
M  V30 7382 H 719.398 3.63306 2.05909 0
M  V30 7383 N 719.835 0.176821 1.56605 0
M  V30 7384 C 721.075 -0.469104 1.98944 0
M  V30 7385 C 721.439 -1.60048 1.06059 0
M  V30 7386 O 722.64 -2.30934 1.3756 0
M  V30 7387 C 720.911 -0.934571 3.44965 0
M  V30 7388 S 722.47 -1.58091 4.09332 0
M  V30 7389 H 719.288 -0.150695 0.694847 0
M  V30 7390 H 721.89 0.27558 1.93548 0
M  V30 7391 H 720.594 -0.100814 4.10276 0
M  V30 7392 H 720.125 -1.71316 3.54139 0
M  V30 7393 H 722.14 -2.86922 4.04834 0
M  V30 7394 N 721.313 -1.57302 -0.09688 0
M  V30 7395 C 722.243 -2.0497 -1.11846 0
M  V30 7396 C 723.224 -0.938278 -1.41882 0
M  V30 7397 O 724.409 -1.20943 -1.51942 0
M  V30 7398 C 721.539 -2.47264 -2.43881 0
M  V30 7399 C 720.493 -3.62053 -2.28257 0
M  V30 7400 C 719.819 -3.90318 -3.65453 0
M  V30 7401 C 721.119 -4.93005 -1.72461 0
M  V30 7402 H 722.813 -2.90567 -0.721888 0
M  V30 7403 H 720.359 -1.39786 -0.345803 0
M  V30 7404 H 722.312 -2.7922 -3.15617 0
M  V30 7405 H 721.036 -1.58664 -2.8547 0
M  V30 7406 H 719.695 -3.30341 -1.58967 0
M  V30 7407 H 719.343 -2.98889 -4.04567 0
M  V30 7408 H 719.043 -4.67597 -3.55846 0
M  V30 7409 H 720.567 -4.24747 -4.3866 0
M  V30 7410 H 721.981 -5.23354 -2.34036 0
M  V30 7411 H 720.378 -5.74436 -1.73618 0
M  V30 7412 H 721.448 -4.80053 -0.683898 0
M  V30 7413 N 722.791 0.367657 -1.53252 0
M  V30 7414 C 723.738 1.45028 -1.79543 0
M  V30 7415 C 724.708 1.53288 -0.63969 0
M  V30 7416 O 725.893 1.69209 -0.881653 0
M  V30 7417 C 723.033 2.82 -1.98923 0
M  V30 7418 C 722.146 2.82722 -3.26638 0
M  V30 7419 C 721.281 4.11257 -3.36216 0
M  V30 7420 C 720.32 4.06113 -4.57972 0
M  V30 7421 N 719.457 5.26293 -4.64715 0
M  V30 7422 H 724.297 1.21908 -2.71923 0
M  V30 7423 H 721.834 0.591011 -1.34705 0
M  V30 7424 H 723.792 3.61568 -2.08146 0
M  V30 7425 H 722.422 3.03523 -1.09881 0
M  V30 7426 H 721.474 1.95399 -3.26379 0
M  V30 7427 H 722.786 2.74794 -4.16281 0
M  V30 7428 H 721.94 4.99239 -3.44739 0
M  V30 7429 H 720.679 4.21935 -2.44586 0
M  V30 7430 H 719.684 3.16517 -4.49552 0
M  V30 7431 H 720.909 3.97039 -5.50942 0
M  V30 7432 H 718.855 5.37561 -3.75985 0
M  V30 7433 H 718.772 5.20526 -5.4826 0
M  V30 7434 H 720.04 6.16113 -4.77519 0
M  V30 7435 N 724.269 1.44576 0.627338 0
M  V30 7436 C 725.515 1.47777 1.38888 0
M  V30 7437 C 725.848 0.111406 1.9388 0
M  V30 7438 O 725.123 -0.87149 1.73883 0
M  V30 7439 C 725.406 2.54119 2.55138 0
M  V30 7440 C 725.259 4.00128 2.0547 0
M  V30 7441 C 726.578 2.56929 3.57317 0
M  V30 7442 H 723.697 0.538048 0.50366 0
M  V30 7443 H 726.339 1.76277 0.708978 0
M  V30 7444 H 724.489 2.29948 3.13139 0
M  V30 7445 H 726.161 4.35444 1.5227 0
M  V30 7446 H 724.404 4.11724 1.36623 0
M  V30 7447 H 725.075 4.7019 2.89181 0
M  V30 7448 H 727.551 2.78536 3.09122 0
M  V30 7449 H 726.427 3.33234 4.36173 0
M  V30 7450 H 726.688 1.6127 4.11636 0
M  V30 7451 N 725.747 -0.868086 1.31537 0
M  V30 7452 C 727.158 -1.437 1.19195 0
M  V30 7453 C 727.509 -1.95169 -0.200842 0
M  V30 7454 O 726.634 -1.86432 -1.09872 0
M  V30 7455 C 727.229 -2.612 2.15778 0
M  V30 7456 C 725.788 -3.1413 2.07363 0
M  V30 7457 C 724.935 -1.86845 2.049 0
M  V30 7458 H 727.886 -0.676457 1.43561 0
M  V30 7459 H 727.907 -3.37948 1.74847 0
M  V30 7460 H 727.419 -2.23709 3.17137 0
M  V30 7461 H 725.52 -3.56238 1.09204 0
M  V30 7462 H 725.633 -3.76285 2.96557 0
M  V30 7463 H 723.997 -2.05886 1.49943 0
M  V30 7464 H 724.78 -1.51589 3.08019 0
M  V30 7465 N 727.225 -1.14528 -1.08264 0
M  V30 7466 C 728.135 -0.84728 -2.18765 0
M  V30 7467 C 729.151 0.172826 -1.7314 0
M  V30 7468 O 730.327 0.000985336 -2.014 0
M  V30 7469 C 727.392 -0.330633 -3.4512 0
M  V30 7470 C 726.453 -1.41348 -4.05363 0
M  V30 7471 C 725.686 -0.921387 -5.25686 0
M  V30 7472 O 725.909 0.236587 -5.69909 0
M  V30 7473 O 724.843 -1.70101 -5.77364 0
M  V30 7474 H 728.669 -1.7708 -2.46731 0
M  V30 7475 H 726.254 -0.923661 -1.17426 0
M  V30 7476 H 728.136 -0.0485053 -4.21372 0
M  V30 7477 H 726.811 0.565147 -3.18728 0
M  V30 7478 H 725.718 -1.74908 -3.30693 0
M  V30 7479 H 727.051 -2.28383 -4.36007 0
M  V30 7480 N 728.703 1.26451 -0.940633 0
M  V30 7481 C 729.666 2.24651 -0.454378 0
M  V30 7482 C 730.666 1.54826 0.434222 0
M  V30 7483 O 731.856 1.72628 0.233477 0
M  V30 7484 C 728.988 3.39148 0.345192 0
M  V30 7485 H 730.181 2.69182 -1.32217 0
M  V30 7486 H 727.734 1.38596 -0.722547 0
M  V30 7487 H 728.469 3.00018 1.23125 0
M  V30 7488 H 728.254 3.9101 -0.292107 0
M  V30 7489 H 729.744 4.12103 0.675341 0
M  V30 7490 N 730.181 0.707592 1.40822 0
M  V30 7491 C 731.129 0.0386643 2.32568 0
M  V30 7492 C 732.123 -0.755653 1.51612 0
M  V30 7493 O 733.329 -0.659921 1.67467 0
M  V30 7494 H 729.704 -0.00629912 0.751974 0
M  V30 7495 H 731.675 0.8293 2.86645 0
M  V30 7496 C 730.424 -0.87496 3.36511 0
M  V30 7497 H 729.747 -0.273157 3.98866 0
M  V30 7498 H 731.187 -1.31111 4.03219 0
M  V30 7499 C 729.646 -1.99672 2.71353 0
M  V30 7500 O 730.176 -3.08676 2.57064 0
M  V30 7501 N 728.382 -1.77799 2.29861 0
M  V30 7502 H 727.929 -0.89147 2.41683 0
M  V30 7503 H 727.887 -2.53036 1.86601 0
M  V30 7504 N 731.66 -1.50943 0.453197 0
M  V30 7505 C 732.885 -2.07116 -0.108463 0
M  V30 7506 C 733.31 -1.31681 -1.3432 0
M  V30 7507 O 732.668 -0.359256 -1.77705 0
M  V30 7508 C 732.716 -3.58447 -0.393424 0
M  V30 7509 O 731.82 -3.85038 -1.47714 0
M  V30 7510 H 731.161 -0.66398 0.0050993 0
M  V30 7511 H 733.691 -1.94362 0.639095 0
M  V30 7512 H 733.701 -4.02961 -0.639222 0
M  V30 7513 H 732.376 -4.12774 0.508946 0
M  V30 7514 H 730.953 -3.52376 -1.22006 0
M  V30 7515 N 733.138 -0.185124 -1.56509 0
M  V30 7516 C 734.363 0.465278 -2.02114 0
M  V30 7517 C 734.788 1.55083 -1.06447 0
M  V30 7518 O 734.146 1.81241 -0.0462852 0
M  V30 7519 C 734.194 1.00784 -3.46229 0
M  V30 7520 O 733.298 2.12123 -3.53663 0
M  V30 7521 H 732.639 0.109891 -0.654843 0
M  V30 7522 H 735.169 -0.293072 -2.0249 0
M  V30 7523 H 735.179 1.32697 -3.85818 0
M  V30 7524 H 733.854 0.213113 -4.15354 0
M  V30 7525 H 732.431 1.8115 -3.25943 0
M  V30 7526 N 734.616 1.57351 0.0885366 0
M  V30 7527 C 735.862 1.87564 0.786842 0
M  V30 7528 C 736.217 0.776774 1.76023 0
M  V30 7529 O 735.51 -0.220637 1.90325 0
M  V30 7530 C 735.704 3.22098 1.5488 0
M  V30 7531 C 735.533 4.44967 0.650706 0
M  V30 7532 C 734.303 5.04444 0.293957 0
M  V30 7533 C 736.501 5.1428 -0.0452187 0
M  V30 7534 N 734.483 6.10846 -0.611609 0
M  V30 7535 C 735.854 6.14704 -0.808603 0
M  V30 7536 C 737.909 4.97759 -0.118451 0
M  V30 7537 C 736.612 7.00392 -1.63839 0
M  V30 7538 C 738.638 5.8396 -0.935157 0
M  V30 7539 C 738 6.83909 -1.68664 0
M  V30 7540 H 734.099 0.73613 0.263887 0
M  V30 7541 H 736.683 1.94638 0.049074 0
M  V30 7542 H 734.854 3.16064 2.2574 0
M  V30 7543 H 736.586 3.40015 2.19481 0
M  V30 7544 H 733.341 4.69214 0.643086 0
M  V30 7545 H 733.765 6.68695 -1.05714 0
M  V30 7546 H 738.407 4.20418 0.448202 0
M  V30 7547 H 736.125 7.7712 -2.21608 0
M  V30 7548 H 739.711 5.73236 -0.994579 0
M  V30 7549 H 738.591 7.49454 -2.30842 0
M  V30 7550 N 736.094 -0.359525 1.53444 0
M  V30 7551 C 737.027 -1.46338 1.75101 0
M  V30 7552 C 738.005 -1.51142 0.599559 0
M  V30 7553 O 739.189 -1.69102 0.832862 0
M  V30 7554 C 736.316 -2.84667 1.83527 0
M  V30 7555 C 735.362 -2.9756 3.05549 0
M  V30 7556 S 736.195 -2.65685 4.64943 0
M  V30 7557 C 737.351 -4.06153 4.76225 0
M  V30 7558 H 737.584 -1.27747 2.68455 0
M  V30 7559 H 735.117 -0.554231 1.4411 0
M  V30 7560 H 737.075 -3.64368 1.89067 0
M  V30 7561 H 735.736 -3.00564 0.912147 0
M  V30 7562 H 734.929 -3.98883 3.08072 0
M  V30 7563 H 734.531 -2.25789 2.98153 0
M  V30 7564 H 736.823 -5.00475 4.56652 0
M  V30 7565 H 737.766 -4.08632 5.78295 0
M  V30 7566 H 738.174 -3.93435 4.04808 0
M  V30 7567 N 737.572 -1.44907 -0.619662 0
M  V30 7568 C 738.849 -1.38766 -1.37852 0
M  V30 7569 C 739.229 -0.0521393 -2.11036 0
M  V30 7570 O 738.577 0.965613 -2.07095 0
M  V30 7571 C 738.787 -2.59344 -2.33541 0
M  V30 7572 C 740.135 -3.03909 -2.96521 0
M  V30 7573 O 741.159 -2.59631 -2.43865 0
M  V30 7574 O 740.018 -3.80713 -3.92071 0
M  V30 7575 H 737.112 -0.550083 -0.617525 0
M  V30 7576 H 739.658 -1.57015 -0.643759 0
M  V30 7577 H 738.43 -3.48142 -1.78642 0
M  V30 7578 H 738.053 -2.43367 -3.14417 0
M  V30 7579 N 739.05 0.861098 -1.31996 0
M  V30 7580 C 740.278 1.6474 -1.25173 0
M  V30 7581 C 740.693 1.87926 0.181425 0
M  V30 7582 O 740.05 1.4437 1.1164 0
M  V30 7583 C 740.101 3.01036 -2.0015 0
M  V30 7584 O 739.822 2.7888 -3.37872 0
M  V30 7585 C 741.323 3.95481 -2.00273 0
M  V30 7586 H 738.543 0.513314 -0.432146 0
M  V30 7587 H 741.087 1.07419 -1.74016 0
M  V30 7588 H 739.242 3.55021 -1.55046 0
M  V30 7589 H 739.656 3.65514 -3.76165 0
M  V30 7590 H 741.13 4.88403 -2.57229 0
M  V30 7591 H 741.607 4.27957 -0.987407 0
M  V30 7592 H 742.213 3.47433 -2.45296 0
M  V30 7593 N 740.528 1.15101 1.07655 0
M  V30 7594 C 741.774 0.925343 1.80458 0
M  V30 7595 C 742.107 -0.546354 1.86356 0
M  V30 7596 O 741.382 -1.40496 1.34503 0
M  V30 7597 C 741.665 1.53646 3.25676 0
M  V30 7598 C 741.518 3.07854 3.27942 0
M  V30 7599 C 742.837 1.21968 4.22861 0
M  V30 7600 H 739.956 0.337592 0.655134 0
M  V30 7601 H 742.598 1.42217 1.25993 0
M  V30 7602 H 740.748 1.11395 3.72187 0
M  V30 7603 H 742.42 3.58989 2.89697 0
M  V30 7604 H 740.663 3.41904 2.66991 0
M  V30 7605 H 741.334 3.45725 4.30324 0
M  V30 7606 H 743.81 1.5851 3.84726 0
M  V30 7607 H 742.686 1.67349 5.22767 0
M  V30 7608 H 742.947 0.136207 4.4189 0
M  V30 7609 N 742.006 -1.2595 0.947325 0
M  V30 7610 C 743.255 -1.92759 0.593887 0
M  V30 7611 C 743.568 -1.75083 -0.872093 0
M  V30 7612 O 744.774 -2.36401 -1.33518 0
M  V30 7613 C 743.23 -3.45395 1.01144 0
M  V30 7614 C 742.838 -3.71795 2.49946 0
M  V30 7615 C 744.582 -4.18173 0.730185 0
M  V30 7616 C 742.489 -5.17901 2.85539 0
M  V30 7617 H 741.419 -0.721676 0.218403 0
M  V30 7618 H 744.07 -1.4293 1.15079 0
M  V30 7619 H 742.452 -3.94143 0.383007 0
M  V30 7620 H 743.626 -3.33728 3.17746 0
M  V30 7621 H 741.941 -3.12263 2.75465 0
M  V30 7622 H 744.538 -5.25784 0.972367 0
M  V30 7623 H 744.881 -4.14964 -0.333223 0
M  V30 7624 H 745.414 -3.75309 1.31862 0
M  V30 7625 H 742.153 -5.26216 3.90867 0
M  V30 7626 H 741.673 -5.57042 2.22406 0
M  V30 7627 H 743.352 -5.8596 2.74336 0
M  V30 7628 N 743.484 -0.715051 -1.40445 0
M  V30 7629 C 744.9 -0.388555 -1.54798 0
M  V30 7630 C 745.1 1.10271 -1.68649 0
M  V30 7631 O 744.156 1.88875 -1.67578 0
M  V30 7632 C 745.469 -1.15414 -2.77669 0
M  V30 7633 C 747.017 -1.14039 -2.91486 0
M  V30 7634 C 747.492 -1.88812 -4.1727 0
M  V30 7635 N 748.983 -1.85878 -4.24268 0
M  V30 7636 C 749.718 -2.40558 -5.20499 0
M  V30 7637 N 749.214 -3.03791 -6.22642 0
M  V30 7638 N 751.007 -2.30703 -5.12574 0
M  V30 7639 H 743.158 -1.68201 -1.297 0
M  V30 7640 H 745.421 -0.710915 -0.627139 0
M  V30 7641 H 745.127 -2.20853 -2.7371 0
M  V30 7642 H 745.001 -0.745412 -3.69761 0
M  V30 7643 H 747.388 -0.0941996 -2.9495 0
M  V30 7644 H 747.469 -1.58834 -2.00513 0
M  V30 7645 H 747.113 -2.93422 -4.14568 0
M  V30 7646 H 747.043 -1.41438 -5.0725 0
M  V30 7647 H 749.534 -1.39794 -3.51093 0
M  V30 7648 H 749.847 -3.43032 -6.92495 0
M  V30 7649 H 748.192 -3.07875 -6.23087 0
M  V30 7650 H 751.383 -1.80961 -4.31707 0
M  V30 7651 H 751.556 -2.73618 -5.87398 0
M  V30 7652 N 744.962 1.50701 -0.461195 0
M  V30 7653 C 745.894 2.26124 0.374244 0
M  V30 7654 C 746.907 1.31064 0.965715 0
M  V30 7655 O 748.096 1.56647 0.855801 0
M  V30 7656 C 745.196 3.01996 1.5379 0
M  V30 7657 C 744.369 4.24336 1.06101 0
M  V30 7658 C 743.428 4.82585 2.09756 0
M  V30 7659 O 742.454 5.43775 1.68219 0
M  V30 7660 N 743.656 4.68712 3.42475 0
M  V30 7661 H 746.421 2.9846 -0.2723 0
M  V30 7662 H 743.982 1.59256 -0.291415 0
M  V30 7663 H 745.974 3.37846 2.22806 0
M  V30 7664 H 744.544 2.32521 2.08933 0
M  V30 7665 H 743.764 3.93707 0.197085 0
M  V30 7666 H 745.052 5.03678 0.720156 0
M  V30 7667 H 744.45 4.20026 3.78938 0
M  V30 7668 H 743.007 5.08858 4.07317 0
M  V30 7669 N 746.441 0.193421 1.56409 0
M  V30 7670 C 747.389 -0.744829 2.20352 0
M  V30 7671 C 748.383 -1.22104 1.17418 0
M  V30 7672 O 749.589 -1.18413 1.35567 0
M  V30 7673 H 745.964 -0.258538 0.70616 0
M  V30 7674 H 747.935 -0.181794 2.97846 0
M  V30 7675 C 746.684 -1.95453 2.87565 0
M  V30 7676 H 746.007 -1.59716 3.66512 0
M  V30 7677 H 747.447 -2.58942 3.35745 0
M  V30 7678 C 745.906 -2.79223 1.8851 0
M  V30 7679 O 746.436 -3.77093 1.38434 0
M  V30 7680 N 744.642 -2.44682 1.56777 0
M  V30 7681 H 744.189 -1.65153 1.97692 0
M  V30 7682 H 744.147 -3.01016 0.907573 0
M  V30 7683 N 747.919 -1.57396 -0.0801906 0
M  V30 7684 C 748.869 -1.9955 -1.10289 0
M  V30 7685 C 749.853 -0.876234 -1.34948 0
M  V30 7686 O 751.045 -1.14012 -1.35389 0
M  V30 7687 C 748.174 -2.43596 -2.419 0
M  V30 7688 C 747.26 -3.6224 -2.20551 0
M  V30 7689 N 747.651 -4.76693 -1.69109 0
M  V30 7690 C 745.949 -3.68627 -2.51059 0
M  V30 7691 C 746.65 -5.58577 -1.62379 0
M  V30 7692 N 745.626 -5.02178 -2.0813 0
M  V30 7693 H 749.428 -2.85483 -0.698335 0
M  V30 7694 H 746.942 -1.59837 -0.287395 0
M  V30 7695 H 748.939 -2.72031 -3.15919 0
M  V30 7696 H 747.599 -1.59047 -2.8308 0
M  V30 7697 H 748.61 -4.9915 -1.38092 0
M  V30 7698 H 745.287 -2.94772 -2.95661 0
M  V30 7699 H 746.677 -6.60447 -1.2353 0
M  V30 7700 N 749.397 0.351382 -1.53633 0
M  V30 7701 C 750.643 1.09411 -1.70754 0
M  V30 7702 C 750.976 1.88544 -0.465293 0
M  V30 7703 O 750.251 1.86923 0.537608 0
M  V30 7704 C 750.534 2.04173 -2.96623 0
M  V30 7705 C 750.387 1.28556 -4.31038 0
M  V30 7706 C 751.706 3.04102 -3.18136 0
M  V30 7707 H 748.825 0.396373 -0.621335 0
M  V30 7708 H 751.467 0.373464 -1.86293 0
M  V30 7709 H 749.617 2.65625 -2.83506 0
M  V30 7710 H 751.289 0.697786 -4.55992 0
M  V30 7711 H 749.532 0.587498 -4.29803 0
M  V30 7712 H 750.203 1.97989 -5.15271 0
M  V30 7713 H 752.679 2.5276 -3.30532 0
M  V30 7714 H 751.555 3.67616 -4.07615 0
M  V30 7715 H 751.816 3.75053 -2.34068 0
M  V30 7716 N 750.875 1.45233 0.611969 0
M  V30 7717 C 752.121 1.49242 1.37312 0
M  V30 7718 C 752.454 0.131963 1.93751 0
M  V30 7719 O 751.729 -0.852999 1.74798 0
M  V30 7720 C 752.012 2.56811 2.52428 0
M  V30 7721 C 751.865 4.02284 2.01215 0
M  V30 7722 C 753.184 2.60705 3.54572 0
M  V30 7723 H 750.303 0.54336 0.497925 0
M  V30 7724 H 752.945 1.77019 0.690242 0
M  V30 7725 H 751.095 2.33256 3.10683 0
M  V30 7726 H 752.767 4.37035 1.47643 0
M  V30 7727 H 751.01 4.1315 1.32248 0
M  V30 7728 H 751.681 4.7323 2.84178 0
M  V30 7729 H 754.157 2.81799 3.06151 0
M  V30 7730 H 753.033 3.37841 4.32614 0
M  V30 7731 H 753.294 1.65627 4.09903 0
M  V30 7732 N 752.353 -0.854086 1.3245 0
M  V30 7733 C 753.63 -1.59188 1.1366 0
M  V30 7734 C 754.01 -2.08917 -0.302807 0
M  V30 7735 O 753.358 -1.8795 -1.29951 0
M  V30 7736 C 753.568 -2.73757 2.16467 0
M  V30 7737 C 754.916 -3.43323 2.49829 0
M  V30 7738 O 755.94 -2.83983 2.15017 0
M  V30 7739 O 754.799 -4.50409 3.09506 0
M  V30 7740 H 751.893 -0.701092 0.438633 0
M  V30 7741 H 754.439 -0.898165 1.43983 0
M  V30 7742 H 753.211 -2.3454 3.1322 0
M  V30 7743 H 752.834 -3.50804 1.87142 0
M  V30 7744 N 753.831 -1.1567 -1.07043 0
M  V30 7745 C 755.077 -0.9349 -1.79965 0
M  V30 7746 C 755.41 0.536464 -1.86643 0
M  V30 7747 O 754.685 1.39781 -1.35247 0
M  V30 7748 C 754.968 -1.55371 -3.24857 0
M  V30 7749 C 754.821 -3.09589 -3.26305 0
M  V30 7750 C 756.14 -1.24209 -4.22209 0
M  V30 7751 H 753.259 -0.341061 -0.653335 0
M  V30 7752 H 755.901 -1.42883 -1.25237 0
M  V30 7753 H 754.051 -1.13368 -3.71591 0
M  V30 7754 H 755.723 -3.60521 -2.87789 0
M  V30 7755 H 753.966 -3.43315 -2.65174 0
M  V30 7756 H 754.637 -3.48002 -4.28484 0
M  V30 7757 H 757.113 -1.60548 -3.8388 0
M  V30 7758 H 755.989 -1.70119 -5.21872 0
M  V30 7759 H 756.25 -0.15964 -4.41812 0
M  V30 7760 N 755.309 1.25446 -0.953992 0
M  V30 7761 C 756.534 1.97755 -0.625129 0
M  V30 7762 C 756.959 1.70437 0.795787 0
M  V30 7763 O 756.317 0.95992 1.53803 0
M  V30 7764 C 756.365 3.49463 -0.889251 0
M  V30 7765 O 755.469 4.12387 0.0322757 0
M  V30 7766 H 754.81 0.61998 -0.237742 0
M  V30 7767 H 757.34 1.59582 -1.28041 0
M  V30 7768 H 757.35 3.99772 -0.815263 0
M  V30 7769 H 756.025 3.68676 -1.92487 0
M  V30 7770 H 754.602 3.72782 -0.0938625 0
M  V30 7771 N 756.787 0.722489 1.40064 0
M  V30 7772 C 758.033 0.265371 2.01056 0
M  V30 7773 C 758.366 -1.14062 1.57174 0
M  V30 7774 O 757.641 -1.77514 0.794916 0
M  V30 7775 C 757.924 0.353157 3.58364 0
M  V30 7776 C 757.777 1.79802 4.123 0
M  V30 7777 C 759.096 -0.271677 4.39261 0
M  V30 7778 H 756.215 0.0979002 0.730469 0
M  V30 7779 H 758.857 0.916289 1.66446 0
M  V30 7780 H 757.007 -0.201037 3.87979 0
M  V30 7781 H 758.679 2.40813 3.93455 0
M  V30 7782 H 756.922 2.32348 3.66329 0
M  V30 7783 H 757.593 1.81079 5.21454 0
M  V30 7784 H 760.069 0.200607 4.15616 0
M  V30 7785 H 758.945 -0.179843 5.48605 0
M  V30 7786 H 759.206 -1.35611 4.20787 0
M  V30 7787 N 758.265 -1.50454 0.469181 0
M  V30 7788 C 759.228 -2.2703 -0.314643 0
M  V30 7789 C 760.228 -1.31734 -0.922111 0
M  V30 7790 O 761.418 -1.55176 -0.791588 0
M  V30 7791 C 758.55 -3.08616 -1.44806 0
M  V30 7792 H 759.743 -2.97769 0.356892 0
M  V30 7793 H 757.296 -1.54698 0.223191 0
M  V30 7794 H 758.031 -2.42369 -2.1547 0
M  V30 7795 H 757.816 -3.78647 -1.01829 0
M  V30 7796 H 759.306 -3.66536 -2.00103 0
M  V30 7797 N 759.743 -0.201713 -1.56304 0
M  V30 7798 C 760.989 0.435952 -1.98059 0
M  V30 7799 C 761.322 1.60811 -1.08873 0
M  V30 7800 O 760.597 1.9398 -0.142128 0
M  V30 7801 C 760.88 0.889706 -3.48936 0
M  V30 7802 C 760.733 -0.284725 -4.48898 0
M  V30 7803 C 762.052 1.7529 -4.03685 0
M  V30 7804 H 759.171 0.15699 -0.720085 0
M  V30 7805 H 761.813 -0.293965 -1.87712 0
M  V30 7806 H 759.963 1.51166 -3.57884 0
M  V30 7807 H 761.635 -0.922531 -4.51981 0
M  V30 7808 H 759.878 -0.935427 -4.23594 0
M  V30 7809 H 760.549 0.0753865 -5.51949 0
M  V30 7810 H 763.025 1.2283 -3.97558 0
M  V30 7811 H 761.901 2.03933 -5.0961 0
M  V30 7812 H 762.162 2.70939 -3.49348 0
M  V30 7813 N 761.222 1.57436 0.0718424 0
M  V30 7814 C 762.447 1.91858 0.787745 0
M  V30 7815 C 762.872 0.798119 1.70328 0
M  V30 7816 O 762.23 -0.24905 1.79581 0
M  V30 7817 C 762.278 3.25232 1.55744 0
M  V30 7818 O 761.382 3.14462 2.6681 0
M  V30 7819 H 760.723 0.628258 0.214914 0
M  V30 7820 H 763.253 2.04561 0.0401012 0
M  V30 7821 H 763.263 3.59105 1.9367 0
M  V30 7822 H 761.938 4.0636 0.885691 0
M  V30 7823 H 760.515 2.92148 2.31741 0
M  V30 7824 N 762.7 -0.34323 1.53817 0
M  V30 7825 C 763.928 -1.10348 1.75017 0
M  V30 7826 C 764.343 -1.82345 0.489475 0
M  V30 7827 O 763.7 -1.74362 -0.538886 0
M  V30 7828 C 763.751 -2.11672 2.93048 0
M  V30 7829 O 763.472 -1.42603 4.14241 0
M  V30 7830 C 764.973 -3.0007 3.26301 0
M  V30 7831 H 762.193 -0.329056 0.584776 0
M  V30 7832 H 764.737 -0.395339 2.00642 0
M  V30 7833 H 762.892 -2.78051 2.69753 0
M  V30 7834 H 763.306 -2.10294 4.80496 0
M  V30 7835 H 764.78 -3.67101 4.12239 0
M  V30 7836 H 765.257 -3.66105 2.42618 0
M  V30 7837 H 765.863 -2.3928 3.51604 0
M  V30 7838 N 764.178 -1.45556 -0.604258 0
M  V30 7839 C 765.589 -1.44171 -1.18624 0
M  V30 7840 C 765.94 -0.171081 -1.95453 0
M  V30 7841 O 765.065 0.727156 -2.03817 0
M  V30 7842 C 765.66 -2.61193 -2.15786 0
M  V30 7843 C 764.219 -2.62918 -2.69353 0
M  V30 7844 C 763.366 -2.36479 -1.4482 0
M  V30 7845 H 766.317 -1.53747 -0.393381 0
M  V30 7846 H 766.338 -2.35481 -2.98879 0
M  V30 7847 H 765.85 -3.53656 -1.59841 0
M  V30 7848 H 763.951 -1.7447 -3.29228 0
M  V30 7849 H 764.064 -3.6224 -3.13559 0
M  V30 7850 H 762.428 -1.86103 -1.73891 0
M  V30 7851 H 763.211 -3.31091 -0.907376 0
M  V30 7852 N 765.656 0.84705 -1.32902 0
M  V30 7853 C 766.619 1.9378 -1.224 0
M  V30 7854 C 767.619 1.60144 -0.145108 0
M  V30 7855 O 768.809 1.69638 -0.396058 0
M  V30 7856 C 765.941 3.29234 -0.884174 0
M  V30 7857 H 767.134 2.04518 -2.19345 0
M  V30 7858 H 764.687 1.03816 -1.16842 0
M  V30 7859 H 765.422 3.24193 0.0831277 0
M  V30 7860 H 765.207 3.55026 -1.6643 0
M  V30 7861 H 766.697 4.09162 -0.835226 0
M  V30 7862 N 767.134 1.16236 1.06428 0
M  V30 7863 C 768.382 0.941171 1.78847 0
M  V30 7864 C 768.703 -0.53248 1.87589 0
M  V30 7865 O 767.973 -1.38686 1.38358 0
M  V30 7866 H 766.553 0.345228 0.66244 0
M  V30 7867 H 769.215 1.46479 1.28569 0
M  V30 7868 H 768.311 1.35871 2.80972 0
M  V30 7869 N 768.612 -1.24939 0.960631 0
M  V30 7870 C 769.542 -2.28 0.503815 0
M  V30 7871 C 770.523 -1.63959 -0.452928 0
M  V30 7872 O 771.708 -1.91009 -0.350585 0
M  V30 7873 C 768.838 -3.46643 -0.213535 0
M  V30 7874 C 767.792 -4.22903 0.658535 0
M  V30 7875 C 767.118 -5.34363 -0.189902 0
M  V30 7876 C 768.418 -4.84949 1.93963 0
M  V30 7877 H 770.112 -2.66462 1.36521 0
M  V30 7878 H 767.658 -1.28093 0.657897 0
M  V30 7879 H 769.611 -4.1787 -0.544286 0
M  V30 7880 H 768.335 -3.07187 -1.10923 0
M  V30 7881 H 766.994 -3.53467 0.972455 0
M  V30 7882 H 766.642 -4.91147 -1.08553 0
M  V30 7883 H 766.342 -5.86302 0.390331 0
M  V30 7884 H 767.866 -6.0842 -0.515484 0
M  V30 7885 H 769.28 -5.48288 1.67491 0
M  V30 7886 H 767.677 -5.47091 2.46601 0
M  V30 7887 H 768.747 -4.06799 2.639 0
M  V30 7888 N 770.09 -0.729906 -1.39679 0
M  V30 7889 C 771.339 -0.272534 -1.9985 0
M  V30 7890 C 771.652 1.14519 -1.58571 0
M  V30 7891 O 772.858 1.70182 -2.11543 0
M  V30 7892 C 771.314 -0.436322 -3.57245 0
M  V30 7893 C 770.922 -1.86161 -4.0749 0
M  V30 7894 C 772.666 -0.0404679 -4.24481 0
M  V30 7895 C 770.573 -1.97522 -5.5744 0
M  V30 7896 H 769.503 -0.0981428 -0.747585 0
M  V30 7897 H 772.154 -0.903056 -1.59741 0
M  V30 7898 H 770.536 0.263015 -3.95126 0
M  V30 7899 H 771.71 -2.59248 -3.80955 0
M  V30 7900 H 770.025 -2.21021 -3.529 0
M  V30 7901 H 772.622 -0.104437 -5.34598 0
M  V30 7902 H 772.965 1.00357 -4.04023 0
M  V30 7903 H 773.498 -0.690774 -3.91757 0
M  V30 7904 H 770.237 -3.00096 -5.82771 0
M  V30 7905 H 769.757 -1.28864 -5.85794 0
M  V30 7906 H 771.436 -1.754 -6.22771 0
M  V30 7907 N 771.568 1.50203 -0.477153 0
M  V30 7908 C 772.796 2.0677 0.0732489 0
M  V30 7909 C 773.211 1.34033 1.32968 0
M  V30 7910 O 772.568 0.411412 1.77802 0
M  V30 7911 C 772.619 3.59751 0.35518 0
M  V30 7912 O 772.34 4.29747 -0.851425 0
M  V30 7913 C 773.841 4.3296 0.951877 0
M  V30 7914 H 771.061 0.670929 -0.00978923 0
M  V30 7915 H 773.605 1.93293 -0.667676 0
M  V30 7916 H 771.76 3.7301 1.04605 0
M  V30 7917 H 772.174 5.2106 -0.599708 0
M  V30 7918 H 773.648 5.40952 1.09888 0
M  V30 7919 H 774.125 3.93856 1.94356 0
M  V30 7920 H 774.731 4.24246 0.299208 0
M  V30 7921 N 773.046 0.209999 1.56195 0
M  V30 7922 C 774.457 -0.299943 1.84275 0
M  V30 7923 C 774.808 -1.60314 1.1311 0
M  V30 7924 O 773.933 -2.1273 0.396874 0
M  V30 7925 C 774.528 -0.550986 3.3429 0
M  V30 7926 C 773.087 -1.00526 3.62728 0
M  V30 7927 C 772.234 -0.0619828 2.77231 0
M  V30 7928 H 775.185 0.433458 1.52666 0
M  V30 7929 H 775.206 -1.39846 3.53869 0
M  V30 7930 H 774.718 0.397669 3.86057 0
M  V30 7931 H 772.819 -1.96768 3.16407 0
M  V30 7932 H 772.932 -0.887664 4.70805 0
M  V30 7933 H 771.296 -0.566648 2.48317 0
M  V30 7934 H 772.079 0.881383 3.31793 0
M  V30 7935 N 774.524 -1.57472 -0.0634922 0
M  V30 7936 C 775.773 -1.86837 -0.759928 0
M  V30 7937 C 776.086 -0.803823 -1.7832 0
M  V30 7938 O 777.292 -0.985578 -2.52979 0
M  V30 7939 C 775.748 -3.31448 -1.4025 0
M  V30 7940 C 775.356 -4.46052 -0.417368 0
M  V30 7941 C 777.1 -3.70003 -2.08082 0
M  V30 7942 C 775.007 -5.81707 -1.06633 0
M  V30 7943 H 773.937 -0.697009 -0.287567 0
M  V30 7944 H 776.588 -1.83495 -0.0133914 0
M  V30 7945 H 774.97 -3.29427 -2.19759 0
M  V30 7946 H 776.144 -4.5948 0.348503 0
M  V30 7947 H 774.459 -4.16104 0.156955 0
M  V30 7948 H 777.056 -4.68653 -2.57426 0
M  V30 7949 H 777.399 -3.00226 -2.88393 0
M  V30 7950 H 777.932 -3.7405 -1.35394 0
M  V30 7951 H 774.671 -6.54798 -0.303374 0
M  V30 7952 H 774.191 -5.72064 -1.80286 0
M  V30 7953 H 775.87 -6.27317 -1.58376 0
M  V30 7954 N 776.003 0.335068 -1.53997 0
M  V30 7955 C 777.249 1.07594 -1.71905 0
M  V30 7956 C 777.582 1.88039 -0.485264 0
M  V30 7957 O 776.857 1.87482 0.517752 0
M  V30 7958 C 777.14 2.01016 -2.98772 0
M  V30 7959 C 776.993 1.23977 -4.32377 0
M  V30 7960 C 778.312 3.0071 -3.21343 0
M  V30 7961 H 775.431 0.38976 -0.625505 0
M  V30 7962 H 778.073 0.353684 -1.86679 0
M  V30 7963 H 776.223 2.62603 -2.86307 0
M  V30 7964 H 777.895 0.649383 -4.56706 0
M  V30 7965 H 776.138 0.541878 -4.30402 0
M  V30 7966 H 776.809 1.92512 -5.17342 0
M  V30 7967 H 779.285 2.4924 -3.33194 0
M  V30 7968 H 778.161 3.63272 -4.11491 0
M  V30 7969 H 778.422 3.72549 -2.38033 0
M  V30 7970 N 777.481 1.45874 0.596531 0
M  V30 7971 C 778.728 1.50467 1.35521 0
M  V30 7972 C 779.056 0.150802 1.93915 0
M  V30 7973 O 778.311 -0.851913 1.76184 0
M  V30 7974 C 778.61 2.54034 2.51399 0
M  V30 7975 C 778.276 3.9844 2.11085 0
M  V30 7976 C 776.938 4.37758 1.99804 0
M  V30 7977 C 779.29 4.89209 1.79788 0
M  V30 7978 C 776.618 5.65727 1.55465 0
M  V30 7979 C 778.97 6.17602 1.36931 0
M  V30 7980 C 777.634 6.5584 1.24218 0
M  V30 7981 H 776.904 0.550597 0.495907 0
M  V30 7982 H 779.551 1.79279 0.673145 0
M  V30 7983 H 777.856 2.18832 3.24992 0
M  V30 7984 H 779.553 2.54822 3.09624 0
M  V30 7985 H 776.143 3.67353 2.20794 0
M  V30 7986 H 780.327 4.59562 1.87395 0
M  V30 7987 H 775.583 5.94139 1.44253 0
M  V30 7988 H 779.757 6.87373 1.11764 0
M  V30 7989 H 777.384 7.54897 0.896353 0
M  V30 7990 N 778.959 -0.83999 1.33349 0
M  V30 7991 C 779.907 -1.97113 1.23488 0
M  V30 7992 C 780.901 -1.68849 0.136503 0
M  V30 7993 O 782.107 -1.77476 0.300389 0
M  V30 7994 H 778.482 -0.647049 0.383185 0
M  V30 7995 H 780.453 -2.02554 2.19122 0
M  V30 7996 C 779.202 -3.33314 0.989815 0
M  V30 7997 H 778.525 -3.556 1.82726 0
M  V30 7998 H 779.965 -4.12963 0.961123 0
M  V30 7999 C 778.424 -3.35496 -0.307272 0
M  V30 8000 O 778.954 -3.79589 -1.31434 0
M  V30 8001 N 777.16 -2.88669 -0.334414 0
M  V30 8002 H 776.707 -2.5298 0.485659 0
M  V30 8003 H 776.665 -2.90512 -1.20209 0
M  V30 8004 N 780.437 -1.16799 -1.0581 0
M  V30 8005 C 781.4 -0.881396 -2.11575 0
M  V30 8006 C 782.4 0.12574 -1.60308 0
M  V30 8007 O 783.59 -0.105716 -1.73879 0
M  V30 8008 C 780.722 -0.319037 -3.39404 0
M  V30 8009 H 781.915 -1.81907 -2.38432 0
M  V30 8010 H 779.468 -0.977597 -1.21954 0
M  V30 8011 H 780.203 0.626082 -3.18199 0
M  V30 8012 H 779.988 -1.04481 -3.77923 0
M  V30 8013 H 781.478 -0.13663 -4.17376 0
M  V30 8014 N 781.915 1.24427 -0.967243 0
M  V30 8015 C 782.865 2.23143 -0.468106 0
M  V30 8016 C 783.849 1.5449 0.449633 0
M  V30 8017 O 785.041 1.74761 0.28063 0
M  V30 8018 C 782.17 3.42454 0.240867 0
M  V30 8019 C 781.256 4.18355 -0.695674 0
M  V30 8020 N 781.647 4.71428 -1.83273 0
M  V30 8021 C 779.945 4.43116 -0.506365 0
M  V30 8022 C 780.646 5.29041 -2.41849 0
M  V30 8023 N 779.622 5.16213 -1.70369 0
M  V30 8024 H 783.424 2.61795 -1.3357 0
M  V30 8025 H 780.938 1.39809 -0.826277 0
M  V30 8026 H 782.935 4.12329 0.615668 0
M  V30 8027 H 781.595 3.05323 1.10491 0
M  V30 8028 H 782.606 4.68177 -2.21428 0
M  V30 8029 H 779.283 4.16319 0.313747 0
M  V30 8030 H 780.673 5.80811 -3.37799 0
M  V30 8031 N 783.393 0.737304 1.3929 0
M  V30 8032 C 784.642 0.283129 1.99703 0
M  V30 8033 C 784.955 -1.13677 1.59176 0
M  V30 8034 O 786.161 -1.69058 2.12442 0
M  V30 8035 C 784.617 0.455262 3.57009 0
M  V30 8036 C 784.225 1.88319 4.06497 0
M  V30 8037 C 785.969 0.0629786 4.24453 0
M  V30 8038 C 783.876 2.00475 5.56385 0
M  V30 8039 H 782.806 0.102106 0.747054 0
M  V30 8040 H 785.457 0.911515 1.5926 0
M  V30 8041 H 783.839 -0.242057 3.9526 0
M  V30 8042 H 785.013 2.61265 3.79575 0
M  V30 8043 H 783.328 2.2289 3.51723 0
M  V30 8044 H 785.925 0.132787 5.34535 0
M  V30 8045 H 786.268 -0.982128 4.04549 0
M  V30 8046 H 786.801 0.71154 3.91385 0
M  V30 8047 H 783.54 3.03182 5.81172 0
M  V30 8048 H 783.06 1.31969 5.85102 0
M  V30 8049 H 784.739 1.787 6.21832 0
M  V30 8050 N 784.871 -1.49948 0.485112 0
M  V30 8051 C 785.818 -2.28819 -0.301729 0
M  V30 8052 C 786.788 -1.34496 -0.974683 0
M  V30 8053 O 787.973 -1.63444 -0.984418 0
M  V30 8054 C 785.113 -3.16758 -1.36961 0
M  V30 8055 C 784.226 -4.26125 -0.710027 0
M  V30 8056 C 783.361 -5.01302 -1.75699 0
M  V30 8057 C 782.4 -6.02525 -1.07841 0
M  V30 8058 N 781.537 -6.70927 -2.06886 0
M  V30 8059 H 786.377 -2.95604 0.377127 0
M  V30 8060 H 783.914 -1.45764 0.197826 0
M  V30 8061 H 785.872 -3.66106 -2.00056 0
M  V30 8062 H 784.502 -2.51991 -2.01744 0
M  V30 8063 H 783.554 -3.80385 0.0338278 0
M  V30 8064 H 784.866 -4.98493 -0.175079 0
M  V30 8065 H 784.02 -5.54438 -2.46339 0
M  V30 8066 H 782.759 -4.28672 -2.32577 0
M  V30 8067 H 781.764 -5.48635 -0.357706 0
M  V30 8068 H 782.989 -6.77134 -0.516345 0
M  V30 8069 H 780.935 -6.01079 -2.62755 0
M  V30 8070 H 780.852 -7.39216 -1.58414 0
M  V30 8071 H 782.12 -7.28675 -2.76863 0
M  V30 8072 N 786.349 -0.21828 -1.56081 0
M  V30 8073 C 787.597 0.413488 -1.97825 0
M  V30 8074 C 787.918 1.60527 -1.10707 0
M  V30 8075 O 787.188 1.9504 -0.183378 0
M  V30 8076 H 785.768 0.155757 -0.730581 0
M  V30 8077 H 788.43 -0.310413 -1.92412 0
M  V30 8078 H 787.526 0.742024 -3.03151 0
M  V30 8079 N 787.827 1.57504 0.0551401 0
M  V30 8080 C 789.073 1.88334 0.752216 0
M  V30 8081 C 789.406 0.812742 1.76375 0
M  V30 8082 O 788.681 -0.175198 1.93709 0
M  V30 8083 C 788.964 3.29824 1.44528 0
M  V30 8084 C 788.817 4.47553 0.449026 0
M  V30 8085 C 790.136 3.69808 2.38601 0
M  V30 8086 H 787.255 0.684973 0.271995 0
M  V30 8087 H 789.897 1.89994 0.0151895 0
M  V30 8088 H 788.047 3.28539 2.07351 0
M  V30 8089 H 789.719 4.60967 -0.175277 0
M  V30 8090 H 787.962 4.33168 -0.234162 0
M  V30 8091 H 788.633 5.43376 0.971917 0
M  V30 8092 H 791.109 3.72293 1.85842 0
M  V30 8093 H 789.985 4.69665 2.84088 0
M  V30 8094 H 790.246 3.00641 3.24141 0
M  V30 8095 N 789.305 -0.326896 1.54172 0
M  V30 8096 C 790.215 -1.42525 1.86343 0
M  V30 8097 C 791.231 -1.56764 0.75505 0
M  V30 8098 O 792.407 -1.71924 1.04901 0
M  V30 8099 C 789.472 -2.77286 2.08119 0
M  V30 8100 C 788.533 -2.7225 3.31931 0
M  V30 8101 C 787.766 -4.00584 3.52659 0
M  V30 8102 O 787.989 -4.98686 2.76891 0
M  V30 8103 O 786.923 -4.04045 4.46129 0
M  V30 8104 H 790.749 -1.18249 2.79734 0
M  V30 8105 H 788.334 -0.520614 1.40036 0
M  V30 8106 H 790.216 -3.57065 2.23791 0
M  V30 8107 H 788.891 -3.01459 1.17917 0
M  V30 8108 H 787.798 -1.91033 3.21647 0
M  V30 8109 H 789.131 -2.53032 4.2218 0
M  V30 8110 N 790.784 -1.46188 -0.588786 0
M  V30 8111 C 792.012 -1.54743 -1.37339 0
M  V30 8112 C 792.427 -0.186446 -1.87877 0
M  V30 8113 O 791.784 0.815247 -1.63279 0
M  V30 8114 C 791.835 -2.54727 -2.56508 0
M  V30 8115 O 791.556 -3.85539 -2.08066 0
M  V30 8116 C 793.057 -2.73163 -3.49137 0
M  V30 8117 H 790.277 -0.523484 -0.419768 0
M  V30 8118 H 792.821 -1.91543 -0.716345 0
M  V30 8119 H 790.976 -2.20948 -3.18215 0
M  V30 8120 H 791.39 -4.39905 -2.85629 0
M  V30 8121 H 792.864 -3.47057 -4.2925 0
M  V30 8122 H 793.341 -1.79856 -4.00685 0
M  V30 8123 H 793.947 -3.08014 -2.9327 0
M  V30 8124 N 792.262 0.832906 -1.33792 0
M  V30 8125 C 793.511 1.58351 -1.24932 0
M  V30 8126 C 793.824 1.94754 0.181703 0
M  V30 8127 O 795.03 2.6865 0.392375 0
M  V30 8128 C 793.486 2.85643 -2.18943 0
M  V30 8129 C 793.094 2.56581 -3.67247 0
M  V30 8130 C 794.838 3.63667 -2.18968 0
M  V30 8131 C 792.745 3.80006 -4.53155 0
M  V30 8132 H 791.675 0.594278 -0.464058 0
M  V30 8133 H 794.326 0.91786 -1.58895 0
M  V30 8134 H 792.708 3.53781 -1.77919 0
M  V30 8135 H 793.882 1.96617 -4.16747 0
M  V30 8136 H 792.197 1.91851 -3.6957 0
M  V30 8137 H 794.794 4.55293 -2.80379 0
M  V30 8138 H 795.137 3.99039 -1.18631 0
M  V30 8139 H 795.67 3.0246 -2.58384 0
M  V30 8140 H 792.409 3.4976 -5.5439 0
M  V30 8141 H 791.929 4.39288 -4.08395 0
M  V30 8142 H 793.608 4.47523 -4.6726 0
M  V30 8143 N 793.74 1.17359 1.05189 0
M  V30 8144 C 794.703 0.892604 2.11105 0
M  V30 8145 C 795.703 -0.117236 1.60372 0
M  V30 8146 O 796.893 0.114936 1.7382 0
M  V30 8147 C 794.025 0.337032 3.3923 0
M  V30 8148 H 795.218 1.83169 2.37464 0
M  V30 8149 H 792.771 0.984051 1.21434 0
M  V30 8150 H 793.506 -0.609198 3.18527 0
M  V30 8151 H 793.291 1.06484 3.77364 0
M  V30 8152 H 794.781 0.158763 4.17298 0
M  V30 8153 N 795.218 -1.23913 0.973828 0
M  V30 8154 C 796.166 -2.27141 0.50098 0
M  V30 8155 C 797.16 -1.63623 -0.438631 0
M  V30 8156 O 798.366 -1.77253 -0.313247 0
M  V30 8157 H 794.741 -0.73817 0.14356 0
M  V30 8158 H 796.712 -2.64392 1.38346 0
M  V30 8159 C 795.461 -3.47195 -0.187377 0
M  V30 8160 H 794.784 -3.96318 0.526535 0
M  V30 8161 H 796.224 -4.21252 -0.481962 0
M  V30 8162 C 794.683 -3.05678 -1.41642 0
M  V30 8163 O 795.213 -3.1338 -2.51309 0
M  V30 8164 N 793.419 -2.60661 -1.28469 0
M  V30 8165 H 792.966 -2.54594 -0.39238 0
M  V30 8166 H 792.924 -2.33249 -2.10813 0
M  V30 8167 N 796.696 -0.74468 -1.38897 0
M  V30 8168 C 797.973 -0.222773 -1.94327 0
M  V30 8169 C 798.353 1.27731 -1.68071 0
M  V30 8170 O 797.701 2.04754 -1.01429 0
M  V30 8171 C 797.911 -0.566836 -3.44366 0
M  V30 8172 C 799.259 -0.521531 -4.21385 0
M  V30 8173 O 800.283 -0.504599 -3.52608 0
M  V30 8174 O 799.142 -0.524595 -5.43976 0
M  V30 8175 H 796.236 -0.0439259 -0.825833 0
M  V30 8176 H 798.782 -0.824197 -1.48341 0
M  V30 8177 H 797.554 -1.60321 -3.56949 0
M  V30 8178 H 797.177 0.0630577 -3.9755 0
M  V30 8179 N 798.174 1.49689 -0.493057 0
M  V30 8180 C 799.42 2.02727 0.0543518 0
M  V30 8181 C 799.753 1.37264 1.37376 0
M  V30 8182 O 799.028 0.505644 1.87812 0
M  V30 8183 C 799.311 3.59456 0.215226 0
M  V30 8184 C 799.164 4.35459 -1.12675 0
M  V30 8185 C 800.483 4.29511 0.959586 0
M  V30 8186 H 797.602 0.736773 0.0182786 0
M  V30 8187 H 800.244 1.78792 -0.642924 0
M  V30 8188 H 798.394 3.79981 0.809122 0
M  V30 8189 H 800.066 4.2645 -1.75891 0
M  V30 8190 H 798.309 3.9833 -1.71801 0
M  V30 8191 H 798.98 5.43454 -0.967578 0
M  V30 8192 H 801.456 4.13594 0.455977 0
M  V30 8193 H 800.332 5.38939 1.04098 0
M  V30 8194 H 800.593 3.94202 2.00144 0
M  V30 8195 N 799.652 0.226554 1.55963 0
M  V30 8196 C 800.898 -0.404387 1.98727 0
M  V30 8197 C 801.231 -1.59059 1.11418 0
M  V30 8198 O 800.506 -1.93729 0.172971 0
M  V30 8199 C 800.789 -0.834081 3.50307 0
M  V30 8200 C 800.642 0.356104 4.48388 0
M  V30 8201 C 801.961 -1.68845 4.06423 0
M  V30 8202 H 799.08 -0.145515 0.722492 0
M  V30 8203 H 801.722 0.323791 1.87221 0
M  V30 8204 H 799.872 -1.45454 3.60244 0
M  V30 8205 H 801.544 0.99432 4.50456 0
M  V30 8206 H 799.787 1.0027 4.22053 0
M  V30 8207 H 800.458 0.0124333 5.51999 0
M  V30 8208 H 802.934 -1.16489 3.99461 0
M  V30 8209 H 801.81 -1.958 5.1279 0
M  V30 8210 H 802.071 -2.65347 3.53615 0
M  V30 8211 N 801.13 -1.57531 -0.0467866 0
M  V30 8212 C 802.355 -1.93087 -0.757123 0
M  V30 8213 C 802.78 -0.825116 -1.69037 0
M  V30 8214 O 802.138 0.220449 -1.79955 0
M  V30 8215 C 802.186 -3.27669 -1.5055 0
M  V30 8216 O 801.29 -3.18667 -2.61773 0
M  V30 8217 H 800.631 -0.631597 -0.204892 0
M  V30 8218 H 803.161 -2.04599 -0.00755232 0
M  V30 8219 H 803.171 -3.6214 -1.87932 0
M  V30 8220 H 801.846 -4.07717 -0.820931 0
M  V30 8221 H 800.423 -2.95798 -2.27064 0
M  V30 8222 N 802.608 0.318715 -1.54344 0
M  V30 8223 C 803.538 1.39751 -1.87061 0
M  V30 8224 C 804.519 1.53741 -0.727848 0
M  V30 8225 O 805.704 1.67541 -0.982016 0
M  V30 8226 C 802.834 2.76446 -2.10226 0
M  V30 8227 C 801.788 2.77239 -3.26071 0
M  V30 8228 C 801.114 4.17056 -3.34617 0
M  V30 8229 C 802.414 2.40555 -4.63606 0
M  V30 8230 H 804.108 1.12619 -2.77412 0
M  V30 8231 H 801.654 0.540318 -1.33479 0
M  V30 8232 H 803.607 3.51985 -2.31699 0
M  V30 8233 H 802.331 3.05066 -1.16629 0
M  V30 8234 H 800.99 2.04155 -3.04493 0
M  V30 8235 H 800.638 4.42824 -2.3857 0
M  V30 8236 H 800.338 4.18492 -4.12478 0
M  V30 8237 H 801.862 4.94401 -3.5833 0
M  V30 8238 H 803.276 3.05808 -4.84927 0
M  V30 8239 H 801.673 2.53234 -5.44052 0
M  V30 8240 H 802.743 1.35698 -4.65526 0
M  V30 8241 N 804.086 1.46499 0.581025 0
M  V30 8242 C 805.049 1.5677 1.672 0
M  V30 8243 C 806.049 0.444716 1.54528 0
M  V30 8244 O 807.239 0.709074 1.59116 0
M  V30 8245 C 804.371 1.4896 3.06633 0
M  V30 8246 H 805.564 2.54 1.5945 0
M  V30 8247 H 803.117 1.34334 0.799003 0
M  V30 8248 H 803.852 0.530168 3.19937 0
M  V30 8249 H 803.637 2.30439 3.17239 0
M  V30 8250 H 805.127 1.59237 3.86048 0
M  V30 8251 N 805.565 -0.825799 1.34232 0
M  V30 8252 C 806.793 -1.61363 1.29497 0
M  V30 8253 C 807.208 -1.88341 -0.131536 0
M  V30 8254 O 806.565 -1.47279 -1.07773 0
M  V30 8255 C 806.616 -2.95623 2.08061 0
M  V30 8256 O 806.337 -2.69824 3.45147 0
M  V30 8257 C 807.838 -3.90032 2.10688 0
M  V30 8258 H 805.058 -0.501676 0.445603 0
M  V30 8259 H 807.602 -1.02767 1.76803 0
M  V30 8260 H 805.757 -3.50785 1.64404 0
M  V30 8261 H 806.171 -3.55412 3.85723 0
M  V30 8262 H 807.645 -4.81411 2.70087 0
M  V30 8263 H 808.122 -4.25188 1.10052 0
M  V30 8264 H 808.728 -3.40807 2.54422 0
M  V30 8265 N 807.043 -1.17915 -1.04565 0
M  V30 8266 C 807.99 -0.901605 -2.12461 0
M  V30 8267 C 808.96 0.157011 -1.65356 0
M  V30 8268 O 810.145 0.0184494 -1.90791 0
M  V30 8269 C 807.285 -0.42796 -3.42436 0
M  V30 8270 C 806.398 -1.55142 -4.03181 0
M  V30 8271 C 805.533 -1.03101 -5.21098 0
M  V30 8272 C 804.572 -2.1295 -5.73863 0
M  V30 8273 N 803.709 -1.62339 -6.83074 0
M  V30 8274 H 808.549 -1.82551 -2.3554 0
M  V30 8275 H 806.086 -0.910389 -1.15544 0
M  V30 8276 H 808.044 -0.134859 -4.16982 0
M  V30 8277 H 806.674 0.458977 -3.1952 0
M  V30 8278 H 805.726 -1.96011 -3.26012 0
M  V30 8279 H 807.038 -2.37968 -4.38375 0
M  V30 8280 H 806.192 -0.692132 -6.02739 0
M  V30 8281 H 804.931 -0.17227 -4.87396 0
M  V30 8282 H 803.936 -2.47687 -4.90847 0
M  V30 8283 H 805.161 -2.9925 -6.09611 0
M  V30 8284 H 803.107 -0.787464 -6.51256 0
M  V30 8285 H 803.024 -2.38767 -7.17305 0
M  V30 8286 H 804.292 -1.31363 -7.68351 0
M  V30 8287 N 808.521 1.23394 -0.980386 0
M  V30 8288 C 809.484 2.23092 -0.525619 0
M  V30 8289 C 810.484 1.56129 0.384745 0
M  V30 8290 O 811.674 1.73284 0.178439 0
M  V30 8291 C 808.806 3.40074 0.23712 0
M  V30 8292 H 809.999 2.64839 -1.40714 0
M  V30 8293 H 807.552 1.36227 -0.766275 0
M  V30 8294 H 808.287 3.03783 1.13518 0
M  V30 8295 H 808.072 3.89883 -0.416356 0
M  V30 8296 H 809.562 4.14043 0.543892 0
M  V30 8297 N 809.999 0.752036 1.385 0
M  V30 8298 C 811.415 0.42946 1.53713 0
M  V30 8299 C 811.615 -1.0576 1.71514 0
M  V30 8300 O 810.671 -1.84366 1.72527 0
M  V30 8301 C 811.984 1.22735 2.74511 0
M  V30 8302 C 813.532 1.21727 2.8836 0
M  V30 8303 C 814.007 1.99809 4.12117 0
M  V30 8304 N 815.498 1.97062 4.19191 0
M  V30 8305 C 816.233 2.54274 5.13938 0
M  V30 8306 N 815.729 3.20193 6.14368 0
M  V30 8307 N 817.522 2.44212 5.06277 0
M  V30 8308 H 809.673 1.71581 1.25195 0
M  V30 8309 H 811.936 0.727293 0.60807 0
M  V30 8310 H 811.642 2.28032 2.67758 0
M  V30 8311 H 811.516 0.843186 3.67655 0
M  V30 8312 H 813.903 0.172367 2.94596 0
M  V30 8313 H 813.984 1.64094 1.96232 0
M  V30 8314 H 813.628 3.0431 4.06642 0
M  V30 8315 H 813.558 1.54837 5.03322 0
M  V30 8316 H 816.049 1.49054 3.47263 0
M  V30 8317 H 816.362 3.61272 6.83156 0
M  V30 8318 H 814.707 3.24287 6.14705 0
M  V30 8319 H 817.898 1.92343 4.26757 0
M  V30 8320 H 818.071 2.89096 5.79937 0
M  V30 8321 N 811.477 -1.49425 0.500989 0
M  V30 8322 C 812.387 -2.32899 -0.282011 0
M  V30 8323 C 813.403 -1.44632 -0.967346 0
M  V30 8324 O 814.579 -1.77654 -0.94873 0
M  V30 8325 C 811.644 -3.20069 -1.33253 0
M  V30 8326 C 810.705 -4.24186 -0.660636 0
M  V30 8327 C 809.938 -5.07191 -1.6611 0
M  V30 8328 O 810.161 -4.91712 -2.89094 0
M  V30 8329 O 809.095 -5.8948 -1.21643 0
M  V30 8330 H 812.921 -3.01038 0.401224 0
M  V30 8331 H 810.506 -1.47079 0.262323 0
M  V30 8332 H 812.388 -3.74071 -1.94033 0
M  V30 8333 H 811.063 -2.54625 -1.9987 0
M  V30 8334 H 809.97 -3.74098 -0.0130959 0
M  V30 8335 H 811.303 -4.92186 -0.0369179 0
M  V30 8336 N 812.955 -0.234822 -1.55841 0
M  V30 8337 C 814.203 0.392483 -1.98252 0
M  V30 8338 C 814.524 1.59344 -1.12404 0
M  V30 8339 O 813.794 1.94834 -0.204055 0
M  V30 8340 H 812.374 0.147999 -0.732192 0
M  V30 8341 H 815.036 -0.330804 -1.92072 0
M  V30 8342 H 814.132 0.709829 -3.03921 0
M  V30 8343 N 814.433 1.57553 0.0384317 0
M  V30 8344 C 815.38 2.05942 1.04194 0
M  V30 8345 C 816.35 0.946637 1.36484 0
M  V30 8346 O 817.535 1.21658 1.46983 0
M  V30 8347 C 814.675 2.53588 2.34066 0
M  V30 8348 C 813.788 3.7862 2.08017 0
M  V30 8349 C 812.923 4.14915 3.31692 0
M  V30 8350 C 811.962 5.32891 3.01155 0
M  V30 8351 N 811.099 5.64662 4.17254 0
M  V30 8352 H 815.939 2.91429 0.622341 0
M  V30 8353 H 813.476 1.44098 0.295684 0
M  V30 8354 H 815.434 2.79276 3.09937 0
M  V30 8355 H 814.064 1.71031 2.73767 0
M  V30 8356 H 813.116 3.60073 1.22686 0
M  V30 8357 H 814.428 4.64613 1.81484 0
M  V30 8358 H 813.582 4.41681 4.15936 0
M  V30 8359 H 812.321 3.27555 3.6133 0
M  V30 8360 H 811.326 5.05887 2.15311 0
M  V30 8361 H 812.551 6.21896 2.72804 0
M  V30 8362 H 810.497 4.80261 4.46861 0
M  V30 8363 H 810.414 6.45145 3.94112 0
M  V30 8364 H 811.682 5.96 5.02399 0
M  V30 8365 N 815.911 -0.310526 1.54511 0
M  V30 8366 C 816.841 -1.38757 1.878 0
M  V30 8367 C 817.822 -1.53353 0.735991 0
M  V30 8368 O 819.007 -1.67018 0.990887 0
M  V30 8369 C 816.137 -2.75327 2.11689 0
M  V30 8370 C 815.091 -2.75506 3.27537 0
M  V30 8371 C 814.417 -4.15275 3.36824 0
M  V30 8372 C 815.717 -2.38093 4.64875 0
M  V30 8373 H 817.411 -1.11146 2.78005 0
M  V30 8374 H 814.957 -0.533232 1.33763 0
M  V30 8375 H 816.91 -3.50752 2.33562 0
M  V30 8376 H 815.634 -3.04443 1.18245 0
M  V30 8377 H 814.293 -2.02538 3.05572 0
M  V30 8378 H 813.941 -4.41553 2.40915 0
M  V30 8379 H 813.641 -4.16299 4.14692 0
M  V30 8380 H 815.165 -4.92493 3.60947 0
M  V30 8381 H 816.579 -3.03232 4.86542 0
M  V30 8382 H 814.976 -2.50345 5.45387 0
M  V30 8383 H 816.046 -1.33227 4.66239 0
M  V30 8384 N 817.389 -1.46805 -0.573248 0
M  V30 8385 C 818.321 -1.54127 -1.6964 0
M  V30 8386 C 819.334 -0.428778 -1.57052 0
M  V30 8387 O 820.523 -0.697612 -1.64303 0
M  V30 8388 C 817.623 -1.41438 -3.07975 0
M  V30 8389 C 816.796 -2.66974 -3.46474 0
M  V30 8390 C 815.855 -2.48349 -4.63906 0
M  V30 8391 O 814.881 -3.22109 -4.69292 0
M  V30 8392 N 816.083 -1.55129 -5.59388 0
M  V30 8393 H 818.848 -2.50971 -1.6381 0
M  V30 8394 H 816.409 -1.42981 -0.759479 0
M  V30 8395 H 818.401 -1.26737 -3.84343 0
M  V30 8396 H 816.971 -0.527388 -3.08119 0
M  V30 8397 H 816.191 -2.9655 -2.59715 0
M  V30 8398 H 817.479 -3.50347 -3.68964 0
M  V30 8399 H 816.877 -0.94324 -5.57781 0
M  V30 8400 H 815.434 -1.46387 -6.35149 0
M  V30 8401 N 818.867 0.818669 -1.34668 0
M  V30 8402 C 820.278 1.39177 -1.24446 0
M  V30 8403 C 820.629 1.9578 0.128268 0
M  V30 8404 O 819.754 1.90382 1.02877 0
M  V30 8405 C 820.349 2.53012 -2.25323 0
M  V30 8406 C 818.908 3.06218 -2.18878 0
M  V30 8407 C 818.055 1.79112 -2.11694 0
M  V30 8408 H 821.006 0.622709 -1.45973 0
M  V30 8409 H 821.027 3.31226 -1.8727 0
M  V30 8410 H 820.539 2.11784 -3.25221 0
M  V30 8411 H 818.64 3.51939 -1.22351 0
M  V30 8412 H 818.753 3.65019 -3.10319 0
M  V30 8413 H 817.117 2.0018 -1.57481 0
M  V30 8414 H 817.9 1.40053 -3.13433 0
M  V30 8415 N 820.346 1.18468 1.03938 0
M  V30 8416 C 821.296 0.880799 2.103 0
M  V30 8417 C 822.28 -0.150008 1.60199 0
M  V30 8418 O 823.472 0.054213 1.76917 0
M  V30 8419 C 820.601 0.409723 3.40846 0
M  V30 8420 C 819.687 1.47267 3.9771 0
M  V30 8421 N 820.078 2.68945 4.28371 0
M  V30 8422 C 818.376 1.33349 4.25598 0
M  V30 8423 C 819.077 3.37341 4.73894 0
M  V30 8424 N 818.053 2.64725 4.74786 0
M  V30 8425 H 821.855 1.80574 2.31884 0
M  V30 8426 H 819.369 1.07527 1.21703 0
M  V30 8427 H 821.366 0.17352 4.16539 0
M  V30 8428 H 820.026 -0.508862 3.20688 0
M  V30 8429 H 821.037 3.05801 4.17978 0
M  V30 8430 H 817.714 0.477548 4.1476 0
M  V30 8431 H 819.104 4.41338 5.06627 0
M  V30 8432 N 821.824 -1.22873 0.986916 0
M  V30 8433 C 822.734 -2.28277 0.540978 0
M  V30 8434 C 823.75 -1.69164 -0.407363 0
M  V30 8435 O 824.926 -1.99504 -0.275674 0
M  V30 8436 C 821.991 -3.46404 -0.143181 0
M  V30 8437 C 821.052 -4.20854 0.847375 0
M  V30 8438 C 820.285 -5.33341 0.19577 0
M  V30 8439 O 820.508 -5.61356 -1.0117 0
M  V30 8440 O 819.442 -5.95169 0.897623 0
M  V30 8441 H 823.268 -2.68578 1.41773 0
M  V30 8442 H 820.853 -1.28927 0.754867 0
M  V30 8443 H 822.735 -4.18096 -0.526676 0
M  V30 8444 H 821.41 -3.08041 -0.994593 0
M  V30 8445 H 820.317 -3.51459 1.28169 0
M  V30 8446 H 821.65 -4.63082 1.6678 0
M  V30 8447 N 823.302 -0.75937 -1.38099 0
M  V30 8448 C 824.549 -0.318113 -1.99986 0
M  V30 8449 C 824.877 1.10184 -1.6028 0
M  V30 8450 O 824.132 1.77015 -0.834524 0
M  V30 8451 C 824.431 -0.394999 -3.55211 0
M  V30 8452 C 824.097 -1.77143 -4.14646 0
M  V30 8453 C 822.759 -2.14811 -4.30592 0
M  V30 8454 C 825.111 -2.67407 -4.47373 0
M  V30 8455 C 822.439 -3.42203 -4.76565 0
M  V30 8456 C 824.791 -3.94196 -4.94765 0
M  V30 8457 C 823.455 -4.31925 -5.08918 0
M  V30 8458 H 822.725 -0.116406 -0.7318 0
M  V30 8459 H 825.372 -0.97098 -1.65058 0
M  V30 8460 H 823.677 0.341426 -3.9031 0
M  V30 8461 H 825.374 -0.0350722 -4.00985 0
M  V30 8462 H 821.964 -1.46864 -4.02652 0
M  V30 8463 H 826.148 -2.39569 -4.3465 0
M  V30 8464 H 821.404 -3.71346 -4.85708 0
M  V30 8465 H 825.578 -4.64276 -5.19057 0
M  V30 8466 H 823.205 -5.30699 -5.443 0
M  V30 8467 N 824.78 1.49157 -0.508906 0
M  V30 8468 C 825.712 2.272 0.302115 0
M  V30 8469 C 826.725 1.3407 0.923529 0
M  V30 8470 O 827.914 1.5929 0.805532 0
M  V30 8471 C 825.014 3.06736 1.44105 0
M  V30 8472 C 824.187 4.27497 0.925477 0
M  V30 8473 C 823.246 4.89014 1.94297 0
M  V30 8474 O 822.272 5.48851 1.50834 0
M  V30 8475 N 823.474 4.7937 3.2739 0
M  V30 8476 H 826.239 2.97443 -0.367115 0
M  V30 8477 H 823.8 1.58248 -0.341933 0
M  V30 8478 H 825.792 3.44763 2.11944 0
M  V30 8479 H 824.362 2.3905 2.0143 0
M  V30 8480 H 823.582 3.94135 0.0717301 0
M  V30 8481 H 824.87 5.05714 0.55955 0
M  V30 8482 H 824.268 4.31869 3.65384 0
M  V30 8483 H 822.825 5.21559 3.90922 0
M  V30 8484 N 826.258 0.243083 1.55714 0
M  V30 8485 C 827.506 -0.381964 1.98458 0
M  V30 8486 C 827.827 -1.58745 1.13247 0
M  V30 8487 O 827.097 -1.94723 0.214384 0
M  V30 8488 H 825.677 -0.144114 0.732967 0
M  V30 8489 H 828.339 0.340985 1.91894 0
M  V30 8490 H 827.435 -0.693702 3.04293 0
M  V30 8491 N 827.736 -1.57571 -0.0300757 0
M  V30 8492 C 828.984 -1.88852 -0.719666 0
M  V30 8493 C 829.305 -0.840645 -1.75949 0
M  V30 8494 O 828.575 0.125854 -1.95495 0
M  V30 8495 H 827.155 -0.696965 -0.268792 0
M  V30 8496 H 829.817 -1.949 0.00373285 0
M  V30 8497 H 828.913 -2.87695 -1.20987 0
M  V30 8498 N 829.214 0.302327 -1.54673 0
M  V30 8499 C 830.442 1.05669 -1.77881 0
M  V30 8500 C 830.857 1.80983 -0.537648 0
M  V30 8501 O 830.214 1.7573 0.492467 0
M  V30 8502 C 830.265 2.03828 -2.98557 0
M  V30 8503 O 829.986 1.3157 -4.17877 0
M  V30 8504 C 831.487 2.91314 -3.34143 0
M  V30 8505 H 828.707 0.313436 -0.593295 0
M  V30 8506 H 831.251 0.342003 -2.0162 0
M  V30 8507 H 829.406 2.70801 -2.7703 0
M  V30 8508 H 829.82 1.97481 -4.85903 0
M  V30 8509 H 831.294 3.56042 -4.21827 0
M  V30 8510 H 831.771 3.59544 -2.52239 0
M  V30 8511 H 832.377 2.29874 -3.57824 0
M  V30 8512 N 830.692 1.47107 0.565454 0
M  V30 8513 C 831.939 1.53308 1.32299 0
M  V30 8514 C 832.267 0.1919 1.93551 0
M  V30 8515 O 831.522 -0.81435 1.77952 0
M  V30 8516 C 831.821 2.59309 2.45954 0
M  V30 8517 C 831.487 4.02827 2.02586 0
M  V30 8518 C 830.149 4.41897 1.90474 0
M  V30 8519 C 832.501 4.92913 1.6937 0
M  V30 8520 C 829.829 5.68898 1.4343 0
M  V30 8521 C 832.181 6.20368 1.238 0
M  V30 8522 C 830.845 6.58327 1.10278 0
M  V30 8523 H 830.115 0.560993 0.484116 0
M  V30 8524 H 832.762 1.80667 0.634965 0
M  V30 8525 H 831.067 2.25676 3.20277 0
M  V30 8526 H 832.764 2.61332 3.04149 0
M  V30 8527 H 829.354 3.71953 2.12952 0
M  V30 8528 H 833.538 4.63433 1.77605 0
M  V30 8529 H 828.794 5.97065 1.31618 0
M  V30 8530 H 832.968 6.89589 0.971586 0
M  V30 8531 H 830.595 7.56628 0.736027 0
M  V30 8532 N 832.17 -0.811516 1.35101 0
M  V30 8533 C 833.398 -1.59981 1.31201 0
M  V30 8534 C 833.813 -1.8847 -0.111552 0
M  V30 8535 O 833.17 -1.48414 -1.06205 0
M  V30 8536 C 833.221 -2.934 2.11184 0
M  V30 8537 O 832.942 -2.66148 3.4799 0
M  V30 8538 C 834.443 -3.87776 2.14813 0
M  V30 8539 H 831.663 -0.496921 0.450899 0
M  V30 8540 H 834.207 -1.00886 1.77883 0
M  V30 8541 H 832.362 -3.49022 1.68115 0
M  V30 8542 H 832.776 -3.51301 3.89471 0
M  V30 8543 H 834.25 -4.7852 2.75178 0
M  V30 8544 H 834.727 -4.23997 1.14556 0
M  V30 8545 H 835.333 -3.3809 2.58022 0
M  V30 8546 N 833.648 -1.19017 -1.03309 0
M  V30 8547 C 834.897 -0.984542 -1.76039 0
M  V30 8548 C 835.21 0.485937 -1.89468 0
M  V30 8549 O 836.416 0.810278 -2.59127 0
M  V30 8550 C 834.872 -1.71261 -3.1654 0
M  V30 8551 C 834.48 -3.22291 -3.11179 0
M  V30 8552 C 836.224 -1.59007 -3.93595 0
M  V30 8553 C 834.131 -3.87704 -4.46587 0
M  V30 8554 H 833.061 -0.364749 -0.659905 0
M  V30 8555 H 835.712 -1.4247 -1.15649 0
M  V30 8556 H 834.094 -1.20025 -3.77373 0
M  V30 8557 H 835.268 -3.80611 -2.59753 0
M  V30 8558 H 833.583 -3.34772 -2.47622 0
M  V30 8559 H 836.18 -2.05232 -4.93745 0
M  V30 8560 H 836.523 -0.543534 -4.12736 0
M  V30 8561 H 837.056 -2.07564 -3.39355 0
M  V30 8562 H 833.795 -4.92437 -4.3265 0
M  V30 8563 H 833.315 -3.34172 -4.98085 0
M  V30 8564 H 834.994 -3.91008 -5.15482 0
M  V30 8565 N 835.127 1.22348 -0.993418 0
M  V30 8566 C 836.352 1.95666 -0.687727 0
M  V30 8567 C 836.777 1.72883 0.741161 0
M  V30 8568 O 836.135 1.00837 1.50671 0
M  V30 8569 C 836.183 3.46457 -0.99998 0
M  V30 8570 O 835.287 4.12281 -0.0989386 0
M  V30 8571 H 834.628 0.612102 -0.257346 0
M  V30 8572 H 837.158 1.55428 -1.33054 0
M  V30 8573 H 837.168 3.96976 -0.942035 0
M  V30 8574 H 835.843 3.62365 -2.04118 0
M  V30 8575 H 834.42 3.72295 -0.212413 0
M  V30 8576 N 836.605 0.766683 1.37694 0
M  V30 8577 C 837.553 0.137269 2.32195 0
M  V30 8578 C 838.547 -0.69067 1.54681 0
M  V30 8579 O 839.753 -0.588299 1.70115 0
M  V30 8580 H 836.128 0.0256003 0.751564 0
M  V30 8581 H 838.099 0.950129 2.82869 0
M  V30 8582 C 836.848 -0.731446 3.39919 0
M  V30 8583 H 836.171 -0.103738 3.99665 0
M  V30 8584 H 837.611 -1.13891 4.08417 0
M  V30 8585 C 836.07 -1.87984 2.79578 0
M  V30 8586 O 836.6 -2.97496 2.69924 0
M  V30 8587 N 834.806 -1.6789 2.37195 0
M  V30 8588 H 834.353 -0.788162 2.45246 0
M  V30 8589 H 834.311 -2.44894 1.97165 0
M  V30 8590 N 838.083 -1.48885 0.516809 0
M  V30 8591 C 839.013 -2.32241 -0.242157 0
M  V30 8592 C 839.994 -1.41258 -0.947633 0
M  V30 8593 O 841.179 -1.70156 -0.935973 0
M  V30 8594 C 838.309 -3.22151 -1.29754 0
M  V30 8595 C 837.263 -4.22053 -0.710995 0
M  V30 8596 C 836.589 -5.01007 -1.86806 0
M  V30 8597 C 837.889 -5.21388 0.30853 0
M  V30 8598 H 839.583 -2.95943 0.453651 0
M  V30 8599 H 837.129 -1.42316 0.219612 0
M  V30 8600 H 839.082 -3.79284 -1.83634 0
M  V30 8601 H 837.806 -2.56423 -2.02274 0
M  V30 8602 H 836.465 -3.66087 -0.193819 0
M  V30 8603 H 836.113 -4.31713 -2.58133 0
M  V30 8604 H 835.813 -5.68615 -1.48159 0
M  V30 8605 H 837.337 -5.60989 -2.4109 0
M  V30 8606 H 838.751 -5.73122 -0.142703 0
M  V30 8607 H 837.148 -5.96975 0.611673 0
M  V30 8608 H 838.218 -4.69329 1.21894 0
M  V30 8609 N 839.561 -0.251338 -1.55583 0
M  V30 8610 C 840.809 0.371434 -1.98657 0
M  V30 8611 C 841.13 1.58143 -1.14087 0
M  V30 8612 O 840.4 1.94607 -0.224708 0
M  V30 8613 H 838.98 0.140225 -0.733721 0
M  V30 8614 H 841.642 -0.351157 -1.9171 0
M  V30 8615 H 840.738 0.677554 -3.04657 0
M  V30 8616 N 841.039 1.57585 0.0217189 0
M  V30 8617 C 841.972 2.02435 1.05334 0
M  V30 8618 C 842.95 0.91006 1.34747 0
M  V30 8619 O 844.134 1.17648 1.47279 0
M  V30 8620 C 841.261 2.40362 2.38629 0
M  V30 8621 C 840.307 3.62307 2.25025 0
M  V30 8622 S 841.14 5.11141 1.59673 0
M  V30 8623 C 842.296 5.52316 2.94444 0
M  V30 8624 H 842.529 2.89621 0.671354 0
M  V30 8625 H 840.062 1.52648 0.231925 0
M  V30 8626 H 842.02 2.62883 3.15282 0
M  V30 8627 H 840.681 1.53615 2.73973 0
M  V30 8628 H 839.874 3.86523 3.23443 0
M  V30 8629 H 839.476 3.39675 1.56515 0
M  V30 8630 H 841.768 5.53449 3.90768 0
M  V30 8631 H 842.711 6.52539 2.74952 0
M  V30 8632 H 843.119 4.79834 2.97355 0
M  V30 8633 N 842.517 -0.29412 1.54831 0
M  V30 8634 C 843.764 -1.02846 1.74439 0
M  V30 8635 C 844.092 -1.87029 0.533905 0
M  V30 8636 O 843.347 -1.8962 -0.484035 0
M  V30 8637 C 843.646 -1.95782 2.99006 0
M  V30 8638 C 843.312 -1.2752 4.32492 0
M  V30 8639 C 841.974 -1.08637 4.68777 0
M  V30 8640 C 844.326 -0.787761 5.15212 0
M  V30 8641 C 841.654 -0.39704 5.85355 0
M  V30 8642 C 844.006 -0.112123 6.32501 0
M  V30 8643 C 842.67 0.0886071 6.67441 0
M  V30 8644 H 841.94 -0.376341 0.638317 0
M  V30 8645 H 844.587 -0.302684 1.89093 0
M  V30 8646 H 842.892 -2.74911 2.79162 0
M  V30 8647 H 844.589 -2.52684 3.11371 0
M  V30 8648 H 841.179 -1.43226 4.03961 0
M  V30 8649 H 845.363 -0.921341 4.87673 0
M  V30 8650 H 840.619 -0.230597 6.10965 0
M  V30 8651 H 844.793 0.27344 6.95863 0
M  V30 8652 H 842.42 0.624748 7.57628 0
M  V30 8653 N 843.995 -1.47404 -0.557645 0
M  V30 8654 C 845.243 -1.53703 -1.31224 0
M  V30 8655 C 845.564 -0.200742 -1.93964 0
M  V30 8656 O 844.834 0.775253 -1.79907 0
M  V30 8657 H 843.414 -0.566171 -0.487299 0
M  V30 8658 H 846.076 -1.83699 -0.651195 0
M  V30 8659 H 845.172 -2.30335 -2.10599 0
M  V30 8660 N 845.473 0.80434 -1.35529 0
M  V30 8661 C 846.722 1.55665 -1.28263 0
M  V30 8662 C 847.035 1.95096 0.140352 0
M  V30 8663 O 848.241 2.69422 0.335303 0
M  V30 8664 C 846.697 2.80935 -2.24952 0
M  V30 8665 C 846.305 2.48733 -3.72607 0
M  V30 8666 C 848.049 3.5894 -2.26632 0
M  V30 8667 C 845.956 3.70308 -4.61114 0
M  V30 8668 H 844.886 0.584301 -0.476559 0
M  V30 8669 H 847.537 0.88395 -1.60806 0
M  V30 8670 H 845.919 3.49927 -1.85383 0
M  V30 8671 H 847.093 1.87733 -4.20824 0
M  V30 8672 H 845.408 1.83969 -3.73557 0
M  V30 8673 H 848.005 4.49244 -2.89973 0
M  V30 8674 H 848.348 3.96433 -1.27069 0
M  V30 8675 H 848.881 2.96912 -2.64742 0
M  V30 8676 H 845.62 3.37922 -5.61684 0
M  V30 8677 H 845.14 4.30526 -4.17621 0
M  V30 8678 H 846.819 4.37511 -4.76648 0
M  V30 8679 N 846.951 1.19563 1.02676 0
M  V30 8680 C 847.898 0.935291 2.11 0
M  V30 8681 C 848.868 -0.130685 1.65585 0
M  V30 8682 O 850.053 0.0119062 1.90796 0
M  V30 8683 C 847.193 0.482384 3.41712 0
M  V30 8684 C 846.306 1.61537 4.00662 0
M  V30 8685 C 845.441 1.11378 5.19392 0
M  V30 8686 C 844.48 2.22052 5.70403 0
M  V30 8687 N 843.617 1.73185 6.80405 0
M  V30 8688 H 848.457 1.86275 2.32606 0
M  V30 8689 H 845.994 0.928656 1.14081 0
M  V30 8690 H 847.952 0.20118 4.16715 0
M  V30 8691 H 846.582 -0.408086 3.2021 0
M  V30 8692 H 845.634 2.01173 3.22852 0
M  V30 8693 H 846.946 2.44912 4.34534 0
M  V30 8694 H 846.1 0.787935 6.01562 0
M  V30 8695 H 844.839 0.249789 4.8706 0
M  V30 8696 H 843.844 2.55465 4.86845 0
M  V30 8697 H 845.069 3.08911 6.04774 0
M  V30 8698 H 843.015 0.890973 6.49921 0
M  V30 8699 H 842.932 2.50148 7.13416 0
M  V30 8700 H 844.2 1.4357 7.66164 0
M  V30 8701 N 848.429 -1.21819 0.999893 0
M  V30 8702 C 849.377 -2.26027 0.549047 0
M  V30 8703 C 850.371 -1.64516 -0.403826 0
M  V30 8704 O 851.577 -1.77878 -0.275578 0
M  V30 8705 H 847.952 -0.734958 0.159185 0
M  V30 8706 H 849.923 -2.61398 1.43923 0
M  V30 8707 C 848.672 -3.47514 -0.11369 0
M  V30 8708 H 847.995 -3.95112 0.610482 0
M  V30 8709 H 849.435 -4.22179 -0.3925 0
M  V30 8710 C 847.894 -3.08614 -1.35126 0
M  V30 8711 O 848.424 -3.1864 -2.44605 0
M  V30 8712 N 846.63 -2.63327 -1.22911 0
M  V30 8713 H 846.177 -2.55369 -0.338288 0
M  V30 8714 H 846.135 -2.37668 -2.05818 0
M  V30 8715 N 849.908 -0.773975 -1.37286 0
M  V30 8716 C 851.155 -0.339306 -1.99637 0
M  V30 8717 C 851.483 1.08478 -1.61439 0
M  V30 8718 O 850.738 1.7612 -0.853252 0
M  V30 8719 C 851.037 -0.432651 -3.54772 0
M  V30 8720 C 850.703 -1.81531 -4.12744 0
M  V30 8721 C 849.365 -2.19366 -4.2829 0
M  V30 8722 C 851.717 -2.72137 -4.44512 0
M  V30 8723 C 849.045 -3.47239 -4.72908 0
M  V30 8724 C 851.397 -3.99421 -4.90556 0
M  V30 8725 C 850.061 -4.37298 -5.04308 0
M  V30 8726 H 849.331 -0.124161 -0.730524 0
M  V30 8727 H 851.978 -0.988432 -1.64019 0
M  V30 8728 H 850.283 0.30001 -3.9065 0
M  V30 8729 H 851.98 -0.0776 -4.00925 0
M  V30 8730 H 848.57 -1.51126 -4.01072 0
M  V30 8731 H 852.754 -2.44165 -4.32084 0
M  V30 8732 H 848.01 -3.76477 -4.81742 0
M  V30 8733 H 852.184 -4.69756 -5.14104 0
M  V30 8734 H 849.811 -5.36442 -5.38641 0
M  V30 8735 N 851.386 1.48609 -0.524698 0
M  V30 8736 C 852.611 2.07398 0.00952139 0
M  V30 8737 C 853.036 1.37939 1.27884 0
M  V30 8738 O 852.394 0.443633 1.75788 0
M  V30 8739 C 852.442 3.59916 0.221956 0
M  V30 8740 O 851.546 3.91647 1.29175 0
M  V30 8741 H 850.887 0.662981 -0.0367729 0
M  V30 8742 H 853.417 1.91092 -0.7311 0
M  V30 8743 H 853.427 4.05552 0.446236 0
M  V30 8744 H 852.102 4.09876 -0.705306 0
M  V30 8745 H 850.679 3.57796 1.05055 0
M  V30 8746 N 852.864 0.259585 1.55447 0
M  V30 8747 C 853.827 -0.621359 2.20617 0
M  V30 8748 C 854.827 -1.09317 1.17925 0
M  V30 8749 O 856.017 -0.995842 1.42929 0
M  V30 8750 C 853.149 -1.85546 2.85982 0
M  V30 8751 H 854.342 -0.0525833 2.99854 0
M  V30 8752 H 851.895 0.0101055 1.56297 0
M  V30 8753 H 852.63 -2.46515 2.10715 0
M  V30 8754 H 852.415 -1.52523 3.61219 0
M  V30 8755 H 853.905 -2.48227 3.35817 0
M  V30 8756 N 854.342 -1.57594 -0.0133615 0
M  V30 8757 C 855.591 -1.8916 -0.700103 0
M  V30 8758 C 855.904 -0.860147 -1.75673 0
M  V30 8759 O 857.11 -1.06556 -2.49716 0
M  V30 8760 C 855.566 -3.35742 -1.29635 0
M  V30 8761 C 855.174 -4.47154 -0.275249 0
M  V30 8762 C 856.918 -3.76436 -1.96205 0
M  V30 8763 C 854.825 -5.84805 -0.880726 0
M  V30 8764 H 853.755 -0.705805 -0.265247 0
M  V30 8765 H 856.406 -1.83445 0.044993 0
M  V30 8766 H 854.788 -3.36252 -2.09167 0
M  V30 8767 H 855.962 -4.58139 0.494506 0
M  V30 8768 H 854.277 -4.15394 0.289256 0
M  V30 8769 H 856.874 -4.76606 -2.42386 0
M  V30 8770 H 857.217 -3.09249 -2.78695 0
M  V30 8771 H 857.75 -3.78168 -1.23426 0
M  V30 8772 H 854.489 -6.55431 -0.0949013 0
M  V30 8773 H 854.009 -5.7751 -1.61995 0
M  V30 8774 H 855.688 -6.32038 -1.38338 0
M  V30 8775 N 855.82 0.285905 -1.54985 0
M  V30 8776 C 857.069 1.01691 -1.74189 0
M  V30 8777 C 857.382 1.87908 -0.543135 0
M  V30 8778 O 858.588 2.64389 -0.617305 0
M  V30 8779 C 857.044 1.85785 -3.0824 0
M  V30 8780 C 856.652 1.04497 -4.35642 0
M  V30 8781 C 858.396 2.58393 -3.36798 0
M  V30 8782 C 856.303 1.87955 -5.60738 0
M  V30 8783 H 855.233 0.383396 -0.649248 0
M  V30 8784 H 857.884 0.27317 -1.81455 0
M  V30 8785 H 856.266 2.64205 -2.94978 0
M  V30 8786 H 857.44 0.305847 -4.59784 0
M  V30 8787 H 855.755 0.434023 -4.14132 0
M  V30 8788 H 858.352 3.21214 -4.27464 0
M  V30 8789 H 858.695 3.28011 -2.56349 0
M  V30 8790 H 859.228 1.87012 -3.511 0
M  V30 8791 H 855.967 1.22781 -6.43898 0
M  V30 8792 H 855.487 2.59499 -5.40759 0
M  V30 8793 H 857.166 2.45636 -5.98558 0
M  V30 8794 N 857.298 1.47698 0.54982 0
M  V30 8795 C 858.246 1.61156 1.67724 0
M  V30 8796 C 859.24 0.478606 1.62498 0
M  V30 8797 O 860.446 0.656661 1.67595 0
M  V30 8798 H 856.821 0.507304 0.55511 0
M  V30 8799 H 858.792 2.55884 1.53512 0
M  V30 8800 C 857.541 1.64994 3.06059 0
M  V30 8801 H 856.864 2.51525 3.10765 0
M  V30 8802 H 858.304 1.78459 3.84615 0
M  V30 8803 C 856.763 0.384677 3.34697 0
M  V30 8804 O 857.293 -0.511057 3.98436 0
M  V30 8805 N 855.499 0.262434 2.89413 0
M  V30 8806 H 855.046 0.99229 2.37721 0
M  V30 8807 H 855.004 -0.583177 3.08944 0
M  V30 8808 N 858.776 -0.797141 1.35954 0
M  V30 8809 C 860.187 -1.37179 1.26644 0
M  V30 8810 C 860.538 -1.9596 -0.0971046 0
M  V30 8811 O 859.663 -1.91994 -0.998355 0
M  V30 8812 C 860.258 -2.49395 2.2932 0
M  V30 8813 C 858.817 -3.02697 2.23722 0
M  V30 8814 C 857.964 -1.75721 2.14517 0
M  V30 8815 H 860.915 -0.599407 1.46945 0
M  V30 8816 H 860.936 -3.28204 1.92515 0
M  V30 8817 H 860.448 -2.06584 3.2855 0
M  V30 8818 H 858.549 -3.49948 1.27934 0
M  V30 8819 H 858.662 -3.60036 3.16087 0
M  V30 8820 H 857.026 -1.97649 1.60646 0
M  V30 8821 H 857.809 -1.35049 3.15621 0
M  V30 8822 N 860.254 -1.20106 -1.0204 0
M  V30 8823 C 861.665 -1.00992 -1.57027 0
M  V30 8824 C 862.016 0.434782 -1.91322 0
M  V30 8825 O 861.141 1.31557 -1.71819 0
M  V30 8826 C 861.736 -1.82697 -2.85319 0
M  V30 8827 C 860.295 -1.67959 -3.36848 0
M  V30 8828 C 859.442 -1.80868 -2.10195 0
M  V30 8829 H 862.393 -1.34354 -0.844676 0
M  V30 8830 H 862.414 -1.32809 -3.5657 0
M  V30 8831 H 861.926 -2.87839 -2.60328 0
M  V30 8832 H 860.027 -0.654389 -3.66809 0
M  V30 8833 H 860.14 -2.49006 -4.09308 0
M  V30 8834 H 858.504 -1.24015 -2.22469 0
M  V30 8835 H 859.287 -2.87486 -1.87635 0
M  V30 8836 N 861.732 1.21287 -1.00634 0
M  V30 8837 C 862.664 2.2308 -0.526094 0
M  V30 8838 C 863.677 1.58157 0.386031 0
M  V30 8839 O 864.866 1.77528 0.186016 0
M  V30 8840 C 861.966 3.37937 0.255289 0
M  V30 8841 C 861.139 4.32449 -0.656236 0
M  V30 8842 C 860.198 5.26145 0.0757714 0
M  V30 8843 O 859.224 5.66601 -0.543325 0
M  V30 8844 N 860.426 5.6449 1.35391 0
M  V30 8845 H 863.191 2.64913 -1.40147 0
M  V30 8846 H 860.752 1.35724 -0.882641 0
M  V30 8847 H 862.744 3.97614 0.753977 0
M  V30 8848 H 861.314 2.95078 1.03187 0
M  V30 8849 H 860.534 3.70892 -1.3354 0
M  V30 8850 H 861.822 4.92526 -1.27653 0
M  V30 8851 H 861.22 5.33617 1.878 0
M  V30 8852 H 859.777 6.26524 1.79753 0
M  V30 8853 N 863.21 0.781244 1.36873 0
M  V30 8854 C 864.173 0.180094 2.28491 0
M  V30 8855 C 865.173 -0.617798 1.48458 0
M  V30 8856 O 866.363 -0.439991 1.68552 0
M  V30 8857 C 863.495 -0.751741 3.32508 0
M  V30 8858 H 864.688 0.987837 2.83164 0
M  V30 8859 H 862.241 0.550102 1.463 0
M  V30 8860 H 862.976 -1.58413 2.82977 0
M  V30 8861 H 862.761 -0.181649 3.91679 0
M  V30 8862 H 864.251 -1.16748 4.00949 0
M  V30 8863 N 864.689 -1.48329 0.532571 0
M  V30 8864 C 865.929 -2.044 0.00145618 0
M  V30 8865 C 866.293 -1.40053 -1.31336 0
M  V30 8866 O 867.494 -1.87026 -1.93066 0
M  V30 8867 C 865.765 -3.57214 -0.115376 0
M  V30 8868 S 867.324 -4.34731 -0.59618 0
M  V30 8869 H 864.142 -0.710876 0.0133038 0
M  V30 8870 H 866.744 -1.82006 0.71372 0
M  V30 8871 H 865.448 -4.01579 0.846335 0
M  V30 8872 H 864.979 -3.84065 -0.85194 0
M  V30 8873 H 866.994 -4.6001 -1.86025 0
M  V30 8874 N 866.167 -0.267825 -1.55308 0
M  V30 8875 C 867.416 0.351635 -1.98611 0
M  V30 8876 C 867.729 1.57522 -1.15957 0
M  V30 8877 O 868.935 2.26717 -1.49371 0
M  V30 8878 C 867.391 0.676986 -3.53475 0
M  V30 8879 C 866.999 -0.526385 -4.44897 0
M  V30 8880 C 868.743 1.25948 -4.05386 0
M  V30 8881 C 866.65 -0.176026 -5.91138 0
M  V30 8882 H 865.58 0.13516 -0.741787 0
M  V30 8883 H 868.231 -0.371333 -1.79704 0
M  V30 8884 H 866.613 1.45866 -3.68156 0
M  V30 8885 H 867.787 -1.30339 -4.41982 0
M  V30 8886 H 866.102 -1.02522 -4.03582 0
M  V30 8887 H 868.699 1.53529 -5.12184 0
M  V30 8888 H 869.042 2.19094 -3.53982 0
M  V30 8889 H 869.575 0.540253 -3.94114 0
M  V30 8890 H 866.314 -1.07518 -6.46622 0
M  V30 8891 H 865.834 0.564363 -5.97139 0
M  V30 8892 H 867.513 0.234365 -6.46575 0
M  V30 8893 N 867.645 1.57599 0.00500368 0
M  V30 8894 C 868.575 2.11143 0.99705 0
M  V30 8895 C 869.556 1.0194 1.3617 0
M  V30 8896 O 870.741 1.29596 1.44632 0
M  V30 8897 C 867.871 2.61062 2.2905 0
M  V30 8898 C 866.825 3.74745 2.0676 0
M  V30 8899 C 866.151 4.10961 3.42075 0
M  V30 8900 C 867.451 5.02222 1.43424 0
M  V30 8901 H 869.145 2.94281 0.551251 0
M  V30 8902 H 866.691 1.41565 0.263715 0
M  V30 8903 H 868.644 2.97146 2.98801 0
M  V30 8904 H 867.368 1.75038 2.75734 0
M  V30 8905 H 866.027 3.39047 1.39436 0
M  V30 8906 H 865.675 3.21968 3.86453 0
M  V30 8907 H 865.375 4.87549 3.27979 0
M  V30 8908 H 866.899 4.49599 4.1315 0
M  V30 8909 H 868.313 5.36109 2.03125 0
M  V30 8910 H 866.71 5.83581 1.39831 0
M  V30 8911 H 867.78 4.83224 0.40285 0
M  V30 8912 N 869.123 -0.277682 1.55134 0
M  V30 8913 C 870.086 -1.32635 1.86924 0
M  V30 8914 C 871.086 -1.42578 0.743507 0
M  V30 8915 O 872.276 -1.4181 1.01171 0
M  V30 8916 C 869.408 -2.70832 2.07034 0
M  V30 8917 H 870.601 -1.0568 2.80663 0
M  V30 8918 H 868.154 -0.515517 1.47554 0
M  V30 8919 H 868.889 -3.02974 1.15661 0
M  V30 8920 H 868.674 -2.65001 2.88993 0
M  V30 8921 H 870.164 -3.46611 2.32918 0
M  V30 8922 N 870.601 -1.47988 -0.541979 0
M  V30 8923 C 871.85 -1.5465 -1.29485 0
M  V30 8924 C 872.163 -0.220041 -1.94358 0
M  V30 8925 O 873.369 -0.164792 -2.70999 0
M  V30 8926 C 871.825 -2.72685 -2.34885 0
M  V30 8927 C 871.433 -4.11923 -1.76134 0
M  V30 8928 C 873.177 -2.88651 -3.11257 0
M  V30 8929 C 871.084 -5.21237 -2.79404 0
M  V30 8930 H 870.014 -0.575688 -0.486928 0
M  V30 8931 H 872.665 -1.74296 -0.573853 0
M  V30 8932 H 871.047 -2.46448 -3.09966 0
M  V30 8933 H 872.221 -4.48128 -1.07322 0
M  V30 8934 H 870.536 -4.00972 -1.12295 0
M  V30 8935 H 873.133 -3.67487 -3.88404 0
M  V30 8936 H 873.476 -1.97658 -3.66384 0
M  V30 8937 H 874.009 -3.14731 -2.43288 0
M  V30 8938 H 870.748 -6.14156 -2.29113 0
M  V30 8939 H 870.268 -4.89533 -3.4658 0
M  V30 8940 H 871.947 -5.48839 -3.42615 0
M  V30 8941 N 872.079 0.78992 -1.36375 0
M  V30 8942 C 873.327 1.54472 -1.30319 0
M  V30 8943 C 873.648 1.94647 0.117338 0
M  V30 8944 O 872.918 1.64906 1.05748 0
M  V30 8945 H 871.498 0.572879 -0.479394 0
M  V30 8946 H 874.16 0.941245 -1.70665 0
M  V30 8947 H 873.256 2.45252 -1.93024 0
M  V30 8948 N 873.557 1.20646 1.01402 0
M  V30 8949 C 874.52 0.959314 2.08158 0
M  V30 8950 C 875.52 -0.0661558 1.60664 0
M  V30 8951 O 876.71 0.170177 1.73367 0
M  V30 8952 C 873.842 0.444785 3.37986 0
M  V30 8953 H 875.035 1.90631 2.31517 0
M  V30 8954 H 872.588 1.02219 1.18241 0
M  V30 8955 H 873.323 -0.507553 3.20304 0
M  V30 8956 H 873.108 1.18435 3.73785 0
M  V30 8957 H 874.598 0.291443 4.16582 0
M  V30 8958 N 875.035 -1.20752 1.01276 0
M  V30 8959 C 876.26 -1.94547 0.718769 0
M  V30 8960 C 876.685 -1.7404 -0.713563 0
M  V30 8961 O 876.043 -1.03221 -1.49047 0
M  V30 8962 C 876.091 -3.44823 1.05497 0
M  V30 8963 O 875.195 -4.12072 0.164516 0
M  V30 8964 H 874.536 -0.607931 0.267051 0
M  V30 8965 H 877.066 -1.53292 1.35509 0
M  V30 8966 H 877.076 -3.95427 1.00507 0
M  V30 8967 H 875.751 -3.59072 2.09858 0
M  V30 8968 H 874.328 -3.71909 0.271615 0
M  V30 8969 N 876.513 -0.788492 -1.36457 0
M  V30 8970 C 877.423 -0.187385 -2.3385 0
M  V30 8971 C 878.439 0.659984 -1.60998 0
M  V30 8972 O 879.615 0.575986 -1.92988 0
M  V30 8973 C 876.68 0.668525 -3.40194 0
M  V30 8974 C 875.741 -0.197234 -4.28847 0
M  V30 8975 C 874.974 0.61792 -5.30111 0
M  V30 8976 O 875.197 1.85396 -5.3943 0
M  V30 8977 O 874.131 0.0183016 -6.01897 0
M  V30 8978 H 877.957 -0.992617 -2.87021 0
M  V30 8979 H 875.542 -0.549934 -1.3891 0
M  V30 8980 H 877.424 1.15663 -4.05216 0
M  V30 8981 H 876.099 1.45166 -2.89324 0
M  V30 8982 H 875.006 -0.73207 -3.66867 0
M  V30 8983 H 876.339 -0.943863 -4.83065 0
M  V30 8984 N 877.991 1.48044 -0.54043 0
M  V30 8985 C 879.268 1.95523 0.0547302 0
M  V30 8986 C 879.648 1.48284 1.5025 0
M  V30 8987 O 878.996 0.714037 2.17057 0
M  V30 8988 C 879.206 3.48923 -0.0733393 0
M  V30 8989 C 880.554 4.24523 0.0806026 0
M  V30 8990 O 881.578 3.562 -5.58687e-05 0
M  V30 8991 O 880.437 5.45922 0.251216 0
M  V30 8992 H 877.531 0.823728 0.073493 0
M  V30 8993 H 880.077 1.5852 -0.605768 0
M  V30 8994 H 878.849 3.76059 -1.08144 0
M  V30 8995 H 878.472 3.92648 0.625536 0
M  V30 8996 N 879.47 0.276058 1.55163 0
M  V30 8997 C 880.417 -0.611006 2.22565 0
M  V30 8998 C 881.387 -1.14902 1.19945 0
M  V30 8999 O 882.572 -1.19815 1.48489 0
M  V30 9000 C 879.712 -1.78885 2.95117 0
M  V30 9001 C 878.825 -1.2846 4.12458 0
M  V30 9002 C 877.96 -2.42432 4.72652 0
M  V30 9003 C 876.999 -1.89015 5.82185 0
M  V30 9004 N 876.136 -2.96463 6.36439 0
M  V30 9005 H 880.976 -0.0295849 2.97985 0
M  V30 9006 H 878.513 -0.00283607 1.471 0
M  V30 9007 H 880.471 -2.48121 3.35398 0
M  V30 9008 H 879.101 -2.34229 2.22119 0
M  V30 9009 H 878.153 -0.485312 3.77292 0
M  V30 9010 H 879.465 -0.853358 4.91446 0
M  V30 9011 H 878.619 -3.19659 5.15658 0
M  V30 9012 H 877.358 -2.88872 3.92943 0
M  V30 9013 H 876.363 -1.10267 5.38629 0
M  V30 9014 H 877.588 -1.43509 6.63763 0
M  V30 9015 H 875.534 -3.42283 5.59623 0
M  V30 9016 H 875.451 -2.57759 7.10701 0
M  V30 9017 H 876.719 -3.73663 6.84103 0
M  V30 9018 N 880.948 -1.576 0.00335426 0
M  V30 9019 C 881.878 -2.11668 -0.985839 0
M  V30 9020 C 882.859 -1.02661 -1.35627 0
M  V30 9021 O 884.044 -1.30361 -1.43943 0
M  V30 9022 C 881.174 -2.62273 -2.27662 0
M  V30 9023 C 880.128 -3.75837 -2.0477 0
M  V30 9024 C 879.454 -4.12769 -3.39891 0
M  V30 9025 C 880.754 -5.02975 -1.40759 0
M  V30 9026 H 882.448 -2.9457 -0.535637 0
M  V30 9027 H 879.994 -1.41702 -0.256204 0
M  V30 9028 H 881.947 -2.98727 -2.97221 0
M  V30 9029 H 880.671 -1.76498 -2.74802 0
M  V30 9030 H 879.33 -3.39782 -1.37636 0
M  V30 9031 H 878.978 -3.24013 -3.8474 0
M  V30 9032 H 878.678 -4.89281 -3.25389 0
M  V30 9033 H 880.202 -4.51784 -4.1076 0
M  V30 9034 H 881.616 -5.37179 -2.00279 0
M  V30 9035 H 880.013 -5.84315 -1.36734 0
M  V30 9036 H 881.083 -4.83431 -0.377218 0
M  V30 9037 N 882.426 0.269451 -1.5528 0
M  V30 9038 C 883.672 1.00206 -1.76314 0
M  V30 9039 C 884.005 1.85812 -0.564581 0
M  V30 9040 O 883.28 1.89509 0.437769 0
M  V30 9041 C 883.563 1.88163 -3.07029 0
M  V30 9042 C 883.416 1.05527 -4.37246 0
M  V30 9043 C 884.735 2.8681 -3.33808 0
M  V30 9044 H 881.854 0.36288 -0.641473 0
M  V30 9045 H 884.496 0.274188 -1.88011 0
M  V30 9046 H 882.646 2.50224 -2.97187 0
M  V30 9047 H 884.318 0.455094 -4.5905 0
M  V30 9048 H 882.561 0.358842 -4.32313 0
M  V30 9049 H 883.232 1.70397 -5.25042 0
M  V30 9050 H 885.708 2.34884 -3.43466 0
M  V30 9051 H 884.584 3.45492 -4.26528 0
M  V30 9052 H 884.845 3.62118 -2.5362 0
M  V30 9053 N 883.904 1.48273 0.534124 0
M  V30 9054 C 885.315 1.49667 1.1161 0
M  V30 9055 C 885.666 0.264139 1.94414 0
M  V30 9056 O 884.791 -0.629084 2.07054 0
M  V30 9057 C 885.386 2.71191 2.03079 0
M  V30 9058 C 883.945 2.7547 2.56502 0
M  V30 9059 C 883.092 2.43119 1.33373 0
M  V30 9060 H 886.043 1.55449 0.319578 0
M  V30 9061 H 886.064 2.49473 2.87304 0
M  V30 9062 H 885.576 3.60879 1.42785 0
M  V30 9063 H 883.677 1.89979 3.20529 0
M  V30 9064 H 883.79 3.76787 2.95919 0
M  V30 9065 H 882.154 1.94187 1.64813 0
M  V30 9066 H 882.937 3.35044 0.748375 0
M  V30 9067 N 885.382 -0.782676 1.36792 0
M  V30 9068 C 886.345 -1.8772 1.31507 0
M  V30 9069 C 887.345 -1.59269 0.221349 0
M  V30 9070 O 888.535 -1.67555 0.476544 0
M  V30 9071 C 885.667 -3.24641 1.04025 0
M  V30 9072 H 886.86 -1.9382 2.28853 0
M  V30 9073 H 884.413 -0.981226 1.21662 0
M  V30 9074 H 885.148 -3.24221 0.0716439 0
M  V30 9075 H 884.933 -3.46681 1.8318 0
M  V30 9076 H 886.423 -4.04711 1.02949 0
M  V30 9077 N 886.86 -1.21182 -1.00761 0
M  V30 9078 C 888.137 -0.936297 -1.71735 0
M  V30 9079 C 888.517 0.552585 -2.03739 0
M  V30 9080 O 887.865 1.51672 -1.70903 0
M  V30 9081 C 888.075 -1.81867 -2.97868 0
M  V30 9082 C 889.423 -2.06594 -3.7095 0
M  V30 9083 O 890.447 -1.79194 -3.07844 0
M  V30 9084 O 889.306 -2.5292 -4.84452 0
M  V30 9085 H 886.4 -0.350867 -0.74888 0
M  V30 9086 H 888.946 -1.32098 -1.06527 0
M  V30 9087 H 887.718 -2.82643 -2.70607 0
M  V30 9088 H 887.341 -1.43463 -3.70815 0
M  V30 9089 N 888.338 1.20213 -1.01915 0
M  V30 9090 C 889.286 2.25125 -0.584936 0
M  V30 9091 C 890.28 1.65138 0.377602 0
M  V30 9092 O 891.486 1.78294 0.247245 0
M  V30 9093 H 887.861 0.732333 -0.170858 0
M  V30 9094 H 889.832 2.59075 -1.48063 0
M  V30 9095 C 888.581 3.47651 0.058389 0
M  V30 9096 H 887.904 3.9409 -0.673263 0
M  V30 9097 H 889.344 4.2275 0.325285 0
M  V30 9098 C 887.803 3.10725 1.30199 0
M  V30 9099 O 888.333 3.22491 2.39505 0
M  V30 9100 N 886.539 2.6525 1.18706 0
M  V30 9101 H 886.086 2.55875 0.297618 0
M  V30 9102 H 886.044 2.40913 2.02011 0
M  V30 9103 N 889.816 0.795718 1.36037 0
M  V30 9104 C 890.726 0.199784 2.33748 0
M  V30 9105 C 891.742 -0.651436 1.61345 0
M  V30 9106 O 892.918 -0.565743 1.93291 0
M  V30 9107 C 889.983 -0.650475 3.40543 0
M  V30 9108 C 889.044 0.219974 4.28736 0
M  V30 9109 C 888.277 -0.589798 5.30431 0
M  V30 9110 O 888.5 -1.82532 5.40406 0
M  V30 9111 O 887.434 0.0136187 6.01898 0
M  V30 9112 H 891.26 1.00782 2.8649 0
M  V30 9113 H 888.845 0.557293 1.38617 0
M  V30 9114 H 890.727 -1.13512 4.05824 0
M  V30 9115 H 889.402 -1.4363 2.9009 0
M  V30 9116 H 888.309 0.751516 3.66474 0
M  V30 9117 H 889.642 0.969468 4.82558 0
M  V30 9118 N 891.294 -1.47756 0.548274 0
M  V30 9119 C 892.241 -2.29893 -0.204408 0
M  V30 9120 C 893.211 -1.38509 -0.916761 0
M  V30 9121 O 894.396 -1.67472 -0.91421 0
M  V30 9122 C 891.536 -3.22282 -1.23403 0
M  V30 9123 C 890.649 -4.28753 -0.528654 0
M  V30 9124 C 889.784 -5.08303 -1.54279 0
M  V30 9125 C 888.823 -6.06557 -0.821893 0
M  V30 9126 N 887.96 -6.79098 -1.78243 0
M  V30 9127 H 892.8 -2.93739 0.502163 0
M  V30 9128 H 890.337 -1.44793 0.259471 0
M  V30 9129 H 892.295 -3.74262 -1.84348 0
M  V30 9130 H 890.925 -2.6032 -1.90875 0
M  V30 9131 H 889.977 -3.79899 0.195132 0
M  V30 9132 H 891.289 -4.98787 0.0365066 0
M  V30 9133 H 890.443 -5.64388 -2.22602 0
M  V30 9134 H 889.182 -4.3815 -2.14186 0
M  V30 9135 H 888.187 -5.49659 -0.12469 0
M  V30 9136 H 889.412 -6.78715 -0.228685 0
M  V30 9137 H 887.358 -6.11682 -2.37025 0
M  V30 9138 H 887.275 -7.4527 -1.26919 0
M  V30 9139 H 888.543 -7.39762 -2.45709 0
M  V30 9140 N 892.772 -0.284283 -1.55015 0
M  V30 9141 C 894.02 0.329212 -1.99401 0
M  V30 9142 C 894.341 1.55687 -1.17416 0
M  V30 9143 O 893.611 1.94087 -0.265937 0
M  V30 9144 H 892.191 0.12463 -0.73653 0
M  V30 9145 H 894.853 -0.391743 -1.90922 0
M  V30 9146 H 893.949 0.61278 -3.06025 0
M  V30 9147 N 894.251 1.57596 -0.0117121 0
M  V30 9148 C 895.498 1.91071 0.670667 0
M  V30 9149 C 895.826 0.886457 1.73125 0
M  V30 9150 O 895.081 -0.107135 1.95407 0
M  V30 9151 C 895.38 3.31296 1.34082 0
M  V30 9152 C 895.046 4.49011 0.412305 0
M  V30 9153 C 893.708 4.80945 0.156691 0
M  V30 9154 C 896.06 5.20709 -0.226294 0
M  V30 9155 C 893.388 5.81943 -0.745619 0
M  V30 9156 C 895.74 6.22668 -1.11655 0
M  V30 9157 C 894.404 6.53053 -1.38123 0
M  V30 9158 H 893.674 0.69918 0.245415 0
M  V30 9159 H 896.321 1.91373 -0.0697511 0
M  V30 9160 H 894.626 3.27174 2.15557 0
M  V30 9161 H 896.323 3.54461 1.87506 0
M  V30 9162 H 892.913 4.24067 0.621705 0
M  V30 9163 H 897.097 4.96282 -0.0418456 0
M  V30 9164 H 892.353 6.03839 -0.958566 0
M  V30 9165 H 896.527 6.77351 -1.61767 0
M  V30 9166 H 894.154 7.31132 -2.08208 0
M  V30 9167 N 895.729 -0.261212 1.5542 0
M  V30 9168 C 897.006 -1.01321 1.67312 0
M  V30 9169 C 897.386 -2.0388 0.547356 0
M  V30 9170 O 896.734 -2.24003 -0.451083 0
M  V30 9171 C 896.944 -1.65943 3.07024 0
M  V30 9172 C 898.292 -2.16666 3.65159 0
M  V30 9173 O 899.316 -1.75909 3.09733 0
M  V30 9174 O 898.175 -2.91455 4.62294 0
M  V30 9175 H 895.269 -0.470714 0.679968 0
M  V30 9176 H 897.815 -0.256133 1.67756 0
M  V30 9177 H 896.587 -0.916868 3.80407 0
M  V30 9178 H 896.21 -2.48308 3.1053 0
M  V30 9179 N 897.207 -1.48554 -0.526253 0
M  V30 9180 C 898.453 -1.56994 -1.28378 0
M  V30 9181 C 898.786 -0.244701 -1.92652 0
M  V30 9182 O 898.061 0.749636 -1.79473 0
M  V30 9183 C 898.344 -2.71092 -2.37026 0
M  V30 9184 C 898.197 -4.13331 -1.77418 0
M  V30 9185 C 899.516 -2.80934 -3.38769 0
M  V30 9186 H 896.635 -0.571466 -0.465398 0
M  V30 9187 H 899.277 -1.80742 -0.585861 0
M  V30 9188 H 897.427 -2.50973 -2.96555 0
M  V30 9189 H 899.099 -4.44899 -1.21912 0
M  V30 9190 H 897.342 -4.20158 -1.07936 0
M  V30 9191 H 898.013 -4.88994 -2.56104 0
M  V30 9192 H 900.489 -2.9917 -2.892 0
M  V30 9193 H 899.365 -3.62489 -4.12181 0
M  V30 9194 H 899.626 -1.89244 -3.99549 0
M  V30 9195 N 898.685 0.775411 -1.37205 0
M  V30 9196 C 899.648 1.8702 -1.325 0
M  V30 9197 C 900.648 1.5915 -0.229793 0
M  V30 9198 O 901.838 1.673 -0.485423 0
M  V30 9199 C 898.97 3.24085 -1.05745 0
M  V30 9200 H 900.163 1.92604 -2.29878 0
M  V30 9201 H 897.716 0.97476 -1.22181 0
M  V30 9202 H 898.451 3.24178 -0.0888371 0
M  V30 9203 H 898.236 3.45705 -1.85016 0
M  V30 9204 H 899.726 4.0416 -1.05094 0
M  V30 9205 N 900.163 1.21714 1.00117 0
M  V30 9206 C 901.388 1.06357 1.78054 0
M  V30 9207 C 901.813 -0.382075 1.84179 0
M  V30 9208 O 901.171 -1.27575 1.28819 0
M  V30 9209 C 901.219 1.66982 3.19608 0
M  V30 9210 O 900.323 0.917892 4.02055 0
M  V30 9211 H 899.664 0.374074 0.548602 0
M  V30 9212 H 902.194 1.61338 1.25822 0
M  V30 9213 H 902.204 1.71363 3.70268 0
M  V30 9214 H 900.879 2.72185 3.14465 0
M  V30 9215 H 899.456 0.949473 3.6061 0
M  V30 9216 N 901.641 -1.19671 1.02551 0
M  V30 9217 C 902.574 -2.21522 0.547998 0
M  V30 9218 C 903.552 -1.57363 -0.409349 0
M  V30 9219 O 904.736 -1.85638 -0.327248 0
M  V30 9220 C 901.863 -3.38101 -0.201375 0
M  V30 9221 C 900.909 -4.20601 0.706886 0
M  V30 9222 S 901.742 -4.89066 2.18116 0
M  V30 9223 C 902.898 -6.09058 1.4422 0
M  V30 9224 H 903.131 -2.61684 1.41099 0
M  V30 9225 H 900.664 -1.29864 0.835153 0
M  V30 9226 H 902.622 -4.05674 -0.627607 0
M  V30 9227 H 901.283 -2.96381 -1.04005 0
M  V30 9228 H 900.476 -5.03836 0.128554 0
M  V30 9229 H 900.078 -3.58329 1.07129 0
M  V30 9230 H 902.37 -6.73588 0.726975 0
M  V30 9231 H 903.313 -6.71368 2.25102 0
M  V30 9232 H 903.721 -5.56599 0.941176 0
M  V30 9233 N 903.119 -0.802921 -1.35613 0
M  V30 9234 C 904.052 -0.156345 -2.27664 0
M  V30 9235 C 905.03 0.675517 -1.47904 0
M  V30 9236 O 906.214 0.643589 -1.77173 0
M  V30 9237 C 903.341 0.78348 -3.29514 0
M  V30 9238 C 902.387 0.0317062 -4.26488 0
M  V30 9239 S 903.22 -1.30183 -5.19435 0
M  V30 9240 C 904.376 -0.366354 -6.24827 0
M  V30 9241 H 904.609 -0.936803 -2.82155 0
M  V30 9242 H 902.142 -0.597799 -1.42358 0
M  V30 9243 H 904.1 1.32023 -3.8869 0
M  V30 9244 H 902.761 1.53729 -2.73909 0
M  V30 9245 H 901.954 0.745364 -4.98458 0
M  V30 9246 H 901.556 -0.43497 -3.71462 0
M  V30 9247 H 903.848 0.44976 -6.76005 0
M  V30 9248 H 904.791 -1.05513 -7.00195 0
M  V30 9249 H 905.199 0.0363203 -5.64488 0
M  V30 9250 N 904.597 1.47463 -0.556102 0
M  V30 9251 C 905.822 2.07371 -0.0344729 0
M  V30 9252 C 906.247 1.40621 1.2493 0
M  V30 9253 O 905.605 0.48082 1.74808 0
M  V30 9254 C 905.653 3.60306 0.145563 0
M  V30 9255 O 904.757 3.94299 1.20839 0
M  V30 9256 H 904.098 0.662052 -0.0508274 0
M  V30 9257 H 906.628 1.89498 -0.771469 0
M  V30 9258 H 906.638 4.06408 0.360112 0
M  V30 9259 H 905.313 4.08288 -0.792089 0
M  V30 9260 H 903.89 3.59944 0.97442 0
M  V30 9261 N 906.075 0.2925 1.54862 0
M  V30 9262 C 907.321 -0.319736 2.00264 0
M  V30 9263 C 907.654 -1.5419 1.18064 0
M  V30 9264 O 906.929 -1.92821 0.254983 0
M  V30 9265 C 907.212 -0.684753 3.5353 0
M  V30 9266 C 907.065 0.545961 4.46474 0
M  V30 9267 C 908.384 -1.51456 4.13218 0
M  V30 9268 H 905.503 -0.11474 0.728014 0
M  V30 9269 H 908.145 0.402907 1.85679 0
M  V30 9270 H 906.295 -1.30044 3.66089 0
M  V30 9271 H 907.967 1.18448 4.45834 0
M  V30 9272 H 906.21 1.1808 4.1742 0
M  V30 9273 H 906.881 0.246544 5.51449 0
M  V30 9274 H 909.357 -0.994421 4.04043 0
M  V30 9275 H 908.233 -1.73875 5.20633 0
M  V30 9276 H 908.494 -2.5011 3.64551 0
M  V30 9277 N 907.553 -1.57587 0.0200696 0
M  V30 9278 C 908.781 -1.95718 -0.670964 0
M  V30 9279 C 909.196 -0.896081 -1.6618 0
M  V30 9280 O 908.553 0.123037 -1.82085 0
M  V30 9281 C 908.604 -3.33904 -1.38529 0
M  V30 9282 O 908.325 -4.35943 -0.434167 0
M  V30 9283 C 909.826 -3.86614 -2.16898 0
M  V30 9284 H 907.046 -0.644819 -0.185606 0
M  V30 9285 H 909.59 -2.04354 0.0771495 0
M  V30 9286 H 907.745 -3.26515 -2.08487 0
M  V30 9287 H 908.159 -5.16001 -0.940378 0
M  V30 9288 H 909.633 -4.85673 -2.62346 0
M  V30 9289 H 910.11 -3.20379 -3.00423 0
M  V30 9290 H 910.716 -3.97243 -1.51916 0
M  V30 9291 N 909.032 0.252966 -1.55557 0
M  V30 9292 C 909.962 1.31691 -1.9282 0
M  V30 9293 C 910.943 1.50516 -0.7924 0
M  V30 9294 O 912.128 1.63225 -1.05219 0
M  V30 9295 C 909.258 2.67281 -2.21762 0
M  V30 9296 C 908.212 2.6316 -3.37536 0
M  V30 9297 C 907.538 4.02488 -3.52005 0
M  V30 9298 C 908.838 2.20675 -4.73392 0
M  V30 9299 H 910.532 1.00751 -2.81939 0
M  V30 9300 H 908.078 0.483219 -1.3565 0
M  V30 9301 H 910.031 3.41842 -2.46419 0
M  V30 9302 H 908.755 2.99845 -1.29463 0
M  V30 9303 H 907.414 1.91057 -3.12878 0
M  V30 9304 H 907.062 4.32307 -2.57137 0
M  V30 9305 H 906.762 4.00621 -4.29857 0
M  V30 9306 H 908.286 4.78758 -3.78977 0
M  V30 9307 H 909.7 2.84965 -4.97461 0
M  V30 9308 H 908.097 2.29931 -5.54303 0
M  V30 9309 H 909.167 1.15831 -4.70862 0
M  V30 9310 N 910.51 1.48831 0.518367 0
M  V30 9311 C 911.735 1.61379 1.30275 0
M  V30 9312 C 912.16 0.278571 1.86026 0
M  V30 9313 O 911.518 -0.751427 1.64995 0
M  V30 9314 C 911.566 2.67225 2.42122 0
M  V30 9315 O 910.67 2.25192 3.45489 0
M  V30 9316 H 910.011 0.540742 0.385349 0
M  V30 9317 H 912.541 1.949 0.622498 0
M  V30 9318 H 912.551 2.88859 2.8814 0
M  V30 9319 H 911.226 3.64155 2.00907 0
M  V30 9320 H 909.803 2.13819 3.05509 0
M  V30 9321 N 911.988 -0.768124 1.37614 0
M  V30 9322 C 913.228 -1.53979 1.34424 0
M  V30 9323 C 913.592 -1.91874 -0.0696803 0
M  V30 9324 O 914.793 -2.67845 -0.22633 0
M  V30 9325 C 913.064 -2.76845 2.26034 0
M  V30 9326 S 914.623 -3.66871 2.4073 0
M  V30 9327 H 911.441 -0.527108 0.477157 0
M  V30 9328 H 914.043 -0.902945 1.73399 0
M  V30 9329 H 912.747 -2.47091 3.2768 0
M  V30 9330 H 912.278 -3.45486 1.88157 0
M  V30 9331 H 914.293 -4.6899 1.62057 0
M  V30 9332 N 913.466 -1.22244 -0.994698 0
M  V30 9333 C 914.743 -0.954459 -1.70732 0
M  V30 9334 C 915.123 0.530945 -2.04314 0
M  V30 9335 O 914.471 1.49851 -1.72502 0
M  V30 9336 C 914.681 -1.85016 -2.95922 0
M  V30 9337 C 916.029 -2.10517 -3.68738 0
M  V30 9338 O 917.053 -1.82449 -3.05926 0
M  V30 9339 O 915.912 -2.58044 -4.81742 0
M  V30 9340 H 913.006 -0.35879 -0.745116 0
M  V30 9341 H 915.552 -1.33221 -1.0512 0
M  V30 9342 H 914.324 -2.85498 -2.67594 0
M  V30 9343 H 913.947 -1.47388 -3.69273 0
M  V30 9344 N 914.944 1.19125 -1.03184 0
M  V30 9345 C 915.894 2.20348 -0.585731 0
M  V30 9346 C 916.878 1.56656 0.367109 0
M  V30 9347 O 918.07 1.76003 0.187598 0
M  V30 9348 C 915.199 3.43249 0.0590006 0
M  V30 9349 C 914.285 4.1408 -0.916457 0
M  V30 9350 N 914.676 4.61051 -2.08005 0
M  V30 9351 C 912.974 4.39809 -0.74054 0
M  V30 9352 C 913.675 5.15477 -2.69552 0
M  V30 9353 N 912.651 5.06456 -1.97493 0
M  V30 9354 H 916.453 2.54346 -1.47259 0
M  V30 9355 H 913.967 1.35232 -0.899225 0
M  V30 9356 H 915.964 4.15013 0.396236 0
M  V30 9357 H 914.624 3.1075 0.941507 0
M  V30 9358 H 915.635 4.55782 -2.45934 0
M  V30 9359 H 912.312 4.17397 0.0926238 0
M  V30 9360 H 913.702 5.62088 -3.68112 0
M  V30 9361 N 916.422 0.810101 1.35185 0
M  V30 9362 C 917.838 0.494269 1.51754 0
M  V30 9363 C 918.038 -0.983907 1.75845 0
M  V30 9364 O 917.094 -1.76882 1.80191 0
M  V30 9365 C 918.407 1.34268 2.69059 0
M  V30 9366 C 919.955 1.33848 2.82938 0
M  V30 9367 C 920.43 2.17109 4.03271 0
M  V30 9368 N 921.921 2.14664 4.10456 0
M  V30 9369 C 922.656 2.75843 5.02691 0
M  V30 9370 N 922.152 3.45962 6.00235 0
M  V30 9371 N 923.945 2.65465 4.95464 0
M  V30 9372 H 916.096 1.76736 1.17805 0
M  V30 9373 H 918.359 0.752429 0.576676 0
M  V30 9374 H 918.065 2.39183 2.57845 0
M  V30 9375 H 917.939 0.998362 3.63748 0
M  V30 9376 H 920.326 0.29716 2.936 0
M  V30 9377 H 920.407 1.72269 1.89095 0
M  V30 9378 H 920.051 3.21283 3.93369 0
M  V30 9379 H 919.981 1.76046 4.96302 0
M  V30 9380 H 922.472 1.63648 3.40628 0
M  V30 9381 H 922.785 3.89922 6.67219 0
M  V30 9382 H 921.13 3.50067 6.00398 0
M  V30 9383 H 924.321 2.1027 4.18215 0
M  V30 9384 H 924.494 3.13433 5.67154 0
M  V30 9385 N 917.9 -1.47166 0.563914 0
M  V30 9386 C 919.146 -2.02756 0.0424338 0
M  V30 9387 C 919.479 -1.43662 -1.3067 0
M  V30 9388 O 918.754 -0.594676 -1.85186 0
M  V30 9389 C 919.037 -3.60074 -0.0434793 0
M  V30 9390 C 918.89 -4.29587 1.33323 0
M  V30 9391 C 920.209 -4.336 -0.753568 0
M  V30 9392 H 917.328 -0.736806 0.0168946 0
M  V30 9393 H 919.97 -1.75521 0.727496 0
M  V30 9394 H 918.12 -3.83409 -0.626906 0
M  V30 9395 H 919.792 -4.17573 1.96037 0
M  V30 9396 H 918.035 -3.8968 1.9061 0
M  V30 9397 H 918.706 -5.38218 1.22576 0
M  V30 9398 H 921.182 -4.15299 -0.258126 0
M  V30 9399 H 920.058 -5.43291 -0.782659 0
M  V30 9400 H 920.319 -4.03302 -1.81108 0
M  V30 9401 N 919.378 -0.300708 -1.54705 0
M  V30 9402 C 920.624 0.309111 -2.0043 0
M  V30 9403 C 920.957 1.53562 -1.1888 0
M  V30 9404 O 920.232 1.92683 -0.265205 0
M  V30 9405 C 920.515 0.665995 -3.53888 0
M  V30 9406 C 920.368 -0.56963 -4.46178 0
M  V30 9407 C 921.687 1.49262 -4.14016 0
M  V30 9408 H 918.806 0.110878 -0.728612 0
M  V30 9409 H 921.448 -0.412748 -1.85463 0
M  V30 9410 H 919.598 1.281 -3.66773 0
M  V30 9411 H 921.27 -1.20811 -4.45199 0
M  V30 9412 H 919.513 -1.20292 -4.16788 0
M  V30 9413 H 920.184 -0.275785 -5.51311 0
M  V30 9414 H 922.66 0.972979 -4.04564 0
M  V30 9415 H 921.536 1.71111 -5.21548 0
M  V30 9416 H 921.797 2.48174 -3.65872 0
M  V30 9417 N 920.856 1.57574 -0.0284266 0
M  V30 9418 C 922.133 1.83064 0.688979 0
M  V30 9419 C 922.513 0.91219 1.90374 0
M  V30 9420 O 921.861 -0.0323672 2.28477 0
M  V30 9421 C 922.071 3.32262 1.06785 0
M  V30 9422 C 923.419 3.98717 1.45978 0
M  V30 9423 O 924.443 3.36753 1.16085 0
M  V30 9424 O 923.302 5.07927 2.01673 0
M  V30 9425 H 920.396 0.7548 0.337944 0
M  V30 9426 H 922.942 1.69607 -0.0560555 0
M  V30 9427 H 921.714 3.90772 0.203235 0
M  V30 9428 H 921.337 3.50823 1.87107 0
M  V30 9429 N 922.334 -0.244713 1.55689 0
M  V30 9430 C 923.582 -0.970525 1.77272 0
M  V30 9431 C 923.903 -1.85771 0.592804 0
M  V30 9432 O 923.173 -1.91952 -0.391323 0
M  V30 9433 H 921.753 -0.361342 0.653789 0
M  V30 9434 H 924.415 -0.262134 1.93129 0
M  V30 9435 H 923.511 -1.59096 2.68505 0
M  V30 9436 N 923.813 -1.49104 -0.510467 0
M  V30 9437 C 924.776 -1.64569 -1.59529 0
M  V30 9438 C 925.776 -0.517937 -1.5223 0
M  V30 9439 O 926.966 -0.784183 -1.55551 0
M  V30 9440 C 924.098 -1.6342 -2.99177 0
M  V30 9441 H 925.291 -2.61318 -1.4715 0
M  V30 9442 H 922.844 -1.37993 -0.734001 0
M  V30 9443 H 923.579 -0.68221 -3.17043 0
M  V30 9444 H 923.364 -2.45312 -3.05883 0
M  V30 9445 H 924.854 -1.77474 -3.78011 0
M  V30 9446 N 925.291 0.760815 -1.38019 0
M  V30 9447 C 926.537 1.52198 -1.34028 0
M  V30 9448 C 926.87 1.94067 0.0718309 0
M  V30 9449 O 926.145 1.64895 1.0315 0
M  V30 9450 C 926.428 2.77954 -2.2894 0
M  V30 9451 C 926.281 2.42269 -3.7898 0
M  V30 9452 C 927.6 3.79943 -2.22107 0
M  V30 9453 H 924.719 0.552131 -0.488181 0
M  V30 9454 H 927.361 0.871971 -1.6881 0
M  V30 9455 H 925.511 3.33419 -1.9941 0
M  V30 9456 H 927.183 1.92635 -4.19153 0
M  V30 9457 H 925.426 1.74822 -3.97014 0
M  V30 9458 H 926.097 3.32211 -4.4084 0
M  V30 9459 H 928.573 3.34 -2.4816 0
M  V30 9460 H 927.449 4.6564 -2.90639 0
M  V30 9461 H 927.71 4.25004 -1.21753 0
M  V30 9462 N 926.769 1.22769 0.988202 0
M  V30 9463 C 928.017 1.05301 1.725 0
M  V30 9464 C 928.338 -0.412103 1.90596 0
M  V30 9465 O 927.608 -1.29606 1.46898 0
M  V30 9466 H 926.188 0.386658 0.639144 0
M  V30 9467 H 928.85 1.54359 1.18993 0
M  V30 9468 H 927.946 1.53465 2.71763 0
M  V30 9469 N 928.247 -1.18576 1.03814 0
M  V30 9470 C 929.21 -2.2033 0.63146 0
M  V30 9471 C 930.21 -1.57787 -0.309816 0
M  V30 9472 O 931.4 -1.73938 -0.0955598 0
M  V30 9473 C 928.532 -3.40818 -0.0745963 0
M  V30 9474 H 929.725 -2.57824 1.53189 0
M  V30 9475 H 927.278 -1.32416 0.830398 0
M  V30 9476 H 928.013 -3.08853 -0.988947 0
M  V30 9477 H 927.798 -3.87453 0.6019 0
M  V30 9478 H 929.288 -4.16166 -0.345727 0
M  V30 9479 N 929.725 -0.817259 -1.34754 0
M  V30 9480 C 930.657 -0.192695 -2.28389 0
M  V30 9481 C 931.67 0.614167 -1.50771 0
M  V30 9482 O 932.859 0.444776 -1.7287 0
M  V30 9483 C 929.959 0.748929 -3.30521 0
M  V30 9484 C 929.132 -0.0138762 -4.37398 0
M  V30 9485 C 928.191 0.847825 -5.19325 0
M  V30 9486 O 927.217 0.29487 -5.68436 0
M  V30 9487 N 928.419 2.16843 -5.38479 0
M  V30 9488 H 931.184 -0.997122 -2.82626 0
M  V30 9489 H 928.745 -0.673696 -1.47217 0
M  V30 9490 H 930.737 1.32987 -3.82226 0
M  V30 9491 H 929.307 1.45412 -2.7672 0
M  V30 9492 H 928.527 -0.776093 -3.86485 0
M  V30 9493 H 929.815 -0.539191 -5.05935 0
M  V30 9494 H 929.213 2.64148 -5.00242 0
M  V30 9495 H 927.77 2.69835 -5.93323 0
M  V30 9496 N 931.203 1.46865 -0.571711 0
M  V30 9497 C 932.449 2.03307 -0.0614759 0
M  V30 9498 C 932.804 1.43657 1.27986 0
M  V30 9499 O 932.097 0.588186 1.82348 0
M  V30 9500 C 932.291 3.57323 0.0742311 0
M  V30 9501 C 932.12 4.31909 -1.2524 0
M  V30 9502 C 930.89 4.71246 -1.82361 0
M  V30 9503 C 933.088 4.66137 -2.17304 0
M  V30 9504 N 931.07 5.30535 -3.08878 0
M  V30 9505 C 932.441 5.25881 -3.28404 0
M  V30 9506 C 934.496 4.48066 -2.1712 0
M  V30 9507 C 933.199 5.69461 -4.39439 0
M  V30 9508 C 935.225 4.92656 -3.27176 0
M  V30 9509 C 934.587 5.52461 -4.36997 0
M  V30 9510 H 930.686 0.779293 -0.0650098 0
M  V30 9511 H 933.27 1.79161 -0.762192 0
M  V30 9512 H 931.441 3.81206 0.744095 0
M  V30 9513 H 933.173 4.00408 0.587849 0
M  V30 9514 H 929.928 4.53658 -1.35985 0
M  V30 9515 H 930.352 5.64711 -3.73404 0
M  V30 9516 H 934.994 4.01173 -1.33492 0
M  V30 9517 H 932.712 6.15338 -5.23817 0
M  V30 9518 H 936.298 4.80433 -3.28139 0
M  V30 9519 H 935.178 5.86334 -5.20752 0
M  V30 9520 N 932.681 0.308908 1.54543 0
M  V30 9521 C 933.611 -0.556657 2.26768 0
M  V30 9522 C 934.592 -1.13145 1.27013 0
M  V30 9523 O 935.777 -1.15931 1.558 0
M  V30 9524 C 932.907 -1.72481 3.01443 0
M  V30 9525 C 931.861 -1.28001 4.08411 0
M  V30 9526 C 931.187 -2.53395 4.70845 0
M  V30 9527 C 932.487 -0.405497 5.20724 0
M  V30 9528 H 934.181 0.0457618 2.99365 0
M  V30 9529 H 931.727 0.0234495 1.43981 0
M  V30 9530 H 933.68 -2.3365 3.50693 0
M  V30 9531 H 932.404 -2.35359 2.26437 0
M  V30 9532 H 931.063 -0.69133 3.60022 0
M  V30 9533 H 930.711 -3.14604 3.92471 0
M  V30 9534 H 930.411 -2.2433 5.43093 0
M  V30 9535 H 931.935 -3.15352 5.22863 0
M  V30 9536 H 933.349 -0.923076 5.6582 0
M  V30 9537 H 931.746 -0.208282 5.99738 0
M  V30 9538 H 932.816 0.567412 4.81569 0
M  V30 9539 N 934.159 -1.57557 0.0367827 0
M  V30 9540 C 935.122 -2.09591 -0.927589 0
M  V30 9541 C 936.122 -1.01252 -1.24919 0
M  V30 9542 O 937.312 -1.27382 -1.18825 0
M  V30 9543 C 934.444 -2.56816 -2.24184 0
M  V30 9544 H 935.637 -2.96086 -0.476784 0
M  V30 9545 H 933.19 -1.54864 -0.211385 0
M  V30 9546 H 933.925 -1.73673 -2.73876 0
M  V30 9547 H 933.71 -3.35973 -2.0215 0
M  V30 9548 H 935.2 -2.97271 -2.93291 0
M  V30 9549 N 935.637 0.236453 -1.55816 0
M  V30 9550 C 936.547 1.31418 -1.94336 0
M  V30 9551 C 937.563 1.52095 -0.845164 0
M  V30 9552 O 938.739 1.65515 -1.14746 0
M  V30 9553 C 935.804 2.6468 -2.23932 0
M  V30 9554 C 934.865 2.52435 -3.47239 0
M  V30 9555 C 934.098 3.79342 -3.75414 0
M  V30 9556 O 934.321 4.81694 -3.05495 0
M  V30 9557 O 933.255 3.77347 -4.68927 0
M  V30 9558 H 937.081 1.01739 -2.86152 0
M  V30 9559 H 934.666 0.438084 -1.42833 0
M  V30 9560 H 936.548 3.4341 -2.44228 0
M  V30 9561 H 935.223 2.94071 -1.35292 0
M  V30 9562 H 934.13 1.71955 -3.32238 0
M  V30 9563 H 935.463 2.27987 -4.36214 0
M  V30 9564 N 937.115 1.49373 0.502552 0
M  V30 9565 C 938.362 1.58781 1.25678 0
M  V30 9566 C 938.69 0.273819 1.92563 0
M  V30 9567 O 937.945 -0.738141 1.81246 0
M  V30 9568 C 938.244 2.69508 2.34735 0
M  V30 9569 C 937.91 4.11057 1.85318 0
M  V30 9570 C 936.572 4.49578 1.7156 0
M  V30 9571 C 938.924 4.99653 1.48312 0
M  V30 9572 C 936.252 5.74469 1.19172 0
M  V30 9573 C 938.604 6.2506 0.97377 0
M  V30 9574 C 937.268 6.62412 0.822573 0
M  V30 9575 H 936.538 0.581021 0.459887 0
M  V30 9576 H 939.185 1.83197 0.557767 0
M  V30 9577 H 937.49 2.39057 3.10418 0
M  V30 9578 H 939.187 2.73997 2.92791 0
M  V30 9579 H 935.777 3.80651 1.96985 0
M  V30 9580 H 939.961 4.70549 1.57789 0
M  V30 9581 H 935.217 6.0211 1.06176 0
M  V30 9582 H 939.391 6.93089 0.678233 0
M  V30 9583 H 937.018 7.59069 0.414453 0
M  V30 9584 N 938.594 -0.753485 1.38421 0
M  V30 9585 C 940.01 -1.05656 1.1962 0
M  V30 9586 C 940.21 -2.0145 0.0449443 0
M  V30 9587 O 939.266 -2.45039 -0.609253 0
M  V30 9588 C 940.579 -1.63655 2.52265 0
M  V30 9589 C 942.127 -1.75825 2.58949 0
M  V30 9590 C 942.602 -2.37236 3.91769 0
M  V30 9591 N 944.093 -2.44666 3.9331 0
M  V30 9592 C 944.828 -2.93077 4.92842 0
M  V30 9593 N 944.324 -3.41523 6.02772 0
M  V30 9594 N 946.117 -2.92118 4.80232 0
M  V30 9595 H 938.268 -0.117799 2.12073 0
M  V30 9596 H 940.531 -0.114889 0.941012 0
M  V30 9597 H 940.237 -1.00734 3.36965 0
M  V30 9598 H 940.111 -2.62715 2.70667 0
M  V30 9599 H 942.498 -2.37873 1.74644 0
M  V30 9600 H 942.579 -0.754693 2.44414 0
M  V30 9601 H 942.223 -1.75822 4.76497 0
M  V30 9602 H 942.153 -3.38233 4.03616 0
M  V30 9603 H 944.644 -2.10403 3.1391 0
M  V30 9604 H 944.957 -3.76919 6.74649 0
M  V30 9605 H 943.302 -3.3958 6.06391 0
M  V30 9606 H 946.493 -2.53582 3.93464 0
M  V30 9607 H 946.666 -3.29535 5.57952 0
M  V30 9608 N 940.072 -1.23292 -0.981677 0
M  V30 9609 C 941.019 -1.01296 -2.07383 0
M  V30 9610 C 941.989 0.069139 -1.65956 0
M  V30 9611 O 943.174 -0.0827108 -1.90621 0
M  V30 9612 C 940.314 -0.608876 -3.39686 0
M  V30 9613 C 939.427 -1.76296 -3.9439 0
M  V30 9614 C 938.562 -1.30578 -5.14901 0
M  V30 9615 C 937.601 -2.4307 -5.61768 0
M  V30 9616 N 936.738 -1.98319 -6.73509 0
M  V30 9617 H 941.578 -1.9478 -2.25532 0
M  V30 9618 H 939.115 -0.970356 -1.10555 0
M  V30 9619 H 941.073 -0.355702 -4.15681 0
M  V30 9620 H 939.703 0.288961 -3.21504 0
M  V30 9621 H 938.755 -2.13017 -3.15163 0
M  V30 9622 H 940.067 -2.60871 -4.25145 0
M  V30 9623 H 939.221 -1.01066 -5.98223 0
M  V30 9624 H 937.96 -0.430386 -4.85797 0
M  V30 9625 H 936.965 -2.73358 -4.77028 0
M  V30 9626 H 938.19 -3.31144 -5.92892 0
M  V30 9627 H 936.136 -1.13157 -6.46167 0
M  V30 9628 H 936.053 -2.76454 -7.0364 0
M  V30 9629 H 937.321 -1.71907 -7.60308 0
M  V30 9630 N 941.55 1.18024 -1.04442 0
M  V30 9631 C 942.78 1.91753 -0.769044 0
M  V30 9632 C 943.188 1.76629 0.678141 0
M  V30 9633 O 942.531 1.09589 1.47431 0
M  V30 9634 C 942.593 3.43505 -1.0604 0
M  V30 9635 C 942.257 3.82409 -2.50225 0
M  V30 9636 C 943.254 3.8588 -3.48414 0
M  V30 9637 C 940.939 4.13594 -2.85036 0
M  V30 9638 C 942.933 4.19993 -4.79463 0
M  V30 9639 C 940.62 4.47377 -4.1629 0
M  V30 9640 C 941.618 4.50553 -5.13314 0
M  V30 9641 O 941.306 4.83546 -6.42214 0
M  V30 9642 H 941.038 0.615466 -0.279603 0
M  V30 9643 H 943.592 1.5065 -1.3962 0
M  V30 9644 H 941.822 3.84866 -0.376125 0
M  V30 9645 H 943.511 3.98486 -0.772235 0
M  V30 9646 H 944.277 3.6192 -3.2286 0
M  V30 9647 H 940.156 4.10297 -2.10185 0
M  V30 9648 H 943.7 4.22387 -5.55189 0
M  V30 9649 H 939.597 4.70798 -4.4161 0
M  V30 9650 H 940.365 5.01433 -6.46921 0
M  V30 9651 N 943.028 0.824394 1.34319 0
M  V30 9652 C 943.958 0.262077 2.32025 0
M  V30 9653 C 944.939 -0.622277 1.58309 0
M  V30 9654 O 946.124 -0.548848 1.86283 0
M  V30 9655 C 943.254 -0.57567 3.42496 0
M  V30 9656 C 942.208 0.21167 4.27476 0
M  V30 9657 C 941.534 -0.748913 5.29429 0
M  V30 9658 C 942.834 1.42068 5.02607 0
M  V30 9659 H 944.528 1.07842 2.79304 0
M  V30 9660 H 942.074 0.520022 1.34282 0
M  V30 9661 H 944.027 -0.979251 4.09864 0
M  V30 9662 H 942.751 -1.42508 2.93869 0
M  V30 9663 H 941.41 0.596636 3.61712 0
M  V30 9664 H 941.058 -1.59432 4.77064 0
M  V30 9665 H 940.758 -0.226313 5.87164 0
M  V30 9666 H 942.282 -1.15032 5.99667 0
M  V30 9667 H 943.696 1.09103 5.62823 0
M  V30 9668 H 942.093 1.87903 5.69923 0
M  V30 9669 H 943.163 2.1981 4.32217 0
M  V30 9670 N 944.506 -1.46559 0.579492 0
M  V30 9671 C 945.416 -2.34066 -0.15816 0
M  V30 9672 C 946.432 -1.49556 -0.88932 0
M  V30 9673 O 947.608 -1.82434 -0.853226 0
M  V30 9674 C 944.673 -3.26683 -1.161 0
M  V30 9675 C 943.734 -4.27092 -0.434855 0
M  V30 9676 C 942.967 -5.15283 -1.38992 0
M  V30 9677 O 943.19 -5.06345 -2.62623 0
M  V30 9678 O 942.124 -5.95099 -0.902253 0
M  V30 9679 H 945.95 -2.98488 0.560234 0
M  V30 9680 H 943.535 -1.45482 0.339918 0
M  V30 9681 H 945.417 -3.8383 -1.73932 0
M  V30 9682 H 944.092 -2.64862 -1.86091 0
M  V30 9683 H 942.999 -3.73641 0.185224 0
M  V30 9684 H 944.332 -4.9169 0.224031 0
M  V30 9685 N 945.984 -0.3171 -1.54377 0
M  V30 9686 C 946.931 0.551782 -2.24107 0
M  V30 9687 C 947.901 1.11681 -1.22949 0
M  V30 9688 O 949.086 1.15836 -1.51614 0
M  V30 9689 C 946.226 1.70997 -2.99756 0
M  V30 9690 C 945.339 1.17479 -4.15719 0
M  V30 9691 C 944.474 2.29815 -4.78914 0
M  V30 9692 C 943.513 1.73513 -5.86992 0
M  V30 9693 N 942.65 2.79485 -6.44075 0
M  V30 9694 H 947.49 -0.049431 -2.97959 0
M  V30 9695 H 945.027 -0.0361658 -1.47056 0
M  V30 9696 H 946.985 2.39141 -3.41859 0
M  V30 9697 H 945.615 2.28257 -2.28251 0
M  V30 9698 H 944.667 0.385109 -3.78446 0
M  V30 9699 H 945.979 0.72276 -4.93536 0
M  V30 9700 H 945.133 3.05875 -5.23952 0
M  V30 9701 H 943.872 2.78352 -4.00464 0
M  V30 9702 H 942.877 0.959475 -5.41363 0
M  V30 9703 H 944.102 1.2586 -6.67335 0
M  V30 9704 H 942.048 3.27325 -5.68502 0
M  V30 9705 H 941.965 2.38825 -7.17286 0
M  V30 9706 H 943.233 3.55394 -6.93769 0
M  V30 9707 N 947.462 1.57535 -0.0451378 0
M  V30 9708 C 948.873 1.80116 0.491426 0
M  V30 9709 C 949.224 0.956846 1.71286 0
M  V30 9710 O 948.349 0.17173 2.15718 0
M  V30 9711 C 948.944 3.26674 0.898315 0
M  V30 9712 C 947.503 3.50194 1.37989 0
M  V30 9713 C 946.65 2.75054 0.352202 0
M  V30 9714 H 949.601 1.56368 -0.271065 0
M  V30 9715 H 949.622 3.37263 1.76164 0
M  V30 9716 H 949.134 3.88099 0.009141 0
M  V30 9717 H 947.235 2.94041 2.28846 0
M  V30 9718 H 947.348 4.58909 1.37622 0
M  V30 9719 H 945.712 2.4101 0.823784 0
M  V30 9720 H 946.495 3.39203 -0.528782 0
M  V30 9721 N 948.94 -0.228186 1.55939 0
M  V30 9722 C 950.189 -0.951563 1.77843 0
M  V30 9723 C 950.502 -1.85763 0.612501 0
M  V30 9724 O 951.708 -2.61916 0.715006 0
M  V30 9725 C 950.164 -1.74216 3.14923 0
M  V30 9726 C 949.772 -0.882569 4.39221 0
M  V30 9727 C 951.516 -2.45715 3.46156 0
M  V30 9728 C 949.423 -1.67014 5.67327 0
M  V30 9729 H 948.353 -0.359035 0.663031 0
M  V30 9730 H 951.004 -0.205636 1.82344 0
M  V30 9731 H 949.386 -2.53075 3.0458 0
M  V30 9732 H 950.56 -0.13499 4.60602 0
M  V30 9733 H 948.875 -0.280022 4.15457 0
M  V30 9734 H 951.472 -3.05127 4.39092 0
M  V30 9735 H 951.815 -3.1827 2.68346 0
M  V30 9736 H 952.348 -1.73852 3.57799 0
M  V30 9737 H 949.087 -0.987985 6.48012 0
M  V30 9738 H 948.607 -2.3925 5.50018 0
M  V30 9739 H 950.286 -2.23252 6.07262 0
M  V30 9740 N 950.418 -1.49637 -0.494624 0
M  V30 9741 C 951.646 -1.63164 -1.2722 0
M  V30 9742 C 952.061 -0.305552 -1.86311 0
M  V30 9743 O 951.418 0.709758 -1.68133 0
M  V30 9744 C 951.469 -2.70524 -2.39789 0
M  V30 9745 O 951.19 -3.97991 -1.83126 0
M  V30 9746 C 952.691 -2.94814 -3.31058 0
M  V30 9747 H 949.911 -0.54912 -0.385627 0
M  V30 9748 H 952.455 -1.95711 -0.593081 0
M  V30 9749 H 950.61 -2.40738 -3.03519 0
M  V30 9750 H 951.024 -4.57179 -2.57075 0
M  V30 9751 H 952.498 -3.73653 -4.06309 0
M  V30 9752 H 952.975 -2.04974 -3.88436 0
M  V30 9753 H 953.581 -3.26042 -2.73088 0
M  V30 9754 N 951.896 0.746133 -1.38819 0
M  V30 9755 C 952.829 1.86833 -1.31029 0
M  V30 9756 C 953.807 1.61533 -0.185948 0
M  V30 9757 O 954.991 1.84942 -0.364529 0
M  V30 9758 C 952.118 3.22596 -1.03198 0
M  V30 9759 C 951.164 3.66772 -2.17671 0
M  V30 9760 S 951.997 3.77438 -3.7987 0
M  V30 9761 C 953.153 5.16008 -3.54241 0
M  V30 9762 H 953.386 1.93155 -2.26005 0
M  V30 9763 H 950.919 0.909872 -1.24742 0
M  V30 9764 H 952.877 4.00995 -0.878237 0
M  V30 9765 H 951.538 3.13943 -0.0992704 0
M  V30 9766 H 950.731 4.65266 -1.93762 0
M  V30 9767 H 950.333 2.95547 -2.2919 0
M  V30 9768 H 952.625 6.01996 -3.10816 0
M  V30 9769 H 953.568 5.44941 -4.52156 0
M  V30 9770 H 953.976 4.85158 -2.88587 0
M  V30 9771 N 953.375 1.23811 0.975125 0
M  V30 9772 C 954.305 1.04846 2.08638 0
M  V30 9773 C 955.286 -0.0362859 1.70061 0
M  V30 9774 O 956.471 0.12937 1.93769 0
M  V30 9775 C 953.601 0.644534 3.41267 0
M  V30 9776 C 952.555 1.67722 3.93768 0
M  V30 9777 C 951.881 1.12857 5.22654 0
M  V30 9778 C 953.181 3.07147 4.22443 0
M  V30 9779 H 954.875 1.97795 2.24761 0
M  V30 9780 H 952.421 0.952397 1.08006 0
M  V30 9781 H 954.374 0.498887 4.18436 0
M  V30 9782 H 953.098 -0.320641 3.25022 0
M  V30 9783 H 951.757 1.81095 3.18748 0
M  V30 9784 H 951.405 0.154227 5.02764 0
M  V30 9785 H 951.105 1.81862 5.58749 0
M  V30 9786 H 952.629 0.994891 6.0244 0
M  V30 9787 H 954.043 2.97045 4.90344 0
M  V30 9788 H 952.44 3.73437 4.6975 0
M  V30 9789 H 953.51 3.55743 3.29507 0
M  V30 9790 N 954.853 -1.17469 1.05066 0
M  V30 9791 C 955.783 -2.23635 0.671552 0
M  V30 9792 C 956.764 -1.66867 -0.33006 0
M  V30 9793 O 957.949 -1.93084 -0.207933 0
M  V30 9794 C 955.079 -3.47272 0.0441845 0
M  V30 9795 C 954.033 -4.16854 0.97042 0
M  V30 9796 C 953.359 -5.34299 0.206998 0
M  V30 9797 C 954.659 -4.69225 2.29401 0
M  V30 9798 H 956.353 -2.55602 1.55911 0
M  V30 9799 H 953.899 -1.2286 0.751101 0
M  V30 9800 H 955.852 -4.20756 -0.23282 0
M  V30 9801 H 954.576 -3.14568 -0.878311 0
M  V30 9802 H 953.235 -3.4528 1.23197 0
M  V30 9803 H 952.883 -4.97846 -0.718222 0
M  V30 9804 H 952.583 -5.81792 0.82416 0
M  V30 9805 H 954.107 -6.10568 -0.0627525 0
M  V30 9806 H 955.521 -5.34353 2.077 0
M  V30 9807 H 953.918 -5.27291 2.86503 0
M  V30 9808 H 954.988 -3.86102 2.93348 0
M  V30 9809 O 956.37 -0.966437 -1.29392 0
M  V30 9810 H 957.061 -0.604752 -1.84018 0
M  V30 END ATOM
M  V30 BEGIN BOND
M  V30 END BOND
M  V30 END CTAB
M  END
$$$$
