drugbank_target|Q2QJL3 N5-carboxyaminoimidazole ribonucleotide mutase (DB04272)
 OpenBabel12092120293D

  0  0  0     0  0            999 V3000
M  V30 BEGIN CTAB
M  V30 COUNTS 2656 2680 0 0 0
M  V30 BEGIN ATOM
M  V30 1 H -0.908 1.98254 -0.117106 0
M  V30 2 N 0 1.576 0 0
M  V30 3 C 0.933 2.03868 1.02534 0
M  V30 4 C 1.911 0.928543 1.3348 0
M  V30 5 O 3.095 1.19667 1.45644 0
M  V30 6 C 0.222 2.43627 2.35294 0
M  V30 7 C -0.732 3.65373 2.2001 0
M  V30 8 S 0.101 5.13292 1.52614 0
M  V30 9 C 1.257 5.56322 2.86805 0
M  V30 10 H 1.49 2.90518 0.631377 0
M  V30 11 H -0.977 1.52953 0.210867 0
M  V30 12 H 0.981 2.67203 3.11629 0
M  V30 13 H -0.358 1.57376 2.7183 0
M  V30 14 H -1.165 3.90944 3.18086 0
M  V30 15 H -1.563 3.418 1.51819 0
M  V30 16 H 0.729 5.58782 3.83104 0
M  V30 17 H 1.672 6.56266 2.65933 0
M  V30 18 H 2.08 4.83886 2.90714 0
M  V30 19 N 1.4781 -0.272755 1.55222 0
M  V30 20 C 2.7031 -1.02683 1.80197 0
M  V30 21 C 3.1281 -1.79142 0.573551 0
M  V30 22 O 2.4861 -1.74917 -0.476849 0
M  V30 23 C 2.5341 -1.9609 3.02624 0
M  V30 24 O 1.6381 -3.04863 2.77727 0
M  V30 25 H 0.9791 -0.293557 0.595584 0
M  V30 26 H 3.5091 -0.30159 2.02365 0
M  V30 27 H 3.5191 -2.38039 3.31363 0
M  V30 28 H 2.1941 -1.39851 3.91682 0
M  V30 29 H 0.7711 -2.67228 2.60084 0
M  V30 30 N 2.9562 -1.48159 -0.537278 0
M  V30 31 C 3.8662 -1.64807 -1.6696 0
M  V30 32 C 4.8822 -0.530651 -1.65711 0
M  V30 33 O 6.0582 -0.800784 -1.84796 0
M  V30 34 C 3.1232 -1.67708 -3.03438 0
M  V30 35 C 2.1842 -2.91025 -3.156 0
M  V30 36 C 1.4172 -2.93778 -4.45567 0
M  V30 37 O 1.6402 -2.05153 -5.3223 0
M  V30 38 O 0.5742 -3.85868 -4.61941 0
M  V30 39 H 4.4002 -2.6066 -1.55853 0
M  V30 40 H 1.9852 -1.31475 -0.709549 0
M  V30 41 H 3.8672 -1.7218 -3.84619 0
M  V30 42 H 2.5422 -0.750278 -3.14885 0
M  V30 43 H 1.4492 -2.92089 -2.33741 0
M  V30 44 H 2.7822 -3.83065 -3.09066 0
M  V30 45 N 4.4343 0.785586 -1.36625 0
M  V30 46 C 5.6623 1.57448 -1.3423 0
M  V30 47 C 6.0773 1.88649 0.0755653 0
M  V30 48 O 5.4343 1.50414 1.03354 0
M  V30 49 C 5.4853 2.89316 -2.16745 0
M  V30 50 O 5.2063 2.59459 -3.53005 0
M  V30 51 C 6.7073 3.83606 -2.22174 0
M  V30 52 H 3.9273 0.488226 -0.4603 0
M  V30 53 H 6.4713 0.974733 -1.79775 0
M  V30 54 H 4.6263 3.4575 -1.74745 0
M  V30 55 H 5.0403 3.43804 -3.96105 0
M  V30 56 H 6.5143 4.73181 -2.8426 0
M  V30 57 H 6.9913 4.21734 -1.22627 0
M  V30 58 H 7.5973 3.33104 -2.64427 0
M  V30 59 N 5.9124 1.20967 1.01018 0
M  V30 60 C 6.8754 0.965918 2.07853 0
M  V30 61 C 7.8754 -0.0610545 1.60684 0
M  V30 62 O 9.0654 0.175681 1.73312 0
M  V30 63 C 6.1974 0.455513 3.37843 0
M  V30 64 H 7.3904 1.91365 2.3091 0
M  V30 65 H 4.9434 1.02594 1.17916 0
M  V30 66 H 5.6784 -0.497381 3.20463 0
M  V30 67 H 5.4634 1.19622 3.73407 0
M  V30 68 H 6.9534 0.304667 4.16487 0
M  V30 69 N 7.3905 -1.2043 1.01659 0
M  V30 70 C 8.8015 -1.71517 0.737482 0
M  V30 71 C 9.1525 -1.81547 -0.743973 0
M  V30 72 O 8.2775 -1.47803 -1.58061 0
M  V30 73 C 8.8725 -3.11515 1.33206 0
M  V30 74 C 7.4315 -3.59912 1.10183 0
M  V30 75 C 6.5785 -2.37116 1.43776 0
M  V30 76 H 9.5295 -1.05444 1.18606 0
M  V30 77 H 9.5505 -3.73575 0.722636 0
M  V30 78 H 9.0625 -3.04182 2.41028 0
M  V30 79 H 7.1635 -3.72577 0.0412756 0
M  V30 80 H 7.2765 -4.44731 1.78188 0
M  V30 81 H 5.6405 -2.39857 0.856778 0
M  V30 82 H 6.4235 -2.32424 2.52654 0
M  V30 83 N 8.8686 -0.792821 -1.36206 0
M  V30 84 C 9.7986 -0.207853 -2.32573 0
M  V30 85 C 10.7796 0.659055 -1.56813 0
M  V30 86 O 11.9646 0.592176 -1.84951 0
M  V30 87 C 9.0946 0.655449 -3.41059 0
M  V30 88 C 8.0486 -0.111842 -4.27854 0
M  V30 89 C 7.3746 0.872274 -5.27537 0
M  V30 90 C 8.6746 -1.30299 -5.05786 0
M  V30 91 H 10.3686 -1.01294 -2.81744 0
M  V30 92 H 7.9146 -0.48854 -1.3546 0
M  V30 93 H 9.8676 1.07464 -4.07467 0
M  V30 94 H 8.5916 1.49328 -2.90463 0
M  V30 95 H 7.2506 -0.512053 -3.63006 0
M  V30 96 H 6.8986 1.70523 -4.73214 0
M  V30 97 H 6.5986 0.363291 -5.86476 0
M  V30 98 H 8.1226 1.28996 -5.96818 0
M  V30 99 H 9.5366 -0.959379 -5.65216 0
M  V30 100 H 7.9336 -1.7455 -5.74154 0
M  V30 101 H 9.0036 -2.09663 -4.37229 0
M  V30 102 N 10.3467 1.47872 -0.545128 0
M  V30 103 C 11.7577 1.86384 -0.108581 0
M  V30 104 C 12.1087 1.45309 1.31832 0
M  V30 105 O 11.2337 0.850641 1.9898 0
M  V30 106 C 11.8287 3.38265 -0.190274 0
M  V30 107 C 10.3877 3.75914 0.191164 0
M  V30 108 C 9.5347 2.71926 -0.543273 0
M  V30 109 H 12.4857 1.39561 -0.755537 0
M  V30 110 H 12.5067 3.75831 0.594217 0
M  V30 111 H 12.0187 3.6813 -1.2289 0
M  V30 112 H 10.1197 3.51665 1.23136 0
M  V30 113 H 10.2327 4.78836 -0.158987 0
M  V30 114 H 8.5967 2.54697 0.0122495 0
M  V30 115 H 9.3797 3.04634 -1.58282 0
M  V30 116 N 11.8248 0.280983 1.55075 0
M  V30 117 C 13.0498 -0.340154 2.04592 0
M  V30 118 C 13.4748 -1.48246 1.15779 0
M  V30 119 O 12.8328 -1.80614 0.15761 0
M  V30 120 C 12.8808 -0.793104 3.5177 0
M  V30 121 O 11.9848 -1.89981 3.66034 0
M  V30 122 H 11.3258 -0.0694289 0.66036 0
M  V30 123 H 13.8558 0.416993 2.00306 0
M  V30 124 H 13.8658 -1.08729 3.93245 0
M  V30 125 H 12.5408 0.0426163 4.15878 0
M  V30 126 H 11.1178 -1.60771 3.36463 0
M  V30 127 N 13.3029 -1.57598 0.00835791 0
M  V30 128 C 14.2659 -2.07884 -0.965242 0
M  V30 129 C 15.2659 -0.989825 -1.26725 0
M  V30 130 O 16.4559 -1.25218 -1.21104 0
M  V30 131 C 13.5879 -2.52731 -2.28779 0
M  V30 132 H 14.7809 -2.95178 -0.530112 0
M  V30 133 H 12.3339 -1.54458 -0.239283 0
M  V30 134 H 13.0689 -1.68705 -2.76964 0
M  V30 135 H 12.8539 -3.32272 -2.08177 0
M  V30 136 H 14.3439 -2.91933 -2.98605 0
M  V30 137 N 14.781 0.264519 -1.55364 0
M  V30 138 C 16.006 1.01726 -1.80739 0
M  V30 139 C 16.431 1.78836 -0.583044 0
M  V30 140 O 15.789 1.75167 0.467566 0
M  V30 141 C 15.837 1.94482 -3.03659 0
M  V30 142 O 14.941 3.03386 -2.7934 0
M  V30 143 H 14.282 0.290395 -0.597132 0
M  V30 144 H 16.812 0.290854 -2.02522 0
M  V30 145 H 16.822 2.36278 -3.32621 0
M  V30 146 H 15.497 1.37772 -3.92418 0
M  V30 147 H 14.074 2.65844 -2.61498 0
M  V30 148 N 16.2591 1.48442 0.529413 0
M  V30 149 C 17.4841 1.60406 1.31471 0
M  V30 150 C 17.9091 0.264738 1.86228 0
M  V30 151 O 17.2671 -0.763668 1.64432 0
M  V30 152 C 17.3151 2.65419 2.44101 0
M  V30 153 O 16.4191 2.22618 3.47153 0
M  V30 154 H 15.7601 0.537863 0.389357 0
M  V30 155 H 18.2901 1.94432 0.636965 0
M  V30 156 H 18.3001 2.86709 2.90279 0
M  V30 157 H 16.9751 3.62652 2.03608 0
M  V30 158 H 15.5521 2.11543 3.0709 0
M  V30 159 N 17.7372 -0.778329 1.37039 0
M  V30 160 C 18.7002 -1.87301 1.32102 0
M  V30 161 C 19.7002 -1.59198 0.226405 0
M  V30 162 O 20.8902 -1.67403 0.481861 0
M  V30 163 C 18.0222 -3.24309 1.05055 0
M  V30 164 H 19.2152 -1.93093 2.29467 0
M  V30 165 H 16.7682 -0.977358 1.21973 0
M  V30 166 H 17.5032 -3.24196 0.0819373 0
M  V30 167 H 17.2882 -3.46098 1.84279 0
M  V30 168 H 18.7782 -4.04382 1.04234 0
M  V30 169 N 19.2153 -1.21501 -1.00376 0
M  V30 170 C 20.1453 -0.999478 -2.11028 0
M  V30 171 C 21.1263 0.0759671 -1.6993 0
M  V30 172 O 22.3113 -0.0841106 -1.94018 0
M  V30 173 C 19.4413 -0.564709 -3.42678 0
M  V30 174 C 18.3953 -1.58486 -3.97576 0
M  V30 175 C 17.7213 -1.00628 -5.25146 0
M  V30 176 C 19.0213 -2.97204 -4.29496 0
M  V30 177 H 20.7153 -1.92495 -2.29317 0
M  V30 178 H 18.2613 -0.92693 -1.102 0
M  V30 179 H 20.2143 -0.401091 -4.19487 0
M  V30 180 H 18.9383 0.396411 -3.24185 0
M  V30 181 H 17.5973 -1.73606 -3.22888 0
M  V30 182 H 17.2453 -0.0368439 -5.02987 0
M  V30 183 H 16.9453 -1.68771 -5.62841 0
M  V30 184 H 18.4693 -0.854015 -6.04598 0
M  V30 185 H 19.8833 -2.8552 -4.97143 0
M  V30 186 H 18.2803 -3.62372 -4.78338 0
M  V30 187 H 19.3503 -3.47956 -3.3772 0
M  V30 188 N 20.6934 1.19889 -1.02296 0
M  V30 189 C 21.6034 2.26571 -0.608508 0
M  V30 190 C 22.6194 1.70299 0.356964 0
M  V30 191 O 23.7954 2.00235 0.216326 0
M  V30 192 C 20.8604 3.46677 0.0402814 0
M  V30 193 C 19.9214 4.18153 -0.97194 0
M  V30 194 C 19.1544 5.32525 -0.354016 0
M  V30 195 O 19.3774 5.64112 0.844604 0
M  V30 196 O 18.3114 5.92242 -1.07391 0
M  V30 197 H 22.1374 2.64251 -1.49684 0
M  V30 198 H 19.7224 1.26629 -0.792809 0
M  V30 199 H 21.6044 4.19475 0.402324 0
M  V30 200 H 20.2794 3.10858 0.902707 0
M  V30 201 H 19.1864 3.47499 -1.38546 0
M  V30 202 H 20.5194 4.57927 -1.80454 0
M  V30 203 N 22.1715 0.800033 1.35784 0
M  V30 204 C 23.4485 0.30088 1.93272 0
M  V30 205 C 23.8285 -1.20857 1.73081 0
M  V30 206 O 23.1765 -2.00502 1.09596 0
M  V30 207 C 23.3865 0.70511 3.41803 0
M  V30 208 C 24.7345 0.690871 4.18942 0
M  V30 209 O 25.7585 0.646244 3.50289 0
M  V30 210 O 24.6175 0.74332 5.41421 0
M  V30 211 H 21.7115 0.0771605 0.823393 0
M  V30 212 H 24.2575 0.88329 1.449 0
M  V30 213 H 23.0295 1.74571 3.50201 0
M  V30 214 H 22.6525 0.0971541 3.97481 0
M  V30 215 N 23.6496 -1.47581 0.552962 0
M  V30 216 C 24.5966 -2.29957 -0.197108 0
M  V30 217 C 25.5666 -1.38799 -0.912359 0
M  V30 218 O 26.7516 -1.67761 -0.908888 0
M  V30 219 C 23.8916 -3.22672 -1.22379 0
M  V30 220 C 23.0046 -4.28919 -0.515038 0
M  V30 221 C 22.1396 -5.0879 -1.52664 0
M  V30 222 C 21.1786 -6.06815 -0.802631 0
M  V30 223 N 20.3156 -6.7966 -1.76086 0
M  V30 224 H 25.1556 -2.93578 0.511486 0
M  V30 225 H 22.6926 -1.4471 0.264067 0
M  V30 226 H 24.6506 -3.74845 -1.83159 0
M  V30 227 H 23.2806 -2.60925 -1.90047 0
M  V30 228 H 22.3326 -3.79835 0.207192 0
M  V30 229 H 23.6446 -4.98773 0.0523425 0
M  V30 230 H 22.7986 -5.65091 -2.20809 0
M  V30 231 H 21.5376 -4.38828 -2.12794 0
M  V30 232 H 20.5426 -5.49695 -0.107238 0
M  V30 233 H 21.7676 -6.78784 -0.207135 0
M  V30 234 H 19.7136 -6.12432 -2.35081 0
M  V30 235 H 19.6306 -7.45669 -1.24552 0
M  V30 236 H 20.8986 -7.40538 -2.43359 0
M  V30 237 N 25.1277 -0.289203 -1.54924 0
M  V30 238 C 26.0907 0.579144 -2.21762 0
M  V30 239 C 27.0907 1.07047 -1.1999 0
M  V30 240 O 28.2807 0.968384 -1.44803 0
M  V30 241 C 25.4127 1.80055 -2.8947 0
M  V30 242 H 26.6057 -0.00464908 -2.999 0
M  V30 243 H 24.1587 -0.0399306 -1.56249 0
M  V30 244 H 24.8937 2.42449 -2.15381 0
M  V30 245 H 24.6787 1.45602 -3.64064 0
M  V30 246 H 26.1687 2.41773 -3.40493 0
M  V30 247 N 26.6058 1.57591 -0.0167156 0
M  V30 248 C 27.5688 2.08393 0.954204 0
M  V30 249 C 28.5688 0.996531 1.26198 0
M  V30 250 O 29.7588 1.25858 1.20438 0
M  V30 251 C 26.8908 2.5394 2.27436 0
M  V30 252 H 28.0838 2.95455 0.514451 0
M  V30 253 H 25.6368 1.54582 0.231089 0
M  V30 254 H 26.3718 1.70171 2.76066 0
M  V30 255 H 26.1568 3.33371 2.06412 0
M  V30 256 H 27.6468 2.93512 2.97053 0
M  V30 257 N 28.0839 -0.256276 1.55502 0
M  V30 258 C 29.3089 -1.00766 1.81276 0
M  V30 259 C 29.7339 -1.78524 0.59252 0
M  V30 260 O 29.0919 -1.75413 -0.45827 0
M  V30 261 C 29.1399 -1.92869 3.04687 0
M  V30 262 O 28.2439 -3.019 2.80945 0
M  V30 263 H 27.5849 -0.287224 0.598664 0
M  V30 264 H 30.1149 -0.280109 2.02674 0
M  V30 265 H 30.1249 -2.34511 3.33869 0
M  V30 266 H 28.7999 -1.35689 3.93143 0
M  V30 267 H 27.3769 -2.64454 2.62904 0
M  V30 268 N 29.562 -1.4872 -0.521534 0
M  V30 269 C 30.525 -1.63379 -1.60748 0
M  V30 270 C 31.525 -0.50661 -1.52611 0
M  V30 271 O 32.715 -0.772601 -1.5613 0
M  V30 272 C 29.847 -1.61192 -3.00383 0
M  V30 273 H 31.04 -2.60217 -1.49087 0
M  V30 274 H 28.593 -1.37444 -0.744235 0
M  V30 275 H 29.328 -0.65863 -3.17541 0
M  V30 276 H 29.113 -2.43032 -3.07698 0
M  V30 277 H 30.603 -1.7466 -3.7932 0
M  V30 278 N 31.0401 0.771051 -1.3745 0
M  V30 279 C 32.4511 1.34737 -1.29239 0
M  V30 280 C 32.8021 1.96109 0.0596908 0
M  V30 281 O 31.9271 1.93865 0.961534 0
M  V30 282 C 32.5221 2.44973 -2.34037 0
M  V30 283 C 31.0811 2.98372 -2.29458 0
M  V30 284 C 30.2281 1.71595 -2.17831 0
M  V30 285 H 33.1791 0.571256 -1.48062 0
M  V30 286 H 33.2001 3.24471 -1.98744 0
M  V30 287 H 32.7121 2.00276 -3.32432 0
M  V30 288 H 30.8131 3.47443 -1.34589 0
M  V30 289 H 30.9261 3.53939 -3.229 0
M  V30 290 H 29.2901 1.94547 -1.64388 0
M  V30 291 H 30.0731 1.29001 -3.18141 0
M  V30 292 N 32.5182 1.22032 0.997298 0
M  V30 293 C 33.7642 1.04376 1.73878 0
M  V30 294 C 34.0972 -0.420716 1.89588 0
M  V30 295 O 33.3722 -1.31202 1.43583 0
M  V30 296 C 33.6552 1.75047 3.14691 0
M  V30 297 C 33.5082 3.29062 3.06656 0
M  V30 298 C 34.8272 1.49928 4.13775 0
M  V30 299 H 31.9462 0.380578 0.631133 0
M  V30 300 H 34.5882 1.50312 1.16217 0
M  V30 301 H 32.7382 1.35996 3.63919 0
M  V30 302 H 34.4102 3.7753 2.65083 0
M  V30 303 H 32.6532 3.58967 2.43568 0
M  V30 304 H 33.3242 3.73683 4.06282 0
M  V30 305 H 35.8002 1.83842 3.73285 0
M  V30 306 H 34.6762 2.01878 5.10428 0
M  V30 307 H 34.9372 0.430929 4.39995 0
M  V30 308 N 33.9963 -1.19345 1.0293 0
M  V30 309 C 35.2423 -1.89318 0.727083 0
M  V30 310 C 35.5753 -1.79446 -0.742483 0
M  V30 311 O 34.8503 -1.1871 -1.54072 0
M  V30 312 C 35.1333 -3.40238 1.17942 0
M  V30 313 C 34.9863 -3.58979 2.71024 0
M  V30 314 C 36.3053 -4.33479 0.760548 0
M  V30 315 H 33.4243 -0.687475 0.265606 0
M  V30 316 H 36.0663 -1.40477 1.2793 0
M  V30 317 H 34.2163 -3.81964 0.709608 0
M  V30 318 H 35.8883 -3.26421 3.25955 0
M  V30 319 H 34.1313 -3.02018 3.11396 0
M  V30 320 H 34.8023 -4.64823 2.9773 0
M  V30 321 H 37.2783 -3.99469 1.16464 0
M  V30 322 H 36.1543 -5.37664 1.10493 0
M  V30 323 H 36.4153 -4.40813 -0.337063 0
M  V30 324 N 35.4744 -0.807222 -1.35358 0
M  V30 325 C 36.7224 -0.387122 -1.98358 0
M  V30 326 C 37.0434 1.04942 -1.64354 0
M  V30 327 O 36.3134 1.72615 -0.926339 0
M  V30 328 H 34.8934 -0.140154 -0.733734 0
M  V30 329 H 37.5554 -1.0332 -1.6526 0
M  V30 330 H 36.6514 -0.493352 -3.08176 0
M  V30 331 N 36.9525 1.47285 -0.560781 0
M  V30 332 C 38.2015 2.01668 -0.035895 0
M  V30 333 C 38.5145 1.44021 1.32353 0
M  V30 334 O 39.7205 1.90088 1.93853 0
M  V30 335 C 38.1765 3.59897 -0.0136659 0
M  V30 336 C 37.7845 4.26536 -1.37006 0
M  V30 337 C 39.5285 4.22017 0.458425 0
M  V30 338 C 37.4355 5.76782 -1.30675 0
M  V30 339 H 36.3655 0.753938 -0.00964879 0
M  V30 340 H 39.0165 1.69243 -0.709166 0
M  V30 341 H 37.3985 3.89301 0.725325 0
M  V30 342 H 38.5725 4.0877 -2.12705 0
M  V30 343 H 36.8875 3.76419 -1.78038 0
M  V30 344 H 39.4845 5.32124 0.524247 0
M  V30 345 H 39.8275 3.89437 1.4712 0
M  V30 346 H 40.3605 3.97159 -0.225818 0
M  V30 347 H 37.0995 6.13988 -2.29564 0
M  V30 348 H 36.6195 5.96875 -0.591622 0
M  V30 349 H 38.2985 6.39063 -1.01033 0
M  V30 350 N 38.4306 0.297415 1.54768 0
M  V30 351 C 39.6796 -0.313669 1.99246 0
M  V30 352 C 39.9926 -1.55281 1.18942 0
M  V30 353 O 41.1986 -2.23825 1.5367 0
M  V30 354 C 39.6546 -0.609407 3.54703 0
M  V30 355 C 39.2626 0.611192 4.43811 0
M  V30 356 C 41.0066 -1.18188 4.07715 0
M  V30 357 C 38.9136 0.288805 5.90694 0
M  V30 358 H 37.8436 -0.120979 0.744231 0
M  V30 359 H 40.4946 0.40556 1.78962 0
M  V30 360 H 38.8766 -1.38813 3.70873 0
M  V30 361 H 40.0506 1.3875 4.39414 0
M  V30 362 H 38.3656 1.10205 4.01552 0
M  V30 363 H 40.9626 -1.43727 5.15021 0
M  V30 364 H 41.3056 -2.12299 3.58099 0
M  V30 365 H 41.8386 -0.464944 3.95074 0
M  V30 366 H 38.5776 1.19838 6.44453 0
M  V30 367 H 38.0976 -0.450305 5.98107 0
M  V30 368 H 39.7766 -0.110933 6.46905 0
M  V30 369 N 39.9087 -1.5758 0.0250728 0
M  V30 370 C 40.8417 -2.05473 -0.992777 0
M  V30 371 C 41.8197 -0.949661 -1.31986 0
M  V30 372 O 43.0037 -1.21969 -1.43722 0
M  V30 373 C 40.1307 -2.4734 -2.31389 0
M  V30 374 C 39.1767 -3.68827 -2.1417 0
M  V30 375 S 40.0097 -5.15655 -1.44429 0
M  V30 376 C 41.1657 -5.60814 -2.77918 0
M  V30 377 H 41.3987 -2.91486 -0.585078 0
M  V30 378 H 38.9317 -1.53269 -0.186507 0
M  V30 379 H 40.8897 -2.72127 -3.07339 0
M  V30 380 H 39.5507 -1.6168 -2.69292 0
M  V30 381 H 38.7437 -3.95955 -3.11826 0
M  V30 382 H 38.3457 -3.44172 -1.46362 0
M  V30 383 H 40.6377 -5.64806 -3.74166 0
M  V30 384 H 41.5807 -6.60414 -2.55459 0
M  V30 385 H 41.9887 -4.8845 -2.82979 0
M  V30 386 N 41.3868 0.248026 -1.55636 0
M  V30 387 C 42.6348 0.974295 -1.77065 0
M  V30 388 C 42.9558 1.85897 -0.588849 0
M  V30 389 O 42.2258 1.91868 0.395407 0
M  V30 390 H 40.8058 0.362733 -0.653019 0
M  V30 391 H 43.4678 0.266244 -1.93073 0
M  V30 392 H 42.5638 1.59667 -2.68166 0
M  V30 393 N 42.8649 1.48995 0.513639 0
M  V30 394 C 44.0899 1.61792 1.29762 0
M  V30 395 C 44.5149 0.284475 1.85936 0
M  V30 396 O 43.8729 -0.746185 1.65232 0
M  V30 397 C 43.9209 2.67993 2.41272 0
M  V30 398 O 43.0249 2.26287 3.44772 0
M  V30 399 H 42.3659 0.541963 0.38363 0
M  V30 400 H 44.8959 1.95097 0.616307 0
M  V30 401 H 44.9059 2.89772 2.87221 0
M  V30 402 H 43.5809 3.64791 1.9975 0
M  V30 403 H 42.1579 2.14788 3.04829 0
M  V30 404 N 44.343 -0.763751 1.37857 0
M  V30 405 C 45.275 -1.88664 1.30148 0
M  V30 406 C 46.288 -1.61365 0.215685 0
M  V30 407 O 47.477 -1.72134 0.472459 0
M  V30 408 C 44.577 -3.24075 0.991396 0
M  V30 409 C 43.75 -3.78958 2.18426 0
M  V30 410 C 42.809 -4.92862 1.8432 0
M  V30 411 O 41.835 -5.08027 2.56704 0
M  V30 412 N 43.037 -5.75071 0.792081 0
M  V30 413 H 45.802 -1.95791 2.26905 0
M  V30 414 H 43.363 -0.943226 1.31586 0
M  V30 415 H 45.355 -3.97804 0.743935 0
M  V30 416 H 43.925 -3.12399 0.112122 0
M  V30 417 H 43.145 -2.96913 2.59299 0
M  V30 418 H 44.433 -4.12357 2.98058 0
M  V30 419 H 43.831 -5.65375 0.191595 0
M  V30 420 H 42.388 -6.48991 0.60449 0
M  V30 421 N 45.8211 -1.22559 -0.990812 0
M  V30 422 C 47.0461 -1.07862 -1.77145 0
M  V30 423 C 47.4711 0.366447 -1.84496 0
M  V30 424 O 46.8291 1.26478 -1.29896 0
M  V30 425 C 46.8771 -1.69686 -3.18181 0
M  V30 426 O 45.9811 -0.951946 -4.01263 0
M  V30 427 H 45.3221 -0.378712 -0.545411 0
M  V30 428 H 47.8521 -1.62399 -1.2445 0
M  V30 429 H 47.8621 -1.74496 -3.68802 0
M  V30 430 H 46.5371 -2.74841 -3.12146 0
M  V30 431 H 45.1141 -0.980011 -3.59792 0
M  V30 432 N 47.2992 1.18797 -1.03562 0
M  V30 433 C 48.5762 1.84469 -0.650434 0
M  V30 434 C 48.9562 1.92319 0.870433 0
M  V30 435 O 48.3042 1.44528 1.76986 0
M  V30 436 C 48.5142 3.2306 -1.32036 0
M  V30 437 C 49.8622 3.9915 -1.44792 0
M  V30 438 O 50.8862 3.32481 -1.27806 0
M  V30 439 O 49.7452 5.18587 -1.72423 0
M  V30 440 H 46.8392 0.795251 -0.226946 0
M  V30 441 H 49.3852 1.26231 -1.13419 0
M  V30 442 H 48.1572 3.1222 -2.3587 0
M  V30 443 H 47.7802 3.88949 -0.8249 0
M  V30 444 N 48.7773 0.814389 1.34928 0
M  V30 445 C 50.0233 0.408167 1.99263 0
M  V30 446 C 50.3783 -1.0154 1.63424 0
M  V30 447 O 49.6713 -1.69607 0.891289 0
M  V30 448 C 49.8653 0.537781 3.53331 0
M  V30 449 C 49.6943 1.9724 4.04137 0
M  V30 450 C 48.4643 2.60245 4.33129 0
M  V30 451 C 50.6623 2.93801 4.2212 0
M  V30 452 N 48.6443 3.95036 4.69914 0
M  V30 453 C 50.0153 4.1348 4.6199 0
M  V30 454 C 52.0703 2.9053 4.04348 0
M  V30 455 C 50.7733 5.3033 4.85945 0
M  V30 456 C 52.7993 4.06589 4.29464 0
M  V30 457 C 52.1613 5.25017 4.69613 0
M  V30 458 H 48.2603 0.197289 0.756704 0
M  V30 459 H 50.8443 1.05728 1.63492 0
M  V30 460 H 49.0153 -0.0813868 3.88315 0
M  V30 461 H 50.7473 0.105389 4.04563 0
M  V30 462 H 47.5023 2.11545 4.23728 0
M  V30 463 H 47.9263 4.64455 4.92555 0
M  V30 464 H 52.5683 2.00115 3.72443 0
M  V30 465 H 50.2863 6.21309 5.16721 0
M  V30 466 H 53.8723 4.05447 4.17257 0
M  V30 467 H 52.7523 6.1333 4.88667 0
M  V30 468 N 50.2554 -1.46986 0.568584 0
M  V30 469 C 51.1654 -2.33942 -0.17555 0
M  V30 470 C 52.1814 -1.48891 -0.90041 0
M  V30 471 O 53.3574 -1.81794 -0.86676 0
M  V30 472 C 50.4224 -3.25811 -1.18524 0
M  V30 473 C 49.4834 -4.26757 -0.466582 0
M  V30 474 C 48.7164 -5.14236 -1.42817 0
M  V30 475 O 48.9394 -5.04379 -2.66379 0
M  V30 476 O 47.8734 -5.94412 -0.946453 0
M  V30 477 H 51.6994 -2.98896 0.538036 0
M  V30 478 H 49.2844 -1.4573 0.329097 0
M  V30 479 H 51.1664 -3.82527 -1.76779 0
M  V30 480 H 49.8414 -2.63471 -1.88055 0
M  V30 481 H 48.7484 -3.73769 0.157451 0
M  V30 482 H 50.0814 -4.91843 0.187485 0
M  V30 483 N 51.7335 -0.305618 -1.54608 0
M  V30 484 C 52.9615 0.304775 -2.04643 0
M  V30 485 C 53.3765 1.47167 -1.18268 0
M  V30 486 O 52.7335 1.81296 -0.209328 0
M  V30 487 C 52.7845 0.756564 -3.53495 0
M  V30 488 O 52.5055 -0.36389 -4.36586 0
M  V30 489 C 54.0065 1.43163 -4.19546 0
M  V30 490 H 51.2265 0.0655481 -0.667791 0
M  V30 491 H 53.7705 -0.446592 -1.99564 0
M  V30 492 H 51.9255 1.45794 -3.58919 0
M  V30 493 H 52.3395 -0.0113121 -5.24499 0
M  V30 494 H 53.8135 1.69886 -5.25207 0
M  V30 495 H 54.2905 2.37318 -3.69563 0
M  V30 496 H 54.8965 0.773307 -4.18211 0
M  V30 497 N 53.2116 1.57565 -0.0334293 0
M  V30 498 C 54.1446 2.05997 0.981866 0
M  V30 499 C 55.1226 0.956647 1.3148 0
M  V30 500 O 56.3066 1.22729 1.43073 0
M  V30 501 C 53.4336 2.48564 2.30074 0
M  V30 502 C 52.4796 3.69958 2.12211 0
M  V30 503 S 53.3126 5.16414 1.41692 0
M  V30 504 C 54.4686 5.6228 2.7494 0
M  V30 505 H 54.7016 2.91792 0.569612 0
M  V30 506 H 52.2346 1.53366 0.178376 0
M  V30 507 H 54.1926 2.73753 3.05892 0
M  V30 508 H 52.8536 1.63106 2.68431 0
M  V30 509 H 52.0466 3.97603 3.09722 0
M  V30 510 H 51.6486 3.44943 1.44535 0
M  V30 511 H 53.9406 5.66783 3.71165 0
M  V30 512 H 54.8836 6.61759 2.51953 0
M  V30 513 H 55.2916 4.89944 2.80384 0
M  V30 514 N 54.6897 -0.239769 1.55765 0
M  V30 515 C 56.1057 -0.588624 1.48349 0
M  V30 516 C 56.3057 -1.88005 0.72502 0
M  V30 517 O 55.3617 -2.51186 0.257269 0
M  V30 518 C 56.6747 -0.68474 2.928 0
M  V30 519 C 58.2227 -0.77659 3.03213 0
M  V30 520 C 58.6977 -0.904207 4.48986 0
M  V30 521 N 60.1887 -0.968896 4.52953 0
M  V30 522 C 60.9237 -1.08703 5.63002 0
M  V30 523 N 60.4197 -1.17026 6.82845 0
M  V30 524 N 62.2127 -1.12074 5.50814 0
M  V30 525 H 54.3637 0.607911 2.03515 0
M  V30 526 H 56.6267 0.21083 0.924259 0
M  V30 527 H 56.3327 0.194284 3.51163 0
M  V30 528 H 56.2067 -1.55435 3.43686 0
M  V30 529 H 58.5937 -1.64606 2.44926 0
M  V30 530 H 58.6747 0.118315 2.55526 0
M  V30 531 H 58.3187 -0.0392633 5.07885 0
M  V30 532 H 58.2487 -1.81426 4.9436 0
M  V30 533 H 60.7397 -0.915633 3.6664 0
M  V30 534 H 61.0527 -1.25966 7.62465 0
M  V30 535 H 59.3977 -1.13971 6.85591 0
M  V30 536 H 62.5887 -1.05226 4.5612 0
M  V30 537 H 62.7617 -1.20936 6.36615 0
M  V30 538 N 56.1678 -1.49265 -0.50573 0
M  V30 539 C 57.1178 -1.6198 -1.60457 0
M  V30 540 C 58.1018 -0.47568 -1.53708 0
M  V30 541 O 59.2938 -0.728392 -1.61318 0
M  V30 542 C 56.4228 -1.68526 -2.99089 0
M  V30 543 C 55.5088 -2.885 -3.10852 0
M  V30 544 N 55.8998 -4.12635 -2.92517 0
M  V30 545 C 54.1978 -2.86338 -3.41945 0
M  V30 546 C 54.8988 -4.93258 -3.08337 0
M  V30 547 N 53.8748 -4.26533 -3.37003 0
M  V30 548 H 57.6768 -2.55681 -1.44928 0
M  V30 549 H 55.1908 -1.45972 -0.711752 0
M  V30 550 H 57.1878 -1.75732 -3.78053 0
M  V30 551 H 55.8478 -0.759584 -3.1569 0
M  V30 552 H 56.8588 -4.42689 -2.68787 0
M  V30 553 H 53.5358 -2.03129 -3.64753 0
M  V30 554 H 54.9258 -6.01856 -2.98695 0
M  V30 555 N 57.6459 0.756429 -1.3826 0
M  V30 556 C 58.6089 1.85176 -1.35065 0
M  V30 557 C 59.6089 1.58818 -0.251703 0
M  V30 558 O 60.7989 1.66615 -0.508433 0
M  V30 559 C 57.9309 3.22596 -1.10201 0
M  V30 560 H 59.1239 1.89417 -2.3251 0
M  V30 561 H 56.6769 0.95783 -1.23512 0
M  V30 562 H 57.4119 3.24025 -0.133504 0
M  V30 563 H 57.1969 3.43122 -1.89762 0
M  V30 564 H 58.6869 4.02673 -1.10654 0
M  V30 565 N 59.124 1.23083 0.984299 0
M  V30 566 C 60.401 0.9689 1.69917 0
M  V30 567 C 60.781 -0.513604 2.04757 0
M  V30 568 O 60.129 -1.48383 1.73767 0
M  V30 569 C 60.339 1.87518 2.94343 0
M  V30 570 C 61.687 2.13636 3.6694 0
M  V30 571 O 62.711 1.85036 3.04368 0
M  V30 572 O 61.57 2.62119 4.79537 0
M  V30 573 H 58.664 0.365095 0.742048 0
M  V30 574 H 61.21 1.34107 1.03987 0
M  V30 575 H 59.982 2.87756 2.65164 0
M  V30 576 H 59.605 1.50514 3.6801 0
M  V30 577 N 60.6021 -1.18246 1.0419 0
M  V30 578 C 61.5651 -2.20128 0.638452 0
M  V30 579 C 62.5651 -1.57885 -0.304805 0
M  V30 580 O 63.7551 -1.73967 -0.0900369 0
M  V30 581 C 60.8871 -3.4084 -0.0637751 0
M  V30 582 H 62.0801 -2.57336 1.54007 0
M  V30 583 H 59.6331 -1.32152 0.834598 0
M  V30 584 H 60.3681 -3.09166 -0.979136 0
M  V30 585 H 60.1531 -3.8726 0.614198 0
M  V30 586 H 61.6431 -4.16274 -0.332512 0
M  V30 587 N 62.0802 -0.821533 -1.34494 0
M  V30 588 C 63.0102 -0.257138 -2.3208 0
M  V30 589 C 63.9912 0.625645 -1.58176 0
M  V30 590 O 65.1762 0.552811 -1.86166 0
M  V30 591 C 62.3062 0.582958 -3.42372 0
M  V30 592 C 61.2602 -0.202571 -4.2752 0
M  V30 593 C 60.5862 0.760179 -5.29269 0
M  V30 594 C 61.8862 -1.40998 -5.02908 0
M  V30 595 H 63.5802 -1.07247 -2.79532 0
M  V30 596 H 61.1262 -0.517163 -1.34393 0
M  V30 597 H 63.0792 0.987972 -4.09655 0
M  V30 598 H 61.8032 1.43133 -2.93565 0
M  V30 599 H 60.4622 -0.588936 -3.61838 0
M  V30 600 H 60.1102 1.60447 -4.76724 0
M  V30 601 H 59.8102 0.238809 -5.87115 0
M  V30 602 H 61.3342 1.16308 -5.9942 0
M  V30 603 H 62.7482 -1.07905 -5.63054 0
M  V30 604 H 61.1452 -1.86689 -5.70322 0
M  V30 605 H 62.2152 -2.1889 -4.32684 0
M  V30 606 N 63.5583 1.46682 -0.576371 0
M  V30 607 C 64.4883 2.33028 0.148397 0
M  V30 608 C 65.4693 1.44961 0.889956 0
M  V30 609 O 66.6543 1.73789 0.866662 0
M  V30 610 C 63.7843 3.27117 1.1667 0
M  V30 611 C 62.7383 4.24575 0.540386 0
M  V30 612 C 62.0643 5.08126 1.6647 0
M  V30 613 C 63.3643 5.19722 -0.518331 0
M  V30 614 H 65.0583 2.93875 -0.572509 0
M  V30 615 H 62.6043 1.41315 -0.276768 0
M  V30 616 H 64.5573 3.86374 1.68204 0
M  V30 617 H 63.2813 2.64364 1.9178 0
M  V30 618 H 61.9403 3.66571 0.0461769 0
M  V30 619 H 61.5883 4.41762 2.40531 0
M  V30 620 H 61.2883 5.74122 1.25131 0
M  V30 621 H 62.8123 5.70246 2.18293 0
M  V30 622 H 64.2263 5.73232 -0.0883058 0
M  V30 623 H 62.6233 5.94026 -0.851679 0
M  V30 624 H 63.6933 4.64037 -1.40703 0
M  V30 625 N 65.0364 0.313813 1.54444 0
M  V30 626 C 66.2644 -0.293918 2.04802 0
M  V30 627 C 66.6794 -1.46537 1.19047 0
M  V30 628 O 66.0364 -1.81182 0.218939 0
M  V30 629 C 66.0874 -0.737806 3.53891 0
M  V30 630 O 65.8084 0.387038 4.36387 0
M  V30 631 C 67.3094 -1.40936 4.203 0
M  V30 632 H 64.5294 -0.0620057 0.668129 0
M  V30 633 H 67.0734 0.457169 1.99324 0
M  V30 634 H 65.2284 -1.43889 3.59687 0
M  V30 635 H 65.6424 0.0391274 5.24485 0
M  V30 636 H 67.1164 -1.67099 5.26101 0
M  V30 637 H 67.5934 -2.35355 3.70816 0
M  V30 638 H 68.1994 -0.751117 4.18615 0
M  V30 639 N 66.5145 -1.57545 0.0417849 0
M  V30 640 C 67.4245 -2.14451 -0.951213 0
M  V30 641 C 68.4405 -1.09992 -1.34825 0
M  V30 642 O 69.6165 -1.42114 -1.42708 0
M  V30 643 C 66.6815 -2.67063 -2.21084 0
M  V30 644 C 65.7425 -3.86284 -1.87304 0
M  V30 645 C 64.9755 -4.36378 -3.07261 0
M  V30 646 O 65.1985 -3.85587 -4.20332 0
M  V30 647 O 64.1325 -5.28077 -2.88822 0
M  V30 648 H 67.9585 -2.99601 -0.497287 0
M  V30 649 H 65.5435 -1.48317 -0.179567 0
M  V30 650 H 67.4255 -3.00914 -2.95006 0
M  V30 651 H 66.1005 -1.84989 -2.65633 0
M  V30 652 H 65.0075 -3.57338 -1.10727 0
M  V30 653 H 66.3405 -4.6956 -1.47562 0
M  V30 654 N 67.9926 0.231505 -1.5589 0
M  V30 655 C 68.9226 1.29022 -1.94617 0
M  V30 656 C 69.9036 1.4941 -0.813067 0
M  V30 657 O 71.0886 1.6176 -1.07459 0
M  V30 658 C 68.2186 2.64199 -2.25424 0
M  V30 659 C 67.1726 2.58484 -3.41131 0
M  V30 660 C 66.4986 3.97599 -3.57518 0
M  V30 661 C 67.7986 2.1413 -4.76388 0
M  V30 662 H 69.4926 0.968563 -2.83301 0
M  V30 663 H 67.0386 0.464479 -1.36303 0
M  V30 664 H 68.9916 3.38413 -2.51107 0
M  V30 665 H 67.7156 2.98032 -1.33583 0
M  V30 666 H 66.3746 1.86727 -3.15481 0
M  V30 667 H 66.0226 4.28723 -2.6307 0
M  V30 668 H 65.7226 3.94659 -4.35337 0
M  V30 669 H 67.2466 4.7349 -3.85538 0
M  V30 670 H 68.6606 2.78083 -5.01341 0
M  V30 671 H 67.0576 2.2227 -5.57419 0
M  V30 672 H 68.1276 1.09331 -4.72414 0
M  V30 673 N 69.4707 1.49531 0.497807 0
M  V30 674 C 70.3807 1.69176 1.62532 0
M  V30 675 C 71.3967 0.5744 1.64246 0
M  V30 676 O 72.5727 0.849497 1.82608 0
M  V30 677 C 69.6377 1.75695 2.98885 0
M  V30 678 C 68.6987 2.9929 3.07773 0
M  V30 679 C 67.9317 3.05488 4.37622 0
M  V30 680 O 68.1547 2.19192 5.26603 0
M  V30 681 O 67.0887 3.9798 4.51548 0
M  V30 682 H 70.9147 2.647 1.48887 0
M  V30 683 H 68.4997 1.3331 0.674441 0
M  V30 684 H 70.3817 1.82317 3.79919 0
M  V30 685 H 69.0567 0.8335 3.12785 0
M  V30 686 H 67.9637 2.98183 2.25915 0
M  V30 687 H 69.2967 3.91125 2.98801 0
M  V30 688 N 70.9488 -0.749086 1.3866 0
M  V30 689 C 72.1978 -1.50371 1.3443 0
M  V30 690 C 72.5108 -1.95503 -0.0616397 0
M  V30 691 O 73.7168 -2.70554 -0.226489 0
M  V30 692 C 72.1728 -2.71644 2.36088 0
M  V30 693 C 71.7808 -2.3352 3.82325 0
M  V30 694 C 73.5248 -3.49518 2.40909 0
M  V30 695 C 71.4318 -3.51431 4.75658 0
M  V30 696 H 70.3618 -0.564628 0.499712 0
M  V30 697 H 73.0128 -0.818449 1.64237 0
M  V30 698 H 71.3948 -3.42175 1.9933 0
M  V30 699 H 72.5688 -1.70627 4.28046 0
M  V30 700 H 70.8838 -1.6877 3.80665 0
M  V30 701 H 73.4808 -4.37197 3.07836 0
M  V30 702 H 73.8238 -3.90992 1.42937 0
M  V30 703 H 74.3568 -2.86005 2.76489 0
M  V30 704 H 71.0958 -3.15019 5.74842 0
M  V30 705 H 70.6158 -4.13352 4.34627 0
M  V30 706 H 72.2948 -4.17953 4.93887 0
M  V30 707 N 72.4269 -1.23603 -0.977757 0
M  V30 708 C 73.8379 -1.06424 -1.53398 0
M  V30 709 C 74.1889 0.367578 -1.92726 0
M  V30 710 O 73.3139 1.25465 -1.76316 0
M  V30 711 C 73.9089 -1.92568 -2.78753 0
M  V30 712 C 72.4679 -1.79642 -3.30765 0
M  V30 713 C 71.6149 -1.88111 -2.03739 0
M  V30 714 H 74.5659 -1.37227 -0.797152 0
M  V30 715 H 74.5869 -1.45203 -3.51705 0
M  V30 716 H 74.0989 -2.96771 -2.50098 0
M  V30 717 H 72.1999 -0.782325 -3.64294 0
M  V30 718 H 72.3129 -2.63174 -4.00345 0
M  V30 719 H 70.6769 -1.31723 -2.17994 0
M  V30 720 H 71.4599 -2.93875 -1.77461 0
M  V30 721 N 73.905 1.17692 -1.04816 0
M  V30 722 C 74.855 2.1952 -0.616042 0
M  V30 723 C 75.839 1.57147 0.345485 0
M  V30 724 O 77.031 1.76245 0.163325 0
M  V30 725 C 74.16 3.43298 0.0116917 0
M  V30 726 C 73.246 4.12777 -0.973435 0
M  V30 727 N 73.637 4.5814 -2.14339 0
M  V30 728 C 71.935 4.38747 -0.80108 0
M  V30 729 C 72.636 5.11713 -2.7663 0
M  V30 730 N 71.612 5.03686 -2.04453 0
M  V30 731 H 75.414 2.52293 -1.5075 0
M  V30 732 H 72.928 1.3398 -0.917776 0
M  V30 733 H 74.925 4.15519 0.339006 0
M  V30 734 H 73.585 3.12018 0.898593 0
M  V30 735 H 74.596 4.52349 -2.52191 0
M  V30 736 H 71.273 4.17485 0.0350934 0
M  V30 737 H 72.663 5.56962 -3.75823 0
M  V30 738 N 75.3831 0.828654 1.34056 0
M  V30 739 C 76.2931 0.256725 2.33191 0
M  V30 740 C 77.3091 -0.611898 1.62886 0
M  V30 741 O 78.4851 -0.51844 1.94613 0
M  V30 742 C 75.5501 -0.567238 3.42028 0
M  V30 743 C 74.6111 0.324458 4.28072 0
M  V30 744 C 73.8441 -0.460274 5.31712 0
M  V30 745 O 74.0671 -1.693 5.44696 0
M  V30 746 O 73.0011 0.160391 6.01686 0
M  V30 747 H 76.8271 1.07739 2.83947 0
M  V30 748 H 74.4121 0.59093 1.37217 0
M  V30 749 H 76.2941 -1.03582 4.08471 0
M  V30 750 H 74.9691 -1.36513 2.93506 0
M  V30 751 H 73.8761 0.840659 3.64532 0
M  V30 752 H 75.2091 1.08685 4.8005 0
M  V30 753 N 76.8612 -1.46375 0.584142 0
M  V30 754 C 78.0892 -2.06761 0.0759296 0
M  V30 755 C 78.5042 -1.43266 -1.22965 0
M  V30 756 O 77.8612 -0.538458 -1.74376 0
M  V30 757 C 77.9122 -3.61375 -0.0950384 0
M  V30 758 O 77.6332 -4.22495 1.15887 0
M  V30 759 C 79.1342 -4.38693 -0.637434 0
M  V30 760 H 76.3542 -0.668479 0.0581075 0
M  V30 761 H 78.8982 -1.8798 0.805218 0
M  V30 762 H 77.0532 -3.79578 -0.774554 0
M  V30 763 H 77.4672 -5.15385 0.973598 0
M  V30 764 H 78.9412 -5.47464 -0.706237 0
M  V30 765 H 79.4182 -4.06836 -1.65472 0
M  V30 766 H 80.0242 -4.25299 0.00725967 0
M  V30 767 N 78.3393 -0.321999 -1.54275 0
M  V30 768 C 79.2693 0.537411 -2.27231 0
M  V30 769 C 80.2503 1.12064 -1.27968 0
M  V30 770 O 81.4353 1.14606 -1.56777 0
M  V30 771 C 78.5653 1.69919 -3.02894 0
M  V30 772 C 77.5193 1.24534 -4.09482 0
M  V30 773 C 76.8453 2.49394 -4.72977 0
M  V30 774 C 78.1453 0.361335 -5.21049 0
M  V30 775 H 79.8393 -0.0711406 -2.99315 0
M  V30 776 H 77.3853 -0.0356555 -1.43956 0
M  V30 777 H 79.3383 2.30668 -3.52662 0
M  V30 778 H 78.0623 2.33431 -2.28424 0
M  V30 779 H 76.7213 0.660782 -3.60596 0
M  V30 780 H 76.3693 3.11265 -3.95124 0
M  V30 781 H 76.0693 2.19718 -5.44975 0
M  V30 782 H 77.5933 3.10908 -5.25517 0
M  V30 783 H 79.0073 0.875072 -5.66582 0
M  V30 784 H 77.4043 0.157428 -5.99893 0
M  V30 785 H 78.4743 -0.60822 -4.8107 0
M  V30 786 N 79.8174 1.5752 -0.0501392 0
M  V30 787 C 81.0664 1.91827 0.623328 0
M  V30 788 C 81.3794 0.930222 1.72065 0
M  V30 789 O 82.5854 1.1653 2.4522 0
M  V30 790 C 81.0414 3.40692 1.16003 0
M  V30 791 C 80.6494 4.479 0.0948811 0
M  V30 792 C 82.3934 3.84034 1.80881 0
M  V30 793 C 80.3004 5.87879 0.644411 0
M  V30 794 H 79.2304 0.715918 0.236596 0
M  V30 795 H 81.8814 1.83115 -0.118861 0
M  V30 796 H 80.2634 3.44405 1.9545 0
M  V30 797 H 81.4374 4.55775 -0.678675 0
M  V30 798 H 79.7524 4.13892 -0.45637 0
M  V30 799 H 82.3494 4.85984 2.22988 0
M  V30 800 H 82.6924 3.20225 2.6601 0
M  V30 801 H 83.2254 3.82833 1.0809 0
M  V30 802 H 79.9644 6.55282 -0.169229 0
M  V30 803 H 79.4844 5.83567 1.38598 0
M  V30 804 H 81.1634 6.37098 1.12763 0
M  V30 805 N 81.2955 -0.223234 1.56011 0
M  V30 806 C 82.5415 -0.949279 1.79211 0
M  V30 807 C 82.8745 -1.84054 0.619494 0
M  V30 808 O 82.1495 -1.90726 -0.381317 0
M  V30 809 C 82.4325 -1.78965 3.12479 0
M  V30 810 C 82.2855 -0.924997 4.40186 0
M  V30 811 C 83.6045 -2.76774 3.42175 0
M  V30 812 H 80.7235 -0.343676 0.651963 0
M  V30 813 H 83.3655 -0.218253 1.88742 0
M  V30 814 H 81.5155 -2.41291 3.04485 0
M  V30 815 H 83.1875 -0.318615 4.60198 0
M  V30 816 H 81.4305 -0.230344 4.33188 0
M  V30 817 H 82.1015 -1.54735 5.29869 0
M  V30 818 H 84.5775 -2.24584 3.50287 0
M  V30 819 H 83.4535 -3.32678 4.36597 0
M  V30 820 H 83.7145 -3.54429 2.64258 0
M  V30 821 N 82.7736 -1.49793 -0.48987 0
M  V30 822 C 83.9986 -1.63836 -1.27172 0
M  V30 823 C 84.4236 -0.31402 -1.8546 0
M  V30 824 O 83.7816 0.719803 -1.66399 0
M  V30 825 C 83.8296 -2.71797 -2.36978 0
M  V30 826 O 82.9336 -2.31744 -3.41128 0
M  V30 827 H 82.2746 -0.547997 -0.37496 0
M  V30 828 H 84.8046 -1.96053 -0.585191 0
M  V30 829 H 84.8146 -2.94305 -2.82575 0
M  V30 830 H 83.4896 -3.67923 -1.93921 0
M  V30 831 H 82.0666 -2.1961 -3.01373 0
M  V30 832 N 84.2517 0.741722 -1.39055 0
M  V30 833 C 85.2147 1.83733 -1.37021 0
M  V30 834 C 86.2147 1.58542 -0.268534 0
M  V30 835 O 87.4047 1.66067 -0.526076 0
M  V30 836 C 84.5367 3.2141 -1.13617 0
M  V30 837 H 85.7297 1.86941 -2.34506 0
M  V30 838 H 83.2827 0.944676 -1.24521 0
M  V30 839 H 84.0177 3.23865 -0.167863 0
M  V30 840 H 83.8027 3.4109 -1.93391 0
M  V30 841 H 85.2927 4.01477 -1.14918 0
M  V30 842 N 85.7298 1.2412 0.971189 0
M  V30 843 C 86.6798 0.997551 2.05019 0
M  V30 844 C 87.6638 -0.0597747 1.60789 0
M  V30 845 O 88.8558 0.153516 1.76333 0
M  V30 846 C 85.9848 0.600557 3.38006 0
M  V30 847 C 85.0708 1.69377 3.88809 0
M  V30 848 N 85.4618 2.92586 4.12586 0
M  V30 849 C 83.7598 1.57048 4.17435 0
M  V30 850 C 84.4608 3.63431 4.54195 0
M  V30 851 N 83.4368 2.90979 4.59165 0
M  V30 852 H 87.2388 1.93316 2.21374 0
M  V30 853 H 84.7528 1.14194 1.1547 0
M  V30 854 H 86.7498 0.40725 4.14906 0
M  V30 855 H 85.4098 -0.327903 3.2304 0
M  V30 856 H 86.4208 3.288 4.00139 0
M  V30 857 H 83.0978 0.709798 4.11422 0
M  V30 858 H 84.4878 4.69102 4.81033 0
M  V30 859 N 87.2079 -1.17134 1.05439 0
M  V30 860 C 88.6239 -1.39454 0.776201 0
M  V30 861 C 88.8239 -1.91454 -0.628307 0
M  V30 862 O 87.8799 -2.10777 -1.39031 0
M  V30 863 C 89.1929 -2.38305 1.83388 0
M  V30 864 C 90.7409 -2.52006 1.85639 0
M  V30 865 C 91.2159 -3.54133 2.90437 0
M  V30 866 N 92.7069 -3.61653 2.89415 0
M  V30 867 C 93.4419 -4.4044 3.67152 0
M  V30 868 N 92.9379 -5.22721 4.54681 0
M  V30 869 N 94.7309 -4.35337 3.55581 0
M  V30 870 H 86.8819 -0.817134 1.96053 0
M  V30 871 H 89.1449 -0.421626 0.849079 0
M  V30 872 H 88.8509 -2.07173 2.84204 0
M  V30 873 H 88.7249 -3.37841 1.67761 0
M  V30 874 H 91.1119 -2.82447 0.85486 0
M  V30 875 H 91.1929 -1.52537 2.05344 0
M  V30 876 H 90.8369 -3.24431 3.90777 0
M  V30 877 H 90.7669 -4.53313 2.67983 0
M  V30 878 H 93.2579 -3.02909 2.25952 0
M  V30 879 H 93.5709 -5.80027 5.10674 0
M  V30 880 H 91.9159 -5.22093 4.58741 0
M  V30 881 H 95.1069 -3.70112 2.86592 0
M  V30 882 H 95.2799 -4.96494 4.1641 0
M  V30 883 N 88.686 -0.835752 -1.33615 0
M  V30 884 C 89.914 -0.443344 -2.02094 0
M  V30 885 C 90.329 0.954522 -1.62894 0
M  V30 886 O 89.686 1.61982 -0.840723 0
M  V30 887 C 89.737 -0.550775 -3.5728 0
M  V30 888 O 89.458 -1.89356 -3.95065 0
M  V30 889 C 90.959 -0.154919 -4.43029 0
M  V30 890 H 88.179 -0.176359 -0.647409 0
M  V30 891 H 90.723 -1.12746 -1.70612 0
M  V30 892 H 88.878 0.0853997 -3.87306 0
M  V30 893 H 89.292 -1.87687 -4.89769 0
M  V30 894 H 90.766 -0.281144 -5.51284 0
M  V30 895 H 91.243 0.902863 -4.2982 0
M  V30 896 H 91.849 -0.765404 -4.18356 0
M  V30 897 N 90.1641 1.46063 -0.591896 0
M  V30 898 C 91.5751 1.85944 -0.167822 0
M  V30 899 C 91.9261 1.49429 1.27143 0
M  V30 900 O 91.0511 0.913515 1.96173 0
M  V30 901 C 91.6461 3.37489 -0.297794 0
M  V30 902 C 90.2051 3.76332 0.0714732 0
M  V30 903 C 89.3521 2.7006 -0.629509 0
M  V30 904 H 92.3031 1.37087 -0.799555 0
M  V30 905 H 92.3241 3.77532 0.474349 0
M  V30 906 H 91.8361 3.64034 -1.3454 0
M  V30 907 H 89.9371 3.55405 1.11886 0
M  V30 908 H 90.0501 4.78088 -0.311245 0
M  V30 909 H 88.4141 2.54607 -0.0687867 0
M  V30 910 H 89.1971 2.99444 -1.67894 0
M  V30 911 N 91.6422 0.330177 1.54103 0
M  V30 912 C 92.9192 -0.325007 1.92881 0
M  V30 913 C 93.2992 -1.6934 1.26045 0
M  V30 914 O 92.6472 -2.24855 0.406526 0
M  V30 915 C 92.8572 -0.410634 3.46576 0
M  V30 916 C 94.2052 -0.667801 4.19316 0
M  V30 917 O 95.2292 -0.49329 3.52768 0
M  V30 918 O 94.0882 -1.00491 5.37181 0
M  V30 919 H 91.1822 -0.186873 0.80561 0
M  V30 920 H 93.7282 0.380376 1.65382 0
M  V30 921 H 92.5002 0.550164 3.87413 0
M  V30 922 H 92.1232 -1.16333 3.802 0
M  V30 923 N 93.1203 -1.57491 0.0584922 0
M  V30 924 C 94.5363 -1.56792 -0.298091 0
M  V30 925 C 94.7363 -1.06679 -1.70944 0
M  V30 926 O 93.7923 -0.726672 -2.41818 0
M  V30 927 C 95.1053 -3.00461 -0.119879 0
M  V30 928 C 96.6533 -3.1242 -0.190428 0
M  V30 929 C 97.1283 -4.57982 -0.0406567 0
M  V30 930 N 98.6193 -4.63099 -0.0966958 0
M  V30 931 C 99.3543 -5.734 -0.00502943 0
M  V30 932 N 98.8503 -6.9266 0.139402 0
M  V30 933 N 100.643 -5.62067 -0.0611391 0
M  V30 934 H 92.7943 -1.88386 0.98105 0
M  V30 935 H 95.0573 -0.867865 0.381463 0
M  V30 936 H 94.7633 -3.41187 0.85349 0
M  V30 937 H 94.6373 -3.66843 -0.877833 0
M  V30 938 H 97.0243 -2.71589 -1.15427 0
M  V30 939 H 97.1053 -2.48702 0.598405 0
M  V30 940 H 96.7493 -4.995 0.919897 0
M  V30 941 H 96.6793 -5.19715 -0.848727 0
M  V30 942 H 99.1703 -3.77331 -0.207277 0
M  V30 943 H 99.4833 -7.72536 0.201855 0
M  V30 944 H 97.8283 -6.94781 0.174586 0
M  V30 945 H 101.019 -4.67782 -0.172583 0
M  V30 946 H 101.192 -6.47999 0.0137562 0
M  V30 947 N 94.5984 0.214957 -1.56127 0
M  V30 948 C 95.5284 1.2695 -1.95974 0
M  V30 949 C 96.5094 1.48539 -0.828868 0
M  V30 950 O 97.6944 1.60611 -1.09168 0
M  V30 951 C 94.8244 2.61794 -2.28214 0
M  V30 952 C 93.7784 2.54851 -3.43853 0
M  V30 953 C 93.1044 3.93785 -3.61715 0
M  V30 954 C 94.4044 2.09065 -4.78632 0
M  V30 955 H 96.0984 0.93846 -2.84312 0
M  V30 956 H 93.6444 0.449996 -1.36788 0
M  V30 957 H 95.5974 3.35731 -2.54682 0
M  V30 958 H 94.3214 2.96599 -1.36736 0
M  V30 959 H 92.9804 1.8337 -3.17444 0
M  V30 960 H 92.6284 4.25908 -2.67602 0
M  V30 961 H 92.3284 3.90019 -4.39498 0
M  V30 962 H 93.8524 4.69374 -3.90539 0
M  V30 963 H 95.2664 2.7275 -5.04262 0
M  V30 964 H 93.6634 2.16346 -5.59745 0
M  V30 965 H 94.7334 1.04315 -4.73547 0
M  V30 966 N 96.0765 1.50051 0.48192 0
M  V30 967 C 97.0395 1.67584 1.5636 0
M  V30 968 C 98.0395 0.546894 1.51214 0
M  V30 969 O 99.2295 0.813725 1.54026 0
M  V30 970 C 96.3615 1.691 2.96003 0
M  V30 971 H 97.5545 2.64078 1.42136 0
M  V30 972 H 95.1075 1.39369 0.707533 0
M  V30 973 H 95.8425 0.742589 3.15684 0
M  V30 974 H 95.6275 2.51105 3.01146 0
M  V30 975 H 97.1175 1.84656 3.74556 0
M  V30 976 N 97.5546 -0.734337 1.39446 0
M  V30 977 C 98.8316 -1.48579 1.27215 0
M  V30 978 C 99.2116 -2.1077 -0.117968 0
M  V30 979 O 98.5596 -1.98646 -1.12924 0
M  V30 980 C 98.7696 -2.53667 2.39696 0
M  V30 981 C 100.118 -3.20031 2.79044 0
M  V30 982 O 101.142 -2.6398 2.39151 0
M  V30 983 O 100.001 -4.21455 3.47905 0
M  V30 984 H 97.0946 -0.659816 0.49857 0
M  V30 985 H 99.6406 -0.768106 1.51322 0
M  V30 986 H 98.4126 -2.06096 3.32626 0
M  V30 987 H 98.0356 -3.32994 2.17258 0
M  V30 988 N 99.0327 -1.24633 -0.964593 0
M  V30 989 C 100.263 -1.11339 -1.74032 0
M  V30 990 C 100.671 0.336593 -1.86182 0
M  V30 991 O 100.014 1.24389 -1.35178 0
M  V30 992 C 100.076 -1.68284 -3.1768 0
M  V30 993 C 99.7397 -3.17196 -3.28992 0
M  V30 994 C 100.737 -4.14308 -3.14078 0
M  V30 995 C 98.4217 -3.57215 -3.53133 0
M  V30 996 C 100.416 -5.4942 -3.23135 0
M  V30 997 C 98.1027 -4.92468 -3.61827 0
M  V30 998 C 99.1007 -5.8838 -3.46841 0
M  V30 999 O 98.7887 -7.21173 -3.55197 0
M  V30 1000 H 98.5207 -0.389551 -0.552472 0
M  V30 1001 H 101.075 -1.65282 -1.21946 0
M  V30 1002 H 99.3047 -1.08777 -3.71085 0
M  V30 1003 H 100.994 -1.50234 -3.77074 0
M  V30 1004 H 101.76 -3.84731 -2.95308 0
M  V30 1005 H 97.6387 -2.83063 -3.63863 0
M  V30 1006 H 101.183 -6.24263 -3.11355 0
M  V30 1007 H 97.0797 -5.21714 -3.80111 0
M  V30 1008 H 97.8477 -7.29135 -3.71892 0
M  V30 1009 N 100.511 1.16574 -1.06058 0
M  V30 1010 C 101.474 2.19085 -0.673392 0
M  V30 1011 C 102.474 1.5835 0.279648 0
M  V30 1012 O 103.664 1.74088 0.0623488 0
M  V30 1013 C 100.796 3.40899 0.00954234 0
M  V30 1014 H 101.989 2.54853 -1.58081 0
M  V30 1015 H 99.5418 1.30808 -0.855516 0
M  V30 1016 H 100.277 3.10684 0.929826 0
M  V30 1017 H 100.062 3.86233 -0.67573 0
M  V30 1018 H 101.552 4.1675 0.266245 0
M  V30 1019 N 101.989 0.842826 1.3317 0
M  V30 1020 C 103.405 0.531128 1.50503 0
M  V30 1021 C 103.605 -0.940734 1.78192 0
M  V30 1022 O 102.661 -1.72436 1.84451 0
M  V30 1023 C 103.974 1.40789 2.65705 0
M  V30 1024 C 105.522 1.40708 2.79589 0
M  V30 1025 C 105.997 2.26878 3.97857 0
M  V30 1026 N 107.488 2.24609 4.05099 0
M  V30 1027 C 108.223 2.88019 4.95815 0
M  V30 1028 N 107.719 3.60496 5.9162 0
M  V30 1029 N 109.512 2.77469 4.88843 0
M  V30 1030 H 101.663 1.79557 1.1346 0
M  V30 1031 H 103.926 0.766267 0.558156 0
M  V30 1032 H 103.632 2.454 2.51936 0
M  V30 1033 H 103.506 1.08677 3.61205 0
M  V30 1034 H 105.893 0.368668 2.92788 0
M  V30 1035 H 105.974 1.76829 1.84838 0
M  V30 1036 H 105.618 3.3078 3.85418 0
M  V30 1037 H 105.548 1.88096 4.91861 0
M  V30 1038 H 108.039 1.71906 3.36536 0
M  V30 1039 H 108.352 4.06076 6.57512 0
M  V30 1040 H 106.697 3.64604 5.91683 0
M  V30 1041 H 109.888 2.20406 4.12963 0
M  V30 1042 H 110.061 3.2717 5.59342 0
M  V30 1043 N 103.467 -1.45747 0.599634 0
M  V30 1044 C 104.695 -2.06668 0.0978551 0
M  V30 1045 C 105.11 -1.44562 -1.21439 0
M  V30 1046 O 104.467 -0.556923 -1.73795 0
M  V30 1047 C 104.518 -3.61456 -0.0567044 0
M  V30 1048 O 104.239 -4.21242 1.20361 0
M  V30 1049 C 105.74 -4.39345 -0.590869 0
M  V30 1050 H 102.96 -0.667825 0.0651943 0
M  V30 1051 H 105.504 -1.87115 0.82511 0
M  V30 1052 H 103.659 -3.80378 -0.734251 0
M  V30 1053 H 104.073 -5.14323 1.02821 0
M  V30 1054 H 105.547 -5.48182 -0.648131 0
M  V30 1055 H 106.024 -4.08568 -1.61147 0
M  V30 1056 H 106.63 -4.25268 0.0523679 0
M  V30 1057 N 104.945 -0.338344 -1.53925 0
M  V30 1058 C 105.908 0.508299 -2.23493 0
M  V30 1059 C 106.908 1.03175 -1.23335 0
M  V30 1060 O 108.098 0.921826 -1.47811 0
M  V30 1061 C 105.23 1.70754 -2.95052 0
M  V30 1062 H 106.423 -0.100058 -2.99733 0
M  V30 1063 H 103.976 -0.0896198 -1.56043 0
M  V30 1064 H 104.711 2.35474 -2.22986 0
M  V30 1065 H 104.496 1.33946 -3.68512 0
M  V30 1066 H 105.986 2.30818 -3.48013 0
M  V30 1067 N 106.423 1.57458 -0.0668435 0
M  V30 1068 C 107.386 2.11323 0.887422 0
M  V30 1069 C 108.386 1.03618 1.22964 0
M  V30 1070 O 109.576 1.29626 1.16373 0
M  V30 1071 C 106.708 2.61048 2.19242 0
M  V30 1072 H 107.901 2.96942 0.420194 0
M  V30 1073 H 105.454 1.55239 0.181793 0
M  V30 1074 H 106.189 1.78868 2.70512 0
M  V30 1075 H 105.974 3.39769 1.95702 0
M  V30 1076 H 107.464 3.02814 2.87565 0
M  V30 1077 N 107.901 -0.206675 1.56239 0
M  V30 1078 C 108.811 -1.27686 1.96808 0
M  V30 1079 C 109.827 -1.50455 0.874035 0
M  V30 1080 O 111.003 -1.63295 1.17884 0
M  V30 1081 C 108.068 -2.60358 2.28942 0
M  V30 1082 C 107.129 -2.45762 3.51994 0
M  V30 1083 C 106.362 -3.72108 3.82585 0
M  V30 1084 O 106.585 -4.75776 3.14631 0
M  V30 1085 O 105.519 -3.6833 4.76043 0
M  V30 1086 H 109.345 -0.962593 2.88041 0
M  V30 1087 H 106.93 -0.410746 1.43643 0
M  V30 1088 H 108.812 -3.38687 2.50737 0
M  V30 1089 H 107.487 -2.91435 1.4088 0
M  V30 1090 H 106.394 -1.65584 3.35459 0
M  V30 1091 H 107.727 -2.19621 4.40486 0
M  V30 1092 N 109.379 -1.50304 -0.473955 0
M  V30 1093 C 110.795 -1.37667 -0.807466 0
M  V30 1094 C 110.995 -0.430555 -1.96846 0
M  V30 1095 O 110.051 0.127874 -2.52176 0
M  V30 1096 C 111.364 -2.78974 -1.12223 0
M  V30 1097 C 112.912 -2.87868 -1.22885 0
M  V30 1098 C 113.387 -4.30003 -1.57676 0
M  V30 1099 N 114.878 -4.3294 -1.64673 0
M  V30 1100 C 115.613 -5.3991 -1.93091 0
M  V30 1101 N 115.109 -6.57092 -2.1955 0
M  V30 1102 N 116.902 -5.27351 -1.94569 0
M  V30 1103 H 109.053 -2.10394 0.291212 0
M  V30 1104 H 111.316 -0.945575 0.0677609 0
M  V30 1105 H 111.022 -3.50031 -0.342229 0
M  V30 1106 H 110.896 -3.16038 -2.05913 0
M  V30 1107 H 113.283 -2.17032 -1.99953 0
M  V30 1108 H 113.364 -2.54352 -0.271814 0
M  V30 1109 H 113.008 -5.01375 -0.81149 0
M  V30 1110 H 112.938 -4.61004 -2.54525 0
M  V30 1111 H 115.429 -3.48441 -1.46277 0
M  V30 1112 H 115.742 -7.34425 -2.405 0
M  V30 1113 H 114.087 -6.60272 -2.16948 0
M  V30 1114 H 117.278 -4.34801 -1.73394 0
M  V30 1115 H 117.451 -6.10805 -2.16381 0
M  V30 1116 N 110.857 0.726932 -1.39834 0
M  V30 1117 C 112.105 1.4837 -1.37225 0
M  V30 1118 C 112.426 1.94979 0.0284857 0
M  V30 1119 O 111.696 1.69555 0.981213 0
M  V30 1120 H 110.276 0.55043 -0.505011 0
M  V30 1121 H 112.938 0.862468 -1.74778 0
M  V30 1122 H 112.034 2.36198 -2.04003 0
M  V30 1123 N 112.336 1.25143 0.95797 0
M  V30 1124 C 113.266 1.07711 2.07173 0
M  V30 1125 C 114.247 -0.0128462 1.70095 0
M  V30 1126 O 115.432 0.156061 1.93572 0
M  V30 1127 C 112.562 0.691503 3.40346 0
M  V30 1128 C 111.516 1.73132 3.9142 0
M  V30 1129 C 110.842 1.20049 5.21049 0
M  V30 1130 C 112.142 3.1294 4.1817 0
M  V30 1131 H 113.836 2.00873 2.22014 0
M  V30 1132 H 111.382 0.967191 1.06684 0
M  V30 1133 H 113.335 0.556505 4.17709 0
M  V30 1134 H 112.059 -0.275819 3.25433 0
M  V30 1135 H 110.718 1.8547 3.16222 0
M  V30 1136 H 110.366 0.223499 5.02503 0
M  V30 1137 H 110.066 1.89545 5.56189 0
M  V30 1138 H 111.59 1.07782 6.01012 0
M  V30 1139 H 113.004 3.03775 4.86203 0
M  V30 1140 H 111.401 3.79875 4.64559 0
M  V30 1141 H 112.471 3.6025 3.24573 0
M  V30 1142 N 113.814 -1.1601 1.06675 0
M  V30 1143 C 114.762 -2.22586 0.675157 0
M  V30 1144 C 115.756 -1.66525 -0.310766 0
M  V30 1145 O 116.962 -1.79145 -0.175215 0
M  V30 1146 H 113.337 -0.724855 0.200223 0
M  V30 1147 H 115.308 -2.52899 1.58381 0
M  V30 1148 C 114.057 -3.47604 0.0817162 0
M  V30 1149 H 113.38 -3.91058 0.831484 0
M  V30 1150 H 114.82 -4.23718 -0.154708 0
M  V30 1151 C 113.279 -3.15718 -1.17576 0
M  V30 1152 O 113.809 -3.31878 -2.26318 0
M  V30 1153 N 112.015 -2.69816 -1.07923 0
M  V30 1154 H 111.562 -2.56866 -0.194293 0
M  V30 1155 H 111.52 -2.48855 -1.92141 0
M  V30 1156 N 115.292 -0.849877 -1.32721 0
M  V30 1157 C 116.538 -0.451591 -1.97708 0
M  V30 1158 C 116.871 0.989175 -1.6712 0
M  V30 1159 O 116.146 1.69334 -0.956891 0
M  V30 1160 C 116.429 -0.685598 -3.53513 0
M  V30 1161 C 116.282 -2.17444 -3.93749 0
M  V30 1162 C 117.601 -0.138874 -4.39881 0
M  V30 1163 H 114.72 -0.16555 -0.718166 0
M  V30 1164 H 117.362 -1.06742 -1.57182 0
M  V30 1165 H 115.512 -0.161416 -3.88165 0
M  V30 1166 H 117.184 -2.76433 -3.693 0
M  V30 1167 H 115.427 -2.65476 -3.43081 0
M  V30 1168 H 116.098 -2.28888 -5.02309 0
M  V30 1169 H 118.574 -0.587068 -4.11938 0
M  V30 1170 H 117.45 -0.332213 -5.47894 0
M  V30 1171 H 117.711 0.95806 -4.31594 0
M  V30 1172 N 116.77 1.45427 -0.607355 0
M  V30 1173 C 118.019 2.01452 -0.100036 0
M  V30 1174 C 118.332 1.48159 1.27704 0
M  V30 1175 O 119.538 1.96159 1.87707 0
M  V30 1176 C 117.994 3.59672 -0.128158 0
M  V30 1177 C 117.602 4.21962 -1.50507 0
M  V30 1178 C 119.346 4.23262 0.323932 0
M  V30 1179 C 117.253 5.72333 -1.48959 0
M  V30 1180 H 116.183 0.75325 -0.0336299 0
M  V30 1181 H 118.834 1.66901 -0.76265 0
M  V30 1182 H 117.216 3.91411 0.601105 0
M  V30 1183 H 118.39 4.01796 -2.25602 0
M  V30 1184 H 116.705 3.70565 -1.89923 0
M  V30 1185 H 119.302 5.33522 0.354691 0
M  V30 1186 H 119.645 3.93921 1.34656 0
M  V30 1187 H 120.178 3.96239 -0.352056 0
M  V30 1188 H 116.917 6.06373 -2.48981 0
M  V30 1189 H 116.437 5.94691 -0.781214 0
M  V30 1190 H 118.116 6.35525 -1.21313 0
M  V30 1191 N 118.248 0.346503 1.53744 0
M  V30 1192 C 119.497 -0.250122 2.00143 0
M  V30 1193 C 119.81 -1.51418 1.23822 0
M  V30 1194 O 121.016 -2.18823 1.60713 0
M  V30 1195 C 119.472 -0.496252 3.56462 0
M  V30 1196 C 119.08 0.752077 4.41642 0
M  V30 1197 C 120.824 -1.05157 4.11269 0
M  V30 1198 C 118.731 0.476583 5.89477 0
M  V30 1199 H 117.661 -0.0972409 0.747703 0
M  V30 1200 H 120.312 0.46229 1.77581 0
M  V30 1201 H 118.694 -1.26944 3.75102 0
M  V30 1202 H 119.868 1.5266 4.34778 0
M  V30 1203 H 118.183 1.22925 3.97842 0
M  V30 1204 H 120.78 -1.27269 5.19333 0
M  V30 1205 H 121.123 -2.00799 3.64672 0
M  V30 1206 H 121.656 -0.339019 3.96353 0
M  V30 1207 H 118.395 1.4028 6.40314 0
M  V30 1208 H 117.915 -0.259794 5.99237 0
M  V30 1209 H 119.594 0.0949315 6.4693 0
M  V30 1210 N 119.726 -1.57421 0.075193 0
M  V30 1211 C 120.689 -2.11791 -0.876203 0
M  V30 1212 C 121.689 -1.04268 -1.22412 0
M  V30 1213 O 122.879 -1.30242 -1.15684 0
M  V30 1214 C 120.011 -2.62207 -2.17854 0
M  V30 1215 H 121.204 -2.9716 -0.40444 0
M  V30 1216 H 118.757 -1.55333 -0.173557 0
M  V30 1217 H 119.492 -1.803 -2.6956 0
M  V30 1218 H 119.277 -3.40802 -1.93897 0
M  V30 1219 H 120.767 -3.04335 -2.85955 0
M  V30 1220 N 121.204 0.198386 -1.56346 0
M  V30 1221 C 122.452 0.91747 -1.80075 0
M  V30 1222 C 122.773 1.83929 -0.647692 0
M  V30 1223 O 122.043 1.93029 0.334166 0
M  V30 1224 H 120.623 0.341774 -0.664228 0
M  V30 1225 H 123.285 0.204684 -1.93822 0
M  V30 1226 H 122.381 1.51055 -2.7311 0
M  V30 1227 N 122.682 1.50554 0.465978 0
M  V30 1228 C 123.645 1.69233 1.54574 0
M  V30 1229 C 124.645 0.562901 1.50626 0
M  V30 1230 O 125.835 0.830016 1.53155 0
M  V30 1231 C 122.967 1.7223 2.94193 0
M  V30 1232 H 124.16 2.65571 1.39327 0
M  V30 1233 H 121.713 1.40111 0.692711 0
M  V30 1234 H 122.448 0.77603 3.14878 0
M  V30 1235 H 122.233 2.54285 2.98466 0
M  V30 1236 H 123.723 1.88618 3.72576 0
M  V30 1237 N 124.16 -0.719506 1.40217 0
M  V30 1238 C 125.408 -1.47641 1.3801 0
M  V30 1239 C 125.729 -1.94992 -0.018145 0
M  V30 1240 O 124.999 -1.70073 -0.972207 0
M  V30 1241 H 123.579 -0.547744 0.507923 0
M  V30 1242 H 126.241 -0.853187 1.75233 0
M  V30 1243 H 125.337 -2.35112 2.05253 0
M  V30 1244 N 125.638 -1.25649 -0.95132 0
M  V30 1245 C 126.886 -1.10375 -1.69298 0
M  V30 1246 C 127.207 0.355339 -1.91735 0
M  V30 1247 O 126.477 1.25188 -1.50681 0
M  V30 1248 H 125.057 -0.405461 -0.627384 0
M  V30 1249 H 127.719 -1.57823 -1.14358 0
M  V30 1250 H 126.815 -1.61465 -2.67087 0
M  V30 1251 N 127.117 1.15442 -1.07289 0
M  V30 1252 C 128.08 2.18358 -0.696591 0
M  V30 1253 C 129.08 1.58637 0.262837 0
M  V30 1254 O 130.27 1.74145 0.0438809 0
M  V30 1255 C 127.402 3.4089 -0.0266151 0
M  V30 1256 H 128.595 2.53162 -1.60776 0
M  V30 1257 H 126.148 1.29893 -0.869342 0
M  V30 1258 H 126.883 3.11653 0.896822 0
M  V30 1259 H 126.668 3.85495 -0.716657 0
M  V30 1260 H 128.158 4.17009 0.222028 0
M  V30 1261 N 128.595 0.856903 1.32268 0
M  V30 1262 C 129.558 0.308171 2.27119 0
M  V30 1263 C 130.558 -0.533421 1.51695 0
M  V30 1264 O 131.748 -0.344607 1.70757 0
M  V30 1265 C 128.88 -0.563757 3.36206 0
M  V30 1266 H 130.073 1.14535 2.77167 0
M  V30 1267 H 127.626 0.631421 1.42978 0
M  V30 1268 H 128.361 -1.42266 2.91429 0
M  V30 1269 H 128.146 0.0386749 3.92081 0
M  V30 1270 H 129.636 -0.940386 4.06874 0
M  V30 1271 N 130.073 -1.45103 0.615059 0
M  V30 1272 C 131.023 -2.27679 -0.120966 0
M  V30 1273 C 132.007 -1.3775 -0.831491 0
M  V30 1274 O 133.199 -1.61683 -0.720249 0
M  V30 1275 C 130.328 -3.24767 -1.1127 0
M  V30 1276 C 129.414 -4.22184 -0.402627 0
M  V30 1277 N 129.805 -5.02692 0.559884 0
M  V30 1278 C 128.103 -4.4125 -0.649202 0
M  V30 1279 C 128.804 -5.73421 0.977942 0
M  V30 1280 N 127.78 -5.42657 0.320104 0
M  V30 1281 H 131.582 -2.87325 0.618181 0
M  V30 1282 H 129.096 -1.56345 0.439304 0
M  V30 1283 H 131.093 -3.82666 -1.65446 0
M  V30 1284 H 129.753 -2.66682 -1.85232 0
M  V30 1285 H 130.764 -5.09354 0.936976 0
M  V30 1286 H 127.441 -3.9428 -1.37293 0
M  V30 1287 H 128.831 -6.48107 1.77222 0
M  V30 1288 N 131.551 -0.354651 -1.53558 0
M  V30 1289 C 132.481 0.489091 -2.2832 0
M  V30 1290 C 133.462 1.09324 -1.30316 0
M  V30 1291 O 134.647 1.11255 -1.59173 0
M  V30 1292 C 131.777 1.63456 -3.0643 0
M  V30 1293 C 130.731 1.1582 -4.12031 0
M  V30 1294 C 130.057 2.39305 -4.7816 0
M  V30 1295 C 131.357 0.250731 -5.21698 0
M  V30 1296 H 133.051 -0.134614 -2.99097 0
M  V30 1297 H 130.597 -0.0661826 -1.43848 0
M  V30 1298 H 132.55 2.23136 -3.57475 0
M  V30 1299 H 131.274 2.28533 -2.33325 0
M  V30 1300 H 129.933 0.584146 -3.61916 0
M  V30 1301 H 129.581 3.02814 -4.01637 0
M  V30 1302 H 129.281 2.08109 -5.49513 0
M  V30 1303 H 130.805 2.99691 -5.31994 0
M  V30 1304 H 132.219 0.754695 -5.68311 0
M  V30 1305 H 130.616 0.0301468 -6.00092 0
M  V30 1306 H 131.686 -0.710125 -4.79672 0
M  V30 1307 N 133.029 1.57378 -0.0835403 0
M  V30 1308 C 134.44 1.81261 0.447358 0
M  V30 1309 C 134.791 0.998331 1.68902 0
M  V30 1310 O 133.916 0.224282 2.15235 0
M  V30 1311 C 134.511 3.28767 0.818386 0
M  V30 1312 C 133.07 3.53455 1.29409 0
M  V30 1313 C 132.217 2.75831 0.285024 0
M  V30 1314 H 135.168 1.5566 -0.309115 0
M  V30 1315 H 135.189 3.41459 1.67887 0
M  V30 1316 H 134.701 3.88006 -0.0855019 0
M  V30 1317 H 132.802 2.99534 2.21608 0
M  V30 1318 H 132.915 4.62128 1.2639 0
M  V30 1319 H 131.279 2.42947 0.764767 0
M  V30 1320 H 132.062 3.37813 -0.611341 0
M  V30 1321 N 134.507 -0.190092 1.56449 0
M  V30 1322 C 135.755 -0.907908 1.80559 0
M  V30 1323 C 136.076 -1.83583 0.657438 0
M  V30 1324 O 135.346 -1.93203 -0.323924 0
M  V30 1325 H 133.926 -0.338247 0.666032 0
M  V30 1326 H 136.588 -0.194403 1.93928 0
M  V30 1327 H 135.684 -1.49604 2.73907 0
M  V30 1328 N 135.985 -1.50799 -0.457987 0
M  V30 1329 C 136.918 -1.65273 -1.57353 0
M  V30 1330 C 137.896 -0.500578 -1.54703 0
M  V30 1331 O 139.08 -0.721781 -1.74134 0
M  V30 1332 C 136.207 -1.64737 -2.95938 0
M  V30 1333 C 135.253 -2.8567 -3.16693 0
M  V30 1334 S 136.086 -4.46791 -2.95191 0
M  V30 1335 C 137.242 -4.48968 -4.36095 0
M  V30 1336 H 137.475 -2.59633 -1.44838 0
M  V30 1337 H 135.008 -1.40225 -0.64625 0
M  V30 1338 H 136.966 -1.65112 -3.7583 0
M  V30 1339 H 135.627 -0.715899 -3.05833 0
M  V30 1340 H 134.82 -2.81637 -4.17967 0
M  V30 1341 H 134.422 -2.8293 -2.44594 0
M  V30 1342 H 136.714 -4.23337 -5.28954 0
M  V30 1343 H 137.657 -5.50664 -4.45168 0
M  V30 1344 H 138.065 -3.78522 -4.18786 0
M  V30 1345 N 137.463 0.71206 -1.40597 0
M  V30 1346 C 138.703 1.48438 -1.40519 0
M  V30 1347 C 139.067 1.91998 -0.00767611 0
M  V30 1348 O 140.268 2.6854 0.118239 0
M  V30 1349 C 138.539 2.67514 -2.37004 0
M  V30 1350 S 140.098 3.56875 -2.55315 0
M  V30 1351 H 136.916 0.507457 -0.498005 0
M  V30 1352 H 139.518 0.832355 -1.76896 0
M  V30 1353 H 138.222 2.33689 -3.37368 0
M  V30 1354 H 137.753 3.37625 -2.01923 0
M  V30 1355 H 139.768 4.62081 -1.8082 0
M  V30 1356 N 138.941 1.26152 0.944643 0
M  V30 1357 C 139.904 1.07474 2.0244 0
M  V30 1358 C 140.904 0.0242064 1.60782 0
M  V30 1359 O 142.094 0.267302 1.72137 0
M  V30 1360 C 139.226 0.633956 3.34953 0
M  V30 1361 H 140.419 2.03336 2.20442 0
M  V30 1362 H 137.972 1.087 1.12312 0
M  V30 1363 H 138.707 -0.326811 3.22649 0
M  V30 1364 H 138.492 1.39247 3.66542 0
M  V30 1365 H 139.982 0.52501 4.14287 0
M  V30 1366 N 140.419 -1.14872 1.07899 0
M  V30 1367 C 141.382 -2.17986 0.708161 0
M  V30 1368 C 142.382 -1.58775 -0.25442 0
M  V30 1369 O 143.572 -1.74166 -0.034645 0
M  V30 1370 C 140.704 -3.40871 0.0446929 0
M  V30 1371 H 141.897 -2.52306 1.62116 0
M  V30 1372 H 139.45 -1.2943 0.876218 0
M  V30 1373 H 140.185 -3.12124 -0.880281 0
M  V30 1374 H 139.97 -3.8511 0.737091 0
M  V30 1375 H 141.46 -4.17121 -0.19991 0
M  V30 1376 N 141.898 -0.863906 -1.31812 0
M  V30 1377 C 143.144 -0.481841 -1.9761 0
M  V30 1378 C 143.499 0.954048 -1.6708 0
M  V30 1379 O 142.792 1.66182 -0.953624 0
M  V30 1380 C 142.986 -0.668547 -3.51091 0
M  V30 1381 C 142.815 -2.12103 -3.96538 0
M  V30 1382 C 141.585 -2.76141 -4.23171 0
M  V30 1383 C 143.783 -3.09265 -4.10925 0
M  V30 1384 N 141.765 -4.12205 -4.54929 0
M  V30 1385 C 143.136 -4.30341 -4.46326 0
M  V30 1386 C 145.191 -3.05337 -3.93286 0
M  V30 1387 C 143.894 -5.48 -4.65928 0
M  V30 1388 C 145.92 -4.22248 -4.14078 0
M  V30 1389 C 145.282 -5.42085 -4.49804 0
M  V30 1390 H 141.381 -0.225238 -0.74886 0
M  V30 1391 H 143.965 -1.11723 -1.59455 0
M  V30 1392 H 142.136 -0.0627898 -3.88349 0
M  V30 1393 H 143.868 -0.255467 -4.03893 0
M  V30 1394 H 140.623 -2.27125 -4.15585 0
M  V30 1395 H 141.047 -4.82416 -4.74978 0
M  V30 1396 H 145.689 -2.138 -3.64759 0
M  V30 1397 H 143.407 -6.40059 -4.93305 0
M  V30 1398 H 146.993 -4.20654 -4.01922 0
M  V30 1399 H 145.873 -6.31044 -4.65567 0
M  V30 1400 N 143.376 1.44774 -0.622745 0
M  V30 1401 C 144.604 2.06487 -0.130722 0
M  V30 1402 C 145.019 1.46476 1.19123 0
M  V30 1403 O 144.376 0.584502 1.72887 0
M  V30 1404 C 144.427 3.615 -0.000807207 0
M  V30 1405 O 144.148 4.19274 -1.27048 0
M  V30 1406 C 145.649 4.40229 0.520898 0
M  V30 1407 H 142.869 0.666704 -0.0758106 0
M  V30 1408 H 145.413 1.85779 -0.854774 0
M  V30 1409 H 143.568 3.81498 0.673643 0
M  V30 1410 H 143.982 5.12622 -1.1099 0
M  V30 1411 H 145.456 5.49144 0.560838 0
M  V30 1412 H 145.933 4.1108 1.54627 0
M  V30 1413 H 146.539 4.25131 -0.120018 0
M  V30 1414 N 144.854 0.36279 1.53368 0
M  V30 1415 C 146.27 0.0116182 1.59596 0
M  V30 1416 C 146.47 -1.47012 1.37803 0
M  V30 1417 O 145.526 -2.23136 1.18181 0
M  V30 1418 C 146.839 0.465052 2.97082 0
M  V30 1419 C 148.387 0.419033 3.10182 0
M  V30 1420 C 148.862 0.848235 4.50077 0
M  V30 1421 N 150.353 0.803183 4.56183 0
M  V30 1422 C 151.088 1.107 5.62613 0
M  V30 1423 N 150.584 1.47996 6.76808 0
M  V30 1424 N 152.377 1.02998 5.52583 0
M  V30 1425 H 144.528 1.32775 1.65785 0
M  V30 1426 H 146.791 0.542518 0.777417 0
M  V30 1427 H 146.497 1.49892 3.18159 0
M  V30 1428 H 146.371 -0.149786 3.76902 0
M  V30 1429 H 148.758 -0.605696 2.88817 0
M  V30 1430 H 148.839 1.06933 2.32377 0
M  V30 1431 H 148.483 1.87107 4.7218 0
M  V30 1432 H 148.413 0.175218 5.26308 0
M  V30 1433 H 150.904 0.52838 3.74188 0
M  V30 1434 H 151.217 1.69613 7.53957 0
M  V30 1435 H 149.562 1.51859 6.78206 0
M  V30 1436 H 152.753 0.737817 4.62249 0
M  V30 1437 H 152.926 1.2701 6.35431 0
M  V30 1438 N 146.332 -1.57332 0.0918853 0
M  V30 1439 C 147.262 -2.16872 -0.865371 0
M  V30 1440 C 148.243 -1.10118 -1.29646 0
M  V30 1441 O 149.428 -1.38242 -1.36392 0
M  V30 1442 C 146.558 -2.74649 -2.12569 0
M  V30 1443 C 145.512 -3.86747 -1.83333 0
M  V30 1444 C 144.838 -4.31212 -3.16166 0
M  V30 1445 C 146.138 -5.10089 -1.1228 0
M  V30 1446 H 147.832 -2.97114 -0.369307 0
M  V30 1447 H 145.378 -1.42918 -0.176194 0
M  V30 1448 H 147.331 -3.14952 -2.7997 0
M  V30 1449 H 146.055 -1.91657 -2.64452 0
M  V30 1450 H 144.714 -3.46978 -1.18331 0
M  V30 1451 H 144.362 -3.45115 -3.6593 0
M  V30 1452 H 144.062 -5.06788 -2.97388 0
M  V30 1453 H 145.586 -4.74146 -3.84731 0
M  V30 1454 H 147 -5.47582 -1.69785 0
M  V30 1455 H 145.397 -5.91073 -1.03693 0
M  V30 1456 H 146.467 -4.84786 -0.105041 0
M  V30 1457 N 147.81 0.181792 -1.56548 0
M  V30 1458 C 149.221 0.745244 -1.71181 0
M  V30 1459 C 149.572 1.83262 -0.70068 0
M  V30 1460 O 148.697 2.15946 0.140154 0
M  V30 1461 C 149.292 1.35859 -3.10367 0
M  V30 1462 C 147.851 1.86898 -3.2672 0
M  V30 1463 C 146.998 0.743942 -2.67134 0
M  V30 1464 H 149.949 -0.0434661 -1.5864 0
M  V30 1465 H 149.97 2.22817 -3.08436 0
M  V30 1466 H 149.482 0.566948 -3.83937 0
M  V30 1467 H 147.583 2.68738 -2.5809 0
M  V30 1468 H 147.696 2.02162 -4.34359 0
M  V30 1469 H 146.06 1.16169 -2.26665 0
M  V30 1470 H 146.843 -0.035676 -3.43281 0
M  V30 1471 N 149.288 1.51039 0.449983 0
M  V30 1472 C 150.534 1.63322 1.20223 0
M  V30 1473 C 150.867 0.34241 1.91158 0
M  V30 1474 O 150.142 -0.657344 1.83055 0
M  V30 1475 C 150.425 2.82801 2.22925 0
M  V30 1476 C 150.278 4.21823 1.56157 0
M  V30 1477 C 151.597 2.97807 3.24035 0
M  V30 1478 H 148.716 0.594407 0.435718 0
M  V30 1479 H 151.358 1.83489 0.493136 0
M  V30 1480 H 149.508 2.65738 2.834 0
M  V30 1481 H 151.18 4.50526 0.991162 0
M  V30 1482 H 149.423 4.25105 0.864172 0
M  V30 1483 H 150.094 5.01391 2.30891 0
M  V30 1484 H 152.57 3.13497 2.73603 0
M  V30 1485 H 151.446 3.82992 3.93202 0
M  V30 1486 H 151.707 2.09328 3.89402 0
M  V30 1487 N 150.766 -0.704594 1.40972 0
M  V30 1488 C 151.696 -1.83124 1.44872 0
M  V30 1489 C 152.677 -1.67281 0.30838 0
M  V30 1490 O 153.862 -1.87149 0.518556 0
M  V30 1491 C 150.992 -3.21181 1.32136 0
M  V30 1492 C 149.946 -3.51714 2.43888 0
M  V30 1493 C 149.272 -4.89032 2.16222 0
M  V30 1494 C 150.572 -3.516 3.86232 0
M  V30 1495 H 152.266 -1.80117 2.39161 0
M  V30 1496 H 149.812 -0.865145 1.15114 0
M  V30 1497 H 151.765 -3.99702 1.33479 0
M  V30 1498 H 150.489 -3.24791 0.343279 0
M  V30 1499 H 149.148 -2.75539 2.41813 0
M  V30 1500 H 148.796 -4.89256 1.16778 0
M  V30 1501 H 148.496 -5.10426 2.911 0
M  V30 1502 H 150.02 -5.69873 2.19265 0
M  V30 1503 H 151.434 -4.2014 3.9007 0
M  V30 1504 H 149.831 -3.84523 4.60719 0
M  V30 1505 H 150.901 -2.50757 4.15029 0
M  V30 1506 N 152.244 -1.26651 -0.937939 0
M  V30 1507 C 153.492 -1.12165 -1.68118 0
M  V30 1508 C 153.813 0.334983 -1.92101 0
M  V30 1509 O 153.083 1.23583 -1.52 0
M  V30 1510 H 151.663 -0.412093 -0.623048 0
M  V30 1511 H 154.325 -1.59027 -1.12678 0
M  V30 1512 H 153.421 -1.64289 -2.6536 0
M  V30 1513 N 153.722 1.14298 -1.08507 0
M  V30 1514 C 154.968 1.85633 -0.816581 0
M  V30 1515 C 155.301 1.82784 0.656021 0
M  V30 1516 O 154.576 1.25926 1.48233 0
M  V30 1517 C 154.859 3.34223 -1.34041 0
M  V30 1518 C 154.712 3.45639 -2.87843 0
M  V30 1519 C 156.031 4.29356 -0.9665 0
M  V30 1520 H 153.15 0.67402 -0.298104 0
M  V30 1521 H 155.792 1.34214 -1.34487 0
M  V30 1522 H 153.942 3.78144 -0.89104 0
M  V30 1523 H 155.614 3.10498 -3.41158 0
M  V30 1524 H 153.857 2.86817 -3.25451 0
M  V30 1525 H 154.528 4.50089 -3.19569 0
M  V30 1526 H 157.004 3.93457 -1.35391 0
M  V30 1527 H 155.88 5.3178 -1.3602 0
M  V30 1528 H 156.141 4.41919 0.126362 0
M  V30 1529 N 155.201 0.870884 1.31352 0
M  V30 1530 C 156.612 0.534714 1.78879 0
M  V30 1531 C 156.963 -0.948423 1.71754 0
M  V30 1532 O 156.088 -1.74055 1.28584 0
M  V30 1533 C 156.683 0.963839 3.24801 0
M  V30 1534 C 155.242 0.679311 3.70219 0
M  V30 1535 C 154.389 1.15465 2.52117 0
M  V30 1536 H 157.34 1.05651 1.18421 0
M  V30 1537 H 157.361 0.286892 3.79417 0
M  V30 1538 H 156.873 2.04332 3.29955 0
M  V30 1539 H 154.974 -0.388769 3.70566 0
M  V30 1540 H 155.087 1.25698 4.62317 0
M  V30 1541 H 153.451 0.574383 2.48139 0
M  V30 1542 H 154.234 2.24157 2.60016 0
M  V30 1543 N 156.679 -1.44442 0.630414 0
M  V30 1544 C 157.925 -2.02351 0.134816 0
M  V30 1545 C 158.258 -1.4947 -1.23986 0
M  V30 1546 O 157.533 -0.678475 -1.82283 0
M  V30 1547 C 157.816 -3.59898 0.120707 0
M  V30 1548 C 157.669 -4.23063 1.52767 0
M  V30 1549 C 158.988 -4.36585 -0.555127 0
M  V30 1550 H 156.107 -0.73527 0.0504646 0
M  V30 1551 H 158.749 -1.72022 0.806751 0
M  V30 1552 H 156.899 -3.85868 -0.451477 0
M  V30 1553 H 158.571 -4.08202 2.14869 0
M  V30 1554 H 156.814 -3.80586 2.08175 0
M  V30 1555 H 157.485 -5.32071 1.46984 0
M  V30 1556 H 159.961 -4.16044 -0.0685429 0
M  V30 1557 H 158.837 -5.46294 -0.534185 0
M  V30 1558 H 159.098 -4.11138 -1.62535 0
M  V30 1559 N 158.157 -0.370918 -1.53173 0
M  V30 1560 C 159.067 0.480823 -2.2962 0
M  V30 1561 C 160.083 1.08789 -1.35798 0
M  V30 1562 O 161.259 1.09768 -1.68858 0
M  V30 1563 C 158.324 1.60227 -3.07454 0
M  V30 1564 C 157.385 1.0222 -4.16953 0
M  V30 1565 C 156.618 2.0902 -4.91066 0
M  V30 1566 O 156.841 3.30222 -4.65091 0
M  V30 1567 O 155.775 1.71778 -5.76867 0
M  V30 1568 H 159.601 -0.141421 -3.03371 0
M  V30 1569 H 157.186 -0.135146 -1.48787 0
M  V30 1570 H 159.068 2.25417 -3.56041 0
M  V30 1571 H 157.743 2.20982 -2.36535 0
M  V30 1572 H 156.65 0.334064 -3.72605 0
M  V30 1573 H 157.983 0.459131 -4.90054 0
M  V30 1574 N 159.635 1.57281 -0.100228 0
M  V30 1575 C 160.86 1.99302 0.573881 0
M  V30 1576 C 161.285 0.979059 1.60611 0
M  V30 1577 O 160.643 -0.0517803 1.81226 0
M  V30 1578 C 160.691 3.40274 1.19358 0
M  V30 1579 O 159.795 3.41676 2.30935 0
M  V30 1580 H 159.136 0.647944 0.145138 0
M  V30 1581 H 161.666 2.03779 -0.183156 0
M  V30 1582 H 161.676 3.78078 1.53365 0
M  V30 1583 H 160.351 4.13594 0.437385 0
M  V30 1584 H 158.928 3.15672 1.98509 0
M  V30 1585 N 161.113 -0.173488 1.56642 0
M  V30 1586 C 162.529 -0.525174 1.50712 0
M  V30 1587 C 162.729 -1.8476 0.804107 0
M  V30 1588 O 161.785 -2.49869 0.363574 0
M  V30 1589 C 163.098 -0.559937 2.95441 0
M  V30 1590 C 164.646 -0.647288 3.06234 0
M  V30 1591 C 165.121 -0.712963 4.52417 0
M  V30 1592 N 166.612 -0.775911 4.56655 0
M  V30 1593 C 167.347 -0.847264 5.67106 0
M  V30 1594 N 166.843 -0.879585 6.87194 0
M  V30 1595 N 168.636 -0.886117 5.55071 0
M  V30 1596 H 160.787 0.693681 2.00753 0
M  V30 1597 H 163.05 0.249841 0.914485 0
M  V30 1598 H 162.756 0.343049 3.50023 0
M  V30 1599 H 162.63 -1.40718 3.49969 0
M  V30 1600 H 165.017 -1.5407 2.51687 0
M  V30 1601 H 165.098 0.226586 2.54794 0
M  V30 1602 H 164.742 0.176183 5.07594 0
M  V30 1603 H 164.672 -1.60295 5.0161 0
M  V30 1604 H 167.163 -0.759304 3.70193 0
M  V30 1605 H 167.476 -0.935144 7.67121 0
M  V30 1606 H 165.821 -0.847898 6.89808 0
M  V30 1607 H 169.012 -0.857853 4.60172 0
M  V30 1608 H 169.185 -0.938263 6.41171 0
M  V30 1609 N 162.591 -1.51276 -0.441967 0
M  V30 1610 C 163.554 -1.7167 -1.51862 0
M  V30 1611 C 164.554 -0.586793 -1.49711 0
M  V30 1612 O 165.744 -0.854276 -1.51815 0
M  V30 1613 C 162.876 -1.76889 -2.91416 0
M  V30 1614 H 164.069 -2.67754 -1.35084 0
M  V30 1615 H 161.622 -1.41196 -0.670333 0
M  V30 1616 H 162.357 -0.826026 -3.13604 0
M  V30 1617 H 162.142 -2.59001 -2.94382 0
M  V30 1618 H 163.632 -1.94522 -3.69528 0
M  V30 1619 N 164.069 0.697108 -1.41344 0
M  V30 1620 C 164.999 1.82353 -1.45841 0
M  V30 1621 C 165.98 1.67115 -0.317247 0
M  V30 1622 O 167.165 1.86871 -0.528474 0
M  V30 1623 C 164.295 3.20476 -1.33838 0
M  V30 1624 C 163.249 3.50415 -2.4575 0
M  V30 1625 C 162.575 4.87878 -2.18813 0
M  V30 1626 C 163.875 3.49546 -3.88091 0
M  V30 1627 H 165.569 1.78846 -2.40113 0
M  V30 1628 H 163.115 0.859028 -1.15571 0
M  V30 1629 H 165.068 3.98988 -1.35596 0
M  V30 1630 H 163.792 3.24604 -0.360498 0
M  V30 1631 H 162.451 2.74253 -2.43271 0
M  V30 1632 H 162.099 4.8863 -1.19371 0
M  V30 1633 H 161.799 5.08875 -2.93803 0
M  V30 1634 H 163.323 5.68702 -2.22284 0
M  V30 1635 H 164.737 4.18066 -3.92293 0
M  V30 1636 H 163.134 3.82075 -4.62751 0
M  V30 1637 H 164.204 2.48552 -4.16353 0
M  V30 1638 N 165.547 1.27147 0.931209 0
M  V30 1639 C 166.494 1.09568 2.03134 0
M  V30 1640 C 167.464 -0.00222433 1.661 0
M  V30 1641 O 168.649 0.159439 1.90133 0
M  V30 1642 C 165.789 0.745231 3.36957 0
M  V30 1643 C 164.902 1.92041 3.86968 0
M  V30 1644 C 164.037 1.51216 5.09222 0
M  V30 1645 C 163.076 2.65504 5.5152 0
M  V30 1646 N 162.213 2.25291 6.64972 0
M  V30 1647 H 167.053 2.03708 2.17502 0
M  V30 1648 H 164.59 1.01411 1.06556 0
M  V30 1649 H 166.548 0.522878 4.1391 0
M  V30 1650 H 165.178 -0.159202 3.22407 0
M  V30 1651 H 164.23 2.25541 3.06326 0
M  V30 1652 H 165.542 2.77787 4.1429 0
M  V30 1653 H 164.696 1.25084 5.93666 0
M  V30 1654 H 163.435 0.625749 4.83669 0
M  V30 1655 H 162.44 2.92354 4.65628 0
M  V30 1656 H 163.665 3.54761 5.7907 0
M  V30 1657 H 161.611 1.39098 6.41083 0
M  V30 1658 H 161.528 3.04577 6.91931 0
M  V30 1659 H 162.796 2.02398 7.52765 0
M  V30 1660 N 167.025 -1.13721 1.09112 0
M  V30 1661 C 168.273 -1.84559 0.823562 0
M  V30 1662 C 168.594 -1.83754 -0.652658 0
M  V30 1663 O 167.864 -1.29102 -1.47342 0
M  V30 1664 H 166.444 -0.683376 0.301673 0
M  V30 1665 H 169.106 -1.37771 1.37859 0
M  V30 1666 H 168.202 -2.8917 1.17419 0
M  V30 1667 N 168.503 -0.877838 -1.30888 0
M  V30 1668 C 169.436 -0.283995 -2.26426 0
M  V30 1669 C 170.414 0.591361 -1.51465 0
M  V30 1670 O 171.598 0.54304 -1.80509 0
M  V30 1671 C 168.725 0.597129 -3.33395 0
M  V30 1672 C 167.771 -0.207937 -4.25993 0
M  V30 1673 S 168.604 -1.59158 -5.11301 0
M  V30 1674 C 169.76 -0.716791 -6.21782 0
M  V30 1675 H 169.993 -1.09383 -2.76446 0
M  V30 1676 H 167.526 -0.676828 -1.38775 0
M  V30 1677 H 169.484 1.09978 -3.95493 0
M  V30 1678 H 168.145 1.38099 -2.82113 0
M  V30 1679 H 167.338 0.464163 -5.01858 0
M  V30 1680 H 166.94 -0.642963 -3.68432 0
M  V30 1681 H 169.232 0.0692833 -6.77465 0
M  V30 1682 H 170.175 -1.44682 -6.93161 0
M  V30 1683 H 170.583 -0.280855 -5.63801 0
M  V30 1684 N 169.982 1.44106 -0.638065 0
M  V30 1685 C 171.259 1.95453 -0.0759321 0
M  V30 1686 C 171.639 1.57984 1.40015 0
M  V30 1687 O 170.987 0.857361 2.11806 0
M  V30 1688 C 171.197 3.47655 -0.306132 0
M  V30 1689 C 172.545 4.24114 -0.203008 0
M  V30 1690 O 173.569 3.55405 -0.237871 0
M  V30 1691 O 172.428 5.46381 -0.113827 0
M  V30 1692 H 169.522 0.826797 0.0183332 0
M  V30 1693 H 172.068 1.54122 -0.710251 0
M  V30 1694 H 170.84 3.68 -1.3301 0
M  V30 1695 H 170.463 3.95949 0.361991 0
M  V30 1696 N 171.46 0.379036 1.52974 0
M  V30 1697 C 172.685 -0.209353 2.06341 0
M  V30 1698 C 173.11 -1.40583 1.24972 0
M  V30 1699 O 172.468 -1.79246 0.272155 0
M  V30 1700 C 172.516 -0.567786 3.56102 0
M  V30 1701 O 171.62 -1.66318 3.77375 0
M  V30 1702 H 170.961 -0.0272919 0.663439 0
M  V30 1703 H 173.491 0.543536 1.97248 0
M  V30 1704 H 173.501 -0.835003 3.99364 0
M  V30 1705 H 172.176 0.307013 4.14765 0
M  V30 1706 H 170.753 -1.39048 3.46006 0
M  V30 1707 N 172.938 -1.57226 0.108567 0
M  V30 1708 C 173.868 -2.17778 -0.84232 0
M  V30 1709 C 174.849 -1.11487 -1.2847 0
M  V30 1710 O 176.034 -1.39681 -1.34918 0
M  V30 1711 C 173.164 -2.76888 -2.09644 0
M  V30 1712 C 172.118 -3.88669 -1.79221 0
M  V30 1713 C 171.444 -4.34541 -3.11574 0
M  V30 1714 C 172.744 -5.11251 -1.06864 0
M  V30 1715 H 174.438 -2.97489 -0.337774 0
M  V30 1716 H 171.984 -1.43097 -0.161025 0
M  V30 1717 H 173.937 -3.17904 -2.76614 0
M  V30 1718 H 172.661 -1.94451 -2.62405 0
M  V30 1719 H 171.32 -3.48213 -1.14644 0
M  V30 1720 H 170.968 -3.48977 -3.62249 0
M  V30 1721 H 170.668 -5.09914 -2.91996 0
M  V30 1722 H 172.192 -4.782 -3.7968 0
M  V30 1723 H 173.606 -5.49352 -1.63968 0
M  V30 1724 H 172.003 -5.9214 -0.974178 0
M  V30 1725 H 173.073 -4.8487 -0.0536168 0
M  V30 1726 N 174.416 0.165178 -1.56732 0
M  V30 1727 C 175.346 1.20651 -1.99914 0
M  V30 1728 C 176.327 1.45827 -0.875705 0
M  V30 1729 O 177.512 1.57057 -1.14223 0
M  V30 1730 C 174.642 2.54401 -2.36427 0
M  V30 1731 C 173.596 2.43782 -3.51787 0
M  V30 1732 C 172.922 3.82078 -3.7406 0
M  V30 1733 C 174.222 1.93732 -4.85041 0
M  V30 1734 H 175.916 0.847534 -2.87154 0
M  V30 1735 H 173.462 0.40625 -1.38151 0
M  V30 1736 H 175.415 3.27458 -2.65234 0
M  V30 1737 H 174.139 2.92098 -1.46103 0
M  V30 1738 H 172.798 1.73178 -3.23117 0
M  V30 1739 H 172.446 4.17179 -2.81017 0
M  V30 1740 H 172.146 3.7584 -4.51684 0
M  V30 1741 H 173.67 4.56712 -4.05274 0
M  V30 1742 H 175.084 2.56569 -5.12684 0
M  V30 1743 H 173.481 1.98428 -5.66345 0
M  V30 1744 H 174.551 0.891962 -4.76626 0
M  V30 1745 N 175.894 1.51508 0.433938 0
M  V30 1746 C 177.119 1.68443 1.21003 0
M  V30 1747 C 177.544 0.382636 1.84167 0
M  V30 1748 O 176.902 -0.65755 1.68956 0
M  V30 1749 C 176.95 2.80405 2.26727 0
M  V30 1750 O 176.054 2.44245 3.32292 0
M  V30 1751 H 175.395 0.561536 0.354363 0
M  V30 1752 H 177.925 1.9809 0.512024 0
M  V30 1753 H 177.935 3.0459 2.71457 0
M  V30 1754 H 176.61 3.74867 1.80132 0
M  V30 1755 H 175.187 2.30644 2.93015 0
M  V30 1756 N 177.372 -0.689602 1.41712 0
M  V30 1757 C 178.621 -1.44534 1.40686 0
M  V30 1758 C 178.934 -1.95588 0.0213352 0
M  V30 1759 O 180.14 -2.71271 -0.111534 0
M  V30 1760 C 178.596 -2.61387 2.47396 0
M  V30 1761 C 178.204 -2.17094 3.91885 0
M  V30 1762 C 179.948 -3.38986 2.55517 0
M  V30 1763 C 177.855 -3.3094 4.90135 0
M  V30 1764 H 176.785 -0.542925 0.52321 0
M  V30 1765 H 179.436 -0.748054 1.6756 0
M  V30 1766 H 177.818 -3.33412 2.13664 0
M  V30 1767 H 178.992 -1.52318 4.34897 0
M  V30 1768 H 177.307 -1.52473 3.8748 0
M  V30 1769 H 179.904 -4.23747 3.26102 0
M  V30 1770 H 180.247 -3.84578 1.59391 0
M  V30 1771 H 180.78 -2.74021 2.8837 0
M  V30 1772 H 177.519 -2.90355 5.87685 0
M  V30 1773 H 177.039 -3.94546 4.51767 0
M  V30 1774 H 178.718 -3.9663 5.11169 0
M  V30 1775 N 178.85 -1.27639 -0.924453 0
M  V30 1776 C 180.096 -1.14336 -1.67497 0
M  V30 1777 C 180.429 0.309465 -1.91718 0
M  V30 1778 O 179.704 1.22608 -1.50989 0
M  V30 1779 C 179.987 -1.93096 -3.0395 0
M  V30 1780 C 179.84 -3.46381 -2.8695 0
M  V30 1781 C 181.159 -1.73798 -4.0433 0
M  V30 1782 H 178.278 -0.416728 -0.607871 0
M  V30 1783 H 180.92 -1.56832 -1.07256 0
M  V30 1784 H 179.07 -1.56982 -3.55372 0
M  V30 1785 H 180.742 -3.92343 -2.42621 0
M  V30 1786 H 178.985 -3.72557 -2.22225 0
M  V30 1787 H 179.656 -3.96735 -3.83804 0
M  V30 1788 H 182.132 -2.05293 -3.61931 0
M  V30 1789 H 181.008 -2.31294 -4.97789 0
M  V30 1790 H 181.269 -0.686725 -4.36734 0
M  V30 1791 N 180.328 1.1314 -1.09713 0
M  V30 1792 C 181.26 2.18343 -0.697056 0
M  V30 1793 C 182.273 1.60669 0.262551 0
M  V30 1794 O 183.462 1.78435 0.0481527 0
M  V30 1795 C 180.562 3.38899 -0.00684728 0
M  V30 1796 C 179.735 4.26078 -0.988741 0
M  V30 1797 C 178.794 5.25155 -0.331394 0
M  V30 1798 O 177.82 5.60701 -0.979926 0
M  V30 1799 N 179.022 5.73271 0.913261 0
M  V30 1800 H 181.787 2.5328 -1.60216 0
M  V30 1801 H 179.348 1.28491 -0.984971 0
M  V30 1802 H 181.34 4.02255 0.444191 0
M  V30 1803 H 179.91 3.02175 0.800551 0
M  V30 1804 H 179.13 3.59453 -1.61826 0
M  V30 1805 H 180.418 4.81178 -1.65364 0
M  V30 1806 H 179.816 5.46544 1.45966 0
M  V30 1807 H 178.373 6.3855 1.30757 0
M  V30 1808 N 181.806 0.884767 1.30421 0
M  V30 1809 C 182.739 0.295999 2.26272 0
M  V30 1810 C 183.717 -0.58332 1.51777 0
M  V30 1811 O 184.901 -0.53346 1.80794 0
M  V30 1812 C 182.028 -0.57944 3.33707 0
M  V30 1813 C 181.074 0.230525 4.25877 0
M  V30 1814 S 181.907 1.61867 5.1045 0
M  V30 1815 C 183.063 0.749756 6.21393 0
M  V30 1816 H 183.296 1.10848 2.75862 0
M  V30 1817 H 180.829 0.684178 1.38414 0
M  V30 1818 H 182.787 -1.07879 3.96071 0
M  V30 1819 H 181.448 -1.36601 2.82841 0
M  V30 1820 H 180.641 -0.437542 5.02097 0
M  V30 1821 H 180.243 0.662493 3.68086 0
M  V30 1822 H 182.535 -0.0333547 6.77492 0
M  V30 1823 H 183.478 1.48356 6.92384 0
M  V30 1824 H 183.886 0.310751 5.63644 0
M  V30 1825 N 183.284 -1.43765 0.645699 0
M  V30 1826 C 184.695 -1.85193 0.236719 0
M  V30 1827 C 185.046 -1.54045 -1.21509 0
M  V30 1828 O 184.171 -0.985694 -1.92647 0
M  V30 1829 C 184.766 -3.36151 0.422845 0
M  V30 1830 C 183.325 -3.76338 0.0682492 0
M  V30 1831 C 182.472 -2.67538 0.729306 0
M  V30 1832 H 185.423 -1.34025 0.849883 0
M  V30 1833 H 185.444 -3.79032 -0.333904 0
M  V30 1834 H 184.956 -3.5879 1.47958 0
M  V30 1835 H 183.057 -3.59312 -0.986179 0
M  V30 1836 H 183.17 -4.76603 0.488469 0
M  V30 1837 H 181.534 -2.54176 0.163235 0
M  V30 1838 H 182.317 -2.93006 1.78892 0
M  V30 1839 N 184.763 -0.387143 -1.52771 0
M  V30 1840 C 186.011 0.195349 -2.01154 0
M  V30 1841 C 186.332 1.475 -1.27549 0
M  V30 1842 O 185.602 1.91878 -0.394924 0
M  V30 1843 H 184.182 0.075178 -0.743207 0
M  V30 1844 H 186.844 -0.518337 -1.87881 0
M  V30 1845 H 185.94 0.407096 -3.09434 0
M  V30 1846 N 186.241 1.57166 -0.116904 0
M  V30 1847 C 187.489 1.94737 0.540533 0
M  V30 1848 C 187.81 1.00096 1.67349 0
M  V30 1849 O 187.08 0.0568854 1.95817 0
M  V30 1850 H 185.66 0.718981 0.202669 0
M  V30 1851 H 188.322 1.94017 -0.185353 0
M  V30 1852 H 187.418 2.97719 0.936483 0
M  V30 1853 N 187.719 -0.156864 1.56817 0
M  V30 1854 C 188.965 -0.872416 1.83076 0
M  V30 1855 C 189.298 -1.81261 0.697001 0
M  V30 1856 O 188.573 -1.92171 -0.30008 0
M  V30 1857 C 188.856 -1.65551 3.19789 0
M  V30 1858 C 188.709 -0.737467 4.43713 0
M  V30 1859 C 190.028 -2.62012 3.53606 0
M  V30 1860 H 187.147 -0.315715 0.665953 0
M  V30 1861 H 189.789 -0.138004 1.89498 0
M  V30 1862 H 187.939 -2.28159 3.14445 0
M  V30 1863 H 189.611 -0.123143 4.61136 0
M  V30 1864 H 187.854 -0.0464067 4.33775 0
M  V30 1865 H 188.525 -1.32122 5.35955 0
M  V30 1866 H 191.001 -2.09525 3.59497 0
M  V30 1867 H 189.877 -3.13861 4.50314 0
M  V30 1868 H 190.138 -3.42902 2.79053 0
M  V30 1869 N 189.197 -1.51736 -0.425897 0
M  V30 1870 C 190.608 -1.5732 -1.00536 0
M  V30 1871 C 190.959 -0.403537 -1.92005 0
M  V30 1872 O 190.084 0.478256 -2.11049 0
M  V30 1873 C 190.679 -2.85119 -1.8301 0
M  V30 1874 C 189.238 -2.93236 -2.35987 0
M  V30 1875 C 188.385 -2.52098 -1.15508 0
M  V30 1876 H 191.336 -1.57348 -0.206739 0
M  V30 1877 H 191.357 -2.69526 -2.68581 0
M  V30 1878 H 190.869 -3.7023 -1.16411 0
M  V30 1879 H 188.97 -2.12581 -3.06007 0
M  V30 1880 H 189.083 -3.9713 -2.68001 0
M  V30 1881 H 187.447 -2.05558 -1.50393 0
M  V30 1882 H 188.23 -3.39565 -0.505014 0
M  V30 1883 N 190.675 0.682077 -1.42076 0
M  V30 1884 C 191.921 1.44428 -1.42367 0
M  V30 1885 C 192.254 1.94164 -0.0373056 0
M  V30 1886 O 191.529 1.70429 0.937239 0
M  V30 1887 C 191.812 2.64654 -2.44194 0
M  V30 1888 C 191.665 2.20596 -3.91991 0
M  V30 1889 C 192.984 3.66865 -2.431 0
M  V30 1890 H 190.103 0.523834 -0.518428 0
M  V30 1891 H 192.745 0.77576 -1.73442 0
M  V30 1892 H 190.895 3.2169 -2.17826 0
M  V30 1893 H 192.567 1.68783 -4.29313 0
M  V30 1894 H 190.81 1.52242 -4.06208 0
M  V30 1895 H 191.481 3.06921 -4.58807 0
M  V30 1896 H 193.957 3.19531 -2.66532 0
M  V30 1897 H 192.833 4.48577 -3.16339 0
M  V30 1898 H 193.094 4.17493 -1.45437 0
M  V30 1899 N 192.153 1.28127 0.917671 0
M  V30 1900 C 193.401 1.14825 1.66312 0
M  V30 1901 C 193.722 -0.304379 1.9261 0
M  V30 1902 O 192.992 -1.21149 1.53947 0
M  V30 1903 H 191.572 0.421953 0.616413 0
M  V30 1904 H 194.234 1.608 1.10134 0
M  V30 1905 H 193.33 1.68489 2.62712 0
M  V30 1906 N 193.631 -1.12557 1.10312 0
M  V30 1907 C 194.859 -1.87864 0.866873 0
M  V30 1908 C 195.274 -1.79588 -0.582557 0
M  V30 1909 O 194.631 -1.16887 -1.40156 0
M  V30 1910 C 194.682 -3.37125 1.30496 0
M  V30 1911 O 194.403 -3.45201 2.69755 0
M  V30 1912 C 195.904 -4.29373 1.10243 0
M  V30 1913 H 193.124 -0.594452 0.311236 0
M  V30 1914 H 195.668 -1.42429 1.46745 0
M  V30 1915 H 193.823 -3.80109 0.748081 0
M  V30 1916 H 194.237 -4.38056 2.88457 0
M  V30 1917 H 195.711 -5.32394 1.45811 0
M  V30 1918 H 196.188 -4.39181 0.0409492 0
M  V30 1919 H 196.794 -3.92169 1.64571 0
M  V30 1920 N 195.109 -0.891671 -1.2995 0
M  V30 1921 C 196.039 -0.379797 -2.30391 0
M  V30 1922 C 197.02 0.540919 -1.6127 0
M  V30 1923 O 198.205 0.453352 -1.88834 0
M  V30 1924 C 195.335 0.400654 -3.44981 0
M  V30 1925 C 194.289 -0.428905 -4.25846 0
M  V30 1926 C 193.615 0.478557 -5.32554 0
M  V30 1927 C 194.915 -1.67458 -4.94727 0
M  V30 1928 H 196.609 -1.21914 -2.73454 0
M  V30 1929 H 194.155 -0.587675 -1.31462 0
M  V30 1930 H 196.108 0.769434 -4.14316 0
M  V30 1931 H 194.832 1.27371 -3.0074 0
M  V30 1932 H 193.491 -0.779911 -3.58208 0
M  V30 1933 H 193.139 1.34951 -4.84559 0
M  V30 1934 H 192.839 -0.0727433 -5.87555 0
M  V30 1935 H 194.363 0.843705 -6.04743 0
M  V30 1936 H 195.777 -1.376 -5.56542 0
M  V30 1937 H 194.174 -2.16659 -5.59624 0
M  V30 1938 H 195.244 -2.41518 -4.20473 0
M  V30 1939 N 196.587 1.43421 -0.653314 0
M  V30 1940 C 197.55 2.29182 0.0287951 0
M  V30 1941 C 198.55 1.42213 0.750465 0
M  V30 1942 O 199.74 1.63843 0.591701 0
M  V30 1943 C 196.872 3.24278 1.05151 0
M  V30 1944 H 198.065 2.90985 -0.725786 0
M  V30 1945 H 195.618 1.50702 -0.414545 0
M  V30 1946 H 196.353 2.6737 1.83532 0
M  V30 1947 H 196.138 3.88396 0.537687 0
M  V30 1948 H 197.628 3.88647 1.52786 0
M  V30 1949 N 198.065 0.39524 1.52563 0
M  V30 1950 C 199.314 -0.186321 2.00838 0
M  V30 1951 C 199.627 -1.47402 1.28577 0
M  V30 1952 O 200.833 -2.13599 1.67593 0
M  V30 1953 C 199.289 -0.382595 3.57861 0
M  V30 1954 C 198.897 0.892202 4.39026 0
M  V30 1955 C 200.641 -0.9202 4.14406 0
M  V30 1956 C 198.548 0.66388 5.87662 0
M  V30 1957 H 197.478 -0.0734041 0.750418 0
M  V30 1958 H 200.129 0.518552 1.76021 0
M  V30 1959 H 198.511 -1.14946 3.7895 0
M  V30 1960 H 199.685 1.66414 4.29701 0
M  V30 1961 H 198 1.35519 3.9373 0
M  V30 1962 H 200.597 -1.10683 5.23119 0
M  V30 1963 H 200.94 -1.89096 3.70875 0
M  V30 1964 H 201.473 -0.212751 3.97231 0
M  V30 1965 H 198.212 1.6058 6.35527 0
M  V30 1966 H 197.732 -0.0690193 5.9976 0
M  V30 1967 H 199.411 0.300699 6.46301 0
M  V30 1968 N 199.544 -1.57102 0.125237 0
M  V30 1969 C 200.792 -1.95021 -0.530198 0
M  V30 1970 C 201.113 -1.00982 -1.66816 0
M  V30 1971 O 200.383 -0.0672693 -1.95784 0
M  V30 1972 H 198.963 -0.720046 -0.198853 0
M  V30 1973 H 201.625 -1.93916 0.19564 0
M  V30 1974 H 200.721 -2.98211 -0.920681 0
M  V30 1975 N 201.022 0.148545 -1.56898 0
M  V30 1976 C 201.985 1.16736 -1.97244 0
M  V30 1977 C 202.985 1.35947 -0.858777 0
M  V30 1978 O 204.175 1.32966 -1.12542 0
M  V30 1979 C 201.307 2.52798 -2.28705 0
M  V30 1980 H 202.5 0.821279 -2.88435 0
M  V30 1981 H 200.053 0.391831 -1.51309 0
M  V30 1982 H 200.788 2.92381 -1.403 0
M  V30 1983 H 200.573 2.40216 -3.09901 0
M  V30 1984 H 202.063 3.26179 -2.60762 0
M  V30 1985 N 202.5 1.5196 0.417844 0
M  V30 1986 C 203.725 1.69717 1.1921 0
M  V30 1987 C 204.15 0.402148 1.83751 0
M  V30 1988 O 203.508 -0.639593 1.69643 0
M  V30 1989 C 203.556 2.82794 2.2374 0
M  V30 1990 O 202.66 2.47756 3.29683 0
M  V30 1991 H 202.001 0.565263 0.348387 0
M  V30 1992 H 204.531 1.98621 0.490985 0
M  V30 1993 H 204.541 3.07452 2.68212 0
M  V30 1994 H 203.216 3.76756 1.76146 0
M  V30 1995 H 201.793 2.33739 2.90552 0
M  V30 1996 N 203.978 -0.674533 1.42435 0
M  V30 1997 C 205.226 -1.43175 1.42637 0
M  V30 1998 C 205.547 -1.94951 0.0438992 0
M  V30 1999 O 204.817 -1.7308 -0.917607 0
M  V30 2000 H 203.397 -0.531307 0.525092 0
M  V30 2001 H 206.059 -0.797006 1.77859 0
M  V30 2002 H 205.155 -2.28463 2.12629 0
M  V30 2003 N 205.456 -1.28612 -0.910864 0
M  V30 2004 C 206.419 -1.12803 -1.9952 0
M  V30 2005 C 207.419 -0.0668264 -1.60661 0
M  V30 2006 O 208.609 -0.312847 -1.71368 0
M  V30 2007 C 205.741 -0.72254 -3.33155 0
M  V30 2008 H 206.934 -2.09109 -2.14973 0
M  V30 2009 H 204.487 -1.11639 -1.09391 0
M  V30 2010 H 205.222 0.241152 -3.23402 0
M  V30 2011 H 205.007 -1.48916 -3.62721 0
M  V30 2012 H 206.497 -0.634666 -4.12749 0
M  V30 2013 N 206.934 1.1197 -1.10907 0
M  V30 2014 C 207.881 2.17846 -0.762345 0
M  V30 2015 C 208.851 1.63995 0.263599 0
M  V30 2016 O 210.036 1.90273 0.141773 0
M  V30 2017 C 207.176 3.44487 -0.205651 0
M  V30 2018 C 206.289 4.12369 -1.28748 0
M  V30 2019 C 205.424 5.26674 -0.691919 0
M  V30 2020 C 204.463 5.86431 -1.75399 0
M  V30 2021 N 203.6 6.92142 -1.17833 0
M  V30 2022 H 208.44 2.46851 -1.6694 0
M  V30 2023 H 205.977 1.21188 -0.833776 0
M  V30 2024 H 207.935 4.16981 0.135037 0
M  V30 2025 H 206.565 3.15884 0.664613 0
M  V30 2026 H 205.617 3.38003 -1.74522 0
M  V30 2027 H 206.929 4.52844 -2.09125 0
M  V30 2028 H 206.083 6.05953 -0.300963 0
M  V30 2029 H 204.822 4.8749 0.143232 0
M  V30 2030 H 203.827 5.05835 -2.15432 0
M  V30 2031 H 205.052 6.27685 -2.59208 0
M  V30 2032 H 202.998 6.54985 -0.364725 0
M  V30 2033 H 202.915 7.31242 -1.91887 0
M  V30 2034 H 204.183 7.75237 -0.81408 0
M  V30 2035 N 208.412 0.89855 1.29475 0
M  V30 2036 C 209.36 0.365253 2.29714 0
M  V30 2037 C 210.354 -0.534993 1.6073 0
M  V30 2038 O 211.56 -0.417921 1.75081 0
M  V30 2039 H 207.935 0.0994853 0.74539 0
M  V30 2040 H 209.906 1.22406 2.72138 0
M  V30 2041 C 208.655 -0.393159 3.4547 0
M  V30 2042 H 207.978 0.290332 3.98744 0
M  V30 2043 H 209.418 -0.731189 4.17648 0
M  V30 2044 C 207.877 -1.59539 2.9673 0
M  V30 2045 O 208.407 -2.69469 2.97908 0
M  V30 2046 N 206.613 -1.43716 2.52575 0
M  V30 2047 H 206.16 -0.542828 2.51816 0
M  V30 2048 H 206.118 -2.24288 2.20323 0
M  V30 2049 N 209.89 -1.43072 0.660911 0
M  V30 2050 C 210.853 -2.29194 -0.0166406 0
M  V30 2051 C 211.853 -1.42609 -0.742912 0
M  V30 2052 O 213.043 -1.64155 -0.583004 0
M  V30 2053 C 210.175 -3.24831 -1.0343 0
M  V30 2054 H 211.368 -2.90596 0.741208 0
M  V30 2055 H 208.921 -1.5048 0.422532 0
M  V30 2056 H 209.656 -2.68339 -1.82111 0
M  V30 2057 H 209.441 -3.88676 -0.517082 0
M  V30 2058 H 210.931 -3.89451 -1.50723 0
M  V30 2059 N 211.368 -0.403325 -1.52352 0
M  V30 2060 C 212.331 0.413051 -2.25447 0
M  V30 2061 C 213.331 0.978513 -1.276 0
M  V30 2062 O 214.521 0.858305 -1.51587 0
M  V30 2063 C 211.653 1.58087 -3.02029 0
M  V30 2064 H 212.846 -0.227094 -2.99039 0
M  V30 2065 H 210.399 -0.155722 -1.55522 0
M  V30 2066 H 211.134 2.25804 -2.32772 0
M  V30 2067 H 210.919 1.18195 -3.73861 0
M  V30 2068 H 212.409 2.1585 -3.57489 0
M  V30 2069 N 212.846 1.57033 -0.133567 0
M  V30 2070 C 213.776 2.1909 0.807567 0
M  V30 2071 C 214.757 1.13517 1.26681 0
M  V30 2072 O 215.942 1.41809 1.32679 0
M  V30 2073 C 213.072 2.80188 2.05212 0
M  V30 2074 C 212.026 3.91471 1.73015 0
M  V30 2075 C 211.352 4.39443 3.04622 0
M  V30 2076 C 212.652 5.12886 0.987168 0
M  V30 2077 H 214.346 2.97988 0.290403 0
M  V30 2078 H 211.892 1.43335 0.138239 0
M  V30 2079 H 213.845 3.22264 2.71521 0
M  V30 2080 H 212.569 1.98601 2.59278 0
M  V30 2081 H 211.228 3.49993 1.0909 0
M  V30 2082 H 210.876 3.54695 3.56651 0
M  V30 2083 H 210.576 5.14495 2.83847 0
M  V30 2084 H 212.1 4.8418 3.72024 0
M  V30 2085 H 213.514 5.51891 1.55208 0
M  V30 2086 H 211.911 5.93615 0.87985 0
M  V30 2087 H 212.981 4.84894 -0.0235286 0
M  V30 2088 N 214.325 -0.140222 1.56975 0
M  V30 2089 C 215.255 -1.17456 2.01808 0
M  V30 2090 C 216.236 -1.44415 0.898794 0
M  V30 2091 O 217.421 -1.5522 1.16707 0
M  V30 2092 C 214.551 -2.50607 2.40444 0
M  V30 2093 C 213.505 -2.38155 3.55621 0
M  V30 2094 C 212.831 -3.76078 3.80091 0
M  V30 2095 C 214.131 -1.85991 4.88062 0
M  V30 2096 H 215.825 -0.801743 2.88466 0
M  V30 2097 H 213.371 -0.38422 1.38779 0
M  V30 2098 H 215.324 -3.23197 2.7041 0
M  V30 2099 H 214.048 -2.89737 1.50732 0
M  V30 2100 H 212.707 -1.68016 3.25832 0
M  V30 2101 H 212.355 -4.12656 2.87618 0
M  V30 2102 H 212.055 -3.68606 4.57606 0
M  V30 2103 H 213.579 -4.50206 4.12488 0
M  V30 2104 H 214.993 -2.4838 5.16701 0
M  V30 2105 H 213.39 -1.89393 5.6943 0
M  V30 2106 H 214.46 -0.816023 4.77984 0
M  V30 2107 N 215.803 -1.52179 -0.40978 0
M  V30 2108 C 216.766 -1.74853 -1.48186 0
M  V30 2109 C 217.766 -0.618417 -1.48433 0
M  V30 2110 O 218.956 -0.886286 -1.49969 0
M  V30 2111 C 216.088 -1.8303 -2.87598 0
M  V30 2112 H 217.281 -2.70559 -1.29374 0
M  V30 2113 H 214.834 -1.42586 -0.640233 0
M  V30 2114 H 215.569 -0.89236 -3.11781 0
M  V30 2115 H 215.354 -2.65187 -2.88822 0
M  V30 2116 H 216.844 -2.02316 -3.65319 0
M  V30 2117 N 217.281 0.66697 -1.42791 0
M  V30 2118 C 218.244 1.76211 -1.46568 0
M  V30 2119 C 219.244 1.56896 -0.352196 0
M  V30 2120 O 220.434 1.63044 -0.613364 0
M  V30 2121 C 217.566 3.14935 -1.30494 0
M  V30 2122 H 218.759 1.74247 -2.44086 0
M  V30 2123 H 216.312 0.877342 -1.29354 0
M  V30 2124 H 217.047 3.2252 -0.339301 0
M  V30 2125 H 216.832 3.30359 -2.11199 0
M  V30 2126 H 218.322 3.94821 -1.36038 0
M  V30 2127 N 218.759 1.29093 0.90403 0
M  V30 2128 C 219.984 1.19809 1.69294 0
M  V30 2129 C 220.409 -0.238481 1.86582 0
M  V30 2130 O 219.767 -1.1723 1.383 0
M  V30 2131 C 219.815 1.91202 3.05736 0
M  V30 2132 O 218.919 1.22611 3.93752 0
M  V30 2133 H 218.26 0.415385 0.518027 0
M  V30 2134 H 220.79 1.70586 1.12967 0
M  V30 2135 H 220.8 1.99487 3.55906 0
M  V30 2136 H 219.475 2.95692 2.92471 0
M  V30 2137 H 218.052 1.22554 3.52186 0
M  V30 2138 N 220.237 -1.11381 1.11499 0
M  V30 2139 C 221.486 -1.82494 0.858993 0
M  V30 2140 C 221.799 -1.85605 -0.617278 0
M  V30 2141 O 223.005 -2.52824 -0.989552 0
M  V30 2142 C 221.461 -3.27745 1.48699 0
M  V30 2143 C 221.069 -3.32961 2.99735 0
M  V30 2144 C 222.813 -4.03754 1.31085 0
M  V30 2145 C 220.72 -4.72612 3.55516 0
M  V30 2146 H 219.65 -0.683802 0.317696 0
M  V30 2147 H 222.301 -1.25331 1.34031 0
M  V30 2148 H 220.683 -3.84844 0.933339 0
M  V30 2149 H 221.857 -2.85741 3.61509 0
M  V30 2150 H 220.172 -2.70433 3.16631 0
M  V30 2151 H 222.769 -5.06891 1.70192 0
M  V30 2152 H 223.112 -4.15527 0.253496 0
M  V30 2153 H 223.645 -3.53043 1.83318 0
M  V30 2154 H 220.384 -4.66036 4.60967 0
M  V30 2155 H 219.904 -5.2024 2.98513 0
M  V30 2156 H 221.583 -5.4157 3.53992 0
M  V30 2157 N 221.715 -0.905404 -1.28997 0
M  V30 2158 C 222.645 -0.404212 -2.29975 0
M  V30 2159 C 223.626 0.523784 -1.61835 0
M  V30 2160 O 224.811 0.433298 -1.89304 0
M  V30 2161 C 221.941 0.364042 -3.45387 0
M  V30 2162 C 220.895 -0.474048 -4.25367 0
M  V30 2163 C 220.221 0.422045 -5.33032 0
M  V30 2164 C 221.521 -1.72696 -4.92923 0
M  V30 2165 H 223.215 -1.24807 -2.72146 0
M  V30 2166 H 220.761 -0.601585 -1.30832 0
M  V30 2167 H 222.714 0.725447 -4.15109 0
M  V30 2168 H 221.438 1.24174 -3.02074 0
M  V30 2169 H 220.097 -0.81786 -3.57361 0
M  V30 2170 H 219.745 1.29804 -4.85963 0
M  V30 2171 H 219.445 -0.135057 -5.87445 0
M  V30 2172 H 220.969 0.779517 -6.05604 0
M  V30 2173 H 222.383 -1.43495 -5.55051 0
M  V30 2174 H 220.78 -2.22582 -5.57295 0
M  V30 2175 H 221.85 -2.45964 -4.17887 0
M  V30 2176 N 223.193 1.4272 -0.668489 0
M  V30 2177 C 224.156 2.292 0.00448567 0
M  V30 2178 C 225.156 1.43001 0.735339 0
M  V30 2179 O 226.346 1.64461 0.57429 0
M  V30 2180 C 223.478 3.25375 1.01705 0
M  V30 2181 H 224.671 2.90199 -0.756608 0
M  V30 2182 H 222.224 1.50254 -0.430506 0
M  V30 2183 H 222.959 2.69301 1.80686 0
M  V30 2184 H 222.744 3.88944 0.496463 0
M  V30 2185 H 224.234 3.90245 1.48655 0
M  V30 2186 N 224.671 0.411399 1.52136 0
M  V30 2187 C 225.601 -0.404015 2.29978 0
M  V30 2188 C 226.582 -1.04412 1.34284 0
M  V30 2189 O 227.767 -1.0527 1.63192 0
M  V30 2190 C 224.897 -1.5197 3.12286 0
M  V30 2191 C 223.851 -1.00448 4.16046 0
M  V30 2192 C 223.177 -2.21393 4.86712 0
M  V30 2193 C 224.477 -0.0569336 5.22269 0
M  V30 2194 H 226.171 0.245529 2.98392 0
M  V30 2195 H 223.717 0.119525 1.43503 0
M  V30 2196 H 225.67 -2.09715 3.6551 0
M  V30 2197 H 224.394 -2.19716 2.41646 0
M  V30 2198 H 223.053 -0.449421 3.63835 0
M  V30 2199 H 222.701 -2.87699 4.12599 0
M  V30 2200 H 222.401 -1.87571 5.56858 0
M  V30 2201 H 223.925 -2.7974 5.4275 0
M  V30 2202 H 225.339 -0.54325 5.7072 0
M  V30 2203 H 223.736 0.192594 5.99791 0
M  V30 2204 H 224.806 0.887663 4.76706 0
M  V30 2205 N 226.149 -1.5696 0.141893 0
M  V30 2206 C 227.379 -2.00031 -0.516828 0
M  V30 2207 C 227.787 -1.02091 -1.59293 0
M  V30 2208 O 227.13 -0.00909657 -1.83698 0
M  V30 2209 C 227.192 -3.39534 -1.1814 0
M  V30 2210 C 226.856 -4.56313 -0.250513 0
M  V30 2211 C 227.853 -5.17295 0.519839 0
M  V30 2212 C 225.538 -5.02061 -0.154907 0
M  V30 2213 C 227.532 -6.2243 1.3733 0
M  V30 2214 C 225.219 -6.07053 0.702161 0
M  V30 2215 C 226.217 -6.67106 1.46487 0
M  V30 2216 O 225.905 -7.70066 2.30767 0
M  V30 2217 H 225.637 -0.661451 -0.139493 0
M  V30 2218 H 228.191 -2.04086 0.231926 0
M  V30 2219 H 226.421 -3.32302 -1.97769 0
M  V30 2220 H 228.11 -3.66745 -1.73933 0
M  V30 2221 H 228.876 -4.82852 0.45598 0
M  V30 2222 H 224.755 -4.5505 -0.7383 0
M  V30 2223 H 228.299 -6.69233 1.96909 0
M  V30 2224 H 224.196 -6.40923 0.76733 0
M  V30 2225 H 224.964 -7.87264 2.23959 0
M  V30 2226 N 227.627 0.131896 -1.57047 0
M  V30 2227 C 228.575 1.18146 -2.0036 0
M  V30 2228 C 229.569 1.43614 -0.898406 0
M  V30 2229 O 230.775 1.43729 -1.08361 0
M  V30 2230 H 227.15 0.398042 -0.638018 0
M  V30 2231 H 229.121 0.789564 -2.87765 0
M  V30 2232 C 227.87 2.50341 -2.41298 0
M  V30 2233 H 227.193 2.31578 -3.25902 0
M  V30 2234 H 228.633 3.22371 -2.75414 0
M  V30 2235 C 227.092 3.11984 -1.27153 0
M  V30 2236 O 227.622 3.97484 -0.580459 0
M  V30 2237 N 225.828 2.71662 -1.03189 0
M  V30 2238 H 225.375 2.02231 -1.59564 0
M  V30 2239 H 225.333 3.13238 -0.270077 0
M  V30 2240 N 229.106 1.52395 0.401703 0
M  V30 2241 C 230.517 1.58899 0.980202 0
M  V30 2242 C 230.868 0.434032 1.91339 0
M  V30 2243 O 229.993 -0.444619 2.11783 0
M  V30 2244 C 230.588 2.87994 1.78451 0
M  V30 2245 C 229.147 2.96953 2.31292 0
M  V30 2246 C 228.294 2.53903 1.11483 0
M  V30 2247 H 231.245 1.57657 0.18168 0
M  V30 2248 H 231.266 2.73765 2.64259 0
M  V30 2249 H 230.778 3.72035 1.10506 0
M  V30 2250 H 228.879 2.17422 3.02586 0
M  V30 2251 H 228.992 4.01344 2.61649 0
M  V30 2252 H 227.356 2.07925 1.47104 0
M  V30 2253 H 228.139 3.40326 0.450928 0
M  V30 2254 N 230.584 -0.659388 1.43143 0
M  V30 2255 C 231.547 -1.75432 1.47501 0
M  V30 2256 C 232.547 -1.56707 0.360512 0
M  V30 2257 O 233.737 -1.62717 0.622002 0
M  V30 2258 C 230.869 -3.14239 1.32162 0
M  V30 2259 H 232.062 -1.7295 2.45006 0
M  V30 2260 H 229.615 -0.870469 1.29817 0
M  V30 2261 H 230.35 -3.22336 0.356401 0
M  V30 2262 H 230.135 -3.29235 2.12948 0
M  V30 2263 H 231.625 -3.94094 1.3813 0
M  V30 2264 N 232.062 -1.29571 -0.897171 0
M  V30 2265 C 232.992 -1.17473 -2.01798 0
M  V30 2266 C 233.973 -0.068323 -1.69963 0
M  V30 2267 O 235.158 -0.248239 -1.92607 0
M  V30 2268 C 232.288 -0.853099 -3.36659 0
M  V30 2269 C 231.242 -1.9161 -3.82713 0
M  V30 2270 C 230.568 -1.44773 -5.14728 0
M  V30 2271 C 231.868 -3.32535 -4.02763 0
M  V30 2272 H 233.562 -2.11237 -2.12177 0
M  V30 2273 H 231.108 -1.01699 -1.01948 0
M  V30 2274 H 233.061 -0.755165 -4.14578 0
M  V30 2275 H 231.785 0.120236 -3.26379 0
M  V30 2276 H 230.444 -2.00346 -3.07013 0
M  V30 2277 H 230.092 -0.462995 -5.00865 0
M  V30 2278 H 229.792 -2.15865 -5.46513 0
M  V30 2279 H 231.316 -1.36334 -5.95185 0
M  V30 2280 H 232.73 -3.26626 -4.71156 0
M  V30 2281 H 231.127 -4.01607 -4.45905 0
M  V30 2282 H 232.197 -3.75326 -3.07016 0
M  V30 2283 N 233.54 1.10788 -1.12088 0
M  V30 2284 C 234.503 2.15207 -0.788577 0
M  V30 2285 C 235.503 1.59609 0.195317 0
M  V30 2286 O 236.693 1.74174 -0.0300193 0
M  V30 2287 C 233.825 3.4047 -0.171174 0
M  V30 2288 H 235.018 2.46116 -1.71368 0
M  V30 2289 H 232.571 1.26089 -0.923652 0
M  V30 2290 H 233.306 3.15176 0.763832 0
M  V30 2291 H 233.091 3.82109 -0.879514 0
M  V30 2292 H 234.581 4.17576 0.04496 0
M  V30 2293 N 235.018 0.912232 1.28515 0
M  V30 2294 C 235.981 0.404223 2.25607 0
M  V30 2295 C 236.981 -0.468602 1.53821 0
M  V30 2296 O 238.171 -0.271873 1.72065 0
M  V30 2297 C 235.303 -0.420653 3.38295 0
M  V30 2298 H 236.496 1.26188 2.7206 0
M  V30 2299 H 234.049 0.691495 1.40171 0
M  V30 2300 H 234.784 -1.29777 2.97201 0
M  V30 2301 H 234.569 0.204935 3.91564 0
M  V30 2302 H 236.059 -0.766971 4.10496 0
M  V30 2303 N 236.496 -1.42363 0.676048 0
M  V30 2304 C 237.912 -1.55811 0.345718 0
M  V30 2305 C 238.112 -1.65544 -1.14879 0
M  V30 2306 O 237.168 -1.62306 -1.93424 0
M  V30 2307 C 238.481 -2.80746 1.07713 0
M  V30 2308 C 240.029 -2.9452 1.05958 0
M  V30 2309 C 240.504 -4.22318 1.77233 0
M  V30 2310 N 241.995 -4.29233 1.74108 0
M  V30 2311 C 242.73 -5.26935 2.26113 0
M  V30 2312 N 242.226 -6.30783 2.86505 0
M  V30 2313 N 244.019 -5.18741 2.1648 0
M  V30 2314 H 236.17 -1.34289 1.6456 0
M  V30 2315 H 238.433 -0.646506 0.69335 0
M  V30 2316 H 238.139 -2.79696 2.13221 0
M  V30 2317 H 238.013 -3.71676 0.64316 0
M  V30 2318 H 240.4 -2.95097 0.0128255 0
M  V30 2319 H 240.481 -2.04817 1.53244 0
M  V30 2320 H 240.125 -4.22502 2.81877 0
M  V30 2321 H 240.055 -5.10958 1.27396 0
M  V30 2322 H 242.546 -3.54814 1.30059 0
M  V30 2323 H 242.859 -7.01691 3.23805 0
M  V30 2324 H 241.204 -6.31341 2.90575 0
M  V30 2325 H 244.395 -4.36533 1.68987 0
M  V30 2326 H 244.568 -5.94721 2.57316 0
M  V30 2327 N 237.974 -0.419461 -1.51915 0
M  V30 2328 C 238.904 0.391813 -2.30189 0
M  V30 2329 C 239.885 1.03699 -1.34836 0
M  V30 2330 O 241.07 1.04403 -1.63748 0
M  V30 2331 C 238.2 1.50312 -3.13087 0
M  V30 2332 C 237.154 0.9824 -4.16573 0
M  V30 2333 C 236.48 2.18809 -4.8788 0
M  V30 2334 C 237.78 0.0292356 -5.22292 0
M  V30 2335 H 239.474 -0.26135 -2.98257 0
M  V30 2336 H 237.02 -0.127134 -1.43438 0
M  V30 2337 H 238.973 2.07773 -3.66617 0
M  V30 2338 H 237.697 2.18431 -2.42807 0
M  V30 2339 H 236.356 0.430119 -3.64068 0
M  V30 2340 H 236.004 2.85507 -4.14119 0
M  V30 2341 H 235.704 1.84615 -5.57845 0
M  V30 2342 H 237.228 2.76858 -5.44226 0
M  V30 2343 H 238.642 0.512976 -5.71 0
M  V30 2344 H 237.039 -0.2244 -5.9968 0
M  V30 2345 H 238.109 -0.912931 -4.76228 0
M  V30 2346 N 239.452 1.56882 -0.150215 0
M  V30 2347 C 240.362 2.20494 0.801222 0
M  V30 2348 C 241.378 1.19019 1.26927 0
M  V30 2349 O 242.554 1.51607 1.32579 0
M  V30 2350 C 239.619 2.81659 2.02161 0
M  V30 2351 C 238.68 3.9827 1.60249 0
M  V30 2352 C 237.913 4.56508 2.7647 0
M  V30 2353 O 238.136 4.13627 3.92771 0
M  V30 2354 O 237.07 5.46719 2.51757 0
M  V30 2355 H 240.896 3.02315 0.289717 0
M  V30 2356 H 238.481 1.49202 0.0769684 0
M  V30 2357 H 240.363 3.20522 2.73576 0
M  V30 2358 H 239.038 2.02849 2.52258 0
M  V30 2359 H 237.945 3.64117 0.858477 0
M  V30 2360 H 239.278 4.78609 1.14864 0
M  V30 2361 N 240.93 -0.123565 1.57115 0
M  V30 2362 C 242.158 -0.846461 1.88793 0
M  V30 2363 C 242.573 -1.73652 0.740976 0
M  V30 2364 O 241.93 -1.80207 -0.288393 0
M  V30 2365 C 241.981 -1.6837 3.19897 0
M  V30 2366 O 241.702 -0.829477 4.30176 0
M  V30 2367 C 243.203 -2.51214 3.65248 0
M  V30 2368 H 240.423 -0.243573 0.625231 0
M  V30 2369 H 242.967 -0.109324 2.04208 0
M  V30 2370 H 241.122 -2.37364 3.06165 0
M  V30 2371 H 241.536 -1.40651 5.0529 0
M  V30 2372 H 243.01 -3.05497 4.59756 0
M  V30 2373 H 243.487 -3.28359 2.9168 0
M  V30 2374 H 244.093 -1.8747 3.81752 0
M  V30 2375 N 242.408 -1.52605 -0.393616 0
M  V30 2376 C 243.654 -1.68624 -1.13743 0
M  V30 2377 C 244.009 -0.418687 -1.87789 0
M  V30 2378 O 243.302 0.58747 -1.82371 0
M  V30 2379 C 243.496 -2.85721 -2.14705 0
M  V30 2380 C 243.325 -4.23742 -1.50575 0
M  V30 2381 C 242.095 -4.89033 -1.2718 0
M  V30 2382 C 244.293 -5.05293 -0.958311 0
M  V30 2383 N 242.275 -6.11048 -0.591058 0
M  V30 2384 C 243.646 -6.18673 -0.405367 0
M  V30 2385 C 245.701 -4.90517 -0.854274 0
M  V30 2386 C 244.404 -7.18895 0.241434 0
M  V30 2387 C 246.43 -5.90986 -0.221301 0
M  V30 2388 C 245.792 -7.03669 0.320894 0
M  V30 2389 H 241.891 -0.670556 -0.402342 0
M  V30 2390 H 244.475 -1.89946 -0.427607 0
M  V30 2391 H 242.646 -2.65987 -2.83029 0
M  V30 2392 H 244.378 -2.90699 -2.8156 0
M  V30 2393 H 241.133 -4.47672 -1.54554 0
M  V30 2394 H 241.557 -6.76474 -0.266862 0
M  V30 2395 H 246.199 -4.03612 -1.25926 0
M  V30 2396 H 243.917 -8.05413 0.658448 0
M  V30 2397 H 247.503 -5.81626 -0.142111 0
M  V30 2398 H 246.383 -7.80078 0.802956 0
M  V30 2399 N 243.887 0.651787 -1.4349 0
M  V30 2400 C 245.303 0.96762 -1.26922 0
M  V30 2401 C 245.503 2.00602 -0.189982 0
M  V30 2402 O 244.559 2.48793 0.431107 0
M  V30 2403 C 245.872 1.45052 -2.63401 0
M  V30 2404 C 247.42 1.5671 -2.70945 0
M  V30 2405 C 247.895 2.0839 -4.07845 0
M  V30 2406 N 249.386 2.1569 -4.09917 0
M  V30 2407 C 250.121 2.56804 -5.12679 0
M  V30 2408 N 249.617 2.97203 -6.25813 0
M  V30 2409 N 251.41 2.56756 -5.00033 0
M  V30 2410 H 243.561 -0.0353158 -2.12371 0
M  V30 2411 H 245.824 0.0467858 -0.946845 0
M  V30 2412 H 245.53 0.761926 -3.43348 0
M  V30 2413 H 245.404 2.42529 -2.88894 0
M  V30 2414 H 247.791 2.2467 -1.9133 0
M  V30 2415 H 247.872 0.57662 -2.49216 0
M  V30 2416 H 247.516 1.41031 -4.87927 0
M  V30 2417 H 247.446 3.08271 -4.26938 0
M  V30 2418 H 249.937 1.87237 -3.28254 0
M  V30 2419 H 250.25 3.27328 -7.00055 0
M  V30 2420 H 248.595 2.95004 -6.29283 0
M  V30 2421 H 251.786 2.24572 -4.10713 0
M  V30 2422 H 251.959 2.88475 -5.80247 0
M  V30 2423 N 245.365 1.30045 0.890287 0
M  V30 2424 C 246.328 1.15963 1.977 0
M  V30 2425 C 247.328 0.0923777 1.60534 0
M  V30 2426 O 248.518 0.340071 1.70848 0
M  V30 2427 C 245.65 0.775451 3.31963 0
M  V30 2428 H 246.843 2.12502 2.11619 0
M  V30 2429 H 244.396 1.13366 1.07601 0
M  V30 2430 H 245.131 -0.189671 3.23745 0
M  V30 2431 H 244.916 1.54668 3.60306 0
M  V30 2432 H 246.406 0.700251 4.11687 0
M  V30 2433 N 246.843 -1.10192 1.12674 0
M  V30 2434 C 247.773 -2.18652 0.819362 0
M  V30 2435 C 248.754 -1.68698 -0.217915 0
M  V30 2436 O 249.939 -1.94041 -0.0785581 0
M  V30 2437 C 247.069 -3.46202 0.27594 0
M  V30 2438 C 246.023 -4.09444 1.24656 0
M  V30 2439 C 245.349 -5.31725 0.563258 0
M  V30 2440 C 246.649 -4.52863 2.60217 0
M  V30 2441 H 248.343 -2.44622 1.72628 0
M  V30 2442 H 245.889 -1.17571 0.831451 0
M  V30 2443 H 247.842 -4.21372 0.0486149 0
M  V30 2444 H 246.566 -3.1973 -0.666331 0
M  V30 2445 H 245.225 -3.36284 1.45974 0
M  V30 2446 H 244.873 -5.0153 -0.384235 0
M  V30 2447 H 244.573 -5.74991 1.21075 0
M  V30 2448 H 246.097 -6.09624 0.34503 0
M  V30 2449 H 247.511 -5.19294 2.42913 0
M  V30 2450 H 245.908 -5.06986 3.21068 0
M  V30 2451 H 246.978 -3.65656 3.18471 0
M  V30 2452 N 248.321 -0.919034 -1.28029 0
M  V30 2453 C 249.253 -0.368762 -2.26214 0
M  V30 2454 C 250.266 0.495716 -1.55069 0
M  V30 2455 O 251.455 0.30974 -1.75792 0
M  V30 2456 C 248.555 0.491049 -3.35324 0
M  V30 2457 C 247.728 -0.352133 -4.3598 0
M  V30 2458 C 246.787 0.443622 -5.24327 0
M  V30 2459 O 245.813 -0.14566 -5.69014 0
M  V30 2460 N 247.015 1.74545 -5.53637 0
M  V30 2461 H 249.78 -1.21273 -2.74068 0
M  V30 2462 H 247.341 -0.785541 -1.41566 0
M  V30 2463 H 249.333 1.03026 -3.91366 0
M  V30 2464 H 247.903 1.23574 -2.87138 0
M  V30 2465 H 247.123 -1.07269 -3.79324 0
M  V30 2466 H 248.411 -0.928883 -5.00249 0
M  V30 2467 H 247.809 2.24666 -5.19174 0
M  V30 2468 H 246.366 2.23138 -6.12416 0
M  V30 2469 N 249.799 1.42003 -0.683588 0
M  V30 2470 C 251.027 2.05746 -0.218182 0
M  V30 2471 C 251.442 1.51396 1.12804 0
M  V30 2472 O 250.799 0.657303 1.70252 0
M  V30 2473 C 250.85 3.61171 -0.154131 0
M  V30 2474 O 250.571 4.13508 -1.44716 0
M  V30 2475 C 252.072 4.42042 0.333713 0
M  V30 2476 H 249.292 0.662888 -0.10402 0
M  V30 2477 H 251.836 1.81987 -0.9328 0
M  V30 2478 H 249.991 3.84012 0.511231 0
M  V30 2479 H 250.405 5.07453 -1.32632 0
M  V30 2480 H 251.879 5.51028 0.327423 0
M  V30 2481 H 252.356 4.17269 1.37053 0
M  V30 2482 H 252.962 4.24239 -0.300222 0
M  V30 2483 N 251.277 0.427512 1.51691 0
M  V30 2484 C 252.24 -0.377132 2.26076 0
M  V30 2485 C 253.24 -0.958089 1.29141 0
M  V30 2486 O 254.43 -0.83408 1.52934 0
M  V30 2487 C 251.562 -1.53262 3.04506 0
M  V30 2488 H 252.755 0.27464 2.9864 0
M  V30 2489 H 250.308 0.180445 1.55255 0
M  V30 2490 H 251.043 -2.22072 2.36335 0
M  V30 2491 H 250.828 -1.12232 3.75694 0
M  V30 2492 H 252.318 -2.10135 3.60878 0
M  V30 2493 N 252.755 -1.56801 0.158532 0
M  V30 2494 C 253.98 -2.01295 -0.499516 0
M  V30 2495 C 254.405 -1.03799 -1.56867 0
M  V30 2496 O 253.763 -0.0155162 -1.81293 0
M  V30 2497 C 253.811 -3.44469 -1.06647 0
M  V30 2498 O 252.915 -3.50012 -2.18095 0
M  V30 2499 H 252.256 -0.652884 -0.12099 0
M  V30 2500 H 254.786 -2.02958 0.258661 0
M  V30 2501 H 254.796 -3.8351 -1.39227 0
M  V30 2502 H 253.471 -4.14932 -0.283581 0
M  V30 2503 H 252.048 -3.22822 -1.86656 0
M  V30 2504 N 254.233 0.115231 -1.57178 0
M  V30 2505 C 255.479 0.82357 -1.85325 0
M  V30 2506 C 255.812 1.79349 -0.744814 0
M  V30 2507 O 255.087 1.92899 0.249024 0
M  V30 2508 C 255.37 1.57014 -3.24066 0
M  V30 2509 C 255.223 0.619565 -4.45513 0
M  V30 2510 C 256.542 2.52545 -3.60429 0
M  V30 2511 H 253.661 0.297948 -0.674089 0
M  V30 2512 H 256.303 0.0877138 -1.89797 0
M  V30 2513 H 254.453 2.19742 -3.20383 0
M  V30 2514 H 256.125 0.000837639 -4.613 0
M  V30 2515 H 254.368 -0.0686174 -4.33746 0
M  V30 2516 H 255.039 1.17866 -5.3927 0
M  V30 2517 H 257.515 1.9992 -3.64926 0
M  V30 2518 H 256.391 3.01811 -4.58477 0
M  V30 2519 H 256.652 3.35383 -2.88047 0
M  V30 2520 N 255.711 1.52812 0.385517 0
M  V30 2521 C 257.122 1.5993 0.963293 0
M  V30 2522 C 257.473 0.454302 1.90868 0
M  V30 2523 O 256.598 -0.422132 2.12243 0
M  V30 2524 C 257.193 2.89871 1.75387 0
M  V30 2525 C 255.752 2.99389 2.28129 0
M  V30 2526 C 254.899 2.55071 1.08783 0
M  V30 2527 H 257.85 1.5784 0.164948 0
M  V30 2528 H 257.871 2.76553 2.61341 0
M  V30 2529 H 257.383 3.73186 1.06554 0
M  V30 2530 H 255.484 2.20619 3.00263 0
M  V30 2531 H 255.597 4.04096 2.57377 0
M  V30 2532 H 253.961 2.09473 1.4489 0
M  V30 2533 H 254.744 3.40785 0.414807 0
M  V30 2534 N 257.189 -0.644168 1.43834 0
M  V30 2535 C 258.137 -1.77793 1.49974 0
M  V30 2536 C 259.131 -1.65253 0.372536 0
M  V30 2537 O 260.337 -1.7149 0.546924 0
M  V30 2538 H 256.712 -0.58675 0.47035 0
M  V30 2539 H 258.683 -1.69736 2.45423 0
M  V30 2540 C 257.432 -3.16087 1.4486 0
M  V30 2541 H 256.755 -3.26378 2.30905 0
M  V30 2542 H 258.195 -3.95349 1.53217 0
M  V30 2543 C 256.654 -3.36484 0.167463 0
M  V30 2544 O 257.184 -3.94298 -0.767609 0
M  V30 2545 N 255.39 -2.90504 0.0747556 0
M  V30 2546 H 254.937 -2.4364 0.836507 0
M  V30 2547 H 254.895 -3.04527 -0.781714 0
M  V30 2548 N 258.668 -1.30515 -0.883378 0
M  V30 2549 C 259.893 -1.22487 -1.67367 0
M  V30 2550 C 260.318 0.208767 -1.86938 0
M  V30 2551 O 259.676 1.15015 -1.40148 0
M  V30 2552 C 259.724 -1.96041 -3.02655 0
M  V30 2553 O 258.828 -1.28859 -3.91751 0
M  V30 2554 H 258.169 -0.423573 -0.511353 0
M  V30 2555 H 260.699 -1.72362 -1.10239 0
M  V30 2556 H 260.709 -2.05124 -3.52687 0
M  V30 2557 H 259.384 -3.00307 -2.8773 0
M  V30 2558 H 257.961 -1.28141 -3.50192 0
M  V30 2559 N 260.146 1.09593 -1.13257 0
M  V30 2560 C 261.557 1.63229 -0.906274 0
M  V30 2561 C 261.908 1.8811 0.557578 0
M  V30 2562 O 261.033 1.62953 1.42391 0
M  V30 2563 C 261.628 2.96535 -1.63867 0
M  V30 2564 C 260.187 3.47003 -1.45828 0
M  V30 2565 C 259.334 2.2145 -1.66898 0
M  V30 2566 H 262.285 0.92978 -1.28611 0
M  V30 2567 H 262.306 3.64411 -1.09476 0
M  V30 2568 H 261.818 2.78394 -2.70404 0
M  V30 2569 H 259.919 3.70272 -0.415848 0
M  V30 2570 H 260.032 4.24551 -2.2202 0
M  V30 2571 H 258.396 2.30022 -1.09371 0
M  V30 2572 H 259.179 2.0583 -2.74752 0
M  V30 2573 N 261.624 0.925811 1.2754 0
M  V30 2574 C 262.873 0.561084 1.93739 0
M  V30 2575 C 263.186 -0.901685 1.73577 0
M  V30 2576 O 264.392 -1.37511 2.34101 0
M  V30 2577 C 262.848 0.952668 3.47062 0
M  V30 2578 C 262.456 2.43599 3.75983 0
M  V30 2579 C 264.2 0.659103 4.19352 0
M  V30 2580 C 262.107 2.76707 5.22673 0
M  V30 2581 H 261.037 0.206122 0.725279 0
M  V30 2582 H 263.688 1.12637 1.44863 0
M  V30 2583 H 262.07 0.316053 3.94737 0
M  V30 2584 H 263.244 3.12035 3.39073 0
M  V30 2585 H 261.559 2.70125 3.16893 0
M  V30 2586 H 264.156 0.882985 5.27359 0
M  V30 2587 H 264.499 -0.403607 4.14339 0
M  V30 2588 H 265.032 1.25473 3.77494 0
M  V30 2589 H 261.771 3.8188 5.32774 0
M  V30 2590 H 261.291 2.12919 5.60737 0
M  V30 2591 H 262.97 2.6435 5.90532 0
M  V30 2592 N 263.102 -1.41638 0.69111 0
M  V30 2593 C 264.33 -2.05628 0.22909 0
M  V30 2594 C 264.745 -1.51992 -1.11999 0
M  V30 2595 O 264.102 -0.666322 -1.69901 0
M  V30 2596 C 264.153 -3.61084 0.173283 0
M  V30 2597 O 263.874 -4.12735 1.46907 0
M  V30 2598 C 265.375 -4.42213 -0.310266 0
M  V30 2599 H 262.595 -0.662327 0.107534 0
M  V30 2600 H 265.139 -1.81489 0.942438 0
M  V30 2601 H 263.294 -3.84278 -0.490858 0
M  V30 2602 H 263.708 -5.06743 1.35322 0
M  V30 2603 H 265.182 -5.51194 -0.298196 0
M  V30 2604 H 265.659 -4.1799 -1.34838 0
M  V30 2605 H 266.265 -4.24074 0.322716 0
M  V30 2606 N 264.58 -0.43555 -1.51462 0
M  V30 2607 C 265.49 0.383001 -2.31453 0
M  V30 2608 C 266.506 1.02931 -1.4029 0
M  V30 2609 O 267.682 1.02507 -1.73362 0
M  V30 2610 C 264.747 1.47043 -3.13973 0
M  V30 2611 C 263.808 0.844433 -4.20913 0
M  V30 2612 C 263.041 1.88004 -4.9949 0
M  V30 2613 O 263.264 3.10199 -4.78678 0
M  V30 2614 O 262.198 1.47157 -5.83634 0
M  V30 2615 H 266.024 -0.269964 -3.02498 0
M  V30 2616 H 263.609 -0.19813 -1.4808 0
M  V30 2617 H 265.491 2.10113 -3.65281 0
M  V30 2618 H 264.166 2.10751 -2.45695 0
M  V30 2619 H 263.073 0.175729 -3.73687 0
M  V30 2620 H 264.406 0.250869 -4.9156 0
M  V30 2621 N 266.058 1.56714 -0.166846 0
M  V30 2622 C 267.335 1.88412 0.525373 0
M  V30 2623 C 267.715 1.07602 1.81618 0
M  V30 2624 O 267.063 0.168621 2.27877 0
M  V30 2625 C 267.273 3.40363 0.771613 0
M  V30 2626 C 268.621 4.10007 1.1036 0
M  V30 2627 O 269.645 3.45655 0.860304 0
M  V30 2628 O 268.504 5.2369 1.56239 0
M  V30 2629 H 265.598 0.781587 0.270278 0
M  V30 2630 H 268.144 1.68458 -0.204946 0
M  V30 2631 H 266.916 3.91046 -0.141093 0
M  V30 2632 H 266.539 3.65914 1.55541 0
M  V30 2633 N 267.536 -0.106894 1.57237 0
M  V30 2634 C 268.483 -1.13049 2.01217 0
M  V30 2635 C 269.453 -1.40471 0.886403 0
M  V30 2636 O 270.638 -1.52133 1.15153 0
M  V30 2637 C 267.778 -2.4487 2.43172 0
M  V30 2638 C 266.891 -2.24281 3.69218 0
M  V30 2639 C 266.026 -3.49417 4.00101 0
M  V30 2640 C 265.065 -3.24038 5.19294 0
M  V30 2641 N 264.202 -4.41409 5.45988 0
M  V30 2642 H 269.042 -0.748456 2.88448 0
M  V30 2643 H 266.579 -0.358054 1.42676 0
M  V30 2644 H 268.537 -3.21786 2.65537 0
M  V30 2645 H 267.167 -2.80944 1.58967 0
M  V30 2646 H 266.219 -1.38224 3.54398 0
M  V30 2647 H 267.531 -2.01512 4.56283 0
M  V30 2648 H 266.685 -4.34746 4.2318 0
M  V30 2649 H 265.424 -3.75229 3.11535 0
M  V30 2650 H 264.429 -2.37102 4.96047 0
M  V30 2651 H 265.654 -2.99584 6.09447 0
M  V30 2652 H 263.6 -4.67319 4.60379 0
M  V30 2653 H 263.517 -4.21788 6.274 0
M  V30 2654 H 264.785 -5.27836 5.73593 0
M  V30 2655 O 269.053 -1.59537 -0.25105 0
M  V30 2656 H 269.744 -1.71804 -0.894607 0
M  V30 END ATOM
M  V30 BEGIN BOND
M  V30 END BOND
M  V30 END CTAB
M  END
$$$$
