drugbank_target|P96113 Peptide deformylase (DB03661)
 OpenBabel12092120283D

  0  0  0     0  0            999 V3000
M  V30 BEGIN CTAB
M  V30 COUNTS 2714 2738 0 0 0
M  V30 BEGIN ATOM
M  V30 1 H -0.908 1.98254 -0.117106 0
M  V30 2 N 0 1.576 0 0
M  V30 3 C 0.933 2.03868 1.02534 0
M  V30 4 C 1.911 0.928543 1.3348 0
M  V30 5 O 3.095 1.19667 1.45644 0
M  V30 6 C 0.222 2.43627 2.35294 0
M  V30 7 C -0.732 3.65373 2.2001 0
M  V30 8 S 0.101 5.13292 1.52614 0
M  V30 9 C 1.257 5.56322 2.86805 0
M  V30 10 H 1.49 2.90518 0.631377 0
M  V30 11 H -0.977 1.52953 0.210867 0
M  V30 12 H 0.981 2.67203 3.11629 0
M  V30 13 H -0.358 1.57376 2.7183 0
M  V30 14 H -1.165 3.90944 3.18086 0
M  V30 15 H -1.563 3.418 1.51819 0
M  V30 16 H 0.729 5.58782 3.83104 0
M  V30 17 H 1.672 6.56266 2.65933 0
M  V30 18 H 2.08 4.83886 2.90714 0
M  V30 19 N 1.4781 -0.272755 1.55222 0
M  V30 20 C 2.7081 -1.02107 1.79604 0
M  V30 21 C 3.1161 -1.80419 0.569693 0
M  V30 22 O 2.4591 -1.77566 -0.470743 0
M  V30 23 C 2.5211 -2.02675 2.96922 0
M  V30 24 C 2.1851 -1.43299 4.33952 0
M  V30 25 C 3.1821 -0.84853 5.12929 0
M  V30 26 C 0.8671 -1.46012 4.8061 0
M  V30 27 C 2.8611 -0.299109 6.36698 0
M  V30 28 C 0.5481 -0.906833 6.04334 0
M  V30 29 C 1.5461 -0.32733 6.82215 0
M  V30 30 O 1.2341 0.217479 8.03606 0
M  V30 31 H 0.9661 -0.307322 0.602104 0
M  V30 32 H 3.5201 -0.308862 2.03065 0
M  V30 33 H 1.7501 -2.77656 2.69155 0
M  V30 34 H 3.4391 -2.63637 3.08626 0
M  V30 35 H 4.2051 -0.820265 4.78013 0
M  V30 36 H 0.0841 -1.90056 4.2 0
M  V30 37 H 3.6281 0.153852 6.9743 0
M  V30 38 H -0.4749 -0.932339 6.38731 0
M  V30 39 H 0.2931 0.106863 8.1843 0
M  V30 40 N 2.9562 -1.48159 -0.537278 0
M  V30 41 C 4.3722 -1.34118 -0.865129 0
M  V30 42 C 4.5722 -0.346678 -1.98495 0
M  V30 43 O 3.6282 0.234715 -2.51407 0
M  V30 44 C 4.9412 -2.73963 -1.23954 0
M  V30 45 C 6.4892 -2.82397 -1.34984 0
M  V30 46 C 6.9642 -4.22928 -1.75772 0
M  V30 47 N 8.4552 -4.25566 -1.82887 0
M  V30 48 C 9.1902 -5.31235 -2.15817 0
M  V30 49 N 8.6862 -6.47189 -2.47222 0
M  V30 50 N 10.4792 -5.18624 -2.16761 0
M  V30 51 H 2.6302 -2.1144 0.201715 0
M  V30 52 H 4.8932 -0.947598 0.0275949 0
M  V30 53 H 4.5992 -3.48264 -0.490381 0
M  V30 54 H 4.4732 -3.0702 -2.19132 0
M  V30 55 H 6.8602 -2.08356 -2.08978 0
M  V30 56 H 6.9412 -2.5297 -0.379448 0
M  V30 57 H 6.5852 -4.97482 -1.02341 0
M  V30 58 H 6.5152 -4.49794 -2.73848 0
M  V30 59 H 9.0062 -3.41924 -1.60924 0
M  V30 60 H 9.3192 -7.23564 -2.71433 0
M  V30 61 H 7.6642 -6.50476 -2.44757 0
M  V30 62 H 10.8552 -4.27056 -1.91679 0
M  V30 63 H 11.0282 -6.01078 -2.42093 0
M  V30 64 N 4.4343 0.785586 -1.36625 0
M  V30 65 C 5.6833 1.53883 -1.30396 0
M  V30 66 C 5.9963 1.95271 0.113452 0
M  V30 67 O 7.2023 2.69858 0.298142 0
M  V30 68 C 5.6583 2.77808 -2.28802 0
M  V30 69 C 5.2663 2.43574 -3.75999 0
M  V30 70 C 7.0103 3.55783 -2.31558 0
M  V30 71 C 4.9173 3.63919 -4.66173 0
M  V30 72 H 3.8473 0.577678 -0.484566 0
M  V30 73 H 6.4983 0.861705 -1.62009 0
M  V30 74 H 4.8803 3.47339 -1.90188 0
M  V30 75 H 6.0543 1.81916 -4.23371 0
M  V30 76 H 4.3693 1.78803 -3.76056 0
M  V30 77 H 6.9663 4.45205 -2.96137 0
M  V30 78 H 7.3093 3.94644 -1.3252 0
M  V30 79 H 7.8423 2.93235 -2.68809 0
M  V30 80 H 4.5813 3.3015 -5.66287 0
M  V30 81 H 4.1013 4.2473 -4.23515 0
M  V30 82 H 5.7803 4.30901 -4.82632 0
M  V30 83 N 5.9124 1.20967 1.01018 0
M  V30 84 C 7.3284 0.965905 1.27053 0
M  V30 85 C 7.5284 -0.350785 1.98423 0
M  V30 86 O 6.5844 -1.07773 2.28344 0
M  V30 87 C 7.8974 2.15294 2.09926 0
M  V30 88 C 9.4454 2.19463 2.23171 0
M  V30 89 C 9.9204 3.3767 3.09424 0
M  V30 90 N 11.4114 3.37724 3.17012 0
M  V30 91 C 12.1464 4.25837 3.83993 0
M  V30 92 N 11.6424 5.24138 4.53047 0
M  V30 93 N 13.4354 4.1366 3.80581 0
M  V30 94 H 5.5864 2.0565 0.531194 0
M  V30 95 H 7.8494 0.90024 0.297106 0
M  V30 96 H 7.5554 3.10684 1.64828 0
M  V30 97 H 7.4294 2.13923 3.10672 0
M  V30 98 H 9.8164 1.24632 2.6749 0
M  V30 99 H 9.8974 2.2488 1.21912 0
M  V30 100 H 9.5414 4.32791 2.65808 0
M  V30 101 H 9.4714 3.29491 4.10784 0
M  V30 102 H 11.9624 2.6658 2.6785 0
M  V30 103 H 12.2754 5.87684 5.01844 0
M  V30 104 H 10.6204 5.28068 4.5185 0
M  V30 105 H 13.8114 3.36127 3.25785 0
M  V30 106 H 13.9844 4.82538 4.32505 0
M  V30 107 N 7.3905 -1.2043 1.01659 0
M  V30 108 C 8.6365 -1.90079 0.706963 0
M  V30 109 C 8.9695 -1.78648 -0.761474 0
M  V30 110 O 8.2445 -1.17069 -1.55323 0
M  V30 111 C 8.5275 -3.41469 1.14327 0
M  V30 112 C 8.3805 -3.61833 2.67201 0
M  V30 113 C 9.6995 -4.34261 0.714529 0
M  V30 114 H 6.8185 -0.690254 0.2583 0
M  V30 115 H 9.4605 -1.41826 1.26433 0
M  V30 116 H 7.6105 -3.82696 0.669056 0
M  V30 117 H 9.2825 -3.2986 3.22475 0
M  V30 118 H 7.5255 -3.05304 3.08175 0
M  V30 119 H 8.1965 -4.67955 2.92783 0
M  V30 120 H 10.6725 -4.00682 1.12221 0
M  V30 121 H 9.5485 -5.38806 1.04784 0
M  V30 122 H 9.8095 -4.40431 -0.383799 0
M  V30 123 N 8.8686 -0.792821 -1.36206 0
M  V30 124 C 10.1156 -0.366786 -1.99151 0
M  V30 125 C 10.4436 1.06243 -1.62919 0
M  V30 126 O 9.6986 1.74927 -0.877442 0
M  V30 127 C 9.9976 -0.481501 -3.54142 0
M  V30 128 C 9.6636 -1.87202 -4.10203 0
M  V30 129 C 8.3256 -2.25248 -4.25226 0
M  V30 130 C 10.6776 -2.78237 -4.40719 0
M  V30 131 C 8.0056 -3.53723 -4.68078 0
M  V30 132 C 10.3576 -4.06144 -4.85005 0
M  V30 133 C 9.0216 -4.44207 -4.98234 0
M  V30 134 H 8.2916 -0.134217 -0.728743 0
M  V30 135 H 10.9386 -1.01094 -1.62641 0
M  V30 136 H 9.2436 0.246146 -3.91026 0
M  V30 137 H 10.9406 -0.132844 -4.0078 0
M  V30 138 H 7.5306 -1.56639 -3.98951 0
M  V30 139 H 11.7146 -2.50097 -4.28679 0
M  V30 140 H 6.9706 -3.8308 -4.76508 0
M  V30 141 H 11.1446 -4.76796 -5.07581 0
M  V30 142 H 8.7716 -5.43814 -5.31197 0
M  V30 143 N 10.3467 1.47872 -0.545128 0
M  V30 144 C 11.5947 2.02093 -0.016553 0
M  V30 145 C 11.9157 1.42305 1.3332 0
M  V30 146 O 11.1857 0.593853 1.86682 0
M  V30 147 H 9.7657 0.746993 -0.00313038 0
M  V30 148 H 12.4277 1.81414 -0.712397 0
M  V30 149 H 11.5237 3.11996 0.0805422 0
M  V30 150 N 11.8248 0.280983 1.55075 0
M  V30 151 C 13.1018 -0.386207 1.91749 0
M  V30 152 C 13.4818 -1.73264 1.20594 0
M  V30 153 O 12.8298 -2.26034 0.334784 0
M  V30 154 C 13.0398 -0.520687 3.45094 0
M  V30 155 C 14.3878 -0.800865 4.16979 0
M  V30 156 O 15.4118 -0.605271 3.5102 0
M  V30 157 O 14.2708 -1.1753 5.33712 0
M  V30 158 H 11.3648 -0.212408 0.799257 0
M  V30 159 H 13.9108 0.327568 1.66509 0
M  V30 160 H 12.6828 0.426633 3.88967 0
M  V30 161 H 12.3058 -1.2837 3.76307 0
M  V30 162 N 13.3029 -1.57598 0.00835791 0
M  V30 163 C 14.7139 -1.7892 -0.53333 0
M  V30 164 C 15.0649 -0.916609 -1.73473 0
M  V30 165 O 14.1899 -0.121336 -2.1606 0
M  V30 166 C 14.7849 -3.24488 -0.974313 0
M  V30 167 C 13.3439 -3.46878 -1.46125 0
M  V30 168 C 12.4909 -2.74157 -0.416302 0
M  V30 169 H 15.4419 -1.56958 0.234495 0
M  V30 170 H 15.4629 -3.3306 -1.83988 0
M  V30 171 H 14.9749 -3.87972 -0.099718 0
M  V30 172 H 13.0759 -2.8862 -2.35646 0
M  V30 173 H 13.1889 -4.55572 -1.48295 0
M  V30 174 H 11.5529 -2.39022 -0.87981 0
M  V30 175 H 12.3359 -3.40345 0.44947 0
M  V30 176 N 14.781 0.264519 -1.55364 0
M  V30 177 C 16.027 0.99646 -1.76631 0
M  V30 178 C 16.36 1.85632 -0.570478 0
M  V30 179 O 15.635 1.89647 0.43175 0
M  V30 180 C 15.918 1.87187 -3.07625 0
M  V30 181 C 15.771 1.04138 -4.37579 0
M  V30 182 C 17.09 2.85749 -3.34717 0
M  V30 183 H 14.209 0.360841 -0.642622 0
M  V30 184 H 16.851 0.268218 -1.88097 0
M  V30 185 H 15.001 2.49279 -2.9798 0
M  V30 186 H 16.673 0.440517 -4.59192 0
M  V30 187 H 14.916 0.345115 -4.32425 0
M  V30 188 H 15.587 1.68729 -5.2558 0
M  V30 189 H 18.063 2.33793 -3.4421 0
M  V30 190 H 16.939 3.44136 -4.27623 0
M  V30 191 H 17.2 3.61311 -2.54768 0
M  V30 192 N 16.2591 1.48442 0.529413 0
M  V30 193 C 17.1891 1.65902 1.64313 0
M  V30 194 C 18.1701 0.507897 1.6234 0
M  V30 195 O 19.3551 0.740503 1.79528 0
M  V30 196 C 16.4851 1.69911 3.02898 0
M  V30 197 C 15.4391 2.8453 3.19729 0
M  V30 198 C 14.7651 2.73629 4.59381 0
M  V30 199 C 16.0651 4.25821 3.02447 0
M  V30 200 H 17.7591 2.5914 1.49955 0
M  V30 201 H 15.3051 1.24709 0.719982 0
M  V30 202 H 17.2581 1.80715 3.80684 0
M  V30 203 H 15.9821 0.732524 3.18279 0
M  V30 204 H 14.6411 2.73283 2.44361 0
M  V30 205 H 14.2891 1.74938 4.71599 0
M  V30 206 H 13.9891 3.50541 4.71588 0
M  V30 207 H 15.5131 2.86401 5.39265 0
M  V30 208 H 16.9271 4.37898 3.70024 0
M  V30 209 H 15.3241 5.03735 3.26146 0
M  V30 210 H 16.3941 4.42244 1.98867 0
M  V30 211 N 17.7372 -0.778329 1.37039 0
M  V30 212 C 19.1532 -1.07796 1.17695 0
M  V30 213 C 19.3532 -2.01498 0.00860115 0
M  V30 214 O 18.4092 -2.43901 -0.653352 0
M  V30 215 C 19.7222 -1.68178 2.49272 0
M  V30 216 C 21.2702 -1.80467 2.55735 0
M  V30 217 C 21.7452 -2.44263 3.87427 0
M  V30 218 N 23.2362 -2.51721 3.88833 0
M  V30 219 C 23.9712 -3.01919 4.87476 0
M  V30 220 N 23.4672 -3.5234 5.96513 0
M  V30 221 N 25.2602 -3.00733 4.74885 0
M  V30 222 H 17.4112 -0.156032 2.11826 0
M  V30 223 H 19.6742 -0.131844 0.938787 0
M  V30 224 H 19.3802 -1.06796 3.35093 0
M  V30 225 H 19.2542 -2.67554 2.65885 0
M  V30 226 H 21.6412 -2.40984 1.70325 0
M  V30 227 H 21.7222 -0.798656 2.43013 0
M  V30 228 H 21.3662 -1.84388 4.73248 0
M  V30 229 H 21.2962 -3.45458 3.9745 0
M  V30 230 H 23.7872 -2.1603 3.10063 0
M  V30 231 H 24.1002 -3.89027 6.67741 0
M  V30 232 H 22.4452 -3.50462 6.00168 0
M  V30 233 H 25.6362 -2.60638 3.88826 0
M  V30 234 H 25.8092 -3.39545 5.51918 0
M  V30 235 N 19.2153 -1.21501 -1.00376 0
M  V30 236 C 20.1623 -0.975387 -2.09177 0
M  V30 237 C 21.1323 0.0990615 -1.65804 0
M  V30 238 O 22.3173 -0.0483147 -1.90739 0
M  V30 239 C 19.4573 -0.547507 -3.40729 0
M  V30 240 C 18.5703 -1.69153 -3.97506 0
M  V30 241 C 17.7053 -1.2127 -5.17172 0
M  V30 242 C 16.7443 -2.32897 -5.66061 0
M  V30 243 N 15.8813 -1.86138 -6.76976 0
M  V30 244 H 20.7213 -1.9068 -2.29009 0
M  V30 245 H 18.2583 -0.950257 -1.12288 0
M  V30 246 H 20.2163 -0.280667 -4.16255 0
M  V30 247 H 18.8463 0.346904 -3.20931 0
M  V30 248 H 17.8983 -2.07298 -3.18954 0
M  V30 249 H 19.2103 -2.5316 -4.29781 0
M  V30 250 H 18.3643 -0.902591 -5.99948 0
M  V30 251 H 17.1033 -0.342692 -4.86495 0
M  V30 252 H 16.1083 -2.64709 -4.81881 0
M  V30 253 H 17.3333 -3.20396 -5.98768 0
M  V30 254 H 15.2793 -1.01484 -6.48103 0
M  V30 255 H 15.1963 -2.63717 -7.08512 0
M  V30 256 H 16.4643 -1.58165 -7.63285 0
M  V30 257 N 20.6934 1.19889 -1.02296 0
M  V30 258 C 22.1094 1.41462 -0.738954 0
M  V30 259 C 22.3094 1.89721 0.678846 0
M  V30 260 O 21.3654 2.07016 1.4457 0
M  V30 261 C 22.6784 2.43083 -1.77005 0
M  V30 262 C 24.2264 2.5684 -1.78892 0
M  V30 263 C 24.7014 3.61709 -2.80945 0
M  V30 264 N 26.1924 3.69199 -2.79725 0
M  V30 265 C 26.9274 4.50019 -3.55345 0
M  V30 266 N 26.4234 5.34592 -4.40662 0
M  V30 267 N 28.2164 4.44612 -3.43914 0
M  V30 268 H 20.3674 0.868827 -1.93817 0
M  V30 269 H 22.6304 0.44399 -0.837602 0
M  V30 270 H 22.3364 2.14636 -2.78612 0
M  V30 271 H 22.2104 3.4217 -1.58744 0
M  V30 272 H 24.5974 2.84614 -0.779674 0
M  V30 273 H 24.6784 1.57927 -2.01228 0
M  V30 274 H 24.3224 3.34678 -3.82038 0
M  V30 275 H 24.2524 4.60259 -2.5587 0
M  V30 276 H 26.7434 3.08794 -2.17842 0
M  V30 277 H 27.0564 5.93363 -4.95116 0
M  V30 278 H 25.4014 5.34073 -4.44737 0
M  V30 279 H 28.5924 3.7758 -2.76679 0
M  V30 280 H 28.7654 5.0736 -4.031 0
M  V30 281 N 22.1715 0.800033 1.35784 0
M  V30 282 C 23.1345 0.211565 2.28221 0
M  V30 283 C 24.1345 -0.59728 1.49296 0
M  V30 284 O 25.3245 -0.416721 1.69142 0
M  V30 285 C 22.4565 -0.705846 3.33513 0
M  V30 286 H 23.6495 1.02677 2.81776 0
M  V30 287 H 21.2025 0.570211 1.45528 0
M  V30 288 H 21.9375 -1.54498 2.85133 0
M  V30 289 H 21.7225 -0.127655 3.91892 0
M  V30 290 H 23.2125 -1.11211 4.02519 0
M  V30 291 N 23.6496 -1.47581 0.552962 0
M  V30 292 C 24.5966 -2.29957 -0.197108 0
M  V30 293 C 25.5666 -1.38799 -0.912359 0
M  V30 294 O 26.7516 -1.67761 -0.908888 0
M  V30 295 C 23.8916 -3.22672 -1.22379 0
M  V30 296 C 23.0046 -4.28919 -0.515038 0
M  V30 297 C 22.1396 -5.0879 -1.52664 0
M  V30 298 C 21.1786 -6.06815 -0.802631 0
M  V30 299 N 20.3156 -6.7966 -1.76086 0
M  V30 300 H 25.1556 -2.93578 0.511486 0
M  V30 301 H 22.6926 -1.4471 0.264067 0
M  V30 302 H 24.6506 -3.74845 -1.83159 0
M  V30 303 H 23.2806 -2.60925 -1.90047 0
M  V30 304 H 22.3326 -3.79835 0.207192 0
M  V30 305 H 23.6446 -4.98773 0.0523425 0
M  V30 306 H 22.7986 -5.65091 -2.20809 0
M  V30 307 H 21.5376 -4.38828 -2.12794 0
M  V30 308 H 20.5426 -5.49695 -0.107238 0
M  V30 309 H 21.7676 -6.78784 -0.207135 0
M  V30 310 H 19.7136 -6.12432 -2.35081 0
M  V30 311 H 19.6306 -7.45669 -1.24552 0
M  V30 312 H 20.8986 -7.40538 -2.43359 0
M  V30 313 N 25.1277 -0.289203 -1.54924 0
M  V30 314 C 26.5387 0.205791 -1.85562 0
M  V30 315 C 26.8897 1.54351 -1.2112 0
M  V30 316 O 26.0147 2.10435 -0.504601 0
M  V30 317 C 26.6097 0.380177 -3.3666 0
M  V30 318 C 25.1687 0.819395 -3.67373 0
M  V30 319 C 24.3157 -0.079159 -2.77187 0
M  V30 320 H 27.2667 -0.510577 -1.50262 0
M  V30 321 H 27.2877 1.21659 -3.60526 0
M  V30 322 H 26.7997 -0.593589 -3.83534 0
M  V30 323 H 24.9007 1.80413 -3.26009 0
M  V30 324 H 25.0137 0.646957 -4.74712 0
M  V30 325 H 23.3777 0.439565 -2.50878 0
M  V30 326 H 24.1607 -1.04906 -3.26878 0
M  V30 327 N 26.6058 1.57591 -0.0167156 0
M  V30 328 C 27.8518 1.91567 0.665582 0
M  V30 329 C 28.1848 0.892298 1.72487 0
M  V30 330 O 27.4598 -0.0867127 1.94307 0
M  V30 331 C 27.7428 3.36069 1.29342 0
M  V30 332 C 27.5958 4.49135 0.244541 0
M  V30 333 C 28.9148 3.803 2.21495 0
M  V30 334 H 26.0338 0.69666 0.240488 0
M  V30 335 H 28.6758 1.89866 -0.0714356 0
M  V30 336 H 26.8258 3.3765 1.92158 0
M  V30 337 H 28.4978 4.59689 -0.385228 0
M  V30 338 H 26.7408 4.3165 -0.431379 0
M  V30 339 H 27.4118 5.47242 0.723207 0
M  V30 340 H 29.8878 3.80377 1.68678 0
M  V30 341 H 28.7638 4.82127 2.62382 0
M  V30 342 H 29.0248 3.15104 3.101 0
M  V30 343 N 28.0839 -0.256276 1.55502 0
M  V30 344 C 29.3119 -1.00342 1.8094 0
M  V30 345 C 29.7269 -1.79307 0.59114 0
M  V30 346 O 29.0839 -1.77114 -0.440081 0
M  V30 347 C 29.1349 -1.94875 3.04476 0
M  V30 348 O 28.8559 -1.19107 4.21598 0
M  V30 349 C 30.3569 -2.81266 3.42644 0
M  V30 350 H 27.5769 -0.295685 0.602338 0
M  V30 351 H 30.1209 -0.281998 2.02546 0
M  V30 352 H 28.2759 -2.62457 2.84947 0
M  V30 353 H 28.6899 -1.82969 4.91551 0
M  V30 354 H 30.1639 -3.43362 4.32211 0
M  V30 355 H 30.6409 -3.51897 2.62802 0
M  V30 356 H 31.2469 -2.1915 3.64491 0
M  V30 357 N 29.562 -1.4872 -0.521534 0
M  V30 358 C 30.509 -1.63871 -1.62527 0
M  V30 359 C 31.479 -0.480559 -1.58996 0
M  V30 360 O 32.664 -0.705085 -1.77294 0
M  V30 361 C 29.804 -1.69227 -3.00759 0
M  V30 362 C 28.917 -2.96207 -3.14461 0
M  V30 363 C 28.052 -2.92671 -4.43303 0
M  V30 364 C 27.091 -4.14318 -4.50563 0
M  V30 365 N 26.228 -4.0881 -5.70805 0
M  V30 366 H 31.068 -2.58123 -1.48918 0
M  V30 367 H 28.605 -1.28 -0.724878 0
M  V30 368 H 30.563 -1.70314 -3.80853 0
M  V30 369 H 29.193 -0.784586 -3.1312 0
M  V30 370 H 28.245 -3.04826 -2.27564 0
M  V30 371 H 29.557 -3.86192 -3.15686 0
M  V30 372 H 28.711 -2.92206 -5.31696 0
M  V30 373 H 27.45 -2.00429 -4.44612 0
M  V30 374 H 26.455 -4.15049 -3.60575 0
M  V30 375 H 27.68 -5.07729 -4.50986 0
M  V30 376 H 25.626 -3.19394 -5.72995 0
M  V30 377 H 25.543 -4.92509 -5.7356 0
M  V30 378 H 26.811 -4.12418 -6.61462 0
M  V30 379 N 31.0401 0.771051 -1.3745 0
M  V30 380 C 32.2871 1.52963 -1.32697 0
M  V30 381 C 32.6151 1.94299 0.0883274 0
M  V30 382 O 31.8701 1.64397 1.0617 0
M  V30 383 C 32.1691 2.80676 -2.2126 0
M  V30 384 C 31.8351 2.58389 -3.69521 0
M  V30 385 C 30.4971 2.52019 -4.09927 0
M  V30 386 C 32.8491 2.38469 -4.63446 0
M  V30 387 C 30.1771 2.23721 -5.42371 0
M  V30 388 C 32.5291 2.11694 -5.96128 0
M  V30 389 C 31.1931 2.03769 -6.35637 0
M  V30 390 H 30.4631 0.559732 -0.485573 0
M  V30 391 H 33.1101 0.888083 -1.69662 0
M  V30 392 H 31.4151 3.49392 -1.77291 0
M  V30 393 H 33.1121 3.38557 -2.14895 0
M  V30 394 H 29.7021 2.6421 -3.37478 0
M  V30 395 H 33.8861 2.4238 -4.33089 0
M  V30 396 H 29.1421 2.16081 -5.71943 0
M  V30 397 H 33.3161 1.9528 -6.6846 0
M  V30 398 H 30.9431 1.81606 -7.38189 0
M  V30 399 N 32.5182 1.22032 0.997298 0
M  V30 400 C 33.7952 0.950823 1.70935 0
M  V30 401 C 34.1752 -0.535292 2.042 0
M  V30 402 O 33.5232 -1.50217 1.72183 0
M  V30 403 C 33.7332 1.84386 2.96315 0
M  V30 404 C 35.0812 2.09732 3.69185 0
M  V30 405 O 36.1052 1.81798 3.06314 0
M  V30 406 O 34.9642 2.57018 4.82291 0
M  V30 407 H 32.0582 0.357204 0.745878 0
M  V30 408 H 34.6042 1.32997 1.05404 0
M  V30 409 H 33.3762 2.84928 2.68201 0
M  V30 410 H 32.9992 1.46602 3.69586 0
M  V30 411 N 33.9963 -1.19345 1.0293 0
M  V30 412 C 34.9063 -2.26245 0.620515 0
M  V30 413 C 35.9223 -1.70486 -0.347928 0
M  V30 414 O 37.0983 -2.00347 -0.205704 0
M  V30 415 C 34.1633 -3.46693 -0.0218957 0
M  V30 416 C 33.2243 -4.17632 0.994102 0
M  V30 417 C 32.4573 -5.32329 0.382253 0
M  V30 418 O 32.6803 -5.64552 -0.814676 0
M  V30 419 O 31.6143 -5.91664 1.10531 0
M  V30 420 H 35.4403 -2.63453 1.51083 0
M  V30 421 H 33.0253 -1.26207 0.799513 0
M  V30 422 H 34.9073 -4.19683 -0.380072 0
M  V30 423 H 33.5823 -3.11333 -0.886209 0
M  V30 424 H 32.4893 -3.4676 1.40387 0
M  V30 425 H 33.8223 -4.56964 1.8288 0
M  V30 426 N 35.4744 -0.807222 -1.35358 0
M  V30 427 C 36.4224 -0.20614 -2.31685 0
M  V30 428 C 37.4164 0.644445 -1.56663 0
M  V30 429 O 38.6224 0.537538 -1.71786 0
M  V30 430 H 34.9974 -0.0479006 -0.750473 0
M  V30 431 H 36.9684 -1.03369 -2.79924 0
M  V30 432 C 35.7174 0.630212 -3.41941 0
M  V30 433 H 35.0404 -0.0149558 -3.99797 0
M  V30 434 H 36.4804 1.01716 -4.11619 0
M  V30 435 C 34.9394 1.79601 -2.85035 0
M  V30 436 O 35.4694 2.89351 -2.78637 0
M  V30 437 N 33.6754 1.60774 -2.42074 0
M  V30 438 H 33.2224 0.715009 -2.47478 0
M  V30 439 H 33.1804 2.38933 -2.04349 0
M  V30 440 N 36.9525 1.47285 -0.560781 0
M  V30 441 C 37.8825 2.32857 0.173105 0
M  V30 442 C 38.8635 1.44009 0.905281 0
M  V30 443 O 40.0485 1.7286 0.885046 0
M  V30 444 C 37.1785 3.25861 1.20133 0
M  V30 445 C 36.1325 4.23978 0.585388 0
M  V30 446 C 35.4585 5.06332 1.7185 0
M  V30 447 C 36.7585 5.20242 -0.463178 0
M  V30 448 H 38.4525 2.94466 -0.541307 0
M  V30 449 H 35.9985 1.41601 -0.261764 0
M  V30 450 H 37.9515 3.84569 1.72293 0
M  V30 451 H 36.6755 2.62315 1.94573 0
M  V30 452 H 35.3345 3.66501 0.085054 0
M  V30 453 H 34.9825 4.39186 2.45203 0
M  V30 454 H 34.6825 5.72762 1.31213 0
M  V30 455 H 36.2065 5.67899 2.24329 0
M  V30 456 H 37.6205 5.73293 -0.027502 0
M  V30 457 H 36.0175 5.94896 -0.788627 0
M  V30 458 H 37.0875 4.65504 -1.35773 0
M  V30 459 N 38.4306 0.297415 1.54768 0
M  V30 460 C 39.3776 -0.580276 2.23386 0
M  V30 461 C 40.3476 -1.13238 1.21517 0
M  V30 462 O 41.5326 -1.17757 1.50126 0
M  V30 463 C 38.6726 -1.74801 2.97555 0
M  V30 464 C 37.7856 -1.22764 4.1419 0
M  V30 465 C 36.9206 -2.35895 4.75949 0
M  V30 466 C 35.9596 -1.80974 5.84735 0
M  V30 467 N 35.0966 -2.87664 6.40464 0
M  V30 468 H 39.9366 0.0114833 2.97998 0
M  V30 469 H 37.4736 0.0174361 1.4709 0
M  V30 470 H 39.4316 -2.43475 3.38786 0
M  V30 471 H 38.0616 -2.31145 2.25326 0
M  V30 472 H 37.1136 -0.433271 3.77924 0
M  V30 473 H 38.4256 -0.785551 4.92575 0
M  V30 474 H 37.5796 -3.12523 5.20014 0
M  V30 475 H 36.3186 -2.83429 3.96887 0
M  V30 476 H 35.3236 -1.02834 5.40097 0
M  V30 477 H 36.5486 -1.34348 6.65678 0
M  V30 478 H 34.4946 -3.34538 5.64287 0
M  V30 479 H 34.4116 -2.4794 7.14186 0
M  V30 480 H 35.6796 -3.642 6.89187 0
M  V30 481 N 39.9087 -1.5758 0.0250728 0
M  V30 482 C 40.8557 -2.09973 -0.958129 0
M  V30 483 C 41.8257 -1.00085 -1.3256 0
M  V30 484 O 43.0107 -1.27481 -1.41962 0
M  V30 485 C 40.1507 -2.62812 -2.2366 0
M  V30 486 C 39.2637 -3.86693 -1.92594 0
M  V30 487 C 38.3987 -4.27941 -3.14707 0
M  V30 488 C 37.4377 -5.44591 -2.79442 0
M  V30 489 N 36.5747 -5.81014 -3.94167 0
M  V30 490 H 41.4147 -2.937 -0.504428 0
M  V30 491 H 38.9517 -1.45172 -0.237392 0
M  V30 492 H 40.9097 -2.91536 -2.98434 0
M  V30 493 H 39.5397 -1.81922 -2.66654 0
M  V30 494 H 38.5917 -3.64723 -1.0808 0
M  V30 495 H 39.9037 -4.71547 -1.62619 0
M  V30 496 H 39.0577 -4.58079 -3.97804 0
M  V30 497 H 37.7967 -3.41845 -3.4784 0
M  V30 498 H 36.8017 -5.1415 -1.94755 0
M  V30 499 H 38.0267 -6.32382 -2.47528 0
M  V30 500 H 35.9727 -4.97874 -4.2715 0
M  V30 501 H 35.8897 -6.60498 -3.67801 0
M  V30 502 H 37.1577 -6.15756 -4.7798 0
M  V30 503 N 41.3868 0.248026 -1.55636 0
M  V30 504 C 42.6148 0.993808 -1.81469 0
M  V30 505 C 43.0298 1.78991 -0.60064 0
M  V30 506 O 42.3868 1.77345 0.430682 0
M  V30 507 C 42.4378 1.93258 -3.05506 0
M  V30 508 O 42.1588 1.16869 -4.22224 0
M  V30 509 C 43.6598 2.79444 -3.4413 0
M  V30 510 H 40.8798 0.292486 -0.603898 0
M  V30 511 H 43.4238 0.271253 -2.02693 0
M  V30 512 H 41.5788 2.60943 -2.86335 0
M  V30 513 H 41.9928 1.80359 -4.92515 0
M  V30 514 H 43.4668 3.41066 -4.34026 0
M  V30 515 H 43.9438 3.50499 -2.64665 0
M  V30 516 H 44.5498 2.17214 -3.65648 0
M  V30 517 N 42.8649 1.48995 0.513639 0
M  V30 518 C 44.1139 1.57093 1.2651 0
M  V30 519 C 44.4269 0.257091 1.93903 0
M  V30 520 O 45.6329 0.216478 2.70636 0
M  V30 521 C 44.0889 2.77118 2.29638 0
M  V30 522 C 43.6969 4.15209 1.68241 0
M  V30 523 C 45.4409 2.94538 3.05692 0
M  V30 524 C 43.3479 5.26474 2.69406 0
M  V30 525 H 42.2779 0.584876 0.475854 0
M  V30 526 H 44.9289 1.7536 0.540487 0
M  V30 527 H 43.3109 2.52319 3.05207 0
M  V30 528 H 44.4849 4.50094 0.987505 0
M  V30 529 H 42.7999 4.03042 1.04623 0
M  V30 530 H 45.3969 3.74832 3.8132 0
M  V30 531 H 45.7399 2.04614 3.62545 0
M  V30 532 H 46.2729 3.19316 2.37238 0
M  V30 533 H 43.0119 6.18417 2.17351 0
M  V30 534 H 42.5319 4.96058 3.37175 0
M  V30 535 H 44.2109 5.55277 3.32078 0
M  V30 536 N 44.343 -0.763751 1.37857 0
M  V30 537 C 45.253 -1.90817 1.36478 0
M  V30 538 C 46.269 -1.71997 0.263248 0
M  V30 539 O 47.445 -1.95095 0.499979 0
M  V30 540 C 44.51 -3.2605 1.17864 0
M  V30 541 C 43.571 -3.57467 2.3773 0
M  V30 542 C 42.804 -4.86249 2.19995 0
M  V30 543 O 43.027 -5.57884 1.18836 0
M  V30 544 O 41.961 -5.16911 3.08361 0
M  V30 545 H 45.787 -1.94933 2.32884 0
M  V30 546 H 43.372 -0.907619 1.1867 0
M  V30 547 H 45.254 -4.06924 1.09504 0
M  V30 548 H 43.929 -3.22769 0.245372 0
M  V30 549 H 42.836 -2.76796 2.51664 0
M  V30 550 H 44.169 -3.655 3.29652 0
M  V30 551 N 45.8211 -1.22559 -0.990812 0
M  V30 552 C 47.2371 -0.985996 -1.255 0
M  V30 553 C 47.4371 0.319173 -1.98956 0
M  V30 554 O 46.4931 1.04127 -2.3003 0
M  V30 555 C 47.8061 -2.18607 -2.06474 0
M  V30 556 C 49.3541 -2.22985 -2.19651 0
M  V30 557 C 49.8291 -3.4255 -3.04012 0
M  V30 558 N 51.3201 -3.42725 -3.11599 0
M  V30 559 C 52.0551 -4.31892 -3.7717 0
M  V30 560 N 51.5511 -5.31279 -4.44651 0
M  V30 561 N 53.3441 -4.19662 -3.73952 0
M  V30 562 H 45.4951 -2.06469 -0.49841 0
M  V30 563 H 47.7581 -0.904853 -0.282747 0
M  V30 564 H 47.4641 -3.13267 -1.59865 0
M  V30 565 H 47.3381 -2.18838 -3.07229 0
M  V30 566 H 49.7251 -1.28871 -2.65474 0
M  V30 567 H 49.8061 -2.26791 -1.18319 0
M  V30 568 H 49.4501 -4.36965 -2.58889 0
M  V30 569 H 49.3801 -3.35984 -4.0549 0
M  V30 570 H 51.8711 -2.70807 -2.63575 0
M  V30 571 H 52.1841 -5.95593 -4.92431 0
M  V30 572 H 50.5291 -5.3519 -4.43392 0
M  V30 573 H 53.7201 -3.41268 -3.20396 0
M  V30 574 H 53.8931 -4.89358 -4.24774 0
M  V30 575 N 47.2992 1.18797 -1.03562 0
M  V30 576 C 48.2322 2.2105 -0.56676 0
M  V30 577 C 49.2102 1.57704 0.395993 0
M  V30 578 O 50.3942 1.85908 0.311498 0
M  V30 579 C 47.5212 3.38259 0.172704 0
M  V30 580 C 46.5672 4.19987 -0.74252 0
M  V30 581 S 47.4002 4.87199 -2.22254 0
M  V30 582 C 48.5562 6.07813 -1.49379 0
M  V30 583 H 48.7892 2.60478 -1.43312 0
M  V30 584 H 46.3222 1.29151 -0.846133 0
M  V30 585 H 48.2802 4.06191 0.593191 0
M  V30 586 H 46.9412 2.97252 1.01488 0
M  V30 587 H 46.1342 5.03709 -0.171265 0
M  V30 588 H 45.7362 3.57408 -1.10163 0
M  V30 589 H 48.0282 6.72948 -0.784056 0
M  V30 590 H 48.9712 6.69435 -2.30786 0
M  V30 591 H 49.3792 5.55781 -0.988331 0
M  V30 592 N 48.7773 0.814389 1.34928 0
M  V30 593 C 50.0263 0.394871 1.97797 0
M  V30 594 C 50.3393 -1.04555 1.65311 0
M  V30 595 O 51.5453 -1.56856 2.21604 0
M  V30 596 C 50.0013 0.655103 3.53888 0
M  V30 597 C 49.6093 2.10858 3.95276 0
M  V30 598 C 51.3533 0.301329 4.23429 0
M  V30 599 C 49.2603 2.31415 5.44244 0
M  V30 600 H 48.1903 0.143913 0.740139 0
M  V30 601 H 50.8413 0.999544 1.53888 0
M  V30 602 H 49.2233 -0.0196253 3.95995 0
M  V30 603 H 50.3973 2.82176 3.64298 0
M  V30 604 H 48.7123 2.42297 3.38646 0
M  V30 605 H 51.3093 0.432869 5.32945 0
M  V30 606 H 51.6523 -0.75331 4.09428 0
M  V30 607 H 52.1853 0.930288 3.86769 0
M  V30 608 H 48.9243 3.35353 5.63222 0
M  V30 609 H 48.4443 1.6463 5.76764 0
M  V30 610 H 50.1233 2.13352 6.10811 0
M  V30 611 N 50.2554 -1.46986 0.568584 0
M  V30 612 C 51.1654 -2.33942 -0.17555 0
M  V30 613 C 52.1814 -1.48891 -0.90041 0
M  V30 614 O 53.3574 -1.81794 -0.86676 0
M  V30 615 C 50.4224 -3.25811 -1.18524 0
M  V30 616 C 49.4834 -4.26757 -0.466582 0
M  V30 617 C 48.7164 -5.14236 -1.42817 0
M  V30 618 O 48.9394 -5.04379 -2.66379 0
M  V30 619 O 47.8734 -5.94412 -0.946453 0
M  V30 620 H 51.6994 -2.98896 0.538036 0
M  V30 621 H 49.2844 -1.4573 0.329097 0
M  V30 622 H 51.1664 -3.82527 -1.76779 0
M  V30 623 H 49.8414 -2.63471 -1.88055 0
M  V30 624 H 48.7484 -3.73769 0.157451 0
M  V30 625 H 50.0814 -4.91843 0.187485 0
M  V30 626 N 51.7335 -0.305618 -1.54608 0
M  V30 627 C 52.9615 0.304775 -2.04643 0
M  V30 628 C 53.3765 1.47167 -1.18268 0
M  V30 629 O 52.7335 1.81296 -0.209328 0
M  V30 630 C 52.7845 0.756564 -3.53495 0
M  V30 631 O 52.5055 -0.36389 -4.36586 0
M  V30 632 C 54.0065 1.43163 -4.19546 0
M  V30 633 H 51.2265 0.0655481 -0.667791 0
M  V30 634 H 53.7705 -0.446592 -1.99564 0
M  V30 635 H 51.9255 1.45794 -3.58919 0
M  V30 636 H 52.3395 -0.0113121 -5.24499 0
M  V30 637 H 53.8135 1.69886 -5.25207 0
M  V30 638 H 54.2905 2.37318 -3.69563 0
M  V30 639 H 54.8965 0.773307 -4.18211 0
M  V30 640 N 53.2116 1.57565 -0.0334293 0
M  V30 641 C 54.1446 2.05997 0.981866 0
M  V30 642 C 55.1226 0.956647 1.3148 0
M  V30 643 O 56.3066 1.22729 1.43073 0
M  V30 644 C 53.4336 2.48564 2.30074 0
M  V30 645 C 52.4796 3.69958 2.12211 0
M  V30 646 S 53.3126 5.16414 1.41692 0
M  V30 647 C 54.4686 5.6228 2.7494 0
M  V30 648 H 54.7016 2.91792 0.569612 0
M  V30 649 H 52.2346 1.53366 0.178376 0
M  V30 650 H 54.1926 2.73753 3.05892 0
M  V30 651 H 52.8536 1.63106 2.68431 0
M  V30 652 H 52.0466 3.97603 3.09722 0
M  V30 653 H 51.6486 3.44943 1.44535 0
M  V30 654 H 53.9406 5.66783 3.71165 0
M  V30 655 H 54.8836 6.61759 2.51953 0
M  V30 656 H 55.2916 4.89944 2.80384 0
M  V30 657 N 54.6897 -0.239769 1.55765 0
M  V30 658 C 55.9197 -0.982743 1.8173 0
M  V30 659 C 56.3277 -1.7917 0.607835 0
M  V30 660 O 55.6707 -1.78525 -0.432973 0
M  V30 661 C 55.7327 -1.96332 3.01155 0
M  V30 662 C 55.3967 -1.34062 4.36894 0
M  V30 663 C 56.3937 -0.739539 5.14613 0
M  V30 664 C 54.0787 -1.35784 4.83599 0
M  V30 665 C 56.0727 -0.163989 6.37189 0
M  V30 666 C 53.7597 -0.778441 6.06122 0
M  V30 667 C 54.7577 -0.182548 6.82756 0
M  V30 668 O 54.4457 0.387887 8.02964 0
M  V30 669 H 54.1777 -0.294481 0.608487 0
M  V30 670 H 56.7317 -0.26572 2.03674 0
M  V30 671 H 54.9617 -2.71884 2.74984 0
M  V30 672 H 56.6507 -2.57032 3.14149 0
M  V30 673 H 57.4167 -0.718687 4.79646 0
M  V30 674 H 53.2957 -1.81105 4.23936 0
M  V30 675 H 56.8397 0.301753 6.96947 0
M  V30 676 H 52.7367 -0.796645 6.40565 0
M  V30 677 H 53.5047 0.28044 8.18019 0
M  V30 678 N 56.1678 -1.49265 -0.50573 0
M  V30 679 C 57.1178 -1.6198 -1.60457 0
M  V30 680 C 58.1018 -0.47568 -1.53708 0
M  V30 681 O 59.2938 -0.728392 -1.61318 0
M  V30 682 C 56.4228 -1.68526 -2.99089 0
M  V30 683 C 55.5088 -2.885 -3.10852 0
M  V30 684 N 55.8998 -4.12635 -2.92517 0
M  V30 685 C 54.1978 -2.86338 -3.41945 0
M  V30 686 C 54.8988 -4.93258 -3.08337 0
M  V30 687 N 53.8748 -4.26533 -3.37003 0
M  V30 688 H 57.6768 -2.55681 -1.44928 0
M  V30 689 H 55.1908 -1.45972 -0.711752 0
M  V30 690 H 57.1878 -1.75732 -3.78053 0
M  V30 691 H 55.8478 -0.759584 -3.1569 0
M  V30 692 H 56.8588 -4.42689 -2.68787 0
M  V30 693 H 53.5358 -2.03129 -3.64753 0
M  V30 694 H 54.9258 -6.01856 -2.98695 0
M  V30 695 N 57.6459 0.756429 -1.3826 0
M  V30 696 C 58.8759 1.54341 -1.3734 0
M  V30 697 C 59.2839 1.89159 0.0393917 0
M  V30 698 O 58.6269 1.5307 1.01565 0
M  V30 699 C 58.6889 2.87238 -2.16182 0
M  V30 700 C 58.3529 2.74973 -3.65019 0
M  V30 701 C 59.3499 2.44962 -4.58574 0
M  V30 702 C 57.0349 2.92515 -4.08338 0
M  V30 703 C 59.0289 2.32642 -5.93428 0
M  V30 704 C 56.7159 2.79815 -5.43274 0
M  V30 705 C 57.7139 2.49921 -6.35632 0
M  V30 706 O 57.4019 2.37275 -7.68086 0
M  V30 707 H 57.1339 0.484281 -0.471643 0
M  V30 708 H 59.6879 0.944152 -1.82414 0
M  V30 709 H 57.9179 3.49342 -1.65822 0
M  V30 710 H 59.6069 3.48731 -2.07705 0
M  V30 711 H 60.3729 2.31081 -4.26412 0
M  V30 712 H 56.2519 3.14781 -3.368 0
M  V30 713 H 59.7959 2.0923 -6.65484 0
M  V30 714 H 55.6929 2.93269 -5.75034 0
M  V30 715 H 56.4609 2.52509 -7.78577 0
M  V30 716 N 59.124 1.23083 0.984299 0
M  V30 717 C 60.401 0.9689 1.69917 0
M  V30 718 C 60.781 -0.513604 2.04757 0
M  V30 719 O 60.129 -1.48383 1.73767 0
M  V30 720 C 60.339 1.87518 2.94343 0
M  V30 721 C 61.687 2.13636 3.6694 0
M  V30 722 O 62.711 1.85036 3.04368 0
M  V30 723 O 61.57 2.62119 4.79537 0
M  V30 724 H 58.664 0.365095 0.742048 0
M  V30 725 H 61.21 1.34107 1.03987 0
M  V30 726 H 59.982 2.87756 2.65164 0
M  V30 727 H 59.605 1.50514 3.6801 0
M  V30 728 N 60.6021 -1.18246 1.0419 0
M  V30 729 C 61.8501 -1.87886 0.744543 0
M  V30 730 C 62.1711 -1.8082 -0.730006 0
M  V30 731 O 61.4411 -1.22736 -1.52685 0
M  V30 732 H 60.0211 -0.695556 0.272417 0
M  V30 733 H 62.6831 -1.43494 1.31892 0
M  V30 734 H 61.7791 -2.9389 1.05049 0
M  V30 735 N 62.0802 -0.821533 -1.34494 0
M  V30 736 C 63.3262 -0.409552 -1.98622 0
M  V30 737 C 63.6592 1.0244 -1.64984 0
M  V30 738 O 62.9342 1.71325 -0.920758 0
M  V30 739 C 63.2172 -0.610458 -3.54888 0
M  V30 740 C 63.0702 -2.09043 -3.98273 0
M  V30 741 C 64.3892 -0.0455379 -4.40076 0
M  V30 742 H 61.5082 -0.15028 -0.721516 0
M  V30 743 H 64.1502 -1.03384 -1.59411 0
M  V30 744 H 62.3002 -0.079044 -3.8842 0
M  V30 745 H 63.9722 -2.68537 -3.75081 0
M  V30 746 H 62.2152 -2.58139 -3.48635 0
M  V30 747 H 62.8862 -2.18182 -5.07051 0
M  V30 748 H 65.3622 -0.499557 -4.1309 0
M  V30 749 H 64.2382 -0.215922 -5.48475 0
M  V30 750 H 64.4992 1.04939 -4.29465 0
M  V30 751 N 63.5583 1.46682 -0.576371 0
M  V30 752 C 64.8063 2.02013 -0.0594163 0
M  V30 753 C 65.1273 1.45101 1.30271 0
M  V30 754 O 64.3973 0.633317 1.8538 0
M  V30 755 H 62.9773 0.746759 -0.0189745 0
M  V30 756 H 65.6393 1.79862 -0.750717 0
M  V30 757 H 64.7353 3.12097 0.014345 0
M  V30 758 N 65.0364 0.313813 1.54444 0
M  V30 759 C 65.9664 -0.549454 2.26943 0
M  V30 760 C 66.9474 -1.12741 1.27372 0
M  V30 761 O 68.1324 -1.15436 1.56167 0
M  V30 762 C 65.2624 -1.71523 3.01989 0
M  V30 763 C 64.2164 -1.26703 4.08816 0
M  V30 764 C 63.5424 -2.51898 4.71647 0
M  V30 765 C 64.8424 -0.388962 5.2085 0
M  V30 766 H 66.5364 0.0552661 2.99349 0
M  V30 767 H 64.0824 0.0280207 1.43973 0
M  V30 768 H 66.0354 -2.32535 3.51433 0
M  V30 769 H 64.7594 -2.34639 2.27183 0
M  V30 770 H 63.4184 -0.679896 3.6024 0
M  V30 771 H 63.0664 -3.13356 3.93468 0
M  V30 772 H 62.7664 -2.22605 5.43802 0
M  V30 773 H 64.2904 -3.1369 5.23861 0
M  V30 774 H 65.7044 -0.905107 5.6611 0
M  V30 775 H 64.1014 -0.18924 5.99802 0
M  V30 776 H 65.1714 0.582699 4.81386 0
M  V30 777 N 66.5145 -1.57545 0.0417849 0
M  V30 778 C 67.4775 -2.09885 -0.92093 0
M  V30 779 C 68.4775 -1.01648 -1.24596 0
M  V30 780 O 69.6675 -1.27759 -1.1842 0
M  V30 781 C 66.7995 -2.57527 -2.23367 0
M  V30 782 H 67.9925 -2.96236 -0.467382 0
M  V30 783 H 65.5455 -1.5493 -0.206467 0
M  V30 784 H 66.2805 -1.74542 -2.73323 0
M  V30 785 H 66.0655 -3.36613 -2.01083 0
M  V30 786 H 67.5555 -2.98201 -2.92346 0
M  V30 787 N 67.9926 0.231505 -1.5589 0
M  V30 788 C 68.9556 1.27028 -1.90779 0
M  V30 789 C 69.9556 1.40308 -0.785507 0
M  V30 790 O 71.1456 1.38744 -1.05336 0
M  V30 791 C 68.2776 2.64566 -2.14983 0
M  V30 792 H 69.4706 0.973017 -2.83677 0
M  V30 793 H 67.0236 0.471486 -1.49019 0
M  V30 794 H 67.7586 2.99406 -1.24604 0
M  V30 795 H 67.5436 2.56305 -2.96732 0
M  V30 796 H 69.0336 3.39543 -2.43105 0
M  V30 797 N 69.4707 1.49531 0.497807 0
M  V30 798 C 70.8817 1.52344 1.07927 0
M  V30 799 C 71.2327 0.311469 1.93712 0
M  V30 800 O 70.3577 -0.578405 2.08527 0
M  V30 801 C 70.9527 2.76062 1.96405 0
M  V30 802 C 69.5117 2.81643 2.49709 0
M  V30 803 C 68.6587 2.46299 1.27404 0
M  V30 804 H 71.6097 1.56182 0.281576 0
M  V30 805 H 71.6307 2.56405 2.81135 0
M  V30 806 H 71.1427 3.64254 1.33943 0
M  V30 807 H 69.2437 1.97739 3.15801 0
M  V30 808 H 69.3567 3.83891 2.86643 0
M  V30 809 H 67.7207 1.98148 1.60029 0
M  V30 810 H 68.5037 3.36769 0.66645 0
M  V30 811 N 70.9488 -0.749086 1.3866 0
M  V30 812 C 71.8808 -1.87273 1.32142 0
M  V30 813 C 72.8938 -1.61127 0.232787 0
M  V30 814 O 74.0828 -1.71623 0.49069 0
M  V30 815 C 71.1828 -3.23005 1.02571 0
M  V30 816 C 70.3558 -3.7662 2.22433 0
M  V30 817 C 69.4148 -4.90879 1.89537 0
M  V30 818 O 68.4408 -5.05276 2.62078 0
M  V30 819 N 69.6428 -5.74198 0.853031 0
M  V30 820 H 72.4078 -1.93373 2.28969 0
M  V30 821 H 69.9688 -0.929216 1.32579 0
M  V30 822 H 71.9608 -3.96992 0.786085 0
M  V30 823 H 70.5308 -3.12262 0.145249 0
M  V30 824 H 69.7508 -2.94147 2.62434 0
M  V30 825 H 71.0388 -4.09173 3.02415 0
M  V30 826 H 70.4368 -5.6514 0.25155 0
M  V30 827 H 68.9938 -6.48313 0.67329 0
M  V30 828 N 72.4269 -1.23603 -0.977757 0
M  V30 829 C 73.6729 -1.07129 -1.72195 0
M  V30 830 C 74.0059 0.390501 -1.90233 0
M  V30 831 O 73.2809 1.28902 -1.45653 0
M  V30 832 C 73.5639 -1.80031 -3.11867 0
M  V30 833 C 73.4169 -3.33899 -3.01383 0
M  V30 834 C 74.7359 -1.56492 -4.11337 0
M  V30 835 H 71.8549 -0.390571 -0.624999 0
M  V30 836 H 74.4969 -1.52142 -1.13811 0
M  V30 837 H 72.6469 -1.41768 -3.6171 0
M  V30 838 H 74.3189 -3.81699 -2.59043 0
M  V30 839 H 72.5619 -3.62796 -2.37827 0
M  V30 840 H 73.2329 -3.801 -4.00285 0
M  V30 841 H 75.7089 -1.89757 -3.70313 0
M  V30 842 H 74.5849 -2.09973 -5.07151 0
M  V30 843 H 74.8459 -0.500874 -4.39254 0
M  V30 844 N 73.905 1.17692 -1.04816 0
M  V30 845 C 75.153 1.87488 -0.754497 0
M  V30 846 C 75.474 1.81205 0.720407 0
M  V30 847 O 74.744 1.23544 1.52032 0
M  V30 848 H 73.324 0.694101 -0.276102 0
M  V30 849 H 75.986 1.42793 -1.32651 0
M  V30 850 H 75.082 2.93328 -1.06606 0
M  V30 851 N 75.3831 0.828654 1.34056 0
M  V30 852 C 76.6321 0.415828 1.97367 0
M  V30 853 C 76.9451 -1.02796 1.6641 0
M  V30 854 O 78.1511 -1.54497 2.23255 0
M  V30 855 C 76.6071 0.692601 3.53173 0
M  V30 856 C 76.2151 2.15038 3.93017 0
M  V30 857 C 77.9591 0.346222 4.23086 0
M  V30 858 C 75.8661 2.37174 5.41758 0
M  V30 859 H 74.7961 0.151755 0.738571 0
M  V30 860 H 77.4471 1.01581 1.52819 0
M  V30 861 H 75.8291 0.0223764 3.95994 0
M  V30 862 H 77.0031 2.86024 3.61285 0
M  V30 863 H 75.3181 2.45875 3.36057 0
M  V30 864 H 77.9151 0.48937 5.32456 0
M  V30 865 H 78.2581 -0.709842 4.10204 0
M  V30 866 H 78.7911 0.971258 3.85761 0
M  V30 867 H 75.5301 3.41308 5.59633 0
M  V30 868 H 75.0501 1.70738 5.74986 0
M  V30 869 H 76.7291 2.19818 6.08514 0
M  V30 870 N 76.8612 -1.46375 0.584142 0
M  V30 871 C 78.0862 -2.07268 0.0740405 0
M  V30 872 C 78.5112 -1.42979 -1.22223 0
M  V30 873 O 77.8692 -0.514092 -1.73859 0
M  V30 874 C 77.9172 -3.60518 -0.0767769 0
M  V30 875 O 77.0212 -3.96533 -1.13292 0
M  V30 876 H 76.3622 -0.660961 0.0634524 0
M  V30 877 H 78.8922 -1.87991 0.807492 0
M  V30 878 H 78.9022 -4.07021 -0.282489 0
M  V30 879 H 77.5772 -4.06702 0.86986 0
M  V30 880 H 76.1542 -3.61738 -0.905553 0
M  V30 881 N 78.3393 -0.321999 -1.54275 0
M  V30 882 C 79.2713 0.578671 -2.21775 0
M  V30 883 C 80.2843 1.08109 -1.21722 0
M  V30 884 O 81.4733 0.994938 -1.482 0
M  V30 885 C 78.5733 1.80661 -2.86731 0
M  V30 886 C 77.7463 1.44314 -4.12907 0
M  V30 887 C 76.8053 2.52845 -4.61472 0
M  V30 888 O 75.8313 2.17054 -5.2619 0
M  V30 889 N 77.0333 3.83748 -4.35566 0
M  V30 890 H 79.7983 0.000709447 -2.997 0
M  V30 891 H 77.3593 -0.145132 -1.61248 0
M  V30 892 H 79.3513 2.52655 -3.16145 0
M  V30 893 H 77.9213 2.29245 -2.12521 0
M  V30 894 H 77.1413 0.554906 -3.90275 0
M  V30 895 H 78.4293 1.17598 -4.95023 0
M  V30 896 H 77.8273 4.15625 -3.83761 0
M  V30 897 H 76.3843 4.51977 -4.69638 0
M  V30 898 N 79.8174 1.5752 -0.0501392 0
M  V30 899 C 81.2334 1.56631 0.306402 0
M  V30 900 C 81.4334 1.0577 1.71508 0
M  V30 901 O 80.4894 0.713837 2.422 0
M  V30 902 C 81.8024 3.00393 0.135811 0
M  V30 903 C 83.3504 3.12315 0.206993 0
M  V30 904 C 83.8254 4.57954 0.064944 0
M  V30 905 N 85.3164 4.63041 0.121254 0
M  V30 906 C 86.0514 5.73389 0.0354381 0
M  V30 907 N 85.5474 6.92724 -0.102666 0
M  V30 908 N 87.3404 5.62026 0.090946 0
M  V30 909 H 79.4914 1.88903 -0.971046 0
M  V30 910 H 81.7544 0.869876 -0.376855 0
M  V30 911 H 81.4604 3.41635 -0.835384 0
M  V30 912 H 81.3344 3.66373 0.897275 0
M  V30 913 H 83.7214 2.70973 1.16866 0
M  V30 914 H 83.8024 2.49016 -0.585208 0
M  V30 915 H 83.4464 4.99981 -0.893394 0
M  V30 916 H 83.3764 5.19258 0.876277 0
M  V30 917 H 85.8674 3.77216 0.227284 0
M  V30 918 H 86.1804 7.72633 -0.160882 0
M  V30 919 H 84.5254 6.94864 -0.137737 0
M  V30 920 H 87.7164 4.67684 0.197388 0
M  V30 921 H 87.8894 6.47997 0.0206089 0
M  V30 922 N 81.2955 -0.223234 1.56011 0
M  V30 923 C 82.5425 -0.947875 1.78946 0
M  V30 924 C 82.8705 -1.844 0.618608 0
M  V30 925 O 82.1255 -1.91629 -0.397093 0
M  V30 926 C 82.4245 -1.81948 3.0762 0
M  V30 927 C 82.0905 -1.07672 4.37856 0
M  V30 928 C 80.7525 -0.871544 4.73242 0
M  V30 929 C 83.1045 -0.552081 5.18268 0
M  V30 930 C 80.4325 -0.129791 5.86556 0
M  V30 931 C 82.7845 0.17632 6.32354 0
M  V30 932 C 81.4485 0.39277 6.66343 0
M  V30 933 H 80.7185 -0.346852 0.654809 0
M  V30 934 H 83.3655 -0.216171 1.90276 0
M  V30 935 H 81.6705 -2.61899 2.91404 0
M  V30 936 H 83.3675 -2.38227 3.22566 0
M  V30 937 H 79.9575 -1.24662 4.1007 0
M  V30 938 H 84.1415 -0.698076 4.91366 0
M  V30 939 H 79.3975 0.048153 6.11381 0
M  V30 940 H 83.5715 0.590367 6.93893 0
M  V30 941 H 81.1985 0.969466 7.53993 0
M  V30 942 N 82.7736 -1.49793 -0.48987 0
M  V30 943 C 84.0206 -1.59841 -1.24327 0
M  V30 944 C 84.3486 -0.290135 -1.92324 0
M  V30 945 O 83.6036 0.722749 -1.81865 0
M  V30 946 C 83.9026 -2.71488 -2.32441 0
M  V30 947 C 83.5686 -4.12614 -1.81826 0
M  V30 948 C 82.2306 -4.51017 -1.67742 0
M  V30 949 C 84.5826 -5.00892 -1.4407 0
M  V30 950 C 81.9106 -5.75459 -1.14297 0
M  V30 951 C 84.2626 -6.25863 -0.920742 0
M  V30 952 C 82.9266 -6.63086 -0.766383 0
M  V30 953 H 82.1966 -0.584899 -0.454944 0
M  V30 954 H 84.8436 -1.83663 -0.542215 0
M  V30 955 H 83.1486 -2.4168 -3.0838 0
M  V30 956 H 84.8456 -2.76469 -2.90458 0
M  V30 957 H 81.4356 -3.82307 -1.93751 0
M  V30 958 H 85.6196 -4.7187 -1.53794 0
M  V30 959 H 80.8756 -6.02989 -1.01068 0
M  V30 960 H 85.0496 -6.9364 -0.619448 0
M  V30 961 H 82.6766 -7.59393 -0.350083 0
M  V30 962 N 84.2517 0.741722 -1.39055 0
M  V30 963 C 85.4977 1.50336 -1.36113 0
M  V30 964 C 85.8307 1.94148 0.0450796 0
M  V30 965 O 85.1057 1.66301 1.00868 0
M  V30 966 C 85.3887 2.74773 -2.32749 0
M  V30 967 C 85.2417 2.37023 -3.82283 0
M  V30 968 C 86.5607 3.76846 -2.27322 0
M  V30 969 H 83.6797 0.545351 -0.495743 0
M  V30 970 H 86.3217 0.848624 -1.69995 0
M  V30 971 H 84.4717 3.30639 -2.03986 0
M  V30 972 H 86.1437 1.8684 -4.21768 0
M  V30 973 H 84.3867 1.69334 -3.99385 0
M  V30 974 H 85.0577 3.26104 -4.45376 0
M  V30 975 H 87.5337 3.30548 -2.5274 0
M  V30 976 H 86.4097 4.6159 -2.97028 0
M  V30 977 H 86.6707 4.23286 -1.27599 0
M  V30 978 N 85.7298 1.2412 0.971189 0
M  V30 979 C 86.6628 0.97373 2.06382 0
M  V30 980 C 87.6408 -0.0912662 1.62344 0
M  V30 981 O 88.8248 0.0449365 1.88446 0
M  V30 982 C 85.9518 0.468746 3.35441 0
M  V30 983 C 84.9978 1.52176 3.98428 0
M  V30 984 S 85.8308 3.10203 4.36503 0
M  V30 985 C 86.9868 2.61398 5.68702 0
M  V30 986 H 87.2198 1.89893 2.28753 0
M  V30 987 H 84.7528 1.07466 1.10862 0
M  V30 988 H 86.7108 0.184012 4.10087 0
M  V30 989 H 85.3718 -0.435688 3.11064 0
M  V30 990 H 84.5648 1.11876 4.91426 0
M  V30 991 H 84.1668 1.75632 3.30196 0
M  V30 992 H 86.4588 2.03992 6.4606 0
M  V30 993 H 87.4018 3.52972 6.13854 0
M  V30 994 H 87.8098 2.01941 5.27143 0
M  V30 995 N 87.2079 -1.17134 1.05439 0
M  V30 996 C 88.4849 -1.83411 0.679699 0
M  V30 997 C 88.8649 -1.9368 -0.839726 0
M  V30 998 O 88.2129 -1.47325 -1.74664 0
M  V30 999 C 88.4229 -3.20918 1.37159 0
M  V30 1000 C 89.7709 -3.96796 1.51123 0
M  V30 1001 O 90.7949 -3.30406 1.3308 0
M  V30 1002 O 89.6539 -5.15778 1.80651 0
M  V30 1003 H 86.7479 -0.79154 0.239569 0
M  V30 1004 H 89.2939 -1.24411 1.15413 0
M  V30 1005 H 88.0659 -3.08428 2.40807 0
M  V30 1006 H 87.6889 -3.87587 0.886674 0
M  V30 1007 N 88.686 -0.835752 -1.33615 0
M  V30 1008 C 89.932 -0.430596 -1.98176 0
M  V30 1009 C 90.265 1.00684 -1.66061 0
M  V30 1010 O 89.54 1.70339 -0.938877 0
M  V30 1011 C 89.823 -0.648065 -3.5422 0
M  V30 1012 C 89.676 -2.13255 -3.96033 0
M  V30 1013 C 90.995 -0.0922113 -4.40003 0
M  V30 1014 H 88.114 -0.157924 -0.719881 0
M  V30 1015 H 90.756 -1.05069 -1.58305 0
M  V30 1016 H 88.906 -0.120237 -3.88314 0
M  V30 1017 H 90.578 -2.725 -3.72211 0
M  V30 1018 H 88.821 -2.61823 -3.45878 0
M  V30 1019 H 89.492 -2.23547 -5.04708 0
M  V30 1020 H 91.968 -0.543343 -4.12537 0
M  V30 1021 H 90.844 -0.274083 -5.48215 0
M  V30 1022 H 91.105 1.00378 -4.30554 0
M  V30 1023 N 90.1641 1.46063 -0.591896 0
M  V30 1024 C 91.4121 2.01938 -0.0808391 0
M  V30 1025 C 91.7331 1.46475 1.28725 0
M  V30 1026 O 91.0031 0.652944 1.84698 0
M  V30 1027 H 89.5831 0.746516 -0.0268938 0
M  V30 1028 H 92.2451 1.79055 -0.769752 0
M  V30 1029 H 91.3411 3.12094 -0.0187578 0
M  V30 1030 N 91.6422 0.330177 1.54103 0
M  V30 1031 C 92.5902 -0.548226 2.26047 0
M  V30 1032 C 93.5842 -1.11309 1.27698 0
M  V30 1033 O 94.7902 -1.06036 1.45452 0
M  V30 1034 H 91.1652 -0.195456 0.726155 0
M  V30 1035 H 93.1362 0.0807567 2.98291 0
M  V30 1036 C 91.8852 -1.69415 3.03634 0
M  V30 1037 H 91.2082 -1.26876 3.79134 0
M  V30 1038 H 92.6482 -2.28423 3.5721 0
M  V30 1039 C 91.1072 -2.61569 2.12328 0
M  V30 1040 O 91.6372 -3.63462 1.7105 0
M  V30 1041 N 89.8432 -2.29952 1.77681 0
M  V30 1042 H 89.3902 -1.47134 2.11446 0
M  V30 1043 H 89.3482 -2.91871 1.16869 0
M  V30 1044 N 93.1203 -1.57491 0.0584922 0
M  V30 1045 C 94.3683 -1.92597 -0.612436 0
M  V30 1046 C 94.6893 -0.938162 -1.70949 0
M  V30 1047 O 93.9593 0.0158301 -1.95894 0
M  V30 1048 H 92.5393 -0.710964 -0.229214 0
M  V30 1049 H 95.2013 -1.94571 0.113218 0
M  V30 1050 H 94.2973 -2.94038 -1.04633 0
M  V30 1051 N 94.5984 0.214957 -1.56127 0
M  V30 1052 C 96.0094 0.781386 -1.69562 0
M  V30 1053 C 96.3604 1.84707 -0.66165 0
M  V30 1054 O 95.4854 2.156 0.185927 0
M  V30 1055 C 96.0804 1.42411 -3.07416 0
M  V30 1056 C 94.6394 1.93786 -3.22683 0
M  V30 1057 C 93.7864 0.800438 -2.65496 0
M  V30 1058 H 96.7374 -0.00980633 -1.58697 0
M  V30 1059 H 96.7584 2.29309 -3.0364 0
M  V30 1060 H 96.2704 0.64826 -3.82648 0
M  V30 1061 H 94.3714 2.74152 -2.52332 0
M  V30 1062 H 94.4844 2.1133 -4.29973 0
M  V30 1063 H 92.8484 1.2095 -2.2415 0
M  V30 1064 H 93.6314 0.0371471 -3.4328 0
M  V30 1065 N 96.0765 1.50051 0.48192 0
M  V30 1066 C 97.3225 1.60736 1.2366 0
M  V30 1067 C 97.6555 0.301786 1.91841 0
M  V30 1068 O 96.9305 -0.696025 1.8162 0
M  V30 1069 C 97.2135 2.78009 2.28874 0
M  V30 1070 C 97.0665 4.18416 1.65069 0
M  V30 1071 C 98.3855 2.90867 3.30279 0
M  V30 1072 H 95.5045 0.585031 0.448228 0
M  V30 1073 H 98.1465 1.82402 0.531946 0
M  V30 1074 H 96.2965 2.59667 2.88973 0
M  V30 1075 H 97.9685 4.48322 1.0865 0
M  V30 1076 H 96.2115 4.23177 0.954148 0
M  V30 1077 H 96.8825 4.96381 2.41474 0
M  V30 1078 H 99.3585 3.07623 2.80191 0
M  V30 1079 H 98.2345 3.74566 4.01238 0
M  V30 1080 H 98.4955 2.01021 3.93755 0
M  V30 1081 N 97.5546 -0.734337 1.39446 0
M  V30 1082 C 98.5176 -1.83004 1.37994 0
M  V30 1083 C 99.5176 -1.58397 0.276938 0
M  V30 1084 O 100.708 -1.65785 0.534875 0
M  V30 1085 C 97.8396 -3.20802 1.1532 0
M  V30 1086 H 99.0326 -1.85694 2.35494 0
M  V30 1087 H 96.5856 -0.938059 1.25021 0
M  V30 1088 H 97.3206 -3.23772 0.185036 0
M  V30 1089 H 97.1056 -3.4006 1.95197 0
M  V30 1090 H 98.5956 -4.00862 1.17046 0
M  V30 1091 N 99.0327 -1.24633 -0.964593 0
M  V30 1092 C 100.279 -1.08949 -1.71049 0
M  V30 1093 C 100.612 0.370302 -1.90637 0
M  V30 1094 O 99.8867 1.27349 -1.47011 0
M  V30 1095 C 100.17 -1.83329 -3.0994 0
M  V30 1096 C 100.023 -3.37077 -2.97824 0
M  V30 1097 C 101.342 -1.60846 -4.09654 0
M  V30 1098 H 98.4607 -0.397178 -0.620821 0
M  V30 1099 H 101.103 -1.5334 -1.12191 0
M  V30 1100 H 99.2527 -1.45597 -3.60186 0
M  V30 1101 H 100.925 -3.84425 -2.5498 0
M  V30 1102 H 99.1677 -3.65298 -2.33965 0
M  V30 1103 H 99.8387 -3.84324 -3.96231 0
M  V30 1104 H 102.315 -1.93674 -3.68279 0
M  V30 1105 H 101.191 -2.1534 -5.04896 0
M  V30 1106 H 101.452 -0.547434 -4.38698 0
M  V30 1107 N 100.511 1.16574 -1.06058 0
M  V30 1108 C 101.76 1.86385 -0.770944 0
M  V30 1109 C 102.073 1.82448 0.705129 0
M  V30 1110 O 103.279 2.47815 1.10905 0
M  V30 1111 C 101.735 3.34466 -1.32893 0
M  V30 1112 C 101.343 3.46883 -2.83507 0
M  V30 1113 C 103.087 4.09548 -1.11672 0
M  V30 1114 C 100.994 4.89036 -3.32562 0
M  V30 1115 H 99.9238 0.698181 -0.284709 0
M  V30 1116 H 102.575 1.31583 -1.27899 0
M  V30 1117 H 100.957 3.88859 -0.748662 0
M  V30 1118 H 102.131 3.02663 -3.47465 0
M  V30 1119 H 100.446 2.85232 -3.03368 0
M  V30 1120 H 103.043 5.14434 -1.45814 0
M  V30 1121 H 103.386 4.16264 -0.0549535 0
M  V30 1122 H 103.919 3.61387 -1.66265 0
M  V30 1123 H 100.658 4.87499 -4.38207 0
M  V30 1124 H 100.178 5.3389 -2.73351 0
M  V30 1125 H 101.857 5.57843 -3.2775 0
M  V30 1126 N 101.989 0.842826 1.3317 0
M  V30 1127 C 102.937 0.267495 2.31057 0
M  V30 1128 C 103.931 -0.602682 1.58316 0
M  V30 1129 O 105.137 -0.491803 1.73151 0
M  V30 1130 H 101.512 0.0677813 0.748939 0
M  V30 1131 H 103.483 1.10754 2.77085 0
M  V30 1132 C 102.232 -0.539331 3.43492 0
M  V30 1133 H 101.555 0.12095 3.99617 0
M  V30 1134 H 102.995 -0.90767 4.14171 0
M  V30 1135 C 101.454 -1.71981 2.89697 0
M  V30 1136 O 101.984 -2.81862 2.86211 0
M  V30 1137 N 100.19 -1.54299 2.46252 0
M  V30 1138 H 99.7369 -0.649143 2.49287 0
M  V30 1139 H 99.6949 -2.33431 2.10612 0
M  V30 1140 N 103.467 -1.45747 0.599634 0
M  V30 1141 C 104.878 -1.85853 0.177681 0
M  V30 1142 C 105.229 -1.50102 -1.26348 0
M  V30 1143 O 104.354 -0.923905 -1.95686 0
M  V30 1144 C 104.949 -3.37326 0.315688 0
M  V30 1145 C 103.508 -3.76365 -0.0515144 0
M  V30 1146 C 102.655 -2.69722 0.643822 0
M  V30 1147 H 105.606 -1.36661 0.806814 0
M  V30 1148 H 105.627 -3.77778 -0.454321 0
M  V30 1149 H 105.139 -3.63315 1.36468 0
M  V30 1150 H 103.24 -3.55993 -1.09999 0
M  V30 1151 H 103.353 -4.77916 0.336594 0
M  V30 1152 H 101.717 -2.54567 0.0822881 0
M  V30 1153 H 102.5 -2.98549 1.6948 0
M  V30 1154 N 104.945 -0.338344 -1.53925 0
M  V30 1155 C 105.855 0.529421 -2.28548 0
M  V30 1156 C 106.871 1.11645 -1.3346 0
M  V30 1157 O 108.047 1.13325 -1.66492 0
M  V30 1158 C 105.112 1.66713 -3.03987 0
M  V30 1159 C 104.173 1.11041 -4.14691 0
M  V30 1160 C 103.406 2.19389 -4.86522 0
M  V30 1161 O 103.629 3.40013 -4.57982 0
M  V30 1162 O 102.563 1.83976 -5.73094 0
M  V30 1163 H 106.389 -0.0770399 -3.03602 0
M  V30 1164 H 103.974 -0.103555 -1.49041 0
M  V30 1165 H 105.856 2.32918 -3.5118 0
M  V30 1166 H 104.531 2.25949 -2.31794 0
M  V30 1167 H 103.438 0.413024 -3.71813 0
M  V30 1168 H 104.771 0.562975 -4.8897 0
M  V30 1169 N 106.423 1.57458 -0.0668435 0
M  V30 1170 C 107.672 1.92477 0.602947 0
M  V30 1171 C 107.985 0.948419 1.71068 0
M  V30 1172 O 109.191 1.19124 2.43971 0
M  V30 1173 C 107.647 3.41903 1.12383 0
M  V30 1174 C 107.255 4.47975 0.04737 0
M  V30 1175 C 108.999 3.85931 1.76797 0
M  V30 1176 C 106.906 5.88529 0.582022 0
M  V30 1177 H 105.836 0.718387 0.22899 0
M  V30 1178 H 108.487 1.82978 -0.138276 0
M  V30 1179 H 106.869 3.46459 1.91787 0
M  V30 1180 H 108.043 4.55029 -0.726978 0
M  V30 1181 H 106.358 4.13384 -0.500243 0
M  V30 1182 H 108.955 4.88322 2.17821 0
M  V30 1183 H 109.298 3.23029 2.62599 0
M  V30 1184 H 109.831 3.83958 1.04024 0
M  V30 1185 H 106.57 6.55065 -0.238721 0
M  V30 1186 H 106.09 5.85004 1.324 0
M  V30 1187 H 107.769 6.38258 1.05999 0
M  V30 1188 N 107.901 -0.206675 1.56239 0
M  V30 1189 C 108.831 -1.25909 1.96645 0
M  V30 1190 C 109.812 -1.48097 0.836734 0
M  V30 1191 O 110.997 -1.6003 1.10019 0
M  V30 1192 C 108.127 -2.6058 2.29599 0
M  V30 1193 C 107.081 -2.53024 3.452 0
M  V30 1194 C 106.407 -3.91861 3.63798 0
M  V30 1195 C 107.707 -2.06524 4.79734 0
M  V30 1196 H 109.401 -0.923369 2.84806 0
M  V30 1197 H 106.947 -0.442735 1.37025 0
M  V30 1198 H 108.9 -3.34375 2.56459 0
M  V30 1199 H 107.624 -2.95869 1.38307 0
M  V30 1200 H 106.283 -1.81684 3.18412 0
M  V30 1201 H 105.931 -4.24483 2.69857 0
M  V30 1202 H 105.631 -3.87683 4.4156 0
M  V30 1203 H 107.155 -4.67296 3.93022 0
M  V30 1204 H 108.569 -2.70072 5.05702 0
M  V30 1205 H 106.966 -2.13374 5.60885 0
M  V30 1206 H 108.036 -1.01802 4.74093 0
M  V30 1207 N 109.379 -1.50304 -0.473955 0
M  V30 1208 C 110.289 -1.7174 -1.5982 0
M  V30 1209 C 111.305 -0.600457 -1.63311 0
M  V30 1210 O 112.481 -0.878441 -1.81233 0
M  V30 1211 C 109.546 -1.80427 -2.96052 0
M  V30 1212 C 108.607 -3.04148 -3.02972 0
M  V30 1213 C 107.84 -3.12411 -4.32706 0
M  V30 1214 O 108.063 -2.27542 -5.23049 0
M  V30 1215 O 106.997 -4.05113 -4.45159 0
M  V30 1216 H 110.823 -2.67035 -1.44657 0
M  V30 1217 H 108.408 -1.34366 -0.653148 0
M  V30 1218 H 110.29 -1.88338 -3.7697 0
M  V30 1219 H 108.965 -0.883156 -3.11419 0
M  V30 1220 H 107.872 -3.0174 -2.21142 0
M  V30 1221 H 109.205 -3.95829 -2.92541 0
M  V30 1222 N 110.857 0.726932 -1.39834 0
M  V30 1223 C 112.106 1.48214 -1.36805 0
M  V30 1224 C 112.419 1.95576 0.0305291 0
M  V30 1225 O 113.625 2.7088 0.183417 0
M  V30 1226 C 112.081 2.67854 -2.40379 0
M  V30 1227 C 111.689 2.27408 -3.85992 0
M  V30 1228 C 113.433 3.45641 -2.46439 0
M  V30 1229 C 111.34 3.43819 -4.81189 0
M  V30 1230 H 110.27 0.556606 -0.508631 0
M  V30 1231 H 112.921 0.792216 -1.65518 0
M  V30 1232 H 111.303 3.3896 -2.04749 0
M  V30 1233 H 112.477 1.63795 -4.30706 0
M  V30 1234 H 110.792 1.62692 -3.83302 0
M  V30 1235 H 113.389 4.32244 -3.14753 0
M  V30 1236 H 113.732 3.88669 -1.49139 0
M  V30 1237 H 114.265 2.8157 -2.81004 0
M  V30 1238 H 111.004 3.05834 -5.79781 0
M  V30 1239 H 110.524 4.06385 -4.41148 0
M  V30 1240 H 112.203 4.10043 -5.00474 0
M  V30 1241 N 112.336 1.25143 0.95797 0
M  V30 1242 C 113.613 1.00472 1.67823 0
M  V30 1243 C 113.993 -0.470056 2.058 0
M  V30 1244 O 113.341 -1.44663 1.76875 0
M  V30 1245 C 113.551 1.9372 2.90299 0
M  V30 1246 C 114.899 2.21371 3.62326 0
M  V30 1247 O 115.923 1.91451 3.00375 0
M  V30 1248 O 114.782 2.72231 4.7387 0
M  V30 1249 H 111.876 0.380752 0.734137 0
M  V30 1250 H 114.422 1.36283 1.01119 0
M  V30 1251 H 113.194 2.93316 2.59001 0
M  V30 1252 H 112.817 1.58286 3.64735 0
M  V30 1253 N 113.814 -1.1601 1.06675 0
M  V30 1254 C 115.225 -1.68235 0.809565 0
M  V30 1255 C 115.576 -1.8454 -0.666303 0
M  V30 1256 O 114.701 -1.54374 -1.5165 0
M  V30 1257 C 115.296 -3.05585 1.46299 0
M  V30 1258 C 113.855 -3.54915 1.25349 0
M  V30 1259 C 113.002 -2.30804 1.53703 0
M  V30 1260 H 115.953 -1.00318 1.22971 0
M  V30 1261 H 115.974 -3.70174 0.880431 0
M  V30 1262 H 115.486 -2.93686 2.53713 0
M  V30 1263 H 113.587 -3.72067 0.199261 0
M  V30 1264 H 113.7 -4.36774 1.9689 0
M  V30 1265 H 112.064 -2.36007 0.957739 0
M  V30 1266 H 112.847 -2.21499 2.62284 0
M  V30 1267 N 115.292 -0.849877 -1.32721 0
M  V30 1268 C 116.202 -0.293791 -2.32753 0
M  V30 1269 C 117.218 0.585906 -1.63839 0
M  V30 1270 O 118.394 0.487413 -1.95413 0
M  V30 1271 C 115.459 0.512752 -3.42887 0
M  V30 1272 C 114.52 -0.39252 -4.27502 0
M  V30 1273 C 113.753 0.375625 -5.32377 0
M  V30 1274 O 113.976 1.60613 -5.4732 0
M  V30 1275 O 112.91 -0.256094 -6.01355 0
M  V30 1276 H 116.736 -1.12242 -2.82197 0
M  V30 1277 H 114.321 -0.612685 -1.36259 0
M  V30 1278 H 116.203 0.970704 -4.10067 0
M  V30 1279 H 114.878 1.31826 -2.95641 0
M  V30 1280 H 113.785 -0.898547 -3.63149 0
M  V30 1281 H 115.118 -1.16309 -4.7826 0
M  V30 1282 N 116.77 1.45427 -0.607355 0
M  V30 1283 C 117.998 2.06614 -0.108814 0
M  V30 1284 C 118.413 1.45204 1.2067 0
M  V30 1285 O 117.77 0.566132 1.73497 0
M  V30 1286 C 117.821 3.61481 0.0375347 0
M  V30 1287 O 117.542 4.20598 -1.22593 0
M  V30 1288 C 119.043 4.39652 0.567561 0
M  V30 1289 H 116.263 0.66747 -0.0687351 0
M  V30 1290 H 118.807 1.86675 -0.835022 0
M  V30 1291 H 116.962 3.80762 0.714068 0
M  V30 1292 H 117.376 5.1377 -1.05547 0
M  V30 1293 H 118.85 5.48518 0.61905 0
M  V30 1294 H 119.327 4.09417 1.58978 0
M  V30 1295 H 119.933 4.25234 -0.0749202 0
M  V30 1296 N 118.248 0.346503 1.53744 0
M  V30 1297 C 119.158 -0.517293 2.28826 0
M  V30 1298 C 120.174 -1.10935 1.3405 0
M  V30 1299 O 121.35 -1.1244 1.6709 0
M  V30 1300 C 118.415 -1.65098 3.04866 0
M  V30 1301 C 117.476 -1.0884 4.15274 0
M  V30 1302 C 116.709 -2.16806 4.87679 0
M  V30 1303 O 116.932 -3.3758 4.59778 0
M  V30 1304 O 115.866 -1.80934 5.74061 0
M  V30 1305 H 119.692 0.0931396 3.03557 0
M  V30 1306 H 117.277 0.111458 1.48984 0
M  V30 1307 H 119.159 -2.31053 3.5241 0
M  V30 1308 H 117.834 -2.24717 2.32989 0
M  V30 1309 H 116.741 -0.3933 3.72027 0
M  V30 1310 H 118.074 -0.537036 4.89261 0
M  V30 1311 N 119.726 -1.57421 0.075193 0
M  V30 1312 C 120.972 -1.93905 -0.594025 0
M  V30 1313 C 121.305 -0.955701 -1.69056 0
M  V30 1314 O 120.58 0.0145373 -1.94495 0
M  V30 1315 C 120.863 -3.40638 -1.1678 0
M  V30 1316 C 120.716 -4.49733 -0.0776792 0
M  V30 1317 C 122.035 -3.88259 -2.07228 0
M  V30 1318 H 119.154 -0.705105 -0.214466 0
M  V30 1319 H 121.796 -1.8947 0.141854 0
M  V30 1320 H 119.946 -3.44549 -1.79494 0
M  V30 1321 H 121.618 -4.57942 0.555573 0
M  V30 1322 H 119.861 -4.29751 0.591286 0
M  V30 1323 H 120.532 -5.49549 -0.519603 0
M  V30 1324 H 123.008 -3.86376 -1.54445 0
M  V30 1325 H 121.884 -4.91533 -2.44308 0
M  V30 1326 H 122.145 -3.26396 -2.98191 0
M  V30 1327 N 121.204 0.198386 -1.56346 0
M  V30 1328 C 122.167 1.22952 -1.93431 0
M  V30 1329 C 123.167 1.38611 -0.815092 0
M  V30 1330 O 124.357 1.36479 -1.08255 0
M  V30 1331 C 121.489 2.59946 -2.20546 0
M  V30 1332 H 122.682 0.912626 -2.85677 0
M  V30 1333 H 120.235 0.43977 -1.49986 0
M  V30 1334 H 120.97 2.96696 -1.30927 0
M  V30 1335 H 120.755 2.49953 -3.02102 0
M  V30 1336 H 122.245 3.3431 -2.50253 0
M  V30 1337 N 122.682 1.50554 0.465978 0
M  V30 1338 C 123.592 1.72585 1.58907 0
M  V30 1339 C 124.608 0.60911 1.6299 0
M  V30 1340 O 125.784 0.88804 1.80765 0
M  V30 1341 C 122.849 1.81995 2.95091 0
M  V30 1342 C 121.91 3.05751 3.01355 0
M  V30 1343 C 121.143 3.14702 4.31043 0
M  V30 1344 O 121.366 2.30313 5.21835 0
M  V30 1345 O 120.3 4.07468 4.43005 0
M  V30 1346 H 124.126 2.67799 1.43239 0
M  V30 1347 H 121.711 1.34711 0.646013 0
M  V30 1348 H 123.593 1.90335 3.75966 0
M  V30 1349 H 122.268 0.899659 3.10947 0
M  V30 1350 H 121.175 3.02908 2.19539 0
M  V30 1351 H 122.508 3.97375 2.90437 0
M  V30 1352 N 124.16 -0.719506 1.40217 0
M  V30 1353 C 125.07 -1.86378 1.42479 0
M  V30 1354 C 126.086 -1.71073 0.317834 0
M  V30 1355 O 127.262 -1.93406 0.561794 0
M  V30 1356 C 124.327 -3.22136 1.28178 0
M  V30 1357 C 123.388 -3.49723 2.48982 0
M  V30 1358 C 122.621 -4.79004 2.35353 0
M  V30 1359 O 122.844 -5.53821 1.36524 0
M  V30 1360 O 121.778 -5.06839 3.2465 0
M  V30 1361 H 125.604 -1.87425 2.38968 0
M  V30 1362 H 123.189 -0.869405 1.21498 0
M  V30 1363 H 125.071 -4.03234 1.22395 0
M  V30 1364 H 123.746 -3.21825 0.347934 0
M  V30 1365 H 122.653 -2.6865 2.60342 0
M  V30 1366 H 123.986 -3.54828 3.41113 0
M  V30 1367 N 125.638 -1.25649 -0.95132 0
M  V30 1368 C 126.886 -1.10375 -1.69298 0
M  V30 1369 C 127.207 0.355339 -1.91735 0
M  V30 1370 O 126.477 1.25188 -1.50681 0
M  V30 1371 H 125.057 -0.405461 -0.627384 0
M  V30 1372 H 127.719 -1.57823 -1.14358 0
M  V30 1373 H 126.815 -1.61465 -2.67087 0
M  V30 1374 N 127.117 1.15442 -1.07289 0
M  V30 1375 C 128.357 1.8788 -0.805012 0
M  V30 1376 C 128.721 1.80413 0.656907 0
M  V30 1377 O 129.922 2.47874 1.0398 0
M  V30 1378 C 128.193 3.3298 -1.29843 0
M  V30 1379 S 129.752 4.23158 -1.16114 0
M  V30 1380 H 126.57 0.64839 -0.291739 0
M  V30 1381 H 129.172 1.39285 -1.37186 0
M  V30 1382 H 127.876 3.35958 -2.35712 0
M  V30 1383 H 127.407 3.86629 -0.726767 0
M  V30 1384 H 129.422 4.96103 -0.0982778 0
M  V30 1385 N 128.595 0.856903 1.32268 0
M  V30 1386 C 129.525 0.31858 2.31316 0
M  V30 1387 C 130.506 -0.583487 1.59779 0
M  V30 1388 O 131.691 -0.503259 1.87566 0
M  V30 1389 C 128.821 -0.491979 3.43798 0
M  V30 1390 C 127.775 0.315849 4.26833 0
M  V30 1391 C 127.101 -0.619586 5.31098 0
M  V30 1392 C 128.401 1.54282 4.98993 0
M  V30 1393 H 130.095 1.14621 2.76591 0
M  V30 1394 H 127.641 0.552613 1.32974 0
M  V30 1395 H 129.594 -0.879012 4.1213 0
M  V30 1396 H 128.318 -1.35299 2.97257 0
M  V30 1397 H 126.977 0.684664 3.6015 0
M  V30 1398 H 126.625 -1.47751 4.8081 0
M  V30 1399 H 126.325 -0.0830621 5.87541 0
M  V30 1400 H 127.849 -1.00375 6.02293 0
M  V30 1401 H 129.263 1.22796 5.59995 0
M  V30 1402 H 127.66 2.01745 5.65172 0
M  V30 1403 H 128.73 2.30285 4.26728 0
M  V30 1404 N 130.073 -1.45103 0.615059 0
M  V30 1405 C 131.298 -2.07064 0.117988 0
M  V30 1406 C 131.723 -1.4554 -1.19163 0
M  V30 1407 O 131.081 -0.550855 -1.72729 0
M  V30 1408 C 131.129 -3.606 -0.000288387 0
M  V30 1409 O 130.233 -3.98847 -1.04856 0
M  V30 1410 H 129.574 -0.659467 0.0774581 0
M  V30 1411 H 132.104 -1.86236 0.847186 0
M  V30 1412 H 132.114 -4.07529 -0.196091 0
M  V30 1413 H 130.789 -4.04765 0.955932 0
M  V30 1414 H 129.366 -3.63577 -0.828619 0
M  V30 1415 N 131.551 -0.354651 -1.53558 0
M  V30 1416 C 132.798 0.238443 -2.01091 0
M  V30 1417 C 133.126 1.49663 -1.24222 0
M  V30 1418 O 132.381 1.93049 -0.321003 0
M  V30 1419 C 132.68 0.587121 -3.52545 0
M  V30 1420 C 132.346 -0.575472 -4.47213 0
M  V30 1421 C 131.008 -0.894497 -4.72813 0
M  V30 1422 C 133.36 -1.35489 -5.03281 0
M  V30 1423 C 130.688 -1.99511 -5.51736 0
M  V30 1424 C 133.04 -2.44583 -5.83405 0
M  V30 1425 C 131.704 -2.77033 -6.07296 0
M  V30 1426 H 130.974 0.0872526 -0.735845 0
M  V30 1427 H 133.621 -0.484859 -1.8526 0
M  V30 1428 H 131.926 1.39129 -3.66265 0
M  V30 1429 H 133.623 1.05809 -3.86789 0
M  V30 1430 H 130.213 -0.316774 -4.27428 0
M  V30 1431 H 134.397 -1.12167 -4.83459 0
M  V30 1432 H 129.653 -2.25063 -5.68469 0
M  V30 1433 H 133.827 -3.05401 -6.25862 0
M  V30 1434 H 131.454 -3.6244 -6.68237 0
M  V30 1435 N 133.029 1.57378 -0.0835403 0
M  V30 1436 C 134.44 1.81261 0.447358 0
M  V30 1437 C 134.791 0.998331 1.68902 0
M  V30 1438 O 133.916 0.224282 2.15235 0
M  V30 1439 C 134.511 3.28767 0.818386 0
M  V30 1440 C 133.07 3.53455 1.29409 0
M  V30 1441 C 132.217 2.75831 0.285024 0
M  V30 1442 H 135.168 1.5566 -0.309115 0
M  V30 1443 H 135.189 3.41459 1.67887 0
M  V30 1444 H 134.701 3.88006 -0.0855019 0
M  V30 1445 H 132.802 2.99534 2.21608 0
M  V30 1446 H 132.915 4.62128 1.2639 0
M  V30 1447 H 131.279 2.42947 0.764767 0
M  V30 1448 H 132.062 3.37813 -0.611341 0
M  V30 1449 N 134.507 -0.190092 1.56449 0
M  V30 1450 C 135.417 -1.25591 1.98152 0
M  V30 1451 C 136.433 -1.49519 0.889944 0
M  V30 1452 O 137.609 -1.62036 1.19609 0
M  V30 1453 C 134.674 -2.57916 2.3169 0
M  V30 1454 C 133.735 -2.42015 3.5458 0
M  V30 1455 C 132.968 -3.6803 3.8651 0
M  V30 1456 O 133.191 -4.72413 3.1966 0
M  V30 1457 O 132.125 -3.6326 4.79923 0
M  V30 1458 H 135.951 -0.931988 2.89046 0
M  V30 1459 H 133.536 -0.395488 1.4407 0
M  V30 1460 H 135.418 -3.36008 2.54316 0
M  V30 1461 H 134.093 -2.89925 1.43963 0
M  V30 1462 H 133 -1.62017 3.37196 0
M  V30 1463 H 134.333 -2.14937 4.4279 0
M  V30 1464 N 135.985 -1.50799 -0.457987 0
M  V30 1465 C 137.234 -1.6168 -1.20593 0
M  V30 1466 C 137.547 -0.32888 -1.92815 0
M  V30 1467 O 138.753 -0.316773 -2.69646 0
M  V30 1468 C 137.209 -2.8545 -2.19195 0
M  V30 1469 C 136.817 -4.21168 -1.52715 0
M  V30 1470 C 138.561 -3.05681 -2.94549 0
M  V30 1471 C 136.468 -5.3611 -2.4968 0
M  V30 1472 H 135.398 -0.602134 -0.453818 0
M  V30 1473 H 138.049 -1.77245 -0.475031 0
M  V30 1474 H 136.431 -2.63472 -2.95632 0
M  V30 1475 H 137.605 -4.53449 -0.819775 0
M  V30 1476 H 135.92 -4.06648 -0.895922 0
M  V30 1477 H 138.517 -3.88727 -3.67145 0
M  V30 1478 H 138.86 -2.17929 -3.54701 0
M  V30 1479 H 139.393 -3.27901 -2.25223 0
M  V30 1480 H 136.132 -6.26057 -1.94249 0
M  V30 1481 H 135.652 -5.0823 -3.18532 0
M  V30 1482 H 137.331 -5.6722 -3.11241 0
M  V30 1483 N 137.463 0.71206 -1.40597 0
M  V30 1484 C 138.71 1.47197 -1.39065 0
M  V30 1485 C 139.038 1.94499 0.00583891 0
M  V30 1486 O 138.293 1.68752 0.99102 0
M  V30 1487 C 138.592 2.71039 -2.32965 0
M  V30 1488 C 138.258 2.42484 -3.80148 0
M  V30 1489 C 136.92 2.34406 -4.20247 0
M  V30 1490 C 139.272 2.18598 -4.73143 0
M  V30 1491 C 136.6 2.00516 -5.51371 0
M  V30 1492 C 138.952 1.8622 -6.0457 0
M  V30 1493 C 137.616 1.76626 -6.43708 0
M  V30 1494 H 136.886 0.538634 -0.508876 0
M  V30 1495 H 139.533 0.815325 -1.73276 0
M  V30 1496 H 137.838 3.41558 -1.91951 0
M  V30 1497 H 139.535 3.29138 -2.29061 0
M  V30 1498 H 136.125 2.49659 -3.4838 0
M  V30 1499 H 140.309 2.23793 -4.42979 0
M  V30 1500 H 135.565 1.91628 -5.80593 0
M  V30 1501 H 139.739 1.66752 -6.76141 0
M  V30 1502 H 137.366 1.50133 -7.45228 0
M  V30 1503 N 138.941 1.26152 0.944643 0
M  V30 1504 C 140.187 1.11657 1.69294 0
M  V30 1505 C 140.52 -0.339926 1.91202 0
M  V30 1506 O 139.795 -1.24994 1.49019 0
M  V30 1507 C 140.078 1.88236 3.06984 0
M  V30 1508 C 139.931 3.41772 2.92424 0
M  V30 1509 C 141.25 1.67343 4.07043 0
M  V30 1510 H 138.369 0.407004 0.614424 0
M  V30 1511 H 141.011 1.55106 1.09737 0
M  V30 1512 H 139.161 1.51308 3.57824 0
M  V30 1513 H 140.833 3.88433 2.48832 0
M  V30 1514 H 139.076 3.68974 2.28124 0
M  V30 1515 H 139.747 3.90579 3.90067 0
M  V30 1516 H 142.223 1.99509 3.65151 0
M  V30 1517 H 141.099 2.23346 5.01406 0
M  V30 1518 H 141.36 0.617158 4.37771 0
M  V30 1519 N 140.419 -1.14872 1.07899 0
M  V30 1520 C 141.329 -2.2341 0.715915 0
M  V30 1521 C 142.345 -1.71808 -0.275306 0
M  V30 1522 O 143.521 -2.01039 -0.120545 0
M  V30 1523 C 140.586 -3.46474 0.125168 0
M  V30 1524 C 139.647 -4.13039 1.17034 0
M  V30 1525 C 138.88 -5.30229 0.607688 0
M  V30 1526 O 139.103 -5.675 -0.574497 0
M  V30 1527 O 138.037 -5.86444 1.35526 0
M  V30 1528 H 141.863 -2.56808 1.62121 0
M  V30 1529 H 139.448 -1.22702 0.852322 0
M  V30 1530 H 141.33 -4.20917 -0.201729 0
M  V30 1531 H 140.005 -3.14811 -0.753364 0
M  V30 1532 H 138.912 -3.40493 1.54968 0
M  V30 1533 H 140.245 -4.48796 2.02097 0
M  V30 1534 N 141.898 -0.863906 -1.31812 0
M  V30 1535 C 143.147 -0.46801 -1.96195 0
M  V30 1536 C 143.46 0.983474 -1.69077 0
M  V30 1537 O 144.666 1.48523 -2.27273 0
M  V30 1538 C 143.122 -0.785995 -3.51212 0
M  V30 1539 C 142.73 -2.25383 -3.87178 0
M  V30 1540 C 144.474 -0.458274 -4.22019 0
M  V30 1541 C 142.381 -2.51455 -5.3528 0
M  V30 1542 H 141.311 -0.171283 -0.734287 0
M  V30 1543 H 143.962 -1.05597 -1.50072 0
M  V30 1544 H 142.344 -0.127359 -3.95795 0
M  V30 1545 H 143.518 -2.95502 -3.53575 0
M  V30 1546 H 141.833 -2.54698 -3.2942 0
M  V30 1547 H 144.43 -0.630369 -5.30971 0
M  V30 1548 H 144.773 0.600834 -4.11941 0
M  V30 1549 H 145.306 -1.07319 -3.8305 0
M  V30 1550 H 142.045 -3.56025 -5.50387 0
M  V30 1551 H 141.565 -1.85923 -5.70257 0
M  V30 1552 H 143.244 -2.35874 -6.02472 0
M  V30 1553 N 143.376 1.44774 -0.622745 0
M  V30 1554 C 144.286 2.34433 0.0886031 0
M  V30 1555 C 145.302 1.52131 0.844529 0
M  V30 1556 O 146.478 1.84886 0.798691 0
M  V30 1557 C 143.543 3.29986 1.0635 0
M  V30 1558 C 142.604 4.28195 0.307873 0
M  V30 1559 C 141.837 5.19183 1.23633 0
M  V30 1560 O 142.06 5.13918 2.47476 0
M  V30 1561 O 140.994 5.97515 0.725189 0
M  V30 1562 H 144.82 2.96693 -0.648599 0
M  V30 1563 H 142.405 1.44408 -0.382957 0
M  V30 1564 H 144.287 3.88825 1.6246 0
M  V30 1565 H 142.962 2.70269 1.78146 0
M  V30 1566 H 141.869 3.72927 -0.296064 0
M  V30 1567 H 143.202 4.90808 -0.3699 0
M  V30 1568 N 144.854 0.36279 1.53368 0
M  V30 1569 C 146.27 0.0116182 1.59596 0
M  V30 1570 C 146.47 -1.47012 1.37803 0
M  V30 1571 O 145.526 -2.23136 1.18181 0
M  V30 1572 C 146.839 0.465052 2.97082 0
M  V30 1573 C 148.387 0.419033 3.10182 0
M  V30 1574 C 148.862 0.848235 4.50077 0
M  V30 1575 N 150.353 0.803183 4.56183 0
M  V30 1576 C 151.088 1.107 5.62613 0
M  V30 1577 N 150.584 1.47996 6.76808 0
M  V30 1578 N 152.377 1.02998 5.52583 0
M  V30 1579 H 144.528 1.32775 1.65785 0
M  V30 1580 H 146.791 0.542518 0.777417 0
M  V30 1581 H 146.497 1.49892 3.18159 0
M  V30 1582 H 146.371 -0.149786 3.76902 0
M  V30 1583 H 148.758 -0.605696 2.88817 0
M  V30 1584 H 148.839 1.06933 2.32377 0
M  V30 1585 H 148.483 1.87107 4.7218 0
M  V30 1586 H 148.413 0.175218 5.26308 0
M  V30 1587 H 150.904 0.52838 3.74188 0
M  V30 1588 H 151.217 1.69613 7.53957 0
M  V30 1589 H 149.562 1.51859 6.78206 0
M  V30 1590 H 152.753 0.737817 4.62249 0
M  V30 1591 H 152.926 1.2701 6.35431 0
M  V30 1592 N 146.332 -1.57332 0.0918853 0
M  V30 1593 C 147.557 -1.98995 -0.584442 0
M  V30 1594 C 147.982 -0.970528 -1.61128 0
M  V30 1595 O 147.34 0.0613904 -1.81196 0
M  V30 1596 C 147.388 -3.39636 -1.21161 0
M  V30 1597 O 146.492 -3.40447 -2.32744 0
M  V30 1598 H 145.833 -0.647165 -0.148572 0
M  V30 1599 H 148.363 -2.03873 0.172347 0
M  V30 1600 H 148.373 -3.7726 -1.55367 0
M  V30 1601 H 147.048 -4.13356 -0.459313 0
M  V30 1602 H 145.625 -3.14614 -2.0018 0
M  V30 1603 N 147.81 0.181792 -1.56548 0
M  V30 1604 C 148.757 1.22521 -1.95595 0
M  V30 1605 C 149.727 1.4454 -0.818373 0
M  V30 1606 O 150.912 1.57454 -1.07763 0
M  V30 1607 C 148.052 2.56193 -2.31212 0
M  V30 1608 C 147.165 2.41641 -3.58097 0
M  V30 1609 C 146.3 3.68108 -3.82975 0
M  V30 1610 C 145.339 3.48445 -5.03242 0
M  V30 1611 N 144.476 4.66956 -5.24306 0
M  V30 1612 H 149.316 0.885226 -2.84548 0
M  V30 1613 H 146.853 0.425718 -1.40805 0
M  V30 1614 H 148.811 3.34088 -2.49882 0
M  V30 1615 H 147.441 2.88208 -1.45382 0
M  V30 1616 H 146.493 1.54976 -3.474 0
M  V30 1617 H 147.805 2.23052 -4.46149 0
M  V30 1618 H 146.959 4.54441 -4.01956 0
M  V30 1619 H 145.698 3.89666 -2.93278 0
M  V30 1620 H 144.703 2.60499 -4.8417 0
M  V30 1621 H 145.928 3.2832 -5.9446 0
M  V30 1622 H 143.874 4.88752 -4.37559 0
M  V30 1623 H 143.791 4.51242 -6.06561 0
M  V30 1624 H 145.059 5.54602 -5.47756 0
M  V30 1625 N 149.288 1.51039 0.449983 0
M  V30 1626 C 150.704 1.38934 0.785462 0
M  V30 1627 C 150.904 0.461817 1.96136 0
M  V30 1628 O 149.96 -0.0877389 2.52348 0
M  V30 1629 C 151.273 2.80724 1.0777 0
M  V30 1630 C 152.821 2.89787 1.1829 0
M  V30 1631 C 153.296 4.32457 1.50815 0
M  V30 1632 N 154.787 4.35505 1.57764 0
M  V30 1633 C 155.522 5.42914 1.84477 0
M  V30 1634 N 155.018 6.60502 2.09068 0
M  V30 1635 N 156.811 5.3038 1.86155 0
M  V30 1636 H 148.962 2.09904 -0.324647 0
M  V30 1637 H 151.225 0.944378 -0.0827957 0
M  V30 1638 H 150.931 3.50531 0.286498 0
M  V30 1639 H 150.805 3.19273 2.00859 0
M  V30 1640 H 153.192 2.20186 1.96474 0
M  V30 1641 H 153.273 2.54752 0.231314 0
M  V30 1642 H 152.917 5.02603 0.731622 0
M  V30 1643 H 152.847 4.64995 2.47158 0
M  V30 1644 H 155.338 3.50724 1.40715 0
M  V30 1645 H 155.651 7.38158 2.28785 0
M  V30 1646 H 153.996 6.63639 2.06416 0
M  V30 1647 H 157.187 4.37505 1.66454 0
M  V30 1648 H 157.36 6.1417 2.06637 0
M  V30 1649 N 150.766 -0.704594 1.40972 0
M  V30 1650 C 152.015 -1.46018 1.39146 0
M  V30 1651 C 152.328 -1.956 0.000589254 0
M  V30 1652 O 153.534 -2.71137 -0.1403 0
M  V30 1653 C 151.99 -2.63996 2.4461 0
M  V30 1654 C 151.598 -2.21238 3.89561 0
M  V30 1655 C 153.342 -3.41677 2.51907 0
M  V30 1656 C 151.249 -3.3612 4.86598 0
M  V30 1657 H 150.179 -0.548444 0.517422 0
M  V30 1658 H 152.83 -0.765784 1.66757 0
M  V30 1659 H 151.212 -3.3566 2.10115 0
M  V30 1660 H 152.386 -1.56923 4.33257 0
M  V30 1661 H 150.701 -1.56574 3.85841 0
M  V30 1662 H 153.298 -4.27182 3.2159 0
M  V30 1663 H 153.641 -3.86247 1.55303 0
M  V30 1664 H 154.174 -2.77064 2.85448 0
M  V30 1665 H 150.913 -2.96572 5.84573 0
M  V30 1666 H 150.433 -3.99315 4.47557 0
M  V30 1667 H 152.112 -4.02029 5.06934 0
M  V30 1668 N 152.244 -1.26651 -0.937939 0
M  V30 1669 C 153.191 -1.0849 -2.03712 0
M  V30 1670 C 154.161 0.011033 -1.66096 0
M  V30 1671 O 155.346 -0.149353 -1.90215 0
M  V30 1672 C 152.486 -0.72735 -3.37348 0
M  V30 1673 C 151.599 -1.89986 -3.87981 0
M  V30 1674 C 150.734 -1.48513 -5.10017 0
M  V30 1675 C 149.773 -2.62575 -5.5292 0
M  V30 1676 N 148.91 -2.21762 -6.66158 0
M  V30 1677 H 153.75 -2.02551 -2.18579 0
M  V30 1678 H 151.287 -1.00844 -1.07093 0
M  V30 1679 H 153.245 -0.50092 -4.14182 0
M  V30 1680 H 151.875 0.176298 -3.22318 0
M  V30 1681 H 150.927 -2.23913 -3.07518 0
M  V30 1682 H 152.239 -2.75586 -4.15757 0
M  V30 1683 H 151.393 -1.21934 -5.94321 0
M  V30 1684 H 150.132 -0.60009 -4.83994 0
M  V30 1685 H 149.137 -2.8988 -4.67172 0
M  V30 1686 H 150.362 -3.51685 -5.80943 0
M  V30 1687 H 148.308 -1.35696 -6.41812 0
M  V30 1688 H 148.225 -3.00903 -6.93537 0
M  V30 1689 H 149.493 -1.98403 -7.53828 0
M  V30 1690 N 153.722 1.14298 -1.08507 0
M  V30 1691 C 154.968 1.85633 -0.816581 0
M  V30 1692 C 155.301 1.82784 0.656021 0
M  V30 1693 O 154.576 1.25926 1.48233 0
M  V30 1694 C 154.859 3.34223 -1.34041 0
M  V30 1695 C 154.712 3.45639 -2.87843 0
M  V30 1696 C 156.031 4.29356 -0.9665 0
M  V30 1697 H 153.15 0.67402 -0.298104 0
M  V30 1698 H 155.792 1.34214 -1.34487 0
M  V30 1699 H 153.942 3.78144 -0.89104 0
M  V30 1700 H 155.614 3.10498 -3.41158 0
M  V30 1701 H 153.857 2.86817 -3.25451 0
M  V30 1702 H 154.528 4.50089 -3.19569 0
M  V30 1703 H 157.004 3.93457 -1.35391 0
M  V30 1704 H 155.88 5.3178 -1.3602 0
M  V30 1705 H 156.141 4.41919 0.126362 0
M  V30 1706 N 155.201 0.870884 1.31352 0
M  V30 1707 C 156.148 0.325425 2.28494 0
M  V30 1708 C 157.118 -0.576615 1.5577 0
M  V30 1709 O 158.303 -0.508059 1.83911 0
M  V30 1710 C 155.443 -0.466283 3.41935 0
M  V30 1711 C 154.556 0.463378 4.29508 0
M  V30 1712 C 153.691 -0.342544 5.30094 0
M  V30 1713 C 152.73 0.583486 6.09313 0
M  V30 1714 N 151.867 -0.186244 7.01853 0
M  V30 1715 H 156.707 1.15901 2.74538 0
M  V30 1716 H 154.244 0.58294 1.35056 0
M  V30 1717 H 156.202 -0.941085 4.06447 0
M  V30 1718 H 154.832 -1.26456 2.97 0
M  V30 1719 H 153.884 1.05663 3.65431 0
M  V30 1720 H 155.196 1.1734 4.84802 0
M  V30 1721 H 154.35 -0.879816 6.00287 0
M  V30 1722 H 153.089 -1.08585 4.75458 0
M  V30 1723 H 152.094 1.13251 5.3801 0
M  V30 1724 H 153.319 1.32566 6.66035 0
M  V30 1725 H 151.265 -0.912348 6.49625 0
M  V30 1726 H 151.182 0.464422 7.54572 0
M  V30 1727 H 152.45 -0.704716 7.76308 0
M  V30 1728 N 156.679 -1.44442 0.630414 0
M  V30 1729 C 157.909 -2.06115 0.141465 0
M  V30 1730 C 158.317 -1.47179 -1.1889 0
M  V30 1731 O 157.66 -0.588873 -1.74006 0
M  V30 1732 C 157.722 -3.59467 -0.0484355 0
M  V30 1733 C 157.386 -4.40864 1.20366 0
M  V30 1734 C 158.383 -4.74391 2.12719 0
M  V30 1735 C 156.068 -4.8125 1.43887 0
M  V30 1736 C 158.062 -5.47186 3.26904 0
M  V30 1737 C 155.749 -5.53795 2.5837 0
M  V30 1738 C 156.747 -5.86682 3.49705 0
M  V30 1739 O 156.435 -6.57749 4.62191 0
M  V30 1740 H 156.167 -0.671648 0.0765792 0
M  V30 1741 H 158.721 -1.86312 0.864695 0
M  V30 1742 H 156.951 -3.77758 -0.826803 0
M  V30 1743 H 158.64 -4.02909 -0.491849 0
M  V30 1744 H 159.406 -4.43728 1.95781 0
M  V30 1745 H 155.285 -4.55073 0.736853 0
M  V30 1746 H 158.829 -5.72773 3.98217 0
M  V30 1747 H 154.726 -5.83872 2.75251 0
M  V30 1748 H 155.494 -6.76217 4.61164 0
M  V30 1749 N 158.157 -0.370918 -1.53173 0
M  V30 1750 C 159.089 0.507823 -2.23503 0
M  V30 1751 C 160.102 1.04182 -1.251 0
M  V30 1752 O 161.291 0.947286 -1.5129 0
M  V30 1753 C 158.391 1.71447 -2.92334 0
M  V30 1754 C 157.564 1.31105 -4.17289 0
M  V30 1755 C 156.623 2.38035 -4.69282 0
M  V30 1756 O 155.649 2.00204 -5.32829 0
M  V30 1757 N 156.851 3.69697 -4.47554 0
M  V30 1758 H 159.616 -0.0946382 -2.99551 0
M  V30 1759 H 157.177 -0.196358 -1.60705 0
M  V30 1760 H 159.169 2.42469 -3.24023 0
M  V30 1761 H 157.739 2.22368 -2.19707 0
M  V30 1762 H 156.959 0.430462 -3.91843 0
M  V30 1763 H 158.247 1.0179 -4.98514 0
M  V30 1764 H 157.645 4.03205 -3.9679 0
M  V30 1765 H 156.202 4.36807 -4.8378 0
M  V30 1766 N 159.635 1.57281 -0.100228 0
M  V30 1767 C 160.583 2.15542 0.874328 0
M  V30 1768 C 161.577 1.09962 1.28859 0
M  V30 1769 O 162.783 1.28298 1.26252 0
M  V30 1770 H 159.158 0.689567 0.300003 0
M  V30 1771 H 161.129 2.96241 0.35829 0
M  V30 1772 C 159.878 2.75454 2.1218 0
M  V30 1773 H 159.201 3.56384 1.81193 0
M  V30 1774 H 160.641 3.19781 2.78417 0
M  V30 1775 C 159.1 1.71602 2.89921 0
M  V30 1776 O 159.63 1.15804 3.84646 0
M  V30 1777 N 157.836 1.41975 2.53558 0
M  V30 1778 H 157.383 1.87539 1.76598 0
M  V30 1779 H 157.341 0.727274 3.05873 0
M  V30 1780 N 161.113 -0.173488 1.56642 0
M  V30 1781 C 162.341 -0.906095 1.86004 0
M  V30 1782 C 162.756 -1.75921 0.685355 0
M  V30 1783 O 162.113 -1.79198 -0.345578 0
M  V30 1784 C 162.164 -1.78462 3.14378 0
M  V30 1785 O 161.885 -0.965914 4.27319 0
M  V30 1786 C 163.386 -2.62707 3.57071 0
M  V30 1787 H 160.606 -0.263341 0.617165 0
M  V30 1788 H 163.15 -0.174236 2.03756 0
M  V30 1789 H 161.305 -2.46984 2.98459 0
M  V30 1790 H 161.719 -1.56655 5.00559 0
M  V30 1791 H 163.193 -3.19969 4.49804 0
M  V30 1792 H 163.67 -3.37472 2.81086 0
M  V30 1793 H 164.276 -1.99521 3.75595 0
M  V30 1794 N 162.591 -1.51276 -0.441967 0
M  V30 1795 C 164.007 -1.39349 -0.778083 0
M  V30 1796 C 164.207 -0.472212 -1.95889 0
M  V30 1797 O 163.263 0.0743551 -2.5239 0
M  V30 1798 C 164.576 -2.81292 -1.0628 0
M  V30 1799 C 166.124 -2.9041 -1.16751 0
M  V30 1800 C 166.599 -4.33251 -1.48519 0
M  V30 1801 N 168.09 -4.36336 -1.55453 0
M  V30 1802 C 168.825 -5.43885 -1.81596 0
M  V30 1803 N 168.321 -6.61601 -2.05562 0
M  V30 1804 N 170.114 -5.3136 -1.8334 0
M  V30 1805 H 162.265 -2.09729 0.335774 0
M  V30 1806 H 164.528 -0.943925 0.0878028 0
M  V30 1807 H 164.234 -3.50678 -0.267905 0
M  V30 1808 H 164.108 -3.20334 -1.99163 0
M  V30 1809 H 166.495 -2.21225 -1.95304 0
M  V30 1810 H 166.576 -2.54871 -0.217801 0
M  V30 1811 H 166.22 -5.02984 -0.704958 0
M  V30 1812 H 166.15 -4.66299 -2.44689 0
M  V30 1813 H 168.641 -3.51466 -1.38853 0
M  V30 1814 H 168.954 -7.39361 -2.24867 0
M  V30 1815 H 167.299 -6.64725 -2.02894 0
M  V30 1816 H 170.49 -4.38382 -1.64132 0
M  V30 1817 H 170.663 -6.15258 -2.03377 0
M  V30 1818 N 164.069 0.697108 -1.41344 0
M  V30 1819 C 165.317 1.45426 -1.40341 0
M  V30 1820 C 165.638 1.94996 -0.0128787 0
M  V30 1821 O 164.908 1.71599 0.945027 0
M  V30 1822 H 163.488 0.539594 -0.516573 0
M  V30 1823 H 166.15 0.825201 -1.76569 0
M  V30 1824 H 165.246 2.31817 -2.08967 0
M  V30 1825 N 165.547 1.27147 0.931209 0
M  V30 1826 C 166.457 1.11372 2.06478 0
M  V30 1827 C 167.473 0.044645 1.73943 0
M  V30 1828 O 168.649 0.250417 1.99837 0
M  V30 1829 C 165.714 0.758838 3.38294 0
M  V30 1830 C 164.775 1.90841 3.84549 0
M  V30 1831 C 164.008 1.57036 5.10074 0
M  V30 1832 O 164.231 0.476645 5.68405 0
M  V30 1833 O 163.165 2.40839 5.51616 0
M  V30 1834 H 166.991 2.06493 2.22698 0
M  V30 1835 H 164.576 1.06301 1.04978 0
M  V30 1836 H 166.458 0.574098 4.17471 0
M  V30 1837 H 165.133 -0.162879 3.2329 0
M  V30 1838 H 164.04 2.14819 3.06274 0
M  V30 1839 H 165.373 2.81021 4.04089 0
M  V30 1840 N 167.025 -1.13721 1.09112 0
M  V30 1841 C 168.255 -1.88499 0.845671 0
M  V30 1842 C 168.663 -1.79218 -0.606432 0
M  V30 1843 O 168.006 -1.1544 -1.42896 0
M  V30 1844 C 168.068 -3.38954 1.19793 0
M  V30 1845 C 167.732 -3.72018 2.65428 0
M  V30 1846 C 168.729 -3.7153 3.63677 0
M  V30 1847 C 166.414 -4.01775 3.01467 0
M  V30 1848 C 168.408 -4.00336 4.95994 0
M  V30 1849 C 166.095 -4.30243 4.33975 0
M  V30 1850 C 167.093 -4.29508 5.31048 0
M  V30 1851 O 166.781 -4.5728 6.61173 0
M  V30 1852 H 166.513 -0.603702 0.304171 0
M  V30 1853 H 169.067 -1.44903 1.45576 0
M  V30 1854 H 167.297 -3.83039 0.530871 0
M  V30 1855 H 168.986 -3.95052 0.932146 0
M  V30 1856 H 169.752 -3.4862 3.37179 0
M  V30 1857 H 165.631 -4.01496 2.26544 0
M  V30 1858 H 169.175 -3.99678 5.71755 0
M  V30 1859 H 165.072 -4.52625 4.60219 0
M  V30 1860 H 165.84 -4.74964 6.66597 0
M  V30 1861 N 168.503 -0.877838 -1.30888 0
M  V30 1862 C 169.749 -0.493426 -1.96706 0
M  V30 1863 C 170.082 0.953504 -1.6918 0
M  V30 1864 O 169.357 1.67266 -0.992594 0
M  V30 1865 C 169.64 -0.760429 -3.51979 0
M  V30 1866 C 169.493 -2.25747 -3.89048 0
M  V30 1867 C 170.812 -0.232148 -4.39487 0
M  V30 1868 H 167.931 -0.180746 -0.714493 0
M  V30 1869 H 170.573 -1.10052 -1.54882 0
M  V30 1870 H 168.723 -0.243715 -3.87735 0
M  V30 1871 H 170.395 -2.84204 -3.63354 0
M  V30 1872 H 168.638 -2.72694 -3.37373 0
M  V30 1873 H 169.309 -2.39491 -4.97341 0
M  V30 1874 H 171.785 -0.674314 -4.106 0
M  V30 1875 H 170.661 -0.448355 -5.47066 0
M  V30 1876 H 170.922 0.866297 -4.33529 0
M  V30 1877 N 169.982 1.44106 -0.638065 0
M  V30 1878 C 170.892 2.34513 0.0637334 0
M  V30 1879 C 171.908 1.53018 0.828346 0
M  V30 1880 O 173.084 1.85723 0.779036 0
M  V30 1881 C 170.149 3.31095 1.02844 0
M  V30 1882 C 169.21 4.28497 0.26244 0
M  V30 1883 C 168.443 5.20465 1.1812 0
M  V30 1884 O 168.666 5.16514 2.42011 0
M  V30 1885 O 167.6 5.98251 0.661774 0
M  V30 1886 H 171.426 2.95989 -0.68003 0
M  V30 1887 H 169.011 1.43994 -0.398252 0
M  V30 1888 H 170.893 3.90526 1.58327 0
M  V30 1889 H 169.568 2.72144 1.7527 0
M  V30 1890 H 168.475 3.72592 -0.335602 0
M  V30 1891 H 169.808 4.90388 -0.421936 0
M  V30 1892 N 171.46 0.379036 1.52974 0
M  V30 1893 C 172.37 -0.468639 2.29872 0
M  V30 1894 C 173.386 -1.08067 1.36373 0
M  V30 1895 O 174.562 -1.08871 1.69438 0
M  V30 1896 C 171.627 -1.58594 3.083 0
M  V30 1897 C 170.688 -1.00007 4.17489 0
M  V30 1898 C 169.921 -2.06413 4.92168 0
M  V30 1899 O 170.144 -3.27751 4.66835 0
M  V30 1900 O 169.078 -1.68717 5.7777 0
M  V30 1901 H 172.904 0.157508 3.03291 0
M  V30 1902 H 170.489 0.143035 1.48714 0
M  V30 1903 H 172.371 -2.23525 3.57232 0
M  V30 1904 H 171.046 -2.19724 2.37703 0
M  V30 1905 H 169.953 -0.314299 3.72777 0
M  V30 1906 H 171.286 -0.433135 4.90291 0
M  V30 1907 N 172.938 -1.57226 0.108567 0
M  V30 1908 C 173.848 -2.18292 -0.859401 0
M  V30 1909 C 174.864 -1.15612 -1.30038 0
M  V30 1910 O 176.04 -1.48039 -1.36552 0
M  V30 1911 C 173.105 -2.762 -2.09558 0
M  V30 1912 C 172.166 -3.93881 -1.70752 0
M  V30 1913 C 171.399 -4.49018 -2.88477 0
M  V30 1914 O 171.622 -4.03068 -4.036 0
M  V30 1915 O 170.556 -5.39852 -2.66164 0
M  V30 1916 H 174.382 -3.01441 -0.369769 0
M  V30 1917 H 171.967 -1.48945 -0.1165 0
M  V30 1918 H 173.849 -3.13156 -2.81978 0
M  V30 1919 H 172.524 -1.96089 -2.57548 0
M  V30 1920 H 171.431 -3.61713 -0.954714 0
M  V30 1921 H 172.764 -4.75396 -1.27513 0
M  V30 1922 N 174.416 0.165178 -1.56732 0
M  V30 1923 C 175.346 1.20651 -1.99914 0
M  V30 1924 C 176.327 1.45827 -0.875705 0
M  V30 1925 O 177.512 1.57057 -1.14223 0
M  V30 1926 C 174.642 2.54401 -2.36427 0
M  V30 1927 C 173.596 2.43782 -3.51787 0
M  V30 1928 C 172.922 3.82078 -3.7406 0
M  V30 1929 C 174.222 1.93732 -4.85041 0
M  V30 1930 H 175.916 0.847534 -2.87154 0
M  V30 1931 H 173.462 0.40625 -1.38151 0
M  V30 1932 H 175.415 3.27458 -2.65234 0
M  V30 1933 H 174.139 2.92098 -1.46103 0
M  V30 1934 H 172.798 1.73178 -3.23117 0
M  V30 1935 H 172.446 4.17179 -2.81017 0
M  V30 1936 H 172.146 3.7584 -4.51684 0
M  V30 1937 H 173.67 4.56712 -4.05274 0
M  V30 1938 H 175.084 2.56569 -5.12684 0
M  V30 1939 H 173.481 1.98428 -5.66345 0
M  V30 1940 H 174.551 0.891962 -4.76626 0
M  V30 1941 N 175.894 1.51508 0.433938 0
M  V30 1942 C 176.804 1.75917 1.5521 0
M  V30 1943 C 177.82 0.643545 1.61662 0
M  V30 1944 O 178.996 0.926183 1.7884 0
M  V30 1945 C 176.061 1.88213 2.91164 0
M  V30 1946 C 175.122 3.12074 2.94802 0
M  V30 1947 C 174.355 3.23774 4.24271 0
M  V30 1948 O 174.578 2.4133 5.16833 0
M  V30 1949 O 173.512 4.16774 4.34262 0
M  V30 1950 H 177.338 2.70777 1.37527 0
M  V30 1951 H 174.923 1.36051 0.617293 0
M  V30 1952 H 176.805 1.98267 3.71845 0
M  V30 1953 H 175.48 0.965413 3.08968 0
M  V30 1954 H 174.387 3.07497 2.13065 0
M  V30 1955 H 175.72 4.03446 2.81943 0
M  V30 1956 N 177.372 -0.689602 1.41712 0
M  V30 1957 C 178.62 -1.4468 1.4111 0
M  V30 1958 C 178.941 -1.94986 0.0232196 0
M  V30 1959 O 178.211 -1.72097 -0.935913 0
M  V30 1960 H 176.791 -0.536847 0.519427 0
M  V30 1961 H 179.453 -0.815825 1.77004 0
M  V30 1962 H 178.549 -2.30706 2.10193 0
M  V30 1963 N 178.85 -1.27639 -0.924453 0
M  V30 1964 C 180.08 -1.16819 -1.70402 0
M  V30 1965 C 180.488 0.277191 -1.87158 0
M  V30 1966 O 179.831 1.20025 -1.39067 0
M  V30 1967 C 179.893 -1.78305 -3.12166 0
M  V30 1968 C 179.557 -3.27502 -3.18734 0
M  V30 1969 C 180.554 -4.2409 -3.00738 0
M  V30 1970 C 178.239 -3.68269 -3.4159 0
M  V30 1971 C 180.233 -5.59422 -3.05492 0
M  V30 1972 C 177.92 -5.0373 -3.45977 0
M  V30 1973 C 178.918 -5.99116 -3.27946 0
M  V30 1974 O 178.606 -7.32108 -3.32074 0
M  V30 1975 H 178.338 -0.406931 -0.539799 0
M  V30 1976 H 180.892 -1.69078 -1.16626 0
M  V30 1977 H 179.122 -1.20528 -3.67437 0
M  V30 1978 H 180.811 -1.62154 -3.72103 0
M  V30 1979 H 181.577 -3.93931 -2.82919 0
M  V30 1980 H 177.456 -2.94496 -3.54673 0
M  V30 1981 H 181 -6.33852 -2.91337 0
M  V30 1982 H 176.897 -5.33543 -3.63321 0
M  V30 1983 H 177.665 -7.40598 -3.48507 0
M  V30 1984 N 180.328 1.1314 -1.09713 0
M  V30 1985 C 181.291 2.16831 -0.742751 0
M  V30 1986 C 182.291 1.59159 0.229129 0
M  V30 1987 O 183.481 1.74199 0.00693237 0
M  V30 1988 C 180.613 3.40756 -0.0989168 0
M  V30 1989 H 181.806 2.49695 -1.66109 0
M  V30 1990 H 179.359 1.2802 -0.896699 0
M  V30 1991 H 180.094 3.13485 0.830514 0
M  V30 1992 H 179.879 3.83888 -0.798265 0
M  V30 1993 H 181.369 4.17386 0.133524 0
M  V30 1994 N 181.806 0.884767 1.30421 0
M  V30 1995 C 182.769 0.356277 2.26414 0
M  V30 1996 C 183.769 -0.501124 1.52792 0
M  V30 1997 O 184.959 -0.30831 1.7145 0
M  V30 1998 C 182.091 -0.492316 3.37326 0
M  V30 1999 H 183.284 1.20389 2.74675 0
M  V30 2000 H 180.837 0.661607 1.41607 0
M  V30 2001 H 181.572 -1.36052 2.94381 0
M  V30 2002 H 181.357 0.121832 3.91911 0
M  V30 2003 H 182.847 -0.853871 4.08777 0
M  V30 2004 N 183.284 -1.43765 0.645699 0
M  V30 2005 C 184.7 -1.56509 0.312591 0
M  V30 2006 C 184.9 -1.6307 -1.18365 0
M  V30 2007 O 183.956 -1.58167 -1.96824 0
M  V30 2008 C 185.269 -2.82968 1.01733 0
M  V30 2009 C 186.817 -2.96701 0.996865 0
M  V30 2010 C 187.292 -4.25982 1.68236 0
M  V30 2011 N 188.783 -4.32829 1.64964 0
M  V30 2012 C 189.518 -5.31613 2.14885 0
M  V30 2013 N 189.014 -6.36718 2.73061 0
M  V30 2014 N 190.807 -5.23217 2.05428 0
M  V30 2015 H 182.958 -1.3775 1.61675 0
M  V30 2016 H 185.221 -0.661067 0.679481 0
M  V30 2017 H 184.927 -2.84156 2.0724 0
M  V30 2018 H 184.801 -3.72957 0.564177 0
M  V30 2019 H 187.188 -2.95058 -0.0497719 0
M  V30 2020 H 187.269 -2.08022 1.48865 0
M  V30 2021 H 186.913 -4.28386 2.72852 0
M  V30 2022 H 186.843 -5.13545 1.16529 0
M  V30 2023 H 189.334 -3.57493 1.22503 0
M  V30 2024 H 189.647 -7.08401 3.08848 0
M  V30 2025 H 187.992 -6.37362 2.77118 0
M  V30 2026 H 191.183 -4.40019 1.59689 0
M  V30 2027 H 191.356 -6.00045 2.44643 0
M  V30 2028 N 184.763 -0.387143 -1.52771 0
M  V30 2029 C 186.009 0.196025 -2.0185 0
M  V30 2030 C 186.342 1.46641 -1.27319 0
M  V30 2031 O 185.617 1.90889 -0.373032 0
M  V30 2032 C 185.9 0.466136 -3.5707 0
M  V30 2033 C 185.753 -0.819385 -4.42274 0
M  V30 2034 C 187.072 1.25768 -4.21747 0
M  V30 2035 H 184.191 0.0697708 -0.73369 0
M  V30 2036 H 186.833 -0.516286 -1.82851 0
M  V30 2037 H 184.983 1.07293 -3.7339 0
M  V30 2038 H 186.655 -1.4563 -4.37709 0
M  V30 2039 H 184.898 -1.43517 -4.09372 0
M  V30 2040 H 185.569 -0.585065 -5.48891 0
M  V30 2041 H 188.045 0.744167 -4.09391 0
M  V30 2042 H 186.921 1.41541 -5.30337 0
M  V30 2043 H 187.182 2.27228 -3.79236 0
M  V30 2044 N 186.241 1.57166 -0.116904 0
M  V30 2045 C 187.488 1.95123 0.541603 0
M  V30 2046 C 187.816 1.00006 1.6682 0
M  V30 2047 O 187.071 0.0235658 1.95686 0
M  V30 2048 C 187.37 3.39508 1.11664 0
M  V30 2049 C 187.036 4.50762 0.111606 0
M  V30 2050 C 185.698 4.80918 -0.164758 0
M  V30 2051 C 188.05 5.18036 -0.573438 0
M  V30 2052 C 185.378 5.75666 -1.13249 0
M  V30 2053 C 187.73 6.13824 -1.52978 0
M  V30 2054 C 186.394 6.42374 -1.81415 0
M  V30 2055 H 185.664 0.714005 0.198187 0
M  V30 2056 H 188.311 1.9048 -0.197365 0
M  V30 2057 H 186.616 3.40835 1.93232 0
M  V30 2058 H 188.313 3.66189 1.63422 0
M  V30 2059 H 184.903 4.27272 0.337192 0
M  V30 2060 H 189.087 4.94896 -0.373092 0
M  V30 2061 H 184.343 5.96092 -1.35958 0
M  V30 2062 H 188.517 6.65039 -2.06629 0
M  V30 2063 H 186.144 7.15599 -2.56557 0
M  V30 2064 N 187.719 -0.156864 1.56817 0
M  V30 2065 C 188.651 -1.21883 1.94106 0
M  V30 2066 C 189.664 -1.3971 0.835754 0
M  V30 2067 O 190.853 -1.39457 1.11418 0
M  V30 2068 C 187.953 -2.58527 2.19127 0
M  V30 2069 C 187.126 -2.61809 3.50393 0
M  V30 2070 C 186.185 -3.7992 3.64071 0
M  V30 2071 O 185.211 -3.65249 4.36557 0
M  V30 2072 N 186.413 -4.96973 2.99997 0
M  V30 2073 H 189.178 -0.901974 2.85805 0
M  V30 2074 H 186.739 -0.346513 1.58148 0
M  V30 2075 H 188.731 -3.36034 2.25529 0
M  V30 2076 H 187.301 -2.82545 1.33742 0
M  V30 2077 H 186.521 -1.7029 3.5552 0
M  V30 2078 H 187.809 -2.61024 4.36742 0
M  V30 2079 H 187.207 -5.11794 2.41004 0
M  V30 2080 H 185.764 -5.7229 3.11974 0
M  V30 2081 N 189.197 -1.51736 -0.425897 0
M  V30 2082 C 190.147 -1.70258 -1.51645 0
M  V30 2083 C 191.131 -0.556488 -1.5097 0
M  V30 2084 O 192.323 -0.812879 -1.5723 0
M  V30 2085 C 189.452 -1.84143 -2.89735 0
M  V30 2086 C 188.538 -3.04572 -2.95122 0
M  V30 2087 N 188.929 -4.2756 -2.70233 0
M  V30 2088 C 187.227 -3.04061 -3.26286 0
M  V30 2089 C 187.928 -5.08908 -2.81757 0
M  V30 2090 N 186.904 -4.43797 -3.13919 0
M  V30 2091 H 190.706 -2.63004 -1.31172 0
M  V30 2092 H 188.22 -1.4954 -0.633375 0
M  V30 2093 H 190.217 -1.95525 -3.68206 0
M  V30 2094 H 188.877 -0.925857 -3.1122 0
M  V30 2095 H 189.888 -4.56315 -2.44943 0
M  V30 2096 H 186.565 -2.22179 -3.53473 0
M  V30 2097 H 187.955 -6.16843 -2.66372 0
M  V30 2098 N 190.675 0.682077 -1.42076 0
M  V30 2099 C 191.585 1.82535 -1.47371 0
M  V30 2100 C 192.601 1.7017 -0.363079 0
M  V30 2101 O 193.777 1.91848 -0.612875 0
M  V30 2102 C 190.842 3.18624 -1.36674 0
M  V30 2103 C 189.903 3.42999 -2.58167 0
M  V30 2104 C 189.136 4.72595 -2.4797 0
M  V30 2105 O 189.359 5.50006 -1.5116 0
M  V30 2106 O 188.293 4.98054 -3.37974 0
M  V30 2107 H 192.119 1.81023 -2.43853 0
M  V30 2108 H 189.704 0.836887 -1.2376 0
M  V30 2109 H 191.586 3.99847 -1.33043 0
M  V30 2110 H 190.261 3.20789 -0.433138 0
M  V30 2111 H 189.168 2.61653 -2.67373 0
M  V30 2112 H 190.501 3.45659 -3.50401 0
M  V30 2113 N 192.153 1.28127 0.917671 0
M  V30 2114 C 193.4 1.15052 1.66641 0
M  V30 2115 C 193.728 -0.301677 1.92146 0
M  V30 2116 O 192.983 -1.23622 1.51711 0
M  V30 2117 C 193.282 1.89018 3.03327 0
M  V30 2118 C 192.948 3.38832 2.97496 0
M  V30 2119 C 191.61 3.79693 2.95613 0
M  V30 2120 C 193.962 4.34378 2.88036 0
M  V30 2121 C 191.29 5.14447 2.82066 0
M  V30 2122 C 193.642 5.69201 2.7603 0
M  V30 2123 C 192.306 6.09343 2.72502 0
M  V30 2124 H 191.576 0.421006 0.609783 0
M  V30 2125 H 194.223 1.58855 1.06945 0
M  V30 2126 H 192.528 1.37752 3.66785 0
M  V30 2127 H 194.225 1.76321 3.60156 0
M  V30 2128 H 190.815 3.06342 2.99754 0
M  V30 2129 H 194.999 4.03775 2.88581 0
M  V30 2130 H 190.255 5.44681 2.77728 0
M  V30 2131 H 194.429 6.42901 2.67678 0
M  V30 2132 H 192.056 7.13712 2.61762 0
M  V30 2133 N 193.631 -1.12557 1.10312 0
M  V30 2134 C 194.908 -1.80363 0.756878 0
M  V30 2135 C 195.288 -1.97067 -0.756824 0
M  V30 2136 O 194.636 -1.54601 -1.68259 0
M  V30 2137 C 194.846 -3.14812 1.50647 0
M  V30 2138 C 196.194 -3.90029 1.67817 0
M  V30 2139 O 197.218 -3.24464 1.46974 0
M  V30 2140 O 196.077 -5.07652 2.02365 0
M  V30 2141 H 193.171 -0.780667 0.272926 0
M  V30 2142 H 195.717 -1.19404 1.20586 0
M  V30 2143 H 194.489 -2.97936 2.53672 0
M  V30 2144 H 194.112 -3.83478 1.05026 0
M  V30 2145 N 195.109 -0.891671 -1.2995 0
M  V30 2146 C 196.059 -0.334811 -2.25528 0
M  V30 2147 C 197.043 0.540553 -1.51548 0
M  V30 2148 O 198.235 0.383882 -1.72787 0
M  V30 2149 C 195.364 0.44374 -3.4042 0
M  V30 2150 C 194.45 -0.44609 -4.21747 0
M  V30 2151 N 194.841 -1.54963 -4.81477 0
M  V30 2152 C 193.139 -0.242415 -4.45341 0
M  V30 2153 C 193.84 -2.10015 -5.42465 0
M  V30 2154 N 192.816 -1.39423 -5.25416 0
M  V30 2155 H 196.618 -1.17792 -2.69262 0
M  V30 2156 H 194.132 -0.741822 -1.44467 0
M  V30 2157 H 196.129 0.859362 -4.07947 0
M  V30 2158 H 194.789 1.28421 -2.98225 0
M  V30 2159 H 195.8 -1.93244 -4.80497 0
M  V30 2160 H 192.477 0.560342 -4.13723 0
M  V30 2161 H 193.867 -3.02724 -5.9984 0
M  V30 2162 N 196.587 1.43421 -0.653314 0
M  V30 2163 C 197.517 2.33487 0.0246656 0
M  V30 2164 C 198.498 1.49475 0.811863 0
M  V30 2165 O 199.683 1.78139 0.773322 0
M  V30 2166 C 196.813 3.32841 0.99166 0
M  V30 2167 C 195.767 4.26842 0.314568 0
M  V30 2168 C 195.093 5.16236 1.39302 0
M  V30 2169 C 196.393 5.16243 -0.793095 0
M  V30 2170 H 198.087 2.90427 -0.727481 0
M  V30 2171 H 195.633 1.39649 -0.351287 0
M  V30 2172 H 197.586 3.94747 1.47487 0
M  V30 2173 H 196.31 2.74158 1.77497 0
M  V30 2174 H 194.969 3.663 -0.148199 0
M  V30 2175 H 194.617 4.53891 2.16776 0
M  V30 2176 H 194.317 5.79948 0.945223 0
M  V30 2177 H 195.841 5.81015 1.87759 0
M  V30 2178 H 197.255 5.71958 -0.392039 0
M  V30 2179 H 195.652 5.88676 -1.16536 0
M  V30 2180 H 196.722 4.55927 -1.65103 0
M  V30 2181 N 198.065 0.39524 1.52563 0
M  V30 2182 C 199.013 -0.451859 2.28169 0
M  V30 2183 C 200.007 -1.05792 1.32304 0
M  V30 2184 O 201.213 -0.997718 1.49818 0
M  V30 2185 H 197.588 -0.164481 0.733792 0
M  V30 2186 H 199.559 0.207199 2.9768 0
M  V30 2187 C 198.308 -1.56385 3.10546 0
M  V30 2188 H 197.631 -1.10682 3.84174 0
M  V30 2189 H 199.071 -2.13067 3.66577 0
M  V30 2190 C 197.53 -2.52328 2.23231 0
M  V30 2191 O 198.06 -3.5588 1.86312 0
M  V30 2192 N 196.266 -2.22209 1.87274 0
M  V30 2193 H 195.813 -1.38033 2.17496 0
M  V30 2194 H 195.771 -2.86652 1.29143 0
M  V30 2195 N 199.544 -1.57102 0.125237 0
M  V30 2196 C 200.792 -1.95021 -0.530198 0
M  V30 2197 C 201.113 -1.00982 -1.66816 0
M  V30 2198 O 200.383 -0.0672693 -1.95784 0
M  V30 2199 H 198.963 -0.720046 -0.198853 0
M  V30 2200 H 201.625 -1.93916 0.19564 0
M  V30 2201 H 200.721 -2.98211 -0.920681 0
M  V30 2202 N 201.022 0.148545 -1.56898 0
M  V30 2203 C 202.268 0.862694 -1.83536 0
M  V30 2204 C 202.601 1.80889 -0.706604 0
M  V30 2205 O 201.876 1.92328 0.289885 0
M  V30 2206 C 202.159 1.63853 -3.20662 0
M  V30 2207 C 202.012 0.713925 -4.44098 0
M  V30 2208 C 203.331 2.60133 -3.54991 0
M  V30 2209 H 200.45 0.312179 -0.667618 0
M  V30 2210 H 203.092 0.127953 -1.89569 0
M  V30 2211 H 201.242 2.26489 -3.1565 0
M  V30 2212 H 202.914 0.098686 -4.61194 0
M  V30 2213 H 201.157 0.0234019 -4.33794 0
M  V30 2214 H 201.828 1.29278 -5.36648 0
M  V30 2215 H 204.304 2.07616 -3.60603 0
M  V30 2216 H 203.18 3.11468 -4.51972 0
M  V30 2217 H 203.441 3.41417 -2.80868 0
M  V30 2218 N 202.5 1.5196 0.417844 0
M  V30 2219 C 203.43 1.77634 1.51554 0
M  V30 2220 C 204.411 0.626918 1.58126 0
M  V30 2221 O 205.596 0.871632 1.7354 0
M  V30 2222 C 202.726 1.91911 2.8946 0
M  V30 2223 C 201.68 3.07463 2.97743 0
M  V30 2224 C 201.006 3.06951 4.37819 0
M  V30 2225 C 202.306 4.47082 2.70027 0
M  V30 2226 H 204 2.6955 1.3032 0
M  V30 2227 H 201.546 1.29706 0.625492 0
M  V30 2228 H 203.499 2.08455 3.6623 0
M  V30 2229 H 202.223 0.966598 3.11969 0
M  V30 2230 H 200.882 2.90656 2.23416 0
M  V30 2231 H 200.53 2.09438 4.57323 0
M  V30 2232 H 200.23 3.84556 4.44286 0
M  V30 2233 H 201.754 3.25613 5.16535 0
M  V30 2234 H 203.168 4.6414 3.36522 0
M  V30 2235 H 201.565 5.2654 2.87881 0
M  V30 2236 H 202.635 4.55777 1.65514 0
M  V30 2237 N 203.978 -0.674533 1.42435 0
M  V30 2238 C 205.227 -1.43034 1.42212 0
M  V30 2239 C 205.54 -1.95555 0.0420788 0
M  V30 2240 O 206.746 -2.71374 -0.0827558 0
M  V30 2241 C 205.202 -2.58748 2.50155 0
M  V30 2242 C 204.81 -2.12925 3.94166 0
M  V30 2243 C 206.554 -3.36257 2.59098 0
M  V30 2244 C 204.461 -3.25723 4.93618 0
M  V30 2245 H 203.391 -0.537345 0.528939 0
M  V30 2246 H 206.042 -0.73024 1.68344 0
M  V30 2247 H 204.424 -3.31128 2.17188 0
M  V30 2248 H 205.598 -1.47697 4.36488 0
M  V30 2249 H 203.913 -1.48354 3.89076 0
M  V30 2250 H 206.51 -4.20264 3.30578 0
M  V30 2251 H 206.853 -3.82866 1.63461 0
M  V30 2252 H 207.386 -2.70947 2.9126 0
M  V30 2253 H 204.125 -2.84105 5.90732 0
M  V30 2254 H 203.645 -3.89732 4.55926 0
M  V30 2255 H 205.324 -3.91186 5.15347 0
M  V30 2256 N 205.456 -1.28612 -0.910864 0
M  V30 2257 C 206.705 -1.15311 -1.65488 0
M  V30 2258 C 207.018 0.296999 -1.93332 0
M  V30 2259 O 208.224 0.551168 -2.65847 0
M  V30 2260 C 206.68 -2.01599 -2.98137 0
M  V30 2261 C 206.288 -3.51367 -2.7793 0
M  V30 2262 C 208.032 -1.96993 -3.76024 0
M  V30 2263 C 205.939 -4.29797 -4.06237 0
M  V30 2264 H 204.869 -0.42796 -0.620779 0
M  V30 2265 H 207.52 -1.53166 -1.01057 0
M  V30 2266 H 205.902 -1.56603 -3.63719 0
M  V30 2267 H 207.076 -4.0434 -2.21011 0
M  V30 2268 H 205.391 -3.57529 -2.13452 0
M  V30 2269 H 207.988 -2.52856 -4.71135 0
M  V30 2270 H 208.331 -0.94733 -4.05378 0
M  V30 2271 H 208.864 -2.39973 -3.17266 0
M  V30 2272 H 205.603 -5.32648 -3.82055 0
M  V30 2273 H 205.123 -3.81596 -4.62757 0
M  V30 2274 H 206.802 -4.39869 -4.74473 0
M  V30 2275 N 206.934 1.1197 -1.10907 0
M  V30 2276 C 208.211 1.79959 -0.766432 0
M  V30 2277 C 208.591 1.97466 0.746363 0
M  V30 2278 O 207.939 1.55491 1.67436 0
M  V30 2279 C 208.149 3.14009 -1.52314 0
M  V30 2280 C 209.497 3.89134 -1.69883 0
M  V30 2281 O 210.521 3.2368 -1.48692 0
M  V30 2282 O 209.38 5.06572 -2.05054 0
M  V30 2283 H 206.474 0.779208 -0.277062 0
M  V30 2284 H 209.02 1.18762 -1.21217 0
M  V30 2285 H 207.792 2.96587 -2.55249 0
M  V30 2286 H 207.415 3.82915 -1.07059 0
M  V30 2287 N 208.412 0.89855 1.29475 0
M  V30 2288 C 209.828 0.594483 1.48115 0
M  V30 2289 C 210.028 -0.86431 1.82022 0
M  V30 2290 O 209.084 -1.64457 1.91599 0
M  V30 2291 C 210.397 1.51932 2.59494 0
M  V30 2292 C 211.945 1.5244 2.7337 0
M  V30 2293 C 212.42 2.43548 3.87877 0
M  V30 2294 N 213.911 2.41589 3.95208 0
M  V30 2295 C 214.646 3.08789 4.83153 0
M  V30 2296 N 214.142 3.85265 5.75798 0
M  V30 2297 N 215.935 2.97952 4.76635 0
M  V30 2298 H 208.086 1.84207 1.05742 0
M  V30 2299 H 210.349 0.789251 0.525154 0
M  V30 2300 H 210.055 2.55865 2.41301 0
M  V30 2301 H 209.929 1.23899 3.56271 0
M  V30 2302 H 212.316 0.492518 2.90961 0
M  V30 2303 H 212.397 1.8451 1.77172 0
M  V30 2304 H 212.041 3.46829 3.71041 0
M  V30 2305 H 211.971 2.08788 4.83441 0
M  V30 2306 H 214.462 1.86025 3.28943 0
M  V30 2307 H 214.775 4.33598 6.39697 0
M  V30 2308 H 213.12 3.89371 5.75687 0
M  V30 2309 H 216.311 2.37723 4.03244 0
M  V30 2310 H 216.484 3.50599 5.44962 0
M  V30 2311 N 209.89 -1.43072 0.660911 0
M  V30 2312 C 211.139 -2.00942 0.174735 0
M  V30 2313 C 211.452 -1.52797 -1.22117 0
M  V30 2314 O 212.658 -2.02991 -1.80297 0
M  V30 2315 C 211.114 -3.58948 0.261559 0
M  V30 2316 C 210.722 -4.16085 1.66064 0
M  V30 2317 C 212.466 -4.24173 -0.166617 0
M  V30 2318 C 210.373 -5.6641 1.70098 0
M  V30 2319 H 209.303 -0.751483 0.0615631 0
M  V30 2320 H 211.954 -1.63955 0.824069 0
M  V30 2321 H 210.336 -3.93372 -0.455421 0
M  V30 2322 H 211.51 -3.93147 2.40359 0
M  V30 2323 H 209.825 -3.6326 2.03546 0
M  V30 2324 H 212.422 -5.34471 -0.156433 0
M  V30 2325 H 212.765 -3.98647 -1.19943 0
M  V30 2326 H 213.298 -3.94659 0.498875 0
M  V30 2327 H 210.037 -5.96715 2.71315 0
M  V30 2328 H 209.557 -5.91382 1.00139 0
M  V30 2329 H 211.236 -6.30585 1.44816 0
M  V30 2330 N 211.368 -0.403325 -1.52352 0
M  V30 2331 C 212.593 0.176499 -2.06648 0
M  V30 2332 C 213.018 1.38577 -1.27193 0
M  V30 2333 O 212.376 1.7879 -0.300637 0
M  V30 2334 C 212.424 0.511061 -3.5696 0
M  V30 2335 O 211.528 1.60294 -3.79973 0
M  V30 2336 H 210.869 0.0167337 -0.663789 0
M  V30 2337 H 213.399 -0.574848 -1.96359 0
M  V30 2338 H 213.409 0.771362 -4.00642 0
M  V30 2339 H 212.084 -0.37296 -4.14224 0
M  V30 2340 H 210.661 1.33526 -3.48174 0
M  V30 2341 N 212.846 1.57033 -0.133567 0
M  V30 2342 C 214.257 1.82593 0.389464 0
M  V30 2343 C 214.608 1.05156 1.6564 0
M  V30 2344 O 213.733 0.292644 2.14412 0
M  V30 2345 C 214.328 3.31204 0.713377 0
M  V30 2346 C 212.887 3.57393 1.18098 0
M  V30 2347 C 212.034 2.76598 0.197126 0
M  V30 2348 H 214.985 1.54598 -0.358481 0
M  V30 2349 H 215.006 3.46627 1.56939 0
M  V30 2350 H 214.518 3.87537 -0.2089 0
M  V30 2351 H 212.619 3.06433 2.11966 0
M  V30 2352 H 212.732 4.65915 1.11624 0
M  V30 2353 H 211.096 2.45257 0.687088 0
M  V30 2354 H 211.879 3.35697 -0.718504 0
M  V30 2355 N 214.325 -0.140222 1.56975 0
M  V30 2356 C 215.288 -1.15689 1.97861 0
M  V30 2357 C 216.288 -1.3549 0.865974 0
M  V30 2358 O 217.478 -1.32367 1.13246 0
M  V30 2359 C 214.61 -2.51582 2.30042 0
M  V30 2360 H 215.803 -0.805971 2.88867 0
M  V30 2361 H 213.356 -0.383801 1.51515 0
M  V30 2362 H 214.091 -2.91632 1.41849 0
M  V30 2363 H 213.876 -2.38569 3.11171 0
M  V30 2364 H 215.366 -3.24792 2.62488 0
M  V30 2365 N 215.803 -1.52179 -0.40978 0
M  V30 2366 C 216.75 -1.75475 -1.49924 0
M  V30 2367 C 217.72 -0.597175 -1.54994 0
M  V30 2368 O 218.905 -0.834655 -1.71575 0
M  V30 2369 C 216.045 -1.9107 -2.87378 0
M  V30 2370 C 215.158 -3.18717 -2.91622 0
M  V30 2371 C 214.293 -3.24747 -4.20372 0
M  V30 2372 C 213.332 -4.46598 -4.18588 0
M  V30 2373 N 212.469 -4.50025 -5.38908 0
M  V30 2374 H 217.309 -2.68458 -1.29361 0
M  V30 2375 H 214.846 -1.33024 -0.627934 0
M  V30 2376 H 216.804 -1.98096 -3.6717 0
M  V30 2377 H 215.434 -1.01469 -3.06437 0
M  V30 2378 H 214.486 -3.20866 -2.04326 0
M  V30 2379 H 215.798 -4.08544 -2.86169 0
M  V30 2380 H 214.952 -3.30841 -5.08556 0
M  V30 2381 H 213.691 -2.32857 -4.28519 0
M  V30 2382 H 212.696 -4.40652 -3.28794 0
M  V30 2383 H 213.921 -5.39783 -4.12081 0
M  V30 2384 H 211.867 -3.61017 -5.47725 0
M  V30 2385 H 211.784 -5.33697 -5.35447 0
M  V30 2386 H 213.052 -4.60347 -6.29048 0
M  V30 2387 N 217.281 0.66697 -1.42791 0
M  V30 2388 C 218.697 0.981027 -1.25889 0
M  V30 2389 C 218.897 2.00793 -0.168695 0
M  V30 2390 O 217.953 2.48321 0.45747 0
M  V30 2391 C 219.266 1.47838 -2.61848 0
M  V30 2392 C 220.814 1.59575 -2.69267 0
M  V30 2393 C 221.289 2.12704 -4.05612 0
M  V30 2394 N 222.78 2.20026 -4.07606 0
M  V30 2395 C 223.515 2.62227 -5.09926 0
M  V30 2396 N 223.011 3.03824 -6.22626 0
M  V30 2397 N 224.804 2.62045 -4.97281 0
M  V30 2398 H 216.955 -0.0127891 -2.12396 0
M  V30 2399 H 219.218 0.0568258 -0.946295 0
M  V30 2400 H 218.924 0.798299 -3.4252 0
M  V30 2401 H 218.798 2.45579 -2.86305 0
M  V30 2402 H 221.185 2.26687 -1.88936 0
M  V30 2403 H 221.266 0.60302 -2.48591 0
M  V30 2404 H 220.91 1.46198 -4.86404 0
M  V30 2405 H 220.84 3.12782 -4.23645 0
M  V30 2406 H 223.331 1.90708 -3.2625 0
M  V30 2407 H 223.644 3.34734 -6.96544 0
M  V30 2408 H 221.989 3.01662 -6.26119 0
M  V30 2409 H 225.18 2.28916 -4.08308 0
M  V30 2410 H 225.353 2.94613 -5.77154 0
M  V30 2411 N 218.759 1.29093 0.90403 0
M  V30 2412 C 219.689 1.16401 2.02418 0
M  V30 2413 C 220.67 0.0593085 1.69997 0
M  V30 2414 O 221.855 0.238021 1.92736 0
M  V30 2415 C 218.985 0.835233 3.37107 0
M  V30 2416 C 217.939 1.89578 3.83724 0
M  V30 2417 C 217.265 1.42041 5.15489 0
M  V30 2418 C 218.565 3.30394 4.04521 0
M  V30 2419 H 220.259 2.10109 2.13295 0
M  V30 2420 H 217.805 1.01157 1.02486 0
M  V30 2421 H 219.758 0.733169 4.14973 0
M  V30 2422 H 218.482 -0.137543 3.2631 0
M  V30 2423 H 217.141 1.98715 3.08071 0
M  V30 2424 H 216.789 0.436426 5.01103 0
M  V30 2425 H 216.489 2.12964 5.4765 0
M  V30 2426 H 218.013 1.33176 5.959 0
M  V30 2427 H 219.427 3.24123 4.72882 0
M  V30 2428 H 217.824 3.99237 4.48029 0
M  V30 2429 H 218.894 3.73692 3.09002 0
M  V30 2430 N 220.237 -1.11381 1.11499 0
M  V30 2431 C 221.167 -2.19509 0.796125 0
M  V30 2432 C 222.148 -1.68458 -0.235796 0
M  V30 2433 O 223.333 -1.93947 -0.0991344 0
M  V30 2434 C 220.463 -3.46475 0.239205 0
M  V30 2435 C 219.417 -4.10744 1.20307 0
M  V30 2436 C 218.743 -5.32293 0.50683 0
M  V30 2437 C 220.043 -4.55597 2.55399 0
M  V30 2438 H 221.737 -2.46439 1.70024 0
M  V30 2439 H 219.283 -1.18446 0.818935 0
M  V30 2440 H 221.236 -4.214 0.00392006 0
M  V30 2441 H 219.96 -3.19006 -0.700206 0
M  V30 2442 H 218.619 -3.37813 1.42399 0
M  V30 2443 H 218.267 -5.01095 -0.437408 0
M  V30 2444 H 217.967 -5.76243 1.1497 0
M  V30 2445 H 219.491 -6.09956 0.280351 0
M  V30 2446 H 220.905 -5.21841 2.37391 0
M  V30 2447 H 219.302 -5.10363 3.15673 0
M  V30 2448 H 220.372 -3.69013 3.14575 0
M  V30 2449 N 221.715 -0.905404 -1.28997 0
M  V30 2450 C 222.645 -0.404212 -2.29975 0
M  V30 2451 C 223.626 0.523784 -1.61835 0
M  V30 2452 O 224.811 0.433298 -1.89304 0
M  V30 2453 C 221.941 0.364042 -3.45387 0
M  V30 2454 C 220.895 -0.474048 -4.25367 0
M  V30 2455 C 220.221 0.422045 -5.33032 0
M  V30 2456 C 221.521 -1.72696 -4.92923 0
M  V30 2457 H 223.215 -1.24807 -2.72146 0
M  V30 2458 H 220.761 -0.601585 -1.30832 0
M  V30 2459 H 222.714 0.725447 -4.15109 0
M  V30 2460 H 221.438 1.24174 -3.02074 0
M  V30 2461 H 220.097 -0.81786 -3.57361 0
M  V30 2462 H 219.745 1.29804 -4.85963 0
M  V30 2463 H 219.445 -0.135057 -5.87445 0
M  V30 2464 H 220.969 0.779517 -6.05604 0
M  V30 2465 H 222.383 -1.43495 -5.55051 0
M  V30 2466 H 220.78 -2.22582 -5.57295 0
M  V30 2467 H 221.85 -2.45964 -4.17887 0
M  V30 2468 N 223.193 1.4272 -0.668489 0
M  V30 2469 C 224.609 1.55992 -0.33745 0
M  V30 2470 C 224.809 1.64933 1.15756 0
M  V30 2471 O 223.865 1.61278 1.94282 0
M  V30 2472 C 225.178 2.81314 -1.06222 0
M  V30 2473 C 226.726 2.95078 -1.04394 0
M  V30 2474 C 227.201 4.23252 -1.74991 0
M  V30 2475 N 228.692 4.3015 -1.71829 0
M  V30 2476 C 229.427 5.28127 -2.23315 0
M  V30 2477 N 228.923 6.32293 -2.83156 0
M  V30 2478 N 230.716 5.19882 -2.13726 0
M  V30 2479 H 222.867 1.3516 -1.63846 0
M  V30 2480 H 225.13 0.650174 -0.689912 0
M  V30 2481 H 224.836 2.80823 -2.11734 0
M  V30 2482 H 224.71 3.72012 -0.62344 0
M  V30 2483 H 227.097 2.951 0.0028244 0
M  V30 2484 H 227.178 2.05627 -1.52155 0
M  V30 2485 H 226.822 4.2399 -2.79633 0
M  V30 2486 H 226.752 5.11626 -1.24685 0
M  V30 2487 H 229.243 3.55499 -1.28175 0
M  V30 2488 H 229.556 7.03398 -3.20079 0
M  V30 2489 H 227.901 6.32873 -2.87223 0
M  V30 2490 H 231.092 4.37423 -1.66669 0
M  V30 2491 H 231.265 5.96077 -2.54158 0
M  V30 2492 N 224.671 0.411399 1.52136 0
M  V30 2493 C 225.618 -0.412975 2.27075 0
M  V30 2494 C 226.588 -1.03912 1.29582 0
M  V30 2495 O 227.773 -1.06296 1.58448 0
M  V30 2496 C 224.913 -1.52247 3.09701 0
M  V30 2497 C 224.026 -0.917021 4.22155 0
M  V30 2498 C 223.161 -1.9994 4.92135 0
M  V30 2499 C 222.2 -1.37101 5.96548 0
M  V30 2500 N 221.337 -2.39364 6.60038 0
M  V30 2501 H 226.177 0.232499 2.97092 0
M  V30 2502 H 223.714 0.126496 1.46555 0
M  V30 2503 H 225.672 -2.17674 3.55913 0
M  V30 2504 H 224.302 -2.13794 2.41851 0
M  V30 2505 H 223.354 -0.151742 3.80097 0
M  V30 2506 H 224.666 -0.418006 4.97045 0
M  V30 2507 H 223.82 -2.73088 5.41763 0
M  V30 2508 H 222.559 -2.53208 4.16818 0
M  V30 2509 H 221.564 -0.624873 5.46237 0
M  V30 2510 H 222.789 -0.845998 6.7381 0
M  V30 2511 H 220.735 -2.91759 5.87548 0
M  V30 2512 H 220.652 -1.9428 7.3061 0
M  V30 2513 H 221.92 -3.12074 7.14304 0
M  V30 2514 N 226.149 -1.5696 0.141893 0
M  V30 2515 C 227.096 -2.16501 -0.799737 0
M  V30 2516 C 228.066 -1.09643 -1.24771 0
M  V30 2517 O 229.251 -1.3766 -1.32115 0
M  V30 2518 C 226.391 -2.78679 -2.03549 0
M  V30 2519 C 225.504 -3.99914 -1.6338 0
M  V30 2520 C 224.639 -4.50106 -2.82096 0
M  V30 2521 C 223.678 -5.63819 -2.38275 0
M  V30 2522 N 222.815 -6.08651 -3.49983 0
M  V30 2523 H 227.655 -2.96632 -0.285179 0
M  V30 2524 H 225.192 -1.46533 -0.129053 0
M  V30 2525 H 227.15 -3.1287 -2.75986 0
M  V30 2526 H 225.78 -2.012 -2.52425 0
M  V30 2527 H 224.832 -3.71735 -0.807279 0
M  V30 2528 H 226.144 -4.82311 -1.27192 0
M  V30 2529 H 225.298 -4.86325 -3.62729 0
M  V30 2530 H 224.037 -3.66706 -3.21525 0
M  V30 2531 H 223.042 -5.2718 -1.56081 0
M  V30 2532 H 224.267 -6.49 -1.99938 0
M  V30 2533 H 222.213 -5.28188 -3.89042 0
M  V30 2534 H 222.13 -6.85961 -3.17794 0
M  V30 2535 H 223.398 -6.49515 -4.30988 0
M  V30 2536 N 227.627 0.131896 -1.57047 0
M  V30 2537 C 228.557 1.16384 -2.02428 0
M  V30 2538 C 229.538 1.43936 -0.90644 0
M  V30 2539 O 230.723 1.54599 -1.17528 0
M  V30 2540 C 227.853 2.49328 -2.4177 0
M  V30 2541 C 226.807 2.36266 -3.56879 0
M  V30 2542 C 226.133 3.74057 -3.8208 0
M  V30 2543 C 227.433 1.834 -4.89042 0
M  V30 2544 H 229.127 0.786433 -2.88887 0
M  V30 2545 H 226.673 0.376855 -1.38981 0
M  V30 2546 H 228.626 3.21759 -2.7212 0
M  V30 2547 H 227.35 2.88934 -1.52266 0
M  V30 2548 H 226.009 1.66286 -3.26718 0
M  V30 2549 H 225.657 4.11125 -2.89803 0
M  V30 2550 H 225.357 3.66174 -4.59554 0
M  V30 2551 H 226.881 4.48012 -4.1487 0
M  V30 2552 H 228.295 2.45636 -5.18011 0
M  V30 2553 H 226.692 1.8637 -5.70426 0
M  V30 2554 H 227.762 0.790662 -4.7841 0
M  V30 2555 N 229.106 1.52395 0.401703 0
M  V30 2556 C 230.039 1.70999 1.51111 0
M  V30 2557 C 231.017 0.55765 1.52738 0
M  V30 2558 O 232.201 0.785912 1.71335 0
M  V30 2559 C 229.328 1.75607 2.8962 0
M  V30 2560 C 228.374 2.97227 3.05873 0
M  V30 2561 S 229.207 4.57439 2.78405 0
M  V30 2562 C 230.363 4.64844 4.19131 0
M  V30 2563 H 230.596 2.6483 1.35102 0
M  V30 2564 H 228.129 1.42527 0.593762 0
M  V30 2565 H 230.087 1.78947 3.69443 0
M  V30 2566 H 228.748 0.828914 3.02965 0
M  V30 2567 H 227.941 2.96955 4.07227 0
M  V30 2568 H 227.543 2.91813 2.33925 0
M  V30 2569 H 229.835 4.42677 5.12877 0
M  V30 2570 H 230.778 5.66807 4.24424 0
M  V30 2571 H 231.186 3.93804 4.04448 0
M  V30 2572 N 230.584 -0.659388 1.43143 0
M  V30 2573 C 231.861 -1.41627 1.34912 0
M  V30 2574 C 232.241 -2.11099 -0.00607785 0
M  V30 2575 O 231.589 -2.04353 -1.02236 0
M  V30 2576 C 231.799 -2.40604 2.52805 0
M  V30 2577 C 233.147 -3.04789 2.95616 0
M  V30 2578 O 234.171 -2.50932 2.52807 0
M  V30 2579 O 233.03 -4.02421 3.69756 0
M  V30 2580 H 230.124 -0.63246 0.532844 0
M  V30 2581 H 232.67 -0.686814 1.5518 0
M  V30 2582 H 231.442 -1.88174 3.43083 0
M  V30 2583 H 231.065 -3.21009 2.34604 0
M  V30 2584 N 232.062 -1.29571 -0.897171 0
M  V30 2585 C 233.311 -1.1706 -1.64256 0
M  V30 2586 C 233.624 0.276476 -1.93636 0
M  V30 2587 O 234.83 0.52294 -2.66416 0
M  V30 2588 C 233.286 -2.0475 -2.95982 0
M  V30 2589 C 232.894 -3.54295 -2.74187 0
M  V30 2590 C 234.638 -2.0097 -3.73914 0
M  V30 2591 C 232.545 -4.34081 -4.01656 0
M  V30 2592 H 231.475 -0.43452 -0.616205 0
M  V30 2593 H 234.126 -1.54229 -0.994268 0
M  V30 2594 H 232.508 -1.60452 -3.62038 0
M  V30 2595 H 233.682 -4.06662 -2.1671 0
M  V30 2596 H 231.997 -3.59773 -2.09648 0
M  V30 2597 H 234.594 -2.57838 -4.68427 0
M  V30 2598 H 234.937 -0.990273 -4.0435 0
M  V30 2599 H 235.47 -2.43325 -3.14703 0
M  V30 2600 H 232.209 -5.36671 -3.76384 0
M  V30 2601 H 231.729 -3.86483 -4.58684 0
M  V30 2602 H 233.408 -4.44877 -4.69781 0
M  V30 2603 N 233.54 1.10788 -1.12088 0
M  V30 2604 C 234.503 2.15207 -0.788577 0
M  V30 2605 C 235.503 1.59609 0.195317 0
M  V30 2606 O 236.693 1.74174 -0.0300193 0
M  V30 2607 C 233.825 3.4047 -0.171174 0
M  V30 2608 H 235.018 2.46116 -1.71368 0
M  V30 2609 H 232.571 1.26089 -0.923652 0
M  V30 2610 H 233.306 3.15176 0.763832 0
M  V30 2611 H 233.091 3.82109 -0.879514 0
M  V30 2612 H 234.581 4.17576 0.04496 0
M  V30 2613 N 235.018 0.912232 1.28515 0
M  V30 2614 C 236.434 0.610159 1.47476 0
M  V30 2615 C 236.634 -0.844955 1.82928 0
M  V30 2616 O 235.69 -1.62416 1.93332 0
M  V30 2617 C 237.003 1.54675 2.57868 0
M  V30 2618 C 238.551 1.55331 2.71738 0
M  V30 2619 C 239.026 2.47649 3.85272 0
M  V30 2620 N 240.517 2.45767 3.92623 0
M  V30 2621 C 241.252 3.13896 4.79851 0
M  V30 2622 N 240.748 3.9135 5.71679 0
M  V30 2623 N 242.541 3.02991 4.73448 0
M  V30 2624 H 234.692 1.85318 1.03783 0
M  V30 2625 H 236.955 0.794777 0.516753 0
M  V30 2626 H 236.661 2.5841 2.38574 0
M  V30 2627 H 236.535 1.27671 3.54937 0
M  V30 2628 H 238.922 0.52335 2.90422 0
M  V30 2629 H 239.003 1.86378 1.75205 0
M  V30 2630 H 238.647 3.50745 3.67342 0
M  V30 2631 H 238.577 2.13904 4.81199 0
M  V30 2632 H 241.068 1.89503 3.26951 0
M  V30 2633 H 241.381 4.40359 6.35062 0
M  V30 2634 H 239.726 3.95455 5.71524 0
M  V30 2635 H 242.917 2.41987 4.007 0
M  V30 2636 H 243.09 3.5636 5.41213 0
M  V30 2637 N 236.496 -1.42363 0.676048 0
M  V30 2638 C 237.724 -2.05859 0.207268 0
M  V30 2639 C 238.139 -1.50796 -1.13605 0
M  V30 2640 O 237.496 -0.648265 -1.70598 0
M  V30 2641 C 237.547 -3.61248 0.134975 0
M  V30 2642 O 237.268 -4.1427 1.42521 0
M  V30 2643 C 238.769 -4.41859 -0.357151 0
M  V30 2644 H 235.989 -0.663431 0.100503 0
M  V30 2645 H 238.533 -1.82479 0.923136 0
M  V30 2646 H 236.688 -3.83735 -0.531588 0
M  V30 2647 H 237.102 -5.0815 1.29939 0
M  V30 2648 H 238.576 -5.50847 -0.356641 0
M  V30 2649 H 239.053 -4.16536 -1.39264 0
M  V30 2650 H 239.659 -4.24392 0.27772 0
M  V30 2651 N 237.974 -0.419461 -1.51915 0
M  V30 2652 C 239.22 0.153166 -2.02221 0
M  V30 2653 C 239.553 1.43907 -1.30401 0
M  V30 2654 O 238.828 1.90055 -0.413438 0
M  V30 2655 C 239.111 0.390291 -3.57979 0
M  V30 2656 C 238.964 -0.913014 -4.40436 0
M  V30 2657 C 240.283 1.16794 -4.2432 0
M  V30 2658 H 237.402 0.0541924 -0.735005 0
M  V30 2659 H 240.044 -0.554955 -1.81715 0
M  V30 2660 H 238.194 0.993491 -3.75582 0
M  V30 2661 H 239.866 -1.54882 -4.34522 0
M  V30 2662 H 238.109 -1.52168 -4.06236 0
M  V30 2663 H 238.78 -0.701361 -5.47526 0
M  V30 2664 H 241.256 0.657161 -4.10878 0
M  V30 2665 H 240.132 1.3026 -5.3322 0
M  V30 2666 H 240.393 2.19132 -3.83971 0
M  V30 2667 N 239.452 1.56882 -0.150215 0
M  V30 2668 C 240.399 2.16922 0.788244 0
M  V30 2669 C 241.369 1.10303 1.24187 0
M  V30 2670 O 242.554 1.38359 1.31383 0
M  V30 2671 C 239.694 2.79754 2.02068 0
M  V30 2672 C 238.807 4.00775 1.61257 0
M  V30 2673 C 237.942 4.51595 2.79705 0
M  V30 2674 C 236.981 5.65074 2.35282 0
M  V30 2675 N 236.118 6.10499 3.4675 0
M  V30 2676 H 240.958 2.96779 0.269444 0
M  V30 2677 H 238.495 1.46599 0.12128 0
M  V30 2678 H 240.453 3.14329 2.74323 0
M  V30 2679 H 239.083 2.02536 2.51354 0
M  V30 2680 H 238.135 3.72158 0.787553 0
M  V30 2681 H 239.447 4.82978 1.24633 0
M  V30 2682 H 238.601 4.88242 3.60145 0
M  V30 2683 H 237.34 3.68406 3.19576 0
M  V30 2684 H 236.345 5.28 1.53283 0
M  V30 2685 H 237.57 6.50052 1.96493 0
M  V30 2686 H 235.516 5.30243 3.86236 0
M  V30 2687 H 235.433 6.87637 3.14152 0
M  V30 2688 H 236.701 6.51791 4.27537 0
M  V30 2689 N 240.93 -0.123565 1.57115 0
M  V30 2690 C 242.346 -0.476961 1.52306 0
M  V30 2691 C 242.546 -1.82109 0.86248 0
M  V30 2692 O 241.602 -2.48586 0.442884 0
M  V30 2693 C 242.915 -0.465661 2.97073 0
M  V30 2694 C 244.463 -0.549534 3.08138 0
M  V30 2695 C 244.938 -0.568669 4.54456 0
M  V30 2696 N 246.429 -0.630237 4.58892 0
M  V30 2697 C 247.164 -0.666415 5.69514 0
M  V30 2698 N 246.66 -0.660514 6.89644 0
M  V30 2699 N 248.453 -0.709077 5.5761 0
M  V30 2700 H 240.604 0.757198 1.98445 0
M  V30 2701 H 242.867 0.278808 0.906074 0
M  V30 2702 H 242.573 0.454232 3.48754 0
M  V30 2703 H 242.447 -1.29513 3.54269 0
M  V30 2704 H 244.834 -1.45985 2.56461 0
M  V30 2705 H 244.915 0.307532 2.53945 0
M  V30 2706 H 244.559 0.337581 5.06777 0
M  V30 2707 H 244.489 -1.44256 5.06456 0
M  V30 2708 H 246.98 -0.641146 3.72421 0
M  V30 2709 H 247.293 -0.690616 7.69708 0
M  V30 2710 H 245.638 -0.628012 6.92157 0
M  V30 2711 H 248.829 -0.711019 4.62668 0
M  V30 2712 H 249.002 -0.733804 6.43832 0
M  V30 2713 O 242.447 -1.59262 -0.267957 0
M  V30 2714 H 243.138 -1.70845 -0.912779 0
M  V30 END ATOM
M  V30 BEGIN BOND
M  V30 END BOND
M  V30 END CTAB
M  END
$$$$
