drugbank_target|P22262 Listeriolysin regulatory protein (DB01692; DB03654; DB04447)
 OpenBabel12092119503D

  0  0  0     0  0            999 V3000
M  V30 BEGIN CTAB
M  V30 COUNTS 3860 3904 0 0 0
M  V30 BEGIN ATOM
M  V30 1 H -0.908 1.98254 -0.117106 0
M  V30 2 N 0 1.576 0 0
M  V30 3 C 0.933 2.03868 1.02534 0
M  V30 4 C 1.911 0.928543 1.3348 0
M  V30 5 O 3.095 1.19667 1.45644 0
M  V30 6 C 0.222 2.43627 2.35294 0
M  V30 7 C -0.732 3.65373 2.2001 0
M  V30 8 S 0.101 5.13292 1.52614 0
M  V30 9 C 1.257 5.56322 2.86805 0
M  V30 10 H 1.49 2.90518 0.631377 0
M  V30 11 H -0.977 1.52953 0.210867 0
M  V30 12 H 0.981 2.67203 3.11629 0
M  V30 13 H -0.358 1.57376 2.7183 0
M  V30 14 H -1.165 3.90944 3.18086 0
M  V30 15 H -1.563 3.418 1.51819 0
M  V30 16 H 0.729 5.58782 3.83104 0
M  V30 17 H 1.672 6.56266 2.65933 0
M  V30 18 H 2.08 4.83886 2.90714 0
M  V30 19 N 1.4781 -0.272755 1.55222 0
M  V30 20 C 2.4261 -1.35705 1.88909 0
M  V30 21 C 3.4201 -1.5112 0.765456 0
M  V30 22 O 4.6261 -1.52901 0.949802 0
M  V30 23 H 1.0011 -0.453868 0.59959 0
M  V30 24 H 2.9721 -1.04544 2.79487 0
M  V30 25 C 1.7211 -2.71049 2.17779 0
M  V30 26 H 1.0441 -2.59979 3.03728 0
M  V30 27 H 2.4841 -3.45858 2.45272 0
M  V30 28 C 0.9431 -3.22165 0.985473 0
M  V30 29 O 1.4731 -4.01096 0.220233 0
M  V30 30 N -0.3209 -2.7985 0.783108 0
M  V30 31 H -0.7739 -2.15775 1.40708 0
M  V30 32 H -0.8159 -3.14397 -0.0130392 0
M  V30 33 N 2.9562 -1.48159 -0.537278 0
M  V30 34 C 3.9192 -1.61665 -1.62472 0
M  V30 35 C 4.9192 -0.490395 -1.5314 0
M  V30 36 O 6.1092 -0.755998 -1.5694 0
M  V30 37 C 3.2412 -1.57997 -3.02076 0
M  V30 38 H 4.4342 -2.58621 -1.51839 0
M  V30 39 H 1.9872 -1.36647 -0.758771 0
M  V30 40 H 2.7222 -0.624913 -3.18222 0
M  V30 41 H 2.5072 -2.39755 -3.10258 0
M  V30 42 H 3.9972 -1.70627 -3.81151 0
M  V30 43 N 4.4343 0.785586 -1.36625 0
M  V30 44 C 5.3663 1.90711 -1.2713 0
M  V30 45 C 6.3793 1.61688 -0.189986 0
M  V30 46 O 7.5683 1.72864 -0.445014 0
M  V30 47 C 4.6683 3.25611 -0.939713 0
M  V30 48 C 3.8413 3.82385 -2.12369 0
M  V30 49 C 2.9003 4.95732 -1.76456 0
M  V30 50 O 1.9263 5.12047 -2.48589 0
M  V30 51 N 3.1283 5.76258 -0.700492 0
M  V30 52 H 5.8933 1.99376 -2.23762 0
M  V30 53 H 3.4543 0.964041 -1.30069 0
M  V30 54 H 5.4463 3.98937 -0.680554 0
M  V30 55 H 4.0163 3.12538 -0.0624074 0
M  V30 56 H 3.2363 3.01001 -2.54543 0
M  V30 57 H 4.5243 4.17047 -2.9146 0
M  V30 58 H 3.9223 5.65609 -0.101624 0
M  V30 59 H 2.4793 6.4987 -0.501165 0
M  V30 60 N 5.9124 1.20967 1.01018 0
M  V30 61 C 6.8754 0.965918 2.07853 0
M  V30 62 C 7.8754 -0.0610545 1.60684 0
M  V30 63 O 9.0654 0.175681 1.73312 0
M  V30 64 C 6.1974 0.455513 3.37843 0
M  V30 65 H 7.3904 1.91365 2.3091 0
M  V30 66 H 4.9434 1.02594 1.17916 0
M  V30 67 H 5.6784 -0.497381 3.20463 0
M  V30 68 H 5.4634 1.19622 3.73407 0
M  V30 69 H 6.9534 0.304667 4.16487 0
M  V30 70 N 7.3905 -1.2043 1.01659 0
M  V30 71 C 8.3005 -2.2689 0.596484 0
M  V30 72 C 9.3165 -1.70107 -0.36599 0
M  V30 73 O 10.4925 -2.00117 -0.226942 0
M  V30 74 C 7.5575 -3.4665 -0.0586659 0
M  V30 75 C 6.6185 -4.18662 0.949751 0
M  V30 76 C 5.8515 -5.32705 0.32577 0
M  V30 77 O 6.0745 -5.63656 -0.874509 0
M  V30 78 O 5.0085 -5.92803 1.04249 0
M  V30 79 H 8.8345 -2.65041 1.4828 0
M  V30 80 H 6.4195 -1.27048 0.786082 0
M  V30 81 H 8.3015 -4.19256 -0.424564 0
M  V30 82 H 6.9765 -3.10375 -0.91918 0
M  V30 83 H 5.8835 -3.48229 1.36702 0
M  V30 84 H 7.2165 -4.58878 1.78023 0
M  V30 85 N 8.8686 -0.792821 -1.36206 0
M  V30 86 C 9.7786 -0.194808 -2.3379 0
M  V30 87 C 10.7946 0.654869 -1.61206 0
M  V30 88 O 11.9706 0.569856 -1.9317 0
M  V30 89 C 9.0356 0.657721 -3.40404 0
M  V30 90 C 8.0966 -0.210849 -4.28782 0
M  V30 91 C 7.3296 0.601086 -5.30304 0
M  V30 92 O 7.5526 1.83682 -5.40016 0
M  V30 93 O 6.4866 -0.000808277 -6.019 0
M  V30 94 H 10.3126 -1.00172 -2.86704 0
M  V30 95 H 7.8976 -0.554341 -1.38735 0
M  V30 96 H 9.7796 1.14375 -4.05581 0
M  V30 97 H 8.4546 1.44247 -2.89784 0
M  V30 98 H 7.3616 -0.743714 -3.66633 0
M  V30 99 H 8.6946 -0.959195 -4.82763 0
M  V30 100 N 10.3467 1.47872 -0.545128 0
M  V30 101 C 11.5937 2.02493 -0.0165858 0
M  V30 102 C 11.9217 1.42073 1.32836 0
M  V30 103 O 11.1767 0.561459 1.87473 0
M  V30 104 C 11.4757 3.57131 0.13867 0
M  V30 105 C 11.1417 4.36411 -1.13384 0
M  V30 106 C 9.8037 4.57792 -1.48256 0
M  V30 107 C 12.1557 4.82223 -1.97764 0
M  V30 108 C 9.4837 5.22233 -2.67376 0
M  V30 109 C 11.8357 5.47977 -3.16076 0
M  V30 110 C 10.4997 5.67593 -3.51275 0
M  V30 111 H 9.7697 0.740975 -0.00606918 0
M  V30 112 H 12.4167 1.77683 -0.714207 0
M  V30 113 H 10.7217 3.80865 0.919172 0
M  V30 114 H 12.4187 3.97031 0.562782 0
M  V30 115 H 9.0087 4.2004 -0.852297 0
M  V30 116 H 13.1927 4.65493 -1.72132 0
M  V30 117 H 8.4487 5.35616 -2.94831 0
M  V30 118 H 12.6227 5.8244 -3.81755 0
M  V30 119 H 10.2497 6.17298 -4.43675 0
M  V30 120 N 11.8248 0.280983 1.55075 0
M  V30 121 C 12.7718 -0.603937 2.22758 0
M  V30 122 C 13.7418 -1.1452 1.20309 0
M  V30 123 O 14.9268 -1.19343 1.48869 0
M  V30 124 C 12.0668 -1.77947 2.95684 0
M  V30 125 C 11.1798 -1.2715 4.12864 0
M  V30 126 C 10.3148 -2.4093 4.7342 0
M  V30 127 C 9.3538 -1.87165 5.82783 0
M  V30 128 N 8.4908 -2.94441 6.37377 0
M  V30 129 H 13.3308 -0.020124 2.97993 0
M  V30 130 H 10.8678 0.00183425 1.471 0
M  V30 131 H 12.8258 -2.47055 3.36184 0
M  V30 132 H 11.4558 -2.33522 2.22861 0
M  V30 133 H 10.5078 -0.473331 3.77444 0
M  V30 134 H 11.8198 -0.837751 4.91715 0
M  V30 135 H 10.9738 -3.18021 5.1667 0
M  V30 136 H 9.7128 -2.87623 3.93859 0
M  V30 137 H 8.7178 -1.08556 5.38976 0
M  V30 138 H 9.9428 -1.41401 6.64216 0
M  V30 139 H 7.8888 -3.40505 5.60707 0
M  V30 140 H 7.8058 -2.55501 7.11516 0
M  V30 141 H 9.0738 -3.71489 6.85285 0
M  V30 142 N 13.3029 -1.57598 0.00835791 0
M  V30 143 C 14.2499 -2.08945 -0.980346 0
M  V30 144 C 15.2199 -0.986738 -1.33614 0
M  V30 145 O 16.4049 -1.25968 -1.43306 0
M  V30 146 C 13.5449 -2.60425 -2.26435 0
M  V30 147 C 12.6579 -3.84628 -1.96685 0
M  V30 148 C 11.7929 -4.24579 -3.19228 0
M  V30 149 C 10.8319 -5.41596 -2.85202 0
M  V30 150 N 9.9689 -5.768 -4.00307 0
M  V30 151 H 14.8089 -2.93148 -0.535551 0
M  V30 152 H 12.3459 -1.44912 -0.252776 0
M  V30 153 H 14.3039 -2.88354 -3.01509 0
M  V30 154 H 12.9339 -1.79083 -2.68568 0
M  V30 155 H 11.9859 -3.63556 -1.11942 0
M  V30 156 H 13.2979 -4.69796 -1.67611 0
M  V30 157 H 12.4519 -4.53834 -4.02641 0
M  V30 158 H 11.1909 -3.38137 -3.51447 0
M  V30 159 H 10.1959 -5.12056 -2.00198 0
M  V30 160 H 11.4209 -6.29721 -2.54222 0
M  V30 161 H 9.3669 -4.93316 -4.32407 0
M  V30 162 H 9.2839 -6.5656 -3.74786 0
M  V30 163 H 10.5519 -6.10652 -4.84484 0
M  V30 164 N 14.781 0.264519 -1.55364 0
M  V30 165 C 16.011 1.01153 -1.80143 0
M  V30 166 C 16.419 1.80115 -0.579253 0
M  V30 167 O 15.762 1.77813 0.46132 0
M  V30 168 C 15.824 2.01098 -2.97993 0
M  V30 169 C 15.488 1.40995 -4.34706 0
M  V30 170 C 16.485 0.821316 -5.13372 0
M  V30 171 C 14.17 1.43461 -4.81378 0
M  V30 172 C 16.164 0.265339 -6.36847 0
M  V30 173 C 13.851 0.874771 -6.04807 0
M  V30 174 C 14.849 0.291146 -6.82379 0
M  V30 175 O 14.537 -0.260093 -8.03479 0
M  V30 176 H 14.269 0.304125 -0.603725 0
M  V30 177 H 16.823 0.298089 -2.03225 0
M  V30 178 H 15.053 2.76224 -2.70623 0
M  V30 179 H 16.742 2.61997 -3.1002 0
M  V30 180 H 17.508 0.794903 -4.78442 0
M  V30 181 H 13.387 1.87826 -4.21002 0
M  V30 182 H 16.931 -0.190837 -6.97339 0
M  V30 183 H 12.828 0.898452 -6.39217 0
M  V30 184 H 13.596 -0.150265 -8.18362 0
M  V30 185 N 16.2591 1.48442 0.529413 0
M  V30 186 C 17.1891 1.65902 1.64313 0
M  V30 187 C 18.1701 0.507897 1.6234 0
M  V30 188 O 19.3551 0.740503 1.79528 0
M  V30 189 C 16.4851 1.69911 3.02898 0
M  V30 190 C 15.4391 2.8453 3.19729 0
M  V30 191 C 14.7651 2.73629 4.59381 0
M  V30 192 C 16.0651 4.25821 3.02447 0
M  V30 193 H 17.7591 2.5914 1.49955 0
M  V30 194 H 15.3051 1.24709 0.719982 0
M  V30 195 H 17.2581 1.80715 3.80684 0
M  V30 196 H 15.9821 0.732524 3.18279 0
M  V30 197 H 14.6411 2.73283 2.44361 0
M  V30 198 H 14.2891 1.74938 4.71599 0
M  V30 199 H 13.9891 3.50541 4.71588 0
M  V30 200 H 15.5131 2.86401 5.39265 0
M  V30 201 H 16.9271 4.37898 3.70024 0
M  V30 202 H 15.3241 5.03735 3.26146 0
M  V30 203 H 16.3941 4.42244 1.98867 0
M  V30 204 N 17.7372 -0.778329 1.37039 0
M  V30 205 C 18.6472 -1.92253 1.34446 0
M  V30 206 C 19.6632 -1.72267 0.244991 0
M  V30 207 O 20.8392 -1.95615 0.479258 0
M  V30 208 C 17.9042 -3.27282 1.144 0
M  V30 209 C 16.9652 -3.59969 2.33925 0
M  V30 210 C 16.1982 -4.88555 2.14825 0
M  V30 211 O 16.4212 -5.59113 1.12912 0
M  V30 212 O 15.3552 -5.20153 3.02861 0
M  V30 213 H 19.1812 -1.97392 2.30803 0
M  V30 214 H 16.7662 -0.920154 1.17701 0
M  V30 215 H 18.6482 -4.08062 1.05182 0
M  V30 216 H 17.3232 -3.23011 0.211124 0
M  V30 217 H 16.2302 -2.7945 2.48714 0
M  V30 218 H 17.5632 -3.68976 3.25757 0
M  V30 219 N 19.2153 -1.21501 -1.00376 0
M  V30 220 C 20.4433 -1.059 -1.77744 0
M  V30 221 C 20.8583 0.391125 -1.84704 0
M  V30 222 O 20.2153 1.27133 -1.30933 0
M  V30 223 C 20.2663 -1.65111 -3.21591 0
M  V30 224 O 19.9873 -3.0445 -3.15027 0
M  V30 225 C 21.4883 -1.54637 -4.15454 0
M  V30 226 H 18.7083 -0.371825 -0.558558 0
M  V30 227 H 21.2523 -1.60865 -1.26264 0
M  V30 228 H 19.4073 -1.14235 -3.70175 0
M  V30 229 H 19.8213 -3.3278 -4.0541 0
M  V30 230 H 21.2953 -2.00808 -5.14179 0
M  V30 231 H 21.7723 -0.501022 -4.36333 0
M  V30 232 H 22.3783 -2.04767 -3.72761 0
M  V30 233 N 20.6934 1.19889 -1.02296 0
M  V30 234 C 21.6414 2.24938 -0.592081 0
M  V30 235 C 22.6354 1.65257 0.372357 0
M  V30 236 O 23.8414 1.78371 0.241583 0
M  V30 237 H 20.2164 0.731787 -0.173182 0
M  V30 238 H 22.1874 2.58603 -1.48885 0
M  V30 239 C 20.9364 3.47668 0.047351 0
M  V30 240 H 20.2594 3.93875 -0.685772 0
M  V30 241 H 21.6994 4.22852 0.311862 0
M  V30 242 C 20.1584 3.11136 1.29212 0
M  V30 243 O 20.6884 3.2325 2.38479 0
M  V30 244 N 18.8944 2.65625 1.17863 0
M  V30 245 H 18.4414 2.55968 0.289493 0
M  V30 246 H 18.3994 2.41553 2.01245 0
M  V30 247 N 22.1715 0.800033 1.35784 0
M  V30 248 C 23.4195 0.376597 1.9856 0
M  V30 249 C 23.7405 -1.05812 1.63795 0
M  V30 250 O 23.0105 -1.73103 0.917171 0
M  V30 251 H 21.5905 0.136261 0.734467 0
M  V30 252 H 24.2525 1.02442 1.65806 0
M  V30 253 H 23.3485 0.477002 3.08433 0
M  V30 254 N 23.6496 -1.47581 0.552962 0
M  V30 255 C 24.8986 -2.01684 0.0251995 0
M  V30 256 C 25.2116 -1.43317 -1.33115 0
M  V30 257 O 26.4176 -1.89057 -1.94858 0
M  V30 258 C 24.8736 -3.599 -0.00542052 0
M  V30 259 C 24.4816 -4.27257 1.34742 0
M  V30 260 C 26.2256 -4.21768 -0.4808 0
M  V30 261 C 24.1326 -5.77467 1.27614 0
M  V30 262 H 23.0626 -0.753979 0.00565033 0
M  V30 263 H 25.7136 -1.69616 0.70018 0
M  V30 264 H 24.0956 -3.88911 -0.745961 0
M  V30 265 H 25.2696 -4.09893 2.10534 0
M  V30 266 H 23.5846 -3.77358 1.76039 0
M  V30 267 H 26.1816 -5.31838 -0.55246 0
M  V30 268 H 26.5246 -3.88651 -1.49184 0
M  V30 269 H 27.0576 -3.97273 0.204752 0
M  V30 270 H 23.7966 -6.15196 2.26304 0
M  V30 271 H 23.3166 -5.9718 0.55996 0
M  V30 272 H 24.9956 -6.3959 0.976421 0
M  V30 273 N 25.1277 -0.289203 -1.54924 0
M  V30 274 C 26.0747 0.592115 -2.23075 0
M  V30 275 C 27.0447 1.13881 -1.20915 0
M  V30 276 O 28.2297 1.18551 -1.495 0
M  V30 277 C 25.3697 1.76376 -2.96623 0
M  V30 278 C 24.4827 1.24959 -4.13533 0
M  V30 279 C 23.6177 2.38416 -4.74691 0
M  V30 280 C 22.6567 1.84072 -5.83767 0
M  V30 281 N 21.7937 2.91057 -6.38929 0
M  V30 282 H 26.6337 0.00432038 -2.98 0
M  V30 283 H 24.1707 -0.00963529 -1.47097 0
M  V30 284 H 26.1287 2.45268 -3.3749 0
M  V30 285 H 24.7587 2.32337 -2.24097 0
M  V30 286 H 23.8107 0.453307 -3.77689 0
M  V30 287 H 25.1227 0.811662 -4.92152 0
M  V30 288 H 24.2767 3.15276 -5.18349 0
M  V30 289 H 23.0157 2.8553 -3.95378 0
M  V30 290 H 22.0207 1.05697 -5.39545 0
M  V30 291 H 23.2457 1.37877 -6.64956 0
M  V30 292 H 21.1917 3.37526 -5.62505 0
M  V30 293 H 21.1087 2.51724 -7.12861 0
M  V30 294 H 22.3767 3.6785 -6.87246 0
M  V30 295 N 26.6058 1.57591 -0.0167156 0
M  V30 296 C 28.0168 1.79201 0.523834 0
M  V30 297 C 28.3678 0.925796 1.72984 0
M  V30 298 O 27.4928 0.132792 2.15992 0
M  V30 299 C 28.0878 3.25 0.957091 0
M  V30 300 C 26.6468 3.47648 1.44283 0
M  V30 301 C 25.7938 2.74374 0.401757 0
M  V30 302 H 28.7448 1.56831 -0.242816 0
M  V30 303 H 28.7658 3.34031 1.82219 0
M  V30 304 H 28.2778 3.88019 0.0791415 0
M  V30 305 H 26.3788 2.89866 2.34113 0
M  V30 306 H 26.4918 4.56352 1.45877 0
M  V30 307 H 24.8558 2.39485 0.867121 0
M  V30 308 H 25.6388 3.40102 -0.467513 0
M  V30 309 N 28.0839 -0.256276 1.55502 0
M  V30 310 C 29.0309 -1.31714 1.89526 0
M  V30 311 C 30.0009 -1.4828 0.748479 0
M  V30 312 O 31.1859 -1.62416 1.00128 0
M  V30 313 C 28.3259 -2.66933 2.18725 0
M  V30 314 C 27.4389 -2.58452 3.4616 0
M  V30 315 C 26.5739 -3.85961 3.64976 0
M  V30 316 C 25.6129 -3.72059 4.86044 0
M  V30 317 N 24.7499 -4.9144 5.01429 0
M  V30 318 H 29.5899 -1.01998 2.80001 0
M  V30 319 H 27.1269 -0.492413 1.38613 0
M  V30 320 H 29.0849 -3.4563 2.33657 0
M  V30 321 H 27.7149 -2.94816 1.31466 0
M  V30 322 H 26.7669 -1.71374 3.3961 0
M  V30 323 H 28.0789 -2.44085 4.34999 0
M  V30 324 H 27.2329 -4.73101 3.79816 0
M  V30 325 H 25.9719 -4.03215 2.74353 0
M  V30 326 H 24.9769 -2.83302 4.7119 0
M  V30 327 H 26.2019 -3.56309 5.78118 0
M  V30 328 H 24.1479 -5.09072 4.13741 0
M  V30 329 H 24.0649 -4.79668 5.84341 0
M  V30 330 H 25.3329 -5.80104 5.20672 0
M  V30 331 N 29.562 -1.4872 -0.521534 0
M  V30 332 C 30.494 -1.59968 -1.64143 0
M  V30 333 C 31.507 -0.483463 -1.55456 0
M  V30 334 O 32.696 -0.75467 -1.61762 0
M  V30 335 C 29.796 -1.52127 -3.02838 0
M  V30 336 C 28.969 -2.78932 -3.36921 0
M  V30 337 C 28.028 -2.64428 -4.54933 0
M  V30 338 O 27.054 -3.38331 -4.57735 0
M  V30 339 N 28.256 -1.74606 -5.53618 0
M  V30 340 H 31.021 -2.56548 -1.54929 0
M  V30 341 H 28.582 -1.45551 -0.708988 0
M  V30 342 H 30.574 -1.40106 -3.79674 0
M  V30 343 H 29.144 -0.634868 -3.06085 0
M  V30 344 H 28.364 -3.05455 -2.4918 0
M  V30 345 H 29.652 -3.63041 -3.56481 0
M  V30 346 H 29.05 -1.13782 -5.54139 0
M  V30 347 H 27.607 -1.6852 -6.29638 0
M  V30 348 N 31.0401 0.771051 -1.3745 0
M  V30 349 C 32.2871 1.52963 -1.32697 0
M  V30 350 C 32.6151 1.94299 0.0883274 0
M  V30 351 O 31.8701 1.64397 1.0617 0
M  V30 352 C 32.1691 2.80676 -2.2126 0
M  V30 353 C 31.8351 2.58389 -3.69521 0
M  V30 354 C 30.4971 2.52019 -4.09927 0
M  V30 355 C 32.8491 2.38469 -4.63446 0
M  V30 356 C 30.1771 2.23721 -5.42371 0
M  V30 357 C 32.5291 2.11694 -5.96128 0
M  V30 358 C 31.1931 2.03769 -6.35637 0
M  V30 359 H 30.4631 0.559732 -0.485573 0
M  V30 360 H 33.1101 0.888083 -1.69662 0
M  V30 361 H 31.4151 3.49392 -1.77291 0
M  V30 362 H 33.1121 3.38557 -2.14895 0
M  V30 363 H 29.7021 2.6421 -3.37478 0
M  V30 364 H 33.8861 2.4238 -4.33089 0
M  V30 365 H 29.1421 2.16081 -5.71943 0
M  V30 366 H 33.3161 1.9528 -6.6846 0
M  V30 367 H 30.9431 1.81606 -7.38189 0
M  V30 368 N 32.5182 1.22032 0.997298 0
M  V30 369 C 33.4682 0.953838 2.07089 0
M  V30 370 C 34.4522 -0.0938669 1.60626 0
M  V30 371 O 35.6442 0.116078 1.76619 0
M  V30 372 C 32.7732 0.528726 3.39204 0
M  V30 373 C 31.8592 1.61092 3.92314 0
M  V30 374 N 32.2502 2.83768 4.18699 0
M  V30 375 C 30.5482 1.48158 4.20672 0
M  V30 376 C 31.2492 3.53715 4.61802 0
M  V30 377 N 30.2252 2.81174 4.65233 0
M  V30 378 H 34.0272 1.88577 2.25424 0
M  V30 379 H 31.5412 1.11719 1.17867 0
M  V30 380 H 33.5382 0.31915 4.15677 0
M  V30 381 H 32.1982 -0.39635 3.22272 0
M  V30 382 H 33.2092 3.20238 4.07023 0
M  V30 383 H 29.8862 0.622369 4.12835 0
M  V30 384 H 31.2762 4.58793 4.90875 0
M  V30 385 N 33.9963 -1.19345 1.0293 0
M  V30 386 C 34.9433 -2.2258 0.610464 0
M  V30 387 C 35.9133 -1.6179 -0.375946 0
M  V30 388 O 37.0983 -1.88844 -0.272511 0
M  V30 389 C 34.2383 -3.45085 -0.0321473 0
M  V30 390 C 33.3513 -4.20258 1.00035 0
M  V30 391 C 32.4863 -5.3019 0.32746 0
M  V30 392 C 31.5253 -5.97121 1.34584 0
M  V30 393 N 30.6623 -6.98615 0.698726 0
M  V30 394 H 35.5023 -2.57764 1.49538 0
M  V30 395 H 33.0393 -1.26644 0.748311 0
M  V30 396 H 34.9973 -4.15061 -0.421966 0
M  V30 397 H 33.6273 -3.10555 -0.88064 0
M  V30 398 H 32.6793 -3.49223 1.50823 0
M  V30 399 H 33.9913 -4.66175 1.77433 0
M  V30 400 H 33.1453 -6.06587 -0.11718 0
M  V30 401 H 31.8843 -4.85345 -0.478713 0
M  V30 402 H 30.8893 -5.19474 1.80074 0
M  V30 403 H 32.1143 -6.4405 2.15352 0
M  V30 404 H 30.0603 -6.55942 -0.0873471 0
M  V30 405 H 29.9773 -7.42724 1.41058 0
M  V30 406 H 31.2453 -7.79004 0.278102 0
M  V30 407 N 35.4744 -0.807222 -1.35358 0
M  V30 408 C 36.4214 -0.216037 -2.29787 0
M  V30 409 C 37.3914 0.650278 -1.52842 0
M  V30 410 O 38.5764 0.595227 -1.81278 0
M  V30 411 C 35.7164 0.628893 -3.39321 0
M  V30 412 C 34.8294 -0.257927 -4.31229 0
M  V30 413 C 33.9644 0.595069 -5.27856 0
M  V30 414 C 33.0034 -0.292111 -6.11403 0
M  V30 415 N 32.1404 0.520895 -7.00165 0
M  V30 416 H 36.9804 -1.02671 -2.79755 0
M  V30 417 H 34.5174 -0.517839 -1.37684 0
M  V30 418 H 36.4754 1.13393 -4.01494 0
M  V30 419 H 35.1054 1.40482 -2.90628 0
M  V30 420 H 34.1574 -0.881076 -3.70056 0
M  V30 421 H 35.4694 -0.940759 -4.89848 0
M  V30 422 H 34.6234 1.16522 -5.95405 0
M  V30 423 H 33.3624 1.31146 -4.69736 0
M  V30 424 H 32.3674 -0.874525 -5.428 0
M  V30 425 H 33.5924 -1.00638 -6.71602 0
M  V30 426 H 31.5384 1.22125 -6.44532 0
M  V30 427 H 31.4554 -0.103877 -7.55929 0
M  V30 428 H 32.7234 1.0743 -7.72062 0
M  V30 429 N 36.9525 1.47285 -0.560781 0
M  V30 430 C 37.8625 2.33846 0.187954 0
M  V30 431 C 38.8785 1.48412 0.908293 0
M  V30 432 O 40.0545 1.81332 0.876388 0
M  V30 433 C 37.1195 3.25178 1.2025 0
M  V30 434 C 36.1805 4.26504 0.489208 0
M  V30 435 C 35.4135 5.13472 1.45542 0
M  V30 436 O 35.6365 5.02959 2.6905 0
M  V30 437 O 34.5705 5.93902 0.977963 0
M  V30 438 H 38.3965 2.99177 -0.522177 0
M  V30 439 H 35.9815 1.45903 -0.321364 0
M  V30 440 H 37.8635 3.81584 1.78805 0
M  V30 441 H 36.5385 2.6247 1.89449 0
M  V30 442 H 35.4455 3.73847 -0.137627 0
M  V30 443 H 36.7785 4.91935 -0.161399 0
M  V30 444 N 38.4306 0.297415 1.54768 0
M  V30 445 C 39.3606 -0.573494 2.26348 0
M  V30 446 C 40.3416 -1.14085 1.26169 0
M  V30 447 O 41.5266 -1.17086 1.54934 0
M  V30 448 C 38.6566 -1.74716 3.00153 0
M  V30 449 C 37.6106 -1.31032 4.07449 0
M  V30 450 C 36.9366 -2.56887 4.68949 0
M  V30 451 C 38.2366 -0.444183 5.20408 0
M  V30 452 H 39.9306 0.0235131 2.99391 0
M  V30 453 H 37.4766 0.0127488 1.43994 0
M  V30 454 H 39.4296 -2.3625 3.48947 0
M  V30 455 H 38.1536 -2.37035 2.24682 0
M  V30 456 H 36.8126 -0.718066 3.59499 0
M  V30 457 H 36.4606 -3.17512 3.90122 0
M  V30 458 H 36.1606 -2.2836 5.41411 0
M  V30 459 H 37.6846 -3.19229 5.20505 0
M  V30 460 H 39.0986 -0.9651 5.65118 0
M  V30 461 H 37.4956 -0.252846 5.99567 0
M  V30 462 H 38.5656 0.531609 4.81977 0
M  V30 463 N 39.9087 -1.5758 0.0250728 0
M  V30 464 C 41.1577 -1.90811 -0.653767 0
M  V30 465 C 41.4707 -0.90273 -1.73523 0
M  V30 466 O 42.6767 -1.12614 -2.47043 0
M  V30 467 C 41.1327 -3.38804 -1.21409 0
M  V30 468 C 40.7407 -4.47692 -0.166126 0
M  V30 469 C 42.4847 -3.81108 -1.86967 0
M  V30 470 C 40.3917 -5.86779 -0.737856 0
M  V30 471 H 39.3217 -0.712063 -0.247956 0
M  V30 472 H 41.9727 -1.83281 0.0897137 0
M  V30 473 H 40.3547 -3.41252 -2.00905 0
M  V30 474 H 41.5287 -4.56797 0.606079 0
M  V30 475 H 39.8437 -4.14565 0.390466 0
M  V30 476 H 42.4407 -4.82375 -2.30692 0
M  V30 477 H 42.7837 -3.15953 -2.71071 0
M  V30 478 H 43.3167 -3.81065 -1.14167 0
M  V30 479 H 40.0557 -6.55468 0.0649577 0
M  V30 480 H 39.5757 -5.81288 -1.47864 0
M  V30 481 H 41.2547 -6.35223 -1.22884 0
M  V30 482 N 41.3868 0.248026 -1.55636 0
M  V30 483 C 42.6338 0.976224 -1.77415 0
M  V30 484 C 42.9618 1.85361 -0.589193 0
M  V30 485 O 42.2168 1.90973 0.427529 0
M  V30 486 C 42.5158 1.86819 -3.04686 0
M  V30 487 C 42.1818 1.14625 -4.36087 0
M  V30 488 C 40.8438 0.946723 -4.71795 0
M  V30 489 C 43.1958 0.634463 -5.17324 0
M  V30 490 C 40.5238 0.223091 -5.86276 0
M  V30 491 C 42.8758 -0.0756959 -6.32555 0
M  V30 492 C 41.5398 -0.286711 -6.66884 0
M  V30 493 H 40.8098 0.357226 -0.649208 0
M  V30 494 H 43.4568 0.246415 -1.89908 0
M  V30 495 H 41.7618 2.66502 -2.872 0
M  V30 496 H 43.4588 2.43329 -3.18735 0
M  V30 497 H 40.0488 1.3117 -4.08035 0
M  V30 498 H 44.2328 0.77616 -4.90193 0
M  V30 499 H 39.4888 0.0491185 -6.1138 0
M  V30 500 H 43.6628 -0.479899 -6.94745 0
M  V30 501 H 41.2898 -0.849389 -7.5544 0
M  V30 502 N 42.8649 1.48995 0.513639 0
M  V30 503 C 43.8129 1.65199 1.63744 0
M  V30 504 C 44.8069 0.51809 1.61283 0
M  V30 505 O 46.0129 0.697335 1.65943 0
M  V30 506 H 42.3879 0.52069 0.542574 0
M  V30 507 H 44.3589 2.59552 1.47226 0
M  V30 508 C 43.1079 1.72409 3.01945 0
M  V30 509 H 42.4309 2.59029 3.04539 0
M  V30 510 H 43.8709 1.87785 3.80148 0
M  V30 511 C 42.3299 0.46618 3.33659 0
M  V30 512 O 42.8599 -0.413744 3.99564 0
M  V30 513 N 41.0659 0.332931 2.88687 0
M  V30 514 H 40.6129 1.04996 2.35231 0
M  V30 515 H 40.5709 -0.507665 3.10274 0
M  V30 516 N 44.343 -0.763751 1.37857 0
M  V30 517 C 45.275 -1.88664 1.30148 0
M  V30 518 C 46.288 -1.61365 0.215685 0
M  V30 519 O 47.477 -1.72134 0.472459 0
M  V30 520 C 44.577 -3.24075 0.991396 0
M  V30 521 C 43.75 -3.78958 2.18426 0
M  V30 522 C 42.809 -4.92862 1.8432 0
M  V30 523 O 41.835 -5.08027 2.56704 0
M  V30 524 N 43.037 -5.75071 0.792081 0
M  V30 525 H 45.802 -1.95791 2.26905 0
M  V30 526 H 43.363 -0.943226 1.31586 0
M  V30 527 H 45.355 -3.97804 0.743935 0
M  V30 528 H 43.925 -3.12399 0.112122 0
M  V30 529 H 43.145 -2.96913 2.59299 0
M  V30 530 H 44.433 -4.12357 2.98058 0
M  V30 531 H 43.831 -5.65375 0.191595 0
M  V30 532 H 42.388 -6.48991 0.60449 0
M  V30 533 N 45.8211 -1.22559 -0.990812 0
M  V30 534 C 47.0671 -1.06303 -1.73411 0
M  V30 535 C 47.4221 0.397442 -1.8825 0
M  V30 536 O 46.7151 1.29062 -1.41611 0
M  V30 537 C 46.9091 -1.71011 -3.13831 0
M  V30 538 C 46.7381 -3.232 -3.12685 0
M  V30 539 C 45.5081 -3.92314 -3.18461 0
M  V30 540 C 47.7061 -4.20107 -2.96673 0
M  V30 541 N 45.6881 -5.31571 -3.07091 0
M  V30 542 C 47.0591 -5.46208 -2.93354 0
M  V30 543 C 49.1141 -4.10973 -2.8108 0
M  V30 544 C 47.8171 -6.64225 -2.76039 0
M  V30 545 C 49.8431 -5.28642 -2.65126 0
M  V30 546 C 49.2051 -6.53663 -2.62496 0
M  V30 547 H 45.3041 -0.443441 -0.644115 0
M  V30 548 H 47.8881 -1.55131 -1.17654 0
M  V30 549 H 46.0591 -1.2473 -3.67827 0
M  V30 550 H 47.7911 -1.47828 -3.76735 0
M  V30 551 H 44.5461 -3.43326 -3.26227 0
M  V30 552 H 44.9701 -6.0455 -3.0471 0
M  V30 553 H 49.6121 -3.15098 -2.8191 0
M  V30 554 H 47.3301 -7.60246 -2.73954 0
M  V30 555 H 50.9161 -5.23407 -2.54039 0
M  V30 556 H 49.7961 -7.43182 -2.50302 0
M  V30 557 N 47.2992 1.18797 -1.03562 0
M  V30 558 C 48.5762 1.84469 -0.650434 0
M  V30 559 C 48.9562 1.92319 0.870433 0
M  V30 560 O 48.3042 1.44528 1.76986 0
M  V30 561 C 48.5142 3.2306 -1.32036 0
M  V30 562 C 49.8622 3.9915 -1.44792 0
M  V30 563 O 50.8862 3.32481 -1.27806 0
M  V30 564 O 49.7452 5.18587 -1.72423 0
M  V30 565 H 46.8392 0.795251 -0.226946 0
M  V30 566 H 49.3852 1.26231 -1.13419 0
M  V30 567 H 48.1572 3.1222 -2.3587 0
M  V30 568 H 47.7802 3.88949 -0.8249 0
M  V30 569 N 48.7773 0.814389 1.34928 0
M  V30 570 C 50.1883 0.458364 1.80986 0
M  V30 571 C 50.5393 -1.02042 1.67577 0
M  V30 572 O 49.6643 -1.79352 1.21086 0
M  V30 573 C 50.2593 0.825212 3.28597 0
M  V30 574 C 48.8183 0.521677 3.72767 0
M  V30 575 C 47.9653 1.04668 2.56788 0
M  V30 576 H 50.9163 1.00533 1.22795 0
M  V30 577 H 50.9373 0.12571 3.80292 0
M  V30 578 H 50.4493 1.90154 3.38324 0
M  V30 579 H 48.5503 -0.545589 3.68584 0
M  V30 580 H 48.6633 1.05977 4.67232 0
M  V30 581 H 47.0273 0.468622 2.50352 0
M  V30 582 H 47.8103 2.12927 2.6929 0
M  V30 583 N 50.2554 -1.46986 0.568584 0
M  V30 584 C 51.1874 -2.28233 -0.210337 0
M  V30 585 C 52.2004 -1.37682 -0.868767 0
M  V30 586 O 53.3894 -1.62406 -0.740705 0
M  V30 587 C 50.4894 -3.12293 -1.3163 0
M  V30 588 C 49.6624 -4.30878 -0.7525 0
M  V30 589 C 48.7214 -4.96445 -1.74439 0
M  V30 590 O 47.7474 -5.54482 -1.286 0
M  V30 591 N 48.9494 -4.92171 -3.07812 0
M  V30 592 H 51.7144 -2.95723 0.486648 0
M  V30 593 H 49.2754 -1.56742 0.405409 0
M  V30 594 H 51.2674 -3.53022 -1.97883 0
M  V30 595 H 49.8374 -2.46971 -1.91636 0
M  V30 596 H 49.0574 -3.94104 0.0871128 0
M  V30 597 H 50.3454 -5.07558 -0.35536 0
M  V30 598 H 49.7434 -4.46239 -3.47688 0
M  V30 599 H 48.3004 -5.36884 -3.69592 0
M  V30 600 N 51.7335 -0.305618 -1.54608 0
M  V30 601 C 52.6435 0.57778 -2.27374 0
M  V30 602 C 53.6595 1.14451 -1.31061 0
M  V30 603 O 54.8355 1.16831 -1.6405 0
M  V30 604 C 51.9005 1.73123 -3.00382 0
M  V30 605 C 50.9615 1.19812 -4.12242 0
M  V30 606 C 50.1945 2.2966 -4.81759 0
M  V30 607 O 50.4175 3.49651 -4.50666 0
M  V30 608 O 49.3515 1.96091 -5.69062 0
M  V30 609 H 53.1775 -0.012624 -3.03697 0
M  V30 610 H 50.7625 -0.0719184 -1.49227 0
M  V30 611 H 52.6445 2.40315 -3.4616 0
M  V30 612 H 51.3195 2.30815 -2.26949 0
M  V30 613 H 50.2265 0.491798 -3.70853 0
M  V30 614 H 51.5595 0.666566 -4.87666 0
M  V30 615 N 53.2116 1.57565 -0.0334293 0
M  V30 616 C 54.4416 1.95996 0.653398 0
M  V30 617 C 54.8496 0.908749 1.65947 0
M  V30 618 O 54.1926 -0.117471 1.83324 0
M  V30 619 C 54.2546 3.30589 1.41249 0
M  V30 620 C 53.9186 4.53503 0.564263 0
M  V30 621 C 54.9156 5.19647 -0.16225 0
M  V30 622 C 52.6006 4.99801 0.500398 0
M  V30 623 C 54.5946 6.30412 -0.941255 0
M  V30 624 C 52.2816 6.10448 -0.282308 0
M  V30 625 C 53.2796 6.75612 -1.00184 0
M  V30 626 O 52.9676 7.84134 -1.77171 0
M  V30 627 H 52.6996 0.65027 0.184728 0
M  V30 628 H 55.2536 2.05199 -0.0907841 0
M  V30 629 H 53.4836 3.17888 2.20191 0
M  V30 630 H 55.1726 3.53892 1.98784 0
M  V30 631 H 55.9386 4.84846 -0.12227 0
M  V30 632 H 51.8176 4.48883 1.05002 0
M  V30 633 H 55.3616 6.81208 -1.50339 0
M  V30 634 H 51.2586 6.44686 -0.323989 0
M  V30 635 H 52.0266 8.00822 -1.69194 0
M  V30 636 N 54.6897 -0.239769 1.55765 0
M  V30 637 C 55.9297 -0.974076 1.79697 0
M  V30 638 C 56.2937 -1.82249 0.604088 0
M  V30 639 O 57.4947 -2.58913 0.722324 0
M  V30 640 C 55.7657 -1.80595 3.08416 0
M  V30 641 S 57.3247 -2.59838 3.53596 0
M  V30 642 H 54.1427 -0.327524 0.63107 0
M  V30 643 H 56.7447 -0.241277 1.94005 0
M  V30 644 H 55.4487 -1.17249 3.93295 0
M  V30 645 H 54.9797 -2.58137 2.96865 0
M  V30 646 H 56.9947 -3.82987 3.15492 0
M  V30 647 N 56.1678 -1.49265 -0.50573 0
M  V30 648 C 57.4168 -1.57761 -1.25675 0
M  V30 649 C 57.7298 -0.267371 -1.93764 0
M  V30 650 O 58.9358 -0.230827 -2.70517 0
M  V30 651 C 57.3918 -2.78332 -2.28165 0
M  V30 652 C 56.9998 -4.16096 -1.66037 0
M  V30 653 C 58.7438 -2.96155 -3.04125 0
M  V30 654 C 56.6508 -5.27895 -2.6661 0
M  V30 655 H 55.5808 -0.587391 -0.472745 0
M  V30 656 H 58.2318 -1.75644 -0.53118 0
M  V30 657 H 56.6138 -2.53934 -3.03865 0
M  V30 658 H 57.7878 -4.50612 -0.963622 0
M  V30 659 H 56.1028 -4.03591 -1.02484 0
M  V30 660 H 58.6998 -3.76849 -3.79327 0
M  V30 661 H 59.0428 -2.06534 -3.61455 0
M  V30 662 H 59.5758 -3.2057 -2.35541 0
M  V30 663 H 56.3148 -6.1956 -2.14068 0
M  V30 664 H 55.8348 -4.97839 -3.34539 0
M  V30 665 H 57.5138 -5.57031 -3.29129 0
M  V30 666 N 57.6459 0.756429 -1.3826 0
M  V30 667 C 58.8929 1.51547 -1.34312 0
M  V30 668 C 59.2209 1.94382 0.0677144 0
M  V30 669 O 58.4759 1.65514 1.04421 0
M  V30 670 C 58.7749 2.78313 -2.24224 0
M  V30 671 C 58.4409 2.54455 -3.72241 0
M  V30 672 C 57.1029 2.47657 -4.12576 0
M  V30 673 C 59.4549 2.3354 -4.65949 0
M  V30 674 C 56.7829 2.17956 -5.44713 0
M  V30 675 C 59.1349 2.05359 -5.9834 0
M  V30 676 C 57.7989 1.97016 -6.37762 0
M  V30 677 H 57.0689 0.55455 -0.491482 0
M  V30 678 H 59.7159 0.870039 -1.70595 0
M  V30 679 H 58.0209 3.47492 -1.80987 0
M  V30 680 H 59.7179 3.36259 -2.18474 0
M  V30 681 H 56.3079 2.60616 -3.40261 0
M  V30 682 H 60.4919 2.37772 -4.35635 0
M  V30 683 H 55.7479 2.10003 -5.74203 0
M  V30 684 H 59.9219 1.88179 -6.70494 0
M  V30 685 H 57.5489 1.73766 -7.40074 0
M  V30 686 N 59.124 1.23083 0.984299 0
M  V30 687 C 60.054 1.03292 2.09411 0
M  V30 688 C 61.035 -0.048923 1.7003 0
M  V30 689 O 62.22 0.114967 1.93859 0
M  V30 690 C 59.35 0.619155 3.41736 0
M  V30 691 C 58.304 1.64791 3.95004 0
M  V30 692 C 57.63 1.0897 5.23478 0
M  V30 693 C 58.93 3.03999 4.24714 0
M  V30 694 H 60.624 1.96119 2.26225 0
M  V30 695 H 58.17 0.944344 1.08711 0
M  V30 696 H 60.123 0.467777 4.18796 0
M  V30 697 H 58.847 -0.344786 3.24775 0
M  V30 698 H 57.506 1.78721 3.20085 0
M  V30 699 H 57.154 0.11686 5.02864 0
M  V30 700 H 56.854 1.77704 5.60085 0
M  V30 701 H 58.378 0.950093 6.03163 0
M  V30 702 H 59.792 2.93393 4.92538 0
M  V30 703 H 58.189 3.69936 4.72512 0
M  V30 704 H 59.259 3.53285 3.32142 0
M  V30 705 N 60.6021 -1.18246 1.0419 0
M  V30 706 C 61.8321 -1.91916 0.764961 0
M  V30 707 C 62.2401 -1.76485 -0.681898 0
M  V30 708 O 61.5831 -1.09275 -1.47664 0
M  V30 709 C 61.6451 -3.4373 1.05309 0
M  V30 710 C 61.3091 -3.8294 2.4941 0
M  V30 711 C 62.3061 -3.86621 3.47592 0
M  V30 712 C 59.9911 -4.142 2.84155 0
M  V30 713 C 61.9851 -4.21013 4.78568 0
M  V30 714 C 59.6721 -4.48262 4.15337 0
M  V30 715 C 60.6701 -4.51645 5.12353 0
M  V30 716 O 60.3581 -4.84911 6.41183 0
M  V30 717 H 60.0901 -0.61606 0.278292 0
M  V30 718 H 62.6441 -1.50947 1.39299 0
M  V30 719 H 60.8741 -3.84946 0.367933 0
M  V30 720 H 62.5631 -3.9865 0.763752 0
M  V30 721 H 63.3291 -3.62607 3.22089 0
M  V30 722 H 59.2081 -4.10743 2.09311 0
M  V30 723 H 62.7521 -4.23568 5.54289 0
M  V30 724 H 58.6491 -4.71737 4.40607 0
M  V30 725 H 59.4171 -5.02809 6.45852 0
M  V30 726 N 62.0802 -0.821533 -1.34494 0
M  V30 727 C 63.3572 -0.33159 -1.92769 0
M  V30 728 C 63.7372 1.18088 -1.74981 0
M  V30 729 O 63.0852 1.98733 -1.12772 0
M  V30 730 C 63.2952 -0.759398 -3.40638 0
M  V30 731 C 64.6432 -0.757433 -4.1779 0
M  V30 732 O 65.6672 -0.70189 -3.49216 0
M  V30 733 O 64.5262 -0.829361 -5.4017 0
M  V30 734 H 61.6202 -0.0902502 -0.822061 0
M  V30 735 H 64.1662 -0.906231 -1.43477 0
M  V30 736 H 62.9382 -1.8012 -3.47379 0
M  V30 737 H 62.5612 -0.160378 -3.97276 0
M  V30 738 N 63.5583 1.46682 -0.576371 0
M  V30 739 C 64.8063 2.02013 -0.0594163 0
M  V30 740 C 65.1273 1.45101 1.30271 0
M  V30 741 O 64.3973 0.633317 1.8538 0
M  V30 742 H 62.9773 0.746759 -0.0189745 0
M  V30 743 H 65.6393 1.79862 -0.750717 0
M  V30 744 H 64.7353 3.12097 0.014345 0
M  V30 745 N 65.0364 0.313813 1.54444 0
M  V30 746 C 66.2854 -0.292519 1.99568 0
M  V30 747 C 66.5984 -1.54011 1.20582 0
M  V30 748 O 67.8044 -2.22183 1.56035 0
M  V30 749 C 66.2604 -0.571752 3.55329 0
M  V30 750 C 65.8684 0.658229 4.43138 0
M  V30 751 C 67.6124 -1.13857 4.08946 0
M  V30 752 C 65.5194 0.351439 5.90355 0
M  V30 753 H 64.4494 -0.113079 0.745472 0
M  V30 754 H 67.1004 0.424518 1.78522 0
M  V30 755 H 65.4824 -1.34872 3.72325 0
M  V30 756 H 66.6564 1.43403 4.37918 0
M  V30 757 H 64.9714 1.14458 4.0036 0
M  V30 758 H 67.5684 -1.38257 5.16516 0
M  V30 759 H 67.9114 -2.08489 3.6033 0
M  V30 760 H 68.4444 -0.423015 3.95544 0
M  V30 761 H 65.1834 1.26667 6.43145 0
M  V30 762 H 64.7034 -0.386842 5.98551 0
M  V30 763 H 66.3824 -0.0423134 6.46986 0
M  V30 764 N 66.5145 -1.57545 0.0417849 0
M  V30 765 C 67.7425 -1.96624 -0.643928 0
M  V30 766 C 68.1575 -0.918897 -1.64929 0
M  V30 767 O 67.5145 0.0979323 -1.82237 0
M  V30 768 C 67.5655 -3.35781 -1.33914 0
M  V30 769 O 67.2865 -4.365 -0.374048 0
M  V30 770 C 68.7875 -3.89566 -2.1155 0
M  V30 771 H 66.0075 -0.647316 -0.176702 0
M  V30 772 H 68.5515 -2.04229 0.105304 0
M  V30 773 H 66.7065 -3.29357 -2.03968 0
M  V30 774 H 67.1205 -5.17248 -0.869179 0
M  V30 775 H 68.5945 -4.89242 -2.55628 0
M  V30 776 H 69.0715 -3.24488 -2.9598 0
M  V30 777 H 69.6775 -3.99298 -1.46427 0
M  V30 778 N 67.9926 0.231505 -1.5589 0
M  V30 779 C 68.9396 1.28682 -1.91598 0
M  V30 780 C 69.9096 1.47071 -0.771974 0
M  V30 781 O 71.0946 1.60802 -1.027 0
M  V30 782 C 68.2346 2.6342 -2.22944 0
M  V30 783 C 67.3476 2.52912 -3.50228 0
M  V30 784 C 66.4826 3.80106 -3.7107 0
M  V30 785 C 65.5216 3.64279 -4.91902 0
M  V30 786 N 64.6586 4.834 -5.09184 0
M  V30 787 H 69.4986 0.975305 -2.81588 0
M  V30 788 H 67.0356 0.470299 -1.39379 0
M  V30 789 H 68.9936 3.41869 -2.39126 0
M  V30 790 H 67.6236 2.92687 -1.36139 0
M  V30 791 H 66.6756 1.6595 -3.42294 0
M  V30 792 H 67.9876 2.37133 -4.38827 0
M  V30 793 H 67.1416 4.66999 -3.87295 0
M  V30 794 H 65.8806 3.98799 -2.80733 0
M  V30 795 H 64.8856 2.7577 -4.75637 0
M  V30 796 H 66.1106 3.47067 -5.83714 0
M  V30 797 H 64.0566 5.02425 -4.21788 0
M  V30 798 H 63.9736 4.70311 -5.91898 0
M  V30 799 H 65.2416 5.71747 -5.29835 0
M  V30 800 N 69.4707 1.49531 0.497807 0
M  V30 801 C 70.4007 1.6935 1.60757 0
M  V30 802 C 71.3817 0.542218 1.61227 0
M  V30 803 O 72.5667 0.778417 1.77917 0
M  V30 804 C 69.6967 1.76298 2.99226 0
M  V30 805 C 68.6507 2.91248 3.13622 0
M  V30 806 C 67.9767 2.83312 4.53474 0
M  V30 807 C 69.2767 4.3214 2.93346 0
M  V30 808 H 70.9707 2.62263 1.44425 0
M  V30 809 H 68.5167 1.26208 0.693367 0
M  V30 810 H 70.4697 1.88749 3.76765 0
M  V30 811 H 69.1937 0.799871 3.16654 0
M  V30 812 H 67.8527 2.78404 2.38509 0
M  V30 813 H 67.5007 1.84902 4.67782 0
M  V30 814 H 67.2007 3.60465 4.64046 0
M  V30 815 H 68.7247 2.97775 5.33069 0
M  V30 816 H 70.1387 4.45649 3.60652 0
M  V30 817 H 68.5357 5.1054 3.15387 0
M  V30 818 H 69.6057 4.46363 1.89441 0
M  V30 819 N 70.9488 -0.749086 1.3866 0
M  V30 820 C 72.1768 -1.53834 1.38358 0
M  V30 821 C 72.5918 -1.88783 -0.0255219 0
M  V30 822 O 71.9488 -1.53101 -0.993292 0
M  V30 823 C 71.9998 -2.83468 2.2434 0
M  V30 824 O 71.7208 -2.50008 3.5976 0
M  V30 825 C 73.2218 -3.7758 2.32267 0
M  V30 826 H 70.4418 -0.47585 0.473083 0
M  V30 827 H 72.9858 -0.926726 1.82297 0
M  V30 828 H 71.1408 -3.40995 1.83851 0
M  V30 829 H 71.5548 -3.33182 4.05081 0
M  V30 830 H 73.0288 -4.65478 2.96706 0
M  V30 831 H 73.5058 -4.18334 1.33765 0
M  V30 832 H 74.1118 -3.25976 2.73166 0
M  V30 833 N 72.4269 -1.23603 -0.977757 0
M  V30 834 C 73.6519 -1.09735 -1.75991 0
M  V30 835 C 74.0769 0.346858 -1.84874 0
M  V30 836 O 73.4349 1.25093 -1.3123 0
M  V30 837 C 73.4829 -1.73051 -3.16363 0
M  V30 838 O 72.5869 -0.994452 -4.0023 0
M  V30 839 H 71.9279 -0.384476 -0.541364 0
M  V30 840 H 74.4579 -1.6371 -1.2272 0
M  V30 841 H 74.4679 -1.78398 -3.66931 0
M  V30 842 H 73.1429 -2.78137 -3.09213 0
M  V30 843 H 71.7199 -1.01812 -3.58732 0
M  V30 844 N 73.905 1.17692 -1.04816 0
M  V30 845 C 75.154 1.87192 -0.751132 0
M  V30 846 C 75.467 1.8169 0.724441 0
M  V30 847 O 76.673 2.46625 1.13527 0
M  V30 848 C 75.129 3.35857 -1.29338 0
M  V30 849 C 74.737 3.4987 -2.79812 0
M  V30 850 C 76.481 4.10709 -1.07322 0
M  V30 851 C 74.388 4.92536 -3.27356 0
M  V30 852 H 73.318 0.701162 -0.277288 0
M  V30 853 H 75.969 1.32932 -1.26496 0
M  V30 854 H 74.351 3.89631 -0.707376 0
M  V30 855 H 75.525 3.06332 -3.44235 0
M  V30 856 H 73.84 2.88433 -3.00325 0
M  V30 857 H 76.437 5.15952 -1.4035 0
M  V30 858 H 76.78 4.16299 -0.0108001 0
M  V30 859 H 77.313 3.6313 -1.62423 0
M  V30 860 H 74.052 4.92119 -4.33012 0
M  V30 861 H 73.572 5.3676 -2.67673 0
M  V30 862 H 75.251 5.61288 -3.21815 0
M  V30 863 N 75.3831 0.828654 1.34056 0
M  V30 864 C 76.6081 0.431637 2.02859 0
M  V30 865 C 77.0331 -0.956339 1.61975 0
M  V30 866 O 76.3911 -1.62338 0.807228 0
M  V30 867 C 76.4391 0.548323 3.56407 0
M  V30 868 O 75.5431 -0.429556 4.10157 0
M  V30 869 H 74.8841 0.176886 0.640006 0
M  V30 870 H 77.4141 1.12066 1.71179 0
M  V30 871 H 77.4241 0.426196 4.05768 0
M  V30 872 H 76.0991 1.5606 3.8551 0
M  V30 873 H 74.6761 -0.265836 3.71951 0
M  V30 874 N 76.8612 -1.46375 0.584142 0
M  V30 875 C 77.7712 -2.34115 -0.150728 0
M  V30 876 C 78.7872 -1.49838 -0.884567 0
M  V30 877 O 79.9632 -1.82704 -0.847429 0
M  V30 878 C 77.0282 -3.2705 -1.15062 0
M  V30 879 C 76.0892 -4.27228 -0.421293 0
M  V30 880 C 75.3222 -5.15722 -1.37355 0
M  V30 881 O 75.5452 -5.07176 -2.61014 0
M  V30 882 O 74.4792 -5.95383 -0.883355 0
M  V30 883 H 78.3052 -2.98309 0.569708 0
M  V30 884 H 75.8902 -1.45373 0.344535 0
M  V30 885 H 77.7722 -3.84381 -1.72712 0
M  V30 886 H 76.4472 -2.65451 -1.8525 0
M  V30 887 H 75.3542 -3.7358 0.197085 0
M  V30 888 H 76.6872 -4.91616 0.239641 0
M  V30 889 N 78.3393 -0.321999 -1.54275 0
M  V30 890 C 79.2873 0.560206 -2.25753 0
M  V30 891 C 80.2813 1.11984 -1.27106 0
M  V30 892 O 81.4873 1.06806 -1.44888 0
M  V30 893 H 77.8623 0.199304 -0.725108 0
M  V30 894 H 79.8333 -0.0649365 -2.98329 0
M  V30 895 C 78.5823 1.71023 -3.02731 0
M  V30 896 H 77.9053 1.28885 -3.78456 0
M  V30 897 H 79.3453 2.30314 -3.55993 0
M  V30 898 C 77.8043 2.62692 -2.10938 0
M  V30 899 O 78.3343 3.64364 -1.6912 0
M  V30 900 N 76.5403 2.30891 -1.76459 0
M  V30 901 H 76.0873 1.48253 -2.10663 0
M  V30 902 H 76.0453 2.92487 -1.1532 0
M  V30 903 N 79.8174 1.5752 -0.0501392 0
M  V30 904 C 81.0654 1.9227 0.622642 0
M  V30 905 C 81.3864 0.929083 1.71444 0
M  V30 906 O 80.6564 -0.0262186 1.95882 0
M  V30 907 H 79.2364 0.709739 0.232981 0
M  V30 908 H 81.8984 1.94628 -0.102898 0
M  V30 909 H 80.9944 2.93479 1.06191 0
M  V30 910 N 81.2955 -0.223234 1.56011 0
M  V30 911 C 82.5235 -0.964812 1.83027 0
M  V30 912 C 82.9385 -1.78013 0.62904 0
M  V30 913 O 82.2955 -1.78008 -0.402414 0
M  V30 914 C 82.3465 -1.88373 3.08542 0
M  V30 915 O 82.0675 -1.10137 4.2403 0
M  V30 916 C 83.5685 -2.73934 3.48533 0
M  V30 917 H 80.7885 -0.282842 0.608475 0
M  V30 918 H 83.3325 -0.238971 2.03099 0
M  V30 919 H 81.4875 -2.56354 2.9045 0
M  V30 920 H 81.9015 -1.72501 4.95322 0
M  V30 921 H 83.3755 -3.34117 4.39397 0
M  V30 922 H 83.8525 -3.46244 2.70207 0
M  V30 923 H 84.4585 -2.11369 3.69057 0
M  V30 924 N 82.7736 -1.49793 -0.48987 0
M  V30 925 C 84.0226 -1.59085 -1.23995 0
M  V30 926 C 84.3356 -0.287907 -1.9347 0
M  V30 927 O 85.5416 -0.259506 -2.70257 0
M  V30 928 C 83.9976 -2.80736 -2.252 0
M  V30 929 C 83.6056 -4.17833 -1.61614 0
M  V30 930 C 85.3496 -2.99364 -3.00967 0
M  V30 931 C 83.2566 -5.30693 -2.60996 0
M  V30 932 H 82.1866 -0.592372 -0.466488 0
M  V30 933 H 84.8376 -1.76197 -0.51252 0
M  V30 934 H 83.2196 -2.57142 -3.01154 0
M  V30 935 H 84.3936 -4.51608 -0.915774 0
M  V30 936 H 82.7086 -4.04656 -0.981977 0
M  V30 937 H 85.3056 -3.80851 -3.75308 0
M  V30 938 H 85.6486 -2.10356 -3.59244 0
M  V30 939 H 86.1816 -3.2305 -2.32128 0
M  V30 940 H 82.9206 -6.21796 -2.07485 0
M  V30 941 H 82.4406 -5.01359 -3.2924 0
M  V30 942 H 84.1196 -5.6049 -3.23202 0
M  V30 943 N 84.2517 0.741722 -1.39055 0
M  V30 944 C 85.1847 1.86416 -1.31622 0
M  V30 945 C 86.1627 1.61473 -0.191076 0
M  V30 946 O 87.3467 1.84825 -0.370399 0
M  V30 947 C 84.4737 3.22266 -1.04221 0
M  V30 948 C 83.5197 3.66079 -2.18834 0
M  V30 949 S 84.3527 3.7623 -3.81066 0
M  V30 950 C 85.5087 5.14881 -3.55877 0
M  V30 951 H 85.7417 1.92437 -2.26617 0
M  V30 952 H 83.2747 0.905907 -1.25031 0
M  V30 953 H 85.2327 4.00714 -0.890964 0
M  V30 954 H 83.8937 3.1391 -0.109237 0
M  V30 955 H 83.0867 4.64648 -1.95238 0
M  V30 956 H 82.6887 2.94817 -2.30128 0
M  V30 957 H 84.9807 6.01006 -3.12726 0
M  V30 958 H 85.9237 5.43503 -4.53884 0
M  V30 959 H 86.3317 4.84239 -2.90126 0
M  V30 960 N 85.7298 1.2412 0.971189 0
M  V30 961 C 86.6778 1.02812 2.08644 0
M  V30 962 C 87.6718 -0.0358403 1.69362 0
M  V30 963 O 88.8778 0.118429 1.7961 0
M  V30 964 H 85.2528 0.315428 0.682649 0
M  V30 965 H 87.2238 1.97397 2.23779 0
M  V30 966 C 85.9728 0.645874 3.41649 0
M  V30 967 H 85.2958 1.45632 3.72332 0
M  V30 968 H 86.7358 0.536366 4.20594 0
M  V30 969 C 85.1948 -0.646713 3.30635 0
M  V30 970 O 85.7248 -1.69338 3.64263 0
M  V30 971 N 83.9308 -0.626115 2.83775 0
M  V30 972 H 83.4778 0.225988 2.56607 0
M  V30 973 H 83.4358 -1.49117 2.76788 0
M  V30 974 N 87.2079 -1.17134 1.05439 0
M  V30 975 C 88.1379 -2.2342 0.678649 0
M  V30 976 C 89.1189 -1.66971 -0.32476 0
M  V30 977 O 90.3039 -1.93149 -0.201802 0
M  V30 978 C 87.4339 -3.47256 0.0552099 0
M  V30 979 C 86.3879 -4.16543 0.98365 0
M  V30 980 C 85.7139 -5.34231 0.223961 0
M  V30 981 C 87.0139 -4.68495 2.3089 0
M  V30 982 H 88.7079 -2.55105 1.56722 0
M  V30 983 H 86.2539 -1.2262 0.754998 0
M  V30 984 H 88.2069 -4.20828 -0.21946 0
M  V30 985 H 86.9309 -3.14846 -0.868319 0
M  V30 986 H 85.5899 -3.44887 1.24293 0
M  V30 987 H 85.2379 -4.98071 -0.702412 0
M  V30 988 H 84.9379 -5.81527 0.842627 0
M  V30 989 H 86.4619 -6.10585 -0.0433671 0
M  V30 990 H 87.8759 -5.33691 2.09396 0
M  V30 991 H 86.2729 -5.26379 2.88176 0
M  V30 992 H 87.3429 -3.85169 2.94572 0
M  V30 993 N 88.686 -0.835752 -1.33615 0
M  V30 994 C 89.618 -0.224151 -2.28101 0
M  V30 995 C 90.631 0.593331 -1.51603 0
M  V30 996 O 91.82 0.420911 -1.73466 0
M  V30 997 C 88.92 0.703309 -3.31522 0
M  V30 998 C 88.093 -0.0741528 -4.37337 0
M  V30 999 C 87.152 0.776176 -5.20444 0
M  V30 1000 O 86.178 0.216506 -5.68788 0
M  V30 1001 N 87.38 2.09401 -5.41416 0
M  V30 1002 H 90.145 -1.03598 -2.81225 0
M  V30 1003 H 87.706 -0.69392 -1.46275 0
M  V30 1004 H 89.698 1.27707 -3.84022 0
M  V30 1005 H 88.268 1.41585 -2.78698 0
M  V30 1006 H 87.488 -0.82928 -3.85378 0
M  V30 1007 H 88.776 -0.608863 -5.05144 0
M  V30 1008 H 88.174 2.57229 -5.03835 0
M  V30 1009 H 86.731 2.61633 -5.96985 0
M  V30 1010 N 90.1641 1.46063 -0.591896 0
M  V30 1011 C 91.3941 2.06418 -0.0867676 0
M  V30 1012 C 91.8021 1.43975 1.22751 0
M  V30 1013 O 91.1451 0.542531 1.75506 0
M  V30 1014 C 91.2071 3.59213 0.143725 0
M  V30 1015 C 90.8711 4.439 -1.08635 0
M  V30 1016 C 91.8681 4.79864 -2.00067 0
M  V30 1017 C 89.5531 4.84896 -1.31077 0
M  V30 1018 C 91.5471 5.55661 -3.12282 0
M  V30 1019 C 89.2341 5.6045 -2.43596 0
M  V30 1020 C 90.2321 5.95747 -3.34027 0
M  V30 1021 O 89.9201 6.69772 -4.4459 0
M  V30 1022 H 89.6521 0.673443 -0.0587447 0
M  V30 1023 H 92.2061 1.88539 -0.814994 0
M  V30 1024 H 90.4361 3.75433 0.926668 0
M  V30 1025 H 92.1251 4.01463 0.5985 0
M  V30 1026 H 92.8911 4.48763 -1.83947 0
M  V30 1027 H 88.7701 4.56867 -0.61594 0
M  V30 1028 H 92.3141 5.8313 -3.82891 0
M  V30 1029 H 88.2111 5.90965 -2.59674 0
M  V30 1030 H 88.9791 6.88207 -4.43073 0
M  V30 1031 N 91.6422 0.330177 1.54103 0
M  V30 1032 C 92.8722 -0.271784 2.04805 0
M  V30 1033 C 93.2802 -1.45816 1.20559 0
M  V30 1034 O 92.6232 -1.82247 0.2306 0
M  V30 1035 C 92.6852 -0.763238 3.51305 0
M  V30 1036 C 92.3492 0.301705 4.56003 0
M  V30 1037 C 93.3462 1.13999 5.07248 0
M  V30 1038 C 91.0312 0.451793 5.00264 0
M  V30 1039 C 93.0252 2.11402 6.01322 0
M  V30 1040 C 90.7122 1.42924 5.94151 0
M  V30 1041 C 91.7102 2.25882 6.44567 0
M  V30 1042 O 91.3982 3.21965 7.3661 0
M  V30 1043 H 91.1302 -0.058693 0.673447 0
M  V30 1044 H 93.6842 0.476395 1.99799 0
M  V30 1045 H 91.9142 -1.56244 3.5373 0
M  V30 1046 H 93.6032 -1.28427 3.85047 0
M  V30 1047 H 94.3692 1.03505 4.73827 0
M  V30 1048 H 90.2482 -0.184044 4.60632 0
M  V30 1049 H 93.7922 2.76192 6.40596 0
M  V30 1050 H 89.6892 1.53479 6.26988 0
M  V30 1051 H 90.4572 3.17281 7.54503 0
M  V30 1052 N 93.1203 -1.57491 0.0584922 0
M  V30 1053 C 94.0673 -2.11958 -0.913376 0
M  V30 1054 C 95.0373 -1.02875 -1.30407 0
M  V30 1055 O 96.2223 -1.30464 -1.39226 0
M  V30 1056 C 93.3623 -2.67497 -2.18035 0
M  V30 1057 C 92.4753 -3.90691 -1.84349 0
M  V30 1058 C 91.6103 -4.3452 -3.05559 0
M  V30 1059 C 90.6493 -5.50395 -2.67827 0
M  V30 1060 N 89.7863 -5.89244 -3.81754 0
M  V30 1061 H 94.6263 -2.94704 -0.442017 0
M  V30 1062 H 92.1633 -1.45643 -0.206545 0
M  V30 1063 H 94.1213 -2.978 -2.92183 0
M  V30 1064 H 92.7513 -1.87537 -2.62735 0
M  V30 1065 H 91.8033 -3.66934 -1.00319 0
M  V30 1066 H 93.1153 -4.7489 -1.5258 0
M  V30 1067 H 92.2693 -4.66414 -3.87998 0
M  V30 1068 H 91.0083 -3.49147 -3.40511 0
M  V30 1069 H 90.0133 -5.18165 -1.83806 0
M  V30 1070 H 91.2383 -6.3749 -2.34059 0
M  V30 1071 H 89.1843 -5.06823 -4.16493 0
M  V30 1072 H 89.1013 -6.68151 -3.53708 0
M  V30 1073 H 90.3693 -6.25756 -4.64811 0
M  V30 1074 N 94.5984 0.214957 -1.56127 0
M  V30 1075 C 95.8464 0.936518 -1.79091 0
M  V30 1076 C 96.1674 1.84606 -0.628148 0
M  V30 1077 O 95.4374 1.92664 0.35462 0
M  V30 1078 H 94.0174 0.3488 -0.660566 0
M  V30 1079 H 96.6794 0.22523 -1.93594 0
M  V30 1080 H 95.7754 1.53943 -2.71492 0
M  V30 1081 N 96.0765 1.50051 0.48192 0
M  V30 1082 C 97.0395 1.67584 1.5636 0
M  V30 1083 C 98.0395 0.546894 1.51214 0
M  V30 1084 O 99.2295 0.813725 1.54026 0
M  V30 1085 C 96.3615 1.691 2.96003 0
M  V30 1086 H 97.5545 2.64078 1.42136 0
M  V30 1087 H 95.1075 1.39369 0.707533 0
M  V30 1088 H 95.8425 0.742589 3.15684 0
M  V30 1089 H 95.6275 2.51105 3.01146 0
M  V30 1090 H 97.1175 1.84656 3.74556 0
M  V30 1091 N 97.5546 -0.734337 1.39446 0
M  V30 1092 C 98.8016 -1.49391 1.36706 0
M  V30 1093 C 99.1296 -1.94465 -0.0367813 0
M  V30 1094 O 98.3846 -1.67154 -1.01774 0
M  V30 1095 C 98.6836 -2.74711 2.28623 0
M  V30 1096 C 98.3496 -2.48501 3.76242 0
M  V30 1097 C 97.0116 -2.41062 4.16464 0
M  V30 1098 C 99.3636 -2.26098 4.69606 0
M  V30 1099 C 96.6916 -2.09262 5.48112 0
M  V30 1100 C 99.0436 -1.95814 6.01531 0
M  V30 1101 C 97.7076 -1.86845 6.40816 0
M  V30 1102 H 96.9776 -0.546661 0.500243 0
M  V30 1103 H 99.6246 -0.842788 1.71957 0
M  V30 1104 H 97.9296 -3.44569 1.86492 0
M  V30 1105 H 99.6266 -3.32741 2.23796 0
M  V30 1106 H 96.2166 -2.55169 3.44364 0
M  V30 1107 H 100.401 -2.30812 4.39363 0
M  V30 1108 H 95.6566 -2.00841 5.77471 0
M  V30 1109 H 99.8306 -1.77488 6.73403 0
M  V30 1110 H 97.4576 -1.6197 7.42745 0
M  V30 1111 N 99.0327 -1.24633 -0.964593 0
M  V30 1112 C 100.279 -1.08949 -1.71049 0
M  V30 1113 C 100.612 0.370302 -1.90637 0
M  V30 1114 O 99.8867 1.27349 -1.47011 0
M  V30 1115 C 100.17 -1.83329 -3.0994 0
M  V30 1116 C 100.023 -3.37077 -2.97824 0
M  V30 1117 C 101.342 -1.60846 -4.09654 0
M  V30 1118 H 98.4607 -0.397178 -0.620821 0
M  V30 1119 H 101.103 -1.5334 -1.12191 0
M  V30 1120 H 99.2527 -1.45597 -3.60186 0
M  V30 1121 H 100.925 -3.84425 -2.5498 0
M  V30 1122 H 99.1677 -3.65298 -2.33965 0
M  V30 1123 H 99.8387 -3.84324 -3.96231 0
M  V30 1124 H 102.315 -1.93674 -3.68279 0
M  V30 1125 H 101.191 -2.1534 -5.04896 0
M  V30 1126 H 101.452 -0.547434 -4.38698 0
M  V30 1127 N 100.511 1.16574 -1.06058 0
M  V30 1128 C 101.76 1.86385 -0.770944 0
M  V30 1129 C 102.073 1.82448 0.705129 0
M  V30 1130 O 103.279 2.47815 1.10905 0
M  V30 1131 C 101.735 3.34466 -1.32893 0
M  V30 1132 C 101.343 3.46883 -2.83507 0
M  V30 1133 C 103.087 4.09548 -1.11672 0
M  V30 1134 C 100.994 4.89036 -3.32562 0
M  V30 1135 H 99.9238 0.698181 -0.284709 0
M  V30 1136 H 102.575 1.31583 -1.27899 0
M  V30 1137 H 100.957 3.88859 -0.748662 0
M  V30 1138 H 102.131 3.02663 -3.47465 0
M  V30 1139 H 100.446 2.85232 -3.03368 0
M  V30 1140 H 103.043 5.14434 -1.45814 0
M  V30 1141 H 103.386 4.16264 -0.0549535 0
M  V30 1142 H 103.919 3.61387 -1.66265 0
M  V30 1143 H 100.658 4.87499 -4.38207 0
M  V30 1144 H 100.178 5.3389 -2.73351 0
M  V30 1145 H 101.857 5.57843 -3.2775 0
M  V30 1146 N 101.989 0.842826 1.3317 0
M  V30 1147 C 102.922 0.223862 2.27099 0
M  V30 1148 C 103.9 -0.631311 1.49844 0
M  V30 1149 O 105.084 -0.590708 1.79005 0
M  V30 1150 C 102.211 -0.685313 3.31694 0
M  V30 1151 C 101.257 0.094919 4.26394 0
M  V30 1152 S 102.09 1.45546 5.15341 0
M  V30 1153 C 103.246 0.551685 6.23464 0
M  V30 1154 H 103.479 1.02015 2.79249 0
M  V30 1155 H 101.012 0.639797 1.4052 0
M  V30 1156 H 102.97 -1.20426 3.92438 0
M  V30 1157 H 101.631 -1.4553 2.78352 0
M  V30 1158 H 100.824 -0.597059 5.00451 0
M  V30 1159 H 100.426 0.545054 3.70007 0
M  V30 1160 H 102.718 -0.248877 6.77043 0
M  V30 1161 H 103.661 1.26253 6.96754 0
M  V30 1162 H 104.069 0.131275 5.64347 0
M  V30 1163 N 103.467 -1.45747 0.599634 0
M  V30 1164 C 104.692 -2.07178 0.0960198 0
M  V30 1165 C 105.117 -1.44268 -1.207 0
M  V30 1166 O 104.475 -0.532503 -1.73303 0
M  V30 1167 C 104.523 -3.60579 -0.0385348 0
M  V30 1168 O 103.627 -3.97713 -1.0908 0
M  V30 1169 H 102.968 -0.660251 0.0704593 0
M  V30 1170 H 105.498 -1.87124 0.827385 0
M  V30 1171 H 105.508 -4.07298 -0.239304 0
M  V30 1172 H 104.183 -4.05756 0.912947 0
M  V30 1173 H 102.76 -3.62678 -0.867135 0
M  V30 1174 N 104.945 -0.338344 -1.53925 0
M  V30 1175 C 106.193 0.259245 -2.0043 0
M  V30 1176 C 106.514 1.51484 -1.22791 0
M  V30 1177 O 105.784 1.93037 -0.33368 0
M  V30 1178 H 104.364 0.0987845 -0.740439 0
M  V30 1179 H 107.026 -0.458302 -1.89435 0
M  V30 1180 H 106.122 0.505334 -3.07982 0
M  V30 1181 N 106.423 1.57458 -0.0668435 0
M  V30 1182 C 107.67 1.93301 0.603406 0
M  V30 1183 C 107.998 0.946486 1.69917 0
M  V30 1184 O 107.253 -0.0387021 1.95662 0
M  V30 1185 C 107.552 3.35784 1.22409 0
M  V30 1186 C 107.218 4.50179 0.254955 0
M  V30 1187 C 105.88 4.81199 -0.0116746 0
M  V30 1188 C 108.232 5.19598 -0.408338 0
M  V30 1189 C 105.56 5.78978 -0.94877 0
M  V30 1190 C 107.912 6.18381 -1.33372 0
M  V30 1191 C 106.576 6.47821 -1.60887 0
M  V30 1192 H 105.846 0.707338 0.220802 0
M  V30 1193 H 108.493 1.91012 -0.136665 0
M  V30 1194 H 106.798 3.34515 2.03978 0
M  V30 1195 H 108.495 3.60804 1.74989 0
M  V30 1196 H 105.085 4.25983 0.472954 0
M  V30 1197 H 109.269 4.95832 -0.215456 0
M  V30 1198 H 104.525 6.00115 -1.16925 0
M  V30 1199 H 108.699 6.71277 -1.85367 0
M  V30 1200 H 106.326 7.23399 -2.33661 0
M  V30 1201 N 107.901 -0.206675 1.56239 0
M  V30 1202 C 109.15 -0.926964 1.79138 0
M  V30 1203 C 109.463 -1.84901 0.638043 0
M  V30 1204 O 110.669 -2.60906 0.751033 0
M  V30 1205 C 109.125 -1.6986 3.17294 0
M  V30 1206 C 108.733 -0.821956 4.40395 0
M  V30 1207 C 110.477 -2.40922 3.4951 0
M  V30 1208 C 108.384 -1.59179 5.69575 0
M  V30 1209 H 107.314 -0.349864 0.667915 0
M  V30 1210 H 109.965 -0.180487 1.8261 0
M  V30 1211 H 108.347 -2.48853 3.08039 0
M  V30 1212 H 109.521 -0.0715019 4.60745 0
M  V30 1213 H 107.836 -0.222741 4.15804 0
M  V30 1214 H 110.433 -2.99047 4.43255 0
M  V30 1215 H 110.776 -3.14542 2.72707 0
M  V30 1216 H 111.309 -1.68905 3.60161 0
M  V30 1217 H 108.048 -0.898589 6.49312 0
M  V30 1218 H 107.568 -2.31648 5.53262 0
M  V30 1219 H 109.247 -2.14862 6.10281 0
M  V30 1220 N 109.379 -1.50304 -0.473955 0
M  V30 1221 C 110.656 -1.51667 -1.23518 0
M  V30 1222 C 111.036 -0.259701 -2.09496 0
M  V30 1223 O 110.384 0.756986 -2.15597 0
M  V30 1224 C 110.594 -2.81082 -2.06868 0
M  V30 1225 C 111.942 -3.31631 -2.65153 0
M  V30 1226 O 112.966 -2.82384 -2.17113 0
M  V30 1227 O 111.825 -4.17471 -3.52675 0
M  V30 1228 H 108.919 -0.60822 -0.560355 0
M  V30 1229 H 111.465 -1.62592 -0.486011 0
M  V30 1230 H 110.237 -3.64041 -1.4349 0
M  V30 1231 H 109.86 -2.73146 -2.88924 0
M  V30 1232 N 110.857 0.726932 -1.39834 0
M  V30 1233 C 112.085 1.51613 -1.40787 0
M  V30 1234 C 112.5 1.88799 -0.00451505 0
M  V30 1235 O 111.857 1.54662 0.968809 0
M  V30 1236 C 111.908 2.79863 -2.28821 0
M  V30 1237 O 111.629 2.44253 -3.63692 0
M  V30 1238 C 113.13 3.73837 -2.38245 0
M  V30 1239 H 110.35 0.468264 -0.480593 0
M  V30 1240 H 112.894 0.897607 -1.83748 0
M  V30 1241 H 111.049 3.38027 -1.89252 0
M  V30 1242 H 111.463 3.26695 -4.1033 0
M  V30 1243 H 112.937 4.60699 -3.04073 0
M  V30 1244 H 113.414 4.16153 -1.40403 0
M  V30 1245 H 114.02 3.21589 -2.78317 0
M  V30 1246 N 112.336 1.25143 0.95797 0
M  V30 1247 C 113.246 1.06968 2.08794 0
M  V30 1248 C 114.262 0.00773911 1.73998 0
M  V30 1249 O 115.438 0.207972 2.00323 0
M  V30 1250 C 112.503 0.68691 3.39827 0
M  V30 1251 C 111.564 1.82641 3.88511 0
M  V30 1252 C 110.797 1.46181 5.1329 0
M  V30 1253 O 111.02 0.355971 5.69288 0
M  V30 1254 O 109.954 2.29085 5.566 0
M  V30 1255 H 113.78 2.01723 2.27027 0
M  V30 1256 H 111.365 1.04051 1.07209 0
M  V30 1257 H 113.247 0.485417 4.18595 0
M  V30 1258 H 111.922 -0.231417 3.22872 0
M  V30 1259 H 110.829 2.08274 3.10762 0
M  V30 1260 H 112.162 2.72386 4.09959 0
M  V30 1261 N 113.814 -1.1601 1.06675 0
M  V30 1262 C 115.042 -1.90527 0.806667 0
M  V30 1263 C 115.457 -1.77643 -0.639396 0
M  V30 1264 O 114.814 -1.12369 -1.43803 0
M  V30 1265 C 114.865 -3.41106 1.19705 0
M  V30 1266 O 114.586 -3.53608 2.58636 0
M  V30 1267 C 116.087 -4.32663 0.965266 0
M  V30 1268 H 113.307 -0.604053 0.292166 0
M  V30 1269 H 115.851 -1.47026 1.4214 0
M  V30 1270 H 114.006 -3.82296 0.626774 0
M  V30 1271 H 114.42 -4.47011 2.74375 0
M  V30 1272 H 115.894 -5.36763 1.288 0
M  V30 1273 H 116.371 -4.39089 -0.0987936 0
M  V30 1274 H 116.977 -3.97206 1.52011 0
M  V30 1275 N 115.292 -0.849877 -1.32721 0
M  V30 1276 C 116.517 -0.463856 -2.02146 0
M  V30 1277 C 116.942 0.930449 -1.63476 0
M  V30 1278 O 116.3 1.61033 -0.832952 0
M  V30 1279 C 116.348 -0.604955 -3.55489 0
M  V30 1280 O 115.452 0.36425 -4.10788 0
M  V30 1281 H 114.793 -0.187046 -0.637111 0
M  V30 1282 H 117.323 -1.14775 -1.69375 0
M  V30 1283 H 117.333 -0.490696 -4.05038 0
M  V30 1284 H 116.008 -1.62174 -3.82978 0
M  V30 1285 H 114.585 0.206628 -3.72327 0
M  V30 1286 N 116.77 1.45427 -0.607355 0
M  V30 1287 C 118.016 2.0254 -0.102607 0
M  V30 1288 C 118.349 1.47478 1.26348 0
M  V30 1289 O 117.624 0.64939 1.83339 0
M  V30 1290 C 117.907 3.60044 -0.0634347 0
M  V30 1291 C 117.76 4.2544 -1.46017 0
M  V30 1292 C 119.079 4.35646 0.624514 0
M  V30 1293 H 116.198 0.73598 -0.0387607 0
M  V30 1294 H 118.84 1.73284 -0.779282 0
M  V30 1295 H 116.99 3.85101 0.512808 0
M  V30 1296 H 118.662 4.11569 -2.08347 0
M  V30 1297 H 116.905 3.83849 -2.02094 0
M  V30 1298 H 117.576 5.34342 -1.385 0
M  V30 1299 H 120.052 4.15882 0.134723 0
M  V30 1300 H 118.928 5.45376 0.621028 0
M  V30 1301 H 119.189 4.08501 1.69055 0
M  V30 1302 N 118.248 0.346503 1.53744 0
M  V30 1303 C 119.496 -0.248612 2.00565 0
M  V30 1304 C 119.817 -1.5083 1.23593 0
M  V30 1305 O 119.087 -1.92858 0.343912 0
M  V30 1306 H 117.667 -0.0948564 0.740953 0
M  V30 1307 H 120.329 0.468341 1.89189 0
M  V30 1308 H 119.425 -0.488994 3.08245 0
M  V30 1309 N 119.726 -1.57421 0.075193 0
M  V30 1310 C 120.956 -1.97659 -0.601203 0
M  V30 1311 C 121.364 -0.952427 -1.63479 0
M  V30 1312 O 120.707 0.0688241 -1.83571 0
M  V30 1313 C 120.769 -3.34218 -1.32434 0
M  V30 1314 C 120.433 -4.5484 -0.443826 0
M  V30 1315 C 121.43 -5.19034 0.299969 0
M  V30 1316 C 119.115 -5.00952 -0.367709 0
M  V30 1317 C 121.109 -6.27695 1.10807 0
M  V30 1318 C 118.796 -6.09484 0.444058 0
M  V30 1319 C 119.794 -6.72719 1.18061 0
M  V30 1320 O 119.482 -7.79161 1.97898 0
M  V30 1321 H 119.214 -0.65494 -0.167422 0
M  V30 1322 H 121.768 -2.04886 0.145157 0
M  V30 1323 H 119.998 -3.23615 -2.11685 0
M  V30 1324 H 121.687 -3.59038 -1.89331 0
M  V30 1325 H 122.453 -4.84351 0.250776 0
M  V30 1326 H 118.332 -4.51509 -0.930638 0
M  V30 1327 H 121.876 -6.76982 1.68347 0
M  V30 1328 H 117.773 -6.43601 0.494803 0
M  V30 1329 H 118.541 -7.96055 1.90367 0
M  V30 1330 N 121.204 0.198386 -1.56346 0
M  V30 1331 C 122.434 0.934215 -1.84271 0
M  V30 1332 C 122.842 1.77496 -0.655125 0
M  V30 1333 O 122.185 1.7961 0.385488 0
M  V30 1334 C 122.247 1.88278 -3.06254 0
M  V30 1335 C 121.911 1.22431 -4.40295 0
M  V30 1336 C 122.908 0.602839 -5.16393 0
M  V30 1337 C 120.593 1.22915 -4.87029 0
M  V30 1338 C 122.587 -0.0050083 -6.374 0
M  V30 1339 C 120.274 0.617465 -6.07973 0
M  V30 1340 C 121.272 0.00146341 -6.83 0
M  V30 1341 O 120.96 -0.600642 -8.01653 0
M  V30 1342 H 120.692 0.278245 -0.616081 0
M  V30 1343 H 123.246 0.211626 -2.04307 0
M  V30 1344 H 121.476 2.64498 -2.82095 0
M  V30 1345 H 123.165 2.48612 -3.20853 0
M  V30 1346 H 123.931 0.591265 -4.81382 0
M  V30 1347 H 119.81 1.69801 -4.28589 0
M  V30 1348 H 123.354 -0.48643 -6.95902 0
M  V30 1349 H 119.251 0.62653 -6.42452 0
M  V30 1350 H 120.019 -0.497225 -8.16988 0
M  V30 1351 N 122.682 1.50554 0.465978 0
M  V30 1352 C 123.63 1.70324 1.58406 0
M  V30 1353 C 124.624 0.569139 1.59553 0
M  V30 1354 O 125.83 0.749776 1.63641 0
M  V30 1355 H 122.205 0.537688 0.525734 0
M  V30 1356 H 124.176 2.64104 1.38894 0
M  V30 1357 C 122.925 1.81928 2.96307 0
M  V30 1358 H 122.248 2.68586 2.96144 0
M  V30 1359 H 123.688 1.99784 3.73982 0
M  V30 1360 C 122.147 0.572095 3.32007 0
M  V30 1361 O 122.677 -0.286416 4.00678 0
M  V30 1362 N 120.883 0.424606 2.87481 0
M  V30 1363 H 120.43 1.12427 2.31771 0
M  V30 1364 H 120.388 -0.408697 3.11732 0
M  V30 1365 N 124.16 -0.719506 1.40217 0
M  V30 1366 C 125.09 -1.8465 1.42922 0
M  V30 1367 C 126.071 -1.67599 0.29062 0
M  V30 1368 O 127.256 -1.87688 0.498677 0
M  V30 1369 C 124.386 -3.22565 1.28722 0
M  V30 1370 C 123.34 -3.54281 2.40144 0
M  V30 1371 C 122.666 -4.91298 2.11023 0
M  V30 1372 C 123.966 -3.55676 3.82481 0
M  V30 1373 H 125.66 -1.82644 2.37237 0
M  V30 1374 H 123.206 -0.877305 1.1419 0
M  V30 1375 H 125.159 -4.01095 1.29232 0
M  V30 1376 H 123.883 -3.25137 0.308811 0
M  V30 1377 H 122.542 -2.78088 2.38877 0
M  V30 1378 H 122.19 -4.90468 1.11582 0
M  V30 1379 H 121.89 -5.13485 2.8567 0
M  V30 1380 H 123.414 -5.72166 2.13209 0
M  V30 1381 H 124.828 -4.24254 3.85592 0
M  V30 1382 H 123.225 -3.89388 4.56614 0
M  V30 1383 H 124.295 -2.55144 4.12346 0
M  V30 1384 N 125.638 -1.25649 -0.95132 0
M  V30 1385 C 126.548 -1.08073 -2.08224 0
M  V30 1386 C 127.564 -0.0169666 -1.73992 0
M  V30 1387 O 128.74 -0.218593 -2.0021 0
M  V30 1388 C 125.805 -0.704922 -3.39458 0
M  V30 1389 C 124.866 -1.84699 -3.87537 0
M  V30 1390 C 124.099 -1.48902 -5.12508 0
M  V30 1391 O 124.322 -0.386156 -5.69091 0
M  V30 1392 O 123.256 -2.32033 -5.55378 0
M  V30 1393 H 127.082 -2.02924 -2.25954 0
M  V30 1394 H 124.667 -1.04618 -1.06656 0
M  V30 1395 H 126.549 -0.507609 -4.18332 0
M  V30 1396 H 125.224 0.214291 -3.2299 0
M  V30 1397 H 124.131 -2.09919 -3.09653 0
M  V30 1398 H 125.464 -2.74557 -4.08509 0
M  V30 1399 N 127.117 1.15442 -1.07289 0
M  V30 1400 C 128.363 1.86489 -0.796846 0
M  V30 1401 C 128.696 1.82078 0.675371 0
M  V30 1402 O 127.971 1.24346 1.4956 0
M  V30 1403 C 128.254 3.35626 -1.30489 0
M  V30 1404 C 128.107 3.48673 -2.84161 0
M  V30 1405 C 129.426 4.30357 -0.920907 0
M  V30 1406 H 126.545 0.677144 -0.290939 0
M  V30 1407 H 129.187 1.35633 -1.33056 0
M  V30 1408 H 127.337 3.79068 -0.850883 0
M  V30 1409 H 129.009 3.14099 -3.37846 0
M  V30 1410 H 127.252 2.90253 -3.22391 0
M  V30 1411 H 127.923 4.53453 -3.14777 0
M  V30 1412 H 130.399 3.94871 -1.3121 0
M  V30 1413 H 129.275 5.33193 -1.30372 0
M  V30 1414 H 129.536 4.4176 0.173226 0
M  V30 1415 N 128.595 0.856903 1.32268 0
M  V30 1416 C 129.844 0.457599 1.96441 0
M  V30 1417 C 130.157 -0.992426 1.68553 0
M  V30 1418 O 131.363 -1.49727 2.26482 0
M  V30 1419 C 129.819 0.767358 3.51624 0
M  V30 1420 C 129.427 2.23326 3.88367 0
M  V30 1421 C 131.171 0.435887 4.22256 0
M  V30 1422 C 129.078 2.48613 5.36606 0
M  V30 1423 H 128.008 0.167387 0.735185 0
M  V30 1424 H 130.659 1.048 1.5063 0
M  V30 1425 H 129.041 0.106367 3.95857 0
M  V30 1426 H 130.215 2.93623 3.55137 0
M  V30 1427 H 128.53 2.52948 3.30766 0
M  V30 1428 H 131.127 0.602202 5.31298 0
M  V30 1429 H 131.47 -0.622672 4.11617 0
M  V30 1430 H 132.003 1.05286 3.83614 0
M  V30 1431 H 128.742 3.53101 5.52268 0
M  V30 1432 H 128.262 1.82896 5.71235 0
M  V30 1433 H 129.941 2.32676 6.03714 0
M  V30 1434 N 130.073 -1.45103 0.615059 0
M  V30 1435 C 131.298 -2.07064 0.117988 0
M  V30 1436 C 131.723 -1.4554 -1.19163 0
M  V30 1437 O 131.081 -0.550855 -1.72729 0
M  V30 1438 C 131.129 -3.606 -0.000288387 0
M  V30 1439 O 130.233 -3.98847 -1.04856 0
M  V30 1440 H 129.574 -0.659467 0.0774581 0
M  V30 1441 H 132.104 -1.86236 0.847186 0
M  V30 1442 H 132.114 -4.07529 -0.196091 0
M  V30 1443 H 130.789 -4.04765 0.955932 0
M  V30 1444 H 129.366 -3.63577 -0.828619 0
M  V30 1445 N 131.551 -0.354651 -1.53558 0
M  V30 1446 C 132.461 0.50515 -2.29097 0
M  V30 1447 C 133.477 1.10223 -1.34636 0
M  V30 1448 O 134.653 1.11553 -1.67684 0
M  V30 1449 C 131.718 1.63479 -3.05738 0
M  V30 1450 C 130.779 1.06636 -4.15845 0
M  V30 1451 C 130.012 2.14217 -4.88822 0
M  V30 1452 O 130.235 3.35137 -4.61562 0
M  V30 1453 O 129.169 1.77887 -5.75013 0
M  V30 1454 H 132.995 -0.109237 -3.03503 0
M  V30 1455 H 130.58 -0.119357 -1.48922 0
M  V30 1456 H 132.462 2.2918 -3.5363 0
M  V30 1457 H 131.137 2.23478 -2.34178 0
M  V30 1458 H 130.044 0.373565 -3.7223 0
M  V30 1459 H 131.377 0.511081 -4.89539 0
M  V30 1460 N 133.029 1.57378 -0.0835403 0
M  V30 1461 C 133.961 2.10389 0.909338 0
M  V30 1462 C 134.974 1.03858 1.25369 0
M  V30 1463 O 136.163 1.31338 1.20882 0
M  V30 1464 C 133.263 2.55908 2.2218 0
M  V30 1465 C 132.436 3.86145 2.05453 0
M  V30 1466 C 131.495 4.17633 3.20108 0
M  V30 1467 O 130.521 4.87043 2.94581 0
M  V30 1468 N 131.723 3.72113 4.45547 0
M  V30 1469 H 134.488 2.962 0.456657 0
M  V30 1470 H 132.049 1.61579 0.101877 0
M  V30 1471 H 134.041 2.74027 2.97811 0
M  V30 1472 H 132.611 1.75171 2.58909 0
M  V30 1473 H 131.831 3.7729 1.1422 0
M  V30 1474 H 133.119 4.7137 1.91541 0
M  V30 1475 H 132.517 3.16062 4.69171 0
M  V30 1476 H 131.074 3.95409 5.18165 0
M  V30 1477 N 134.507 -0.190092 1.56449 0
M  V30 1478 C 135.47 -1.21925 1.9408 0
M  V30 1479 C 136.47 -1.38176 0.822431 0
M  V30 1480 O 137.66 -1.35903 1.08977 0
M  V30 1481 C 134.792 -2.58773 2.21922 0
M  V30 1482 H 135.985 -0.897464 2.86157 0
M  V30 1483 H 133.538 -0.43181 1.50217 0
M  V30 1484 H 134.273 -2.95998 1.32499 0
M  V30 1485 H 134.058 -2.48348 3.03424 0
M  V30 1486 H 135.548 -3.32978 2.52022 0
M  V30 1487 N 135.985 -1.50799 -0.457987 0
M  V30 1488 C 137.213 -1.66218 -1.23203 0
M  V30 1489 C 137.628 -0.350894 -1.85511 0
M  V30 1490 O 136.985 0.668546 -1.69814 0
M  V30 1491 C 137.036 -2.76291 -2.33121 0
M  V30 1492 O 136.757 -4.02338 -1.73366 0
M  V30 1493 C 138.258 -3.028 -3.2377 0
M  V30 1494 H 135.478 -0.558361 -0.372121 0
M  V30 1495 H 138.022 -1.97099 -0.545179 0
M  V30 1496 H 136.177 -2.48068 -2.97558 0
M  V30 1497 H 136.591 -4.63312 -2.4585 0
M  V30 1498 H 138.065 -3.8345 -3.97077 0
M  V30 1499 H 138.542 -2.14385 -3.83322 0
M  V30 1500 H 139.148 -3.32604 -2.65056 0
M  V30 1501 N 137.463 0.71206 -1.40597 0
M  V30 1502 C 138.426 1.80785 -1.40888 0
M  V30 1503 C 139.426 1.57937 -0.302103 0
M  V30 1504 O 140.616 1.64913 -0.561182 0
M  V30 1505 C 137.748 3.18927 -1.20409 0
M  V30 1506 H 138.941 1.81924 -2.38419 0
M  V30 1507 H 136.494 0.91805 -1.26497 0
M  V30 1508 H 137.229 3.23436 -0.236522 0
M  V30 1509 H 137.014 3.36911 -2.00582 0
M  V30 1510 H 138.504 3.98949 -1.23408 0
M  V30 1511 N 138.941 1.26152 0.944643 0
M  V30 1512 C 140.171 1.14094 1.72239 0
M  V30 1513 C 140.579 -0.306931 1.86694 0
M  V30 1514 O 139.922 -1.22222 1.3714 0
M  V30 1515 C 139.984 1.73316 3.14963 0
M  V30 1516 C 139.648 3.2239 3.23904 0
M  V30 1517 C 140.645 4.19252 3.07447 0
M  V30 1518 C 138.33 3.62788 3.47405 0
M  V30 1519 C 140.324 5.54491 3.14353 0
M  V30 1520 C 138.011 4.98162 3.53947 0
M  V30 1521 C 139.009 5.93823 3.37436 0
M  V30 1522 O 138.697 7.26732 3.43679 0
M  V30 1523 H 138.429 0.398292 0.546205 0
M  V30 1524 H 140.983 1.67201 1.19301 0
M  V30 1525 H 139.213 1.14667 3.69308 0
M  V30 1526 H 140.902 1.56214 3.74636 0
M  V30 1527 H 141.668 3.8938 2.8915 0
M  V30 1528 H 137.547 2.88816 3.59313 0
M  V30 1529 H 141.091 6.29137 3.01384 0
M  V30 1530 H 136.988 5.27695 3.71763 0
M  V30 1531 H 137.756 7.3496 3.60245 0
M  V30 1532 N 140.419 -1.14872 1.07899 0
M  V30 1533 C 141.665 -1.86064 0.806725 0
M  V30 1534 C 141.998 -1.82434 -0.665706 0
M  V30 1535 O 141.273 -1.25138 -1.48899 0
M  V30 1536 C 141.556 -3.34929 1.32267 0
M  V30 1537 C 141.409 -3.47161 2.86006 0
M  V30 1538 C 142.728 -4.29863 0.943717 0
M  V30 1539 H 139.847 -0.675591 0.294526 0
M  V30 1540 H 142.489 -1.34925 1.33773 0
M  V30 1541 H 140.639 -3.78611 0.870974 0
M  V30 1542 H 142.311 -3.12302 3.39507 0
M  V30 1543 H 140.554 -2.88539 3.23925 0
M  V30 1544 H 141.225 -4.51777 3.17177 0
M  V30 1545 H 143.701 -3.9417 1.33302 0
M  V30 1546 H 142.577 -5.32494 1.33198 0
M  V30 1547 H 142.838 -4.41846 -0.149796 0
M  V30 1548 N 141.898 -0.863906 -1.31812 0
M  V30 1549 C 143.147 -0.46801 -1.96195 0
M  V30 1550 C 143.46 0.983474 -1.69077 0
M  V30 1551 O 144.666 1.48523 -2.27273 0
M  V30 1552 C 143.122 -0.785995 -3.51212 0
M  V30 1553 C 142.73 -2.25383 -3.87178 0
M  V30 1554 C 144.474 -0.458274 -4.22019 0
M  V30 1555 C 142.381 -2.51455 -5.3528 0
M  V30 1556 H 141.311 -0.171283 -0.734287 0
M  V30 1557 H 143.962 -1.05597 -1.50072 0
M  V30 1558 H 142.344 -0.127359 -3.95795 0
M  V30 1559 H 143.518 -2.95502 -3.53575 0
M  V30 1560 H 141.833 -2.54698 -3.2942 0
M  V30 1561 H 144.43 -0.630369 -5.30971 0
M  V30 1562 H 144.773 0.600834 -4.11941 0
M  V30 1563 H 145.306 -1.07319 -3.8305 0
M  V30 1564 H 142.045 -3.56025 -5.50387 0
M  V30 1565 H 141.565 -1.85923 -5.70257 0
M  V30 1566 H 143.244 -2.35874 -6.02472 0
M  V30 1567 N 143.376 1.44774 -0.622745 0
M  V30 1568 C 144.323 2.30635 0.0871679 0
M  V30 1569 C 145.293 1.42994 0.845097 0
M  V30 1570 O 146.478 1.71907 0.827812 0
M  V30 1571 C 143.618 3.28144 1.06844 0
M  V30 1572 C 142.731 4.30888 0.309809 0
M  V30 1573 C 141.866 5.15494 1.28215 0
M  V30 1574 C 140.905 6.09953 0.512198 0
M  V30 1575 N 140.042 6.87287 1.43458 0
M  V30 1576 H 144.882 2.90803 -0.650974 0
M  V30 1577 H 142.419 1.43286 -0.33281 0
M  V30 1578 H 144.377 3.83157 1.65066 0
M  V30 1579 H 143.007 2.69695 1.77382 0
M  V30 1580 H 142.059 3.78414 -0.388181 0
M  V30 1581 H 143.371 4.97955 -0.290254 0
M  V30 1582 H 142.525 5.74983 1.93596 0
M  V30 1583 H 141.264 4.48481 1.91614 0
M  V30 1584 H 140.269 5.49581 -0.155151 0
M  V30 1585 H 141.494 6.78999 -0.116958 0
M  V30 1586 H 139.44 6.2295 2.05594 0
M  V30 1587 H 139.357 7.50763 0.888335 0
M  V30 1588 H 140.625 7.51306 2.07749 0
M  V30 1589 N 144.854 0.36279 1.53368 0
M  V30 1590 C 146.103 -0.22888 2.00397 0
M  V30 1591 C 146.416 -1.50096 1.25421 0
M  V30 1592 O 147.622 -2.17106 1.63025 0
M  V30 1593 C 146.078 -0.458417 3.56969 0
M  V30 1594 C 145.686 0.798877 4.4082 0
M  V30 1595 C 147.43 -1.00789 4.12361 0
M  V30 1596 C 145.337 0.539078 5.88938 0
M  V30 1597 H 144.267 -0.089305 0.748693 0
M  V30 1598 H 146.918 0.481099 1.77081 0
M  V30 1599 H 145.3 -1.22959 3.76427 0
M  V30 1600 H 146.474 1.57262 4.33134 0
M  V30 1601 H 144.789 1.27137 3.96516 0
M  V30 1602 H 147.386 -1.21754 5.20653 0
M  V30 1603 H 147.729 -1.9692 3.66781 0
M  V30 1604 H 148.262 -0.296961 3.9669 0
M  V30 1605 H 145.001 1.47064 6.3879 0
M  V30 1606 H 144.521 -0.196222 5.99479 0
M  V30 1607 H 146.2 0.163542 6.46793 0
M  V30 1608 N 146.332 -1.57332 0.0918853 0
M  V30 1609 C 147.28 -2.15075 -0.885747 0
M  V30 1610 C 148.274 -1.09277 -1.29441 0
M  V30 1611 O 149.48 -1.27627 -1.26931 0
M  V30 1612 H 145.855 -0.687966 -0.303656 0
M  V30 1613 H 147.826 -2.96047 -0.373995 0
M  V30 1614 C 146.575 -2.74325 -2.13638 0
M  V30 1615 H 145.898 -3.55418 -1.8308 0
M  V30 1616 H 147.338 -3.183 -2.80109 0
M  V30 1617 C 145.797 -1.70062 -2.90827 0
M  V30 1618 O 146.327 -1.13763 -3.85254 0
M  V30 1619 N 144.533 -1.40628 -2.54307 0
M  V30 1620 H 144.08 -1.866 -1.7759 0
M  V30 1621 H 144.038 -0.711043 -3.06254 0
M  V30 1622 N 147.81 0.181792 -1.56548 0
M  V30 1623 C 148.72 1.24538 -1.98815 0
M  V30 1624 C 149.736 1.49045 -0.897861 0
M  V30 1625 O 150.912 1.61399 -1.20467 0
M  V30 1626 C 147.977 2.56683 -2.33055 0
M  V30 1627 C 147.038 2.40131 -3.55859 0
M  V30 1628 C 146.271 3.65975 -3.88456 0
M  V30 1629 O 146.494 4.70711 -3.22161 0
M  V30 1630 O 145.428 3.6071 -4.81842 0
M  V30 1631 H 149.254 0.916647 -2.89536 0
M  V30 1632 H 146.839 0.387842 -1.44278 0
M  V30 1633 H 148.721 3.34655 -2.56094 0
M  V30 1634 H 147.396 2.89157 -1.45498 0
M  V30 1635 H 146.303 1.60226 -3.38051 0
M  V30 1636 H 147.636 2.12585 -4.43924 0
M  V30 1637 N 149.288 1.51039 0.449983 0
M  V30 1638 C 150.218 1.74379 1.55288 0
M  V30 1639 C 151.199 0.593236 1.5942 0
M  V30 1640 O 152.384 0.834625 1.7535 0
M  V30 1641 C 149.514 1.85728 2.93466 0
M  V30 1642 C 148.468 3.01078 3.04197 0
M  V30 1643 C 147.794 2.97595 4.44231 0
M  V30 1644 C 149.094 4.41254 2.7945 0
M  V30 1645 H 150.788 2.66725 1.36008 0
M  V30 1646 H 148.334 1.2835 0.652864 0
M  V30 1647 H 150.287 2.0064 3.70569 0
M  V30 1648 H 149.011 0.900207 3.13949 0
M  V30 1649 H 147.67 2.85851 2.29531 0
M  V30 1650 H 147.318 1.99691 4.61663 0
M  V30 1651 H 147.018 3.75046 4.52343 0
M  V30 1652 H 148.542 3.14583 5.23326 0
M  V30 1653 H 149.956 4.56897 3.46292 0
M  V30 1654 H 148.353 5.20315 2.98985 0
M  V30 1655 H 149.423 4.52164 1.75144 0
M  V30 1656 N 150.766 -0.704594 1.40972 0
M  V30 1657 C 151.713 -1.81862 1.42109 0
M  V30 1658 C 152.683 -1.63781 0.276593 0
M  V30 1659 O 153.868 -1.84759 0.4763 0
M  V30 1660 C 151.008 -3.19669 1.30022 0
M  V30 1661 C 150.121 -3.49246 2.54267 0
M  V30 1662 C 149.256 -4.76618 2.3454 0
M  V30 1663 C 148.295 -4.99133 3.54306 0
M  V30 1664 N 147.432 -6.17726 3.33706 0
M  V30 1665 H 152.272 -1.80226 2.37324 0
M  V30 1666 H 149.809 -0.880238 1.17857 0
M  V30 1667 H 151.767 -3.99263 1.21018 0
M  V30 1668 H 150.397 -3.20506 0.384192 0
M  V30 1669 H 149.449 -2.64125 2.73756 0
M  V30 1670 H 150.761 -3.61788 3.43381 0
M  V30 1671 H 149.915 -5.64249 2.22952 0
M  V30 1672 H 148.654 -4.66305 1.42867 0
M  V30 1673 H 147.659 -4.09953 3.66359 0
M  V30 1674 H 148.884 -5.11311 4.4692 0
M  V30 1675 H 146.83 -6.08642 2.44725 0
M  V30 1676 H 146.747 -6.30995 4.16391 0
M  V30 1677 H 148.015 -7.08115 3.25873 0
M  V30 1678 N 152.244 -1.26651 -0.937939 0
M  V30 1679 C 153.154 -1.10276 -2.07066 0
M  V30 1680 C 154.17 -0.0354197 -1.73964 0
M  V30 1681 O 155.346 -0.239816 -1.99967 0
M  V30 1682 C 152.411 -0.740887 -3.38691 0
M  V30 1683 C 151.472 -1.88799 -3.85556 0
M  V30 1684 C 150.705 -1.54329 -5.10899 0
M  V30 1685 O 150.928 -0.446494 -5.6865 0
M  V30 1686 O 149.862 -2.37911 -5.52885 0
M  V30 1687 H 153.688 -2.05309 -2.23789 0
M  V30 1688 H 151.273 -1.05743 -1.0554 0
M  V30 1689 H 153.155 -0.55195 -4.1777 0
M  V30 1690 H 151.83 0.180022 -3.23199 0
M  V30 1691 H 150.737 -2.13191 -3.07409 0
M  V30 1692 H 152.07 -2.78874 -4.05574 0
M  V30 1693 N 153.722 1.14298 -1.08507 0
M  V30 1694 C 154.652 2.21542 -0.737646 0
M  V30 1695 C 155.633 1.67773 0.280377 0
M  V30 1696 O 156.818 1.93616 0.150521 0
M  V30 1697 C 153.948 3.46988 -0.147259 0
M  V30 1698 C 152.902 4.13789 -1.09374 0
M  V30 1699 C 152.228 5.33449 -0.365524 0
M  V30 1700 C 153.528 4.62208 -2.4323 0
M  V30 1701 H 155.222 2.5086 -1.6343 0
M  V30 1702 H 152.768 1.20576 -0.787243 0
M  V30 1703 H 154.721 4.21262 0.107808 0
M  V30 1704 H 153.445 3.17037 0.784538 0
M  V30 1705 H 152.104 3.4147 -1.33393 0
M  V30 1706 H 151.752 4.99759 0.57011 0
M  V30 1707 H 151.452 5.79088 -0.996512 0
M  V30 1708 H 152.976 6.10485 -0.118534 0
M  V30 1709 H 154.39 5.27952 -2.23472 0
M  V30 1710 H 152.787 5.18553 -3.02031 0
M  V30 1711 H 153.857 3.77224 -3.04681 0
M  V30 1712 N 155.201 0.870884 1.31352 0
M  V30 1713 C 156.131 0.343096 2.30966 0
M  V30 1714 C 157.112 -0.566507 1.60389 0
M  V30 1715 O 158.297 -0.483336 1.88089 0
M  V30 1716 C 155.427 -0.455487 3.443 0
M  V30 1717 C 154.381 0.361103 4.26474 0
M  V30 1718 C 153.707 -0.563221 5.31725 0
M  V30 1719 C 155.007 1.59566 4.97329 0
M  V30 1720 H 156.701 1.17548 2.75359 0
M  V30 1721 H 154.247 0.566686 1.32381 0
M  V30 1722 H 156.2 -0.83525 4.13039 0
M  V30 1723 H 154.924 -1.32139 2.98675 0
M  V30 1724 H 153.583 0.722825 3.59403 0
M  V30 1725 H 153.231 -1.42643 4.82351 0
M  V30 1726 H 152.931 -0.0207409 5.87596 0
M  V30 1727 H 154.455 -0.939808 6.03324 0
M  V30 1728 H 155.869 1.28728 5.58661 0
M  V30 1729 H 154.266 2.07728 5.63 0
M  V30 1730 H 155.336 2.34798 4.24262 0
M  V30 1731 N 156.679 -1.44442 0.630414 0
M  V30 1732 C 157.904 -2.06927 0.139944 0
M  V30 1733 C 158.329 -1.46795 -1.17613 0
M  V30 1734 O 157.687 -0.569144 -1.72135 0
M  V30 1735 C 157.735 -3.6058 0.0379581 0
M  V30 1736 O 156.839 -3.99937 -1.0062 0
M  V30 1737 H 156.18 -0.658608 0.0844483 0
M  V30 1738 H 158.71 -1.85327 0.866891 0
M  V30 1739 H 158.72 -4.07714 -0.152856 0
M  V30 1740 H 157.395 -4.03728 0.998809 0
M  V30 1741 H 155.972 -3.64436 -0.79001 0
M  V30 1742 N 158.157 -0.370918 -1.53173 0
M  V30 1743 C 159.104 0.473035 -2.259 0
M  V30 1744 C 160.074 1.07311 -1.26781 0
M  V30 1745 O 161.259 1.1046 -1.55574 0
M  V30 1746 C 158.399 1.60405 -3.05556 0
M  V30 1747 C 157.512 1.02863 -4.19575 0
M  V30 1748 C 156.647 2.12918 -4.86661 0
M  V30 1749 C 155.686 1.52869 -5.92704 0
M  V30 1750 N 154.823 2.56779 -6.53459 0
M  V30 1751 H 159.663 -0.153649 -2.97604 0
M  V30 1752 H 157.2 -0.0875946 -1.46839 0
M  V30 1753 H 159.158 2.27034 -3.50016 0
M  V30 1754 H 157.788 2.20131 -2.36097 0
M  V30 1755 H 156.84 0.252465 -3.79561 0
M  V30 1756 H 158.152 0.549642 -4.95762 0
M  V30 1757 H 157.306 2.87356 -5.34333 0
M  V30 1758 H 156.045 2.6417 -4.09958 0
M  V30 1759 H 155.05 0.769479 -5.44389 0
M  V30 1760 H 156.275 1.02435 -6.7133 0
M  V30 1761 H 154.221 3.07235 -5.79606 0
M  V30 1762 H 154.138 2.13583 -7.25202 0
M  V30 1763 H 155.406 3.30903 -7.05779 0
M  V30 1764 N 159.635 1.57281 -0.100228 0
M  V30 1765 C 160.583 2.15542 0.874328 0
M  V30 1766 C 161.577 1.09962 1.28859 0
M  V30 1767 O 162.783 1.28298 1.26252 0
M  V30 1768 H 159.158 0.689567 0.300003 0
M  V30 1769 H 161.129 2.96241 0.35829 0
M  V30 1770 C 159.878 2.75454 2.1218 0
M  V30 1771 H 159.201 3.56384 1.81193 0
M  V30 1772 H 160.641 3.19781 2.78417 0
M  V30 1773 C 159.1 1.71602 2.89921 0
M  V30 1774 O 159.63 1.15804 3.84646 0
M  V30 1775 N 157.836 1.41975 2.53558 0
M  V30 1776 H 157.383 1.87539 1.76598 0
M  V30 1777 H 157.341 0.727274 3.05873 0
M  V30 1778 N 161.113 -0.173488 1.56642 0
M  V30 1779 C 162.043 -1.2171 1.99271 0
M  V30 1780 C 163.024 -1.46289 0.867959 0
M  V30 1781 O 164.209 -1.5766 1.13388 0
M  V30 1782 C 161.339 -2.55651 2.35074 0
M  V30 1783 C 160.293 -2.45645 3.50489 0
M  V30 1784 C 159.619 -3.84056 3.72028 0
M  V30 1785 C 160.919 -1.96302 4.84007 0
M  V30 1786 H 162.613 -0.86275 2.867 0
M  V30 1787 H 160.159 -0.413571 1.37933 0
M  V30 1788 H 162.112 -3.2886 2.63494 0
M  V30 1789 H 160.836 -2.92869 1.44552 0
M  V30 1790 H 159.495 -1.7489 3.22194 0
M  V30 1791 H 159.143 -4.18664 2.788 0
M  V30 1792 H 158.843 -3.7823 4.49684 0
M  V30 1793 H 160.367 -4.58854 4.02846 0
M  V30 1794 H 161.781 -2.59284 5.11317 0
M  V30 1795 H 160.178 -2.01429 5.65284 0
M  V30 1796 H 161.248 -0.917226 4.76146 0
M  V30 1797 N 162.591 -1.51276 -0.441967 0
M  V30 1798 C 163.819 -1.67516 -1.21434 0
M  V30 1799 C 164.234 -0.37055 -1.85128 0
M  V30 1800 O 163.591 0.650498 -1.70513 0
M  V30 1801 C 163.642 -2.78748 -2.30177 0
M  V30 1802 O 163.363 -4.04154 -1.69089 0
M  V30 1803 C 164.864 -3.06217 -3.20541 0
M  V30 1804 H 162.084 -0.562276 -0.366178 0
M  V30 1805 H 164.628 -1.97666 -0.524244 0
M  V30 1806 H 162.783 -2.5121 -2.94911 0
M  V30 1807 H 163.197 -4.65894 -2.40922 0
M  V30 1808 H 164.671 -3.8764 -3.92987 0
M  V30 1809 H 165.148 -2.18439 -3.81026 0
M  V30 1810 H 165.754 -3.35397 -2.61513 0
M  V30 1811 N 164.069 0.697108 -1.41344 0
M  V30 1812 C 165.019 1.80313 -1.39539 0
M  V30 1813 C 166.003 1.58618 -0.270001 0
M  V30 1814 O 167.195 1.69477 -0.510551 0
M  V30 1815 C 164.324 3.18606 -1.27848 0
M  V30 1816 C 163.41 3.46001 -2.45244 0
M  V30 1817 N 163.801 3.44103 -3.70711 0
M  V30 1818 C 162.099 3.76542 -2.39023 0
M  V30 1819 C 162.8 3.7036 -4.48563 0
M  V30 1820 N 161.776 3.90027 -3.78655 0
M  V30 1821 H 165.578 1.77207 -2.34468 0
M  V30 1822 H 163.092 0.897031 -1.35378 0
M  V30 1823 H 165.089 3.97833 -1.24637 0
M  V30 1824 H 163.749 3.22925 -0.339032 0
M  V30 1825 H 164.76 3.2452 -4.03618 0
M  V30 1826 H 161.437 3.88241 -1.53542 0
M  V30 1827 H 162.827 3.75042 -5.57488 0
M  V30 1828 N 165.547 1.27147 0.931209 0
M  V30 1829 C 166.794 1.13278 1.67852 0
M  V30 1830 C 167.122 -0.32204 1.91815 0
M  V30 1831 O 166.377 -1.25224 1.50391 0
M  V30 1832 C 166.676 1.8579 3.05314 0
M  V30 1833 C 166.342 3.35657 3.01073 0
M  V30 1834 C 165.004 3.76536 2.99623 0
M  V30 1835 C 167.356 4.31299 2.92627 0
M  V30 1836 C 164.684 5.11426 2.87506 0
M  V30 1837 C 167.036 5.66242 2.82051 0
M  V30 1838 C 165.7 6.06418 2.7895 0
M  V30 1839 H 164.97 0.414515 0.614214 0
M  V30 1840 H 167.617 1.57712 1.08624 0
M  V30 1841 H 165.922 1.33854 3.68226 0
M  V30 1842 H 167.619 1.72491 3.62005 0
M  V30 1843 H 164.209 3.03146 3.02986 0
M  V30 1844 H 168.393 4.00692 2.92848 0
M  V30 1845 H 163.649 5.41705 2.83489 0
M  V30 1846 H 167.823 6.40026 2.74481 0
M  V30 1847 H 165.45 7.10895 2.69318 0
M  V30 1848 N 167.025 -1.13721 1.09112 0
M  V30 1849 C 168.272 -1.84924 0.825192 0
M  V30 1850 C 168.6 -1.83347 -0.649151 0
M  V30 1851 O 167.855 -1.26449 -1.49362 0
M  V30 1852 C 168.154 -3.32861 1.30146 0
M  V30 1853 C 167.82 -3.54621 2.78486 0
M  V30 1854 C 166.482 -3.60268 3.18999 0
M  V30 1855 C 168.834 -3.62855 3.74146 0
M  V30 1856 C 166.162 -3.71679 4.53951 0
M  V30 1857 C 168.514 -3.75793 5.08883 0
M  V30 1858 C 167.178 -3.79692 5.4899 0
M  V30 1859 H 166.448 -0.676684 0.301959 0
M  V30 1860 H 169.095 -1.3428 1.36533 0
M  V30 1861 H 167.4 -3.85835 0.681064 0
M  V30 1862 H 169.097 -3.86395 1.07236 0
M  V30 1863 H 165.687 -3.50879 2.46134 0
M  V30 1864 H 169.871 -3.57775 3.43963 0
M  V30 1865 H 165.127 -3.72963 4.84467 0
M  V30 1866 H 169.301 -3.81107 5.82864 0
M  V30 1867 H 166.928 -3.88287 6.53558 0
M  V30 1868 N 168.503 -0.877838 -1.30888 0
M  V30 1869 C 169.733 -0.506678 -2.00291 0
M  V30 1870 C 170.141 0.907449 -1.66018 0
M  V30 1871 O 169.484 1.60719 -0.88967 0
M  V30 1872 C 169.546 -0.59323 -3.54572 0
M  V30 1873 C 169.21 -1.97038 -4.12341 0
M  V30 1874 C 170.207 -2.93889 -4.28865 0
M  V30 1875 C 167.892 -2.27383 -4.47886 0
M  V30 1876 C 169.886 -4.19224 -4.80136 0
M  V30 1877 C 167.573 -3.52965 -4.98857 0
M  V30 1878 C 168.571 -4.48701 -5.14934 0
M  V30 1879 O 168.259 -5.72056 -5.64808 0
M  V30 1880 H 167.991 -0.1951 -0.647234 0
M  V30 1881 H 170.545 -1.18301 -1.6791 0
M  V30 1882 H 168.775 0.140057 -3.86446 0
M  V30 1883 H 170.464 -0.234372 -4.05223 0
M  V30 1884 H 171.23 -2.71756 -4.01714 0
M  V30 1885 H 167.109 -1.53639 -4.34645 0
M  V30 1886 H 170.653 -4.93956 -4.92599 0
M  V30 1887 H 166.55 -3.74939 -5.25443 0
M  V30 1888 H 167.318 -5.74337 -5.83163 0
M  V30 1889 N 169.982 1.44106 -0.638065 0
M  V30 1890 C 171.228 2.02277 -0.145546 0
M  V30 1891 C 171.561 1.50125 1.23191 0
M  V30 1892 O 170.836 0.688133 1.8192 0
M  V30 1893 C 171.119 3.59829 -0.139791 0
M  V30 1894 C 170.972 4.22247 -1.55008 0
M  V30 1895 C 172.291 4.36873 0.531966 0
M  V30 1896 H 169.41 0.734992 -0.0543632 0
M  V30 1897 H 172.052 1.71592 -0.815863 0
M  V30 1898 H 170.202 3.86102 0.431007 0
M  V30 1899 H 171.874 4.07057 -2.1703 0
M  V30 1900 H 170.117 3.79476 -2.10191 0
M  V30 1901 H 170.788 5.31284 -1.49804 0
M  V30 1902 H 173.264 4.16074 0.0464781 0
M  V30 1903 H 172.14 5.4657 0.505206 0
M  V30 1904 H 172.401 4.11995 1.60352 0
M  V30 1905 N 171.46 0.379036 1.52974 0
M  V30 1906 C 172.707 -0.206421 2.01445 0
M  V30 1907 C 173.035 -1.47668 1.26587 0
M  V30 1908 O 172.29 -1.92514 0.351675 0
M  V30 1909 C 172.589 -0.53096 3.53434 0
M  V30 1910 C 172.255 0.646546 4.46241 0
M  V30 1911 C 170.917 0.969604 4.7133 0
M  V30 1912 C 173.269 1.43479 5.01062 0
M  V30 1913 C 170.597 2.08263 5.48492 0
M  V30 1914 C 172.949 2.53834 5.7944 0
M  V30 1915 C 171.613 2.86659 6.02812 0
M  V30 1916 H 170.883 -0.0755349 0.73714 0
M  V30 1917 H 173.53 0.514271 1.84465 0
M  V30 1918 H 171.835 -1.33285 3.68432 0
M  V30 1919 H 173.532 -0.996417 3.88423 0
M  V30 1920 H 170.122 0.384734 4.2687 0
M  V30 1921 H 174.306 1.19844 4.81613 0
M  V30 1922 H 169.562 2.34078 5.64816 0
M  V30 1923 H 173.736 3.15319 6.20924 0
M  V30 1924 H 171.363 3.73026 6.62387 0
M  V30 1925 N 172.938 -1.57226 0.108567 0
M  V30 1926 C 173.87 -2.11809 -0.875752 0
M  V30 1927 C 174.883 -1.05839 -1.23701 0
M  V30 1928 O 176.072 -1.33245 -1.18778 0
M  V30 1929 C 173.172 -2.59411 -2.18081 0
M  V30 1930 C 172.345 -3.89364 -1.99284 0
M  V30 1931 C 171.404 -4.22672 -3.13424 0
M  V30 1932 O 170.43 -4.91668 -2.86795 0
M  V30 1933 N 171.632 -3.79154 -4.3957 0
M  V30 1934 H 174.397 -2.9689 -0.409477 0
M  V30 1935 H 171.958 -1.61721 -0.076158 0
M  V30 1936 H 173.95 -2.7873 -2.93414 0
M  V30 1937 H 172.52 -1.79268 -2.5609 0
M  V30 1938 H 171.74 -3.79059 -1.08203 0
M  V30 1939 H 173.028 -4.74358 -1.84017 0
M  V30 1940 H 172.426 -3.23486 -4.64083 0
M  V30 1941 H 170.983 -4.03602 -5.11809 0
M  V30 1942 N 174.416 0.165178 -1.56732 0
M  V30 1943 C 175.644 0.896218 -1.86482 0
M  V30 1944 C 176.059 1.75555 -0.694675 0
M  V30 1945 O 175.416 1.79379 0.33607 0
M  V30 1946 C 175.467 1.76792 -3.1532 0
M  V30 1947 O 175.188 0.943239 -4.27825 0
M  V30 1948 C 176.689 2.6081 -3.58459 0
M  V30 1949 H 173.909 0.260064 -0.618553 0
M  V30 1950 H 176.453 0.163428 -2.03846 0
M  V30 1951 H 174.608 2.45398 -2.99764 0
M  V30 1952 H 175.022 1.53998 -5.01383 0
M  V30 1953 H 176.496 3.17579 -4.51495 0
M  V30 1954 H 176.973 3.35977 -2.82872 0
M  V30 1955 H 177.579 1.97526 -3.76648 0
M  V30 1956 N 175.894 1.51508 0.433938 0
M  V30 1957 C 176.824 1.76016 1.53429 0
M  V30 1958 C 177.805 0.610112 1.58782 0
M  V30 1959 O 178.99 0.853177 1.74455 0
M  V30 1960 C 176.12 1.88831 2.9148 0
M  V30 1961 C 175.074 3.04288 3.00987 0
M  V30 1962 C 174.4 3.0229 4.4105 0
M  V30 1963 C 175.7 4.44193 2.74754 0
M  V30 1964 H 177.394 2.68152 1.33171 0
M  V30 1965 H 174.94 1.29035 0.639214 0
M  V30 1966 H 176.893 2.04559 3.6842 0
M  V30 1967 H 175.617 0.933455 3.12976 0
M  V30 1968 H 174.276 2.8827 2.26486 0
M  V30 1969 H 173.924 2.04576 4.59519 0
M  V30 1970 H 173.624 3.79822 4.4834 0
M  V30 1971 H 175.148 3.20116 5.1996 0
M  V30 1972 H 176.562 4.60544 3.41426 0
M  V30 1973 H 174.959 5.23457 2.9345 0
M  V30 1974 H 176.029 4.53996 1.70339 0
M  V30 1975 N 177.372 -0.689602 1.41712 0
M  V30 1976 C 178.304 -1.815 1.39966 0
M  V30 1977 C 179.317 -1.59995 0.300917 0
M  V30 1978 O 180.506 -1.69387 0.563039 0
M  V30 1979 C 177.606 -3.18364 1.16179 0
M  V30 1980 C 176.779 -3.66847 2.38206 0
M  V30 1981 C 175.838 -4.82398 2.10186 0
M  V30 1982 O 174.864 -4.93706 2.83272 0
M  V30 1983 N 176.066 -5.70064 1.0958 0
M  V30 1984 H 178.831 -1.83488 2.36965 0
M  V30 1985 H 176.392 -0.872149 1.36401 0
M  V30 1986 H 178.384 -3.93301 0.953756 0
M  V30 1987 H 176.954 -3.11365 0.27756 0
M  V30 1988 H 176.174 -2.82751 2.74673 0
M  V30 1989 H 177.462 -3.95978 3.19498 0
M  V30 1990 H 176.86 -5.63565 0.491019 0
M  V30 1991 H 175.417 -6.44874 0.947656 0
M  V30 1992 N 178.85 -1.27639 -0.924453 0
M  V30 1993 C 179.797 -1.10644 -2.0255 0
M  V30 1994 C 180.767 -0.00658438 -1.66099 0
M  V30 1995 O 181.952 -0.16952 -1.90045 0
M  V30 1996 C 179.092 -0.76309 -3.36557 0
M  V30 1997 C 178.205 -1.94091 -3.85944 0
M  V30 1998 C 177.34 -1.53914 -5.08413 0
M  V30 1999 C 176.379 -2.68425 -5.50104 0
M  V30 2000 N 175.516 -2.28815 -6.63768 0
M  V30 2001 H 180.356 -2.04858 -2.16419 0
M  V30 2002 H 177.893 -1.01974 -1.06017 0
M  V30 2003 H 179.851 -0.544822 -4.13627 0
M  V30 2004 H 178.481 0.142102 -3.22487 0
M  V30 2005 H 177.533 -2.27162 -3.05125 0
M  V30 2006 H 178.845 -2.7998 -4.12811 0
M  V30 2007 H 177.999 -1.28231 -5.92994 0
M  V30 2008 H 176.738 -0.651391 -4.8333 0
M  V30 2009 H 175.743 -2.94819 -4.64071 0
M  V30 2010 H 176.968 -3.57826 -5.7718 0
M  V30 2011 H 174.914 -1.42495 -6.40337 0
M  V30 2012 H 174.831 -3.08242 -6.90306 0
M  V30 2013 H 176.099 -2.06387 -7.51681 0
M  V30 2014 N 180.328 1.1314 -1.09713 0
M  V30 2015 C 181.26 2.18343 -0.697056 0
M  V30 2016 C 182.273 1.60669 0.262551 0
M  V30 2017 O 183.462 1.78435 0.0481527 0
M  V30 2018 C 180.562 3.38899 -0.00684728 0
M  V30 2019 C 179.735 4.26078 -0.988741 0
M  V30 2020 C 178.794 5.25155 -0.331394 0
M  V30 2021 O 177.82 5.60701 -0.979926 0
M  V30 2022 N 179.022 5.73271 0.913261 0
M  V30 2023 H 181.787 2.5328 -1.60216 0
M  V30 2024 H 179.348 1.28491 -0.984971 0
M  V30 2025 H 181.34 4.02255 0.444191 0
M  V30 2026 H 179.91 3.02175 0.800551 0
M  V30 2027 H 179.13 3.59453 -1.61826 0
M  V30 2028 H 180.418 4.81178 -1.65364 0
M  V30 2029 H 179.816 5.46544 1.45966 0
M  V30 2030 H 178.373 6.3855 1.30757 0
M  V30 2031 N 181.806 0.884767 1.30421 0
M  V30 2032 C 183.052 0.503851 1.96441 0
M  V30 2033 C 183.385 -0.944518 1.69684 0
M  V30 2034 O 182.66 -1.66737 1.00145 0
M  V30 2035 C 182.943 0.779085 3.51571 0
M  V30 2036 C 182.796 2.27807 3.87846 0
M  V30 2037 C 184.115 0.255452 4.39358 0
M  V30 2038 H 181.234 0.184533 0.713524 0
M  V30 2039 H 183.876 1.10872 1.54297 0
M  V30 2040 H 182.026 0.264274 3.876 0
M  V30 2041 H 183.698 2.86127 3.61841 0
M  V30 2042 H 181.941 2.74479 3.35922 0
M  V30 2043 H 182.612 2.42125 4.96064 0
M  V30 2044 H 185.088 0.696079 4.10236 0
M  V30 2045 H 183.964 0.477361 5.4682 0
M  V30 2046 H 184.225 -0.843293 4.33983 0
M  V30 2047 N 183.284 -1.43765 0.645699 0
M  V30 2048 C 184.509 -2.06767 0.161883 0
M  V30 2049 C 184.934 -1.48034 -1.16049 0
M  V30 2050 O 184.292 -0.587369 -1.71522 0
M  V30 2051 C 184.34 -3.60519 0.0762003 0
M  V30 2052 O 183.444 -4.00982 -0.963721 0
M  V30 2053 H 182.785 -0.657675 0.091429 0
M  V30 2054 H 185.315 -1.84397 0.886499 0
M  V30 2055 H 185.325 -4.07853 -0.109604 0
M  V30 2056 H 184 -4.02646 1.04157 0
M  V30 2057 H 182.577 -3.65253 -0.751312 0
M  V30 2058 N 184.763 -0.387143 -1.52771 0
M  V30 2059 C 185.993 0.195585 -2.05672 0
M  V30 2060 C 186.401 1.41241 -1.25887 0
M  V30 2061 O 185.744 1.81265 -0.298081 0
M  V30 2062 C 185.806 0.632327 -3.53895 0
M  V30 2063 C 185.47 -0.470739 -4.54569 0
M  V30 2064 C 186.467 -1.32746 -5.02667 0
M  V30 2065 C 184.152 -0.637151 -4.98243 0
M  V30 2066 C 186.146 -2.33574 -5.93061 0
M  V30 2067 C 183.833 -1.64877 -5.88438 0
M  V30 2068 C 184.831 -2.49649 -6.35739 0
M  V30 2069 O 184.519 -3.49082 -7.24153 0
M  V30 2070 H 184.251 0.033658 -0.675162 0
M  V30 2071 H 186.805 -0.550221 -1.97893 0
M  V30 2072 H 185.035 1.43008 -3.59285 0
M  V30 2073 H 186.724 1.14048 -3.89548 0
M  V30 2074 H 187.49 -1.21019 -4.69659 0
M  V30 2075 H 183.369 0.0129567 -4.60998 0
M  V30 2076 H 186.913 -2.99777 -6.29904 0
M  V30 2077 H 182.81 -1.76643 -6.2086 0
M  V30 2078 H 183.578 -3.45065 -7.42208 0
M  V30 2079 N 186.241 1.57166 -0.116904 0
M  V30 2080 C 187.466 1.999 0.55271 0
M  V30 2081 C 187.891 0.996039 1.59564 0
M  V30 2082 O 187.249 -0.032556 1.81271 0
M  V30 2083 C 187.297 3.4152 1.15742 0
M  V30 2084 O 186.401 3.44106 2.27299 0
M  V30 2085 H 185.742 0.649447 0.138258 0
M  V30 2086 H 188.272 2.03573 -0.204759 0
M  V30 2087 H 188.282 3.79684 1.49346 0
M  V30 2088 H 186.957 4.14034 0.393493 0
M  V30 2089 H 185.534 3.17759 1.9515 0
M  V30 2090 N 187.719 -0.156864 1.56817 0
M  V30 2091 C 188.649 -1.19589 2.00551 0
M  V30 2092 C 189.63 -1.4536 0.883426 0
M  V30 2093 O 190.815 -1.56449 1.15054 0
M  V30 2094 C 187.945 -2.53143 2.37773 0
M  V30 2095 C 186.899 -2.41913 3.53075 0
M  V30 2096 C 186.225 -3.80088 3.76081 0
M  V30 2097 C 187.525 -1.91157 4.86062 0
M  V30 2098 H 189.219 -0.832293 2.87599 0
M  V30 2099 H 186.765 -0.398918 1.38364 0
M  V30 2100 H 188.718 -3.26047 2.66967 0
M  V30 2101 H 187.442 -2.91319 1.4765 0
M  V30 2102 H 186.101 -1.71462 3.24031 0
M  V30 2103 H 185.749 -4.15683 2.83225 0
M  V30 2104 H 185.449 -3.73439 4.53671 0
M  V30 2105 H 186.973 -4.54556 4.0769 0
M  V30 2106 H 188.387 -2.53846 5.14038 0
M  V30 2107 H 186.784 -1.95422 5.67389 0
M  V30 2108 H 187.854 -0.866673 4.77092 0
M  V30 2109 N 189.197 -1.51736 -0.425897 0
M  V30 2110 C 190.16 -1.73271 -1.50032 0
M  V30 2111 C 191.16 -0.602639 -1.4908 0
M  V30 2112 O 192.35 -0.87033 -1.509 0
M  V30 2113 C 189.482 -1.79969 -2.89523 0
M  V30 2114 H 190.675 -2.69172 -1.32237 0
M  V30 2115 H 188.228 -1.41899 -0.65532 0
M  V30 2116 H 188.963 -0.859241 -3.1271 0
M  V30 2117 H 188.748 -2.62109 -2.91619 0
M  V30 2118 H 190.238 -1.9843 -3.67444 0
M  V30 2119 N 190.675 0.682077 -1.42076 0
M  V30 2120 C 191.622 1.79578 -1.44984 0
M  V30 2121 C 192.592 1.6332 -0.302614 0
M  V30 2122 O 193.777 1.83978 -0.505633 0
M  V30 2123 C 190.917 3.1756 -1.35091 0
M  V30 2124 C 190.03 3.45156 -2.59791 0
M  V30 2125 C 189.165 4.72826 -2.42093 0
M  V30 2126 C 188.204 4.93433 -3.62202 0
M  V30 2127 N 187.341 6.12338 -3.43491 0
M  V30 2128 H 192.181 1.76427 -2.40161 0
M  V30 2129 H 189.718 0.861376 -1.19242 0
M  V30 2130 H 191.676 3.97287 -1.27354 0
M  V30 2131 H 190.306 3.19854 -0.435133 0
M  V30 2132 H 189.358 2.59736 -2.77923 0
M  V30 2133 H 190.67 3.5628 -3.49094 0
M  V30 2134 H 189.824 5.60631 -2.319 0
M  V30 2135 H 188.563 4.63973 -1.50268 0
M  V30 2136 H 187.568 4.04073 -3.72834 0
M  V30 2137 H 188.793 5.04136 -4.54998 0
M  V30 2138 H 186.739 6.04672 -2.54377 0
M  V30 2139 H 186.656 6.2429 -4.26377 0
M  V30 2140 H 187.924 7.02841 -3.37097 0
M  V30 2141 N 192.153 1.28127 0.917671 0
M  V30 2142 C 193.4 1.15052 1.66641 0
M  V30 2143 C 193.728 -0.301677 1.92146 0
M  V30 2144 O 192.983 -1.23622 1.51711 0
M  V30 2145 C 193.282 1.89018 3.03327 0
M  V30 2146 C 192.948 3.38832 2.97496 0
M  V30 2147 C 191.61 3.79693 2.95613 0
M  V30 2148 C 193.962 4.34378 2.88036 0
M  V30 2149 C 191.29 5.14447 2.82066 0
M  V30 2150 C 193.642 5.69201 2.7603 0
M  V30 2151 C 192.306 6.09343 2.72502 0
M  V30 2152 H 191.576 0.421006 0.609783 0
M  V30 2153 H 194.223 1.58855 1.06945 0
M  V30 2154 H 192.528 1.37752 3.66785 0
M  V30 2155 H 194.225 1.76321 3.60156 0
M  V30 2156 H 190.815 3.06342 2.99754 0
M  V30 2157 H 194.999 4.03775 2.88581 0
M  V30 2158 H 190.255 5.44681 2.77728 0
M  V30 2159 H 194.429 6.42901 2.67678 0
M  V30 2160 H 192.056 7.13712 2.61762 0
M  V30 2161 N 193.631 -1.12557 1.10312 0
M  V30 2162 C 194.579 -2.20325 0.745629 0
M  V30 2163 C 195.573 -1.67429 -0.25763 0
M  V30 2164 O 196.779 -1.79612 -0.118132 0
M  V30 2165 H 193.154 -0.718118 0.223182 0
M  V30 2166 H 195.125 -2.47733 1.66346 0
M  V30 2167 C 193.874 -3.47168 0.192262 0
M  V30 2168 H 193.197 -3.88215 0.955475 0
M  V30 2169 H 194.637 -4.23995 -0.0198274 0
M  V30 2170 C 193.096 -3.19298 -1.07472 0
M  V30 2171 O 193.626 -3.3891 -2.15645 0
M  V30 2172 N 191.832 -2.73113 -0.992847 0
M  V30 2173 H 191.379 -2.57354 -0.112474 0
M  V30 2174 H 191.337 -2.54842 -1.84127 0
M  V30 2175 N 195.109 -0.891671 -1.2995 0
M  V30 2176 C 196.386 -0.433307 -1.9074 0
M  V30 2177 C 196.766 1.08646 -1.80995 0
M  V30 2178 O 196.114 1.92476 -1.23147 0
M  V30 2179 C 196.324 -0.938895 -3.36134 0
M  V30 2180 C 197.672 -0.977829 -4.13187 0
M  V30 2181 O 198.696 -0.886015 -3.45005 0
M  V30 2182 O 197.555 -1.11453 -5.35015 0
M  V30 2183 H 194.649 -0.133699 -0.816121 0
M  V30 2184 H 197.195 -0.981011 -1.38471 0
M  V30 2185 H 195.967 -1.98281 -3.37343 0
M  V30 2186 H 195.59 -0.37074 -3.95868 0
M  V30 2187 N 196.587 1.43421 -0.653314 0
M  V30 2188 C 197.834 2.01812 -0.166745 0
M  V30 2189 C 198.162 1.51535 1.21931 0
M  V30 2190 O 197.417 0.698975 1.82792 0
M  V30 2191 C 197.716 3.57176 -0.126623 0
M  V30 2192 C 197.382 4.26798 -1.45444 0
M  V30 2193 C 196.044 4.45534 -1.81805 0
M  V30 2194 C 198.396 4.66225 -2.32989 0
M  V30 2195 C 195.724 5.00961 -3.05377 0
M  V30 2196 C 198.076 5.23021 -3.55853 0
M  V30 2197 C 196.74 5.39973 -3.9241 0
M  V30 2198 H 196.01 0.738484 -0.0610162 0
M  V30 2199 H 198.657 1.71896 -0.84404 0
M  V30 2200 H 196.962 3.86634 0.634123 0
M  V30 2201 H 198.659 4.00112 0.266723 0
M  V30 2202 H 195.249 4.12561 -1.16153 0
M  V30 2203 H 199.433 4.51443 -2.06187 0
M  V30 2204 H 194.689 5.12271 -3.3375 0
M  V30 2205 H 198.863 5.52518 -4.23907 0
M  V30 2206 H 196.49 5.82687 -4.88242 0
M  V30 2207 N 198.065 0.39524 1.52563 0
M  V30 2208 C 199.29 -0.187456 2.06551 0
M  V30 2209 C 199.715 -1.39249 1.26457 0
M  V30 2210 O 199.073 -1.78947 0.291151 0
M  V30 2211 C 199.121 -0.529985 3.56684 0
M  V30 2212 O 198.225 -1.62307 3.79118 0
M  V30 2213 H 197.566 -0.0202537 0.663691 0
M  V30 2214 H 200.096 0.564426 1.96661 0
M  V30 2215 H 200.106 -0.792598 4.00227 0
M  V30 2216 H 198.781 0.350987 4.14416 0
M  V30 2217 H 197.358 -1.3537 3.47461 0
M  V30 2218 N 199.544 -1.57102 0.125237 0
M  V30 2219 C 200.793 -1.94582 -0.531095 0
M  V30 2220 C 201.106 -1.01126 -1.6743 0
M  V30 2221 O 202.312 -1.28097 -2.39381 0
M  V30 2222 C 200.768 -3.45839 -0.996164 0
M  V30 2223 C 200.376 -4.47842 0.118926 0
M  V30 2224 C 202.12 -3.92227 -1.62352 0
M  V30 2225 C 200.027 -5.90284 -0.363192 0
M  V30 2226 H 198.957 -0.726391 -0.20217 0
M  V30 2227 H 201.608 -1.82339 0.206092 0
M  V30 2228 H 199.99 -3.53338 -1.78796 0
M  V30 2229 H 201.164 -4.52018 0.895358 0
M  V30 2230 H 199.479 -4.11243 0.653324 0
M  V30 2231 H 202.076 -4.96069 -1.99548 0
M  V30 2232 H 202.419 -3.32552 -2.50429 0
M  V30 2233 H 202.952 -3.87554 -0.897019 0
M  V30 2234 H 199.691 -6.53728 0.481679 0
M  V30 2235 H 199.211 -5.89515 -1.10597 0
M  V30 2236 H 200.89 -6.41752 -0.822377 0
M  V30 2237 N 201.022 0.148545 -1.56898 0
M  V30 2238 C 201.97 1.20265 -1.99096 0
M  V30 2239 C 202.964 1.44559 -0.883123 0
M  V30 2240 O 204.17 1.4487 -1.0683 0
M  V30 2241 H 200.545 0.404786 -0.63376 0
M  V30 2242 H 202.516 0.82004 -2.86911 0
M  V30 2243 C 201.265 2.52886 -2.3863 0
M  V30 2244 H 200.588 2.35021 -3.23427 0
M  V30 2245 H 202.028 3.25274 -2.7198 0
M  V30 2246 C 200.487 3.13315 -1.23837 0
M  V30 2247 O 201.017 3.98077 -0.538268 0
M  V30 2248 N 199.223 2.72742 -1.00301 0
M  V30 2249 H 198.77 2.03912 -1.5741 0
M  V30 2250 H 198.728 3.13507 -0.236838 0
M  V30 2251 N 202.5 1.5196 0.417844 0
M  V30 2252 C 203.748 1.65263 1.16329 0
M  V30 2253 C 204.069 0.380634 1.91249 0
M  V30 2254 O 203.339 -0.604214 1.86349 0
M  V30 2255 H 201.919 0.60912 0.432414 0
M  V30 2256 H 204.581 1.88969 0.477162 0
M  V30 2257 H 203.677 2.4896 1.88217 0
M  V30 2258 N 203.978 -0.674533 1.42435 0
M  V30 2259 C 204.925 -1.78807 1.45934 0
M  V30 2260 C 205.895 -1.63157 0.311271 0
M  V30 2261 O 207.08 -1.83707 0.515383 0
M  V30 2262 C 204.22 -3.16839 1.36773 0
M  V30 2263 C 203.333 -3.43774 2.61617 0
M  V30 2264 C 202.468 -4.71536 2.44597 0
M  V30 2265 C 201.507 -4.91505 3.64814 0
M  V30 2266 N 200.644 -6.10508 3.46734 0
M  V30 2267 H 205.484 -1.75151 2.41093 0
M  V30 2268 H 203.021 -0.85504 1.19697 0
M  V30 2269 H 204.979 -3.96606 1.29459 0
M  V30 2270 H 203.609 -3.19619 0.452089 0
M  V30 2271 H 202.661 -2.58259 2.79297 0
M  V30 2272 H 203.973 -3.54423 3.50978 0
M  V30 2273 H 203.127 -5.59393 2.3487 0
M  V30 2274 H 201.866 -4.6317 1.52726 0
M  V30 2275 H 200.871 -4.0209 3.74972 0
M  V30 2276 H 202.096 -5.01716 4.57665 0
M  V30 2277 H 200.042 -6.03315 2.5758 0
M  V30 2278 H 199.959 -6.2202 4.29682 0
M  V30 2279 H 201.227 -7.01044 3.40819 0
M  V30 2280 N 205.456 -1.28612 -0.910864 0
M  V30 2281 C 206.386 -1.15326 -2.03032 0
M  V30 2282 C 207.367 -0.0502924 -1.70026 0
M  V30 2283 O 208.552 -0.227797 -1.92859 0
M  V30 2284 C 205.682 -0.817343 -3.37545 0
M  V30 2285 C 204.636 -1.8754 -3.84724 0
M  V30 2286 C 203.962 -1.39305 -5.16235 0
M  V30 2287 C 205.262 -3.28244 -4.06267 0
M  V30 2288 H 206.956 -2.08975 -2.14406 0
M  V30 2289 H 204.502 -1.00612 -1.03021 0
M  V30 2290 H 206.455 -0.711151 -4.15356 0
M  V30 2291 H 205.179 0.154846 -3.26233 0
M  V30 2292 H 203.838 -1.97079 -3.09121 0
M  V30 2293 H 203.486 -0.409846 -5.01328 0
M  V30 2294 H 203.186 -2.10057 -5.48771 0
M  V30 2295 H 204.71 -1.30014 -5.96598 0
M  V30 2296 H 206.124 -3.21611 -4.74594 0
M  V30 2297 H 204.521 -3.96855 -4.5014 0
M  V30 2298 H 205.591 -3.72048 -3.10979 0
M  V30 2299 N 206.934 1.1197 -1.10907 0
M  V30 2300 C 208.182 1.83225 -0.852819 0
M  V30 2301 C 208.503 1.84769 0.623341 0
M  V30 2302 O 207.773 1.3143 1.45269 0
M  V30 2303 H 206.353 0.67849 -0.312507 0
M  V30 2304 H 209.015 1.3556 -1.40033 0
M  V30 2305 H 208.111 2.87265 -1.22005 0
M  V30 2306 N 208.412 0.89855 1.29475 0
M  V30 2307 C 209.637 0.538561 2.00285 0
M  V30 2308 C 210.062 -0.869135 1.66816 0
M  V30 2309 O 209.42 -1.57831 0.892145 0
M  V30 2310 C 209.468 0.736475 3.52999 0
M  V30 2311 O 208.572 -0.211537 4.11857 0
M  V30 2312 H 207.913 0.210563 0.62973 0
M  V30 2313 H 210.443 1.20982 1.64998 0
M  V30 2314 H 210.453 0.640685 4.02938 0
M  V30 2315 H 209.128 1.76276 3.76696 0
M  V30 2316 H 207.705 -0.0682991 3.72837 0
M  V30 2317 N 209.89 -1.43072 0.660911 0
M  V30 2318 C 211.139 -2.00942 0.174735 0
M  V30 2319 C 211.452 -1.52797 -1.22117 0
M  V30 2320 O 212.658 -2.02991 -1.80297 0
M  V30 2321 C 211.114 -3.58948 0.261559 0
M  V30 2322 C 210.722 -4.16085 1.66064 0
M  V30 2323 C 212.466 -4.24173 -0.166617 0
M  V30 2324 C 210.373 -5.6641 1.70098 0
M  V30 2325 H 209.303 -0.751483 0.0615631 0
M  V30 2326 H 211.954 -1.63955 0.824069 0
M  V30 2327 H 210.336 -3.93372 -0.455421 0
M  V30 2328 H 211.51 -3.93147 2.40359 0
M  V30 2329 H 209.825 -3.6326 2.03546 0
M  V30 2330 H 212.422 -5.34471 -0.156433 0
M  V30 2331 H 212.765 -3.98647 -1.19943 0
M  V30 2332 H 213.298 -3.94659 0.498875 0
M  V30 2333 H 210.037 -5.96715 2.71315 0
M  V30 2334 H 209.557 -5.91382 1.00139 0
M  V30 2335 H 211.236 -6.30585 1.44816 0
M  V30 2336 N 211.368 -0.403325 -1.52352 0
M  V30 2337 C 212.608 0.173946 -2.03659 0
M  V30 2338 C 212.972 1.42869 -1.28267 0
M  V30 2339 O 214.173 2.08403 -1.69769 0
M  V30 2340 C 212.444 0.421478 -3.54906 0
M  V30 2341 S 214.003 0.967027 -4.28012 0
M  V30 2342 H 210.821 0.0477461 -0.709395 0
M  V30 2343 H 213.423 -0.554906 -1.87459 0
M  V30 2344 H 212.127 -0.498616 -4.0736 0
M  V30 2345 H 211.658 1.17837 -3.75337 0
M  V30 2346 H 213.673 2.24812 -4.4235 0
M  V30 2347 N 212.846 1.57033 -0.133567 0
M  V30 2348 C 214.094 1.953 0.519848 0
M  V30 2349 C 214.415 1.01866 1.66278 0
M  V30 2350 O 213.685 0.0776513 1.95746 0
M  V30 2351 H 212.265 0.721091 0.195032 0
M  V30 2352 H 214.927 1.93809 -0.205921 0
M  V30 2353 H 214.023 2.98695 0.904854 0
M  V30 2354 N 214.325 -0.140222 1.56975 0
M  V30 2355 C 215.257 -1.19818 1.95388 0
M  V30 2356 C 216.27 -1.38816 0.850525 0
M  V30 2357 O 217.459 -1.38267 1.12891 0
M  V30 2358 C 214.559 -2.56189 2.21857 0
M  V30 2359 C 213.732 -2.58077 3.5315 0
M  V30 2360 C 212.791 -3.76037 3.6808 0
M  V30 2361 O 211.817 -3.60598 4.40406 0
M  V30 2362 N 213.019 -4.93763 3.05251 0
M  V30 2363 H 215.784 -0.871609 2.86746 0
M  V30 2364 H 213.345 -0.32972 1.58507 0
M  V30 2365 H 215.337 -3.33623 2.2908 0
M  V30 2366 H 213.907 -2.81111 1.36731 0
M  V30 2367 H 213.127 -1.6651 3.57307 0
M  V30 2368 H 214.415 -2.56377 4.39486 0
M  V30 2369 H 213.813 -5.09209 2.46419 0
M  V30 2370 H 212.37 -5.68949 3.18026 0
M  V30 2371 N 215.803 -1.52179 -0.40978 0
M  V30 2372 C 216.733 -1.78435 -1.5061 0
M  V30 2373 C 217.714 -0.635295 -1.57791 0
M  V30 2374 O 218.899 -0.880823 -1.73076 0
M  V30 2375 C 216.029 -1.93444 -2.88439 0
M  V30 2376 C 214.983 -3.09038 -2.96108 0
M  V30 2377 C 214.309 -3.09268 -4.36185 0
M  V30 2378 C 215.609 -4.48508 -2.67652 0
M  V30 2379 H 217.303 -2.70237 -1.28889 0
M  V30 2380 H 214.849 -1.30036 -0.618605 0
M  V30 2381 H 216.802 -2.10394 -3.65119 0
M  V30 2382 H 215.526 -0.983129 -3.11452 0
M  V30 2383 H 214.185 -2.91837 -2.21872 0
M  V30 2384 H 213.833 -2.11861 -4.56206 0
M  V30 2385 H 213.533 -3.86907 -4.42241 0
M  V30 2386 H 215.057 -3.28348 -5.14801 0
M  V30 2387 H 216.471 -4.65918 -3.34056 0
M  V30 2388 H 214.868 -5.28059 -2.85085 0
M  V30 2389 H 215.938 -4.56649 -1.63095 0
M  V30 2390 N 217.281 0.66697 -1.42791 0
M  V30 2391 C 218.211 1.79218 -1.49677 0
M  V30 2392 C 219.192 1.66405 -0.352623 0
M  V30 2393 O 220.377 1.85708 -0.567993 0
M  V30 2394 C 217.507 3.17565 -1.40605 0
M  V30 2395 C 216.461 3.45124 -2.53127 0
M  V30 2396 C 215.787 4.83127 -2.29112 0
M  V30 2397 C 217.087 3.41236 -3.95418 0
M  V30 2398 H 218.781 1.73713 -2.43853 0
M  V30 2399 H 216.327 0.83432 -1.17367 0
M  V30 2400 H 218.28 3.96022 -1.44029 0
M  V30 2401 H 217.004 3.23767 -0.429271 0
M  V30 2402 H 215.663 2.69031 -2.49034 0
M  V30 2403 H 215.311 4.85988 -1.29709 0
M  V30 2404 H 215.011 5.02528 -3.04531 0
M  V30 2405 H 216.535 5.63859 -2.34297 0
M  V30 2406 H 217.949 4.09651 -4.01073 0
M  V30 2407 H 216.346 3.72173 -4.70752 0
M  V30 2408 H 217.416 2.39665 -4.21532 0
M  V30 2409 N 218.759 1.29093 0.90403 0
M  V30 2410 C 220.008 1.16187 1.64874 0
M  V30 2411 C 220.321 -0.286742 1.93487 0
M  V30 2412 O 221.527 -0.537062 2.66135 0
M  V30 2413 C 219.983 2.03177 2.97064 0
M  V30 2414 C 219.591 3.52836 2.76062 0
M  V30 2415 C 221.335 1.98984 3.74974 0
M  V30 2416 C 219.242 4.31945 4.03952 0
M  V30 2417 H 218.172 0.431246 0.618501 0
M  V30 2418 H 220.823 1.53699 1.00243 0
M  V30 2419 H 219.205 1.5853 3.62883 0
M  V30 2420 H 220.379 4.05507 2.18863 0
M  V30 2421 H 218.694 3.58656 2.11553 0
M  V30 2422 H 221.291 2.55351 4.69787 0
M  V30 2423 H 221.634 0.968815 4.0487 0
M  V30 2424 H 222.167 2.41652 3.15989 0
M  V30 2425 H 218.906 5.34667 3.79225 0
M  V30 2426 H 218.426 3.84045 4.60727 0
M  V30 2427 H 220.105 4.42379 4.72133 0
M  V30 2428 N 220.237 -1.11381 1.11499 0
M  V30 2429 C 221.167 -2.19509 0.796125 0
M  V30 2430 C 222.148 -1.68458 -0.235796 0
M  V30 2431 O 223.333 -1.93947 -0.0991344 0
M  V30 2432 C 220.463 -3.46475 0.239205 0
M  V30 2433 C 219.417 -4.10744 1.20307 0
M  V30 2434 C 218.743 -5.32293 0.50683 0
M  V30 2435 C 220.043 -4.55597 2.55399 0
M  V30 2436 H 221.737 -2.46439 1.70024 0
M  V30 2437 H 219.283 -1.18446 0.818935 0
M  V30 2438 H 221.236 -4.214 0.00392006 0
M  V30 2439 H 219.96 -3.19006 -0.700206 0
M  V30 2440 H 218.619 -3.37813 1.42399 0
M  V30 2441 H 218.267 -5.01095 -0.437408 0
M  V30 2442 H 217.967 -5.76243 1.1497 0
M  V30 2443 H 219.491 -6.09956 0.280351 0
M  V30 2444 H 220.905 -5.21841 2.37391 0
M  V30 2445 H 219.302 -5.10363 3.15673 0
M  V30 2446 H 220.372 -3.69013 3.14575 0
M  V30 2447 N 221.715 -0.905404 -1.28997 0
M  V30 2448 C 222.943 -0.549846 -1.9946 0
M  V30 2449 C 223.358 0.866834 -1.67724 0
M  V30 2450 O 222.715 1.57298 -0.925404 0
M  V30 2451 C 222.766 -0.739387 -3.53858 0
M  V30 2452 O 222.487 -2.10031 -3.84472 0
M  V30 2453 C 223.988 -0.389541 -4.41585 0
M  V30 2454 H 221.208 -0.210429 -0.637151 0
M  V30 2455 H 223.752 -1.21632 -1.64396 0
M  V30 2456 H 221.907 -0.120023 -3.87214 0
M  V30 2457 H 222.321 -2.13385 -4.79132 0
M  V30 2458 H 223.795 -0.572972 -5.49018 0
M  V30 2459 H 224.272 0.673756 -4.34001 0
M  V30 2460 H 224.878 -0.986089 -4.1371 0
M  V30 2461 N 223.193 1.4272 -0.668489 0
M  V30 2462 C 224.423 2.05668 -0.196063 0
M  V30 2463 C 224.831 1.5028 1.14946 0
M  V30 2464 O 224.174 0.6348 1.72383 0
M  V30 2465 C 224.236 3.59469 -0.0468879 0
M  V30 2466 C 223.9 4.37518 -1.32012 0
M  V30 2467 C 224.897 4.68584 -2.25222 0
M  V30 2468 C 222.582 4.77266 -1.56596 0
M  V30 2469 C 224.576 5.38326 -3.41297 0
M  V30 2470 C 222.263 5.4675 -2.72962 0
M  V30 2471 C 223.261 5.77204 -3.65137 0
M  V30 2472 O 222.949 6.45264 -4.79468 0
M  V30 2473 H 222.681 0.669382 -0.0943599 0
M  V30 2474 H 225.235 1.83954 -0.913788 0
M  V30 2475 H 223.465 3.79817 0.726357 0
M  V30 2476 H 225.154 4.04071 0.384852 0
M  V30 2477 H 225.92 4.38382 -2.07477 0
M  V30 2478 H 221.799 4.52959 -0.857249 0
M  V30 2479 H 225.343 5.62014 -4.13263 0
M  V30 2480 H 221.24 5.76369 -2.90635 0
M  V30 2481 H 222.008 6.63753 -4.78931 0
M  V30 2482 N 224.671 0.411399 1.52136 0
M  V30 2483 C 225.917 -0.163888 2.02137 0
M  V30 2484 C 226.25 -1.44597 1.29636 0
M  V30 2485 O 225.525 -1.90272 0.403353 0
M  V30 2486 C 225.808 -0.40927 3.57767 0
M  V30 2487 C 225.661 0.889643 4.40914 0
M  V30 2488 C 226.98 -1.19042 4.23694 0
M  V30 2489 H 224.099 -0.0580896 0.734707 0
M  V30 2490 H 226.741 0.54531 1.82007 0
M  V30 2491 H 224.891 -1.0134 3.7505 0
M  V30 2492 H 226.563 1.52575 4.35337 0
M  V30 2493 H 224.806 1.50011 4.07037 0
M  V30 2494 H 225.477 0.672314 5.4789 0
M  V30 2495 H 227.953 -0.678942 4.10524 0
M  V30 2496 H 226.829 -1.33086 5.32522 0
M  V30 2497 H 227.09 -2.21166 3.82803 0
M  V30 2498 N 226.149 -1.5696 0.141893 0
M  V30 2499 C 227.379 -2.00031 -0.516828 0
M  V30 2500 C 227.787 -1.02091 -1.59293 0
M  V30 2501 O 227.13 -0.00909657 -1.83698 0
M  V30 2502 C 227.192 -3.39534 -1.1814 0
M  V30 2503 C 226.856 -4.56313 -0.250513 0
M  V30 2504 C 227.853 -5.17295 0.519839 0
M  V30 2505 C 225.538 -5.02061 -0.154907 0
M  V30 2506 C 227.532 -6.2243 1.3733 0
M  V30 2507 C 225.219 -6.07053 0.702161 0
M  V30 2508 C 226.217 -6.67106 1.46487 0
M  V30 2509 O 225.905 -7.70066 2.30767 0
M  V30 2510 H 225.637 -0.661451 -0.139493 0
M  V30 2511 H 228.191 -2.04086 0.231926 0
M  V30 2512 H 226.421 -3.32302 -1.97769 0
M  V30 2513 H 228.11 -3.66745 -1.73933 0
M  V30 2514 H 228.876 -4.82852 0.45598 0
M  V30 2515 H 224.755 -4.5505 -0.7383 0
M  V30 2516 H 228.299 -6.69233 1.96909 0
M  V30 2517 H 224.196 -6.40923 0.76733 0
M  V30 2518 H 224.964 -7.87264 2.23959 0
M  V30 2519 N 227.627 0.131896 -1.57047 0
M  V30 2520 C 228.875 0.840269 -1.83804 0
M  V30 2521 C 229.196 1.81017 -0.72512 0
M  V30 2522 O 228.466 1.94272 0.251995 0
M  V30 2523 H 227.046 0.313294 -0.678127 0
M  V30 2524 H 229.708 0.122294 -1.94516 0
M  V30 2525 H 228.804 1.39335 -2.79271 0
M  V30 2526 N 229.106 1.52395 0.401703 0
M  V30 2527 C 230.053 1.76268 1.48991 0
M  V30 2528 C 231.023 0.605386 1.54675 0
M  V30 2529 O 232.208 0.843742 1.7113 0
M  V30 2530 C 229.348 1.92592 2.86361 0
M  V30 2531 C 228.461 3.20259 2.89928 0
M  V30 2532 C 227.596 3.26972 4.18644 0
M  V30 2533 C 226.635 4.48812 4.16214 0
M  V30 2534 N 225.772 4.52877 5.36514 0
M  V30 2535 H 230.612 2.6914 1.27935 0
M  V30 2536 H 228.149 1.33355 0.620871 0
M  V30 2537 H 230.107 2.0004 3.66115 0
M  V30 2538 H 228.737 1.03093 3.05895 0
M  V30 2539 H 227.789 3.21945 2.02621 0
M  V30 2540 H 229.101 4.10056 2.83999 0
M  V30 2541 H 228.255 3.33533 5.06794 0
M  V30 2542 H 226.994 2.35126 4.27278 0
M  V30 2543 H 225.999 4.4239 3.26453 0
M  V30 2544 H 227.224 5.41961 4.09213 0
M  V30 2545 H 225.17 3.63917 5.45802 0
M  V30 2546 H 225.087 5.36529 5.32609 0
M  V30 2547 H 226.355 4.63676 6.26597 0
M  V30 2548 N 230.584 -0.659388 1.43143 0
M  V30 2549 C 231.494 -1.80167 1.50256 0
M  V30 2550 C 232.51 -1.69571 0.390106 0
M  V30 2551 O 233.686 -1.90849 0.643319 0
M  V30 2552 C 230.751 -3.16409 1.41725 0
M  V30 2553 C 229.812 -3.38848 2.63591 0
M  V30 2554 C 229.045 -4.68591 2.55458 0
M  V30 2555 O 229.268 -5.47532 1.59891 0
M  V30 2556 O 228.202 -4.92614 3.45854 0
M  V30 2557 H 232.028 -1.77121 2.46702 0
M  V30 2558 H 229.613 -0.817092 1.25076 0
M  V30 2559 H 231.495 -3.9768 1.39387 0
M  V30 2560 H 230.17 -3.20059 0.484118 0
M  V30 2561 H 229.077 -2.57366 2.71502 0
M  V30 2562 H 230.41 -3.4004 3.55856 0
M  V30 2563 N 232.062 -1.29571 -0.897171 0
M  V30 2564 C 233.29 -1.20583 -1.68129 0
M  V30 2565 C 233.705 0.233181 -1.87354 0
M  V30 2566 O 233.062 1.15579 -1.41236 0
M  V30 2567 C 233.113 -1.91772 -3.06441 0
M  V30 2568 O 232.834 -3.30053 -2.88091 0
M  V30 2569 C 234.335 -1.89291 -4.00854 0
M  V30 2570 H 231.555 -0.417826 -0.525036 0
M  V30 2571 H 234.099 -1.70987 -1.12177 0
M  V30 2572 H 232.254 -1.45196 -3.59161 0
M  V30 2573 H 232.668 -3.65942 -3.75748 0
M  V30 2574 H 234.142 -2.43662 -4.95311 0
M  V30 2575 H 234.619 -0.869014 -4.30517 0
M  V30 2576 H 235.225 -2.35622 -3.54066 0
M  V30 2577 N 233.54 1.10788 -1.12088 0
M  V30 2578 C 234.951 1.64181 -0.88891 0
M  V30 2579 C 235.302 1.87508 0.577498 0
M  V30 2580 O 234.427 1.61434 1.44112 0
M  V30 2581 C 235.022 2.98257 -1.60712 0
M  V30 2582 C 233.581 3.4853 -1.42139 0
M  V30 2583 C 232.728 2.23208 -1.6454 0
M  V30 2584 H 235.679 0.943368 -1.27618 0
M  V30 2585 H 235.7 3.65552 -1.05604 0
M  V30 2586 H 235.212 2.81246 -2.67436 0
M  V30 2587 H 233.313 3.70692 -0.376552 0
M  V30 2588 H 233.426 4.26882 -2.17505 0
M  V30 2589 H 231.79 2.31169 -1.06925 0
M  V30 2590 H 232.573 2.08733 -2.72554 0
M  V30 2591 N 235.018 0.912232 1.28515 0
M  V30 2592 C 236.295 0.463597 1.90027 0
M  V30 2593 C 236.675 -1.05753 1.82701 0
M  V30 2594 O 236.023 -1.90492 1.26194 0
M  V30 2595 C 236.233 0.992253 3.34597 0
M  V30 2596 C 237.581 1.04344 4.11579 0
M  V30 2597 O 238.605 0.94079 3.43551 0
M  V30 2598 O 237.464 1.1995 5.33174 0
M  V30 2599 H 234.558 0.146666 0.813891 0
M  V30 2600 H 237.104 1.00292 1.36893 0
M  V30 2601 H 235.876 2.03623 3.34146 0
M  V30 2602 H 235.499 0.433672 3.95228 0
M  V30 2603 N 236.496 -1.42363 0.676048 0
M  V30 2604 C 237.744 -2.01123 0.198437 0
M  V30 2605 C 238.065 -1.53731 -1.19966 0
M  V30 2606 O 237.335 -0.759518 -1.80577 0
M  V30 2607 H 235.915 -0.743678 0.0703721 0
M  V30 2608 H 238.577 -1.74263 0.872837 0
M  V30 2609 H 237.673 -3.11454 0.200686 0
M  V30 2610 N 237.974 -0.419461 -1.51915 0
M  V30 2611 C 239.223 0.154346 -2.01109 0
M  V30 2612 C 239.536 1.45338 -1.30905 0
M  V30 2613 O 240.742 2.10906 -1.7097 0
M  V30 2614 C 239.198 0.325615 -3.58424 0
M  V30 2615 C 238.806 -0.961934 -4.37551 0
M  V30 2616 C 240.55 0.854155 -4.15818 0
M  V30 2617 C 238.457 -0.757287 -5.86531 0
M  V30 2618 H 237.387 0.0614563 -0.751491 0
M  V30 2619 H 240.038 -0.54649 -1.75173 0
M  V30 2620 H 238.42 1.08903 -3.80731 0
M  V30 2621 H 239.594 -1.7323 -4.26999 0
M  V30 2622 H 237.909 -1.41766 -3.91524 0
M  V30 2623 H 240.506 1.02346 -5.24814 0
M  V30 2624 H 240.849 1.83172 -3.73837 0
M  V30 2625 H 241.382 0.149528 -3.97519 0
M  V30 2626 H 238.121 -1.70671 -6.32892 0
M  V30 2627 H 237.641 -0.0264061 -5.99794 0
M  V30 2628 H 239.32 -0.403482 -6.45741 0
M  V30 2629 N 239.452 1.56882 -0.150215 0
M  V30 2630 C 240.399 2.16922 0.788244 0
M  V30 2631 C 241.369 1.10303 1.24187 0
M  V30 2632 O 242.554 1.38359 1.31383 0
M  V30 2633 C 239.694 2.79754 2.02068 0
M  V30 2634 C 238.807 4.00775 1.61257 0
M  V30 2635 C 237.942 4.51595 2.79705 0
M  V30 2636 C 236.981 5.65074 2.35282 0
M  V30 2637 N 236.118 6.10499 3.4675 0
M  V30 2638 H 240.958 2.96779 0.269444 0
M  V30 2639 H 238.495 1.46599 0.12128 0
M  V30 2640 H 240.453 3.14329 2.74323 0
M  V30 2641 H 239.083 2.02536 2.51354 0
M  V30 2642 H 238.135 3.72158 0.787553 0
M  V30 2643 H 239.447 4.82978 1.24633 0
M  V30 2644 H 238.601 4.88242 3.60145 0
M  V30 2645 H 237.34 3.68406 3.19576 0
M  V30 2646 H 236.345 5.28 1.53283 0
M  V30 2647 H 237.57 6.50052 1.96493 0
M  V30 2648 H 235.516 5.30243 3.86236 0
M  V30 2649 H 235.433 6.87637 3.14152 0
M  V30 2650 H 236.701 6.51791 4.27537 0
M  V30 2651 N 240.93 -0.123565 1.57115 0
M  V30 2652 C 242.179 -0.830704 1.83799 0
M  V30 2653 C 242.492 -1.81259 0.735158 0
M  V30 2654 O 243.698 -2.56558 0.888278 0
M  V30 2655 C 242.154 -1.52802 3.25852 0
M  V30 2656 C 241.762 -0.587356 4.44133 0
M  V30 2657 C 243.506 -2.22056 3.61789 0
M  V30 2658 C 241.413 -1.28764 5.77212 0
M  V30 2659 H 240.343 -0.313967 0.685522 0
M  V30 2660 H 242.994 -0.0834359 1.8331 0
M  V30 2661 H 241.376 -2.32175 3.20797 0
M  V30 2662 H 242.55 0.172829 4.60476 0
M  V30 2663 H 240.865 -0.00201892 4.164 0
M  V30 2664 H 243.462 -2.75131 4.58483 0
M  V30 2665 H 243.805 -2.99644 2.88997 0
M  V30 2666 H 244.338 -1.49576 3.68608 0
M  V30 2667 H 241.077 -0.55314 6.53162 0
M  V30 2668 H 240.597 -2.01995 5.64764 0
M  V30 2669 H 242.276 -1.8221 6.20813 0
M  V30 2670 N 242.408 -1.52605 -0.393616 0
M  V30 2671 C 243.636 -1.71294 -1.16043 0
M  V30 2672 C 244.051 -0.429259 -1.83855 0
M  V30 2673 O 243.408 0.595921 -1.72496 0
M  V30 2674 C 243.459 -2.8593 -2.21193 0
M  V30 2675 O 243.18 -4.09329 -1.56146 0
M  V30 2676 C 244.681 -3.16259 -3.10636 0
M  V30 2677 H 241.901 -0.573641 -0.348104 0
M  V30 2678 H 244.445 -1.99234 -0.461092 0
M  V30 2679 H 242.6 -2.60465 -2.86769 0
M  V30 2680 H 243.014 -4.73323 -2.25978 0
M  V30 2681 H 244.488 -3.99946 -3.80456 0
M  V30 2682 H 244.965 -2.3045 -3.73884 0
M  V30 2683 H 245.571 -3.43547 -2.50711 0
M  V30 2684 N 243.887 0.651787 -1.4349 0
M  V30 2685 C 244.817 1.77621 -1.51569 0
M  V30 2686 C 245.798 1.66022 -0.370253 0
M  V30 2687 O 246.983 1.85095 -0.587658 0
M  V30 2688 C 244.113 3.16056 -1.43966 0
M  V30 2689 C 243.067 3.4242 -2.56774 0
M  V30 2690 C 242.393 4.8067 -2.34223 0
M  V30 2691 C 243.693 3.37023 -3.99015 0
M  V30 2692 H 245.387 1.71117 -2.45681 0
M  V30 2693 H 242.933 0.821825 -1.18246 0
M  V30 2694 H 244.886 3.94472 -1.48221 0
M  V30 2695 H 243.61 3.23293 -0.463586 0
M  V30 2696 H 242.269 2.66375 -2.51873 0
M  V30 2697 H 241.917 4.84585 -1.34856 0
M  V30 2698 H 241.617 4.9927 -3.09844 0
M  V30 2699 H 243.141 5.61342 -2.40265 0
M  V30 2700 H 244.555 4.05374 -4.05395 0
M  V30 2701 H 242.952 3.67159 -4.74673 0
M  V30 2702 H 244.022 2.3518 -4.2405 0
M  V30 2703 N 245.365 1.30045 0.890287 0
M  V30 2704 C 246.642 1.09227 1.62262 0
M  V30 2705 C 247.022 -0.360305 2.08002 0
M  V30 2706 O 246.37 -1.35084 1.84295 0
M  V30 2707 C 246.58 2.08835 2.79623 0
M  V30 2708 C 247.928 2.40266 3.50082 0
M  V30 2709 O 248.952 2.07104 2.89804 0
M  V30 2710 O 247.811 2.96967 4.58773 0
M  V30 2711 H 244.905 0.419132 0.712922 0
M  V30 2712 H 247.451 1.41451 0.937529 0
M  V30 2713 H 246.223 3.06633 2.43089 0
M  V30 2714 H 245.846 1.77397 3.55832 0
M  V30 2715 N 246.843 -1.10192 1.12674 0
M  V30 2716 C 247.791 -2.18694 0.792196 0
M  V30 2717 C 248.785 -1.67938 -0.222058 0
M  V30 2718 O 249.991 -1.79822 -0.0800074 0
M  V30 2719 H 246.366 -0.713223 0.238364 0
M  V30 2720 H 248.337 -2.44149 1.71564 0
M  V30 2721 C 247.086 -3.46682 0.265859 0
M  V30 2722 H 246.409 -3.86101 1.03761 0
M  V30 2723 H 247.849 -4.23942 0.0701128 0
M  V30 2724 C 246.308 -3.21506 -1.00675 0
M  V30 2725 O 246.838 -3.43408 -2.08408 0
M  V30 2726 N 245.044 -2.75158 -0.934692 0
M  V30 2727 H 244.591 -2.57535 -0.0578604 0
M  V30 2728 H 244.549 -2.58691 -1.7868 0
M  V30 2729 N 248.321 -0.919034 -1.28029 0
M  V30 2730 C 249.251 -0.428581 -2.29533 0
M  V30 2731 C 250.232 0.50659 -1.62381 0
M  V30 2732 O 251.417 0.413195 -1.89753 0
M  V30 2733 C 248.547 0.327388 -3.45753 0
M  V30 2734 C 247.501 -0.519137 -4.2484 0
M  V30 2735 C 246.827 0.365486 -5.33449 0
M  V30 2736 C 248.127 -1.77914 -4.91064 0
M  V30 2737 H 249.821 -1.27687 -2.70807 0
M  V30 2738 H 247.367 -0.615428 -1.30186 0
M  V30 2739 H 249.32 0.681378 -4.15855 0
M  V30 2740 H 248.044 1.20963 -3.03374 0
M  V30 2741 H 246.703 -0.855717 -3.56473 0
M  V30 2742 H 246.351 1.24642 -4.87312 0
M  V30 2743 H 246.051 -0.197356 -5.87268 0
M  V30 2744 H 247.575 0.715241 -6.06396 0
M  V30 2745 H 248.989 -1.49374 -5.53498 0
M  V30 2746 H 247.386 -2.2848 -5.54903 0
M  V30 2747 H 248.456 -2.50382 -4.15255 0
M  V30 2748 N 249.799 1.42003 -0.683588 0
M  V30 2749 C 251.027 2.05746 -0.218182 0
M  V30 2750 C 251.442 1.51396 1.12804 0
M  V30 2751 O 250.799 0.657303 1.70252 0
M  V30 2752 C 250.85 3.61171 -0.154131 0
M  V30 2753 O 250.571 4.13508 -1.44716 0
M  V30 2754 C 252.072 4.42042 0.333713 0
M  V30 2755 H 249.292 0.662888 -0.10402 0
M  V30 2756 H 251.836 1.81987 -0.9328 0
M  V30 2757 H 249.991 3.84012 0.511231 0
M  V30 2758 H 250.405 5.07453 -1.32632 0
M  V30 2759 H 251.879 5.51028 0.327423 0
M  V30 2760 H 252.356 4.17269 1.37053 0
M  V30 2761 H 252.962 4.24239 -0.300222 0
M  V30 2762 N 251.277 0.427512 1.51691 0
M  V30 2763 C 252.21 -0.433876 2.24037 0
M  V30 2764 C 253.188 -1.03287 1.25581 0
M  V30 2765 O 254.372 -1.07722 1.54688 0
M  V30 2766 C 251.499 -1.60385 2.98319 0
M  V30 2767 C 250.545 -1.12648 4.11355 0
M  V30 2768 S 251.378 -0.076543 5.35445 0
M  V30 2769 C 252.534 -1.25141 6.13262 0
M  V30 2770 H 252.767 0.180367 2.96752 0
M  V30 2771 H 250.3 0.211946 1.52938 0
M  V30 2772 H 252.258 -2.27462 3.41718 0
M  V30 2773 H 250.919 -2.18948 2.25213 0
M  V30 2774 H 250.112 -2.0011 4.62571 0
M  V30 2775 H 249.714 -0.534088 3.70167 0
M  V30 2776 H 252.006 -2.17162 6.41753 0
M  V30 2777 H 252.949 -0.779411 7.03797 0
M  V30 2778 H 253.357 -1.48553 5.44603 0
M  V30 2779 N 252.755 -1.56801 0.158532 0
M  V30 2780 C 253.687 -2.14488 -0.807923 0
M  V30 2781 C 254.7 -1.09721 -1.20271 0
M  V30 2782 O 255.889 -1.36956 -1.14478 0
M  V30 2783 C 252.989 -2.66217 -2.09718 0
M  V30 2784 C 252.162 -3.95507 -1.86796 0
M  V30 2785 C 251.221 -4.3243 -2.99818 0
M  V30 2786 O 250.247 -5.00543 -2.71008 0
M  V30 2787 N 251.449 -3.92947 -4.27285 0
M  V30 2788 H 254.214 -2.98042 -0.314816 0
M  V30 2789 H 251.775 -1.61881 -0.0246692 0
M  V30 2790 H 253.767 -2.87924 -2.84398 0
M  V30 2791 H 252.337 -1.87324 -2.50257 0
M  V30 2792 H 251.557 -3.82309 -0.96089 0
M  V30 2793 H 252.845 -4.79972 -1.68833 0
M  V30 2794 H 252.243 -3.38087 -4.53557 0
M  V30 2795 H 250.8 -4.19681 -4.9871 0
M  V30 2796 N 254.233 0.115231 -1.57178 0
M  V30 2797 C 255.143 1.15994 -2.03918 0
M  V30 2798 C 256.159 1.45103 -0.960268 0
M  V30 2799 O 257.335 1.56144 -1.27204 0
M  V30 2800 C 254.4 2.46568 -2.43732 0
M  V30 2801 C 253.461 2.24822 -3.65723 0
M  V30 2802 C 252.694 3.4917 -4.03629 0
M  V30 2803 O 252.917 4.56623 -3.41835 0
M  V30 2804 O 251.851 3.39949 -4.96708 0
M  V30 2805 H 255.677 0.793019 -2.93164 0
M  V30 2806 H 253.262 0.3263 -1.45793 0
M  V30 2807 H 255.144 3.23492 -2.70057 0
M  V30 2808 H 253.819 2.82726 -1.57631 0
M  V30 2809 H 252.726 1.45744 -3.44542 0
M  V30 2810 H 254.059 1.93566 -4.52541 0
M  V30 2811 N 255.711 1.52812 0.385517 0
M  V30 2812 C 256.641 1.80808 1.47752 0
M  V30 2813 C 257.622 0.660318 1.5676 0
M  V30 2814 O 258.807 0.908246 1.71652 0
M  V30 2815 C 255.937 1.98008 2.85324 0
M  V30 2816 C 254.891 3.13709 2.91154 0
M  V30 2817 C 254.217 3.16169 4.31209 0
M  V30 2818 C 255.517 4.52709 2.60483 0
M  V30 2819 H 257.211 2.72253 1.24573 0
M  V30 2820 H 254.757 1.31003 0.597839 0
M  V30 2821 H 256.71 2.16176 3.61726 0
M  V30 2822 H 255.434 1.03255 3.09848 0
M  V30 2823 H 254.093 2.95329 2.17201 0
M  V30 2824 H 253.741 2.19092 4.52778 0
M  V30 2825 H 253.441 3.93894 4.36029 0
M  V30 2826 H 254.965 3.36496 5.09512 0
M  V30 2827 H 256.379 4.71173 3.26602 0
M  V30 2828 H 254.776 5.32528 2.76648 0
M  V30 2829 H 255.846 4.59186 1.55809 0
M  V30 2830 N 257.189 -0.644168 1.43834 0
M  V30 2831 C 258.437 -1.40117 1.45642 0
M  V30 2832 C 258.758 -1.94814 0.0852413 0
M  V30 2833 O 258.028 -1.74988 -0.880688 0
M  V30 2834 H 256.608 -0.52005 0.536243 0
M  V30 2835 H 259.27 -0.7591 1.7951 0
M  V30 2836 H 258.366 -2.23902 2.17427 0
M  V30 2837 N 258.668 -1.30515 -0.883378 0
M  V30 2838 C 259.898 -1.22182 -1.66599 0
M  V30 2839 C 260.306 0.217507 -1.87946 0
M  V30 2840 O 259.649 1.1554 -1.42815 0
M  V30 2841 C 259.711 -1.88146 -3.06335 0
M  V30 2842 C 259.375 -3.37476 -3.08154 0
M  V30 2843 C 260.372 -4.33443 -2.87094 0
M  V30 2844 C 258.057 -3.7895 -3.29701 0
M  V30 2845 C 260.051 -5.68858 -2.8754 0
M  V30 2846 C 257.738 -5.14482 -3.29776 0
M  V30 2847 C 258.736 -6.09246 -3.0872 0
M  V30 2848 O 258.424 -7.42302 -3.08615 0
M  V30 2849 H 258.156 -0.423898 -0.52658 0
M  V30 2850 H 260.71 -1.72703 -1.11188 0
M  V30 2851 H 258.94 -1.32157 -3.63416 0
M  V30 2852 H 260.629 -1.7391 -3.66756 0
M  V30 2853 H 261.395 -4.02733 -2.70243 0
M  V30 2854 H 257.274 -3.05631 -3.45124 0
M  V30 2855 H 260.818 -6.428 -2.71024 0
M  V30 2856 H 256.715 -5.44832 -3.46163 0
M  V30 2857 H 257.483 -7.5131 -3.24769 0
M  V30 2858 N 260.146 1.09593 -1.13257 0
M  V30 2859 C 261.371 1.8604 -0.916732 0
M  V30 2860 C 261.796 1.80504 0.529146 0
M  V30 2861 O 261.154 1.18127 1.37534 0
M  V30 2862 C 261.202 3.32017 -1.40703 0
M  V30 2863 O 260.306 4.08141 -0.591153 0
M  V30 2864 H 259.647 0.576943 -0.328683 0
M  V30 2865 H 262.177 1.38405 -1.50682 0
M  V30 2866 H 262.187 3.82865 -1.4099 0
M  V30 2867 H 260.862 3.35361 -2.45979 0
M  V30 2868 H 259.439 3.67084 -0.656005 0
M  V30 2869 N 261.624 0.925811 1.2754 0
M  V30 2870 C 262.849 0.580924 1.99098 0
M  V30 2871 C 263.274 -0.833555 1.68622 0
M  V30 2872 O 262.632 -1.55903 0.925422 0
M  V30 2873 C 262.68 0.811186 3.51358 0
M  V30 2874 O 261.784 -0.124129 4.12213 0
M  V30 2875 H 261.125 0.223873 0.625122 0
M  V30 2876 H 263.655 1.24455 1.62395 0
M  V30 2877 H 263.665 0.72601 4.01489 0
M  V30 2878 H 262.34 1.84227 3.72872 0
M  V30 2879 H 260.917 0.0108006 3.72898 0
M  V30 2880 N 263.102 -1.41638 0.69111 0
M  V30 2881 C 264.35 -2.00902 0.219758 0
M  V30 2882 C 264.671 -1.54994 -1.18329 0
M  V30 2883 O 263.941 -0.778628 -1.79762 0
M  V30 2884 H 262.521 -0.74289 0.0782558 0
M  V30 2885 H 265.183 -1.73327 0.891271 0
M  V30 2886 H 264.279 -3.11224 0.233708 0
M  V30 2887 N 264.58 -0.43555 -1.51462 0
M  V30 2888 C 265.829 0.133007 -2.01261 0
M  V30 2889 C 266.142 1.43942 -1.32439 0
M  V30 2890 O 267.348 2.09081 -1.73198 0
M  V30 2891 C 265.804 0.287581 -3.58749 0
M  V30 2892 C 265.412 -1.00829 -4.36506 0
M  V30 2893 C 267.156 0.810004 -4.167 0
M  V30 2894 C 265.063 -0.819454 -5.85695 0
M  V30 2895 H 263.993 0.0534822 -0.752101 0
M  V30 2896 H 266.644 -0.565038 -1.74584 0
M  V30 2897 H 265.026 1.04859 -3.81865 0
M  V30 2898 H 266.2 -1.77749 -4.25138 0
M  V30 2899 H 264.515 -1.45911 -3.89999 0
M  V30 2900 H 267.112 0.967743 -5.2587 0
M  V30 2901 H 267.455 1.79196 -3.75758 0
M  V30 2902 H 267.988 0.107357 -3.97655 0
M  V30 2903 H 264.727 -1.77374 -6.31046 0
M  V30 2904 H 264.247 -0.0900208 -5.99732 0
M  V30 2905 H 265.926 -0.471949 -6.45276 0
M  V30 2906 N 266.058 1.56714 -0.166846 0
M  V30 2907 C 267.021 2.16539 0.751232 0
M  V30 2908 C 268.021 1.11228 1.16125 0
M  V30 2909 O 269.211 1.36765 1.07894 0
M  V30 2910 C 266.343 2.74462 2.02196 0
M  V30 2911 H 267.536 2.99013 0.230499 0
M  V30 2912 H 265.089 1.56081 0.0826982 0
M  V30 2913 H 265.824 1.95709 2.58589 0
M  V30 2914 H 265.609 3.51527 1.73698 0
M  V30 2915 H 267.099 3.20489 2.67725 0
M  V30 2916 N 267.536 -0.106894 1.57237 0
M  V30 2917 C 268.486 -1.1366 1.9765 0
M  V30 2918 C 269.47 -1.36416 0.853203 0
M  V30 2919 O 270.662 -1.37305 1.11697 0
M  V30 2920 C 267.791 -2.46 2.39455 0
M  V30 2921 C 266.877 -2.26668 3.58445 0
M  V30 2922 N 267.268 -1.77176 4.73754 0
M  V30 2923 C 265.566 -2.57279 3.64312 0
M  V30 2924 C 266.267 -1.71836 5.5574 0
M  V30 2925 N 265.243 -2.16623 4.98573 0
M  V30 2926 H 269.045 -0.74669 2.84256 0
M  V30 2927 H 266.559 -0.314483 1.59326 0
M  V30 2928 H 268.556 -3.2049 2.6663 0
M  V30 2929 H 267.216 -2.85738 1.54219 0
M  V30 2930 H 268.227 -1.46545 4.96734 0
M  V30 2931 H 264.904 -3.00622 2.89711 0
M  V30 2932 H 266.294 -1.34723 6.58255 0
M  V30 2933 N 269.014 -1.53014 -0.377408 0
M  V30 2934 C 270.239 -1.72818 -1.14668 0
M  V30 2935 C 270.664 -0.450725 -1.8262 0
M  V30 2936 O 270.022 0.59439 -1.7128 0
M  V30 2937 C 270.07 -2.88627 -2.16164 0
M  V30 2938 O 269.174 -2.56409 -3.22998 0
M  V30 2939 H 268.515 -0.574301 -0.333278 0
M  V30 2940 H 271.045 -1.99853 -0.438152 0
M  V30 2941 H 271.055 -3.14455 -2.59966 0
M  V30 2942 H 269.73 -3.81294 -1.66095 0
M  V30 2943 H 268.307 -2.4136 -2.84253 0
M  V30 2944 N 270.492 0.636531 -1.44174 0
M  V30 2945 C 271.717 1.42847 -1.50364 0
M  V30 2946 C 272.142 1.87665 -0.127867 0
M  V30 2947 O 271.5 1.58408 0.88185 0
M  V30 2948 C 271.548 2.62854 -2.4686 0
M  V30 2949 O 270.652 3.62501 -1.9664 0
M  V30 2950 H 269.993 0.427642 -0.507955 0
M  V30 2951 H 272.523 0.777422 -1.89255 0
M  V30 2952 H 272.533 3.10465 -2.64718 0
M  V30 2953 H 271.208 2.29578 -3.46795 0
M  V30 2954 H 269.785 3.21735 -1.88523 0
M  V30 2955 N 271.97 1.30982 0.876444 0
M  V30 2956 C 272.933 1.18054 1.96459 0
M  V30 2957 C 273.933 0.109399 1.60427 0
M  V30 2958 O 275.123 0.358173 1.70478 0
M  V30 2959 C 272.255 0.810616 3.31122 0
M  V30 2960 H 273.448 2.14735 2.09354 0
M  V30 2961 H 271.001 1.145 1.06392 0
M  V30 2962 H 271.736 -0.155322 3.23928 0
M  V30 2963 H 271.521 1.58481 3.58645 0
M  V30 2964 H 273.011 0.743876 4.10921 0
M  V30 2965 N 273.449 -1.08991 1.13837 0
M  V30 2966 C 274.695 -1.81526 0.90422 0
M  V30 2967 C 275.028 -1.85706 -0.568066 0
M  V30 2968 O 274.303 -1.32855 -1.42056 0
M  V30 2969 C 274.586 -3.27447 1.49835 0
M  V30 2970 C 274.439 -3.31512 3.04006 0
M  V30 2971 C 275.758 -4.24256 1.17025 0
M  V30 2972 H 272.877 -0.659029 0.329923 0
M  V30 2973 H 275.519 -1.27644 1.40737 0
M  V30 2974 H 273.669 -3.73462 1.07044 0
M  V30 2975 H 275.341 -2.93867 3.55584 0
M  V30 2976 H 273.584 -2.70963 3.38765 0
M  V30 2977 H 274.255 -4.34329 3.40679 0
M  V30 2978 H 276.731 -3.86549 1.54009 0
M  V30 2979 H 275.607 -5.24684 1.61237 0
M  V30 2980 H 275.868 -4.42019 0.0846274 0
M  V30 2981 N 274.927 -0.932562 -1.27047 0
M  V30 2982 C 276.152 -0.591474 -1.98787 0
M  V30 2983 C 276.577 0.824601 -1.69062 0
M  V30 2984 O 275.935 1.5541 -0.933677 0
M  V30 2985 C 275.983 -0.829808 -3.50922 0
M  V30 2986 O 275.087 0.102266 -4.12273 0
M  V30 2987 H 274.428 -0.227185 -0.623926 0
M  V30 2988 H 276.958 -1.25314 -1.61733 0
M  V30 2989 H 276.968 -0.747292 -4.01098 0
M  V30 2990 H 275.643 -1.86201 -3.7189 0
M  V30 2991 H 274.22 -0.0305761 -3.72887 0
M  V30 2992 N 276.405 1.4127 -0.698611 0
M  V30 2993 C 277.821 1.55241 -0.370462 0
M  V30 2994 C 278.021 1.67351 1.12231 0
M  V30 2995 O 277.077 1.65363 1.90818 0
M  V30 2996 C 278.39 2.78997 -1.12165 0
M  V30 2997 C 279.938 2.92797 -1.1063 0
M  V30 2998 C 280.413 4.19445 -1.8393 0
M  V30 2999 N 281.904 4.26409 -1.80914 0
M  V30 3000 C 282.639 5.23271 -2.34467 0
M  V30 3001 N 282.135 6.26145 -2.96504 0
M  V30 3002 N 283.928 5.15232 -2.24706 0
M  V30 3003 H 276.079 1.31654 -1.66676 0
M  V30 3004 H 278.342 0.635393 -0.703548 0
M  V30 3005 H 278.048 2.76268 -2.17644 0
M  V30 3006 H 277.922 3.70606 -0.702209 0
M  V30 3007 H 280.309 2.95039 -0.0597713 0
M  V30 3008 H 280.39 2.02353 -1.56483 0
M  V30 3009 H 280.034 4.17964 -2.88563 0
M  V30 3010 H 279.964 5.08866 -1.35509 0
M  V30 3011 H 282.455 3.527 -1.35687 0
M  V30 3012 H 282.768 6.96451 -3.34927 0
M  V30 3013 H 281.113 6.26638 -3.00583 0
M  V30 3014 H 284.304 4.33789 -1.7591 0
M  V30 3015 H 284.477 5.90552 -2.66745 0
M  V30 3016 N 277.883 0.443576 1.51229 0
M  V30 3017 C 279.132 -0.122332 2.01329 0
M  V30 3018 C 279.445 -1.43237 1.33201 0
M  V30 3019 O 280.651 -2.0816 1.74304 0
M  V30 3020 C 279.107 -0.268551 3.58897 0
M  V30 3021 C 278.715 1.03142 4.35965 0
M  V30 3022 C 280.459 -0.787894 4.17124 0
M  V30 3023 C 278.366 0.850504 5.85252 0
M  V30 3024 H 277.296 -0.0494929 0.752374 0
M  V30 3025 H 279.947 0.574289 1.74282 0
M  V30 3026 H 278.329 -1.02832 3.82415 0
M  V30 3027 H 279.503 1.80001 4.24189 0
M  V30 3028 H 277.818 1.47977 3.89219 0
M  V30 3029 H 280.415 -0.939841 5.26375 0
M  V30 3030 H 280.758 -1.77201 3.76703 0
M  V30 3031 H 281.291 -0.0862669 3.97706 0
M  V30 3032 H 278.03 1.80718 6.30096 0
M  V30 3033 H 277.55 0.121825 5.99676 0
M  V30 3034 H 279.229 0.506163 6.45017 0
M  V30 3035 N 279.361 -1.56624 0.175154 0
M  V30 3036 C 280.61 -1.96173 -0.468921 0
M  V30 3037 C 280.923 -1.06401 -1.64128 0
M  V30 3038 O 282.129 -1.35648 -2.35185 0
M  V30 3039 C 280.585 -3.48833 -0.885633 0
M  V30 3040 C 280.193 -4.47237 0.261343 0
M  V30 3041 C 281.937 -3.97194 -1.49791 0
M  V30 3042 C 279.844 -5.9114 -0.175214 0
M  V30 3043 H 278.774 -0.732455 -0.178958 0
M  V30 3044 H 281.425 -1.81591 0.263997 0
M  V30 3045 H 279.807 -3.58848 -1.67464 0
M  V30 3046 H 280.981 -4.4894 1.03871 0
M  V30 3047 H 279.296 -4.08956 0.783827 0
M  V30 3048 H 281.893 -5.02167 -1.83665 0
M  V30 3049 H 282.236 -3.40351 -2.39722 0
M  V30 3050 H 282.769 -3.90212 -0.773267 0
M  V30 3051 H 279.508 -6.51865 0.689414 0
M  V30 3052 H 279.028 -5.92735 -0.91786 0
M  V30 3053 H 280.707 -6.44044 -0.617792 0
M  V30 3054 N 280.839 0.0985539 -1.57292 0
M  V30 3055 C 282.064 0.820196 -1.90493 0
M  V30 3056 C 282.489 1.71658 -0.769094 0
M  V30 3057 O 281.847 1.79133 0.279495 0
M  V30 3058 C 281.895 1.61242 -3.22542 0
M  V30 3059 O 280.999 2.72108 -3.09888 0
M  V30 3060 H 280.34 0.225547 -0.62452 0
M  V30 3061 H 282.87 0.0748159 -2.04463 0
M  V30 3062 H 282.88 1.99737 -3.55766 0
M  V30 3063 H 281.555 0.954535 -4.04798 0
M  V30 3064 H 280.132 2.36667 -2.88172 0
M  V30 3065 N 282.317 1.53212 0.369288 0
M  V30 3066 C 283.264 1.79388 1.45219 0
M  V30 3067 C 284.234 0.638059 1.53356 0
M  V30 3068 O 285.419 0.879852 1.69302 0
M  V30 3069 C 282.559 1.98623 2.82211 0
M  V30 3070 C 281.672 3.26337 2.8307 0
M  V30 3071 C 280.807 3.35779 4.11614 0
M  V30 3072 C 279.846 4.5754 4.06601 0
M  V30 3073 N 278.983 4.64155 5.26787 0
M  V30 3074 H 283.823 2.71794 1.22198 0
M  V30 3075 H 281.36 1.34642 0.592444 0
M  V30 3076 H 283.318 2.07761 3.61789 0
M  V30 3077 H 281.948 1.09558 3.03639 0
M  V30 3078 H 281 3.26171 1.95747 0
M  V30 3079 H 282.312 4.15988 2.75237 0
M  V30 3080 H 281.466 3.44208 4.99606 0
M  V30 3081 H 280.205 2.44137 4.22195 0
M  V30 3082 H 279.21 4.49215 3.16996 0
M  V30 3083 H 280.435 5.50519 3.97625 0
M  V30 3084 H 278.381 3.75413 5.3796 0
M  V30 3085 H 278.298 5.47706 5.21109 0
M  V30 3086 H 279.566 4.76863 6.16621 0
M  V30 3087 N 283.795 -0.628877 1.44509 0
M  V30 3088 C 284.725 -1.75187 1.54376 0
M  V30 3089 C 285.706 -1.65411 0.396618 0
M  V30 3090 O 286.891 -1.84137 0.617031 0
M  V30 3091 C 284.021 -3.13725 1.48976 0
M  V30 3092 C 282.975 -3.38291 2.62189 0
M  V30 3093 C 282.301 -4.76883 2.41841 0
M  V30 3094 C 283.601 -3.30632 4.04326 0
M  V30 3095 H 285.295 -1.67187 2.48373 0
M  V30 3096 H 282.841 -0.802909 1.19538 0
M  V30 3097 H 284.794 -3.92064 1.54478 0
M  V30 3098 H 283.518 -3.22515 0.514961 0
M  V30 3099 H 282.177 -2.62334 2.56079 0
M  V30 3100 H 281.825 -4.82378 1.42548 0
M  V30 3101 H 281.525 -4.94278 3.17747 0
M  V30 3102 H 283.049 -5.57449 2.49165 0
M  V30 3103 H 284.463 -3.98873 4.11793 0
M  V30 3104 H 282.86 -3.59561 4.80454 0
M  V30 3105 H 283.93 -2.28404 4.27738 0
M  V30 3106 N 285.273 -1.31445 -0.869486 0
M  V30 3107 C 286.22 -1.19135 -1.97675 0
M  V30 3108 C 287.19 -0.0770266 -1.65921 0
M  V30 3109 O 288.375 -0.249972 -1.89155 0
M  V30 3110 C 285.515 -0.905149 -3.33018 0
M  V30 3111 C 284.628 -2.10285 -3.77365 0
M  V30 3112 C 283.763 -1.75339 -5.01427 0
M  V30 3113 C 282.802 -2.91515 -5.38224 0
M  V30 3114 N 281.939 -2.56762 -6.53466 0
M  V30 3115 H 286.779 -2.13853 -2.07535 0
M  V30 3116 H 284.316 -1.06379 -1.01597 0
M  V30 3117 H 286.274 -0.719765 -4.10944 0
M  V30 3118 H 284.904 0.00519624 -3.228 0
M  V30 3119 H 283.956 -2.39899 -2.95216 0
M  V30 3120 H 285.268 -2.97237 -4.00564 0
M  V30 3121 H 284.422 -1.53266 -5.87022 0
M  V30 3122 H 283.161 -0.855801 -4.80133 0
M  V30 3123 H 282.166 -3.14237 -4.51149 0
M  V30 3124 H 283.391 -3.81985 -5.61484 0
M  V30 3125 H 281.337 -1.69526 -6.33717 0
M  V30 3126 H 281.254 -3.37243 -6.76612 0
M  V30 3127 H 282.522 -2.38083 -7.42251 0
M  V30 3128 N 286.751 1.08385 -1.14413 0
M  V30 3129 C 287.683 2.1519 -0.789036 0
M  V30 3130 C 288.696 1.61638 0.19417 0
M  V30 3131 O 289.885 1.78479 -0.0275711 0
M  V30 3132 C 286.985 3.38565 -0.15058 0
M  V30 3133 C 286.158 4.21501 -1.16857 0
M  V30 3134 C 285.217 5.23277 -0.553832 0
M  V30 3135 O 284.243 5.56041 -1.21686 0
M  V30 3136 N 285.445 5.76629 0.669296 0
M  V30 3137 H 288.21 2.46257 -1.70814 0
M  V30 3138 H 285.771 1.24198 -1.03858 0
M  V30 3139 H 287.763 4.03777 0.273181 0
M  V30 3140 H 286.333 3.05299 0.671667 0
M  V30 3141 H 285.553 3.52265 -1.76926 0
M  V30 3142 H 286.841 4.73731 -1.85624 0
M  V30 3143 H 286.239 5.52243 1.22654 0
M  V30 3144 H 284.796 6.43521 1.03556 0
M  V30 3145 N 288.23 0.939286 1.26551 0
M  V30 3146 C 289.14 0.453432 2.30176 0
M  V30 3147 C 290.156 -0.471649 1.67486 0
M  V30 3148 O 291.332 -0.35164 1.98306 0
M  V30 3149 C 288.397 -0.275326 3.45605 0
M  V30 3150 C 287.458 0.686084 4.23782 0
M  V30 3151 C 286.691 -0.00798994 5.33699 0
M  V30 3152 O 286.914 -1.22528 5.57085 0
M  V30 3153 O 285.848 0.669746 5.98162 0
M  V30 3154 H 289.674 1.31416 2.73795 0
M  V30 3155 H 287.259 0.705095 1.31715 0
M  V30 3156 H 289.141 -0.685911 4.1578 0
M  V30 3157 H 287.816 -1.11147 3.0402 0
M  V30 3158 H 286.723 1.14658 3.56096 0
M  V30 3159 H 288.056 1.48979 4.69112 0
M  V30 3160 N 289.708 -1.40897 0.706093 0
M  V30 3161 C 290.655 -2.30751 0.0474474 0
M  V30 3162 C 291.625 -1.47678 -0.76029 0
M  V30 3163 O 292.81 -1.76441 -0.726177 0
M  V30 3164 C 289.95 -3.33815 -0.875309 0
M  V30 3165 C 289.063 -4.31961 -0.0580623 0
M  V30 3166 C 288.198 -5.22093 -0.979425 0
M  V30 3167 C 287.237 -6.11902 -0.155706 0
M  V30 3168 N 286.374 -6.94482 -1.03144 0
M  V30 3169 H 291.214 -2.86513 0.819413 0
M  V30 3170 H 288.751 -1.41102 0.415783 0
M  V30 3171 H 290.709 -3.92129 -1.42446 0
M  V30 3172 H 289.339 -2.79579 -1.61356 0
M  V30 3173 H 288.391 -3.75507 0.608147 0
M  V30 3174 H 289.703 -4.95415 0.580082 0
M  V30 3175 H 288.857 -5.85292 -1.59744 0
M  V30 3176 H 287.596 -4.5889 -1.65141 0
M  V30 3177 H 286.601 -5.47742 0.475309 0
M  V30 3178 H 287.826 -6.77162 0.512635 0
M  V30 3179 H 285.772 -6.33877 -1.68924 0
M  V30 3180 H 285.689 -7.54665 -0.449108 0
M  V30 3181 H 286.957 -7.6214 -1.63593 0
M  V30 3182 N 291.186 -0.45159 -1.50991 0
M  V30 3183 C 292.432 0.110237 -2.025 0
M  V30 3184 C 292.765 1.41109 -1.33424 0
M  V30 3185 O 292.04 1.89135 -0.453659 0
M  V30 3186 C 292.323 0.314271 -3.58726 0
M  V30 3187 C 292.176 -1.00623 -4.38401 0
M  V30 3188 C 293.495 1.07767 -4.26702 0
M  V30 3189 H 290.614 0.0385897 -0.735989 0
M  V30 3190 H 293.256 -0.593374 -1.80497 0
M  V30 3191 H 291.406 0.913601 -3.77605 0
M  V30 3192 H 293.078 -1.64064 -4.31139 0
M  V30 3193 H 291.321 -1.6075 -4.02917 0
M  V30 3194 H 291.992 -0.817341 -5.45915 0
M  V30 3195 H 294.468 0.56986 -4.12179 0
M  V30 3196 H 293.344 1.18921 -5.35863 0
M  V30 3197 H 293.605 2.10939 -3.88532 0
M  V30 3198 N 292.664 1.56529 -0.183458 0
M  V30 3199 C 293.913 1.96419 0.458511 0
M  V30 3200 C 294.226 1.0727 1.63562 0
M  V30 3201 O 295.432 1.36893 2.34462 0
M  V30 3202 C 293.888 3.49298 0.867122 0
M  V30 3203 C 293.496 4.47092 -0.285057 0
M  V30 3204 C 295.24 3.97983 1.47683 0
M  V30 3205 C 293.147 5.91225 0.143862 0
M  V30 3206 H 292.077 0.733394 0.175071 0
M  V30 3207 H 294.728 1.81448 -0.273624 0
M  V30 3208 H 293.11 3.59731 1.65559 0
M  V30 3209 H 294.284 4.48383 -1.0625 0
M  V30 3210 H 292.599 4.08535 -0.805503 0
M  V30 3211 H 295.196 5.03134 1.80999 0
M  V30 3212 H 295.539 3.41618 2.37914 0
M  V30 3213 H 296.072 3.90617 0.752562 0
M  V30 3214 H 292.811 6.5149 -0.723974 0
M  V30 3215 H 292.331 5.93214 0.886413 0
M  V30 3216 H 294.01 6.44362 0.583628 0
M  V30 3217 N 294.142 -0.090211 1.57342 0
M  V30 3218 C 295.388 -0.793982 1.86611 0
M  V30 3219 C 295.721 -1.78142 0.773252 0
M  V30 3220 O 294.996 -1.93271 -0.218304 0
M  V30 3221 C 295.279 -1.51839 3.26523 0
M  V30 3222 C 295.132 -0.548609 4.46442 0
M  V30 3223 C 296.451 -2.46779 3.64401 0
M  V30 3224 H 293.57 -0.287186 0.678744 0
M  V30 3225 H 296.212 -0.0575076 1.89913 0
M  V30 3226 H 294.362 -2.14617 3.23839 0
M  V30 3227 H 296.034 0.0725513 4.61243 0
M  V30 3228 H 294.277 0.137614 4.33582 0
M  V30 3229 H 294.948 -1.09271 5.41076 0
M  V30 3230 H 297.424 -1.94089 3.68061 0
M  V30 3231 H 296.3 -2.94479 4.63221 0
M  V30 3232 H 296.561 -3.30758 2.93346 0
M  V30 3233 N 295.62 -1.53406 -0.361157 0
M  V30 3234 C 296.85 -1.73465 -1.1222 0
M  V30 3235 C 297.258 -0.465486 -1.83384 0
M  V30 3236 O 296.601 0.571611 -1.7458 0
M  V30 3237 C 296.663 -2.84834 -2.19339 0
M  V30 3238 C 296.327 -4.25038 -1.67903 0
M  V30 3239 C 297.324 -5.07231 -1.14074 0
M  V30 3240 C 295.009 -4.71464 -1.73282 0
M  V30 3241 C 297.003 -6.33942 -0.663068 0
M  V30 3242 C 294.69 -5.98153 -1.25127 0
M  V30 3243 C 295.688 -6.79223 -0.717296 0
M  V30 3244 O 295.376 -8.03533 -0.242865 0
M  V30 3245 H 295.108 -0.583526 -0.341283 0
M  V30 3246 H 297.662 -2.00964 -0.424591 0
M  V30 3247 H 295.892 -2.5282 -2.92607 0
M  V30 3248 H 297.581 -2.9303 -2.80871 0
M  V30 3249 H 298.347 -4.72534 -1.09254 0
M  V30 3250 H 294.226 -4.08432 -2.13786 0
M  V30 3251 H 297.77 -6.97167 -0.245612 0
M  V30 3252 H 293.667 -6.32347 -1.29642 0
M  V30 3253 H 294.435 -8.177 -0.361786 0
M  V30 3254 N 297.098 0.621204 -1.44841 0
M  V30 3255 C 298.045 1.73267 -1.5247 0
M  V30 3256 C 299.015 1.6189 -0.371611 0
M  V30 3257 O 300.2 1.81668 -0.58321 0
M  V30 3258 C 297.34 3.11545 -1.48438 0
M  V30 3259 C 296.453 3.33827 -2.74196 0
M  V30 3260 C 295.588 4.62133 -2.61929 0
M  V30 3261 C 294.627 4.77627 -3.82804 0
M  V30 3262 N 293.764 5.97219 -3.69153 0
M  V30 3263 H 298.604 1.66082 -2.47428 0
M  V30 3264 H 296.141 0.810026 -1.22788 0
M  V30 3265 H 298.099 3.91528 -1.4409 0
M  V30 3266 H 296.729 3.1772 -0.570402 0
M  V30 3267 H 295.781 2.47715 -2.88689 0
M  V30 3268 H 297.093 3.41153 -3.6389 0
M  V30 3269 H 296.247 5.50291 -2.5547 0
M  V30 3270 H 294.986 4.57182 -1.69811 0
M  V30 3271 H 293.991 3.87896 -3.89637 0
M  V30 3272 H 295.216 4.84385 -4.75971 0
M  V30 3273 H 293.162 5.93339 -2.79794 0
M  V30 3274 H 293.079 6.05644 -4.52472 0
M  V30 3275 H 294.347 6.87912 -3.66603 0
M  V30 3276 N 298.576 1.31904 0.862503 0
M  V30 3277 C 299.524 1.20125 1.9918 0
M  V30 3278 C 300.518 0.107824 1.69056 0
M  V30 3279 O 301.724 0.270223 1.7796 0
M  V30 3280 H 298.099 0.372148 0.65346 0
M  V30 3281 H 300.07 2.15652 2.06244 0
M  V30 3282 C 298.819 0.933099 3.34946 0
M  V30 3283 H 298.142 1.76664 3.5865 0
M  V30 3284 H 299.582 0.890892 4.14535 0
M  V30 3285 C 298.041 -0.364172 3.34926 0
M  V30 3286 O 298.571 -1.37858 3.77304 0
M  V30 3287 N 296.777 -0.383362 2.8806 0
M  V30 3288 H 296.324 0.442651 2.53768 0
M  V30 3289 H 296.282 -1.25123 2.8843 0
M  V30 3290 N 300.054 -1.07777 1.14986 0
M  V30 3291 C 301.279 -1.84558 0.946213 0
M  V30 3292 C 301.704 -1.81323 -0.500362 0
M  V30 3293 O 301.062 -1.20301 -1.35637 0
M  V30 3294 C 301.11 -3.29736 1.45968 0
M  V30 3295 O 300.214 -4.07149 0.65601 0
M  V30 3296 H 299.555 -0.571641 0.33782 0
M  V30 3297 H 302.085 -1.35991 1.52865 0
M  V30 3298 H 302.095 -3.80574 1.47063 0
M  V30 3299 H 300.77 -3.31406 2.51283 0
M  V30 3300 H 299.347 -3.65994 0.714322 0
M  V30 3301 N 301.532 -0.945985 -1.26051 0
M  V30 3302 C 302.772 -0.603665 -1.95282 0
M  V30 3303 C 303.136 0.842377 -1.72534 0
M  V30 3304 O 304.337 1.29387 -2.35611 0
M  V30 3305 C 302.608 -0.942292 -3.44754 0
M  V30 3306 S 304.167 -0.711242 -4.32997 0
M  V30 3307 H 300.985 -0.222176 -0.675395 0
M  V30 3308 H 303.587 -1.21832 -1.52896 0
M  V30 3309 H 302.291 -1.99203 -3.58812 0
M  V30 3310 H 301.822 -0.317546 -3.92116 0
M  V30 3311 H 303.837 0.422221 -4.944 0
M  V30 3312 N 303.011 1.40521 -0.713556 0
M  V30 3313 C 304.258 2.00923 -0.25219 0
M  V30 3314 C 304.586 1.56571 1.15395 0
M  V30 3315 O 303.841 0.775874 1.79663 0
M  V30 3316 C 304.14 3.56317 -0.278 0
M  V30 3317 C 303.806 4.20246 -1.63415 0
M  V30 3318 C 302.468 4.37422 -2.00538 0
M  V30 3319 C 304.82 4.55923 -2.52554 0
M  V30 3320 C 302.148 4.87558 -3.2635 0
M  V30 3321 C 304.5 5.07458 -3.77716 0
M  V30 3322 C 303.164 5.22843 -4.14959 0
M  V30 3323 H 302.434 0.735231 -0.0922829 0
M  V30 3324 H 305.081 1.68161 -0.916188 0
M  V30 3325 H 303.386 3.88976 0.469567 0
M  V30 3326 H 305.083 4.00883 0.0967819 0
M  V30 3327 H 301.673 4.07263 -1.33546 0
M  V30 3328 H 305.857 4.42291 -2.25149 0
M  V30 3329 H 301.113 4.97654 -3.55176 0
M  V30 3330 H 305.287 5.34041 -4.4696 0
M  V30 3331 H 302.914 5.61454 -5.12516 0
M  V30 3332 N 304.489 0.459591 1.5075 0
M  V30 3333 C 305.719 -0.0972338 2.06371 0
M  V30 3334 C 306.127 -1.35074 1.32483 0
M  V30 3335 O 305.47 -1.79637 0.384226 0
M  V30 3336 C 305.532 -0.462759 3.56509 0
M  V30 3337 C 305.196 0.687084 4.51805 0
M  V30 3338 C 306.193 1.56578 4.95761 0
M  V30 3339 C 303.878 0.874144 4.94635 0
M  V30 3340 C 305.872 2.61604 5.81242 0
M  V30 3341 C 303.559 1.92765 5.79901 0
M  V30 3342 C 304.557 2.79697 6.23104 0
M  V30 3343 O 304.245 3.83235 7.06673 0
M  V30 3344 H 303.977 -0.00140687 0.675999 0
M  V30 3345 H 306.531 0.644011 1.95043 0
M  V30 3346 H 304.761 -1.25703 3.65699 0
M  V30 3347 H 306.45 -0.953323 3.94546 0
M  V30 3348 H 307.216 1.4329 4.6335 0
M  V30 3349 H 303.095 0.207006 4.60535 0
M  V30 3350 H 306.639 3.29489 6.14884 0
M  V30 3351 H 302.536 2.06064 6.11725 0
M  V30 3352 H 303.304 3.80084 7.24899 0
M  V30 3353 N 305.967 -1.56429 0.191757 0
M  V30 3354 C 307.213 -1.97777 -0.448554 0
M  V30 3355 C 307.546 -1.07847 -1.61501 0
M  V30 3356 O 306.821 -0.129774 -1.94067 0
M  V30 3357 C 307.104 -3.48362 -0.911906 0
M  V30 3358 C 306.957 -4.4907 0.256136 0
M  V30 3359 C 308.276 -4.02561 -1.77857 0
M  V30 3360 H 305.395 -0.719071 -0.161572 0
M  V30 3361 H 308.037 -1.87896 0.282007 0
M  V30 3362 H 306.187 -3.56914 -1.53442 0
M  V30 3363 H 307.859 -4.5256 0.893733 0
M  V30 3364 H 306.102 -4.24181 0.908436 0
M  V30 3365 H 306.773 -5.51889 -0.11053 0
M  V30 3366 H 309.249 -3.96767 -1.25359 0
M  V30 3367 H 308.125 -5.08301 -2.07174 0
M  V30 3368 H 308.386 -3.47616 -2.73158 0
M  V30 3369 N 307.445 0.0818655 -1.57387 0
M  V30 3370 C 308.377 1.12484 -1.997 0
M  V30 3371 C 309.39 1.35564 -0.90146 0
M  V30 3372 O 310.579 1.33982 -1.17945 0
M  V30 3373 C 307.679 2.47778 -2.31213 0
M  V30 3374 C 306.852 2.44793 -3.62485 0
M  V30 3375 C 305.911 3.62117 -3.81782 0
M  V30 3376 O 304.937 3.44005 -4.53486 0
M  V30 3377 N 306.139 4.82094 -3.23367 0
M  V30 3378 H 308.904 0.764585 -2.89783 0
M  V30 3379 H 306.465 0.270664 -1.59621 0
M  V30 3380 H 308.457 3.24891 -2.41304 0
M  V30 3381 H 307.027 2.75843 -1.4707 0
M  V30 3382 H 306.247 1.53134 -3.6324 0
M  V30 3383 H 307.535 2.39889 -4.48699 0
M  V30 3384 H 306.933 4.99713 -2.65148 0
M  V30 3385 H 305.49 5.56753 -3.38923 0
M  V30 3386 N 308.923 1.53595 0.353017 0
M  V30 3387 C 309.871 1.81605 1.45335 0
M  V30 3388 C 310.865 0.685923 1.54892 0
M  V30 3389 O 312.071 0.869095 1.57628 0
M  V30 3390 H 308.446 0.575204 0.484401 0
M  V30 3391 H 310.417 2.73679 1.18921 0
M  V30 3392 C 309.166 2.03406 2.81995 0
M  V30 3393 H 308.489 2.89814 2.75405 0
M  V30 3394 H 309.929 2.26975 3.58132 0
M  V30 3395 C 308.388 0.816794 3.26849 0
M  V30 3396 O 308.918 0.0115856 4.01698 0
M  V30 3397 N 307.124 0.636682 2.8354 0
M  V30 3398 H 306.671 1.2931 2.22793 0
M  V30 3399 H 306.629 -0.176336 3.13905 0
M  V30 3400 N 310.401 -0.613514 1.45168 0
M  V30 3401 C 311.331 -1.7354 1.56225 0
M  V30 3402 C 312.312 -1.64981 0.41414 0
M  V30 3403 O 313.497 -1.83472 0.636526 0
M  V30 3404 C 310.627 -3.12128 1.52295 0
M  V30 3405 C 309.581 -3.35491 2.65762 0
M  V30 3406 C 308.907 -4.74291 2.46885 0
M  V30 3407 C 310.207 -3.26325 4.0781 0
M  V30 3408 H 311.901 -1.64543 2.50132 0
M  V30 3409 H 309.447 -0.790185 1.20383 0
M  V30 3410 H 311.4 -3.90404 1.58628 0
M  V30 3411 H 310.124 -3.2195 0.549139 0
M  V30 3412 H 308.783 -2.59603 2.58847 0
M  V30 3413 H 308.431 -4.80839 1.47657 0
M  V30 3414 H 308.131 -4.9088 3.22972 0
M  V30 3415 H 309.655 -5.54775 2.55063 0
M  V30 3416 H 311.069 -3.94483 4.16 0
M  V30 3417 H 309.466 -3.54445 4.8424 0
M  V30 3418 H 310.536 -2.23855 4.30136 0
M  V30 3419 N 311.879 -1.3236 -0.855495 0
M  V30 3420 C 313.156 -1.13491 -1.59309 0
M  V30 3421 C 313.536 0.30503 -2.08885 0
M  V30 3422 O 312.884 1.30151 -1.87811 0
M  V30 3423 C 313.094 -2.16176 -2.73987 0
M  V30 3424 C 314.442 -2.49463 -3.43589 0
M  V30 3425 O 315.466 -2.14715 -2.84211 0
M  V30 3426 O 314.325 -3.09027 -4.50738 0
M  V30 3427 H 311.419 -0.437887 -0.701559 0
M  V30 3428 H 313.965 -1.43887 -0.899696 0
M  V30 3429 H 312.737 -3.1297 -2.34873 0
M  V30 3430 H 312.36 -1.86769 -3.51003 0
M  V30 3431 N 313.357 1.07166 -1.15556 0
M  V30 3432 C 314.587 1.83248 -0.954133 0
M  V30 3433 C 314.995 1.82449 0.500911 0
M  V30 3434 O 314.338 1.23575 1.35923 0
M  V30 3435 C 314.4 3.31393 -1.39351 0
M  V30 3436 C 314.064 3.5591 -2.86666 0
M  V30 3437 C 315.061 3.49695 -3.8472 0
M  V30 3438 C 312.746 3.83515 -3.24379 0
M  V30 3439 C 314.74 3.70737 -5.18491 0
M  V30 3440 C 312.427 4.04209 -4.58321 0
M  V30 3441 C 313.425 3.97815 -5.55186 0
M  V30 3442 O 313.113 4.17954 -6.86709 0
M  V30 3443 H 312.845 0.584941 -0.338851 0
M  V30 3444 H 315.399 1.36169 -1.53777 0
M  V30 3445 H 313.629 3.79292 -0.75329 0
M  V30 3446 H 315.318 3.88945 -1.16089 0
M  V30 3447 H 316.084 3.28368 -3.56931 0
M  V30 3448 H 311.963 3.87605 -2.49567 0
M  V30 3449 H 315.507 3.65663 -5.94085 0
M  V30 3450 H 311.404 4.25023 -4.85825 0
M  V30 3451 H 312.172 4.35291 -6.93155 0
M  V30 3452 N 314.835 0.952656 1.25548 0
M  V30 3453 C 315.765 0.489287 2.28316 0
M  V30 3454 C 316.746 -0.463359 1.63667 0
M  V30 3455 O 317.931 -0.36274 1.90782 0
M  V30 3456 C 315.061 -0.235603 3.465 0
M  V30 3457 C 314.015 0.631593 4.23314 0
M  V30 3458 C 313.341 -0.223923 5.34231 0
M  V30 3459 C 314.641 1.90871 4.86174 0
M  V30 3460 H 316.335 1.34822 2.67326 0
M  V30 3461 H 313.881 0.649728 1.28509 0
M  V30 3462 H 315.834 -0.570882 4.17515 0
M  V30 3463 H 314.558 -1.12877 3.06474 0
M  V30 3464 H 313.217 0.949929 3.54079 0
M  V30 3465 H 312.865 -1.11678 4.90446 0
M  V30 3466 H 312.565 0.35299 5.86539 0
M  V30 3467 H 314.089 -0.554214 6.0808 0
M  V30 3468 H 315.503 1.63997 5.49343 0
M  V30 3469 H 313.9 2.43112 5.4865 0
M  V30 3470 H 314.97 2.61304 4.08471 0
M  V30 3471 N 316.313 -1.40141 0.720998 0
M  V30 3472 C 317.26 -2.30688 0.071919 0
M  V30 3473 C 318.23 -1.48476 -0.744584 0
M  V30 3474 O 319.415 -1.77201 -0.707423 0
M  V30 3475 C 316.555 -3.34724 -0.839855 0
M  V30 3476 C 315.668 -4.31998 -0.0122438 0
M  V30 3477 C 314.803 -5.23102 -0.923995 0
M  V30 3478 C 313.842 -6.12033 -0.0907969 0
M  V30 3479 N 312.979 -6.95537 -0.957718 0
M  V30 3480 H 317.819 -2.85628 0.849755 0
M  V30 3481 H 315.356 -1.40653 0.430726 0
M  V30 3482 H 317.314 -3.93618 -1.38279 0
M  V30 3483 H 315.944 -2.81274 -1.58381 0
M  V30 3484 H 314.996 -3.74841 0.64794 0
M  V30 3485 H 316.308 -4.94772 0.632595 0
M  V30 3486 H 315.462 -5.86953 -1.53527 0
M  V30 3487 H 314.201 -4.60615 -1.60264 0
M  V30 3488 H 313.206 -5.47207 0.533377 0
M  V30 3489 H 314.431 -6.76581 0.584428 0
M  V30 3490 H 312.377 -6.35633 -1.62192 0
M  V30 3491 H 312.294 -7.55099 -0.36904 0
M  V30 3492 H 313.562 -7.63832 -1.555 0
M  V30 3493 N 317.792 -0.46758 -1.50504 0
M  V30 3494 C 319.208 -0.121533 -1.59137 0
M  V30 3495 C 319.408 1.3717 -1.47603 0
M  V30 3496 O 318.464 2.14464 -1.33272 0
M  V30 3497 C 319.777 -0.6686 -2.93173 0
M  V30 3498 C 321.325 -0.631716 -3.06559 0
M  V30 3499 C 321.8 -1.15627 -4.43164 0
M  V30 3500 N 323.291 -1.11553 -4.49567 0
M  V30 3501 C 324.026 -1.49195 -5.5365 0
M  V30 3502 N 323.522 -1.94269 -6.65005 0
M  V30 3503 N 325.315 -1.4082 -5.44175 0
M  V30 3504 H 317.466 -1.4388 -1.56245 0
M  V30 3505 H 319.729 -0.594784 -0.738198 0
M  V30 3506 H 319.435 -1.71453 -3.07078 0
M  V30 3507 H 319.309 -0.11021 -3.77039 0
M  V30 3508 H 321.696 0.405297 -2.92304 0
M  V30 3509 H 321.777 -1.22687 -2.24458 0
M  V30 3510 H 321.421 -2.1919 -4.58168 0
M  V30 3511 H 321.351 -0.537365 -5.23851 0
M  V30 3512 H 323.842 -0.784895 -3.69659 0
M  V30 3513 H 324.155 -2.21148 -7.40482 0
M  V30 3514 H 322.5 -1.98219 -6.66134 0
M  V30 3515 H 325.691 -1.0545 -4.56068 0
M  V30 3516 H 325.864 -1.70481 -6.25172 0
M  V30 3517 N 319.27 1.56325 -0.20005 0
M  V30 3518 C 320.5 2.01811 0.442232 0
M  V30 3519 C 320.908 1.07932 1.55394 0
M  V30 3520 O 320.251 0.0772685 1.83537 0
M  V30 3521 C 320.313 3.43685 1.05457 0
M  V30 3522 C 319.977 4.56928 0.0809833 0
M  V30 3523 C 320.974 5.15009 -0.711471 0
M  V30 3524 C 318.659 5.0229 -0.0315364 0
M  V30 3525 C 320.653 6.16904 -1.60336 0
M  V30 3526 C 318.34 6.04028 -0.926981 0
M  V30 3527 C 319.338 6.6121 -1.71146 0
M  V30 3528 O 319.026 7.60971 -2.59189 0
M  V30 3529 H 318.758 0.666173 0.114848 0
M  V30 3530 H 321.312 2.03085 -0.307511 0
M  V30 3531 H 319.542 3.39413 1.85299 0
M  V30 3532 H 321.231 3.72948 1.60201 0
M  V30 3533 H 321.997 4.80827 -0.634873 0
M  V30 3534 H 317.876 4.57476 0.568902 0
M  V30 3535 H 321.42 6.61464 -2.21611 0
M  V30 3536 H 317.317 6.37634 -1.00468 0
M  V30 3537 H 318.085 7.7841 -2.53023 0
M  V30 3538 N 320.748 -0.0735177 1.57428 0
M  V30 3539 C 321.711 -1.07192 2.02589 0
M  V30 3540 C 322.711 -1.31695 0.922661 0
M  V30 3541 O 323.901 -1.27445 1.18758 0
M  V30 3542 C 321.033 -2.41599 2.40506 0
M  V30 3543 H 322.226 -0.682727 2.92025 0
M  V30 3544 H 319.779 -0.319193 1.53006 0
M  V30 3545 H 320.514 -2.85354 1.5409 0
M  V30 3546 H 320.299 -2.25156 3.21009 0
M  V30 3547 H 321.789 -3.13367 2.76027 0
M  V30 3548 N 322.226 -1.5378 -0.344866 0
M  V30 3549 C 323.637 -1.62428 -0.920552 0
M  V30 3550 C 323.988 -0.504747 -1.89596 0
M  V30 3551 O 323.113 0.365711 -2.13287 0
M  V30 3552 C 323.708 -2.94419 -1.67639 0
M  V30 3553 C 322.267 -3.05333 -2.20111 0
M  V30 3554 C 321.414 -2.57866 -1.01982 0
M  V30 3555 H 324.365 -1.58222 -0.123042 0
M  V30 3556 H 324.386 -2.83384 -2.53917 0
M  V30 3557 H 323.898 -3.7588 -0.966224 0
M  V30 3558 H 321.999 -2.28502 -2.94308 0
M  V30 3559 H 322.112 -4.10778 -2.46573 0
M  V30 3560 H 320.476 -2.13241 -1.39285 0
M  V30 3561 H 321.259 -3.41765 -0.324308 0
M  V30 3562 N 323.704 0.605807 -1.45491 0
M  V30 3563 C 324.651 1.7164 -1.54299 0
M  V30 3564 C 325.621 1.61486 -0.388761 0
M  V30 3565 O 326.806 1.81039 -0.602445 0
M  V30 3566 C 323.946 3.09953 -1.51734 0
M  V30 3567 C 323.059 3.309 -2.77721 0
M  V30 3568 C 322.194 4.59329 -2.66816 0
M  V30 3569 C 321.233 4.7354 -3.87848 0
M  V30 3570 N 320.37 5.9327 -3.75467 0
M  V30 3571 H 325.21 1.63449 -2.49176 0
M  V30 3572 H 322.747 0.796957 -1.23641 0
M  V30 3573 H 324.705 3.89977 -1.48235 0
M  V30 3574 H 323.335 3.17098 -0.604068 0
M  V30 3575 H 322.387 2.44639 -2.913 0
M  V30 3576 H 323.699 3.37274 -3.67488 0
M  V30 3577 H 322.853 5.4755 -2.61292 0
M  V30 3578 H 321.592 4.55355 -1.74651 0
M  V30 3579 H 320.597 3.83741 -3.93729 0
M  V30 3580 H 321.822 4.79309 -4.81082 0
M  V30 3581 H 319.768 5.90338 -2.86072 0
M  V30 3582 H 319.685 6.00811 -4.5887 0
M  V30 3583 H 320.953 6.83984 -3.73879 0
M  V30 3584 N 325.182 1.32811 0.848464 0
M  V30 3585 C 326.112 1.24882 1.97299 0
M  V30 3586 C 327.093 0.131357 1.69592 0
M  V30 3587 O 328.278 0.319553 1.91553 0
M  V30 3588 C 325.408 0.97746 3.33261 0
M  V30 3589 C 324.362 2.05682 3.75338 0
M  V30 3590 C 323.688 1.63777 5.09 0
M  V30 3591 C 324.988 3.47254 3.90144 0
M  V30 3592 H 326.682 2.18966 2.04191 0
M  V30 3593 H 324.228 1.05413 0.981029 0
M  V30 3594 H 326.181 0.908513 4.1149 0
M  V30 3595 H 324.905 0.000980011 3.266 0
M  V30 3596 H 323.564 2.11603 2.99366 0
M  V30 3597 H 323.212 0.648569 4.98801 0
M  V30 3598 H 322.912 2.36 5.38124 0
M  V30 3599 H 324.436 1.5833 5.89715 0
M  V30 3600 H 325.85 3.43888 4.58709 0
M  V30 3601 H 324.247 4.1788 4.30693 0
M  V30 3602 H 325.317 3.86462 2.92874 0
M  V30 3603 N 326.66 -1.06551 1.16123 0
M  V30 3604 C 327.937 -1.76097 0.85142 0
M  V30 3605 C 328.317 -2.00802 -0.6513 0
M  V30 3606 O 327.665 -1.63302 -1.59827 0
M  V30 3607 C 327.875 -3.06384 1.67122 0
M  V30 3608 C 329.223 -3.80585 1.88255 0
M  V30 3609 O 330.247 -3.16218 1.63966 0
M  V30 3610 O 329.106 -4.96212 2.2899 0
M  V30 3611 H 326.2 -0.765102 0.313923 0
M  V30 3612 H 328.746 -1.12844 1.26745 0
M  V30 3613 H 327.518 -2.84071 2.69108 0
M  V30 3614 H 327.141 -3.77371 1.25206 0
M  V30 3615 N 328.138 -0.959301 -1.25041 0
M  V30 3616 C 329.048 -0.489994 -2.29426 0
M  V30 3617 C 330.064 0.444944 -1.68215 0
M  V30 3618 O 331.24 0.320046 -1.98841 0
M  V30 3619 C 328.305 0.220309 -3.45999 0
M  V30 3620 C 327.366 -0.753418 -4.22637 0
M  V30 3621 C 326.599 -0.076918 -5.33645 0
M  V30 3622 O 326.822 1.13649 -5.58963 0
M  V30 3623 O 325.756 -0.764824 -5.97021 0
M  V30 3624 H 329.582 -1.35755 -2.71669 0
M  V30 3625 H 327.167 -0.725961 -1.30576 0
M  V30 3626 H 329.049 0.619677 -4.16819 0
M  V30 3627 H 327.724 1.06296 -3.0575 0
M  V30 3628 H 326.631 -1.20308 -3.54227 0
M  V30 3629 H 327.964 -1.56423 -4.66683 0
M  V30 3630 N 329.616 1.39756 -0.72842 0
M  V30 3631 C 330.862 2.01425 -0.282761 0
M  V30 3632 C 331.217 1.56754 1.11561 0
M  V30 3633 O 330.51 0.783482 1.74849 0
M  V30 3634 C 330.704 3.56002 -0.315776 0
M  V30 3635 C 330.533 4.1568 -1.71582 0
M  V30 3636 C 329.303 4.48555 -2.32651 0
M  V30 3637 C 331.501 4.39667 -2.66829 0
M  V30 3638 N 329.483 4.93698 -3.64877 0
M  V30 3639 C 330.854 4.86942 -3.8378 0
M  V30 3640 C 332.909 4.21724 -2.64675 0
M  V30 3641 C 331.612 5.18158 -4.98904 0
M  V30 3642 C 333.638 4.54049 -3.78937 0
M  V30 3643 C 333 5.01525 -4.94623 0
M  V30 3644 H 329.099 0.76756 -0.149583 0
M  V30 3645 H 331.683 1.69784 -0.952976 0
M  V30 3646 H 329.854 3.87046 0.324057 0
M  V30 3647 H 331.586 4.0443 0.147808 0
M  V30 3648 H 328.341 4.36128 -1.84633 0
M  V30 3649 H 328.765 5.20635 -4.32744 0
M  V30 3650 H 333.407 3.84228 -1.76433 0
M  V30 3651 H 331.125 5.54562 -5.87781 0
M  V30 3652 H 334.711 4.41795 -3.78561 0
M  V30 3653 H 333.591 5.26065 -5.81572 0
M  V30 3654 N 331.094 0.475555 1.50254 0
M  V30 3655 C 332.341 -0.0778919 2.0235 0
M  V30 3656 C 332.669 -1.39319 1.35722 0
M  V30 3657 O 331.924 -1.89888 0.473395 0
M  V30 3658 C 332.223 -0.305114 3.56095 0
M  V30 3659 C 331.889 0.92903 4.41225 0
M  V30 3660 C 330.551 1.26739 4.6421 0
M  V30 3661 C 332.903 1.75054 4.90923 0
M  V30 3662 C 330.231 2.42724 5.34137 0
M  V30 3663 C 332.583 2.9017 5.62125 0
M  V30 3664 C 331.247 3.24416 5.83362 0
M  V30 3665 H 330.517 -0.0285027 0.740452 0
M  V30 3666 H 333.164 0.630543 1.80821 0
M  V30 3667 H 331.469 -1.09584 3.76163 0
M  V30 3668 H 333.166 -0.747377 3.93974 0
M  V30 3669 H 329.756 0.655428 4.23559 0
M  V30 3670 H 333.94 1.50231 4.73016 0
M  V30 3671 H 329.196 2.69525 5.48786 0
M  V30 3672 H 333.37 3.54169 5.99614 0
M  V30 3673 H 330.997 4.14396 6.37323 0
M  V30 3674 N 332.573 -1.56217 0.208337 0
M  V30 3675 C 333.803 -2.02043 -0.431523 0
M  V30 3676 C 334.211 -1.08755 -1.54819 0
M  V30 3677 O 333.554 -0.0870009 -1.83494 0
M  V30 3678 C 333.616 -3.44239 -1.03633 0
M  V30 3679 C 333.28 -4.56965 -0.0567502 0
M  V30 3680 C 334.277 -5.14624 0.738773 0
M  V30 3681 C 331.962 -5.02266 0.0581736 0
M  V30 3682 C 333.956 -6.16045 1.63605 0
M  V30 3683 C 331.643 -6.03528 0.959001 0
M  V30 3684 C 332.641 -6.60293 1.7465 0
M  V30 3685 O 332.329 -7.59586 2.6322 0
M  V30 3686 H 332.061 -0.666772 -0.111313 0
M  V30 3687 H 334.615 -2.02919 0.318277 0
M  V30 3688 H 332.845 -3.40391 -1.83497 0
M  V30 3689 H 334.534 -3.73793 -1.58221 0
M  V30 3690 H 335.3 -4.80483 0.660364 0
M  V30 3691 H 331.179 -4.57771 -0.544633 0
M  V30 3692 H 334.723 -6.60279 2.25116 0
M  V30 3693 H 330.62 -6.37092 1.03848 0
M  V30 3694 H 331.388 -7.77057 2.57148 0
M  V30 3695 N 334.051 0.0651679 -1.57465 0
M  V30 3696 C 334.981 1.07693 -2.07182 0
M  V30 3697 C 335.962 1.39962 -0.966673 0
M  V30 3698 O 337.147 1.49475 -1.2398 0
M  V30 3699 C 334.277 2.3885 -2.52127 0
M  V30 3700 C 333.231 2.20917 -3.66579 0
M  V30 3701 C 332.557 3.57515 -3.97601 0
M  V30 3702 C 333.857 1.62493 -4.9638 0
M  V30 3703 H 335.551 0.663199 -2.91962 0
M  V30 3704 H 333.097 0.317569 -1.40455 0
M  V30 3705 H 335.05 3.09928 -2.85522 0
M  V30 3706 H 333.774 2.82215 -1.64384 0
M  V30 3707 H 332.433 1.52279 -3.33477 0
M  V30 3708 H 332.081 3.98463 -3.06979 0
M  V30 3709 H 331.781 3.46353 -4.74672 0
M  V30 3710 H 333.305 4.30013 -4.33499 0
M  V30 3711 H 334.719 2.23445 -5.27963 0
M  V30 3712 H 333.116 1.62009 -5.77818 0
M  V30 3713 H 334.186 0.587041 -4.81333 0
M  V30 3714 N 335.529 1.53961 0.336706 0
M  V30 3715 C 336.492 1.81724 1.39675 0
M  V30 3716 C 337.492 0.688532 1.45313 0
M  V30 3717 O 338.682 0.956829 1.45569 0
M  V30 3718 C 335.814 1.96543 2.78538 0
M  V30 3719 H 337.007 2.76424 1.16318 0
M  V30 3720 H 334.56 1.45478 0.571474 0
M  V30 3721 H 335.295 1.0401 3.07168 0
M  V30 3722 H 335.08 2.78665 2.75841 0
M  V30 3723 H 336.57 2.19516 3.5525 0
M  V30 3724 N 337.007 -0.598083 1.45811 0
M  V30 3725 C 338.247 -1.36802 1.5187 0
M  V30 3726 C 338.611 -1.9133 0.160224 0
M  V30 3727 O 339.812 -2.6863 0.0955302 0
M  V30 3728 C 338.083 -2.47835 2.57513 0
M  V30 3729 S 339.642 -3.35458 2.82866 0
M  V30 3730 H 336.46 -0.466278 0.536755 0
M  V30 3731 H 339.062 -0.689152 1.82951 0
M  V30 3732 H 337.766 -2.06141 3.54872 0
M  V30 3733 H 337.297 -3.20512 2.28114 0
M  V30 3734 H 339.312 -4.46251 2.16967 0
M  V30 3735 N 338.485 -1.33259 -0.841409 0
M  V30 3736 C 339.896 -1.22066 -1.41269 0
M  V30 3737 C 340.247 0.161479 -1.95534 0
M  V30 3738 O 339.372 1.06094 -1.88608 0
M  V30 3739 C 339.967 -2.20996 -2.568 0
M  V30 3740 C 338.526 -2.13649 -3.09888 0
M  V30 3741 C 337.673 -2.08623 -1.82679 0
M  V30 3742 H 340.624 -1.44895 -0.647395 0
M  V30 3743 H 340.645 -1.81621 -3.34356 0
M  V30 3744 H 340.157 -3.2158 -2.17274 0
M  V30 3745 H 338.258 -1.16359 -3.53965 0
M  V30 3746 H 338.371 -3.04079 -3.70234 0
M  V30 3747 H 336.735 -1.54061 -2.02824 0
M  V30 3748 H 337.518 -3.1101 -1.45353 0
M  V30 3749 N 339.963 1.05934 -1.16686 0
M  V30 3750 C 340.926 2.11669 -0.879144 0
M  V30 3751 C 341.926 1.60294 0.127445 0
M  V30 3752 O 343.116 1.7389 -0.103865 0
M  V30 3753 C 340.248 3.39438 -0.315425 0
M  V30 3754 H 341.441 2.38626 -1.81653 0
M  V30 3755 H 338.994 1.22058 -0.976299 0
M  V30 3756 H 339.729 3.18132 0.629468 0
M  V30 3757 H 339.514 3.78034 -1.04079 0
M  V30 3758 H 341.004 4.17391 -0.132189 0
M  V30 3759 N 341.441 0.965919 1.2453 0
M  V30 3760 C 342.669 0.644385 1.96609 0
M  V30 3761 C 343.084 -0.785823 1.71669 0
M  V30 3762 O 342.441 -1.52703 0.999399 0
M  V30 3763 C 342.492 0.907375 3.49927 0
M  V30 3764 O 342.213 2.28136 3.74013 0
M  V30 3765 C 343.714 0.599784 4.39224 0
M  V30 3766 H 340.934 0.240588 0.626385 0
M  V30 3767 H 343.478 1.29337 1.58405 0
M  V30 3768 H 341.633 0.304631 3.862 0
M  V30 3769 H 342.047 2.36002 4.68405 0
M  V30 3770 H 343.521 0.834263 5.45659 0
M  V30 3771 H 343.998 -0.465921 4.36722 0
M  V30 3772 H 344.604 1.18235 4.08535 0
M  V30 3773 N 342.919 -1.39368 0.735821 0
M  V30 3774 C 344.165 -2.01272 0.293439 0
M  V30 3775 C 344.52 -1.57344 -1.10728 0
M  V30 3776 O 343.813 -0.792744 -1.74431 0
M  V30 3777 C 344.007 -3.5583 0.334651 0
M  V30 3778 C 343.836 -4.14764 1.73784 0
M  V30 3779 C 342.606 -4.47315 2.35026 0
M  V30 3780 C 344.804 -4.38246 2.69157 0
M  V30 3781 N 342.786 -4.91756 3.6749 0
M  V30 3782 C 344.157 -4.849 3.86357 0
M  V30 3783 C 346.212 -4.20315 2.66908 0
M  V30 3784 C 344.915 -5.15505 5.01645 0
M  V30 3785 C 346.941 -4.52033 3.8134 0
M  V30 3786 C 346.303 -4.98895 4.97276 0
M  V30 3787 H 342.402 -0.766756 0.153652 0
M  V30 3788 H 344.986 -1.69276 0.961967 0
M  V30 3789 H 343.157 -3.87212 -0.303527 0
M  V30 3790 H 344.889 -4.04503 -0.126358 0
M  V30 3791 H 341.644 -4.35143 1.86943 0
M  V30 3792 H 342.068 -5.18333 4.35499 0
M  V30 3793 H 346.71 -3.83287 1.78468 0
M  V30 3794 H 344.428 -5.51437 5.90713 0
M  V30 3795 H 348.014 -4.39781 3.80899 0
M  V30 3796 H 346.894 -5.22973 5.84353 0
M  V30 3797 N 344.397 -0.483516 -1.5 0
M  V30 3798 C 345.645 0.067027 -2.01989 0
M  V30 3799 C 345.966 1.3909 -1.36671 0
M  V30 3800 O 345.236 1.88978 -0.516152 0
M  V30 3801 H 343.816 0.0277606 -0.746484 0
M  V30 3802 H 346.478 -0.636773 -1.84204 0
M  V30 3803 H 345.574 0.209484 -3.11396 0
M  V30 3804 N 345.875 1.56104 -0.216619 0
M  V30 3805 C 346.822 2.2007 0.695531 0
M  V30 3806 C 347.792 1.15471 1.19397 0
M  V30 3807 O 348.977 1.43807 1.25396 0
M  V30 3808 C 346.117 2.88073 1.90021 0
M  V30 3809 C 345.23 4.07253 1.44113 0
M  V30 3810 C 344.365 4.63052 2.603 0
M  V30 3811 C 343.404 5.74545 2.11103 0
M  V30 3812 N 342.541 6.24656 3.20545 0
M  V30 3813 H 347.381 2.97655 0.143327 0
M  V30 3814 H 344.918 1.46982 0.0589934 0
M  V30 3815 H 346.876 3.25681 2.60745 0
M  V30 3816 H 345.506 2.13015 2.42538 0
M  V30 3817 H 344.558 3.75164 0.628999 0
M  V30 3818 H 345.87 4.8783 1.04036 0
M  V30 3819 H 345.024 5.03078 3.39113 0
M  V30 3820 H 343.763 3.81628 3.03663 0
M  V30 3821 H 342.768 5.34027 1.3075 0
M  V30 3822 H 343.993 6.57801 1.68746 0
M  V30 3823 H 341.939 5.46148 3.63399 0
M  V30 3824 H 341.856 7.00343 2.84704 0
M  V30 3825 H 343.124 6.69338 3.99508 0
M  V30 3826 N 347.353 -0.0568162 1.57498 0
M  V30 3827 C 348.283 -1.06593 2.0775 0
M  V30 3828 C 349.264 -1.39448 0.974082 0
M  V30 3829 O 350.449 -1.48815 1.24771 0
M  V30 3830 C 347.579 -2.37509 2.5339 0
M  V30 3831 C 346.533 -2.1897 3.67745 0
M  V30 3832 C 345.859 -3.55402 3.99492 0
M  V30 3833 C 347.159 -1.59859 4.97235 0
M  V30 3834 H 348.853 -0.647706 2.9231 0
M  V30 3835 H 346.399 -0.310116 1.40621 0
M  V30 3836 H 348.352 -3.08409 2.87162 0
M  V30 3837 H 347.076 -2.8134 1.65878 0
M  V30 3838 H 345.735 -1.50508 3.3428 0
M  V30 3839 H 345.383 -3.9683 3.09088 0
M  V30 3840 H 345.083 -3.43831 4.76502 0
M  V30 3841 H 346.607 -4.27708 4.35773 0
M  V30 3842 H 348.021 -2.20642 5.29141 0
M  V30 3843 H 346.418 -1.58942 5.78669 0
M  V30 3844 H 347.488 -0.561506 4.81638 0
M  V30 3845 N 348.832 -1.54138 -0.328536 0
M  V30 3846 C 349.78 -1.83894 -1.42428 0
M  V30 3847 C 350.774 -0.710478 -1.53781 0
M  V30 3848 O 351.98 -0.894062 -1.56226 0
M  V30 3849 H 348.355 -0.582837 -0.475189 0
M  V30 3850 H 350.326 -2.75537 -1.14552 0
M  V30 3851 C 349.075 -2.07866 -2.78724 0
M  V30 3852 H 348.398 -2.94158 -2.7076 0
M  V30 3853 H 349.838 -2.32644 -3.54476 0
M  V30 3854 C 348.297 -0.868689 -3.25508 0
M  V30 3855 O 348.827 -0.0754908 -4.01629 0
M  V30 3856 N 347.033 -0.681711 -2.82491 0
M  V30 3857 H 346.58 -1.32838 -2.20708 0
M  V30 3858 H 346.538 0.126374 -3.14146 0
M  V30 3859 O 350.349 0.474497 -1.54372 0
M  V30 3860 H 351.04 1.12894 -1.574 0
M  V30 END ATOM
M  V30 BEGIN BOND
M  V30 END BOND
M  V30 END CTAB
M  END
$$$$
