drugbank_target|Q01064 Calcium/calmodulin-dependent 3',5'-cyclic nucleotide phosphodiesterase 1B (DB00622; DB01023; DB01244; DB04530)
 OpenBabel12092120303D

  0  0  0     0  0            999 V3000
M  V30 BEGIN CTAB
M  V30 COUNTS 8576 8668 0 0 0
M  V30 BEGIN ATOM
M  V30 1 H -0.908 1.98254 -0.117106 0
M  V30 2 N 0 1.576 0 0
M  V30 3 C 0.933 2.03868 1.02534 0
M  V30 4 C 1.911 0.928543 1.3348 0
M  V30 5 O 3.095 1.19667 1.45644 0
M  V30 6 C 0.222 2.43627 2.35294 0
M  V30 7 C -0.732 3.65373 2.2001 0
M  V30 8 S 0.101 5.13292 1.52614 0
M  V30 9 C 1.257 5.56322 2.86805 0
M  V30 10 H 1.49 2.90518 0.631377 0
M  V30 11 H -0.977 1.52953 0.210867 0
M  V30 12 H 0.981 2.67203 3.11629 0
M  V30 13 H -0.358 1.57376 2.7183 0
M  V30 14 H -1.165 3.90944 3.18086 0
M  V30 15 H -1.563 3.418 1.51819 0
M  V30 16 H 0.729 5.58782 3.83104 0
M  V30 17 H 1.672 6.56266 2.65933 0
M  V30 18 H 2.08 4.83886 2.90714 0
M  V30 19 N 1.4781 -0.272755 1.55222 0
M  V30 20 C 2.3881 -1.35918 1.91216 0
M  V30 21 C 3.4041 -1.54026 0.809436 0
M  V30 22 O 4.5801 -1.68148 1.10852 0
M  V30 23 C 1.6451 -2.69834 2.17693 0
M  V30 24 C 0.7061 -2.6047 3.41253 0
M  V30 25 C -0.0609 -3.88 3.66458 0
M  V30 26 O 0.1621 -4.88693 2.94169 0
M  V30 27 O -0.9039 -3.88189 4.59992 0
M  V30 28 H 2.9221 -1.0839 2.83699 0
M  V30 29 H 0.5071 -0.471301 1.41771 0
M  V30 30 H 2.3891 -3.49017 2.36147 0
M  V30 31 H 1.0641 -2.97148 1.28392 0
M  V30 32 H -0.0289 -1.79663 3.28134 0
M  V30 33 H 1.3041 -2.38106 4.30774 0
M  V30 34 N 2.9562 -1.48159 -0.537278 0
M  V30 35 C 3.8862 -1.65029 -1.6519 0
M  V30 36 C 4.8672 -0.499281 -1.62607 0
M  V30 37 O 6.0522 -0.730972 -1.79918 0
M  V30 38 C 3.1822 -1.68303 -3.03795 0
M  V30 39 C 2.1362 -2.8283 -3.21234 0
M  V30 40 C 1.4622 -2.71189 -4.60826 0
M  V30 41 C 2.7622 -4.24211 -3.04701 0
M  V30 42 H 4.4562 -2.58341 -1.51328 0
M  V30 43 H 2.0022 -1.24325 -0.726585 0
M  V30 44 H 3.9552 -1.78693 -3.81637 0
M  V30 45 H 2.6792 -0.715635 -3.18663 0
M  V30 46 H 1.3382 -2.71983 -2.45807 0
M  V30 47 H 0.9862 -1.72435 -4.7252 0
M  V30 48 H 0.6862 -3.48035 -4.7344 0
M  V30 49 H 2.2102 -2.83537 -5.40777 0
M  V30 50 H 3.6242 -4.3593 -3.72341 0
M  V30 51 H 2.0212 -5.01998 -3.28813 0
M  V30 52 H 3.0912 -4.41184 -2.01209 0
M  V30 53 N 4.4343 0.785586 -1.36625 0
M  V30 54 C 5.6593 1.57963 -1.34397 0
M  V30 55 C 6.0843 1.87964 0.071526 0
M  V30 56 O 5.4423 1.48182 1.0446 0
M  V30 57 C 5.4903 2.87511 -2.17646 0
M  V30 58 O 4.5943 3.81281 -1.57158 0
M  V30 59 H 3.9353 0.479014 -0.459828 0
M  V30 60 H 6.4653 0.973411 -1.79961 0
M  V30 61 H 6.4753 3.36745 -2.30362 0
M  V30 62 H 5.1503 2.65002 -3.20541 0
M  V30 63 H 3.7273 3.39885 -1.53403 0
M  V30 64 N 5.9124 1.20967 1.01018 0
M  V30 65 C 7.3234 1.02319 1.56165 0
M  V30 66 C 7.6744 -0.418546 1.91684 0
M  V30 67 O 6.7994 -1.30096 1.72928 0
M  V30 68 C 7.3944 1.85109 2.8376 0
M  V30 69 C 5.9534 1.70809 3.35412 0
M  V30 70 C 5.1004 1.82643 2.08655 0
M  V30 71 H 8.0514 1.35065 0.833255 0
M  V30 72 H 8.0724 1.35827 3.55431 0
M  V30 73 H 7.5844 2.90035 2.57878 0
M  V30 74 H 5.6854 0.685464 3.66241 0
M  V30 75 H 5.7984 2.52467 4.07182 0
M  V30 76 H 4.1624 1.25896 2.21409 0
M  V30 77 H 4.9454 2.89066 1.85191 0
M  V30 78 N 7.3905 -1.2043 1.01659 0
M  V30 79 C 8.8065 -1.41852 0.731442 0
M  V30 80 C 9.0065 -1.89358 -0.688898 0
M  V30 81 O 8.0625 -2.06247 -1.45666 0
M  V30 82 C 9.3755 -2.44019 1.75714 0
M  V30 83 C 10.9235 -2.57785 1.77527 0
M  V30 84 C 11.3985 -3.63194 2.79023 0
M  V30 85 N 12.8895 -3.70678 2.77763 0
M  V30 86 C 13.6245 -4.51897 3.52954 0
M  V30 87 N 13.1205 -5.36921 4.37821 0
M  V30 88 N 14.9135 -4.4643 3.41551 0
M  V30 89 H 7.0645 -0.879093 1.93354 0
M  V30 90 H 9.3275 -0.448425 0.835236 0
M  V30 91 H 9.0335 -2.1611 2.77469 0
M  V30 92 H 8.9075 -3.43007 1.56927 0
M  V30 93 H 11.2945 -2.85023 0.764569 0
M  V30 94 H 11.3755 -1.58992 2.00387 0
M  V30 95 H 11.0195 -3.36699 3.80258 0
M  V30 96 H 10.9495 -4.61609 2.53425 0
M  V30 97 H 13.4405 -3.09944 2.16201 0
M  V30 98 H 13.7535 -5.95981 4.91962 0
M  V30 99 H 12.0985 -5.36424 4.41899 0
M  V30 100 H 15.2895 -3.79042 2.74672 0
M  V30 101 H 15.4625 -5.09491 4.00404 0
M  V30 102 N 8.8686 -0.792821 -1.36206 0
M  V30 103 C 10.0936 -0.377701 -2.03932 0
M  V30 104 C 10.5186 0.998947 -1.59382 0
M  V30 105 O 9.8766 1.64421 -0.763903 0
M  V30 106 C 9.9246 -0.453635 -3.57735 0
M  V30 107 O 9.0286 0.538151 -4.08874 0
M  V30 108 H 8.3696 -0.159855 -0.644471 0
M  V30 109 H 10.8996 -1.07488 -1.7409 0
M  V30 110 H 10.9096 -0.318464 -4.06755 0
M  V30 111 H 9.5846 -1.45784 -3.89512 0
M  V30 112 H 8.1616 0.364359 -3.71116 0
M  V30 113 N 10.3467 1.47872 -0.545128 0
M  V30 114 C 11.7577 1.86384 -0.108581 0
M  V30 115 C 12.1087 1.45309 1.31832 0
M  V30 116 O 11.2337 0.850641 1.9898 0
M  V30 117 C 11.8287 3.38265 -0.190274 0
M  V30 118 C 10.3877 3.75914 0.191164 0
M  V30 119 C 9.5347 2.71926 -0.543273 0
M  V30 120 H 12.4857 1.39561 -0.755537 0
M  V30 121 H 12.5067 3.75831 0.594217 0
M  V30 122 H 12.0187 3.6813 -1.2289 0
M  V30 123 H 10.1197 3.51665 1.23136 0
M  V30 124 H 10.2327 4.78836 -0.158987 0
M  V30 125 H 8.5967 2.54697 0.0122495 0
M  V30 126 H 9.3797 3.04634 -1.58282 0
M  V30 127 N 11.8248 0.280983 1.55075 0
M  V30 128 C 13.2358 -0.215629 1.85451 0
M  V30 129 C 13.5868 -1.54991 1.203 0
M  V30 130 O 12.7118 -2.10699 0.493435 0
M  V30 131 C 13.3068 -0.398026 3.36454 0
M  V30 132 C 11.8658 -0.838866 3.66933 0
M  V30 133 C 11.0128 0.064458 2.77225 0
M  V30 134 H 13.9638 0.502601 1.50531 0
M  V30 135 H 13.9848 -1.23569 3.59876 0
M  V30 136 H 13.4968 0.573241 3.83843 0
M  V30 137 H 11.5978 -1.8214 3.25048 0
M  V30 138 H 11.7108 -0.672123 4.74362 0
M  V30 139 H 10.0748 -0.452863 2.50642 0
M  V30 140 H 10.8578 1.03172 3.2743 0
M  V30 141 N 13.3029 -1.57598 0.00835791 0
M  V30 142 C 14.2129 -2.12385 -0.996487 0
M  V30 143 C 15.2289 -1.07108 -1.37127 0
M  V30 144 O 16.4049 -1.39055 -1.4569 0
M  V30 145 C 13.4699 -2.62314 -2.26699 0
M  V30 146 C 12.5309 -3.82225 -1.95456 0
M  V30 147 C 11.7639 -4.29763 -3.16449 0
M  V30 148 O 11.9869 -3.76584 -4.28416 0
M  V30 149 O 10.9209 -5.21832 -2.99958 0
M  V30 150 H 14.7469 -2.98479 -0.560725 0
M  V30 151 H 12.3319 -1.47903 -0.210987 0
M  V30 152 H 14.2139 -2.94589 -3.01322 0
M  V30 153 H 12.8889 -1.79313 -2.69497 0
M  V30 154 H 11.7959 -3.54909 -1.18282 0
M  V30 155 H 13.1289 -4.66324 -1.57489 0
M  V30 156 N 14.781 0.264519 -1.55364 0
M  V30 157 C 15.714 1.35297 -1.83766 0
M  V30 158 C 16.692 1.47171 -0.691336 0
M  V30 159 O 17.876 1.63663 -0.935238 0
M  V30 160 C 15.003 2.72847 -2.00679 0
M  V30 161 C 14.049 2.78214 -3.23263 0
M  V30 162 S 14.882 2.36601 -4.80396 0
M  V30 163 C 16.038 3.7611 -5.00292 0
M  V30 164 H 16.271 1.11003 -2.758 0
M  V30 165 H 13.804 0.464596 -1.47244 0
M  V30 166 H 15.762 3.52057 -2.11108 0
M  V30 167 H 14.423 2.94388 -1.09518 0
M  V30 168 H 13.616 3.7919 -3.3201 0
M  V30 169 H 13.218 2.07034 -3.11469 0
M  V30 170 H 15.51 4.71457 -4.86554 0
M  V30 171 H 16.453 3.7231 -6.02321 0
M  V30 172 H 16.861 3.67806 -4.28228 0
M  V30 173 N 16.2591 1.48442 0.529413 0
M  V30 174 C 17.1891 1.65902 1.64313 0
M  V30 175 C 18.1701 0.507897 1.6234 0
M  V30 176 O 19.3551 0.740503 1.79528 0
M  V30 177 C 16.4851 1.69911 3.02898 0
M  V30 178 C 15.4391 2.8453 3.19729 0
M  V30 179 C 14.7651 2.73629 4.59381 0
M  V30 180 C 16.0651 4.25821 3.02447 0
M  V30 181 H 17.7591 2.5914 1.49955 0
M  V30 182 H 15.3051 1.24709 0.719982 0
M  V30 183 H 17.2581 1.80715 3.80684 0
M  V30 184 H 15.9821 0.732524 3.18279 0
M  V30 185 H 14.6411 2.73283 2.44361 0
M  V30 186 H 14.2891 1.74938 4.71599 0
M  V30 187 H 13.9891 3.50541 4.71588 0
M  V30 188 H 15.5131 2.86401 5.39265 0
M  V30 189 H 16.9271 4.37898 3.70024 0
M  V30 190 H 15.3241 5.03735 3.26146 0
M  V30 191 H 16.3941 4.42244 1.98867 0
M  V30 192 N 17.7372 -0.778329 1.37039 0
M  V30 193 C 18.6472 -1.92253 1.34446 0
M  V30 194 C 19.6632 -1.72267 0.244991 0
M  V30 195 O 20.8392 -1.95615 0.479258 0
M  V30 196 C 17.9042 -3.27282 1.144 0
M  V30 197 C 16.9652 -3.59969 2.33925 0
M  V30 198 C 16.1982 -4.88555 2.14825 0
M  V30 199 O 16.4212 -5.59113 1.12912 0
M  V30 200 O 15.3552 -5.20153 3.02861 0
M  V30 201 H 19.1812 -1.97392 2.30803 0
M  V30 202 H 16.7662 -0.920154 1.17701 0
M  V30 203 H 18.6482 -4.08062 1.05182 0
M  V30 204 H 17.3232 -3.23011 0.211124 0
M  V30 205 H 16.2302 -2.7945 2.48714 0
M  V30 206 H 17.5632 -3.68976 3.25757 0
M  V30 207 N 19.2153 -1.21501 -1.00376 0
M  V30 208 C 20.1253 -0.991447 -2.12621 0
M  V30 209 C 21.1413 0.0568446 -1.73907 0
M  V30 210 O 22.3173 -0.13348 -2.00957 0
M  V30 211 C 19.3823 -0.560312 -3.42142 0
M  V30 212 C 18.4433 -1.68096 -3.95022 0
M  V30 213 C 17.6763 -1.2703 -5.18362 0
M  V30 214 O 17.8993 -0.144438 -5.70217 0
M  V30 215 O 16.8333 -2.08269 -5.64719 0
M  V30 216 H 20.6593 -1.93158 -2.34358 0
M  V30 217 H 18.2443 -0.999999 -1.10997 0
M  V30 218 H 20.1263 -0.329724 -4.20108 0
M  V30 219 H 18.8013 0.351089 -3.2179 0
M  V30 220 H 17.7083 -1.96597 -3.18278 0
M  V30 221 H 19.0413 -2.56983 -4.19786 0
M  V30 222 N 20.6934 1.19889 -1.02296 0
M  V30 223 C 21.9184 1.9393 -0.735237 0
M  V30 224 C 22.3434 1.74639 0.698782 0
M  V30 225 O 21.7014 1.04481 1.48167 0
M  V30 226 C 21.7494 3.43916 -1.08417 0
M  V30 227 O 20.8534 4.11917 -0.199446 0
M  V30 228 H 20.1944 0.605645 -0.272196 0
M  V30 229 H 22.7244 1.52137 -1.36804 0
M  V30 230 H 22.7344 3.9456 -1.03856 0
M  V30 231 H 21.4094 3.5728 -2.12894 0
M  V30 232 H 19.9864 3.71666 -0.303136 0
M  V30 233 N 22.1715 0.800033 1.35784 0
M  V30 234 C 23.4485 0.30088 1.93272 0
M  V30 235 C 23.8285 -1.20857 1.73081 0
M  V30 236 O 23.1765 -2.00502 1.09596 0
M  V30 237 C 23.3865 0.70511 3.41803 0
M  V30 238 C 24.7345 0.690871 4.18942 0
M  V30 239 O 25.7585 0.646244 3.50289 0
M  V30 240 O 24.6175 0.74332 5.41421 0
M  V30 241 H 21.7115 0.0771605 0.823393 0
M  V30 242 H 24.2575 0.88329 1.449 0
M  V30 243 H 23.0295 1.74571 3.50201 0
M  V30 244 H 22.6525 0.0971541 3.97481 0
M  V30 245 N 23.6496 -1.47581 0.552962 0
M  V30 246 C 24.8896 -2.04379 0.0296245 0
M  V30 247 C 25.2536 -1.4185 -1.29393 0
M  V30 248 O 26.4546 -1.89669 -1.90471 0
M  V30 249 C 24.7256 -3.57339 -0.0661371 0
M  V30 250 S 26.2846 -4.35511 -0.536213 0
M  V30 251 H 23.1026 -0.710625 0.0230991 0
M  V30 252 H 25.7046 -1.81005 0.738734 0
M  V30 253 H 24.4086 -4.00374 0.901596 0
M  V30 254 H 23.9396 -3.85202 -0.798931 0
M  V30 255 H 25.9546 -4.6253 -1.79668 0
M  V30 256 N 25.1277 -0.289203 -1.54924 0
M  V30 257 C 26.5387 0.205791 -1.85562 0
M  V30 258 C 26.8897 1.54351 -1.2112 0
M  V30 259 O 26.0147 2.10435 -0.504601 0
M  V30 260 C 26.6097 0.380177 -3.3666 0
M  V30 261 C 25.1687 0.819395 -3.67373 0
M  V30 262 C 24.3157 -0.079159 -2.77187 0
M  V30 263 H 27.2667 -0.510577 -1.50262 0
M  V30 264 H 27.2877 1.21659 -3.60526 0
M  V30 265 H 26.7997 -0.593589 -3.83534 0
M  V30 266 H 24.9007 1.80413 -3.26009 0
M  V30 267 H 25.0137 0.646957 -4.74712 0
M  V30 268 H 23.3777 0.439565 -2.50878 0
M  V30 269 H 24.1607 -1.04906 -3.26878 0
M  V30 270 N 26.6058 1.57591 -0.0167156 0
M  V30 271 C 27.8308 1.9598 0.67872 0
M  V30 272 C 28.2558 0.892546 1.65575 0
M  V30 273 O 27.6138 -0.147772 1.80697 0
M  V30 274 C 27.6618 3.33468 1.37227 0
M  V30 275 O 26.7658 3.28954 2.48722 0
M  V30 276 H 26.1068 0.639339 0.17928 0
M  V30 277 H 28.6368 2.04463 -0.0748802 0
M  V30 278 H 28.6468 3.69417 1.7319 0
M  V30 279 H 27.3218 4.10694 0.656007 0
M  V30 280 H 25.8988 3.04705 2.14963 0
M  V30 281 N 28.0839 -0.256276 1.55502 0
M  V30 282 C 29.4949 -0.826068 1.67431 0
M  V30 283 C 29.8459 -1.86396 0.612446 0
M  V30 284 O 28.9709 -2.15031 -0.243025 0
M  V30 285 C 29.5659 -1.50512 3.03532 0
M  V30 286 C 28.1249 -2.02273 3.17431 0
M  V30 287 C 27.2719 -0.870548 2.63281 0
M  V30 288 H 30.2229 -0.0322728 1.58667 0
M  V30 289 H 30.2439 -2.37279 2.97454 0
M  V30 290 H 29.7559 -0.749484 3.80794 0
M  V30 291 H 27.8569 -2.80746 2.44974 0
M  V30 292 H 27.9699 -2.22655 4.24219 0
M  V30 293 H 26.3339 -1.26851 2.20864 0
M  V30 294 H 27.1169 -0.128149 3.43061 0
M  V30 295 N 29.562 -1.4872 -0.521534 0
M  V30 296 C 30.492 -1.66771 -1.63431 0
M  V30 297 C 31.473 -0.516499 -1.62069 0
M  V30 298 O 32.658 -0.750013 -1.79132 0
M  V30 299 C 29.788 -1.71515 -3.01993 0
M  V30 300 C 28.742 -2.86222 -3.18216 0
M  V30 301 C 28.068 -2.76061 -4.57924 0
M  V30 302 C 29.368 -4.27419 -3.00184 0
M  V30 303 H 31.062 -2.59932 -1.48579 0
M  V30 304 H 28.608 -1.25089 -0.713358 0
M  V30 305 H 30.561 -1.82731 -3.7972 0
M  V30 306 H 29.285 -0.749393 -3.17886 0
M  V30 307 H 27.944 -2.74575 -2.42908 0
M  V30 308 H 27.592 -1.77437 -4.70665 0
M  V30 309 H 27.292 -3.53037 -4.69722 0
M  V30 310 H 28.816 -2.89256 -5.37739 0
M  V30 311 H 30.23 -4.39855 -3.67697 0
M  V30 312 H 28.627 -5.05458 -3.2347 0
M  V30 313 H 29.697 -4.43293 -1.96518 0
M  V30 314 N 31.0401 0.771051 -1.3745 0
M  V30 315 C 31.9501 1.91538 -1.35464 0
M  V30 316 C 32.9661 1.72134 -0.254123 0
M  V30 317 O 34.1421 1.95358 -0.489626 0
M  V30 318 C 31.2071 3.26671 -1.16134 0
M  V30 319 C 30.2681 3.58723 -2.35831 0
M  V30 320 C 29.5011 4.87409 -2.17413 0
M  V30 321 O 29.7241 5.58506 -1.15876 0
M  V30 322 O 28.6581 5.18539 -3.05615 0
M  V30 323 H 32.4841 1.96165 -2.31847 0
M  V30 324 H 30.0691 0.9139 -1.18187 0
M  V30 325 H 31.9511 4.07499 -1.07345 0
M  V30 326 H 30.6261 3.22894 -0.228251 0
M  V30 327 H 29.5331 2.78127 -2.50192 0
M  V30 328 H 30.8661 3.67243 -3.27709 0
M  V30 329 N 32.5182 1.22032 0.997298 0
M  V30 330 C 33.4482 1.01065 2.10495 0
M  V30 331 C 34.4292 -0.0669542 1.69968 0
M  V30 332 O 35.6142 0.0943987 1.9397 0
M  V30 333 C 32.7442 0.582874 3.42374 0
M  V30 334 C 31.6982 1.60592 3.96729 0
M  V30 335 C 31.0242 1.03412 5.24605 0
M  V30 336 C 32.3242 2.99478 4.27914 0
M  V30 337 H 34.0182 1.93708 2.28292 0
M  V30 338 H 31.5642 0.932761 1.09707 0
M  V30 339 H 33.5172 0.423332 4.19268 0
M  V30 340 H 32.2412 -0.379213 3.24391 0
M  V30 341 H 30.9002 1.75316 3.21963 0
M  V30 342 H 30.5482 0.063518 5.0296 0
M  V30 343 H 30.2482 1.71754 5.61938 0
M  V30 344 H 31.7722 0.886066 6.04137 0
M  V30 345 H 33.1862 2.88153 4.95622 0
M  V30 346 H 31.5832 3.64903 4.76409 0
M  V30 347 H 32.6532 3.49742 3.3587 0
M  V30 348 N 33.9963 -1.19345 1.0293 0
M  V30 349 C 34.9433 -2.2258 0.610464 0
M  V30 350 C 35.9133 -1.6179 -0.375946 0
M  V30 351 O 37.0983 -1.88844 -0.272511 0
M  V30 352 C 34.2383 -3.45085 -0.0321473 0
M  V30 353 C 33.3513 -4.20258 1.00035 0
M  V30 354 C 32.4863 -5.3019 0.32746 0
M  V30 355 C 31.5253 -5.97121 1.34584 0
M  V30 356 N 30.6623 -6.98615 0.698726 0
M  V30 357 H 35.5023 -2.57764 1.49538 0
M  V30 358 H 33.0393 -1.26644 0.748311 0
M  V30 359 H 34.9973 -4.15061 -0.421966 0
M  V30 360 H 33.6273 -3.10555 -0.88064 0
M  V30 361 H 32.6793 -3.49223 1.50823 0
M  V30 362 H 33.9913 -4.66175 1.77433 0
M  V30 363 H 33.1453 -6.06587 -0.11718 0
M  V30 364 H 31.8843 -4.85345 -0.478713 0
M  V30 365 H 30.8893 -5.19474 1.80074 0
M  V30 366 H 32.1143 -6.4405 2.15352 0
M  V30 367 H 30.0603 -6.55942 -0.0873471 0
M  V30 368 H 29.9773 -7.42724 1.41058 0
M  V30 369 H 31.2453 -7.79004 0.278102 0
M  V30 370 N 35.4744 -0.807222 -1.35358 0
M  V30 371 C 36.6994 -0.399309 -2.0352 0
M  V30 372 C 37.1244 0.981986 -1.60433 0
M  V30 373 O 36.4824 1.63601 -0.781299 0
M  V30 374 C 36.5304 -0.491552 -3.57234 0
M  V30 375 O 35.6344 0.494754 -4.09421 0
M  V30 376 H 34.9754 -0.166682 -0.642739 0
M  V30 377 H 37.5054 -1.09328 -1.72941 0
M  V30 378 H 37.5154 -0.361588 -4.06395 0
M  V30 379 H 36.1904 -1.49907 -3.87944 0
M  V30 380 H 34.7674 0.324977 -3.71481 0
M  V30 381 N 36.9525 1.47285 -0.560781 0
M  V30 382 C 37.9155 2.28535 0.174488 0
M  V30 383 C 38.9155 1.37153 0.839388 0
M  V30 384 O 40.1055 1.59748 0.694702 0
M  V30 385 C 37.2375 3.16934 1.25561 0
M  V30 386 H 38.4305 2.95012 -0.539262 0
M  V30 387 H 35.9835 1.53034 -0.317865 0
M  V30 388 H 36.7185 2.55157 2.00164 0
M  V30 389 H 36.5035 3.8419 0.783604 0
M  V30 390 H 37.9935 3.78143 1.77193 0
M  V30 391 N 38.4306 0.297415 1.54768 0
M  V30 392 C 39.8416 -0.195947 1.85669 0
M  V30 393 C 40.1926 -1.53707 1.21937 0
M  V30 394 O 39.3176 -2.10164 0.515754 0
M  V30 395 C 39.9126 -0.362318 3.36857 0
M  V30 396 C 38.4716 -0.799901 3.67802 0
M  V30 397 C 37.6186 0.0938578 2.77141 0
M  V30 398 H 40.5696 0.518538 1.4999 0
M  V30 399 H 40.5906 -1.19745 3.61167 0
M  V30 400 H 40.1026 0.613921 3.83214 0
M  V30 401 H 38.2036 -1.78682 3.26961 0
M  V30 402 H 38.3166 -0.621773 4.75048 0
M  V30 403 H 36.6806 -0.426254 2.51108 0
M  V30 404 H 37.4636 1.06639 3.26318 0
M  V30 405 N 39.9087 -1.5758 0.0250728 0
M  V30 406 C 41.1337 -1.96337 -0.668317 0
M  V30 407 C 41.5587 -0.901314 -1.651 0
M  V30 408 O 40.9167 0.138187 -1.80773 0
M  V30 409 C 40.9647 -3.34191 -1.35457 0
M  V30 410 O 40.0687 -3.30269 -2.46974 0
M  V30 411 H 39.4097 -0.640281 -0.175887 0
M  V30 412 H 41.9397 -2.0442 0.0857224 0
M  V30 413 H 41.9497 -3.70331 -1.71228 0
M  V30 414 H 40.6247 -4.11036 -0.634218 0
M  V30 415 H 39.2017 -3.05841 -2.13344 0
M  V30 416 N 41.3868 0.248026 -1.55636 0
M  V30 417 C 42.3338 1.30707 -1.90222 0
M  V30 418 C 43.3038 1.47881 -0.756332 0
M  V30 419 O 44.4888 1.61883 -1.00988 0
M  V30 420 C 41.6288 2.65769 -2.20138 0
M  V30 421 C 40.7418 2.56612 -3.47526 0
M  V30 422 C 39.8768 3.8402 -3.67017 0
M  V30 423 C 38.9158 3.69476 -4.8801 0
M  V30 424 N 38.0528 4.88774 -5.04029 0
M  V30 425 H 42.8928 1.00512 -2.80538 0
M  V30 426 H 40.4298 0.485055 -1.38873 0
M  V30 427 H 42.3878 3.44386 -2.35487 0
M  V30 428 H 41.0178 2.94115 -1.33027 0
M  V30 429 H 40.0698 1.69571 -3.40514 0
M  V30 430 H 41.3818 2.41774 -4.36287 0
M  V30 431 H 40.5358 4.7108 -3.8232 0
M  V30 432 H 39.2748 4.01754 -2.76487 0
M  V30 433 H 38.2798 2.80799 -4.72686 0
M  V30 434 H 39.5048 3.53238 -5.8 0
M  V30 435 H 37.4508 5.0687 -4.16435 0
M  V30 436 H 37.3678 4.76562 -5.86877 0
M  V30 437 H 38.6358 5.77335 -5.23741 0
M  V30 438 N 42.8649 1.48995 0.513639 0
M  V30 439 C 43.8119 1.6473 1.61656 0
M  V30 440 C 44.7819 0.488984 1.58739 0
M  V30 441 O 45.9669 0.714478 1.76918 0
M  V30 442 C 43.1069 1.7082 2.99858 0
M  V30 443 C 42.2199 2.9787 3.12885 0
M  V30 444 C 41.3549 2.95017 4.41744 0
M  V30 445 C 40.3939 4.16702 4.48359 0
M  V30 446 N 39.5309 4.11832 5.68629 0
M  V30 447 H 44.3709 2.58909 1.47547 0
M  V30 448 H 41.9079 1.28382 0.71808 0
M  V30 449 H 43.8659 1.72331 3.79944 0
M  V30 450 H 42.4959 0.801181 3.12699 0
M  V30 451 H 41.5479 3.06029 2.25944 0
M  V30 452 H 42.8599 3.8786 3.13633 0
M  V30 453 H 42.0139 2.95021 5.30139 0
M  V30 454 H 40.7529 2.02784 4.43542 0
M  V30 455 H 39.7579 4.16955 3.58369 0
M  V30 456 H 40.9829 5.10113 4.48287 0
M  V30 457 H 38.9289 3.22428 5.71293 0
M  V30 458 H 38.8459 4.95543 5.7094 0
M  V30 459 H 40.1139 4.1592 6.59266 0
M  V30 460 N 44.343 -0.763751 1.37857 0
M  V30 461 C 45.276 -1.88486 1.28639 0
M  V30 462 C 46.254 -1.61757 0.165363 0
M  V30 463 O 47.438 -1.85391 0.340948 0
M  V30 464 C 44.565 -3.23884 0.990811 0
M  V30 465 C 43.611 -3.69514 2.12983 0
M  V30 466 S 44.444 -3.82244 3.75033 0
M  V30 467 C 45.6 -5.20477 3.47641 0
M  V30 468 H 45.833 -1.96017 2.23527 0
M  V30 469 H 43.366 -0.925684 1.23574 0
M  V30 470 H 45.324 -4.02081 0.827101 0
M  V30 471 H 43.985 -3.14044 0.0592832 0
M  V30 472 H 43.178 -4.67696 1.87821 0
M  V30 473 H 42.78 -2.98441 2.25408 0
M  V30 474 H 45.072 -6.05905 3.03125 0
M  V30 475 H 46.015 -5.50655 4.4518 0
M  V30 476 H 46.423 -4.88793 2.82385 0
M  V30 477 N 45.8211 -1.22559 -0.990812 0
M  V30 478 C 47.0671 -1.06303 -1.73411 0
M  V30 479 C 47.4221 0.397442 -1.8825 0
M  V30 480 O 46.7151 1.29062 -1.41611 0
M  V30 481 C 46.9091 -1.71011 -3.13831 0
M  V30 482 C 46.7381 -3.232 -3.12685 0
M  V30 483 C 45.5081 -3.92314 -3.18461 0
M  V30 484 C 47.7061 -4.20107 -2.96673 0
M  V30 485 N 45.6881 -5.31571 -3.07091 0
M  V30 486 C 47.0591 -5.46208 -2.93354 0
M  V30 487 C 49.1141 -4.10973 -2.8108 0
M  V30 488 C 47.8171 -6.64225 -2.76039 0
M  V30 489 C 49.8431 -5.28642 -2.65126 0
M  V30 490 C 49.2051 -6.53663 -2.62496 0
M  V30 491 H 45.3041 -0.443441 -0.644115 0
M  V30 492 H 47.8881 -1.55131 -1.17654 0
M  V30 493 H 46.0591 -1.2473 -3.67827 0
M  V30 494 H 47.7911 -1.47828 -3.76735 0
M  V30 495 H 44.5461 -3.43326 -3.26227 0
M  V30 496 H 44.9701 -6.0455 -3.0471 0
M  V30 497 H 49.6121 -3.15098 -2.8191 0
M  V30 498 H 47.3301 -7.60246 -2.73954 0
M  V30 499 H 50.9161 -5.23407 -2.54039 0
M  V30 500 H 49.7961 -7.43182 -2.50302 0
M  V30 501 N 47.2992 1.18797 -1.03562 0
M  V30 502 C 48.5482 1.87978 -0.731235 0
M  V30 503 C 48.8612 1.80911 0.743671 0
M  V30 504 O 50.0672 2.45407 1.16137 0
M  V30 505 C 48.5232 3.3721 -1.25768 0
M  V30 506 C 48.1312 3.52818 -2.76085 0
M  V30 507 C 49.8752 4.11825 -1.0296 0
M  V30 508 C 47.7822 4.9598 -3.22114 0
M  V30 509 H 46.7122 0.704063 -0.269835 0
M  V30 510 H 49.3632 1.34266 -1.25079 0
M  V30 511 H 47.7452 3.90359 -0.666011 0
M  V30 512 H 48.9192 3.09965 -3.40966 0
M  V30 513 H 47.2342 2.91602 -2.97249 0
M  V30 514 H 49.8312 5.17411 -1.34869 0
M  V30 515 H 50.1742 4.16287 0.0333546 0
M  V30 516 H 50.7072 3.64833 -1.58562 0
M  V30 517 H 47.4462 4.96684 -4.27768 0
M  V30 518 H 46.9662 5.39569 -2.61965 0
M  V30 519 H 48.6452 5.6467 -3.15844 0
M  V30 520 N 48.7773 0.814389 1.34928 0
M  V30 521 C 49.7243 0.22822 2.29669 0
M  V30 522 C 50.6943 -0.642164 1.53184 0
M  V30 523 O 51.8793 -0.585605 1.81591 0
M  V30 524 C 49.0193 -0.61089 3.3965 0
M  V30 525 C 48.1323 0.280792 4.31086 0
M  V30 526 C 47.2673 -0.567067 5.28165 0
M  V30 527 C 46.3063 0.324531 6.11239 0
M  V30 528 N 45.4433 -0.483756 7.00431 0
M  V30 529 H 50.2833 1.04153 2.79206 0
M  V30 530 H 47.8203 0.525133 1.37407 0
M  V30 531 H 49.7783 -1.11263 4.0209 0
M  V30 532 H 48.4083 -1.38939 2.91369 0
M  V30 533 H 47.4603 0.900688 3.69583 0
M  V30 534 H 48.7723 0.966723 4.89342 0
M  V30 535 H 47.9263 -1.13363 5.96015 0
M  V30 536 H 46.6653 -1.28654 4.70425 0
M  V30 537 H 45.6703 0.903298 5.42329 0
M  V30 538 H 46.8953 1.04198 6.71059 0
M  V30 539 H 44.8413 -1.18706 6.45171 0
M  V30 540 H 44.7583 0.143965 7.55863 0
M  V30 541 H 46.0263 -1.03334 7.7262 0
M  V30 542 N 50.2554 -1.46986 0.568584 0
M  V30 543 C 51.1854 -2.32946 -0.160753 0
M  V30 544 C 52.1664 -1.44487 -0.897631 0
M  V30 545 O 53.3514 -1.73327 -0.875867 0
M  V30 546 C 50.4814 -3.26494 -1.18403 0
M  V30 547 C 49.4354 -4.24282 -0.562895 0
M  V30 548 C 48.7614 -5.07236 -1.69163 0
M  V30 549 C 50.0614 -5.19989 0.490761 0
M  V30 550 H 51.7554 -2.94175 0.556916 0
M  V30 551 H 49.3014 -1.4146 0.26927 0
M  V30 552 H 51.2544 -3.85477 -1.70251 0
M  V30 553 H 49.9784 -2.63343 -1.93179 0
M  V30 554 H 48.6374 -3.66541 -0.0656164 0
M  V30 555 H 48.2854 -4.4048 -2.42871 0
M  V30 556 H 47.9854 -5.7345 -1.28174 0
M  V30 557 H 49.5094 -5.6908 -2.21314 0
M  V30 558 H 50.9234 -5.73271 0.0579047 0
M  V30 559 H 49.3204 -5.94469 0.820165 0
M  V30 560 H 50.3904 -4.64777 1.3824 0
M  V30 561 N 51.7335 -0.305618 -1.54608 0
M  V30 562 C 53.1495 0.0476228 -1.59529 0
M  V30 563 C 53.3495 1.52025 -1.32252 0
M  V30 564 O 52.4055 2.27368 -1.09818 0
M  V30 565 C 53.7185 -0.354471 -2.98603 0
M  V30 566 C 55.2665 -0.303622 -3.11524 0
M  V30 567 C 55.7415 -0.680608 -4.52915 0
M  V30 568 N 57.2325 -0.63332 -4.5885 0
M  V30 569 C 57.9675 -0.897432 -5.66334 0
M  V30 570 N 57.4635 -1.22775 -6.81834 0
M  V30 571 N 59.2565 -0.824186 -5.56025 0
M  V30 572 H 51.4075 -1.2653 -1.70599 0
M  V30 573 H 53.6705 -0.513291 -0.797017 0
M  V30 574 H 53.3765 -1.3798 -3.23503 0
M  V30 575 H 53.2505 0.289568 -3.76087 0
M  V30 576 H 55.6375 0.712472 -2.8637 0
M  V30 577 H 55.7185 -0.982348 -2.36185 0
M  V30 578 H 55.3625 -1.69453 -4.78799 0
M  V30 579 H 55.2925 0.0202385 -5.26596 0
M  V30 580 H 57.7835 -0.389138 -3.75891 0
M  V30 581 H 58.0965 -1.41513 -7.59733 0
M  V30 582 H 56.4415 -1.26583 -6.83375 0
M  V30 583 H 59.6325 -0.565748 -4.64669 0
M  V30 584 H 59.8055 -1.03338 -6.39707 0
M  V30 585 N 53.2116 1.57565 -0.0334293 0
M  V30 586 C 54.4366 1.96689 0.657895 0
M  V30 587 C 54.8616 0.910057 1.64619 0
M  V30 588 O 54.2196 -0.128598 1.80843 0
M  V30 589 C 54.2676 3.34905 1.33683 0
M  V30 590 O 53.3716 3.31574 2.45219 0
M  V30 591 H 52.7126 0.641205 0.172489 0
M  V30 592 H 55.2426 2.04372 -0.0965621 0
M  V30 593 H 55.2526 3.71234 1.69262 0
M  V30 594 H 53.9276 4.11366 0.612411 0
M  V30 595 H 52.5046 3.06968 2.11719 0
M  V30 596 N 54.6897 -0.239769 1.55765 0
M  V30 597 C 55.6197 -1.30052 1.9393 0
M  V30 598 C 56.6007 -1.49839 0.805132 0
M  V30 599 O 57.7857 -1.62328 1.06599 0
M  V30 600 C 54.9157 -2.65391 2.2402 0
M  V30 601 C 53.8697 -2.60289 3.39755 0
M  V30 602 C 53.1957 -3.99489 3.55405 0
M  V30 603 C 54.4957 -2.16654 4.75246 0
M  V30 604 H 56.1897 -0.983573 2.82783 0
M  V30 605 H 53.7357 -0.471701 1.36055 0
M  V30 606 H 55.6887 -3.3974 2.49308 0
M  V30 607 H 54.4127 -2.98736 1.32 0
M  V30 608 H 53.0717 -1.88398 3.14487 0
M  V30 609 H 52.7197 -4.30112 2.60793 0
M  V30 610 H 52.4197 -3.96962 4.33238 0
M  V30 611 H 53.9437 -4.75528 3.83022 0
M  V30 612 H 55.3577 -2.80737 4.99859 0
M  V30 613 H 53.7547 -2.25223 5.56232 0
M  V30 614 H 54.8247 -1.11835 4.71827 0
M  V30 615 N 56.1678 -1.49265 -0.50573 0
M  V30 616 C 57.0978 -1.68495 -1.61653 0
M  V30 617 C 58.0788 -0.53366 -1.61512 0
M  V30 618 O 59.2638 -0.76897 -1.78327 0
M  V30 619 C 56.3938 -1.74709 -3.00157 0
M  V30 620 C 55.3478 -2.89581 -3.15162 0
M  V30 621 C 54.6738 -2.80903 -4.5497 0
M  V30 622 C 55.9738 -4.30578 -2.95634 0
M  V30 623 H 57.6678 -2.61493 -1.45814 0
M  V30 624 H 55.2138 -1.25838 -0.70005 0
M  V30 625 H 57.1668 -1.86748 -3.77761 0
M  V30 626 H 55.8908 -0.783067 -3.17074 0
M  V30 627 H 54.5498 -2.77136 -2.39982 0
M  V30 628 H 54.1978 -1.82419 -4.68756 0
M  V30 629 H 53.8978 -3.57999 -4.65951 0
M  V30 630 H 55.4218 -2.94944 -5.34641 0
M  V30 631 H 56.8358 -4.4373 -3.63011 0
M  V30 632 H 55.2328 -5.0886 -3.18091 0
M  V30 633 H 56.3028 -4.45352 -1.91806 0
M  V30 634 N 57.6459 0.756429 -1.3826 0
M  V30 635 C 59.0619 1.0591 -1.19395 0
M  V30 636 C 59.2619 2.01459 -0.0406567 0
M  V30 637 O 58.3179 2.44909 0.614467 0
M  V30 638 C 59.6309 1.64191 -2.51916 0
M  V30 639 C 61.1789 1.76376 -2.58574 0
M  V30 640 C 61.6539 2.38069 -3.91264 0
M  V30 641 N 63.1449 2.45503 -3.92788 0
M  V30 642 C 63.8799 2.94126 -4.92217 0
M  V30 643 N 63.3759 3.42805 -6.02043 0
M  V30 644 N 65.1689 2.9314 -4.7961 0
M  V30 645 H 57.3199 0.122313 -2.12048 0
M  V30 646 H 59.5829 0.116892 -0.940766 0
M  V30 647 H 59.2889 1.01451 -3.3675 0
M  V30 648 H 59.1629 2.6329 -2.70108 0
M  V30 649 H 61.5499 2.38244 -1.74137 0
M  V30 650 H 61.6309 0.759894 -2.44252 0
M  V30 651 H 61.2749 1.76835 -4.76121 0
M  V30 652 H 61.2049 3.39091 -4.02895 0
M  V30 653 H 63.6959 2.1107 -3.13461 0
M  V30 654 H 64.0089 3.78354 -6.73846 0
M  V30 655 H 62.3539 3.4087 -6.05667 0
M  V30 656 H 65.5449 2.54419 -3.92923 0
M  V30 657 H 65.7179 3.30721 -5.5725 0
M  V30 658 N 59.124 1.23083 0.984299 0
M  V30 659 C 60.354 1.08556 1.75781 0
M  V30 660 C 60.762 -0.366171 1.85623 0
M  V30 661 O 60.105 -1.26524 1.33182 0
M  V30 662 C 60.167 1.63208 3.20318 0
M  V30 663 C 59.831 3.11922 3.33997 0
M  V30 664 C 60.828 4.09259 3.2063 0
M  V30 665 C 58.513 3.51552 3.58771 0
M  V30 666 C 60.507 5.4421 3.31835 0
M  V30 667 C 58.194 4.86649 3.69616 0
M  V30 668 C 59.192 5.82787 3.56157 0
M  V30 669 O 58.88 7.15431 3.66626 0
M  V30 670 H 58.612 0.380713 0.5586 0
M  V30 671 H 61.166 1.63321 1.2456 0
M  V30 672 H 59.396 1.0286 3.72769 0
M  V30 673 H 61.085 1.44216 3.79416 0
M  V30 674 H 61.851 3.79984 3.01392 0
M  V30 675 H 57.73 2.77239 3.6832 0
M  V30 676 H 61.274 6.1923 3.21247 0
M  V30 677 H 57.171 5.15601 3.88363 0
M  V30 678 H 57.939 7.23127 3.83445 0
M  V30 679 N 60.6021 -1.18246 1.0419 0
M  V30 680 C 61.5351 -2.20746 0.578474 0
M  V30 681 C 62.5131 -1.57912 -0.387624 0
M  V30 682 O 63.6971 -1.86071 -0.301634 0
M  V30 683 C 60.8241 -3.38346 -0.154762 0
M  V30 684 C 59.8701 -4.19587 0.764782 0
M  V30 685 S 60.7031 -4.86014 2.24835 0
M  V30 686 C 61.8591 -6.07012 1.526 0
M  V30 687 H 62.0921 -2.59715 1.44691 0
M  V30 688 H 59.6251 -1.287 0.85297 0
M  V30 689 H 61.5831 -4.065 -0.571641 0
M  V30 690 H 60.2441 -2.97786 -0.999105 0
M  V30 691 H 59.4371 -5.03611 0.197976 0
M  V30 692 H 59.0391 -3.56818 1.12057 0
M  V30 693 H 61.3311 -6.72523 0.819733 0
M  V30 694 H 62.2741 -6.68202 2.34333 0
M  V30 695 H 62.6821 -5.55249 1.01779 0
M  V30 696 N 62.0802 -0.821533 -1.34494 0
M  V30 697 C 63.3262 -0.409552 -1.98622 0
M  V30 698 C 63.6592 1.0244 -1.64984 0
M  V30 699 O 62.9342 1.71325 -0.920758 0
M  V30 700 C 63.2172 -0.610458 -3.54888 0
M  V30 701 C 63.0702 -2.09043 -3.98273 0
M  V30 702 C 64.3892 -0.0455379 -4.40076 0
M  V30 703 H 61.5082 -0.15028 -0.721516 0
M  V30 704 H 64.1502 -1.03384 -1.59411 0
M  V30 705 H 62.3002 -0.079044 -3.8842 0
M  V30 706 H 63.9722 -2.68537 -3.75081 0
M  V30 707 H 62.2152 -2.58139 -3.48635 0
M  V30 708 H 62.8862 -2.18182 -5.07051 0
M  V30 709 H 65.3622 -0.499557 -4.1309 0
M  V30 710 H 64.2382 -0.215922 -5.48475 0
M  V30 711 H 64.4992 1.04939 -4.29465 0
M  V30 712 N 63.5583 1.46682 -0.576371 0
M  V30 713 C 64.5053 2.30241 0.160499 0
M  V30 714 C 65.4753 1.40233 0.890162 0
M  V30 715 O 66.6603 1.69186 0.882084 0
M  V30 716 C 63.8003 3.24578 1.1723 0
M  V30 717 C 62.9133 4.29684 0.446736 0
M  V30 718 C 62.0483 5.11154 1.44551 0
M  V30 719 C 61.0873 6.08015 0.70599 0
M  V30 720 N 60.2243 6.82376 1.65251 0
M  V30 721 H 65.0643 2.92727 -0.558127 0
M  V30 722 H 62.6013 1.44272 -0.287056 0
M  V30 723 H 64.5593 3.77711 1.77172 0
M  V30 724 H 63.1893 2.63916 1.85872 0
M  V30 725 H 62.2413 3.79458 -0.267594 0
M  V30 726 H 63.5533 4.98626 -0.131686 0
M  V30 727 H 62.7073 5.68533 2.11791 0
M  V30 728 H 61.4463 4.42158 2.05786 0
M  V30 729 H 60.4513 5.49796 0.0197725 0
M  V30 730 H 61.6763 6.79028 0.09912 0
M  V30 731 H 59.6223 6.16094 2.25308 0
M  V30 732 H 59.5393 7.47556 1.12673 0
M  V30 733 H 60.8073 7.44316 2.31546 0
M  V30 734 N 65.0364 0.313813 1.54444 0
M  V30 735 C 65.9684 -0.590425 2.21465 0
M  V30 736 C 66.9814 -1.08753 1.21147 0
M  V30 737 O 68.1704 -1.00278 1.4767 0
M  V30 738 C 65.2704 -1.82179 2.85769 0
M  V30 739 C 64.4434 -1.46502 4.12136 0
M  V30 740 C 63.5024 -2.55288 4.60124 0
M  V30 741 O 62.5284 -2.19842 5.25032 0
M  V30 742 N 63.7304 -3.86053 4.33525 0
M  V30 743 H 66.4954 -0.0166033 2.99695 0
M  V30 744 H 64.0564 0.136578 1.61323 0
M  V30 745 H 66.0484 -2.54328 3.14801 0
M  V30 746 H 64.6184 -2.30369 2.11303 0
M  V30 747 H 63.8384 -0.575595 3.89975 0
M  V30 748 H 65.1264 -1.20221 4.94393 0
M  V30 749 H 64.5244 -4.17654 3.81552 0
M  V30 750 H 63.0814 -4.54461 4.67235 0
M  V30 751 N 66.5145 -1.57545 0.0417849 0
M  V30 752 C 67.4445 -2.14009 -0.933929 0
M  V30 753 C 68.4255 -1.05938 -1.33083 0
M  V30 754 O 69.6105 -1.33833 -1.40721 0
M  V30 755 C 66.7405 -2.67747 -2.21199 0
M  V30 756 C 65.6945 -3.80718 -1.95544 0
M  V30 757 C 65.0205 -4.20935 -3.29724 0
M  V30 758 C 66.3205 -5.06258 -1.28452 0
M  V30 759 H 68.0145 -2.95788 -0.463645 0
M  V30 760 H 65.5605 -1.42285 -0.221573 0
M  V30 761 H 67.5135 -3.05886 -2.89848 0
M  V30 762 H 66.2375 -1.83147 -2.70416 0
M  V30 763 H 64.8965 -3.43037 -1.2931 0
M  V30 764 H 64.5445 -3.33298 -3.76724 0
M  V30 765 H 64.2445 -4.9707 -3.13361 0
M  V30 766 H 65.7685 -4.61666 -3.9962 0
M  V30 767 H 67.1825 -5.41903 -1.8712 0
M  V30 768 H 65.5795 -5.87475 -1.22445 0
M  V30 769 H 66.6495 -4.84207 -0.259219 0
M  V30 770 N 67.9926 0.231505 -1.5589 0
M  V30 771 C 68.9026 1.308 -1.94752 0
M  V30 772 C 69.9186 1.51826 -0.849989 0
M  V30 773 O 71.0946 1.6515 -1.15271 0
M  V30 774 C 68.1596 2.63968 -2.24771 0
M  V30 775 C 67.2206 2.51331 -3.48039 0
M  V30 776 C 66.4536 3.78148 -3.76616 0
M  V30 777 O 66.6766 4.80722 -3.07022 0
M  V30 778 O 65.6106 3.75857 -4.70123 0
M  V30 779 H 69.4366 1.0083 -2.86474 0
M  V30 780 H 67.0216 0.433547 -1.42971 0
M  V30 781 H 68.9036 3.42633 -2.45318 0
M  V30 782 H 67.5786 2.9364 -1.36225 0
M  V30 783 H 66.4856 1.709 -3.32782 0
M  V30 784 H 67.8186 2.26601 -4.36936 0
M  V30 785 N 69.4707 1.49531 0.497807 0
M  V30 786 C 70.4187 1.66926 1.61983 0
M  V30 787 C 71.4127 0.535167 1.60724 0
M  V30 788 O 72.6187 0.714896 1.65195 0
M  V30 789 H 68.9937 0.526415 0.537021 0
M  V30 790 H 70.9647 2.61098 1.44465 0
M  V30 791 C 69.7137 1.75602 3.00099 0
M  V30 792 H 69.0367 2.62244 3.01775 0
M  V30 793 H 70.4767 1.91807 3.78135 0
M  V30 794 C 68.9357 0.501543 3.33146 0
M  V30 795 O 69.4657 -0.371342 3.9998 0
M  V30 796 N 67.6717 0.363531 2.88317 0
M  V30 797 H 67.2187 1.07485 2.34104 0
M  V30 798 H 67.1767 -0.474728 3.10795 0
M  V30 799 N 70.9488 -0.749086 1.3866 0
M  V30 800 C 72.1968 -1.50535 1.34847 0
M  V30 801 C 72.5178 -1.94909 -0.0595016 0
M  V30 802 O 71.7878 -1.67973 -1.00806 0
M  V30 803 H 70.3678 -0.558395 0.49619 0
M  V30 804 H 73.0298 -0.890165 1.73384 0
M  V30 805 H 72.1258 -2.39413 2.00219 0
M  V30 806 N 72.4269 -1.23603 -0.977757 0
M  V30 807 C 73.3369 -1.03632 -2.1047 0
M  V30 808 C 74.3529 0.0199435 -1.73989 0
M  V30 809 O 75.5289 -0.176076 -2.00629 0
M  V30 810 C 72.5939 -0.63276 -3.40877 0
M  V30 811 C 71.6549 -1.76437 -3.91367 0
M  V30 812 C 70.8879 -1.37997 -5.15551 0
M  V30 813 O 71.1109 -0.265357 -5.69782 0
M  V30 814 O 70.0449 -2.20201 -5.60174 0
M  V30 815 H 73.8709 -1.98086 -2.30208 0
M  V30 816 H 71.4559 -1.02332 -1.08851 0
M  V30 817 H 73.3379 -0.418761 -4.19314 0
M  V30 818 H 72.0129 0.282754 -3.22463 0
M  V30 819 H 70.9199 -2.03304 -3.14036 0
M  V30 820 H 72.2529 -2.6583 -4.14241 0
M  V30 821 N 73.905 1.17692 -1.04816 0
M  V30 822 C 75.154 1.87192 -0.751132 0
M  V30 823 C 75.467 1.8169 0.724441 0
M  V30 824 O 76.673 2.46625 1.13527 0
M  V30 825 C 75.129 3.35857 -1.29338 0
M  V30 826 C 74.737 3.4987 -2.79812 0
M  V30 827 C 76.481 4.10709 -1.07322 0
M  V30 828 C 74.388 4.92536 -3.27356 0
M  V30 829 H 73.318 0.701162 -0.277288 0
M  V30 830 H 75.969 1.32932 -1.26496 0
M  V30 831 H 74.351 3.89631 -0.707376 0
M  V30 832 H 75.525 3.06332 -3.44235 0
M  V30 833 H 73.84 2.88433 -3.00325 0
M  V30 834 H 76.437 5.15952 -1.4035 0
M  V30 835 H 76.78 4.16299 -0.0108001 0
M  V30 836 H 77.313 3.6313 -1.62423 0
M  V30 837 H 74.052 4.92119 -4.33012 0
M  V30 838 H 73.572 5.3676 -2.67673 0
M  V30 839 H 75.251 5.61288 -3.21815 0
M  V30 840 N 75.3831 0.828654 1.34056 0
M  V30 841 C 76.3311 0.242973 2.31327 0
M  V30 842 C 77.3251 -0.61944 1.57668 0
M  V30 843 O 78.5311 -0.51014 1.7262 0
M  V30 844 H 74.9061 0.059834 0.749616 0
M  V30 845 H 76.8771 1.07809 2.78244 0
M  V30 846 C 75.6261 -0.575733 3.429 0
M  V30 847 H 74.9491 0.0785582 3.99723 0
M  V30 848 H 76.3891 -0.951547 4.13185 0
M  V30 849 C 74.8481 -1.75044 2.87856 0
M  V30 850 O 75.3781 -2.84882 2.83205 0
M  V30 851 N 73.5841 -1.56903 2.44602 0
M  V30 852 H 73.1311 -0.675547 2.48584 0
M  V30 853 H 73.0891 -2.35652 2.08124 0
M  V30 854 N 76.8612 -1.46375 0.584142 0
M  V30 855 C 78.1102 -2.01585 0.0679741 0
M  V30 856 C 78.4232 -1.46109 -1.30045 0
M  V30 857 O 79.6292 -1.93148 -1.90804 0
M  V30 858 C 78.0852 -3.5983 0.0709207 0
M  V30 859 C 77.6932 -4.24303 1.43775 0
M  V30 860 C 79.4372 -4.22693 -0.391228 0
M  V30 861 C 77.3442 -5.74631 1.39834 0
M  V30 862 H 76.2742 -0.753689 0.0216421 0
M  V30 863 H 78.9252 -1.68093 0.736001 0
M  V30 864 H 77.3072 -3.90405 -0.663299 0
M  V30 865 H 78.4812 -4.05335 2.19181 0
M  V30 866 H 76.7962 -3.73539 1.84004 0
M  V30 867 H 79.3932 -5.3289 -0.439524 0
M  V30 868 H 79.7362 -3.91728 -1.40906 0
M  V30 869 H 80.2692 -3.96749 0.288974 0
M  V30 870 H 77.0082 -6.10258 2.39303 0
M  V30 871 H 76.5282 -5.95858 0.686505 0
M  V30 872 H 78.2072 -6.37375 1.11187 0
M  V30 873 N 78.3393 -0.321999 -1.54275 0
M  V30 874 C 79.2493 0.553631 -2.27974 0
M  V30 875 C 80.2653 1.13054 -1.32268 0
M  V30 876 O 81.4413 1.15084 -1.6528 0
M  V30 877 C 78.5063 1.69927 -3.02201 0
M  V30 878 C 77.5673 1.15433 -4.1349 0
M  V30 879 C 76.8003 2.24537 -4.84168 0
M  V30 880 O 77.0233 3.44852 -4.5435 0
M  V30 881 O 75.9573 1.90044 -5.7111 0
M  V30 882 H 79.7833 -0.0448345 -3.03667 0
M  V30 883 H 77.3683 -0.0877418 -1.49142 0
M  V30 884 H 79.2503 2.3663 -3.48689 0
M  V30 885 H 77.9253 2.28395 -2.29385 0
M  V30 886 H 76.8323 0.452436 -3.71354 0
M  V30 887 H 78.1653 0.614805 -4.88345 0
M  V30 888 N 79.8174 1.5752 -0.0501392 0
M  V30 889 C 80.7274 2.14952 0.939827 0
M  V30 890 C 81.7434 1.10706 1.34239 0
M  V30 891 O 82.9194 1.42869 1.41952 0
M  V30 892 C 79.9844 2.68232 2.19665 0
M  V30 893 C 79.0454 3.87272 1.85253 0
M  V30 894 C 78.2784 4.38002 3.04943 0
M  V30 895 O 78.5014 3.87811 4.18281 0
M  V30 896 O 77.4354 5.29602 2.86017 0
M  V30 897 H 81.2614 2.9986 0.481392 0
M  V30 898 H 78.8464 1.4841 0.171699 0
M  V30 899 H 80.7284 3.02475 2.93406 0
M  V30 900 H 79.4034 1.86395 2.64648 0
M  V30 901 H 78.3104 3.5792 1.0883 0
M  V30 902 H 79.6434 4.70336 1.4507 0
M  V30 903 N 81.2955 -0.223234 1.56011 0
M  V30 904 C 82.2255 -1.27988 1.95298 0
M  V30 905 C 83.2065 -1.48976 0.820979 0
M  V30 906 O 84.3915 -1.61188 1.08315 0
M  V30 907 C 81.5215 -2.63 2.26822 0
M  V30 908 C 80.4755 -2.56671 3.42497 0
M  V30 909 C 79.8015 -3.95697 3.59622 0
M  V30 910 C 81.1015 -2.11601 4.77517 0
M  V30 911 H 82.7955 -0.953525 2.8381 0
M  V30 912 H 80.3415 -0.457244 1.36548 0
M  V30 913 H 82.2945 -3.37077 2.52898 0
M  V30 914 H 81.0185 -2.9732 1.35161 0
M  V30 915 H 79.6775 -1.85051 3.16467 0
M  V30 916 H 79.3255 -4.27322 2.6534 0
M  V30 917 H 79.0255 -3.92345 4.37424 0
M  V30 918 H 80.5495 -4.71438 3.88044 0
M  V30 919 H 81.9635 -2.7542 5.02809 0
M  V30 920 H 80.3605 -2.19311 5.5859 0
M  V30 921 H 81.4305 -1.06824 4.72987 0
M  V30 922 N 82.7736 -1.49793 -0.48987 0
M  V30 923 C 83.7206 -1.67281 -1.59014 0
M  V30 924 C 84.6906 -0.514177 -1.57941 0
M  V30 925 O 85.8756 -0.742533 -1.75759 0
M  V30 926 C 83.0156 -1.75569 -2.97102 0
M  V30 927 C 82.1286 -3.0281 -3.08107 0
M  V30 928 C 81.2636 -3.02008 -4.36995 0
M  V30 929 C 80.3026 -4.23782 -4.41673 0
M  V30 930 N 79.4396 -4.20826 -5.62005 0
M  V30 931 H 84.2796 -2.61224 -1.43409 0
M  V30 932 H 81.8166 -1.29508 -0.697565 0
M  V30 933 H 83.7746 -1.78354 -3.77155 0
M  V30 934 H 82.4046 -0.850827 -3.11385 0
M  V30 935 H 81.4566 -3.09584 -2.21047 0
M  V30 936 H 82.7686 -3.92801 -3.07423 0
M  V30 937 H 81.9226 -3.03418 -5.25378 0
M  V30 938 H 80.6616 -2.09815 -4.4026 0
M  V30 939 H 79.6666 -4.22604 -3.5169 0
M  V30 940 H 80.8916 -5.17181 -4.40115 0
M  V30 941 H 78.8376 -3.31476 -5.66091 0
M  V30 942 H 78.7546 -5.04564 -5.62984 0
M  V30 943 H 80.0226 -4.26355 -6.52565 0
M  V30 944 N 84.2517 0.741722 -1.39055 0
M  V30 945 C 85.1987 1.85566 -1.37237 0
M  V30 946 C 86.1687 1.64457 -0.233072 0
M  V30 947 O 87.3537 1.85957 -0.427147 0
M  V30 948 C 84.4937 3.23004 -1.215 0
M  V30 949 C 83.6067 3.55864 -2.44918 0
M  V30 950 C 82.7417 4.82669 -2.21821 0
M  V30 951 C 81.7807 5.08351 -3.40948 0
M  V30 952 N 80.9177 6.26356 -3.17211 0
M  V30 953 H 85.7577 1.86455 -2.32462 0
M  V30 954 H 83.2947 0.911176 -1.15482 0
M  V30 955 H 85.2527 4.02331 -1.10389 0
M  V30 956 H 83.8827 3.21411 -0.29908 0
M  V30 957 H 82.9347 2.7129 -2.66657 0
M  V30 958 H 84.2467 3.70765 -3.33668 0
M  V30 959 H 83.4007 5.69962 -2.07914 0
M  V30 960 H 82.1397 4.69929 -1.30454 0
M  V30 961 H 81.1447 4.19522 -3.55361 0
M  V30 962 H 82.3697 5.22981 -4.33207 0
M  V30 963 H 80.3157 6.14917 -2.28502 0
M  V30 964 H 80.2327 6.41813 -3.99515 0
M  V30 965 H 81.5007 7.16506 -3.06984 0
M  V30 966 N 85.7298 1.2412 0.971189 0
M  V30 967 C 86.6778 1.02812 2.08644 0
M  V30 968 C 87.6718 -0.0358403 1.69362 0
M  V30 969 O 88.8778 0.118429 1.7961 0
M  V30 970 H 85.2528 0.315428 0.682649 0
M  V30 971 H 87.2238 1.97397 2.23779 0
M  V30 972 C 85.9728 0.645874 3.41649 0
M  V30 973 H 85.2958 1.45632 3.72332 0
M  V30 974 H 86.7358 0.536366 4.20594 0
M  V30 975 C 85.1948 -0.646713 3.30635 0
M  V30 976 O 85.7248 -1.69338 3.64263 0
M  V30 977 N 83.9308 -0.626115 2.83775 0
M  V30 978 H 83.4778 0.225988 2.56607 0
M  V30 979 H 83.4358 -1.49117 2.76788 0
M  V30 980 N 87.2079 -1.17134 1.05439 0
M  V30 981 C 88.1379 -2.2342 0.678649 0
M  V30 982 C 89.1189 -1.66971 -0.32476 0
M  V30 983 O 90.3039 -1.93149 -0.201802 0
M  V30 984 C 87.4339 -3.47256 0.0552099 0
M  V30 985 C 86.3879 -4.16543 0.98365 0
M  V30 986 C 85.7139 -5.34231 0.223961 0
M  V30 987 C 87.0139 -4.68495 2.3089 0
M  V30 988 H 88.7079 -2.55105 1.56722 0
M  V30 989 H 86.2539 -1.2262 0.754998 0
M  V30 990 H 88.2069 -4.20828 -0.21946 0
M  V30 991 H 86.9309 -3.14846 -0.868319 0
M  V30 992 H 85.5899 -3.44887 1.24293 0
M  V30 993 H 85.2379 -4.98071 -0.702412 0
M  V30 994 H 84.9379 -5.81527 0.842627 0
M  V30 995 H 86.4619 -6.10585 -0.0433671 0
M  V30 996 H 87.8759 -5.33691 2.09396 0
M  V30 997 H 86.2729 -5.26379 2.88176 0
M  V30 998 H 87.3429 -3.85169 2.94572 0
M  V30 999 N 88.686 -0.835752 -1.33615 0
M  V30 1000 C 89.596 -0.269088 -2.33052 0
M  V30 1001 C 90.612 0.603251 -1.63208 0
M  V30 1002 O 91.788 0.508112 -1.94885 0
M  V30 1003 C 88.853 0.549091 -3.42324 0
M  V30 1004 C 87.914 -0.347156 -4.27894 0
M  V30 1005 C 87.147 0.43207 -5.31948 0
M  V30 1006 O 87.37 1.66409 -5.45586 0
M  V30 1007 O 86.304 -0.192298 -6.01593 0
M  V30 1008 H 90.13 -1.09243 -2.83372 0
M  V30 1009 H 87.715 -0.598198 -1.36901 0
M  V30 1010 H 89.597 1.01414 -4.09015 0
M  V30 1011 H 88.272 1.34955 -2.94226 0
M  V30 1012 H 87.179 -0.859979 -3.64081 0
M  V30 1013 H 88.512 -1.1123 -4.79467 0
M  V30 1014 N 90.1641 1.46063 -0.591896 0
M  V30 1015 C 91.3941 2.06418 -0.0867676 0
M  V30 1016 C 91.8021 1.43975 1.22751 0
M  V30 1017 O 91.1451 0.542531 1.75506 0
M  V30 1018 C 91.2071 3.59213 0.143725 0
M  V30 1019 C 90.8711 4.439 -1.08635 0
M  V30 1020 C 91.8681 4.79864 -2.00067 0
M  V30 1021 C 89.5531 4.84896 -1.31077 0
M  V30 1022 C 91.5471 5.55661 -3.12282 0
M  V30 1023 C 89.2341 5.6045 -2.43596 0
M  V30 1024 C 90.2321 5.95747 -3.34027 0
M  V30 1025 O 89.9201 6.69772 -4.4459 0
M  V30 1026 H 89.6521 0.673443 -0.0587447 0
M  V30 1027 H 92.2061 1.88539 -0.814994 0
M  V30 1028 H 90.4361 3.75433 0.926668 0
M  V30 1029 H 92.1251 4.01463 0.5985 0
M  V30 1030 H 92.8911 4.48763 -1.83947 0
M  V30 1031 H 88.7701 4.56867 -0.61594 0
M  V30 1032 H 92.3141 5.8313 -3.82891 0
M  V30 1033 H 88.2111 5.90965 -2.59674 0
M  V30 1034 H 88.9791 6.88207 -4.43073 0
M  V30 1035 N 91.6422 0.330177 1.54103 0
M  V30 1036 C 92.8702 -0.272179 2.05102 0
M  V30 1037 C 93.2852 -1.45267 1.20595 0
M  V30 1038 O 92.6422 -1.8094 0.238144 0
M  V30 1039 C 92.6932 -0.70023 3.54653 0
M  V30 1040 O 92.4142 0.433301 4.35952 0
M  V30 1041 C 93.9152 -1.3647 4.21771 0
M  V30 1042 H 91.1352 -0.0549159 0.668749 0
M  V30 1043 H 93.6792 0.478285 1.98828 0
M  V30 1044 H 91.8342 -1.40066 3.61193 0
M  V30 1045 H 92.2482 0.0947539 5.24414 0
M  V30 1046 H 93.7222 -1.61509 5.27843 0
M  V30 1047 H 94.1992 -2.31409 3.73292 0
M  V30 1048 H 94.8052 -0.706675 4.19388 0
M  V30 1049 N 93.1203 -1.57491 0.0584922 0
M  V30 1050 C 94.0833 -2.1085 -0.898617 0
M  V30 1051 C 95.0833 -1.02964 -1.23511 0
M  V30 1052 O 96.2733 -1.29007 -1.17059 0
M  V30 1053 C 93.4053 -2.59881 -2.20623 0
M  V30 1054 H 94.5983 -2.96715 -0.435936 0
M  V30 1055 H 92.1513 -1.55141 -0.190023 0
M  V30 1056 H 92.8863 -1.77431 -2.71457 0
M  V30 1057 H 92.6713 -3.38727 -1.97501 0
M  V30 1058 H 94.1613 -3.01285 -2.89166 0
M  V30 1059 N 94.5984 0.214957 -1.56127 0
M  V30 1060 C 95.8234 0.95924 -1.83884 0
M  V30 1061 C 96.2484 1.7689 -0.639644 0
M  V30 1062 O 95.6064 1.76566 0.411601 0
M  V30 1063 C 95.6544 1.84723 -3.09693 0
M  V30 1064 O 94.7584 2.94346 -2.8885 0
M  V30 1065 H 94.0994 0.27125 -0.606069 0
M  V30 1066 H 96.6294 0.226276 -2.03345 0
M  V30 1067 H 96.6394 2.25576 -3.39969 0
M  V30 1068 H 95.3144 1.25218 -3.96602 0
M  V30 1069 H 93.8914 2.57391 -2.69823 0
M  V30 1070 N 96.0765 1.50051 0.48192 0
M  V30 1071 C 97.0065 1.71046 1.58951 0
M  V30 1072 C 97.9875 0.559288 1.60642 0
M  V30 1073 O 99.1725 0.797243 1.77081 0
M  V30 1074 C 96.3025 1.79462 2.97339 0
M  V30 1075 C 95.2565 2.94558 3.10515 0
M  V30 1076 C 94.5825 2.88105 4.50444 0
M  V30 1077 C 95.8825 4.35227 2.88747 0
M  V30 1078 H 97.5765 2.6378 1.41635 0
M  V30 1079 H 95.1225 1.26936 0.679942 0
M  V30 1080 H 97.0755 1.92734 3.74742 0
M  V30 1081 H 95.7995 0.833412 3.15788 0
M  V30 1082 H 94.4585 2.80918 2.35543 0
M  V30 1083 H 94.1065 1.89853 4.65795 0
M  V30 1084 H 93.8065 3.65366 4.60197 0
M  V30 1085 H 95.3305 3.03412 5.29881 0
M  V30 1086 H 96.7445 4.49449 3.55905 0
M  V30 1087 H 95.1415 5.13856 3.09955 0
M  V30 1088 H 96.2115 4.48347 1.84696 0
M  V30 1089 N 97.5546 -0.734337 1.39446 0
M  V30 1090 C 98.4846 -1.86155 1.40955 0
M  V30 1091 C 99.4656 -1.67898 0.272827 0
M  V30 1092 O 100.651 -1.88207 0.478743 0
M  V30 1093 C 97.7806 -3.23912 1.25294 0
M  V30 1094 C 96.7346 -3.56808 2.36373 0
M  V30 1095 C 96.0606 -4.93508 2.058 0
M  V30 1096 C 97.3606 -3.59713 3.78687 0
M  V30 1097 H 99.0546 -1.8515 2.35287 0
M  V30 1098 H 96.6006 -0.889367 1.13253 0
M  V30 1099 H 98.5536 -4.02443 1.2497 0
M  V30 1100 H 97.2776 -3.25446 0.274308 0
M  V30 1101 H 95.9366 -2.80606 2.35914 0
M  V30 1102 H 95.5846 -4.91623 1.06374 0
M  V30 1103 H 95.2846 -5.16486 2.80208 0
M  V30 1104 H 96.8086 -5.74396 2.07128 0
M  V30 1105 H 98.2226 -4.2832 3.81071 0
M  V30 1106 H 96.6196 -3.94209 4.52459 0
M  V30 1107 H 97.6896 -2.59504 4.09617 0
M  V30 1108 N 99.0327 -1.24633 -0.964593 0
M  V30 1109 C 99.9427 -1.05859 -2.09359 0
M  V30 1110 C 100.959 0.00148855 -1.74 0
M  V30 1111 O 102.135 -0.197346 -2.00431 0
M  V30 1112 C 99.1997 -0.668879 -3.40187 0
M  V30 1113 C 98.2607 -1.80578 -3.89474 0
M  V30 1114 C 97.4937 -1.43457 -5.14058 0
M  V30 1115 O 97.7167 -0.325775 -5.69469 0
M  V30 1116 O 96.6507 -2.2613 -5.57807 0
M  V30 1117 H 100.477 -2.00516 -2.28094 0
M  V30 1118 H 98.0617 -1.03481 -1.0776 0
M  V30 1119 H 99.9437 -0.463211 -4.18846 0
M  V30 1120 H 98.6187 0.248536 -3.22744 0
M  V30 1121 H 97.5257 -2.06623 -3.11862 0
M  V30 1122 H 98.8587 -2.70208 -4.11398 0
M  V30 1123 N 100.511 1.16574 -1.06058 0
M  V30 1124 C 101.474 2.19085 -0.673392 0
M  V30 1125 C 102.474 1.5835 0.279648 0
M  V30 1126 O 103.664 1.74088 0.0623488 0
M  V30 1127 C 100.796 3.40899 0.00954234 0
M  V30 1128 H 101.989 2.54853 -1.58081 0
M  V30 1129 H 99.5418 1.30808 -0.855516 0
M  V30 1130 H 100.277 3.10684 0.929826 0
M  V30 1131 H 100.062 3.86233 -0.67573 0
M  V30 1132 H 101.552 4.1675 0.266245 0
M  V30 1133 N 101.989 0.842826 1.3317 0
M  V30 1134 C 103.235 0.441099 1.97945 0
M  V30 1135 C 103.568 -0.998024 1.66593 0
M  V30 1136 O 102.843 -1.69839 0.947898 0
M  V30 1137 C 103.126 0.666841 3.53872 0
M  V30 1138 C 102.979 2.15352 3.94897 0
M  V30 1139 C 104.298 0.115544 4.39948 0
M  V30 1140 H 101.417 0.161739 0.719034 0
M  V30 1141 H 104.059 1.05907 1.57746 0
M  V30 1142 H 102.209 0.140828 3.88245 0
M  V30 1143 H 103.881 2.7447 3.70761 0
M  V30 1144 H 102.124 2.63653 3.44484 0
M  V30 1145 H 102.795 2.26221 5.03516 0
M  V30 1146 H 105.271 0.565213 4.12243 0
M  V30 1147 H 104.147 0.303152 5.48062 0
M  V30 1148 H 104.408 -0.980935 4.3108 0
M  V30 1149 N 103.467 -1.45747 0.599634 0
M  V30 1150 C 104.697 -2.06369 0.0977132 0
M  V30 1151 C 105.105 -1.44624 -1.21985 0
M  V30 1152 O 104.448 -0.551831 -1.75216 0
M  V30 1153 C 104.51 -3.59284 -0.124673 0
M  V30 1154 C 104.174 -4.43318 1.10987 0
M  V30 1155 C 105.171 -4.78796 2.02609 0
M  V30 1156 C 102.856 -4.84194 1.33647 0
M  V30 1157 C 104.85 -5.53997 3.15224 0
M  V30 1158 C 102.537 -5.5915 2.46565 0
M  V30 1159 C 103.535 -5.93968 3.37182 0
M  V30 1160 O 103.223 -6.67405 4.48136 0
M  V30 1161 H 102.955 -0.673122 0.0623153 0
M  V30 1162 H 105.509 -1.88104 0.824981 0
M  V30 1163 H 103.739 -3.75919 -0.906745 0
M  V30 1164 H 105.428 -4.01775 -0.577201 0
M  V30 1165 H 106.194 -4.47781 1.86325 0
M  V30 1166 H 102.073 -4.56534 0.64016 0
M  V30 1167 H 105.617 -5.81091 3.85978 0
M  V30 1168 H 101.514 -5.89579 2.62805 0
M  V30 1169 H 102.282 -6.85847 4.46717 0
M  V30 1170 N 104.945 -0.338344 -1.53925 0
M  V30 1171 C 106.194 0.260732 -2.00008 0
M  V30 1172 C 106.507 1.52073 -1.23017 0
M  V30 1173 O 107.713 2.19672 -1.5955 0
M  V30 1174 C 106.169 0.51515 -3.56194 0
M  V30 1175 C 105.777 -0.728645 -4.42035 0
M  V30 1176 C 107.521 1.07337 -4.10706 0
M  V30 1177 C 105.428 -0.445315 -5.89721 0
M  V30 1178 H 104.358 0.101205 -0.747177 0
M  V30 1179 H 107.009 -0.452866 -1.77824 0
M  V30 1180 H 105.391 1.28932 -3.74423 0
M  V30 1181 H 106.565 -1.50352 -4.35581 0
M  V30 1182 H 104.88 -1.20813 -3.98489 0
M  V30 1183 H 107.477 1.30022 -5.18651 0
M  V30 1184 H 107.82 2.0273 -3.63602 0
M  V30 1185 H 108.353 0.360034 -3.96167 0
M  V30 1186 H 105.092 -1.36883 -6.41049 0
M  V30 1187 H 104.612 0.291569 -5.99091 0
M  V30 1188 H 106.291 -0.0606218 -6.46972 0
M  V30 1189 N 106.423 1.57458 -0.0668435 0
M  V30 1190 C 107.7 1.8469 0.644132 0
M  V30 1191 C 108.08 0.958343 1.88093 0
M  V30 1192 O 107.428 0.0233579 2.28488 0
M  V30 1193 C 107.638 3.34767 0.986509 0
M  V30 1194 C 108.986 4.02159 1.36212 0
M  V30 1195 O 110.01 3.39484 1.07839 0
M  V30 1196 O 108.869 5.12694 1.89227 0
M  V30 1197 H 105.963 0.762816 0.319437 0
M  V30 1198 H 108.509 1.6942 -0.0973986 0
M  V30 1199 H 107.281 3.91151 0.107883 0
M  V30 1200 H 106.904 3.55281 1.78497 0
M  V30 1201 N 107.901 -0.206675 1.56239 0
M  V30 1202 C 108.811 -1.27686 1.96808 0
M  V30 1203 C 109.827 -1.50455 0.874035 0
M  V30 1204 O 111.003 -1.63295 1.17884 0
M  V30 1205 C 108.068 -2.60358 2.28942 0
M  V30 1206 C 107.129 -2.45762 3.51994 0
M  V30 1207 C 106.362 -3.72108 3.82585 0
M  V30 1208 O 106.585 -4.75776 3.14631 0
M  V30 1209 O 105.519 -3.6833 4.76043 0
M  V30 1210 H 109.345 -0.962593 2.88041 0
M  V30 1211 H 106.93 -0.410746 1.43643 0
M  V30 1212 H 108.812 -3.38687 2.50737 0
M  V30 1213 H 107.487 -2.91435 1.4088 0
M  V30 1214 H 106.394 -1.65584 3.35459 0
M  V30 1215 H 107.727 -2.19621 4.40486 0
M  V30 1216 N 109.379 -1.50304 -0.473955 0
M  V30 1217 C 110.607 -1.64902 -1.24959 0
M  V30 1218 C 111.022 -0.331198 -1.85872 0
M  V30 1219 O 110.379 0.68652 -1.69095 0
M  V30 1220 C 110.43 -2.73803 -2.36038 0
M  V30 1221 O 110.151 -4.00477 -1.77624 0
M  V30 1222 C 111.652 -2.99349 -3.26964 0
M  V30 1223 H 108.872 -0.554383 -0.378022 0
M  V30 1224 H 111.416 -1.9651 -0.566054 0
M  V30 1225 H 109.571 -2.44898 -3.00173 0
M  V30 1226 H 109.985 -4.60678 -2.5075 0
M  V30 1227 H 111.459 -3.79217 -4.01121 0
M  V30 1228 H 111.936 -2.10307 -3.85574 0
M  V30 1229 H 112.542 -3.29774 -2.68569 0
M  V30 1230 N 110.857 0.726932 -1.39834 0
M  V30 1231 C 112.273 1.03354 -1.21615 0
M  V30 1232 C 112.473 2.01327 -0.08338 0
M  V30 1233 O 111.529 2.46158 0.56238 0
M  V30 1234 C 112.842 1.58811 -2.55342 0
M  V30 1235 C 114.39 1.70851 -2.62257 0
M  V30 1236 C 114.865 2.29716 -3.96225 0
M  V30 1237 N 116.356 2.37116 -3.97907 0
M  V30 1238 C 117.091 2.83619 -4.98345 0
M  V30 1239 N 116.587 3.29958 -6.09179 0
M  V30 1240 N 118.38 2.82901 -4.8572 0
M  V30 1241 H 110.531 0.0773069 -2.12259 0
M  V30 1242 H 112.794 0.0969102 -0.943034 0
M  V30 1243 H 112.5 0.942855 -3.38826 0
M  V30 1244 H 112.374 2.57502 -2.75632 0
M  V30 1245 H 114.761 2.34497 -1.79152 0
M  V30 1246 H 114.842 0.707913 -2.45809 0
M  V30 1247 H 114.486 1.66696 -4.79765 0
M  V30 1248 H 114.416 3.30469 -4.09997 0
M  V30 1249 H 116.907 2.04374 -3.17868 0
M  V30 1250 H 117.22 3.63976 -6.8172 0
M  V30 1251 H 115.565 3.27946 -6.12761 0
M  V30 1252 H 118.756 2.46027 -3.98231 0
M  V30 1253 H 118.929 3.18827 -5.6414 0
M  V30 1254 N 112.336 1.25143 0.95797 0
M  V30 1255 C 113.268 1.01023 2.05735 0
M  V30 1256 C 114.281 -0.0236902 1.62783 0
M  V30 1257 O 115.47 0.21448 1.77207 0
M  V30 1258 C 112.57 0.504595 3.35122 0
M  V30 1259 C 111.743 1.6039 4.06932 0
M  V30 1260 C 110.802 1.09922 5.14591 0
M  V30 1261 O 109.828 1.79293 5.40225 0
M  V30 1262 N 111.03 -0.0612545 5.80468 0
M  V30 1263 H 113.795 1.95683 2.26998 0
M  V30 1264 H 111.356 1.16303 1.12629 0
M  V30 1265 H 113.348 0.151516 4.04416 0
M  V30 1266 H 111.918 -0.347989 3.10657 0
M  V30 1267 H 111.138 2.12872 3.31782 0
M  V30 1268 H 112.426 2.34252 4.51667 0
M  V30 1269 H 111.824 -0.640985 5.62057 0
M  V30 1270 H 110.381 -0.355395 6.5083 0
M  V30 1271 N 113.814 -1.1601 1.06675 0
M  V30 1272 C 115.063 -1.85973 0.780818 0
M  V30 1273 C 115.376 -1.82819 -0.695444 0
M  V30 1274 O 116.582 -2.484 -1.09589 0
M  V30 1275 C 115.038 -3.33757 1.34665 0
M  V30 1276 C 114.646 -3.45374 2.85343 0
M  V30 1277 C 116.39 -4.0895 1.13843 0
M  V30 1278 C 114.297 -4.87266 3.35151 0
M  V30 1279 H 113.227 -0.696661 0.288407 0
M  V30 1280 H 115.878 -1.30903 1.28595 0
M  V30 1281 H 114.26 -3.88456 0.769274 0
M  V30 1282 H 115.434 -3.00816 3.49065 0
M  V30 1283 H 113.749 -2.83619 3.04876 0
M  V30 1284 H 116.346 -5.13654 1.4854 0
M  V30 1285 H 116.689 -4.16229 0.0770282 0
M  V30 1286 H 117.222 -3.605 1.68179 0
M  V30 1287 H 113.961 -4.85168 4.40786 0
M  V30 1288 H 113.481 -5.32433 2.76179 0
M  V30 1289 H 115.16 -5.56097 3.30704 0
M  V30 1290 N 115.292 -0.849877 -1.32721 0
M  V30 1291 C 116.222 -0.306308 -2.31482 0
M  V30 1292 C 117.203 0.591952 -1.59468 0
M  V30 1293 O 118.388 0.513199 -1.87296 0
M  V30 1294 C 115.518 0.510204 -3.43532 0
M  V30 1295 C 114.472 -0.293209 -4.26994 0
M  V30 1296 C 113.798 0.647743 -5.30762 0
M  V30 1297 C 115.098 -1.51634 -4.99804 0
M  V30 1298 H 116.792 -1.13153 -2.77195 0
M  V30 1299 H 114.338 -0.545553 -1.33266 0
M  V30 1300 H 116.291 0.900856 -4.11658 0
M  V30 1301 H 115.015 1.36874 -2.96535 0
M  V30 1302 H 113.674 -0.665555 -3.60508 0
M  V30 1303 H 113.322 1.50299 -4.8002 0
M  V30 1304 H 113.022 0.11422 -5.87489 0
M  V30 1305 H 114.546 1.03567 -6.01753 0
M  V30 1306 H 115.96 -1.19824 -5.60638 0
M  V30 1307 H 114.357 -1.98745 -5.66234 0
M  V30 1308 H 115.427 -2.28018 -4.27943 0
M  V30 1309 N 116.77 1.45427 -0.607355 0
M  V30 1310 C 118.047 1.9557 -0.0344566 0
M  V30 1311 C 118.427 1.54979 1.43334 0
M  V30 1312 O 117.775 0.812241 2.13576 0
M  V30 1313 C 117.985 3.48226 -0.232321 0
M  V30 1314 C 119.333 4.2445 -0.113001 0
M  V30 1315 O 120.357 3.55829 -0.162431 0
M  V30 1316 O 119.216 5.465 0.00209442 0
M  V30 1317 H 116.31 0.826222 0.0358667 0
M  V30 1318 H 118.856 1.55594 -0.6774 0
M  V30 1319 H 117.628 3.70739 -1.25174 0
M  V30 1320 H 117.251 3.95092 0.445896 0
M  V30 1321 N 118.248 0.346503 1.53744 0
M  V30 1322 C 119.476 -0.25041 2.05379 0
M  V30 1323 C 119.891 -1.43979 1.22129 0
M  V30 1324 O 119.248 -1.80677 0.257321 0
M  V30 1325 C 119.299 -0.662575 3.55376 0
M  V30 1326 O 119.02 0.479515 4.35468 0
M  V30 1327 C 120.521 -1.31989 4.23195 0
M  V30 1328 H 117.741 -0.0478198 0.669294 0
M  V30 1329 H 120.285 0.499346 1.9831 0
M  V30 1330 H 118.44 -1.36227 3.62658 0
M  V30 1331 H 118.854 0.15037 5.24284 0
M  V30 1332 H 120.328 -1.55902 5.29527 0
M  V30 1333 H 120.805 -2.27436 3.75725 0
M  V30 1334 H 121.411 -0.662154 4.20114 0
M  V30 1335 N 119.726 -1.57421 0.075193 0
M  V30 1336 C 120.636 -2.1642 -0.905511 0
M  V30 1337 C 121.652 -1.12828 -1.32461 0
M  V30 1338 O 122.828 -1.45109 -1.39661 0
M  V30 1339 C 119.893 -2.71693 -2.15369 0
M  V30 1340 C 118.954 -3.90171 -1.79068 0
M  V30 1341 C 118.187 -4.42798 -2.97936 0
M  V30 1342 O 118.41 -3.94416 -4.12058 0
M  V30 1343 O 117.344 -5.34085 -2.77555 0
M  V30 1344 H 121.17 -3.00588 -0.433626 0
M  V30 1345 H 118.755 -1.48664 -0.148067 0
M  V30 1346 H 120.637 -3.07104 -2.88557 0
M  V30 1347 H 119.312 -1.90582 -2.61649 0
M  V30 1348 H 118.219 -3.59606 -1.03122 0
M  V30 1349 H 119.552 -4.72584 -1.37569 0
M  V30 1350 N 121.204 0.198386 -1.56346 0
M  V30 1351 C 122.481 0.944982 -1.71258 0
M  V30 1352 C 122.861 2.0151 -0.629048 0
M  V30 1353 O 122.209 2.25639 0.360473 0
M  V30 1354 C 122.419 1.5344 -3.1346 0
M  V30 1355 C 123.767 2.01778 -3.73591 0
M  V30 1356 O 124.791 1.63288 -3.16568 0
M  V30 1357 O 123.65 2.72594 -4.73661 0
M  V30 1358 H 120.744 0.442939 -0.69838 0
M  V30 1359 H 123.29 0.188342 -1.68652 0
M  V30 1360 H 122.062 0.762869 -3.83792 0
M  V30 1361 H 121.685 2.35596 -3.20282 0
M  V30 1362 N 122.682 1.50554 0.465978 0
M  V30 1363 C 123.592 1.72585 1.58907 0
M  V30 1364 C 124.608 0.60911 1.6299 0
M  V30 1365 O 125.784 0.88804 1.80765 0
M  V30 1366 C 122.849 1.81995 2.95091 0
M  V30 1367 C 121.91 3.05751 3.01355 0
M  V30 1368 C 121.143 3.14702 4.31043 0
M  V30 1369 O 121.366 2.30313 5.21835 0
M  V30 1370 O 120.3 4.07468 4.43005 0
M  V30 1371 H 124.126 2.67799 1.43239 0
M  V30 1372 H 121.711 1.34711 0.646013 0
M  V30 1373 H 123.593 1.90335 3.75966 0
M  V30 1374 H 122.268 0.899659 3.10947 0
M  V30 1375 H 121.175 3.02908 2.19539 0
M  V30 1376 H 122.508 3.97375 2.90437 0
M  V30 1377 N 124.16 -0.719506 1.40217 0
M  V30 1378 C 125.09 -1.8465 1.42922 0
M  V30 1379 C 126.071 -1.67599 0.29062 0
M  V30 1380 O 127.256 -1.87688 0.498677 0
M  V30 1381 C 124.386 -3.22565 1.28722 0
M  V30 1382 C 123.34 -3.54281 2.40144 0
M  V30 1383 C 122.666 -4.91298 2.11023 0
M  V30 1384 C 123.966 -3.55676 3.82481 0
M  V30 1385 H 125.66 -1.82644 2.37237 0
M  V30 1386 H 123.206 -0.877305 1.1419 0
M  V30 1387 H 125.159 -4.01095 1.29232 0
M  V30 1388 H 123.883 -3.25137 0.308811 0
M  V30 1389 H 122.542 -2.78088 2.38877 0
M  V30 1390 H 122.19 -4.90468 1.11582 0
M  V30 1391 H 121.89 -5.13485 2.8567 0
M  V30 1392 H 123.414 -5.72166 2.13209 0
M  V30 1393 H 124.828 -4.24254 3.85592 0
M  V30 1394 H 123.225 -3.89388 4.56614 0
M  V30 1395 H 124.295 -2.55144 4.12346 0
M  V30 1396 N 125.638 -1.25649 -0.95132 0
M  V30 1397 C 126.57 -1.02112 -2.05197 0
M  V30 1398 C 127.583 0.0150571 -1.62793 0
M  V30 1399 O 128.772 -0.223874 -1.77091 0
M  V30 1400 C 125.872 -0.522361 -3.3485 0
M  V30 1401 C 125.045 -1.62546 -4.06076 0
M  V30 1402 C 124.104 -1.12649 -5.14001 0
M  V30 1403 O 123.13 -1.82156 -5.39266 0
M  V30 1404 N 124.332 0.03047 -5.80492 0
M  V30 1405 H 127.097 -1.96885 -2.25957 0
M  V30 1406 H 124.658 -1.16899 -1.1201 0
M  V30 1407 H 126.65 -0.172961 -4.0433 0
M  V30 1408 H 125.22 0.33151 -3.10837 0
M  V30 1409 H 124.44 -2.14628 -3.30649 0
M  V30 1410 H 125.728 -2.36644 -4.50419 0
M  V30 1411 H 125.126 0.611169 -5.62389 0
M  V30 1412 H 123.683 0.320875 -6.5101 0
M  V30 1413 N 127.117 1.15442 -1.07289 0
M  V30 1414 C 128.027 2.23786 -0.704057 0
M  V30 1415 C 129.043 1.7166 0.284413 0
M  V30 1416 O 130.219 2.00972 0.131205 0
M  V30 1417 C 127.284 3.46535 -0.106792 0
M  V30 1418 C 126.345 4.13654 -1.14842 0
M  V30 1419 C 125.578 5.30544 -0.57956 0
M  V30 1420 O 125.801 5.67187 0.604585 0
M  V30 1421 O 124.735 5.87154 -1.32414 0
M  V30 1422 H 128.561 2.57664 -1.60757 0
M  V30 1423 H 126.146 1.23152 -0.845803 0
M  V30 1424 H 128.028 4.20804 0.224048 0
M  V30 1425 H 126.703 3.14407 0.770049 0
M  V30 1426 H 125.61 3.4131 -1.5316 0
M  V30 1427 H 126.943 4.49861 -1.99714 0
M  V30 1428 N 128.595 0.856903 1.32268 0
M  V30 1429 C 129.525 0.31858 2.31316 0
M  V30 1430 C 130.506 -0.583487 1.59779 0
M  V30 1431 O 131.691 -0.503259 1.87566 0
M  V30 1432 C 128.821 -0.491979 3.43798 0
M  V30 1433 C 127.775 0.315849 4.26833 0
M  V30 1434 C 127.101 -0.619586 5.31098 0
M  V30 1435 C 128.401 1.54282 4.98993 0
M  V30 1436 H 130.095 1.14621 2.76591 0
M  V30 1437 H 127.641 0.552613 1.32974 0
M  V30 1438 H 129.594 -0.879012 4.1213 0
M  V30 1439 H 128.318 -1.35299 2.97257 0
M  V30 1440 H 126.977 0.684664 3.6015 0
M  V30 1441 H 126.625 -1.47751 4.8081 0
M  V30 1442 H 126.325 -0.0830621 5.87541 0
M  V30 1443 H 127.849 -1.00375 6.02293 0
M  V30 1444 H 129.263 1.22796 5.59995 0
M  V30 1445 H 127.66 2.01745 5.65172 0
M  V30 1446 H 128.73 2.30285 4.26728 0
M  V30 1447 N 130.073 -1.45103 0.615059 0
M  V30 1448 C 131.489 -1.57137 0.279322 0
M  V30 1449 C 131.689 -1.60523 -1.21797 0
M  V30 1450 O 130.745 -1.53956 -2.00134 0
M  V30 1451 C 132.058 -2.85062 0.957083 0
M  V30 1452 C 133.606 -2.98749 0.933706 0
M  V30 1453 C 134.081 -4.29455 1.59162 0
M  V30 1454 N 135.572 -4.36231 1.55746 0
M  V30 1455 C 136.307 -5.36051 2.0356 0
M  V30 1456 N 135.803 -6.42367 2.59494 0
M  V30 1457 N 137.596 -5.27456 1.94284 0
M  V30 1458 H 129.747 -1.41148 1.58717 0
M  V30 1459 H 132.01 -0.675331 0.665306 0
M  V30 1460 H 131.716 -2.88488 2.01166 0
M  V30 1461 H 131.59 -3.7407 0.48494 0
M  V30 1462 H 133.977 -2.94886 -0.112347 0
M  V30 1463 H 134.058 -2.11132 1.44419 0
M  V30 1464 H 133.702 -4.34077 2.63704 0
M  V30 1465 H 133.632 -5.15901 1.0561 0
M  V30 1466 H 136.123 -3.60011 1.14893 0
M  V30 1467 H 136.436 -7.14793 2.93752 0
M  V30 1468 H 134.781 -6.43097 2.63537 0
M  V30 1469 H 137.972 -4.43308 1.5032 0
M  V30 1470 H 138.145 -6.05099 2.3186 0
M  V30 1471 N 131.551 -0.354651 -1.53558 0
M  V30 1472 C 132.776 0.242153 -2.05981 0
M  V30 1473 C 133.201 1.42553 -1.2272 0
M  V30 1474 O 132.559 1.79656 -0.243604 0
M  V30 1475 C 132.607 0.624367 -3.55154 0
M  V30 1476 O 131.711 1.72301 -3.74681 0
M  V30 1477 H 131.052 0.0378432 -0.662921 0
M  V30 1478 H 133.582 -0.512087 -1.98088 0
M  V30 1479 H 133.592 0.898433 -3.97985 0
M  V30 1480 H 132.267 -0.240989 -4.15201 0
M  V30 1481 H 130.844 1.44535 -3.4375 0
M  V30 1482 N 133.029 1.57378 -0.0835403 0
M  V30 1483 C 134.306 1.85363 0.624507 0
M  V30 1484 C 134.686 0.978239 1.87066 0
M  V30 1485 O 134.034 0.0475908 2.2845 0
M  V30 1486 C 134.244 3.35795 0.950947 0
M  V30 1487 C 135.592 4.03581 1.31939 0
M  V30 1488 O 136.616 3.40609 1.04232 0
M  V30 1489 O 135.475 5.14672 1.83779 0
M  V30 1490 H 132.569 0.766162 0.311329 0
M  V30 1491 H 135.115 1.69307 -0.115362 0
M  V30 1492 H 133.887 3.91244 0.0663899 0
M  V30 1493 H 133.51 3.57154 1.74719 0
M  V30 1494 N 134.507 -0.190092 1.56449 0
M  V30 1495 C 135.47 -1.21925 1.9408 0
M  V30 1496 C 136.47 -1.38176 0.822431 0
M  V30 1497 O 137.66 -1.35903 1.08977 0
M  V30 1498 C 134.792 -2.58773 2.21922 0
M  V30 1499 H 135.985 -0.897464 2.86157 0
M  V30 1500 H 133.538 -0.43181 1.50217 0
M  V30 1501 H 134.273 -2.95998 1.32499 0
M  V30 1502 H 134.058 -2.48348 3.03424 0
M  V30 1503 H 135.548 -3.32978 2.52022 0
M  V30 1504 N 135.985 -1.50799 -0.457987 0
M  V30 1505 C 137.231 -1.62683 -1.21088 0
M  V30 1506 C 137.564 -0.332268 -1.91336 0
M  V30 1507 O 136.839 0.667043 -1.82704 0
M  V30 1508 C 137.122 -2.81615 -2.24422 0
M  V30 1509 C 136.975 -4.20989 -1.58392 0
M  V30 1510 C 138.294 -2.96085 -3.2561 0
M  V30 1511 H 135.413 -0.592087 -0.438864 0
M  V30 1512 H 138.055 -1.83225 -0.50286 0
M  V30 1513 H 136.205 -2.64231 -2.84806 0
M  V30 1514 H 137.877 -4.49994 -1.01504 0
M  V30 1515 H 136.12 -4.24641 -0.886704 0
M  V30 1516 H 136.791 -5.0016 -2.33547 0
M  V30 1517 H 139.267 -3.12042 -2.75262 0
M  V30 1518 H 138.143 -3.80902 -3.95228 0
M  V30 1519 H 138.404 -2.0726 -3.90507 0
M  V30 1520 N 137.463 0.71206 -1.40597 0
M  V30 1521 C 138.874 1.29135 -1.34837 0
M  V30 1522 C 139.225 1.96186 -0.0235395 0
M  V30 1523 O 138.35 1.97768 0.878444 0
M  V30 1524 C 138.945 2.34827 -2.44217 0
M  V30 1525 C 137.504 2.88371 -2.41907 0
M  V30 1526 C 136.651 1.62202 -2.24913 0
M  V30 1527 H 139.602 0.507944 -1.50352 0
M  V30 1528 H 139.623 3.15749 -2.12327 0
M  V30 1529 H 139.135 1.85996 -3.40627 0
M  V30 1530 H 137.236 3.41422 -1.49204 0
M  V30 1531 H 137.349 3.39925 -3.37621 0
M  V30 1532 H 135.713 1.874 -1.72492 0
M  V30 1533 H 136.496 1.15391 -3.23326 0
M  V30 1534 N 138.941 1.26152 0.944643 0
M  V30 1535 C 140.166 1.14363 1.7302 0
M  V30 1536 C 140.591 -0.29772 1.85729 0
M  V30 1537 O 139.949 -1.2157 1.34501 0
M  V30 1538 C 139.997 1.81378 3.11664 0
M  V30 1539 O 139.101 1.10022 3.97453 0
M  V30 1540 H 138.442 0.398694 0.53098 0
M  V30 1541 H 140.972 1.66906 1.18337 0
M  V30 1542 H 140.982 1.88064 3.62072 0
M  V30 1543 H 139.657 2.86237 3.0173 0
M  V30 1544 H 138.234 1.11287 3.55907 0
M  V30 1545 N 140.419 -1.14872 1.07899 0
M  V30 1546 C 141.329 -2.2341 0.715915 0
M  V30 1547 C 142.345 -1.71808 -0.275306 0
M  V30 1548 O 143.521 -2.01039 -0.120545 0
M  V30 1549 C 140.586 -3.46474 0.125168 0
M  V30 1550 C 139.647 -4.13039 1.17034 0
M  V30 1551 C 138.88 -5.30229 0.607688 0
M  V30 1552 O 139.103 -5.675 -0.574497 0
M  V30 1553 O 138.037 -5.86444 1.35526 0
M  V30 1554 H 141.863 -2.56808 1.62121 0
M  V30 1555 H 139.448 -1.22702 0.852322 0
M  V30 1556 H 141.33 -4.20917 -0.201729 0
M  V30 1557 H 140.005 -3.14811 -0.753364 0
M  V30 1558 H 138.912 -3.40493 1.54968 0
M  V30 1559 H 140.245 -4.48796 2.02097 0
M  V30 1560 N 141.898 -0.863906 -1.31812 0
M  V30 1561 C 143.144 -0.472535 -1.97218 0
M  V30 1562 C 143.477 0.971394 -1.68159 0
M  V30 1563 O 142.752 1.68309 -0.974798 0
M  V30 1564 C 143.035 -0.723054 -3.52766 0
M  V30 1565 C 142.888 -2.21608 -3.91421 0
M  V30 1566 C 144.207 -0.185522 -4.39709 0
M  V30 1567 H 141.326 -0.173158 -0.71637 0
M  V30 1568 H 143.968 -1.08403 -1.56041 0
M  V30 1569 H 142.118 -0.202577 -3.87971 0
M  V30 1570 H 143.79 -2.80334 -3.66347 0
M  V30 1571 H 142.033 -2.691 -3.40246 0
M  V30 1572 H 142.704 -2.34203 -4.99853 0
M  V30 1573 H 145.18 -0.630726 -4.11292 0
M  V30 1574 H 144.056 -0.390306 -5.47511 0
M  V30 1575 H 144.317 0.912229 -4.32586 0
M  V30 1576 N 143.376 1.44774 -0.622745 0
M  V30 1577 C 144.792 1.56986 -0.287652 0
M  V30 1578 C 144.992 1.61167 1.20944 0
M  V30 1579 O 144.048 1.55015 1.99315 0
M  V30 1580 C 145.361 2.84551 -0.972188 0
M  V30 1581 C 146.909 2.9825 -0.949536 0
M  V30 1582 C 147.384 4.28605 -1.61437 0
M  V30 1583 N 148.875 4.35399 -1.58057 0
M  V30 1584 C 149.61 5.34964 -2.064 0
M  V30 1585 N 149.106 6.40981 -2.62897 0
M  V30 1586 N 150.899 5.26419 -1.97078 0
M  V30 1587 H 143.05 1.40304 -1.59463 0
M  V30 1588 H 145.313 0.671794 -0.668878 0
M  V30 1589 H 145.019 2.87417 -2.02693 0
M  V30 1590 H 144.893 3.73807 -0.504771 0
M  V30 1591 H 147.28 2.94941 0.0967067 0
M  V30 1592 H 147.361 2.10364 -1.45536 0
M  V30 1593 H 147.005 4.32672 -2.66002 0
M  V30 1594 H 146.935 5.15334 -1.08344 0
M  V30 1595 H 149.426 3.59397 -1.16801 0
M  V30 1596 H 149.739 7.13225 -2.97539 0
M  V30 1597 H 148.084 6.4169 -2.66943 0
M  V30 1598 H 151.275 4.42504 -1.52669 0
M  V30 1599 H 151.448 6.03861 -2.35066 0
M  V30 1600 N 144.854 0.36279 1.53368 0
M  V30 1601 C 146.131 -0.284021 1.93527 0
M  V30 1602 C 146.511 -1.66628 1.29608 0
M  V30 1603 O 145.859 -2.23942 0.45413 0
M  V30 1604 C 146.069 -0.337028 3.47369 0
M  V30 1605 C 147.417 -0.578708 4.20638 0
M  V30 1606 O 148.441 -0.418352 3.53735 0
M  V30 1607 O 147.3 -0.89074 5.39192 0
M  V30 1608 H 144.394 -0.169743 0.809393 0
M  V30 1609 H 146.94 0.41537 1.64538 0
M  V30 1610 H 145.712 0.632217 3.86159 0
M  V30 1611 H 145.335 -1.08243 3.82582 0
M  V30 1612 N 146.332 -1.57332 0.0918853 0
M  V30 1613 C 147.578 -1.95328 -0.567313 0
M  V30 1614 C 147.933 -0.972866 -1.65991 0
M  V30 1615 O 147.226 0.00166256 -1.916 0
M  V30 1616 C 147.42 -3.37689 -1.17051 0
M  V30 1617 C 147.249 -4.49489 -0.137875 0
M  V30 1618 C 146.019 -5.04498 0.284515 0
M  V30 1619 C 148.217 -5.10393 0.63271 0
M  V30 1620 N 146.199 -5.99853 1.30576 0
M  V30 1621 C 147.57 -6.01435 1.50587 0
M  V30 1622 C 149.625 -4.93143 0.68658 0
M  V30 1623 C 148.328 -6.77077 2.42815 0
M  V30 1624 C 150.354 -5.69445 1.59645 0
M  V30 1625 C 149.716 -6.60151 2.45725 0
M  V30 1626 H 145.815 -0.761467 -0.178023 0
M  V30 1627 H 148.399 -1.93924 0.173706 0
M  V30 1628 H 146.57 -3.39793 -1.88136 0
M  V30 1629 H 148.302 -3.62872 -1.79181 0
M  V30 1630 H 145.057 -4.73489 -0.102593 0
M  V30 1631 H 145.481 -6.52231 1.81449 0
M  V30 1632 H 150.123 -4.22785 0.035244 0
M  V30 1633 H 147.841 -7.46699 3.08975 0
M  V30 1634 H 151.427 -5.58112 1.64323 0
M  V30 1635 H 150.307 -7.18159 3.14987 0
M  V30 1636 N 147.81 0.181792 -1.56548 0
M  V30 1637 C 148.74 1.22765 -1.98623 0
M  V30 1638 C 149.721 1.46747 -0.860189 0
M  V30 1639 O 150.906 1.58259 -1.12551 0
M  V30 1640 C 148.036 2.56894 -2.33715 0
M  V30 1641 C 146.99 2.475 -3.49182 0
M  V30 1642 C 146.316 3.86023 -3.69986 0
M  V30 1643 C 147.616 1.98866 -4.82959 0
M  V30 1644 H 149.31 0.877942 -2.86239 0
M  V30 1645 H 146.856 0.42088 -1.37712 0
M  V30 1646 H 148.809 3.30253 -2.61746 0
M  V30 1647 H 147.533 2.93632 -1.42997 0
M  V30 1648 H 146.192 1.76596 -3.21262 0
M  V30 1649 H 145.84 4.20136 -2.76576 0
M  V30 1650 H 145.54 3.80609 -4.47672 0
M  V30 1651 H 147.064 4.60984 -4.00407 0
M  V30 1652 H 148.478 2.61992 -5.09934 0
M  V30 1653 H 146.875 2.04424 -5.64208 0
M  V30 1654 H 147.945 0.942465 -4.75653 0
M  V30 1655 N 149.288 1.51039 0.449983 0
M  V30 1656 C 150.251 1.70863 1.5277 0
M  V30 1657 C 151.251 0.578846 1.5002 0
M  V30 1658 O 152.441 0.846213 1.52266 0
M  V30 1659 C 149.573 1.75341 2.9235 0
M  V30 1660 H 150.766 2.67034 1.36502 0
M  V30 1661 H 148.319 1.40838 0.677812 0
M  V30 1662 H 149.054 0.809383 3.14037 0
M  V30 1663 H 148.839 2.57436 2.95752 0
M  V30 1664 H 150.329 1.92559 3.70555 0
M  V30 1665 N 150.766 -0.704594 1.40972 0
M  V30 1666 C 151.991 -1.49858 1.43378 0
M  V30 1667 C 152.416 -1.88061 0.038184 0
M  V30 1668 O 151.774 -1.5402 -0.956425 0
M  V30 1669 C 151.822 -2.74333 2.34038 0
M  V30 1670 O 150.926 -3.7147 1.7912 0
M  V30 1671 H 150.267 -0.45139 0.486974 0
M  V30 1672 H 152.797 -0.866832 1.8533 0
M  V30 1673 H 152.807 -3.22741 2.49604 0
M  V30 1674 H 151.482 -2.45863 3.35446 0
M  V30 1675 H 150.059 -3.30363 1.72958 0
M  V30 1676 N 152.244 -1.26651 -0.937939 0
M  V30 1677 C 153.472 -1.15173 -1.7188 0
M  V30 1678 C 153.887 0.292668 -1.86518 0
M  V30 1679 O 153.244 1.20014 -1.37488 0
M  V30 1680 C 153.295 -1.81925 -3.12387 0
M  V30 1681 O 153.016 -3.2072 -2.98446 0
M  V30 1682 C 154.517 -1.76442 -4.06673 0
M  V30 1683 H 151.737 -0.400911 -0.538063 0
M  V30 1684 H 154.281 -1.67332 -1.1756 0
M  V30 1685 H 152.436 -1.33696 -3.63599 0
M  V30 1686 H 152.85 -3.53802 -3.872 0
M  V30 1687 H 154.324 -2.27781 -5.02812 0
M  V30 1688 H 154.801 -0.731608 -4.33064 0
M  V30 1689 H 155.407 -2.24238 -3.61382 0
M  V30 1690 N 153.722 1.14298 -1.08507 0
M  V30 1691 C 154.969 1.85359 -0.815373 0
M  V30 1692 C 155.297 1.83001 0.658865 0
M  V30 1693 O 154.552 1.25655 1.50031 0
M  V30 1694 C 154.851 3.33547 -1.28379 0
M  V30 1695 C 154.517 3.56093 -2.76602 0
M  V30 1696 C 153.179 3.61955 -3.17084 0
M  V30 1697 C 155.531 3.64834 -3.72217 0
M  V30 1698 C 152.859 3.74082 -4.51973 0
M  V30 1699 C 155.211 3.78487 -5.06883 0
M  V30 1700 C 153.875 3.82598 -5.46969 0
M  V30 1701 H 153.145 0.678276 -0.298366 0
M  V30 1702 H 155.792 1.35002 -1.35819 0
M  V30 1703 H 154.097 3.86191 -0.660593 0
M  V30 1704 H 155.794 3.86959 -1.05186 0
M  V30 1705 H 152.384 3.52179 -2.4427 0
M  V30 1706 H 156.568 3.59595 -3.42061 0
M  V30 1707 H 151.824 3.75527 -4.82483 0
M  V30 1708 H 155.998 3.84193 -5.80834 0
M  V30 1709 H 153.625 3.91747 -6.51489 0
M  V30 1710 N 155.201 0.870884 1.31352 0
M  V30 1711 C 156.429 0.49677 2.00848 0
M  V30 1712 C 156.844 -0.910998 1.65367 0
M  V30 1713 O 156.201 -1.59696 0.883374 0
M  V30 1714 C 156.252 0.645308 3.55694 0
M  V30 1715 O 155.973 1.99764 3.89905 0
M  V30 1716 C 157.474 0.272326 4.42463 0
M  V30 1717 H 154.694 0.193462 0.642506 0
M  V30 1718 H 157.238 1.1723 1.67563 0
M  V30 1719 H 155.393 0.0173176 3.87396 0
M  V30 1720 H 155.807 2.00607 4.84621 0
M  V30 1721 H 157.281 0.427208 5.50344 0
M  V30 1722 H 157.758 -0.788587 4.32062 0
M  V30 1723 H 158.364 0.876054 4.1618 0
M  V30 1724 N 156.679 -1.44442 0.630414 0
M  V30 1725 C 157.611 -2.2892 -0.113347 0
M  V30 1726 C 158.624 -1.41243 -0.80959 0
M  V30 1727 O 159.813 -1.65402 -0.671156 0
M  V30 1728 C 156.913 -3.17594 -1.18266 0
M  V30 1729 C 156.086 -4.33682 -0.569073 0
M  V30 1730 C 155.145 -5.03397 -1.53226 0
M  V30 1731 O 154.171 -5.59438 -1.04967 0
M  V30 1732 N 155.373 -5.04783 -2.86661 0
M  V30 1733 H 158.138 -2.93392 0.611636 0
M  V30 1734 H 155.699 -1.54881 0.471523 0
M  V30 1735 H 157.691 -3.61097 -1.82732 0
M  V30 1736 H 156.261 -2.54876 -1.80988 0
M  V30 1737 H 155.481 -3.9338 0.254187 0
M  V30 1738 H 156.769 -5.08608 -0.139767 0
M  V30 1739 H 156.167 -4.60584 -3.28449 0
M  V30 1740 H 154.724 -5.52077 -3.46489 0
M  V30 1741 N 158.157 -0.370918 -1.53173 0
M  V30 1742 C 159.089 0.507823 -2.23503 0
M  V30 1743 C 160.102 1.04182 -1.251 0
M  V30 1744 O 161.291 0.947286 -1.5129 0
M  V30 1745 C 158.391 1.71447 -2.92334 0
M  V30 1746 C 157.564 1.31105 -4.17289 0
M  V30 1747 C 156.623 2.38035 -4.69282 0
M  V30 1748 O 155.649 2.00204 -5.32829 0
M  V30 1749 N 156.851 3.69697 -4.47554 0
M  V30 1750 H 159.616 -0.0946382 -2.99551 0
M  V30 1751 H 157.177 -0.196358 -1.60705 0
M  V30 1752 H 159.169 2.42469 -3.24023 0
M  V30 1753 H 157.739 2.22368 -2.19707 0
M  V30 1754 H 156.959 0.430462 -3.91843 0
M  V30 1755 H 158.247 1.0179 -4.98514 0
M  V30 1756 H 157.645 4.03205 -3.9679 0
M  V30 1757 H 156.202 4.36807 -4.8378 0
M  V30 1758 N 159.635 1.57281 -0.100228 0
M  V30 1759 C 160.598 2.13158 0.842398 0
M  V30 1760 C 161.598 1.06202 1.20738 0
M  V30 1761 O 162.788 1.32066 1.13597 0
M  V30 1762 C 159.92 2.65639 2.13655 0
M  V30 1763 H 161.113 2.97766 0.357114 0
M  V30 1764 H 158.666 1.5559 0.148823 0
M  V30 1765 H 159.401 1.84566 2.66657 0
M  V30 1766 H 159.186 3.43844 1.88451 0
M  V30 1767 H 160.676 3.08846 2.81077 0
M  V30 1768 N 161.113 -0.173488 1.56642 0
M  V30 1769 C 162.529 -0.525174 1.50712 0
M  V30 1770 C 162.729 -1.8476 0.804107 0
M  V30 1771 O 161.785 -2.49869 0.363574 0
M  V30 1772 C 163.098 -0.559937 2.95441 0
M  V30 1773 C 164.646 -0.647288 3.06234 0
M  V30 1774 C 165.121 -0.712963 4.52417 0
M  V30 1775 N 166.612 -0.775911 4.56655 0
M  V30 1776 C 167.347 -0.847264 5.67106 0
M  V30 1777 N 166.843 -0.879585 6.87194 0
M  V30 1778 N 168.636 -0.886117 5.55071 0
M  V30 1779 H 160.787 0.693681 2.00753 0
M  V30 1780 H 163.05 0.249841 0.914485 0
M  V30 1781 H 162.756 0.343049 3.50023 0
M  V30 1782 H 162.63 -1.40718 3.49969 0
M  V30 1783 H 165.017 -1.5407 2.51687 0
M  V30 1784 H 165.098 0.226586 2.54794 0
M  V30 1785 H 164.742 0.176183 5.07594 0
M  V30 1786 H 164.672 -1.60295 5.0161 0
M  V30 1787 H 167.163 -0.759304 3.70193 0
M  V30 1788 H 167.476 -0.935144 7.67121 0
M  V30 1789 H 165.821 -0.847898 6.89808 0
M  V30 1790 H 169.012 -0.857853 4.60172 0
M  V30 1791 H 169.185 -0.938263 6.41171 0
M  V30 1792 N 162.591 -1.51276 -0.441967 0
M  V30 1793 C 163.554 -1.7167 -1.51862 0
M  V30 1794 C 164.554 -0.586793 -1.49711 0
M  V30 1795 O 165.744 -0.854276 -1.51815 0
M  V30 1796 C 162.876 -1.76889 -2.91416 0
M  V30 1797 H 164.069 -2.67754 -1.35084 0
M  V30 1798 H 161.622 -1.41196 -0.670333 0
M  V30 1799 H 162.357 -0.826026 -3.13604 0
M  V30 1800 H 162.142 -2.59001 -2.94382 0
M  V30 1801 H 163.632 -1.94522 -3.69528 0
M  V30 1802 N 164.069 0.697108 -1.41344 0
M  V30 1803 C 165.016 1.81106 -1.43071 0
M  V30 1804 C 165.986 1.63632 -0.285275 0
M  V30 1805 O 167.171 1.84504 -0.486091 0
M  V30 1806 C 164.311 3.18975 -1.31715 0
M  V30 1807 C 163.424 3.47892 -2.56115 0
M  V30 1808 C 162.559 4.75367 -2.37064 0
M  V30 1809 C 161.598 4.97247 -3.56948 0
M  V30 1810 N 160.735 6.15947 -3.36977 0
M  V30 1811 H 165.575 1.78965 -2.38276 0
M  V30 1812 H 163.112 0.873975 -1.18322 0
M  V30 1813 H 165.07 3.98615 -1.23133 0
M  V30 1814 H 163.7 3.20297 -0.401183 0
M  V30 1815 H 162.752 2.62669 -2.75153 0
M  V30 1816 H 164.064 3.59962 -3.45295 0
M  V30 1817 H 163.218 5.63059 -2.25941 0
M  V30 1818 H 161.957 4.65541 -1.45338 0
M  V30 1819 H 160.962 4.08004 -3.68527 0
M  V30 1820 H 162.187 5.08934 -4.49626 0
M  V30 1821 H 160.133 6.07336 -2.47949 0
M  V30 1822 H 160.05 6.28777 -4.19732 0
M  V30 1823 H 161.318 7.06377 -3.29623 0
M  V30 1824 N 165.547 1.27147 0.931209 0
M  V30 1825 C 166.795 1.13055 1.6752 0
M  V30 1826 C 167.116 -0.324791 1.92276 0
M  V30 1827 O 166.386 -1.22775 1.52654 0
M  V30 1828 H 164.966 0.415391 0.620854 0
M  V30 1829 H 167.628 1.59623 1.11833 0
M  V30 1830 H 166.724 1.65694 2.64485 0
M  V30 1831 N 167.025 -1.13721 1.09112 0
M  V30 1832 C 168.441 -1.36914 0.820174 0
M  V30 1833 C 168.641 -1.93356 -0.567079 0
M  V30 1834 O 167.697 -2.15093 -1.32255 0
M  V30 1835 C 169.01 -2.3235 1.90877 0
M  V30 1836 C 170.558 -2.45973 1.93562 0
M  V30 1837 C 171.033 -3.44714 3.01556 0
M  V30 1838 N 172.524 -3.52263 3.00775 0
M  V30 1839 C 173.259 -4.28536 3.80978 0
M  V30 1840 N 172.755 -5.07991 4.71081 0
M  V30 1841 N 174.548 -4.23804 3.69251 0
M  V30 1842 H 166.699 -0.754348 1.98553 0
M  V30 1843 H 168.962 -0.3944 0.862063 0
M  V30 1844 H 168.668 -1.98027 2.90651 0
M  V30 1845 H 168.542 -3.32332 1.78424 0
M  V30 1846 H 170.929 -2.79584 0.944286 0
M  V30 1847 H 171.01 -1.45926 2.10093 0
M  V30 1848 H 170.654 -3.11835 4.00901 0
M  V30 1849 H 170.584 -4.44558 2.82269 0
M  V30 1850 H 173.075 -2.95567 2.35475 0
M  V30 1851 H 173.388 -5.63487 5.28869 0
M  V30 1852 H 171.733 -5.07235 4.75119 0
M  V30 1853 H 174.924 -3.60806 2.98222 0
M  V30 1854 H 175.097 -4.82995 4.31995 0
M  V30 1855 N 168.503 -0.877838 -1.30888 0
M  V30 1856 C 169.919 -0.570844 -1.49042 0
M  V30 1857 C 170.119 0.893159 -1.80624 0
M  V30 1858 O 169.175 1.67485 -1.88958 0
M  V30 1859 C 170.488 -1.47784 -2.61878 0
M  V30 1860 C 172.036 -1.48071 -2.75761 0
M  V30 1861 C 172.511 -2.37347 -3.91702 0
M  V30 1862 N 174.002 -2.35271 -3.99001 0
M  V30 1863 C 174.737 -3.01063 -4.88004 0
M  V30 1864 N 174.233 -3.76055 -5.81854 0
M  V30 1865 N 176.026 -2.90332 -4.81315 0
M  V30 1866 H 168.177 -1.82502 -1.0866 0
M  V30 1867 H 170.44 -0.780797 -0.537644 0
M  V30 1868 H 170.146 -2.51993 -2.45341 0
M  V30 1869 H 170.02 -1.18215 -3.58197 0
M  V30 1870 H 172.407 -0.446166 -2.91708 0
M  V30 1871 H 172.488 -1.81668 -1.80085 0
M  V30 1872 H 172.132 -3.40883 -3.76512 0
M  V30 1873 H 172.062 -2.01071 -4.86701 0
M  V30 1874 H 174.553 -1.80768 -3.3186 0
M  V30 1875 H 174.866 -4.23366 -6.46514 0
M  V30 1876 H 173.211 -3.80163 -5.81808 0
M  V30 1877 H 176.402 -2.31278 -4.06974 0
M  V30 1878 H 176.575 -3.41885 -5.50471 0
M  V30 1879 N 169.982 1.44106 -0.638065 0
M  V30 1880 C 170.945 2.29138 0.0531013 0
M  V30 1881 C 171.945 1.41409 0.765506 0
M  V30 1882 O 173.135 1.63206 0.609046 0
M  V30 1883 C 170.267 3.23144 1.08584 0
M  V30 1884 H 171.46 2.91739 -0.694883 0
M  V30 1885 H 169.013 1.51134 -0.398538 0
M  V30 1886 H 169.748 2.65408 1.86357 0
M  V30 1887 H 169.533 3.87804 0.578852 0
M  V30 1888 H 171.023 3.87004 1.56899 0
M  V30 1889 N 171.46 0.379036 1.52974 0
M  V30 1890 C 172.37 -0.468639 2.29872 0
M  V30 1891 C 173.386 -1.08067 1.36373 0
M  V30 1892 O 174.562 -1.08871 1.69438 0
M  V30 1893 C 171.627 -1.58594 3.083 0
M  V30 1894 C 170.688 -1.00007 4.17489 0
M  V30 1895 C 169.921 -2.06413 4.92168 0
M  V30 1896 O 170.144 -3.27751 4.66835 0
M  V30 1897 O 169.078 -1.68717 5.7777 0
M  V30 1898 H 172.904 0.157508 3.03291 0
M  V30 1899 H 170.489 0.143035 1.48714 0
M  V30 1900 H 172.371 -2.23525 3.57232 0
M  V30 1901 H 171.046 -2.19724 2.37703 0
M  V30 1902 H 169.953 -0.314299 3.72777 0
M  V30 1903 H 171.286 -0.433135 4.90291 0
M  V30 1904 N 172.938 -1.57226 0.108567 0
M  V30 1905 C 173.848 -2.18292 -0.859401 0
M  V30 1906 C 174.864 -1.15612 -1.30038 0
M  V30 1907 O 176.04 -1.48039 -1.36552 0
M  V30 1908 C 173.105 -2.762 -2.09558 0
M  V30 1909 C 172.166 -3.93881 -1.70752 0
M  V30 1910 C 171.399 -4.49018 -2.88477 0
M  V30 1911 O 171.622 -4.03068 -4.036 0
M  V30 1912 O 170.556 -5.39852 -2.66164 0
M  V30 1913 H 174.382 -3.01441 -0.369769 0
M  V30 1914 H 171.967 -1.48945 -0.1165 0
M  V30 1915 H 173.849 -3.13156 -2.81978 0
M  V30 1916 H 172.524 -1.96089 -2.57548 0
M  V30 1917 H 171.431 -3.61713 -0.954714 0
M  V30 1918 H 172.764 -4.75396 -1.27513 0
M  V30 1919 N 174.416 0.165178 -1.56732 0
M  V30 1920 C 175.363 1.2044 -1.96883 0
M  V30 1921 C 176.333 1.43664 -0.833657 0
M  V30 1922 O 177.518 1.56302 -1.09427 0
M  V30 1923 C 174.658 2.53727 -2.33916 0
M  V30 1924 C 173.771 2.3783 -3.6064 0
M  V30 1925 C 172.906 3.64026 -3.86857 0
M  V30 1926 C 171.945 3.43088 -5.06909 0
M  V30 1927 N 171.082 4.61369 -5.29229 0
M  V30 1928 H 175.922 0.854996 -2.85471 0
M  V30 1929 H 173.459 0.41076 -1.41249 0
M  V30 1930 H 175.417 3.31419 -2.53411 0
M  V30 1931 H 174.047 2.8665 -1.48431 0
M  V30 1932 H 173.099 1.51282 -3.49024 0
M  V30 1933 H 174.411 2.18308 -4.4849 0
M  V30 1934 H 173.565 4.50152 -4.06753 0
M  V30 1935 H 172.304 3.86533 -2.97394 0
M  V30 1936 H 171.309 2.55349 -4.86906 0
M  V30 1937 H 172.534 3.21997 -5.97909 0
M  V30 1938 H 170.48 4.84084 -4.42718 0
M  V30 1939 H 170.397 4.44783 -6.11313 0
M  V30 1940 H 171.665 5.48761 -5.53608 0
M  V30 1941 N 175.894 1.51508 0.433938 0
M  V30 1942 C 177.305 1.56784 1.01369 0
M  V30 1943 C 177.656 0.393349 1.92217 0
M  V30 1944 O 176.781 -0.489441 2.10792 0
M  V30 1945 C 177.376 2.84144 1.8452 0
M  V30 1946 C 175.935 2.9198 2.37539 0
M  V30 1947 C 175.082 2.51482 1.16843 0
M  V30 1948 H 178.033 1.57236 0.215081 0
M  V30 1949 H 178.054 2.68098 2.70007 0
M  V30 1950 H 177.566 3.69607 1.18373 0
M  V30 1951 H 175.667 2.10955 3.0713 0
M  V30 1952 H 175.78 3.95704 2.70103 0
M  V30 1953 H 174.144 2.04758 1.51481 0
M  V30 1954 H 174.927 3.39293 0.523015 0
M  V30 1955 N 177.372 -0.689602 1.41712 0
M  V30 1956 C 178.319 -1.80345 1.44029 0
M  V30 1957 C 179.289 -1.63478 0.293948 0
M  V30 1958 O 180.474 -1.84244 0.495869 0
M  V30 1959 C 177.614 -3.18272 1.33405 0
M  V30 1960 C 176.727 -3.46529 2.57956 0
M  V30 1961 C 175.862 -4.74103 2.39582 0
M  V30 1962 C 174.901 -4.95347 3.5958 0
M  V30 1963 N 174.038 -6.14151 3.40239 0
M  V30 1964 H 178.878 -1.77698 2.39222 0
M  V30 1965 H 176.415 -0.867688 1.18784 0
M  V30 1966 H 178.373 -3.97956 1.25246 0
M  V30 1967 H 177.003 -3.2008 0.418164 0
M  V30 1968 H 176.055 -2.61207 2.76542 0
M  V30 1969 H 177.367 -3.58126 3.47199 0
M  V30 1970 H 176.521 -5.61853 2.28924 0
M  V30 1971 H 175.26 -4.64763 1.47805 0
M  V30 1972 H 174.265 -4.06044 3.70686 0
M  V30 1973 H 175.49 -5.06542 4.52318 0
M  V30 1974 H 173.436 -6.06013 2.51167 0
M  V30 1975 H 173.353 -6.26543 4.23061 0
M  V30 1976 H 174.621 -7.04619 3.33365 0
M  V30 1977 N 178.85 -1.27639 -0.924453 0
M  V30 1978 C 180.097 -1.14167 -1.67249 0
M  V30 1979 C 180.425 0.311863 -1.91984 0
M  V30 1980 O 179.68 1.24425 -1.51053 0
M  V30 1981 C 179.979 -1.87407 -3.04325 0
M  V30 1982 C 179.645 -3.37249 -2.99289 0
M  V30 1983 C 178.307 -3.7812 -2.97622 0
M  V30 1984 C 180.659 -4.32845 -2.90336 0
M  V30 1985 C 177.987 -5.12944 -2.8479 0
M  V30 1986 C 180.339 -5.6773 -2.79045 0
M  V30 1987 C 179.003 -6.07889 -2.7573 0
M  V30 1988 H 178.273 -0.417766 -0.612007 0
M  V30 1989 H 180.92 -1.58286 -1.07786 0
M  V30 1990 H 179.225 -1.35805 -3.67511 0
M  V30 1991 H 180.922 -1.74408 -3.61086 0
M  V30 1992 H 177.512 -3.04748 -3.01374 0
M  V30 1993 H 181.696 -4.02239 -2.90719 0
M  V30 1994 H 176.952 -5.432 -2.80612 0
M  V30 1995 H 181.126 -6.41472 -2.71083 0
M  V30 1996 H 178.753 -7.12314 -2.65544 0
M  V30 1997 N 180.328 1.1314 -1.09713 0
M  V30 1998 C 181.744 1.36477 -0.827423 0
M  V30 1999 C 181.944 1.93654 0.556817 0
M  V30 2000 O 181 2.15791 1.31112 0
M  V30 2001 C 182.313 2.31334 -1.92106 0
M  V30 2002 C 183.861 2.44943 -1.94864 0
M  V30 2003 C 184.336 3.4311 -3.0338 0
M  V30 2004 N 185.827 3.50662 -3.02639 0
M  V30 2005 C 186.562 4.2651 -3.83246 0
M  V30 2006 N 186.058 5.05485 -4.73768 0
M  V30 2007 N 187.851 4.2184 -3.71493 0
M  V30 2008 H 180.002 0.743807 -1.9895 0
M  V30 2009 H 182.265 0.389823 -0.864143 0
M  V30 2010 H 181.971 1.96483 -2.91698 0
M  V30 2011 H 181.845 3.31381 -1.80184 0
M  V30 2012 H 184.232 2.79079 -0.959099 0
M  V30 2013 H 184.313 1.4481 -2.10864 0
M  V30 2014 H 183.957 3.09704 -4.02549 0
M  V30 2015 H 183.887 4.43055 -2.84622 0
M  V30 2016 H 186.378 2.94315 -2.37039 0
M  V30 2017 H 186.691 5.60675 -5.3185 0
M  V30 2018 H 185.036 5.04708 -4.77802 0
M  V30 2019 H 188.227 3.5922 -3.00131 0
M  V30 2020 H 188.4 4.80697 -4.3455 0
M  V30 2021 N 181.806 0.884767 1.30421 0
M  V30 2022 C 183.031 0.517288 2.00845 0
M  V30 2023 C 183.456 -0.886779 1.65885 0
M  V30 2024 O 182.814 -1.58768 0.875354 0
M  V30 2025 C 182.862 0.698994 3.5376 0
M  V30 2026 O 181.966 -0.255208 4.1161 0
M  V30 2027 H 181.307 0.203872 0.631927 0
M  V30 2028 H 183.837 1.19225 1.66272 0
M  V30 2029 H 183.847 0.597912 4.03595 0
M  V30 2030 H 182.522 1.72271 3.78544 0
M  V30 2031 H 181.099 -0.10784 3.72744 0
M  V30 2032 N 183.284 -1.43765 0.645699 0
M  V30 2033 C 184.533 -2.01116 0.153412 0
M  V30 2034 C 184.846 -1.51493 -1.23731 0
M  V30 2035 O 186.052 -2.01067 -1.8244 0
M  V30 2036 C 184.508 -3.59206 0.223473 0
M  V30 2037 C 184.116 -4.17823 1.61642 0
M  V30 2038 C 185.86 -4.23972 -0.211597 0
M  V30 2039 C 183.767 -5.68183 1.64081 0
M  V30 2040 H 182.697 -0.752093 0.0535891 0
M  V30 2041 H 185.348 -1.6482 0.806633 0
M  V30 2042 H 183.73 -3.92867 -0.497118 0
M  V30 2043 H 184.904 -3.95674 2.36176 0
M  V30 2044 H 183.219 -3.65399 1.99681 0
M  V30 2045 H 185.816 -5.34275 -0.213112 0
M  V30 2046 H 186.159 -3.97352 -1.24165 0
M  V30 2047 H 186.692 -3.95166 0.456988 0
M  V30 2048 H 183.431 -5.99559 2.64971 0
M  V30 2049 H 182.951 -5.9241 0.938611 0
M  V30 2050 H 184.63 -6.32085 1.3812 0
M  V30 2051 N 184.763 -0.387143 -1.52771 0
M  V30 2052 C 186.009 0.196025 -2.0185 0
M  V30 2053 C 186.342 1.46641 -1.27319 0
M  V30 2054 O 185.617 1.90889 -0.373032 0
M  V30 2055 C 185.9 0.466136 -3.5707 0
M  V30 2056 C 185.753 -0.819385 -4.42274 0
M  V30 2057 C 187.072 1.25768 -4.21747 0
M  V30 2058 H 184.191 0.0697708 -0.73369 0
M  V30 2059 H 186.833 -0.516286 -1.82851 0
M  V30 2060 H 184.983 1.07293 -3.7339 0
M  V30 2061 H 186.655 -1.4563 -4.37709 0
M  V30 2062 H 184.898 -1.43517 -4.09372 0
M  V30 2063 H 185.569 -0.585065 -5.48891 0
M  V30 2064 H 188.045 0.744167 -4.09391 0
M  V30 2065 H 186.921 1.41541 -5.30337 0
M  V30 2066 H 187.182 2.27228 -3.79236 0
M  V30 2067 N 186.241 1.57166 -0.116904 0
M  V30 2068 C 187.191 2.11756 0.845178 0
M  V30 2069 C 188.175 1.03783 1.22955 0
M  V30 2070 O 189.367 1.3002 1.20099 0
M  V30 2071 C 186.496 2.71886 2.09602 0
M  V30 2072 C 185.582 3.86937 1.7361 0
M  V30 2073 N 185.973 4.94073 1.08284 0
M  V30 2074 C 184.271 3.97082 2.03082 0
M  V30 2075 C 184.972 5.74477 0.913855 0
M  V30 2076 N 183.948 5.2423 1.43818 0
M  V30 2077 H 187.75 2.91967 0.336523 0
M  V30 2078 H 185.264 1.62174 0.0856332 0
M  V30 2079 H 187.261 3.09338 2.79492 0
M  V30 2080 H 185.921 1.93138 2.61013 0
M  V30 2081 H 186.932 5.12483 0.747067 0
M  V30 2082 H 183.609 3.29372 2.56554 0
M  V30 2083 H 184.999 6.70701 0.40125 0
M  V30 2084 N 187.719 -0.156864 1.56817 0
M  V30 2085 C 188.682 -1.17781 1.96622 0
M  V30 2086 C 189.682 -1.36401 0.851555 0
M  V30 2087 O 190.872 -1.33561 1.11836 0
M  V30 2088 C 188.004 -2.54008 2.27361 0
M  V30 2089 H 189.197 -0.836564 2.87996 0
M  V30 2090 H 186.75 -0.39985 1.51099 0
M  V30 2091 H 187.485 -2.9312 1.38748 0
M  V30 2092 H 187.27 -2.41856 3.08623 0
M  V30 2093 H 188.76 -3.27558 2.59029 0
M  V30 2094 N 189.197 -1.51736 -0.425897 0
M  V30 2095 C 190.443 -1.65214 -1.1761 0
M  V30 2096 C 190.776 -0.372778 -1.90589 0
M  V30 2097 O 190.051 0.628139 -1.84078 0
M  V30 2098 C 190.334 -2.86312 -2.18398 0
M  V30 2099 C 190.187 -4.24254 -1.49426 0
M  V30 2100 C 191.506 -3.02925 -3.19256 0
M  V30 2101 H 188.625 -0.601263 -0.426206 0
M  V30 2102 H 191.267 -1.8425 -0.463882 0
M  V30 2103 H 189.417 -2.70213 -2.79137 0
M  V30 2104 H 191.089 -4.52046 -0.919362 0
M  V30 2105 H 189.332 -4.26426 -0.796432 0
M  V30 2106 H 190.003 -5.05001 -2.22885 0
M  V30 2107 H 192.479 -3.1781 -2.68581 0
M  V30 2108 H 191.355 -3.89199 -3.8706 0
M  V30 2109 H 191.616 -2.15497 -3.86023 0
M  V30 2110 N 190.675 0.682077 -1.42076 0
M  V30 2111 C 191.607 1.80755 -1.40926 0
M  V30 2112 C 192.62 1.59833 -0.309398 0
M  V30 2113 O 193.809 1.69087 -0.572014 0
M  V30 2114 C 190.909 3.17744 -1.17865 0
M  V30 2115 C 190.082 3.65578 -2.40149 0
M  V30 2116 C 189.141 4.81277 -2.12742 0
M  V30 2117 O 188.167 4.92197 -2.85887 0
M  V30 2118 N 189.369 5.69474 -1.12602 0
M  V30 2119 H 192.134 1.82229 -2.37935 0
M  V30 2120 H 189.695 0.864903 -1.36861 0
M  V30 2121 H 191.687 3.9279 -0.9746 0
M  V30 2122 H 190.257 3.11214 -0.294068 0
M  V30 2123 H 189.477 2.81291 -2.76169 0
M  V30 2124 H 190.765 3.94278 -3.21593 0
M  V30 2125 H 190.163 5.63297 -0.520899 0
M  V30 2126 H 188.72 6.44363 -0.981842 0
M  V30 2127 N 192.153 1.28127 0.917671 0
M  V30 2128 C 193.116 1.11744 2.00115 0
M  V30 2129 C 194.116 0.0583052 1.60694 0
M  V30 2130 O 195.306 0.303755 1.71531 0
M  V30 2131 C 192.438 0.704862 3.33533 0
M  V30 2132 H 193.631 2.07966 2.16079 0
M  V30 2133 H 191.184 1.11058 1.09981 0
M  V30 2134 H 191.919 -0.258299 3.2327 0
M  V30 2135 H 191.704 1.4699 3.63505 0
M  V30 2136 H 193.194 0.612768 4.1308 0
M  V30 2137 N 193.631 -1.12557 1.10312 0
M  V30 2138 C 194.879 -1.83675 0.843091 0
M  V30 2139 C 195.2 -1.84435 -0.633131 0
M  V30 2140 O 194.47 -1.30657 -1.45964 0
M  V30 2141 H 193.05 -0.680138 0.308904 0
M  V30 2142 H 195.712 -1.36301 1.39313 0
M  V30 2143 H 194.808 -2.87908 1.2048 0
M  V30 2144 N 195.109 -0.891671 -1.2995 0
M  V30 2145 C 196.358 -0.509521 -1.95158 0
M  V30 2146 C 196.671 0.947388 -1.71125 0
M  V30 2147 O 197.877 1.43669 -2.30372 0
M  V30 2148 C 196.333 -0.860315 -3.49466 0
M  V30 2149 C 195.941 -2.33545 -3.8231 0
M  V30 2150 C 197.685 -0.547687 -4.20952 0
M  V30 2151 C 195.592 -2.62752 -5.29826 0
M  V30 2152 H 194.522 -0.18682 -0.730489 0
M  V30 2153 H 197.173 -1.08756 -1.47798 0
M  V30 2154 H 195.555 -0.211285 -3.95436 0
M  V30 2155 H 196.729 -3.02936 -3.47227 0
M  V30 2156 H 195.044 -2.61629 -3.23944 0
M  V30 2157 H 197.641 -0.742854 -5.29515 0
M  V30 2158 H 197.984 0.51332 -4.13123 0
M  V30 2159 H 198.517 -1.1542 -3.80688 0
M  V30 2160 H 195.256 -3.6762 -5.42712 0
M  V30 2161 H 194.776 -1.97977 -5.66185 0
M  V30 2162 H 196.455 -2.48601 -5.97333 0
M  V30 2163 N 196.587 1.43421 -0.653314 0
M  V30 2164 C 197.834 2.01812 -0.166745 0
M  V30 2165 C 198.162 1.51535 1.21931 0
M  V30 2166 O 197.417 0.698975 1.82792 0
M  V30 2167 C 197.716 3.57176 -0.126623 0
M  V30 2168 C 197.382 4.26798 -1.45444 0
M  V30 2169 C 196.044 4.45534 -1.81805 0
M  V30 2170 C 198.396 4.66225 -2.32989 0
M  V30 2171 C 195.724 5.00961 -3.05377 0
M  V30 2172 C 198.076 5.23021 -3.55853 0
M  V30 2173 C 196.74 5.39973 -3.9241 0
M  V30 2174 H 196.01 0.738484 -0.0610162 0
M  V30 2175 H 198.657 1.71896 -0.84404 0
M  V30 2176 H 196.962 3.86634 0.634123 0
M  V30 2177 H 198.659 4.00112 0.266723 0
M  V30 2178 H 195.249 4.12561 -1.16153 0
M  V30 2179 H 199.433 4.51443 -2.06187 0
M  V30 2180 H 194.689 5.12271 -3.3375 0
M  V30 2181 H 198.863 5.52518 -4.23907 0
M  V30 2182 H 196.49 5.82687 -4.88242 0
M  V30 2183 N 198.065 0.39524 1.52563 0
M  V30 2184 C 199.311 -0.185318 2.01952 0
M  V30 2185 C 199.644 -1.45964 1.28095 0
M  V30 2186 O 198.919 -1.90689 0.38315 0
M  V30 2187 C 199.202 -0.447193 3.57312 0
M  V30 2188 C 199.055 0.842828 4.41833 0
M  V30 2189 C 200.374 -1.23529 4.22408 0
M  V30 2190 H 197.493 -0.0658788 0.73405 0
M  V30 2191 H 200.135 0.525975 1.82575 0
M  V30 2192 H 198.285 -1.05312 3.73954 0
M  V30 2193 H 199.957 1.4795 4.36931 0
M  V30 2194 H 198.2 1.45686 4.08605 0
M  V30 2195 H 198.871 0.614165 5.48573 0
M  V30 2196 H 201.347 -0.722445 4.0978 0
M  V30 2197 H 200.223 -1.38727 5.3108 0
M  V30 2198 H 200.484 -2.25213 3.80436 0
M  V30 2199 N 199.544 -1.57102 0.125237 0
M  V30 2200 C 200.454 -2.19191 -0.8362 0
M  V30 2201 C 201.47 -1.16985 -1.28805 0
M  V30 2202 O 202.646 -1.49479 -1.34974 0
M  V30 2203 C 199.711 -2.78407 -2.06617 0
M  V30 2204 C 198.772 -3.9567 -1.66565 0
M  V30 2205 C 198.005 -4.52052 -2.83698 0
M  V30 2206 O 198.228 -4.07326 -3.99302 0
M  V30 2207 O 197.162 -5.42645 -2.60423 0
M  V30 2208 H 200.988 -3.01816 -0.337776 0
M  V30 2209 H 198.573 -1.4906 -0.100695 0
M  V30 2210 H 200.455 -3.16129 -2.7864 0
M  V30 2211 H 199.13 -1.9881 -2.55453 0
M  V30 2212 H 198.037 -3.62705 -0.916296 0
M  V30 2213 H 199.37 -4.76722 -1.22464 0
M  V30 2214 N 201.022 0.148545 -1.56898 0
M  V30 2215 C 202.438 0.501131 -1.51528 0
M  V30 2216 C 202.638 1.83458 -0.833399 0
M  V30 2217 O 201.694 2.49259 -0.40328 0
M  V30 2218 C 203.007 0.512864 -2.96294 0
M  V30 2219 C 204.555 0.598487 -3.07225 0
M  V30 2220 C 205.03 0.640897 -4.53494 0
M  V30 2221 N 206.521 0.703163 -4.57832 0
M  V30 2222 C 207.256 0.756935 -5.68382 0
M  V30 2223 N 206.752 0.770147 -6.88506 0
M  V30 2224 N 208.545 0.797698 -5.56411 0
M  V30 2225 H 200.696 -0.725532 -1.99624 0
M  V30 2226 H 202.959 -0.264358 -0.910395 0
M  V30 2227 H 202.665 -0.398691 -3.49433 0
M  V30 2228 H 202.539 1.35133 -3.52163 0
M  V30 2229 H 204.926 1.50046 -2.54106 0
M  V30 2230 H 205.007 -0.267093 -2.54402 0
M  V30 2231 H 204.651 -0.256915 -5.0725 0
M  V30 2232 H 204.581 1.52295 -5.04097 0
M  V30 2233 H 207.072 0.700314 -3.71354 0
M  V30 2234 H 207.385 0.812983 -7.68512 0
M  V30 2235 H 205.73 0.738049 -6.9107 0
M  V30 2236 H 208.921 0.784535 -4.61479 0
M  V30 2237 H 209.094 0.83614 -6.42583 0
M  V30 2238 N 202.5 1.5196 0.417844 0
M  V30 2239 C 203.433 1.69387 1.52916 0
M  V30 2240 C 204.411 0.541419 1.53321 0
M  V30 2241 O 205.595 0.767695 1.72159 0
M  V30 2242 C 202.722 1.72525 2.91467 0
M  V30 2243 C 201.768 2.93967 3.09008 0
M  V30 2244 S 202.601 4.54461 2.83242 0
M  V30 2245 C 203.757 4.60372 4.24038 0
M  V30 2246 H 203.99 2.63382 1.37903 0
M  V30 2247 H 201.523 1.41889 0.608845 0
M  V30 2248 H 203.481 1.75018 3.7132 0
M  V30 2249 H 202.142 0.796733 3.03827 0
M  V30 2250 H 201.335 2.92619 4.10353 0
M  V30 2251 H 200.937 2.89316 2.37007 0
M  V30 2252 H 203.229 4.37213 5.17544 0
M  V30 2253 H 204.172 5.62273 4.30412 0
M  V30 2254 H 204.58 3.89492 4.08602 0
M  V30 2255 N 203.978 -0.674533 1.42435 0
M  V30 2256 C 205.225 -1.43459 1.42919 0
M  V30 2257 C 205.553 -1.94446 0.0457312 0
M  V30 2258 O 204.808 -1.7132 -0.94593 0
M  V30 2259 C 205.107 -2.64767 2.40069 0
M  V30 2260 C 204.773 -2.3232 3.86443 0
M  V30 2261 C 203.435 -2.23182 4.26314 0
M  V30 2262 C 205.787 -2.05977 4.78773 0
M  V30 2263 C 203.115 -1.85827 5.56494 0
M  V30 2264 C 205.467 -1.70125 6.09295 0
M  V30 2265 C 204.131 -1.59498 6.48164 0
M  V30 2266 H 203.401 -0.524952 0.522978 0
M  V30 2267 H 206.048 -0.769097 1.75377 0
M  V30 2268 H 204.353 -3.36349 2.00939 0
M  V30 2269 H 206.05 -3.22949 2.37707 0
M  V30 2270 H 202.64 -2.40334 3.54877 0
M  V30 2271 H 206.824 -2.11969 4.48757 0
M  V30 2272 H 202.08 -1.76168 5.8547 0
M  V30 2273 H 206.254 -1.48767 6.80324 0
M  V30 2274 H 203.881 -1.30322 7.48946 0
M  V30 2275 N 205.456 -1.28612 -0.910864 0
M  V30 2276 C 206.872 -1.06381 -1.18976 0
M  V30 2277 C 207.072 0.191998 -2.00583 0
M  V30 2278 O 206.128 0.892869 -2.36187 0
M  V30 2279 C 207.441 -2.31295 -1.92154 0
M  V30 2280 C 208.989 -2.36503 -2.05025 0
M  V30 2281 C 209.464 -3.61191 -2.81612 0
M  V30 2282 N 210.955 -3.61847 -2.89172 0
M  V30 2283 C 211.69 -4.55004 -3.4894 0
M  V30 2284 N 211.186 -5.58482 -4.09963 0
M  V30 2285 N 212.979 -4.42594 -3.46506 0
M  V30 2286 H 205.13 -2.09221 -0.366094 0
M  V30 2287 H 207.393 -0.921003 -0.224629 0
M  V30 2288 H 207.099 -3.228 -1.39618 0
M  V30 2289 H 206.973 -2.37934 -2.9269 0
M  V30 2290 H 209.36 -1.45494 -2.5674 0
M  V30 2291 H 209.441 -2.33857 -1.03657 0
M  V30 2292 H 209.085 -4.52545 -2.30576 0
M  V30 2293 H 209.015 -3.61092 -3.83302 0
M  V30 2294 H 211.506 -2.87022 -2.45819 0
M  V30 2295 H 211.819 -6.25704 -4.53557 0
M  V30 2296 H 210.164 -5.62305 -4.08459 0
M  V30 2297 H 213.355 -3.60953 -2.98045 0
M  V30 2298 H 213.528 -5.15381 -3.92793 0
M  V30 2299 N 206.934 1.1197 -1.10907 0
M  V30 2300 C 208.35 1.35591 -0.841852 0
M  V30 2301 C 208.55 1.94233 0.536246 0
M  V30 2302 O 207.606 2.1717 1.28816 0
M  V30 2303 C 208.919 2.29284 -1.94549 0
M  V30 2304 C 210.467 2.42862 -1.97451 0
M  V30 2305 C 210.942 3.39873 -3.07002 0
M  V30 2306 N 212.433 3.47433 -3.06341 0
M  V30 2307 C 213.168 4.22421 -3.87748 0
M  V30 2308 N 212.664 5.00432 -4.79103 0
M  V30 2309 N 214.457 4.17876 -3.75946 0
M  V30 2310 H 206.608 0.722664 -1.99728 0
M  V30 2311 H 208.871 0.380635 -0.868229 0
M  V30 2312 H 208.577 1.93378 -2.93765 0
M  V30 2313 H 208.451 3.29452 -1.83688 0
M  V30 2314 H 210.838 2.78046 -0.988645 0
M  V30 2315 H 210.919 1.42566 -2.12388 0
M  V30 2316 H 210.563 3.05417 -4.05811 0
M  V30 2317 H 210.493 4.40011 -2.89306 0
M  V30 2318 H 212.984 2.91784 -2.40147 0
M  V30 2319 H 213.297 5.55002 -5.37766 0
M  V30 2320 H 211.642 4.99612 -4.83128 0
M  V30 2321 H 214.833 3.56016 -3.03924 0
M  V30 2322 H 215.006 4.76061 -4.39624 0
M  V30 2323 N 208.412 0.89855 1.29475 0
M  V30 2324 C 209.64 0.539261 1.99749 0
M  V30 2325 C 210.055 -0.875716 1.67262 0
M  V30 2326 O 209.412 -1.57786 0.917049 0
M  V30 2327 C 209.463 0.72061 3.54245 0
M  V30 2328 O 209.184 2.07989 3.8558 0
M  V30 2329 C 210.685 0.366118 4.41786 0
M  V30 2330 H 207.905 0.207047 0.638258 0
M  V30 2331 H 210.449 1.20758 1.65039 0
M  V30 2332 H 208.604 0.0994862 3.87272 0
M  V30 2333 H 209.018 2.10841 4.80257 0
M  V30 2334 H 210.492 0.543848 5.49314 0
M  V30 2335 H 210.969 -0.696763 4.33638 0
M  V30 2336 H 211.575 0.964135 4.14228 0
M  V30 2337 N 209.89 -1.43072 0.660911 0
M  V30 2338 C 211.12 -2.05769 0.185153 0
M  V30 2339 C 211.528 -1.49668 -1.15742 0
M  V30 2340 O 210.871 -0.625649 -1.72717 0
M  V30 2341 C 210.933 -3.59489 0.0278237 0
M  V30 2342 C 210.597 -4.38212 1.2969 0
M  V30 2343 C 211.594 -4.69772 2.22734 0
M  V30 2344 C 209.279 -4.7809 1.54063 0
M  V30 2345 C 211.273 -5.40129 3.38437 0
M  V30 2346 C 208.96 -5.4819 2.70058 0
M  V30 2347 C 209.958 -5.79132 3.62071 0
M  V30 2348 O 209.646 -6.47798 4.76039 0
M  V30 2349 H 209.378 -0.669873 0.0908086 0
M  V30 2350 H 211.932 -1.84436 0.90402 0
M  V30 2351 H 210.162 -3.79426 -0.746489 0
M  V30 2352 H 211.851 -4.03862 -0.406275 0
M  V30 2353 H 212.617 -4.39476 2.05149 0
M  V30 2354 H 208.496 -4.53408 0.833215 0
M  V30 2355 H 212.04 -5.64198 4.10277 0
M  V30 2356 H 207.937 -5.77902 2.87574 0
M  V30 2357 H 208.705 -6.66283 4.75404 0
M  V30 2358 N 211.368 -0.403325 -1.52352 0
M  V30 2359 C 212.596 0.174012 -2.06167 0
M  V30 2360 C 213.011 1.39347 -1.27388 0
M  V30 2361 O 212.368 1.79597 -0.324201 0
M  V30 2362 C 212.419 0.530223 -3.5759 0
M  V30 2363 O 212.14 -0.640806 -4.33388 0
M  V30 2364 C 213.641 1.16192 -4.27802 0
M  V30 2365 H 210.861 0.0229464 -0.670608 0
M  V30 2366 H 213.405 -0.572604 -1.9632 0
M  V30 2367 H 211.56 1.22673 -3.67464 0
M  V30 2368 H 211.974 -0.344851 -5.23365 0
M  V30 2369 H 213.448 1.36141 -5.34948 0
M  V30 2370 H 213.925 2.13335 -3.83907 0
M  V30 2371 H 214.531 0.505775 -4.22282 0
M  V30 2372 N 212.846 1.57033 -0.133567 0
M  V30 2373 C 214.071 2.00475 0.531477 0
M  V30 2374 C 214.496 1.01291 1.58499 0
M  V30 2375 O 213.854 -0.0133279 1.81295 0
M  V30 2376 C 213.902 3.42729 1.12113 0
M  V30 2377 O 213.006 3.46498 2.23636 0
M  V30 2378 H 212.347 0.650876 0.131362 0
M  V30 2379 H 214.877 2.03344 -0.22634 0
M  V30 2380 H 214.887 3.81246 1.4531 0
M  V30 2381 H 213.562 4.14428 0.349557 0
M  V30 2382 H 212.139 3.19811 1.91769 0
M  V30 2383 N 214.325 -0.140222 1.56975 0
M  V30 2384 C 215.571 -0.852949 1.83991 0
M  V30 2385 C 215.904 -1.80512 0.716187 0
M  V30 2386 O 215.179 -1.92479 -0.279681 0
M  V30 2387 C 215.462 -1.6215 3.21527 0
M  V30 2388 C 215.315 -0.690363 4.4447 0
M  V30 2389 C 216.634 -2.58247 3.56366 0
M  V30 2390 H 213.753 -0.308634 0.669264 0
M  V30 2391 H 216.395 -0.117898 1.89634 0
M  V30 2392 H 214.545 -2.24812 3.16847 0
M  V30 2393 H 216.217 -0.0742264 4.6124 0
M  V30 2394 H 214.46 -0.000396433 4.338 0
M  V30 2395 H 215.131 -1.2643 5.37326 0
M  V30 2396 H 217.607 -2.05701 3.61699 0
M  V30 2397 H 216.483 -3.09067 4.53617 0
M  V30 2398 H 216.744 -3.39923 2.82674 0
M  V30 2399 N 215.803 -1.52179 -0.40978 0
M  V30 2400 C 217.051 -1.65878 -1.15451 0
M  V30 2401 C 217.372 -0.390771 -1.91044 0
M  V30 2402 O 216.642 0.594323 -1.86667 0
M  V30 2403 H 215.222 -0.611405 -0.429177 0
M  V30 2404 H 217.884 -1.89219 -0.467134 0
M  V30 2405 H 216.98 -2.49954 -1.86894 0
M  V30 2406 N 217.281 0.66697 -1.42791 0
M  V30 2407 C 218.692 1.2478 -1.38877 0
M  V30 2408 C 219.043 1.96012 -0.0859426 0
M  V30 2409 O 218.168 2.00463 0.815081 0
M  V30 2410 C 218.763 2.26938 -2.51564 0
M  V30 2411 C 217.322 2.80529 -2.50959 0
M  V30 2412 C 216.469 1.54965 -2.29959 0
M  V30 2413 H 219.42 0.459853 -1.51892 0
M  V30 2414 H 219.441 3.08834 -2.22265 0
M  V30 2415 H 218.953 1.75065 -3.46372 0
M  V30 2416 H 217.054 3.36502 -1.59991 0
M  V30 2417 H 217.167 3.29012 -3.48265 0
M  V30 2418 H 215.531 1.81817 -1.78366 0
M  V30 2419 H 216.314 1.05047 -3.26833 0
M  V30 2420 N 218.759 1.29093 0.90403 0
M  V30 2421 C 219.987 1.19689 1.68766 0
M  V30 2422 C 220.402 -0.243113 1.87228 0
M  V30 2423 O 219.759 -1.16326 1.40621 0
M  V30 2424 C 219.81 1.90144 3.07453 0
M  V30 2425 O 219.531 3.2852 2.89838 0
M  V30 2426 C 221.032 1.87162 4.01852 0
M  V30 2427 H 218.252 0.415035 0.527244 0
M  V30 2428 H 220.796 1.7039 1.13082 0
M  V30 2429 H 218.951 1.43289 3.59926 0
M  V30 2430 H 219.365 3.63944 3.77684 0
M  V30 2431 H 220.839 2.41032 4.96596 0
M  V30 2432 H 221.316 0.84617 4.30972 0
M  V30 2433 H 221.922 2.33741 3.5531 0
M  V30 2434 N 220.237 -1.11381 1.11499 0
M  V30 2435 C 221.467 -1.86663 0.885464 0
M  V30 2436 C 221.875 -1.80464 -0.568281 0
M  V30 2437 O 221.218 -1.18445 -1.40415 0
M  V30 2438 C 221.28 -3.36337 1.26956 0
M  V30 2439 C 220.944 -3.66304 2.73259 0
M  V30 2440 C 221.941 -3.63733 3.71476 0
M  V30 2441 C 219.626 -3.9529 3.09921 0
M  V30 2442 C 221.62 -3.89725 5.04374 0
M  V30 2443 C 219.307 -4.20941 4.43004 0
M  V30 2444 C 220.305 -4.18147 5.40039 0
M  V30 2445 O 219.993 -4.43153 6.70724 0
M  V30 2446 H 219.725 -0.597114 0.316908 0
M  V30 2447 H 222.279 -1.41782 1.48617 0
M  V30 2448 H 220.509 -3.81826 0.611999 0
M  V30 2449 H 222.198 -3.92986 1.01573 0
M  V30 2450 H 222.964 -3.41389 3.44498 0
M  V30 2451 H 218.843 -3.966 2.35009 0
M  V30 2452 H 222.387 -3.8746 5.80104 0
M  V30 2453 H 218.284 -4.42761 4.69716 0
M  V30 2454 H 219.052 -4.60717 6.76522 0
M  V30 2455 N 221.715 -0.905404 -1.28997 0
M  V30 2456 C 222.94 -0.549175 -1.99997 0
M  V30 2457 C 223.365 0.860276 -1.67275 0
M  V30 2458 O 222.723 1.57355 -0.900502 0
M  V30 2459 C 222.771 -0.755185 -3.52604 0
M  V30 2460 O 221.875 0.189692 -4.11964 0
M  V30 2461 H 221.216 -0.213899 -0.628604 0
M  V30 2462 H 223.746 -1.21856 -1.64354 0
M  V30 2463 H 223.756 -0.662045 -4.02593 0
M  V30 2464 H 222.431 -1.78271 -3.75755 0
M  V30 2465 H 221.008 0.0485257 -3.72868 0
M  V30 2466 N 223.193 1.4272 -0.668489 0
M  V30 2467 C 224.421 2.05966 -0.196348 0
M  V30 2468 C 224.836 1.50191 1.14403 0
M  V30 2469 O 224.193 0.639208 1.7094 0
M  V30 2470 C 224.244 3.61314 -0.115815 0
M  V30 2471 O 223.965 4.1502 -1.40322 0
M  V30 2472 C 225.466 4.41663 0.380579 0
M  V30 2473 H 222.686 0.663954 -0.0969829 0
M  V30 2474 H 225.23 1.82966 -0.913446 0
M  V30 2475 H 223.385 3.83448 0.551931 0
M  V30 2476 H 223.799 5.08832 -1.27243 0
M  V30 2477 H 225.273 5.5065 0.385848 0
M  V30 2478 H 225.75 4.15792 1.41471 0
M  V30 2479 H 226.356 4.24534 -0.255209 0
M  V30 2480 N 224.671 0.411399 1.52136 0
M  V30 2481 C 225.634 -0.401089 2.25663 0
M  V30 2482 C 226.634 -0.971732 1.28117 0
M  V30 2483 O 227.824 -0.850254 1.52041 0
M  V30 2484 C 224.956 -1.56483 3.02863 0
M  V30 2485 H 226.149 0.24295 2.98914 0
M  V30 2486 H 223.702 0.163968 1.55438 0
M  V30 2487 H 224.437 -2.24567 2.33967 0
M  V30 2488 H 224.222 -1.16211 3.74483 0
M  V30 2489 H 225.712 -2.13951 3.58629 0
M  V30 2490 N 226.149 -1.5696 0.141893 0
M  V30 2491 C 227.395 -1.9625 -0.511248 0
M  V30 2492 C 227.728 -1.02654 -1.64851 0
M  V30 2493 O 227.003 -0.0679676 -1.94381 0
M  V30 2494 C 227.286 -3.45285 -1.02227 0
M  V30 2495 C 227.139 -4.49658 0.113138 0
M  V30 2496 C 228.458 -3.96698 -1.90574 0
M  V30 2497 H 225.577 -0.713567 -0.184367 0
M  V30 2498 H 228.219 -1.88698 0.222087 0
M  V30 2499 H 226.369 -3.51852 -1.64719 0
M  V30 2500 H 228.041 -4.55174 0.749302 0
M  V30 2501 H 226.284 -4.26857 0.773026 0
M  V30 2502 H 226.955 -5.51258 -0.286053 0
M  V30 2503 H 229.431 -3.92578 -1.37918 0
M  V30 2504 H 228.307 -5.01453 -2.2324 0
M  V30 2505 H 228.568 -3.3875 -2.84079 0
M  V30 2506 N 227.627 0.131896 -1.57047 0
M  V30 2507 C 228.557 1.16384 -2.02428 0
M  V30 2508 C 229.538 1.43936 -0.90644 0
M  V30 2509 O 230.723 1.54599 -1.17528 0
M  V30 2510 C 227.853 2.49328 -2.4177 0
M  V30 2511 C 226.807 2.36266 -3.56879 0
M  V30 2512 C 226.133 3.74057 -3.8208 0
M  V30 2513 C 227.433 1.834 -4.89042 0
M  V30 2514 H 229.127 0.786433 -2.88887 0
M  V30 2515 H 226.673 0.376855 -1.38981 0
M  V30 2516 H 228.626 3.21759 -2.7212 0
M  V30 2517 H 227.35 2.88934 -1.52266 0
M  V30 2518 H 226.009 1.66286 -3.26718 0
M  V30 2519 H 225.657 4.11125 -2.89803 0
M  V30 2520 H 225.357 3.66174 -4.59554 0
M  V30 2521 H 226.881 4.48012 -4.1487 0
M  V30 2522 H 228.295 2.45636 -5.18011 0
M  V30 2523 H 226.692 1.8637 -5.70426 0
M  V30 2524 H 227.762 0.790662 -4.7841 0
M  V30 2525 N 229.106 1.52395 0.401703 0
M  V30 2526 C 230.054 1.7689 1.51039 0
M  V30 2527 C 231.048 0.636298 1.56996 0
M  V30 2528 O 232.254 0.818507 1.60314 0
M  V30 2529 H 228.629 0.559502 0.502456 0
M  V30 2530 H 230.6 2.69757 1.27568 0
M  V30 2531 C 229.349 1.94331 2.88324 0
M  V30 2532 H 228.672 2.80905 2.84486 0
M  V30 2533 H 230.112 2.15466 3.65172 0
M  V30 2534 C 228.571 0.712396 3.29282 0
M  V30 2535 O 229.101 -0.116218 4.01532 0
M  V30 2536 N 227.307 0.546154 2.85422 0
M  V30 2537 H 226.854 1.22156 2.26794 0
M  V30 2538 H 226.812 -0.276113 3.13185 0
M  V30 2539 N 230.584 -0.659388 1.43143 0
M  V30 2540 C 231.824 -1.43121 1.45931 0
M  V30 2541 C 232.188 -1.91838 0.0789298 0
M  V30 2542 O 233.389 -2.68794 -0.018491 0
M  V30 2543 C 231.66 -2.58534 2.46769 0
M  V30 2544 S 233.219 -3.47154 2.68384 0
M  V30 2545 H 230.037 -0.488624 0.516496 0
M  V30 2546 H 232.639 -0.766128 1.79863 0
M  V30 2547 H 231.343 -2.21007 3.45809 0
M  V30 2548 H 230.874 -3.29898 2.14315 0
M  V30 2549 H 232.889 -4.55051 1.97845 0
M  V30 2550 N 232.062 -1.29571 -0.897171 0
M  V30 2551 C 232.992 -1.17473 -2.01798 0
M  V30 2552 C 233.973 -0.068323 -1.69963 0
M  V30 2553 O 235.158 -0.248239 -1.92607 0
M  V30 2554 C 232.288 -0.853099 -3.36659 0
M  V30 2555 C 231.242 -1.9161 -3.82713 0
M  V30 2556 C 230.568 -1.44773 -5.14728 0
M  V30 2557 C 231.868 -3.32535 -4.02763 0
M  V30 2558 H 233.562 -2.11237 -2.12177 0
M  V30 2559 H 231.108 -1.01699 -1.01948 0
M  V30 2560 H 233.061 -0.755165 -4.14578 0
M  V30 2561 H 231.785 0.120236 -3.26379 0
M  V30 2562 H 230.444 -2.00346 -3.07013 0
M  V30 2563 H 230.092 -0.462995 -5.00865 0
M  V30 2564 H 229.792 -2.15865 -5.46513 0
M  V30 2565 H 231.316 -1.36334 -5.95185 0
M  V30 2566 H 232.73 -3.26626 -4.71156 0
M  V30 2567 H 231.127 -4.01607 -4.45905 0
M  V30 2568 H 232.197 -3.75326 -3.07016 0
M  V30 2569 N 233.54 1.10788 -1.12088 0
M  V30 2570 C 234.487 2.17025 -0.785407 0
M  V30 2571 C 235.457 1.64265 0.246191 0
M  V30 2572 O 236.642 1.90412 0.121584 0
M  V30 2573 C 233.782 3.44249 -0.242177 0
M  V30 2574 C 232.895 4.1098 -1.33115 0
M  V30 2575 C 232.03 5.25911 -0.747741 0
M  V30 2576 C 231.069 5.84538 -1.81609 0
M  V30 2577 N 230.206 6.90853 -1.25167 0
M  V30 2578 H 235.046 2.45066 -1.69548 0
M  V30 2579 H 232.583 1.20297 -0.846582 0
M  V30 2580 H 234.541 4.17101 0.0908026 0
M  V30 2581 H 233.171 3.16571 0.631072 0
M  V30 2582 H 232.223 3.36133 -1.78097 0
M  V30 2583 H 233.535 4.50601 -2.13917 0
M  V30 2584 H 232.689 6.056 -0.365216 0
M  V30 2585 H 231.428 4.87614 0.0915188 0
M  V30 2586 H 230.433 5.03522 -2.20785 0
M  V30 2587 H 231.658 6.249 -2.6585 0
M  V30 2588 H 229.604 6.54562 -0.434174 0
M  V30 2589 H 229.521 7.29166 -1.99633 0
M  V30 2590 H 230.789 7.7433 -0.896259 0
M  V30 2591 N 235.018 0.912232 1.28515 0
M  V30 2592 C 235.966 0.389597 2.29314 0
M  V30 2593 C 236.96 -0.517915 1.61289 0
M  V30 2594 O 238.166 -0.399328 1.75515 0
M  V30 2595 H 234.541 0.107386 0.744293 0
M  V30 2596 H 236.512 1.25286 2.70825 0
M  V30 2597 C 235.261 -0.356496 3.45868 0
M  V30 2598 H 234.584 0.332608 3.98414 0
M  V30 2599 H 236.024 -0.686851 4.184 0
M  V30 2600 C 234.483 -1.56383 2.98406 0
M  V30 2601 O 235.013 -2.66294 3.00749 0
M  V30 2602 N 233.219 -1.41029 2.54085 0
M  V30 2603 H 232.766 -0.516089 2.52377 0
M  V30 2604 H 232.724 -2.21939 2.22689 0
M  V30 2605 N 236.496 -1.42363 0.676048 0
M  V30 2606 C 237.426 -2.33497 0.0124832 0
M  V30 2607 C 238.407 -1.50748 -0.787981 0
M  V30 2608 O 239.592 -1.79346 -0.744884 0
M  V30 2609 C 236.722 -3.34377 -0.938582 0
M  V30 2610 C 235.676 -4.27289 -0.246622 0
M  V30 2611 C 235.002 -5.18386 -1.31071 0
M  V30 2612 C 236.302 -5.14916 0.875125 0
M  V30 2613 H 237.996 -2.89233 0.773593 0
M  V30 2614 H 235.542 -1.39073 0.37346 0
M  V30 2615 H 237.495 -3.97044 -1.41188 0
M  V30 2616 H 236.219 -2.76947 -1.73113 0
M  V30 2617 H 234.878 -3.66018 0.206456 0
M  V30 2618 H 234.526 -4.57282 -2.09528 0
M  V30 2619 H 234.226 -5.81378 -0.852839 0
M  V30 2620 H 235.75 -5.83929 -1.78492 0
M  V30 2621 H 237.164 -5.71262 0.482983 0
M  V30 2622 H 235.561 -5.86747 1.25887 0
M  V30 2623 H 236.631 -4.53242 1.72335 0
M  V30 2624 N 237.974 -0.419461 -1.51915 0
M  V30 2625 C 239.251 0.211999 -1.94448 0
M  V30 2626 C 239.631 1.61703 -1.35703 0
M  V30 2627 O 238.979 2.22102 -0.536931 0
M  V30 2628 C 239.189 0.207872 -3.4838 0
M  V30 2629 C 240.537 0.422192 -4.22496 0
M  V30 2630 O 241.561 0.286778 -3.55044 0
M  V30 2631 O 240.42 0.690009 -5.42126 0
M  V30 2632 H 237.514 0.139586 -0.815135 0
M  V30 2633 H 240.06 -0.476151 -1.62883 0
M  V30 2634 H 238.832 -0.775102 -3.83546 0
M  V30 2635 H 238.455 0.939688 -3.86336 0
M  V30 2636 N 239.452 1.56882 -0.150215 0
M  V30 2637 C 240.382 2.19935 0.784284 0
M  V30 2638 C 241.363 1.14854 1.25469 0
M  V30 2639 O 242.548 1.43209 1.31168 0
M  V30 2640 C 239.678 2.82349 2.02229 0
M  V30 2641 C 238.632 3.93285 1.68853 0
M  V30 2642 C 237.958 4.42649 2.99944 0
M  V30 2643 C 239.258 5.13904 0.932714 0
M  V30 2644 H 240.952 2.9828 0.258781 0
M  V30 2645 H 238.498 1.43473 0.123029 0
M  V30 2646 H 240.451 3.25126 2.68088 0
M  V30 2647 H 239.175 2.0134 2.57157 0
M  V30 2648 H 237.834 3.5113 1.05371 0
M  V30 2649 H 237.482 3.58458 3.52869 0
M  V30 2650 H 237.182 5.17476 2.78374 0
M  V30 2651 H 238.706 4.88099 3.66868 0
M  V30 2652 H 240.12 5.53506 1.49345 0
M  V30 2653 H 238.517 5.94515 0.81684 0
M  V30 2654 H 239.587 4.84842 -0.0749568 0
M  V30 2655 N 240.93 -0.123565 1.57115 0
M  V30 2656 C 242.176 -0.828428 1.85765 0
M  V30 2657 C 242.531 -1.77709 0.737371 0
M  V30 2658 O 241.824 -1.89787 -0.262978 0
M  V30 2659 C 242.018 -1.62016 3.18568 0
M  V30 2660 C 241.847 -0.749663 4.43407 0
M  V30 2661 C 240.617 -0.406251 5.03664 0
M  V30 2662 C 242.815 -0.0693505 5.14253 0
M  V30 2663 N 240.797 0.475389 6.12057 0
M  V30 2664 C 242.168 0.671474 6.16353 0
M  V30 2665 C 244.223 0.00754393 4.97899 0
M  V30 2666 C 242.926 1.48197 7.03868 0
M  V30 2667 C 244.952 0.804845 5.85898 0
M  V30 2668 C 244.314 1.53388 6.87497 0
M  V30 2669 H 240.413 -0.280219 0.73007 0
M  V30 2670 H 242.997 -0.0924183 1.94481 0
M  V30 2671 H 241.168 -2.32724 3.10957 0
M  V30 2672 H 242.9 -2.27 3.35042 0
M  V30 2673 H 239.655 -0.747446 4.67665 0
M  V30 2674 H 240.079 0.907924 6.70884 0
M  V30 2675 H 244.721 -0.541741 4.19315 0
M  V30 2676 H 242.439 2.04242 7.81864 0
M  V30 2677 H 246.025 0.866642 5.75309 0
M  V30 2678 H 244.905 2.1409 7.5441 0
M  V30 2679 N 242.408 -1.52605 -0.393616 0
M  V30 2680 C 243.648 -1.6911 -1.1481 0
M  V30 2681 C 244.012 -0.41969 -1.87357 0
M  V30 2682 O 245.213 -0.461034 -2.64817 0
M  V30 2683 C 243.484 -2.88909 -2.10395 0
M  V30 2684 S 245.043 -3.25977 -2.93742 0
M  V30 2685 H 241.861 -0.595337 -0.38871 0
M  V30 2686 H 244.463 -1.90641 -0.433178 0
M  V30 2687 H 243.167 -3.79672 -1.55812 0
M  V30 2688 H 242.698 -2.69698 -2.86403 0
M  V30 2689 H 244.713 -2.75806 -4.12487 0
M  V30 2690 N 243.887 0.651787 -1.4349 0
M  V30 2691 C 245.134 1.41167 -1.45183 0
M  V30 2692 C 245.462 1.94349 -0.0766601 0
M  V30 2693 O 244.717 1.72804 0.918555 0
M  V30 2694 C 245.016 2.60914 -2.44251 0
M  V30 2695 C 244.682 2.26142 -3.9009 0
M  V30 2696 C 243.344 2.16371 -4.2981 0
M  V30 2697 C 245.696 1.98334 -4.81989 0
M  V30 2698 C 243.024 1.7695 -5.5938 0
M  V30 2699 C 245.376 1.6041 -6.11924 0
M  V30 2700 C 244.04 1.49166 -6.5062 0
M  V30 2701 H 243.31 0.516566 -0.531263 0
M  V30 2702 H 245.957 0.741099 -1.76579 0
M  V30 2703 H 244.262 3.3311 -2.06265 0
M  V30 2704 H 245.959 3.19127 -2.42815 0
M  V30 2705 H 242.549 2.34658 -3.58655 0
M  V30 2706 H 246.733 2.04803 -4.52072 0
M  V30 2707 H 241.989 1.66831 -5.88198 0
M  V30 2708 H 246.163 1.37925 -6.82605 0
M  V30 2709 H 243.79 1.1839 -7.50925 0
M  V30 2710 N 245.365 1.30045 0.890287 0
M  V30 2711 C 246.642 1.09227 1.62262 0
M  V30 2712 C 247.022 -0.360305 2.08002 0
M  V30 2713 O 246.37 -1.35084 1.84295 0
M  V30 2714 C 246.58 2.08835 2.79623 0
M  V30 2715 C 247.928 2.40266 3.50082 0
M  V30 2716 O 248.952 2.07104 2.89804 0
M  V30 2717 O 247.811 2.96967 4.58773 0
M  V30 2718 H 244.905 0.419132 0.712922 0
M  V30 2719 H 247.451 1.41451 0.937529 0
M  V30 2720 H 246.223 3.06633 2.43089 0
M  V30 2721 H 245.846 1.77397 3.55832 0
M  V30 2722 N 246.843 -1.10192 1.12674 0
M  V30 2723 C 248.089 -1.82475 0.884915 0
M  V30 2724 C 248.422 -1.85093 -0.58773 0
M  V30 2725 O 247.697 -1.3134 -1.43457 0
M  V30 2726 C 247.98 -3.29018 1.46353 0
M  V30 2727 C 247.833 -3.34718 3.00473 0
M  V30 2728 C 249.152 -4.25473 1.12519 0
M  V30 2729 H 246.271 -0.662492 0.322915 0
M  V30 2730 H 248.913 -1.2913 1.39375 0
M  V30 2731 H 247.063 -3.74576 1.03077 0
M  V30 2732 H 248.735 -2.97622 3.52447 0
M  V30 2733 H 246.978 -2.74541 3.35872 0
M  V30 2734 H 247.649 -4.37918 3.36053 0
M  V30 2735 H 250.125 -3.88161 1.499 0
M  V30 2736 H 249.001 -5.26365 1.55663 0
M  V30 2737 H 249.262 -4.42084 0.0377407 0
M  V30 2738 N 248.321 -0.919034 -1.28029 0
M  V30 2739 C 249.568 -0.554934 -1.94748 0
M  V30 2740 C 249.896 0.90231 -1.72304 0
M  V30 2741 O 249.151 1.65767 -1.04018 0
M  V30 2742 C 249.45 -0.816855 -3.4794 0
M  V30 2743 C 249.116 -2.25448 -3.90492 0
M  V30 2744 C 247.778 -2.64752 -4.01821 0
M  V30 2745 C 250.13 -3.18977 -4.12193 0
M  V30 2746 C 247.458 -3.96727 -4.32232 0
M  V30 2747 C 249.81 -4.50523 -4.44086 0
M  V30 2748 C 248.474 -4.89673 -4.53626 0
M  V30 2749 H 247.744 -0.203065 -0.712633 0
M  V30 2750 H 250.391 -1.16136 -1.52265 0
M  V30 2751 H 248.696 -0.127677 -3.91592 0
M  V30 2752 H 250.393 -0.514238 -3.97689 0
M  V30 2753 H 246.983 -1.93952 -3.82205 0
M  V30 2754 H 251.167 -2.89817 -4.02889 0
M  V30 2755 H 246.423 -4.26754 -4.37825 0
M  V30 2756 H 250.597 -5.23005 -4.59825 0
M  V30 2757 H 248.224 -5.91969 -4.76946 0
M  V30 2758 N 249.799 1.42003 -0.683588 0
M  V30 2759 C 251.024 2.06265 -0.216647 0
M  V30 2760 C 251.449 1.51059 1.12083 0
M  V30 2761 O 250.807 0.632638 1.69904 0
M  V30 2762 C 250.855 3.60191 -0.171759 0
M  V30 2763 O 249.959 4.03396 0.857069 0
M  V30 2764 H 249.3 0.65502 -0.108834 0
M  V30 2765 H 251.83 1.81982 -0.935077 0
M  V30 2766 H 251.84 4.08 0.0014303 0
M  V30 2767 H 250.515 3.99743 -1.14796 0
M  V30 2768 H 249.092 3.67117 0.654208 0
M  V30 2769 N 251.277 0.427512 1.51691 0
M  V30 2770 C 252.207 -0.3796 2.30394 0
M  V30 2771 C 253.188 -1.02982 1.35384 0
M  V30 2772 O 254.373 -1.03534 1.643 0
M  V30 2773 C 251.503 -1.48649 3.1388 0
M  V30 2774 C 250.457 -0.960294 4.17088 0
M  V30 2775 C 249.783 -2.16219 4.89033 0
M  V30 2776 C 251.083 -0.00153679 5.223 0
M  V30 2777 H 252.777 0.277164 2.98114 0
M  V30 2778 H 250.323 0.134739 1.43368 0
M  V30 2779 H 252.276 -2.05826 3.67714 0
M  V30 2780 H 251 -2.1714 2.43962 0
M  V30 2781 H 249.659 -0.410806 3.64291 0
M  V30 2782 H 249.307 -2.83307 4.15628 0
M  V30 2783 H 249.007 -1.81654 5.58816 0
M  V30 2784 H 250.531 -2.73968 5.45687 0
M  V30 2785 H 251.945 -0.482687 5.71264 0
M  V30 2786 H 250.342 0.256199 5.99553 0
M  V30 2787 H 251.412 0.938174 4.75738 0
M  V30 2788 N 252.755 -1.56801 0.158532 0
M  V30 2789 C 253.703 -2.18638 -0.793729 0
M  V30 2790 C 254.697 -1.14669 -1.24689 0
M  V30 2791 O 255.903 -1.32895 -1.21403 0
M  V30 2792 H 252.278 -0.700226 -0.274204 0
M  V30 2793 H 254.249 -2.97367 -0.248095 0
M  V30 2794 C 252.998 -2.83139 -2.0181 0
M  V30 2795 H 252.321 -3.62863 -1.67841 0
M  V30 2796 H 253.761 -3.29894 -2.66357 0
M  V30 2797 C 252.22 -1.82244 -2.83353 0
M  V30 2798 O 252.75 -1.3 -3.80083 0
M  V30 2799 N 250.956 -1.51288 -2.48114 0
M  V30 2800 H 250.503 -1.93964 -1.69516 0
M  V30 2801 H 250.461 -0.840296 -3.02963 0
M  V30 2802 N 254.233 0.115231 -1.57178 0
M  V30 2803 C 255.165 1.16694 -1.97269 0
M  V30 2804 C 256.178 1.37445 -0.872502 0
M  V30 2805 O 257.367 1.36454 -1.15077 0
M  V30 2806 C 254.467 2.52627 -2.25905 0
M  V30 2807 C 253.64 2.52427 -3.57211 0
M  V30 2808 C 252.699 3.70134 -3.74016 0
M  V30 2809 O 251.725 3.53546 -4.46087 0
M  V30 2810 N 252.927 4.88844 -3.13068 0
M  V30 2811 H 255.692 0.82588 -2.88096 0
M  V30 2812 H 253.253 0.304461 -1.59011 0
M  V30 2813 H 255.245 3.29937 -2.34359 0
M  V30 2814 H 253.815 2.789 -1.41186 0
M  V30 2815 H 253.035 1.60805 -3.5991 0
M  V30 2816 H 254.323 2.49353 -4.43509 0
M  V30 2817 H 253.721 5.05225 -2.54489 0
M  V30 2818 H 252.278 5.63817 -3.27037 0
M  V30 2819 N 255.711 1.52812 0.385517 0
M  V30 2820 C 256.674 1.77188 1.45386 0
M  V30 2821 C 257.674 0.641953 1.4743 0
M  V30 2822 O 258.864 0.910033 1.4854 0
M  V30 2823 C 255.996 1.87582 2.8465 0
M  V30 2824 H 257.189 2.72583 1.25054 0
M  V30 2825 H 254.742 1.43586 0.617467 0
M  V30 2826 H 255.477 0.941849 3.10322 0
M  V30 2827 H 255.262 2.69748 2.84567 0
M  V30 2828 H 256.752 2.08102 3.62054 0
M  V30 2829 N 257.189 -0.644168 1.43834 0
M  V30 2830 C 258.152 -1.73857 1.49353 0
M  V30 2831 C 259.152 -1.56315 0.377112 0
M  V30 2832 O 260.342 -1.62048 0.639226 0
M  V30 2833 C 257.474 -3.12819 1.35488 0
M  V30 2834 H 258.667 -1.70342 2.46827 0
M  V30 2835 H 256.22 -0.856652 1.30733 0
M  V30 2836 H 256.955 -3.2194 0.390569 0
M  V30 2837 H 256.74 -3.26958 2.16428 0
M  V30 2838 H 258.23 -3.92606 1.42302 0
M  V30 2839 N 258.668 -1.30515 -0.883378 0
M  V30 2840 C 259.945 -1.10086 -1.6168 0
M  V30 2841 C 260.325 0.349269 -2.08191 0
M  V30 2842 O 259.673 1.34105 -1.85008 0
M  V30 2843 C 259.883 -2.10315 -2.78511 0
M  V30 2844 C 261.231 -2.42119 -3.48803 0
M  V30 2845 O 262.255 -2.08638 -2.88702 0
M  V30 2846 O 261.114 -2.99396 -4.57192 0
M  V30 2847 H 258.208 -0.422907 -0.710689 0
M  V30 2848 H 260.754 -1.41947 -0.930015 0
M  V30 2849 H 259.526 -3.07917 -2.41459 0
M  V30 2850 H 259.149 -1.79282 -3.54886 0
M  V30 2851 N 260.146 1.09593 -1.13257 0
M  V30 2852 C 261.423 1.78293 -0.804432 0
M  V30 2853 C 261.803 1.99004 0.70431 0
M  V30 2854 O 261.151 1.59007 1.641 0
M  V30 2855 C 261.361 3.10707 -1.5894 0
M  V30 2856 C 262.709 3.85443 -1.78099 0
M  V30 2857 O 263.733 3.20454 -1.55525 0
M  V30 2858 O 262.592 5.02108 -2.15753 0
M  V30 2859 H 259.686 0.773156 -0.293528 0
M  V30 2860 H 262.232 1.16164 -1.23709 0
M  V30 2861 H 261.004 2.91106 -2.61482 0
M  V30 2862 H 260.627 3.80558 -1.15157 0
M  V30 2863 N 261.624 0.925811 1.2754 0
M  V30 2864 C 262.574 0.394488 2.24561 0
M  V30 2865 C 263.558 -0.500183 1.52928 0
M  V30 2866 O 264.75 -0.337936 1.73744 0
M  V30 2867 C 261.879 -0.353328 3.41477 0
M  V30 2868 C 260.965 0.557752 4.20416 0
M  V30 2869 N 261.356 1.67674 4.77199 0
M  V30 2870 C 259.654 0.360404 4.44541 0
M  V30 2871 C 260.355 2.24324 5.36706 0
M  V30 2872 N 259.331 1.53305 5.21535 0
M  V30 2873 H 263.133 1.2489 2.66045 0
M  V30 2874 H 260.647 0.779864 1.4245 0
M  V30 2875 H 262.644 -0.7509 4.10082 0
M  V30 2876 H 261.304 -1.20469 3.01525 0
M  V30 2877 H 262.315 2.05915 4.75204 0
M  V30 2878 H 258.992 -0.450454 4.15063 0
M  V30 2879 H 260.382 3.18521 5.91603 0
M  V30 2880 N 263.102 -1.41638 0.69111 0
M  V30 2881 C 264.065 -2.29178 0.0319786 0
M  V30 2882 C 265.065 -1.44153 -0.712496 0
M  V30 2883 O 266.255 -1.65354 -0.548053 0
M  V30 2884 C 263.387 -3.26952 -0.965161 0
M  V30 2885 H 264.58 -2.88959 0.802681 0
M  V30 2886 H 262.133 -1.4955 0.454356 0
M  V30 2887 H 262.868 -2.72142 -1.76378 0
M  V30 2888 H 262.653 -3.89685 -0.434522 0
M  V30 2889 H 264.143 -3.92561 -1.42428 0
M  V30 2890 N 264.58 -0.43555 -1.51462 0
M  V30 2891 C 265.51 0.367376 -2.30592 0
M  V30 2892 C 266.491 1.02263 -1.35928 0
M  V30 2893 O 267.676 1.02661 -1.64847 0
M  V30 2894 C 264.806 1.46983 -3.14664 0
M  V30 2895 C 263.76 0.938161 -4.17591 0
M  V30 2896 C 263.086 2.13622 -4.90173 0
M  V30 2897 C 264.386 -0.0261621 -5.22293 0
M  V30 2898 H 266.08 -0.292969 -2.97963 0
M  V30 2899 H 263.626 -0.14234 -1.43295 0
M  V30 2900 H 265.579 2.03873 -3.688 0
M  V30 2901 H 264.303 2.15843 -2.4511 0
M  V30 2902 H 262.962 0.391481 -3.64504 0
M  V30 2903 H 262.61 2.81098 -4.17124 0
M  V30 2904 H 262.31 1.78688 -5.59772 0
M  V30 2905 H 263.834 2.7107 -5.47132 0
M  V30 2906 H 265.248 0.452384 -5.71512 0
M  V30 2907 H 263.645 -0.287992 -5.99409 0
M  V30 2908 H 264.715 -0.963391 -4.75233 0
M  V30 2909 N 266.058 1.56714 -0.166846 0
M  V30 2910 C 267.474 1.58473 0.189372 0
M  V30 2911 C 267.674 1.18201 1.63189 0
M  V30 2912 O 266.73 0.891528 2.36237 0
M  V30 2913 C 268.043 3.00573 -0.0873872 0
M  V30 2914 C 269.591 3.1299 -0.0252443 0
M  V30 2915 C 270.066 4.57174 -0.274934 0
M  V30 2916 N 271.557 4.62665 -0.222553 0
M  V30 2917 C 272.292 5.72072 -0.389985 0
M  V30 2918 N 271.788 6.90054 -0.616229 0
M  V30 2919 N 273.581 5.61153 -0.326202 0
M  V30 2920 H 265.732 1.8118 -1.10849 0
M  V30 2921 H 267.995 0.839525 -0.440342 0
M  V30 2922 H 267.701 3.34497 -1.0865 0
M  V30 2923 H 267.575 3.72019 0.623037 0
M  V30 2924 H 269.962 2.78895 0.96444 0
M  V30 2925 H 270.043 2.43989 -0.768309 0
M  V30 2926 H 269.687 4.91976 -1.26181 0
M  V30 2927 H 269.617 5.24328 0.48869 0
M  V30 2928 H 272.108 3.77863 -0.0531512 0
M  V30 2929 H 272.421 7.69311 -0.733559 0
M  V30 2930 H 270.766 6.91927 -0.652791 0
M  V30 2931 H 273.957 4.67859 -0.150072 0
M  V30 2932 H 274.13 6.46364 -0.460116 0
M  V30 2933 N 267.536 -0.106894 1.57237 0
M  V30 2934 C 268.764 -0.826389 1.8968 0
M  V30 2935 C 269.179 -1.72856 0.759353 0
M  V30 2936 O 268.536 -1.80503 -0.269263 0
M  V30 2937 C 268.587 -1.64967 3.21665 0
M  V30 2938 O 268.308 -0.783804 4.31031 0
M  V30 2939 C 269.809 -2.47326 3.67892 0
M  V30 2940 H 267.029 -0.236927 0.627779 0
M  V30 2941 H 269.573 -0.0876593 2.04312 0
M  V30 2942 H 267.728 -2.34103 3.08666 0
M  V30 2943 H 268.142 -1.35284 5.06753 0
M  V30 2944 H 269.616 -3.00604 4.6297 0
M  V30 2945 H 270.093 -3.25247 2.95146 0
M  V30 2946 H 270.699 -1.83411 3.83719 0
M  V30 2947 N 269.014 -1.53014 -0.377408 0
M  V30 2948 C 270.263 -1.67845 -1.11853 0
M  V30 2949 C 270.576 -0.430625 -1.90801 0
M  V30 2950 O 271.782 -0.459261 -2.67587 0
M  V30 2951 C 270.238 -2.96668 -2.03756 0
M  V30 2952 C 269.846 -4.28671 -1.30175 0
M  V30 2953 C 271.59 -3.20865 -2.77932 0
M  V30 2954 C 269.497 -5.48591 -2.20911 0
M  V30 2955 H 268.427 -0.625343 -0.421263 0
M  V30 2956 H 271.078 -1.79514 -0.380409 0
M  V30 2957 H 269.46 -2.78773 -2.8125 0
M  V30 2958 H 270.634 -4.57157 -0.578259 0
M  V30 2959 H 268.949 -4.10825 -0.679108 0
M  V30 2960 H 271.546 -4.07642 -3.46024 0
M  V30 2961 H 271.889 -2.36424 -3.4265 0
M  V30 2962 H 272.422 -3.39379 -2.07525 0
M  V30 2963 H 269.161 -6.35474 -1.6079 0
M  V30 2964 H 268.681 -5.244 -2.91144 0
M  V30 2965 H 270.36 -5.8292 -2.80736 0
M  V30 2966 N 270.492 0.636531 -1.44174 0
M  V30 2967 C 271.738 1.39826 -1.4689 0
M  V30 2968 C 272.071 1.93947 -0.0990585 0
M  V30 2969 O 271.346 1.73325 0.882544 0
M  V30 2970 C 271.629 2.56751 -2.5249 0
M  V30 2971 C 271.482 2.08014 -3.98811 0
M  V30 2972 C 272.801 3.58946 -2.54649 0
M  V30 2973 H 269.92 0.507075 -0.53483 0
M  V30 2974 H 272.562 0.720188 -1.75822 0
M  V30 2975 H 270.712 3.14597 -2.2795 0
M  V30 2976 H 272.384 1.5504 -4.34466 0
M  V30 2977 H 270.627 1.39242 -4.10846 0
M  V30 2978 H 271.298 2.92169 -4.68339 0
M  V30 2979 H 273.774 3.1089 -2.76563 0
M  V30 2980 H 272.65 4.38286 -3.3045 0
M  V30 2981 H 272.911 4.12655 -1.58646 0
M  V30 2982 N 271.97 1.30982 0.876444 0
M  V30 2983 C 273.217 1.20296 1.62896 0
M  V30 2984 C 273.545 -0.240395 1.93009 0
M  V30 2985 O 272.8 -1.18733 1.55567 0
M  V30 2986 C 273.099 1.98572 2.9716 0
M  V30 2987 C 272.765 3.48125 2.86566 0
M  V30 2988 C 271.427 3.88905 2.83383 0
M  V30 2989 C 273.779 4.43322 2.74071 0
M  V30 2990 C 271.107 5.2316 2.65556 0
M  V30 2991 C 273.459 5.77695 2.57781 0
M  V30 2992 C 272.123 6.17704 2.52979 0
M  V30 2993 H 271.393 0.440193 0.59608 0
M  V30 2994 H 274.04 1.62177 1.01837 0
M  V30 2995 H 272.345 1.49352 3.62217 0
M  V30 2996 H 274.042 1.8769 3.54364 0
M  V30 2997 H 270.632 3.15723 2.89856 0
M  V30 2998 H 274.816 4.12752 2.75589 0
M  V30 2999 H 270.072 5.53241 2.60259 0
M  V30 3000 H 274.246 6.51091 2.47089 0
M  V30 3001 H 271.873 7.21678 2.38924 0
M  V30 3002 N 273.449 -1.08991 1.13837 0
M  V30 3003 C 274.359 -2.19301 0.833333 0
M  V30 3004 C 275.375 -1.73026 -0.183847 0
M  V30 3005 O 276.551 -2.01395 -0.0138092 0
M  V30 3006 C 273.616 -3.45323 0.308651 0
M  V30 3007 C 272.677 -4.06255 1.38764 0
M  V30 3008 C 271.91 -5.26262 0.887896 0
M  V30 3009 O 272.133 -5.69747 -0.27287 0
M  V30 3010 O 271.067 -5.78435 1.66421 0
M  V30 3011 H 274.893 -2.47854 1.75506 0
M  V30 3012 H 272.478 -1.18012 0.916166 0
M  V30 3013 H 274.36 -4.21394 0.0216739 0
M  V30 3014 H 273.035 -3.18362 -0.585431 0
M  V30 3015 H 271.942 -3.318 1.72799 0
M  V30 3016 H 273.275 -4.37452 2.25602 0
M  V30 3017 N 274.927 -0.932562 -1.27047 0
M  V30 3018 C 275.857 -0.452902 -2.29066 0
M  V30 3019 C 276.838 0.489338 -1.62909 0
M  V30 3020 O 278.023 0.393046 -1.90181 0
M  V30 3021 C 275.153 0.290698 -3.46081 0
M  V30 3022 C 274.107 -0.564168 -4.24265 0
M  V30 3023 C 273.433 0.308886 -5.33807 0
M  V30 3024 C 274.733 -1.83112 -4.89149 0
M  V30 3025 H 276.427 -1.30552 -2.69437 0
M  V30 3026 H 273.973 -0.629201 -1.29526 0
M  V30 3027 H 275.926 0.637233 -4.16554 0
M  V30 3028 H 274.65 1.17738 -3.0464 0
M  V30 3029 H 273.309 -0.893477 -3.55545 0
M  V30 3030 H 272.957 1.19467 -4.88607 0
M  V30 3031 H 272.657 -0.259633 -5.87026 0
M  V30 3032 H 274.181 0.650884 -6.07121 0
M  V30 3033 H 275.595 -1.55236 -5.51883 0
M  V30 3034 H 273.992 -2.34353 -5.52448 0
M  V30 3035 H 275.062 -2.54772 -4.12576 0
M  V30 3036 N 276.405 1.4127 -0.698611 0
M  V30 3037 C 277.335 2.33447 -0.049629 0
M  V30 3038 C 278.316 1.51982 0.763898 0
M  V30 3039 O 279.501 1.80509 0.716257 0
M  V30 3040 C 276.631 3.35828 0.885267 0
M  V30 3041 C 275.585 4.27627 0.178613 0
M  V30 3042 C 274.911 5.20406 1.22807 0
M  V30 3043 C 276.211 5.13459 -0.956933 0
M  V30 3044 H 277.905 2.87966 -0.81951 0
M  V30 3045 H 275.451 1.38461 -0.395538 0
M  V30 3046 H 277.404 3.9924 1.34854 0
M  V30 3047 H 276.128 2.79666 1.68685 0
M  V30 3048 H 274.787 3.65643 -0.26466 0
M  V30 3049 H 274.435 4.60558 2.02226 0
M  V30 3050 H 274.135 5.82661 0.760239 0
M  V30 3051 H 275.659 5.86695 1.69179 0
M  V30 3052 H 277.073 5.70421 -0.573805 0
M  V30 3053 H 275.47 5.8467 -1.35205 0
M  V30 3054 H 276.54 4.50443 -1.79524 0
M  V30 3055 N 277.883 0.443576 1.51229 0
M  V30 3056 C 279.111 -0.11929 2.06556 0
M  V30 3057 C 279.526 -1.35921 1.31038 0
M  V30 3058 O 278.883 -1.78675 0.371704 0
M  V30 3059 C 278.934 -0.435228 3.5887 0
M  V30 3060 O 278.655 0.755486 4.31537 0
M  V30 3061 C 280.156 -1.04808 4.30732 0
M  V30 3062 H 277.376 -0.0051584 0.67098 0
M  V30 3063 H 279.92 0.624453 1.94733 0
M  V30 3064 H 278.075 -1.12887 3.70588 0
M  V30 3065 H 278.489 0.483491 5.22267 0
M  V30 3066 H 279.963 -1.2191 5.3837 0
M  V30 3067 H 280.44 -2.03081 3.89429 0
M  V30 3068 H 281.046 -0.393637 4.23474 0
M  V30 3069 N 279.361 -1.56624 0.175154 0
M  V30 3070 C 280.777 -1.58571 -0.180966 0
M  V30 3071 C 280.977 -1.19065 -1.6256 0
M  V30 3072 O 280.033 -0.904044 -2.35761 0
M  V30 3073 C 281.346 -3.00522 0.103326 0
M  V30 3074 C 282.894 -3.12972 0.0418426 0
M  V30 3075 C 283.369 -4.57022 0.299175 0
M  V30 3076 N 284.86 -4.62541 0.247086 0
M  V30 3077 C 285.595 -5.71857 0.420318 0
M  V30 3078 N 285.091 -6.89717 0.652816 0
M  V30 3079 N 286.884 -5.60972 0.355957 0
M  V30 3080 H 279.035 -1.80589 1.11809 0
M  V30 3081 H 281.298 -0.837178 0.444788 0
M  V30 3082 H 281.004 -3.33916 1.10422 0
M  V30 3083 H 280.878 -3.72344 -0.603299 0
M  V30 3084 H 283.265 -2.79403 -0.949636 0
M  V30 3085 H 283.346 -2.43578 0.781238 0
M  V30 3086 H 282.99 -4.913 1.28788 0
M  V30 3087 H 282.92 -5.24579 -0.460876 0
M  V30 3088 H 285.411 -3.77829 0.0731895 0
M  V30 3089 H 285.724 -7.68911 0.774347 0
M  V30 3090 H 284.069 -6.91572 0.689476 0
M  V30 3091 H 287.26 -4.67773 0.174882 0
M  V30 3092 H 287.433 -6.46111 0.494388 0
M  V30 3093 N 280.839 0.0985539 -1.57292 0
M  V30 3094 C 281.789 1.1261 -1.9825 0
M  V30 3095 C 282.773 1.35961 -0.860426 0
M  V30 3096 O 283.965 1.36711 -1.12424 0
M  V30 3097 C 281.094 2.44727 -2.40757 0
M  V30 3098 C 280.18 2.24764 -3.59642 0
M  V30 3099 N 280.571 1.74661 -4.74687 0
M  V30 3100 C 278.869 2.55344 -3.65672 0
M  V30 3101 C 279.57 1.68887 -5.56644 0
M  V30 3102 N 278.546 2.13976 -4.99715 0
M  V30 3103 H 282.348 0.731604 -2.84648 0
M  V30 3104 H 279.862 0.306029 -1.59491 0
M  V30 3105 H 281.859 3.19072 -2.68326 0
M  V30 3106 H 280.519 2.84917 -1.55733 0
M  V30 3107 H 281.53 1.43908 -4.97505 0
M  V30 3108 H 278.207 2.99081 -2.91302 0
M  V30 3109 H 279.597 1.3123 -6.5896 0
M  V30 3110 N 282.317 1.53212 0.369288 0
M  V30 3111 C 283.265 1.80054 1.47253 0
M  V30 3112 C 284.259 0.669456 1.55611 0
M  V30 3113 O 285.465 0.852328 1.58541 0
M  V30 3114 H 281.84 0.570034 0.490475 0
M  V30 3115 H 283.811 2.72403 1.21817 0
M  V30 3116 C 282.56 2.00403 2.84137 0
M  V30 3117 H 281.883 2.86876 2.78464 0
M  V30 3118 H 283.323 2.23164 3.60519 0
M  V30 3119 C 281.782 0.782081 3.27697 0
M  V30 3120 O 282.312 -0.0310205 4.01688 0
M  V30 3121 N 280.518 0.606573 2.84199 0
M  V30 3122 H 280.065 1.26939 2.24152 0
M  V30 3123 H 280.023 -0.20962 3.137 0
M  V30 3124 N 283.795 -0.628877 1.44509 0
M  V30 3125 C 284.725 -1.75187 1.54376 0
M  V30 3126 C 285.706 -1.65411 0.396618 0
M  V30 3127 O 286.891 -1.84137 0.617031 0
M  V30 3128 C 284.021 -3.13725 1.48976 0
M  V30 3129 C 282.975 -3.38291 2.62189 0
M  V30 3130 C 282.301 -4.76883 2.41841 0
M  V30 3131 C 283.601 -3.30632 4.04326 0
M  V30 3132 H 285.295 -1.67187 2.48373 0
M  V30 3133 H 282.841 -0.802909 1.19538 0
M  V30 3134 H 284.794 -3.92064 1.54478 0
M  V30 3135 H 283.518 -3.22515 0.514961 0
M  V30 3136 H 282.177 -2.62334 2.56079 0
M  V30 3137 H 281.825 -4.82378 1.42548 0
M  V30 3138 H 281.525 -4.94278 3.17747 0
M  V30 3139 H 283.049 -5.57449 2.49165 0
M  V30 3140 H 284.463 -3.98873 4.11793 0
M  V30 3141 H 282.86 -3.59561 4.80454 0
M  V30 3142 H 283.93 -2.28404 4.27738 0
M  V30 3143 N 285.273 -1.31445 -0.869486 0
M  V30 3144 C 286.522 -1.20517 -1.61736 0
M  V30 3145 C 286.835 0.235341 -1.94179 0
M  V30 3146 O 288.041 0.466312 -2.67465 0
M  V30 3147 C 286.497 -2.10982 -2.91573 0
M  V30 3148 C 286.105 -3.60032 -2.66611 0
M  V30 3149 C 287.849 -2.08856 -3.69567 0
M  V30 3150 C 285.756 -4.42503 -3.92358 0
M  V30 3151 H 284.686 -0.447493 -0.606849 0
M  V30 3152 H 287.337 -1.56303 -0.96133 0
M  V30 3153 H 285.719 -1.68095 -3.58553 0
M  V30 3154 H 286.893 -4.11167 -2.08035 0
M  V30 3155 H 285.208 -3.64139 -2.0197 0
M  V30 3156 H 287.805 -2.67716 -4.62852 0
M  V30 3157 H 288.148 -1.07582 -4.02159 0
M  V30 3158 H 288.681 -2.49945 -3.09471 0
M  V30 3159 H 285.42 -5.44533 -3.64916 0
M  V30 3160 H 284.94 -3.96125 -4.50383 0
M  V30 3161 H 286.619 -4.54741 -4.60238 0
M  V30 3162 N 286.751 1.08385 -1.14413 0
M  V30 3163 C 287.976 1.85057 -0.936413 0
M  V30 3164 C 288.401 1.81055 0.509971 0
M  V30 3165 O 287.759 1.1958 1.36273 0
M  V30 3166 C 287.807 3.30505 -1.44217 0
M  V30 3167 O 286.911 4.07491 -0.634409 0
M  V30 3168 H 286.252 0.573425 -0.334784 0
M  V30 3169 H 288.782 1.36799 -1.52142 0
M  V30 3170 H 288.792 3.81348 -1.45043 0
M  V30 3171 H 287.467 3.32734 -2.49522 0
M  V30 3172 H 286.044 3.66368 -0.694902 0
M  V30 3173 N 288.23 0.939286 1.26551 0
M  V30 3174 C 289.646 0.641304 1.46149 0
M  V30 3175 C 289.846 -0.805964 1.84679 0
M  V30 3176 O 288.902 -1.58278 1.96734 0
M  V30 3177 C 290.215 1.6011 2.54529 0
M  V30 3178 C 291.763 1.6106 2.68382 0
M  V30 3179 C 292.238 2.55765 3.79932 0
M  V30 3180 N 293.729 2.5404 3.87322 0
M  V30 3181 C 294.464 3.24004 4.73085 0
M  V30 3182 N 293.96 4.03388 5.63249 0
M  V30 3183 N 295.753 3.12965 4.66914 0
M  V30 3184 H 287.904 1.87478 0.998285 0
M  V30 3185 H 290.167 0.805559 0.499779 0
M  V30 3186 H 289.873 2.63412 2.33039 0
M  V30 3187 H 289.747 1.35171 3.52149 0
M  V30 3188 H 292.134 0.584835 2.89247 0
M  V30 3189 H 292.215 1.90053 1.71212 0
M  V30 3190 H 291.859 3.58458 3.5982 0
M  V30 3191 H 291.789 2.24063 4.76554 0
M  V30 3192 H 294.28 1.96396 3.22858 0
M  V30 3193 H 294.593 4.5373 6.25579 0
M  V30 3194 H 292.938 4.07489 5.63008 0
M  V30 3195 H 296.129 2.50432 3.95476 0
M  V30 3196 H 296.302 3.67759 5.33533 0
M  V30 3197 N 289.708 -1.40897 0.706093 0
M  V30 3198 C 290.955 -2.01054 0.241531 0
M  V30 3199 C 291.283 -1.55956 -1.16223 0
M  V30 3200 O 290.538 -0.766336 -1.80072 0
M  V30 3201 C 290.837 -3.5646 0.259099 0
M  V30 3202 C 290.503 -4.21106 1.61184 0
M  V30 3203 C 289.165 -4.38479 1.98216 0
M  V30 3204 C 291.517 -4.57256 2.50132 0
M  V30 3205 C 288.845 -4.89282 3.2376 0
M  V30 3206 C 291.197 -5.09454 3.7502 0
M  V30 3207 C 289.861 -5.25037 4.12181 0
M  V30 3208 H 289.131 -0.73571 0.0883825 0
M  V30 3209 H 291.778 -1.68645 0.907257 0
M  V30 3210 H 290.083 -3.88721 -0.490189 0
M  V30 3211 H 291.78 -4.00826 -0.11804 0
M  V30 3212 H 288.37 -4.07966 1.31384 0
M  V30 3213 H 292.554 -4.43479 2.228 0
M  V30 3214 H 287.81 -4.99531 3.52532 0
M  V30 3215 H 291.984 -5.36404 4.44121 0
M  V30 3216 H 289.611 -5.64164 5.09532 0
M  V30 3217 N 291.186 -0.45159 -1.50991 0
M  V30 3218 C 292.133 0.352625 -2.2809 0
M  V30 3219 C 293.103 1.0044 -1.32291 0
M  V30 3220 O 294.288 1.02058 -1.6121 0
M  V30 3221 C 291.428 1.43983 -3.13629 0
M  V30 3222 C 290.541 0.804772 -4.24438 0
M  V30 3223 C 289.676 1.86822 -4.97263 0
M  V30 3224 C 288.715 1.21236 -5.99973 0
M  V30 3225 N 287.852 2.2178 -6.66152 0
M  V30 3226 H 292.692 -0.311186 -2.96371 0
M  V30 3227 H 290.229 -0.165308 -1.46168 0
M  V30 3228 H 292.187 2.08161 -3.61559 0
M  V30 3229 H 290.817 2.07307 -2.47434 0
M  V30 3230 H 289.869 0.0509129 -3.80366 0
M  V30 3231 H 291.181 0.286076 -4.97979 0
M  V30 3232 H 290.335 2.58628 -5.48813 0
M  V30 3233 H 289.074 2.42068 -4.23385 0
M  V30 3234 H 288.079 0.479828 -5.47702 0
M  V30 3235 H 289.304 0.667051 -6.75816 0
M  V30 3236 H 287.25 2.76079 -5.95077 0
M  V30 3237 H 287.167 1.74841 -7.35504 0
M  V30 3238 H 288.435 2.93026 -7.22327 0
M  V30 3239 N 292.664 1.56529 -0.183458 0
M  V30 3240 C 293.913 1.96419 0.458511 0
M  V30 3241 C 294.226 1.0727 1.63562 0
M  V30 3242 O 295.432 1.36893 2.34462 0
M  V30 3243 C 293.888 3.49298 0.867122 0
M  V30 3244 C 293.496 4.47092 -0.285057 0
M  V30 3245 C 295.24 3.97983 1.47683 0
M  V30 3246 C 293.147 5.91225 0.143862 0
M  V30 3247 H 292.077 0.733394 0.175071 0
M  V30 3248 H 294.728 1.81448 -0.273624 0
M  V30 3249 H 293.11 3.59731 1.65559 0
M  V30 3250 H 294.284 4.48383 -1.0625 0
M  V30 3251 H 292.599 4.08535 -0.805503 0
M  V30 3252 H 295.196 5.03134 1.80999 0
M  V30 3253 H 295.539 3.41618 2.37914 0
M  V30 3254 H 296.072 3.90617 0.752562 0
M  V30 3255 H 292.811 6.5149 -0.723974 0
M  V30 3256 H 292.331 5.93214 0.886413 0
M  V30 3257 H 294.01 6.44362 0.583628 0
M  V30 3258 N 294.142 -0.090211 1.57342 0
M  V30 3259 C 295.553 -0.644173 1.75235 0
M  V30 3260 C 295.904 -1.78865 0.806335 0
M  V30 3261 O 295.029 -2.16395 -0.0140128 0
M  V30 3262 C 295.624 -1.17532 3.1776 0
M  V30 3263 C 294.183 -1.67531 3.37061 0
M  V30 3264 C 293.33 -0.58693 2.71017 0
M  V30 3265 H 296.281 0.135884 1.58117 0
M  V30 3266 H 296.302 -2.04455 3.20902 0
M  V30 3267 H 295.814 -0.342138 3.86589 0
M  V30 3268 H 293.915 -2.53234 2.73319 0
M  V30 3269 H 294.028 -1.76493 4.45406 0
M  V30 3270 H 292.392 -1.02756 2.33052 0
M  V30 3271 H 293.175 0.235758 3.4249 0
M  V30 3272 N 295.62 -1.53406 -0.361157 0
M  V30 3273 C 296.848 -1.73717 -1.12383 0
M  V30 3274 C 297.263 -0.468161 -1.82904 0
M  V30 3275 O 296.62 0.559198 -1.73722 0
M  V30 3276 C 296.671 -2.90558 -2.15078 0
M  V30 3277 O 296.392 -4.12549 -1.47428 0
M  V30 3278 C 297.893 -3.22777 -3.03858 0
M  V30 3279 H 295.113 -0.580896 -0.335858 0
M  V30 3280 H 297.657 -2.00167 -0.418728 0
M  V30 3281 H 295.812 -2.66489 -2.8118 0
M  V30 3282 H 296.226 -4.78009 -2.15887 0
M  V30 3283 H 297.7 -4.07927 -3.71887 0
M  V30 3284 H 298.177 -2.38329 -3.68912 0
M  V30 3285 H 298.783 -3.48787 -2.43367 0
M  V30 3286 N 297.098 0.621204 -1.44841 0
M  V30 3287 C 298.344 1.3826 -1.48365 0
M  V30 3288 C 298.677 1.93831 -0.119624 0
M  V30 3289 O 297.952 1.74251 0.864111 0
M  V30 3290 C 298.235 2.54058 -2.55199 0
M  V30 3291 C 298.088 2.03772 -4.00995 0
M  V30 3292 C 299.407 3.56225 -2.58442 0
M  V30 3293 H 296.526 0.501374 -0.540179 0
M  V30 3294 H 299.168 0.7015 -1.76576 0
M  V30 3295 H 297.318 3.12162 -2.31274 0
M  V30 3296 H 298.99 1.50423 -4.36086 0
M  V30 3297 H 297.233 1.34876 -4.12299 0
M  V30 3298 H 297.904 2.87185 -4.71411 0
M  V30 3299 H 300.38 3.07939 -2.79844 0
M  V30 3300 H 299.256 4.34756 -3.3508 0
M  V30 3301 H 299.517 4.10949 -1.63013 0
M  V30 3302 N 298.576 1.31904 0.862503 0
M  V30 3303 C 299.823 1.22017 1.61611 0
M  V30 3304 C 300.151 -0.21991 1.93253 0
M  V30 3305 O 299.406 -1.17076 1.56817 0
M  V30 3306 C 299.705 2.01713 2.95037 0
M  V30 3307 C 299.371 3.51145 2.82857 0
M  V30 3308 C 298.033 3.91889 2.79243 0
M  V30 3309 C 300.385 4.46204 2.69353 0
M  V30 3310 C 297.713 5.25947 2.59993 0
M  V30 3311 C 300.065 5.80397 2.5164 0
M  V30 3312 C 298.729 6.20352 2.46413 0
M  V30 3313 H 297.999 0.44649 0.591378 0
M  V30 3314 H 300.646 1.63248 1.00111 0
M  V30 3315 H 298.951 1.53185 3.60613 0
M  V30 3316 H 300.648 1.91437 3.52353 0
M  V30 3317 H 297.238 3.1878 2.86491 0
M  V30 3318 H 301.422 4.15652 2.71196 0
M  V30 3319 H 296.678 5.5597 2.54376 0
M  V30 3320 H 300.852 6.53676 2.40169 0
M  V30 3321 H 298.479 7.24172 2.31256 0
M  V30 3322 N 300.054 -1.07777 1.14986 0
M  V30 3323 C 300.984 -2.16865 0.865557 0
M  V30 3324 C 301.965 -1.69123 -0.182083 0
M  V30 3325 O 303.15 -1.94164 -0.0373815 0
M  V30 3326 C 300.28 -3.45539 0.349313 0
M  V30 3327 C 299.234 -4.06708 1.33313 0
M  V30 3328 C 298.56 -5.30411 0.675918 0
M  V30 3329 C 299.86 -4.47241 2.69764 0
M  V30 3330 H 301.554 -2.40905 1.77778 0
M  V30 3331 H 299.1 -1.15781 0.856203 0
M  V30 3332 H 301.053 -4.21174 0.137983 0
M  V30 3333 H 299.777 -3.21072 -0.598362 0
M  V30 3334 H 298.436 -3.33112 1.53075 0
M  V30 3335 H 298.084 -5.02232 -0.277767 0
M  V30 3336 H 297.784 -5.72293 1.33244 0
M  V30 3337 H 299.308 -6.08755 0.474262 0
M  V30 3338 H 300.722 -5.14025 2.53873 0
M  V30 3339 H 299.119 -5.00062 3.3175 0
M  V30 3340 H 300.189 -3.58818 3.26156 0
M  V30 3341 N 301.532 -0.945985 -1.26051 0
M  V30 3342 C 302.465 -0.403619 -2.24602 0
M  V30 3343 C 303.443 0.510241 -1.54387 0
M  V30 3344 O 304.627 0.446593 -1.83133 0
M  V30 3345 C 301.754 0.419564 -3.36091 0
M  V30 3346 C 300.8 -0.433454 -4.24292 0
M  V30 3347 S 301.633 -1.86037 -5.02146 0
M  V30 3348 C 302.789 -1.04538 -6.17108 0
M  V30 3349 H 303.022 -1.23883 -2.7026 0
M  V30 3350 H 300.555 -0.749438 -1.34992 0
M  V30 3351 H 302.513 0.888595 -4.00767 0
M  V30 3352 H 301.174 1.22951 -2.89036 0
M  V30 3353 H 300.367 0.197486 -5.03613 0
M  V30 3354 H 299.969 -0.837357 -3.64506 0
M  V30 3355 H 302.261 -0.289923 -6.76879 0
M  V30 3356 H 303.204 -1.81222 -6.84518 0
M  V30 3357 H 303.612 -0.579319 -5.61519 0
M  V30 3358 N 303.011 1.40521 -0.713556 0
M  V30 3359 C 304.236 2.05759 -0.26035 0
M  V30 3360 C 304.661 1.53403 1.08854 0
M  V30 3361 O 304.019 0.668535 1.68524 0
M  V30 3362 C 304.067 3.59745 -0.248122 0
M  V30 3363 O 303.171 4.05123 0.77131 0
M  V30 3364 H 302.512 0.652564 -0.122703 0
M  V30 3365 H 305.042 1.79958 -0.973467 0
M  V30 3366 H 305.052 4.07911 -0.0851129 0
M  V30 3367 H 303.727 3.97218 -1.2325 0
M  V30 3368 H 302.304 3.68422 0.57619 0
M  V30 3369 N 304.489 0.459591 1.5075 0
M  V30 3370 C 305.736 -0.0993495 2.02256 0
M  V30 3371 C 306.064 -1.40751 1.34237 0
M  V30 3372 O 305.319 -1.90379 0.453228 0
M  V30 3373 C 305.618 -0.342866 3.55752 0
M  V30 3374 C 305.284 0.88218 4.42186 0
M  V30 3375 C 303.946 1.21808 4.65528 0
M  V30 3376 C 306.298 1.69837 4.92752 0
M  V30 3377 C 303.626 2.37045 5.36681 0
M  V30 3378 C 305.978 2.84192 5.65171 0
M  V30 3379 C 304.642 3.1821 5.8677 0
M  V30 3380 H 303.912 -0.0363545 0.740108 0
M  V30 3381 H 306.559 0.611329 1.8148 0
M  V30 3382 H 304.864 -1.13567 3.7498 0
M  V30 3383 H 306.561 -0.789121 3.93159 0
M  V30 3384 H 303.151 0.610467 4.2423 0
M  V30 3385 H 307.335 1.45205 4.74583 0
M  V30 3386 H 302.591 2.63689 5.51614 0
M  V30 3387 H 306.765 3.4779 6.03337 0
M  V30 3388 H 304.392 4.07613 6.41682 0
M  V30 3389 N 305.967 -1.56429 0.191757 0
M  V30 3390 C 306.897 -2.21937 -0.725696 0
M  V30 3391 C 307.878 -1.1814 -1.2238 0
M  V30 3392 O 309.063 -1.46636 -1.27325 0
M  V30 3393 C 306.193 -2.87611 -1.94672 0
M  V30 3394 C 305.147 -3.97623 -1.58366 0
M  V30 3395 C 304.473 -4.50446 -2.88102 0
M  V30 3396 C 305.773 -5.16197 -0.796133 0
M  V30 3397 H 307.467 -2.98861 -0.179606 0
M  V30 3398 H 305.013 -1.43749 -0.0849464 0
M  V30 3399 H 306.966 -3.3212 -2.59373 0
M  V30 3400 H 305.69 -2.08087 -2.51728 0
M  V30 3401 H 304.349 -3.53801 -0.960247 0
M  V30 3402 H 303.997 -3.67688 -3.43241 0
M  V30 3403 H 303.697 -5.24675 -2.64556 0
M  V30 3404 H 305.221 -4.97654 -3.53798 0
M  V30 3405 H 306.635 -5.57271 -1.34618 0
M  V30 3406 H 305.032 -5.96471 -0.658928 0
M  V30 3407 H 306.102 -4.84473 0.203478 0
M  V30 3408 N 307.445 0.0818655 -1.57387 0
M  V30 3409 C 308.722 0.815343 -1.77796 0
M  V30 3410 C 309.102 1.96289 -0.77679 0
M  V30 3411 O 308.45 2.27691 0.192106 0
M  V30 3412 C 308.66 1.29765 -3.23978 0
M  V30 3413 C 310.008 1.7351 -3.8753 0
M  V30 3414 O 311.032 1.39356 -3.27808 0
M  V30 3415 O 309.891 2.36708 -4.92576 0
M  V30 3416 H 306.985 0.389914 -0.729312 0
M  V30 3417 H 309.531 0.0627213 -1.69584 0
M  V30 3418 H 308.303 0.47608 -3.88393 0
M  V30 3419 H 307.926 2.11189 -3.36875 0
M  V30 3420 N 308.923 1.53595 0.353017 0
M  V30 3421 C 309.886 1.80232 1.41594 0
M  V30 3422 C 310.886 0.673081 1.46035 0
M  V30 3423 O 312.076 0.941335 1.46576 0
M  V30 3424 C 309.208 1.93578 2.80607 0
M  V30 3425 H 310.401 2.75174 1.19244 0
M  V30 3426 H 307.954 1.44864 0.586872 0
M  V30 3427 H 308.689 1.00746 3.08254 0
M  V30 3428 H 308.474 2.75724 2.78781 0
M  V30 3429 H 309.964 2.15735 3.57558 0
M  V30 3430 N 310.401 -0.613514 1.45168 0
M  V30 3431 C 311.331 -1.7354 1.56225 0
M  V30 3432 C 312.312 -1.64981 0.41414 0
M  V30 3433 O 313.497 -1.83472 0.636526 0
M  V30 3434 C 310.627 -3.12128 1.52295 0
M  V30 3435 C 309.581 -3.35491 2.65762 0
M  V30 3436 C 308.907 -4.74291 2.46885 0
M  V30 3437 C 310.207 -3.26325 4.0781 0
M  V30 3438 H 311.901 -1.64543 2.50132 0
M  V30 3439 H 309.447 -0.790185 1.20383 0
M  V30 3440 H 311.4 -3.90404 1.58628 0
M  V30 3441 H 310.124 -3.2195 0.549139 0
M  V30 3442 H 308.783 -2.59603 2.58847 0
M  V30 3443 H 308.431 -4.80839 1.47657 0
M  V30 3444 H 308.131 -4.9088 3.22972 0
M  V30 3445 H 309.655 -5.54775 2.55063 0
M  V30 3446 H 311.069 -3.94483 4.16 0
M  V30 3447 H 309.466 -3.54445 4.8424 0
M  V30 3448 H 310.536 -2.23855 4.30136 0
M  V30 3449 N 311.879 -1.3236 -0.855495 0
M  V30 3450 C 312.789 -1.23221 -1.99634 0
M  V30 3451 C 313.805 -0.145983 -1.73387 0
M  V30 3452 O 314.981 -0.366502 -1.98037 0
M  V30 3453 C 312.046 -0.954782 -3.33294 0
M  V30 3454 C 311.107 -2.12937 -3.72769 0
M  V30 3455 C 310.34 -1.86508 -5.00051 0
M  V30 3456 O 310.563 -0.807231 -5.64659 0
M  V30 3457 O 309.497 -2.72591 -5.36636 0
M  V30 3458 H 313.323 -2.19126 -2.1028 0
M  V30 3459 H 310.908 -1.12241 -0.986018 0
M  V30 3460 H 312.79 -0.816519 -4.13414 0
M  V30 3461 H 311.465 -0.0258854 -3.2369 0
M  V30 3462 H 310.372 -2.3231 -2.93228 0
M  V30 3463 H 311.705 -3.04102 -3.87018 0
M  V30 3464 N 313.357 1.07166 -1.15556 0
M  V30 3465 C 314.585 1.83514 -0.955519 0
M  V30 3466 C 315 1.82163 0.49621 0
M  V30 3467 O 314.357 1.23441 1.34419 0
M  V30 3468 C 314.408 3.30515 -1.46432 0
M  V30 3469 O 314.129 3.31937 -2.85918 0
M  V30 3470 C 315.63 4.23625 -1.30603 0
M  V30 3471 H 312.85 0.578926 -0.339244 0
M  V30 3472 H 315.394 1.35265 -1.53374 0
M  V30 3473 H 313.549 3.76106 -0.928584 0
M  V30 3474 H 313.963 4.23794 -3.09029 0
M  V30 3475 H 315.437 5.24831 -1.71047 0
M  V30 3476 H 315.914 4.38485 -0.250441 0
M  V30 3477 H 316.52 3.83871 -1.83094 0
M  V30 3478 N 314.835 0.952656 1.25548 0
M  V30 3479 C 316.083 0.605176 1.92826 0
M  V30 3480 C 316.404 -0.860261 1.74999 0
M  V30 3481 O 315.674 -1.6125 1.11244 0
M  V30 3482 H 314.254 0.220832 0.713612 0
M  V30 3483 H 316.916 1.21047 1.52754 0
M  V30 3484 H 316.012 0.832798 3.00784 0
M  V30 3485 N 316.313 -1.40141 0.720998 0
M  V30 3486 C 317.543 -2.04798 0.27226 0
M  V30 3487 C 317.951 -1.54442 -1.09289 0
M  V30 3488 O 317.294 -0.698342 -1.69908 0
M  V30 3489 C 317.356 -3.59048 0.18027 0
M  V30 3490 C 317.02 -4.32317 1.48159 0
M  V30 3491 C 318.017 -4.59902 2.42458 0
M  V30 3492 C 315.702 -4.71125 1.74202 0
M  V30 3493 C 317.696 -5.25288 3.61042 0
M  V30 3494 C 315.383 -5.36242 2.93066 0
M  V30 3495 C 316.381 -5.63254 3.86308 0
M  V30 3496 O 316.069 -6.27024 5.03086 0
M  V30 3497 H 315.801 -0.665419 0.119139 0
M  V30 3498 H 318.355 -1.80436 0.981432 0
M  V30 3499 H 316.585 -3.82251 -0.58489 0
M  V30 3500 H 318.274 -4.05221 -0.234618 0
M  V30 3501 H 319.04 -4.30379 2.23604 0
M  V30 3502 H 314.919 -4.49466 1.02477 0
M  V30 3503 H 318.463 -5.46289 4.33837 0
M  V30 3504 H 314.36 -5.65185 3.11826 0
M  V30 3505 H 315.128 -6.4552 5.03235 0
M  V30 3506 N 317.792 -0.46758 -1.50504 0
M  V30 3507 C 319.04 0.0884469 -2.01906 0
M  V30 3508 C 319.361 1.40532 -1.35188 0
M  V30 3509 O 318.631 1.89515 -0.496079 0
M  V30 3510 H 317.211 0.0356765 -0.746148 0
M  V30 3511 H 319.873 -0.6172 -1.84869 0
M  V30 3512 H 318.969 0.2425 -3.11156 0
M  V30 3513 N 319.27 1.56325 -0.20005 0
M  V30 3514 C 320.217 2.1932 0.718833 0
M  V30 3515 C 321.187 1.14198 1.20615 0
M  V30 3516 O 322.372 1.42469 1.26914 0
M  V30 3517 C 319.512 2.86041 1.93066 0
M  V30 3518 C 318.625 4.05702 1.48425 0
M  V30 3519 C 317.76 4.60266 2.65196 0
M  V30 3520 C 316.799 5.72273 2.17185 0
M  V30 3521 N 315.936 6.21221 3.27152 0
M  V30 3522 H 320.776 2.97486 0.17489 0
M  V30 3523 H 318.313 1.46911 0.0745794 0
M  V30 3524 H 320.271 3.22897 2.64184 0
M  V30 3525 H 318.901 2.1043 2.44783 0
M  V30 3526 H 317.953 3.74475 0.668755 0
M  V30 3527 H 319.265 4.86699 1.09204 0
M  V30 3528 H 318.419 4.99453 3.4443 0
M  V30 3529 H 317.158 3.78386 3.07693 0
M  V30 3530 H 316.163 5.3261 1.36407 0
M  V30 3531 H 317.388 6.55974 1.75713 0
M  V30 3532 H 315.334 5.42263 3.69171 0
M  V30 3533 H 315.251 6.97284 2.92116 0
M  V30 3534 H 316.519 6.65063 4.06585 0
M  V30 3535 N 320.748 -0.0735177 1.57428 0
M  V30 3536 C 321.978 -0.78483 1.91112 0
M  V30 3537 C 322.386 -1.71729 0.7941 0
M  V30 3538 O 321.729 -1.82105 -0.241542 0
M  V30 3539 C 321.791 -1.63346 3.20247 0
M  V30 3540 C 321.455 -0.870557 4.48632 0
M  V30 3541 C 322.452 -0.19058 5.19551 0
M  V30 3542 C 320.137 -0.838242 4.95256 0
M  V30 3543 C 322.131 0.511503 6.35344 0
M  V30 3544 C 319.818 -0.132386 6.10957 0
M  V30 3545 C 320.816 0.541288 6.80852 0
M  V30 3546 O 320.504 1.23578 7.94345 0
M  V30 3547 H 320.236 -0.228408 0.636244 0
M  V30 3548 H 322.79 -0.0486039 2.05342 0
M  V30 3549 H 321.02 -2.41245 3.02222 0
M  V30 3550 H 322.709 -2.22329 3.39595 0
M  V30 3551 H 323.475 -0.206864 4.84559 0
M  V30 3552 H 319.354 -1.35206 4.40727 0
M  V30 3553 H 322.898 1.03789 6.89836 0
M  V30 3554 H 318.795 -0.114023 6.45399 0
M  V30 3555 H 319.563 1.14487 8.10454 0
M  V30 3556 N 322.226 -1.5378 -0.344866 0
M  V30 3557 C 323.173 -1.81676 -1.42346 0
M  V30 3558 C 324.143 -0.662376 -1.52321 0
M  V30 3559 O 325.328 -0.906675 -1.67881 0
M  V30 3560 C 322.468 -2.03087 -2.79015 0
M  V30 3561 C 321.581 -3.30799 -2.77842 0
M  V30 3562 C 320.716 -3.42285 -4.0622 0
M  V30 3563 C 319.755 -4.6395 -3.9927 0
M  V30 3564 N 318.892 -4.72477 -5.19336 0
M  V30 3565 H 323.732 -2.73703 -1.17858 0
M  V30 3566 H 321.269 -1.35568 -0.570949 0
M  V30 3567 H 323.227 -2.1349 -3.58438 0
M  V30 3568 H 321.857 -1.14375 -3.01858 0
M  V30 3569 H 320.909 -3.29244 -1.90533 0
M  V30 3570 H 322.221 -4.20314 -2.68584 0
M  V30 3571 H 321.375 -3.52113 -4.94066 0
M  V30 3572 H 320.114 -2.50823 -4.18258 0
M  V30 3573 H 319.119 -4.54201 -3.09809 0
M  V30 3574 H 320.344 -5.56775 -3.88817 0
M  V30 3575 H 318.29 -3.83924 -5.3192 0
M  V30 3576 H 318.207 -5.55927 -5.12329 0
M  V30 3577 H 319.475 -4.86613 -6.08957 0
M  V30 3578 N 323.704 0.605807 -1.45491 0
M  V30 3579 C 324.652 1.73754 -1.54636 0
M  V30 3580 C 325.646 1.64207 -0.416219 0
M  V30 3581 O 326.852 1.69979 -0.592199 0
M  V30 3582 H 323.227 0.574073 -0.485741 0
M  V30 3583 H 325.198 1.63169 -2.49837 0
M  V30 3584 C 323.947 3.12135 -1.53189 0
M  V30 3585 H 323.27 3.20141 -2.39478 0
M  V30 3586 H 324.71 3.91147 -1.63645 0
M  V30 3587 C 323.169 3.35921 -0.256616 0
M  V30 3588 O 323.699 3.96194 0.662798 0
M  V30 3589 N 321.905 2.90204 -0.151751 0
M  V30 3590 H 321.452 2.41336 -0.90081 0
M  V30 3591 H 321.41 3.06492 0.700699 0
M  V30 3592 N 325.182 1.32811 0.848464 0
M  V30 3593 C 326.593 1.21315 1.41914 0
M  V30 3594 C 326.944 -0.171847 1.95446 0
M  V30 3595 O 326.069 -1.07093 1.88043 0
M  V30 3596 C 326.664 2.19631 2.57968 0
M  V30 3597 C 325.223 2.12003 3.11017 0
M  V30 3598 C 324.37 2.07651 1.83783 0
M  V30 3599 H 327.321 1.44549 0.655071 0
M  V30 3600 H 327.342 1.79845 3.35315 0
M  V30 3601 H 326.854 3.20423 2.18976 0
M  V30 3602 H 324.955 1.14481 3.54577 0
M  V30 3603 H 325.068 3.02111 3.71841 0
M  V30 3604 H 323.432 1.52983 2.03638 0
M  V30 3605 H 324.215 3.10235 1.47 0
M  V30 3606 N 326.66 -1.06551 1.16123 0
M  V30 3607 C 327.89 -1.8274 0.963838 0
M  V30 3608 C 328.298 -1.82712 -0.491228 0
M  V30 3609 O 327.641 -1.24294 -1.35265 0
M  V30 3610 C 327.703 -3.3065 1.41106 0
M  V30 3611 C 327.367 -3.54384 2.88549 0
M  V30 3612 C 328.364 -3.4765 3.86569 0
M  V30 3613 C 326.049 -3.81789 3.26408 0
M  V30 3614 C 328.043 -3.67982 5.2045 0
M  V30 3615 C 325.73 -4.01772 4.60459 0
M  V30 3616 C 326.728 -3.94866 5.57288 0
M  V30 3617 O 326.416 -4.14306 6.88916 0
M  V30 3618 H 326.148 -0.583136 0.341948 0
M  V30 3619 H 328.702 -1.35351 1.54497 0
M  V30 3620 H 326.932 -3.78887 0.773394 0
M  V30 3621 H 328.621 -3.88324 1.1815 0
M  V30 3622 H 329.387 -3.2647 3.58667 0
M  V30 3623 H 325.266 -3.86276 2.51619 0
M  V30 3624 H 328.81 -3.62507 5.96015 0
M  V30 3625 H 324.707 -4.2244 4.88072 0
M  V30 3626 H 325.475 -4.31609 6.95454 0
M  V30 3627 N 328.138 -0.959301 -1.25041 0
M  V30 3628 C 329.088 -0.453888 -2.23436 0
M  V30 3629 C 330.072 0.459461 -1.542 0
M  V30 3630 O 331.264 0.291752 -1.74579 0
M  V30 3631 C 328.393 0.262667 -3.42294 0
M  V30 3632 C 327.479 -0.669022 -4.1879 0
M  V30 3633 N 327.87 -1.80267 -4.72586 0
M  V30 3634 C 326.168 -0.47814 -4.4343 0
M  V30 3635 C 326.869 -2.38475 -5.3057 0
M  V30 3636 N 325.845 -1.67078 -5.17287 0
M  V30 3637 H 329.647 -1.319 -2.6264 0
M  V30 3638 H 327.161 -0.817358 -1.40332 0
M  V30 3639 H 329.158 0.641911 -4.11929 0
M  V30 3640 H 327.818 1.12432 -3.04613 0
M  V30 3641 H 328.829 -2.18442 -4.69578 0
M  V30 3642 H 325.506 0.340249 -4.16111 0
M  V30 3643 H 326.896 -3.34094 -5.8295 0
M  V30 3644 N 329.616 1.39756 -0.72842 0
M  V30 3645 C 330.564 2.32485 -0.0731849 0
M  V30 3646 C 331.558 1.52717 0.733063 0
M  V30 3647 O 332.764 1.68428 0.634988 0
M  V30 3648 H 329.139 0.751984 -0.00486469 0
M  V30 3649 H 331.11 2.85382 -0.871761 0
M  V30 3650 C 329.859 3.37773 0.824908 0
M  V30 3651 H 329.182 3.99227 0.213915 0
M  V30 3652 H 330.622 4.05121 1.25111 0
M  V30 3653 C 329.081 2.74287 1.95622 0
M  V30 3654 O 329.611 2.61618 3.04826 0
M  V30 3655 N 327.817 2.32475 1.74367 0
M  V30 3656 H 327.364 2.4298 0.855494 0
M  V30 3657 H 327.322 1.90337 2.50238 0
M  V30 3658 N 331.094 0.475555 1.50254 0
M  V30 3659 C 332.026 -0.352649 2.26471 0
M  V30 3660 C 333.039 -0.953165 1.3198 0
M  V30 3661 O 334.228 -0.840815 1.57457 0
M  V30 3662 C 331.328 -1.50902 3.0345 0
M  V30 3663 C 330.501 -1.02047 4.25329 0
M  V30 3664 C 329.56 -2.05142 4.84565 0
M  V30 3665 O 328.586 -1.63023 5.45355 0
M  V30 3666 N 329.788 -3.37987 4.71959 0
M  V30 3667 H 332.553 0.300767 2.98187 0
M  V30 3668 H 330.114 0.306598 1.5897 0
M  V30 3669 H 332.106 -2.19572 3.39956 0
M  V30 3670 H 330.676 -2.06705 2.34504 0
M  V30 3671 H 329.896 -0.159507 3.93877 0
M  V30 3672 H 331.184 -0.672061 5.04342 0
M  V30 3673 H 330.582 -3.74913 4.23623 0
M  V30 3674 H 329.139 -4.02443 5.12721 0
M  V30 3675 N 332.573 -1.56217 0.208337 0
M  V30 3676 C 333.822 -1.97124 -0.427204 0
M  V30 3677 C 334.135 -1.09859 -1.61835 0
M  V30 3678 O 335.341 -1.40606 -2.32255 0
M  V30 3679 C 333.797 -3.50633 -0.811442 0
M  V30 3680 C 333.405 -4.46582 0.35615 0
M  V30 3681 C 335.149 -4.00282 -1.41332 0
M  V30 3682 C 333.056 -5.91379 -0.0497852 0
M  V30 3683 H 331.986 -0.736086 -0.163381 0
M  V30 3684 H 334.637 -1.8099 0.302456 0
M  V30 3685 H 333.019 -3.62319 -1.59815 0
M  V30 3686 H 334.193 -4.46636 1.1337 0
M  V30 3687 H 332.508 -4.07202 0.870396 0
M  V30 3688 H 335.105 -5.0595 -1.72972 0
M  V30 3689 H 335.448 -3.45359 -2.32449 0
M  V30 3690 H 335.981 -3.91764 -0.690323 0
M  V30 3691 H 332.72 -6.50255 0.827529 0
M  V30 3692 H 332.24 -5.94549 -0.791926 0
M  V30 3693 H 333.919 -6.45209 -0.481042 0
M  V30 3694 N 334.051 0.0651679 -1.57465 0
M  V30 3695 C 335.001 1.0838 -2.00594 0
M  V30 3696 C 335.985 1.34106 -0.889071 0
M  V30 3697 O 337.177 1.34295 -1.15299 0
M  V30 3698 C 334.306 2.39565 -2.45894 0
M  V30 3699 C 333.392 2.17085 -3.64328 0
M  V30 3700 N 333.783 1.64553 -4.78285 0
M  V30 3701 C 332.081 2.4753 -3.71006 0
M  V30 3702 C 332.782 1.57042 -5.60101 0
M  V30 3703 N 331.758 2.03328 -5.04141 0
M  V30 3704 H 335.56 0.671062 -2.86136 0
M  V30 3705 H 333.074 0.27213 -1.60104 0
M  V30 3706 H 335.071 3.13308 -2.75034 0
M  V30 3707 H 333.731 2.81549 -1.61741 0
M  V30 3708 H 334.742 1.33323 -5.00445 0
M  V30 3709 H 331.419 2.92835 -2.9758 0
M  V30 3710 H 332.809 1.17223 -6.61595 0
M  V30 3711 N 335.529 1.53961 0.336706 0
M  V30 3712 C 336.492 1.81724 1.39675 0
M  V30 3713 C 337.492 0.688532 1.45313 0
M  V30 3714 O 338.682 0.956829 1.45569 0
M  V30 3715 C 335.814 1.96543 2.78538 0
M  V30 3716 H 337.007 2.76424 1.16318 0
M  V30 3717 H 334.56 1.45478 0.571474 0
M  V30 3718 H 335.295 1.0401 3.07168 0
M  V30 3719 H 335.08 2.78665 2.75841 0
M  V30 3720 H 336.57 2.19516 3.5525 0
M  V30 3721 N 337.007 -0.598083 1.45811 0
M  V30 3722 C 337.97 -1.69018 1.54808 0
M  V30 3723 C 338.97 -1.55037 0.426652 0
M  V30 3724 O 340.16 -1.59932 0.690456 0
M  V30 3725 C 337.292 -3.0835 1.45371 0
M  V30 3726 H 338.485 -1.62403 2.52121 0
M  V30 3727 H 336.038 -0.814626 1.33392 0
M  V30 3728 H 336.773 -3.20534 0.492793 0
M  V30 3729 H 336.558 -3.19907 2.26721 0
M  V30 3730 H 338.048 -3.8788 1.54721 0
M  V30 3731 N 338.485 -1.33259 -0.841409 0
M  V30 3732 C 339.762 -1.15174 -1.58096 0
M  V30 3733 C 340.142 0.282858 -2.09196 0
M  V30 3734 O 339.49 1.28151 -1.89181 0
M  V30 3735 C 339.7 -2.1907 -2.71679 0
M  V30 3736 C 341.048 -2.53093 -3.40924 0
M  V30 3737 O 342.072 -2.17717 -2.81918 0
M  V30 3738 O 340.931 -3.1379 -4.47435 0
M  V30 3739 H 338.025 -0.445303 -0.696875 0
M  V30 3740 H 340.571 -1.44833 -0.884385 0
M  V30 3741 H 339.343 -3.15443 -2.31541 0
M  V30 3742 H 338.966 -1.90481 -3.49002 0
M  V30 3743 N 339.963 1.05934 -1.16686 0
M  V30 3744 C 341.209 1.79065 -0.95203 0
M  V30 3745 C 341.542 1.87147 0.518629 0
M  V30 3746 O 340.817 1.36574 1.38484 0
M  V30 3747 C 341.1 3.23359 -1.58464 0
M  V30 3748 C 340.953 3.23336 -3.12689 0
M  V30 3749 C 342.272 4.21004 -1.28232 0
M  V30 3750 H 339.391 0.65005 -0.34728 0
M  V30 3751 H 342.033 1.23868 -1.44072 0
M  V30 3752 H 340.183 3.70493 -1.16908 0
M  V30 3753 H 341.855 2.84336 -3.6325 0
M  V30 3754 H 340.098 2.61886 -3.4583 0
M  V30 3755 H 340.769 4.25144 -3.52075 0
M  V30 3756 H 343.245 3.8233 -1.64203 0
M  V30 3757 H 342.121 5.20225 -1.75092 0
M  V30 3758 H 342.382 4.41639 -0.201791 0
M  V30 3759 N 341.441 0.965919 1.2453 0
M  V30 3760 C 342.669 0.644385 1.96609 0
M  V30 3761 C 343.084 -0.785823 1.71669 0
M  V30 3762 O 342.441 -1.52703 0.999399 0
M  V30 3763 C 342.492 0.907375 3.49927 0
M  V30 3764 O 342.213 2.28136 3.74013 0
M  V30 3765 C 343.714 0.599784 4.39224 0
M  V30 3766 H 340.934 0.240588 0.626385 0
M  V30 3767 H 343.478 1.29337 1.58405 0
M  V30 3768 H 341.633 0.304631 3.862 0
M  V30 3769 H 342.047 2.36002 4.68405 0
M  V30 3770 H 343.521 0.834263 5.45659 0
M  V30 3771 H 343.998 -0.465921 4.36722 0
M  V30 3772 H 344.604 1.18235 4.08535 0
M  V30 3773 N 342.919 -1.39368 0.735821 0
M  V30 3774 C 343.851 -2.2913 0.0567723 0
M  V30 3775 C 344.864 -1.46859 -0.702589 0
M  V30 3776 O 346.053 -1.69925 -0.546616 0
M  V30 3777 C 343.153 -3.25492 -0.943823 0
M  V30 3778 C 342.326 -4.36709 -0.24581 0
M  V30 3779 C 341.385 -5.13376 -1.15463 0
M  V30 3780 O 340.411 -5.65683 -0.631803 0
M  V30 3781 N 341.613 -5.24656 -2.48427 0
M  V30 3782 H 344.378 -2.88047 0.827582 0
M  V30 3783 H 341.939 -1.50957 0.585112 0
M  V30 3784 H 343.931 -3.73657 -1.55443 0
M  V30 3785 H 342.501 -2.676 -1.61583 0
M  V30 3786 H 341.721 -3.9041 0.545286 0
M  V30 3787 H 343.009 -5.08244 0.237891 0
M  V30 3788 H 342.407 -4.83679 -2.93379 0
M  V30 3789 H 340.964 -5.76258 -3.04582 0
M  V30 3790 N 344.397 -0.483516 -1.5 0
M  V30 3791 C 345.625 0.0644831 -2.06799 0
M  V30 3792 C 346.04 1.32399 -1.34596 0
M  V30 3793 O 345.397 1.77626 -0.418946 0
M  V30 3794 C 345.448 0.339927 -3.59898 0
M  V30 3795 O 345.169 -0.869635 -4.29382 0
M  V30 3796 C 346.67 0.933515 -4.33359 0
M  V30 3797 H 343.89 -0.0126333 -0.670881 0
M  V30 3798 H 346.434 -0.675864 -1.93009 0
M  V30 3799 H 344.589 1.03022 -3.7345 0
M  V30 3800 H 345.003 -0.62179 -5.20801 0
M  V30 3801 H 346.477 1.07593 -5.41413 0
M  V30 3802 H 346.954 1.92685 -3.94676 0
M  V30 3803 H 347.56 0.281221 -4.24369 0
M  V30 3804 N 345.875 1.56104 -0.216619 0
M  V30 3805 C 347.121 1.98466 0.417033 0
M  V30 3806 C 347.454 1.10403 1.59765 0
M  V30 3807 O 346.729 0.160632 1.93836 0
M  V30 3808 C 347.012 3.49769 0.85637 0
M  V30 3809 C 346.865 4.48606 -0.327546 0
M  V30 3810 C 348.184 4.05339 1.7143 0
M  V30 3811 H 345.303 0.721551 0.150112 0
M  V30 3812 H 347.945 1.87423 -0.311864 0
M  V30 3813 H 346.095 3.5931 1.47745 0
M  V30 3814 H 347.767 4.5108 -0.965618 0
M  V30 3815 H 346.01 4.22682 -0.975805 0
M  V30 3816 H 346.681 5.51995 0.0227149 0
M  V30 3817 H 349.157 3.98712 1.19031 0
M  V30 3818 H 348.033 5.11533 1.99061 0
M  V30 3819 H 348.294 3.51918 2.67593 0
M  V30 3820 N 347.353 -0.0568162 1.57498 0
M  V30 3821 C 348.303 -1.07315 2.01166 0
M  V30 3822 C 349.287 -1.33632 0.896171 0
M  V30 3823 O 350.479 -1.33682 1.16009 0
M  V30 3824 C 347.608 -2.38257 2.47161 0
M  V30 3825 C 346.694 -2.1515 3.65474 0
M  V30 3826 N 347.085 -1.62014 4.7915 0
M  V30 3827 C 345.383 -2.45559 3.72313 0
M  V30 3828 C 346.084 -1.54069 5.60926 0
M  V30 3829 N 345.06 -2.00652 5.05213 0
M  V30 3830 H 348.862 -0.655878 2.86488 0
M  V30 3831 H 346.376 -0.263635 1.60246 0
M  V30 3832 H 348.373 -3.11845 2.76691 0
M  V30 3833 H 347.033 -2.80687 1.63232 0
M  V30 3834 H 348.044 -1.30667 5.01145 0
M  V30 3835 H 344.721 -2.91253 2.99129 0
M  V30 3836 H 346.111 -1.13712 6.62208 0
M  V30 3837 N 348.832 -1.54138 -0.328536 0
M  V30 3838 C 350.072 -1.73827 -1.07534 0
M  V30 3839 C 350.436 -0.498777 -1.85408 0
M  V30 3840 O 351.637 -0.572937 -2.62623 0
M  V30 3841 C 349.908 -2.97573 -1.97952 0
M  V30 3842 S 351.467 -3.38143 -2.79652 0
M  V30 3843 H 348.285 -0.611287 -0.36311 0
M  V30 3844 H 350.887 -1.92306 -0.351931 0
M  V30 3845 H 349.591 -3.85939 -1.39569 0
M  V30 3846 H 349.122 -2.81603 -2.74706 0
M  V30 3847 H 351.137 -2.93052 -4.00418 0
M  V30 3848 N 350.31 0.590341 -1.46126 0
M  V30 3849 C 351.557 1.34882 -1.5104 0
M  V30 3850 C 351.885 1.93849 -0.159021 0
M  V30 3851 O 351.14 1.76544 0.844436 0
M  V30 3852 C 351.439 2.5032 -2.55097 0
M  V30 3853 C 351.105 2.09394 -3.99331 0
M  V30 3854 C 349.767 1.97947 -4.38601 0
M  V30 3855 C 352.119 1.77712 -4.89967 0
M  V30 3856 C 349.447 1.53065 -5.66381 0
M  V30 3857 C 351.799 1.34312 -6.18177 0
M  V30 3858 C 350.463 1.21436 -6.56361 0
M  V30 3859 H 349.733 0.493568 -0.552695 0
M  V30 3860 H 352.38 0.665539 -1.79563 0
M  V30 3861 H 350.685 3.24062 -2.20207 0
M  V30 3862 H 352.382 3.08541 -2.56132 0
M  V30 3863 H 348.972 2.19235 -3.68285 0
M  V30 3864 H 353.156 1.85445 -4.60352 0
M  V30 3865 H 348.412 1.41733 -5.94745 0
M  V30 3866 H 352.586 1.08849 -6.87841 0
M  V30 3867 H 350.213 0.864345 -7.5527 0
M  V30 3868 N 351.788 1.33704 0.83433 0
M  V30 3869 C 352.718 1.26967 1.95963 0
M  V30 3870 C 353.699 0.149337 1.69443 0
M  V30 3871 O 354.884 0.339852 1.91203 0
M  V30 3872 C 352.014 1.01275 3.32206 0
M  V30 3873 C 350.968 2.09652 3.73136 0
M  V30 3874 C 350.294 1.69166 5.07235 0
M  V30 3875 C 351.594 3.51372 3.86439 0
M  V30 3876 H 353.288 2.2112 2.01857 0
M  V30 3877 H 350.834 1.06447 0.969793 0
M  V30 3878 H 352.787 0.952106 4.10503 0
M  V30 3879 H 351.511 0.0356203 3.26581 0
M  V30 3880 H 350.17 2.14766 2.97104 0
M  V30 3881 H 349.818 0.701437 4.98085 0
M  V30 3882 H 349.518 2.41694 5.35591 0
M  V30 3883 H 351.042 1.64576 5.88003 0
M  V30 3884 H 352.456 3.48734 4.55036 0
M  V30 3885 H 350.853 4.22425 4.26236 0
M  V30 3886 H 351.923 3.89546 2.88759 0
M  V30 3887 N 353.266 -1.05314 1.17247 0
M  V30 3888 C 354.196 -2.1498 0.911362 0
M  V30 3889 C 355.177 -1.69471 -0.146169 0
M  V30 3890 O 356.362 -1.942 0.003812 0
M  V30 3891 C 353.492 -3.4472 0.422528 0
M  V30 3892 C 352.446 -4.03789 1.4191 0
M  V30 3893 C 351.772 -5.28858 0.788274 0
M  V30 3894 C 353.072 -4.41418 2.7919 0
M  V30 3895 H 354.766 -2.3708 1.82848 0
M  V30 3896 H 352.312 -1.13938 0.880569 0
M  V30 3897 H 354.265 -4.20787 0.227289 0
M  V30 3898 H 352.989 -3.22269 -0.530123 0
M  V30 3899 H 351.648 -3.2979 1.60106 0
M  V30 3900 H 351.296 -5.02709 -0.171173 0
M  V30 3901 H 350.996 -5.69338 1.45353 0
M  V30 3902 H 352.52 -6.07612 0.603282 0
M  V30 3903 H 353.934 -5.08524 2.64719 0
M  V30 3904 H 352.331 -4.92913 3.42282 0
M  V30 3905 H 353.401 -3.51819 3.33693 0
M  V30 3906 N 354.744 -0.972509 -1.24016 0
M  V30 3907 C 356.16 -0.679827 -1.44397 0
M  V30 3908 C 356.36 0.756716 -1.86751 0
M  V30 3909 O 355.416 1.53007 -2.00861 0
M  V30 3910 C 356.729 -1.66803 -2.50195 0
M  V30 3911 C 358.277 -1.68119 -2.64017 0
M  V30 3912 C 358.752 -2.65748 -3.73017 0
M  V30 3913 N 360.243 -2.64219 -3.8045 0
M  V30 3914 C 360.978 -3.36433 -4.64328 0
M  V30 3915 N 360.474 -4.1818 -5.52356 0
M  V30 3916 N 362.267 -3.25235 -4.58453 0
M  V30 3917 H 354.418 -1.90059 -0.948228 0
M  V30 3918 H 356.681 -0.818527 -0.478245 0
M  V30 3919 H 356.387 -2.69498 -2.25973 0
M  V30 3920 H 356.261 -1.4446 -3.48441 0
M  V30 3921 H 358.648 -0.661319 -2.87594 0
M  V30 3922 H 358.729 -1.94525 -1.66113 0
M  V30 3923 H 358.373 -3.67872 -3.50189 0
M  V30 3924 H 358.303 -2.36619 -4.70446 0
M  V30 3925 H 360.794 -2.04887 -3.17537 0
M  V30 3926 H 361.107 -4.70157 -6.13329 0
M  V30 3927 H 359.452 -4.22273 -5.52006 0
M  V30 3928 H 362.643 -2.60829 -3.88698 0
M  V30 3929 H 362.816 -3.81776 -5.23594 0
M  V30 3930 N 356.222 1.38976 -0.743202 0
M  V30 3931 C 357.45 2.04636 -0.30525 0
M  V30 3932 C 357.865 1.56044 1.06281 0
M  V30 3933 O 357.222 0.728921 1.67311 0
M  V30 3934 C 357.273 3.60193 -0.307177 0
M  V30 3935 O 356.994 4.06998 -1.62124 0
M  V30 3936 C 358.495 4.4306 0.145928 0
M  V30 3937 H 355.715 0.65788 -0.132041 0
M  V30 3938 H 358.259 1.77866 -1.00915 0
M  V30 3939 H 356.414 3.85835 0.347898 0
M  V30 3940 H 356.828 5.01371 -1.54036 0
M  V30 3941 H 358.302 5.51921 0.0934183 0
M  V30 3942 H 358.779 4.22706 1.19231 0
M  V30 3943 H 359.385 4.22584 -0.479886 0
M  V30 3944 N 357.7 0.491464 1.49741 0
M  V30 3945 C 358.948 -0.0563141 2.02022 0
M  V30 3946 C 359.269 -1.38363 1.37407 0
M  V30 3947 O 358.539 -1.88702 0.526166 0
M  V30 3948 H 357.119 -0.0238014 0.746621 0
M  V30 3949 H 359.781 0.646533 1.83864 0
M  V30 3950 H 358.877 -0.192967 3.11503 0
M  V30 3951 N 359.178 -1.55987 0.224894 0
M  V30 3952 C 360.111 -2.16413 -0.723929 0
M  V30 3953 C 361.089 -1.10952 -1.18863 0
M  V30 3954 O 362.273 -1.39225 -1.27077 0
M  V30 3955 C 359.4 -2.74711 -1.98121 0
M  V30 3956 C 358.446 -3.9303 -1.6562 0
M  V30 3957 S 359.279 -5.29817 -0.778058 0
M  V30 3958 C 360.435 -5.91555 -2.04483 0
M  V30 3959 H 360.668 -2.96555 -0.210347 0
M  V30 3960 H 358.201 -1.54397 0.00955457 0
M  V30 3961 H 360.159 -3.08938 -2.70311 0
M  V30 3962 H 358.82 -1.94555 -2.46591 0
M  V30 3963 H 358.013 -4.32334 -2.59043 0
M  V30 3964 H 357.615 -3.59966 -1.01491 0
M  V30 3965 H 359.907 -6.07732 -2.99446 0
M  V30 3966 H 360.85 -6.87498 -1.69563 0
M  V30 3967 H 361.258 -5.20419 -2.18688 0
M  V30 3968 N 360.656 0.0484629 -1.57525 0
M  V30 3969 C 361.902 0.744226 -1.88651 0
M  V30 3970 C 362.235 1.76029 -0.820212 0
M  V30 3971 O 361.51 1.93782 0.166985 0
M  V30 3972 C 361.793 1.43128 -3.30434 0
M  V30 3973 C 361.646 0.43005 -4.47739 0
M  V30 3974 C 362.965 2.37031 -3.70816 0
M  V30 3975 H 360.084 0.269089 -0.68612 0
M  V30 3976 H 362.726 0.00713532 -1.89999 0
M  V30 3977 H 360.876 2.05956 -3.29415 0
M  V30 3978 H 362.548 -0.194816 -4.60888 0
M  V30 3979 H 360.791 -0.252522 -4.33064 0
M  V30 3980 H 361.462 0.948874 -5.43783 0
M  V30 3981 H 363.938 1.84263 -3.73077 0
M  V30 3982 H 362.814 2.82094 -4.70865 0
M  V30 3983 H 363.075 3.22864 -3.02012 0
M  V30 3984 N 362.134 1.5431 0.320358 0
M  V30 3985 C 363.084 1.803 1.39556 0
M  V30 3986 C 364.068 0.659166 1.46778 0
M  V30 3987 O 365.26 0.91926 1.51257 0
M  V30 3988 C 362.389 2.03665 2.76361 0
M  V30 3989 C 361.475 3.24178 2.73439 0
M  V30 3990 N 361.866 4.4516 2.40137 0
M  V30 3991 C 360.164 3.25816 3.04565 0
M  V30 3992 C 360.865 5.27109 2.4603 0
M  V30 3993 N 359.841 4.64368 2.82601 0
M  V30 3994 H 363.643 2.71416 1.12742 0
M  V30 3995 H 361.157 1.53548 0.528856 0
M  V30 3996 H 363.154 2.20425 3.53862 0
M  V30 3997 H 361.814 1.13805 3.04103 0
M  V30 3998 H 362.825 4.72104 2.12927 0
M  V30 3999 H 359.502 2.46001 3.37328 0
M  V30 4000 H 360.892 6.33728 2.23246 0
M  V30 4001 N 363.613 -0.582584 1.46437 0
M  V30 4002 C 364.853 -1.35184 1.53312 0
M  V30 4003 C 365.217 -1.9115 0.180508 0
M  V30 4004 O 366.418 -2.68514 0.124017 0
M  V30 4005 C 364.689 -2.45089 2.60127 0
M  V30 4006 S 366.248 -3.32439 2.86408 0
M  V30 4007 H 363.066 -0.460559 0.54167 0
M  V30 4008 H 365.668 -0.669709 1.83671 0
M  V30 4009 H 364.372 -2.02366 3.57038 0
M  V30 4010 H 363.903 -3.18074 2.315 0
M  V30 4011 H 365.918 -4.43924 2.21688 0
M  V30 4012 N 365.091 -1.34144 -0.827227 0
M  V30 4013 C 366.021 -1.28005 -1.95287 0
M  V30 4014 C 367.002 -0.158321 -1.69362 0
M  V30 4015 O 368.187 -0.349987 -1.9102 0
M  V30 4016 C 365.317 -1.03036 -3.31664 0
M  V30 4017 C 364.271 -2.11628 -3.72019 0
M  V30 4018 C 363.597 -1.71854 -5.0633 0
M  V30 4019 C 364.897 -3.53417 -3.8457 0
M  V30 4020 H 366.591 -2.22187 -2.00682 0
M  V30 4021 H 364.137 -1.0696 -0.964135 0
M  V30 4022 H 366.09 -0.973863 -4.09993 0
M  V30 4023 H 364.814 -0.0529391 -3.26557 0
M  V30 4024 H 363.473 -2.16339 -2.95961 0
M  V30 4025 H 363.121 -0.727841 -4.97706 0
M  V30 4026 H 362.821 -2.44531 -5.34302 0
M  V30 4027 H 364.345 -1.67692 -5.87122 0
M  V30 4028 H 365.759 -3.51142 -4.5318 0
M  V30 4029 H 364.156 -4.24679 -4.2399 0
M  V30 4030 H 365.226 -3.91072 -2.86689 0
M  V30 4031 N 366.569 1.04691 -1.17803 0
M  V30 4032 C 367.794 1.81984 -0.994813 0
M  V30 4033 C 368.219 1.82586 0.452112 0
M  V30 4034 O 367.577 1.23854 1.324 0
M  V30 4035 C 367.625 3.2575 -1.54659 0
M  V30 4036 O 366.729 4.05267 -0.763728 0
M  V30 4037 H 366.07 0.562483 -0.352857 0
M  V30 4038 H 368.6 1.3189 -1.56417 0
M  V30 4039 H 368.61 3.76541 -1.57102 0
M  V30 4040 H 367.285 3.24627 -2.59981 0
M  V30 4041 H 365.862 3.63972 -0.811108 0
M  V30 4042 N 368.047 0.979072 1.23499 0
M  V30 4043 C 368.957 0.526431 2.28617 0
M  V30 4044 C 369.973 -0.418126 1.68901 0
M  V30 4045 O 371.149 -0.288372 1.99325 0
M  V30 4046 C 368.214 -0.165235 3.46306 0
M  V30 4047 C 367.275 0.82056 4.21385 0
M  V30 4048 C 366.508 0.161807 5.33455 0
M  V30 4049 O 366.731 -1.04742 5.60701 0
M  V30 4050 O 365.665 0.859708 5.95729 0
M  V30 4051 H 369.491 1.4006 2.69475 0
M  V30 4052 H 367.076 0.746643 1.29405 0
M  V30 4053 H 368.958 -0.553287 4.17752 0
M  V30 4054 H 367.633 -1.01419 3.07402 0
M  V30 4055 H 366.54 1.25929 3.52268 0
M  V30 4056 H 367.873 1.63828 4.64135 0
M  V30 4057 N 369.525 -1.3858 0.750561 0
M  V30 4058 C 370.774 -1.99424 0.302172 0
M  V30 4059 C 371.087 -1.60254 -1.12152 0
M  V30 4060 O 372.293 -2.14046 -1.67023 0
M  V30 4061 C 370.749 -3.56558 0.489307 0
M  V30 4062 C 370.357 -4.04682 1.92189 0
M  V30 4063 C 372.101 -4.24374 0.103478 0
M  V30 4064 C 370.008 -5.54446 2.05775 0
M  V30 4065 H 368.938 -0.746046 0.10923 0
M  V30 4066 H 371.589 -1.58383 0.92667 0
M  V30 4067 H 369.971 -3.95472 -0.204329 0
M  V30 4068 H 371.145 -3.77065 2.64875 0
M  V30 4069 H 369.46 -3.4958 2.26236 0
M  V30 4070 H 372.057 -5.34384 0.183787 0
M  V30 4071 H 372.4 -4.05468 -0.943481 0
M  V30 4072 H 372.933 -3.90688 0.748854 0
M  V30 4073 H 369.672 -5.78252 3.08714 0
M  V30 4074 H 369.192 -5.83816 1.37546 0
M  V30 4075 H 370.871 -6.20099 1.84626 0
M  V30 4076 N 371.003 -0.499398 -1.49478 0
M  V30 4077 C 371.913 0.284489 -2.32869 0
M  V30 4078 C 372.929 0.968885 -1.44529 0
M  V30 4079 O 374.105 0.95062 -1.77553 0
M  V30 4080 C 371.17 1.33594 -3.19928 0
M  V30 4081 C 370.231 0.665149 -4.24116 0
M  V30 4082 C 369.464 1.6665 -5.07014 0
M  V30 4083 O 369.687 2.89618 -4.91404 0
M  V30 4084 O 368.621 1.22271 -5.8935 0
M  V30 4085 H 372.447 -0.39802 -3.01081 0
M  V30 4086 H 370.032 -0.260758 -1.47107 0
M  V30 4087 H 371.914 1.94431 -3.73864 0
M  V30 4088 H 370.589 2.0014 -2.54412 0
M  V30 4089 H 369.496 0.0170769 -3.74096 0
M  V30 4090 H 370.829 0.0421555 -4.92182 0
M  V30 4091 N 372.481 1.55866 -0.233164 0
M  V30 4092 C 373.411 2.23783 0.666599 0
M  V30 4093 C 374.392 1.21343 1.19205 0
M  V30 4094 O 375.577 1.4996 1.23392 0
M  V30 4095 C 372.707 2.92671 1.86978 0
M  V30 4096 C 371.661 4.01682 1.47768 0
M  V30 4097 C 370.987 4.57926 2.76058 0
M  V30 4098 C 372.287 5.18126 0.658993 0
M  V30 4099 H 373.981 2.99232 0.100306 0
M  V30 4100 H 371.527 1.43924 0.046804 0
M  V30 4101 H 373.48 3.3888 2.50476 0
M  V30 4102 H 372.204 2.14688 2.46123 0
M  V30 4103 H 370.863 3.56222 0.866106 0
M  V30 4104 H 370.511 3.76659 3.33372 0
M  V30 4105 H 370.211 5.31505 2.50552 0
M  V30 4106 H 371.735 5.06859 3.40479 0
M  V30 4107 H 373.149 5.60644 1.19795 0
M  V30 4108 H 371.546 5.98009 0.500552 0
M  V30 4109 H 372.616 4.83763 -0.331856 0
M  V30 4110 N 373.959 -0.0401083 1.57549 0
M  V30 4111 C 374.889 -1.04384 2.08869 0
M  V30 4112 C 375.87 -1.38407 0.988817 0
M  V30 4113 O 377.055 -1.47483 1.26342 0
M  V30 4114 C 374.185 -2.34808 2.55895 0
M  V30 4115 C 373.139 -2.15057 3.70047 0
M  V30 4116 C 372.465 -3.51145 4.03239 0
M  V30 4117 C 373.765 -1.54576 4.98902 0
M  V30 4118 H 375.459 -0.616666 2.92981 0
M  V30 4119 H 373.005 -0.295184 1.40942 0
M  V30 4120 H 374.958 -3.05346 2.90417 0
M  V30 4121 H 373.682 -2.79565 1.68853 0
M  V30 4122 H 372.341 -1.46954 3.35857 0
M  V30 4123 H 371.989 -3.93529 3.13279 0
M  V30 4124 H 371.689 -3.38758 4.80122 0
M  V30 4125 H 373.213 -4.23062 4.40285 0
M  V30 4126 H 374.627 -2.15017 5.31451 0
M  V30 4127 H 373.024 -1.52796 5.80322 0
M  V30 4128 H 374.094 -0.51039 4.82206 0
M  V30 4129 N 375.437 -1.54477 -0.31217 0
M  V30 4130 C 376.4 -1.83923 -1.36766 0
M  V30 4131 C 377.4 -0.711563 -1.44199 0
M  V30 4132 O 378.59 -0.979866 -1.44029 0
M  V30 4133 C 375.722 -2.0095 -2.75376 0
M  V30 4134 H 376.915 -2.78239 -1.11906 0
M  V30 4135 H 374.468 -1.46369 -0.548257 0
M  V30 4136 H 375.203 -1.08883 -3.05475 0
M  V30 4137 H 374.988 -2.83018 -2.71373 0
M  V30 4138 H 376.478 -2.2514 -3.51713 0
M  V30 4139 N 376.915 0.57481 -1.46744 0
M  V30 4140 C 378.164 1.32898 -1.51727 0
M  V30 4141 C 378.477 1.948 -0.176692 0
M  V30 4142 O 379.683 2.71299 -0.104385 0
M  V30 4143 C 378.139 2.40901 -2.67385 0
M  V30 4144 C 377.747 1.85266 -4.07898 0
M  V30 4145 C 379.491 3.17609 -2.81646 0
M  V30 4146 C 377.398 2.90945 -5.14883 0
M  V30 4147 H 376.328 0.499631 -0.564699 0
M  V30 4148 H 378.979 0.612536 -1.72975 0
M  V30 4149 H 377.361 3.15379 -2.39483 0
M  V30 4150 H 378.535 1.17278 -4.45626 0
M  V30 4151 H 376.85 1.21199 -3.98371 0
M  V30 4152 H 379.447 3.96493 -3.58744 0
M  V30 4153 H 379.79 3.70696 -1.89448 0
M  V30 4154 H 380.323 2.50239 -3.09233 0
M  V30 4155 H 377.062 2.42736 -6.089 0
M  V30 4156 H 376.582 3.57398 -4.81691 0
M  V30 4157 H 378.261 3.54755 -5.41071 0
M  V30 4158 N 378.394 1.34581 0.820102 0
M  V30 4159 C 379.643 1.26437 1.57151 0
M  V30 4160 C 379.956 -0.163111 1.94919 0
M  V30 4161 O 381.162 -0.366722 2.69012 0
M  V30 4162 C 379.618 2.21658 2.83541 0
M  V30 4163 C 379.226 3.69679 2.53065 0
M  V30 4164 C 380.97 2.22428 3.61561 0
M  V30 4165 C 378.877 4.56761 3.75664 0
M  V30 4166 H 377.807 0.469707 0.589823 0
M  V30 4167 H 380.458 1.59763 0.902656 0
M  V30 4168 H 378.84 1.81287 3.52067 0
M  V30 4169 H 380.014 4.18605 1.92631 0
M  V30 4170 H 378.329 3.71384 1.88316 0
M  V30 4171 H 380.926 2.8471 4.52597 0
M  V30 4172 H 381.269 1.22434 3.97889 0
M  V30 4173 H 381.802 2.61259 2.99981 0
M  V30 4174 H 378.541 5.57702 3.44454 0
M  V30 4175 H 378.061 4.12568 4.35371 0
M  V30 4176 H 379.74 4.71509 4.43044 0
M  V30 4177 N 379.872 -1.04064 1.18357 0
M  V30 4178 C 381.119 -1.77265 0.978947 0
M  V30 4179 C 381.447 -1.88189 -0.491428 0
M  V30 4180 O 380.702 -1.38653 -1.38108 0
M  V30 4181 C 381.001 -3.20634 1.57888 0
M  V30 4182 C 380.667 -3.29743 3.07539 0
M  V30 4183 C 379.329 -3.31937 3.48384 0
M  V30 4184 C 381.681 -3.29841 4.03552 0
M  V30 4185 C 379.009 -3.3187 4.83818 0
M  V30 4186 C 381.361 -3.31313 5.38901 0
M  V30 4187 C 380.025 -3.31799 5.79194 0
M  V30 4188 H 379.295 -0.648659 0.358222 0
M  V30 4189 H 381.942 -1.22225 1.47422 0
M  V30 4190 H 380.247 -3.78675 1.00561 0
M  V30 4191 H 381.944 -3.75917 1.39598 0
M  V30 4192 H 378.534 -3.28757 2.74986 0
M  V30 4193 H 382.718 -3.27337 3.73047 0
M  V30 4194 H 377.974 -3.30562 5.14333 0
M  V30 4195 H 382.148 -3.30338 6.13066 0
M  V30 4196 H 379.775 -3.315 6.84114 0
M  V30 4197 N 381.35 -0.985608 -1.22978 0
M  V30 4198 C 382.313 -0.535071 -2.22867 0
M  V30 4199 C 383.313 0.378123 -1.56291 0
M  V30 4200 O 384.503 0.171092 -1.73358 0
M  V30 4201 C 381.635 0.222702 -3.40172 0
M  V30 4202 H 382.828 -1.41835 -2.6424 0
M  V30 4203 H 380.381 -0.772042 -1.35901 0
M  V30 4204 H 381.116 1.12229 -3.04262 0
M  V30 4205 H 380.901 -0.43288 -3.89703 0
M  V30 4206 H 382.391 0.526335 -4.1427 0
M  V30 4207 N 382.828 1.3818 -0.7579 0
M  V30 4208 C 383.791 2.28764 -0.141286 0
M  V30 4209 C 384.791 1.47388 0.642907 0
M  V30 4210 O 385.981 1.67781 0.468536 0
M  V30 4211 C 383.113 3.31184 0.808069 0
M  V30 4212 H 384.306 2.848 -0.939633 0
M  V30 4213 H 381.859 1.47212 -0.525191 0
M  V30 4214 H 382.594 2.80247 1.63193 0
M  V30 4215 H 382.379 3.91314 0.248104 0
M  V30 4216 H 383.869 3.98909 1.23536 0
M  V30 4217 N 384.306 0.507319 1.49211 0
M  V30 4218 C 385.269 -0.256763 2.27757 0
M  V30 4219 C 386.269 -0.888287 1.34038 0
M  V30 4220 O 387.459 -0.751841 1.5714 0
M  V30 4221 C 384.591 -1.36905 3.12202 0
M  V30 4222 H 385.784 0.432557 2.96764 0
M  V30 4223 H 383.337 0.262488 1.5408 0
M  V30 4224 H 384.072 -2.09233 2.47775 0
M  V30 4225 H 383.857 -0.921599 3.81115 0
M  V30 4226 H 385.347 -1.9071 3.7151 0
M  V30 4227 N 385.784 -1.5574 0.241426 0
M  V30 4228 C 387.033 -1.97986 -0.385295 0
M  V30 4229 C 387.346 -1.13267 -1.59468 0
M  V30 4230 O 388.552 -1.45501 -2.2922 0
M  V30 4231 C 387.008 -3.52275 -0.736884 0
M  V30 4232 C 386.616 -4.45726 0.450796 0
M  V30 4233 C 388.36 -4.03189 -1.3281 0
M  V30 4234 C 386.267 -5.91352 0.0756662 0
M  V30 4235 H 385.197 -0.739386 -0.147731 0
M  V30 4236 H 387.848 -1.80308 0.340779 0
M  V30 4237 H 386.23 -3.65628 -1.52094 0
M  V30 4238 H 387.404 -4.44131 1.22819 0
M  V30 4239 H 385.719 -4.05264 0.956573 0
M  V30 4240 H 388.316 -5.09505 -1.62201 0
M  V30 4241 H 388.659 -3.50212 -2.25071 0
M  V30 4242 H 389.192 -3.93141 -0.607069 0
M  V30 4243 H 385.931 -6.48354 0.965272 0
M  V30 4244 H 385.451 -5.96095 -0.665635 0
M  V30 4245 H 387.13 -6.46084 -0.344075 0
M  V30 4246 N 387.262 0.0317525 -1.57568 0
M  V30 4247 C 388.212 1.04101 -2.02847 0
M  V30 4248 C 389.196 1.3219 -0.917317 0
M  V30 4249 O 390.388 1.31819 -1.18121 0
M  V30 4250 C 387.517 2.34295 -2.5092 0
M  V30 4251 C 386.603 2.09308 -3.68851 0
M  V30 4252 N 386.994 1.5437 -4.81667 0
M  V30 4253 C 385.292 2.39604 -3.76172 0
M  V30 4254 C 385.993 1.45126 -5.63306 0
M  V30 4255 N 384.969 1.92589 -5.08341 0
M  V30 4256 H 388.771 0.610217 -2.87495 0
M  V30 4257 H 386.285 0.238108 -1.60645 0
M  V30 4258 H 388.282 3.07404 -2.81617 0
M  V30 4259 H 386.942 2.78055 -1.67677 0
M  V30 4260 H 387.953 1.22678 -5.03161 0
M  V30 4261 H 384.63 2.86457 -3.03724 0
M  V30 4262 H 386.02 1.03163 -6.63933 0
M  V30 4263 N 388.74 1.54641 0.303973 0
M  V30 4264 C 390.017 1.64455 1.05896 0
M  V30 4265 C 390.397 0.490923 2.05312 0
M  V30 4266 O 389.745 -0.512685 2.22674 0
M  V30 4267 C 389.955 3.02331 1.74347 0
M  V30 4268 C 391.303 3.59045 2.26653 0
M  V30 4269 O 392.327 3.04764 1.84384 0
M  V30 4270 O 391.186 4.54081 3.04093 0
M  V30 4271 H 388.28 0.666729 0.489287 0
M  V30 4272 H 390.826 1.66986 0.302298 0
M  V30 4273 H 389.598 3.77734 1.02142 0
M  V30 4274 H 389.221 3.03565 2.56777 0
M  V30 4275 N 390.218 -0.567019 1.47046 0
M  V30 4276 C 391.448 -1.34831 1.56538 0
M  V30 4277 C 391.856 -1.8802 0.21101 0
M  V30 4278 O 391.199 -1.65152 -0.804387 0
M  V30 4279 C 391.261 -2.56139 2.52256 0
M  V30 4280 C 390.925 -2.24307 3.98165 0
M  V30 4281 C 391.922 -1.82192 4.86931 0
M  V30 4282 C 389.607 -2.35968 4.43423 0
M  V30 4283 C 391.601 -1.52153 6.18973 0
M  V30 4284 C 389.288 -2.05542 5.75496 0
M  V30 4285 C 390.286 -1.63701 6.63092 0
M  V30 4286 O 389.974 -1.33657 7.92711 0
M  V30 4287 H 389.706 -0.417683 0.531523 0
M  V30 4288 H 392.26 -0.694726 1.93294 0
M  V30 4289 H 390.49 -3.24356 2.10548 0
M  V30 4290 H 392.179 -3.18214 2.51982 0
M  V30 4291 H 392.945 -1.72684 4.53217 0
M  V30 4292 H 388.824 -2.67495 3.75456 0
M  V30 4293 H 392.368 -1.19421 6.87302 0
M  V30 4294 H 388.265 -2.14679 6.08755 0
M  V30 4295 H 389.033 -1.4737 8.05124 0
M  V30 4296 N 391.696 -1.35014 -0.812953 0
M  V30 4297 C 392.606 -1.2951 -1.95613 0
M  V30 4298 C 393.622 -0.20107 -1.72834 0
M  V30 4299 O 394.798 -0.42932 -1.96771 0
M  V30 4300 C 391.863 -1.06033 -3.30088 0
M  V30 4301 C 390.924 -2.24688 -3.65805 0
M  V30 4302 C 390.157 -2.02322 -4.93864 0
M  V30 4303 O 390.38 -0.986464 -5.61805 0
M  V30 4304 O 389.314 -2.89525 -5.27692 0
M  V30 4305 H 393.14 -2.25705 -2.03202 0
M  V30 4306 H 390.725 -1.15321 -0.949811 0
M  V30 4307 H 392.607 -0.94763 -4.10607 0
M  V30 4308 H 391.282 -0.128852 -3.23443 0
M  V30 4309 H 390.189 -2.41521 -2.85689 0
M  V30 4310 H 391.522 -3.16261 -3.77147 0
M  V30 4311 N 393.175 1.03435 -1.18907 0
M  V30 4312 C 394.125 2.09924 -0.889706 0
M  V30 4313 C 395.109 1.60261 0.143216 0
M  V30 4314 O 396.301 1.76892 -0.0617122 0
M  V30 4315 C 393.43 3.40669 -0.424168 0
M  V30 4316 C 392.516 3.97082 -1.48952 0
M  V30 4317 N 392.907 4.27227 -2.70759 0
M  V30 4318 C 391.205 4.25029 -1.35152 0
M  V30 4319 C 391.906 4.7246 -3.39347 0
M  V30 4320 N 390.882 4.7366 -2.66735 0
M  V30 4321 H 394.684 2.31116 -1.81555 0
M  V30 4322 H 392.198 1.21246 -1.08042 0
M  V30 4323 H 394.195 4.16461 -0.191176 0
M  V30 4324 H 392.855 3.20901 0.495263 0
M  V30 4325 H 393.866 4.16678 -3.0757 0
M  V30 4326 H 390.543 4.14554 -0.495126 0
M  V30 4327 H 391.933 5.04751 -4.43481 0
M  V30 4328 N 394.653 0.992116 1.22453 0
M  V30 4329 C 395.881 0.685944 1.95198 0
M  V30 4330 C 396.296 -0.749233 1.73297 0
M  V30 4331 O 395.653 -1.50549 1.03156 0
M  V30 4332 C 395.704 0.981395 3.47924 0
M  V30 4333 O 395.425 2.36018 3.6909 0
M  V30 4334 C 396.926 0.692815 4.37853 0
M  V30 4335 H 394.146 0.253821 0.621141 0
M  V30 4336 H 396.69 1.32668 1.55626 0
M  V30 4337 H 394.845 0.386481 3.85467 0
M  V30 4338 H 395.259 2.45884 4.63294 0
M  V30 4339 H 396.733 0.949818 5.43767 0
M  V30 4340 H 397.21 -0.373181 4.37612 0
M  V30 4341 H 397.816 1.26874 4.05935 0
M  V30 4342 N 396.131 -1.37776 0.765217 0
M  V30 4343 C 397.379 -1.99454 0.325943 0
M  V30 4344 C 397.7 -1.61049 -1.09947 0
M  V30 4345 O 396.97 -0.872821 -1.75381 0
M  V30 4346 H 395.55 -0.737697 0.117525 0
M  V30 4347 H 398.212 -1.68359 0.981895 0
M  V30 4348 H 397.308 -3.09547 0.398353 0
M  V30 4349 N 397.609 -0.515225 -1.4894 0
M  V30 4350 C 398.837 0.0206034 -2.0689 0
M  V30 4351 C 399.252 1.29514 -1.37374 0
M  V30 4352 O 398.609 1.76698 -0.456529 0
M  V30 4353 C 398.66 0.26351 -3.60538 0
M  V30 4354 O 398.381 -0.960517 -4.27441 0
M  V30 4355 C 399.882 0.841383 -4.35242 0
M  V30 4356 H 397.102 -0.0268608 -0.670462 0
M  V30 4357 H 399.646 -0.716651 -1.91532 0
M  V30 4358 H 397.801 0.950777 -3.75552 0
M  V30 4359 H 398.215 -0.73212 -5.19365 0
M  V30 4360 H 399.689 0.96085 -5.43573 0
M  V30 4361 H 400.166 1.8427 -3.98674 0
M  V30 4362 H 400.772 0.191143 -4.2487 0
M  V30 4363 N 399.087 1.5561 -0.249682 0
M  V30 4364 C 400.315 2.03411 0.378352 0
M  V30 4365 C 400.73 1.12886 1.51335 0
M  V30 4366 O 400.087 0.143833 1.81932 0
M  V30 4367 C 400.138 3.50537 0.88351 0
M  V30 4368 O 399.859 4.37614 -0.20626 0
M  V30 4369 C 401.36 4.14113 1.58195 0
M  V30 4370 H 398.58 0.664994 0.08958 0
M  V30 4371 H 401.124 2.01044 -0.374357 0
M  V30 4372 H 399.279 3.5343 1.58639 0
M  V30 4373 H 399.693 5.24199 0.177782 0
M  V30 4374 H 401.167 5.18741 1.8871 0
M  V30 4375 H 401.644 3.60767 2.50487 0
M  V30 4376 H 402.25 4.15151 0.923573 0
M  V30 4377 N 400.565 -0.0233959 1.57583 0
M  V30 4378 C 401.513 -1.04063 2.08023 0
M  V30 4379 C 402.507 -1.37084 0.995204 0
M  V30 4380 O 403.713 -1.35923 1.18004 0
M  V30 4381 H 400.088 -0.353144 0.663922 0
M  V30 4382 H 402.059 -0.589453 2.9252 0
M  V30 4383 C 400.808 -2.33123 2.57971 0
M  V30 4384 H 400.131 -2.08577 3.4108 0
M  V30 4385 H 401.571 -3.02632 2.96967 0
M  V30 4386 C 400.03 -3.02483 1.48342 0
M  V30 4387 O 400.56 -3.92541 0.852898 0
M  V30 4388 N 398.766 -2.63909 1.21658 0
M  V30 4389 H 398.313 -1.90758 1.73116 0
M  V30 4390 H 398.271 -3.10633 0.485218 0
M  V30 4391 N 402.043 -1.548 -0.295768 0
M  V30 4392 C 403.268 -1.78653 -1.05346 0
M  V30 4393 C 403.693 -0.546894 -1.79974 0
M  V30 4394 O 403.051 0.502763 -1.7419 0
M  V30 4395 C 403.099 -2.99679 -2.00561 0
M  V30 4396 O 402.203 -2.7317 -3.08953 0
M  V30 4397 H 401.544 -0.59116 -0.302367 0
M  V30 4398 H 404.074 -2.01895 -0.331598 0
M  V30 4399 H 404.084 -3.27793 -2.42932 0
M  V30 4400 H 402.759 -3.89562 -1.4565 0
M  V30 4401 H 401.336 -2.56089 -2.71059 0
M  V30 4402 N 403.521 0.559213 -1.47345 0
M  V30 4403 C 404.768 1.31648 -1.53867 0
M  V30 4404 C 405.096 1.93468 -0.200104 0
M  V30 4405 O 404.351 1.78295 0.806799 0
M  V30 4406 C 404.65 2.44853 -2.6035 0
M  V30 4407 C 404.316 2.00876 -4.03683 0
M  V30 4408 C 402.978 1.88599 -4.42701 0
M  V30 4409 C 405.33 1.67279 -4.93626 0
M  V30 4410 C 402.658 1.41017 -5.69501 0
M  V30 4411 C 405.01 1.21169 -6.20887 0
M  V30 4412 C 403.674 1.07487 -6.58789 0
M  V30 4413 H 402.944 0.481734 -0.56304 0
M  V30 4414 H 405.591 0.627301 -1.80934 0
M  V30 4415 H 403.896 3.19318 -2.27032 0
M  V30 4416 H 405.593 3.03039 -2.62619 0
M  V30 4417 H 402.183 2.11374 -3.72853 0
M  V30 4418 H 406.367 1.75638 -4.64182 0
M  V30 4419 H 401.623 1.29086 -5.97618 0
M  V30 4420 H 405.797 0.942345 -6.89995 0
M  V30 4421 H 403.424 0.703946 -7.56934 0
M  V30 4422 N 404.999 1.35443 0.805782 0
M  V30 4423 C 405.949 1.24972 1.90699 0
M  V30 4424 C 406.933 0.144806 1.60247 0
M  V30 4425 O 408.125 0.376102 1.72958 0
M  V30 4426 C 405.254 1.02475 3.27649 0
M  V30 4427 C 404.34 2.17361 3.64164 0
M  V30 4428 N 404.731 3.42591 3.72109 0
M  V30 4429 C 403.029 2.08765 3.94123 0
M  V30 4430 C 403.73 4.18144 4.04389 0
M  V30 4431 N 402.706 3.4691 4.18515 0
M  V30 4432 H 406.508 2.19852 1.95044 0
M  V30 4433 H 404.022 1.27928 1.00041 0
M  V30 4434 H 406.019 0.930617 4.06381 0
M  V30 4435 H 404.679 0.0848009 3.24589 0
M  V30 4436 H 405.69 3.76932 3.55166 0
M  V30 4437 H 402.367 1.22629 3.99084 0
M  V30 4438 H 403.757 5.26367 4.17597 0
M  V30 4439 N 406.477 -1.02803 1.19454 0
M  V30 4440 C 407.726 -1.7562 0.991996 0
M  V30 4441 C 408.039 -1.89672 -0.477901 0
M  V30 4442 O 409.245 -2.59468 -0.799287 0
M  V30 4443 C 407.701 -3.15812 1.72601 0
M  V30 4444 C 407.309 -3.0981 3.23607 0
M  V30 4445 C 409.053 -3.92918 1.60674 0
M  V30 4446 C 406.96 -4.44939 3.89594 0
M  V30 4447 H 405.89 -0.658352 0.367543 0
M  V30 4448 H 408.541 -1.15044 1.42959 0
M  V30 4449 H 406.923 -3.7686 1.21624 0
M  V30 4450 H 408.097 -2.58138 3.81709 0
M  V30 4451 H 406.412 -2.46201 3.35819 0
M  V30 4452 H 409.009 -4.9287 2.07323 0
M  V30 4453 H 409.352 -4.12502 0.561025 0
M  V30 4454 H 409.885 -3.38472 2.09001 0
M  V30 4455 H 406.624 -4.30559 4.94267 0
M  V30 4456 H 406.144 -4.96664 3.36281 0
M  V30 4457 H 407.823 -5.1382 3.93189 0
M  V30 4458 N 407.956 -0.998596 -1.21925 0
M  V30 4459 C 408.888 -0.511879 -2.23411 0
M  V30 4460 C 409.901 0.396094 -1.57908 0
M  V30 4461 O 411.09 0.197316 -1.77406 0
M  V30 4462 C 408.19 0.276802 -3.37768 0
M  V30 4463 C 407.363 -0.628687 -4.32858 0
M  V30 4464 C 406.422 0.109272 -5.26087 0
M  V30 4465 O 405.448 -0.507237 -5.66935 0
M  V30 4466 N 406.65 1.38983 -5.63617 0
M  V30 4467 H 409.415 -1.38457 -2.658 0
M  V30 4468 H 406.976 -0.873981 -1.36283 0
M  V30 4469 H 408.968 0.77928 -3.97126 0
M  V30 4470 H 407.538 1.05063 -2.94415 0
M  V30 4471 H 406.758 -1.31175 -3.71735 0
M  V30 4472 H 408.046 -1.24514 -4.93329 0
M  V30 4473 H 407.444 1.91194 -5.32411 0
M  V30 4474 H 406.001 1.83739 -6.25367 0
M  V30 4475 N 409.434 1.37368 -0.772513 0
M  V30 4476 C 410.662 2.03942 -0.348588 0
M  V30 4477 C 411.077 1.58264 1.02947 0
M  V30 4478 O 410.434 0.764246 1.65727 0
M  V30 4479 C 410.485 3.5946 -0.38351 0
M  V30 4480 O 410.206 4.03468 -1.70721 0
M  V30 4481 C 411.707 4.4327 0.0519152 0
M  V30 4482 H 408.927 0.654931 -0.145966 0
M  V30 4483 H 411.471 1.75686 -1.04665 0
M  V30 4484 H 409.626 3.86486 0.265978 0
M  V30 4485 H 410.04 4.97991 -1.64636 0
M  V30 4486 H 411.514 5.51995 -0.0236733 0
M  V30 4487 H 411.991 4.2514 1.10238 0
M  V30 4488 H 412.597 4.21471 -0.569415 0
M  V30 4489 N 410.912 0.523116 1.48665 0
M  V30 4490 C 411.859 -0.243398 2.29513 0
M  V30 4491 C 412.829 -0.940139 1.36933 0
M  V30 4492 O 414.014 -0.942503 1.65896 0
M  V30 4493 C 411.154 -1.28855 3.20141 0
M  V30 4494 C 410.267 -0.60135 4.27794 0
M  V30 4495 C 409.402 -1.62884 5.05611 0
M  V30 4496 C 408.441 -0.924726 6.05075 0
M  V30 4497 N 407.578 -1.89744 6.75975 0
M  V30 4498 H 412.418 0.452234 2.94549 0
M  V30 4499 H 409.955 0.234858 1.45213 0
M  V30 4500 H 411.913 -1.90674 3.71079 0
M  V30 4501 H 410.543 -1.95266 2.57043 0
M  V30 4502 H 409.595 0.130623 3.80176 0
M  V30 4503 H 410.907 -0.0481585 4.98777 0
M  V30 4504 H 410.061 -2.32149 5.60528 0
M  V30 4505 H 408.8 -2.21592 4.34452 0
M  V30 4506 H 407.805 -0.217966 5.49368 0
M  V30 4507 H 409.03 -0.343851 6.78229 0
M  V30 4508 H 406.976 -2.47373 6.07571 0
M  V30 4509 H 406.893 -1.3955 7.43009 0
M  V30 4510 H 408.161 -2.58229 7.35485 0
M  V30 4511 N 412.39 -1.55475 0.257931 0
M  V30 4512 C 413.615 -2.04064 -0.370488 0
M  V30 4513 C 414.04 -1.13565 -1.49948 0
M  V30 4514 O 413.398 -0.130781 -1.80828 0
M  V30 4515 C 413.446 -3.50554 -0.845237 0
M  V30 4516 O 412.55 -3.63173 -1.95394 0
M  V30 4517 H 411.891 -0.659257 -0.0792243 0
M  V30 4518 H 414.421 -2.00903 0.387212 0
M  V30 4519 H 414.431 -3.91588 -1.14555 0
M  V30 4520 H 413.106 -4.15896 -0.0191259 0
M  V30 4521 H 411.683 -3.34039 -1.65748 0
M  V30 4522 N 413.868 0.0150385 -1.57593 0
M  V30 4523 C 414.778 1.02791 -2.10882 0
M  V30 4524 C 415.794 1.38702 -1.0506 0
M  V30 4525 O 416.97 1.47739 -1.36877 0
M  V30 4526 C 414.035 2.30568 -2.58919 0
M  V30 4527 C 413.096 2.01108 -3.79281 0
M  V30 4528 C 412.329 3.22794 -4.25018 0
M  V30 4529 O 412.552 4.33959 -3.70183 0
M  V30 4530 O 411.486 3.07672 -5.17322 0
M  V30 4531 H 415.312 0.604973 -2.97613 0
M  V30 4532 H 412.897 0.23292 -1.47573 0
M  V30 4533 H 414.779 3.05662 -2.90084 0
M  V30 4534 H 413.454 2.72129 -1.75293 0
M  V30 4535 H 412.361 1.23537 -3.53114 0
M  V30 4536 H 413.694 1.64394 -4.63935 0
M  V30 4537 N 415.346 1.54954 0.287554 0
M  V30 4538 C 416.586 1.76617 1.02887 0
M  V30 4539 C 416.95 0.547759 1.84021 0
M  V30 4540 O 418.151 0.642365 2.61012 0
M  V30 4541 C 416.422 3.02717 1.89993 0
M  V30 4542 S 417.981 3.45438 2.70588 0
M  V30 4543 H 414.799 0.6207 0.346775 0
M  V30 4544 H 417.401 1.93172 0.30082 0
M  V30 4545 H 416.105 3.89503 1.29287 0
M  V30 4546 H 415.636 2.88787 2.67144 0
M  V30 4547 H 417.651 3.03566 3.92508 0
M  V30 4548 N 416.824 -0.551391 1.4764 0
M  V30 4549 C 417.787 -1.64007 1.60107 0
M  V30 4550 C 418.787 -1.53601 0.47576 0
M  V30 4551 O 419.977 -1.57655 0.740988 0
M  V30 4552 C 417.109 -3.03569 1.55108 0
M  V30 4553 H 418.302 -1.543 2.57161 0
M  V30 4554 H 415.855 -0.771776 1.35917 0
M  V30 4555 H 416.59 -3.18804 0.594519 0
M  V30 4556 H 416.375 -3.12532 2.36783 0
M  V30 4557 H 417.865 -3.82762 1.66982 0
M  V30 4558 N 418.302 -1.35869 -0.798587 0
M  V30 4559 C 419.551 -1.28921 -1.5512 0
M  V30 4560 C 419.864 0.13208 -1.95154 0
M  V30 4561 O 421.07 0.323879 -2.69561 0
M  V30 4562 C 419.526 -2.26141 -2.79979 0
M  V30 4563 C 419.134 -3.73658 -2.47151 0
M  V30 4564 C 420.878 -2.28152 -3.57976 0
M  V30 4565 C 418.785 -4.62679 -3.6835 0
M  V30 4566 H 417.715 -0.479031 -0.582276 0
M  V30 4567 H 420.366 -1.61179 -0.877125 0
M  V30 4568 H 418.748 -1.86865 -3.49138 0
M  V30 4569 H 419.922 -4.21616 -1.85947 0
M  V30 4570 H 418.237 -3.74333 -1.82383 0
M  V30 4571 H 420.834 -2.91875 -4.4801 0
M  V30 4572 H 421.177 -1.28748 -3.95891 0
M  V30 4573 H 421.71 -2.65998 -2.95787 0
M  V30 4574 H 418.449 -5.63111 -3.35538 0
M  V30 4575 H 417.969 -4.19442 -4.28752 0
M  V30 4576 H 419.648 -4.78498 -4.35487 0
M  V30 4577 N 419.78 1.02168 -1.19998 0
M  V30 4578 C 421.026 1.75945 -1.00852 0
M  V30 4579 C 421.359 1.88702 0.458828 0
M  V30 4580 O 420.634 1.40911 1.34069 0
M  V30 4581 C 420.917 3.18154 -1.68671 0
M  V30 4582 C 420.77 3.13224 -3.22817 0
M  V30 4583 C 422.089 4.16711 -1.41561 0
M  V30 4584 H 419.208 0.638673 -0.367785 0
M  V30 4585 H 421.85 1.19222 -1.4794 0
M  V30 4586 H 420 3.66586 -1.28636 0
M  V30 4587 H 421.672 2.72635 -3.72112 0
M  V30 4588 H 419.915 2.50751 -3.53986 0
M  V30 4589 H 420.586 4.13728 -3.65422 0
M  V30 4590 H 423.062 3.76913 -1.76284 0
M  V30 4591 H 421.938 5.14391 -1.91553 0
M  V30 4592 H 422.199 4.40774 -0.342193 0
M  V30 4593 N 421.258 1.00505 1.21394 0
M  V30 4594 C 422.488 0.705584 1.94178 0
M  V30 4595 C 422.896 -0.735846 1.74304 0
M  V30 4596 O 422.239 -1.50954 1.04683 0
M  V30 4597 C 422.301 0.94689 3.46806 0
M  V30 4598 C 421.965 2.37517 3.90429 0
M  V30 4599 C 422.962 3.35539 3.97127 0
M  V30 4600 C 420.647 2.71284 4.22742 0
M  V30 4601 C 422.641 4.65395 4.3553 0
M  V30 4602 C 420.328 4.01356 4.60822 0
M  V30 4603 C 421.326 4.98223 4.67186 0
M  V30 4604 O 421.014 6.25969 5.04399 0
M  V30 4605 H 420.746 0.259216 0.624326 0
M  V30 4606 H 423.3 1.34592 1.55159 0
M  V30 4607 H 421.53 0.249386 3.85895 0
M  V30 4608 H 423.219 0.640804 4.0081 0
M  V30 4609 H 423.985 3.10786 3.7234 0
M  V30 4610 H 419.864 1.96581 4.16985 0
M  V30 4611 H 423.408 5.41002 4.40412 0
M  V30 4612 H 419.305 4.25893 4.85063 0
M  V30 4613 H 420.073 6.30085 5.22431 0
M  V30 4614 N 422.737 -1.36956 0.779787 0
M  V30 4615 C 423.685 -2.32053 0.15942 0
M  V30 4616 C 424.679 -1.55333 -0.675878 0
M  V30 4617 O 425.885 -1.70668 -0.57204 0
M  V30 4618 H 422.26 -0.751286 0.0327707 0
M  V30 4619 H 424.231 -2.8195 0.977078 0
M  V30 4620 C 422.98 -3.40602 -0.698977 0
M  V30 4621 H 422.303 -3.99746 -0.0655966 0
M  V30 4622 H 423.743 -4.09486 -1.09989 0
M  V30 4623 C 422.202 -2.81359 -1.85307 0
M  V30 4624 O 422.732 -2.72751 -2.94906 0
M  V30 4625 N 420.938 -2.38786 -1.65619 0
M  V30 4626 H 420.485 -2.45987 -0.764725 0
M  V30 4627 H 420.443 -1.99493 -2.43002 0
M  V30 4628 N 424.215 -0.530993 -1.48385 0
M  V30 4629 C 425.492 0.0671788 -1.95485 0
M  V30 4630 C 425.872 1.51191 -1.47324 0
M  V30 4631 O 425.22 2.17507 -0.700202 0
M  V30 4632 C 425.43 -0.0511206 -3.48963 0
M  V30 4633 C 426.778 0.107632 -4.24464 0
M  V30 4634 O 427.802 0.0226248 -3.56193 0
M  V30 4635 O 426.661 0.285972 -5.45751 0
M  V30 4636 H 423.755 0.0787365 -0.823243 0
M  V30 4637 H 426.301 -0.595662 -1.58902 0
M  V30 4638 H 425.073 -1.05747 -3.7674 0
M  V30 4639 H 424.696 0.650525 -3.92242 0
M  V30 4640 N 425.693 1.55336 -0.266172 0
M  V30 4641 C 427.109 1.59356 0.0882065 0
M  V30 4642 C 427.309 1.2834 1.55342 0
M  V30 4643 O 426.365 1.03996 2.30089 0
M  V30 4644 C 427.678 2.99409 -0.278364 0
M  V30 4645 C 429.226 3.12196 -0.224243 0
M  V30 4646 C 429.701 4.545 -0.565123 0
M  V30 4647 N 431.192 4.60313 -0.51634 0
M  V30 4648 C 431.927 5.68434 -0.753013 0
M  V30 4649 N 431.423 6.84738 -1.05383 0
M  V30 4650 N 433.216 5.57942 -0.682414 0
M  V30 4651 H 425.367 1.73764 -1.22147 0
M  V30 4652 H 427.63 0.809822 -0.492841 0
M  V30 4653 H 427.336 3.2691 -1.29703 0
M  V30 4654 H 427.21 3.75228 0.385186 0
M  V30 4655 H 429.597 2.84464 0.78512 0
M  V30 4656 H 429.678 2.38609 -0.921922 0
M  V30 4657 H 429.322 4.82956 -1.57213 0
M  V30 4658 H 429.252 5.26374 0.154248 0
M  V30 4659 H 431.743 3.7676 -0.29335 0
M  V30 4660 H 432.056 7.63088 -1.22133 0
M  V30 4661 H 430.401 6.86375 -1.09151 0
M  V30 4662 H 433.592 4.65958 -0.44731 0
M  V30 4663 H 433.765 6.4213 -0.870248 0
M  V30 4664 N 427.171 -0.0066808 1.57599 0
M  V30 4665 C 428.396 -0.707738 1.94951 0
M  V30 4666 C 428.821 -1.66882 0.867868 0
M  V30 4667 O 428.179 -1.80457 -0.17458 0
M  V30 4668 C 428.227 -1.42162 3.31394 0
M  V30 4669 O 427.331 -2.53578 3.25226 0
M  V30 4670 H 426.672 -0.188752 0.636607 0
M  V30 4671 H 429.202 0.0445193 2.04552 0
M  V30 4672 H 429.212 -1.78655 3.66806 0
M  V30 4673 H 427.887 -0.716903 4.09675 0
M  V30 4674 H 426.464 -2.19463 3.01481 0
M  V30 4675 N 428.649 -1.55105 -0.279332 0
M  V30 4676 C 429.895 -1.75672 -1.01327 0
M  V30 4677 C 430.228 -0.552739 -1.86168 0
M  V30 4678 O 429.503 0.449827 -1.89227 0
M  V30 4679 C 429.786 -3.05825 -1.90114 0
M  V30 4680 C 429.639 -4.36565 -1.08309 0
M  V30 4681 C 430.958 -3.31975 -2.8893 0
M  V30 4682 H 428.077 -0.639149 -0.366957 0
M  V30 4683 H 430.719 -1.87833 -0.286154 0
M  V30 4684 H 428.869 -2.95588 -2.52111 0
M  V30 4685 H 430.541 -4.58751 -0.484314 0
M  V30 4686 H 428.784 -4.32076 -0.386362 0
M  V30 4687 H 429.455 -5.23946 -1.73737 0
M  V30 4688 H 431.931 -3.41963 -2.37067 0
M  V30 4689 H 430.807 -4.2432 -3.48201 0
M  V30 4690 H 431.068 -2.51309 -3.63725 0
M  V30 4691 N 430.127 0.543554 -1.4793 0
M  V30 4692 C 431.057 1.65888 -1.64327 0
M  V30 4693 C 432.038 1.62818 -0.492383 0
M  V30 4694 O 433.223 1.80226 -0.723338 0
M  V30 4695 C 430.353 3.04506 -1.67013 0
M  V30 4696 C 429.307 3.2243 -2.81466 0
M  V30 4697 C 428.633 4.61972 -2.69233 0
M  V30 4698 C 429.933 3.06496 -4.22915 0
M  V30 4699 H 431.627 1.52421 -2.57698 0
M  V30 4700 H 429.173 0.731849 -1.24016 0
M  V30 4701 H 431.126 3.82391 -1.77074 0
M  V30 4702 H 429.85 3.18964 -0.70212 0
M  V30 4703 H 428.509 2.46957 -2.70938 0
M  V30 4704 H 428.157 4.73247 -1.7043 0
M  V30 4705 H 427.857 4.74911 -3.46025 0
M  V30 4706 H 429.381 5.41974 -2.81242 0
M  V30 4707 H 430.795 3.74186 -4.34348 0
M  V30 4708 H 429.192 3.30938 -5.006 0
M  V30 4709 H 430.262 2.03077 -4.40327 0
M  V30 4710 N 431.605 1.3629 0.791371 0
M  V30 4711 C 432.515 1.32606 1.93527 0
M  V30 4712 C 433.531 0.228541 1.72493 0
M  V30 4713 O 434.707 0.460571 1.96063 0
M  V30 4714 C 431.772 1.11271 3.28359 0
M  V30 4715 C 430.833 2.3048 3.62185 0
M  V30 4716 C 430.066 2.10154 4.90583 0
M  V30 4717 O 430.289 1.07572 5.60165 0
M  V30 4718 O 429.223 2.97884 5.23019 0
M  V30 4719 H 433.049 2.28909 1.99585 0
M  V30 4720 H 430.634 1.16818 0.931344 0
M  V30 4721 H 432.516 1.01283 4.09047 0
M  V30 4722 H 431.191 0.180292 3.23198 0
M  V30 4723 H 430.098 2.46036 2.81811 0
M  V30 4724 H 431.431 3.22221 3.72068 0
M  V30 4725 N 433.083 -1.0153 1.20538 0
M  V30 4726 C 434.031 -2.12215 0.952235 0
M  V30 4727 C 435.025 -1.69123 -0.0968735 0
M  V30 4728 O 436.231 -1.7992 0.0536006 0
M  V30 4729 H 432.606 -0.693576 0.290613 0
M  V30 4730 H 434.577 -2.3075 1.89201 0
M  V30 4731 C 433.326 -3.43755 0.522287 0
M  V30 4732 H 432.649 -3.7734 1.32115 0
M  V30 4733 H 434.089 -4.22254 0.384389 0
M  V30 4734 C 432.548 -3.28088 -0.765489 0
M  V30 4735 O 433.078 -3.57921 -1.8236 0
M  V30 4736 N 431.284 -2.81333 -0.728011 0
M  V30 4737 H 430.831 -2.57255 0.133332 0
M  V30 4738 H 430.789 -2.71232 -1.58999 0
M  V30 4739 N 434.561 -1.01147 -1.20859 0
M  V30 4740 C 435.511 -0.548247 -2.2131 0
M  V30 4741 C 436.495 0.393646 -1.5601 0
M  V30 4742 O 437.687 0.217445 -1.75659 0
M  V30 4743 C 434.816 0.117252 -3.431 0
M  V30 4744 C 433.902 -0.846043 -4.15575 0
M  V30 4745 N 434.293 -2.00149 -4.64515 0
M  V30 4746 C 432.591 -0.665783 -4.41003 0
M  V30 4747 C 433.292 -2.60764 -5.19978 0
M  V30 4748 N 432.268 -1.88868 -5.09735 0
M  V30 4749 H 436.07 -1.42921 -2.56809 0
M  V30 4750 H 433.584 -0.876142 -1.36739 0
M  V30 4751 H 435.581 0.46662 -4.1428 0
M  V30 4752 H 434.241 0.994115 -3.09107 0
M  V30 4753 H 435.252 -2.38162 -4.5989 0
M  V30 4754 H 431.929 0.163456 -4.1718 0
M  V30 4755 H 433.319 -3.58519 -5.68255 0
M  V30 4756 N 436.039 1.36541 -0.78704 0
M  V30 4757 C 436.989 2.27459 -0.156957 0
M  V30 4758 C 437.973 1.46843 0.657709 0
M  V30 4759 O 439.165 1.69245 0.518173 0
M  V30 4760 C 436.294 3.35893 0.709278 0
M  V30 4761 C 435.38 4.23947 -0.114049 0
M  V30 4762 N 435.771 4.92145 -1.16736 0
M  V30 4763 C 434.069 4.4587 0.107497 0
M  V30 4764 C 434.77 5.57261 -1.66837 0
M  V30 4765 N 433.746 5.3473 -0.977992 0
M  V30 4766 H 437.548 2.77669 -0.963185 0
M  V30 4767 H 435.062 1.49839 -0.62627 0
M  V30 4768 H 437.059 3.99953 1.17656 0
M  V30 4769 H 435.719 2.87238 1.51408 0
M  V30 4770 H 436.73 4.94169 -1.54976 0
M  V30 4771 H 433.407 4.08056 0.882994 0
M  V30 4772 H 434.797 6.21728 -2.54762 0
M  V30 4773 N 437.518 0.538854 1.48102 0
M  V30 4774 C 438.767 0.0059532 2.01699 0
M  V30 4775 C 439.08 -1.34476 1.42041 0
M  V30 4776 O 440.286 -1.96653 1.87189 0
M  V30 4777 C 438.742 -0.0397627 3.59878 0
M  V30 4778 C 438.35 1.30659 4.28523 0
M  V30 4779 C 440.094 -0.521024 4.2129 0
M  V30 4780 C 438.001 1.22098 5.78659 0
M  V30 4781 H 436.931 -0.00154456 0.753998 0
M  V30 4782 H 439.582 0.683963 1.70277 0
M  V30 4783 H 437.964 -0.783037 3.88181 0
M  V30 4784 H 439.138 2.06613 4.11883 0
M  V30 4785 H 437.453 1.7243 3.79021 0
M  V30 4786 H 440.05 -0.603184 5.31287 0
M  V30 4787 H 440.393 -1.52885 3.8721 0
M  V30 4788 H 440.926 0.166834 3.9745 0
M  V30 4789 H 437.665 2.20424 6.17328 0
M  V30 4790 H 437.185 0.50295 5.97688 0
M  V30 4791 H 438.864 0.915345 6.40492 0
M  V30 4792 N 438.996 -1.55193 0.274407 0
M  V30 4793 C 440.221 -2.04446 -0.348824 0
M  V30 4794 C 440.646 -1.15149 -1.48735 0
M  V30 4795 O 440.004 -0.149952 -1.80679 0
M  V30 4796 C 440.052 -3.51431 -0.808009 0
M  V30 4797 O 439.156 -3.65225 -1.91531 0
M  V30 4798 H 438.497 -0.66006 -0.0722276 0
M  V30 4799 H 441.027 -2.00481 0.408498 0
M  V30 4800 H 441.037 -3.92781 -1.10395 0
M  V30 4801 H 439.712 -4.15892 0.0249865 0
M  V30 4802 H 438.289 -3.35778 -1.62196 0
M  V30 4803 N 440.474 -0.00167713 -1.576 0
M  V30 4804 C 441.699 0.69739 -1.95323 0
M  V30 4805 C 442.124 1.6642 -0.876706 0
M  V30 4806 O 441.482 1.80548 0.165007 0
M  V30 4807 C 441.53 1.40403 -3.32144 0
M  V30 4808 O 440.634 2.5185 -3.26566 0
M  V30 4809 H 439.975 0.185373 -0.637599 0
M  V30 4810 H 442.505 -0.0553665 -2.04525 0
M  V30 4811 H 442.515 1.76707 -3.67748 0
M  V30 4812 H 441.19 0.695167 -4.10049 0
M  V30 4813 H 439.767 2.17861 -3.0264 0
M  V30 4814 N 441.952 1.55251 0.271103 0
M  V30 4815 C 443.198 1.76207 1.00394 0
M  V30 4816 C 443.531 0.562604 1.85872 0
M  V30 4817 O 442.806 -0.439785 1.89463 0
M  V30 4818 C 443.089 3.06828 1.8849 0
M  V30 4819 C 442.942 4.37134 1.05992 0
M  V30 4820 C 444.261 3.33503 2.87165 0
M  V30 4821 H 441.38 0.641086 0.363562 0
M  V30 4822 H 444.022 1.87982 0.276189 0
M  V30 4823 H 442.172 2.96921 2.5054 0
M  V30 4824 H 443.844 4.59001 0.459978 0
M  V30 4825 H 442.087 4.32275 0.363443 0
M  V30 4826 H 442.758 5.2486 1.70955 0
M  V30 4827 H 445.234 3.43215 2.3525 0
M  V30 4828 H 444.11 4.2616 3.45946 0
M  V30 4829 H 444.371 2.53235 3.62387 0
M  V30 4830 N 443.43 -0.535701 1.48216 0
M  V30 4831 C 444.677 -1.29183 1.55942 0
M  V30 4832 C 445.005 -1.93125 0.230857 0
M  V30 4833 O 444.26 -1.79556 -0.778331 0
M  V30 4834 C 444.559 -2.4068 2.64212 0
M  V30 4835 C 444.225 -1.94428 4.06827 0
M  V30 4836 C 442.887 -1.81532 4.45645 0
M  V30 4837 C 445.239 -1.59405 4.96225 0
M  V30 4838 C 442.567 -1.31939 5.71672 0
M  V30 4839 C 444.919 -1.11276 6.22736 0
M  V30 4840 C 443.583 -0.969924 6.60416 0
M  V30 4841 H 442.853 -0.472715 0.570632 0
M  V30 4842 H 445.5 -0.598437 1.81909 0
M  V30 4843 H 443.805 -3.15666 2.32083 0
M  V30 4844 H 445.502 -2.98822 2.67407 0
M  V30 4845 H 442.092 -2.05415 3.76168 0
M  V30 4846 H 446.276 -1.68231 4.66917 0
M  V30 4847 H 441.532 -1.19562 5.99596 0
M  V30 4848 H 445.706 -0.832453 6.91407 0
M  V30 4849 H 443.333 -0.583436 7.57958 0
M  V30 4850 N 444.908 -1.36708 -0.784132 0
M  V30 4851 C 446.324 -1.17237 -1.08294 0
M  V30 4852 C 446.524 -5.93947e-05 -2.015 0
M  V30 4853 O 445.58 0.663686 -2.43622 0
M  V30 4854 C 446.893 -2.48557 -1.69233 0
M  V30 4855 C 448.441 -2.54968 -1.8155 0
M  V30 4856 C 448.916 -3.86388 -2.45904 0
M  V30 4857 N 450.407 -3.87762 -2.53367 0
M  V30 4858 C 451.142 -4.86191 -3.03983 0
M  V30 4859 N 450.638 -5.95015 -3.54866 0
M  V30 4860 N 452.431 -4.73606 -3.02743 0
M  V30 4861 H 444.582 -2.11758 -0.16501 0
M  V30 4862 H 446.845 -0.93822 -0.135822 0
M  V30 4863 H 446.551 -3.34638 -1.08215 0
M  V30 4864 H 446.425 -2.64748 -2.68679 0
M  V30 4865 H 448.812 -1.69302 -2.41704 0
M  V30 4866 H 448.893 -2.42672 -0.80895 0
M  V30 4867 H 448.537 -4.72462 -1.86392 0
M  V30 4868 H 448.467 -3.95982 -3.4714 0
M  V30 4869 H 450.958 -3.09145 -2.17343 0
M  V30 4870 H 451.271 -6.66086 -3.91854 0
M  V30 4871 H 449.616 -5.98676 -3.53003 0
M  V30 4872 H 452.807 -3.87717 -2.62284 0
M  V30 4873 H 452.98 -5.50473 -3.41881 0
M  V30 4874 N 446.386 1.0089 -1.21074 0
M  V30 4875 C 447.316 2.1145 -0.990523 0
M  V30 4876 C 448.297 1.69897 0.0831699 0
M  V30 4877 O 449.482 1.94052 -0.0758853 0
M  V30 4878 C 446.612 3.42914 -0.550177 0
M  V30 4879 C 445.566 3.98244 -1.56799 0
M  V30 4880 C 444.892 5.25568 -0.984013 0
M  V30 4881 C 446.192 4.30752 -2.95381 0
M  V30 4882 H 447.886 2.3013 -1.91521 0
M  V30 4883 H 445.432 1.10592 -0.92225 0
M  V30 4884 H 447.385 4.19653 -0.383305 0
M  V30 4885 H 446.109 3.24014 0.41015 0
M  V30 4886 H 444.768 3.23621 -1.72236 0
M  V30 4887 H 444.416 5.02998 -0.0155216 0
M  V30 4888 H 444.116 5.63551 -1.66384 0
M  V30 4889 H 445.64 6.04955 -0.828378 0
M  V30 4890 H 447.054 4.98349 -2.8341 0
M  V30 4891 H 445.451 4.79869 -3.60341 0
M  V30 4892 H 446.521 3.39192 -3.46521 0
M  V30 4893 N 447.864 1.01787 1.20321 0
M  V30 4894 C 448.797 0.533882 2.21867 0
M  V30 4895 C 449.775 -0.419361 1.57099 0
M  V30 4896 O 450.959 -0.339062 1.85426 0
M  V30 4897 C 448.086 -0.222899 3.37966 0
M  V30 4898 C 447.132 0.680091 4.21043 0
M  V30 4899 S 447.965 2.14997 4.90445 0
M  V30 4900 C 449.121 1.40339 6.09964 0
M  V30 4901 H 449.354 1.39429 2.62577 0
M  V30 4902 H 446.887 0.826867 1.30393 0
M  V30 4903 H 448.845 -0.653425 4.05266 0
M  V30 4904 H 447.506 -1.0589 2.95713 0
M  V30 4905 H 446.699 0.0964704 5.03908 0
M  V30 4906 H 446.301 1.04845 3.59004 0
M  V30 4907 H 448.593 0.68407 6.74038 0
M  V30 4908 H 449.536 2.20823 6.72787 0
M  V30 4909 H 449.944 0.905716 5.57187 0
M  V30 4910 N 449.342 -1.36122 0.79427 0
M  V30 4911 C 450.274 -2.28683 0.153903 0
M  V30 4912 C 451.287 -1.49707 -0.639669 0
M  V30 4913 O 452.476 -1.7209 -0.474054 0
M  V30 4914 C 449.576 -3.29202 -0.804921 0
M  V30 4915 C 448.749 -4.37358 -0.060366 0
M  V30 4916 C 447.808 -5.17811 -0.935849 0
M  V30 4917 O 446.834 -5.67853 -0.391309 0
M  V30 4918 N 448.036 -5.34721 -2.25951 0
M  V30 4919 H 450.801 -2.84278 0.949008 0
M  V30 4920 H 448.362 -1.4834 0.648611 0
M  V30 4921 H 450.354 -3.79914 -1.39455 0
M  V30 4922 H 448.924 -2.74212 -1.50088 0
M  V30 4923 H 448.144 -3.87746 0.710382 0
M  V30 4924 H 449.432 -5.06777 0.45324 0
M  V30 4925 H 448.83 -4.95687 -2.72601 0
M  V30 4926 H 447.387 -5.88657 -2.79867 0
M  V30 4927 N 450.82 -0.546701 -1.47814 0
M  V30 4928 C 452.097 0.0464413 -1.95545 0
M  V30 4929 C 452.477 1.4962 -1.48919 0
M  V30 4930 O 451.825 2.16752 -0.723232 0
M  V30 4931 C 452.035 -0.0881298 -3.48889 0
M  V30 4932 C 453.383 0.0626059 -4.24554 0
M  V30 4933 O 454.407 -0.0151555 -3.56197 0
M  V30 4934 O 453.266 0.228071 -5.46024 0
M  V30 4935 H 450.36 0.0700004 -0.824032 0
M  V30 4936 H 452.906 -0.612482 -1.58262 0
M  V30 4937 H 451.678 -1.09737 -3.75597 0
M  V30 4938 H 451.301 0.608886 -3.9291 0
M  V30 4939 N 452.299 1.55045 -0.282633 0
M  V30 4940 C 453.576 1.9179 0.384166 0
M  V30 4941 C 453.956 1.20778 1.73136 0
M  V30 4942 O 453.304 0.33719 2.25998 0
M  V30 4943 C 453.514 3.45149 0.517014 0
M  V30 4944 C 454.862 4.17064 0.796427 0
M  V30 4945 O 455.886 3.51084 0.601535 0
M  V30 4946 O 454.745 5.33837 1.16962 0
M  V30 4947 H 451.839 0.799483 0.211558 0
M  V30 4948 H 454.385 1.66474 -0.32934 0
M  V30 4949 H 453.157 3.88922 -0.430772 0
M  V30 4950 H 452.78 3.76443 1.2797 0
M  V30 4951 N 453.777 0.010035 1.57597 0
M  V30 4952 C 454.687 -0.994226 2.12491 0
M  V30 4953 C 455.703 -1.37013 1.07254 0
M  V30 4954 O 456.879 -1.45542 1.3921 0
M  V30 4955 C 453.944 -2.2642 2.62555 0
M  V30 4956 C 453.005 -1.95049 3.82432 0
M  V30 4957 C 452.238 -3.15991 4.30099 0
M  V30 4958 O 452.461 -4.28015 3.7704 0
M  V30 4959 O 451.395 -2.99403 5.22151 0
M  V30 4960 H 455.221 -0.557549 2.98538 0
M  V30 4961 H 452.806 -0.209413 1.47925 0
M  V30 4962 H 454.688 -3.01009 2.9491 0
M  V30 4963 H 453.363 -2.69306 1.796 0
M  V30 4964 H 452.27 -1.17904 3.55034 0
M  V30 4965 H 453.603 -1.56992 4.66491 0
M  V30 4966 N 455.255 -1.55392 -0.262866 0
M  V30 4967 C 456.188 -1.8391 -1.35101 0
M  V30 4968 C 457.166 -0.692901 -1.47097 0
M  V30 4969 O 458.35 -0.936979 -1.63563 0
M  V30 4970 C 455.477 -2.00969 -2.72634 0
M  V30 4971 C 454.523 -3.23559 -2.7787 0
M  V30 4972 S 455.356 -4.80647 -2.3609 0
M  V30 4973 C 456.512 -5.00692 -3.75578 0
M  V30 4974 H 456.745 -2.75918 -1.1071 0
M  V30 4975 H 454.278 -1.47294 -0.463029 0
M  V30 4976 H 456.236 -2.11482 -3.51832 0
M  V30 4977 H 454.897 -1.09832 -2.94272 0
M  V30 4978 H 454.09 -3.32413 -3.78837 0
M  V30 4979 H 453.692 -3.11689 -2.06702 0
M  V30 4980 H 455.984 -4.87055 -4.70939 0
M  V30 4981 H 456.927 -6.02717 -3.71669 0
M  V30 4982 H 457.335 -4.28619 -3.6735 0
M  V30 4983 N 456.733 0.527833 -1.48498 0
M  V30 4984 C 457.681 1.65313 -1.63628 0
M  V30 4985 C 458.675 1.6177 -0.502676 0
M  V30 4986 O 459.881 1.66601 -0.681469 0
M  V30 4987 H 456.256 0.547518 -0.515488 0
M  V30 4988 H 458.227 1.49696 -2.58135 0
M  V30 4989 C 456.976 3.03576 -1.6952 0
M  V30 4990 H 456.299 3.06997 -2.56111 0
M  V30 4991 H 457.739 3.81923 -1.84149 0
M  V30 4992 C 456.198 3.34089 -0.43432 0
M  V30 4993 O 456.728 3.99151 0.451852 0
M  V30 4994 N 454.934 2.88991 -0.305368 0
M  V30 4995 H 454.481 2.36222 -1.02747 0
M  V30 4996 H 454.439 3.09776 0.537249 0
M  V30 4997 N 458.211 1.37122 0.776871 0
M  V30 4998 C 459.46 1.31373 1.53049 0
M  V30 4999 C 459.773 -0.101016 1.95339 0
M  V30 5000 O 460.979 -0.280953 2.70042 0
M  V30 5001 C 459.435 2.30567 2.76346 0
M  V30 5002 C 459.043 3.77543 2.41175 0
M  V30 5003 C 460.787 2.33818 3.54301 0
M  V30 5004 C 458.694 4.68481 3.60943 0
M  V30 5005 H 457.624 0.488234 0.574581 0
M  V30 5006 H 460.275 1.62554 0.851372 0
M  V30 5007 H 458.657 1.92396 3.46121 0
M  V30 5008 H 459.831 4.24521 1.79216 0
M  V30 5009 H 458.146 3.77187 1.76405 0
M  V30 5010 H 460.743 2.98965 4.4331 0
M  V30 5011 H 461.086 1.3503 3.93793 0
M  V30 5012 H 461.619 2.7067 2.91518 0
M  V30 5013 H 458.358 5.68378 3.26537 0
M  V30 5014 H 457.878 4.2621 4.22025 0
M  V30 5015 H 459.557 4.85366 4.27819 0
M  V30 5016 N 459.689 -1.00246 1.21608 0
M  V30 5017 C 460.936 -1.74061 1.03485 0
M  V30 5018 C 461.264 -1.89658 -0.431308 0
M  V30 5019 O 460.519 -1.42976 -1.33627 0
M  V30 5020 C 460.818 -3.15448 1.68009 0
M  V30 5021 C 460.484 -3.19792 3.17874 0
M  V30 5022 C 459.146 -3.20685 3.58768 0
M  V30 5023 C 461.498 -3.16835 4.13842 0
M  V30 5024 C 458.826 -3.16309 4.94131 0
M  V30 5025 C 461.178 -3.14001 5.49169 0
M  V30 5026 C 459.842 -3.13204 5.89457 0
M  V30 5027 H 459.112 -0.636934 0.378677 0
M  V30 5028 H 461.759 -1.17473 1.51236 0
M  V30 5029 H 460.064 -3.75284 1.12557 0
M  V30 5030 H 461.761 -3.71285 1.51487 0
M  V30 5031 H 458.351 -3.19842 2.85305 0
M  V30 5032 H 462.535 -3.15303 3.83272 0
M  V30 5033 H 457.791 -3.14032 5.24589 0
M  V30 5034 H 461.965 -3.10667 6.23265 0
M  V30 5035 H 459.592 -3.09568 6.94314 0
M  V30 5036 N 461.167 -1.02423 -1.1978 0
M  V30 5037 C 462.416 -0.713265 -1.88667 0
M  V30 5038 C 462.729 0.7609 -1.80193 0
M  V30 5039 O 463.935 1.18473 -2.44288 0
M  V30 5040 C 462.391 -1.22545 -3.38394 0
M  V30 5041 C 461.999 -2.72706 -3.55437 0
M  V30 5042 C 463.743 -0.990257 -4.12788 0
M  V30 5043 C 461.65 -3.17367 -4.99031 0
M  V30 5044 H 460.58 -0.263105 -0.706606 0
M  V30 5045 H 463.231 -1.23792 -1.35454 0
M  V30 5046 H 461.613 -0.628732 -3.90977 0
M  V30 5047 H 462.787 -3.37993 -3.13205 0
M  V30 5048 H 461.102 -2.94453 -2.94425 0
M  V30 5049 H 463.699 -1.29926 -5.18675 0
M  V30 5050 H 464.042 0.0730761 -4.16236 0
M  V30 5051 H 464.575 -1.55074 -3.66329 0
M  V30 5052 H 461.314 -4.23009 -5.00743 0
M  V30 5053 H 460.834 -2.56805 -5.42044 0
M  V30 5054 H 462.513 -3.10441 -5.67658 0
M  V30 5055 N 462.645 1.35699 -0.801477 0
M  V30 5056 C 463.593 2.3177 -0.196317 0
M  V30 5057 C 464.587 1.56388 0.651081 0
M  V30 5058 O 465.793 1.71557 0.544815 0
M  V30 5059 H 462.168 0.750669 -0.0447189 0
M  V30 5060 H 464.139 2.8036 -1.02181 0
M  V30 5061 C 462.888 3.41671 0.644702 0
M  V30 5062 H 462.211 3.998 0.0019921 0
M  V30 5063 H 463.651 4.11184 1.0346 0
M  V30 5064 C 462.11 2.84271 1.80808 0
M  V30 5065 O 462.64 2.77408 2.9053 0
M  V30 5066 N 460.846 2.41391 1.61799 0
M  V30 5067 H 460.393 2.47173 0.725493 0
M  V30 5068 H 460.351 2.03334 2.39797 0
M  V30 5069 N 464.123 0.554532 1.47522 0
M  V30 5070 C 465.053 -0.182974 2.32782 0
M  V30 5071 C 466.034 -0.911377 1.43624 0
M  V30 5072 O 467.219 -0.892366 1.72483 0
M  V30 5073 C 464.349 -1.21513 3.25349 0
M  V30 5074 C 463.303 -0.603355 4.23726 0
M  V30 5075 C 462.629 -1.73995 5.05598 0
M  V30 5076 C 463.929 0.441121 5.20434 0
M  V30 5077 H 465.623 0.52882 2.94693 0
M  V30 5078 H 463.169 0.255759 1.41711 0
M  V30 5079 H 465.122 -1.73922 3.83835 0
M  V30 5080 H 463.846 -1.95683 2.61487 0
M  V30 5081 H 462.505 -0.10059 3.66462 0
M  V30 5082 H 462.153 -2.47063 4.38143 0
M  V30 5083 H 461.853 -1.3364 5.72201 0
M  V30 5084 H 463.377 -2.26735 5.66942 0
M  V30 5085 H 464.791 0.00319931 5.733 0
M  V30 5086 H 463.188 0.763402 5.95224 0
M  V30 5087 H 464.258 1.33799 4.66075 0
M  V30 5088 N 465.601 -1.54893 0.290851 0
M  V30 5089 C 466.829 -2.04343 -0.324288 0
M  V30 5090 C 467.244 -1.16859 -1.48289 0
M  V30 5091 O 466.601 -0.192018 -1.81487 0
M  V30 5092 C 466.652 -3.52756 -0.79026 0
M  V30 5093 O 466.373 -4.36913 0.322213 0
M  V30 5094 C 467.874 -4.18161 -1.4716 0
M  V30 5095 H 465.094 -0.667135 -0.0719173 0
M  V30 5096 H 467.638 -1.99981 0.427529 0
M  V30 5097 H 465.793 -3.57511 -1.49213 0
M  V30 5098 H 466.207 -5.24486 -0.0387372 0
M  V30 5099 H 467.681 -5.23562 -1.7489 0
M  V30 5100 H 468.158 -3.67282 -2.40834 0
M  V30 5101 H 468.764 -4.17454 -0.813178 0
M  V30 5102 N 467.08 -0.0183926 -1.57589 0
M  V30 5103 C 468.027 0.967022 -2.09565 0
M  V30 5104 C 468.997 1.32983 -0.995225 0
M  V30 5105 O 470.182 1.42501 -1.26878 0
M  V30 5106 C 467.322 2.24772 -2.61861 0
M  V30 5107 C 466.435 1.94232 -3.85873 0
M  V30 5108 C 465.57 3.16518 -4.26603 0
M  V30 5109 C 464.609 2.81748 -5.43401 0
M  V30 5110 N 463.746 3.96626 -5.79338 0
M  V30 5111 H 468.586 0.516874 -2.93483 0
M  V30 5112 H 466.123 0.243544 -1.4507 0
M  V30 5113 H 468.081 2.99667 -2.90268 0
M  V30 5114 H 466.711 2.67423 -1.8079 0
M  V30 5115 H 465.763 1.09625 -3.64262 0
M  V30 5116 H 467.075 1.64616 -4.70853 0
M  V30 5117 H 466.229 3.99743 -4.56389 0
M  V30 5118 H 464.968 3.49286 -3.40368 0
M  V30 5119 H 463.973 1.96933 -5.1332 0
M  V30 5120 H 465.198 2.50207 -6.31327 0
M  V30 5121 H 463.144 4.29257 -4.96059 0
M  V30 5122 H 463.061 3.70598 -6.58933 0
M  V30 5123 H 464.329 4.80586 -6.13724 0
M  V30 5124 N 468.558 1.5553 0.254621 0
M  V30 5125 C 469.835 1.6774 1.00611 0
M  V30 5126 C 470.215 0.555993 2.03647 0
M  V30 5127 O 469.563 -0.441583 2.24193 0
M  V30 5128 C 469.773 3.07725 1.6464 0
M  V30 5129 C 471.121 3.66074 2.15116 0
M  V30 5130 O 472.145 3.10476 1.74595 0
M  V30 5131 O 471.004 4.63526 2.89493 0
M  V30 5132 H 468.098 0.681958 0.467828 0
M  V30 5133 H 470.644 1.67863 0.24902 0
M  V30 5134 H 469.416 3.80792 0.900734 0
M  V30 5135 H 469.039 3.1158 2.46989 0
M  V30 5136 N 470.036 -0.519951 1.48776 0
M  V30 5137 C 470.946 -1.65025 1.66745 0
M  V30 5138 C 471.962 -1.6508 0.549954 0
M  V30 5139 O 473.138 -1.83848 0.822295 0
M  V30 5140 C 470.203 -3.0146 1.71238 0
M  V30 5141 C 469.264 -3.12182 2.94688 0
M  V30 5142 C 468.497 -4.42109 2.98958 0
M  V30 5143 O 468.72 -5.29799 2.1135 0
M  V30 5144 O 467.654 -4.57406 3.91233 0
M  V30 5145 H 471.48 -1.52801 2.62461 0
M  V30 5146 H 469.065 -0.694157 1.32294 0
M  V30 5147 H 470.947 -3.82584 1.76657 0
M  V30 5148 H 469.622 -3.13988 0.786975 0
M  V30 5149 H 468.529 -2.30316 2.94797 0
M  V30 5150 H 469.862 -3.04574 3.86646 0
M  V30 5151 N 471.514 -1.37532 -0.769588 0
M  V30 5152 C 472.761 -1.3286 -1.52822 0
M  V30 5153 C 473.089 0.0862597 -1.94309 0
M  V30 5154 O 472.344 1.05995 -1.6451 0
M  V30 5155 C 472.643 -2.21558 -2.8044 0
M  V30 5156 C 472.309 -3.69796 -2.57996 0
M  V30 5157 C 470.971 -4.10194 -2.51583 0
M  V30 5158 C 473.323 -4.63699 -2.37976 0
M  V30 5159 C 470.651 -5.42608 -2.23144 0
M  V30 5160 C 473.003 -5.96353 -2.1106 0
M  V30 5161 C 471.667 -6.35853 -2.03093 0
M  V30 5162 H 470.937 -0.486168 -0.559215 0
M  V30 5163 H 473.584 -1.69757 -0.886277 0
M  V30 5164 H 471.889 -1.77663 -3.49204 0
M  V30 5165 H 473.586 -2.15256 -3.38328 0
M  V30 5166 H 470.176 -3.37759 -2.63851 0
M  V30 5167 H 474.36 -4.33346 -2.41919 0
M  V30 5168 H 469.616 -5.72173 -2.15472 0
M  V30 5169 H 473.79 -6.68667 -1.94568 0
M  V30 5170 H 471.417 -7.38382 -1.8082 0
M  V30 5171 N 472.992 0.995999 -1.22138 0
M  V30 5172 C 474.238 1.73767 -1.04561 0
M  V30 5173 C 474.571 1.89633 0.418698 0
M  V30 5174 O 473.846 1.43723 1.3105 0
M  V30 5175 C 474.129 3.14505 -1.75382 0
M  V30 5176 C 473.982 3.06306 -3.29388 0
M  V30 5177 C 475.301 4.13615 -1.50369 0
M  V30 5178 H 472.42 0.630728 -0.38125 0
M  V30 5179 H 475.062 1.16057 -1.50435 0
M  V30 5180 H 473.212 3.63775 -1.36383 0
M  V30 5181 H 474.884 2.64681 -3.77812 0
M  V30 5182 H 473.127 2.43186 -3.59226 0
M  V30 5183 H 473.798 4.05884 -3.74116 0
M  V30 5184 H 476.274 3.73089 -1.84239 0
M  V30 5185 H 475.15 5.10212 -2.02421 0
M  V30 5186 H 475.411 4.39949 -0.435611 0
M  V30 5187 N 474.47 1.03057 1.19235 0
M  V30 5188 C 475.38 0.622922 2.26179 0
M  V30 5189 C 476.396 -0.346113 1.70523 0
M  V30 5190 O 477.572 -0.203572 2.00369 0
M  V30 5191 C 474.637 -0.0182063 3.46695 0
M  V30 5192 C 473.698 0.998546 4.17526 0
M  V30 5193 C 472.931 0.387917 5.32288 0
M  V30 5194 O 473.154 -0.808668 5.64639 0
M  V30 5195 O 472.088 1.1116 5.91546 0
M  V30 5196 H 475.914 1.51363 2.63292 0
M  V30 5197 H 473.499 0.800856 1.26122 0
M  V30 5198 H 475.381 -0.375606 4.19723 0
M  V30 5199 H 474.056 -0.882895 3.11427 0
M  V30 5200 H 472.963 1.40756 3.4661 0
M  V30 5201 H 474.296 1.83366 4.56769 0
M  V30 5202 N 475.948 -1.35272 0.808662 0
M  V30 5203 C 476.878 -2.32315 0.234981 0
M  V30 5204 C 477.859 -1.57572 -0.64071 0
M  V30 5205 O 479.044 -1.8563 -0.570551 0
M  V30 5206 C 476.174 -3.41801 -0.615601 0
M  V30 5207 C 475.128 -4.27694 0.161767 0
M  V30 5208 C 474.454 -5.28519 -0.810649 0
M  V30 5209 C 475.754 -5.04231 1.36193 0
M  V30 5210 H 477.448 -2.80543 1.04575 0
M  V30 5211 H 474.994 -1.3488 0.504315 0
M  V30 5212 H 476.947 -4.08693 -1.02702 0
M  V30 5213 H 475.671 -2.92186 -1.45928 0
M  V30 5214 H 474.33 -3.62384 0.554382 0
M  V30 5215 H 473.978 -4.75171 -1.64988 0
M  V30 5216 H 473.678 -5.8686 -0.294822 0
M  V30 5217 H 475.202 -5.98283 -1.22023 0
M  V30 5218 H 476.616 -5.64058 1.02528 0
M  V30 5219 H 475.013 -5.72077 1.81239 0
M  V30 5220 H 476.083 -4.34753 2.14751 0
M  V30 5221 N 477.426 -0.562348 -1.47226 0
M  V30 5222 C 478.842 -0.222492 -1.58042 0
M  V30 5223 C 479.042 1.27505 -1.56028 0
M  V30 5224 O 478.098 2.05555 -1.46641 0
M  V30 5225 C 479.411 -0.853694 -2.88327 0
M  V30 5226 C 480.959 -0.825397 -3.01921 0
M  V30 5227 C 481.434 -1.43576 -4.34914 0
M  V30 5228 N 482.925 -1.39918 -4.41562 0
M  V30 5229 C 483.66 -1.84103 -5.43041 0
M  V30 5230 N 483.156 -2.36167 -6.51304 0
M  V30 5231 N 484.949 -1.75142 -5.34118 0
M  V30 5232 H 477.1 -1.53525 -1.46778 0
M  V30 5233 H 479.363 -0.640527 -0.698877 0
M  V30 5234 H 479.069 -1.90635 -2.95552 0
M  V30 5235 H 478.943 -0.34977 -3.75575 0
M  V30 5236 H 481.33 0.218583 -2.94289 0
M  V30 5237 H 481.411 -1.36713 -2.16202 0
M  V30 5238 H 481.055 -2.47884 -4.43301 0
M  V30 5239 H 480.985 -0.869427 -5.19373 0
M  V30 5240 H 483.476 -1.0184 -3.63919 0
M  V30 5241 H 483.789 -2.67793 -7.24919 0
M  V30 5242 H 482.134 -2.40181 -6.52179 0
M  V30 5243 H 485.325 -1.34241 -4.48439 0
M  V30 5244 H 485.498 -2.09895 -6.13065 0
M  V30 5245 N 478.904 1.54736 -0.299062 0
M  V30 5246 C 479.867 2.22127 0.565012 0
M  V30 5247 C 480.867 1.20669 1.06281 0
M  V30 5248 O 482.057 1.45417 0.959145 0
M  V30 5249 C 479.189 2.90611 1.78208 0
M  V30 5250 H 480.382 2.99891 -0.0237448 0
M  V30 5251 H 477.935 1.5622 -0.0498788 0
M  V30 5252 H 478.67 2.16921 2.41072 0
M  V30 5253 H 478.455 3.64984 1.43281 0
M  V30 5254 H 479.945 3.42026 2.396 0
M  V30 5255 N 480.382 0.0267497 1.57577 0
M  V30 5256 C 481.312 -0.954308 2.13108 0
M  V30 5257 C 482.293 -1.34088 1.04663 0
M  V30 5258 O 483.478 -1.41992 1.32484 0
M  V30 5259 C 480.608 -2.23744 2.65624 0
M  V30 5260 C 479.562 -1.99168 3.78835 0
M  V30 5261 C 478.888 -3.33726 4.17769 0
M  V30 5262 C 480.188 -1.33277 5.0501 0
M  V30 5263 H 481.882 -0.491848 2.95332 0
M  V30 5264 H 479.428 -0.23514 1.42067 0
M  V30 5265 H 481.381 -2.92754 3.03106 0
M  V30 5266 H 480.105 -2.72151 1.80558 0
M  V30 5267 H 478.764 -1.32577 3.41788 0
M  V30 5268 H 478.412 -3.79888 3.29688 0
M  V30 5269 H 478.112 -3.18089 4.94058 0
M  V30 5270 H 479.636 -4.04008 4.57832 0
M  V30 5271 H 481.05 -1.92283 5.40093 0
M  V30 5272 H 479.447 -1.28045 5.8628 0
M  V30 5273 H 480.517 -0.305411 4.83937 0
M  V30 5274 N 481.861 -1.55662 -0.24637 0
M  V30 5275 C 483.107 -1.77782 -0.975779 0
M  V30 5276 C 483.44 -0.592103 -1.84953 0
M  V30 5277 O 482.715 0.409588 -1.90138 0
M  V30 5278 C 482.998 -3.09788 -1.83584 0
M  V30 5279 C 482.851 -4.38764 -0.990241 0
M  V30 5280 C 484.17 -3.38029 -2.81823 0
M  V30 5281 H 481.289 -0.646789 -0.353317 0
M  V30 5282 H 483.931 -1.88398 -0.246248 0
M  V30 5283 H 482.081 -3.00869 -2.45784 0
M  V30 5284 H 483.753 -4.59675 -0.386897 0
M  V30 5285 H 481.996 -4.32798 -0.294626 0
M  V30 5286 H 482.667 -5.27514 -1.62584 0
M  V30 5287 H 485.143 -3.46915 -2.2976 0
M  V30 5288 H 484.019 -4.3161 -3.39122 0
M  V30 5289 H 484.28 -2.58968 -3.58313 0
M  V30 5290 N 483.339 0.512053 -1.4905 0
M  V30 5291 C 484.588 1.26343 -1.57227 0
M  V30 5292 C 484.901 1.93876 -0.259155 0
M  V30 5293 O 486.107 2.70612 -0.219358 0
M  V30 5294 C 484.563 2.29343 -2.77362 0
M  V30 5295 C 484.171 1.67799 -4.15388 0
M  V30 5296 C 485.915 3.05378 -2.94864 0
M  V30 5297 C 483.822 2.68845 -5.2676 0
M  V30 5298 H 482.752 0.475231 -0.585382 0
M  V30 5299 H 485.403 0.53862 -1.75417 0
M  V30 5300 H 483.785 3.04938 -2.52643 0
M  V30 5301 H 484.959 0.982715 -4.50199 0
M  V30 5302 H 483.274 1.04194 -4.03153 0
M  V30 5303 H 485.871 3.80921 -3.75238 0
M  V30 5304 H 486.214 3.62327 -2.05 0
M  V30 5305 H 486.747 2.36898 -3.19569 0
M  V30 5306 H 483.486 2.16692 -6.18647 0
M  V30 5307 H 483.006 3.36647 -4.96416 0
M  V30 5308 H 484.685 3.31487 -5.5563 0
M  V30 5309 N 484.817 1.37938 0.762283 0
M  V30 5310 C 485.727 1.36681 1.90671 0
M  V30 5311 C 486.743 0.265078 1.71969 0
M  V30 5312 O 487.919 0.502055 1.95042 0
M  V30 5313 C 484.984 1.18211 3.25925 0
M  V30 5314 C 484.045 2.3811 3.57214 0
M  V30 5315 C 483.278 2.20512 4.86014 0
M  V30 5316 O 483.501 1.19429 5.57757 0
M  V30 5317 O 482.435 3.08911 5.16583 0
M  V30 5318 H 486.261 2.33091 1.94685 0
M  V30 5319 H 483.846 1.18767 0.906356 0
M  V30 5320 H 485.728 1.09937 4.06807 0
M  V30 5321 H 484.403 0.248807 3.22742 0
M  V30 5322 H 483.31 2.51958 2.76529 0
M  V30 5323 H 484.643 3.30041 3.65149 0
M  V30 5324 N 486.295 -0.989507 1.22664 0
M  V30 5325 C 487.228 -2.07805 0.942985 0
M  V30 5326 C 488.206 -1.6219 -0.115356 0
M  V30 5327 O 489.39 -1.88492 0.0169565 0
M  V30 5328 C 486.517 -3.361 0.418898 0
M  V30 5329 C 485.563 -4.00643 1.46244 0
M  V30 5330 S 486.396 -4.41059 3.03689 0
M  V30 5331 C 487.552 -5.7252 2.52927 0
M  V30 5332 H 487.785 -2.31547 1.86476 0
M  V30 5333 H 485.318 -1.12446 1.05808 0
M  V30 5334 H 487.276 -4.10315 0.123114 0
M  V30 5335 H 485.937 -3.10383 -0.481818 0
M  V30 5336 H 485.13 -4.93033 1.04569 0
M  V30 5337 H 484.732 -3.32767 1.7071 0
M  V30 5338 H 487.024 -6.49017 1.94379 0
M  V30 5339 H 487.967 -6.19026 3.4382 0
M  V30 5340 H 488.375 -5.30083 1.94094 0
M  V30 5341 N 487.773 -1.03688 -1.18687 0
M  V30 5342 C 489.019 -0.739123 -1.88851 0
M  V30 5343 C 489.352 0.731042 -1.79915 0
M  V30 5344 O 488.627 1.53313 -1.19688 0
M  V30 5345 C 488.91 -1.20106 -3.3948 0
M  V30 5346 C 488.763 -2.73304 -3.57246 0
M  V30 5347 C 490.082 -0.788134 -4.32986 0
M  V30 5348 H 487.201 -0.269978 -0.68577 0
M  V30 5349 H 489.843 -1.28822 -1.3966 0
M  V30 5350 H 487.993 -0.733915 -3.81505 0
M  V30 5351 H 489.665 -3.28027 -3.24339 0
M  V30 5352 H 487.908 -3.13313 -3.00029 0
M  V30 5353 H 488.579 -3.00684 -4.62918 0
M  V30 5354 H 491.055 -1.19005 -3.98719 0
M  V30 5355 H 489.931 -1.13915 -5.36949 0
M  V30 5356 H 490.192 0.308988 -4.41019 0
M  V30 5357 N 489.251 1.34841 -0.815825 0
M  V30 5358 C 490.181 2.32187 -0.247298 0
M  V30 5359 C 491.162 1.5791 0.632344 0
M  V30 5360 O 492.347 1.8593 0.560698 0
M  V30 5361 C 489.477 3.42122 0.597466 0
M  V30 5362 C 488.431 4.27602 -0.184446 0
M  V30 5363 C 487.757 5.28942 0.782609 0
M  V30 5364 C 489.057 5.03502 -1.38865 0
M  V30 5365 H 490.751 2.79985 -1.06061 0
M  V30 5366 H 488.297 1.34611 -0.511461 0
M  V30 5367 H 490.25 4.09232 1.00533 0
M  V30 5368 H 488.974 2.92956 1.44376 0
M  V30 5369 H 487.633 3.62085 -0.573592 0
M  V30 5370 H 487.281 4.7604 1.62466 0
M  V30 5371 H 486.981 5.87008 0.263695 0
M  V30 5372 H 488.505 5.98922 1.18848 0
M  V30 5373 H 489.919 5.63506 -1.05518 0
M  V30 5374 H 488.316 5.71108 -1.8427 0
M  V30 5375 H 489.386 4.33608 -2.17054 0
M  V30 5376 N 490.729 0.570148 1.46925 0
M  V30 5377 C 491.692 -0.159933 2.28641 0
M  V30 5378 C 492.692 -0.830638 1.37685 0
M  V30 5379 O 493.882 -0.684516 1.60187 0
M  V30 5380 C 491.014 -1.2354 3.17727 0
M  V30 5381 H 492.207 0.558035 2.94662 0
M  V30 5382 H 489.76 0.327603 1.52828 0
M  V30 5383 H 490.495 -1.98535 2.56426 0
M  V30 5384 H 490.28 -0.759125 3.84681 0
M  V30 5385 H 491.77 -1.74782 3.79264 0
M  V30 5386 N 492.207 -1.54576 0.307264 0
M  V30 5387 C 493.435 -2.04675 -0.302597 0
M  V30 5388 C 493.85 -1.18425 -1.47041 0
M  V30 5389 O 493.207 -0.211257 -1.81273 0
M  V30 5390 C 493.258 -3.53575 -0.752801 0
M  V30 5391 O 492.979 -4.36547 0.368536 0
M  V30 5392 C 494.48 -4.19699 -1.42717 0
M  V30 5393 H 491.7 -0.66786 -0.0648374 0
M  V30 5394 H 494.244 -1.99516 0.448716 0
M  V30 5395 H 492.399 -3.59074 -1.45412 0
M  V30 5396 H 492.813 -5.24497 0.0168937 0
M  V30 5397 H 494.287 -5.25388 -1.69327 0
M  V30 5398 H 494.764 -3.69815 -2.36925 0
M  V30 5399 H 495.37 -4.18293 -0.768856 0
M  V30 5400 N 493.685 -0.035106 -1.57561 0
M  V30 5401 C 494.962 0.681212 -1.83354 0
M  V30 5402 C 495.342 1.89986 -0.920252 0
M  V30 5403 O 494.69 2.28489 0.0226815 0
M  V30 5404 C 494.9 1.05376 -3.32712 0
M  V30 5405 C 496.248 1.44286 -3.99333 0
M  V30 5406 O 497.272 1.14656 -3.37242 0
M  V30 5407 O 496.131 1.99518 -5.08778 0
M  V30 5408 H 493.225 0.334741 -0.756226 0
M  V30 5409 H 495.771 -0.0632448 -1.69582 0
M  V30 5410 H 494.543 0.186668 -3.90854 0
M  V30 5411 H 494.166 1.85619 -3.51613 0
M  V30 5412 N 495.163 1.55791 0.238111 0
M  V30 5413 C 496.096 1.86036 1.32158 0
M  V30 5414 C 497.074 0.716216 1.45976 0
M  V30 5415 O 498.258 0.962882 1.62052 0
M  V30 5416 C 495.385 2.05281 2.69402 0
M  V30 5417 C 494.431 3.27939 2.72687 0
M  V30 5418 S 495.264 4.84342 2.28413 0
M  V30 5419 C 496.42 5.06604 3.67565 0
M  V30 5420 H 496.653 2.77644 1.06306 0
M  V30 5421 H 494.186 1.48012 0.439537 0
M  V30 5422 H 496.144 2.17053 3.48423 0
M  V30 5423 H 494.805 1.14499 2.92487 0
M  V30 5424 H 493.998 3.38398 3.73501 0
M  V30 5425 H 493.6 3.14938 2.01717 0
M  V30 5426 H 495.892 4.94486 4.6313 0
M  V30 5427 H 496.835 6.08554 3.62033 0
M  V30 5428 H 497.243 4.34409 3.60485 0
M  V30 5429 N 496.642 -0.504142 1.49319 0
M  V30 5430 C 497.867 -1.28729 1.62615 0
M  V30 5431 C 498.292 -1.85752 0.296309 0
M  V30 5432 O 497.65 -1.65704 -0.735649 0
M  V30 5433 C 497.698 -2.39561 2.69524 0
M  V30 5434 O 496.802 -3.43324 2.28478 0
M  V30 5435 H 496.143 -0.380172 0.544395 0
M  V30 5436 H 498.673 -0.603872 1.95485 0
M  V30 5437 H 498.683 -2.8537 2.91595 0
M  V30 5438 H 497.358 -1.97423 3.66056 0
M  V30 5439 H 495.935 -3.03455 2.16725 0
M  V30 5440 N 498.12 -1.38341 -0.754957 0
M  V30 5441 C 499.36 -1.35888 -1.52689 0
M  V30 5442 C 499.724 0.0513682 -1.91931 0
M  V30 5443 O 500.925 0.200761 -2.68049 0
M  V30 5444 C 499.196 -2.28666 -2.74676 0
M  V30 5445 S 500.755 -2.4422 -3.64558 0
M  V30 5446 H 497.573 -0.482165 -0.522531 0
M  V30 5447 H 500.175 -1.74253 -0.886358 0
M  V30 5448 H 498.879 -3.30023 -2.43953 0
M  V30 5449 H 498.41 -1.91445 -3.43675 0
M  V30 5450 H 500.425 -1.66525 -4.67423 0
M  V30 5451 N 499.598 0.982988 -1.23187 0
M  V30 5452 C 500.548 2.05962 -0.977942 0
M  V30 5453 C 501.532 1.60725 0.0751148 0
M  V30 5454 O 502.724 1.76471 -0.136683 0
M  V30 5455 C 499.853 3.38564 -0.568276 0
M  V30 5456 C 498.939 3.90407 -1.6566 0
M  V30 5457 N 499.33 4.15359 -2.88635 0
M  V30 5458 C 497.628 4.18915 -1.53058 0
M  V30 5459 C 498.329 4.57642 -3.5908 0
M  V30 5460 N 497.305 4.6192 -2.86584 0
M  V30 5461 H 501.107 2.23208 -1.91195 0
M  V30 5462 H 498.621 1.16555 -1.13087 0
M  V30 5463 H 500.618 4.15276 -0.36764 0
M  V30 5464 H 499.278 3.22712 0.358713 0
M  V30 5465 H 500.289 4.03258 -3.24966 0
M  V30 5466 H 496.966 4.12081 -0.670506 0
M  V30 5467 H 498.356 4.85488 -4.6449 0
M  V30 5468 N 501.076 1.04316 1.18135 0
M  V30 5469 C 502.323 0.74802 1.88178 0
M  V30 5470 C 502.651 -0.72441 1.80506 0
M  V30 5471 O 501.906 -1.54463 1.20165 0
M  V30 5472 C 502.205 1.16271 3.37958 0
M  V30 5473 C 501.871 2.63585 3.65833 0
M  V30 5474 C 500.533 3.03829 3.73151 0
M  V30 5475 C 502.885 3.58822 3.78016 0
M  V30 5476 C 500.213 4.38194 3.90132 0
M  V30 5477 C 502.565 4.92909 3.96514 0
M  V30 5478 C 501.229 5.3282 4.02068 0
M  V30 5479 H 500.499 0.27372 0.688592 0
M  V30 5480 H 503.146 1.30863 1.39811 0
M  V30 5481 H 501.451 0.520938 3.88321 0
M  V30 5482 H 503.148 0.911672 3.90499 0
M  V30 5483 H 499.738 2.31414 3.60757 0
M  V30 5484 H 503.922 3.28875 3.71692 0
M  V30 5485 H 499.178 4.68631 3.92677 0
M  V30 5486 H 503.352 5.66606 4.04883 0
M  V30 5487 H 500.979 6.36943 4.14979 0
M  V30 5488 N 502.554 -1.34406 0.822964 0
M  V30 5489 C 503.486 -2.28305 0.202375 0
M  V30 5490 C 504.499 -1.5103 -0.60777 0
M  V30 5491 O 505.688 -1.73057 -0.437444 0
M  V30 5492 C 502.788 -3.30836 -0.734911 0
M  V30 5493 C 501.961 -4.37388 0.0324177 0
M  V30 5494 C 501.02 -5.1968 -0.825803 0
M  V30 5495 O 500.046 -5.68556 -0.270771 0
M  V30 5496 N 501.248 -5.39393 -2.14558 0
M  V30 5497 H 504.013 -2.82201 1.00909 0
M  V30 5498 H 501.574 -1.4693 0.67993 0
M  V30 5499 H 503.566 -3.82786 -1.31365 0
M  V30 5500 H 502.136 -2.77334 -1.44238 0
M  V30 5501 H 501.356 -3.86152 0.792469 0
M  V30 5502 H 502.644 -5.05702 0.560633 0
M  V30 5503 H 502.042 -5.01357 -2.62025 0
M  V30 5504 H 500.599 -5.94461 -2.67318 0
M  V30 5505 N 504.032 -0.577932 -1.46621 0
M  V30 5506 C 504.964 0.195801 -2.28362 0
M  V30 5507 C 505.977 0.859983 -1.38232 0
M  V30 5508 O 507.166 0.730349 -1.62875 0
M  V30 5509 C 504.266 1.29639 -3.13124 0
M  V30 5510 C 503.439 0.725049 -4.31349 0
M  V30 5511 C 502.498 1.71274 -4.97546 0
M  V30 5512 O 501.524 1.25067 -5.5529 0
M  V30 5513 N 502.726 3.04672 -4.94121 0
M  V30 5514 H 505.491 -0.505468 -2.95407 0
M  V30 5515 H 503.052 -0.415381 -1.56481 0
M  V30 5516 H 505.044 1.95631 -3.54275 0
M  V30 5517 H 503.614 1.90059 -2.48186 0
M  V30 5518 H 502.834 -0.112205 -3.9404 0
M  V30 5519 H 504.122 0.323034 -5.07774 0
M  V30 5520 H 503.52 3.4484 -4.48444 0
M  V30 5521 H 502.077 3.66166 -5.39227 0
M  V30 5522 N 505.51 1.54411 -0.315457 0
M  V30 5523 C 506.756 2.00716 0.289972 0
M  V30 5524 C 507.089 1.2034 1.5242 0
M  V30 5525 O 506.364 0.283579 1.92422 0
M  V30 5526 C 506.647 3.54507 0.632196 0
M  V30 5527 C 506.5 4.45615 -0.61218 0
M  V30 5528 C 507.819 4.15421 1.45305 0
M  V30 5529 H 504.938 0.729637 0.10392 0
M  V30 5530 H 507.58 1.8506 -0.430427 0
M  V30 5531 H 505.73 3.67979 1.24595 0
M  V30 5532 H 507.402 4.44026 -1.25053 0
M  V30 5533 H 505.645 4.15621 -1.24264 0
M  V30 5534 H 506.316 5.51022 -0.328379 0
M  V30 5535 H 508.792 4.05474 0.934331 0
M  V30 5536 H 507.668 5.23157 1.66127 0
M  V30 5537 H 507.929 3.68223 2.44671 0
M  V30 5538 N 506.988 0.0434614 1.5754 0
M  V30 5539 C 507.935 -0.93356 2.11077 0
M  V30 5540 C 508.905 -1.31383 1.01626 0
M  V30 5541 O 510.09 -1.40465 1.29129 0
M  V30 5542 C 507.23 -2.20578 2.65404 0
M  V30 5543 C 506.343 -1.88068 3.88914 0
M  V30 5544 C 505.478 -3.09691 4.31584 0
M  V30 5545 C 504.517 -2.73067 5.47815 0
M  V30 5546 N 503.654 -3.87359 5.85574 0
M  V30 5547 H 508.494 -0.470118 2.94268 0
M  V30 5548 H 506.031 -0.220434 1.45439 0
M  V30 5549 H 507.989 -2.95011 2.94999 0
M  V30 5550 H 506.619 -2.64513 1.85021 0
M  V30 5551 H 505.671 -1.03816 3.6596 0
M  V30 5552 H 506.983 -1.57104 4.73413 0
M  V30 5553 H 506.137 -3.92431 4.62691 0
M  V30 5554 H 504.876 -3.43827 3.45882 0
M  V30 5555 H 503.881 -1.88742 5.16388 0
M  V30 5556 H 505.106 -2.40131 6.35227 0
M  V30 5557 H 503.052 -4.21311 5.02825 0
M  V30 5558 H 502.969 -3.60068 6.64746 0
M  V30 5559 H 504.237 -4.70761 6.21292 0
M  V30 5560 N 508.466 -1.55915 -0.229846 0
M  V30 5561 C 509.694 -1.82617 -0.972562 0
M  V30 5562 C 510.109 -0.621488 -1.78278 0
M  V30 5563 O 509.466 0.409956 -1.77836 0
M  V30 5564 C 509.517 -3.0774 -1.89679 0
M  V30 5565 O 509.238 -4.23559 -1.11934 0
M  V30 5566 C 510.739 -3.47368 -2.75409 0
M  V30 5567 H 507.959 -0.60727 -0.285419 0
M  V30 5568 H 510.503 -2.02996 -0.247579 0
M  V30 5569 H 508.658 -2.89361 -2.57583 0
M  V30 5570 H 509.072 -4.94586 -1.74599 0
M  V30 5571 H 510.546 -4.37977 -3.35977 0
M  V30 5572 H 511.023 -2.68737 -3.47386 0
M  V30 5573 H 511.629 -3.68158 -2.12931 0
M  V30 5574 N 509.944 0.496216 -1.49584 0
M  V30 5575 C 510.877 1.61508 -1.61215 0
M  V30 5576 C 511.855 1.55927 -0.461045 0
M  V30 5577 O 513.039 1.75914 -0.677231 0
M  V30 5578 C 510.166 3.00035 -1.57152 0
M  V30 5579 C 509.212 3.23861 -2.77518 0
M  V30 5580 S 510.045 3.06466 -4.39134 0
M  V30 5581 C 511.201 4.4738 -4.37724 0
M  V30 5582 H 511.434 1.51398 -2.55863 0
M  V30 5583 H 508.967 0.681727 -1.38535 0
M  V30 5584 H 510.925 3.7991 -1.55494 0
M  V30 5585 H 509.586 3.07556 -0.637834 0
M  V30 5586 H 508.779 4.25 -2.70908 0
M  V30 5587 H 508.381 2.51716 -2.76614 0
M  V30 5588 H 510.673 5.39556 -4.09738 0
M  V30 5589 H 511.616 4.59038 -5.39156 0
M  V30 5590 H 512.024 4.28283 -3.67742 0
M  V30 5591 N 511.423 1.38739 0.74761 0
M  V30 5592 C 512.37 1.36449 1.86146 0
M  V30 5593 C 513.34 0.226098 1.64554 0
M  V30 5594 O 514.525 0.41926 1.86137 0
M  V30 5595 C 511.665 1.2013 3.23516 0
M  V30 5596 C 510.778 2.43407 3.56899 0
M  V30 5597 C 509.913 2.19773 4.83605 0
M  V30 5598 C 508.952 3.3879 5.09792 0
M  V30 5599 N 508.089 3.14553 6.27695 0
M  V30 5600 H 512.929 2.3167 1.87438 0
M  V30 5601 H 510.466 1.15094 0.916063 0
M  V30 5602 H 512.424 1.08683 4.02795 0
M  V30 5603 H 511.054 0.285453 3.21535 0
M  V30 5604 H 510.106 2.65504 2.72418 0
M  V30 5605 H 511.418 3.32094 3.72176 0
M  V30 5606 H 510.572 2.05496 5.70838 0
M  V30 5607 H 509.311 1.28461 4.70478 0
M  V30 5608 H 508.316 3.53579 4.21025 0
M  V30 5609 H 509.541 4.30986 5.24812 0
M  V30 5610 H 507.487 2.25893 6.1588 0
M  V30 5611 H 507.404 3.96791 6.435 0
M  V30 5612 H 508.672 3.03943 7.17801 0
M  V30 5613 N 512.901 -0.976442 1.23707 0
M  V30 5614 C 514.129 -1.75341 1.09833 0
M  V30 5615 C 514.544 -1.8553 -0.349885 0
M  V30 5616 O 513.901 -1.33732 -1.24185 0
M  V30 5617 C 513.952 -3.17833 1.72233 0
M  V30 5618 O 513.673 -3.08167 3.11391 0
M  V30 5619 C 515.174 -4.11906 1.63853 0
M  V30 5620 H 512.394 -0.550137 0.384175 0
M  V30 5621 H 514.938 -1.2265 1.63638 0
M  V30 5622 H 513.093 -3.67538 1.22452 0
M  V30 5623 H 513.507 -3.97897 3.41729 0
M  V30 5624 H 514.981 -5.09579 2.12211 0
M  V30 5625 H 515.458 -4.35109 0.598092 0
M  V30 5626 H 516.064 -3.68107 2.13019 0
M  V30 5627 N 514.379 -1.04941 -1.1758 0
M  V30 5628 C 515.342 -0.652456 -2.19717 0
M  V30 5629 C 516.342 0.294745 -1.58076 0
M  V30 5630 O 517.532 0.0789579 -1.74021 0
M  V30 5631 C 514.664 0.0420712 -3.40874 0
M  V30 5632 H 515.857 -1.55642 -2.5635 0
M  V30 5633 H 513.41 -0.842995 -1.31618 0
M  V30 5634 H 514.145 0.95943 -3.09783 0
M  V30 5635 H 513.93 -0.638844 -3.86861 0
M  V30 5636 H 515.42 0.306 -4.16477 0
M  V30 5637 N 515.857 1.33968 -0.830081 0
M  V30 5638 C 516.787 2.31911 -0.271911 0
M  V30 5639 C 517.768 1.58571 0.61556 0
M  V30 5640 O 518.953 1.86514 0.540946 0
M  V30 5641 C 516.083 3.42737 0.561146 0
M  V30 5642 C 515.037 4.27383 -0.229789 0
M  V30 5643 C 514.363 5.29742 0.726463 0
M  V30 5644 C 515.663 5.02 -1.44197 0
M  V30 5645 H 517.357 2.78844 -1.09025 0
M  V30 5646 H 514.903 1.34061 -0.52571 0
M  V30 5647 H 516.856 4.10276 0.961867 0
M  V30 5648 H 515.58 2.94471 1.41261 0
M  V30 5649 H 514.239 3.61456 -0.611964 0
M  V30 5650 H 513.887 4.77736 1.57408 0
M  V30 5651 H 513.587 5.87255 0.20142 0
M  V30 5652 H 515.111 6.00149 1.12489 0
M  V30 5653 H 516.525 5.62355 -1.11488 0
M  V30 5654 H 514.922 5.69122 -1.90317 0
M  V30 5655 H 515.992 4.31281 -2.2164 0
M  V30 5656 N 517.335 0.585699 1.46312 0
M  V30 5657 C 518.267 -0.183687 2.28463 0
M  V30 5658 C 519.28 -0.85264 1.38686 0
M  V30 5659 O 520.469 -0.721701 1.6326 0
M  V30 5660 C 517.569 -1.27977 3.13808 0
M  V30 5661 C 516.742 -0.702164 4.31727 0
M  V30 5662 C 515.801 -1.68633 4.98447 0
M  V30 5663 O 514.827 -1.22121 5.55945 0
M  V30 5664 N 516.029 -3.02047 4.95729 0
M  V30 5665 H 518.794 0.521127 2.95134 0
M  V30 5666 H 516.355 0.423673 1.56258 0
M  V30 5667 H 518.347 -1.9375 3.55307 0
M  V30 5668 H 516.917 -1.8874 2.4919 0
M  V30 5669 H 516.137 0.1331 3.93975 0
M  V30 5670 H 517.425 -0.296101 5.07938 0
M  V30 5671 H 516.823 -3.42457 4.50266 0
M  V30 5672 H 515.38 -3.63301 5.41161 0
M  V30 5673 N 518.813 -1.54241 0.323641 0
M  V30 5674 C 519.745 -2.21836 -0.576311 0
M  V30 5675 C 520.758 -1.21837 -1.07979 0
M  V30 5676 O 521.947 -1.48306 -0.99336 0
M  V30 5677 C 519.047 -2.86923 -1.80356 0
M  V30 5678 C 518.22 -4.1306 -1.43875 0
M  V30 5679 C 517.279 -4.6174 -2.52353 0
M  V30 5680 O 516.305 -5.26421 -2.16494 0
M  V30 5681 N 517.507 -4.35974 -3.83284 0
M  V30 5682 H 520.272 -2.997 0.00247987 0
M  V30 5683 H 517.833 -1.61233 0.146848 0
M  V30 5684 H 519.825 -3.16414 -2.52318 0
M  V30 5685 H 518.395 -2.12765 -2.29019 0
M  V30 5686 H 517.615 -3.90334 -0.550752 0
M  V30 5687 H 518.903 -4.95148 -1.17071 0
M  V30 5688 H 518.301 -3.84203 -4.15216 0
M  V30 5689 H 516.858 -4.70119 -4.51477 0
M  V30 5690 N 520.291 -0.0518155 -1.57515 0
M  V30 5691 C 521.221 0.920283 -2.146 0
M  V30 5692 C 522.202 1.32406 -1.06783 0
M  V30 5693 O 523.387 1.39866 -1.34726 0
M  V30 5694 C 520.517 2.1949 -2.6915 0
M  V30 5695 C 519.471 1.93116 -3.81956 0
M  V30 5696 C 518.797 3.27037 -4.23026 0
M  V30 5697 C 520.097 1.25225 -5.07066 0
M  V30 5698 H 521.791 0.444801 -2.96077 0
M  V30 5699 H 519.337 0.212508 -1.42423 0
M  V30 5700 H 521.29 2.87894 -3.07725 0
M  V30 5701 H 520.014 2.69244 -1.84865 0
M  V30 5702 H 518.673 1.27123 -3.43854 0
M  V30 5703 H 518.321 3.74595 -3.3569 0
M  V30 5704 H 518.021 3.10189 -4.99056 0
M  V30 5705 H 519.545 3.96673 -4.64202 0
M  V30 5706 H 520.959 1.83666 -5.43083 0
M  V30 5707 H 519.356 1.18702 -5.88243 0
M  V30 5708 H 520.426 0.228382 -4.84362 0
M  V30 5709 N 521.769 1.56035 0.221574 0
M  V30 5710 C 522.679 1.95581 1.29558 0
M  V30 5711 C 523.695 0.859639 1.51282 0
M  V30 5712 O 524.871 1.16321 1.64413 0
M  V30 5713 C 521.936 2.26447 2.62531 0
M  V30 5714 C 520.997 3.49632 2.4911 0
M  V30 5715 C 520.23 3.79017 3.75742 0
M  V30 5716 O 520.453 3.10077 4.78757 0
M  V30 5717 O 519.387 4.72507 3.72855 0
M  V30 5718 H 523.213 2.8711 0.990035 0
M  V30 5719 H 520.798 1.43244 0.424434 0
M  V30 5720 H 522.68 2.47494 3.41064 0
M  V30 5721 H 521.355 1.38092 2.92766 0
M  V30 5722 H 520.262 3.33864 1.68777 0
M  V30 5723 H 521.595 4.3837 2.23814 0
M  V30 5724 N 523.247 -0.488276 1.49845 0
M  V30 5725 C 524.663 -0.820566 1.3689 0
M  V30 5726 C 524.863 -1.97248 0.411752 0
M  V30 5727 O 523.919 -2.52042 -0.151931 0
M  V30 5728 C 525.232 -1.1488 2.77891 0
M  V30 5729 C 526.78 -1.25626 2.86683 0
M  V30 5730 C 527.255 -1.61772 4.28479 0
M  V30 5731 N 528.746 -1.68797 4.31349 0
M  V30 5732 C 529.481 -1.98235 5.38043 0
M  V30 5733 N 528.977 -2.2581 6.54967 0
M  V30 5734 N 530.77 -1.99593 5.2547 0
M  V30 5735 H 522.921 0.271123 2.10662 0
M  V30 5736 H 525.184 0.058735 0.946179 0
M  V30 5737 H 524.89 -0.375614 3.49688 0
M  V30 5738 H 524.764 -2.08919 3.14058 0
M  V30 5739 H 527.151 -2.02014 2.15114 0
M  V30 5740 H 527.232 -0.296072 2.54081 0
M  V30 5741 H 526.876 -0.859295 5.00578 0
M  V30 5742 H 526.806 -2.58912 4.58554 0
M  V30 5743 H 529.297 -1.49595 3.4703 0
M  V30 5744 H 529.61 -2.47497 7.32096 0
M  V30 5745 H 527.955 -2.23239 6.58171 0
M  V30 5746 H 531.146 -1.77535 4.33127 0
M  V30 5747 H 531.319 -2.222 6.08713 0
M  V30 5748 N 524.725 -1.39134 -0.740242 0
M  V30 5749 C 525.974 -1.35384 -1.49512 0
M  V30 5750 C 526.287 0.04919 -1.95538 0
M  V30 5751 O 527.493 0.209257 -2.70692 0
M  V30 5752 C 525.949 -2.37812 -2.70136 0
M  V30 5753 C 525.557 -3.83804 -2.31081 0
M  V30 5754 C 527.301 -2.4313 -3.47977 0
M  V30 5755 C 525.208 -4.77886 -3.48395 0
M  V30 5756 H 524.138 -0.503297 -0.561434 0
M  V30 5757 H 526.789 -1.64754 -0.807974 0
M  V30 5758 H 525.171 -2.01505 -3.40899 0
M  V30 5759 H 526.345 -4.29123 -1.67898 0
M  V30 5760 H 524.66 -3.81732 -1.66343 0
M  V30 5761 H 527.257 -3.10614 -4.35228 0
M  V30 5762 H 527.6 -1.45423 -3.90074 0
M  V30 5763 H 528.133 -2.78304 -2.84239 0
M  V30 5764 H 524.872 -5.76836 -3.11353 0
M  V30 5765 H 524.392 -4.3725 -4.10576 0
M  V30 5766 H 526.071 -4.96538 -4.148 0
M  V30 5767 N 526.204 0.969867 -1.24223 0
M  V30 5768 C 527.481 1.68774 -0.988664 0
M  V30 5769 C 527.861 2.05342 0.489673 0
M  V30 5770 O 527.209 1.75486 1.46345 0
M  V30 5771 C 527.419 2.92135 -1.90941 0
M  V30 5772 C 528.767 3.64422 -2.17903 0
M  V30 5773 O 529.791 3.02188 -1.88576 0
M  V30 5774 O 528.65 4.76446 -2.67697 0
M  V30 5775 H 525.744 0.737736 -0.37373 0
M  V30 5776 H 528.29 1.02415 -1.35312 0
M  V30 5777 H 527.062 2.61788 -2.90831 0
M  V30 5778 H 526.685 3.66228 -1.54798 0
M  V30 5779 N 527.682 1.05563 1.17022 0
M  V30 5780 C 528.629 0.659893 2.21165 0
M  V30 5781 C 529.599 -0.339813 1.62587 0
M  V30 5782 O 530.784 -0.230378 1.89404 0
M  V30 5783 C 527.924 0.0447297 3.45071 0
M  V30 5784 C 527.037 1.09372 4.17926 0
M  V30 5785 C 526.172 0.445481 5.29329 0
M  V30 5786 C 525.211 1.47852 5.93975 0
M  V30 5787 N 524.348 0.854172 6.96885 0
M  V30 5788 H 529.188 1.55243 2.54369 0
M  V30 5789 H 526.725 0.776336 1.24946 0
M  V30 5790 H 528.683 -0.329404 4.15898 0
M  V30 5791 H 527.313 -0.811244 3.1244 0
M  V30 5792 H 526.365 1.58564 3.45777 0
M  V30 5793 H 527.677 1.87773 4.62107 0
M  V30 5794 H 526.831 0.0179688 6.06697 0
M  V30 5795 H 525.57 -0.370481 4.86291 0
M  V30 5796 H 524.575 1.91601 5.15334 0
M  V30 5797 H 525.8 2.29645 6.39093 0
M  V30 5798 H 523.746 0.0587882 6.55974 0
M  V30 5799 H 523.663 1.57567 7.39397 0
M  V30 5800 H 524.931 0.451559 7.78191 0
M  V30 5801 N 529.16 -1.33526 0.837174 0
M  V30 5802 C 530.571 -1.80182 0.489017 0
M  V30 5803 C 530.922 -1.69285 -0.991826 0
M  V30 5804 O 530.047 -1.24113 -1.77271 0
M  V30 5805 C 530.642 -3.27149 0.880866 0
M  V30 5806 C 529.201 -3.71828 0.584872 0
M  V30 5807 C 528.348 -2.54974 1.09011 0
M  V30 5808 H 531.299 -1.21071 1.02603 0
M  V30 5809 H 531.32 -3.80024 0.190239 0
M  V30 5810 H 530.832 -3.35048 1.95869 0
M  V30 5811 H 528.933 -3.69457 -0.48295 0
M  V30 5812 H 529.046 -4.65366 1.13892 0
M  V30 5813 H 527.41 -2.4952 0.511047 0
M  V30 5814 H 528.193 -2.65637 2.17467 0
M  V30 5815 N 530.638 -0.59345 -1.46 0
M  V30 5816 C 531.585 0.133618 -2.30413 0
M  V30 5817 C 532.555 0.873736 -1.41262 0
M  V30 5818 O 533.74 0.862279 -1.70204 0
M  V30 5819 C 530.88 1.13434 -3.25924 0
M  V30 5820 C 529.993 0.39656 -4.30176 0
M  V30 5821 C 529.128 1.38575 -5.12806 0
M  V30 5822 C 528.167 0.634984 -6.08797 0
M  V30 5823 N 527.304 1.57276 -6.84258 0
M  V30 5824 H 532.144 -0.592252 -2.92055 0
M  V30 5825 H 529.681 -0.303874 -1.43927 0
M  V30 5826 H 531.639 1.72752 -3.79753 0
M  V30 5827 H 530.269 1.82779 -2.66067 0
M  V30 5828 H 529.321 -0.311861 -3.79119 0
M  V30 5829 H 530.633 -0.189869 -4.98438 0
M  V30 5830 H 529.787 2.05141 -5.70966 0
M  V30 5831 H 528.526 2.00611 -4.44529 0
M  V30 5832 H 527.531 -0.0443925 -5.49782 0
M  V30 5833 H 528.756 0.0198678 -6.79097 0
M  V30 5834 H 526.702 2.18103 -6.18682 0
M  V30 5835 H 526.619 1.03941 -7.48821 0
M  V30 5836 H 527.887 2.22844 -7.46968 0
M  V30 5837 N 532.116 1.54067 -0.331816 0
M  V30 5838 C 533.079 2.23275 0.517768 0
M  V30 5839 C 534.079 1.22897 1.03697 0
M  V30 5840 O 535.269 1.47419 0.928084 0
M  V30 5841 C 532.401 2.94326 1.72004 0
M  V30 5842 H 533.594 2.99773 -0.0873507 0
M  V30 5843 H 531.147 1.56079 -0.0830042 0
M  V30 5844 H 531.882 2.21986 2.36417 0
M  V30 5845 H 531.667 3.67941 1.35507 0
M  V30 5846 H 533.157 3.47031 2.32291 0
M  V30 5847 N 533.594 0.0601682 1.57485 0
M  V30 5848 C 534.524 -0.90889 2.15085 0
M  V30 5849 C 535.505 -1.31838 1.07484 0
M  V30 5850 O 536.69 -1.3915 1.35466 0
M  V30 5851 C 533.82 -2.18059 2.7031 0
M  V30 5852 C 532.774 -1.91088 3.82974 0
M  V30 5853 C 532.1 -3.24789 4.24754 0
M  V30 5854 C 533.4 -1.22535 5.07723 0
M  V30 5855 H 535.094 -0.429093 2.96309 0
M  V30 5856 H 532.64 -0.204952 1.42534 0
M  V30 5857 H 534.593 -2.86258 3.09248 0
M  V30 5858 H 533.317 -2.6826 1.8629 0
M  V30 5859 H 531.976 -1.25297 3.44523 0
M  V30 5860 H 531.624 -3.72809 3.37672 0
M  V30 5861 H 531.324 -3.07538 5.00694 0
M  V30 5862 H 532.848 -3.94205 4.66299 0
M  V30 5863 H 534.262 -1.80783 5.4405 0
M  V30 5864 H 532.659 -1.1558 5.88864 0
M  V30 5865 H 533.729 -0.202692 4.84476 0
M  V30 5866 N 535.072 -1.5615 -0.213296 0
M  V30 5867 C 536.297 -1.83986 -0.957282 0
M  V30 5868 C 536.722 -0.641526 -1.76822 0
M  V30 5869 O 536.08 0.409722 -1.7661 0
M  V30 5870 C 536.128 -3.09889 -1.84393 0
M  V30 5871 O 535.232 -2.89163 -2.94038 0
M  V30 5872 H 534.573 -0.606357 -0.270605 0
M  V30 5873 H 537.103 -2.03369 -0.224111 0
M  V30 5874 H 537.113 -3.40209 -2.25215 0
M  V30 5875 H 535.788 -3.96735 -1.24795 0
M  V30 5876 H 534.365 -2.70097 -2.57103 0
M  V30 5877 N 536.55 0.480323 -1.50102 0
M  V30 5878 C 537.48 1.58769 -1.71215 0
M  V30 5879 C 538.461 1.60583 -0.560997 0
M  V30 5880 O 539.646 1.76996 -0.799127 0
M  V30 5881 C 536.776 2.97148 -1.79778 0
M  V30 5882 C 535.73 3.10201 -2.94888 0
M  V30 5883 C 535.056 4.50137 -2.88584 0
M  V30 5884 C 536.356 2.88283 -4.35534 0
M  V30 5885 H 538.05 1.41354 -2.6393 0
M  V30 5886 H 535.596 0.678591 -1.27008 0
M  V30 5887 H 537.549 3.74536 -1.93133 0
M  V30 5888 H 536.273 3.15699 -0.836772 0
M  V30 5889 H 534.932 2.35244 -2.81169 0
M  V30 5890 H 534.58 4.65593 -1.90349 0
M  V30 5891 H 534.28 4.59808 -3.65856 0
M  V30 5892 H 535.804 5.29558 -3.03976 0
M  V30 5893 H 537.218 3.55427 -4.49827 0
M  V30 5894 H 535.615 3.09408 -5.14186 0
M  V30 5895 H 536.685 1.84219 -4.48544 0
M  V30 5896 N 538.028 1.39524 0.732853 0
M  V30 5897 C 538.958 1.41153 1.86005 0
M  V30 5898 C 539.939 0.274614 1.67869 0
M  V30 5899 O 541.124 0.480745 1.88155 0
M  V30 5900 C 538.254 1.25638 3.23778 0
M  V30 5901 C 537.208 2.36752 3.56556 0
M  V30 5902 C 536.534 2.06326 4.93289 0
M  V30 5903 C 537.834 3.79069 3.5931 0
M  V30 5904 H 539.528 2.35484 1.84899 0
M  V30 5905 H 537.074 1.13348 0.888162 0
M  V30 5906 H 539.027 1.25398 4.0231 0
M  V30 5907 H 537.751 0.277772 3.25417 0
M  V30 5908 H 536.41 2.36213 2.80355 0
M  V30 5909 H 536.058 1.06897 4.9151 0
M  V30 5910 H 535.758 2.80757 5.16187 0
M  V30 5911 H 537.282 2.07739 5.74175 0
M  V30 5912 H 538.696 3.81526 4.27914 0
M  V30 5913 H 537.093 4.52878 3.93728 0
M  V30 5914 H 538.163 4.09893 2.59068 0
M  V30 5915 N 539.506 -0.963266 1.24736 0
M  V30 5916 C 540.436 -2.07628 1.06832 0
M  V30 5917 C 541.417 -1.70088 -0.0200566 0
M  V30 5918 O 542.602 -1.93636 0.147854 0
M  V30 5919 C 539.732 -3.40636 0.677069 0
M  V30 5920 C 538.686 -3.9215 1.71471 0
M  V30 5921 C 538.012 -5.21553 1.1784 0
M  V30 5922 C 539.312 -4.19493 3.11164 0
M  V30 5923 H 541.006 -2.22864 1.9993 0
M  V30 5924 H 538.552 -1.07093 0.96266 0
M  V30 5925 H 540.505 -4.17941 0.538792 0
M  V30 5926 H 539.229 -3.25313 -0.289612 0
M  V30 5927 H 537.888 -3.17005 1.84128 0
M  V30 5928 H 537.536 -5.02593 0.202195 0
M  V30 5929 H 537.236 -5.56988 1.87185 0
M  V30 5930 H 538.76 -6.01463 1.05233 0
M  V30 5931 H 540.174 -4.87487 3.01711 0
M  V30 5932 H 538.571 -4.66165 3.77902 0
M  V30 5933 H 539.641 -3.26097 3.58871 0
M  V30 5934 N 540.985 -1.06182 -1.16461 0
M  V30 5935 C 541.935 -0.641619 -2.18786 0
M  V30 5936 C 542.919 0.327122 -1.5754 0
M  V30 5937 O 544.111 0.142746 -1.76423 0
M  V30 5938 C 541.24 -0.0283734 -3.43288 0
M  V30 5939 C 540.326 -1.02154 -4.11613 0
M  V30 5940 N 540.717 -2.19671 -4.55608 0
M  V30 5941 C 539.015 -0.852229 -4.37782 0
M  V30 5942 C 539.716 -2.82583 -5.0845 0
M  V30 5943 N 538.692 -2.10318 -5.01266 0
M  V30 5944 H 542.494 -1.53684 -2.50516 0
M  V30 5945 H 540.008 -0.933349 -1.329 0
M  V30 5946 H 542.005 0.29049 -4.15887 0
M  V30 5947 H 540.665 0.862118 -3.13046 0
M  V30 5948 H 541.676 -2.57453 -4.49375 0
M  V30 5949 H 538.353 -0.0136314 -4.17498 0
M  V30 5950 H 539.743 -3.82298 -5.52538 0
M  V30 5951 N 542.463 1.3308 -0.844243 0
M  V30 5952 C 543.426 2.27403 -0.286485 0
M  V30 5953 C 544.426 1.51179 0.547872 0
M  V30 5954 O 545.616 1.70421 0.360886 0
M  V30 5955 C 542.748 3.35653 0.595813 0
M  V30 5956 H 543.941 2.78248 -1.11885 0
M  V30 5957 H 541.494 1.43574 -0.617749 0
M  V30 5958 H 542.229 2.90058 1.4504 0
M  V30 5959 H 542.014 3.921 -0.00125994 0
M  V30 5960 H 543.504 4.05958 0.979168 0
M  V30 5961 N 543.941 0.601185 1.45683 0
M  V30 5962 C 544.904 -0.111398 2.28929 0
M  V30 5963 C 545.904 -0.801246 1.39416 0
M  V30 5964 O 547.094 -0.650383 1.61603 0
M  V30 5965 C 544.226 -1.16773 3.20276 0
M  V30 5966 H 545.419 0.620412 2.93413 0
M  V30 5967 H 542.972 0.359946 1.52099 0
M  V30 5968 H 543.707 -1.93051 2.60579 0
M  V30 5969 H 543.492 -0.677358 3.86205 0
M  V30 5970 H 544.982 -1.66698 3.82886 0
M  V30 5971 N 545.419 -1.53889 0.339982 0
M  V30 5972 C 546.696 -1.93084 -0.312719 0
M  V30 5973 C 547.076 -1.2712 -1.68534 0
M  V30 5974 O 546.424 -0.420835 -2.24591 0
M  V30 5975 C 546.634 -3.4683 -0.388558 0
M  V30 5976 C 547.982 -4.19732 -0.641088 0
M  V30 5977 O 549.006 -3.53075 -0.470818 0
M  V30 5978 O 547.865 -5.3781 -0.970685 0
M  V30 5979 H 544.959 -0.806784 -0.18174 0
M  V30 5980 H 547.505 -1.65137 0.390898 0
M  V30 5981 H 546.277 -3.87055 0.574821 0
M  V30 5982 H 545.9 -3.80933 -1.1391 0
M  V30 5983 N 546.897 -0.0685191 -1.57451 0
M  V30 5984 C 548.146 0.600898 -1.92541 0
M  V30 5985 C 548.459 1.70967 -0.950239 0
M  V30 5986 O 549.665 2.43844 -1.19384 0
M  V30 5987 C 548.121 1.12019 -3.42023 0
M  V30 5988 C 547.729 0.0426028 -4.4798 0
M  V30 5989 C 549.473 1.76386 -3.86119 0
M  V30 5990 C 547.38 0.575759 -5.88591 0
M  V30 5991 H 546.31 0.228225 -0.71863 0
M  V30 5992 H 548.961 -0.140223 -1.82963 0
M  V30 5993 H 547.343 1.91418 -3.46663 0
M  V30 5994 H 548.517 -0.73182 -4.54952 0
M  V30 5995 H 546.832 -0.504642 -4.13331 0
M  V30 5996 H 549.429 2.17302 -4.88553 0
M  V30 5997 H 549.772 2.62255 -3.23308 0
M  V30 5998 H 550.305 1.03615 -3.84069 0
M  V30 5999 H 547.044 -0.245691 -6.55039 0
M  V30 6000 H 546.564 1.31778 -5.85145 0
M  V30 6001 H 548.243 1.0532 -6.3837 0
M  V30 6002 N 548.375 1.56261 0.205012 0
M  V30 6003 C 549.6 1.84491 0.947512 0
M  V30 6004 C 550.025 0.650894 1.76479 0
M  V30 6005 O 549.383 -0.40035 1.76824 0
M  V30 6006 C 549.431 3.10863 1.82747 0
M  V30 6007 O 548.535 2.90719 2.925 0
M  V30 6008 H 547.876 0.607783 0.267386 0
M  V30 6009 H 550.406 2.03485 0.213323 0
M  V30 6010 H 550.416 3.41399 2.23407 0
M  V30 6011 H 549.091 3.97392 1.2269 0
M  V30 6012 H 547.668 2.71457 2.55667 0
M  V30 6013 N 549.853 -0.472356 1.50355 0
M  V30 6014 C 550.803 -1.56809 1.65514 0
M  V30 6015 C 551.787 -1.5261 0.509801 0
M  V30 6016 O 552.979 -1.59655 0.764145 0
M  V30 6017 C 550.108 -2.9526 1.75146 0
M  V30 6018 C 549.194 -3.04348 2.95353 0
M  V30 6019 N 549.585 -2.83253 4.19048 0
M  V30 6020 C 547.883 -3.35482 2.93884 0
M  V30 6021 C 548.584 -2.97273 5.00003 0
M  V30 6022 N 547.56 -3.27418 4.33934 0
M  V30 6023 H 551.362 -1.39197 2.58846 0
M  V30 6024 H 548.876 -0.67906 1.47521 0
M  V30 6025 H 550.873 -3.74044 1.8411 0
M  V30 6026 H 549.533 -3.1392 0.829717 0
M  V30 6027 H 550.544 -2.5886 4.48567 0
M  V30 6028 H 547.221 -3.60138 2.11204 0
M  V30 6029 H 548.611 -2.85214 6.08361 0
M  V30 6030 N 551.331 -1.39911 -0.725443 0
M  V30 6031 C 552.742 -1.33599 -1.30415 0
M  V30 6032 C 553.093 -0.00481792 -1.96199 0
M  V30 6033 O 552.218 0.897275 -1.96921 0
M  V30 6034 C 552.813 -2.41965 -2.37146 0
M  V30 6035 C 551.372 -2.39144 -2.90667 0
M  V30 6036 C 550.519 -2.23355 -1.64341 0
M  V30 6037 H 553.47 -1.4986 -0.522267 0
M  V30 6038 H 553.491 -2.09304 -3.17761 0
M  V30 6039 H 553.003 -3.38837 -1.89238 0
M  V30 6040 H 551.104 -1.4594 -3.4283 0
M  V30 6041 H 551.217 -3.34362 -3.43131 0
M  V30 6042 H 549.581 -1.70696 -1.89037 0
M  V30 6043 H 550.364 -3.2221 -1.18471 0
M  V30 6044 N 552.809 0.956637 -1.25245 0
M  V30 6045 C 554.037 1.73571 -1.12608 0
M  V30 6046 C 554.452 1.86063 0.320324 0
M  V30 6047 O 553.809 1.35691 1.22042 0
M  V30 6048 C 553.86 3.15053 -1.77268 0
M  V30 6049 O 553.581 3.03174 -3.16255 0
M  V30 6050 C 555.082 4.09248 -1.70386 0
M  V30 6051 H 552.302 0.543955 -0.392879 0
M  V30 6052 H 554.846 1.20031 -1.65568 0
M  V30 6053 H 553.001 3.65543 -1.28284 0
M  V30 6054 H 553.415 3.9241 -3.48015 0
M  V30 6055 H 554.889 5.06138 -2.20291 0
M  V30 6056 H 555.366 4.34102 -0.667239 0
M  V30 6057 H 555.972 3.64672 -2.18849 0
M  V30 6058 N 554.287 1.06798 1.15896 0
M  V30 6059 C 555.234 0.683314 2.20453 0
M  V30 6060 C 556.204 -0.32255 1.62938 0
M  V30 6061 O 557.389 -0.210276 1.89638 0
M  V30 6062 C 554.529 0.0813266 3.45004 0
M  V30 6063 C 553.642 1.13799 4.16742 0
M  V30 6064 C 552.777 0.501598 5.28826 0
M  V30 6065 C 551.816 1.54144 5.92373 0
M  V30 6066 N 550.953 0.928038 6.9594 0
M  V30 6067 H 555.793 1.57932 2.52708 0
M  V30 6068 H 553.33 0.789544 1.24115 0
M  V30 6069 H 555.288 -0.285274 4.16224 0
M  V30 6070 H 553.918 -0.77806 3.13283 0
M  V30 6071 H 552.97 1.62223 3.44075 0
M  V30 6072 H 554.282 1.92664 4.60089 0
M  V30 6073 H 553.436 0.0823162 6.06644 0
M  V30 6074 H 552.175 -0.318883 4.86656 0
M  V30 6075 H 551.18 1.97056 5.13273 0
M  V30 6076 H 552.405 2.3641 6.36621 0
M  V30 6077 H 550.351 0.12836 6.55874 0
M  V30 6078 H 550.268 1.65401 7.37685 0
M  V30 6079 H 551.536 0.534071 7.77668 0
M  V30 6080 N 555.766 -1.3263 0.851289 0
M  V30 6081 C 556.698 -2.27824 0.250757 0
M  V30 6082 C 557.711 -1.52285 -0.575598 0
M  V30 6083 O 558.9 -1.73946 -0.400638 0
M  V30 6084 C 556 -3.3232 -0.664571 0
M  V30 6085 C 555.173 -4.37221 0.125187 0
M  V30 6086 C 554.232 -5.21314 -0.715385 0
M  V30 6087 O 553.258 -5.69002 -0.150111 0
M  V30 6088 N 554.46 -5.43823 -2.03069 0
M  V30 6089 H 557.225 -2.79997 1.06873 0
M  V30 6090 H 554.786 -1.45455 0.710943 0
M  V30 6091 H 556.778 -3.85486 -1.23216 0
M  V30 6092 H 555.348 -2.80331 -1.38323 0
M  V30 6093 H 554.568 -3.84384 0.874199 0
M  V30 6094 H 555.856 -5.04399 0.667774 0
M  V30 6095 H 555.254 -5.06803 -2.51332 0
M  V30 6096 H 553.811 -5.99998 -2.54648 0
M  V30 6097 N 557.244 -0.608902 -1.45362 0
M  V30 6098 C 558.49 -0.113196 -2.03085 0
M  V30 6099 C 558.845 1.24288 -1.46868 0
M  V30 6100 O 558.138 1.80792 -0.634402 0
M  V30 6101 C 558.332 -0.0167296 -3.57396 0
M  V30 6102 C 558.161 -1.36191 -4.28581 0
M  V30 6103 C 556.931 -1.94295 -4.66452 0
M  V30 6104 C 559.129 -2.29097 -4.60455 0
M  V30 6105 N 557.111 -3.2228 -5.22503 0
M  V30 6106 C 558.482 -3.41681 -5.17353 0
M  V30 6107 C 560.537 -2.28453 -4.42395 0
M  V30 6108 C 559.24 -4.53789 -5.58093 0
M  V30 6109 C 561.266 -3.39608 -4.8417 0
M  V30 6110 C 560.628 -4.50915 -5.41161 0
M  V30 6111 H 556.727 -0.0848213 -0.777386 0
M  V30 6112 H 559.311 -0.807541 -1.77163 0
M  V30 6113 H 557.482 0.646839 -3.82976 0
M  V30 6114 H 559.214 0.485757 -4.01774 0
M  V30 6115 H 555.969 -1.47486 -4.5005 0
M  V30 6116 H 556.393 -3.87654 -5.55025 0
M  V30 6117 H 561.035 -1.43658 -3.97646 0
M  V30 6118 H 558.753 -5.39307 -6.01808 0
M  V30 6119 H 562.339 -3.40259 -4.71927 0
M  V30 6120 H 561.219 -5.35505 -5.72891 0
M  V30 6121 N 558.722 1.53707 -0.348139 0
M  V30 6122 C 559.652 2.28111 0.498766 0
M  V30 6123 C 560.633 1.29851 1.09876 0
M  V30 6124 O 561.818 1.587 1.11928 0
M  V30 6125 C 558.948 3.05735 1.64753 0
M  V30 6126 C 557.902 4.11537 1.17565 0
M  V30 6127 C 557.228 4.77142 2.4133 0
M  V30 6128 C 558.528 5.21587 0.272844 0
M  V30 6129 H 560.222 2.99152 -0.121934 0
M  V30 6130 H 557.768 1.43875 -0.0600842 0
M  V30 6131 H 559.721 3.56526 2.24649 0
M  V30 6132 H 558.445 2.32354 2.2952 0
M  V30 6133 H 557.104 3.61665 0.599483 0
M  V30 6134 H 556.752 4.0035 3.04514 0
M  V30 6135 H 556.452 5.48626 2.10436 0
M  V30 6136 H 557.976 5.30719 3.01943 0
M  V30 6137 H 559.39 5.67986 0.778779 0
M  V30 6138 H 557.787 6.00074 0.0555849 0
M  V30 6139 H 558.857 4.79969 -0.689785 0
M  V30 6140 N 560.2 0.0768682 1.57412 0
M  V30 6141 C 561.446 -0.591961 1.93968 0
M  V30 6142 C 561.779 -1.68954 0.9575 0
M  V30 6143 O 561.054 -1.94496 -0.0124675 0
M  V30 6144 C 561.337 -1.16418 3.40762 0
M  V30 6145 C 561.19 -0.0728933 4.49741 0
M  V30 6146 C 562.509 -2.06814 3.88479 0
M  V30 6147 H 559.628 -0.213716 0.705333 0
M  V30 6148 H 562.27 0.14387 1.89455 0
M  V30 6149 H 560.42 -1.79128 3.4474 0
M  V30 6150 H 562.092 0.560446 4.57883 0
M  V30 6151 H 560.335 0.595859 4.29688 0
M  V30 6152 H 561.006 -0.513755 5.49604 0
M  V30 6153 H 563.482 -1.54033 3.8654 0
M  V30 6154 H 562.358 -2.43785 4.91793 0
M  V30 6155 H 562.619 -2.97844 3.26713 0
M  V30 6156 N 561.678 -1.56367 -0.196722 0
M  V30 6157 C 562.628 -1.9082 -1.24787 0
M  V30 6158 C 563.612 -0.773719 -1.41076 0
M  V30 6159 O 564.804 -1.03655 -1.43474 0
M  V30 6160 C 561.933 -2.24982 -2.59303 0
M  V30 6161 C 561.019 -3.44882 -2.46814 0
M  V30 6162 N 561.41 -4.62835 -2.04003 0
M  V30 6163 C 559.708 -3.48988 -2.77711 0
M  V30 6164 C 560.409 -5.44993 -2.03366 0
M  V30 6165 N 559.385 -4.85356 -2.44807 0
M  V30 6166 H 563.187 -2.79516 -0.908175 0
M  V30 6167 H 560.701 -1.57265 -0.405166 0
M  V30 6168 H 562.698 -2.47848 -3.35227 0
M  V30 6169 H 561.358 -1.37611 -2.94098 0
M  V30 6170 H 562.369 -4.87532 -1.74738 0
M  V30 6171 H 559.046 -2.72029 -3.16712 0
M  V30 6172 H 560.436 -6.49464 -1.72181 0
M  V30 6173 N 563.156 0.464375 -1.50603 0
M  V30 6174 C 564.381 1.24372 -1.65971 0
M  V30 6175 C 564.806 1.84901 -0.345453 0
M  V30 6176 O 564.164 1.67596 0.691457 0
M  V30 6177 C 564.212 2.32331 -2.7578 0
M  V30 6178 O 563.316 3.37146 -2.375 0
M  V30 6179 H 562.657 0.365604 -0.554283 0
M  V30 6180 H 565.187 0.55183 -1.97018 0
M  V30 6181 H 565.197 2.77539 -2.99059 0
M  V30 6182 H 563.872 1.87648 -3.71162 0
M  V30 6183 H 562.449 2.97602 -2.24694 0
M  V30 6184 N 564.634 1.40294 0.718013 0
M  V30 6185 C 566.05 1.2227 1.02577 0
M  V30 6186 C 566.25 0.0961976 2.0127 0
M  V30 6187 O 565.306 -0.546695 2.46511 0
M  V30 6188 C 566.619 2.56348 1.57182 0
M  V30 6189 C 568.167 2.6334 1.69178 0
M  V30 6190 C 568.642 3.9768 2.27188 0
M  V30 6191 N 570.133 3.99409 2.34578 0
M  V30 6192 C 570.868 5.00141 2.8044 0
M  V30 6193 N 570.364 6.11268 3.26073 0
M  V30 6194 N 572.157 4.87511 2.79802 0
M  V30 6195 H 564.308 2.12304 0.0637899 0
M  V30 6196 H 566.571 0.943632 0.0909036 0
M  V30 6197 H 566.277 3.3942 0.921262 0
M  V30 6198 H 566.151 2.77266 2.55741 0
M  V30 6199 H 568.538 1.80641 2.33351 0
M  V30 6200 H 568.619 2.46255 0.692247 0
M  V30 6201 H 568.263 4.80817 1.63638 0
M  V30 6202 H 568.193 4.12093 3.27852 0
M  V30 6203 H 570.684 3.19162 2.02346 0
M  V30 6204 H 570.997 6.84023 3.59628 0
M  V30 6205 H 569.342 6.14837 3.24038 0
M  V30 6206 H 572.533 3.9979 2.43487 0
M  V30 6207 H 572.706 5.66158 3.15228 0
M  V30 6208 N 566.112 -0.949982 1.2575 0
M  V30 6209 C 567.358 -1.69822 1.11947 0
M  V30 6210 C 567.713 -1.89455 -0.335334 0
M  V30 6211 O 567.006 -1.45778 -1.24336 0
M  V30 6212 C 567.2 -3.08039 1.81237 0
M  V30 6213 C 567.029 -3.0189 3.33305 0
M  V30 6214 C 565.799 -3.05391 4.02573 0
M  V30 6215 C 567.997 -2.827 4.29634 0
M  V30 6216 N 565.979 -2.89449 5.4138 0
M  V30 6217 C 567.35 -2.75237 5.55558 0
M  V30 6218 C 569.405 -2.67416 4.19992 0
M  V30 6219 C 568.108 -2.54051 6.72942 0
M  V30 6220 C 570.134 -2.47602 5.37073 0
M  V30 6221 C 569.496 -2.40863 6.6194 0
M  V30 6222 H 565.595 -0.629188 0.464378 0
M  V30 6223 H 568.179 -1.1249 1.58916 0
M  V30 6224 H 566.35 -3.63528 1.36756 0
M  V30 6225 H 568.082 -3.71671 1.60134 0
M  V30 6226 H 564.837 -3.14763 3.53866 0
M  V30 6227 H 565.261 -2.84669 6.14241 0
M  V30 6228 H 569.903 -2.71398 3.24196 0
M  V30 6229 H 567.621 -2.48811 7.68842 0
M  V30 6230 H 571.207 -2.36694 5.31477 0
M  V30 6231 H 570.087 -2.25732 7.51009 0
M  V30 6232 N 567.59 -1.07411 -1.15328 0
M  V30 6233 C 568.818 -0.818782 -1.90009 0
M  V30 6234 C 569.233 0.628072 -1.78047 0
M  V30 6235 O 568.59 1.43085 -1.13282 0
M  V30 6236 C 568.641 -1.21874 -3.40337 0
M  V30 6237 O 568.362 -2.60883 -3.51954 0
M  V30 6238 C 569.863 -0.992796 -4.3204 0
M  V30 6239 H 567.083 -0.296007 -0.60218 0
M  V30 6240 H 569.627 -1.43073 -1.46117 0
M  V30 6241 H 567.782 -0.651103 -3.81889 0
M  V30 6242 H 568.196 -2.77216 -4.45255 0
M  V30 6243 H 569.67 -1.32215 -5.35932 0
M  V30 6244 H 570.147 0.0708331 -4.39143 0
M  V30 6245 H 570.753 -1.54537 -3.9623 0
M  V30 6246 N 569.068 1.32177 -0.85831 0
M  V30 6247 C 570.015 2.28794 -0.303607 0
M  V30 6248 C 570.985 1.55213 0.591453 0
M  V30 6249 O 572.17 1.83418 0.525585 0
M  V30 6250 C 569.31 3.41475 0.49889 0
M  V30 6251 C 568.423 4.2993 -0.422373 0
M  V30 6252 C 567.558 5.29743 0.393111 0
M  V30 6253 C 566.597 6.09842 -0.525317 0
M  V30 6254 N 565.734 7.01643 0.253208 0
M  V30 6255 H 570.574 2.75631 -1.13276 0
M  V30 6256 H 568.111 1.35606 -0.570026 0
M  V30 6257 H 570.069 4.05531 0.979826 0
M  V30 6258 H 568.699 2.95779 1.29284 0
M  V30 6259 H 567.751 3.66422 -1.02171 0
M  V30 6260 H 569.063 4.85899 -1.12709 0
M  V30 6261 H 568.217 5.9942 0.937056 0
M  V30 6262 H 566.956 4.744 1.13117 0
M  V30 6263 H 565.961 5.39066 -1.08112 0
M  V30 6264 H 567.186 6.6727 -1.26205 0
M  V30 6265 H 565.132 6.48725 0.974295 0
M  V30 6266 H 565.049 7.54981 -0.392398 0
M  V30 6267 H 566.317 7.756 0.778761 0
M  V30 6268 N 570.547 0.616602 1.45037 0
M  V30 6269 C 571.51 -0.0871112 2.29034 0
M  V30 6270 C 572.51 -0.786414 1.40258 0
M  V30 6271 O 573.7 -0.633207 1.62284 0
M  V30 6272 C 570.832 -1.13369 3.21497 0
M  V30 6273 H 572.025 0.651497 2.92738 0
M  V30 6274 H 569.578 0.376058 1.51709 0
M  V30 6275 H 570.313 -1.90277 2.62612 0
M  V30 6276 H 570.098 -0.636358 3.86902 0
M  V30 6277 H 571.588 -1.62627 3.84633 0
M  V30 6278 N 572.025 -1.5352 0.356285 0
M  V30 6279 C 572.955 -2.28372 -0.486661 0
M  V30 6280 C 573.936 -1.30432 -1.09185 0
M  V30 6281 O 575.121 -1.59291 -1.11085 0
M  V30 6282 C 572.251 -3.06604 -1.63129 0
M  V30 6283 C 571.205 -4.12154 -1.15381 0
M  V30 6284 C 570.531 -4.78415 -2.38796 0
M  V30 6285 C 571.831 -5.21724 -0.245179 0
M  V30 6286 H 573.525 -2.99083 0.137797 0
M  V30 6287 H 571.071 -1.43841 0.0677134 0
M  V30 6288 H 573.024 -3.57712 -2.22755 0
M  V30 6289 H 571.748 -2.33568 -2.28284 0
M  V30 6290 H 570.407 -3.61978 -0.580294 0
M  V30 6291 H 570.055 -4.01959 -3.02387 0
M  V30 6292 H 569.755 -5.49734 -2.07524 0
M  V30 6293 H 571.279 -5.32313 -2.99125 0
M  V30 6294 H 572.693 -5.68391 -0.748646 0
M  V30 6295 H 571.09 -6.00095 -0.0237608 0
M  V30 6296 H 572.16 -4.79596 0.715229 0
M  V30 6297 N 573.503 -0.0852151 -1.57369 0
M  V30 6298 C 574.436 0.913608 -2.09113 0
M  V30 6299 C 575.414 1.28264 -0.999358 0
M  V30 6300 O 576.598 1.3896 -1.27367 0
M  V30 6301 C 573.725 2.21777 -2.55993 0
M  V30 6302 C 572.771 1.99932 -3.76735 0
M  V30 6303 S 573.604 1.24637 -5.20794 0
M  V30 6304 C 574.76 2.56304 -5.71016 0
M  V30 6305 H 574.993 0.473369 -2.93507 0
M  V30 6306 H 572.526 0.127856 -1.5387 0
M  V30 6307 H 574.484 2.96726 -2.83662 0
M  V30 6308 H 573.145 2.62923 -1.71843 0
M  V30 6309 H 572.338 2.96482 -4.07571 0
M  V30 6310 H 571.94 1.33116 -3.49509 0
M  V30 6311 H 574.232 3.5233 -5.78679 0
M  V30 6312 H 575.175 2.3006 -6.69685 0
M  V30 6313 H 575.583 2.64125 -4.98897 0
M  V30 6314 N 574.981 1.5647 0.188427 0
M  V30 6315 C 575.891 1.98285 1.2538 0
M  V30 6316 C 576.907 0.891535 1.49424 0
M  V30 6317 O 578.083 1.19782 1.61908 0
M  V30 6318 C 575.148 2.31965 2.57669 0
M  V30 6319 C 574.209 3.54838 2.41638 0
M  V30 6320 C 573.442 3.86901 3.67618 0
M  V30 6321 O 573.665 3.20163 4.72072 0
M  V30 6322 O 572.599 4.80309 3.62749 0
M  V30 6323 H 576.425 2.89145 0.928912 0
M  V30 6324 H 574.01 1.44112 0.393955 0
M  V30 6325 H 575.892 2.54673 3.35737 0
M  V30 6326 H 574.567 1.44271 2.89771 0
M  V30 6327 H 573.474 3.37369 1.61658 0
M  V30 6328 H 574.807 4.43019 2.14465 0
M  V30 6329 N 576.459 -0.456382 1.50847 0
M  V30 6330 C 577.369 -1.57805 1.73594 0
M  V30 6331 C 578.385 -1.62599 0.619476 0
M  V30 6332 O 579.561 -1.80195 0.899532 0
M  V30 6333 C 576.626 -2.93926 1.8387 0
M  V30 6334 C 575.687 -2.99402 3.07663 0
M  V30 6335 C 574.92 -4.29031 3.1744 0
M  V30 6336 O 575.143 -5.20358 2.33631 0
M  V30 6337 O 574.077 -4.40401 4.10281 0
M  V30 6338 H 577.903 -1.41531 2.68705 0
M  V30 6339 H 575.488 -0.637422 1.3512 0
M  V30 6340 H 577.37 -3.74747 1.92725 0
M  V30 6341 H 576.045 -3.10368 0.91944 0
M  V30 6342 H 574.952 -2.17606 3.043 0
M  V30 6343 H 576.285 -2.87901 3.99216 0
M  V30 6344 N 577.937 -1.40673 -0.710563 0
M  V30 6345 C 579.184 -1.39222 -1.47049 0
M  V30 6346 C 579.512 0.0037691 -1.945 0
M  V30 6347 O 578.767 0.989224 -1.68857 0
M  V30 6348 C 579.066 -2.33253 -2.70791 0
M  V30 6349 C 578.732 -3.80406 -2.42079 0
M  V30 6350 C 577.394 -4.20496 -2.33959 0
M  V30 6351 C 579.746 -4.73375 -2.18094 0
M  V30 6352 C 577.074 -5.51584 -1.99929 0
M  V30 6353 C 579.426 -6.04768 -1.85576 0
M  V30 6354 C 578.09 -6.43895 -1.75941 0
M  V30 6355 H 577.36 -0.509449 -0.538092 0
M  V30 6356 H 580.007 -1.73363 -0.81348 0
M  V30 6357 H 578.312 -1.92314 -3.41354 0
M  V30 6358 H 580.009 -2.29412 -3.28894 0
M  V30 6359 H 576.599 -3.48645 -2.49288 0
M  V30 6360 H 580.783 -4.43217 -2.23321 0
M  V30 6361 H 576.039 -5.80797 -1.91011 0
M  V30 6362 H 580.213 -6.76318 -1.66033 0
M  V30 6363 H 577.84 -7.45387 -1.4934 0
M  V30 6364 N 579.415 0.9433 -1.26252 0
M  V30 6365 C 580.662 1.68925 -1.11672 0
M  V30 6366 C 580.99 1.91499 0.340329 0
M  V30 6367 O 580.245 1.49189 1.26653 0
M  V30 6368 C 580.544 3.07073 -1.82868 0
M  V30 6369 C 580.21 3.04262 -3.32769 0
M  V30 6370 C 578.872 3.03203 -3.7366 0
M  V30 6371 C 581.224 2.96729 -4.28487 0
M  V30 6372 C 578.552 2.92373 -5.0866 0
M  V30 6373 C 580.904 2.87442 -5.63525 0
M  V30 6374 C 579.568 2.84724 -6.03729 0
M  V30 6375 H 578.838 0.618141 -0.408635 0
M  V30 6376 H 581.485 1.10124 -1.56668 0
M  V30 6377 H 579.79 3.69486 -1.30335 0
M  V30 6378 H 581.487 3.63635 -1.69029 0
M  V30 6379 H 578.077 3.05865 -3.00241 0
M  V30 6380 H 582.261 2.96658 -3.97879 0
M  V30 6381 H 577.517 2.88645 -5.38975 0
M  V30 6382 H 581.691 2.80576 -6.37377 0
M  V30 6383 H 579.318 2.76089 -7.08293 0
M  V30 6384 N 580.893 1.08022 1.14757 0
M  V30 6385 C 582.309 0.807072 1.3769 0
M  V30 6386 C 582.509 -0.585504 1.92806 0
M  V30 6387 O 581.565 -1.34301 2.13821 0
M  V30 6388 C 582.878 1.88651 2.34161 0
M  V30 6389 C 584.426 1.91206 2.47809 0
M  V30 6390 C 584.901 2.98253 3.47576 0
M  V30 6391 N 586.392 2.974 3.55117 0
M  V30 6392 C 587.127 3.76872 4.32152 0
M  V30 6393 N 586.623 4.66212 5.12463 0
M  V30 6394 N 588.416 3.6519 4.27309 0
M  V30 6395 H 580.567 1.97824 0.77326 0
M  V30 6396 H 582.83 0.85826 0.402608 0
M  V30 6397 H 582.536 2.88749 2.00791 0
M  V30 6398 H 582.41 1.75244 3.3402 0
M  V30 6399 H 584.797 0.917564 2.80472 0
M  V30 6400 H 584.878 2.08691 1.47925 0
M  V30 6401 H 584.522 3.97907 3.15646 0
M  V30 6402 H 584.452 2.78014 4.47231 0
M  V30 6403 H 586.943 2.32643 2.97801 0
M  V30 6404 H 587.256 5.23468 5.68508 0
M  V30 6405 H 585.601 4.70257 5.11745 0
M  V30 6406 H 588.792 2.94765 3.63636 0
M  V30 6407 H 588.965 4.27366 4.87095 0
M  V30 6408 N 582.371 -1.3172 0.865308 0
M  V30 6409 C 583.303 -2.27545 0.274906 0
M  V30 6410 C 584.316 -1.52887 -0.559413 0
M  V30 6411 O 585.505 -1.74361 -0.382166 0
M  V30 6412 C 582.605 -3.33006 -0.629286 0
M  V30 6413 C 581.778 -4.37063 0.171553 0
M  V30 6414 C 580.837 -5.22044 -0.660052 0
M  V30 6415 O 579.863 -5.69129 -0.0897527 0
M  V30 6416 N 581.065 -5.45946 -1.97289 0
M  V30 6417 H 583.83 -2.78848 1.09836 0
M  V30 6418 H 581.391 -1.44693 0.726331 0
M  V30 6419 H 583.383 -3.86772 -1.19121 0
M  V30 6420 H 581.953 -2.81782 -1.35342 0
M  V30 6421 H 581.173 -3.83436 0.914919 0
M  V30 6422 H 582.461 -5.03662 0.721235 0
M  V30 6423 H 581.859 -5.0944 -2.45942 0
M  V30 6424 H 580.416 -6.02665 -2.4827 0
M  V30 6425 N 583.85 -0.624285 -1.44708 0
M  V30 6426 C 585.098 -0.125802 -2.01708 0
M  V30 6427 C 585.418 1.2543 -1.49306 0
M  V30 6428 O 584.689 1.83198 -0.693924 0
M  V30 6429 H 583.269 -0.0435161 -0.745731 0
M  V30 6430 H 585.931 -0.809446 -1.77296 0
M  V30 6431 H 585.027 -0.0882734 -3.11975 0
M  V30 6432 N 585.328 1.53329 -0.364422 0
M  V30 6433 C 586.605 1.93557 0.281962 0
M  V30 6434 C 586.985 1.29786 1.6649 0
M  V30 6435 O 586.333 0.456512 2.23893 0
M  V30 6436 C 586.543 3.47405 0.333331 0
M  V30 6437 C 587.891 4.20699 0.574231 0
M  V30 6438 O 588.915 3.53779 0.414588 0
M  V30 6439 O 587.774 5.39287 0.885002 0
M  V30 6440 H 584.868 0.809573 0.168881 0
M  V30 6441 H 587.414 1.64494 -0.417121 0
M  V30 6442 H 586.186 3.86091 -0.636326 0
M  V30 6443 H 585.809 3.82697 1.07836 0
M  V30 6444 N 586.806 0.0935595 1.57322 0
M  V30 6445 C 587.753 -0.865935 2.1394 0
M  V30 6446 C 588.723 -1.28083 1.05754 0
M  V30 6447 O 589.908 -1.36285 1.33533 0
M  V30 6448 C 587.048 -2.12023 2.72287 0
M  V30 6449 C 586.161 -1.756 3.94701 0
M  V30 6450 C 585.296 -2.95804 4.41218 0
M  V30 6451 C 584.335 -2.555 5.56225 0
M  V30 6452 N 583.472 -3.68534 5.97601 0
M  V30 6453 H 588.312 -0.376261 2.95615 0
M  V30 6454 H 585.849 -0.174052 1.46067 0
M  V30 6455 H 587.807 -2.85477 3.04235 0
M  V30 6456 H 586.437 -2.58492 1.93343 0
M  V30 6457 H 585.489 -0.921208 3.69077 0
M  V30 6458 H 586.801 -1.41964 4.78171 0
M  V30 6459 H 585.955 -3.77513 4.74941 0
M  V30 6460 H 584.694 -3.32649 3.56645 0
M  V30 6461 H 583.699 -1.72218 5.22131 0
M  V30 6462 H 584.924 -2.19801 6.42545 0
M  V30 6463 H 582.87 -4.051 5.15974 0
M  V30 6464 H 582.787 -3.38737 6.75865 0
M  V30 6465 H 584.055 -4.50757 6.35955 0
M  V30 6466 N 588.284 -1.56567 -0.180126 0
M  V30 6467 C 589.194 -1.98947 -1.24327 0
M  V30 6468 C 590.21 -0.899446 -1.4895 0
M  V30 6469 O 591.386 -1.20639 -1.61271 0
M  V30 6470 C 588.451 -2.33328 -2.56435 0
M  V30 6471 C 587.512 -3.56114 -2.39752 0
M  V30 6472 C 586.745 -3.88845 -3.65561 0
M  V30 6473 O 586.968 -3.22662 -4.70368 0
M  V30 6474 O 585.902 -4.82226 -3.60197 0
M  V30 6475 H 589.728 -2.89634 -0.913565 0
M  V30 6476 H 587.313 -1.44319 -0.386306 0
M  V30 6477 H 589.195 -2.5645 -3.34382 0
M  V30 6478 H 587.87 -1.45806 -2.89002 0
M  V30 6479 H 586.777 -3.38221 -1.59866 0
M  V30 6480 H 588.11 -4.4415 -2.12113 0
M  V30 6481 N 589.762 0.448376 -1.51087 0
M  V30 6482 C 590.725 1.52588 -1.71025 0
M  V30 6483 C 591.725 1.49958 -0.580442 0
M  V30 6484 O 592.915 1.52176 -0.847833 0
M  V30 6485 C 590.047 2.92163 -1.75652 0
M  V30 6486 H 591.24 1.36218 -2.67179 0
M  V30 6487 H 588.793 0.676313 -1.4091 0
M  V30 6488 H 589.528 3.13951 -0.812724 0
M  V30 6489 H 589.313 2.95478 -2.57751 0
M  V30 6490 H 590.803 3.70349 -1.92953 0
M  V30 6491 N 591.24 1.41047 0.703093 0
M  V30 6492 C 592.15 1.44645 1.84703 0
M  V30 6493 C 593.166 0.337778 1.7069 0
M  V30 6494 O 594.342 0.584327 1.92737 0
M  V30 6495 C 591.407 1.31928 3.20618 0
M  V30 6496 C 590.468 2.53047 3.46794 0
M  V30 6497 C 589.701 2.40927 4.76224 0
M  V30 6498 O 589.924 1.42978 5.5219 0
M  V30 6499 O 588.858 3.30543 5.03016 0
M  V30 6500 H 592.684 2.41139 1.84624 0
M  V30 6501 H 590.269 1.22504 0.855167 0
M  V30 6502 H 592.151 1.27092 4.01778 0
M  V30 6503 H 590.826 0.385469 3.21397 0
M  V30 6504 H 589.733 2.6346 2.65593 0
M  V30 6505 H 591.066 3.45231 3.50822 0
M  V30 6506 N 592.718 -0.936591 1.26751 0
M  V30 6507 C 593.648 -2.05315 1.11212 0
M  V30 6508 C 594.629 -1.70092 0.0160262 0
M  V30 6509 O 595.814 -1.93279 0.188894 0
M  V30 6510 C 592.944 -3.39123 0.749171 0
M  V30 6511 C 591.898 -3.88425 1.79751 0
M  V30 6512 C 591.224 -5.18936 1.28876 0
M  V30 6513 C 592.524 -4.12798 3.19992 0
M  V30 6514 H 594.218 -2.18573 2.04613 0
M  V30 6515 H 591.764 -1.05027 0.985159 0
M  V30 6516 H 593.717 -4.16704 0.627323 0
M  V30 6517 H 592.441 -3.25855 -0.220543 0
M  V30 6518 H 591.1 -3.13028 1.90811 0
M  V30 6519 H 590.748 -5.02051 0.308757 0
M  V30 6520 H 590.448 -5.52892 1.98958 0
M  V30 6521 H 591.972 -5.99096 1.17967 0
M  V30 6522 H 593.386 -4.80977 3.11983 0
M  V30 6523 H 591.783 -4.58044 3.87705 0
M  V30 6524 H 592.853 -3.18412 3.65707 0
M  V30 6525 N 594.196 -1.08629 -1.14182 0
M  V30 6526 C 595.444 -0.815731 -1.84906 0
M  V30 6527 C 595.765 0.660441 -1.83475 0
M  V30 6528 O 595.035 1.47888 -1.28476 0
M  V30 6529 H 593.615 -0.298773 -0.684648 0
M  V30 6530 H 596.277 -1.37274 -1.38354 0
M  V30 6531 H 595.373 -1.16193 -2.89665 0
M  V30 6532 N 595.674 1.31259 -0.872281 0
M  V30 6533 C 596.604 2.30929 -0.345554 0
M  V30 6534 C 597.585 1.60449 0.5648 0
M  V30 6535 O 598.77 1.8814 0.481335 0
M  V30 6536 C 595.9 3.44348 0.451823 0
M  V30 6537 C 594.854 4.26435 -0.365641 0
M  V30 6538 C 594.18 5.31785 0.557562 0
M  V30 6539 C 595.48 4.97159 -1.60095 0
M  V30 6540 H 597.174 2.75234 -1.17841 0
M  V30 6541 H 594.72 1.3232 -0.568094 0
M  V30 6542 H 596.673 4.13128 0.830854 0
M  V30 6543 H 595.397 2.98816 1.31821 0
M  V30 6544 H 594.056 3.59326 -0.726649 0
M  V30 6545 H 593.704 4.82502 1.4213 0
M  V30 6546 H 593.404 5.87598 0.0144878 0
M  V30 6547 H 594.928 6.03424 0.933387 0
M  V30 6548 H 596.342 5.58523 -1.29323 0
M  V30 6549 H 594.739 5.62779 -2.08327 0
M  V30 6550 H 595.809 4.24012 -2.35249 0
M  V30 6551 N 597.152 0.631951 1.44375 0
M  V30 6552 C 598.563 0.219036 1.85411 0
M  V30 6553 C 598.914 -1.22974 1.52879 0
M  V30 6554 O 598.039 -1.93579 0.967266 0
M  V30 6555 C 598.634 0.39075 3.36539 0
M  V30 6556 C 597.193 0.0323351 3.76386 0
M  V30 6557 C 596.34 0.703744 2.68221 0
M  V30 6558 H 599.291 0.837056 1.3483 0
M  V30 6559 H 599.312 -0.370056 3.78696 0
M  V30 6560 H 598.824 1.44527 3.60185 0
M  V30 6561 H 596.925 -1.02042 3.58355 0
M  V30 6562 H 597.038 0.442969 4.77048 0
M  V30 6563 H 595.402 0.138974 2.54321 0
M  V30 6564 H 596.185 1.76088 2.947 0
M  V30 6565 N 598.631 -1.53133 0.372548 0
M  V30 6566 C 599.878 -2.01356 -0.214959 0
M  V30 6567 C 600.206 -1.2596 -1.48204 0
M  V30 6568 O 599.461 -0.343511 -1.92662 0
M  V30 6569 C 599.76 -3.53206 -0.545938 0
M  V30 6570 C 599.426 -4.46511 0.627624 0
M  V30 6571 C 598.088 -4.71737 0.949615 0
M  V30 6572 C 600.44 -5.01666 1.41353 0
M  V30 6573 C 597.768 -5.4937 2.05936 0
M  V30 6574 C 600.12 -5.80511 2.51375 0
M  V30 6575 C 598.784 -6.04022 2.84101 0
M  V30 6576 H 598.054 -0.736813 -0.078659 0
M  V30 6577 H 600.701 -1.84682 0.506447 0
M  V30 6578 H 599.006 -3.67864 -1.34845 0
M  V30 6579 H 600.703 -3.87997 -1.01287 0
M  V30 6580 H 597.293 -4.27029 0.366635 0
M  V30 6581 H 601.477 -4.82117 1.17802 0
M  V30 6582 H 596.733 -5.65803 2.31682 0
M  V30 6583 H 600.907 -6.22255 3.12684 0
M  V30 6584 H 598.534 -6.63962 3.70214 0
M  V30 6585 N 600.109 -0.101901 -1.5727 0
M  V30 6586 C 601.334 0.571759 -1.99363 0
M  V30 6587 C 601.759 1.60507 -0.980768 0
M  V30 6588 O 601.117 1.81231 0.0498517 0
M  V30 6589 C 601.165 1.18996 -3.404 0
M  V30 6590 O 600.269 2.30572 -3.41922 0
M  V30 6591 H 599.61 0.144449 -0.648098 0
M  V30 6592 H 602.14 -0.185325 -2.03759 0
M  V30 6593 H 602.15 1.52962 -3.78241 0
M  V30 6594 H 600.825 0.432984 -4.1364 0
M  V30 6595 H 599.402 1.98173 -3.15883 0
M  V30 6596 N 601.587 1.56661 0.17182 0
M  V30 6597 C 602.998 1.71652 0.734329 0
M  V30 6598 C 603.349 0.712335 1.82812 0
M  V30 6599 O 602.474 -0.126401 2.16031 0
M  V30 6600 C 603.069 3.11226 1.3388 0
M  V30 6601 C 601.628 3.27904 1.84813 0
M  V30 6602 C 600.775 2.67603 0.726917 0
M  V30 6603 H 603.726 1.5861 -0.0535665 0
M  V30 6604 H 603.747 3.09849 2.20849 0
M  V30 6605 H 603.259 3.8429 0.54249 0
M  V30 6606 H 601.36 2.59796 2.6709 0
M  V30 6607 H 601.473 4.35637 1.99392 0
M  V30 6608 H 599.837 2.274 1.14723 0
M  V30 6609 H 600.62 3.43252 -0.0575334 0
M  V30 6610 N 603.065 -0.440357 1.51323 0
M  V30 6611 C 603.995 -1.54174 1.75364 0
M  V30 6612 C 604.976 -1.59039 0.603375 0
M  V30 6613 O 606.161 -1.74815 0.845774 0
M  V30 6614 C 603.291 -2.92277 1.87593 0
M  V30 6615 C 602.245 -3.02274 3.03009 0
M  V30 6616 C 601.571 -4.42327 3.00418 0
M  V30 6617 C 602.871 -2.76634 4.43024 0
M  V30 6618 H 604.565 -1.34307 2.67585 0
M  V30 6619 H 602.111 -0.644678 1.28763 0
M  V30 6620 H 604.064 -3.69284 2.02995 0
M  V30 6621 H 602.788 -3.13369 0.920179 0
M  V30 6622 H 601.447 -2.27706 2.87307 0
M  V30 6623 H 601.095 -4.60382 2.02626 0
M  V30 6624 H 600.795 -4.49946 3.77918 0
M  V30 6625 H 602.319 -5.21312 3.17909 0
M  V30 6626 H 603.733 -3.43376 4.59093 0
M  V30 6627 H 602.13 -2.95666 5.22208 0
M  V30 6628 H 603.2 -1.72262 4.5327 0
M  V30 6629 N 604.543 -1.41418 -0.695603 0
M  V30 6630 C 605.783 -1.42241 -1.46788 0
M  V30 6631 C 606.147 -0.0300827 -1.91976 0
M  V30 6632 O 607.348 0.0868914 -2.6866 0
M  V30 6633 C 605.619 -2.4011 -2.6473 0
M  V30 6634 S 607.178 -2.59462 -3.53871 0
M  V30 6635 H 603.996 -0.503893 -0.50161 0
M  V30 6636 H 606.598 -1.77855 -0.811654 0
M  V30 6637 H 605.302 -3.40073 -2.29736 0
M  V30 6638 H 604.833 -2.05849 -3.35246 0
M  V30 6639 H 606.848 -1.862 -4.59939 0
M  V30 6640 N 606.021 0.929856 -1.27246 0
M  V30 6641 C 607.298 1.65544 -1.04186 0
M  V30 6642 C 607.678 2.06796 0.424097 0
M  V30 6643 O 607.026 1.80053 1.40688 0
M  V30 6644 C 607.236 2.85912 -2.00138 0
M  V30 6645 C 608.584 3.57305 -2.29387 0
M  V30 6646 O 609.608 2.96036 -1.98094 0
M  V30 6647 O 608.467 4.67688 -2.82719 0
M  V30 6648 H 605.561 0.725473 -0.397011 0
M  V30 6649 H 608.107 0.980583 -1.38501 0
M  V30 6650 H 606.879 2.52403 -2.99013 0
M  V30 6651 H 606.502 3.61118 -1.66371 0
M  V30 6652 N 607.499 1.09233 1.13605 0
M  V30 6653 C 608.915 0.82163 1.36826 0
M  V30 6654 C 609.115 -0.565021 1.93416 0
M  V30 6655 O 608.171 -1.32026 2.15234 0
M  V30 6656 C 609.484 1.91124 2.32147 0
M  V30 6657 C 611.032 1.93824 2.45767 0
M  V30 6658 C 611.507 3.01923 3.44393 0
M  V30 6659 N 612.998 3.01149 3.51942 0
M  V30 6660 C 613.733 3.81434 4.2813 0
M  V30 6661 N 613.229 4.71621 5.07489 0
M  V30 6662 N 615.022 3.69702 4.23411 0
M  V30 6663 H 607.173 1.98633 0.752234 0
M  V30 6664 H 609.436 0.862482 0.393482 0
M  V30 6665 H 609.142 2.90862 1.97717 0
M  V30 6666 H 609.016 1.78777 3.32142 0
M  V30 6667 H 611.403 0.94726 2.79483 0
M  V30 6668 H 611.484 2.10248 1.45703 0
M  V30 6669 H 611.128 4.01232 3.11408 0
M  V30 6670 H 611.058 2.82742 4.44257 0
M  V30 6671 H 613.549 2.35789 2.95317 0
M  V30 6672 H 613.862 5.29468 5.62924 0
M  V30 6673 H 612.207 4.75658 5.06729 0
M  V30 6674 H 615.398 2.98606 3.60489 0
M  V30 6675 H 615.571 4.32509 4.82535 0
M  V30 6676 N 608.977 -1.30795 0.87923 0
M  V30 6677 C 610.205 -2.00527 0.509548 0
M  V30 6678 C 610.62 -1.65944 -0.90045 0
M  V30 6679 O 609.977 -0.893525 -1.5913 0
M  V30 6680 C 610.028 -3.55276 0.667943 0
M  V30 6681 O 609.749 -3.88625 2.02242 0
M  V30 6682 C 611.25 -4.4228 0.300494 0
M  V30 6683 H 608.47 -0.641261 0.197549 0
M  V30 6684 H 611.014 -1.66813 1.18295 0
M  V30 6685 H 609.169 -3.87377 0.0419843 0
M  V30 6686 H 609.583 -4.83334 2.03688 0
M  V30 6687 H 611.057 -5.50061 0.462242 0
M  V30 6688 H 611.534 -4.32556 -0.76106 0
M  V30 6689 H 612.14 -4.15613 0.902536 0
M  V30 6690 N 610.455 -0.639598 -1.44038 0
M  V30 6691 C 611.68 -0.153117 -2.06834 0
M  V30 6692 C 612.105 1.16676 -1.47541 0
M  V30 6693 O 611.463 1.71769 -0.580093 0
M  V30 6694 C 611.511 -0.0609169 -3.60549 0
M  V30 6695 O 610.615 0.98071 -4.00569 0
M  V30 6696 H 609.956 -0.0886402 -0.658057 0
M  V30 6697 H 612.486 -0.878674 -1.84771 0
M  V30 6698 H 612.496 0.126892 -4.07803 0
M  V30 6699 H 611.171 -1.0245 -4.03084 0
M  V30 6700 H 609.748 0.766789 -3.64931 0
M  V30 6701 N 611.933 1.52934 -0.380664 0
M  V30 6702 C 613.161 2.05886 0.204599 0
M  V30 6703 C 613.576 1.25305 1.41223 0
M  V30 6704 O 612.933 0.297504 1.80059 0
M  V30 6705 C 612.984 3.56764 0.583249 0
M  V30 6706 O 612.705 4.34292 -0.576398 0
M  V30 6707 C 614.206 4.2603 1.2253 0
M  V30 6708 H 611.426 0.670193 0.0328991 0
M  V30 6709 H 613.97 1.97148 -0.543397 0
M  V30 6710 H 612.125 3.65603 1.28115 0
M  V30 6711 H 612.539 5.23819 -0.267119 0
M  V30 6712 H 614.013 5.32868 1.44068 0
M  V30 6713 H 614.49 3.80698 2.19011 0
M  V30 6714 H 615.096 4.21485 0.568407 0
M  V30 6715 N 613.412 0.11024 1.57214 0
M  V30 6716 C 614.342 -0.840002 2.17867 0
M  V30 6717 C 615.323 -1.28352 1.11624 0
M  V30 6718 O 616.508 -1.3477 1.39824 0
M  V30 6719 C 613.638 -2.09349 2.77111 0
M  V30 6720 C 612.592 -1.78807 3.8886 0
M  V30 6721 C 611.918 -3.11112 4.34872 0
M  V30 6722 C 613.218 -1.0632 5.11364 0
M  V30 6723 H 614.912 -0.334608 2.97524 0
M  V30 6724 H 612.458 -0.159502 1.43114 0
M  V30 6725 H 614.411 -2.76275 3.18198 0
M  V30 6726 H 613.135 -2.62198 1.9473 0
M  V30 6727 H 611.794 -1.14273 3.48335 0
M  V30 6728 H 611.442 -3.61877 3.49362 0
M  V30 6729 H 611.142 -2.91453 5.10224 0
M  V30 6730 H 612.666 -3.79171 4.78604 0
M  V30 6731 H 614.08 -1.63383 5.49526 0
M  V30 6732 H 612.477 -0.967876 5.92243 0
M  V30 6733 H 613.547 -0.0484569 4.84876 0
M  V30 6734 N 614.89 -1.56749 -0.16351 0
M  V30 6735 C 616.136 -1.82704 -0.880168 0
M  V30 6736 C 616.469 -0.689311 -1.81555 0
M  V30 6737 O 615.744 0.308224 -1.92042 0
M  V30 6738 C 616.027 -3.19084 -1.66905 0
M  V30 6739 C 615.88 -4.43397 -0.756269 0
M  V30 6740 C 617.199 -3.52493 -2.63509 0
M  V30 6741 H 614.318 -0.664608 -0.318535 0
M  V30 6742 H 616.96 -1.89438 -0.146036 0
M  V30 6743 H 615.11 -3.13475 -2.2949 0
M  V30 6744 H 616.782 -4.61079 -0.14269 0
M  V30 6745 H 615.025 -4.33752 -0.0647944 0
M  V30 6746 H 615.696 -5.3539 -1.34393 0
M  V30 6747 H 618.172 -3.58606 -2.11047 0
M  V30 6748 H 617.048 -4.48979 -3.15767 0
M  V30 6749 H 617.309 -2.77597 -3.44082 0
M  V30 6750 N 616.368 0.432326 -1.51554 0
M  V30 6751 C 617.331 1.50765 -1.72634 0
M  V30 6752 C 618.331 1.49334 -0.596314 0
M  V30 6753 O 619.521 1.51268 -0.863925 0
M  V30 6754 C 616.653 2.90284 -1.7874 0
M  V30 6755 H 617.846 1.33377 -2.68609 0
M  V30 6756 H 615.399 0.661329 -1.4162 0
M  V30 6757 H 616.134 3.13071 -0.845977 0
M  V30 6758 H 615.919 2.92727 -2.6087 0
M  V30 6759 H 617.409 3.68282 -1.96871 0
M  V30 6760 N 617.846 1.41785 0.688094 0
M  V30 6761 C 618.778 1.40159 1.81351 0
M  V30 6762 C 619.791 0.30262 1.59963 0
M  V30 6763 O 620.98 0.564841 1.69327 0
M  V30 6764 C 618.08 1.16517 3.1824 0
M  V30 6765 C 617.253 2.38597 3.66593 0
M  V30 6766 C 616.312 2.10699 4.82174 0
M  V30 6767 O 615.338 2.83798 4.93404 0
M  V30 6768 N 616.54 1.10187 5.69947 0
M  V30 6769 H 619.305 2.3716 1.83236 0
M  V30 6770 H 616.866 1.36494 0.870697 0
M  V30 6771 H 618.858 0.957941 3.93199 0
M  V30 6772 H 617.428 0.280873 3.11336 0
M  V30 6773 H 616.648 2.74974 2.82459 0
M  V30 6774 H 617.936 3.19919 3.95638 0
M  V30 6775 H 617.334 0.497016 5.63512 0
M  V30 6776 H 615.891 0.954518 6.44773 0
M  V30 6777 N 619.324 -0.923095 1.27737 0
M  V30 6778 C 620.549 -1.71054 1.17283 0
M  V30 6779 C 620.974 -1.86208 -0.266153 0
M  V30 6780 O 620.332 -1.36545 -1.1927 0
M  V30 6781 C 620.38 -3.0854 1.86642 0
M  V30 6782 O 619.484 -3.95528 1.16752 0
M  V30 6783 H 618.825 -0.524136 0.407649 0
M  V30 6784 H 621.355 -1.15487 1.6889 0
M  V30 6785 H 621.365 -3.58828 1.94182 0
M  V30 6786 H 620.04 -2.96828 2.91317 0
M  V30 6787 H 618.617 -3.53967 1.17312 0
M  V30 6788 N 620.802 -1.09834 -1.13024 0
M  V30 6789 C 621.734 -0.699379 -2.18269 0
M  V30 6790 C 622.747 0.260841 -1.60697 0
M  V30 6791 O 623.936 0.0462538 -1.7844 0
M  V30 6792 C 621.036 -0.0104537 -3.38898 0
M  V30 6793 C 620.209 -0.993275 -4.25973 0
M  V30 6794 C 619.268 -0.336982 -5.2512 0
M  V30 6795 O 618.294 -0.985892 -5.60597 0
M  V30 6796 N 619.496 0.90716 -5.73368 0
M  V30 6797 H 622.261 -1.60486 -2.5311 0
M  V30 6798 H 619.822 -0.986337 -1.28386 0
M  V30 6799 H 621.814 0.43991 -4.02302 0
M  V30 6800 H 620.384 0.797335 -3.0226 0
M  V30 6801 H 619.604 -1.62208 -3.5928 0
M  V30 6802 H 620.892 -1.65876 -4.81002 0
M  V30 6803 H 620.29 1.45384 -5.46699 0
M  V30 6804 H 618.847 1.30077 -6.38689 0
M  V30 6805 N 622.28 1.30327 -0.886154 0
M  V30 6806 C 623.529 1.95373 -0.501243 0
M  V30 6807 C 623.842 1.70722 0.954634 0
M  V30 6808 O 625.048 2.29761 1.44644 0
M  V30 6809 C 623.504 3.49828 -0.845493 0
M  V30 6810 C 623.112 3.83296 -2.31922 0
M  V30 6811 C 624.856 4.2118 -0.529838 0
M  V30 6812 C 622.763 5.30935 -2.60504 0
M  V30 6813 H 621.693 0.731274 -0.183722 0
M  V30 6814 H 624.344 1.48258 -1.08129 0
M  V30 6815 H 622.726 3.95522 -0.19452 0
M  V30 6816 H 623.9 3.48508 -3.01461 0
M  V30 6817 H 622.215 3.2505 -2.60253 0
M  V30 6818 H 624.812 5.29825 -0.720401 0
M  V30 6819 H 625.155 4.12902 0.530828 0
M  V30 6820 H 625.688 3.81173 -1.13806 0
M  V30 6821 H 622.427 5.44265 -3.65316 0
M  V30 6822 H 621.947 5.67019 -1.95575 0
M  V30 6823 H 623.626 5.98381 -2.46066 0
M  V30 6824 N 623.758 0.647228 1.43697 0
M  V30 6825 C 625.006 0.157876 2.01482 0
M  V30 6826 C 625.327 -1.23039 1.51282 0
M  V30 6827 O 624.597 -1.82071 0.722982 0
M  V30 6828 H 623.177 0.0553745 0.744945 0
M  V30 6829 H 625.839 0.83755 1.75986 0
M  V30 6830 H 624.935 0.137895 3.11795 0
M  V30 6831 N 625.236 -1.5273 0.388769 0
M  V30 6832 C 626.483 -2.01573 -0.19359 0
M  V30 6833 C 626.811 -1.27525 -1.46859 0
M  V30 6834 O 626.066 -0.363926 -1.92286 0
M  V30 6835 C 626.365 -3.53765 -0.508445 0
M  V30 6836 C 626.031 -4.4582 0.674947 0
M  V30 6837 C 624.693 -4.70703 0.999596 0
M  V30 6838 C 627.045 -5.00138 1.46666 0
M  V30 6839 C 624.373 -5.47155 2.11751 0
M  V30 6840 C 626.725 -5.77812 2.57518 0
M  V30 6841 C 625.389 -6.00975 2.90492 0
M  V30 6842 H 624.659 -0.737606 -0.0708397 0
M  V30 6843 H 627.306 -1.84134 0.526006 0
M  V30 6844 H 625.611 -3.69274 -1.30936 0
M  V30 6845 H 627.308 -3.8905 -0.971664 0
M  V30 6846 H 623.898 -4.26616 0.411906 0
M  V30 6847 H 628.082 -4.8084 1.22909 0
M  V30 6848 H 623.338 -5.63314 2.3767 0
M  V30 6849 H 627.512 -6.18904 3.19267 0
M  V30 6850 H 625.139 -6.59998 3.77236 0
M  V30 6851 N 626.714 -0.118576 -1.57153 0
M  V30 6852 C 627.963 0.539339 -1.94355 0
M  V30 6853 C 628.276 1.67858 -1.00415 0
M  V30 6854 O 629.482 2.39922 -1.27081 0
M  V30 6855 C 627.938 1.01082 -3.45414 0
M  V30 6856 C 627.546 -0.0999402 -4.47889 0
M  V30 6857 C 629.29 1.64013 -3.91535 0
M  V30 6858 C 627.197 0.388212 -5.90124 0
M  V30 6859 H 626.127 0.205247 -0.725527 0
M  V30 6860 H 628.778 -0.19836 -1.82425 0
M  V30 6861 H 627.16 1.80292 -3.52577 0
M  V30 6862 H 628.334 -0.876189 -4.52393 0
M  V30 6863 H 626.649 -0.635885 -4.11516 0
M  V30 6864 H 629.246 2.01649 -4.95219 0
M  V30 6865 H 629.589 2.51836 -3.31488 0
M  V30 6866 H 630.122 0.913439 -3.87171 0
M  V30 6867 H 626.861 -0.453963 -6.53926 0
M  V30 6868 H 626.381 1.13095 -5.89041 0
M  V30 6869 H 628.06 0.849574 -6.41398 0
M  V30 6870 N 628.193 1.56834 0.155195 0
M  V30 6871 C 629.47 1.73799 0.897395 0
M  V30 6872 C 629.85 0.684379 1.99698 0
M  V30 6873 O 629.198 -0.298111 2.26547 0
M  V30 6874 C 629.408 3.17572 1.44737 0
M  V30 6875 C 630.756 3.79014 1.91399 0
M  V30 6876 O 631.78 3.20951 1.54496 0
M  V30 6877 O 630.639 4.80998 2.59429 0
M  V30 6878 H 627.733 0.710329 0.423511 0
M  V30 6879 H 630.279 1.69107 0.141761 0
M  V30 6880 H 629.051 3.85749 0.656741 0
M  V30 6881 H 628.674 3.26657 2.26674 0
M  V30 6882 N 629.671 -0.424282 1.51781 0
M  V30 6883 C 630.918 -1.1726 1.65095 0
M  V30 6884 C 631.246 -1.90881 0.373477 0
M  V30 6885 O 630.501 -1.84835 -0.642997 0
M  V30 6886 C 630.8 -2.20418 2.81337 0
M  V30 6887 C 630.466 -1.63715 4.20129 0
M  V30 6888 C 629.128 -1.47975 4.57883 0
M  V30 6889 C 631.48 -1.22157 5.06682 0
M  V30 6890 C 628.808 -0.891703 5.79884 0
M  V30 6891 C 631.16 -0.647767 6.29275 0
M  V30 6892 C 629.824 -0.477371 6.65791 0
M  V30 6893 H 629.094 -0.429085 0.604125 0
M  V30 6894 H 631.741 -0.461852 1.85847 0
M  V30 6895 H 630.046 -2.97581 2.54859 0
M  V30 6896 H 631.743 -2.78163 2.88836 0
M  V30 6897 H 628.333 -1.76946 3.90369 0
M  V30 6898 H 632.517 -1.33133 4.7811 0
M  V30 6899 H 627.773 -0.747563 6.06813 0
M  V30 6900 H 631.947 -0.317291 6.95677 0
M  V30 6901 H 629.574 -0.0195936 7.60197 0
M  V30 6902 N 631.149 -1.42148 -0.680565 0
M  V30 6903 C 632.398 -1.41604 -1.43636 0
M  V30 6904 C 632.711 -0.0337887 -1.95571 0
M  V30 6905 O 633.917 0.0942588 -2.71336 0
M  V30 6906 C 632.373 -2.49056 -2.59806 0
M  V30 6907 C 631.981 -3.9326 -2.14594 0
M  V30 6908 C 633.725 -2.5767 -3.37352 0
M  V30 6909 C 631.632 -4.92232 -3.27813 0
M  V30 6910 H 630.562 -0.526656 -0.539583 0
M  V30 6911 H 633.213 -1.68033 -0.737369 0
M  V30 6912 H 631.595 -2.15782 -3.32045 0
M  V30 6913 H 632.769 -4.35858 -1.49546 0
M  V30 6914 H 631.084 -3.88443 -1.50002 0
M  V30 6915 H 633.681 -3.28794 -4.21662 0
M  V30 6916 H 634.024 -1.61837 -3.83555 0
M  V30 6917 H 634.557 -2.90109 -2.72179 0
M  V30 6918 H 631.296 -5.89522 -2.86607 0
M  V30 6919 H 630.816 -4.5427 -3.91661 0
M  V30 6920 H 632.495 -5.13684 -3.93367 0
M  V30 6921 N 632.627 0.916307 -1.28225 0
M  V30 6922 C 633.873 1.66765 -1.154 0
M  V30 6923 C 634.206 1.91912 0.297251 0
M  V30 6924 O 633.481 1.51766 1.21644 0
M  V30 6925 C 633.764 3.02715 -1.95028 0
M  V30 6926 C 633.617 2.84738 -3.48201 0
M  V30 6927 C 634.936 4.03215 -1.76369 0
M  V30 6928 H 632.055 0.605205 -0.42059 0
M  V30 6929 H 634.697 1.06255 -1.57512 0
M  V30 6930 H 632.847 3.54365 -1.59242 0
M  V30 6931 H 634.519 2.40118 -3.9388 0
M  V30 6932 H 632.762 2.19848 -3.73964 0
M  V30 6933 H 633.433 3.8127 -3.99171 0
M  V30 6934 H 635.909 3.60617 -2.07593 0
M  V30 6935 H 634.785 4.96306 -2.34459 0
M  V30 6936 H 635.046 4.36288 -0.71452 0
M  V30 6937 N 634.105 1.10431 1.1244 0
M  V30 6938 C 635.015 0.765502 2.21759 0
M  V30 6939 C 636.031 -0.236966 1.72379 0
M  V30 6940 O 637.207 -0.0757329 2.01258 0
M  V30 6941 C 634.272 0.202316 3.46109 0
M  V30 6942 C 633.333 1.26205 4.1033 0
M  V30 6943 C 632.566 0.725648 5.28744 0
M  V30 6944 O 632.789 -0.447942 5.68638 0
M  V30 6945 O 631.723 1.48555 5.83279 0
M  V30 6946 H 635.549 1.67801 2.53133 0
M  V30 6947 H 633.134 0.879443 1.20773 0
M  V30 6948 H 635.016 -0.107918 4.21262 0
M  V30 6949 H 633.691 -0.683052 3.16411 0
M  V30 6950 H 632.598 1.62514 3.36957 0
M  V30 6951 H 633.931 2.12044 4.44183 0
M  V30 6952 N 635.583 -1.29855 0.893053 0
M  V30 6953 C 636.994 -1.77946 0.564998 0
M  V30 6954 C 637.345 -1.73339 -0.919134 0
M  V30 6955 O 636.47 -1.3152 -1.71847 0
M  V30 6956 C 637.065 -3.23118 1.01883 0
M  V30 6957 C 635.624 -3.69013 0.742051 0
M  V30 6958 C 634.771 -2.50121 1.19727 0
M  V30 6959 H 637.722 -1.16611 1.07646 0
M  V30 6960 H 637.743 -3.78875 0.351249 0
M  V30 6961 H 637.255 -3.26439 2.09903 0
M  V30 6962 H 635.356 -3.71173 -0.325816 0
M  V30 6963 H 635.469 -4.60117 1.33527 0
M  V30 6964 H 633.833 -2.47128 0.616418 0
M  V30 6965 H 634.616 -2.56174 2.28538 0
M  V30 6966 N 637.061 -0.65484 -1.43351 0
M  V30 6967 C 638.289 -0.176685 -2.06144 0
M  V30 6968 C 638.704 1.15831 -1.49093 0
M  V30 6969 O 638.061 1.71542 -0.622868 0
M  V30 6970 C 638.112 -0.0813326 -3.61408 0
M  V30 6971 O 637.833 -1.36355 -4.1634 0
M  V30 6972 C 639.334 0.422706 -4.4128 0
M  V30 6973 H 636.554 -0.0906429 -0.66485 0
M  V30 6974 H 639.098 -0.895945 -1.83829 0
M  V30 6975 H 637.253 0.588496 -3.82904 0
M  V30 6976 H 637.667 -1.22381 -5.10023 0
M  V30 6977 H 639.141 0.438375 -5.50257 0
M  V30 6978 H 639.618 1.45432 -4.14423 0
M  V30 6979 H 640.224 -0.214687 -4.24758 0
M  V30 6980 N 638.539 1.52521 -0.396863 0
M  V30 6981 C 639.786 2.01672 0.182898 0
M  V30 6982 C 640.114 1.28302 1.46181 0
M  V30 6983 O 639.369 0.374118 1.92091 0
M  V30 6984 C 639.668 3.5403 0.489677 0
M  V30 6985 C 639.334 4.45456 -0.698581 0
M  V30 6986 C 637.996 4.70166 -1.02454 0
M  V30 6987 C 640.348 4.99354 -1.49316 0
M  V30 6988 C 637.676 5.46024 -2.1465 0
M  V30 6989 C 640.028 5.76439 -2.60579 0
M  V30 6990 C 638.692 5.99426 -2.93675 0
M  V30 6991 H 637.962 0.737971 0.066927 0
M  V30 6992 H 640.609 1.83853 -0.535764 0
M  V30 6993 H 638.914 3.69963 1.28976 0
M  V30 6994 H 640.611 3.8956 0.951018 0
M  V30 6995 H 637.201 4.26392 -0.434525 0
M  V30 6996 H 641.385 4.80182 -1.25457 0
M  V30 6997 H 636.641 5.62046 -2.40654 0
M  V30 6998 H 640.815 6.17202 -3.22544 0
M  V30 6999 H 638.442 6.57988 -3.80731 0
M  V30 7000 N 640.017 0.126909 1.57088 0
M  V30 7001 C 641.242 -0.53997 2.00248 0
M  V30 7002 C 641.667 -1.58927 1.00618 0
M  V30 7003 O 641.025 -1.81288 -0.0210131 0
M  V30 7004 C 641.073 -1.13565 3.4225 0
M  V30 7005 O 640.177 -2.25103 3.45547 0
M  V30 7006 H 639.518 -0.13412 0.650314 0
M  V30 7007 H 642.048 0.217718 2.03438 0
M  V30 7008 H 642.058 -1.46925 3.80627 0
M  V30 7009 H 640.733 -0.367122 4.14277 0
M  V30 7010 H 639.31 -1.93123 3.18995 0
M  V30 7011 N 641.495 -1.56914 -0.146875 0
M  V30 7012 C 642.741 -1.83628 -0.860741 0
M  V30 7013 C 643.074 -0.708528 -1.80813 0
M  V30 7014 O 642.349 0.287838 -1.92358 0
M  V30 7015 C 642.632 -3.20836 -1.63511 0
M  V30 7016 C 642.485 -4.44174 -0.709199 0
M  V30 7017 C 643.804 -3.55268 -2.59756 0
M  V30 7018 H 640.923 -0.667949 -0.311468 0
M  V30 7019 H 643.565 -1.89582 -0.125936 0
M  V30 7020 H 641.715 -3.15891 -2.26153 0
M  V30 7021 H 643.387 -4.61205 -0.0937781 0
M  V30 7022 H 641.63 -4.33796 -0.0187856 0
M  V30 7023 H 642.301 -5.36785 -1.28707 0
M  V30 7024 H 644.777 -3.60824 -2.07232 0
M  V30 7025 H 643.653 -4.52303 -3.10987 0
M  V30 7026 H 643.914 -2.81231 -3.41118 0
M  V30 7027 N 642.974 0.416227 -1.52004 0
M  V30 7028 C 643.904 1.51365 -1.77795 0
M  V30 7029 C 644.885 1.58059 -0.628601 0
M  V30 7030 O 646.07 1.73447 -0.873478 0
M  V30 7031 C 643.2 2.89256 -1.92219 0
M  V30 7032 C 642.154 2.97415 -3.0778 0
M  V30 7033 C 641.48 4.37492 -3.07417 0
M  V30 7034 C 642.78 2.69551 -4.47369 0
M  V30 7035 H 644.474 1.30033 -2.69688 0
M  V30 7036 H 642.02 0.624112 -1.29772 0
M  V30 7037 H 643.973 3.66008 -2.08845 0
M  V30 7038 H 642.697 3.11866 -0.969917 0
M  V30 7039 H 641.356 2.23107 -2.90893 0
M  V30 7040 H 641.004 4.571 -2.09925 0
M  V30 7041 H 640.704 4.43877 -3.85029 0
M  V30 7042 H 642.228 5.16188 -3.26162 0
M  V30 7043 H 643.642 3.36028 -4.64497 0
M  V30 7044 H 642.039 2.87321 -5.26846 0
M  V30 7045 H 643.109 1.65029 -4.55953 0
M  V30 7046 N 644.452 1.42507 0.673017 0
M  V30 7047 C 645.68 1.46473 1.46128 0
M  V30 7048 C 646.095 0.0765912 1.88645 0
M  V30 7049 O 645.452 -0.909057 1.58248 0
M  V30 7050 C 645.503 2.39339 2.70923 0
M  V30 7051 O 645.224 3.72752 2.3019 0
M  V30 7052 C 646.725 2.52343 3.64469 0
M  V30 7053 H 643.945 0.49812 0.449575 0
M  V30 7054 H 646.489 1.87041 0.826802 0
M  V30 7055 H 644.644 2.02019 3.30556 0
M  V30 7056 H 645.058 4.22503 3.10791 0
M  V30 7057 H 646.532 3.2144 4.48754 0
M  V30 7058 H 647.009 1.56189 4.1049 0
M  V30 7059 H 647.615 2.90392 3.10729 0
M  V30 7060 N 645.93 -0.909495 1.28709 0
M  V30 7061 C 647.207 -1.63865 1.06806 0
M  V30 7062 C 647.587 -2.07445 -0.391143 0
M  V30 7063 O 646.935 -1.82269 -1.37805 0
M  V30 7064 C 647.145 -2.82692 2.04661 0
M  V30 7065 C 648.493 -3.5361 2.35042 0
M  V30 7066 O 649.517 -2.92847 2.02779 0
M  V30 7067 O 648.376 -4.63131 2.90124 0
M  V30 7068 H 645.47 -0.719065 0.408502 0
M  V30 7069 H 648.016 -0.958424 1.40044 0
M  V30 7070 H 646.788 -2.47614 3.0299 0
M  V30 7071 H 646.411 -3.58426 1.72095 0
M  V30 7072 N 647.408 -1.11026 -1.11852 0
M  V30 7073 C 648.654 -0.857729 -1.83768 0
M  V30 7074 C 648.987 0.615143 -1.842 0
M  V30 7075 O 648.262 1.45391 -1.29196 0
M  V30 7076 C 648.545 -1.41453 -3.31154 0
M  V30 7077 C 648.398 -2.95471 -3.39142 0
M  V30 7078 C 649.717 -1.0619 -4.27097 0
M  V30 7079 H 646.836 -0.313044 -0.667212 0
M  V30 7080 H 649.478 -1.37443 -1.31185 0
M  V30 7081 H 647.628 -0.975052 -3.76065 0
M  V30 7082 H 649.3 -3.4799 -3.02821 0
M  V30 7083 H 647.543 -3.31759 -2.79497 0
M  V30 7084 H 648.214 -3.29515 -4.42859 0
M  V30 7085 H 650.69 -1.44122 -3.90344 0
M  V30 7086 H 649.566 -1.47832 -5.28618 0
M  V30 7087 H 649.827 0.0278912 -4.42091 0
M  V30 7088 N 648.886 1.2938 -0.899927 0
M  V30 7089 C 649.849 2.25983 -0.382677 0
M  V30 7090 C 650.849 1.53366 0.483259 0
M  V30 7091 O 652.039 1.71798 0.28828 0
M  V30 7092 C 649.171 3.37878 0.452915 0
M  V30 7093 H 650.364 2.73252 -1.23586 0
M  V30 7094 H 647.917 1.40825 -0.678088 0
M  V30 7095 H 648.652 2.95949 1.32608 0
M  V30 7096 H 648.437 3.91742 -0.167562 0
M  V30 7097 H 649.927 4.09746 0.806107 0
M  V30 7098 N 650.364 0.662433 1.43002 0
M  V30 7099 C 651.274 -0.0239199 2.34588 0
M  V30 7100 C 652.29 -0.802255 1.54402 0
M  V30 7101 O 653.466 -0.747401 1.87018 0
M  V30 7102 C 650.531 -0.972098 3.32793 0
M  V30 7103 C 649.592 -0.189673 4.28881 0
M  V30 7104 C 648.825 -1.09269 5.22395 0
M  V30 7105 O 649.048 -2.33209 5.20547 0
M  V30 7106 O 647.982 -0.560136 5.99288 0
M  V30 7107 H 651.808 0.730171 2.94792 0
M  V30 7108 H 649.393 0.422635 1.43297 0
M  V30 7109 H 651.275 -1.51676 3.93157 0
M  V30 7110 H 649.95 -1.70626 2.75079 0
M  V30 7111 H 648.857 0.398794 3.71968 0
M  V30 7112 H 650.19 0.50511 4.89601 0
M  V30 7113 N 651.842 -1.52309 0.404946 0
M  V30 7114 C 652.789 -2.26898 -0.422597 0
M  V30 7115 C 653.759 -1.2914 -1.04461 0
M  V30 7116 O 654.944 -1.57996 -1.06967 0
M  V30 7117 C 652.084 -3.09053 -1.53559 0
M  V30 7118 C 651.197 -4.21762 -0.934908 0
M  V30 7119 C 650.332 -4.91283 -2.02025 0
M  V30 7120 C 649.371 -5.95962 -1.39628 0
M  V30 7121 N 648.508 -6.59017 -2.42159 0
M  V30 7122 H 653.348 -2.97188 0.219903 0
M  V30 7123 H 650.885 -1.46607 0.120282 0
M  V30 7124 H 652.843 -3.54987 -2.19181 0
M  V30 7125 H 651.473 -2.40942 -2.14818 0
M  V30 7126 H 650.525 -3.80029 -0.167854 0
M  V30 7127 H 651.837 -4.96864 -0.439073 0
M  V30 7128 H 650.991 -5.40601 -2.75383 0
M  V30 7129 H 649.73 -4.15741 -2.54973 0
M  V30 7130 H 648.735 -5.45968 -0.648023 0
M  V30 7131 H 649.96 -6.73445 -0.874553 0
M  V30 7132 H 647.906 -5.86306 -2.94247 0
M  V30 7133 H 647.823 -7.2978 -1.97376 0
M  V30 7134 H 649.091 -7.12974 -3.15099 0
M  V30 7135 N 653.32 -0.135238 -1.57019 0
M  V30 7136 C 654.545 0.529343 -2.00531 0
M  V30 7137 C 654.97 1.58391 -1.01459 0
M  V30 7138 O 654.328 1.81296 0.0113986 0
M  V30 7139 C 654.376 1.11748 -3.42848 0
M  V30 7140 O 653.48 2.23267 -3.46736 0
M  V30 7141 H 652.821 0.130669 -0.651016 0
M  V30 7142 H 655.351 -0.228503 -2.0332 0
M  V30 7143 H 655.361 1.44905 -3.81401 0
M  V30 7144 H 654.036 0.345147 -4.14465 0
M  V30 7145 H 652.613 1.91428 -3.20015 0
M  V30 7146 N 654.798 1.5699 0.138552 0
M  V30 7147 C 656.044 1.84081 0.85099 0
M  V30 7148 C 656.377 0.718107 1.80435 0
M  V30 7149 O 655.652 -0.277633 1.92508 0
M  V30 7150 C 655.935 3.21699 1.61808 0
M  V30 7151 C 655.788 4.44544 0.685633 0
M  V30 7152 C 657.107 3.5664 2.57868 0
M  V30 7153 H 654.226 0.669592 0.307922 0
M  V30 7154 H 656.868 1.89646 0.11588 0
M  V30 7155 H 655.018 3.17086 2.24474 0
M  V30 7156 H 656.69 4.61248 0.0693179 0
M  V30 7157 H 654.933 4.338 -0.00421993 0
M  V30 7158 H 655.604 5.3746 1.25858 0
M  V30 7159 H 658.08 3.61918 2.05316 0
M  V30 7160 H 656.956 4.53946 3.08584 0
M  V30 7161 H 657.217 2.83036 3.39622 0
M  V30 7162 N 656.276 -0.40816 1.52223 0
M  V30 7163 C 657.208 -1.51642 1.71864 0
M  V30 7164 C 658.221 -1.51378 0.599056 0
M  V30 7165 O 659.41 -1.55626 0.874239 0
M  V30 7166 C 656.51 -2.90534 1.74481 0
M  V30 7167 C 655.683 -3.14979 3.03491 0
M  V30 7168 C 654.742 -4.33749 2.97907 0
M  V30 7169 O 653.768 -4.30982 3.71811 0
M  V30 7170 N 654.97 -5.38912 2.15764 0
M  V30 7171 H 657.735 -1.35188 2.67478 0
M  V30 7172 H 655.296 -0.597468 1.50472 0
M  V30 7173 H 657.288 -3.68056 1.68275 0
M  V30 7174 H 655.858 -3.00441 0.863363 0
M  V30 7175 H 655.078 -2.25492 3.23337 0
M  V30 7176 H 656.366 -3.28156 3.88833 0
M  V30 7177 H 655.764 -5.44008 1.55152 0
M  V30 7178 H 654.321 -6.15174 2.15415 0
M  V30 7179 N 657.755 -1.42862 -0.66545 0
M  V30 7180 C 659.166 -1.3901 -1.24632 0
M  V30 7181 C 659.517 -0.0880285 -1.96002 0
M  V30 7182 O 658.642 0.812947 -2.0055 0
M  V30 7183 C 659.237 -2.51806 -2.2667 0
M  V30 7184 C 657.796 -2.51257 -2.80262 0
M  V30 7185 C 656.943 -2.30124 -1.5472 0
M  V30 7186 H 659.894 -1.5194 -0.458237 0
M  V30 7187 H 659.915 -2.22593 -3.08598 0
M  V30 7188 H 659.427 -3.46558 -1.74697 0
M  V30 7189 H 657.528 -1.60349 -3.36332 0
M  V30 7190 H 657.641 -3.48614 -3.28641 0
M  V30 7191 H 656.005 -1.7856 -1.81627 0
M  V30 7192 H 656.788 -3.26945 -1.04699 0
M  V30 7193 N 659.233 0.902656 -1.29189 0
M  V30 7194 C 660.163 2.02294 -1.16616 0
M  V30 7195 C 661.144 1.6999 -0.0611175 0
M  V30 7196 O 662.329 1.9271 -0.240072 0
M  V30 7197 C 659.459 3.37018 -0.83882 0
M  V30 7198 C 658.413 3.83522 -1.89986 0
M  V30 7199 C 657.739 5.15337 -1.42589 0
M  V30 7200 C 659.039 4.04169 -3.30824 0
M  V30 7201 H 660.733 2.13071 -2.10336 0
M  V30 7202 H 658.279 1.02378 -1.01266 0
M  V30 7203 H 660.232 4.14895 -0.737584 0
M  V30 7204 H 658.956 3.26325 0.134071 0
M  V30 7205 H 657.615 3.07859 -1.99043 0
M  V30 7206 H 657.263 5.01056 -0.441759 0
M  V30 7207 H 656.963 5.47423 -2.13547 0
M  V30 7208 H 658.487 5.95758 -1.3381 0
M  V30 7209 H 659.901 4.72537 -3.24626 0
M  V30 7210 H 658.298 4.47604 -3.99713 0
M  V30 7211 H 659.368 3.08604 -3.74021 0
M  V30 7212 N 660.711 1.11618 1.11262 0
M  V30 7213 C 661.674 0.779447 2.15539 0
M  V30 7214 C 662.674 -0.202081 1.59525 0
M  V30 7215 O 663.864 0.0226356 1.74185 0
M  V30 7216 C 660.996 0.15674 3.40539 0
M  V30 7217 H 662.189 1.70324 2.4684 0
M  V30 7218 H 659.742 0.918298 1.26479 0
M  V30 7219 H 660.477 -0.777186 3.1485 0
M  V30 7220 H 660.262 0.863308 3.82478 0
M  V30 7221 H 661.752 -0.062661 4.17553 0
M  V30 7222 N 662.189 -1.289 0.906776 0
M  V30 7223 C 663.466 -1.90221 0.455537 0
M  V30 7224 C 663.846 -1.82251 -1.06527 0
M  V30 7225 O 663.194 -1.25385 -1.91026 0
M  V30 7226 C 663.404 -3.35015 0.97806 0
M  V30 7227 C 664.752 -4.12018 1.02598 0
M  V30 7228 O 665.776 -3.43947 0.926218 0
M  V30 7229 O 664.635 -5.33677 1.17689 0
M  V30 7230 H 661.729 -0.814505 0.143214 0
M  V30 7231 H 664.275 -1.37317 0.997104 0
M  V30 7232 H 663.047 -3.35006 2.02204 0
M  V30 7233 H 662.67 -3.95408 0.416914 0
M  V30 7234 N 663.667 -0.670007 -1.42649 0
M  V30 7235 C 664.577 0.0114788 -2.34597 0
M  V30 7236 C 665.593 0.794055 -1.54825 0
M  V30 7237 O 666.769 0.737472 -1.87412 0
M  V30 7238 C 663.834 0.954436 -3.33304 0
M  V30 7239 C 662.895 0.166925 -4.28975 0
M  V30 7240 C 662.128 1.06497 -5.22967 0
M  V30 7241 O 662.351 2.30446 -5.21777 0
M  V30 7242 O 661.285 0.528347 -5.99577 0
M  V30 7243 H 665.111 -0.745794 -2.944 0
M  V30 7244 H 662.696 -0.430228 -1.43071 0
M  V30 7245 H 664.578 1.49589 -3.93956 0
M  V30 7246 H 663.253 1.69164 -2.7598 0
M  V30 7247 H 662.16 -0.418515 -3.71752 0
M  V30 7248 H 663.493 -0.531067 -4.89327 0
M  V30 7249 N 665.145 1.52092 -0.413018 0
M  V30 7250 C 666.422 1.94356 0.22024 0
M  V30 7251 C 666.802 1.35017 1.62277 0
M  V30 7252 O 666.15 0.527511 2.22328 0
M  V30 7253 C 666.36 3.48289 0.222638 0
M  V30 7254 C 667.708 4.22313 0.440098 0
M  V30 7255 O 668.732 3.54919 0.301826 0
M  V30 7256 O 667.591 5.41829 0.712984 0
M  V30 7257 H 664.685 0.814536 0.14304 0
M  V30 7258 H 667.231 1.63083 -0.469242 0
M  V30 7259 H 666.003 3.83872 -0.758836 0
M  V30 7260 H 665.626 3.85934 0.956057 0
M  V30 7261 N 666.623 0.143563 1.56945 0
M  V30 7262 C 667.848 -0.518701 2.00809 0
M  V30 7263 C 668.273 -1.5785 1.02298 0
M  V30 7264 O 667.631 -1.813 -0.0017839 0
M  V30 7265 C 667.679 -1.09929 3.43436 0
M  V30 7266 O 666.783 -2.21425 3.47915 0
M  V30 7267 H 666.124 -0.127215 0.6517 0
M  V30 7268 H 668.654 0.239283 2.03196 0
M  V30 7269 H 668.664 -1.4288 3.82164 0
M  V30 7270 H 667.339 -0.323162 4.14643 0
M  V30 7271 H 665.916 -1.89728 3.21026 0
M  V30 7272 N 668.101 -1.57061 -0.130224 0
M  V30 7273 C 669.048 -1.99517 -1.16024 0
M  V30 7274 C 670.018 -0.865452 -1.41771 0
M  V30 7275 O 671.203 -1.12882 -1.53826 0
M  V30 7276 C 668.343 -2.3951 -2.48453 0
M  V30 7277 C 667.456 -3.65848 -2.29737 0
M  V30 7278 C 666.591 -3.9487 -3.55318 0
M  V30 7279 C 665.63 -5.14426 -3.31711 0
M  V30 7280 N 664.767 -5.39375 -4.49466 0
M  V30 7281 H 669.607 -2.87305 -0.791194 0
M  V30 7282 H 667.144 -1.42129 -0.379195 0
M  V30 7283 H 669.102 -2.60731 -3.25692 0
M  V30 7284 H 667.732 -1.54779 -2.83272 0
M  V30 7285 H 666.784 -3.52307 -1.4347 0
M  V30 7286 H 668.096 -4.53241 -2.08263 0
M  V30 7287 H 667.25 -4.16679 -4.4098 0
M  V30 7288 H 665.989 -3.05931 -3.79813 0
M  V30 7289 H 664.994 -4.92473 -2.44439 0
M  V30 7290 H 666.219 -6.04933 -3.08598 0
M  V30 7291 H 664.165 -4.53391 -4.74102 0
M  V30 7292 H 664.082 -6.21069 -4.31055 0
M  V30 7293 H 665.35 -5.65694 -5.36293 0
M  V30 7294 N 669.579 0.400081 -1.52437 0
M  V30 7295 C 670.804 1.17221 -1.71096 0
M  V30 7296 C 671.229 1.83269 -0.423565 0
M  V30 7297 O 670.587 1.70378 0.619751 0
M  V30 7298 C 670.635 2.20425 -2.85386 0
M  V30 7299 O 669.739 3.26769 -2.51586 0
M  V30 7300 H 669.08 0.341766 -0.569291 0
M  V30 7301 H 671.61 0.467772 -1.99181 0
M  V30 7302 H 671.62 2.64605 -3.10561 0
M  V30 7303 H 670.295 1.71737 -3.78786 0
M  V30 7304 H 668.872 2.87804 -2.37114 0
M  V30 7305 N 671.057 1.43213 0.657864 0
M  V30 7306 C 672.004 1.48011 1.77092 0
M  V30 7307 C 672.974 0.330291 1.62783 0
M  V30 7308 O 674.159 0.536787 1.83094 0
M  V30 7309 C 671.299 1.40461 3.15222 0
M  V30 7310 C 670.412 2.65612 3.40697 0
M  V30 7311 C 669.547 2.50083 4.68649 0
M  V30 7312 C 668.586 3.70525 4.87214 0
M  V30 7313 N 667.723 3.53835 6.0642 0
M  V30 7314 H 672.563 2.43121 1.72326 0
M  V30 7315 H 670.1 1.20687 0.841013 0
M  V30 7316 H 672.058 1.34079 3.95068 0
M  V30 7317 H 670.688 0.489359 3.19069 0
M  V30 7318 H 669.74 2.82292 2.54982 0
M  V30 7319 H 671.052 3.5509 3.50303 0
M  V30 7320 H 670.206 2.41383 5.56614 0
M  V30 7321 H 668.945 1.58121 4.61356 0
M  V30 7322 H 667.95 3.79639 3.97686 0
M  V30 7323 H 669.175 4.63489 4.96341 0
M  V30 7324 H 667.121 2.64604 6.00267 0
M  V30 7325 H 667.038 4.36912 6.16963 0
M  V30 7326 H 668.306 3.48978 6.97019 0
M  V30 7327 N 672.536 -0.895792 1.29666 0
M  V30 7328 C 673.484 -2.02173 1.15017 0
M  V30 7329 C 674.478 -1.69276 0.0647651 0
M  V30 7330 O 675.684 -1.7859 0.224846 0
M  V30 7331 H 672.059 -0.662719 0.355397 0
M  V30 7332 H 674.03 -2.11666 2.10334 0
M  V30 7333 C 672.779 -3.37212 0.847555 0
M  V30 7334 H 672.102 -3.6303 1.67479 0
M  V30 7335 H 673.542 -4.16668 0.785106 0
M  V30 7336 C 672.001 -3.33891 -0.44929 0
M  V30 7337 O 672.531 -3.73673 -1.47415 0
M  V30 7338 N 670.737 -2.86991 -0.456547 0
M  V30 7339 H 670.284 -2.54813 0.377925 0
M  V30 7340 H 670.242 -2.85152 -1.32423 0
M  V30 7341 N 674.014 -1.12206 -1.10668 0
M  V30 7342 C 674.946 -0.74552 -2.16736 0
M  V30 7343 C 675.959 0.226696 -1.61214 0
M  V30 7344 O 677.148 0.0083936 -1.78498 0
M  V30 7345 C 674.248 -0.0823368 -3.388 0
M  V30 7346 C 673.421 -1.08341 -4.2377 0
M  V30 7347 C 672.48 -0.448292 -5.24287 0
M  V30 7348 O 671.506 -1.10458 -5.58379 0
M  V30 7349 N 672.708 0.785336 -5.75163 0
M  V30 7350 H 675.473 -1.65818 -2.49649 0
M  V30 7351 H 673.034 -1.01335 -1.26265 0
M  V30 7352 H 675.026 0.354476 -4.03145 0
M  V30 7353 H 673.596 0.733041 -3.03884 0
M  V30 7354 H 672.816 -1.69792 -3.55759 0
M  V30 7355 H 674.104 -1.76042 -4.77375 0
M  V30 7356 H 673.502 1.33755 -5.4966 0
M  V30 7357 H 672.059 1.16501 -6.41304 0
M  V30 7358 N 675.492 1.28418 -0.913599 0
M  V30 7359 C 676.903 1.77024 -0.593237 0
M  V30 7360 C 677.254 1.74779 0.891441 0
M  V30 7361 O 676.379 1.34237 1.69733 0
M  V30 7362 C 676.974 3.21456 -1.07011 0
M  V30 7363 C 675.533 3.67786 -0.800664 0
M  V30 7364 C 674.68 2.48185 -1.23691 0
M  V30 7365 H 677.631 1.14883 -1.09487 0
M  V30 7366 H 677.652 3.78269 -0.411481 0
M  V30 7367 H 677.164 3.23058 -2.1507 0
M  V30 7368 H 675.265 3.71644 0.266725 0
M  V30 7369 H 675.378 4.57934 -1.4083 0
M  V30 7370 H 673.742 2.46116 -0.655655 0
M  V30 7371 H 674.525 2.52506 -2.32585 0
M  V30 7372 N 676.97 0.677563 1.42291 0
M  V30 7373 C 678.195 0.207901 2.06355 0
M  V30 7374 C 678.62 -1.12723 1.50583 0
M  V30 7375 O 677.978 -1.70171 0.62543 0
M  V30 7376 C 678.026 0.156489 3.6026 0
M  V30 7377 O 677.13 -0.874162 4.03029 0
M  V30 7378 H 676.471 0.106056 0.655475 0
M  V30 7379 H 679.001 0.927354 1.82377 0
M  V30 7380 H 679.011 -0.0187258 4.07996 0
M  V30 7381 H 677.686 1.13101 4.00226 0
M  V30 7382 H 676.263 -0.669764 3.66836 0
M  V30 7383 N 678.448 -1.51871 0.421078 0
M  V30 7384 C 679.695 -2.01938 -0.15079 0
M  V30 7385 C 680.023 -1.30611 -1.44121 0
M  V30 7386 O 679.278 -0.404631 -1.91471 0
M  V30 7387 C 679.577 -3.54764 -0.433292 0
M  V30 7388 C 679.243 -4.44288 0.76936 0
M  V30 7389 C 677.905 -4.68477 1.09921 0
M  V30 7390 C 680.257 -4.96915 1.57242 0
M  V30 7391 C 677.585 -5.4254 2.2331 0
M  V30 7392 C 679.937 -5.7222 2.69716 0
M  V30 7393 C 678.601 -5.94678 3.03174 0
M  V30 7394 H 677.871 -0.738943 -0.0551781 0
M  V30 7395 H 680.518 -1.82977 0.564945 0
M  V30 7396 H 678.823 -3.71968 -1.23074 0
M  V30 7397 H 680.52 -3.91023 -0.888922 0
M  V30 7398 H 677.11 -4.25646 0.502305 0
M  V30 7399 H 681.294 -4.78125 1.3308 0
M  V30 7400 H 676.55 -5.58146 2.49565 0
M  V30 7401 H 680.724 -6.11992 3.32323 0
M  V30 7402 H 678.351 -6.51848 3.9115 0
M  V30 7403 N 679.926 -0.151884 -1.56866 0
M  V30 7404 C 680.858 0.817008 -2.14144 0
M  V30 7405 C 681.871 1.20735 -1.0921 0
M  V30 7406 O 683.06 1.15058 -1.36469 0
M  V30 7407 C 680.16 2.10844 -2.65326 0
M  V30 7408 C 679.333 1.88471 -3.94712 0
M  V30 7409 C 678.392 3.01649 -4.31155 0
M  V30 7410 O 677.418 2.73127 -4.9939 0
M  V30 7411 N 678.62 4.28947 -3.91132 0
M  V30 7412 H 681.385 0.327448 -2.97906 0
M  V30 7413 H 678.946 0.0315313 -1.61869 0
M  V30 7414 H 680.938 2.85616 -2.86715 0
M  V30 7415 H 679.508 2.51049 -1.86262 0
M  V30 7416 H 678.728 0.977088 -3.81899 0
M  V30 7417 H 680.016 1.70866 -4.79252 0
M  V30 7418 H 679.414 4.54986 -3.36161 0
M  V30 7419 H 677.971 5.00484 -4.17563 0
M  V30 7420 N 681.404 1.57128 0.121893 0
M  V30 7421 C 682.65 1.85853 0.826451 0
M  V30 7422 C 683.005 0.739262 1.77631 0
M  V30 7423 O 682.298 -0.260959 1.89815 0
M  V30 7424 C 682.492 3.1874 1.61677 0
M  V30 7425 C 682.321 4.43487 0.744944 0
M  V30 7426 C 681.091 5.03707 0.400891 0
M  V30 7427 C 683.289 5.1426 0.0638779 0
M  V30 7428 N 681.271 6.12006 -0.481902 0
M  V30 7429 C 682.642 6.16281 -0.678033 0
M  V30 7430 C 684.697 4.97898 -0.0128424 0
M  V30 7431 C 683.4 7.0371 -1.48946 0
M  V30 7432 C 685.426 5.85812 -0.81108 0
M  V30 7433 C 684.788 6.87333 -1.54119 0
M  V30 7434 H 680.887 0.730367 0.279442 0
M  V30 7435 H 683.471 1.9449 0.0903486 0
M  V30 7436 H 681.642 3.11204 2.32393 0
M  V30 7437 H 683.374 3.35283 2.26644 0
M  V30 7438 H 680.129 4.67744 0.742469 0
M  V30 7439 H 680.553 6.70787 -0.915063 0
M  V30 7440 H 685.195 4.19372 0.537278 0
M  V30 7441 H 682.913 7.81646 -2.05074 0
M  V30 7442 H 686.499 5.75217 -0.872764 0
M  V30 7443 H 685.379 7.54182 -2.14893 0
M  V30 7444 N 682.882 -0.391992 1.52647 0
M  V30 7445 C 684.298 -0.731848 1.41831 0
M  V30 7446 C 684.498 -1.9423 0.536361 0
M  V30 7447 O 683.554 -2.52499 0.00866571 0
M  V30 7448 C 684.867 -0.969743 2.84634 0
M  V30 7449 C 686.415 -1.0714 2.94092 0
M  V30 7450 C 686.89 -1.34195 4.37899 0
M  V30 7451 N 688.381 -1.41023 4.41211 0
M  V30 7452 C 689.116 -1.63616 5.49561 0
M  V30 7453 N 688.612 -1.83699 6.68002 0
M  V30 7454 N 690.405 -1.65771 5.371 0
M  V30 7455 H 682.556 0.404547 2.08512 0
M  V30 7456 H 684.819 0.11879 0.940528 0
M  V30 7457 H 684.525 -0.152465 3.51369 0
M  V30 7458 H 684.399 -1.88523 3.26709 0
M  V30 7459 H 686.786 -1.87925 2.27526 0
M  V30 7460 H 686.867 -0.133887 2.55449 0
M  V30 7461 H 686.511 -0.539207 5.0503 0
M  V30 7462 H 686.441 -2.29226 4.74092 0
M  V30 7463 H 688.932 -1.27223 3.55841 0
M  V30 7464 H 689.245 -2.00437 7.46354 0
M  V30 7465 H 687.59 -1.8093 6.71036 0
M  V30 7466 H 690.781 -1.4963 4.43541 0
M  V30 7467 H 690.954 -1.83038 6.21612 0
M  V30 7468 N 684.36 -1.4356 -0.65026 0
M  V30 7469 C 685.292 -1.44918 -1.77571 0
M  V30 7470 C 686.305 -0.344925 -1.59104 0
M  V30 7471 O 687.494 -0.609537 -1.6777 0
M  V30 7472 C 684.594 -1.24914 -3.15039 0
M  V30 7473 C 683.767 -2.48232 -3.60138 0
M  V30 7474 C 682.826 -2.23409 -4.76419 0
M  V30 7475 O 681.852 -2.9678 -4.85706 0
M  V30 7476 N 683.054 -1.25259 -5.66825 0
M  V30 7477 H 685.819 -2.41935 -1.76883 0
M  V30 7478 H 683.38 -1.38754 -0.834202 0
M  V30 7479 H 685.372 -1.06185 -3.90521 0
M  V30 7480 H 683.942 -0.363319 -3.10481 0
M  V30 7481 H 683.162 -2.82366 -2.75069 0
M  V30 7482 H 684.45 -3.30296 -3.87017 0
M  V30 7483 H 683.848 -0.646246 -5.61997 0
M  V30 7484 H 682.405 -1.12513 -6.42016 0
M  V30 7485 N 685.838 0.888903 -1.30139 0
M  V30 7486 C 687.249 1.45578 -1.16893 0
M  V30 7487 C 687.6 1.94825 0.231866 0
M  V30 7488 O 686.725 1.84661 1.12824 0
M  V30 7489 C 687.32 2.646 -2.11595 0
M  V30 7490 C 685.879 3.17389 -2.02339 0
M  V30 7491 C 685.026 1.90081 -2.01902 0
M  V30 7492 H 687.977 0.69921 -1.42467 0
M  V30 7493 H 687.998 3.40687 -1.69449 0
M  V30 7494 H 687.51 2.28726 -3.13538 0
M  V30 7495 H 685.611 3.5793 -1.03523 0
M  V30 7496 H 685.724 3.80955 -2.90534 0
M  V30 7497 H 684.088 2.08246 -1.46648 0
M  V30 7498 H 684.871 1.5647 -3.05568 0
M  V30 7499 N 687.317 1.12792 1.10072 0
M  V30 7500 C 688.542 0.908838 1.86427 0
M  V30 7501 C 688.967 -0.536793 1.80278 0
M  V30 7502 O 688.325 -1.38033 1.17543 0
M  V30 7503 C 688.373 1.39295 3.3261 0
M  V30 7504 O 687.477 0.573846 4.08388 0
M  V30 7505 H 686.818 0.326234 0.578331 0
M  V30 7506 H 689.348 1.50094 1.39043 0
M  V30 7507 H 689.358 1.39366 3.83459 0
M  V30 7508 H 688.033 2.44555 3.36401 0
M  V30 7509 H 686.61 0.640438 3.67359 0
M  V30 7510 N 688.795 -1.27931 0.920396 0
M  V30 7511 C 689.725 -2.29487 0.431024 0
M  V30 7512 C 690.706 -1.62435 -0.504861 0
M  V30 7513 O 691.891 -1.89797 -0.411176 0
M  V30 7514 C 689.021 -3.45788 -0.323709 0
M  V30 7515 C 687.975 -4.24784 0.523658 0
M  V30 7516 C 687.301 -5.33488 -0.359809 0
M  V30 7517 C 688.601 -4.90874 1.78437 0
M  V30 7518 H 690.295 -2.70671 1.27975 0
M  V30 7519 H 687.841 -1.30121 0.616813 0
M  V30 7520 H 689.794 -4.15927 -0.676952 0
M  V30 7521 H 688.518 -3.03502 -1.2064 0
M  V30 7522 H 687.177 -3.56382 0.85951 0
M  V30 7523 H 686.825 -4.87445 -1.24124 0
M  V30 7524 H 686.525 -5.87247 0.203605 0
M  V30 7525 H 688.049 -6.06472 -0.708787 0
M  V30 7526 H 689.463 -5.53339 1.49963 0
M  V30 7527 H 687.86 -5.54659 2.29071 0
M  V30 7528 H 688.93 -4.14988 2.50824 0
M  V30 7529 N 690.273 -0.685099 -1.4193 0
M  V30 7530 C 691.55 -0.140152 -1.95097 0
M  V30 7531 C 691.93 1.34745 -1.62502 0
M  V30 7532 O 691.278 2.08872 -0.926534 0
M  V30 7533 C 691.488 -0.420268 -3.4646 0
M  V30 7534 C 692.836 -0.342338 -4.23218 0
M  V30 7535 O 693.86 -0.354592 -3.54431 0
M  V30 7536 O 692.719 -0.293404 -5.45712 0
M  V30 7537 H 689.813 -0.00885998 -0.826953 0
M  V30 7538 H 692.359 -0.760539 -1.51703 0
M  V30 7539 H 691.131 -1.45037 -3.63428 0
M  V30 7540 H 690.754 0.231616 -3.96925 0
M  V30 7541 N 691.751 1.51645 -0.429126 0
M  V30 7542 C 692.997 2.02314 0.140286 0
M  V30 7543 C 693.33 1.31314 1.43074 0
M  V30 7544 O 692.605 0.425531 1.89788 0
M  V30 7545 C 692.888 3.5822 0.36749 0
M  V30 7546 C 692.741 4.39846 -0.941039 0
M  V30 7547 C 694.06 4.25055 1.14089 0
M  V30 7548 H 691.179 0.735335 0.0495112 0
M  V30 7549 H 693.821 1.81358 -0.566514 0
M  V30 7550 H 691.971 3.76207 0.969556 0
M  V30 7551 H 693.643 4.33527 -1.57646 0
M  V30 7552 H 691.886 4.05259 -1.54751 0
M  V30 7553 H 692.557 5.47069 -0.73621 0
M  V30 7554 H 695.033 4.11288 0.630986 0
M  V30 7555 H 693.909 5.34038 1.26863 0
M  V30 7556 H 694.17 3.85358 2.16683 0
M  V30 7557 N 693.229 0.160201 1.56784 0
M  V30 7558 C 694.139 -0.787167 2.21 0
M  V30 7559 C 695.155 -1.26167 1.19825 0
M  V30 7560 O 696.331 -1.31611 1.52448 0
M  V30 7561 C 693.396 -2.00364 2.8294 0
M  V30 7562 C 692.457 -1.5771 3.99282 0
M  V30 7563 C 691.69 -2.73558 4.58259 0
M  V30 7564 O 691.913 -3.90129 4.16119 0
M  V30 7565 O 690.847 -2.48271 5.48311 0
M  V30 7566 H 694.673 -0.270462 3.02493 0
M  V30 7567 H 692.258 -0.0674666 1.49248 0
M  V30 7568 H 694.14 -2.71529 3.22257 0
M  V30 7569 H 692.815 -2.50961 2.04451 0
M  V30 7570 H 691.722 -0.835274 3.64656 0
M  V30 7571 H 693.055 -1.11815 4.79331 0
M  V30 7572 N 694.707 -1.5719 -0.113559 0
M  V30 7573 C 695.953 -1.85412 -0.821597 0
M  V30 7574 C 696.286 -0.746722 -1.7927 0
M  V30 7575 O 695.561 0.246971 -1.92926 0
M  V30 7576 C 695.844 -3.24233 -1.56669 0
M  V30 7577 C 695.697 -4.45578 -0.614823 0
M  V30 7578 C 697.016 -3.60697 -2.52161 0
M  V30 7579 H 694.135 -0.674406 -0.29723 0
M  V30 7580 H 696.777 -1.89807 -0.085694 0
M  V30 7581 H 694.927 -3.20617 -2.19401 0
M  V30 7582 H 696.599 -4.613 0.00407137 0
M  V30 7583 H 694.842 -4.33738 0.0732332 0
M  V30 7584 H 695.513 -5.39395 -1.17292 0
M  V30 7585 H 697.989 -3.65139 -1.99532 0
M  V30 7586 H 696.865 -4.58798 -3.01323 0
M  V30 7587 H 697.126 -2.88403 -3.35076 0
M  V30 7588 N 696.185 0.383891 -1.52853 0
M  V30 7589 C 697.433 1.12619 -1.67814 0
M  V30 7590 C 697.754 1.90354 -0.423141 0
M  V30 7591 O 697.024 1.87649 0.562554 0
M  V30 7592 H 695.604 0.418738 -0.618601 0
M  V30 7593 H 698.266 0.43495 -1.89985 0
M  V30 7594 H 697.362 1.82624 -2.5309 0
M  V30 7595 N 697.663 1.43903 0.642637 0
M  V30 7596 C 698.94 1.36556 1.40043 0
M  V30 7597 C 699.32 0.0185588 2.11092 0
M  V30 7598 O 698.668 -0.998438 2.05532 0
M  V30 7599 C 698.878 2.55596 2.37638 0
M  V30 7600 C 700.226 2.99153 3.01318 0
M  V30 7601 O 701.25 2.55719 2.47965 0
M  V30 7602 O 700.109 3.74427 3.98078 0
M  V30 7603 H 697.203 0.540189 0.626198 0
M  V30 7604 H 699.749 1.55971 0.668657 0
M  V30 7605 H 698.521 3.45256 1.84158 0
M  V30 7606 H 698.144 2.38334 3.18249 0
M  V30 7607 N 699.141 -0.881989 1.30609 0
M  V30 7608 C 700.552 -1.44956 1.17664 0
M  V30 7609 C 700.903 -1.94945 -0.221531 0
M  V30 7610 O 700.028 -1.85257 -1.11844 0
M  V30 7611 C 700.623 -2.63474 2.12995 0
M  V30 7612 C 699.182 -3.16312 2.04019 0
M  V30 7613 C 698.329 -1.89008 2.02907 0
M  V30 7614 H 701.28 -0.691645 1.42835 0
M  V30 7615 H 701.301 -3.39783 1.71253 0
M  V30 7616 H 700.813 -2.2706 3.14746 0
M  V30 7617 H 698.914 -3.57376 1.0542 0
M  V30 7618 H 699.027 -3.79409 2.9255 0
M  V30 7619 H 697.391 -2.07465 1.47751 0
M  V30 7620 H 698.174 -1.54848 3.06394 0
M  V30 7621 N 700.619 -1.13374 -1.09472 0
M  V30 7622 C 701.567 -0.806105 -2.18185 0
M  V30 7623 C 702.561 0.21136 -1.68076 0
M  V30 7624 O 703.767 0.0685558 -1.79869 0
M  V30 7625 H 700.142 -0.242901 -0.71169 0
M  V30 7626 H 702.113 -1.73115 -2.43051 0
M  V30 7627 C 700.862 -0.287928 -3.46506 0
M  V30 7628 H 700.185 -1.06217 -3.85432 0
M  V30 7629 H 701.625 -0.0971054 -4.23889 0
M  V30 7630 C 700.084 0.986256 -3.22141 0
M  V30 7631 O 700.614 2.06217 -3.44728 0
M  V30 7632 N 698.82 0.917153 -2.75747 0
M  V30 7633 H 698.367 0.0414609 -2.57567 0
M  V30 7634 H 698.325 1.77029 -2.59823 0
M  V30 7635 N 702.098 1.27442 -0.927168 0
M  V30 7636 C 703.509 1.76385 -0.611979 0
M  V30 7637 C 703.86 1.75715 0.872853 0
M  V30 7638 O 702.985 1.3603 1.683 0
M  V30 7639 C 703.58 3.20303 -1.10414 0
M  V30 7640 C 702.139 3.66916 -0.839628 0
M  V30 7641 C 701.286 2.46859 -1.26317 0
M  V30 7642 H 704.237 1.13716 -1.107 0
M  V30 7643 H 704.258 3.77811 -0.451578 0
M  V30 7644 H 703.77 3.20759 -2.18484 0
M  V30 7645 H 701.871 3.71906 0.227292 0
M  V30 7646 H 701.984 4.56415 -1.45679 0
M  V30 7647 H 700.348 2.45407 -0.681723 0
M  V30 7648 H 701.131 2.50025 -2.3525 0
M  V30 7649 N 703.576 0.692616 1.41565 0
M  V30 7650 C 704.853 0.150496 1.9502 0
M  V30 7651 C 705.233 -1.33881 1.63215 0
M  V30 7652 O 704.581 -2.08378 0.937598 0
M  V30 7653 C 704.791 0.438636 3.46233 0
M  V30 7654 C 706.139 0.364777 4.2303 0
M  V30 7655 O 707.163 0.373383 3.54238 0
M  V30 7656 O 706.022 0.32234 5.45549 0
M  V30 7657 H 703.116 0.0132454 0.826894 0
M  V30 7658 H 705.662 0.768574 1.51298 0
M  V30 7659 H 704.434 1.46962 3.62654 0
M  V30 7660 H 704.057 -0.210562 3.97042 0
M  V30 7661 N 705.054 -1.51416 0.437162 0
M  V30 7662 C 706.3 -2.02386 -0.129555 0
M  V30 7663 C 706.633 -1.32071 -1.42376 0
M  V30 7664 O 705.908 -0.43559 -1.8956 0
M  V30 7665 C 706.191 -3.5841 -0.348487 0
M  V30 7666 C 706.044 -4.39341 0.964352 0
M  V30 7667 C 707.363 -4.25654 -1.11834 0
M  V30 7668 H 704.482 -0.735587 -0.0456109 0
M  V30 7669 H 707.124 -1.81055 0.576124 0
M  V30 7670 H 705.274 -3.76716 -0.949592 0
M  V30 7671 H 706.946 -4.32685 1.59942 0
M  V30 7672 H 705.189 -4.04432 1.56898 0
M  V30 7673 H 705.86 -5.4667 0.765212 0
M  V30 7674 H 708.336 -4.11617 -0.609165 0
M  V30 7675 H 707.212 -5.34704 -1.24029 0
M  V30 7676 H 707.473 -3.86502 -2.14636 0
M  V30 7677 N 706.532 -0.168513 -1.56696 0
M  V30 7678 C 707.778 0.477865 -1.9709 0
M  V30 7679 C 708.111 1.63084 -1.05438 0
M  V30 7680 O 707.386 1.94238 -0.10095 0
M  V30 7681 C 707.669 0.963521 -3.4697 0
M  V30 7682 C 707.522 -0.189443 -4.49401 0
M  V30 7683 C 708.841 1.83813 -3.99876 0
M  V30 7684 H 705.96 0.172229 -0.716593 0
M  V30 7685 H 708.602 -0.254083 -1.88293 0
M  V30 7686 H 706.752 1.58724 -3.54597 0
M  V30 7687 H 708.424 -0.826451 -4.53836 0
M  V30 7688 H 706.667 -0.845366 -4.25483 0
M  V30 7689 H 707.338 0.192446 -5.51664 0
M  V30 7690 H 709.814 1.31235 -3.94863 0
M  V30 7691 H 708.69 2.14697 -5.0517 0
M  V30 7692 H 708.951 2.78289 -3.43523 0
M  V30 7693 N 708.01 1.57248 0.105221 0
M  V30 7694 C 709.235 1.90143 0.828264 0
M  V30 7695 C 709.66 0.761811 1.71983 0
M  V30 7696 O 709.018 -0.287086 1.79013 0
M  V30 7697 C 709.066 3.21856 1.62608 0
M  V30 7698 O 708.17 3.08732 2.7342 0
M  V30 7699 H 707.511 0.623558 0.228192 0
M  V30 7700 H 710.041 2.0443 0.0834826 0
M  V30 7701 H 710.051 3.54916 2.01243 0
M  V30 7702 H 708.726 4.0439 0.971687 0
M  V30 7703 H 707.303 2.87167 2.37886 0
M  V30 7704 N 709.488 -0.375779 1.53054 0
M  V30 7705 C 710.735 -1.11948 1.68742 0
M  V30 7706 C 711.063 -1.89596 0.434015 0
M  V30 7707 O 710.318 -1.86787 -0.583867 0
M  V30 7708 C 710.617 -2.11356 2.88207 0
M  V30 7709 C 710.283 -1.50266 4.25124 0
M  V30 7710 C 708.945 -1.33333 4.62359 0
M  V30 7711 C 711.297 -1.05976 5.10312 0
M  V30 7712 C 708.625 -0.706765 5.82427 0
M  V30 7713 C 710.977 -0.447241 6.31017 0
M  V30 7714 C 709.641 -0.265314 6.66973 0
M  V30 7715 H 708.911 -0.409648 0.61747 0
M  V30 7716 H 711.558 -0.402492 1.87222 0
M  V30 7717 H 709.863 -2.89322 2.64197 0
M  V30 7718 H 711.56 -2.68833 2.97539 0
M  V30 7719 H 708.15 -1.64437 3.95801 0
M  V30 7720 H 712.334 -1.17855 4.82104 0
M  V30 7721 H 707.59 -0.554132 6.08884 0
M  V30 7722 H 711.764 -0.0958064 6.96334 0
M  V30 7723 H 709.391 0.222267 7.59875 0
M  V30 7724 N 710.966 -1.44241 -0.634997 0
M  V30 7725 C 712.382 -1.28043 -0.952742 0
M  V30 7726 C 712.582 -0.21338 -2.00367 0
M  V30 7727 O 711.638 0.402042 -2.49279 0
M  V30 7728 C 712.951 -2.65076 -1.41968 0
M  V30 7729 C 714.499 -2.72755 -1.53537 0
M  V30 7730 C 714.974 -4.10249 -2.03616 0
M  V30 7731 N 716.465 -4.12406 -2.10892 0
M  V30 7732 C 717.2 -5.15641 -2.50803 0
M  V30 7733 N 716.696 -6.29239 -2.89879 0
M  V30 7734 N 718.489 -5.02995 -2.50903 0
M  V30 7735 H 710.64 -2.12315 0.060098 0
M  V30 7736 H 712.903 -0.947326 -0.0357325 0
M  V30 7737 H 712.609 -3.44213 -0.721804 0
M  V30 7738 H 712.483 -2.91704 -2.39141 0
M  V30 7739 H 714.87 -1.93939 -2.22422 0
M  V30 7740 H 714.951 -2.49872 -0.547496 0
M  V30 7741 H 714.595 -4.8954 -1.35327 0
M  V30 7742 H 714.525 -4.30507 -3.03268 0
M  V30 7743 H 717.016 -3.30417 -1.83393 0
M  V30 7744 H 717.329 -7.03827 -3.19135 0
M  V30 7745 H 715.674 -6.32683 -2.8764 0
M  V30 7746 H 718.865 -4.13306 -2.19763 0
M  V30 7747 H 719.038 -5.83574 -2.81683 0
M  V30 7748 N 712.444 0.87505 -1.31075 0
M  V30 7749 C 713.669 1.66583 -1.23551 0
M  V30 7750 C 714.094 1.87067 0.19686 0
M  V30 7751 O 713.452 1.40877 1.1412 0
M  V30 7752 C 713.5 3.01401 -1.97965 0
M  V30 7753 O 712.604 3.90923 -1.31351 0
M  V30 7754 H 711.945 0.508645 -0.426821 0
M  V30 7755 H 714.475 1.09139 -1.7306 0
M  V30 7756 H 714.485 3.51374 -2.07366 0
M  V30 7757 H 713.16 2.85812 -3.02133 0
M  V30 7758 H 711.737 3.49369 -1.30368 0
M  V30 7759 N 713.922 1.13953 1.08869 0
M  V30 7760 C 715.15 0.92817 1.84912 0
M  V30 7761 C 715.565 -0.523197 1.81406 0
M  V30 7762 O 714.922 -1.36237 1.21432 0
M  V30 7763 C 714.973 1.41509 3.32652 0
M  V30 7764 O 714.694 2.80959 3.36145 0
M  V30 7765 C 716.195 1.243 4.25517 0
M  V30 7766 H 713.415 0.330612 0.583898 0
M  V30 7767 H 715.959 1.51349 1.37527 0
M  V30 7768 H 714.114 0.872648 3.77444 0
M  V30 7769 H 714.528 3.02704 4.28335 0
M  V30 7770 H 716.002 1.63237 5.27312 0
M  V30 7771 H 716.479 0.18532 4.38809 0
M  V30 7772 H 717.085 1.77375 3.86546 0
M  V30 7773 N 715.4 -1.26948 0.933913 0
M  V30 7774 C 716.646 -1.94716 0.587985 0
M  V30 7775 C 717.001 -1.71994 -0.862312 0
M  V30 7776 O 716.294 -1.04208 -1.60783 0
M  V30 7777 C 716.488 -3.46963 0.857406 0
M  V30 7778 C 716.317 -3.84489 2.33234 0
M  V30 7779 C 715.087 -4.07621 2.98618 0
M  V30 7780 C 717.285 -3.93602 3.31031 0
M  V30 7781 N 715.267 -4.31976 4.362 0
M  V30 7782 C 716.638 -4.22404 4.53845 0
M  V30 7783 C 718.693 -3.76201 3.26155 0
M  V30 7784 C 717.396 -4.35615 5.72391 0
M  V30 7785 C 719.422 -3.90641 4.4402 0
M  V30 7786 C 718.784 -4.19835 5.65613 0
M  V30 7787 H 714.883 -0.735586 0.2654 0
M  V30 7788 H 717.467 -1.53181 1.20182 0
M  V30 7789 H 715.638 -3.87442 0.27268 0
M  V30 7790 H 717.37 -4.01921 0.47348 0
M  V30 7791 H 714.125 -4.02696 2.49264 0
M  V30 7792 H 714.549 -4.48199 5.07392 0
M  V30 7793 H 719.191 -3.52665 2.3321 0
M  V30 7794 H 716.909 -4.57975 6.65796 0
M  V30 7795 H 720.495 -3.78589 4.41771 0
M  V30 7796 H 719.375 -4.30765 6.55295 0
M  V30 7797 N 716.879 -0.700114 -1.41195 0
M  V30 7798 C 718.125 -0.233351 -2.01453 0
M  V30 7799 C 718.458 1.16548 -1.55339 0
M  V30 7800 O 717.733 1.78756 -0.766575 0
M  V30 7801 C 718.016 -0.2961 -3.58881 0
M  V30 7802 C 717.869 -1.7322 -4.15108 0
M  V30 7803 C 719.188 0.341525 -4.38773 0
M  V30 7804 H 716.307 -0.0862667 -0.731934 0
M  V30 7805 H 718.949 -0.889693 -1.67882 0
M  V30 7806 H 717.099 0.262736 -3.87611 0
M  V30 7807 H 718.771 -2.34523 -3.97236 0
M  V30 7808 H 717.014 -2.2649 -3.69979 0
M  V30 7809 H 717.685 -1.7276 -5.24269 0
M  V30 7810 H 720.161 -0.134461 -4.15883 0
M  V30 7811 H 719.037 0.267098 -5.4825 0
M  V30 7812 H 719.298 1.42289 -4.18577 0
M  V30 7813 N 718.357 1.51182 -0.445186 0
M  V30 7814 C 719.304 2.27939 0.362291 0
M  V30 7815 C 720.274 1.31864 1.01 0
M  V30 7816 O 721.459 1.60776 1.02741 0
M  V30 7817 C 718.599 3.13016 1.45311 0
M  V30 7818 C 717.712 4.24093 0.822757 0
M  V30 7819 C 716.847 4.96467 1.88928 0
M  V30 7820 C 715.886 5.99454 1.23778 0
M  V30 7821 N 715.023 6.65206 2.24602 0
M  V30 7822 H 719.863 2.965 -0.29862 0
M  V30 7823 H 717.4 1.46237 -0.15911 0
M  V30 7824 H 719.358 3.60673 2.09692 0
M  V30 7825 H 717.988 2.46553 2.08354 0
M  V30 7826 H 717.04 3.80341 0.0670364 0
M  V30 7827 H 718.352 4.97853 0.307184 0
M  V30 7828 H 717.506 5.47712 2.60953 0
M  V30 7829 H 716.245 4.22355 2.4386 0
M  V30 7830 H 715.25 5.47494 0.503042 0
M  V30 7831 H 716.475 6.75527 0.695694 0
M  V30 7832 H 714.421 5.93901 2.78599 0
M  V30 7833 H 714.338 7.34756 1.77958 0
M  V30 7834 H 715.606 7.21078 2.96085 0
M  V30 7835 N 719.835 0.176821 1.56605 0
M  V30 7836 C 721.251 -0.179278 1.5859 0
M  V30 7837 C 721.451 -1.62433 1.19238 0
M  V30 7838 O 720.507 -2.35665 0.906552 0
M  V30 7839 C 721.82 0.106524 3.00511 0
M  V30 7840 C 723.368 0.0451731 3.12967 0
M  V30 7841 C 723.843 0.304038 4.5699 0
M  V30 7842 N 725.334 0.252008 4.62514 0
M  V30 7843 C 726.069 0.426404 5.71812 0
M  V30 7844 N 725.565 0.660155 6.89648 0
M  V30 7845 N 727.358 0.361926 5.60934 0
M  V30 7846 H 719.509 1.12001 1.8047 0
M  V30 7847 H 721.772 0.445679 0.836704 0
M  V30 7848 H 721.478 1.10778 3.33798 0
M  V30 7849 H 721.352 -0.599337 3.72408 0
M  V30 7850 H 723.739 -0.946662 2.79504 0
M  V30 7851 H 723.82 0.78383 2.43495 0
M  V30 7852 H 723.464 1.29311 4.91163 0
M  V30 7853 H 723.394 -0.455294 5.24628 0
M  V30 7854 H 725.885 0.0772102 3.77821 0
M  V30 7855 H 726.198 0.782529 7.68828 0
M  V30 7856 H 724.543 0.696835 6.91498 0
M  V30 7857 H 727.734 0.17986 4.67754 0
M  V30 7858 H 727.907 0.501263 6.46058 0
M  V30 7859 N 721.313 -1.57302 -0.09688 0
M  V30 7860 C 722.562 -1.85183 -0.799388 0
M  V30 7861 C 722.875 -0.765818 -1.79985 0
M  V30 7862 O 724.081 -0.931696 -2.55013 0
M  V30 7863 C 722.537 -3.28399 -1.47249 0
M  V30 7864 C 722.145 -4.45066 -0.511888 0
M  V30 7865 C 723.889 -3.65506 -2.15883 0
M  V30 7866 C 721.796 -5.79315 -1.18948 0
M  V30 7867 H 720.726 -0.690752 -0.302287 0
M  V30 7868 H 723.377 -1.83425 -0.0523104 0
M  V30 7869 H 721.759 -3.24692 -2.26697 0
M  V30 7870 H 722.933 -4.60116 0.250962 0
M  V30 7871 H 721.248 -4.16343 0.0686576 0
M  V30 7872 H 723.845 -4.63087 -2.67309 0
M  V30 7873 H 724.188 -2.94041 -2.94696 0
M  V30 7874 H 724.721 -3.71094 -1.43298 0
M  V30 7875 H 721.46 -6.54007 -0.442198 0
M  V30 7876 H 720.98 -5.68111 -1.9238 0
M  V30 7877 H 722.659 -6.23816 -1.71646 0
M  V30 7878 N 722.791 0.367657 -1.53252 0
M  V30 7879 C 723.723 1.47032 -1.75824 0
M  V30 7880 C 724.736 1.49736 -0.63898 0
M  V30 7881 O 725.925 1.53253 -0.915193 0
M  V30 7882 C 723.025 2.85805 -1.82122 0
M  V30 7883 C 722.198 3.06822 -3.11736 0
M  V30 7884 C 721.257 4.25698 -3.09302 0
M  V30 7885 O 720.283 4.20972 -3.83107 0
M  V30 7886 N 721.485 5.33002 -2.29977 0
M  V30 7887 H 724.25 1.28048 -2.70968 0
M  V30 7888 H 721.811 0.557363 -1.52004 0
M  V30 7889 H 723.803 3.63465 -1.77975 0
M  V30 7890 H 722.373 2.98046 -0.942716 0
M  V30 7891 H 721.593 2.1684 -3.29202 0
M  V30 7892 H 722.881 3.17731 -3.97397 0
M  V30 7893 H 722.279 5.39703 -1.69521 0
M  V30 7894 H 720.836 6.09247 -2.3165 0
M  V30 7895 N 724.269 1.44576 0.627338 0
M  V30 7896 C 725.179 1.54232 1.76776 0
M  V30 7897 C 726.195 0.427782 1.6866 0
M  V30 7898 O 727.371 0.685671 1.89369 0
M  V30 7899 C 724.436 1.48738 3.13174 0
M  V30 7900 C 723.497 2.71074 3.32893 0
M  V30 7901 C 722.73 2.65832 4.62784 0
M  V30 7902 O 722.953 1.72048 5.43834 0
M  V30 7903 O 721.887 3.56742 4.84787 0
M  V30 7904 H 725.713 2.50586 1.71582 0
M  V30 7905 H 723.298 1.26865 0.789028 0
M  V30 7906 H 725.18 1.48211 3.94476 0
M  V30 7907 H 723.855 0.555292 3.18902 0
M  V30 7908 H 722.762 2.77168 2.51254 0
M  V30 7909 H 724.095 3.63342 3.32029 0
M  V30 7910 N 725.747 -0.868086 1.31537 0
M  V30 7911 C 726.695 -1.99688 1.1928 0
M  V30 7912 C 727.689 -1.69101 0.100656 0
M  V30 7913 O 728.895 -1.78073 0.262677 0
M  V30 7914 H 725.27 -0.655032 0.369374 0
M  V30 7915 H 727.241 -2.07157 2.14776 0
M  V30 7916 C 725.99 -3.35338 0.918892 0
M  V30 7917 H 725.313 -3.59396 1.75142 0
M  V30 7918 H 726.753 -4.14909 0.873311 0
M  V30 7919 C 725.212 -3.34769 -0.378366 0
M  V30 7920 O 725.742 -3.76716 -1.39456 0
M  V30 7921 N 723.948 -2.87895 -0.39557 0
M  V30 7922 H 723.495 -2.53954 0.431889 0
M  V30 7923 H 723.453 -2.87897 -1.26344 0
M  V30 7924 N 727.225 -1.14528 -1.08264 0
M  V30 7925 C 728.172 -0.833556 -2.15222 0
M  V30 7926 C 729.142 0.209539 -1.64773 0
M  V30 7927 O 730.327 0.0791388 -1.90636 0
M  V30 7928 C 727.467 -0.318799 -3.43624 0
M  V30 7929 C 726.58 -1.42237 -4.07913 0
M  V30 7930 C 725.715 -0.864704 -5.24115 0
M  V30 7931 C 724.754 -1.94585 -5.80347 0
M  V30 7932 N 723.891 -1.40525 -6.87893 0
M  V30 7933 H 728.731 -1.74965 -2.41228 0
M  V30 7934 H 726.268 -0.873169 -1.18381 0
M  V30 7935 H 728.226 -0.00213088 -4.172 0
M  V30 7936 H 726.856 0.560397 -3.17898 0
M  V30 7937 H 725.908 -1.8554 -3.32083 0
M  V30 7938 H 727.22 -2.23901 -4.45724 0
M  V30 7939 H 726.374 -0.500025 -6.04636 0
M  V30 7940 H 725.113 -0.0171219 -4.87697 0
M  V30 7941 H 724.118 -2.31946 -4.98479 0
M  V30 7942 H 725.343 -2.79704 -6.18823 0
M  V30 7943 H 723.289 -0.579873 -6.53432 0
M  V30 7944 H 723.206 -2.15825 -7.24538 0
M  V30 7945 H 724.474 -1.06852 -7.72142 0
M  V30 7946 N 728.703 1.26451 -0.940633 0
M  V30 7947 C 729.635 2.25556 -0.407104 0
M  V30 7948 C 730.648 1.55888 0.469324 0
M  V30 7949 O 731.837 1.76292 0.279858 0
M  V30 7950 C 728.937 3.36109 0.434064 0
M  V30 7951 C 728.11 4.3532 -0.426082 0
M  V30 7952 C 727.169 5.25004 0.354563 0
M  V30 7953 O 726.195 5.68684 -0.242219 0
M  V30 7954 N 727.397 5.5652 1.65123 0
M  V30 7955 H 730.162 2.7197 -1.25907 0
M  V30 7956 H 727.723 1.40212 -0.809456 0
M  V30 7957 H 729.715 3.93059 0.963684 0
M  V30 7958 H 728.285 2.89194 1.18683 0
M  V30 7959 H 727.505 3.77449 -1.13692 0
M  V30 7960 H 728.793 4.986 -1.01366 0
M  V30 7961 H 728.191 5.22912 2.15822 0
M  V30 7962 H 726.748 6.16115 2.12711 0
M  V30 7963 N 730.181 0.707592 1.40822 0
M  V30 7964 C 731.128 0.0499029 2.30746 0
M  V30 7965 C 732.098 -0.758718 1.47759 0
M  V30 7966 O 733.283 -0.724299 1.76518 0
M  V30 7967 C 730.423 -0.871756 3.33908 0
M  V30 7968 C 729.536 -0.0534655 4.31967 0
M  V30 7969 C 728.671 -0.973869 5.22197 0
M  V30 7970 C 727.71 -0.149194 6.11918 0
M  V30 7971 N 726.847 -1.02404 6.94592 0
M  V30 7972 H 731.687 0.822461 2.86426 0
M  V30 7973 H 729.224 0.417285 1.41057 0
M  V30 7974 H 731.182 -1.42028 3.9228 0
M  V30 7975 H 729.812 -1.61058 2.7975 0
M  V30 7976 H 728.864 0.612142 3.75442 0
M  V30 7977 H 730.176 0.585354 4.95353 0
M  V30 7978 H 729.33 -1.59121 5.85462 0
M  V30 7979 H 728.069 -1.64652 4.59065 0
M  V30 7980 H 727.074 0.481137 5.47691 0
M  V30 7981 H 728.299 0.519841 6.77107 0
M  V30 7982 H 726.245 -1.6825 6.34057 0
M  V30 7983 H 726.162 -0.441076 7.54712 0
M  V30 7984 H 727.43 -1.62782 7.62314 0
M  V30 7985 N 731.66 -1.50943 0.453197 0
M  V30 7986 C 732.906 -2.03153 -0.100277 0
M  V30 7987 C 733.261 -1.33032 -1.38997 0
M  V30 7988 O 732.554 -0.441423 -1.86446 0
M  V30 7989 C 732.748 -3.55603 -0.357944 0
M  V30 7990 C 732.577 -4.40495 0.905223 0
M  V30 7991 C 731.347 -4.84247 1.44337 0
M  V30 7992 C 733.545 -4.81931 1.79575 0
M  V30 7993 N 731.527 -5.53403 2.65742 0
M  V30 7994 C 732.898 -5.50314 2.85577 0
M  V30 7995 C 734.953 -4.63903 1.80828 0
M  V30 7996 C 733.656 -6.02581 3.92797 0
M  V30 7997 C 735.682 -5.17097 2.86993 0
M  V30 7998 C 735.044 -5.8544 3.91713 0
M  V30 7999 H 731.143 -0.781995 0.00287755 0
M  V30 8000 H 733.727 -1.84651 0.617411 0
M  V30 8001 H 731.898 -3.74087 -1.04467 0
M  V30 8002 H 733.63 -3.9447 -0.904175 0
M  V30 8003 H 730.385 -4.63029 0.995045 0
M  V30 8004 H 730.809 -5.92598 3.27348 0
M  V30 8005 H 735.451 -4.10512 1.0119 0
M  V30 8006 H 733.169 -6.55018 4.73262 0
M  V30 8007 H 736.755 -5.0499 2.88923 0
M  V30 8008 H 735.635 -6.25861 4.72512 0
M  V30 8009 N 733.138 -0.185124 -1.56509 0
M  V30 8010 C 734.085 0.739729 -2.18624 0
M  V30 8011 C 735.055 1.217 -1.13042 0
M  V30 8012 O 736.24 1.28268 -1.41251 0
M  V30 8013 C 733.38 1.95787 -2.84186 0
M  V30 8014 C 732.493 1.52289 -4.04267 0
M  V30 8015 C 731.628 2.69576 -4.57714 0
M  V30 8016 C 730.667 2.22636 -5.70175 0
M  V30 8017 N 729.804 3.33065 -6.18071 0
M  V30 8018 H 734.644 0.203269 -2.97306 0
M  V30 8019 H 732.181 0.0885946 -1.46833 0
M  V30 8020 H 734.139 2.67253 -3.20361 0
M  V30 8021 H 732.769 2.4678 -2.08085 0
M  V30 8022 H 731.821 0.704458 -3.7382 0
M  V30 8023 H 733.133 1.13843 -4.85635 0
M  V30 8024 H 732.287 3.4918 -4.96143 0
M  V30 8025 H 731.026 3.1129 -3.75433 0
M  V30 8026 H 730.031 1.41483 -5.31284 0
M  V30 8027 H 731.256 1.81964 -6.54267 0
M  V30 8028 H 729.202 3.74328 -5.38715 0
M  V30 8029 H 729.119 2.98756 -6.94464 0
M  V30 8030 H 730.387 4.12912 -6.61153 0
M  V30 8031 N 734.616 1.57351 0.0885366 0
M  V30 8032 C 735.526 2.05858 1.12516 0
M  V30 8033 C 736.542 0.984758 1.43452 0
M  V30 8034 O 737.718 1.29836 1.53963 0
M  V30 8035 C 734.783 2.47882 2.42395 0
M  V30 8036 C 733.844 3.69487 2.18582 0
M  V30 8037 C 733.077 4.09497 3.42268 0
M  V30 8038 O 733.3 3.49536 4.50755 0
M  V30 8039 O 732.234 5.02406 3.31469 0
M  V30 8040 H 736.06 2.94467 0.743146 0
M  V30 8041 H 733.645 1.46326 0.301507 0
M  V30 8042 H 735.527 2.75509 3.18862 0
M  V30 8043 H 734.202 1.62408 2.8001 0
M  V30 8044 H 733.109 3.46967 1.39875 0
M  V30 8045 H 734.442 4.55761 1.85857 0
M  V30 8046 N 736.094 -0.359525 1.53444 0
M  V30 8047 C 737.51 -0.701599 1.43352 0
M  V30 8048 C 737.71 -1.93049 0.577439 0
M  V30 8049 O 736.766 -2.52423 0.0622224 0
M  V30 8050 C 738.079 -0.90915 2.86627 0
M  V30 8051 C 739.627 -1.00878 2.96298 0
M  V30 8052 C 740.102 -1.24876 4.40647 0
M  V30 8053 N 741.593 -1.31632 4.44103 0
M  V30 8054 C 742.328 -1.51922 5.52908 0
M  V30 8055 N 741.824 -1.69489 6.71748 0
M  V30 8056 N 743.617 -1.54341 5.40496 0
M  V30 8057 H 735.768 0.448685 2.07607 0
M  V30 8058 H 738.031 0.138713 0.937797 0
M  V30 8059 H 737.737 -0.0778997 3.51614 0
M  V30 8060 H 737.611 -1.81551 3.30634 0
M  V30 8061 H 739.998 -1.83057 2.31461 0
M  V30 8062 H 740.079 -0.0796721 2.55676 0
M  V30 8063 H 739.723 -0.431961 5.0606 0
M  V30 8064 H 739.653 -2.19118 4.78848 0
M  V30 8065 H 742.144 -1.19646 3.5846 0
M  V30 8066 H 742.457 -1.84561 7.50438 0
M  V30 8067 H 740.802 -1.66655 6.74723 0
M  V30 8068 H 743.993 -1.40188 4.46615 0
M  V30 8069 H 744.166 -1.69812 6.25354 0
M  V30 8070 N 737.572 -1.44907 -0.619662 0
M  V30 8071 C 738.535 -1.52282 -1.71297 0
M  V30 8072 C 739.535 -0.40359 -1.55653 0
M  V30 8073 O 740.725 -0.666638 -1.6094 0
M  V30 8074 C 737.857 -1.40778 -3.10474 0
M  V30 8075 H 739.05 -2.49683 -1.66128 0
M  V30 8076 H 736.603 -1.32168 -0.834339 0
M  V30 8077 H 737.338 -0.445156 -3.2123 0
M  V30 8078 H 737.123 -2.21947 -3.23237 0
M  V30 8079 H 738.613 -1.48946 -3.90135 0
M  V30 8080 N 739.05 0.861098 -1.31996 0
M  V30 8081 C 740.013 1.95068 -1.20338 0
M  V30 8082 C 741.013 1.60289 -0.128114 0
M  V30 8083 O 742.203 1.70048 -0.378044 0
M  V30 8084 C 739.335 3.30153 -0.849205 0
M  V30 8085 H 740.528 2.06833 -2.17164 0
M  V30 8086 H 738.081 1.05049 -1.15734 0
M  V30 8087 H 738.816 3.24087 0.117508 0
M  V30 8088 H 738.601 3.56771 -1.62655 0
M  V30 8089 H 740.091 4.10025 -0.791782 0
M  V30 8090 N 740.528 1.15101 1.07655 0
M  V30 8091 C 741.753 0.948177 1.84457 0
M  V30 8092 C 742.178 -0.498432 1.81376 0
M  V30 8093 O 741.536 -1.35509 1.20445 0
M  V30 8094 C 741.584 1.46318 3.29581 0
M  V30 8095 O 740.688 0.660342 4.07079 0
M  V30 8096 H 740.029 0.338428 0.571281 0
M  V30 8097 H 742.559 1.5301 1.35828 0
M  V30 8098 H 742.569 1.47468 3.80417 0
M  V30 8099 H 741.244 2.51635 3.31138 0
M  V30 8100 H 739.821 0.718216 3.65918 0
M  V30 8101 N 742.006 -1.2595 0.947325 0
M  V30 8102 C 743.254 -1.93081 0.596996 0
M  V30 8103 C 743.575 -1.74632 -0.867672 0
M  V30 8104 O 742.845 -1.1056 -1.6172 0
M  V30 8105 H 741.425 -0.714542 0.217805 0
M  V30 8106 H 744.087 -1.53265 1.20398 0
M  V30 8107 H 743.183 -3.01134 0.82004 0
M  V30 8108 N 743.484 -0.715051 -1.40445 0
M  V30 8109 C 744.733 -0.251322 -2.00128 0
M  V30 8110 C 745.046 1.16194 -1.57347 0
M  V30 8111 O 746.252 1.72416 -2.09726 0
M  V30 8112 C 744.708 -0.398407 -3.57688 0
M  V30 8113 C 744.316 -1.81828 -4.09442 0
M  V30 8114 C 746.06 0.00455625 -4.245 0
M  V30 8115 C 743.967 -1.91598 -5.59503 0
M  V30 8116 H 742.897 -0.0902081 -0.748584 0
M  V30 8117 H 745.548 -0.886062 -1.6069 0
M  V30 8118 H 743.93 0.304908 -3.94824 0
M  V30 8119 H 745.104 -2.55193 -3.83684 0
M  V30 8120 H 743.419 -2.17266 -3.55225 0
M  V30 8121 H 746.016 -0.0477303 -5.34679 0
M  V30 8122 H 746.359 1.04636 -4.02935 0
M  V30 8123 H 746.892 -0.649184 -3.92467 0
M  V30 8124 H 743.631 -2.93898 -5.85922 0
M  V30 8125 H 743.151 -1.22644 -5.87127 0
M  V30 8126 H 744.83 -1.68785 -6.24596 0
M  V30 8127 N 744.962 1.50701 -0.461195 0
M  V30 8128 C 746.19 2.06681 0.0951756 0
M  V30 8129 C 746.605 1.32615 1.34382 0
M  V30 8130 O 745.962 0.392531 1.78229 0
M  V30 8131 C 746.013 3.59354 0.393316 0
M  V30 8132 O 745.734 4.30626 -0.805797 0
M  V30 8133 C 747.235 4.31926 0.997744 0
M  V30 8134 H 744.455 0.670995 -0.00267259 0
M  V30 8135 H 746.999 1.93991 -0.647137 0
M  V30 8136 H 745.154 3.7188 1.08555 0
M  V30 8137 H 745.568 5.21667 -0.544409 0
M  V30 8138 H 747.042 5.39756 1.15619 0
M  V30 8139 H 747.519 3.91772 1.98523 0
M  V30 8140 H 748.125 4.23905 0.344188 0
M  V30 8141 N 746.441 0.193421 1.56409 0
M  V30 8142 C 747.389 -0.744829 2.20352 0
M  V30 8143 C 748.383 -1.22104 1.17418 0
M  V30 8144 O 749.589 -1.18413 1.35567 0
M  V30 8145 H 745.964 -0.258538 0.70616 0
M  V30 8146 H 747.935 -0.181794 2.97846 0
M  V30 8147 C 746.684 -1.95453 2.87565 0
M  V30 8148 H 746.007 -1.59716 3.66512 0
M  V30 8149 H 747.447 -2.58942 3.35745 0
M  V30 8150 C 745.906 -2.79223 1.8851 0
M  V30 8151 O 746.436 -3.77093 1.38434 0
M  V30 8152 N 744.642 -2.44682 1.56777 0
M  V30 8153 H 744.189 -1.65153 1.97692 0
M  V30 8154 H 744.147 -3.01016 0.907573 0
M  V30 8155 N 747.919 -1.57396 -0.0801906 0
M  V30 8156 C 748.851 -1.9982 -1.12271 0
M  V30 8157 C 749.864 -0.902902 -1.35468 0
M  V30 8158 O 751.053 -1.18088 -1.33856 0
M  V30 8159 C 748.153 -2.31476 -2.47532 0
M  V30 8160 C 747.326 -3.62745 -2.44407 0
M  V30 8161 C 746.385 -3.82168 -3.6171 0
M  V30 8162 O 745.411 -4.53852 -3.43522 0
M  V30 8163 N 746.613 -3.2388 -4.81749 0
M  V30 8164 H 749.378 -2.89864 -0.761501 0
M  V30 8165 H 746.939 -1.5965 -0.268965 0
M  V30 8166 H 748.931 -2.4165 -3.24634 0
M  V30 8167 H 747.501 -1.47364 -2.75686 0
M  V30 8168 H 746.721 -3.63403 -1.52747 0
M  V30 8169 H 748.009 -4.48954 -2.39412 0
M  V30 8170 H 747.407 -2.6568 -4.9943 0
M  V30 8171 H 745.964 -3.39515 -5.56392 0
M  V30 8172 N 749.397 0.351382 -1.53633 0
M  V30 8173 C 750.33 1.45407 -1.75875 0
M  V30 8174 C 751.308 1.50822 -0.607566 0
M  V30 8175 O 752.492 1.68658 -0.841818 0
M  V30 8176 C 749.619 2.8369 -1.85034 0
M  V30 8177 C 748.665 2.95935 -3.07123 0
M  V30 8178 S 749.498 2.63215 -4.66345 0
M  V30 8179 C 750.654 4.03622 -4.78373 0
M  V30 8180 H 750.887 1.26322 -2.69128 0
M  V30 8181 H 748.42 0.546581 -1.44402 0
M  V30 8182 H 750.378 3.6336 -1.90996 0
M  V30 8183 H 749.039 3.00076 -0.928074 0
M  V30 8184 H 748.232 3.97243 -3.10183 0
M  V30 8185 H 747.834 2.24205 -2.99346 0
M  V30 8186 H 750.126 4.98046 -4.593 0
M  V30 8187 H 751.069 4.05559 -5.80454 0
M  V30 8188 H 751.477 3.91282 -4.06889 0
M  V30 8189 N 750.875 1.45233 0.611969 0
M  V30 8190 C 752.1 1.52767 1.40274 0
M  V30 8191 C 752.525 0.159701 1.87421 0
M  V30 8192 O 751.883 -0.854837 1.59882 0
M  V30 8193 C 751.931 2.51286 2.58626 0
M  V30 8194 O 751.035 2.02764 3.59111 0
M  V30 8195 H 750.376 0.515141 0.418958 0
M  V30 8196 H 752.906 1.90547 0.745188 0
M  V30 8197 H 752.916 2.69949 3.05927 0
M  V30 8198 H 751.591 3.50641 2.23659 0
M  V30 8199 H 750.168 1.93957 3.18489 0
M  V30 8200 N 752.353 -0.854086 1.3245 0
M  V30 8201 C 753.602 -1.60318 1.22397 0
M  V30 8202 C 753.915 -1.9444 -0.212664 0
M  V30 8203 O 755.121 -2.67991 -0.435066 0
M  V30 8204 C 753.577 -2.8909 2.1437 0
M  V30 8205 C 753.185 -2.62391 3.63119 0
M  V30 8206 C 754.929 -3.67104 2.13155 0
M  V30 8207 C 752.836 -3.87167 4.47052 0
M  V30 8208 H 751.766 -0.601586 0.454544 0
M  V30 8209 H 754.417 -0.943023 1.57415 0
M  V30 8210 H 752.799 -3.56567 1.72268 0
M  V30 8211 H 753.973 -2.03222 4.13567 0
M  V30 8212 H 752.288 -1.97706 3.66471 0
M  V30 8213 H 754.885 -4.59696 2.731 0
M  V30 8214 H 755.228 -4.00876 1.12268 0
M  V30 8215 H 755.761 -3.06533 2.5354 0
M  V30 8216 H 752.5 -3.58536 5.48755 0
M  V30 8217 H 752.02 -4.45729 4.01355 0
M  V30 8218 H 753.699 -4.549 4.60081 0
M  V30 8219 N 753.831 -1.1567 -1.07043 0
M  V30 8220 C 755.108 -0.843948 -1.76456 0
M  V30 8221 C 755.488 0.659806 -2.00524 0
M  V30 8222 O 754.836 1.60518 -1.62623 0
M  V30 8223 C 755.046 -1.65822 -3.0709 0
M  V30 8224 C 756.394 -1.8664 -3.8138 0
M  V30 8225 O 757.418 -1.62624 -3.1691 0
M  V30 8226 O 756.277 -2.26884 -4.97178 0
M  V30 8227 H 753.371 -0.310677 -0.766426 0
M  V30 8228 H 755.917 -1.26266 -1.1338 0
M  V30 8229 H 754.689 -2.67902 -2.85209 0
M  V30 8230 H 754.312 -1.23605 -3.77899 0
M  V30 8231 N 755.309 1.25446 -0.953992 0
M  V30 8232 C 756.219 2.29632 -0.480264 0
M  V30 8233 C 757.235 1.68025 0.452071 0
M  V30 8234 O 758.411 1.98703 0.328472 0
M  V30 8235 C 755.476 3.45903 0.234974 0
M  V30 8236 C 754.537 4.22953 -0.735495 0
M  V30 8237 C 753.77 5.33672 -0.0542957 0
M  V30 8238 O 753.993 5.58477 1.16018 0
M  V30 8239 O 752.927 5.9734 -0.739509 0
M  V30 8240 H 756.753 2.72242 -1.34602 0
M  V30 8241 H 754.338 1.30883 -0.720419 0
M  V30 8242 H 756.22 4.16552 0.637341 0
M  V30 8243 H 754.895 3.05296 1.07592 0
M  V30 8244 H 753.802 3.54734 -1.18806 0
M  V30 8245 H 755.135 4.67341 -1.54444 0
M  V30 8246 N 756.787 0.722489 1.40064 0
M  V30 8247 C 757.717 0.0892452 2.33329 0
M  V30 8248 C 758.698 -0.737992 1.53257 0
M  V30 8249 O 759.883 -0.685516 1.81698 0
M  V30 8250 C 757.013 -0.828139 3.37282 0
M  V30 8251 C 755.967 -0.106005 4.27869 0
M  V30 8252 C 755.293 -1.13957 5.22415 0
M  V30 8253 C 756.593 1.04395 5.11761 0
M  V30 8254 H 758.287 0.868269 2.86534 0
M  V30 8255 H 755.833 0.418982 1.3777 0
M  V30 8256 H 757.786 -1.28058 4.01471 0
M  V30 8257 H 756.51 -1.63914 2.82489 0
M  V30 8258 H 755.169 0.326683 3.65142 0
M  V30 8259 H 754.817 -1.9438 4.63924 0
M  V30 8260 H 754.517 -0.661233 5.83868 0
M  V30 8261 H 756.041 -1.59197 5.89482 0
M  V30 8262 H 757.455 0.670541 5.69365 0
M  V30 8263 H 755.852 1.4511 5.82291 0
M  V30 8264 H 756.922 1.87144 4.47331 0
M  V30 8265 N 758.265 -1.50454 0.469181 0
M  V30 8266 C 759.49 -2.0722 -0.0864892 0
M  V30 8267 C 759.915 -1.33098 -1.32916 0
M  V30 8268 O 759.273 -0.378084 -1.77314 0
M  V30 8269 C 759.321 -3.58845 -0.355384 0
M  V30 8270 O 758.425 -3.86583 -1.43622 0
M  V30 8271 H 757.766 -0.663889 0.0121414 0
M  V30 8272 H 760.296 -1.93674 0.659674 0
M  V30 8273 H 760.306 -4.03617 -0.596447 0
M  V30 8274 H 758.981 -4.12211 0.552698 0
M  V30 8275 H 757.558 -3.5365 -1.18262 0
M  V30 8276 N 759.743 -0.201713 -1.56304 0
M  V30 8277 C 761.154 0.309711 -1.84113 0
M  V30 8278 C 761.505 1.60912 -1.12258 0
M  V30 8279 O 760.63 2.12937 -0.385587 0
M  V30 8280 C 761.225 0.568706 -3.33993 0
M  V30 8281 C 759.784 1.02448 -3.6219 0
M  V30 8282 C 758.931 0.0766842 -2.77194 0
M  V30 8283 H 761.882 -0.425356 -1.52893 0
M  V30 8284 H 761.903 1.41721 -3.53122 0
M  V30 8285 H 761.415 -0.37719 -3.86263 0
M  V30 8286 H 759.516 1.98443 -3.15359 0
M  V30 8287 H 759.629 0.912619 -4.70328 0
M  V30 8288 H 757.993 0.579809 -2.48013 0
M  V30 8289 H 758.776 -0.863774 -3.32256 0
M  V30 8290 N 761.222 1.57436 0.0718424 0
M  V30 8291 C 762.462 1.89082 0.776351 0
M  V30 8292 C 762.826 0.795494 1.74745 0
M  V30 8293 O 764.027 0.995025 2.49705 0
M  V30 8294 C 762.298 3.25958 1.46582 0
M  V30 8295 S 763.857 3.79352 2.2054 0
M  V30 8296 H 760.675 0.662472 0.25817 0
M  V30 8297 H 763.277 1.95473 0.0324536 0
M  V30 8298 H 761.981 4.03577 0.745237 0
M  V30 8299 H 761.512 3.22764 2.24915 0
M  V30 8300 H 763.527 3.54634 3.47058 0
M  V30 8301 N 762.7 -0.34323 1.53817 0
M  V30 8302 C 763.61 -1.44493 1.84821 0
M  V30 8303 C 764.626 -1.57556 0.738381 0
M  V30 8304 O 765.802 -1.73026 1.03072 0
M  V30 8305 C 762.867 -2.79478 2.05166 0
M  V30 8306 C 761.928 -2.75756 3.29025 0
M  V30 8307 C 761.161 -4.04302 3.4839 0
M  V30 8308 O 761.384 -5.01595 2.71586 0
M  V30 8309 O 760.318 -4.08754 4.41819 0
M  V30 8310 H 764.144 -1.21209 2.78464 0
M  V30 8311 H 761.729 -0.535437 1.39476 0
M  V30 8312 H 763.611 -3.59419 2.19991 0
M  V30 8313 H 762.286 -3.02692 1.14713 0
M  V30 8314 H 761.193 -1.94434 3.19603 0
M  V30 8315 H 762.526 -2.57495 4.19472 0
M  V30 8316 N 764.178 -1.45556 -0.604258 0
M  V30 8317 C 765.088 -1.57025 -1.74299 0
M  V30 8318 C 766.104 -0.45456 -1.67958 0
M  V30 8319 O 767.28 -0.715711 -1.88254 0
M  V30 8320 C 764.345 -1.53702 -3.10768 0
M  V30 8321 C 763.406 -2.76335 -3.28538 0
M  V30 8322 C 762.639 -2.73161 -4.58496 0
M  V30 8323 O 762.862 -1.80678 -5.41028 0
M  V30 8324 O 761.796 -3.64409 -4.79051 0
M  V30 8325 H 765.622 -2.53284 -1.67573 0
M  V30 8326 H 763.207 -1.28104 -0.768745 0
M  V30 8327 H 765.089 -1.54468 -3.92068 0
M  V30 8328 H 763.764 -0.605957 -3.17978 0
M  V30 8329 H 762.671 -2.8113 -2.46813 0
M  V30 8330 H 764.004 -3.68578 -3.26207 0
M  V30 8331 N 765.656 0.84705 -1.32902 0
M  V30 8332 C 766.566 1.98845 -1.2449 0
M  V30 8333 C 767.582 1.7329 -0.15702 0
M  V30 8334 O 768.758 1.978 -0.379104 0
M  V30 8335 C 765.823 3.32679 -0.975985 0
M  V30 8336 C 764.884 3.71405 -2.15306 0
M  V30 8337 C 764.117 4.98853 -1.89688 0
M  V30 8338 O 764.34 5.64134 -0.843168 0
M  V30 8339 O 763.274 5.34889 -2.76002 0
M  V30 8340 H 767.1 2.0888 -2.2046 0
M  V30 8341 H 764.685 0.978852 -1.12867 0
M  V30 8342 H 766.567 4.12885 -0.842826 0
M  V30 8343 H 765.242 3.23667 -0.0464954 0
M  V30 8344 H 764.149 2.91743 -2.34172 0
M  V30 8345 H 765.482 3.85073 -3.06561 0
M  V30 8346 N 767.134 1.16236 1.06428 0
M  V30 8347 C 768.097 0.870163 2.1204 0
M  V30 8348 C 769.097 -0.134239 1.60239 0
M  V30 8349 O 770.287 0.0964932 1.73933 0
M  V30 8350 C 767.419 0.301033 3.39568 0
M  V30 8351 H 768.612 1.8064 2.39394 0
M  V30 8352 H 766.165 0.971116 1.2247 0
M  V30 8353 H 766.9 -0.642948 3.17863 0
M  V30 8354 H 766.685 1.02475 3.78472 0
M  V30 8355 H 768.175 0.114494 4.17443 0
M  V30 8356 N 768.612 -1.24939 0.960631 0
M  V30 8357 C 770.023 -1.74701 0.658529 0
M  V30 8358 C 770.374 -1.77967 -0.825959 0
M  V30 8359 O 769.499 -1.40444 -1.64634 0
M  V30 8360 C 770.094 -3.17263 1.18867 0
M  V30 8361 C 768.653 -3.64561 0.936614 0
M  V30 8362 C 767.8 -2.43423 1.32817 0
M  V30 8363 H 770.751 -1.10741 1.13676 0
M  V30 8364 H 770.772 -3.76481 0.551589 0
M  V30 8365 H 770.284 -3.14854 2.26912 0
M  V30 8366 H 768.385 -3.72378 -0.128608 0
M  V30 8367 H 768.498 -4.52392 1.57729 0
M  V30 8368 H 766.862 -2.43513 0.746548 0
M  V30 8369 H 767.645 -2.437 2.41796 0
M  V30 8370 N 770.09 -0.729906 -1.39679 0
M  V30 8371 C 771.501 -0.346241 -1.83461 0
M  V30 8372 C 771.852 1.1215 -1.60987 0
M  V30 8373 O 770.977 1.86456 -1.09832 0
M  V30 8374 C 771.572 -0.621656 -3.33048 0
M  V30 8375 C 770.131 -0.291543 -3.75269 0
M  V30 8376 C 769.278 -0.886844 -2.62736 0
M  V30 8377 H 772.229 -0.927949 -1.28743 0
M  V30 8378 H 772.25 0.108301 -3.80346 0
M  V30 8379 H 771.762 -1.68996 -3.49373 0
M  V30 8380 H 769.863 0.771133 -3.64533 0
M  V30 8381 H 769.976 -0.770544 -4.72863 0
M  V30 8382 H 768.34 -0.313839 -2.52759 0
M  V30 8383 H 769.123 -1.95971 -2.81869 0
M  V30 8384 N 771.568 1.50203 -0.477153 0
M  V30 8385 C 772.793 2.07263 0.0754986 0
M  V30 8386 C 773.218 1.33801 1.32208 0
M  V30 8387 O 772.576 0.387482 1.77111 0
M  V30 8388 C 772.624 3.59028 0.336348 0
M  V30 8389 O 771.728 3.87339 1.4157 0
M  V30 8390 H 771.069 0.663815 -0.015662 0
M  V30 8391 H 773.599 1.93321 -0.669936 0
M  V30 8392 H 773.609 4.03927 0.575034 0
M  V30 8393 H 772.284 4.11912 -0.574551 0
M  V30 8394 H 770.861 3.54272 1.16385 0
M  V30 8395 N 773.046 0.209999 1.56195 0
M  V30 8396 C 774.457 -0.299943 1.84275 0
M  V30 8397 C 774.808 -1.60314 1.1311 0
M  V30 8398 O 773.933 -2.1273 0.396874 0
M  V30 8399 C 774.528 -0.550986 3.3429 0
M  V30 8400 C 773.087 -1.00526 3.62728 0
M  V30 8401 C 772.234 -0.0619828 2.77231 0
M  V30 8402 H 775.185 0.433458 1.52666 0
M  V30 8403 H 775.206 -1.39846 3.53869 0
M  V30 8404 H 774.718 0.397669 3.86057 0
M  V30 8405 H 772.819 -1.96768 3.16407 0
M  V30 8406 H 772.932 -0.887664 4.70805 0
M  V30 8407 H 771.296 -0.566648 2.48317 0
M  V30 8408 H 772.079 0.881383 3.31793 0
M  V30 8409 N 774.524 -1.57472 -0.0634922 0
M  V30 8410 C 775.487 -2.03268 -1.059 0
M  V30 8411 C 776.487 -0.931028 -1.31105 0
M  V30 8412 O 777.677 -1.19567 -1.26686 0
M  V30 8413 C 774.809 -2.42039 -2.40062 0
M  V30 8414 H 776.002 -2.92454 -0.664119 0
M  V30 8415 H 773.555 -1.53206 -0.309444 0
M  V30 8416 H 774.29 -1.55904 -2.84367 0
M  V30 8417 H 774.075 -3.22437 -2.23108 0
M  V30 8418 H 775.565 -2.78017 -3.11603 0
M  V30 8419 N 776.003 0.335068 -1.53997 0
M  V30 8420 C 776.913 1.43511 -1.85585 0
M  V30 8421 C 777.929 1.57162 -0.746726 0
M  V30 8422 O 779.105 1.72477 -1.03988 0
M  V30 8423 C 776.17 2.78386 -2.06646 0
M  V30 8424 C 775.231 2.74007 -3.30483 0
M  V30 8425 C 774.464 4.02449 -3.50529 0
M  V30 8426 O 774.687 5.00147 -2.74242 0
M  V30 8427 O 773.621 4.06405 -4.4398 0
M  V30 8428 H 777.447 1.19731 -2.79102 0
M  V30 8429 H 775.032 0.528033 -1.39758 0
M  V30 8430 H 776.914 3.58247 -2.21894 0
M  V30 8431 H 775.589 3.0208 -1.16317 0
M  V30 8432 H 774.496 1.92736 -3.2063 0
M  V30 8433 H 775.829 2.55267 -4.20832 0
M  V30 8434 N 777.481 1.45874 0.596531 0
M  V30 8435 C 778.758 1.40942 1.35627 0
M  V30 8436 C 779.138 0.0857066 2.10926 0
M  V30 8437 O 778.486 -0.932544 2.08605 0
M  V30 8438 C 778.696 2.63027 2.29386 0
M  V30 8439 C 780.044 3.08588 2.91649 0
M  V30 8440 O 781.068 2.63478 2.39704 0
M  V30 8441 O 779.927 3.86902 3.85965 0
M  V30 8442 H 777.021 0.559838 0.608696 0
M  V30 8443 H 779.567 1.5802 0.618698 0
M  V30 8444 H 778.339 3.5094 1.7308 0
M  V30 8445 H 777.962 2.48338 3.10506 0
M  V30 8446 N 778.959 -0.83999 1.33349 0
M  V30 8447 C 779.869 -1.98182 1.25543 0
M  V30 8448 C 780.885 -1.73204 0.166208 0
M  V30 8449 O 782.061 -1.97596 0.389589 0
M  V30 8450 C 779.126 -3.32157 0.993614 0
M  V30 8451 C 778.187 -3.70258 2.17273 0
M  V30 8452 C 777.42 -4.9784 1.92331 0
M  V30 8453 O 777.643 -5.63679 0.873074 0
M  V30 8454 O 776.577 -5.33418 2.78835 0
M  V30 8455 H 780.403 -2.07708 2.21565 0
M  V30 8456 H 777.988 -0.972852 1.13384 0
M  V30 8457 H 779.87 -4.12433 0.864711 0
M  V30 8458 H 778.545 -3.23637 0.0636596 0
M  V30 8459 H 777.452 -2.90497 2.35716 0
M  V30 8460 H 778.785 -3.83442 3.08598 0
M  V30 8461 N 780.437 -1.16799 -1.0581 0
M  V30 8462 C 781.387 -0.847231 -2.11674 0
M  V30 8463 C 782.371 0.175476 -1.5994 0
M  V30 8464 O 783.563 -0.0260602 -1.76981 0
M  V30 8465 C 780.692 -0.355446 -3.41455 0
M  V30 8466 C 779.778 -1.40922 -4.00002 0
M  V30 8467 N 780.169 -2.62096 -4.32596 0
M  V30 8468 C 778.467 -1.26562 -4.27666 0
M  V30 8469 C 779.168 -3.29759 -4.79201 0
M  V30 8470 N 778.144 -2.57138 -4.78938 0
M  V30 8471 H 781.946 -1.76862 -2.34727 0
M  V30 8472 H 779.46 -1.05577 -1.23399 0
M  V30 8473 H 781.457 -0.107231 -4.16762 0
M  V30 8474 H 780.117 0.559817 -3.19838 0
M  V30 8475 H 781.128 -2.99113 -4.22791 0
M  V30 8476 H 777.805 -0.411503 -4.15467 0
M  V30 8477 H 779.195 -4.33222 -5.13584 0
M  V30 8478 N 781.915 1.24427 -0.967243 0
M  V30 8479 C 782.863 2.27403 -0.488927 0
M  V30 8480 C 783.857 1.63388 0.447302 0
M  V30 8481 O 785.063 1.77085 0.322643 0
M  V30 8482 H 781.438 0.738921 -0.139643 0
M  V30 8483 H 783.409 2.65122 -1.36942 0
M  V30 8484 C 782.158 3.4709 0.205787 0
M  V30 8485 H 781.481 3.96591 -0.50551 0
M  V30 8486 H 782.921 4.2099 0.504296 0
M  V30 8487 C 781.38 3.04923 1.43261 0
M  V30 8488 O 781.91 3.12043 2.52967 0
M  V30 8489 N 780.116 2.59976 1.29849 0
M  V30 8490 H 779.663 2.54382 0.405876 0
M  V30 8491 H 779.621 2.32128 2.12047 0
M  V30 8492 N 783.393 0.737304 1.3929 0
M  V30 8493 C 784.325 0.0592106 2.29124 0
M  V30 8494 C 785.338 -0.701026 1.46934 0
M  V30 8495 O 786.527 -0.544808 1.69983 0
M  V30 8496 C 783.627 -0.940358 3.25592 0
M  V30 8497 C 782.8 -0.241163 4.36735 0
M  V30 8498 C 781.859 -1.14916 5.13498 0
M  V30 8499 O 780.885 -0.625783 5.6575 0
M  V30 8500 N 782.087 -2.47869 5.2492 0
M  V30 8501 H 784.852 0.830647 2.87959 0
M  V30 8502 H 782.413 0.586718 1.50895 0
M  V30 8503 H 784.405 -1.55046 3.73822 0
M  V30 8504 H 782.975 -1.61299 2.67771 0
M  V30 8505 H 782.195 0.549441 3.90352 0
M  V30 8506 H 783.483 0.243299 5.08218 0
M  V30 8507 H 782.881 -2.92864 4.83991 0
M  V30 8508 H 781.438 -3.03969 5.76581 0
M  V30 8509 N 784.871 -1.49948 0.485112 0
M  V30 8510 C 785.819 -2.30449 -0.315609 0
M  V30 8511 C 786.813 -1.38351 -0.977516 0
M  V30 8512 O 788.019 -1.55477 -0.907019 0
M  V30 8513 H 784.394 -0.742262 -0.120629 0
M  V30 8514 H 786.365 -2.95925 0.383552 0
M  V30 8515 C 785.114 -3.19283 -1.37673 0
M  V30 8516 H 784.437 -3.90067 -0.876801 0
M  V30 8517 H 785.877 -3.78579 -1.90929 0
M  V30 8518 C 784.336 -2.37817 -2.38631 0
M  V30 8519 O 784.866 -2.0711 -3.44192 0
M  V30 8520 N 783.072 -2.00135 -2.107 0
M  V30 8521 H 782.619 -2.25307 -1.24878 0
M  V30 8522 H 782.577 -1.45933 -2.7848 0
M  V30 8523 N 786.349 -0.21828 -1.56081 0
M  V30 8524 C 787.597 0.413488 -1.97825 0
M  V30 8525 C 787.918 1.60527 -1.10707 0
M  V30 8526 O 787.188 1.9504 -0.183378 0
M  V30 8527 H 785.768 0.155757 -0.730581 0
M  V30 8528 H 788.43 -0.310413 -1.92412 0
M  V30 8529 H 787.526 0.742024 -3.03151 0
M  V30 8530 N 787.827 1.57504 0.0551401 0
M  V30 8531 C 788.775 2.05884 1.08233 0
M  V30 8532 C 789.769 0.967383 1.39061 0
M  V30 8533 O 790.975 1.15242 1.38273 0
M  V30 8534 H 787.35 0.656673 0.366449 0
M  V30 8535 H 789.321 2.91273 0.648269 0
M  V30 8536 C 788.07 2.53221 2.38273 0
M  V30 8537 H 787.393 3.36809 2.15406 0
M  V30 8538 H 788.833 2.9081 3.08554 0
M  V30 8539 C 787.292 1.42218 3.05411 0
M  V30 8540 O 787.822 0.773638 3.9418 0
M  V30 8541 N 786.028 1.16316 2.66306 0
M  V30 8542 H 785.575 1.69237 1.94207 0
M  V30 8543 H 785.533 0.422534 3.11548 0
M  V30 8544 N 789.305 -0.326896 1.54172 0
M  V30 8545 C 790.235 -1.40741 1.86317 0
M  V30 8546 C 791.216 -1.54125 0.719684 0
M  V30 8547 O 792.401 -1.6806 0.973117 0
M  V30 8548 C 789.531 -2.77557 2.08757 0
M  V30 8549 C 788.485 -2.78965 3.24596 0
M  V30 8550 C 787.811 -4.18824 3.32401 0
M  V30 8551 C 789.111 -2.4301 4.62324 0
M  V30 8552 H 790.805 -1.14088 2.76811 0
M  V30 8553 H 788.351 -0.547389 1.3319 0
M  V30 8554 H 790.304 -3.53209 2.29829 0
M  V30 8555 H 789.028 -3.0568 1.15009 0
M  V30 8556 H 787.687 -2.05767 3.03406 0
M  V30 8557 H 787.335 -4.44083 2.36218 0
M  V30 8558 H 787.035 -4.20673 4.10253 0
M  V30 8559 H 788.559 -4.96294 3.55703 0
M  V30 8560 H 789.973 -3.08375 4.83299 0
M  V30 8561 H 788.37 -2.56116 5.42701 0
M  V30 8562 H 789.44 -1.38165 4.64799 0
M  V30 8563 N 790.784 -1.46188 -0.588786 0
M  V30 8564 C 792.061 -1.41659 -1.34878 0
M  V30 8565 C 792.441 -0.0968913 -2.10878 0
M  V30 8566 O 791.789 0.921468 -2.09096 0
M  V30 8567 C 791.999 -2.6424 -2.27988 0
M  V30 8568 C 793.347 -3.1013 -2.90008 0
M  V30 8569 O 794.371 -2.64745 -2.38303 0
M  V30 8570 O 793.23 -3.88944 -3.83908 0
M  V30 8571 H 790.324 -0.563058 -0.605718 0
M  V30 8572 H 792.87 -1.58346 -0.610309 0
M  V30 8573 H 791.642 -3.51853 -1.71217 0
M  V30 8574 H 791.265 -2.49982 -3.09184 0
M  V30 8575 O 792.301 0.732974 -1.43909 0
M  V30 8576 H 792.992 1.38287 -1.35633 0
M  V30 END ATOM
M  V30 BEGIN BOND
M  V30 END BOND
M  V30 END CTAB
M  END
$$$$
