drugbank_target|Q9FD87 HMG-CoA synthase (DB02153; DB03059)
 OpenBabel12092120243D

  0  0  0     0  0            999 V3000
M  V30 BEGIN CTAB
M  V30 COUNTS 6008 6070 0 0 0
M  V30 BEGIN ATOM
M  V30 1 H -0.908 1.98254 -0.117106 0
M  V30 2 N 0 1.576 0 0
M  V30 3 C 0.933 2.03868 1.02534 0
M  V30 4 C 1.911 0.928543 1.3348 0
M  V30 5 O 3.095 1.19667 1.45644 0
M  V30 6 C 0.222 2.43627 2.35294 0
M  V30 7 C -0.732 3.65373 2.2001 0
M  V30 8 S 0.101 5.13292 1.52614 0
M  V30 9 C 1.257 5.56322 2.86805 0
M  V30 10 H 1.49 2.90518 0.631377 0
M  V30 11 H -0.977 1.52953 0.210867 0
M  V30 12 H 0.981 2.67203 3.11629 0
M  V30 13 H -0.358 1.57376 2.7183 0
M  V30 14 H -1.165 3.90944 3.18086 0
M  V30 15 H -1.563 3.418 1.51819 0
M  V30 16 H 0.729 5.58782 3.83104 0
M  V30 17 H 1.672 6.56266 2.65933 0
M  V30 18 H 2.08 4.83886 2.90714 0
M  V30 19 N 1.4781 -0.272755 1.55222 0
M  V30 20 C 2.7061 -1.02255 1.79865 0
M  V30 21 C 3.1211 -1.79924 0.572088 0
M  V30 22 O 2.4781 -1.76638 -0.458842 0
M  V30 23 C 2.5291 -1.98094 3.02392 0
M  V30 24 O 2.2501 -1.23572 4.20311 0
M  V30 25 C 3.7511 -2.84884 3.39641 0
M  V30 26 H 0.9711 -0.302057 0.599168 0
M  V30 27 H 3.5151 -0.303465 2.02236 0
M  V30 28 H 1.6701 -2.65465 2.82147 0
M  V30 29 H 2.0841 -1.88172 4.89583 0
M  V30 30 H 3.5581 -3.47927 4.28545 0
M  V30 31 H 4.0351 -3.54665 2.59055 0
M  V30 32 H 4.6411 -2.23003 3.62146 0
M  V30 33 N 2.9562 -1.48159 -0.537278 0
M  V30 34 C 4.2052 -1.5506 -1.28993 0
M  V30 35 C 4.5182 -0.226211 -1.94288 0
M  V30 36 O 5.7242 -0.173395 -2.70946 0
M  V30 37 C 4.1802 -2.73429 -2.34018 0
M  V30 38 C 3.7882 -4.1248 -1.74825 0
M  V30 39 C 5.5322 -2.89638 -3.10339 0
M  V30 40 C 3.4392 -5.22121 -2.77747 0
M  V30 41 H 2.3692 -0.577231 -0.485098 0
M  V30 42 H 5.0202 -1.74478 -0.568317 0
M  V30 43 H 3.4022 -2.47431 -3.09182 0
M  V30 44 H 4.5762 -4.48466 -1.05899 0
M  V30 45 H 2.8912 -4.01327 -1.11022 0
M  V30 46 H 5.4882 -3.68718 -3.87235 0
M  V30 47 H 5.8312 -1.9882 -3.65754 0
M  V30 48 H 6.3642 -3.15502 -2.42288 0
M  V30 49 H 3.1032 -6.1488 -2.27161 0
M  V30 50 H 2.6232 -4.90631 -3.45024 0
M  V30 51 H 4.3022 -5.49924 -3.4087 0
M  V30 52 N 4.4343 0.785586 -1.36625 0
M  V30 53 C 5.6823 1.54057 -1.30808 0
M  V30 54 C 6.0033 1.94683 0.111157 0
M  V30 55 O 5.2733 1.65241 1.05224 0
M  V30 56 H 3.8533 0.571354 -0.481211 0
M  V30 57 H 6.5153 0.935821 -1.70963 0
M  V30 58 H 5.6113 2.44637 -1.93801 0
M  V30 59 N 5.9124 1.20967 1.01018 0
M  V30 60 C 7.1614 1.01796 1.74128 0
M  V30 61 C 7.4744 -0.449691 1.90361 0
M  V30 62 O 8.6804 -0.76068 2.60626 0
M  V30 63 C 7.1364 1.7727 3.13215 0
M  V30 64 C 6.7444 3.28171 3.04972 0
M  V30 65 C 8.4884 1.66489 3.90489 0
M  V30 66 C 6.3954 3.96156 4.39107 0
M  V30 67 H 5.3254 0.377276 0.652824 0
M  V30 68 H 7.9764 1.44651 1.12909 0
M  V30 69 H 6.3584 1.27205 3.75013 0
M  V30 70 H 7.5324 3.85499 2.52443 0
M  V30 71 H 5.8474 3.39437 2.41188 0
M  V30 72 H 8.4444 2.14617 4.89738 0
M  V30 73 H 8.7874 0.6222 4.11624 0
M  V30 74 H 9.3204 2.14003 3.35332 0
M  V30 75 H 6.0594 5.00604 4.23174 0
M  V30 76 H 5.5794 3.43617 4.91617 0
M  V30 77 H 7.2584 4.00774 5.07926 0
M  V30 78 N 7.3905 -1.2043 1.01659 0
M  V30 79 C 8.6675 -1.8548 0.621004 0
M  V30 80 C 9.0475 -1.9091 -0.900919 0
M  V30 81 O 8.3955 -1.41694 -1.79263 0
M  V30 82 C 8.6055 -3.25119 1.2688 0
M  V30 83 C 9.9535 -4.01403 1.38423 0
M  V30 84 O 10.9775 -3.34473 1.22501 0
M  V30 85 O 9.8365 -5.21265 1.64151 0
M  V30 86 H 6.9305 -0.798761 0.214266 0
M  V30 87 H 9.4765 -1.28019 1.11396 0
M  V30 88 H 8.2485 -3.15932 2.30873 0
M  V30 89 H 7.8715 -3.90212 0.762917 0
M  V30 90 N 8.8686 -0.792821 -1.36206 0
M  V30 91 C 9.8156 -0.191653 -2.30003 0
M  V30 92 C 10.7856 0.666453 -1.52143 0
M  V30 93 O 11.9706 0.61442 -1.80636 0
M  V30 94 C 9.1106 0.664848 -3.38635 0
M  V30 95 C 8.2236 -0.212175 -4.31479 0
M  V30 96 C 7.3586 0.651022 -5.27196 0
M  V30 97 C 6.3976 -0.227247 -6.11678 0
M  V30 98 N 5.5346 0.595127 -6.99573 0
M  V30 99 H 10.3746 -0.996978 -2.80828 0
M  V30 100 H 7.9116 -0.503206 -1.38225 0
M  V30 101 H 9.8696 1.17645 -4.00269 0
M  V30 102 H 8.4996 1.43557 -2.89122 0
M  V30 103 H 7.5516 -0.841777 -3.70969 0
M  V30 104 H 8.8636 -0.888751 -4.90818 0
M  V30 105 H 8.0176 1.2283 -5.94136 0
M  V30 106 H 6.7566 1.36121 -4.68319 0
M  V30 107 H 5.7616 -0.816904 -5.43697 0
M  V30 108 H 6.9866 -0.93509 -6.72631 0
M  V30 109 H 4.9326 1.28955 -6.432 0
M  V30 110 H 4.8496 -0.0236952 -7.55996 0
M  V30 111 H 6.1176 1.15613 -7.70879 0
M  V30 112 N 10.3467 1.47872 -0.545128 0
M  V30 113 C 11.5957 2.01695 -0.0145033 0
M  V30 114 C 11.9087 1.42609 1.33873 0
M  V30 115 O 13.1147 1.88021 1.95858 0
M  V30 116 C 11.5707 3.59892 0.0245068 0
M  V30 117 C 11.1787 4.27966 -1.32475 0
M  V30 118 C 12.9227 4.21507 0.50316 0
M  V30 119 C 10.8297 5.78136 -1.2455 0
M  V30 120 H 9.7597 0.753998 -0.00165172 0
M  V30 121 H 12.4107 1.69985 -0.691175 0
M  V30 122 H 10.7927 3.88509 0.766575 0
M  V30 123 H 11.9667 4.11003 -2.08357 0
M  V30 124 H 10.2817 3.78286 -1.74036 0
M  V30 125 H 12.8787 5.31538 0.580656 0
M  V30 126 H 13.2217 3.87855 1.51243 0
M  V30 127 H 13.7547 3.97376 -0.183681 0
M  V30 128 H 10.4937 6.16388 -2.23039 0
M  V30 129 H 10.0137 5.97469 -0.528282 0
M  V30 130 H 11.6927 6.40099 -0.942488 0
M  V30 131 N 11.8248 0.280983 1.55075 0
M  V30 132 C 12.7728 -0.619864 2.24188 0
M  V30 133 C 13.7668 -1.15315 1.24092 0
M  V30 134 O 14.9728 -1.1061 1.42005 0
M  V30 135 H 11.3478 -0.218459 0.719569 0
M  V30 136 H 13.3188 -0.0141831 2.98397 0
M  V30 137 C 12.0678 -1.7899 2.98091 0
M  V30 138 H 11.3908 -1.38874 3.74905 0
M  V30 139 H 12.8308 -2.39672 3.49762 0
M  V30 140 C 11.2898 -2.68192 2.03899 0
M  V30 141 O 11.8198 -3.6872 1.594 0
M  V30 142 N 10.0258 -2.35488 1.70275 0
M  V30 143 H 9.5728 -1.53787 2.06658 0
M  V30 144 H 9.5308 -2.95442 1.07524 0
M  V30 145 N 13.3029 -1.57598 0.00835791 0
M  V30 146 C 14.5499 -1.90928 -0.674732 0
M  V30 147 C 14.8779 -0.88277 -1.73313 0
M  V30 148 O 14.1329 0.111294 -1.95383 0
M  V30 149 C 14.4319 -3.3101 -1.34787 0
M  V30 150 C 14.0979 -4.48922 -0.421861 0
M  V30 151 C 12.7599 -4.8091 -0.166927 0
M  V30 152 C 15.1119 -5.20755 0.215211 0
M  V30 153 C 12.4399 -5.821 0.733232 0
M  V30 154 C 14.7919 -6.22905 1.1033 0
M  V30 155 C 13.4559 -6.53346 1.36733 0
M  V30 156 H 12.7259 -0.698656 -0.246902 0
M  V30 157 H 15.3729 -1.91387 0.0656779 0
M  V30 158 H 13.6779 -3.26714 -2.16253 0
M  V30 159 H 15.3749 -3.54061 -1.8826 0
M  V30 160 H 11.9649 -4.23934 -0.630729 0
M  V30 161 H 16.1489 -4.9629 0.0312829 0
M  V30 162 H 11.4049 -6.04042 0.945712 0
M  V30 163 H 15.5789 -6.77694 1.60325 0
M  V30 164 H 13.2059 -7.31573 2.06652 0
M  V30 165 N 14.781 0.264519 -1.55364 0
M  V30 166 C 16.011 1.01153 -1.80143 0
M  V30 167 C 16.419 1.80115 -0.579253 0
M  V30 168 O 15.762 1.77813 0.46132 0
M  V30 169 C 15.824 2.01098 -2.97993 0
M  V30 170 C 15.488 1.40995 -4.34706 0
M  V30 171 C 16.485 0.821316 -5.13372 0
M  V30 172 C 14.17 1.43461 -4.81378 0
M  V30 173 C 16.164 0.265339 -6.36847 0
M  V30 174 C 13.851 0.874771 -6.04807 0
M  V30 175 C 14.849 0.291146 -6.82379 0
M  V30 176 O 14.537 -0.260093 -8.03479 0
M  V30 177 H 14.269 0.304125 -0.603725 0
M  V30 178 H 16.823 0.298089 -2.03225 0
M  V30 179 H 15.053 2.76224 -2.70623 0
M  V30 180 H 16.742 2.61997 -3.1002 0
M  V30 181 H 17.508 0.794903 -4.78442 0
M  V30 182 H 13.387 1.87826 -4.21002 0
M  V30 183 H 16.931 -0.190837 -6.97339 0
M  V30 184 H 12.828 0.898452 -6.39217 0
M  V30 185 H 13.596 -0.150265 -8.18362 0
M  V30 186 N 16.2591 1.48442 0.529413 0
M  V30 187 C 17.5051 1.5672 1.28711 0
M  V30 188 C 17.8381 0.2406 1.92704 0
M  V30 189 O 17.1131 -0.753454 1.79313 0
M  V30 190 C 17.3961 2.70587 2.37603 0
M  V30 191 C 17.2491 4.12953 1.78297 0
M  V30 192 C 18.5681 2.80212 3.39366 0
M  V30 193 H 15.6871 0.570474 0.466613 0
M  V30 194 H 18.3291 1.80617 0.589706 0
M  V30 195 H 16.4791 2.50342 2.97088 0
M  V30 196 H 18.1511 4.44639 1.22858 0
M  V30 197 H 16.3941 4.19927 1.0883 0
M  V30 198 H 17.0651 4.88448 2.57144 0
M  V30 199 H 19.5411 2.98553 2.89836 0
M  V30 200 H 18.4171 3.61611 4.12951 0
M  V30 201 H 18.6781 1.88393 3.99951 0
M  V30 202 N 17.7372 -0.778329 1.37039 0
M  V30 203 C 19.1482 -1.35421 1.28523 0
M  V30 204 C 19.4992 -1.96075 -0.0700901 0
M  V30 205 O 18.6242 -1.93352 -0.971801 0
M  V30 206 C 19.2192 -2.46211 2.32735 0
M  V30 207 C 17.7782 -2.99585 2.27873 0
M  V30 208 C 16.9252 -1.72748 2.16918 0
M  V30 209 H 19.8762 -0.5791 1.47757 0
M  V30 210 H 19.8972 -3.2552 1.9702 0
M  V30 211 H 19.4092 -2.02036 3.31365 0
M  V30 212 H 17.5102 -3.48152 1.32745 0
M  V30 213 H 17.6232 -3.55646 3.21018 0
M  V30 214 H 15.9872 -1.95416 1.63354 0
M  V30 215 H 16.7702 -1.30686 3.17452 0
M  V30 216 N 19.2153 -1.21501 -1.00376 0
M  V30 217 C 20.1623 -0.975387 -2.09177 0
M  V30 218 C 21.1323 0.0990615 -1.65804 0
M  V30 219 O 22.3173 -0.0483147 -1.90739 0
M  V30 220 C 19.4573 -0.547507 -3.40729 0
M  V30 221 C 18.5703 -1.69153 -3.97506 0
M  V30 222 C 17.7053 -1.2127 -5.17172 0
M  V30 223 C 16.7443 -2.32897 -5.66061 0
M  V30 224 N 15.8813 -1.86138 -6.76976 0
M  V30 225 H 20.7213 -1.9068 -2.29009 0
M  V30 226 H 18.2583 -0.950257 -1.12288 0
M  V30 227 H 20.2163 -0.280667 -4.16255 0
M  V30 228 H 18.8463 0.346904 -3.20931 0
M  V30 229 H 17.8983 -2.07298 -3.18954 0
M  V30 230 H 19.2103 -2.5316 -4.29781 0
M  V30 231 H 18.3643 -0.902591 -5.99948 0
M  V30 232 H 17.1033 -0.342692 -4.86495 0
M  V30 233 H 16.1083 -2.64709 -4.81881 0
M  V30 234 H 17.3333 -3.20396 -5.98768 0
M  V30 235 H 15.2793 -1.01484 -6.48103 0
M  V30 236 H 15.1963 -2.63717 -7.08512 0
M  V30 237 H 16.4643 -1.58165 -7.63285 0
M  V30 238 N 20.6934 1.19889 -1.02296 0
M  V30 239 C 21.9234 1.93109 -0.734332 0
M  V30 240 C 22.3314 1.75377 0.709889 0
M  V30 241 O 21.6744 1.06912 1.49384 0
M  V30 242 C 21.7364 3.45362 -0.99827 0
M  V30 243 C 21.4004 3.8686 -2.43287 0
M  V30 244 C 22.3974 3.92102 -3.41397 0
M  V30 245 C 20.0824 4.18668 -2.77529 0
M  V30 246 C 22.0764 4.28573 -4.71809 0
M  V30 247 C 19.7634 4.54813 -4.08153 0
M  V30 248 C 20.7614 4.59739 -5.05103 0
M  V30 249 O 20.4494 4.95051 -6.33388 0
M  V30 250 H 20.1814 0.620409 -0.268456 0
M  V30 251 H 22.7354 1.53144 -1.3688 0
M  V30 252 H 20.9654 3.85482 -0.306645 0
M  V30 253 H 22.6544 3.99814 -0.700234 0
M  V30 254 H 23.4204 3.67685 -3.1628 0
M  V30 255 H 19.2994 4.14021 -2.0275 0
M  V30 256 H 22.8434 4.32333 -5.4748 0
M  V30 257 H 18.7404 4.78687 -4.33047 0
M  V30 258 H 19.5084 5.1302 -6.37772 0
M  V30 259 N 22.1715 0.800033 1.35784 0
M  V30 260 C 23.4015 0.389041 2.02904 0
M  V30 261 C 23.8095 -1.0027 1.60445 0
M  V30 262 O 23.1525 -1.65633 0.794453 0
M  V30 263 C 23.2145 0.385495 3.57427 0
M  V30 264 C 22.8785 1.72662 4.23127 0
M  V30 265 C 23.8755 2.68385 4.4527 0
M  V30 266 C 21.5605 2.00883 4.60381 0
M  V30 267 C 23.5545 3.90517 5.03761 0
M  V30 268 C 21.2415 3.2328 5.18588 0
M  V30 269 C 22.2395 4.17915 5.40218 0
M  V30 270 O 21.9275 5.38153 5.97199 0
M  V30 271 H 21.6595 0.157032 0.657508 0
M  V30 272 H 24.2135 1.08311 1.74522 0
M  V30 273 H 22.4435 -0.365128 3.84972 0
M  V30 274 H 24.1325 -0.00228296 4.059 0
M  V30 275 H 24.8985 2.47872 4.16874 0
M  V30 276 H 20.7775 1.28037 4.42863 0
M  V30 277 H 24.3215 4.64395 5.2056 0
M  V30 278 H 20.2185 3.43667 5.4641 0
M  V30 279 H 20.9865 5.3936 6.15656 0
M  V30 280 N 23.6496 -1.47581 0.552962 0
M  V30 281 C 24.8956 -2.02782 0.0273648 0
M  V30 282 C 25.2286 -1.42687 -1.31734 0
M  V30 283 O 24.5036 -0.580897 -1.85623 0
M  V30 284 C 24.7866 -3.60031 -0.0702371 0
M  V30 285 C 24.6396 -4.30566 1.30126 0
M  V30 286 C 25.9586 -4.33028 -0.785771 0
M  V30 287 H 23.0776 -0.736912 0.0114185 0
M  V30 288 H 25.7196 -1.76056 0.714432 0
M  V30 289 H 23.8696 -3.82932 -0.655382 0
M  V30 290 H 25.5416 -4.19018 1.92929 0
M  V30 291 H 23.7846 -3.91086 1.87709 0
M  V30 292 H 24.4556 -5.39114 1.18573 0
M  V30 293 H 26.9316 -4.15095 -0.288982 0
M  V30 294 H 25.8076 -5.42695 -0.823013 0
M  V30 295 H 26.0686 -4.01945 -1.841 0
M  V30 296 N 25.1277 -0.289203 -1.54924 0
M  V30 297 C 26.4047 0.376032 -1.91951 0
M  V30 298 C 26.7847 1.72622 -1.21511 0
M  V30 299 O 26.1327 2.25853 -0.346767 0
M  V30 300 C 26.3427 0.502378 -3.45365 0
M  V30 301 C 27.6907 0.778741 -4.17398 0
M  V30 302 O 28.7147 0.586647 -3.51336 0
M  V30 303 O 27.5737 1.14698 -5.34328 0
M  V30 304 H 24.6677 0.208167 -0.800372 0
M  V30 305 H 27.2137 -0.336394 -1.66332 0
M  V30 306 H 25.9857 -0.447255 -3.88736 0
M  V30 307 H 25.6087 1.26373 -3.76982 0
M  V30 308 N 26.6058 1.57591 -0.0167156 0
M  V30 309 C 27.5388 2.04944 1.00366 0
M  V30 310 C 28.5168 0.942648 1.32487 0
M  V30 311 O 29.7008 1.21205 1.44367 0
M  V30 312 C 26.8278 2.46109 2.32697 0
M  V30 313 C 25.8738 3.67686 2.16123 0
M  V30 314 S 26.7068 5.14882 1.47161 0
M  V30 315 C 27.8628 5.59332 2.80888 0
M  V30 316 H 28.0958 2.91172 0.600528 0
M  V30 317 H 25.6288 1.53168 0.194632 0
M  V30 318 H 27.5868 2.70493 3.08778 0
M  V30 319 H 26.2478 1.6025 2.70146 0
M  V30 320 H 25.4408 3.94296 3.13922 0
M  V30 321 H 25.0428 3.43391 1.48185 0
M  V30 322 H 27.3348 5.62814 3.77156 0
M  V30 323 H 28.2778 6.5905 2.58958 0
M  V30 324 H 28.6858 4.86942 2.85565 0
M  V30 325 N 28.0839 -0.256276 1.55502 0
M  V30 326 C 29.0469 -1.30047 1.88734 0
M  V30 327 C 30.0469 -1.4154 0.763086 0
M  V30 328 O 31.2369 -1.40403 1.03115 0
M  V30 329 C 28.3689 -2.67953 2.10747 0
M  V30 330 H 29.5619 -1.01802 2.82093 0
M  V30 331 H 27.1149 -0.495134 1.4825 0
M  V30 332 H 27.8499 -3.01351 1.19825 0
M  V30 333 H 27.6349 -2.60993 2.92617 0
M  V30 334 H 29.1249 -3.43368 2.37673 0
M  V30 335 N 29.562 -1.4872 -0.521534 0
M  V30 336 C 30.509 -1.63871 -1.62527 0
M  V30 337 C 31.479 -0.480559 -1.58996 0
M  V30 338 O 32.664 -0.705085 -1.77294 0
M  V30 339 C 29.804 -1.69227 -3.00759 0
M  V30 340 C 28.917 -2.96207 -3.14461 0
M  V30 341 C 28.052 -2.92671 -4.43303 0
M  V30 342 C 27.091 -4.14318 -4.50563 0
M  V30 343 N 26.228 -4.0881 -5.70805 0
M  V30 344 H 31.068 -2.58123 -1.48918 0
M  V30 345 H 28.605 -1.28 -0.724878 0
M  V30 346 H 30.563 -1.70314 -3.80853 0
M  V30 347 H 29.193 -0.784586 -3.1312 0
M  V30 348 H 28.245 -3.04826 -2.27564 0
M  V30 349 H 29.557 -3.86192 -3.15686 0
M  V30 350 H 28.711 -2.92206 -5.31696 0
M  V30 351 H 27.45 -2.00429 -4.44612 0
M  V30 352 H 26.455 -4.15049 -3.60575 0
M  V30 353 H 27.68 -5.07729 -4.50986 0
M  V30 354 H 25.626 -3.19394 -5.72995 0
M  V30 355 H 25.543 -4.92509 -5.7356 0
M  V30 356 H 26.811 -4.12418 -6.61462 0
M  V30 357 N 31.0401 0.771051 -1.3745 0
M  V30 358 C 31.9701 1.89827 -1.3597 0
M  V30 359 C 32.9511 1.68562 -0.228216 0
M  V30 360 O 34.1361 1.8941 -0.428675 0
M  V30 361 C 31.2661 3.2712 -1.16662 0
M  V30 362 C 30.2201 3.6295 -2.2683 0
M  V30 363 C 29.5461 4.98791 -1.92644 0
M  V30 364 C 30.8461 3.69627 -3.69017 0
M  V30 365 H 32.5401 1.91323 -2.30295 0
M  V30 366 H 30.0861 0.919082 -1.10855 0
M  V30 367 H 32.0391 4.05615 -1.14256 0
M  V30 368 H 30.7631 3.26059 -0.187926 0
M  V30 369 H 29.4221 2.86763 -2.28392 0
M  V30 370 H 29.0701 4.94271 -0.933021 0
M  V30 371 H 28.7701 5.23733 -2.66416 0
M  V30 372 H 30.2941 5.79685 -1.91826 0
M  V30 373 H 31.7081 4.38273 -3.69581 0
M  V30 374 H 30.1051 4.06067 -4.41848 0
M  V30 375 H 31.1751 2.70273 -4.02592 0
M  V30 376 N 32.5182 1.22032 0.997298 0
M  V30 377 C 33.4812 0.987909 2.06816 0
M  V30 378 C 34.4812 -0.0440084 1.6074 0
M  V30 379 O 35.6712 0.194053 1.73116 0
M  V30 380 C 32.8032 0.49132 3.37341 0
M  V30 381 H 33.9962 1.93803 2.28868 0
M  V30 382 H 31.5492 1.03838 1.16822 0
M  V30 383 H 32.2842 -0.463364 3.20973 0
M  V30 384 H 32.0692 1.23575 3.72118 0
M  V30 385 H 33.5592 0.348824 4.16141 0
M  V30 386 N 33.9963 -1.19345 1.0293 0
M  V30 387 C 34.9063 -2.26245 0.620515 0
M  V30 388 C 35.9223 -1.70486 -0.347928 0
M  V30 389 O 37.0983 -2.00347 -0.205704 0
M  V30 390 C 34.1633 -3.46693 -0.0218957 0
M  V30 391 C 33.2243 -4.17632 0.994102 0
M  V30 392 C 32.4573 -5.32329 0.382253 0
M  V30 393 O 32.6803 -5.64552 -0.814676 0
M  V30 394 O 31.6143 -5.91664 1.10531 0
M  V30 395 H 35.4403 -2.63453 1.51083 0
M  V30 396 H 33.0253 -1.26207 0.799513 0
M  V30 397 H 34.9073 -4.19683 -0.380072 0
M  V30 398 H 33.5823 -3.11333 -0.886209 0
M  V30 399 H 32.4893 -3.4676 1.40387 0
M  V30 400 H 33.8223 -4.56964 1.8288 0
M  V30 401 N 35.4744 -0.807222 -1.35358 0
M  V30 402 C 36.4374 -0.223665 -2.28106 0
M  V30 403 C 37.4374 0.589354 -1.4961 0
M  V30 404 O 38.6274 0.407745 -1.69361 0
M  V30 405 C 35.7594 0.688149 -3.33882 0
M  V30 406 H 36.9524 -1.04169 -2.81227 0
M  V30 407 H 34.5054 -0.577921 -1.45223 0
M  V30 408 H 35.2404 1.52984 -2.85948 0
M  V30 409 H 35.0254 0.10687 -3.91954 0
M  V30 410 H 36.5154 1.09075 -4.03104 0
M  V30 411 N 36.9525 1.47285 -0.560781 0
M  V30 412 C 38.3685 1.58065 -0.22081 0
M  V30 413 C 38.5685 1.55892 1.27671 0
M  V30 414 O 37.6245 1.46422 2.0571 0
M  V30 415 C 38.9375 2.88418 -0.850625 0
M  V30 416 C 40.4855 3.02009 -0.822184 0
M  V30 417 C 40.9605 4.35066 -1.43113 0
M  V30 418 N 42.4515 4.41711 -1.39448 0
M  V30 419 C 43.1865 5.43237 -1.83525 0
M  V30 420 N 42.6825 6.51555 -2.35474 0
M  V30 421 N 44.4755 5.34304 -1.74574 0
M  V30 422 H 36.6265 1.46941 -1.53369 0
M  V30 423 H 38.8895 0.699558 -0.639783 0
M  V30 424 H 38.5955 2.95755 -1.9032 0
M  V30 425 H 38.4695 3.75612 -0.345773 0
M  V30 426 H 40.8565 2.94266 0.221714 0
M  V30 427 H 40.9375 2.16347 -1.36483 0
M  V30 428 H 40.5815 4.43565 -2.47412 0
M  V30 429 H 40.5115 5.19465 -0.863899 0
M  V30 430 H 43.0025 3.64027 -1.01452 0
M  V30 431 H 43.3155 7.25203 -2.67021 0
M  V30 432 H 41.6605 6.52435 -2.39487 0
M  V30 433 H 44.8515 4.48581 -1.33763 0
M  V30 434 H 45.0245 6.13288 -2.09242 0
M  V30 435 N 38.4306 0.297415 1.54768 0
M  V30 436 C 39.3626 -0.613881 2.20826 0
M  V30 437 C 40.3756 -1.10032 1.19987 0
M  V30 438 O 41.5646 -1.01839 1.46598 0
M  V30 439 C 38.6646 -1.852 2.83821 0
M  V30 440 C 37.8376 -1.50865 4.10559 0
M  V30 441 C 36.8966 -2.60154 4.57391 0
M  V30 442 O 35.9226 -2.25398 5.2267 0
M  V30 443 N 37.1246 -3.90629 4.29406 0
M  V30 444 H 39.8896 -0.048389 2.99661 0
M  V30 445 H 37.4506 0.11946 1.61459 0
M  V30 446 H 39.4426 -2.57652 3.12086 0
M  V30 447 H 38.0126 -2.32597 2.08847 0
M  V30 448 H 37.2326 -0.616925 3.89343 0
M  V30 449 H 38.5206 -1.25458 4.9309 0
M  V30 450 H 37.9186 -4.21677 3.77101 0
M  V30 451 H 36.4756 -4.59391 4.62388 0
M  V30 452 N 39.9087 -1.5758 0.0250728 0
M  V30 453 C 41.1547 -1.91917 -0.655413 0
M  V30 454 C 41.4877 -0.901433 -1.72011 0
M  V30 455 O 40.7627 0.0764069 -1.9435 0
M  V30 456 C 41.0457 -3.36751 -1.27558 0
M  V30 457 C 40.8987 -4.49258 -0.220719 0
M  V30 458 C 42.2177 -3.81469 -2.19475 0
M  V30 459 H 39.3367 -0.697925 -0.23679 0
M  V30 460 H 41.9787 -1.89825 0.0815036 0
M  V30 461 H 40.1287 -3.38664 -1.90365 0
M  V30 462 H 41.8007 -4.59478 0.409601 0
M  V30 463 H 40.0437 -4.31415 0.454264 0
M  V30 464 H 40.7147 -5.47618 -0.694175 0
M  V30 465 H 43.1907 -3.81266 -1.66659 0
M  V30 466 H 42.0667 -4.83512 -2.59822 0
M  V30 467 H 42.3277 -3.16744 -3.08424 0
M  V30 468 N 41.3868 0.248026 -1.55636 0
M  V30 469 C 42.6638 0.998988 -1.68165 0
M  V30 470 C 43.0438 2.03409 -0.564621 0
M  V30 471 O 42.3918 2.24378 0.432076 0
M  V30 472 C 42.6018 1.63334 -3.0842 0
M  V30 473 C 43.9498 2.13562 -3.66983 0
M  V30 474 O 44.9738 1.73277 -3.11213 0
M  V30 475 O 43.8328 2.87526 -4.64749 0
M  V30 476 H 40.9268 0.464933 -0.683935 0
M  V30 477 H 43.4728 0.241902 -1.67967 0
M  V30 478 H 42.2448 0.884583 -3.8117 0
M  V30 479 H 41.8678 2.45666 -3.12624 0
M  V30 480 N 42.8649 1.48995 0.513639 0
M  V30 481 C 44.2759 1.5119 1.09537 0
M  V30 482 C 44.6269 0.290906 1.94031 0
M  V30 483 O 43.7519 -0.60049 2.07902 0
M  V30 484 C 44.3469 2.73964 1.99322 0
M  V30 485 C 42.9059 2.78978 2.52682 0
M  V30 486 C 42.0529 2.44934 1.30009 0
M  V30 487 H 45.0039 1.55875 0.298125 0
M  V30 488 H 45.0249 2.53409 2.83838 0
M  V30 489 H 44.5369 3.62813 1.37799 0
M  V30 490 H 42.6379 1.94378 3.1788 0
M  V30 491 H 42.7509 3.8083 2.90698 0
M  V30 492 H 41.1149 1.9644 1.62122 0
M  V30 493 H 41.8979 3.36043 0.702131 0
M  V30 494 N 44.343 -0.763751 1.37857 0
M  V30 495 C 45.291 -1.89864 1.34367 0
M  V30 496 C 46.285 -1.67816 0.231143 0
M  V30 497 O 47.491 -1.75508 0.399617 0
M  V30 498 H 43.866 -0.624501 0.41893 0
M  V30 499 H 45.837 -1.89925 2.30155 0
M  V30 500 C 44.586 -3.27227 1.1755 0
M  V30 501 H 43.909 -3.44773 2.02414 0
M  V30 502 H 45.349 -4.06911 1.1916 0
M  V30 503 C 43.808 -3.36692 -0.118311 0
M  V30 504 O 44.338 -3.86374 -1.09902 0
M  V30 505 N 42.544 -2.90092 -0.171717 0
M  V30 506 H 42.091 -2.49853 0.627012 0
M  V30 507 H 42.049 -2.96806 -1.03699 0
M  V30 508 N 45.8211 -1.22559 -0.990812 0
M  V30 509 C 46.7681 -0.997519 -2.0813 0
M  V30 510 C 47.7381 0.0814702 -1.659 0
M  V30 511 O 48.9231 -0.0685424 -1.90677 0
M  V30 512 C 46.0631 -0.583615 -3.40129 0
M  V30 513 C 45.1761 -1.7336 -3.9569 0
M  V30 514 C 44.3111 -1.26748 -5.15857 0
M  V30 515 C 43.3501 -2.38888 -5.63559 0
M  V30 516 N 42.4871 -1.93308 -6.74964 0
M  V30 517 H 47.3271 -1.93099 -2.26973 0
M  V30 518 H 44.8641 -0.962114 -1.11273 0
M  V30 519 H 46.8221 -0.324801 -4.15934 0
M  V30 520 H 45.4521 0.312845 -3.2128 0
M  V30 521 H 44.5041 -2.10669 -3.16738 0
M  V30 522 H 45.8161 -2.57704 -4.27071 0
M  V30 523 H 44.9701 -0.966173 -5.98957 0
M  V30 524 H 43.7091 -0.394272 -4.86104 0
M  V30 525 H 42.7141 -2.69805 -4.79046 0
M  V30 526 H 43.9391 -3.26728 -5.95336 0
M  V30 527 H 41.8851 -1.08352 -6.4699 0
M  V30 528 H 41.8021 -2.71217 -7.05675 0
M  V30 529 H 43.0701 -1.66252 -7.61564 0
M  V30 530 N 47.2992 1.18797 -1.03562 0
M  V30 531 C 48.5462 1.8865 -0.736023 0
M  V30 532 C 48.8742 1.80041 0.735889 0
M  V30 533 O 48.1292 1.19179 1.55225 0
M  V30 534 C 48.4282 3.38692 -1.14117 0
M  V30 535 C 48.0942 3.67504 -2.6125 0
M  V30 536 C 46.7562 3.75078 -3.01447 0
M  V30 537 C 49.1082 3.80293 -3.56408 0
M  V30 538 C 46.4362 3.92915 -4.35701 0
M  V30 539 C 48.7882 3.99645 -4.90374 0
M  V30 540 C 47.4522 4.05453 -5.30249 0
M  V30 541 H 46.7222 0.690321 -0.26933 0
M  V30 542 H 49.3692 1.40641 -1.29971 0
M  V30 543 H 47.6742 3.88645 -0.496202 0
M  V30 544 H 49.3712 3.91072 -0.886789 0
M  V30 545 H 45.9612 3.62223 -2.29113 0
M  V30 546 H 50.1452 3.73779 -3.26501 0
M  V30 547 H 45.4012 3.95653 -4.66121 0
M  V30 548 H 49.5752 4.08482 -5.64017 0
M  V30 549 H 47.2022 4.19027 -6.34288 0
M  V30 550 N 48.7773 0.814389 1.34928 0
M  V30 551 C 49.7073 0.244827 2.32213 0
M  V30 552 C 50.6883 -0.634024 1.57842 0
M  V30 553 O 51.8733 -0.562676 1.8587 0
M  V30 554 C 49.0033 -0.601106 3.42058 0
M  V30 555 C 47.9573 0.179896 4.27622 0
M  V30 556 C 47.2833 -0.788237 5.28858 0
M  V30 557 C 48.5833 1.38329 5.03649 0
M  V30 558 H 50.2773 1.05763 2.80097 0
M  V30 559 H 47.8233 0.510029 1.34665 0
M  V30 560 H 49.7763 -1.00968 4.09125 0
M  V30 561 H 48.5003 -1.44688 2.92802 0
M  V30 562 H 47.1593 0.569739 3.62146 0
M  V30 563 H 46.8073 -1.62973 4.75866 0
M  V30 564 H 46.5073 -0.269942 5.8698 0
M  V30 565 H 48.0313 -1.19485 5.98795 0
M  V30 566 H 49.4453 1.04918 5.63618 0
M  V30 567 H 47.8423 1.83662 5.71304 0
M  V30 568 H 48.9123 2.16592 4.33839 0
M  V30 569 N 50.2554 -1.46986 0.568584 0
M  V30 570 C 51.5044 -2.01646 0.0465894 0
M  V30 571 C 51.8174 -1.44721 -1.31587 0
M  V30 572 O 53.0234 -1.91113 -1.92842 0
M  V30 573 C 51.4794 -3.59885 0.032752 0
M  V30 574 C 51.0874 -4.25804 1.39266 0
M  V30 575 C 52.8314 -4.22255 -0.436038 0
M  V30 576 C 50.7384 -5.76081 1.33732 0
M  V30 577 H 49.6684 -0.753876 0.013647 0
M  V30 578 H 52.3194 -1.68864 0.718131 0
M  V30 579 H 50.7014 -3.8968 -0.704669 0
M  V30 580 H 51.8754 -4.07637 2.1487 0
M  V30 581 H 50.1904 -3.7547 1.80032 0
M  V30 582 H 52.7874 -5.32394 -0.49602 0
M  V30 583 H 53.1304 -3.90212 -1.45053 0
M  V30 584 H 53.6634 -3.97033 0.246877 0
M  V30 585 H 50.4024 -6.12761 2.32817 0
M  V30 586 H 49.9224 -5.96553 0.623267 0
M  V30 587 H 51.6014 -6.38518 1.0442 0
M  V30 588 N 51.7335 -0.305618 -1.54608 0
M  V30 589 C 52.9815 0.301701 -1.99835 0
M  V30 590 C 53.3025 1.54054 -1.19551 0
M  V30 591 O 52.5725 1.93702 -0.292658 0
M  V30 592 H 51.1525 0.114468 -0.738178 0
M  V30 593 H 53.8145 -0.418016 -1.90364 0
M  V30 594 H 52.9105 0.570548 -3.06841 0
M  V30 595 N 53.2116 1.57565 -0.0334293 0
M  V30 596 C 54.4606 1.91155 0.643639 0
M  V30 597 C 54.7736 0.91192 1.73042 0
M  V30 598 O 55.9796 1.13923 2.46442 0
M  V30 599 C 54.4356 3.39443 1.1961 0
M  V30 600 C 54.0436 4.47774 0.142381 0
M  V30 601 C 55.7876 3.82094 1.84944 0
M  V30 602 C 53.6946 5.87162 0.706727 0
M  V30 603 H 52.6246 0.713368 0.244176 0
M  V30 604 H 55.2756 1.8323 -0.0994323 0
M  V30 605 H 53.6576 3.42313 1.99092 0
M  V30 606 H 54.8316 4.56469 -0.630296 0
M  V30 607 H 53.1466 4.14352 -0.412446 0
M  V30 608 H 55.7436 4.83591 2.2813 0
M  V30 609 H 56.0866 3.17386 2.69392 0
M  V30 610 H 56.6196 3.81665 1.12145 0
M  V30 611 H 53.3586 6.55424 -0.0997178 0
M  V30 612 H 52.8786 5.82064 1.44779 0
M  V30 613 H 54.5576 6.35866 1.19514 0
M  V30 614 N 54.6897 -0.239769 1.55765 0
M  V30 615 C 55.9377 -0.964892 1.77579 0
M  V30 616 C 56.2587 -1.85582 0.598699 0
M  V30 617 O 55.5287 -1.92075 -0.385226 0
M  V30 618 H 54.1087 -0.359265 0.654933 0
M  V30 619 H 56.7707 -0.256001 1.93211 0
M  V30 620 H 55.8667 -1.58243 2.69009 0
M  V30 621 N 56.1678 -1.49265 -0.50573 0
M  V30 622 C 57.0998 -1.617 -1.62437 0
M  V30 623 C 58.1128 -0.499924 -1.54934 0
M  V30 624 O 59.3018 -0.771785 -1.60953 0
M  V30 625 C 56.4018 -1.5533 -3.01207 0
M  V30 626 C 55.5748 -2.8249 -3.33943 0
M  V30 627 C 54.6338 -2.69238 -4.52103 0
M  V30 628 O 53.6598 -3.43167 -4.5412 0
M  V30 629 N 54.8618 -1.80468 -5.51735 0
M  V30 630 H 57.6268 -2.58177 -1.52199 0
M  V30 631 H 55.1878 -1.46294 -0.693511 0
M  V30 632 H 57.1798 -1.44125 -3.78167 0
M  V30 633 H 55.7498 -0.667297 -3.05395 0
M  V30 634 H 54.9698 -3.08081 -2.45926 0
M  V30 635 H 56.2578 -3.66802 -3.5261 0
M  V30 636 H 55.6558 -1.19653 -5.52901 0
M  V30 637 H 54.2128 -1.75188 -6.27816 0
M  V30 638 N 57.6459 0.756429 -1.3826 0
M  V30 639 C 58.8739 1.54565 -1.3754 0
M  V30 640 C 59.2889 1.88767 0.0355331 0
M  V30 641 O 58.6459 1.52572 1.0014 0
M  V30 642 C 58.6969 2.84654 -2.22833 0
M  V30 643 O 58.4179 2.51912 -3.5843 0
M  V30 644 C 59.9189 3.78807 -2.30261 0
M  V30 645 H 57.1389 0.478353 -0.470553 0
M  V30 646 H 59.6829 0.936381 -1.81803 0
M  V30 647 H 57.8379 3.41965 -1.8204 0
M  V30 648 H 58.2519 3.35325 -4.03308 0
M  V30 649 H 59.7259 4.67045 -2.94233 0
M  V30 650 H 60.2029 4.19038 -1.31545 0
M  V30 651 H 60.8089 3.2742 -2.71433 0
M  V30 652 N 59.124 1.23083 0.984299 0
M  V30 653 C 60.034 1.02515 2.11016 0
M  V30 654 C 61.05 -0.0291702 1.73976 0
M  V30 655 O 62.226 0.165434 2.00719 0
M  V30 656 C 59.291 0.614673 3.41208 0
M  V30 657 C 58.352 1.74359 3.92297 0
M  V30 658 C 57.585 1.35261 5.16275 0
M  V30 659 O 57.808 0.235136 5.69915 0
M  V30 660 O 56.742 2.17227 5.61334 0
M  V30 661 H 60.568 1.96862 2.31255 0
M  V30 662 H 58.153 1.01753 1.09392 0
M  V30 663 H 60.035 0.396518 4.1953 0
M  V30 664 H 58.71 -0.299851 3.22308 0
M  V30 665 H 57.617 2.01635 3.1511 0
M  V30 666 H 58.95 2.63629 4.15645 0
M  V30 667 N 60.6021 -1.18246 1.0419 0
M  V30 668 C 61.5351 -2.20746 0.578474 0
M  V30 669 C 62.5131 -1.57912 -0.387624 0
M  V30 670 O 63.6971 -1.86071 -0.301634 0
M  V30 671 C 60.8241 -3.38346 -0.154762 0
M  V30 672 C 59.8701 -4.19587 0.764782 0
M  V30 673 S 60.7031 -4.86014 2.24835 0
M  V30 674 C 61.8591 -6.07012 1.526 0
M  V30 675 H 62.0921 -2.59715 1.44691 0
M  V30 676 H 59.6251 -1.287 0.85297 0
M  V30 677 H 61.5831 -4.065 -0.571641 0
M  V30 678 H 60.2441 -2.97786 -0.999105 0
M  V30 679 H 59.4371 -5.03611 0.197976 0
M  V30 680 H 59.0391 -3.56818 1.12057 0
M  V30 681 H 61.3311 -6.72523 0.819733 0
M  V30 682 H 62.2741 -6.68202 2.34333 0
M  V30 683 H 62.6821 -5.55249 1.01779 0
M  V30 684 N 62.0802 -0.821533 -1.34494 0
M  V30 685 C 63.0432 -0.247847 -2.27856 0
M  V30 686 C 64.0432 0.573453 -1.50227 0
M  V30 687 O 65.2332 0.389759 -1.69784 0
M  V30 688 C 62.3652 0.652698 -3.34593 0
M  V30 689 H 63.5582 -1.07146 -2.80107 0
M  V30 690 H 61.1112 -0.593291 -1.44602 0
M  V30 691 H 61.8462 1.49943 -2.87555 0
M  V30 692 H 61.6312 0.065292 -3.92046 0
M  V30 693 H 63.1212 1.04793 -4.04238 0
M  V30 694 N 63.5583 1.46682 -0.576371 0
M  V30 695 C 64.8043 2.02712 -0.0596221 0
M  V30 696 C 65.1373 1.44765 1.29448 0
M  V30 697 O 64.4123 0.610355 1.84675 0
M  V30 698 C 64.6953 3.60098 0.0129503 0
M  V30 699 C 64.5483 4.28441 -1.3696 0
M  V30 700 C 65.8673 4.34224 0.71678 0
M  V30 701 H 62.9863 0.736637 -0.0231407 0
M  V30 702 H 65.6283 1.74898 -0.742351 0
M  V30 703 H 63.7783 3.83926 0.594378 0
M  V30 704 H 65.4503 4.15896 -1.9957 0
M  V30 705 H 63.6933 3.8805 -1.93907 0
M  V30 706 H 64.3643 5.3716 -1.27135 0
M  V30 707 H 66.8403 4.15503 0.222908 0
M  V30 708 H 65.7163 5.43936 0.73657 0
M  V30 709 H 65.9773 4.04823 1.77682 0
M  V30 710 N 65.0364 0.313813 1.54444 0
M  V30 711 C 66.2614 -0.296681 2.05267 0
M  V30 712 C 66.6864 -1.45757 1.18897 0
M  V30 713 O 66.0444 -1.80239 0.195886 0
M  V30 714 C 66.0924 -0.71831 3.53373 0
M  V30 715 O 65.1964 -1.82175 3.69981 0
M  V30 716 H 64.5374 -0.0554061 0.661684 0
M  V30 717 H 67.0674 0.459387 1.99376 0
M  V30 718 H 67.0774 -1.00364 3.95463 0
M  V30 719 H 65.7524 0.130821 4.15694 0
M  V30 720 H 64.3294 -1.53598 3.39797 0
M  V30 721 N 66.5145 -1.57545 0.0417849 0
M  V30 722 C 67.9255 -1.80011 -0.495259 0
M  V30 723 C 68.2765 -0.953199 -1.71489 0
M  V30 724 O 67.4015 -0.167138 -2.15754 0
M  V30 725 C 67.9965 -3.26482 -0.905265 0
M  V30 726 C 66.5555 -3.499 -1.38734 0
M  V30 727 C 65.7025 -2.74979 -0.358056 0
M  V30 728 H 68.6535 -1.56425 0.267736 0
M  V30 729 H 68.6745 -3.36887 -1.76882 0
M  V30 730 H 68.1865 -3.88096 -0.017401 0
M  V30 731 H 66.2875 -2.93553 -2.29471 0
M  V30 732 H 66.4005 -4.58615 -1.38598 0
M  V30 733 H 64.7645 -2.40834 -0.828912 0
M  V30 734 H 65.5475 -3.39315 0.521561 0
M  V30 735 N 67.9926 0.231505 -1.5589 0
M  V30 736 C 69.2386 0.95877 -1.78705 0
M  V30 737 C 69.5716 1.8438 -0.609725 0
M  V30 738 O 68.8466 1.90521 0.391426 0
M  V30 739 C 69.1296 1.8062 -3.11526 0
M  V30 740 C 68.9826 0.948328 -4.39689 0
M  V30 741 C 70.3016 2.78585 -3.40703 0
M  V30 742 H 67.4206 0.347129 -0.650131 0
M  V30 743 H 70.0626 0.228259 -1.88624 0
M  V30 744 H 68.2126 2.42902 -3.03201 0
M  V30 745 H 69.8846 0.343016 -4.60023 0
M  V30 746 H 68.1276 0.253314 -4.3306 0
M  V30 747 H 68.7986 1.57543 -5.29041 0
M  V30 748 H 71.2746 2.26439 -3.49091 0
M  V30 749 H 70.1506 3.34988 -4.34826 0
M  V30 750 H 70.4116 3.55825 -2.62375 0
M  V30 751 N 69.4707 1.49531 0.497807 0
M  V30 752 C 70.4187 1.66926 1.61983 0
M  V30 753 C 71.4127 0.535167 1.60724 0
M  V30 754 O 72.6187 0.714896 1.65195 0
M  V30 755 H 68.9937 0.526415 0.537021 0
M  V30 756 H 70.9647 2.61098 1.44465 0
M  V30 757 C 69.7137 1.75602 3.00099 0
M  V30 758 H 69.0367 2.62244 3.01775 0
M  V30 759 H 70.4767 1.91807 3.78135 0
M  V30 760 C 68.9357 0.501543 3.33146 0
M  V30 761 O 69.4657 -0.371342 3.9998 0
M  V30 762 N 67.6717 0.363531 2.88317 0
M  V30 763 H 67.2187 1.07485 2.34104 0
M  V30 764 H 67.1767 -0.474728 3.10795 0
M  V30 765 N 70.9488 -0.749086 1.3866 0
M  V30 766 C 71.8808 -1.87273 1.32142 0
M  V30 767 C 72.8938 -1.61127 0.232787 0
M  V30 768 O 74.0828 -1.71623 0.49069 0
M  V30 769 C 71.1828 -3.23005 1.02571 0
M  V30 770 C 70.3558 -3.7662 2.22433 0
M  V30 771 C 69.4148 -4.90879 1.89537 0
M  V30 772 O 68.4408 -5.05276 2.62078 0
M  V30 773 N 69.6428 -5.74198 0.853031 0
M  V30 774 H 72.4078 -1.93373 2.28969 0
M  V30 775 H 69.9688 -0.929216 1.32579 0
M  V30 776 H 71.9608 -3.96992 0.786085 0
M  V30 777 H 70.5308 -3.12262 0.145249 0
M  V30 778 H 69.7508 -2.94147 2.62434 0
M  V30 779 H 71.0388 -4.09173 3.02415 0
M  V30 780 H 70.4368 -5.6514 0.25155 0
M  V30 781 H 68.9938 -6.48313 0.67329 0
M  V30 782 N 72.4269 -1.23603 -0.977757 0
M  V30 783 C 73.7039 -0.977897 -1.69401 0
M  V30 784 C 74.0839 0.502738 -2.05026 0
M  V30 785 O 73.4319 1.47459 -1.74551 0
M  V30 786 C 73.6419 -1.89077 -2.93345 0
M  V30 787 C 74.9899 -2.15579 -3.65802 0
M  V30 788 O 76.0139 -1.86648 -3.03383 0
M  V30 789 O 74.8729 -2.64658 -4.78141 0
M  V30 790 H 71.9669 -0.369025 -0.740101 0
M  V30 791 H 74.5129 -1.34657 -1.03274 0
M  V30 792 H 73.2849 -2.89158 -2.63634 0
M  V30 793 H 72.9079 -1.52463 -3.67207 0
M  V30 794 N 73.905 1.17692 -1.04816 0
M  V30 795 C 75.154 1.87192 -0.751132 0
M  V30 796 C 75.467 1.8169 0.724441 0
M  V30 797 O 76.673 2.46625 1.13527 0
M  V30 798 C 75.129 3.35857 -1.29338 0
M  V30 799 C 74.737 3.4987 -2.79812 0
M  V30 800 C 76.481 4.10709 -1.07322 0
M  V30 801 C 74.388 4.92536 -3.27356 0
M  V30 802 H 73.318 0.701162 -0.277288 0
M  V30 803 H 75.969 1.32932 -1.26496 0
M  V30 804 H 74.351 3.89631 -0.707376 0
M  V30 805 H 75.525 3.06332 -3.44235 0
M  V30 806 H 73.84 2.88433 -3.00325 0
M  V30 807 H 76.437 5.15952 -1.4035 0
M  V30 808 H 76.78 4.16299 -0.0108001 0
M  V30 809 H 77.313 3.6313 -1.62423 0
M  V30 810 H 74.052 4.92119 -4.33012 0
M  V30 811 H 73.572 5.3676 -2.67673 0
M  V30 812 H 75.251 5.61288 -3.21815 0
M  V30 813 N 75.3831 0.828654 1.34056 0
M  V30 814 C 76.6291 0.42008 1.98402 0
M  V30 815 C 76.9621 -1.01564 1.65525 0
M  V30 816 O 76.2371 -1.70834 0.929831 0
M  V30 817 C 76.5201 0.62927 3.54559 0
M  V30 818 C 76.3731 2.11152 3.97159 0
M  V30 819 C 77.6921 0.0688756 4.40046 0
M  V30 820 H 74.8111 0.154104 0.720709 0
M  V30 821 H 77.4531 1.04228 1.5886 0
M  V30 822 H 75.6031 0.0996418 3.88372 0
M  V30 823 H 77.2751 2.70522 3.73651 0
M  V30 824 H 75.5181 2.59985 3.47261 0
M  V30 825 H 76.1891 2.20868 5.05887 0
M  V30 826 H 78.6651 0.521458 4.1282 0
M  V30 827 H 77.5411 0.245006 5.48353 0
M  V30 828 H 77.8021 -1.0266 4.30015 0
M  V30 829 N 76.8612 -1.46375 0.584142 0
M  V30 830 C 78.0862 -2.07268 0.0740405 0
M  V30 831 C 78.5112 -1.42979 -1.22223 0
M  V30 832 O 77.8692 -0.514092 -1.73859 0
M  V30 833 C 77.9172 -3.60518 -0.0767769 0
M  V30 834 O 77.0212 -3.96533 -1.13292 0
M  V30 835 H 76.3622 -0.660961 0.0634524 0
M  V30 836 H 78.8922 -1.87991 0.807492 0
M  V30 837 H 78.9022 -4.07021 -0.282489 0
M  V30 838 H 77.5772 -4.06702 0.86986 0
M  V30 839 H 76.1542 -3.61738 -0.905553 0
M  V30 840 N 78.3393 -0.321999 -1.54275 0
M  V30 841 C 79.2723 0.58718 -2.20516 0
M  V30 842 C 80.2503 1.11693 -1.18167 0
M  V30 843 O 81.4343 1.18122 -1.46899 0
M  V30 844 C 78.5613 1.80554 -2.86562 0
M  V30 845 C 77.6073 1.40718 -4.02617 0
M  V30 846 S 78.4403 0.445218 -5.33646 0
M  V30 847 C 79.5963 1.6709 -6.03185 0
M  V30 848 H 79.8293 0.0244875 -2.9729 0
M  V30 849 H 77.3623 -0.106087 -1.54035 0
M  V30 850 H 79.3203 2.50462 -3.25237 0
M  V30 851 H 77.9813 2.33942 -2.09595 0
M  V30 852 H 77.1743 2.31501 -4.47687 0
M  V30 853 H 76.7763 0.78782 -3.65608 0
M  V30 854 H 79.0683 2.60856 -6.25268 0
M  V30 855 H 80.0113 1.26239 -6.96756 0
M  V30 856 H 80.4193 1.85716 -5.33076 0
M  V30 857 N 79.8174 1.5752 -0.0501392 0
M  V30 858 C 81.0654 1.9227 0.622642 0
M  V30 859 C 81.3864 0.929083 1.71444 0
M  V30 860 O 80.6564 -0.0262186 1.95882 0
M  V30 861 H 79.2364 0.709739 0.232981 0
M  V30 862 H 81.8984 1.94628 -0.102898 0
M  V30 863 H 80.9944 2.93479 1.06191 0
M  V30 864 N 81.2955 -0.223234 1.56011 0
M  V30 865 C 82.2585 -1.26014 1.9145 0
M  V30 866 C 83.2585 -1.3989 0.792937 0
M  V30 867 O 84.4485 -1.38184 1.0607 0
M  V30 868 C 81.5805 -2.63422 2.16383 0
M  V30 869 H 82.7735 -0.95796 2.84189 0
M  V30 870 H 80.3265 -0.463576 1.49267 0
M  V30 871 H 81.0615 -2.98741 1.2619 0
M  V30 872 H 80.8465 -2.54728 2.98088 0
M  V30 873 H 82.3365 -3.38249 2.44903 0
M  V30 874 N 82.7736 -1.49793 -0.48987 0
M  V30 875 C 83.7216 -1.67783 -1.61095 0
M  V30 876 C 84.7156 -0.543683 -1.60438 0
M  V30 877 O 85.9216 -0.723647 -1.64813 0
M  V30 878 H 82.2966 -0.529255 -0.534222 0
M  V30 879 H 84.2676 -2.61861 -1.43078 0
M  V30 880 C 83.0166 -1.77191 -2.99164 0
M  V30 881 H 82.3396 -2.63841 -3.0038 0
M  V30 882 H 83.7796 -1.93809 -3.77113 0
M  V30 883 C 82.2386 -0.519203 -3.32875 0
M  V30 884 O 82.7686 0.350124 -4.00171 0
M  V30 885 N 80.9746 -0.378816 -2.8812 0
M  V30 886 H 80.5216 -1.08725 -2.33531 0
M  V30 887 H 80.4796 0.458239 -3.11043 0
M  V30 888 N 84.2517 0.741722 -1.39055 0
M  V30 889 C 85.2147 1.83733 -1.37021 0
M  V30 890 C 86.2147 1.58542 -0.268534 0
M  V30 891 O 87.4047 1.66067 -0.526076 0
M  V30 892 C 84.5367 3.2141 -1.13617 0
M  V30 893 H 85.7297 1.86941 -2.34506 0
M  V30 894 H 83.2827 0.944676 -1.24521 0
M  V30 895 H 84.0177 3.23865 -0.167863 0
M  V30 896 H 83.8027 3.4109 -1.93391 0
M  V30 897 H 85.2927 4.01477 -1.14918 0
M  V30 898 N 85.7298 1.2412 0.971189 0
M  V30 899 C 86.6928 1.03156 2.04674 0
M  V30 900 C 87.6928 -0.00990322 1.60797 0
M  V30 901 O 88.8828 0.230729 1.72665 0
M  V30 902 C 86.0148 0.562765 3.36223 0
M  V30 903 H 87.2078 1.98614 2.24705 0
M  V30 904 H 84.7608 1.06293 1.14593 0
M  V30 905 H 85.4958 -0.395176 3.21883 0
M  V30 906 H 85.2808 1.31441 3.69413 0
M  V30 907 H 86.7708 0.437015 4.15307 0
M  V30 908 N 87.2079 -1.17134 1.05439 0
M  V30 909 C 88.1549 -2.21235 0.657539 0
M  V30 910 C 89.1249 -1.62551 -0.341543 0
M  V30 911 O 90.3099 -1.89379 -0.232393 0
M  V30 912 C 87.4499 -3.45076 0.0410575 0
M  V30 913 C 86.5629 -4.18042 1.08927 0
M  V30 914 C 85.6979 -5.29376 0.439848 0
M  V30 915 C 84.7369 -5.94132 1.4722 0
M  V30 916 N 83.8739 -6.96975 0.846756 0
M  V30 917 H 88.7139 -2.54534 1.54972 0
M  V30 918 H 86.2509 -1.25028 0.775006 0
M  V30 919 H 88.2089 -4.15862 -0.33383 0
M  V30 920 H 86.8389 -3.12353 -0.814568 0
M  V30 921 H 85.8909 -3.45945 1.58196 0
M  V30 922 H 87.2029 -4.62306 1.87282 0
M  V30 923 H 86.3569 -6.06699 0.0115125 0
M  V30 924 H 85.0959 -4.86251 -0.375656 0
M  V30 925 H 84.1009 -5.15538 1.91052 0
M  V30 926 H 85.3259 -6.39337 2.28965 0
M  V30 927 H 83.2719 -6.5598 0.0518075 0
M  V30 928 H 83.1889 -7.39565 1.5678 0
M  V30 929 H 84.4569 -7.78239 0.443277 0
M  V30 930 N 88.686 -0.835752 -1.33615 0
M  V30 931 C 89.963 -0.352017 -1.92406 0
M  V30 932 C 90.343 1.16225 -1.76224 0
M  V30 933 O 89.691 1.97526 -1.14873 0
M  V30 934 C 89.901 -0.795485 -3.39813 0
M  V30 935 C 91.249 -0.801703 -4.16963 0
M  V30 936 O 92.273 -0.738889 -3.48452 0
M  V30 937 O 91.132 -0.886607 -5.3926 0
M  V30 938 H 88.226 -0.0989641 -0.821057 0
M  V30 939 H 90.772 -0.921397 -1.42507 0
M  V30 940 H 89.544 -1.83795 -3.45449 0
M  V30 941 H 89.167 -0.202505 -3.97084 0
M  V30 942 N 90.1641 1.46063 -0.591896 0
M  V30 943 C 91.4131 2.01547 -0.0786637 0
M  V30 944 C 91.7261 1.46796 1.29268 0
M  V30 945 O 92.9321 1.94157 1.89777 0
M  V30 946 C 91.3881 3.59787 -0.0900024 0
M  V30 947 C 90.9961 4.23534 -1.46023 0
M  V30 948 C 92.7401 4.22895 0.368806 0
M  V30 949 C 90.6471 5.73881 -1.4288 0
M  V30 950 H 89.5771 0.753564 -0.0256388 0
M  V30 951 H 92.2281 1.677 -0.744905 0
M  V30 952 H 90.6101 3.90752 0.642586 0
M  V30 953 H 91.7841 4.04167 -2.21328 0
M  V30 954 H 90.0991 3.72558 -1.85982 0
M  V30 955 H 92.6961 5.33116 0.411258 0
M  V30 956 H 93.0391 3.9247 1.38827 0
M  V30 957 H 93.5721 3.9659 -0.31001 0
M  V30 958 H 90.3111 6.0898 -2.42536 0
M  V30 959 H 89.8311 5.95486 -0.718095 0
M  V30 960 H 91.5101 6.36776 -1.14565 0
M  V30 961 N 91.6422 0.330177 1.54103 0
M  V30 962 C 92.8912 -0.271336 1.99867 0
M  V30 963 C 93.2042 -1.52723 1.22209 0
M  V30 964 O 94.4102 -2.20515 1.58383 0
M  V30 965 C 92.8662 -0.534032 3.55916 0
M  V30 966 C 92.4742 0.705193 4.42415 0
M  V30 967 C 94.2182 -1.09514 4.1013 0
M  V30 968 C 92.1252 0.414035 5.89949 0
M  V30 969 H 91.0552 -0.105166 0.74663 0
M  V30 970 H 93.7062 0.443429 1.78062 0
M  V30 971 H 92.0882 -1.30915 3.73734 0
M  V30 972 H 93.2622 1.4804 4.36372 0
M  V30 973 H 91.5772 1.18698 3.99124 0
M  V30 974 H 94.1742 -1.3277 5.17954 0
M  V30 975 H 94.5172 -2.04656 3.62521 0
M  V30 976 H 95.0502 -0.381038 3.95971 0
M  V30 977 H 91.7892 1.33481 6.41766 0
M  V30 978 H 91.3092 -0.323336 5.98928 0
M  V30 979 H 92.9882 0.0263105 6.46995 0
M  V30 980 N 93.1203 -1.57491 0.0584922 0
M  V30 981 C 94.3483 -1.97296 -0.623037 0
M  V30 982 C 94.7633 -0.936338 -1.63946 0
M  V30 983 O 94.1203 0.0785981 -1.82331 0
M  V30 984 C 94.1713 -3.37183 -1.30345 0
M  V30 985 O 93.8923 -4.36872 -0.32773 0
M  V30 986 C 95.3933 -3.91788 -2.07406 0
M  V30 987 H 92.6133 -0.649153 -0.169826 0
M  V30 988 H 95.1573 -2.04106 0.12696 0
M  V30 989 H 93.3123 -3.31502 -2.00463 0
M  V30 990 H 93.7263 -5.18141 -0.814269 0
M  V30 991 H 95.2003 -4.91926 -2.50425 0
M  V30 992 H 95.6773 -3.27609 -2.92521 0
M  V30 993 H 96.2833 -4.00829 -1.42184 0
M  V30 994 N 94.5984 0.214957 -1.56127 0
M  V30 995 C 95.8754 0.963093 -1.70247 0
M  V30 996 C 96.2554 2.02166 -0.60764 0
M  V30 997 O 95.6034 2.25244 0.384385 0
M  V30 998 C 95.8134 1.56756 -3.11815 0
M  V30 999 C 97.1614 2.0573 -3.7143 0
M  V30 1000 O 98.1854 1.66637 -3.14818 0
M  V30 1001 O 97.0444 2.77603 -4.70743 0
M  V30 1002 H 94.1384 0.450321 -0.693643 0
M  V30 1003 H 96.6844 0.206219 -1.68442 0
M  V30 1004 H 95.4564 0.803533 -3.82961 0
M  V30 1005 H 95.0794 2.3898 -3.17765 0
M  V30 1006 N 96.0765 1.50051 0.48192 0
M  V30 1007 C 96.9865 1.7089 1.60728 0
M  V30 1008 C 98.0025 0.591788 1.63627 0
M  V30 1009 O 99.1785 0.868817 1.81696 0
M  V30 1010 C 96.2435 1.78855 2.97005 0
M  V30 1011 C 95.3045 3.02537 3.04581 0
M  V30 1012 C 94.5375 3.10112 4.34357 0
M  V30 1013 O 94.7605 2.24765 5.24249 0
M  V30 1014 O 93.6945 4.02747 4.47301 0
M  V30 1015 H 97.5205 2.66264 1.46072 0
M  V30 1016 H 95.1055 1.34018 0.660264 0
M  V30 1017 H 96.9875 1.86336 3.77964 0
M  V30 1018 H 95.6625 0.866628 3.11883 0
M  V30 1019 H 94.5695 3.00563 2.22739 0
M  V30 1020 H 95.9025 3.94272 2.94636 0
M  V30 1021 N 97.5546 -0.734337 1.39446 0
M  V30 1022 C 98.8316 -1.48579 1.27215 0
M  V30 1023 C 99.2116 -2.1077 -0.117968 0
M  V30 1024 O 98.5596 -1.98646 -1.12924 0
M  V30 1025 C 98.7696 -2.53667 2.39696 0
M  V30 1026 C 100.118 -3.20031 2.79044 0
M  V30 1027 O 101.142 -2.6398 2.39151 0
M  V30 1028 O 100.001 -4.21455 3.47905 0
M  V30 1029 H 97.0946 -0.659816 0.49857 0
M  V30 1030 H 99.6406 -0.768106 1.51322 0
M  V30 1031 H 98.4126 -2.06096 3.32626 0
M  V30 1032 H 98.0356 -3.32994 2.17258 0
M  V30 1033 N 99.0327 -1.24633 -0.964593 0
M  V30 1034 C 99.9797 -1.04144 -2.05968 0
M  V30 1035 C 100.95 0.046262 -1.66036 0
M  V30 1036 O 102.135 -0.108972 -1.90489 0
M  V30 1037 C 99.2747 -0.65563 -3.38815 0
M  V30 1038 C 98.3877 -1.81714 -3.91923 0
M  V30 1039 C 97.5227 -1.37662 -5.13052 0
M  V30 1040 C 96.5617 -2.50788 -5.58365 0
M  V30 1041 N 95.6987 -2.07582 -6.70712 0
M  V30 1042 H 100.539 -1.9787 -2.22827 0
M  V30 1043 H 98.0757 -0.9855 -1.09208 0
M  V30 1044 H 100.034 -0.412954 -4.15151 0
M  V30 1045 H 98.6637 0.244627 -3.21872 0
M  V30 1046 H 97.7157 -2.1734 -3.12198 0
M  V30 1047 H 99.0277 -2.66705 -4.21509 0
M  V30 1048 H 98.1817 -1.093 -5.96773 0
M  V30 1049 H 96.9207 -0.497293 -4.85158 0
M  V30 1050 H 95.9257 -2.79906 -4.73215 0
M  V30 1051 H 97.1507 -3.39283 -5.88272 0
M  V30 1052 H 95.0967 -1.22051 -6.44546 0
M  V30 1053 H 95.0137 -2.86125 -6.99763 0
M  V30 1054 H 96.2817 -1.82369 -7.57867 0
M  V30 1055 N 100.511 1.16574 -1.06058 0
M  V30 1056 C 101.458 2.20883 -0.669263 0
M  V30 1057 C 102.428 1.62729 0.332918 0
M  V30 1058 O 103.613 1.895 0.222346 0
M  V30 1059 C 100.753 3.45049 -0.0593572 0
M  V30 1060 C 99.8658 4.17458 -1.11143 0
M  V30 1061 C 99.0008 5.29135 -0.467916 0
M  V30 1062 C 98.0398 5.93343 -1.50369 0
M  V30 1063 N 97.1768 6.96516 -0.883706 0
M  V30 1064 H 102.017 2.53709 -1.5632 0
M  V30 1065 H 99.5538 1.24616 -0.781625 0
M  V30 1066 H 101.512 4.16033 0.311771 0
M  V30 1067 H 100.142 3.12781 0.797992 0
M  V30 1068 H 99.1938 3.45101 -1.60029 0
M  V30 1069 H 100.506 4.61307 -1.89731 0
M  V30 1070 H 99.6598 6.06684 -0.0436871 0
M  V30 1071 H 98.3988 4.86443 0.349864 0
M  V30 1072 H 97.4038 5.14517 -1.93784 0
M  V30 1073 H 98.6288 6.38114 -2.32352 0
M  V30 1074 H 96.5748 6.55943 -0.086595 0
M  V30 1075 H 96.4918 7.38723 -1.607 0
M  V30 1076 H 97.7598 7.77993 -0.484543 0
M  V30 1077 N 101.989 0.842826 1.3317 0
M  V30 1078 C 102.936 0.276885 2.29133 0
M  V30 1079 C 103.906 -0.609527 1.54512 0
M  V30 1080 O 105.091 -0.546955 1.82792 0
M  V30 1081 C 102.231 -0.538707 3.40869 0
M  V30 1082 C 101.344 0.372169 4.30394 0
M  V30 1083 C 100.479 -0.454908 5.29249 0
M  V30 1084 C 99.5179 0.45411 6.10413 0
M  V30 1085 N 98.6549 -0.335075 7.013 0
M  V30 1086 H 103.495 1.10052 2.76934 0
M  V30 1087 H 101.032 0.554161 1.36262 0
M  V30 1088 H 102.99 -1.02709 4.0436 0
M  V30 1089 H 101.62 -1.32727 2.9425 0
M  V30 1090 H 100.672 0.97888 3.6759 0
M  V30 1091 H 101.984 1.0703 4.87182 0
M  V30 1092 H 101.138 -1.00695 5.98285 0
M  V30 1093 H 99.8769 -1.18646 4.73048 0
M  V30 1094 H 98.8819 1.01813 5.40291 0
M  V30 1095 H 100.107 1.18409 6.68697 0
M  V30 1096 H 98.0529 -1.04994 6.47543 0
M  V30 1097 H 97.9699 0.304262 7.55387 0
M  V30 1098 H 99.2379 -0.869224 7.74638 0
M  V30 1099 N 103.467 -1.45747 0.599634 0
M  V30 1100 C 104.716 -2.01502 0.0893511 0
M  V30 1101 C 105.029 -1.4748 -1.28488 0
M  V30 1102 O 106.235 -1.95161 -1.88745 0
M  V30 1103 C 104.691 -3.59735 0.109082 0
M  V30 1104 C 104.299 -4.22754 1.48267 0
M  V30 1105 C 106.043 -4.23085 -0.346374 0
M  V30 1106 C 103.95 -5.73115 1.45921 0
M  V30 1107 H 102.88 -0.753417 0.0296347 0
M  V30 1108 H 105.531 -1.67303 0.753788 0
M  V30 1109 H 103.913 -3.91087 -0.621854 0
M  V30 1110 H 105.087 -4.02987 2.23468 0
M  V30 1111 H 103.402 -3.71567 1.87955 0
M  V30 1112 H 105.999 -5.33327 -0.38298 0
M  V30 1113 H 106.342 -3.93201 -1.36743 0
M  V30 1114 H 106.875 -3.9642 0.331038 0
M  V30 1115 H 103.614 -6.07685 2.45762 0
M  V30 1116 H 103.134 -5.95097 0.749665 0
M  V30 1117 H 104.813 -6.3616 1.17941 0
M  V30 1118 N 104.945 -0.338344 -1.53925 0
M  V30 1119 C 106.193 0.259245 -2.0043 0
M  V30 1120 C 106.514 1.51484 -1.22791 0
M  V30 1121 O 105.784 1.93037 -0.33368 0
M  V30 1122 H 104.364 0.0987845 -0.740439 0
M  V30 1123 H 107.026 -0.458302 -1.89435 0
M  V30 1124 H 106.122 0.505334 -3.07982 0
M  V30 1125 N 106.423 1.57458 -0.0668435 0
M  V30 1126 C 107.356 2.08033 0.93795 0
M  V30 1127 C 108.334 0.984321 1.29421 0
M  V30 1128 O 109.518 1.25736 1.40437 0
M  V30 1129 C 106.645 2.53388 2.24749 0
M  V30 1130 C 105.691 3.74376 2.04315 0
M  V30 1131 S 106.524 5.19303 1.30706 0
M  V30 1132 C 107.68 5.67986 2.62951 0
M  V30 1133 H 107.913 2.92935 0.50759 0
M  V30 1134 H 105.446 1.5371 0.145804 0
M  V30 1135 H 107.404 2.8018 3.00016 0
M  V30 1136 H 106.065 1.68763 2.64911 0
M  V30 1137 H 105.258 4.04083 3.01218 0
M  V30 1138 H 104.86 3.47931 1.37186 0
M  V30 1139 H 107.152 5.74528 3.5906 0
M  V30 1140 H 108.095 6.66955 2.3786 0
M  V30 1141 H 108.503 4.95781 2.69929 0
M  V30 1142 N 107.901 -0.206675 1.56239 0
M  V30 1143 C 109.147 -0.930218 1.80208 0
M  V30 1144 C 109.48 -1.83387 0.638981 0
M  V30 1145 O 108.755 -1.91119 -0.361066 0
M  V30 1146 C 109.038 -1.75641 3.1436 0
M  V30 1147 C 108.891 -0.878257 4.41142 0
M  V30 1148 C 110.21 -2.73129 3.45092 0
M  V30 1149 H 107.329 -0.336742 0.655571 0
M  V30 1150 H 109.971 -0.198222 1.88963 0
M  V30 1151 H 108.121 -2.38048 3.07027 0
M  V30 1152 H 109.793 -0.269787 4.6051 0
M  V30 1153 H 108.036 -0.184385 4.33408 0
M  V30 1154 H 108.707 -1.49106 5.3148 0
M  V30 1155 H 111.183 -2.20856 3.52649 0
M  V30 1156 H 110.059 -3.28028 4.40101 0
M  V30 1157 H 110.32 -3.51606 2.68003 0
M  V30 1158 N 109.379 -1.50304 -0.473955 0
M  V30 1159 C 110.628 -1.60392 -1.22301 0
M  V30 1160 C 110.941 -0.308411 -1.93153 0
M  V30 1161 O 112.147 -0.288156 -2.69966 0
M  V30 1162 C 110.603 -2.83109 -2.2221 0
M  V30 1163 C 110.211 -4.19524 -1.57173 0
M  V30 1164 C 111.955 -3.0254 -2.97775 0
M  V30 1165 C 109.862 -5.33431 -2.55353 0
M  V30 1166 H 108.792 -0.597286 -0.460179 0
M  V30 1167 H 111.443 -1.76731 -0.493803 0
M  V30 1168 H 109.825 -2.60322 -2.9841 0
M  V30 1169 H 110.999 -4.52554 -0.867824 0
M  V30 1170 H 109.314 -4.05674 -0.939002 0
M  V30 1171 H 111.911 -3.84811 -3.71248 0
M  V30 1172 H 112.254 -2.14154 -3.56992 0
M  V30 1173 H 112.787 -3.25494 -2.28688 0
M  V30 1174 H 109.526 -6.23962 -2.00878 0
M  V30 1175 H 109.046 -5.04823 -3.23904 0
M  V30 1176 H 110.725 -5.63887 -3.17239 0
M  V30 1177 N 110.857 0.726932 -1.39834 0
M  V30 1178 C 112.103 1.48884 -1.377 0
M  V30 1179 C 112.436 1.94185 0.0244852 0
M  V30 1180 O 111.711 1.67361 0.990986 0
M  V30 1181 C 111.994 2.72288 -2.3565 0
M  V30 1182 C 111.847 2.32956 -3.84775 0
M  V30 1183 C 113.166 3.74414 -2.31306 0
M  V30 1184 H 110.285 0.540062 -0.5015 0
M  V30 1185 H 112.927 0.830547 -1.70886 0
M  V30 1186 H 111.077 3.28457 -2.07481 0
M  V30 1187 H 112.749 1.82356 -4.23726 0
M  V30 1188 H 110.992 1.65088 -4.01159 0
M  V30 1189 H 111.663 3.21362 -4.4881 0
M  V30 1190 H 114.139 3.27849 -2.56231 0
M  V30 1191 H 113.015 4.58414 -3.01907 0
M  V30 1192 H 113.276 4.21909 -1.32081 0
M  V30 1193 N 112.336 1.25143 0.95797 0
M  V30 1194 C 113.299 1.05321 2.03569 0
M  V30 1195 C 114.299 0.007152 1.60798 0
M  V30 1196 O 115.489 0.24903 1.72411 0
M  V30 1197 C 112.621 0.598394 3.35607 0
M  V30 1198 H 113.814 2.00986 2.22586 0
M  V30 1199 H 111.367 1.07502 1.13459 0
M  V30 1200 H 112.102 -0.361014 3.22284 0
M  V30 1201 H 111.887 1.35351 3.67998 0
M  V30 1202 H 113.377 0.48104 4.1482 0
M  V30 1203 N 113.814 -1.1601 1.06675 0
M  V30 1204 C 115.042 -1.90527 0.806667 0
M  V30 1205 C 115.457 -1.77643 -0.639396 0
M  V30 1206 O 114.814 -1.12369 -1.43803 0
M  V30 1207 C 114.865 -3.41106 1.19705 0
M  V30 1208 O 114.586 -3.53608 2.58636 0
M  V30 1209 C 116.087 -4.32663 0.965266 0
M  V30 1210 H 113.307 -0.604053 0.292166 0
M  V30 1211 H 115.851 -1.47026 1.4214 0
M  V30 1212 H 114.006 -3.82296 0.626774 0
M  V30 1213 H 114.42 -4.47011 2.74375 0
M  V30 1214 H 115.894 -5.36763 1.288 0
M  V30 1215 H 116.371 -4.39089 -0.0987936 0
M  V30 1216 H 116.977 -3.97206 1.52011 0
M  V30 1217 N 115.292 -0.849877 -1.32721 0
M  V30 1218 C 116.202 -0.293791 -2.32753 0
M  V30 1219 C 117.218 0.585906 -1.63839 0
M  V30 1220 O 118.394 0.487413 -1.95413 0
M  V30 1221 C 115.459 0.512752 -3.42887 0
M  V30 1222 C 114.52 -0.39252 -4.27502 0
M  V30 1223 C 113.753 0.375625 -5.32377 0
M  V30 1224 O 113.976 1.60613 -5.4732 0
M  V30 1225 O 112.91 -0.256094 -6.01355 0
M  V30 1226 H 116.736 -1.12242 -2.82197 0
M  V30 1227 H 114.321 -0.612685 -1.36259 0
M  V30 1228 H 116.203 0.970704 -4.10067 0
M  V30 1229 H 114.878 1.31826 -2.95641 0
M  V30 1230 H 113.785 -0.898547 -3.63149 0
M  V30 1231 H 115.118 -1.16309 -4.7826 0
M  V30 1232 N 116.77 1.45427 -0.607355 0
M  V30 1233 C 117.995 2.07124 -0.107006 0
M  V30 1234 C 118.42 1.44906 1.19933 0
M  V30 1235 O 117.778 0.541687 1.73019 0
M  V30 1236 C 117.826 3.60595 0.0194119 0
M  V30 1237 O 116.93 3.98285 1.0697 0
M  V30 1238 H 116.271 0.659868 -0.0739597 0
M  V30 1239 H 118.801 1.86683 -0.837297 0
M  V30 1240 H 118.811 4.07419 0.2177 0
M  V30 1241 H 117.486 4.05266 -0.934453 0
M  V30 1242 H 116.063 3.63133 0.847889 0
M  V30 1243 N 118.248 0.346503 1.53744 0
M  V30 1244 C 119.211 -0.496439 2.23759 0
M  V30 1245 C 120.211 -1.0252 1.2388 0
M  V30 1246 O 121.401 -0.913974 1.48297 0
M  V30 1247 C 118.533 -1.69187 2.95954 0
M  V30 1248 H 119.726 0.115952 2.99676 0
M  V30 1249 H 117.279 0.0978939 1.55993 0
M  V30 1250 H 118.014 -2.34288 2.24231 0
M  V30 1251 H 117.799 -1.31989 3.69217 0
M  V30 1252 H 119.289 -2.28969 3.49232 0
M  V30 1253 N 119.726 -1.57421 0.075193 0
M  V30 1254 C 120.972 -1.93905 -0.594025 0
M  V30 1255 C 121.305 -0.955701 -1.69056 0
M  V30 1256 O 120.58 0.0145373 -1.94495 0
M  V30 1257 C 120.863 -3.40638 -1.1678 0
M  V30 1258 C 120.716 -4.49733 -0.0776792 0
M  V30 1259 C 122.035 -3.88259 -2.07228 0
M  V30 1260 H 119.154 -0.705105 -0.214466 0
M  V30 1261 H 121.796 -1.8947 0.141854 0
M  V30 1262 H 119.946 -3.44549 -1.79494 0
M  V30 1263 H 121.618 -4.57942 0.555573 0
M  V30 1264 H 119.861 -4.29751 0.591286 0
M  V30 1265 H 120.532 -5.49549 -0.519603 0
M  V30 1266 H 123.008 -3.86376 -1.54445 0
M  V30 1267 H 121.884 -4.91533 -2.44308 0
M  V30 1268 H 122.145 -3.26396 -2.98191 0
M  V30 1269 N 121.204 0.198386 -1.56346 0
M  V30 1270 C 122.481 0.944982 -1.71258 0
M  V30 1271 C 122.861 2.0151 -0.629048 0
M  V30 1272 O 122.209 2.25639 0.360473 0
M  V30 1273 C 122.419 1.5344 -3.1346 0
M  V30 1274 C 123.767 2.01778 -3.73591 0
M  V30 1275 O 124.791 1.63288 -3.16568 0
M  V30 1276 O 123.65 2.72594 -4.73661 0
M  V30 1277 H 120.744 0.442939 -0.69838 0
M  V30 1278 H 123.29 0.188342 -1.68652 0
M  V30 1279 H 122.062 0.762869 -3.83792 0
M  V30 1280 H 121.685 2.35596 -3.20282 0
M  V30 1281 N 122.682 1.50554 0.465978 0
M  V30 1282 C 123.645 1.69233 1.54574 0
M  V30 1283 C 124.645 0.562901 1.50626 0
M  V30 1284 O 125.835 0.830016 1.53155 0
M  V30 1285 C 122.967 1.7223 2.94193 0
M  V30 1286 H 124.16 2.65571 1.39327 0
M  V30 1287 H 121.713 1.40111 0.692711 0
M  V30 1288 H 122.448 0.77603 3.14878 0
M  V30 1289 H 122.233 2.54285 2.98466 0
M  V30 1290 H 123.723 1.88618 3.72576 0
M  V30 1291 N 124.16 -0.719506 1.40217 0
M  V30 1292 C 125.123 -1.8153 1.39927 0
M  V30 1293 C 126.123 -1.58095 0.293723 0
M  V30 1294 O 127.313 -1.65209 0.552429 0
M  V30 1295 C 124.445 -3.19561 1.18716 0
M  V30 1296 H 125.638 -1.83186 2.37451 0
M  V30 1297 H 123.191 -0.924746 1.26008 0
M  V30 1298 H 123.926 -3.23557 0.219366 0
M  V30 1299 H 123.711 -3.3797 1.98793 0
M  V30 1300 H 125.201 -3.99598 1.21291 0
M  V30 1301 N 125.638 -1.25649 -0.95132 0
M  V30 1302 C 126.585 -1.06323 -2.04851 0
M  V30 1303 C 127.555 0.0286491 -1.66075 0
M  V30 1304 O 128.74 -0.12917 -1.90362 0
M  V30 1305 C 125.88 -0.691529 -3.381 0
M  V30 1306 C 124.993 -1.85861 -3.89974 0
M  V30 1307 C 124.128 -1.43096 -5.11563 0
M  V30 1308 C 123.167 -2.56696 -5.55674 0
M  V30 1309 N 122.304 -2.14684 -6.68472 0
M  V30 1310 H 127.144 -2.00222 -2.20715 0
M  V30 1311 H 124.681 -0.997027 -1.08156 0
M  V30 1312 H 126.639 -0.456963 -4.1469 0
M  V30 1313 H 125.269 0.210474 -3.22113 0
M  V30 1314 H 124.321 -2.20639 -3.09875 0
M  V30 1315 H 125.633 -2.71161 -4.18657 0
M  V30 1316 H 124.787 -1.15624 -5.9558 0
M  V30 1317 H 123.526 -0.548722 -4.84603 0
M  V30 1318 H 122.531 -2.84909 -4.7022 0
M  V30 1319 H 123.756 -3.45503 -5.8464 0
M  V30 1320 H 121.702 -1.28881 -6.43215 0
M  V30 1321 H 121.619 -2.9353 -6.96689 0
M  V30 1322 H 122.887 -1.90397 -7.5589 0
M  V30 1323 N 127.117 1.15442 -1.07289 0
M  V30 1324 C 128.08 2.18358 -0.696591 0
M  V30 1325 C 129.08 1.58637 0.262837 0
M  V30 1326 O 130.27 1.74145 0.0438809 0
M  V30 1327 C 127.402 3.4089 -0.0266151 0
M  V30 1328 H 128.595 2.53162 -1.60776 0
M  V30 1329 H 126.148 1.29893 -0.869342 0
M  V30 1330 H 126.883 3.11653 0.896822 0
M  V30 1331 H 126.668 3.85495 -0.716657 0
M  V30 1332 H 128.158 4.17009 0.222028 0
M  V30 1333 N 128.595 0.856903 1.32268 0
M  V30 1334 C 129.558 0.308171 2.27119 0
M  V30 1335 C 130.558 -0.533421 1.51695 0
M  V30 1336 O 131.748 -0.344607 1.70757 0
M  V30 1337 C 128.88 -0.563757 3.36206 0
M  V30 1338 H 130.073 1.14535 2.77167 0
M  V30 1339 H 127.626 0.631421 1.42978 0
M  V30 1340 H 128.361 -1.42266 2.91429 0
M  V30 1341 H 128.146 0.0386749 3.92081 0
M  V30 1342 H 129.636 -0.940386 4.06874 0
M  V30 1343 N 130.073 -1.45103 0.615059 0
M  V30 1344 C 131.036 -2.29025 -0.0895485 0
M  V30 1345 C 132.036 -1.40174 -0.787906 0
M  V30 1346 O 133.226 -1.62217 -0.634933 0
M  V30 1347 C 130.358 -3.21376 -1.13711 0
M  V30 1348 H 131.551 -2.92807 0.648382 0
M  V30 1349 H 129.104 -1.51749 0.374444 0
M  V30 1350 H 129.839 -2.6241 -1.90556 0
M  V30 1351 H 129.624 -3.86834 -0.640475 0
M  V30 1352 H 131.114 -3.84459 -1.63036 0
M  V30 1353 N 131.551 -0.354651 -1.53558 0
M  V30 1354 C 132.797 0.238797 -2.01389 0
M  V30 1355 C 133.13 1.49309 -1.2418 0
M  V30 1356 O 132.405 1.91638 -0.332457 0
M  V30 1357 C 132.688 0.541771 -3.56001 0
M  V30 1358 C 132.541 -0.725388 -4.43912 0
M  V30 1359 C 133.86 1.34685 -4.18984 0
M  V30 1360 H 130.979 0.0853177 -0.732045 0
M  V30 1361 H 133.621 -0.477384 -1.83905 0
M  V30 1362 H 131.771 1.15189 -3.71031 0
M  V30 1363 H 133.443 -1.36313 -4.407 0
M  V30 1364 H 131.686 -1.34801 -4.12324 0
M  V30 1365 H 132.357 -0.468505 -5.50008 0
M  V30 1366 H 134.833 0.830837 -4.07721 0
M  V30 1367 H 133.709 1.52759 -5.27215 0
M  V30 1368 H 133.97 2.35221 -3.74331 0
M  V30 1369 N 133.029 1.57378 -0.0835403 0
M  V30 1370 C 133.961 2.10389 0.909338 0
M  V30 1371 C 134.974 1.03858 1.25369 0
M  V30 1372 O 136.163 1.31338 1.20882 0
M  V30 1373 C 133.263 2.55908 2.2218 0
M  V30 1374 C 132.436 3.86145 2.05453 0
M  V30 1375 C 131.495 4.17633 3.20108 0
M  V30 1376 O 130.521 4.87043 2.94581 0
M  V30 1377 N 131.723 3.72113 4.45547 0
M  V30 1378 H 134.488 2.962 0.456657 0
M  V30 1379 H 132.049 1.61579 0.101877 0
M  V30 1380 H 134.041 2.74027 2.97811 0
M  V30 1381 H 132.611 1.75171 2.58909 0
M  V30 1382 H 131.831 3.7729 1.1422 0
M  V30 1383 H 133.119 4.7137 1.91541 0
M  V30 1384 H 132.517 3.16062 4.69171 0
M  V30 1385 H 131.074 3.95409 5.18165 0
M  V30 1386 N 134.507 -0.190092 1.56449 0
M  V30 1387 C 135.756 -0.907912 1.80111 0
M  V30 1388 C 136.069 -1.84214 0.657619 0
M  V30 1389 O 137.275 -2.60094 0.778663 0
M  V30 1390 C 135.731 -1.66485 3.19078 0
M  V30 1391 C 135.339 -0.7752 4.41242 0
M  V30 1392 C 137.083 -2.37201 3.52045 0
M  V30 1393 C 134.99 -1.53129 5.71231 0
M  V30 1394 H 133.92 -0.34276 0.671589 0
M  V30 1395 H 136.571 -0.161109 1.82791 0
M  V30 1396 H 134.953 -2.45572 3.10661 0
M  V30 1397 H 136.127 -0.0226298 4.60794 0
M  V30 1398 H 134.442 -0.178627 4.16017 0
M  V30 1399 H 137.039 -2.94329 4.46402 0
M  V30 1400 H 137.382 -3.11632 2.76028 0
M  V30 1401 H 137.915 -1.65075 3.61932 0
M  V30 1402 H 134.654 -0.82967 6.50228 0
M  V30 1403 H 134.174 -2.25767 5.55688 0
M  V30 1404 H 135.853 -2.08377 6.12526 0
M  V30 1405 N 135.985 -1.50799 -0.457987 0
M  V30 1406 C 136.935 -1.67003 -1.55222 0
M  V30 1407 C 137.919 -0.52434 -1.52117 0
M  V30 1408 O 139.111 -0.779345 -1.58919 0
M  V30 1409 C 136.24 -1.77956 -2.93576 0
M  V30 1410 C 135.326 -2.98243 -3.01516 0
M  V30 1411 N 135.717 -4.21732 -2.79241 0
M  V30 1412 C 134.015 -2.97072 -3.32662 0
M  V30 1413 C 134.716 -5.02817 -2.92489 0
M  V30 1414 N 133.692 -4.37038 -3.23262 0
M  V30 1415 H 137.494 -2.60163 -1.36721 0
M  V30 1416 H 135.008 -1.48163 -0.664952 0
M  V30 1417 H 137.005 -1.87671 -3.72271 0
M  V30 1418 H 135.665 -0.859634 -3.13114 0
M  V30 1419 H 136.676 -4.51016 -2.54567 0
M  V30 1420 H 133.353 -2.14631 -3.58106 0
M  V30 1421 H 134.743 -6.11054 -2.79396 0
M  V30 1422 N 137.463 0.71206 -1.40597 0
M  V30 1423 C 138.411 1.84746 -1.41321 0
M  V30 1424 C 139.405 1.66842 -0.293268 0
M  V30 1425 O 140.611 1.73904 -0.464481 0
M  V30 1426 H 136.986 0.608522 -0.441819 0
M  V30 1427 H 138.957 1.81252 -2.37045 0
M  V30 1428 C 137.706 3.22638 -1.29614 0
M  V30 1429 H 137.029 3.37023 -2.15071 0
M  V30 1430 H 138.469 4.02209 -1.3418 0
M  V30 1431 C 136.928 3.36899 -0.00673121 0
M  V30 1432 O 137.458 3.90186 0.954859 0
M  V30 1433 N 135.664 2.9053 0.0639327 0
M  V30 1434 H 135.211 2.47353 -0.719311 0
M  V30 1435 H 135.169 3.0045 0.926118 0
M  V30 1436 N 138.941 1.26152 0.944643 0
M  V30 1437 C 139.871 1.09902 2.06019 0
M  V30 1438 C 140.852 0.00519538 1.70099 0
M  V30 1439 O 142.037 0.176583 1.93396 0
M  V30 1440 C 139.167 0.727562 3.39594 0
M  V30 1441 C 138.121 1.77274 3.89561 0
M  V30 1442 C 137.447 1.25569 5.19747 0
M  V30 1443 C 138.747 3.17357 4.14827 0
M  V30 1444 H 140.441 2.03217 2.19871 0
M  V30 1445 H 137.987 0.978452 1.05652 0
M  V30 1446 H 139.94 0.600777 4.17095 0
M  V30 1447 H 138.664 -0.241287 3.25707 0
M  V30 1448 H 137.323 1.88814 3.14237 0
M  V30 1449 H 136.971 0.276783 5.02238 0
M  V30 1450 H 136.671 1.95433 5.54148 0
M  V30 1451 H 138.195 1.1415 5.99835 0
M  V30 1452 H 139.609 3.08914 4.82954 0
M  V30 1453 H 138.006 3.84781 4.60504 0
M  V30 1454 H 139.076 3.63673 3.20734 0
M  V30 1455 N 140.419 -1.14872 1.07899 0
M  V30 1456 C 141.349 -2.2193 0.725887 0
M  V30 1457 C 142.33 -1.67622 -0.28927 0
M  V30 1458 O 143.515 -1.93533 -0.160787 0
M  V30 1459 C 140.645 -3.47061 0.128856 0
M  V30 1460 C 139.599 -4.14363 1.07178 0
M  V30 1461 C 138.925 -5.33636 0.337229 0
M  V30 1462 C 140.225 -4.63492 2.40775 0
M  V30 1463 H 141.919 -2.51724 1.62097 0
M  V30 1464 H 139.465 -1.20991 0.780838 0
M  V30 1465 H 141.418 -4.21199 -0.130147 0
M  V30 1466 H 140.142 -3.16617 -0.80134 0
M  V30 1467 H 138.801 -3.42173 1.3158 0
M  V30 1468 H 138.449 -4.99449 -0.596606 0
M  V30 1469 H 138.149 -5.79609 0.965788 0
M  V30 1470 H 139.673 -6.10539 0.0861567 0
M  V30 1471 H 141.087 -5.2913 2.20669 0
M  V30 1472 H 139.484 -5.20148 2.99276 0
M  V30 1473 H 140.554 -3.78834 3.02676 0
M  V30 1474 N 141.898 -0.863906 -1.31812 0
M  V30 1475 C 143.146 -0.470904 -1.96537 0
M  V30 1476 C 143.467 0.978771 -1.68657 0
M  V30 1477 O 142.737 1.6853 -0.998717 0
M  V30 1478 H 141.317 -0.171148 -0.72713 0
M  V30 1479 H 143.979 -1.10236 -1.60729 0
M  V30 1480 H 143.075 -0.623616 -3.05806 0
M  V30 1481 N 143.376 1.44774 -0.622745 0
M  V30 1482 C 144.625 2.01334 -0.121397 0
M  V30 1483 C 144.938 1.49505 1.26125 0
M  V30 1484 O 146.144 1.98139 1.85616 0
M  V30 1485 C 144.6 3.59516 -0.166298 0
M  V30 1486 C 144.208 4.20342 -1.54974 0
M  V30 1487 C 145.952 4.23582 0.279021 0
M  V30 1488 C 143.859 5.70721 -1.55021 0
M  V30 1489 H 142.789 0.752851 -0.0416172 0
M  V30 1490 H 145.44 1.66083 -0.780309 0
M  V30 1491 H 143.822 3.92027 0.559557 0
M  V30 1492 H 144.996 3.99381 -2.29851 0
M  V30 1493 H 143.311 3.68529 -1.93843 0
M  V30 1494 H 145.908 5.33868 0.298083 0
M  V30 1495 H 146.251 3.95327 1.30471 0
M  V30 1496 H 146.784 3.95843 -0.394063 0
M  V30 1497 H 143.523 6.03698 -2.55399 0
M  V30 1498 H 143.043 5.93829 -0.844245 0
M  V30 1499 H 144.722 6.34203 -1.28047 0
M  V30 1500 N 144.854 0.36279 1.53368 0
M  V30 1501 C 145.786 -0.519668 2.23231 0
M  V30 1502 C 146.799 -1.04844 1.24546 0
M  V30 1503 O 147.988 -0.955296 1.50786 0
M  V30 1504 C 145.088 -1.72995 2.9142 0
M  V30 1505 C 144.261 -1.33316 4.16588 0
M  V30 1506 C 143.32 -2.40521 4.68013 0
M  V30 1507 O 142.346 -2.03027 5.3176 0
M  V30 1508 N 143.548 -3.72065 4.45587 0
M  V30 1509 H 146.313 0.078751 2.99597 0
M  V30 1510 H 143.874 0.187833 1.60807 0
M  V30 1511 H 145.866 -2.44184 3.22733 0
M  V30 1512 H 144.436 -2.2353 2.18525 0
M  V30 1513 H 143.656 -0.451236 3.91609 0
M  V30 1514 H 144.944 -1.04432 4.97967 0
M  V30 1515 H 144.342 -4.05304 3.94646 0
M  V30 1516 H 142.899 -4.39366 4.81457 0
M  V30 1517 N 146.332 -1.57332 0.0918853 0
M  V30 1518 C 147.743 -1.81496 -0.437739 0
M  V30 1519 C 148.094 -1.00727 -1.6837 0
M  V30 1520 O 147.219 -0.235694 -2.15113 0
M  V30 1521 C 147.814 -3.29197 -0.800939 0
M  V30 1522 C 146.373 -3.54136 -1.27532 0
M  V30 1523 C 145.52 -2.75979 -0.270392 0
M  V30 1524 H 148.471 -1.55494 0.317366 0
M  V30 1525 H 148.492 -3.42344 -1.66074 0
M  V30 1526 H 148.004 -3.87955 0.106078 0
M  V30 1527 H 146.105 -3.00705 -2.20016 0
M  V30 1528 H 146.218 -4.62792 -1.23938 0
M  V30 1529 H 144.582 -2.43349 -0.751872 0
M  V30 1530 H 145.365 -3.37484 0.629248 0
M  V30 1531 N 147.81 0.181792 -1.56548 0
M  V30 1532 C 149.057 0.900097 -1.81396 0
M  V30 1533 C 149.385 1.82695 -0.667281 0
M  V30 1534 O 148.64 1.92614 0.346146 0
M  V30 1535 C 148.939 1.73728 -3.12335 0
M  V30 1536 C 148.605 0.960255 -4.40556 0
M  V30 1537 C 147.267 0.745766 -4.75386 0
M  V30 1538 C 149.619 0.414477 -5.19549 0
M  V30 1539 C 146.947 -0.0257694 -5.86694 0
M  V30 1540 C 149.299 -0.343916 -6.31664 0
M  V30 1541 C 147.963 -0.569301 -6.65068 0
M  V30 1542 H 147.233 0.329369 -0.663775 0
M  V30 1543 H 149.88 0.165647 -1.90782 0
M  V30 1544 H 148.185 2.54081 -2.98245 0
M  V30 1545 H 149.882 2.29591 -3.28769 0
M  V30 1546 H 146.472 1.13746 -4.13231 0
M  V30 1547 H 150.656 0.567554 -4.93044 0
M  V30 1548 H 145.912 -0.210233 -6.11038 0
M  V30 1549 H 150.086 -0.774133 -6.92084 0
M  V30 1550 H 147.713 -1.16903 -7.51158 0
M  V30 1551 N 149.288 1.51039 0.449983 0
M  V30 1552 C 150.251 1.70863 1.5277 0
M  V30 1553 C 151.251 0.578846 1.5002 0
M  V30 1554 O 152.441 0.846213 1.52266 0
M  V30 1555 C 149.573 1.75341 2.9235 0
M  V30 1556 H 150.766 2.67034 1.36502 0
M  V30 1557 H 148.319 1.40838 0.677812 0
M  V30 1558 H 149.054 0.809383 3.14037 0
M  V30 1559 H 148.839 2.57436 2.95752 0
M  V30 1560 H 150.329 1.92559 3.70555 0
M  V30 1561 N 150.766 -0.704594 1.40972 0
M  V30 1562 C 152.182 -1.01406 1.23244 0
M  V30 1563 C 152.382 -2.01169 0.115399 0
M  V30 1564 O 151.438 -2.47021 -0.523147 0
M  V30 1565 C 152.751 -1.54728 2.57836 0
M  V30 1566 C 154.299 -1.66658 2.64942 0
M  V30 1567 C 154.774 -2.23383 3.9983 0
M  V30 1568 N 156.265 -2.30756 4.01629 0
M  V30 1569 C 157 -2.75655 5.02794 0
M  V30 1570 N 156.496 -3.20225 6.14352 0
M  V30 1571 N 158.289 -2.75138 4.90159 0
M  V30 1572 H 150.44 -0.0435285 2.12355 0
M  V30 1573 H 152.703 -0.0818951 0.944456 0
M  V30 1574 H 152.409 -0.888832 3.40283 0
M  V30 1575 H 152.283 -2.53084 2.79693 0
M  V30 1576 H 154.67 -2.31617 1.8286 0
M  V30 1577 H 154.751 -0.668717 2.46904 0
M  V30 1578 H 154.395 -1.59043 4.82357 0
M  V30 1579 H 154.325 -3.23904 4.15203 0
M  V30 1580 H 156.816 -1.99291 3.21079 0
M  V30 1581 H 157.129 -3.53084 6.87424 0
M  V30 1582 H 155.474 -3.18156 6.17901 0
M  V30 1583 H 158.665 -2.39661 4.02095 0
M  V30 1584 H 158.838 -3.09812 5.6914 0
M  V30 1585 N 152.244 -1.26651 -0.937939 0
M  V30 1586 C 153.484 -1.13611 -1.69917 0
M  V30 1587 C 153.848 0.314687 -1.89404 0
M  V30 1588 O 155.049 0.567285 -2.62746 0
M  V30 1589 C 153.32 -1.88742 -3.03498 0
M  V30 1590 S 154.879 -1.91794 -3.94665 0
M  V30 1591 H 151.697 -0.405767 -0.583844 0
M  V30 1592 H 154.299 -1.60416 -1.11745 0
M  V30 1593 H 153.003 -2.9336 -2.86999 0
M  V30 1594 H 152.534 -1.42391 -3.66727 0
M  V30 1595 H 154.549 -1.00698 -4.85875 0
M  V30 1596 N 153.722 1.14298 -1.08507 0
M  V30 1597 C 154.969 1.85359 -0.815373 0
M  V30 1598 C 155.297 1.83001 0.658865 0
M  V30 1599 O 154.552 1.25655 1.50031 0
M  V30 1600 C 154.851 3.33547 -1.28379 0
M  V30 1601 C 154.517 3.56093 -2.76602 0
M  V30 1602 C 153.179 3.61955 -3.17084 0
M  V30 1603 C 155.531 3.64834 -3.72217 0
M  V30 1604 C 152.859 3.74082 -4.51973 0
M  V30 1605 C 155.211 3.78487 -5.06883 0
M  V30 1606 C 153.875 3.82598 -5.46969 0
M  V30 1607 H 153.145 0.678276 -0.298366 0
M  V30 1608 H 155.792 1.35002 -1.35819 0
M  V30 1609 H 154.097 3.86191 -0.660593 0
M  V30 1610 H 155.794 3.86959 -1.05186 0
M  V30 1611 H 152.384 3.52179 -2.4427 0
M  V30 1612 H 156.568 3.59595 -3.42061 0
M  V30 1613 H 151.824 3.75527 -4.82483 0
M  V30 1614 H 155.998 3.84193 -5.80834 0
M  V30 1615 H 153.625 3.91747 -6.51489 0
M  V30 1616 N 155.201 0.870884 1.31352 0
M  V30 1617 C 156.111 0.330783 2.32256 0
M  V30 1618 C 157.127 -0.559767 1.6475 0
M  V30 1619 O 158.303 -0.456263 1.96164 0
M  V30 1620 C 155.368 -0.458137 3.4366 0
M  V30 1621 C 154.429 0.460482 4.26823 0
M  V30 1622 C 153.662 -0.290881 5.32907 0
M  V30 1623 O 153.885 -1.51885 5.49806 0
M  V30 1624 O 152.819 0.351732 6.00871 0
M  V30 1625 H 156.645 1.16718 2.80376 0
M  V30 1626 H 154.23 0.634285 1.35267 0
M  V30 1627 H 156.112 -0.905343 4.1156 0
M  V30 1628 H 154.787 -1.27106 2.97701 0
M  V30 1629 H 153.694 0.956207 3.61673 0
M  V30 1630 H 155.027 1.23903 4.7635 0
M  V30 1631 N 156.679 -1.44442 0.630414 0
M  V30 1632 C 157.612 -2.27862 -0.124247 0
M  V30 1633 C 158.59 -1.38495 -0.851931 0
M  V30 1634 O 159.774 -1.67935 -0.856166 0
M  V30 1635 C 156.901 -3.17407 -1.18197 0
M  V30 1636 C 155.947 -4.22875 -0.554892 0
M  V30 1637 S 156.78 -5.31485 0.654489 0
M  V30 1638 C 157.936 -6.246 -0.40326 0
M  V30 1639 H 158.169 -2.91519 0.583435 0
M  V30 1640 H 155.702 -1.48618 0.418565 0
M  V30 1641 H 157.66 -3.69549 -1.78728 0
M  V30 1642 H 156.321 -2.52971 -1.86184 0
M  V30 1643 H 155.514 -4.85542 -1.35148 0
M  V30 1644 H 155.116 -3.73992 -0.0242105 0
M  V30 1645 H 157.408 -6.65375 -1.27602 0
M  V30 1646 H 158.351 -7.07851 0.187813 0
M  V30 1647 H 158.759 -5.59775 -0.728837 0
M  V30 1648 N 158.157 -0.370918 -1.53173 0
M  V30 1649 C 159.104 0.473035 -2.259 0
M  V30 1650 C 160.074 1.07311 -1.26781 0
M  V30 1651 O 161.259 1.1046 -1.55574 0
M  V30 1652 C 158.399 1.60405 -3.05556 0
M  V30 1653 C 157.512 1.02863 -4.19575 0
M  V30 1654 C 156.647 2.12918 -4.86661 0
M  V30 1655 C 155.686 1.52869 -5.92704 0
M  V30 1656 N 154.823 2.56779 -6.53459 0
M  V30 1657 H 159.663 -0.153649 -2.97604 0
M  V30 1658 H 157.2 -0.0875946 -1.46839 0
M  V30 1659 H 159.158 2.27034 -3.50016 0
M  V30 1660 H 157.788 2.20131 -2.36097 0
M  V30 1661 H 156.84 0.252465 -3.79561 0
M  V30 1662 H 158.152 0.549642 -4.95762 0
M  V30 1663 H 157.306 2.87356 -5.34333 0
M  V30 1664 H 156.045 2.6417 -4.09958 0
M  V30 1665 H 155.05 0.769479 -5.44389 0
M  V30 1666 H 156.275 1.02435 -6.7133 0
M  V30 1667 H 154.221 3.07235 -5.79606 0
M  V30 1668 H 154.138 2.13583 -7.25202 0
M  V30 1669 H 155.406 3.30903 -7.05779 0
M  V30 1670 N 159.635 1.57281 -0.100228 0
M  V30 1671 C 160.545 2.17833 0.870965 0
M  V30 1672 C 161.561 1.14921 1.30649 0
M  V30 1673 O 162.737 1.47313 1.37335 0
M  V30 1674 C 159.802 2.75085 2.1102 0
M  V30 1675 C 158.863 3.9297 1.72838 0
M  V30 1676 C 158.096 4.47482 2.90854 0
M  V30 1677 O 158.319 4.00922 4.05731 0
M  V30 1678 O 157.253 5.38433 2.69023 0
M  V30 1679 H 161.079 3.0124 0.38575 0
M  V30 1680 H 158.664 1.48881 0.124397 0
M  V30 1681 H 160.546 3.11656 2.83634 0
M  V30 1682 H 159.221 1.94721 2.58584 0
M  V30 1683 H 158.128 3.61201 0.973883 0
M  V30 1684 H 159.461 4.74713 1.30033 0
M  V30 1685 N 161.113 -0.173488 1.56642 0
M  V30 1686 C 162.076 -1.19859 1.95362 0
M  V30 1687 C 163.076 -1.37296 0.83704 0
M  V30 1688 O 164.266 -1.34739 1.10413 0
M  V30 1689 C 161.398 -2.56405 2.24654 0
M  V30 1690 H 162.591 -0.867062 2.87092 0
M  V30 1691 H 160.144 -0.415853 1.50666 0
M  V30 1692 H 160.879 -2.94576 1.35631 0
M  V30 1693 H 160.664 -2.45115 3.06041 0
M  V30 1694 H 162.154 -3.30287 2.5554 0
M  V30 1695 N 162.591 -1.51276 -0.441967 0
M  V30 1696 C 163.831 -1.65372 -1.20132 0
M  V30 1697 C 164.195 -0.359871 -1.88597 0
M  V30 1698 O 165.396 -0.376551 -2.66149 0
M  V30 1699 C 163.667 -2.8207 -2.1948 0
M  V30 1700 S 165.226 -3.16467 -3.03964 0
M  V30 1701 H 162.044 -0.582669 -0.407453 0
M  V30 1702 H 164.646 -1.89166 -0.493609 0
M  V30 1703 H 163.35 -3.74523 -1.67812 0
M  V30 1704 H 162.881 -2.6045 -2.94838 0
M  V30 1705 H 164.896 -2.62543 -4.21053 0
M  V30 1706 N 164.069 0.697108 -1.41344 0
M  V30 1707 C 165.299 1.48377 -1.43763 0
M  V30 1708 C 165.707 1.89156 -0.0408726 0
M  V30 1709 O 165.05 1.57239 0.949812 0
M  V30 1710 C 165.112 2.7781 -2.2817 0
M  V30 1711 C 164.776 2.59244 -3.76353 0
M  V30 1712 C 165.773 2.25292 -4.68551 0
M  V30 1713 C 163.458 2.74933 -4.20378 0
M  V30 1714 C 165.452 2.07264 -6.02761 0
M  V30 1715 C 163.139 2.56521 -5.54653 0
M  V30 1716 C 164.137 2.22737 -6.4566 0
M  V30 1717 O 163.825 2.04485 -7.77458 0
M  V30 1718 H 163.557 0.463842 -0.491759 0
M  V30 1719 H 166.111 0.865934 -1.86255 0
M  V30 1720 H 164.341 3.41995 -1.8049 0
M  V30 1721 H 166.03 3.39608 -2.22309 0
M  V30 1722 H 166.796 2.12787 -4.35829 0
M  V30 1723 H 162.675 3.00213 -3.49848 0
M  V30 1724 H 166.219 1.80817 -6.73759 0
M  V30 1725 H 162.116 2.68616 -5.86955 0
M  V30 1726 H 162.884 2.1926 -7.88586 0
M  V30 1727 N 165.547 1.27147 0.931209 0
M  V30 1728 C 166.51 1.09615 2.01289 0
M  V30 1729 C 167.51 0.0412581 1.60747 0
M  V30 1730 O 168.7 0.285545 1.71844 0
M  V30 1731 C 165.832 0.669447 3.34262 0
M  V30 1732 H 167.025 2.05662 2.18273 0
M  V30 1733 H 164.578 1.09885 1.11153 0
M  V30 1734 H 165.313 -0.292572 3.22978 0
M  V30 1735 H 165.098 1.43127 3.65044 0
M  V30 1736 H 166.588 0.568921 4.13706 0
M  V30 1737 N 167.025 -1.13721 1.09112 0
M  V30 1738 C 167.988 -2.17222 0.731241 0
M  V30 1739 C 168.988 -1.59035 -0.237566 0
M  V30 1740 O 170.178 -1.74192 -0.0161704 0
M  V30 1741 C 167.31 -3.40804 0.0808443 0
M  V30 1742 H 168.503 -2.50573 1.64783 0
M  V30 1743 H 166.056 -1.28493 0.889897 0
M  V30 1744 H 166.791 -3.1304 -0.847127 0
M  V30 1745 H 166.576 -3.84306 0.777896 0
M  V30 1746 H 168.066 -4.1731 -0.155657 0
M  V30 1747 N 168.503 -0.877838 -1.30888 0
M  V30 1748 C 169.731 -0.507414 -2.00581 0
M  V30 1749 C 170.146 0.902216 -1.65848 0
M  V30 1750 O 169.503 1.59225 -0.891831 0
M  V30 1751 C 169.554 -0.664162 -3.55347 0
M  V30 1752 O 169.275 -2.01829 -3.8884 0
M  V30 1753 C 170.776 -0.295787 -4.42312 0
M  V30 1754 H 167.996 -0.196866 -0.641471 0
M  V30 1755 H 170.54 -1.18117 -1.66939 0
M  V30 1756 H 168.695 -0.0378619 -3.87381 0
M  V30 1757 H 169.109 -2.03174 -4.8355 0
M  V30 1758 H 170.583 -0.456388 -5.5011 0
M  V30 1759 H 171.06 0.765663 -4.32475 0
M  V30 1760 H 171.666 -0.898113 -4.15709 0
M  V30 1761 N 169.982 1.44106 -0.638065 0
M  V30 1762 C 171.393 1.85316 -0.226894 0
M  V30 1763 C 171.744 1.53399 1.22324 0
M  V30 1764 O 170.869 0.975463 1.93167 0
M  V30 1765 C 171.464 3.3637 -0.405013 0
M  V30 1766 C 170.023 3.76369 -0.0482902 0
M  V30 1767 C 169.17 2.67921 -0.715108 0
M  V30 1768 H 172.121 1.34474 -0.842764 0
M  V30 1769 H 172.142 3.7885 0.354 0
M  V30 1770 H 171.654 3.59569 -1.46053 0
M  V30 1771 H 169.755 3.58784 1.00522 0
M  V30 1772 H 169.868 4.76856 -0.463187 0
M  V30 1773 H 168.232 2.54259 -0.149753 0
M  V30 1774 H 169.015 2.93951 -1.77335 0
M  V30 1775 N 171.46 0.379036 1.52974 0
M  V30 1776 C 172.423 -0.448865 2.24762 0
M  V30 1777 C 173.423 -0.998689 1.26027 0
M  V30 1778 O 174.613 -0.882313 1.50203 0
M  V30 1779 C 171.745 -1.62872 2.99476 0
M  V30 1780 H 172.938 0.179491 2.99362 0
M  V30 1781 H 170.491 0.13096 1.5575 0
M  V30 1782 H 171.226 -2.29479 2.29151 0
M  V30 1783 H 171.011 -1.24128 3.71934 0
M  V30 1784 H 172.501 -2.2151 3.5401 0
M  V30 1785 N 172.938 -1.57226 0.108567 0
M  V30 1786 C 174.187 -1.94008 -0.551703 0
M  V30 1787 C 174.5 -0.993442 -1.68494 0
M  V30 1788 O 175.706 -1.25551 -2.40726 0
M  V30 1789 C 174.162 -3.44763 -1.03279 0
M  V30 1790 C 173.77 -4.47943 0.0714193 0
M  V30 1791 C 175.514 -3.90483 -1.66503 0
M  V30 1792 C 173.421 -5.89865 -0.425779 0
M  V30 1793 H 172.351 -0.724206 -0.209863 0
M  V30 1794 H 175.002 -1.82547 0.186741 0
M  V30 1795 H 173.384 -3.51422 -1.82533 0
M  V30 1796 H 174.558 -4.52942 0.847365 0
M  V30 1797 H 172.873 -4.11913 0.609669 0
M  V30 1798 H 175.47 -4.93925 -2.04798 0
M  V30 1799 H 175.813 -3.29877 -2.53942 0
M  V30 1800 H 176.346 -3.86581 -0.938074 0
M  V30 1801 H 173.085 -6.54202 0.412316 0
M  V30 1802 H 172.605 -5.88309 -1.16843 0
M  V30 1803 H 174.284 -6.40844 -0.890397 0
M  V30 1804 N 174.416 0.165178 -1.56732 0
M  V30 1805 C 175.348 1.22911 -1.93457 0
M  V30 1806 C 176.361 1.40152 -0.828333 0
M  V30 1807 O 177.55 1.40046 -1.10677 0
M  V30 1808 C 174.65 2.59686 -2.17753 0
M  V30 1809 C 173.823 2.63663 -3.48999 0
M  V30 1810 C 172.882 3.81845 -3.62051 0
M  V30 1811 O 171.908 3.67559 -4.34613 0
M  V30 1812 N 173.11 4.98557 -2.97357 0
M  V30 1813 H 175.875 0.917118 -2.85323 0
M  V30 1814 H 173.436 0.354895 -1.57962 0
M  V30 1815 H 175.428 3.37225 -2.23743 0
M  V30 1816 H 173.998 2.83251 -1.32242 0
M  V30 1817 H 173.218 1.72173 -3.54612 0
M  V30 1818 H 174.506 2.63336 -4.35352 0
M  V30 1819 H 173.904 5.13065 -2.38287 0
M  V30 1820 H 172.461 5.73936 -3.08934 0
M  V30 1821 N 175.894 1.51508 0.433938 0
M  V30 1822 C 176.824 1.76016 1.53429 0
M  V30 1823 C 177.805 0.610112 1.58782 0
M  V30 1824 O 178.99 0.853177 1.74455 0
M  V30 1825 C 176.12 1.88831 2.9148 0
M  V30 1826 C 175.074 3.04288 3.00987 0
M  V30 1827 C 174.4 3.0229 4.4105 0
M  V30 1828 C 175.7 4.44193 2.74754 0
M  V30 1829 H 177.394 2.68152 1.33171 0
M  V30 1830 H 174.94 1.29035 0.639214 0
M  V30 1831 H 176.893 2.04559 3.6842 0
M  V30 1832 H 175.617 0.933455 3.12976 0
M  V30 1833 H 174.276 2.8827 2.26486 0
M  V30 1834 H 173.924 2.04576 4.59519 0
M  V30 1835 H 173.624 3.79822 4.4834 0
M  V30 1836 H 175.148 3.20116 5.1996 0
M  V30 1837 H 176.562 4.60544 3.41426 0
M  V30 1838 H 174.959 5.23457 2.9345 0
M  V30 1839 H 176.029 4.53996 1.70339 0
M  V30 1840 N 177.372 -0.689602 1.41712 0
M  V30 1841 C 178.335 -1.78521 1.43746 0
M  V30 1842 C 179.335 -1.57436 0.327191 0
M  V30 1843 O 180.525 -1.64 0.587348 0
M  V30 1844 C 177.657 -3.16971 1.25467 0
M  V30 1845 H 178.85 -1.78108 2.41283 0
M  V30 1846 H 176.403 -0.89781 1.27942 0
M  V30 1847 H 177.138 -3.23019 0.287948 0
M  V30 1848 H 176.923 -3.33678 2.05917 0
M  V30 1849 H 178.413 -3.96935 1.2974 0
M  V30 1850 N 178.85 -1.27639 -0.924453 0
M  V30 1851 C 179.797 -1.10644 -2.0255 0
M  V30 1852 C 180.767 -0.00658438 -1.66099 0
M  V30 1853 O 181.952 -0.16952 -1.90045 0
M  V30 1854 C 179.092 -0.76309 -3.36557 0
M  V30 1855 C 178.205 -1.94091 -3.85944 0
M  V30 1856 C 177.34 -1.53914 -5.08413 0
M  V30 1857 C 176.379 -2.68425 -5.50104 0
M  V30 1858 N 175.516 -2.28815 -6.63768 0
M  V30 1859 H 180.356 -2.04858 -2.16419 0
M  V30 1860 H 177.893 -1.01974 -1.06017 0
M  V30 1861 H 179.851 -0.544822 -4.13627 0
M  V30 1862 H 178.481 0.142102 -3.22487 0
M  V30 1863 H 177.533 -2.27162 -3.05125 0
M  V30 1864 H 178.845 -2.7998 -4.12811 0
M  V30 1865 H 177.999 -1.28231 -5.92994 0
M  V30 1866 H 176.738 -0.651391 -4.8333 0
M  V30 1867 H 175.743 -2.94819 -4.64071 0
M  V30 1868 H 176.968 -3.57826 -5.7718 0
M  V30 1869 H 174.914 -1.42495 -6.40337 0
M  V30 1870 H 174.831 -3.08242 -6.90306 0
M  V30 1871 H 176.099 -2.06387 -7.51681 0
M  V30 1872 N 180.328 1.1314 -1.09713 0
M  V30 1873 C 181.605 1.80762 -0.747302 0
M  V30 1874 C 181.985 1.96663 0.767265 0
M  V30 1875 O 181.333 1.53706 1.69076 0
M  V30 1876 C 181.543 3.15606 -1.48975 0
M  V30 1877 C 182.891 3.90914 -1.65746 0
M  V30 1878 O 183.915 3.25239 -1.45251 0
M  V30 1879 O 182.774 5.08718 -1.9967 0
M  V30 1880 H 179.868 0.782103 -0.268782 0
M  V30 1881 H 182.414 1.20041 -1.19951 0
M  V30 1882 H 181.186 2.99278 -2.52088 0
M  V30 1883 H 180.809 3.84029 -1.02991 0
M  V30 1884 N 181.806 0.884767 1.30421 0
M  V30 1885 C 183.036 0.517293 2.00019 0
M  V30 1886 C 183.444 -0.898632 1.66497 0
M  V30 1887 O 182.787 -1.60245 0.898181 0
M  V30 1888 C 182.849 0.612025 3.54252 0
M  V30 1889 C 182.513 1.99222 4.1129 0
M  V30 1890 C 183.51 2.9616 4.273 0
M  V30 1891 C 181.195 2.29755 4.46674 0
M  V30 1892 C 183.189 4.21764 4.77906 0
M  V30 1893 C 180.876 3.55606 4.96979 0
M  V30 1894 C 181.874 4.51425 5.12547 0
M  V30 1895 O 181.562 5.75043 5.61766 0
M  V30 1896 H 181.294 0.198529 0.64619 0
M  V30 1897 H 183.848 1.1919 1.67281 0
M  V30 1898 H 182.078 -0.119561 3.86515 0
M  V30 1899 H 183.767 0.255859 4.05093 0
M  V30 1900 H 184.533 2.73882 4.00267 0
M  V30 1901 H 180.412 1.55942 4.33824 0
M  V30 1902 H 183.956 4.96561 4.89972 0
M  V30 1903 H 179.853 3.7772 5.23448 0
M  V30 1904 H 180.621 5.77422 5.80109 0
M  V30 1905 N 183.284 -1.43765 0.645699 0
M  V30 1906 C 184.214 -2.33471 -0.0370477 0
M  V30 1907 C 185.195 -1.49042 -0.819779 0
M  V30 1908 O 186.38 -1.77726 -0.782758 0
M  V30 1909 C 183.51 -3.32311 -1.0093 0
M  V30 1910 C 182.464 -4.2667 -0.337201 0
M  V30 1911 C 181.79 -5.1549 -1.42037 0
M  V30 1912 C 183.09 -5.16657 0.765706 0
M  V30 1913 H 184.784 -2.90809 0.712069 0
M  V30 1914 H 182.33 -1.39834 0.343876 0
M  V30 1915 H 184.283 -3.9396 -1.49578 0
M  V30 1916 H 183.007 -2.73213 -1.78948 0
M  V30 1917 H 181.666 -3.66374 0.128771 0
M  V30 1918 H 181.314 -4.52735 -2.1918 0
M  V30 1919 H 181.014 -5.79438 -0.975966 0
M  V30 1920 H 182.538 -5.80012 -1.90838 0
M  V30 1921 H 183.952 -5.72158 0.361702 0
M  V30 1922 H 182.349 -5.89286 1.13413 0
M  V30 1923 H 183.419 -4.56796 1.62683 0
M  V30 1924 N 184.763 -0.387143 -1.52771 0
M  V30 1925 C 185.726 0.436939 -2.24997 0
M  V30 1926 C 186.726 0.991991 -1.26555 0
M  V30 1927 O 187.916 0.874335 -1.50669 0
M  V30 1928 C 185.048 1.61281 -3.00335 0
M  V30 1929 H 186.241 -0.195365 -2.99263 0
M  V30 1930 H 183.794 -0.139218 -1.55679 0
M  V30 1931 H 184.529 2.2826 -2.30364 0
M  V30 1932 H 184.314 1.22154 -3.72587 0
M  V30 1933 H 185.804 2.19629 -3.5518 0
M  V30 1934 N 186.241 1.57166 -0.116904 0
M  V30 1935 C 187.469 1.99473 0.549383 0
M  V30 1936 C 187.884 0.996541 1.60357 0
M  V30 1937 O 187.241 -0.0108731 1.82497 0
M  V30 1938 C 187.292 3.41788 1.17741 0
M  V30 1939 O 187.013 4.37788 0.165362 0
M  V30 1940 C 188.514 3.99216 1.92722 0
M  V30 1941 H 185.734 0.655009 0.145616 0
M  V30 1942 H 188.278 2.03494 -0.202625 0
M  V30 1943 H 186.433 3.38713 1.88021 0
M  V30 1944 H 186.847 5.20806 0.621403 0
M  V30 1945 H 188.321 5.00882 2.31995 0
M  V30 1946 H 188.798 3.3824 2.80161 0
M  V30 1947 H 189.404 4.0583 1.27209 0
M  V30 1948 N 187.719 -0.156864 1.56817 0
M  V30 1949 C 189.135 -0.50916 1.5126 0
M  V30 1950 C 189.335 -1.83897 0.823658 0
M  V30 1951 O 188.391 -2.49469 0.390055 0
M  V30 1952 C 189.704 -0.52857 2.96018 0
M  V30 1953 C 191.252 -0.614771 3.06903 0
M  V30 1954 C 191.727 -0.664938 4.53147 0
M  V30 1955 N 193.218 -0.727433 4.57452 0
M  V30 1956 C 193.953 -0.787067 5.67973 0
M  V30 1957 N 193.449 -0.806649 6.88088 0
M  V30 1958 N 195.242 -0.827195 5.5598 0
M  V30 1959 H 187.393 0.714935 2.00006 0
M  V30 1960 H 189.656 0.259526 0.911784 0
M  V30 1961 H 189.362 0.380154 3.49639 0
M  V30 1962 H 189.236 -1.36998 3.51442 0
M  V30 1963 H 191.623 -1.51392 2.53307 0
M  V30 1964 H 191.704 0.253597 2.5454 0
M  V30 1965 H 191.348 0.230011 5.07379 0
M  V30 1966 H 191.278 -1.54966 5.03282 0
M  V30 1967 H 193.769 -0.719998 3.70978 0
M  V30 1968 H 194.082 -0.853727 7.6807 0
M  V30 1969 H 192.427 -0.774687 6.90669 0
M  V30 1970 H 195.618 -0.808998 4.61056 0
M  V30 1971 H 195.791 -0.870206 6.4213 0
M  V30 1972 N 189.197 -1.51736 -0.425897 0
M  V30 1973 C 190.608 -1.5732 -1.00536 0
M  V30 1974 C 190.959 -0.403537 -1.92005 0
M  V30 1975 O 190.084 0.478256 -2.11049 0
M  V30 1976 C 190.679 -2.85119 -1.8301 0
M  V30 1977 C 189.238 -2.93236 -2.35987 0
M  V30 1978 C 188.385 -2.52098 -1.15508 0
M  V30 1979 H 191.336 -1.57348 -0.206739 0
M  V30 1980 H 191.357 -2.69526 -2.68581 0
M  V30 1981 H 190.869 -3.7023 -1.16411 0
M  V30 1982 H 188.97 -2.12581 -3.06007 0
M  V30 1983 H 189.083 -3.9713 -2.68001 0
M  V30 1984 H 187.447 -2.05558 -1.50393 0
M  V30 1985 H 188.23 -3.39565 -0.505014 0
M  V30 1986 N 190.675 0.682077 -1.42076 0
M  V30 1987 C 191.623 1.81707 -1.45208 0
M  V30 1988 C 192.617 1.66183 -0.328591 0
M  V30 1989 O 193.823 1.7288 -0.501264 0
M  V30 1990 H 190.198 0.599014 -0.454628 0
M  V30 1991 H 192.169 1.76183 -2.40836 0
M  V30 1992 C 190.918 3.19816 -1.36428 0
M  V30 1993 H 190.241 3.32385 -2.22171 0
M  V30 1994 H 191.681 3.99272 -1.42681 0
M  V30 1995 C 190.14 3.36809 -0.078191 0
M  V30 1996 O 190.67 3.92124 0.87188 0
M  V30 1997 N 188.876 2.906 0.00229266 0
M  V30 1998 H 188.423 2.45772 -0.771616 0
M  V30 1999 H 188.381 3.02347 0.862179 0
M  V30 2000 N 192.153 1.28127 0.917671 0
M  V30 2001 C 193.063 1.13556 2.05286 0
M  V30 2002 C 194.079 0.0630914 1.73886 0
M  V30 2003 O 195.255 0.271598 1.9956 0
M  V30 2004 C 192.32 0.794676 3.3747 0
M  V30 2005 C 191.381 1.94909 3.82504 0
M  V30 2006 C 190.614 1.62437 5.0838 0
M  V30 2007 O 190.837 0.536905 5.67867 0
M  V30 2008 O 189.771 2.46677 5.4903 0
M  V30 2009 H 193.597 2.08844 2.20495 0
M  V30 2010 H 191.182 1.07409 1.03845 0
M  V30 2011 H 193.064 0.618344 4.16839 0
M  V30 2012 H 191.739 -0.128581 3.23445 0
M  V30 2013 H 190.646 2.18055 3.03978 0
M  V30 2014 H 191.979 2.85291 4.01086 0
M  V30 2015 N 193.631 -1.12557 1.10312 0
M  V30 2016 C 194.578 -2.18247 0.750781 0
M  V30 2017 C 195.548 -1.63853 -0.272293 0
M  V30 2018 O 196.733 -1.90195 -0.151862 0
M  V30 2019 C 193.873 -3.44591 0.187379 0
M  V30 2020 C 192.986 -4.13046 1.2656 0
M  V30 2021 C 192.121 -5.27034 0.663978 0
M  V30 2022 C 191.16 -5.87353 1.72287 0
M  V30 2023 N 190.297 -6.92757 1.1416 0
M  V30 2024 H 195.137 -2.47732 1.65628 0
M  V30 2025 H 192.674 -1.21629 0.827337 0
M  V30 2026 H 194.632 -4.16904 -0.157148 0
M  V30 2027 H 193.262 -3.15527 -0.681355 0
M  V30 2028 H 192.314 -3.38924 1.72727 0
M  V30 2029 H 193.626 -4.53947 2.06721 0
M  V30 2030 H 192.78 -6.06104 0.268824 0
M  V30 2031 H 191.519 -4.87407 -0.169082 0
M  V30 2032 H 190.524 -5.06971 2.12746 0
M  V30 2033 H 191.749 -6.29051 2.55875 0
M  V30 2034 H 189.695 -6.5517 0.329984 0
M  V30 2035 H 189.612 -7.3225 1.88007 0
M  V30 2036 H 190.88 -7.75658 0.772956 0
M  V30 2037 N 195.109 -0.891671 -1.2995 0
M  V30 2038 C 196.355 -0.514261 -1.96171 0
M  V30 2039 C 196.688 0.935506 -1.70182 0
M  V30 2040 O 195.963 1.66204 -1.01028 0
M  V30 2041 C 196.246 -0.797719 -3.51153 0
M  V30 2042 C 196.099 -2.2986 -3.86632 0
M  V30 2043 C 197.418 -0.278749 -4.39216 0
M  V30 2044 H 194.537 -0.188314 -0.712535 0
M  V30 2045 H 197.179 -1.11689 -1.53706 0
M  V30 2046 H 195.329 -0.284826 -3.87455 0
M  V30 2047 H 197.001 -2.88042 -3.60319 0
M  V30 2048 H 195.244 -2.76257 -3.34462 0
M  V30 2049 H 195.915 -2.44753 -4.94773 0
M  V30 2050 H 198.391 -0.717825 -4.09862 0
M  V30 2051 H 197.267 -0.506353 -5.46559 0
M  V30 2052 H 197.528 0.820266 -4.34424 0
M  V30 2053 N 196.587 1.43421 -0.653314 0
M  V30 2054 C 197.517 2.33487 0.0246656 0
M  V30 2055 C 198.498 1.49475 0.811863 0
M  V30 2056 O 199.683 1.78139 0.773322 0
M  V30 2057 C 196.813 3.32841 0.99166 0
M  V30 2058 C 195.767 4.26842 0.314568 0
M  V30 2059 C 195.093 5.16236 1.39302 0
M  V30 2060 C 196.393 5.16243 -0.793095 0
M  V30 2061 H 198.087 2.90427 -0.727481 0
M  V30 2062 H 195.633 1.39649 -0.351287 0
M  V30 2063 H 197.586 3.94747 1.47487 0
M  V30 2064 H 196.31 2.74158 1.77497 0
M  V30 2065 H 194.969 3.663 -0.148199 0
M  V30 2066 H 194.617 4.53891 2.16776 0
M  V30 2067 H 194.317 5.79948 0.945223 0
M  V30 2068 H 195.841 5.81015 1.87759 0
M  V30 2069 H 197.255 5.71958 -0.392039 0
M  V30 2070 H 195.652 5.88676 -1.16536 0
M  V30 2071 H 196.722 4.55927 -1.65103 0
M  V30 2072 N 198.065 0.39524 1.52563 0
M  V30 2073 C 199.311 -0.185318 2.01952 0
M  V30 2074 C 199.644 -1.45964 1.28095 0
M  V30 2075 O 198.919 -1.90689 0.38315 0
M  V30 2076 C 199.202 -0.447193 3.57312 0
M  V30 2077 C 199.055 0.842828 4.41833 0
M  V30 2078 C 200.374 -1.23529 4.22408 0
M  V30 2079 H 197.493 -0.0658788 0.73405 0
M  V30 2080 H 200.135 0.525975 1.82575 0
M  V30 2081 H 198.285 -1.05312 3.73954 0
M  V30 2082 H 199.957 1.4795 4.36931 0
M  V30 2083 H 198.2 1.45686 4.08605 0
M  V30 2084 H 198.871 0.614165 5.48573 0
M  V30 2085 H 201.347 -0.722445 4.0978 0
M  V30 2086 H 200.223 -1.38727 5.3108 0
M  V30 2087 H 200.484 -2.25213 3.80436 0
M  V30 2088 N 199.544 -1.57102 0.125237 0
M  V30 2089 C 200.793 -1.94582 -0.531095 0
M  V30 2090 C 201.106 -1.01126 -1.6743 0
M  V30 2091 O 202.312 -1.28097 -2.39381 0
M  V30 2092 C 200.768 -3.45839 -0.996164 0
M  V30 2093 C 200.376 -4.47842 0.118926 0
M  V30 2094 C 202.12 -3.92227 -1.62352 0
M  V30 2095 C 200.027 -5.90284 -0.363192 0
M  V30 2096 H 198.957 -0.726391 -0.20217 0
M  V30 2097 H 201.608 -1.82339 0.206092 0
M  V30 2098 H 199.99 -3.53338 -1.78796 0
M  V30 2099 H 201.164 -4.52018 0.895358 0
M  V30 2100 H 199.479 -4.11243 0.653324 0
M  V30 2101 H 202.076 -4.96069 -1.99548 0
M  V30 2102 H 202.419 -3.32552 -2.50429 0
M  V30 2103 H 202.952 -3.87554 -0.897019 0
M  V30 2104 H 199.691 -6.53728 0.481679 0
M  V30 2105 H 199.211 -5.89515 -1.10597 0
M  V30 2106 H 200.89 -6.41752 -0.822377 0
M  V30 2107 N 201.022 0.148545 -1.56898 0
M  V30 2108 C 201.985 1.16736 -1.97244 0
M  V30 2109 C 202.985 1.35947 -0.858777 0
M  V30 2110 O 204.175 1.32966 -1.12542 0
M  V30 2111 C 201.307 2.52798 -2.28705 0
M  V30 2112 H 202.5 0.821279 -2.88435 0
M  V30 2113 H 200.053 0.391831 -1.51309 0
M  V30 2114 H 200.788 2.92381 -1.403 0
M  V30 2115 H 200.573 2.40216 -3.09901 0
M  V30 2116 H 202.063 3.26179 -2.60762 0
M  V30 2117 N 202.5 1.5196 0.417844 0
M  V30 2118 C 203.728 1.69426 1.18753 0
M  V30 2119 C 204.143 0.399955 1.84515 0
M  V30 2120 O 203.5 -0.623288 1.71527 0
M  V30 2121 C 203.551 2.82375 2.25714 0
M  V30 2122 O 203.272 4.06793 1.62638 0
M  V30 2123 C 204.773 3.11277 3.15628 0
M  V30 2124 H 201.993 0.568031 0.357186 0
M  V30 2125 H 204.537 1.98475 0.49273 0
M  V30 2126 H 202.692 2.5587 2.90877 0
M  V30 2127 H 203.106 4.69667 2.3348 0
M  V30 2128 H 204.58 3.93843 3.86771 0
M  V30 2129 H 205.057 2.24473 3.77503 0
M  V30 2130 H 205.663 3.39515 2.56144 0
M  V30 2131 N 203.978 -0.674533 1.42435 0
M  V30 2132 C 205.255 -1.4305 1.33402 0
M  V30 2133 C 205.635 -2.11081 -0.0284674 0
M  V30 2134 O 204.983 -2.03257 -1.04397 0
M  V30 2135 C 205.193 -2.43272 2.50239 0
M  V30 2136 C 206.541 -3.07907 2.92367 0
M  V30 2137 O 207.565 -2.53599 2.50132 0
M  V30 2138 O 206.424 -4.0632 3.65467 0
M  V30 2139 H 203.518 -0.638076 0.526106 0
M  V30 2140 H 206.064 -0.703235 1.54443 0
M  V30 2141 H 204.836 -1.91803 3.41068 0
M  V30 2142 H 204.459 -3.23479 2.31186 0
M  V30 2143 N 205.456 -1.28612 -0.910864 0
M  V30 2144 C 206.684 -1.18792 -1.69399 0
M  V30 2145 C 207.099 0.253039 -1.87097 0
M  V30 2146 O 206.456 1.17071 -1.40003 0
M  V30 2147 C 206.507 -1.88511 -3.08457 0
M  V30 2148 O 206.228 -3.26979 -2.91576 0
M  V30 2149 C 207.729 -1.85029 -4.02839 0
M  V30 2150 H 204.949 -0.412233 -0.529438 0
M  V30 2151 H 207.493 -1.69788 -1.13984 0
M  V30 2152 H 205.648 -1.41379 -3.60681 0
M  V30 2153 H 206.062 -3.61936 -3.79608 0
M  V30 2154 H 207.536 -2.38395 -4.97867 0
M  V30 2155 H 208.013 -0.823303 -4.31414 0
M  V30 2156 H 208.619 -2.31853 -3.56545 0
M  V30 2157 N 206.934 1.1197 -1.10907 0
M  V30 2158 C 207.897 2.16031 -0.765707 0
M  V30 2159 C 208.897 1.59393 0.212235 0
M  V30 2160 O 210.087 1.74196 -0.0115441 0
M  V30 2161 C 207.219 3.40632 -0.135053 0
M  V30 2162 H 208.412 2.47919 -1.68748 0
M  V30 2163 H 205.965 1.27061 -0.910226 0
M  V30 2164 H 206.7 3.14348 0.797218 0
M  V30 2165 H 206.485 3.8302 -0.838937 0
M  V30 2166 H 207.975 4.17505 0.0892469 0
M  V30 2167 N 208.412 0.89855 1.29475 0
M  V30 2168 C 209.828 0.594483 1.48115 0
M  V30 2169 C 210.028 -0.86431 1.82022 0
M  V30 2170 O 209.084 -1.64457 1.91599 0
M  V30 2171 C 210.397 1.51932 2.59494 0
M  V30 2172 C 211.945 1.5244 2.7337 0
M  V30 2173 C 212.42 2.43548 3.87877 0
M  V30 2174 N 213.911 2.41589 3.95208 0
M  V30 2175 C 214.646 3.08789 4.83153 0
M  V30 2176 N 214.142 3.85265 5.75798 0
M  V30 2177 N 215.935 2.97952 4.76635 0
M  V30 2178 H 208.086 1.84207 1.05742 0
M  V30 2179 H 210.349 0.789251 0.525154 0
M  V30 2180 H 210.055 2.55865 2.41301 0
M  V30 2181 H 209.929 1.23899 3.56271 0
M  V30 2182 H 212.316 0.492518 2.90961 0
M  V30 2183 H 212.397 1.8451 1.77172 0
M  V30 2184 H 212.041 3.46829 3.71041 0
M  V30 2185 H 211.971 2.08788 4.83441 0
M  V30 2186 H 214.462 1.86025 3.28943 0
M  V30 2187 H 214.775 4.33598 6.39697 0
M  V30 2188 H 213.12 3.89371 5.75687 0
M  V30 2189 H 216.311 2.37723 4.03244 0
M  V30 2190 H 216.484 3.50599 5.44962 0
M  V30 2191 N 209.89 -1.43072 0.660911 0
M  V30 2192 C 211.12 -2.05769 0.185153 0
M  V30 2193 C 211.528 -1.49668 -1.15742 0
M  V30 2194 O 210.871 -0.625649 -1.72717 0
M  V30 2195 C 210.933 -3.59489 0.0278237 0
M  V30 2196 C 210.597 -4.38212 1.2969 0
M  V30 2197 C 211.594 -4.69772 2.22734 0
M  V30 2198 C 209.279 -4.7809 1.54063 0
M  V30 2199 C 211.273 -5.40129 3.38437 0
M  V30 2200 C 208.96 -5.4819 2.70058 0
M  V30 2201 C 209.958 -5.79132 3.62071 0
M  V30 2202 O 209.646 -6.47798 4.76039 0
M  V30 2203 H 209.378 -0.669873 0.0908086 0
M  V30 2204 H 211.932 -1.84436 0.90402 0
M  V30 2205 H 210.162 -3.79426 -0.746489 0
M  V30 2206 H 211.851 -4.03862 -0.406275 0
M  V30 2207 H 212.617 -4.39476 2.05149 0
M  V30 2208 H 208.496 -4.53408 0.833215 0
M  V30 2209 H 212.04 -5.64198 4.10277 0
M  V30 2210 H 207.937 -5.77902 2.87574 0
M  V30 2211 H 208.705 -6.66283 4.75404 0
M  V30 2212 N 211.368 -0.403325 -1.52352 0
M  V30 2213 C 212.616 0.174003 -2.0135 0
M  V30 2214 C 212.937 1.46139 -1.29106 0
M  V30 2215 O 212.207 1.91448 -0.415253 0
M  V30 2216 H 210.787 0.0672911 -0.743963 0
M  V30 2217 H 213.449 -0.538235 -1.87321 0
M  V30 2218 H 212.545 0.374254 -3.09848 0
M  V30 2219 N 212.846 1.57033 -0.133567 0
M  V30 2220 C 213.776 2.1909 0.807567 0
M  V30 2221 C 214.757 1.13517 1.26681 0
M  V30 2222 O 215.942 1.41809 1.32679 0
M  V30 2223 C 213.072 2.80188 2.05212 0
M  V30 2224 C 212.026 3.91471 1.73015 0
M  V30 2225 C 211.352 4.39443 3.04622 0
M  V30 2226 C 212.652 5.12886 0.987168 0
M  V30 2227 H 214.346 2.97988 0.290403 0
M  V30 2228 H 211.892 1.43335 0.138239 0
M  V30 2229 H 213.845 3.22264 2.71521 0
M  V30 2230 H 212.569 1.98601 2.59278 0
M  V30 2231 H 211.228 3.49993 1.0909 0
M  V30 2232 H 210.876 3.54695 3.56651 0
M  V30 2233 H 210.576 5.14495 2.83847 0
M  V30 2234 H 212.1 4.8418 3.72024 0
M  V30 2235 H 213.514 5.51891 1.55208 0
M  V30 2236 H 211.911 5.93615 0.87985 0
M  V30 2237 H 212.981 4.84894 -0.0235286 0
M  V30 2238 N 214.325 -0.140222 1.56975 0
M  V30 2239 C 215.273 -1.19207 1.99731 0
M  V30 2240 C 216.267 -1.44089 0.890777 0
M  V30 2241 O 217.473 -1.44301 1.07597 0
M  V30 2242 H 213.848 -0.40142 0.635898 0
M  V30 2243 H 215.819 -0.804813 2.87342 0
M  V30 2244 C 214.568 -2.51617 2.39967 0
M  V30 2245 H 213.891 -2.33303 3.24669 0
M  V30 2246 H 215.331 -3.23827 2.73701 0
M  V30 2247 C 213.79 -3.12654 1.25496 0
M  V30 2248 O 214.32 -3.97786 0.559371 0
M  V30 2249 N 212.526 -2.72206 1.01746 0
M  V30 2250 H 212.073 -2.03074 1.58489 0
M  V30 2251 H 212.031 -3.13377 0.253461 0
M  V30 2252 N 215.803 -1.52179 -0.40978 0
M  V30 2253 C 217.028 -1.70347 -1.18308 0
M  V30 2254 C 217.453 -0.411887 -1.83535 0
M  V30 2255 O 216.811 0.630587 -1.6998 0
M  V30 2256 C 216.859 -2.83977 -2.22238 0
M  V30 2257 O 215.963 -2.495 -3.28365 0
M  V30 2258 H 215.304 -0.567103 -0.345384 0
M  V30 2259 H 217.834 -1.98879 -0.480445 0
M  V30 2260 H 217.844 -3.0887 -2.66577 0
M  V30 2261 H 216.519 -3.77685 -1.74146 0
M  V30 2262 H 215.096 -2.35277 -2.89308 0
M  V30 2263 N 217.281 0.66697 -1.42791 0
M  V30 2264 C 218.529 1.42417 -1.43394 0
M  V30 2265 C 218.85 1.94925 -0.0542373 0
M  V30 2266 O 218.12 1.73564 0.908415 0
M  V30 2267 H 216.7 0.528515 -0.527902 0
M  V30 2268 H 219.362 0.787562 -1.78279 0
M  V30 2269 H 218.458 2.27333 -2.13837 0
M  V30 2270 N 218.759 1.29093 0.90403 0
M  V30 2271 C 220.007 1.16583 1.65085 0
M  V30 2272 C 220.328 -0.283933 1.92922 0
M  V30 2273 O 219.598 -1.19509 1.55224 0
M  V30 2274 H 218.178 0.428467 0.611903 0
M  V30 2275 H 220.84 1.61959 1.08422 0
M  V30 2276 H 219.936 1.71266 2.6091 0
M  V30 2277 N 220.237 -1.11381 1.11499 0
M  V30 2278 C 221.147 -2.21019 0.786628 0
M  V30 2279 C 222.163 -1.72597 -0.220507 0
M  V30 2280 O 223.339 -2.01321 -0.0565251 0
M  V30 2281 C 220.404 -3.459 0.235333 0
M  V30 2282 C 219.465 -4.09107 1.30115 0
M  V30 2283 C 218.698 -5.28027 0.776068 0
M  V30 2284 O 218.921 -5.6904 -0.393661 0
M  V30 2285 O 217.855 -5.81835 1.54114 0
M  V30 2286 H 221.681 -2.51521 1.70209 0
M  V30 2287 H 219.266 -1.19928 0.890928 0
M  V30 2288 H 221.148 -4.21346 -0.067715 0
M  V30 2289 H 219.823 -3.17049 -0.652828 0
M  V30 2290 H 218.73 -3.35391 1.65722 0
M  V30 2291 H 220.063 -4.42139 2.16273 0
M  V30 2292 N 221.715 -0.905404 -1.28997 0
M  V30 2293 C 223.126 -0.581953 -1.77398 0
M  V30 2294 C 223.477 0.902552 -1.74208 0
M  V30 2295 O 222.602 1.70584 -1.33154 0
M  V30 2296 C 223.197 -1.04961 -3.22131 0
M  V30 2297 C 221.756 -0.777229 -3.68288 0
M  V30 2298 C 220.903 -1.22109 -2.48967 0
M  V30 2299 H 223.854 -1.08754 -1.15578 0
M  V30 2300 H 223.875 -0.387387 -3.78523 0
M  V30 2301 H 223.387 -2.13008 -3.24421 0
M  V30 2302 H 221.488 0.290383 -3.71467 0
M  V30 2303 H 221.601 -1.37911 -4.58822 0
M  V30 2304 H 219.965 -0.639971 -2.46529 0
M  V30 2305 H 220.748 -2.30972 -2.53982 0
M  V30 2306 N 223.193 1.4272 -0.668489 0
M  V30 2307 C 224.421 2.05966 -0.196348 0
M  V30 2308 C 224.836 1.50191 1.14403 0
M  V30 2309 O 224.193 0.639208 1.7094 0
M  V30 2310 C 224.244 3.61314 -0.115815 0
M  V30 2311 O 223.965 4.1502 -1.40322 0
M  V30 2312 C 225.466 4.41663 0.380579 0
M  V30 2313 H 222.686 0.663954 -0.0969829 0
M  V30 2314 H 225.23 1.82966 -0.913446 0
M  V30 2315 H 223.385 3.83448 0.551931 0
M  V30 2316 H 223.799 5.08832 -1.27243 0
M  V30 2317 H 225.273 5.5065 0.385848 0
M  V30 2318 H 225.75 4.15792 1.41471 0
M  V30 2319 H 226.356 4.24534 -0.255209 0
M  V30 2320 N 224.671 0.411399 1.52136 0
M  V30 2321 C 225.603 -0.448386 2.24771 0
M  V30 2322 C 226.616 -1.00828 1.27818 0
M  V30 2323 O 227.805 -0.906841 1.53749 0
M  V30 2324 C 224.905 -1.63636 2.96777 0
M  V30 2325 C 224.078 -1.19995 4.20618 0
M  V30 2326 C 223.137 -2.25509 4.75428 0
M  V30 2327 O 222.163 -1.86007 5.3795 0
M  V30 2328 N 223.365 -3.577 4.57199 0
M  V30 2329 H 226.13 0.174025 2.99194 0
M  V30 2330 H 223.691 0.238897 1.60128 0
M  V30 2331 H 225.683 -2.33793 3.30338 0
M  V30 2332 H 224.253 -2.16465 2.25526 0
M  V30 2333 H 223.473 -0.326421 3.92846 0
M  V30 2334 H 224.761 -0.885365 5.01038 0
M  V30 2335 H 224.159 -3.92543 4.07341 0
M  V30 2336 H 222.716 -4.23827 4.95191 0
M  V30 2337 N 226.149 -1.5696 0.141893 0
M  V30 2338 C 227.397 -1.95573 -0.509484 0
M  V30 2339 C 227.718 -1.02746 -1.65736 0
M  V30 2340 O 226.988 -0.0880311 -1.95702 0
M  V30 2341 H 225.568 -0.722115 -0.191205 0
M  V30 2342 H 228.23 -1.93697 0.216196 0
M  V30 2343 H 227.326 -2.99171 -0.889 0
M  V30 2344 N 227.627 0.131896 -1.57047 0
M  V30 2345 C 228.59 1.14638 -1.98471 0
M  V30 2346 C 229.59 1.35029 -0.873148 0
M  V30 2347 O 230.78 1.31764 -1.13946 0
M  V30 2348 C 227.912 2.50358 -2.31373 0
M  V30 2349 H 229.105 0.79064 -2.8929 0
M  V30 2350 H 226.658 0.375761 -1.51716 0
M  V30 2351 H 227.393 2.90876 -1.43393 0
M  V30 2352 H 227.178 2.36915 -3.12432 0
M  V30 2353 H 228.668 3.23395 -2.64207 0
M  V30 2354 N 229.106 1.52395 0.401703 0
M  V30 2355 C 230.354 1.66488 1.14569 0
M  V30 2356 C 230.675 0.400897 1.90835 0
M  V30 2357 O 229.945 -0.584415 1.8698 0
M  V30 2358 H 228.525 0.613672 0.425929 0
M  V30 2359 H 231.187 1.89464 0.457093 0
M  V30 2360 H 230.283 2.50942 1.85566 0
M  V30 2361 N 230.584 -0.659388 1.43143 0
M  V30 2362 C 231.547 -1.75432 1.47501 0
M  V30 2363 C 232.547 -1.56707 0.360512 0
M  V30 2364 O 233.737 -1.62717 0.622002 0
M  V30 2365 C 230.869 -3.14239 1.32162 0
M  V30 2366 H 232.062 -1.7295 2.45006 0
M  V30 2367 H 229.615 -0.870469 1.29817 0
M  V30 2368 H 230.35 -3.22336 0.356401 0
M  V30 2369 H 230.135 -3.29235 2.12948 0
M  V30 2370 H 231.625 -3.94094 1.3813 0
M  V30 2371 N 232.062 -1.29571 -0.897171 0
M  V30 2372 C 233.308 -1.17863 -1.65034 0
M  V30 2373 C 233.641 0.268729 -1.92332 0
M  V30 2374 O 232.916 1.19378 -1.53555 0
M  V30 2375 C 233.199 -1.995 -2.99786 0
M  V30 2376 C 233.052 -3.5239 -2.79538 0
M  V30 2377 C 234.371 -1.82335 -4.00552 0
M  V30 2378 H 231.49 -0.429528 -0.598895 0
M  V30 2379 H 234.132 -1.59072 -1.03905 0
M  V30 2380 H 232.282 -1.64485 -3.51962 0
M  V30 2381 H 233.954 -3.97401 -2.34244 0
M  V30 2382 H 232.197 -3.77187 -2.14273 0
M  V30 2383 H 232.868 -4.04787 -3.75302 0
M  V30 2384 H 235.344 -2.12924 -3.57495 0
M  V30 2385 H 234.22 -2.41801 -4.92771 0
M  V30 2386 H 234.481 -0.779209 -4.35179 0
M  V30 2387 N 233.54 1.10788 -1.12088 0
M  V30 2388 C 234.503 2.15207 -0.788577 0
M  V30 2389 C 235.503 1.59609 0.195317 0
M  V30 2390 O 236.693 1.74174 -0.0300193 0
M  V30 2391 C 233.825 3.4047 -0.171174 0
M  V30 2392 H 235.018 2.46116 -1.71368 0
M  V30 2393 H 232.571 1.26089 -0.923652 0
M  V30 2394 H 233.306 3.15176 0.763832 0
M  V30 2395 H 233.091 3.82109 -0.879514 0
M  V30 2396 H 234.581 4.17576 0.04496 0
M  V30 2397 N 235.018 0.912232 1.28515 0
M  V30 2398 C 235.951 0.343928 2.25593 0
M  V30 2399 C 236.929 -0.550994 1.5298 0
M  V30 2400 O 238.113 -0.494991 1.81885 0
M  V30 2401 C 235.24 -0.508525 3.34861 0
M  V30 2402 C 234.286 0.320808 4.25292 0
M  V30 2403 S 235.119 1.72658 5.06902 0
M  V30 2404 C 236.275 0.881394 6.19663 0
M  V30 2405 H 236.508 1.16674 2.73449 0
M  V30 2406 H 234.041 0.713384 1.36931 0
M  V30 2407 H 235.999 -0.994539 3.9827 0
M  V30 2408 H 234.66 -1.30571 2.85675 0
M  V30 2409 H 233.853 -0.330941 5.02912 0
M  V30 2410 H 233.455 0.74042 3.66598 0
M  V30 2411 H 235.747 0.110359 6.7741 0
M  V30 2412 H 236.69 1.63009 6.89082 0
M  V30 2413 H 237.098 0.430239 5.62858 0
M  V30 2414 N 236.496 -1.42363 0.676048 0
M  V30 2415 C 237.742 -2.0182 0.199125 0
M  V30 2416 C 238.075 -1.53339 -1.19168 0
M  V30 2417 O 237.35 -0.736124 -1.80032 0
M  V30 2418 C 237.633 -3.59331 0.235144 0
M  V30 2419 C 237.486 -4.17989 1.66149 0
M  V30 2420 C 238.805 -4.3813 -0.41595 0
M  V30 2421 H 235.924 -0.733293 0.0738311 0
M  V30 2422 H 238.566 -1.69368 0.86107 0
M  V30 2423 H 236.716 -3.87109 -0.328487 0
M  V30 2424 H 238.388 -4.0116 2.27747 0
M  V30 2425 H 236.631 -3.7377 2.20178 0
M  V30 2426 H 237.302 -5.27126 1.63837 0
M  V30 2427 H 239.778 -4.16051 0.0638529 0
M  V30 2428 H 238.654 -5.47717 -0.360115 0
M  V30 2429 H 238.915 -4.16101 -1.49373 0
M  V30 2430 N 237.974 -0.419461 -1.51915 0
M  V30 2431 C 239.223 0.154346 -2.01109 0
M  V30 2432 C 239.536 1.45338 -1.30905 0
M  V30 2433 O 240.742 2.10906 -1.7097 0
M  V30 2434 C 239.198 0.325615 -3.58424 0
M  V30 2435 C 238.806 -0.961934 -4.37551 0
M  V30 2436 C 240.55 0.854155 -4.15818 0
M  V30 2437 C 238.457 -0.757287 -5.86531 0
M  V30 2438 H 237.387 0.0614563 -0.751491 0
M  V30 2439 H 240.038 -0.54649 -1.75173 0
M  V30 2440 H 238.42 1.08903 -3.80731 0
M  V30 2441 H 239.594 -1.7323 -4.26999 0
M  V30 2442 H 237.909 -1.41766 -3.91524 0
M  V30 2443 H 240.506 1.02346 -5.24814 0
M  V30 2444 H 240.849 1.83172 -3.73837 0
M  V30 2445 H 241.382 0.149528 -3.97519 0
M  V30 2446 H 238.121 -1.70671 -6.32892 0
M  V30 2447 H 237.641 -0.0264061 -5.99794 0
M  V30 2448 H 239.32 -0.403482 -6.45741 0
M  V30 2449 N 239.452 1.56882 -0.150215 0
M  V30 2450 C 240.415 2.1573 0.774157 0
M  V30 2451 C 241.415 1.0999 1.17298 0
M  V30 2452 O 242.605 1.35613 1.09338 0
M  V30 2453 C 239.737 2.72302 2.05096 0
M  V30 2454 H 240.93 2.98752 0.262201 0
M  V30 2455 H 238.483 1.55985 0.099248 0
M  V30 2456 H 239.218 1.92956 2.6065 0
M  V30 2457 H 239.003 3.49665 1.77416 0
M  V30 2458 H 240.493 3.17632 2.71109 0
M  V30 2459 N 240.93 -0.123565 1.57115 0
M  V30 2460 C 241.88 -1.1575 1.96433 0
M  V30 2461 C 242.864 -1.37313 0.838686 0
M  V30 2462 O 244.056 -1.38482 1.10235 0
M  V30 2463 C 241.185 -2.48526 2.36833 0
M  V30 2464 C 240.271 -2.30457 3.5602 0
M  V30 2465 N 240.662 -1.8219 4.71848 0
M  V30 2466 C 238.96 -2.61129 3.61563 0
M  V30 2467 C 239.661 -1.77721 5.53886 0
M  V30 2468 N 238.637 -2.21899 4.96248 0
M  V30 2469 H 242.439 -0.776797 2.83449 0
M  V30 2470 H 239.953 -0.331364 1.58983 0
M  V30 2471 H 241.95 -3.233 2.63216 0
M  V30 2472 H 240.61 -2.87358 1.5118 0
M  V30 2473 H 241.621 -1.51805 4.95152 0
M  V30 2474 H 238.298 -3.03678 2.86507 0
M  V30 2475 H 239.688 -1.41697 6.56789 0
M  V30 2476 N 242.408 -1.52605 -0.393616 0
M  V30 2477 C 243.356 -1.77688 -1.50099 0
M  V30 2478 C 244.35 -0.644615 -1.56656 0
M  V30 2479 O 245.556 -0.826997 -1.59877 0
M  V30 2480 H 241.931 -0.562159 -0.499481 0
M  V30 2481 H 243.902 -2.7043 -1.26135 0
M  V30 2482 C 242.651 -1.95858 -2.87289 0
M  V30 2483 H 241.974 -2.8241 -2.82992 0
M  V30 2484 H 243.414 -2.174 -3.64024 0
M  V30 2485 C 241.873 -0.729848 -3.28899 0
M  V30 2486 O 242.403 0.0949217 -4.01588 0
M  V30 2487 N 240.609 -0.561283 -2.85128 0
M  V30 2488 H 240.156 -1.23357 -2.26143 0
M  V30 2489 H 240.114 0.2595 -3.13327 0
M  V30 2490 N 243.887 0.651787 -1.4349 0
M  V30 2491 C 245.298 1.233 -1.40193 0
M  V30 2492 C 245.649 1.9591 -0.106727 0
M  V30 2493 O 244.774 2.01316 0.793773 0
M  V30 2494 C 245.369 2.24257 -2.53957 0
M  V30 2495 C 243.928 2.77852 -2.5392 0
M  V30 2496 C 243.075 1.52517 -2.3159 0
M  V30 2497 H 246.026 0.443717 -1.52371 0
M  V30 2498 H 246.047 3.0646 -2.25528 0
M  V30 2499 H 245.559 1.71382 -3.4821 0
M  V30 2500 H 243.66 3.34786 -1.63551 0
M  V30 2501 H 243.773 3.25299 -3.51735 0
M  V30 2502 H 242.137 1.79915 -1.80285 0
M  V30 2503 H 242.92 1.01574 -3.27929 0
M  V30 2504 N 245.365 1.30045 0.890287 0
M  V30 2505 C 246.59 1.21598 1.68014 0
M  V30 2506 C 247.015 -0.218678 1.86825 0
M  V30 2507 O 246.373 -1.15756 1.39536 0
M  V30 2508 C 246.421 1.94434 3.03691 0
M  V30 2509 O 245.525 1.2678 3.92429 0
M  V30 2510 H 244.866 0.420856 0.513592 0
M  V30 2511 H 247.396 1.71775 1.11151 0
M  V30 2512 H 247.406 2.03251 3.5377 0
M  V30 2513 H 246.081 2.98777 2.89318 0
M  V30 2514 H 244.658 1.26282 3.50866 0
M  V30 2515 N 246.843 -1.10192 1.12674 0
M  V30 2516 C 248.092 -1.81573 0.8783 0
M  V30 2517 C 248.405 -1.86249 -0.597557 0
M  V30 2518 O 249.611 -2.5386 -0.962681 0
M  V30 2519 C 248.067 -3.26149 1.52167 0
M  V30 2520 C 247.675 -3.29763 3.03249 0
M  V30 2521 C 249.419 -4.0234 1.3536 0
M  V30 2522 C 247.326 -4.68815 3.60508 0
M  V30 2523 H 246.256 -0.680394 0.324931 0
M  V30 2524 H 248.907 -1.23902 1.35353 0
M  V30 2525 H 247.289 -3.83832 0.974104 0
M  V30 2526 H 248.463 -2.8189 3.6452 0
M  V30 2527 H 246.778 -2.67059 3.19481 0
M  V30 2528 H 249.375 -5.05058 1.75559 0
M  V30 2529 H 249.718 -4.15235 0.297554 0
M  V30 2530 H 250.251 -3.51079 1.87052 0
M  V30 2531 H 246.99 -4.61121 4.65884 0
M  V30 2532 H 246.51 -5.17045 3.04014 0
M  V30 2533 H 248.189 -5.37785 3.59717 0
M  V30 2534 N 248.321 -0.919034 -1.28029 0
M  V30 2535 C 249.251 -0.428581 -2.29533 0
M  V30 2536 C 250.232 0.50659 -1.62381 0
M  V30 2537 O 251.417 0.413195 -1.89753 0
M  V30 2538 C 248.547 0.327388 -3.45753 0
M  V30 2539 C 247.501 -0.519137 -4.2484 0
M  V30 2540 C 246.827 0.365486 -5.33449 0
M  V30 2541 C 248.127 -1.77914 -4.91064 0
M  V30 2542 H 249.821 -1.27687 -2.70807 0
M  V30 2543 H 247.367 -0.615428 -1.30186 0
M  V30 2544 H 249.32 0.681378 -4.15855 0
M  V30 2545 H 248.044 1.20963 -3.03374 0
M  V30 2546 H 246.703 -0.855717 -3.56473 0
M  V30 2547 H 246.351 1.24642 -4.87312 0
M  V30 2548 H 246.051 -0.197356 -5.87268 0
M  V30 2549 H 247.575 0.715241 -6.06396 0
M  V30 2550 H 248.989 -1.49374 -5.53498 0
M  V30 2551 H 247.386 -2.2848 -5.54903 0
M  V30 2552 H 248.456 -2.50382 -4.15255 0
M  V30 2553 N 249.799 1.42003 -0.683588 0
M  V30 2554 C 250.762 2.29191 -0.0198243 0
M  V30 2555 C 251.762 1.43773 0.72013 0
M  V30 2556 O 252.952 1.65061 0.556815 0
M  V30 2557 C 250.084 3.26435 0.982487 0
M  V30 2558 H 251.277 2.8938 -0.787345 0
M  V30 2559 H 248.83 1.49789 -0.446418 0
M  V30 2560 H 249.565 2.71203 1.77819 0
M  V30 2561 H 249.35 3.89449 0.455182 0
M  V30 2562 H 250.84 3.918 1.44508 0
M  V30 2563 N 251.277 0.427512 1.51691 0
M  V30 2564 C 252.207 -0.3796 2.30394 0
M  V30 2565 C 253.188 -1.02982 1.35384 0
M  V30 2566 O 254.373 -1.03534 1.643 0
M  V30 2567 C 251.503 -1.48649 3.1388 0
M  V30 2568 C 250.457 -0.960294 4.17088 0
M  V30 2569 C 249.783 -2.16219 4.89033 0
M  V30 2570 C 251.083 -0.00153679 5.223 0
M  V30 2571 H 252.777 0.277164 2.98114 0
M  V30 2572 H 250.323 0.134739 1.43368 0
M  V30 2573 H 252.276 -2.05826 3.67714 0
M  V30 2574 H 251 -2.1714 2.43962 0
M  V30 2575 H 249.659 -0.410806 3.64291 0
M  V30 2576 H 249.307 -2.83307 4.15628 0
M  V30 2577 H 249.007 -1.81654 5.58816 0
M  V30 2578 H 250.531 -2.73968 5.45687 0
M  V30 2579 H 251.945 -0.482687 5.71264 0
M  V30 2580 H 250.342 0.256199 5.99553 0
M  V30 2581 H 251.412 0.938174 4.75738 0
M  V30 2582 N 252.755 -1.56801 0.158532 0
M  V30 2583 C 253.703 -2.18638 -0.793729 0
M  V30 2584 C 254.697 -1.14669 -1.24689 0
M  V30 2585 O 255.903 -1.32895 -1.21403 0
M  V30 2586 H 252.278 -0.700226 -0.274204 0
M  V30 2587 H 254.249 -2.97367 -0.248095 0
M  V30 2588 C 252.998 -2.83139 -2.0181 0
M  V30 2589 H 252.321 -3.62863 -1.67841 0
M  V30 2590 H 253.761 -3.29894 -2.66357 0
M  V30 2591 C 252.22 -1.82244 -2.83353 0
M  V30 2592 O 252.75 -1.3 -3.80083 0
M  V30 2593 N 250.956 -1.51288 -2.48114 0
M  V30 2594 H 250.503 -1.93964 -1.69516 0
M  V30 2595 H 250.461 -0.840296 -3.02963 0
M  V30 2596 N 254.233 0.115231 -1.57178 0
M  V30 2597 C 255.143 1.15994 -2.03918 0
M  V30 2598 C 256.159 1.45103 -0.960268 0
M  V30 2599 O 257.335 1.56144 -1.27204 0
M  V30 2600 C 254.4 2.46568 -2.43732 0
M  V30 2601 C 253.461 2.24822 -3.65723 0
M  V30 2602 C 252.694 3.4917 -4.03629 0
M  V30 2603 O 252.917 4.56623 -3.41835 0
M  V30 2604 O 251.851 3.39949 -4.96708 0
M  V30 2605 H 255.677 0.793019 -2.93164 0
M  V30 2606 H 253.262 0.3263 -1.45793 0
M  V30 2607 H 255.144 3.23492 -2.70057 0
M  V30 2608 H 253.819 2.82726 -1.57631 0
M  V30 2609 H 252.726 1.45744 -3.44542 0
M  V30 2610 H 254.059 1.93566 -4.52541 0
M  V30 2611 N 255.711 1.52812 0.385517 0
M  V30 2612 C 256.988 1.5861 1.14465 0
M  V30 2613 C 257.368 0.381402 2.07626 0
M  V30 2614 O 256.716 -0.629999 2.19643 0
M  V30 2615 C 256.926 2.92664 1.90128 0
M  V30 2616 C 258.274 3.46526 2.45367 0
M  V30 2617 O 259.298 2.94562 2.0028 0
M  V30 2618 O 258.157 4.37323 3.27736 0
M  V30 2619 H 255.251 0.639855 0.523941 0
M  V30 2620 H 257.797 1.65149 0.390389 0
M  V30 2621 H 256.569 3.71788 1.22022 0
M  V30 2622 H 256.192 2.89527 2.72507 0
M  V30 2623 N 257.189 -0.644168 1.43834 0
M  V30 2624 C 258.152 -1.73857 1.49353 0
M  V30 2625 C 259.152 -1.56315 0.377112 0
M  V30 2626 O 260.342 -1.62048 0.639226 0
M  V30 2627 C 257.474 -3.12819 1.35488 0
M  V30 2628 H 258.667 -1.70342 2.46827 0
M  V30 2629 H 256.22 -0.856652 1.30733 0
M  V30 2630 H 256.955 -3.2194 0.390569 0
M  V30 2631 H 256.74 -3.26958 2.16428 0
M  V30 2632 H 258.23 -3.92606 1.42302 0
M  V30 2633 N 258.668 -1.30515 -0.883378 0
M  V30 2634 C 259.914 -1.19607 -1.63774 0
M  V30 2635 C 260.247 0.248314 -1.92606 0
M  V30 2636 O 259.522 1.17742 -1.54813 0
M  V30 2637 C 259.805 -2.02669 -2.97653 0
M  V30 2638 C 259.658 -3.55335 -2.75784 0
M  V30 2639 C 260.977 -1.86573 -3.98596 0
M  V30 2640 H 258.096 -0.435856 -0.594305 0
M  V30 2641 H 260.738 -1.60165 -1.02212 0
M  V30 2642 H 258.888 -1.68208 -3.50197 0
M  V30 2643 H 260.56 -3.99863 -2.30016 0
M  V30 2644 H 258.803 -3.79438 -2.1026 0
M  V30 2645 H 259.474 -4.08745 -3.70988 0
M  V30 2646 H 261.95 -2.16703 -3.55217 0
M  V30 2647 H 260.826 -2.47014 -4.90179 0
M  V30 2648 H 261.087 -0.825321 -4.34328 0
M  V30 2649 N 260.146 1.09593 -1.13257 0
M  V30 2650 C 261.109 2.14359 -0.811358 0
M  V30 2651 C 262.109 1.59808 0.178377 0
M  V30 2652 O 263.299 1.74132 -0.0484911 0
M  V30 2653 C 260.431 3.40269 -0.207276 0
M  V30 2654 H 261.624 2.44284 -1.73969 0
M  V30 2655 H 259.177 1.25102 -0.936973 0
M  V30 2656 H 259.912 3.15969 0.73036 0
M  V30 2657 H 259.697 3.81154 -0.919992 0
M  V30 2658 H 261.187 4.176 0.000667944 0
M  V30 2659 N 261.624 0.925811 1.2754 0
M  V30 2660 C 262.854 0.580666 1.98272 0
M  V30 2661 C 263.262 -0.845207 1.69272 0
M  V30 2662 O 262.605 -1.57306 0.948707 0
M  V30 2663 C 262.667 0.724418 3.52126 0
M  V30 2664 C 262.331 2.12206 4.04744 0
M  V30 2665 C 263.328 3.09604 4.17662 0
M  V30 2666 C 261.013 2.4385 4.39138 0
M  V30 2667 C 263.007 4.36755 4.64246 0
M  V30 2668 C 260.694 3.71237 4.85414 0
M  V30 2669 C 261.692 4.67503 4.97926 0
M  V30 2670 O 261.38 5.92624 5.43187 0
M  V30 2671 H 261.112 0.218987 0.639547 0
M  V30 2672 H 263.666 1.24452 1.63404 0
M  V30 2673 H 261.896 0.0034663 3.867 0
M  V30 2674 H 263.585 0.384607 4.04074 0
M  V30 2675 H 264.351 2.86478 3.91351 0
M  V30 2676 H 260.23 1.69665 4.28643 0
M  V30 2677 H 263.774 5.11898 4.73927 0
M  V30 2678 H 259.671 3.94182 5.11166 0
M  V30 2679 H 260.439 5.95585 5.61445 0
M  V30 2680 N 263.102 -1.41638 0.69111 0
M  V30 2681 C 264.33 -2.05628 0.22909 0
M  V30 2682 C 264.745 -1.51992 -1.11999 0
M  V30 2683 O 264.102 -0.666322 -1.69901 0
M  V30 2684 C 264.153 -3.61084 0.173283 0
M  V30 2685 O 263.874 -4.12735 1.46907 0
M  V30 2686 C 265.375 -4.42213 -0.310266 0
M  V30 2687 H 262.595 -0.662327 0.107534 0
M  V30 2688 H 265.139 -1.81489 0.942438 0
M  V30 2689 H 263.294 -3.84278 -0.490858 0
M  V30 2690 H 263.708 -5.06743 1.35322 0
M  V30 2691 H 265.182 -5.51194 -0.298196 0
M  V30 2692 H 265.659 -4.1799 -1.34838 0
M  V30 2693 H 266.265 -4.24074 0.322716 0
M  V30 2694 N 264.58 -0.43555 -1.51462 0
M  V30 2695 C 265.49 0.383001 -2.31453 0
M  V30 2696 C 266.506 1.02931 -1.4029 0
M  V30 2697 O 267.682 1.02507 -1.73362 0
M  V30 2698 C 264.747 1.47043 -3.13973 0
M  V30 2699 C 263.808 0.844433 -4.20913 0
M  V30 2700 C 263.041 1.88004 -4.9949 0
M  V30 2701 O 263.264 3.10199 -4.78678 0
M  V30 2702 O 262.198 1.47157 -5.83634 0
M  V30 2703 H 266.024 -0.269964 -3.02498 0
M  V30 2704 H 263.609 -0.19813 -1.4808 0
M  V30 2705 H 265.491 2.10113 -3.65281 0
M  V30 2706 H 264.166 2.10751 -2.45695 0
M  V30 2707 H 263.073 0.175729 -3.73687 0
M  V30 2708 H 264.406 0.250869 -4.9156 0
M  V30 2709 N 266.058 1.56714 -0.166846 0
M  V30 2710 C 267.335 1.88412 0.525373 0
M  V30 2711 C 267.715 1.07602 1.81618 0
M  V30 2712 O 267.063 0.168621 2.27877 0
M  V30 2713 C 267.273 3.40363 0.771613 0
M  V30 2714 C 268.621 4.10007 1.1036 0
M  V30 2715 O 269.645 3.45655 0.860304 0
M  V30 2716 O 268.504 5.2369 1.56239 0
M  V30 2717 H 265.598 0.781587 0.270278 0
M  V30 2718 H 268.144 1.68458 -0.204946 0
M  V30 2719 H 266.916 3.91046 -0.141093 0
M  V30 2720 H 266.539 3.65914 1.55541 0
M  V30 2721 N 267.536 -0.106894 1.57237 0
M  V30 2722 C 268.782 -0.81373 1.85759 0
M  V30 2723 C 269.115 -1.78952 0.754315 0
M  V30 2724 O 268.39 -1.93029 -0.23879 0
M  V30 2725 C 268.673 -1.55293 3.24894 0
M  V30 2726 C 268.526 -0.595929 4.45835 0
M  V30 2727 C 269.845 -2.5063 3.61763 0
M  V30 2728 H 266.964 -0.294369 0.67566 0
M  V30 2729 H 269.606 -0.0776472 1.89841 0
M  V30 2730 H 267.756 -2.1804 3.21544 0
M  V30 2731 H 269.428 0.0236262 4.61294 0
M  V30 2732 H 267.671 0.0916191 4.33703 0
M  V30 2733 H 268.342 -1.15004 5.39887 0
M  V30 2734 H 270.818 -1.97982 3.65981 0
M  V30 2735 H 269.694 -2.99376 4.60071 0
M  V30 2736 H 269.955 -3.3385 2.89821 0
M  V30 2737 N 269.014 -1.53014 -0.377408 0
M  V30 2738 C 270.244 -1.72265 -1.14054 0
M  V30 2739 C 270.652 -0.44601 -1.83868 0
M  V30 2740 O 269.995 0.590095 -1.73964 0
M  V30 2741 C 270.057 -2.82492 -2.22348 0
M  V30 2742 C 269.721 -4.23233 -1.72402 0
M  V30 2743 C 270.718 -5.05992 -1.19448 0
M  V30 2744 C 268.403 -4.696 -1.78273 0
M  V30 2745 C 270.397 -6.33203 -0.730268 0
M  V30 2746 C 268.084 -5.96792 -1.31464 0
M  V30 2747 C 269.082 -6.78424 -0.789297 0
M  V30 2748 O 268.77 -8.0323 -0.328077 0
M  V30 2749 H 268.502 -0.579873 -0.347453 0
M  V30 2750 H 271.056 -2.00502 -0.445882 0
M  V30 2751 H 269.286 -2.49702 -2.95272 0
M  V30 2752 H 270.975 -2.90034 -2.83963 0
M  V30 2753 H 271.741 -4.71349 -1.14259 0
M  V30 2754 H 267.62 -4.06142 -2.18106 0
M  V30 2755 H 271.164 -6.96868 -0.319542 0
M  V30 2756 H 267.061 -6.30937 -1.36342 0
M  V30 2757 H 267.829 -8.1727 -0.448493 0
M  V30 2758 N 270.492 0.636531 -1.44174 0
M  V30 2759 C 271.769 1.39463 -1.37148 0
M  V30 2760 C 272.149 2.11082 -0.027507 0
M  V30 2761 O 271.497 2.05954 0.989716 0
M  V30 2762 C 271.707 2.36552 -2.56601 0
M  V30 2763 C 273.055 3.00048 -3.00427 0
M  V30 2764 O 274.079 2.46878 -2.56767 0
M  V30 2765 O 272.938 3.96488 -3.76111 0
M  V30 2766 H 270.032 0.623903 -0.542839 0
M  V30 2767 H 272.578 0.662039 -1.56253 0
M  V30 2768 H 271.35 1.82692 -3.46034 0
M  V30 2769 H 270.973 3.17236 -2.39681 0
M  V30 2770 N 271.97 1.30982 0.876444 0
M  V30 2771 C 273.217 1.20296 1.62896 0
M  V30 2772 C 273.545 -0.240395 1.93009 0
M  V30 2773 O 272.8 -1.18733 1.55567 0
M  V30 2774 C 273.099 1.98572 2.9716 0
M  V30 2775 C 272.765 3.48125 2.86566 0
M  V30 2776 C 271.427 3.88905 2.83383 0
M  V30 2777 C 273.779 4.43322 2.74071 0
M  V30 2778 C 271.107 5.2316 2.65556 0
M  V30 2779 C 273.459 5.77695 2.57781 0
M  V30 2780 C 272.123 6.17704 2.52979 0
M  V30 2781 H 271.393 0.440193 0.59608 0
M  V30 2782 H 274.04 1.62177 1.01837 0
M  V30 2783 H 272.345 1.49352 3.62217 0
M  V30 2784 H 274.042 1.8769 3.54364 0
M  V30 2785 H 270.632 3.15723 2.89856 0
M  V30 2786 H 274.816 4.12752 2.75589 0
M  V30 2787 H 270.072 5.53241 2.60259 0
M  V30 2788 H 274.246 6.51091 2.47089 0
M  V30 2789 H 271.873 7.21678 2.38924 0
M  V30 2790 N 273.449 -1.08991 1.13837 0
M  V30 2791 C 274.695 -1.81699 0.91417 0
M  V30 2792 C 275.05 -1.84264 -0.553594 0
M  V30 2793 O 274.343 -1.30313 -1.4046 0
M  V30 2794 C 274.537 -3.27042 1.44147 0
M  V30 2795 C 274.366 -3.38637 2.95897 0
M  V30 2796 C 273.136 -3.50177 3.64286 0
M  V30 2797 C 275.334 -3.30791 3.93804 0
M  V30 2798 N 273.316 -3.50501 5.04006 0
M  V30 2799 C 274.687 -3.38037 5.19741 0
M  V30 2800 C 276.742 -3.14488 3.86007 0
M  V30 2801 C 275.445 -3.30659 6.38793 0
M  V30 2802 C 277.471 -3.08438 5.04599 0
M  V30 2803 C 276.833 -3.1628 6.29402 0
M  V30 2804 H 272.932 -0.678967 0.387979 0
M  V30 2805 H 275.516 -1.30224 1.4474 0
M  V30 2806 H 273.687 -3.76976 0.935091 0
M  V30 2807 H 275.419 -3.87785 1.1578 0
M  V30 2808 H 272.174 -3.53815 3.1482 0
M  V30 2809 H 272.598 -3.54236 5.76928 0
M  V30 2810 H 277.24 -3.07291 2.90399 0
M  V30 2811 H 274.958 -3.36618 7.34652 0
M  V30 2812 H 278.544 -2.96952 5.0031 0
M  V30 2813 H 277.424 -3.1162 7.19627 0
M  V30 2814 N 274.927 -0.932562 -1.27047 0
M  V30 2815 C 276.343 -0.633544 -1.46487 0
M  V30 2816 C 276.543 0.815746 -1.84249 0
M  V30 2817 O 275.599 1.59319 -1.95892 0
M  V30 2818 C 276.912 -1.58758 -2.55375 0
M  V30 2819 C 278.46 -1.59634 -2.69232 0
M  V30 2820 C 278.935 -2.53747 -3.81283 0
M  V30 2821 N 280.426 -2.51982 -3.88664 0
M  V30 2822 C 281.161 -3.21491 -4.74796 0
M  V30 2823 N 280.657 -4.00395 -5.65381 0
M  V30 2824 N 282.45 -3.10485 -4.68568 0
M  V30 2825 H 274.601 -1.86946 -1.00821 0
M  V30 2826 H 276.864 -0.802897 -0.504044 0
M  V30 2827 H 276.57 -2.62172 -2.34432 0
M  V30 2828 H 276.444 -1.33301 -3.52861 0
M  V30 2829 H 278.831 -0.569488 -2.89553 0
M  V30 2830 H 278.912 -1.89142 -1.72218 0
M  V30 2831 H 278.556 -3.56545 -3.61715 0
M  V30 2832 H 278.486 -2.21532 -4.77735 0
M  V30 2833 H 280.977 -1.94681 -3.23895 0
M  V30 2834 H 281.29 -4.50406 -6.27976 0
M  V30 2835 H 279.635 -4.04498 -5.65161 0
M  V30 2836 H 282.826 -2.48331 -3.96799 0
M  V30 2837 H 282.999 -3.64925 -5.35475 0
M  V30 2838 N 276.405 1.4127 -0.698611 0
M  V30 2839 C 277.816 1.84187 -0.305289 0
M  V30 2840 C 278.167 1.58449 1.15708 0
M  V30 2841 O 277.292 1.05651 1.88856 0
M  V30 2842 C 277.887 3.3435 -0.547314 0
M  V30 2843 C 276.446 3.75826 -0.207878 0
M  V30 2844 C 275.593 2.64647 -0.828099 0
M  V30 2845 H 278.544 1.30778 -0.89904 0
M  V30 2846 H 278.565 3.8001 0.192998 0
M  V30 2847 H 278.077 3.53051 -1.61172 0
M  V30 2848 H 276.178 3.62725 0.852143 0
M  V30 2849 H 276.291 4.74462 -0.665021 0
M  V30 2850 H 274.655 2.53395 -0.257458 0
M  V30 2851 H 275.438 2.86165 -1.89643 0
M  V30 2852 N 277.883 0.443576 1.51229 0
M  V30 2853 C 279.111 -0.11929 2.06556 0
M  V30 2854 C 279.526 -1.35921 1.31038 0
M  V30 2855 O 278.883 -1.78675 0.371704 0
M  V30 2856 C 278.934 -0.435228 3.5887 0
M  V30 2857 O 278.655 0.755486 4.31537 0
M  V30 2858 C 280.156 -1.04808 4.30732 0
M  V30 2859 H 277.376 -0.0051584 0.67098 0
M  V30 2860 H 279.92 0.624453 1.94733 0
M  V30 2861 H 278.075 -1.12887 3.70588 0
M  V30 2862 H 278.489 0.483491 5.22267 0
M  V30 2863 H 279.963 -1.2191 5.3837 0
M  V30 2864 H 280.44 -2.03081 3.89429 0
M  V30 2865 H 281.046 -0.393637 4.23474 0
M  V30 2866 N 279.361 -1.56624 0.175154 0
M  V30 2867 C 280.609 -1.96609 -0.467885 0
M  V30 2868 C 280.93 -1.06238 -1.63519 0
M  V30 2869 O 280.2 -0.129523 -1.95471 0
M  V30 2870 H 278.78 -0.726008 -0.175845 0
M  V30 2871 H 281.442 -1.93195 0.257234 0
M  V30 2872 H 280.538 -3.00989 -0.825342 0
M  V30 2873 N 280.839 0.0985539 -1.57292 0
M  V30 2874 C 281.789 1.1261 -1.9825 0
M  V30 2875 C 282.773 1.35961 -0.860426 0
M  V30 2876 O 283.965 1.36711 -1.12424 0
M  V30 2877 C 281.094 2.44727 -2.40757 0
M  V30 2878 C 280.18 2.24764 -3.59642 0
M  V30 2879 N 280.571 1.74661 -4.74687 0
M  V30 2880 C 278.869 2.55344 -3.65672 0
M  V30 2881 C 279.57 1.68887 -5.56644 0
M  V30 2882 N 278.546 2.13976 -4.99715 0
M  V30 2883 H 282.348 0.731604 -2.84648 0
M  V30 2884 H 279.862 0.306029 -1.59491 0
M  V30 2885 H 281.859 3.19072 -2.68326 0
M  V30 2886 H 280.519 2.84917 -1.55733 0
M  V30 2887 H 281.53 1.43908 -4.97505 0
M  V30 2888 H 278.207 2.99081 -2.91302 0
M  V30 2889 H 279.597 1.3123 -6.5896 0
M  V30 2890 N 282.317 1.53212 0.369288 0
M  V30 2891 C 283.264 1.79388 1.45219 0
M  V30 2892 C 284.234 0.638059 1.53356 0
M  V30 2893 O 285.419 0.879852 1.69302 0
M  V30 2894 C 282.559 1.98623 2.82211 0
M  V30 2895 C 281.672 3.26337 2.8307 0
M  V30 2896 C 280.807 3.35779 4.11614 0
M  V30 2897 C 279.846 4.5754 4.06601 0
M  V30 2898 N 278.983 4.64155 5.26787 0
M  V30 2899 H 283.823 2.71794 1.22198 0
M  V30 2900 H 281.36 1.34642 0.592444 0
M  V30 2901 H 283.318 2.07761 3.61789 0
M  V30 2902 H 281.948 1.09558 3.03639 0
M  V30 2903 H 281 3.26171 1.95747 0
M  V30 2904 H 282.312 4.15988 2.75237 0
M  V30 2905 H 281.466 3.44208 4.99606 0
M  V30 2906 H 280.205 2.44137 4.22195 0
M  V30 2907 H 279.21 4.49215 3.16996 0
M  V30 2908 H 280.435 5.50519 3.97625 0
M  V30 2909 H 278.381 3.75413 5.3796 0
M  V30 2910 H 278.298 5.47706 5.21109 0
M  V30 2911 H 279.566 4.76863 6.16621 0
M  V30 2912 N 283.795 -0.628877 1.44509 0
M  V30 2913 C 285.025 -1.41349 1.50678 0
M  V30 2914 C 285.433 -1.88745 0.131075 0
M  V30 2915 O 284.776 -1.61592 -0.87371 0
M  V30 2916 C 284.838 -2.66608 2.41165 0
M  V30 2917 C 284.502 -2.40993 3.88293 0
M  V30 2918 C 285.499 -2.0268 4.78766 0
M  V30 2919 C 283.184 -2.54563 4.33016 0
M  V30 2920 C 285.178 -1.78269 6.11963 0
M  V30 2921 C 282.865 -2.29766 5.6626 0
M  V30 2922 C 283.863 -1.91678 6.55552 0
M  V30 2923 O 283.551 -1.67158 7.86329 0
M  V30 2924 H 283.283 -0.439851 0.51333 0
M  V30 2925 H 285.837 -0.776084 1.90174 0
M  V30 2926 H 284.067 -3.32994 1.96601 0
M  V30 2927 H 285.756 -3.28615 2.38259 0
M  V30 2928 H 286.522 -1.91751 4.45485 0
M  V30 2929 H 282.401 -2.83179 3.63773 0
M  V30 2930 H 285.945 -1.48465 6.81619 0
M  V30 2931 H 281.842 -2.40306 5.99102 0
M  V30 2932 H 282.61 -1.81386 7.98149 0
M  V30 2933 N 285.273 -1.31445 -0.869486 0
M  V30 2934 C 286.684 -1.19042 -1.43826 0
M  V30 2935 C 287.035 0.202919 -1.95148 0
M  V30 2936 O 286.16 1.10071 -1.86315 0
M  V30 2937 C 286.755 -2.15499 -2.6143 0
M  V30 2938 C 285.314 -2.07028 -3.14351 0
M  V30 2939 C 284.461 -2.04701 -1.87063 0
M  V30 2940 H 287.412 -1.43489 -0.677984 0
M  V30 2941 H 287.433 -1.74488 -3.38134 0
M  V30 2942 H 286.945 -3.16899 -2.24046 0
M  V30 2943 H 285.046 -1.08825 -3.56354 0
M  V30 2944 H 285.159 -2.96157 -3.766 0
M  V30 2945 H 283.523 -1.49724 -2.06046 0
M  V30 2946 H 284.306 -3.07857 -1.51917 0
M  V30 2947 N 286.751 1.08385 -1.14413 0
M  V30 2948 C 287.681 2.17321 -0.854044 0
M  V30 2949 C 288.662 1.69024 0.191049 0
M  V30 2950 O 289.847 1.94141 0.0476779 0
M  V30 2951 C 286.977 3.45719 -0.330983 0
M  V30 2952 C 285.931 4.07409 -1.31155 0
M  V30 2953 C 285.257 5.30762 -0.64778 0
M  V30 2954 C 286.557 4.48665 -2.67388 0
M  V30 2955 H 288.251 2.41845 -1.76498 0
M  V30 2956 H 285.797 1.16233 -0.850051 0
M  V30 2957 H 287.75 4.21241 -0.115645 0
M  V30 2958 H 286.474 3.2075 0.615381 0
M  V30 2959 H 285.133 3.33919 -1.51306 0
M  V30 2960 H 284.781 5.02078 0.304398 0
M  V30 2961 H 284.481 5.72992 -1.30207 0
M  V30 2962 H 286.005 6.08998 -0.441972 0
M  V30 2963 H 287.419 5.15364 -2.51143 0
M  V30 2964 H 285.816 5.01814 -3.29093 0
M  V30 2965 H 286.886 3.60543 -3.24248 0
M  V30 2966 N 288.23 0.939286 1.26551 0
M  V30 2967 C 289.476 0.586715 1.94128 0
M  V30 2968 C 289.809 -0.8717 1.73537 0
M  V30 2969 O 289.084 -1.62339 1.07127 0
M  V30 2970 C 289.367 0.927497 3.4795 0
M  V30 2971 C 289.22 2.44052 3.77834 0
M  V30 2972 C 290.539 0.441569 4.37879 0
M  V30 2973 H 287.658 0.21463 0.705055 0
M  V30 2974 H 290.3 1.17316 1.49455 0
M  V30 2975 H 288.45 0.428431 3.8613 0
M  V30 2976 H 290.122 3.01216 3.4938 0
M  V30 2977 H 288.365 2.8848 3.23978 0
M  V30 2978 H 289.036 2.62947 4.85348 0
M  V30 2979 H 291.512 0.869448 4.06915 0
M  V30 2980 H 290.388 0.708856 5.44304 0
M  V30 2981 H 290.649 -0.658467 4.37169 0
M  V30 2982 N 289.708 -1.40897 0.706093 0
M  V30 2983 C 290.985 -1.94868 0.169099 0
M  V30 2984 C 291.365 -1.64485 -1.32318 0
M  V30 2985 O 290.713 -0.95744 -2.07474 0
M  V30 2986 C 290.923 -3.45798 0.471654 0
M  V30 2987 C 292.271 -4.22663 0.405127 0
M  V30 2988 O 293.295 -3.53865 0.407168 0
M  V30 2989 O 292.154 -5.45216 0.374383 0
M  V30 2990 H 289.248 -0.82673 0.0211352 0
M  V30 2991 H 291.794 -1.50558 0.782976 0
M  V30 2992 H 290.566 -3.61235 1.50416 0
M  V30 2993 H 290.189 -3.97225 -0.172666 0
M  V30 2994 N 291.186 -0.45159 -1.50991 0
M  V30 2995 C 292.434 0.109857 -2.01801 0
M  V30 2996 C 292.755 1.41958 -1.3369 0
M  V30 2997 O 292.025 1.9003 -0.475951 0
M  V30 2998 H 290.605 0.0435884 -0.745727 0
M  V30 2999 H 293.267 -0.597557 -1.85514 0
M  V30 3000 H 292.363 0.275489 -3.10882 0
M  V30 3001 N 292.664 1.56529 -0.183458 0
M  V30 3002 C 293.627 2.17324 0.728223 0
M  V30 3003 C 294.627 1.12453 1.14939 0
M  V30 3004 O 295.817 1.37902 1.06437 0
M  V30 3005 C 292.949 2.76591 1.99274 0
M  V30 3006 H 294.142 2.99241 0.198772 0
M  V30 3007 H 291.695 1.5616 0.0661391 0
M  V30 3008 H 292.43 1.98441 2.56499 0
M  V30 3009 H 292.215 3.5335 1.69959 0
M  V30 3010 H 293.705 3.23311 2.6431 0
M  V30 3011 N 294.142 -0.090211 1.57342 0
M  V30 3012 C 295.072 -1.10976 2.05443 0
M  V30 3013 C 296.053 -1.41482 0.944284 0
M  V30 3014 O 297.238 -1.51428 1.21586 0
M  V30 3015 C 294.368 -2.42831 2.48295 0
M  V30 3016 C 293.322 -2.26721 3.63018 0
M  V30 3017 C 292.648 -3.63796 3.91863 0
M  V30 3018 C 293.948 -1.7037 4.93732 0
M  V30 3019 H 295.642 -0.709564 2.9087 0
M  V30 3020 H 293.188 -0.339874 1.39932 0
M  V30 3021 H 295.141 -3.14431 2.80555 0
M  V30 3022 H 293.865 -2.84795 1.59873 0
M  V30 3023 H 292.524 -1.57565 3.31012 0
M  V30 3024 H 292.172 -4.03297 3.00601 0
M  V30 3025 H 291.872 -3.53861 4.69101 0
M  V30 3026 H 293.396 -4.36855 4.26603 0
M  V30 3027 H 294.81 -2.31816 5.24342 0
M  V30 3028 H 293.207 -1.71181 5.75167 0
M  V30 3029 H 294.277 -0.663542 4.80339 0
M  V30 3030 N 295.62 -1.53406 -0.361157 0
M  V30 3031 C 296.845 -1.74024 -1.12829 0
M  V30 3032 C 297.27 -0.470069 -1.82132 0
M  V30 3033 O 296.628 0.57619 -1.719 0
M  V30 3034 C 296.676 -2.90903 -2.13091 0
M  V30 3035 O 295.78 -2.59821 -3.20261 0
M  V30 3036 H 295.121 -0.577804 -0.327168 0
M  V30 3037 H 297.651 -2.00307 -0.41693 0
M  V30 3038 H 297.661 -3.17194 -2.56616 0
M  V30 3039 H 296.336 -3.83034 -1.62042 0
M  V30 3040 H 294.913 -2.44362 -2.81677 0
M  V30 3041 N 297.098 0.621204 -1.44841 0
M  V30 3042 C 298.045 1.73267 -1.5247 0
M  V30 3043 C 299.015 1.6189 -0.371611 0
M  V30 3044 O 300.2 1.81668 -0.58321 0
M  V30 3045 C 297.34 3.11545 -1.48438 0
M  V30 3046 C 296.453 3.33827 -2.74196 0
M  V30 3047 C 295.588 4.62133 -2.61929 0
M  V30 3048 C 294.627 4.77627 -3.82804 0
M  V30 3049 N 293.764 5.97219 -3.69153 0
M  V30 3050 H 298.604 1.66082 -2.47428 0
M  V30 3051 H 296.141 0.810026 -1.22788 0
M  V30 3052 H 298.099 3.91528 -1.4409 0
M  V30 3053 H 296.729 3.1772 -0.570402 0
M  V30 3054 H 295.781 2.47715 -2.88689 0
M  V30 3055 H 297.093 3.41153 -3.6389 0
M  V30 3056 H 296.247 5.50291 -2.5547 0
M  V30 3057 H 294.986 4.57182 -1.69811 0
M  V30 3058 H 293.991 3.87896 -3.89637 0
M  V30 3059 H 295.216 4.84385 -4.75971 0
M  V30 3060 H 293.162 5.93339 -2.79794 0
M  V30 3061 H 293.079 6.05644 -4.52472 0
M  V30 3062 H 294.347 6.87912 -3.66603 0
M  V30 3063 N 298.576 1.31904 0.862503 0
M  V30 3064 C 299.853 1.12644 1.59908 0
M  V30 3065 C 300.233 -0.316104 2.0872 0
M  V30 3066 O 299.581 -1.31145 1.87118 0
M  V30 3067 C 299.791 2.1472 2.7513 0
M  V30 3068 C 301.139 2.47637 3.44907 0
M  V30 3069 O 302.163 2.13205 2.85346 0
M  V30 3070 O 301.022 3.06632 4.52371 0
M  V30 3071 H 298.116 0.43416 0.703871 0
M  V30 3072 H 300.662 1.43408 0.907314 0
M  V30 3073 H 299.434 3.1172 2.3653 0
M  V30 3074 H 299.057 1.84905 3.51989 0
M  V30 3075 N 300.054 -1.07777 1.14986 0
M  V30 3076 C 301.017 -2.13041 0.845358 0
M  V30 3077 C 302.017 -1.60071 -0.152931 0
M  V30 3078 O 303.207 -1.74033 0.0761879 0
M  V30 3079 C 300.339 -3.39896 0.261383 0
M  V30 3080 H 301.532 -2.41485 1.77834 0
M  V30 3081 H 299.085 -1.23595 0.956757 0
M  V30 3082 H 299.82 -3.17091 -0.68 0
M  V30 3083 H 299.605 -3.79642 0.980514 0
M  V30 3084 H 301.095 -4.17548 0.0657687 0
M  V30 3085 N 301.532 -0.945985 -1.26051 0
M  V30 3086 C 302.762 -0.612136 -1.97323 0
M  V30 3087 C 303.17 0.818171 -1.70595 0
M  V30 3088 O 302.513 1.55777 -0.973613 0
M  V30 3089 C 302.575 -0.780347 -3.50929 0
M  V30 3090 C 302.239 -2.18619 -4.01317 0
M  V30 3091 C 303.236 -3.16209 -4.12683 0
M  V30 3092 C 300.921 -2.50805 -4.35203 0
M  V30 3093 C 302.915 -4.44085 -4.57238 0
M  V30 3094 C 300.602 -3.78912 -4.79446 0
M  V30 3095 C 301.6 -4.75365 -4.90425 0
M  V30 3096 O 301.288 -6.01191 -5.3369 0
M  V30 3097 H 301.02 -0.229134 -0.635982 0
M  V30 3098 H 303.574 -1.27036 -1.61404 0
M  V30 3099 H 301.804 -0.0649864 -3.86645 0
M  V30 3100 H 303.493 -0.448842 -4.03411 0
M  V30 3101 H 304.259 -2.92668 -3.86744 0
M  V30 3102 H 300.138 -1.76463 -4.2589 0
M  V30 3103 H 303.682 -5.19373 -4.65723 0
M  V30 3104 H 299.579 -4.02265 -5.0483 0
M  V30 3105 H 300.347 -6.04442 -5.51899 0
M  V30 3106 N 303.011 1.40521 -0.713556 0
M  V30 3107 C 304.26 2.00155 -0.249192 0
M  V30 3108 C 304.573 1.57224 1.16362 0
M  V30 3109 O 305.779 2.09542 1.72639 0
M  V30 3110 C 304.235 3.5773 -0.3946 0
M  V30 3111 C 303.843 4.09635 -1.81392 0
M  V30 3112 C 305.587 4.24499 0.00907364 0
M  V30 3113 C 303.494 5.59707 -1.91003 0
M  V30 3114 H 302.424 0.74868 -0.0894114 0
M  V30 3115 H 305.075 1.60784 -0.884352 0
M  V30 3116 H 303.457 3.94792 0.30911 0
M  V30 3117 H 304.631 3.83955 -2.54785 0
M  V30 3118 H 302.946 3.55456 -2.16888 0
M  V30 3119 H 305.543 5.34683 -0.0420404 0
M  V30 3120 H 305.886 4.02824 1.05065 0
M  V30 3121 H 306.419 3.92536 -0.645007 0
M  V30 3122 H 303.158 5.86234 -2.93275 0
M  V30 3123 H 302.678 5.87258 -1.22019 0
M  V30 3124 H 304.357 6.24776 -1.6812 0
M  V30 3125 N 304.489 0.459591 1.5075 0
M  V30 3126 C 305.905 0.113092 1.59199 0
M  V30 3127 C 306.105 -1.37951 1.46874 0
M  V30 3128 O 305.161 -2.15168 1.32132 0
M  V30 3129 C 306.474 0.653043 2.93523 0
M  V30 3130 C 308.022 0.615449 3.0689 0
M  V30 3131 C 308.497 1.13275 4.43771 0
M  V30 3132 N 309.988 1.09167 4.50152 0
M  V30 3133 C 310.723 1.46256 5.54434 0
M  V30 3134 N 310.219 1.90739 6.66026 0
M  V30 3135 N 312.012 1.37932 5.44914 0
M  V30 3136 H 304.163 1.43049 1.57005 0
M  V30 3137 H 306.426 0.590861 0.741341 0
M  V30 3138 H 306.132 1.69822 3.07983 0
M  V30 3139 H 306.006 0.0902132 3.77092 0
M  V30 3140 H 308.393 -0.420793 2.92084 0
M  V30 3141 H 308.474 1.21495 2.25106 0
M  V30 3142 H 308.118 2.16757 4.59324 0
M  V30 3143 H 308.048 0.509576 5.24129 0
M  V30 3144 H 310.539 0.76528 3.7007 0
M  V30 3145 H 310.852 2.17218 7.41644 0
M  V30 3146 H 309.197 1.94683 6.67176 0
M  V30 3147 H 312.388 1.0303 4.56621 0
M  V30 3148 H 312.561 1.67164 6.26067 0
M  V30 3149 N 305.967 -1.56429 0.191757 0
M  V30 3150 C 307.192 -2.02309 -0.456706 0
M  V30 3151 C 307.617 -1.07103 -1.5463 0
M  V30 3152 O 306.975 -0.0539677 -1.8122 0
M  V30 3153 C 307.023 -3.46654 -0.993159 0
M  V30 3154 O 306.127 -3.54559 -2.10622 0
M  V30 3155 H 305.468 -0.655303 -0.107114 0
M  V30 3156 H 307.998 -2.02364 0.301653 0
M  V30 3157 H 308.008 -3.86377 -1.31061 0
M  V30 3158 H 306.683 -4.1544 -0.195504 0
M  V30 3159 H 305.26 -3.26708 -1.79767 0
M  V30 3160 N 307.445 0.0818655 -1.57387 0
M  V30 3161 C 308.692 0.782914 -1.86753 0
M  V30 3162 C 309.02 1.78082 -0.782118 0
M  V30 3163 O 308.275 1.94426 0.22295 0
M  V30 3164 C 308.574 1.53513 -3.22752 0
M  V30 3165 C 308.24 0.678134 -4.45771 0
M  V30 3166 C 306.902 0.441929 -4.79166 0
M  V30 3167 C 309.254 0.0832243 -5.21134 0
M  V30 3168 C 306.582 -0.398833 -5.85343 0
M  V30 3169 C 308.934 -0.744935 -6.28199 0
M  V30 3170 C 307.598 -0.991107 -6.60101 0
M  V30 3171 H 306.868 0.286489 -0.683378 0
M  V30 3172 H 309.515 0.0439808 -1.91449 0
M  V30 3173 H 307.82 2.34599 -3.138 0
M  V30 3174 H 309.517 2.08218 -3.42705 0
M  V30 3175 H 306.107 0.872357 -4.19628 0
M  V30 3176 H 310.291 0.252847 -4.95655 0
M  V30 3177 H 305.547 -0.598405 -6.08465 0
M  V30 3178 H 309.721 -1.21271 -6.8576 0
M  V30 3179 H 307.348 -1.64437 -7.42202 0
M  V30 3180 N 308.923 1.53595 0.353017 0
M  V30 3181 C 309.855 1.77219 1.45348 0
M  V30 3182 C 310.868 0.65324 1.49119 0
M  V30 3183 O 312.057 0.929775 1.52373 0
M  V30 3184 C 309.157 1.84841 2.84055 0
M  V30 3185 C 308.33 3.14649 3.03833 0
M  V30 3186 C 307.389 3.13351 4.22727 0
M  V30 3187 O 306.415 3.87107 4.17297 0
M  V30 3188 N 307.617 2.35052 5.30783 0
M  V30 3189 H 310.382 2.72178 1.25457 0
M  V30 3190 H 307.943 1.52528 0.542833 0
M  V30 3191 H 309.935 1.81435 3.61751 0
M  V30 3192 H 308.505 0.971114 2.97133 0
M  V30 3193 H 307.725 3.31256 2.13689 0
M  V30 3194 H 309.013 4.00411 3.13925 0
M  V30 3195 H 308.411 1.74663 5.38061 0
M  V30 3196 H 306.968 2.37453 6.07009 0
M  V30 3197 N 310.401 -0.613514 1.45168 0
M  V30 3198 C 311.333 -1.73825 1.4939 0
M  V30 3199 C 312.346 -1.58175 0.385304 0
M  V30 3200 O 313.535 -1.66165 0.652036 0
M  V30 3201 C 310.635 -3.11758 1.32891 0
M  V30 3202 C 309.808 -3.53704 2.57317 0
M  V30 3203 C 308.867 -4.70579 2.35462 0
M  V30 3204 O 307.893 -4.77996 3.09044 0
M  V30 3205 N 309.095 -5.63454 1.39644 0
M  V30 3206 H 311.86 -1.70669 2.46358 0
M  V30 3207 H 309.421 -0.79862 1.40832 0
M  V30 3208 H 311.413 -3.87692 1.1609 0
M  V30 3209 H 309.983 -3.09456 0.442218 0
M  V30 3210 H 309.203 -2.67794 2.89275 0
M  V30 3211 H 310.491 -3.78486 3.40038 0
M  V30 3212 H 309.889 -5.6017 0.789062 0
M  V30 3213 H 308.446 -6.38944 1.28816 0
M  V30 3214 N 311.879 -1.3236 -0.855495 0
M  V30 3215 C 313.104 -1.2601 -1.64731 0
M  V30 3216 C 313.529 0.169068 -1.87339 0
M  V30 3217 O 312.887 1.12016 -1.42556 0
M  V30 3218 C 312.935 -2.02417 -2.98429 0
M  V30 3219 O 312.039 -1.3714 -3.8893 0
M  V30 3220 H 311.38 -0.434325 -0.502253 0
M  V30 3221 H 313.91 -1.74661 -1.06558 0
M  V30 3222 H 313.92 -2.12559 -3.48257 0
M  V30 3223 H 312.595 -3.06343 -2.81295 0
M  V30 3224 H 311.172 -1.3554 -3.47395 0
M  V30 3225 N 313.357 1.07166 -1.15556 0
M  V30 3226 C 314.603 1.80222 -0.942961 0
M  V30 3227 C 314.958 1.85121 0.524209 0
M  V30 3228 O 314.251 1.32531 1.38369 0
M  V30 3229 C 314.445 3.24707 -1.49332 0
M  V30 3230 C 314.274 3.33887 -3.01247 0
M  V30 3231 C 313.044 3.44337 -3.69811 0
M  V30 3232 C 315.242 3.24484 -3.99017 0
M  V30 3233 N 313.224 3.42439 -5.09518 0
M  V30 3234 C 314.595 3.29726 -5.25053 0
M  V30 3235 C 316.65 3.08307 -3.90962 0
M  V30 3236 C 315.353 3.20455 -6.43973 0
M  V30 3237 C 317.379 3.00371 -5.09442 0
M  V30 3238 C 316.741 3.06227 -6.34354 0
M  V30 3239 H 312.84 0.672709 -0.398731 0
M  V30 3240 H 315.424 1.27905 -1.46794 0
M  V30 3241 H 313.595 3.7544 -0.994946 0
M  V30 3242 H 315.327 3.85894 -1.21935 0
M  V30 3243 H 312.082 3.48762 -3.20409 0
M  V30 3244 H 312.506 3.45013 -5.8249 0
M  V30 3245 H 317.148 3.02633 -2.95251 0
M  V30 3246 H 314.866 3.24888 -7.39914 0
M  V30 3247 H 318.452 2.88955 -5.04971 0
M  V30 3248 H 317.332 3.00132 -7.24493 0
M  V30 3249 N 314.835 0.952656 1.25548 0
M  V30 3250 C 315.783 0.462354 2.27958 0
M  V30 3251 C 316.777 -0.46634 1.62855 0
M  V30 3252 O 317.983 -0.343287 1.76696 0
M  V30 3253 H 314.358 0.13101 0.7405 0
M  V30 3254 H 316.329 1.33839 2.66702 0
M  V30 3255 C 315.078 -0.24628 3.46827 0
M  V30 3256 H 314.401 0.459192 3.97154 0
M  V30 3257 H 315.841 -0.553393 4.20373 0
M  V30 3258 C 314.3 -1.4681 3.0323 0
M  V30 3259 O 314.83 -2.56591 3.09069 0
M  V30 3260 N 313.036 -1.32874 2.58443 0
M  V30 3261 H 312.583 -0.435536 2.53891 0
M  V30 3262 H 312.541 -2.14742 2.29637 0
M  V30 3263 N 316.313 -1.40141 0.720998 0
M  V30 3264 C 317.223 -2.34486 0.0731031 0
M  V30 3265 C 318.239 -1.57587 -0.737723 0
M  V30 3266 O 319.415 -1.89949 -0.669429 0
M  V30 3267 C 316.48 -3.36528 -0.833656 0
M  V30 3268 C 315.541 -4.29298 -0.0121673 0
M  V30 3269 C 314.774 -5.26466 -0.875742 0
M  V30 3270 O 314.997 -5.29745 -2.11485 0
M  V30 3271 O 313.931 -6.01092 -0.31185 0
M  V30 3272 H 317.757 -2.9152 0.851444 0
M  V30 3273 H 315.342 -1.41427 0.481527 0
M  V30 3274 H 317.224 -3.99093 -1.35289 0
M  V30 3275 H 315.899 -2.81899 -1.59105 0
M  V30 3276 H 314.806 -3.70001 0.552262 0
M  V30 3277 H 316.139 -4.87094 0.707129 0
M  V30 3278 N 317.792 -0.46758 -1.50504 0
M  V30 3279 C 319.022 0.086288 -2.0642 0
M  V30 3280 C 319.43 1.34369 -1.33197 0
M  V30 3281 O 318.773 1.79431 -0.393747 0
M  V30 3282 C 318.835 0.443846 -3.5675 0
M  V30 3283 C 318.499 -0.711035 -4.51435 0
M  V30 3284 C 319.496 -1.59205 -4.94924 0
M  V30 3285 C 317.181 -0.900363 -4.94165 0
M  V30 3286 C 319.175 -2.64683 -5.79846 0
M  V30 3287 C 316.862 -1.95837 -5.7887 0
M  V30 3288 C 317.86 -2.82997 -6.21612 0
M  V30 3289 O 317.548 -3.86977 -7.0463 0
M  V30 3290 H 317.28 -0.00217814 -0.675996 0
M  V30 3291 H 319.834 -0.654346 -1.94698 0
M  V30 3292 H 318.064 1.23762 -3.6636 0
M  V30 3293 H 319.753 0.932386 -3.95046 0
M  V30 3294 H 320.519 -1.45745 -4.62583 0
M  V30 3295 H 316.398 -0.231427 -4.60419 0
M  V30 3296 H 319.942 -3.32745 -6.13128 0
M  V30 3297 H 315.839 -2.09305 -6.10624 0
M  V30 3298 H 316.607 -3.83923 -7.22873 0
M  V30 3299 N 319.27 1.56325 -0.20005 0
M  V30 3300 C 320.233 2.18084 0.705132 0
M  V30 3301 C 321.233 1.13666 1.1374 0
M  V30 3302 O 322.423 1.39023 1.04968 0
M  V30 3303 C 319.555 2.78689 1.96329 0
M  V30 3304 H 320.748 2.99435 0.167023 0
M  V30 3305 H 318.301 1.56221 0.0495725 0
M  V30 3306 H 319.036 2.0115 2.5438 0
M  V30 3307 H 318.821 3.55133 1.66202 0
M  V30 3308 H 320.311 3.26096 2.60866 0
M  V30 3309 N 320.748 -0.0735177 1.57428 0
M  V30 3310 C 321.695 -1.08756 2.0357 0
M  V30 3311 C 322.665 -1.38559 0.916 0
M  V30 3312 O 323.85 -1.49656 1.18354 0
M  V30 3313 C 320.99 -2.39657 2.48311 0
M  V30 3314 C 320.103 -2.16399 3.73892 0
M  V30 3315 C 319.238 -3.40852 4.07423 0
M  V30 3316 C 318.277 -3.1295 5.2605 0
M  V30 3317 N 317.414 -4.29729 5.55228 0
M  V30 3318 H 322.254 -0.687104 2.8997 0
M  V30 3319 H 319.791 -0.327709 1.43403 0
M  V30 3320 H 321.749 -3.16081 2.72303 0
M  V30 3321 H 320.379 -2.77508 1.64891 0
M  V30 3322 H 319.431 -1.30676 3.57251 0
M  V30 3323 H 320.743 -1.91788 4.60455 0
M  V30 3324 H 319.897 -4.25671 4.32306 0
M  V30 3325 H 318.636 -3.68537 3.19425 0
M  V30 3326 H 317.641 -2.26526 5.00965 0
M  V30 3327 H 318.866 -2.86589 6.15665 0
M  V30 3328 H 316.812 -4.57448 4.70188 0
M  V30 3329 H 316.729 -4.08385 6.36206 0
M  V30 3330 H 317.997 -5.1555 5.84661 0
M  V30 3331 N 322.226 -1.5378 -0.344866 0
M  V30 3332 C 323.642 -1.44015 -0.687888 0
M  V30 3333 C 323.842 -0.595834 -1.92489 0
M  V30 3334 O 322.898 -0.0863064 -2.52352 0
M  V30 3335 C 324.211 -2.87481 -0.881758 0
M  V30 3336 C 325.759 -2.97247 -0.980459 0
M  V30 3337 C 326.234 -4.41819 -1.20665 0
M  V30 3338 N 327.725 -4.45339 -1.27389 0
M  V30 3339 C 328.46 -5.54333 -1.46639 0
M  V30 3340 N 327.956 -6.73335 -1.63071 0
M  V30 3341 N 329.749 -5.41944 -1.49176 0
M  V30 3342 H 321.9 -2.07169 0.468475 0
M  V30 3343 H 324.163 -0.93643 0.147655 0
M  V30 3344 H 323.869 -3.51672 -0.0443444 0
M  V30 3345 H 323.743 -3.32352 -1.78388 0
M  V30 3346 H 326.13 -2.33197 -1.8084 0
M  V30 3347 H 326.211 -2.5574 -0.0552713 0
M  V30 3348 H 325.855 -5.06449 -0.383652 0
M  V30 3349 H 325.785 -4.80917 -2.14539 0
M  V30 3350 H 328.276 -3.59585 -1.1622 0
M  V30 3351 H 328.589 -7.52165 -1.77391 0
M  V30 3352 H 326.934 -6.76282 -1.60209 0
M  V30 3353 H 330.125 -4.47932 -1.3592 0
M  V30 3354 H 330.298 -6.26946 -1.63837 0
M  V30 3355 N 323.704 0.605807 -1.45491 0
M  V30 3356 C 324.636 1.73031 -1.5031 0
M  V30 3357 C 325.649 1.57968 -0.393687 0
M  V30 3358 O 326.838 1.65817 -0.660839 0
M  V30 3359 C 323.938 3.11049 -1.34543 0
M  V30 3360 C 323.111 3.52334 -2.59189 0
M  V30 3361 C 322.17 4.69323 -2.37954 0
M  V30 3362 O 321.196 4.7635 -3.11575 0
M  V30 3363 N 322.398 5.62705 -1.4263 0
M  V30 3364 H 325.163 1.6936 -2.4726 0
M  V30 3365 H 322.724 0.79114 -1.41254 0
M  V30 3366 H 324.716 3.87071 -1.18144 0
M  V30 3367 H 323.286 3.09217 -0.458623 0
M  V30 3368 H 322.506 2.66256 -2.90691 0
M  V30 3369 H 323.794 3.76677 -3.42041 0
M  V30 3370 H 323.192 5.59744 -0.818758 0
M  V30 3371 H 321.749 6.38252 -1.32202 0
M  V30 3372 N 325.182 1.32811 0.848464 0
M  V30 3373 C 326.43 1.23479 1.59991 0
M  V30 3374 C 326.751 -0.201853 1.93952 0
M  V30 3375 O 326.021 -1.12818 1.60153 0
M  V30 3376 H 324.601 0.454034 0.593179 0
M  V30 3377 H 327.263 1.66412 1.01455 0
M  V30 3378 H 326.359 1.82178 2.53412 0
M  V30 3379 N 326.66 -1.06551 1.16123 0
M  V30 3380 C 327.607 -2.13961 0.865414 0
M  V30 3381 C 328.577 -1.65066 -0.185055 0
M  V30 3382 O 329.762 -1.90732 -0.05083 0
M  V30 3383 C 326.902 -3.43113 0.369776 0
M  V30 3384 C 326.015 -4.05756 1.48276 0
M  V30 3385 C 325.15 -5.22773 0.942414 0
M  V30 3386 C 324.189 -5.77395 2.03179 0
M  V30 3387 N 323.326 -6.85731 1.50721 0
M  V30 3388 H 328.166 -2.38605 1.78527 0
M  V30 3389 H 325.703 -1.17072 0.890646 0
M  V30 3390 H 327.661 -4.17151 0.0640643 0
M  V30 3391 H 326.291 -3.18695 -0.513143 0
M  V30 3392 H 325.343 -3.29292 1.9045 0
M  V30 3393 H 326.655 -4.42351 2.30493 0
M  V30 3394 H 325.809 -6.03827 0.589729 0
M  V30 3395 H 324.548 -4.87618 0.0895191 0
M  V30 3396 H 323.553 -4.94981 2.3932 0
M  V30 3397 H 324.778 -6.14603 2.8886 0
M  V30 3398 H 322.724 -6.52499 0.676811 0
M  V30 3399 H 322.641 -7.21254 2.26557 0
M  V30 3400 H 323.909 -7.7047 1.18303 0
M  V30 3401 N 328.138 -0.959301 -1.25041 0
M  V30 3402 C 329.363 -0.633507 -1.97488 0
M  V30 3403 C 329.788 0.788555 -1.70773 0
M  V30 3404 O 329.146 1.53394 -0.966431 0
M  V30 3405 C 329.194 -0.904057 -3.49083 0
M  V30 3406 O 328.298 0.0147939 -4.12397 0
M  V30 3407 H 327.639 -0.240368 -0.618966 0
M  V30 3408 H 330.169 -1.28717 -1.59038 0
M  V30 3409 H 330.179 -0.832203 -3.99423 0
M  V30 3410 H 328.854 -1.94048 -3.67856 0
M  V30 3411 H 327.431 -0.109664 -3.72739 0
M  V30 3412 N 329.616 1.39756 -0.72842 0
M  V30 3413 C 330.546 2.33289 -0.0991354 0
M  V30 3414 C 331.527 1.53568 0.731489 0
M  V30 3415 O 332.712 1.81987 0.677807 0
M  V30 3416 C 329.842 3.3763 0.813834 0
M  V30 3417 C 328.796 4.2791 0.0878663 0
M  V30 3418 C 328.122 5.22894 1.11741 0
M  V30 3419 C 329.422 5.11314 -1.06563 0
M  V30 3420 H 331.116 2.86163 -0.880408 0
M  V30 3421 H 328.662 1.37591 -0.424819 0
M  V30 3422 H 330.615 4.0201 1.26355 0
M  V30 3423 H 329.339 2.83181 1.62715 0
M  V30 3424 H 327.998 3.65 -0.342159 0
M  V30 3425 H 327.646 4.64744 1.92412 0
M  V30 3426 H 327.346 5.84143 0.636477 0
M  V30 3427 H 328.87 5.90151 1.56697 0
M  V30 3428 H 330.284 5.69076 -0.694671 0
M  V30 3429 H 328.681 5.81671 -1.47577 0
M  V30 3430 H 329.751 4.46534 -1.89038 0
M  V30 3431 N 331.094 0.475555 1.50254 0
M  V30 3432 C 332.057 -0.305016 2.27161 0
M  V30 3433 C 333.057 -0.916519 1.32123 0
M  V30 3434 O 334.247 -0.785003 1.5551 0
M  V30 3435 C 331.379 -1.43496 3.09227 0
M  V30 3436 H 332.572 0.369511 2.97615 0
M  V30 3437 H 330.125 0.229747 1.54602 0
M  V30 3438 H 330.86 -2.14441 2.43281 0
M  V30 3439 H 330.645 -1.00223 3.79075 0
M  V30 3440 H 332.135 -1.98548 3.67381 0
M  V30 3441 N 332.573 -1.56217 0.208337 0
M  V30 3442 C 333.85 -1.89739 -0.475234 0
M  V30 3443 C 334.23 -1.1238 -1.78701 0
M  V30 3444 O 333.578 -0.228979 -2.2735 0
M  V30 3445 C 333.788 -3.42289 -0.681101 0
M  V30 3446 C 335.136 -4.12789 -0.994507 0
M  V30 3447 O 336.16 -3.47814 -0.768357 0
M  V30 3448 O 335.019 -5.27649 -1.42299 0
M  V30 3449 H 332.113 -0.788478 -0.249461 0
M  V30 3450 H 334.659 -1.67855 0.249538 0
M  V30 3451 H 333.431 -3.90534 0.244722 0
M  V30 3452 H 333.054 -3.69909 -1.45785 0
M  V30 3453 N 334.051 0.0651679 -1.57465 0
M  V30 3454 C 335.298 0.763063 -1.87573 0
M  V30 3455 C 335.626 1.77242 -0.800961 0
M  V30 3456 O 334.881 1.94651 0.202316 0
M  V30 3457 C 335.18 1.50081 -3.24362 0
M  V30 3458 C 334.846 0.630816 -4.46466 0
M  V30 3459 C 333.508 0.391082 -4.79608 0
M  V30 3460 C 335.86 0.0279465 -5.21193 0
M  V30 3461 C 333.188 -0.460894 -5.84887 0
M  V30 3462 C 335.54 -0.811522 -6.27373 0
M  V30 3463 C 334.204 -1.06106 -6.59013 0
M  V30 3464 H 333.474 0.279224 -0.686378 0
M  V30 3465 H 336.121 0.0236726 -1.91485 0
M  V30 3466 H 334.426 2.31258 -3.16271 0
M  V30 3467 H 336.123 2.04571 -3.44894 0
M  V30 3468 H 332.713 0.8278 -4.2053 0
M  V30 3469 H 336.897 0.200262 -4.95896 0
M  V30 3470 H 332.153 -0.662907 -6.07796 0
M  V30 3471 H 336.327 -1.28537 -6.84435 0
M  V30 3472 H 333.954 -1.723 -7.40417 0
M  V30 3473 N 335.529 1.53961 0.336706 0
M  V30 3474 C 336.492 1.81724 1.39675 0
M  V30 3475 C 337.492 0.688532 1.45313 0
M  V30 3476 O 338.682 0.956829 1.45569 0
M  V30 3477 C 335.814 1.96543 2.78538 0
M  V30 3478 H 337.007 2.76424 1.16318 0
M  V30 3479 H 334.56 1.45478 0.571474 0
M  V30 3480 H 335.295 1.0401 3.07168 0
M  V30 3481 H 335.08 2.78665 2.75841 0
M  V30 3482 H 336.57 2.19516 3.5525 0
M  V30 3483 N 337.007 -0.598083 1.45811 0
M  V30 3484 C 338.232 -1.3881 1.54099 0
M  V30 3485 C 338.657 -1.8726 0.177578 0
M  V30 3486 O 338.015 -1.6069 -0.839541 0
M  V30 3487 C 338.063 -2.56217 2.53743 0
M  V30 3488 O 337.167 -3.5716 2.06182 0
M  V30 3489 H 336.508 -0.414024 0.519115 0
M  V30 3490 H 339.038 -0.726971 1.91249 0
M  V30 3491 H 339.048 -3.03337 2.72856 0
M  V30 3492 H 337.723 -2.20303 3.5276 0
M  V30 3493 H 336.3 -3.16624 1.96987 0
M  V30 3494 N 338.485 -1.33259 -0.841409 0
M  V30 3495 C 339.415 -1.25926 -1.96634 0
M  V30 3496 C 340.396 -0.140349 -1.6952 0
M  V30 3497 O 341.581 -0.329707 -1.91381 0
M  V30 3498 C 338.711 -0.99512 -3.32738 0
M  V30 3499 C 337.665 -2.0767 -3.74242 0
M  V30 3500 C 336.991 -1.66474 -5.08125 0
M  V30 3501 C 338.291 -3.49318 -3.88297 0
M  V30 3502 H 339.985 -2.20046 -2.03027 0
M  V30 3503 H 337.531 -1.05931 -0.975425 0
M  V30 3504 H 339.484 -0.930323 -4.11002 0
M  V30 3505 H 338.208 -0.0183004 -3.26595 0
M  V30 3506 H 336.867 -2.13187 -2.98239 0
M  V30 3507 H 336.515 -0.675012 -4.9845 0
M  V30 3508 H 336.215 -2.3885 -5.36865 0
M  V30 3509 H 337.739 -1.61455 -5.88867 0
M  V30 3510 H 339.153 -3.46316 -4.56879 0
M  V30 3511 H 337.55 -4.20158 -4.28471 0
M  V30 3512 H 338.62 -3.8801 -2.9082 0
M  V30 3513 N 339.963 1.05934 -1.16686 0
M  V30 3514 C 341.203 1.80382 -0.961345 0
M  V30 3515 C 341.567 1.85331 0.501643 0
M  V30 3516 O 342.768 2.55795 0.825986 0
M  V30 3517 C 341.039 3.20777 -1.57596 0
M  V30 3518 S 342.598 4.11795 -1.51559 0
M  V30 3519 H 339.416 0.621332 -0.345641 0
M  V30 3520 H 342.018 1.27157 -1.48497 0
M  V30 3521 H 340.722 3.14773 -2.63337 0
M  V30 3522 H 340.253 3.79078 -1.05182 0
M  V30 3523 H 342.268 4.93485 -0.518374 0
M  V30 3524 N 341.441 0.965919 1.2453 0
M  V30 3525 C 342.688 0.626831 1.92554 0
M  V30 3526 C 343.016 -0.837739 1.75534 0
M  V30 3527 O 342.271 -1.61793 1.10098 0
M  V30 3528 C 342.57 0.945428 3.44669 0
M  V30 3529 C 342.236 2.39785 3.81856 0
M  V30 3530 C 340.898 2.79483 3.91718 0
M  V30 3531 C 343.25 3.34055 4.00071 0
M  V30 3532 C 340.578 4.12496 4.1721 0
M  V30 3533 C 342.93 4.66694 4.27059 0
M  V30 3534 C 341.594 5.06172 4.3514 0
M  V30 3535 H 340.864 0.229374 0.704605 0
M  V30 3536 H 343.511 1.21707 1.4785 0
M  V30 3537 H 341.816 0.272926 3.90848 0
M  V30 3538 H 343.513 0.661484 3.95507 0
M  V30 3539 H 340.103 2.08003 3.74743 0
M  V30 3540 H 344.287 3.04571 3.91855 0
M  V30 3541 H 339.543 4.42709 4.21685 0
M  V30 3542 H 343.717 5.3971 4.40097 0
M  V30 3543 H 341.344 6.09262 4.54646 0
M  V30 3544 N 342.919 -1.39368 0.735821 0
M  V30 3545 C 343.869 -2.27885 0.0724287 0
M  V30 3546 C 344.853 -1.44301 -0.711756 0
M  V30 3547 O 346.045 -1.67206 -0.58063 0
M  V30 3548 C 343.174 -3.33029 -0.833454 0
M  V30 3549 C 342.26 -4.24078 -0.0433749 0
M  V30 3550 N 342.651 -4.96138 0.983903 0
M  V30 3551 C 340.949 -4.45164 -0.272905 0
M  V30 3552 C 341.65 -5.63069 1.4604 0
M  V30 3553 N 340.626 -5.37991 0.778857 0
M  V30 3554 H 344.428 -2.81052 0.859467 0
M  V30 3555 H 341.942 -1.5206 0.570227 0
M  V30 3556 H 343.939 -3.95311 -1.32419 0
M  V30 3557 H 342.599 -2.81421 -1.61964 0
M  V30 3558 H 343.61 -4.9958 1.36528 0
M  V30 3559 H 340.287 -4.04497 -1.03383 0
M  V30 3560 H 341.677 -6.30755 2.31511 0
M  V30 3561 N 344.397 -0.483516 -1.5 0
M  V30 3562 C 345.643 0.0672592 -2.02688 0
M  V30 3563 C 345.976 1.38247 -1.36387 0
M  V30 3564 O 345.251 1.88131 -0.493675 0
M  V30 3565 C 345.534 0.238109 -3.59312 0
M  V30 3566 C 345.387 -1.099 -4.36168 0
M  V30 3567 C 346.706 0.986916 -4.28892 0
M  V30 3568 H 343.825 0.0229696 -0.736642 0
M  V30 3569 H 346.467 -0.631527 -1.79197 0
M  V30 3570 H 344.617 0.8333 -3.79458 0
M  V30 3571 H 346.289 -1.73172 -4.27562 0
M  V30 3572 H 344.532 -1.69261 -3.99416 0
M  V30 3573 H 345.203 -0.932954 -5.44059 0
M  V30 3574 H 347.679 0.482302 -4.13295 0
M  V30 3575 H 346.555 1.07527 -5.38265 0
M  V30 3576 H 346.816 2.0265 -3.92919 0
M  V30 3577 N 345.875 1.56104 -0.216619 0
M  V30 3578 C 347.286 1.844 0.292128 0
M  V30 3579 C 347.637 1.13788 1.59833 0
M  V30 3580 O 346.762 0.405888 2.12559 0
M  V30 3581 C 347.357 3.3452 0.53681 0
M  V30 3582 C 345.916 3.63151 0.989876 0
M  V30 3583 C 345.063 2.77255 0.0502302 0
M  V30 3584 H 348.014 1.52481 -0.439926 0
M  V30 3585 H 348.035 3.54459 1.38345 0
M  V30 3586 H 347.547 3.85885 -0.414031 0
M  V30 3587 H 345.648 3.17238 1.95425 0
M  V30 3588 H 345.761 4.71177 0.867698 0
M  V30 3589 H 344.125 2.48555 0.556117 0
M  V30 3590 H 344.908 3.31416 -0.89544 0
M  V30 3591 N 347.353 -0.0568162 1.57498 0
M  V30 3592 C 348.6 -0.753104 1.87975 0
M  V30 3593 C 348.928 -1.76815 0.81035 0
M  V30 3594 O 348.183 -1.94756 -0.19199 0
M  V30 3595 C 348.482 -1.48359 3.25153 0
M  V30 3596 C 348.148 -0.60713 4.46794 0
M  V30 3597 C 346.81 -0.365642 4.79809 0
M  V30 3598 C 349.162 -0.000305978 5.212 0
M  V30 3599 C 346.49 0.491905 5.84634 0
M  V30 3600 C 348.842 0.844781 6.26934 0
M  V30 3601 C 347.506 1.096 6.58441 0
M  V30 3602 H 346.776 -0.27558 0.687849 0
M  V30 3603 H 349.423 -0.0135173 1.91495 0
M  V30 3604 H 347.728 -2.29577 3.17492 0
M  V30 3605 H 349.425 -2.02739 3.45974 0
M  V30 3606 H 346.015 -0.805487 4.20963 0
M  V30 3607 H 350.199 -0.173961 4.95995 0
M  V30 3608 H 345.455 0.695131 6.07436 0
M  V30 3609 H 349.629 1.32165 6.83744 0
M  V30 3610 H 347.256 1.76224 7.39492 0
M  V30 3611 N 348.832 -1.54138 -0.328536 0
M  V30 3612 C 350.06 -1.76062 -1.08673 0
M  V30 3613 C 350.475 -0.506852 -1.81869 0
M  V30 3614 O 349.832 0.522223 -1.74869 0
M  V30 3615 C 349.883 -2.95054 -2.08866 0
M  V30 3616 O 349.604 -4.15583 -1.38644 0
M  V30 3617 C 351.105 -3.2915 -2.96943 0
M  V30 3618 H 348.325 -0.587889 -0.323461 0
M  V30 3619 H 350.869 -2.0101 -0.376175 0
M  V30 3620 H 349.024 -2.72394 -2.75464 0
M  V30 3621 H 349.438 -4.82481 -2.05699 0
M  V30 3622 H 350.912 -4.15723 -3.63151 0
M  V30 3623 H 351.389 -2.461 -3.63774 0
M  V30 3624 H 351.995 -3.53871 -2.35914 0
M  V30 3625 N 350.31 0.590341 -1.46126 0
M  V30 3626 C 351.257 1.69994 -1.56111 0
M  V30 3627 C 352.227 1.61065 -0.405867 0
M  V30 3628 O 353.412 1.8039 -0.621613 0
M  V30 3629 C 350.552 3.08326 -1.55013 0
M  V30 3630 C 349.665 3.27936 -2.81215 0
M  V30 3631 C 348.8 4.56473 -2.71673 0
M  V30 3632 C 347.839 4.694 -3.92849 0
M  V30 3633 N 346.976 5.89254 -3.81738 0
M  V30 3634 H 351.816 1.60797 -2.50895 0
M  V30 3635 H 349.353 0.783799 -1.24479 0
M  V30 3636 H 351.311 3.88383 -1.52362 0
M  V30 3637 H 349.941 3.16439 -0.637667 0
M  V30 3638 H 348.993 2.41536 -2.93879 0
M  V30 3639 H 350.305 3.33357 -3.71045 0
M  V30 3640 H 349.459 5.44748 -2.67085 0
M  V30 3641 H 348.198 4.53477 -1.7947 0
M  V30 3642 H 347.203 3.79544 -3.97777 0
M  V30 3643 H 348.428 4.7418 -4.86138 0
M  V30 3644 H 346.374 5.87271 -2.92317 0
M  V30 3645 H 346.291 5.95911 -4.65217 0
M  V30 3646 H 347.559 6.79981 -3.81112 0
M  V30 3647 N 351.788 1.33704 0.83433 0
M  V30 3648 C 352.721 1.18675 1.94914 0
M  V30 3649 C 353.699 0.0811145 1.62398 0
M  V30 3650 O 354.883 0.244186 1.86912 0
M  V30 3651 C 352.01 0.821231 3.28593 0
M  V30 3652 C 351.056 1.93501 3.80079 0
M  V30 3653 S 351.889 3.54671 4.01209 0
M  V30 3654 C 353.045 3.20136 5.37833 0
M  V30 3655 H 353.278 2.13043 2.07364 0
M  V30 3656 H 350.811 1.18598 0.988624 0
M  V30 3657 H 352.769 0.617123 4.05835 0
M  V30 3658 H 351.43 -0.103927 3.13928 0
M  V30 3659 H 350.623 1.63273 4.76821 0
M  V30 3660 H 350.225 2.09601 3.09747 0
M  V30 3661 H 352.517 2.71242 6.20833 0
M  V30 3662 H 353.46 4.15975 5.73036 0
M  V30 3663 H 353.868 2.56613 5.02802 0
M  V30 3664 N 353.266 -1.05314 1.17247 0
M  V30 3665 C 354.514 -1.77941 0.958194 0
M  V30 3666 C 354.835 -1.88089 -0.514556 0
M  V30 3667 O 354.105 -1.39676 -1.37359 0
M  V30 3668 H 352.685 -0.659116 0.351533 0
M  V30 3669 H 355.347 -1.27166 1.47699 0
M  V30 3670 H 354.443 -2.79663 1.38546 0
M  V30 3671 N 354.744 -0.972509 -1.24016 0
M  V30 3672 C 355.691 -0.505969 -2.25186 0
M  V30 3673 C 356.661 0.451009 -1.5986 0
M  V30 3674 O 357.846 0.360307 -1.87367 0
M  V30 3675 C 354.986 0.193089 -3.44559 0
M  V30 3676 C 354.099 -0.803222 -4.24467 0
M  V30 3677 C 353.234 -0.0797793 -5.3114 0
M  V30 3678 C 352.273 -1.06583 -6.02749 0
M  V30 3679 N 351.41 -0.372074 -7.01113 0
M  V30 3680 H 356.25 -1.37351 -2.64459 0
M  V30 3681 H 353.787 -0.688419 -1.29997 0
M  V30 3682 H 355.745 0.615125 -4.1264 0
M  V30 3683 H 354.375 1.02455 -3.06109 0
M  V30 3684 H 353.427 -1.34368 -3.55878 0
M  V30 3685 H 354.739 -1.55494 -4.73944 0
M  V30 3686 H 353.893 0.400015 -6.0538 0
M  V30 3687 H 352.632 0.704597 -4.82583 0
M  V30 3688 H 351.637 -1.55645 -5.27309 0
M  V30 3689 H 352.862 -1.85074 -6.53395 0
M  V30 3690 H 350.808 0.393238 -6.5482 0
M  V30 3691 H 350.725 -1.06258 -7.48495 0
M  V30 3692 H 351.993 0.0855932 -7.79453 0
M  V30 3693 N 356.222 1.38976 -0.743202 0
M  V30 3694 C 357.169 2.30544 -0.10861 0
M  V30 3695 C 358.139 1.49642 0.720869 0
M  V30 3696 O 359.324 1.78304 0.679142 0
M  V30 3697 C 356.464 3.36018 0.786496 0
M  V30 3698 C 355.577 4.31963 -0.0564849 0
M  V30 3699 C 354.712 5.24506 0.840657 0
M  V30 3700 C 353.751 6.121 -0.00658363 0
M  V30 3701 N 352.888 6.96973 0.846943 0
M  V30 3702 H 357.728 2.8424 -0.895088 0
M  V30 3703 H 355.265 1.3995 -0.453048 0
M  V30 3704 H 357.223 3.95768 1.31999 0
M  V30 3705 H 355.853 2.83758 1.53887 0
M  V30 3706 H 354.905 3.73763 -0.707492 0
M  V30 3707 H 356.217 4.93703 -0.711229 0
M  V30 3708 H 355.371 5.89322 1.4417 0
M  V30 3709 H 354.11 4.63107 1.52916 0
M  V30 3710 H 353.115 5.46289 -0.620366 0
M  V30 3711 H 354.34 6.75565 -0.691992 0
M  V30 3712 H 352.286 6.38133 1.52059 0
M  V30 3713 H 352.203 7.5559 0.248864 0
M  V30 3714 H 353.471 7.6621 1.43328 0
M  V30 3715 N 357.7 0.491464 1.49741 0
M  V30 3716 C 358.663 -0.280906 2.27472 0
M  V30 3717 C 359.663 -0.902454 1.33088 0
M  V30 3718 O 360.853 -0.768465 1.56334 0
M  V30 3719 C 357.985 -1.40209 3.10732 0
M  V30 3720 H 359.178 0.401056 2.97206 0
M  V30 3721 H 356.731 0.246131 1.5435 0
M  V30 3722 H 357.466 -2.11849 2.45541 0
M  V30 3723 H 357.251 -0.961969 3.80117 0
M  V30 3724 H 358.741 -1.9464 3.69466 0
M  V30 3725 N 359.178 -1.55987 0.224894 0
M  V30 3726 C 360.108 -2.23426 -0.678457 0
M  V30 3727 C 361.089 -1.20709 -1.19847 0
M  V30 3728 O 362.274 -1.49304 -1.24186 0
M  V30 3729 C 359.404 -2.91676 -1.88527 0
M  V30 3730 C 358.358 -4.00893 -1.49896 0
M  V30 3731 C 357.684 -4.56455 -2.78483 0
M  V30 3732 C 358.984 -5.17769 -0.686461 0
M  V30 3733 H 360.678 -2.99175 -0.116173 0
M  V30 3734 H 358.224 -1.43897 -0.054436 0
M  V30 3735 H 360.177 -3.37547 -2.5227 0
M  V30 3736 H 358.901 -2.1338 -2.47258 0
M  V30 3737 H 357.56 -3.55758 -0.884985 0
M  V30 3738 H 357.208 -3.74886 -3.35365 0
M  V30 3739 H 356.908 -5.30169 -2.53368 0
M  V30 3740 H 358.432 -5.05047 -3.43162 0
M  V30 3741 H 359.846 -5.60001 -1.22767 0
M  V30 3742 H 358.243 -5.97735 -0.532259 0
M  V30 3743 H 359.313 -4.83932 0.306196 0
M  V30 3744 N 360.656 0.0484629 -1.57525 0
M  V30 3745 C 361.566 1.07241 -2.08654 0
M  V30 3746 C 362.582 1.409 -1.02095 0
M  V30 3747 O 363.758 1.50609 -1.33712 0
M  V30 3748 C 360.823 2.36008 -2.5397 0
M  V30 3749 C 359.884 2.09108 -3.7493 0
M  V30 3750 C 359.117 3.31736 -4.18075 0
M  V30 3751 O 359.34 4.41714 -3.60895 0
M  V30 3752 O 358.274 3.18576 -5.10679 0
M  V30 3753 H 362.1 0.667965 -2.96263 0
M  V30 3754 H 359.685 0.26417 -1.47046 0
M  V30 3755 H 361.567 3.11747 -2.83535 0
M  V30 3756 H 360.242 2.75786 -1.69481 0
M  V30 3757 H 359.149 1.31 -3.50414 0
M  V30 3758 H 360.482 1.74198 -4.60343 0
M  V30 3759 N 362.134 1.5431 0.320358 0
M  V30 3760 C 363.359 1.76954 1.08175 0
M  V30 3761 C 363.784 0.518193 1.80821 0
M  V30 3762 O 363.142 -0.530411 1.73368 0
M  V30 3763 C 363.19 2.96451 2.05303 0
M  V30 3764 O 362.294 2.68221 3.13259 0
M  V30 3765 H 361.635 0.586275 0.311733 0
M  V30 3766 H 364.165 2.01342 0.363676 0
M  V30 3767 H 364.175 3.23887 2.48116 0
M  V30 3768 H 362.85 3.87196 1.51829 0
M  V30 3769 H 361.427 2.51744 2.75099 0
M  V30 3770 N 363.613 -0.582584 1.46437 0
M  V30 3771 C 364.862 -1.337 1.5102 0
M  V30 3772 C 365.175 -1.94891 0.166359 0
M  V30 3773 O 366.381 -2.71351 0.0899954 0
M  V30 3774 C 364.837 -2.42315 2.66104 0
M  V30 3775 C 364.445 -1.87427 4.06909 0
M  V30 3776 C 366.189 -3.19099 2.79958 0
M  V30 3777 C 364.096 -2.93672 5.13333 0
M  V30 3778 H 363.026 -0.502619 0.562041 0
M  V30 3779 H 365.677 -0.621701 1.72647 0
M  V30 3780 H 364.059 -3.16645 2.37807 0
M  V30 3781 H 365.233 -1.19639 4.44998 0
M  V30 3782 H 363.548 -1.2331 3.97723 0
M  V30 3783 H 366.145 -3.9839 3.56636 0
M  V30 3784 H 366.488 -3.71695 1.87479 0
M  V30 3785 H 367.021 -2.51875 3.07902 0
M  V30 3786 H 363.76 -2.45962 6.07604 0
M  V30 3787 H 363.28 -3.59948 4.79789 0
M  V30 3788 H 364.959 -3.5762 5.39182 0
M  V30 3789 N 365.091 -1.34144 -0.827227 0
M  V30 3790 C 366.34 -1.25602 -1.5782 0
M  V30 3791 C 366.653 0.173445 -1.94829 0
M  V30 3792 O 367.859 0.380984 -2.68814 0
M  V30 3793 C 366.315 -2.20151 -2.84713 0
M  V30 3794 C 365.923 -3.68331 -2.55021 0
M  V30 3795 C 367.667 -2.20508 -3.62735 0
M  V30 3796 C 365.574 -4.54762 -3.78082 0
M  V30 3797 H 364.504 -0.466573 -0.592306 0
M  V30 3798 H 367.155 -1.59283 -0.911116 0
M  V30 3799 H 365.537 -1.79417 -3.53023 0
M  V30 3800 H 366.711 -4.17577 -1.94849 0
M  V30 3801 H 365.026 -3.7038 -1.90283 0
M  V30 3802 H 367.623 -2.82306 -4.54101 0
M  V30 3803 H 367.966 -1.20322 -3.98533 0
M  V30 3804 H 368.499 -2.59664 -3.01362 0
M  V30 3805 H 365.238 -5.55867 -3.47407 0
M  V30 3806 H 364.758 -4.10254 -4.37552 0
M  V30 3807 H 366.437 -4.69153 -4.45538 0
M  V30 3808 N 366.569 1.04691 -1.17803 0
M  V30 3809 C 367.846 1.7472 -0.879328 0
M  V30 3810 C 368.226 2.01812 0.619271 0
M  V30 3811 O 367.574 1.65824 1.57209 0
M  V30 3812 C 367.784 3.03686 -1.71976 0
M  V30 3813 C 369.132 3.77542 -1.94286 0
M  V30 3814 O 370.156 3.13569 -1.68976 0
M  V30 3815 O 369.015 4.92506 -2.36855 0
M  V30 3816 H 366.109 0.760011 -0.326056 0
M  V30 3817 H 368.655 1.10813 -1.28525 0
M  V30 3818 H 367.427 2.79754 -2.73594 0
M  V30 3819 H 367.05 3.75332 -1.31194 0
M  V30 3820 N 368.047 0.979072 1.23499 0
M  V30 3821 C 368.995 0.510604 2.26926 0
M  V30 3822 C 369.989 -0.431691 1.63807 0
M  V30 3823 O 371.195 -0.30573 1.77385 0
M  V30 3824 H 367.57 0.146688 0.737554 0
M  V30 3825 H 369.541 1.39466 2.63803 0
M  V30 3826 C 368.29 -0.172658 3.47271 0
M  V30 3827 H 367.613 0.543331 3.96091 0
M  V30 3828 H 369.053 -0.464101 4.21452 0
M  V30 3829 C 367.512 -1.40345 3.06276 0
M  V30 3830 O 368.042 -2.49978 3.14442 0
M  V30 3831 N 366.248 -1.27362 2.61203 0
M  V30 3832 H 365.795 -0.381584 2.54758 0
M  V30 3833 H 365.753 -2.09822 2.34141 0
M  V30 3834 N 369.525 -1.3858 0.750561 0
M  V30 3835 C 370.488 -2.28836 0.129152 0
M  V30 3836 C 371.488 -1.47045 -0.650714 0
M  V30 3837 O 372.678 -1.6753 -0.477428 0
M  V30 3838 C 369.81 -3.30751 -0.825622 0
M  V30 3839 H 371.003 -2.85294 0.924516 0
M  V30 3840 H 368.556 -1.47489 0.517376 0
M  V30 3841 H 369.291 -2.79378 -1.64677 0
M  V30 3842 H 369.076 -3.91177 -0.268852 0
M  V30 3843 H 370.566 -3.98249 -1.2565 0
M  V30 3844 N 371.003 -0.499398 -1.49478 0
M  V30 3845 C 372.28 0.108629 -1.95298 0
M  V30 3846 C 372.66 1.54282 -1.44084 0
M  V30 3847 O 372.008 2.18944 -0.653908 0
M  V30 3848 C 372.218 0.0229111 -3.48992 0
M  V30 3849 C 373.566 0.197643 -4.2414 0
M  V30 3850 O 374.59 0.0981735 -3.56065 0
M  V30 3851 O 373.449 0.401669 -5.45022 0
M  V30 3852 H 370.543 0.096181 -0.821388 0
M  V30 3853 H 373.089 -0.561822 -1.6013 0
M  V30 3854 H 371.861 -0.977321 -3.78899 0
M  V30 3855 H 371.484 0.733579 -3.90774 0
M  V30 3856 N 372.481 1.55866 -0.233164 0
M  V30 3857 C 373.391 2.24431 0.683217 0
M  V30 3858 C 374.407 1.2558 1.2044 0
M  V30 3859 O 375.583 1.58422 1.24356 0
M  V30 3860 C 372.648 2.91979 1.86947 0
M  V30 3861 C 371.709 4.06204 1.38912 0
M  V30 3862 C 370.942 4.70522 2.51883 0
M  V30 3863 O 371.165 4.33865 3.70293 0
M  V30 3864 O 370.099 5.59296 2.22423 0
M  V30 3865 H 373.925 3.03426 0.129059 0
M  V30 3866 H 371.51 1.494 -0.0022283 0
M  V30 3867 H 373.392 3.34573 2.56201 0
M  V30 3868 H 372.067 2.15935 2.41151 0
M  V30 3869 H 370.974 3.68155 0.664259 0
M  V30 3870 H 372.307 4.84025 0.893328 0
M  V30 3871 N 373.959 -0.0401083 1.57549 0
M  V30 3872 C 375.187 -0.745196 1.93014 0
M  V30 3873 C 375.602 -1.6948 0.831984 0
M  V30 3874 O 374.959 -1.81482 -0.192463 0
M  V30 3875 C 375.01 -1.51176 3.28372 0
M  V30 3876 O 374.731 -0.600284 4.33968 0
M  V30 3877 C 376.232 -2.315 3.78051 0
M  V30 3878 H 373.452 -0.210088 0.637263 0
M  V30 3879 H 375.996 -0.000924689 2.045 0
M  V30 3880 H 374.151 -2.20801 3.18317 0
M  V30 3881 H 374.565 -1.13669 5.12035 0
M  V30 3882 H 376.039 -2.80697 4.75303 0
M  V30 3883 H 376.516 -3.12436 3.08675 0
M  V30 3884 H 377.122 -1.66971 3.91153 0
M  V30 3885 N 375.437 -1.54477 -0.31217 0
M  V30 3886 C 376.665 -1.77205 -1.068 0
M  V30 3887 C 377.08 -0.526114 -1.81321 0
M  V30 3888 O 376.437 0.503647 -1.75413 0
M  V30 3889 C 376.488 -2.97253 -2.05725 0
M  V30 3890 O 376.209 -4.1703 -1.34228 0
M  V30 3891 C 377.71 -3.32281 -2.93435 0
M  V30 3892 H 374.93 -0.591287 -0.317208 0
M  V30 3893 H 377.474 -2.01398 -0.354834 0
M  V30 3894 H 375.629 -2.753 -2.72559 0
M  V30 3895 H 376.043 -4.84636 -2.00571 0
M  V30 3896 H 377.517 -4.19551 -3.58721 0
M  V30 3897 H 377.994 -2.49945 -3.61143 0
M  V30 3898 H 378.6 -3.56353 -2.32147 0
M  V30 3899 N 376.915 0.57481 -1.46744 0
M  V30 3900 C 377.847 1.69804 -1.53946 0
M  V30 3901 C 378.86 1.57098 -0.427106 0
M  V30 3902 O 380.049 1.64378 -0.695863 0
M  V30 3903 C 377.149 3.08125 -1.4111 0
M  V30 3904 C 376.322 3.46757 -2.66605 0
M  V30 3905 C 375.381 4.6417 -2.47855 0
M  V30 3906 O 374.407 4.69634 -3.21609 0
M  V30 3907 N 375.609 5.59553 -1.54534 0
M  V30 3908 H 378.374 1.64077 -2.50796 0
M  V30 3909 H 375.935 0.761 -1.429 0
M  V30 3910 H 377.927 3.84478 -1.26328 0
M  V30 3911 H 376.497 3.08175 -0.524109 0
M  V30 3912 H 375.717 2.6003 -2.96274 0
M  V30 3913 H 377.005 3.69337 -3.49954 0
M  V30 3914 H 376.403 5.57881 -0.937304 0
M  V30 3915 H 374.96 6.35304 -1.45711 0
M  V30 3916 N 378.394 1.34581 0.820102 0
M  V30 3917 C 379.304 1.28471 1.96297 0
M  V30 3918 C 380.32 0.191902 1.72939 0
M  V30 3919 O 381.496 0.418879 1.96996 0
M  V30 3920 C 378.561 1.04281 3.30645 0
M  V30 3921 C 377.622 2.22745 3.66992 0
M  V30 3922 C 376.855 1.997 4.9493 0
M  V30 3923 O 377.078 0.956656 5.6232 0
M  V30 3924 O 376.012 2.86723 5.2922 0
M  V30 3925 H 379.838 2.24624 2.04396 0
M  V30 3926 H 377.423 1.14816 0.955913 0
M  V30 3927 H 379.305 0.925841 4.11104 0
M  V30 3928 H 377.98 0.111697 3.23507 0
M  V30 3929 H 376.887 2.40003 2.86966 0
M  V30 3930 H 378.22 3.14257 3.78819 0
M  V30 3931 N 379.872 -1.04064 1.18357 0
M  V30 3932 C 381.288 -1.2947 0.933258 0
M  V30 3933 C 381.488 -1.97466 -0.401169 0
M  V30 3934 O 380.544 -2.25528 -1.13549 0
M  V30 3935 C 381.857 -2.15337 2.09882 0
M  V30 3936 C 383.405 -2.28683 2.13712 0
M  V30 3937 C 383.88 -3.17917 3.29686 0
M  V30 3938 N 385.371 -3.25504 3.29547 0
M  V30 3939 C 386.106 -3.94706 4.15926 0
M  V30 3940 N 385.602 -4.66239 5.12439 0
M  V30 3941 N 387.395 -3.90986 4.0384 0
M  V30 3942 H 379.546 -0.583359 2.04232 0
M  V30 3943 H 381.809 -0.319921 0.892387 0
M  V30 3944 H 381.515 -1.72682 3.06389 0
M  V30 3945 H 381.389 -3.16015 2.05947 0
M  V30 3946 H 383.776 -2.70575 1.17784 0
M  V30 3947 H 383.857 -1.27596 2.21705 0
M  V30 3948 H 383.501 -2.76736 4.25887 0
M  V30 3949 H 383.431 -4.19036 3.1893 0
M  V30 3950 H 385.922 -2.74547 2.59677 0
M  V30 3951 H 386.235 -5.16638 5.74722 0
M  V30 3952 H 384.58 -4.65143 5.16398 0
M  V30 3953 H 387.771 -3.34234 3.27727 0
M  V30 3954 H 387.944 -4.44646 4.71375 0
M  V30 3955 N 381.35 -0.985608 -1.22978 0
M  V30 3956 C 382.28 -0.549649 -2.26939 0
M  V30 3957 C 383.261 0.419803 -1.64838 0
M  V30 3958 O 384.446 0.31203 -1.91677 0
M  V30 3959 C 381.576 0.143652 -3.47003 0
M  V30 3960 C 380.53 -0.743606 -4.21491 0
M  V30 3961 C 379.856 0.0822027 -5.34637 0
M  V30 3962 C 381.156 -2.03694 -4.80943 0
M  V30 3963 H 382.85 -1.41862 -2.63658 0
M  V30 3964 H 380.396 -0.683571 -1.26741 0
M  V30 3965 H 382.349 0.459985 -4.18882 0
M  V30 3966 H 381.073 1.04711 -3.09359 0
M  V30 3967 H 379.732 -1.04347 -3.51436 0
M  V30 3968 H 379.38 0.986359 -4.93234 0
M  V30 3969 H 379.08 -0.508377 -5.85397 0
M  V30 3970 H 380.604 0.392797 -6.09335 0
M  V30 3971 H 382.018 -1.78504 -5.44802 0
M  V30 3972 H 380.415 -2.57573 -5.42011 0
M  V30 3973 H 381.485 -2.72042 -4.01399 0
M  V30 3974 N 382.828 1.3818 -0.7579 0
M  V30 3975 C 384.244 1.5353 -0.435972 0
M  V30 3976 C 384.444 1.71961 1.05032 0
M  V30 3977 O 383.5 1.73307 1.83633 0
M  V30 3978 C 384.813 2.73989 -1.23898 0
M  V30 3979 C 386.361 2.87841 -1.22949 0
M  V30 3980 C 386.836 4.11266 -2.01554 0
M  V30 3981 N 388.327 4.18352 -1.98837 0
M  V30 3982 C 389.062 5.12856 -2.5645 0
M  V30 3983 N 388.558 6.13005 -3.22794 0
M  V30 3984 N 390.351 5.05238 -2.46356 0
M  V30 3985 H 382.502 1.24467 -1.7211 0
M  V30 3986 H 384.765 0.604982 -0.729864 0
M  V30 3987 H 384.471 2.66789 -2.29165 0
M  V30 3988 H 384.345 3.67294 -0.858764 0
M  V30 3989 H 386.732 2.9452 -0.184854 0
M  V30 3990 H 386.813 1.95534 -1.64924 0
M  V30 3991 H 386.457 4.05349 -3.06031 0
M  V30 3992 H 386.387 5.02661 -1.5697 0
M  V30 3993 H 388.878 3.46628 -1.50524 0
M  V30 3994 H 389.191 6.81619 -3.64165 0
M  V30 3995 H 387.536 6.13325 -3.2689 0
M  V30 3996 H 390.727 4.25938 -1.9415 0
M  V30 3997 H 390.9 5.78707 -2.91552 0
M  V30 3998 N 384.306 0.507319 1.49211 0
M  V30 3999 C 385.531 -0.033725 2.07373 0
M  V30 4000 C 385.956 -1.29485 1.36437 0
M  V30 4001 O 385.314 -1.76294 0.423087 0
M  V30 4002 C 385.362 -0.263945 3.59633 0
M  V30 4003 O 384.466 -1.33737 3.90113 0
M  V30 4004 H 383.807 0.0290331 0.663365 0
M  V30 4005 H 386.337 0.708749 1.91932 0
M  V30 4006 H 386.347 -0.493536 4.05004 0
M  V30 4007 H 385.022 0.657424 4.10671 0
M  V30 4008 H 383.599 -1.09224 3.56545 0
M  V30 4009 N 385.784 -1.5574 0.241426 0
M  V30 4010 C 387.032 -1.98417 -0.384075 0
M  V30 4011 C 387.353 -1.13078 -1.58866 0
M  V30 4012 O 386.623 -0.212312 -1.94746 0
M  V30 4013 H 385.203 -0.732813 -0.144894 0
M  V30 4014 H 387.865 -1.9193 0.338943 0
M  V30 4015 H 386.961 -3.04219 -0.696939 0
M  V30 4016 N 387.262 0.0317525 -1.57568 0
M  V30 4017 C 388.492 0.733884 -1.93126 0
M  V30 4018 C 388.9 1.69563 -0.839352 0
M  V30 4019 O 388.243 1.82681 0.193175 0
M  V30 4020 C 388.305 1.54798 -3.24465 0
M  V30 4021 C 387.969 0.751304 -4.50782 0
M  V30 4022 C 388.966 0.0527632 -5.19873 0
M  V30 4023 C 386.651 0.706639 -4.97305 0
M  V30 4024 C 388.645 -0.679774 -6.33765 0
M  V30 4025 C 386.332 -0.0296449 -6.11093 0
M  V30 4026 C 387.33 -0.721614 -6.79177 0
M  V30 4027 O 387.018 -1.44595 -7.90789 0
M  V30 4028 H 386.75 0.211459 -0.642076 0
M  V30 4029 H 389.304 -0.00585615 -2.05399 0
M  V30 4030 H 387.534 2.33147 -3.08512 0
M  V30 4031 H 389.223 2.13247 -3.4537 0
M  V30 4032 H 389.989 0.0783188 -4.84937 0
M  V30 4033 H 385.868 1.23474 -4.44157 0
M  V30 4034 H 389.412 -1.22042 -6.86842 0
M  V30 4035 H 385.309 -0.0571331 -6.45475 0
M  V30 4036 H 386.077 -1.35935 -8.07133 0
M  V30 4037 N 388.74 1.54641 0.303973 0
M  V30 4038 C 389.65 1.88439 1.39743 0
M  V30 4039 C 390.666 0.778239 1.55626 0
M  V30 4040 O 391.842 1.07442 1.70347 0
M  V30 4041 C 388.907 2.12212 2.74166 0
M  V30 4042 C 387.968 3.35936 2.67293 0
M  V30 4043 C 387.201 3.58566 3.95305 0
M  V30 4044 O 387.424 2.84263 4.9452 0
M  V30 4045 O 386.358 4.52078 3.97378 0
M  V30 4046 H 390.184 2.81458 1.14083 0
M  V30 4047 H 387.769 1.40793 0.499768 0
M  V30 4048 H 389.651 2.29067 3.53704 0
M  V30 4049 H 388.326 1.22379 2.99675 0
M  V30 4050 H 387.233 3.24448 1.86237 0
M  V30 4051 H 388.566 4.2589 2.46736 0
M  V30 4052 N 390.218 -0.567019 1.47046 0
M  V30 4053 C 391.495 -1.3276 1.43646 0
M  V30 4054 C 391.875 -2.1071 0.128186 0
M  V30 4055 O 391.223 -2.10441 -0.890326 0
M  V30 4056 C 391.433 -2.2404 2.67595 0
M  V30 4057 C 392.781 -2.85372 3.14401 0
M  V30 4058 O 393.805 -2.34346 2.68254 0
M  V30 4059 O 392.664 -3.78091 3.946 0
M  V30 4060 H 389.758 -0.597293 0.571988 0
M  V30 4061 H 392.304 -0.586735 1.59234 0
M  V30 4062 H 391.076 -1.65975 3.54356 0
M  V30 4063 H 390.699 -3.05439 2.54544 0
M  V30 4064 N 391.696 -1.35014 -0.812953 0
M  V30 4065 C 392.659 -1.27292 -1.90602 0
M  V30 4066 C 393.659 -0.185817 -1.59723 0
M  V30 4067 O 394.849 -0.439102 -1.68575 0
M  V30 4068 C 391.981 -0.967676 -3.26877 0
M  V30 4069 H 393.174 -2.24479 -1.9887 0
M  V30 4070 H 390.727 -1.19446 -1.00808 0
M  V30 4071 H 391.462 0.0005954 -3.243 0
M  V30 4072 H 391.247 -1.75412 -3.50675 0
M  V30 4073 H 392.737 -0.939085 -4.06904 0
M  V30 4074 N 393.175 1.03435 -1.18907 0
M  V30 4075 C 394.421 1.77005 -0.989798 0
M  V30 4076 C 394.754 1.88205 0.478816 0
M  V30 4077 O 394.029 1.39481 1.35556 0
M  V30 4078 C 394.312 3.19925 -1.65287 0
M  V30 4079 C 394.165 3.1663 -3.19477 0
M  V30 4080 C 395.484 4.18189 -1.37134 0
M  V30 4081 H 392.603 0.642538 -0.360991 0
M  V30 4082 H 395.245 1.20784 -1.46667 0
M  V30 4083 H 393.395 3.67929 -1.24741 0
M  V30 4084 H 395.067 2.76567 -3.692 0
M  V30 4085 H 393.31 2.54491 -3.51307 0
M  V30 4086 H 393.981 4.1758 -3.61013 0
M  V30 4087 H 396.457 3.78761 -1.72276 0
M  V30 4088 H 395.333 5.16394 -1.86087 0
M  V30 4089 H 395.594 4.41112 -0.295424 0
M  V30 4090 N 394.653 0.992116 1.22453 0
M  V30 4091 C 395.93 0.583508 1.86694 0
M  V30 4092 C 396.31 -0.9392 1.89056 0
M  V30 4093 O 395.658 -1.82081 1.38053 0
M  V30 4094 C 395.868 1.20304 3.2761 0
M  V30 4095 C 397.216 1.30308 4.0411 0
M  V30 4096 O 398.24 1.15737 3.36873 0
M  V30 4097 O 397.099 1.53615 5.24466 0
M  V30 4098 H 394.193 0.198129 0.802916 0
M  V30 4099 H 396.739 1.08794 1.30238 0
M  V30 4100 H 395.511 2.24461 3.2052 0
M  V30 4101 H 395.134 0.684144 3.9167 0
M  V30 4102 N 396.131 -1.37776 0.765217 0
M  V30 4103 C 397.361 -2.03828 0.337277 0
M  V30 4104 C 397.769 -1.57841 -1.04321 0
M  V30 4105 O 397.112 -0.752043 -1.67601 0
M  V30 4106 C 397.174 -3.58292 0.294407 0
M  V30 4107 C 396.838 -4.27384 1.61838 0
M  V30 4108 C 397.835 -4.51956 2.56967 0
M  V30 4109 C 395.52 -4.65345 1.89102 0
M  V30 4110 C 397.514 -5.13536 3.77571 0
M  V30 4111 C 395.201 -5.26647 3.09978 0
M  V30 4112 C 396.199 -5.50679 4.04032 0
M  V30 4113 O 395.887 -6.10702 5.2278 0
M  V30 4114 H 395.619 -0.661292 0.140248 0
M  V30 4115 H 398.173 -1.77222 1.03834 0
M  V30 4116 H 396.403 -3.83918 -0.462983 0
M  V30 4117 H 398.092 -4.05763 -0.105581 0
M  V30 4118 H 398.858 -4.23048 2.37183 0
M  V30 4119 H 394.737 -4.45978 1.16725 0
M  V30 4120 H 398.281 -5.3221 4.50997 0
M  V30 4121 H 394.178 -5.54979 3.29649 0
M  V30 4122 H 394.946 -6.29183 5.23517 0
M  V30 4123 N 397.609 -0.515225 -1.4894 0
M  V30 4124 C 398.557 0.269115 -2.31038 0
M  V30 4125 C 399.551 0.949443 -1.40292 0
M  V30 4126 O 400.757 0.87551 -1.57273 0
M  V30 4127 H 397.132 0.10565 -0.744542 0
M  V30 4128 H 399.103 -0.443096 -2.95092 0
M  V30 4129 C 397.852 1.31213 -3.21991 0
M  V30 4130 H 397.175 0.798034 -3.91754 0
M  V30 4131 H 398.615 1.83263 -3.82349 0
M  V30 4132 C 397.074 2.33791 -2.42576 0
M  V30 4133 O 397.604 3.3995 -2.14003 0
M  V30 4134 N 395.81 2.06625 -2.0434 0
M  V30 4135 H 395.357 1.20314 -2.27777 0
M  V30 4136 H 395.315 2.75483 -1.51514 0
M  V30 4137 N 399.087 1.5561 -0.249682 0
M  V30 4138 C 400.503 1.59254 0.105103 0
M  V30 4139 C 400.703 1.26685 1.56694 0
M  V30 4140 O 399.759 1.0155 2.31179 0
M  V30 4141 C 401.072 2.99687 -0.246592 0
M  V30 4142 C 402.62 3.12416 -0.191118 0
M  V30 4143 C 403.095 4.55074 -0.516885 0
M  V30 4144 N 404.586 4.60835 -0.467489 0
M  V30 4145 C 405.321 5.69201 -0.69268 0
M  V30 4146 N 404.817 6.85817 -0.981146 0
M  V30 4147 N 406.61 5.58635 -0.623198 0
M  V30 4148 H 398.761 1.75049 -1.20298 0
M  V30 4149 H 401.024 0.815003 -0.484225 0
M  V30 4150 H 400.73 3.28267 -1.26228 0
M  V30 4151 H 400.604 3.74798 0.424962 0
M  V30 4152 H 402.991 2.83615 0.815247 0
M  V30 4153 H 403.072 2.39573 -0.896563 0
M  V30 4154 H 402.716 4.84596 -1.52082 0
M  V30 4155 H 402.646 5.26181 0.210068 0
M  V30 4156 H 405.137 3.7705 -0.253373 0
M  V30 4157 H 405.45 7.64341 -1.14032 0
M  V30 4158 H 403.795 6.87494 -1.01865 0
M  V30 4159 H 406.986 4.66406 -0.397863 0
M  V30 4160 H 407.159 6.43017 -0.802093 0
M  V30 4161 N 400.565 -0.0233959 1.57583 0
M  V30 4162 C 401.795 -0.723631 1.93513 0
M  V30 4163 C 402.203 -1.69115 0.848333 0
M  V30 4164 O 401.546 -1.82781 -0.183484 0
M  V30 4165 C 401.608 -1.53075 3.25282 0
M  V30 4166 C 401.272 -0.727388 4.51174 0
M  V30 4167 C 402.269 -0.0251924 5.19894 0
M  V30 4168 C 399.954 -0.680256 4.97672 0
M  V30 4169 C 401.948 0.713374 6.33395 0
M  V30 4170 C 399.635 0.0620523 6.11068 0
M  V30 4171 C 400.633 0.757622 6.78785 0
M  V30 4172 O 400.321 1.48787 7.90011 0
M  V30 4173 H 400.053 -0.208051 0.643188 0
M  V30 4174 H 402.607 0.0167489 2.05393 0
M  V30 4175 H 400.837 -2.31508 3.09744 0
M  V30 4176 H 402.526 -2.11413 3.46496 0
M  V30 4177 H 403.292 -0.0526003 4.84971 0
M  V30 4178 H 399.171 -1.21116 4.44805 0
M  V30 4179 H 402.715 1.25683 6.86185 0
M  V30 4180 H 398.612 0.0913634 6.45435 0
M  V30 4181 H 399.38 1.40213 8.06401 0
M  V30 4182 N 402.043 -1.548 -0.295768 0
M  V30 4183 C 403.289 -1.74588 -1.03184 0
M  V30 4184 C 403.622 -0.532962 -1.86744 0
M  V30 4185 O 402.897 0.469872 -1.88739 0
M  V30 4186 C 403.18 -3.03791 -1.93347 0
M  V30 4187 C 403.033 -4.35392 -1.12933 0
M  V30 4188 C 404.352 -3.28892 -2.92435 0
M  V30 4189 H 401.471 -0.635221 -0.373715 0
M  V30 4190 H 404.113 -1.87519 -0.30606 0
M  V30 4191 H 402.263 -2.92898 -2.55232 0
M  V30 4192 H 403.935 -4.58211 -0.532943 0
M  V30 4193 H 402.178 -4.31642 -0.432168 0
M  V30 4194 H 402.849 -5.22074 -1.79284 0
M  V30 4195 H 405.325 -3.39429 -2.4068 0
M  V30 4196 H 404.201 -4.20603 -3.52682 0
M  V30 4197 H 404.462 -2.47437 -3.6637 0
M  V30 4198 N 403.521 0.559213 -1.47345 0
M  V30 4199 C 404.769 1.31388 -1.53563 0
M  V30 4200 C 405.09 1.93985 -0.198678 0
M  V30 4201 O 404.36 1.79825 0.777167 0
M  V30 4202 H 402.94 0.487901 -0.565652 0
M  V30 4203 H 405.602 0.65315 -1.8363 0
M  V30 4204 H 404.698 2.10844 -2.30111 0
M  V30 4205 N 404.999 1.35443 0.805782 0
M  V30 4206 C 405.947 1.28465 1.93906 0
M  V30 4207 C 406.941 0.17943 1.68447 0
M  V30 4208 O 408.147 0.345459 1.76654 0
M  V30 4209 H 404.522 0.399528 0.637088 0
M  V30 4210 H 406.493 2.24206 1.96912 0
M  V30 4211 C 405.242 1.07432 3.30687 0
M  V30 4212 H 404.565 1.91716 3.50835 0
M  V30 4213 H 406.005 1.06591 4.10383 0
M  V30 4214 C 404.464 -0.22179 3.36169 0
M  V30 4215 O 404.994 -1.21731 3.82811 0
M  V30 4216 N 403.2 -0.260841 2.89427 0
M  V30 4217 H 402.747 0.549884 2.51663 0
M  V30 4218 H 402.705 -1.12777 2.93477 0
M  V30 4219 N 406.477 -1.02803 1.19454 0
M  V30 4220 C 407.726 -1.7562 0.991996 0
M  V30 4221 C 408.039 -1.89672 -0.477901 0
M  V30 4222 O 409.245 -2.59468 -0.799287 0
M  V30 4223 C 407.701 -3.15812 1.72601 0
M  V30 4224 C 407.309 -3.0981 3.23607 0
M  V30 4225 C 409.053 -3.92918 1.60674 0
M  V30 4226 C 406.96 -4.44939 3.89594 0
M  V30 4227 H 405.89 -0.658352 0.367543 0
M  V30 4228 H 408.541 -1.15044 1.42959 0
M  V30 4229 H 406.923 -3.7686 1.21624 0
M  V30 4230 H 408.097 -2.58138 3.81709 0
M  V30 4231 H 406.412 -2.46201 3.35819 0
M  V30 4232 H 409.009 -4.9287 2.07323 0
M  V30 4233 H 409.352 -4.12502 0.561025 0
M  V30 4234 H 409.885 -3.38472 2.09001 0
M  V30 4235 H 406.624 -4.30559 4.94267 0
M  V30 4236 H 406.144 -4.96664 3.36281 0
M  V30 4237 H 407.823 -5.1382 3.93189 0
M  V30 4238 N 407.956 -0.998596 -1.21925 0
M  V30 4239 C 409.186 -0.695276 -1.94549 0
M  V30 4240 C 409.594 0.745079 -1.73911 0
M  V30 4241 O 408.937 1.51507 -1.03881 0
M  V30 4242 C 408.999 -0.928485 -3.47303 0
M  V30 4243 C 408.663 -2.35443 -3.91683 0
M  V30 4244 C 409.66 -3.33428 -3.98901 0
M  V30 4245 C 407.345 -2.69038 -4.24174 0
M  V30 4246 C 409.339 -4.63079 -4.37992 0
M  V30 4247 C 407.026 -3.98906 -4.62944 0
M  V30 4248 C 408.024 -4.95738 -4.69822 0
M  V30 4249 O 407.712 -6.23285 -5.07711 0
M  V30 4250 H 407.444 -0.255902 -0.625692 0
M  V30 4251 H 409.998 -1.33767 -1.5587 0
M  V30 4252 H 408.228 -0.228917 -3.86022 0
M  V30 4253 H 409.917 -0.619539 -4.01144 0
M  V30 4254 H 410.683 -3.08807 -3.73983 0
M  V30 4255 H 406.562 -1.94367 -4.18022 0
M  V30 4256 H 410.106 -5.38658 -4.43275 0
M  V30 4257 H 406.003 -4.23314 -4.87314 0
M  V30 4258 H 406.771 -6.27306 -5.25766 0
M  V30 4259 N 409.434 1.37368 -0.772513 0
M  V30 4260 C 410.662 2.03942 -0.348588 0
M  V30 4261 C 411.077 1.58264 1.02947 0
M  V30 4262 O 410.434 0.764246 1.65727 0
M  V30 4263 C 410.485 3.5946 -0.38351 0
M  V30 4264 O 410.206 4.03468 -1.70721 0
M  V30 4265 C 411.707 4.4327 0.0519152 0
M  V30 4266 H 408.927 0.654931 -0.145966 0
M  V30 4267 H 411.471 1.75686 -1.04665 0
M  V30 4268 H 409.626 3.86486 0.265978 0
M  V30 4269 H 410.04 4.97991 -1.64636 0
M  V30 4270 H 411.514 5.51995 -0.0236733 0
M  V30 4271 H 411.991 4.2514 1.10238 0
M  V30 4272 H 412.597 4.21471 -0.569415 0
M  V30 4273 N 410.912 0.523116 1.48665 0
M  V30 4274 C 412.16 -0.0134497 2.02096 0
M  V30 4275 C 412.481 -1.35418 1.40311 0
M  V30 4276 O 411.751 -1.87543 0.566074 0
M  V30 4277 H 410.331 -0.00795915 0.746958 0
M  V30 4278 H 412.993 0.685388 1.82451 0
M  V30 4279 H 412.089 -0.126849 3.11842 0
M  V30 4280 N 412.39 -1.55475 0.257931 0
M  V30 4281 C 413.615 -2.04064 -0.370488 0
M  V30 4282 C 414.04 -1.13565 -1.49948 0
M  V30 4283 O 413.398 -0.130781 -1.80828 0
M  V30 4284 C 413.446 -3.50554 -0.845237 0
M  V30 4285 O 412.55 -3.63173 -1.95394 0
M  V30 4286 H 411.891 -0.659257 -0.0792243 0
M  V30 4287 H 414.421 -2.00903 0.387212 0
M  V30 4288 H 414.431 -3.91588 -1.14555 0
M  V30 4289 H 413.106 -4.15896 -0.0191259 0
M  V30 4290 H 411.683 -3.34039 -1.65748 0
M  V30 4291 N 413.868 0.0150385 -1.57593 0
M  V30 4292 C 414.798 1.01047 -2.10503 0
M  V30 4293 C 415.779 1.36816 -1.01071 0
M  V30 4294 O 416.964 1.45455 -1.28672 0
M  V30 4295 C 414.094 2.30708 -2.59598 0
M  V30 4296 C 413.048 2.09142 -3.73421 0
M  V30 4297 C 412.374 3.44685 -4.08774 0
M  V30 4298 C 413.674 1.46619 -5.01298 0
M  V30 4299 H 415.368 0.569978 -2.93925 0
M  V30 4300 H 412.914 0.272724 -1.41394 0
M  V30 4301 H 414.867 3.00687 -2.95238 0
M  V30 4302 H 413.591 2.76843 -1.73279 0
M  V30 4303 H 412.25 1.41592 -3.38153 0
M  V30 4304 H 411.898 3.88495 -3.195 0
M  V30 4305 H 411.598 3.31077 -4.8545 0
M  V30 4306 H 413.122 4.16004 -4.4696 0
M  V30 4307 H 414.536 2.06535 -5.34805 0
M  V30 4308 H 412.933 1.43544 -5.82679 0
M  V30 4309 H 414.003 0.433611 -4.82957 0
M  V30 4310 N 415.346 1.54954 0.287554 0
M  V30 4311 C 416.576 1.78622 1.03816 0
M  V30 4312 C 416.984 0.552451 1.80955 0
M  V30 4313 O 416.327 -0.487665 1.77109 0
M  V30 4314 C 416.389 2.94975 2.055 0
M  V30 4315 C 416.053 4.32565 1.47433 0
M  V30 4316 C 417.05 5.12096 0.897436 0
M  V30 4317 C 414.735 4.79195 1.50591 0
M  V30 4318 C 416.729 6.36383 0.359851 0
M  V30 4319 C 414.416 6.03441 0.964459 0
M  V30 4320 C 415.414 6.81872 0.392413 0
M  V30 4321 O 415.102 8.03777 -0.140788 0
M  V30 4322 H 414.834 0.599144 0.313053 0
M  V30 4323 H 417.388 2.02761 0.328225 0
M  V30 4324 H 415.618 2.66493 2.80211 0
M  V30 4325 H 417.307 3.06097 2.6657 0
M  V30 4326 H 418.073 4.77209 0.865841 0
M  V30 4327 H 413.952 4.18167 1.94055 0
M  V30 4328 H 417.496 6.97545 -0.0872951 0
M  V30 4329 H 413.393 6.37813 0.993246 0
M  V30 4330 H 414.161 8.18495 -0.0287617 0
M  V30 4331 N 416.824 -0.551391 1.4764 0
M  V30 4332 C 417.754 -1.66757 1.63445 0
M  V30 4333 C 418.735 -1.63077 0.483742 0
M  V30 4334 O 419.92 -1.80607 0.71377 0
M  V30 4335 C 417.05 -3.05387 1.65396 0
M  V30 4336 C 416.004 -3.23918 2.79752 0
M  V30 4337 C 415.33 -4.63393 2.66779 0
M  V30 4338 C 416.63 -3.08735 4.21284 0
M  V30 4339 H 418.324 -1.53786 2.56886 0
M  V30 4340 H 415.87 -0.738415 1.23626 0
M  V30 4341 H 417.823 -3.83325 1.75043 0
M  V30 4342 H 416.547 -3.19332 0.685195 0
M  V30 4343 H 415.206 -2.48391 2.69625 0
M  V30 4344 H 414.854 -4.74144 1.67918 0
M  V30 4345 H 414.554 -4.7674 3.43501 0
M  V30 4346 H 416.078 -5.43458 2.78364 0
M  V30 4347 H 417.492 -3.76484 4.32357 0
M  V30 4348 H 415.889 -3.33588 4.98838 0
M  V30 4349 H 416.959 -2.0541 4.39243 0
M  V30 4350 N 418.302 -1.35869 -0.798587 0
M  V30 4351 C 419.527 -1.32883 -1.59238 0
M  V30 4352 C 419.952 0.0894587 -1.87887 0
M  V30 4353 O 419.31 1.05869 -1.47178 0
M  V30 4354 C 419.358 -2.14892 -2.89575 0
M  V30 4355 O 418.462 -1.53512 -3.82763 0
M  V30 4356 H 417.803 -0.455236 -0.48338 0
M  V30 4357 H 420.333 -1.79024 -0.990539 0
M  V30 4358 H 420.343 -2.27139 -3.38928 0
M  V30 4359 H 419.018 -3.17998 -2.68049 0
M  V30 4360 H 417.595 -1.50153 -3.41334 0
M  V30 4361 N 419.78 1.02168 -1.19998 0
M  V30 4362 C 420.71 2.12488 -0.96804 0
M  V30 4363 C 421.691 1.69799 0.101185 0
M  V30 4364 O 422.876 1.94121 -0.0552993 0
M  V30 4365 C 420.006 3.43479 -0.513776 0
M  V30 4366 C 418.96 3.99884 -1.52566 0
M  V30 4367 C 418.286 5.26582 -0.928214 0
M  V30 4368 C 419.586 4.33861 -2.90795 0
M  V30 4369 H 421.28 2.32149 -1.89069 0
M  V30 4370 H 418.826 1.11564 -0.910468 0
M  V30 4371 H 420.779 4.20036 -0.338774 0
M  V30 4372 H 419.503 3.23561 0.444493 0
M  V30 4373 H 418.162 3.25429 -1.68794 0
M  V30 4374 H 417.81 5.02986 0.0378289 0
M  V30 4375 H 417.51 5.65284 -1.60397 0
M  V30 4376 H 419.034 6.05799 -0.764167 0
M  V30 4377 H 420.448 5.01327 -2.78109 0
M  V30 4378 H 418.845 4.83664 -3.55231 0
M  V30 4379 H 419.915 3.42848 -3.42904 0
M  V30 4380 N 421.258 1.00505 1.21394 0
M  V30 4381 C 422.507 0.683159 1.89778 0
M  V30 4382 C 422.82 -0.789471 1.7896 0
M  V30 4383 O 424.026 -1.22344 2.42372 0
M  V30 4384 C 422.482 1.17146 3.40301 0
M  V30 4385 C 422.09 2.67017 3.5973 0
M  V30 4386 C 423.834 0.924461 4.14311 0
M  V30 4387 C 421.741 3.09387 5.04017 0
M  V30 4388 H 420.671 0.25183 0.710702 0
M  V30 4389 H 423.322 1.21622 1.37406 0
M  V30 4390 H 421.704 0.566451 3.91928 0
M  V30 4391 H 422.878 3.32968 3.18542 0
M  V30 4392 H 421.193 2.89732 2.99073 0
M  V30 4393 H 423.79 1.21658 5.20676 0
M  V30 4394 H 424.133 -0.139286 4.16067 0
M  V30 4395 H 424.666 1.49226 3.6875 0
M  V30 4396 H 421.405 4.14989 5.07409 0
M  V30 4397 H 420.925 2.48149 5.46061 0
M  V30 4398 H 422.604 3.01371 5.72525 0
M  V30 4399 N 422.737 -1.36956 0.779787 0
M  V30 4400 C 423.962 -2.04283 0.358224 0
M  V30 4401 C 424.387 -1.58422 -1.01411 0
M  V30 4402 O 423.745 -0.748179 -1.65142 0
M  V30 4403 C 423.793 -3.58152 0.419479 0
M  V30 4404 O 422.897 -4.08342 -0.577142 0
M  V30 4405 H 422.238 -0.645967 0.153698 0
M  V30 4406 H 424.768 -1.75108 1.05822 0
M  V30 4407 H 424.778 -4.07041 0.279636 0
M  V30 4408 H 423.453 -3.90886 1.42061 0
M  V30 4409 H 422.03 -3.70751 -0.399755 0
M  V30 4410 N 424.215 -0.530993 -1.48385 0
M  V30 4411 C 425.145 0.219985 -2.32461 0
M  V30 4412 C 426.126 0.934111 -1.42156 0
M  V30 4413 O 427.311 0.919694 -1.71042 0
M  V30 4414 C 424.441 1.26674 -3.23375 0
M  V30 4415 C 423.395 0.67069 -4.22712 0
M  V30 4416 C 422.721 1.82017 -5.02766 0
M  V30 4417 C 424.021 -0.358268 -5.2107 0
M  V30 4418 H 425.715 -0.48187 -2.95497 0
M  V30 4419 H 423.261 -0.233182 -1.42099 0
M  V30 4420 H 425.214 1.80006 -3.81019 0
M  V30 4421 H 423.938 1.99818 -2.58341 0
M  V30 4422 H 422.597 0.158878 -3.66256 0
M  V30 4423 H 422.245 2.54002 -4.34157 0
M  V30 4424 H 421.945 1.42727 -5.70003 0
M  V30 4425 H 423.469 2.35725 -5.63264 0
M  V30 4426 H 424.883 0.0880081 -5.73232 0
M  V30 4427 H 423.28 -0.66861 -5.96364 0
M  V30 4428 H 424.35 -1.26367 -4.68145 0
M  V30 4429 N 425.693 1.55336 -0.266172 0
M  V30 4430 C 426.623 2.25146 0.618981 0
M  V30 4431 C 427.604 1.23845 1.16604 0
M  V30 4432 O 428.789 1.52544 1.20183 0
M  V30 4433 C 425.919 2.96572 1.80728 0
M  V30 4434 C 424.873 4.04726 1.39215 0
M  V30 4435 C 424.199 4.63678 2.66283 0
M  V30 4436 C 425.499 5.19407 0.548942 0
M  V30 4437 H 427.193 2.99377 0.0368116 0
M  V30 4438 H 424.739 1.43991 0.0162651 0
M  V30 4439 H 426.692 3.44116 2.43232 0
M  V30 4440 H 425.416 2.19861 2.41514 0
M  V30 4441 H 424.075 3.57979 0.790351 0
M  V30 4442 H 423.723 3.83646 3.25308 0
M  V30 4443 H 423.423 5.367 2.39222 0
M  V30 4444 H 424.947 5.13967 3.29651 0
M  V30 4445 H 426.361 5.63059 1.07876 0
M  V30 4446 H 424.758 5.98936 0.373593 0
M  V30 4447 H 425.828 4.8295 -0.434394 0
M  V30 4448 N 427.171 -0.0066808 1.57599 0
M  V30 4449 C 428.081 -1.01671 2.11424 0
M  V30 4450 C 429.097 -1.38143 1.05795 0
M  V30 4451 O 430.273 -1.47011 1.37658 0
M  V30 4452 C 427.338 -2.29192 2.60139 0
M  V30 4453 C 426.399 -1.99094 3.80342 0
M  V30 4454 C 425.632 -3.20535 4.26724 0
M  V30 4455 O 425.855 -4.3199 3.72479 0
M  V30 4456 O 424.789 -3.04924 5.18946 0
M  V30 4457 H 428.615 -0.589181 2.9793 0
M  V30 4458 H 426.2 -0.225091 1.47695 0
M  V30 4459 H 428.082 -3.0412 2.917 0
M  V30 4460 H 426.757 -2.71195 1.76733 0
M  V30 4461 H 425.664 -1.21663 3.53764 0
M  V30 4462 H 426.997 -1.61931 4.648 0
M  V30 4463 N 428.649 -1.55105 -0.279332 0
M  V30 4464 C 429.597 -1.88333 -1.36505 0
M  V30 4465 C 430.591 -0.759043 -1.51443 0
M  V30 4466 O 431.797 -0.943312 -1.53302 0
M  V30 4467 H 428.172 -0.59766 -0.456406 0
M  V30 4468 H 430.143 -2.79041 -1.05728 0
M  V30 4469 C 428.892 -2.16628 -2.7197 0
M  V30 4470 H 428.215 -3.02624 -2.61264 0
M  V30 4471 H 429.655 -2.43803 -3.46895 0
M  V30 4472 C 428.114 -0.971807 -3.22579 0
M  V30 4473 O 428.644 -0.203228 -4.01186 0
M  V30 4474 N 426.85 -0.771238 -2.80179 0
M  V30 4475 H 426.397 -1.39792 -2.1637 0
M  V30 4476 H 426.355 0.0263667 -3.14389 0
M  V30 4477 N 430.127 0.543554 -1.4793 0
M  V30 4478 C 431.543 0.870806 -1.3375 0
M  V30 4479 C 431.743 1.9864 -0.338261 0
M  V30 4480 O 430.799 2.51305 0.245371 0
M  V30 4481 C 432.112 1.25114 -2.73435 0
M  V30 4482 C 433.66 1.3618 -2.81823 0
M  V30 4483 C 434.135 1.77563 -4.22179 0
M  V30 4484 N 435.626 1.8469 -4.24787 0
M  V30 4485 C 436.361 2.18067 -5.30315 0
M  V30 4486 N 435.857 2.49963 -6.46135 0
M  V30 4487 N 437.65 2.18958 -5.17701 0
M  V30 4488 H 429.801 -0.19275 -2.11524 0
M  V30 4489 H 432.064 -0.0235777 -0.947707 0
M  V30 4490 H 431.77 0.50514 -3.48053 0
M  V30 4491 H 431.644 2.20431 -3.06088 0
M  V30 4492 H 434.031 2.09859 -2.07468 0
M  V30 4493 H 434.112 0.390169 -2.52807 0
M  V30 4494 H 433.756 1.04449 -4.97044 0
M  V30 4495 H 433.686 2.75753 -4.48629 0
M  V30 4496 H 436.177 1.62372 -3.41239 0
M  V30 4497 H 436.49 2.74497 -7.22406 0
M  V30 4498 H 434.835 2.47513 -6.49432 0
M  V30 4499 H 438.026 1.93488 -4.2624 0
M  V30 4500 H 438.199 2.44639 -6.00047 0
M  V30 4501 N 431.605 1.3629 0.791371 0
M  V30 4502 C 432.882 1.20962 1.53712 0
M  V30 4503 C 433.262 -0.205021 2.10102 0
M  V30 4504 O 432.61 -1.21042 1.93807 0
M  V30 4505 C 432.82 2.29002 2.63361 0
M  V30 4506 C 434.168 2.65572 3.31295 0
M  V30 4507 O 435.192 2.2803 2.73643 0
M  V30 4508 O 434.051 3.3018 4.35481 0
M  V30 4509 H 431.145 0.47086 0.679867 0
M  V30 4510 H 433.691 1.48016 0.830021 0
M  V30 4511 H 432.463 3.2382 2.19674 0
M  V30 4512 H 432.086 2.03303 3.41692 0
M  V30 4513 N 433.083 -1.0153 1.20538 0
M  V30 4514 C 434.013 -2.11972 0.979295 0
M  V30 4515 C 434.994 -1.6985 -0.0921787 0
M  V30 4516 O 436.179 -1.94089 0.0655932 0
M  V30 4517 C 433.309 -3.43201 0.531984 0
M  V30 4518 C 432.263 -3.9907 1.54685 0
M  V30 4519 C 431.589 -5.26082 0.956127 0
M  V30 4520 C 432.889 -4.32313 2.93092 0
M  V30 4521 H 434.583 -2.31143 1.90298 0
M  V30 4522 H 432.129 -1.11079 0.916372 0
M  V30 4523 H 434.082 -4.1985 0.361044 0
M  V30 4524 H 432.806 -3.23792 -0.427327 0
M  V30 4525 H 431.465 -3.2453 1.70517 0
M  V30 4526 H 431.113 -5.02999 -0.0111538 0
M  V30 4527 H 430.813 -5.64426 1.63393 0
M  V30 4528 H 432.337 -6.05386 0.796284 0
M  V30 4529 H 433.751 -4.99845 2.80763 0
M  V30 4530 H 432.148 -4.81774 3.57791 0
M  V30 4531 H 433.218 -3.41025 3.44717 0
M  V30 4532 N 434.561 -1.01147 -1.20859 0
M  V30 4533 C 435.493 -0.535546 -2.22855 0
M  V30 4534 C 436.506 0.379323 -1.58319 0
M  V30 4535 O 437.695 0.178489 -1.77605 0
M  V30 4536 C 434.795 0.240962 -3.38042 0
M  V30 4537 C 433.968 -0.674562 -4.32167 0
M  V30 4538 C 433.027 0.053467 -5.26173 0
M  V30 4539 O 432.053 -0.567339 -5.66366 0
M  V30 4540 N 433.255 1.32997 -5.65059 0
M  V30 4541 H 436.02 -1.41268 -2.64317 0
M  V30 4542 H 433.581 -0.888386 -1.35349 0
M  V30 4543 H 435.573 0.737115 -3.97931 0
M  V30 4544 H 434.143 1.01935 -2.95513 0
M  V30 4545 H 433.363 -1.35111 -3.70322 0
M  V30 4546 H 434.651 -1.2974 -4.91981 0
M  V30 4547 H 434.049 1.85536 -5.34409 0
M  V30 4548 H 432.606 1.77095 -6.2728 0
M  V30 4549 N 436.039 1.36541 -0.78704 0
M  V30 4550 C 437.002 2.28413 -0.189778 0
M  V30 4551 C 438.002 1.48719 0.611499 0
M  V30 4552 O 439.192 1.68737 0.432842 0
M  V30 4553 C 436.324 3.32824 0.737638 0
M  V30 4554 H 437.517 2.82743 -0.999831 0
M  V30 4555 H 435.07 1.46065 -0.556298 0
M  V30 4556 H 435.805 2.83646 1.57212 0
M  V30 4557 H 435.59 3.91752 0.165044 0
M  V30 4558 H 437.08 4.0144 1.15047 0
M  V30 4559 N 437.518 0.538854 1.48102 0
M  V30 4560 C 438.766 0.00798599 2.02098 0
M  V30 4561 C 439.087 -1.33922 1.41739 0
M  V30 4562 O 438.357 -1.86932 0.585934 0
M  V30 4563 H 436.937 -3.62179e-05 0.747 0
M  V30 4564 H 439.599 0.7047 1.81714 0
M  V30 4565 H 438.695 -0.0937672 3.11959 0
M  V30 4566 N 438.996 -1.55193 0.274407 0
M  V30 4567 C 439.906 -2.26164 -0.623473 0
M  V30 4568 C 440.922 -1.28729 -1.17068 0
M  V30 4569 O 442.098 -1.61663 -1.20112 0
M  V30 4570 C 439.163 -2.96833 -1.7914 0
M  V30 4571 C 438.224 -4.09745 -1.28093 0
M  V30 4572 C 437.457 -4.77034 -2.3932 0
M  V30 4573 O 437.68 -4.4353 -3.5866 0
M  V30 4574 O 436.614 -5.64996 -2.07516 0
M  V30 4575 H 440.44 -3.03661 -0.0485661 0
M  V30 4576 H 438.025 -1.49341 0.0418382 0
M  V30 4577 H 439.907 -3.41248 -2.4724 0
M  V30 4578 H 438.582 -2.22253 -2.35341 0
M  V30 4579 H 437.489 -3.69787 -0.566416 0
M  V30 4580 H 438.822 -4.86224 -0.764683 0
M  V30 4581 N 440.474 -0.00167713 -1.576 0
M  V30 4582 C 441.702 0.693759 -1.94922 0
M  V30 4583 C 442.117 1.67215 -0.876626 0
M  V30 4584 O 441.474 1.81929 0.144279 0
M  V30 4585 C 441.525 1.42416 -3.32265 0
M  V30 4586 O 441.246 0.485014 -4.35407 0
M  V30 4587 C 442.747 2.21395 -3.84056 0
M  V30 4588 H 439.967 0.193118 -0.642609 0
M  V30 4589 H 442.511 -0.0532952 -2.04431 0
M  V30 4590 H 440.666 2.12284 -3.24059 0
M  V30 4591 H 441.08 1.00053 -5.14868 0
M  V30 4592 H 442.554 2.67996 -4.82578 0
M  V30 4593 H 443.031 3.04142 -3.16851 0
M  V30 4594 H 443.637 1.56542 -3.95443 0
M  V30 4595 N 441.952 1.55251 0.271103 0
M  V30 4596 C 443.201 1.75151 1.00025 0
M  V30 4597 C 443.514 0.561041 1.87381 0
M  V30 4598 O 444.72 0.642506 2.63788 0
M  V30 4599 C 443.176 3.09999 1.82835 0
M  V30 4600 C 442.784 4.3662 1.00336 0
M  V30 4601 C 444.528 3.39249 2.55168 0
M  V30 4602 C 442.435 5.62506 1.82595 0
M  V30 4603 H 441.365 0.652877 0.377183 0
M  V30 4604 H 444.016 1.81708 0.255843 0
M  V30 4605 H 442.398 2.97485 2.61378 0
M  V30 4606 H 443.572 4.60055 0.261959 0
M  V30 4607 H 441.887 4.14527 0.394486 0
M  V30 4608 H 444.484 4.3051 3.1712 0
M  V30 4609 H 444.827 2.59467 3.2555 0
M  V30 4610 H 445.36 3.52869 1.83653 0
M  V30 4611 H 442.099 6.45041 1.16631 0
M  V30 4612 H 441.619 5.43211 2.54327 0
M  V30 4613 H 443.298 6.00875 2.39913 0
M  V30 4614 N 443.43 -0.535701 1.48216 0
M  V30 4615 C 444.678 -1.28928 1.55634 0
M  V30 4616 C 444.999 -1.93645 0.229514 0
M  V30 4617 O 444.269 -1.81038 -0.74846 0
M  V30 4618 H 442.849 -0.47884 0.573342 0
M  V30 4619 H 445.511 -0.623853 1.84646 0
M  V30 4620 H 444.607 -2.07157 2.33436 0
M  V30 4621 N 444.908 -1.36708 -0.784132 0
M  V30 4622 C 445.838 -1.34153 -1.91116 0
M  V30 4623 C 446.819 -0.212121 -1.68772 0
M  V30 4624 O 448.004 -0.410581 -1.8981 0
M  V30 4625 C 445.134 -1.13535 -3.28218 0
M  V30 4626 C 444.088 -2.23356 -3.65097 0
M  V30 4627 C 443.414 -1.87875 -5.00607 0
M  V30 4628 C 444.714 -3.65473 -3.73131 0
M  V30 4629 H 446.408 -2.28459 -1.93512 0
M  V30 4630 H 443.954 -1.09973 -0.929618 0
M  V30 4631 H 445.907 -1.10381 -4.06687 0
M  V30 4632 H 444.631 -0.156804 -3.26223 0
M  V30 4633 H 443.29 -2.25645 -2.88929 0
M  V30 4634 H 442.938 -0.885814 -4.95139 0
M  V30 4635 H 442.638 -2.61406 -5.26252 0
M  V30 4636 H 444.162 -1.86286 -5.81489 0
M  V30 4637 H 445.576 -3.65382 -4.41779 0
M  V30 4638 H 443.973 -4.37953 -4.10265 0
M  V30 4639 H 445.043 -3.99995 -2.74102 0
M  V30 4640 N 446.386 1.0089 -1.21074 0
M  V30 4641 C 447.633 1.74607 -1.0256 0
M  V30 4642 C 447.961 1.89426 0.44136 0
M  V30 4643 O 447.216 1.42266 1.34384 0
M  V30 4644 C 447.515 3.16335 -1.66334 0
M  V30 4645 C 447.181 3.21474 -3.16173 0
M  V30 4646 C 445.843 3.22583 -3.57062 0
M  V30 4647 C 448.195 3.19025 -4.12156 0
M  V30 4648 C 445.523 3.18925 -4.92446 0
M  V30 4649 C 447.875 3.16909 -5.47496 0
M  V30 4650 C 446.539 3.16326 -5.87787 0
M  V30 4651 H 445.809 0.638933 -0.375294 0
M  V30 4652 H 448.456 1.18274 -1.50611 0
M  V30 4653 H 446.761 3.75876 -1.10566 0
M  V30 4654 H 448.458 3.72083 -1.49516 0
M  V30 4655 H 445.048 3.2135 -2.83605 0
M  V30 4656 H 449.232 3.17332 -3.81595 0
M  V30 4657 H 444.488 3.16809 -5.22917 0
M  V30 4658 H 448.662 3.13968 -6.21609 0
M  V30 4659 H 446.289 3.13246 -6.92662 0
M  V30 4660 N 447.864 1.01787 1.20321 0
M  V30 4661 C 449.089 0.727009 1.9424 0
M  V30 4662 C 449.514 -0.706179 1.74341 0
M  V30 4663 O 448.872 -1.48609 1.03852 0
M  V30 4664 C 448.92 1.06958 3.44372 0
M  V30 4665 O 448.024 0.181983 4.11998 0
M  V30 4666 H 447.365 0.269626 0.606793 0
M  V30 4667 H 449.895 1.36158 1.52716 0
M  V30 4668 H 449.905 1.02182 3.94997 0
M  V30 4669 H 448.58 2.11378 3.58179 0
M  V30 4670 H 447.157 0.287378 3.71791 0
M  V30 4671 N 449.342 -1.36122 0.79427 0
M  V30 4672 C 450.572 -2.03067 0.380437 0
M  V30 4673 C 450.98 -1.60018 -1.00949 0
M  V30 4674 O 450.323 -0.787425 -1.65968 0
M  V30 4675 C 450.385 -3.57587 0.37034 0
M  V30 4676 C 450.049 -4.23855 1.70867 0
M  V30 4677 C 451.046 -4.46404 2.66496 0
M  V30 4678 C 448.731 -4.61229 1.9893 0
M  V30 4679 C 450.725 -5.05412 3.88378 0
M  V30 4680 C 448.412 -5.19953 3.21079 0
M  V30 4681 C 449.41 -5.41985 4.15621 0
M  V30 4682 O 449.098 -5.99475 5.35616 0
M  V30 4683 H 448.83 -0.658168 0.154243 0
M  V30 4684 H 451.384 -1.7498 1.0757 0
M  V30 4685 H 449.614 -3.84814 -0.381444 0
M  V30 4686 H 451.303 -4.05895 -0.0194894 0
M  V30 4687 H 452.069 -4.17921 2.46103 0
M  V30 4688 H 447.948 -4.43402 1.26158 0
M  V30 4689 H 451.492 -5.22524 4.62185 0
M  V30 4690 H 447.389 -5.47862 3.41347 0
M  V30 4691 H 448.157 -6.17937 5.36745 0
M  V30 4692 N 450.82 -0.546701 -1.47814 0
M  V30 4693 C 452.068 -0.0187037 -2.02091 0
M  V30 4694 C 452.389 1.33168 -1.42447 0
M  V30 4695 O 451.659 1.86619 -0.595839 0
M  V30 4696 H 450.239 -0.00392531 -0.74699 0
M  V30 4697 H 452.901 -0.714327 -1.81338 0
M  V30 4698 H 451.997 0.0772219 -3.12004 0
M  V30 4699 N 452.299 1.55045 -0.282633 0
M  V30 4700 C 453.524 2.04628 0.337977 0
M  V30 4701 C 453.949 1.15937 1.48123 0
M  V30 4702 O 453.307 0.159532 1.80597 0
M  V30 4703 C 453.355 3.51854 0.78936 0
M  V30 4704 O 452.459 3.66236 1.89592 0
M  V30 4705 H 451.8 0.660434 0.0687261 0
M  V30 4706 H 454.33 2.00261 -0.419124 0
M  V30 4707 H 454.34 3.93361 1.08311 0
M  V30 4708 H 453.015 4.15873 -0.0470419 0
M  V30 4709 H 451.592 3.36633 1.60413 0
M  V30 4710 N 453.777 0.010035 1.57597 0
M  V30 4711 C 455.025 -0.671371 1.90623 0
M  V30 4712 C 455.346 -1.73753 0.885151 0
M  V30 4713 O 454.616 -1.95752 -0.0760611 0
M  V30 4714 H 453.196 -0.250968 0.703579 0
M  V30 4715 H 455.858 0.0533325 1.94827 0
M  V30 4716 H 454.954 -1.13626 2.90681 0
M  V30 4717 N 455.255 -1.55392 -0.262866 0
M  V30 4718 C 456.48 -1.80847 -1.01533 0
M  V30 4719 C 456.905 -0.584946 -1.78774 0
M  V30 4720 O 456.263 0.465701 -1.75217 0
M  V30 4721 C 456.311 -3.03866 -1.94159 0
M  V30 4722 O 455.415 -2.79662 -3.03089 0
M  V30 4723 H 454.756 -0.597441 -0.289759 0
M  V30 4724 H 457.286 -2.02553 -0.288698 0
M  V30 4725 H 457.296 -3.32872 -2.35924 0
M  V30 4726 H 455.971 -3.92564 -1.37354 0
M  V30 4727 H 454.548 -2.61781 -2.65566 0
M  V30 4728 N 456.733 0.527833 -1.48498 0
M  V30 4729 C 457.979 1.28545 -1.56857 0
M  V30 4730 C 458.312 1.92678 -0.242651 0
M  V30 4731 O 457.587 1.79394 0.751545 0
M  V30 4732 C 457.87 2.37314 -2.70839 0
M  V30 4733 C 457.723 1.77858 -4.13142 0
M  V30 4734 C 459.042 3.39068 -2.80573 0
M  V30 4735 H 456.161 0.466006 -0.570971 0
M  V30 4736 H 458.803 0.587784 -1.8068 0
M  V30 4737 H 456.953 2.96821 -2.50658 0
M  V30 4738 H 458.625 1.22385 -4.44769 0
M  V30 4739 H 456.868 1.08383 -4.20042 0
M  V30 4740 H 457.539 2.56624 -4.88721 0
M  V30 4741 H 460.015 2.89518 -2.98862 0
M  V30 4742 H 458.891 4.12566 -3.6205 0
M  V30 4743 H 459.152 3.9975 -1.88818 0
M  V30 4744 N 458.211 1.37122 0.776871 0
M  V30 4745 C 459.457 1.32243 1.53752 0
M  V30 4746 C 459.79 -0.0944745 1.9397 0
M  V30 4747 O 459.065 -1.05068 1.6368 0
M  V30 4748 C 459.348 2.25681 2.80607 0
M  V30 4749 C 459.201 3.76127 2.46676 0
M  V30 4750 C 460.52 2.17657 3.82509 0
M  V30 4751 H 457.639 0.481704 0.557791 0
M  V30 4752 H 460.281 1.6778 0.891612 0
M  V30 4753 H 458.431 1.95505 3.35723 0
M  V30 4754 H 460.103 4.16877 1.97513 0
M  V30 4755 H 458.346 3.94946 1.79443 0
M  V30 4756 H 459.017 4.36933 3.37333 0
M  V30 4757 H 461.493 2.44245 3.36873 0
M  V30 4758 H 460.369 2.85185 4.69 0
M  V30 4759 H 460.63 1.16785 4.26396 0
M  V30 4760 N 459.689 -1.00246 1.21608 0
M  V30 4761 C 460.599 -2.12515 0.993709 0
M  V30 4762 C 461.615 -1.73913 -0.0549939 0
M  V30 4763 O 462.791 -2.00943 0.135619 0
M  V30 4764 C 459.856 -3.42083 0.563953 0
M  V30 4765 C 458.917 -3.94843 1.68516 0
M  V30 4766 C 458.15 -5.18226 1.27582 0
M  V30 4767 O 458.373 -5.70201 0.150506 0
M  V30 4768 O 457.307 -5.64497 2.0887 0
M  V30 4769 H 461.133 -2.34152 1.93407 0
M  V30 4770 H 458.718 -1.10891 1.00118 0
M  V30 4771 H 460.6 -4.20073 0.334194 0
M  V30 4772 H 459.275 -3.21828 -0.347665 0
M  V30 4773 H 458.182 -3.18068 1.96935 0
M  V30 4774 H 459.515 -4.19512 2.5743 0
M  V30 4775 N 461.167 -1.02423 -1.1978 0
M  V30 4776 C 462.414 -0.717988 -1.89344 0
M  V30 4777 C 462.742 0.753036 -1.79331 0
M  V30 4778 O 461.997 1.56355 -1.17692 0
M  V30 4779 C 462.296 -1.1088 -3.39765 0
M  V30 4780 C 461.962 -2.57731 -3.6998 0
M  V30 4781 C 460.624 -2.97854 -3.77937 0
M  V30 4782 C 462.976 -3.52763 -3.83677 0
M  V30 4783 C 460.304 -4.31931 -3.97054 0
M  V30 4784 C 462.656 -4.86538 -4.04306 0
M  V30 4785 C 461.32 -5.26356 -4.10494 0
M  V30 4786 H 460.59 -0.26273 -0.692859 0
M  V30 4787 H 463.237 -1.28623 -1.41875 0
M  V30 4788 H 461.542 -0.459094 -3.89101 0
M  V30 4789 H 463.239 -0.849432 -3.919 0
M  V30 4790 H 459.829 -2.25646 -3.64393 0
M  V30 4791 H 464.013 -3.2292 -3.76877 0
M  V30 4792 H 459.269 -4.62324 -4.00083 0
M  V30 4793 H 463.443 -5.60093 -4.13846 0
M  V30 4794 H 461.07 -6.3026 -4.2506 0
M  V30 4795 N 462.645 1.35699 -0.801477 0
M  V30 4796 C 463.875 2.02862 -0.3912 0
M  V30 4797 C 464.283 1.60552 1.00099 0
M  V30 4798 O 463.626 0.796215 1.65548 0
M  V30 4799 C 463.688 3.57386 -0.389299 0
M  V30 4800 C 463.352 4.22943 -1.73113 0
M  V30 4801 C 464.349 4.44984 -2.68859 0
M  V30 4802 C 462.034 4.60167 -2.01373 0
M  V30 4803 C 464.028 5.03345 -3.91053 0
M  V30 4804 C 461.715 5.18243 -3.23832 0
M  V30 4805 C 462.713 5.39773 -4.1849 0
M  V30 4806 O 462.401 5.96626 -5.38788 0
M  V30 4807 H 462.133 0.657341 -0.157732 0
M  V30 4808 H 464.687 1.74407 -1.08496 0
M  V30 4809 H 462.917 3.85011 0.361031 0
M  V30 4810 H 464.606 4.059 -0.0020365 0
M  V30 4811 H 465.372 4.1661 -2.48316 0
M  V30 4812 H 461.251 4.42726 -1.28508 0
M  V30 4813 H 464.795 5.20065 -4.64949 0
M  V30 4814 H 460.692 5.46044 -3.44248 0
M  V30 4815 H 461.46 6.15082 -5.40015 0
M  V30 4816 N 464.123 0.554532 1.47522 0
M  V30 4817 C 465.348 0.0322661 2.07375 0
M  V30 4818 C 465.773 -1.25079 1.40488 0
M  V30 4819 O 465.131 -1.74859 0.47896 0
M  V30 4820 C 465.179 -0.149397 3.6029 0
M  V30 4821 O 464.283 -1.21259 3.9417 0
M  V30 4822 H 463.624 0.0501228 0.662106 0
M  V30 4823 H 466.154 0.769452 1.8958 0
M  V30 4824 H 466.164 -0.364437 4.06369 0
M  V30 4825 H 464.839 0.787743 4.08372 0
M  V30 4826 H 463.416 -0.97825 3.5984 0
M  V30 4827 N 465.601 -1.54893 0.290851 0
M  V30 4828 C 466.564 -2.21824 -0.576784 0
M  V30 4829 C 467.564 -1.20104 -1.06919 0
M  V30 4830 O 468.754 -1.44906 -0.966843 0
M  V30 4831 C 465.886 -2.89662 -1.79747 0
M  V30 4832 H 467.079 -2.99899 0.00784051 0
M  V30 4833 H 464.632 -1.56245 0.0415934 0
M  V30 4834 H 465.367 -2.15639 -2.42219 0
M  V30 4835 H 465.152 -3.64219 -1.45214 0
M  V30 4836 H 466.642 -3.4075 -2.4141 0
M  V30 4837 N 467.08 -0.0183926 -1.57589 0
M  V30 4838 C 468.308 0.673046 -1.95647 0
M  V30 4839 C 468.723 1.66275 -0.894312 0
M  V30 4840 O 468.08 1.82072 0.124975 0
M  V30 4841 C 468.131 1.38884 -3.33756 0
M  V30 4842 O 467.852 0.438806 -4.35897 0
M  V30 4843 C 469.353 2.1731 -3.86383 0
M  V30 4844 H 466.573 0.186292 -0.644621 0
M  V30 4845 H 469.117 -0.0749748 -2.04363 0
M  V30 4846 H 467.272 2.08835 -3.26293 0
M  V30 4847 H 467.686 0.945869 -5.15901 0
M  V30 4848 H 469.16 2.62863 -4.85394 0
M  V30 4849 H 469.637 3.00764 -3.20059 0
M  V30 4850 H 470.243 1.52339 -3.97081 0
M  V30 4851 N 468.558 1.5553 0.254621 0
M  V30 4852 C 469.488 1.9268 1.31897 0
M  V30 4853 C 470.469 0.790797 1.506 0
M  V30 4854 O 471.654 1.05045 1.63337 0
M  V30 4855 C 468.784 2.21477 2.67517 0
M  V30 4856 C 467.738 3.37256 2.63519 0
M  V30 4857 C 467.064 3.51576 4.02862 0
M  V30 4858 C 468.364 4.73157 2.21179 0
M  V30 4859 H 470.058 2.81832 1.01051 0
M  V30 4860 H 467.604 1.35599 0.484662 0
M  V30 4861 H 469.557 2.46055 3.42104 0
M  V30 4862 H 468.281 1.29144 2.99982 0
M  V30 4863 H 466.94 3.12675 1.9139 0
M  V30 4864 H 466.588 2.56676 4.32581 0
M  V30 4865 H 466.288 4.2943 4.01078 0
M  V30 4866 H 467.812 3.78467 4.79161 0
M  V30 4867 H 469.226 4.97158 2.85494 0
M  V30 4868 H 467.623 5.54058 2.30521 0
M  V30 4869 H 468.693 4.70739 1.16332 0
M  V30 4870 N 470.036 -0.519951 1.48776 0
M  V30 4871 C 471.282 -1.27711 1.57536 0
M  V30 4872 C 471.615 -1.92547 0.252866 0
M  V30 4873 O 470.89 -1.7979 -0.742021 0
M  V30 4874 C 471.173 -2.35875 2.72094 0
M  V30 4875 C 471.026 -1.75664 4.1408 0
M  V30 4876 C 472.345 -3.37575 2.82367 0
M  V30 4877 H 469.464 -0.462971 0.573434 0
M  V30 4878 H 472.106 -0.578194 1.80989 0
M  V30 4879 H 470.256 -2.95488 2.52228 0
M  V30 4880 H 471.928 -1.20025 4.45412 0
M  V30 4881 H 470.171 -1.06154 4.20611 0
M  V30 4882 H 470.842 -2.54029 4.90075 0
M  V30 4883 H 473.318 -2.87929 3.00393 0
M  V30 4884 H 472.194 -4.1064 3.64233 0
M  V30 4885 H 472.455 -3.98743 1.90936 0
M  V30 4886 N 471.514 -1.37532 -0.769588 0
M  V30 4887 C 472.76 -1.33057 -1.53048 0
M  V30 4888 C 473.093 0.0841865 -1.94017 0
M  V30 4889 O 472.368 1.04198 -1.64235 0
M  V30 4890 C 472.651 -2.27166 -2.79406 0
M  V30 4891 C 472.504 -3.77429 -2.44677 0
M  V30 4892 C 473.823 -2.19683 -3.81349 0
M  V30 4893 H 470.942 -0.484655 -0.555228 0
M  V30 4894 H 473.584 -1.68251 -0.882702 0
M  V30 4895 H 471.734 -1.97283 -3.34682 0
M  V30 4896 H 473.406 -4.17918 -1.953 0
M  V30 4897 H 471.649 -3.95892 -1.77346 0
M  V30 4898 H 472.32 -4.38716 -3.35011 0
M  V30 4899 H 474.796 -2.46029 -3.35573 0
M  V30 4900 H 473.672 -2.87668 -4.67481 0
M  V30 4901 H 473.933 -1.19045 -4.25771 0
M  V30 4902 N 472.992 0.995999 -1.22138 0
M  V30 4903 C 474.24 1.73167 -1.042 0
M  V30 4904 C 474.561 1.90329 0.42423 0
M  V30 4905 O 473.831 1.4607 1.30539 0
M  V30 4906 H 472.411 0.641593 -0.38258 0
M  V30 4907 H 475.073 1.19974 -1.53598 0
M  V30 4908 H 474.169 2.72734 -1.51731 0
M  V30 4909 N 474.47 1.03057 1.19235 0
M  V30 4910 C 475.7 0.746613 1.92638 0
M  V30 4911 C 476.108 -0.698708 1.75826 0
M  V30 4912 O 475.451 -1.487 1.07861 0
M  V30 4913 C 475.513 1.02024 3.44719 0
M  V30 4914 C 475.177 2.45745 3.85303 0
M  V30 4915 C 476.174 3.43887 3.8992 0
M  V30 4916 C 473.859 2.8019 4.16892 0
M  V30 4917 C 475.853 4.74529 4.2556 0
M  V30 4918 C 473.54 4.1104 4.52205 0
M  V30 4919 C 474.538 5.0802 4.56513 0
M  V30 4920 O 474.226 6.36527 4.91008 0
M  V30 4921 H 473.958 0.272401 0.618687 0
M  V30 4922 H 476.512 1.37853 1.52269 0
M  V30 4923 H 474.742 0.331184 3.85279 0
M  V30 4924 H 476.431 0.725677 3.9936 0
M  V30 4925 H 477.197 3.18614 3.65664 0
M  V30 4926 H 473.076 2.05382 4.12722 0
M  V30 4927 H 476.62 5.50222 4.28838 0
M  V30 4928 H 472.517 4.36086 4.7592 0
M  V30 4929 H 473.285 6.41025 5.08949 0
M  V30 4930 N 475.948 -1.35272 0.808662 0
M  V30 4931 C 476.895 -2.29764 0.218482 0
M  V30 4932 C 477.865 -1.52911 -0.648652 0
M  V30 4933 O 479.05 -1.81341 -0.593297 0
M  V30 4934 C 476.19 -3.39388 -0.625282 0
M  V30 4935 C 475.303 -4.31202 0.262516 0
M  V30 4936 C 474.438 -5.27919 -0.589451 0
M  V30 4937 C 473.477 -6.11371 0.298617 0
M  V30 4938 N 472.614 -7.0022 -0.513443 0
M  V30 4939 H 477.454 -2.79645 1.02968 0
M  V30 4940 H 474.991 -1.37629 0.519303 0
M  V30 4941 H 476.949 -4.01615 -1.12966 0
M  V30 4942 H 475.579 -2.90777 -1.40173 0
M  V30 4943 H 474.631 -3.69962 0.885013 0
M  V30 4944 H 475.943 -4.89748 0.945971 0
M  V30 4945 H 475.097 -5.95529 -1.15888 0
M  V30 4946 H 473.836 -4.69875 -1.30647 0
M  V30 4947 H 472.841 -5.42707 0.880301 0
M  V30 4948 H 474.066 -6.71494 1.01352 0
M  V30 4949 H 472.012 -6.44662 -1.21439 0
M  V30 4950 H 471.929 -7.55917 0.111922 0
M  V30 4951 H 473.197 -7.72175 -1.06608 0
M  V30 4952 N 477.426 -0.562348 -1.47226 0
M  V30 4953 C 478.703 0.0256985 -1.95583 0
M  V30 4954 C 479.083 1.48032 -1.50498 0
M  V30 4955 O 478.431 2.15973 -0.746181 0
M  V30 4956 C 478.641 -0.125129 -3.48776 0
M  V30 4957 C 479.989 0.0175728 -4.24596 0
M  V30 4958 O 481.013 -0.0529341 -3.56161 0
M  V30 4959 O 479.872 0.170145 -5.46235 0
M  V30 4960 H 476.966 0.0612565 -0.824728 0
M  V30 4961 H 479.512 -0.629233 -1.57603 0
M  V30 4962 H 478.284 -1.13715 -3.74412 0
M  V30 4963 H 477.907 0.567178 -3.93534 0
M  V30 4964 N 478.904 1.54736 -0.299062 0
M  V30 4965 C 479.854 2.20155 0.592932 0
M  V30 4966 C 480.838 1.1739 1.10038 0
M  V30 4967 O 482.03 1.43116 1.04147 0
M  V30 4968 C 479.159 2.94437 1.76527 0
M  V30 4969 C 478.245 4.04516 1.27388 0
M  V30 4970 N 478.636 5.03319 0.500339 0
M  V30 4971 C 476.934 4.18022 1.55478 0
M  V30 4972 C 477.635 5.81209 0.238909 0
M  V30 4973 N 476.611 5.37408 0.818163 0
M  V30 4974 H 480.413 2.93899 -0.00563596 0
M  V30 4975 H 477.927 1.62068 -0.103732 0
M  V30 4976 H 479.924 3.3977 2.41582 0
M  V30 4977 H 478.584 2.22209 2.36756 0
M  V30 4978 H 479.595 5.17696 0.145419 0
M  V30 4979 H 476.272 3.56998 2.16469 0
M  V30 4980 H 477.662 6.70812 -0.382223 0
M  V30 4981 N 480.382 0.0267497 1.57577 0
M  V30 4982 C 481.312 -0.954308 2.13108 0
M  V30 4983 C 482.293 -1.34088 1.04663 0
M  V30 4984 O 483.478 -1.41992 1.32484 0
M  V30 4985 C 480.608 -2.23744 2.65624 0
M  V30 4986 C 479.562 -1.99168 3.78835 0
M  V30 4987 C 478.888 -3.33726 4.17769 0
M  V30 4988 C 480.188 -1.33277 5.0501 0
M  V30 4989 H 481.882 -0.491848 2.95332 0
M  V30 4990 H 479.428 -0.23514 1.42067 0
M  V30 4991 H 481.381 -2.92754 3.03106 0
M  V30 4992 H 480.105 -2.72151 1.80558 0
M  V30 4993 H 478.764 -1.32577 3.41788 0
M  V30 4994 H 478.412 -3.79888 3.29688 0
M  V30 4995 H 478.112 -3.18089 4.94058 0
M  V30 4996 H 479.636 -4.04008 4.57832 0
M  V30 4997 H 481.05 -1.92283 5.40093 0
M  V30 4998 H 479.447 -1.28045 5.8628 0
M  V30 4999 H 480.517 -0.305411 4.83937 0
M  V30 5000 N 481.861 -1.55662 -0.24637 0
M  V30 5001 C 483.138 -1.68272 -0.997198 0
M  V30 5002 C 483.518 -0.566785 -2.03349 0
M  V30 5003 O 482.866 0.429688 -2.24424 0
M  V30 5004 C 483.076 -3.08594 -1.63006 0
M  V30 5005 C 484.424 -3.6721 -2.13171 0
M  V30 5006 O 485.448 -3.11397 -1.72946 0
M  V30 5007 O 484.307 -4.65054 -2.87031 0
M  V30 5008 H 481.401 -0.684429 -0.464205 0
M  V30 5009 H 483.947 -1.67993 -0.240114 0
M  V30 5010 H 482.719 -3.81264 -0.880527 0
M  V30 5011 H 482.342 -3.12886 -2.45333 0
M  V30 5012 N 483.339 0.512053 -1.4905 0
M  V30 5013 C 484.271 1.63121 -1.6101 0
M  V30 5014 C 485.284 1.55145 -0.493352 0
M  V30 5015 O 486.473 1.61278 -0.764955 0
M  V30 5016 C 483.573 3.01863 -1.54052 0
M  V30 5017 C 482.746 3.35138 -2.81072 0
M  V30 5018 C 481.805 4.5324 -2.67319 0
M  V30 5019 O 480.831 4.55571 -3.41238 0
M  V30 5020 N 482.033 5.52495 -1.78127 0
M  V30 5021 H 484.798 1.53292 -2.5753 0
M  V30 5022 H 482.359 0.699706 -1.45999 0
M  V30 5023 H 484.351 3.78774 -1.42521 0
M  V30 5024 H 482.921 3.05675 -0.654345 0
M  V30 5025 H 482.141 2.4723 -3.07036 0
M  V30 5026 H 483.429 3.54162 -3.65304 0
M  V30 5027 H 482.827 5.53403 -1.17308 0
M  V30 5028 H 481.384 6.28553 -1.72525 0
M  V30 5029 N 484.817 1.37938 0.762283 0
M  V30 5030 C 485.78 1.34279 1.85747 0
M  V30 5031 C 486.78 0.244969 1.58923 0
M  V30 5032 O 487.97 0.501365 1.66829 0
M  V30 5033 C 485.102 1.08833 3.23061 0
M  V30 5034 H 486.295 2.31705 1.90401 0
M  V30 5035 H 483.848 1.23105 0.963057 0
M  V30 5036 H 484.583 0.119767 3.24079 0
M  V30 5037 H 484.368 1.88306 3.43923 0
M  V30 5038 H 485.858 1.08946 4.03138 0
M  V30 5039 N 486.295 -0.989507 1.22664 0
M  V30 5040 C 487.258 -2.06183 1.00106 0
M  V30 5041 C 488.258 -1.60765 -0.0337726 0
M  V30 5042 O 489.448 -1.72989 0.205072 0
M  V30 5043 C 486.58 -3.37021 0.51279 0
M  V30 5044 H 487.773 -2.27629 1.95256 0
M  V30 5045 H 485.326 -1.16158 1.0458 0
M  V30 5046 H 486.061 -3.21261 -0.442917 0
M  V30 5047 H 485.846 -3.71323 1.25942 0
M  V30 5048 H 487.336 -4.1591 0.375315 0
M  V30 5049 N 487.773 -1.03688 -1.18687 0
M  V30 5050 C 488.723 -0.595067 -2.20098 0
M  V30 5051 C 489.707 0.360465 -1.5681 0
M  V30 5052 O 490.899 0.180136 -1.76081 0
M  V30 5053 C 488.028 0.0444495 -3.43271 0
M  V30 5054 C 487.114 -0.934002 -4.13687 0
M  V30 5055 N 487.505 -2.09957 -4.60165 0
M  V30 5056 C 485.803 -0.759177 -4.39491 0
M  V30 5057 C 486.504 -2.71735 -5.1433 0
M  V30 5058 N 485.48 -1.99638 -5.05614 0
M  V30 5059 H 489.282 -1.48336 -2.5372 0
M  V30 5060 H 486.796 -0.904949 -1.3485 0
M  V30 5061 H 488.793 0.37864 -4.15177 0
M  V30 5062 H 487.453 0.928325 -3.11147 0
M  V30 5063 H 488.464 -2.47863 -4.54735 0
M  V30 5064 H 485.141 0.0749292 -4.17433 0
M  V30 5065 H 486.531 -3.70492 -5.60523 0
M  V30 5066 N 489.251 1.34841 -0.815825 0
M  V30 5067 C 490.198 2.29644 -0.230664 0
M  V30 5068 C 491.168 1.53253 0.640533 0
M  V30 5069 O 492.353 1.81653 0.583672 0
M  V30 5070 C 489.493 3.39715 0.607275 0
M  V30 5071 C 488.606 4.31056 -0.28538 0
M  V30 5072 C 487.741 5.28225 0.561446 0
M  V30 5073 C 486.78 6.11204 -0.331035 0
M  V30 5074 N 485.917 7.00483 0.476302 0
M  V30 5075 H 490.757 2.79095 -1.0445 0
M  V30 5076 H 488.294 1.37351 -0.526595 0
M  V30 5077 H 490.252 4.02208 1.10835 0
M  V30 5078 H 488.882 2.91517 1.38629 0
M  V30 5079 H 487.934 3.69487 -0.904621 0
M  V30 5080 H 489.246 4.89239 -0.97193 0
M  V30 5081 H 488.4 5.96135 1.12728 0
M  V30 5082 H 487.139 4.70562 1.28153 0
M  V30 5083 H 486.144 5.42232 -0.909069 0
M  V30 5084 H 487.369 6.70947 -1.04912 0
M  V30 5085 H 485.315 6.45296 1.18019 0
M  V30 5086 H 485.232 7.55847 -0.152008 0
M  V30 5087 H 486.5 7.7273 1.02512 0
M  V30 5088 N 490.729 0.570148 1.46925 0
M  V30 5089 C 491.692 -0.159933 2.28641 0
M  V30 5090 C 492.692 -0.830638 1.37685 0
M  V30 5091 O 493.882 -0.684516 1.60187 0
M  V30 5092 C 491.014 -1.2354 3.17727 0
M  V30 5093 H 492.207 0.558035 2.94662 0
M  V30 5094 H 489.76 0.327603 1.52828 0
M  V30 5095 H 490.495 -1.98535 2.56426 0
M  V30 5096 H 490.28 -0.759125 3.84681 0
M  V30 5097 H 491.77 -1.74782 3.79264 0
M  V30 5098 N 492.207 -1.54576 0.307264 0
M  V30 5099 C 493.137 -2.26708 -0.55907 0
M  V30 5100 C 494.118 -1.26893 -1.1328 0
M  V30 5101 O 495.303 -1.55677 -1.16097 0
M  V30 5102 C 492.433 -3.01259 -1.72801 0
M  V30 5103 C 491.387 -4.08275 -1.28435 0
M  V30 5104 C 490.713 -4.70575 -2.53895 0
M  V30 5105 C 492.013 -5.2068 -0.411038 0
M  V30 5106 H 493.707 -2.9937 0.042576 0
M  V30 5107 H 491.253 -1.43983 0.0219173 0
M  V30 5108 H 493.206 -3.50444 -2.34023 0
M  V30 5109 H 491.93 -2.26187 -2.356 0
M  V30 5110 H 490.589 -3.59949 -0.695161 0
M  V30 5111 H 490.237 -3.92136 -3.15021 0
M  V30 5112 H 489.937 -5.42854 -2.24908 0
M  V30 5113 H 491.461 -5.22527 -3.15908 0
M  V30 5114 H 492.875 -5.65721 -0.929097 0
M  V30 5115 H 491.272 -5.99716 -0.214664 0
M  V30 5116 H 492.342 -4.81629 0.562287 0
M  V30 5117 N 493.685 -0.035106 -1.57561 0
M  V30 5118 C 494.615 0.942993 -2.13612 0
M  V30 5119 C 495.596 1.33531 -1.05373 0
M  V30 5120 O 496.781 1.41287 -1.33235 0
M  V30 5121 C 493.911 2.22332 -2.66807 0
M  V30 5122 C 492.865 1.97156 -3.79886 0
M  V30 5123 C 492.191 3.31506 -4.19533 0
M  V30 5124 C 493.491 1.30596 -5.05709 0
M  V30 5125 H 495.185 0.476179 -2.95589 0
M  V30 5126 H 492.731 0.227602 -1.4219 0
M  V30 5127 H 494.684 2.91142 -3.04654 0
M  V30 5128 H 493.408 2.7119 -1.81999 0
M  V30 5129 H 492.067 1.30763 -3.42486 0
M  V30 5130 H 491.715 3.78134 -3.31698 0
M  V30 5131 H 491.415 3.15465 -4.95738 0
M  V30 5132 H 492.939 4.01574 -4.59968 0
M  V30 5133 H 494.353 1.89416 -5.41105 0
M  V30 5134 H 492.75 1.24934 -5.86951 0
M  V30 5135 H 493.82 0.279742 -4.84092 0
M  V30 5136 N 495.163 1.55791 0.238111 0
M  V30 5137 C 496.111 1.91885 1.31464 0
M  V30 5138 C 497.105 0.798929 1.49377 0
M  V30 5139 O 498.311 0.983626 1.50747 0
M  V30 5140 H 494.686 0.609551 0.440399 0
M  V30 5141 H 496.657 2.81747 0.982925 0
M  V30 5142 C 495.406 2.23763 2.6613 0
M  V30 5143 H 494.729 3.09444 2.53149 0
M  V30 5144 H 496.169 2.52915 3.40309 0
M  V30 5145 C 494.628 1.05699 3.1989 0
M  V30 5146 O 495.158 0.309524 4.00506 0
M  V30 5147 N 493.364 0.845251 2.78036 0
M  V30 5148 H 492.911 1.4548 2.12588 0
M  V30 5149 H 492.869 0.0569973 3.14348 0
M  V30 5150 N 496.642 -0.504142 1.49319 0
M  V30 5151 C 497.59 -1.62689 1.66238 0
M  V30 5152 C 498.584 -1.6095 0.528349 0
M  V30 5153 O 499.79 -1.65496 0.707887 0
M  V30 5154 H 496.165 -0.539247 0.524134 0
M  V30 5155 H 498.136 -1.45571 2.60484 0
M  V30 5156 C 496.885 -3.00841 1.74328 0
M  V30 5157 H 496.208 -3.02884 2.60963 0
M  V30 5158 H 497.648 -3.78945 1.90202 0
M  V30 5159 C 496.107 -3.33355 0.487416 0
M  V30 5160 O 496.637 -3.99819 -0.388294 0
M  V30 5161 N 494.843 -2.88469 0.351306 0
M  V30 5162 H 494.39 -2.34557 1.06492 0
M  V30 5163 H 494.348 -3.10591 -0.487899 0
M  V30 5164 N 498.12 -1.38341 -0.754957 0
M  V30 5165 C 499.536 -1.19508 -1.05783 0
M  V30 5166 C 499.736 -0.0428005 -2.01455 0
M  V30 5167 O 498.792 0.611861 -2.44975 0
M  V30 5168 C 500.105 -2.52091 -1.63923 0
M  V30 5169 C 501.653 -2.58762 -1.76101 0
M  V30 5170 C 502.128 -3.91517 -2.37652 0
M  V30 5171 N 503.619 -3.93049 -2.45085 0
M  V30 5172 C 504.354 -4.9253 -2.93602 0
M  V30 5173 N 503.85 -6.02408 -3.42165 0
M  V30 5174 N 505.643 -4.79921 -2.92629 0
M  V30 5175 H 497.794 -2.1206 -0.120056 0
M  V30 5176 H 500.057 -0.94089 -0.11589 0
M  V30 5177 H 499.763 -3.36858 -1.01093 0
M  V30 5178 H 499.637 -2.70388 -2.63003 0
M  V30 5179 H 502.024 -1.74391 -2.38058 0
M  V30 5180 H 502.105 -2.44333 -0.757294 0
M  V30 5181 H 501.749 -4.76309 -1.76329 0
M  V30 5182 H 501.679 -4.03256 -3.38662 0
M  V30 5183 H 504.17 -3.13685 -2.10736 0
M  V30 5184 H 504.483 -6.74248 -3.77637 0
M  V30 5185 H 502.828 -6.0603 -3.40225 0
M  V30 5186 H 506.019 -3.93194 -2.54001 0
M  V30 5187 H 506.192 -5.57601 -3.30128 0
M  V30 5188 N 499.598 0.982988 -1.23187 0
M  V30 5189 C 500.826 1.75921 -1.08901 0
M  V30 5190 C 501.241 1.85341 0.359719 0
M  V30 5191 O 500.598 1.33072 1.24892 0
M  V30 5192 C 500.649 3.18742 -1.70545 0
M  V30 5193 O 500.37 3.09814 -3.09753 0
M  V30 5194 C 501.871 4.1277 -1.61667 0
M  V30 5195 H 499.091 0.552166 -0.381252 0
M  V30 5196 H 501.635 1.23516 -1.62985 0
M  V30 5197 H 499.79 3.68182 -1.20501 0
M  V30 5198 H 500.204 3.99703 -3.39614 0
M  V30 5199 H 501.678 5.10697 -2.09506 0
M  V30 5200 H 502.155 4.3542 -0.575009 0
M  V30 5201 H 502.761 3.69232 -2.11064 0
M  V30 5202 N 501.076 1.04316 1.18135 0
M  V30 5203 C 501.986 0.646876 2.25505 0
M  V30 5204 C 503.002 -0.328008 1.7088 0
M  V30 5205 O 504.178 -0.182309 2.00573 0
M  V30 5206 C 501.243 0.0185664 3.46695 0
M  V30 5207 C 500.304 1.04277 4.16443 0
M  V30 5208 C 499.537 0.444352 5.31847 0
M  V30 5209 O 499.76 -0.748735 5.65465 0
M  V30 5210 O 498.694 1.17428 5.90334 0
M  V30 5211 H 502.52 1.54147 2.61672 0
M  V30 5212 H 500.105 0.814188 1.25265 0
M  V30 5213 H 501.987 -0.331068 4.20097 0
M  V30 5214 H 500.662 -0.849814 3.12346 0
M  V30 5215 H 499.569 1.44425 3.45098 0
M  V30 5216 H 500.902 1.882 4.54798 0
M  V30 5217 N 502.554 -1.34406 0.822964 0
M  V30 5218 C 503.8 -1.98578 0.411666 0
M  V30 5219 C 504.133 -1.65093 -1.02264 0
M  V30 5220 O 503.408 -0.92258 -1.71227 0
M  V30 5221 C 503.691 -3.54823 0.614235 0
M  V30 5222 C 503.544 -3.9805 2.09466 0
M  V30 5223 C 504.863 -4.40071 0.050221 0
M  V30 5224 H 501.982 -0.721355 0.151047 0
M  V30 5225 H 504.624 -1.59301 1.03554 0
M  V30 5226 H 502.774 -3.88411 0.0831774 0
M  V30 5227 H 504.446 -3.74795 2.68936 0
M  V30 5228 H 502.689 -3.4836 2.5851 0
M  V30 5229 H 503.36 -5.06819 2.18721 0
M  V30 5230 H 505.836 -4.13037 0.503953 0
M  V30 5231 H 504.712 -5.48452 0.221759 0
M  V30 5232 H 504.973 -4.29576 -1.04482 0
M  V30 5233 N 504.032 -0.577932 -1.46621 0
M  V30 5234 C 505.257 -0.0652536 -2.07297 0
M  V30 5235 C 505.682 1.22828 -1.4246 0
M  V30 5236 O 505.04 1.74075 -0.506718 0
M  V30 5237 C 505.088 0.0920589 -3.60482 0
M  V30 5238 O 504.192 1.14972 -3.96049 0
M  V30 5239 H 503.533 -0.06065 -0.661224 0
M  V30 5240 H 506.063 -0.799515 -1.88332 0
M  V30 5241 H 506.073 0.299741 -4.06897 0
M  V30 5242 H 504.748 -0.852612 -4.07067 0
M  V30 5243 H 503.325 0.920879 -3.61351 0
M  V30 5244 N 505.51 1.54411 -0.315457 0
M  V30 5245 C 506.756 2.00716 0.289972 0
M  V30 5246 C 507.089 1.2034 1.5242 0
M  V30 5247 O 506.364 0.283579 1.92422 0
M  V30 5248 C 506.647 3.54507 0.632196 0
M  V30 5249 C 506.5 4.45615 -0.61218 0
M  V30 5250 C 507.819 4.15421 1.45305 0
M  V30 5251 H 504.938 0.729637 0.10392 0
M  V30 5252 H 507.58 1.8506 -0.430427 0
M  V30 5253 H 505.73 3.67979 1.24595 0
M  V30 5254 H 507.402 4.44026 -1.25053 0
M  V30 5255 H 505.645 4.15621 -1.24264 0
M  V30 5256 H 506.316 5.51022 -0.328379 0
M  V30 5257 H 508.792 4.05474 0.934331 0
M  V30 5258 H 507.668 5.23157 1.66127 0
M  V30 5259 H 507.929 3.68223 2.44671 0
M  V30 5260 N 506.988 0.0434614 1.5754 0
M  V30 5261 C 508.265 -0.671479 1.83713 0
M  V30 5262 C 508.645 -1.89495 0.930315 0
M  V30 5263 O 507.993 -2.28498 -0.0105639 0
M  V30 5264 C 508.203 -1.0361 3.33266 0
M  V30 5265 C 509.551 -1.42167 4.00092 0
M  V30 5266 O 510.575 -1.12866 3.37846 0
M  V30 5267 O 509.434 -1.96817 5.09829 0
M  V30 5268 H 506.528 -0.330726 0.75799 0
M  V30 5269 H 509.074 0.0722373 1.69546 0
M  V30 5270 H 507.846 -0.165938 3.90948 0
M  V30 5271 H 507.469 -1.83751 3.52592 0
M  V30 5272 N 508.466 -1.55915 -0.229846 0
M  V30 5273 C 509.429 -1.90914 -1.26824 0
M  V30 5274 C 510.429 -0.786999 -1.40225 0
M  V30 5275 O 511.619 -1.05484 -1.38632 0
M  V30 5276 C 508.751 -2.15264 -2.64337 0
M  V30 5277 H 509.944 -2.8378 -0.969998 0
M  V30 5278 H 507.497 -1.49069 -0.4699 0
M  V30 5279 H 508.232 -1.24923 -2.99274 0
M  V30 5280 H 508.017 -2.97005 -2.55989 0
M  V30 5281 H 509.507 -2.43467 -3.39284 0
M  V30 5282 N 509.944 0.496216 -1.49584 0
M  V30 5283 C 511.174 1.27209 -1.62793 0
M  V30 5284 C 511.582 1.86799 -0.300476 0
M  V30 5285 O 510.925 1.68802 0.724674 0
M  V30 5286 C 510.987 2.43812 -2.64189 0
M  V30 5287 C 510.651 2.05055 -4.08414 0
M  V30 5288 C 511.648 1.58752 -4.9507 0
M  V30 5289 C 509.333 2.14543 -4.54177 0
M  V30 5290 C 511.327 1.22448 -6.25528 0
M  V30 5291 C 509.014 1.77851 -5.84647 0
M  V30 5292 C 510.012 1.31878 -6.70147 0
M  V30 5293 O 509.7 0.956834 -7.98185 0
M  V30 5294 H 509.432 0.391848 -0.550846 0
M  V30 5295 H 511.986 0.601712 -1.96389 0
M  V30 5296 H 510.216 3.13941 -2.25783 0
M  V30 5297 H 511.905 3.05829 -2.66877 0
M  V30 5298 H 512.671 1.50863 -4.60939 0
M  V30 5299 H 508.55 2.49277 -3.87791 0
M  V30 5300 H 512.094 0.864933 -6.92217 0
M  V30 5301 H 507.991 1.8539 -6.18305 0
M  V30 5302 H 508.759 1.08789 -8.11238 0
M  V30 5303 N 511.423 1.38739 0.74761 0
M  V30 5304 C 512.333 1.38696 1.89211 0
M  V30 5305 C 513.349 0.283303 1.71678 0
M  V30 5306 O 514.525 0.522713 1.94498 0
M  V30 5307 C 511.59 1.21662 3.24653 0
M  V30 5308 C 510.651 2.41886 3.54669 0
M  V30 5309 C 509.884 2.25655 4.83648 0
M  V30 5310 O 510.107 1.25339 5.56459 0
M  V30 5311 O 509.041 3.14372 5.13277 0
M  V30 5312 H 512.867 2.35143 1.92202 0
M  V30 5313 H 510.452 1.19721 0.893708 0
M  V30 5314 H 512.334 1.14246 4.05618 0
M  V30 5315 H 511.009 0.283024 3.2246 0
M  V30 5316 H 509.916 2.54877 2.73841 0
M  V30 5317 H 511.249 3.33895 3.61628 0
M  V30 5318 N 512.901 -0.976442 1.23707 0
M  V30 5319 C 514.129 -1.75341 1.09833 0
M  V30 5320 C 514.544 -1.8553 -0.349885 0
M  V30 5321 O 513.901 -1.33732 -1.24185 0
M  V30 5322 C 513.952 -3.17833 1.72233 0
M  V30 5323 O 513.673 -3.08167 3.11391 0
M  V30 5324 C 515.174 -4.11906 1.63853 0
M  V30 5325 H 512.394 -0.550137 0.384175 0
M  V30 5326 H 514.938 -1.2265 1.63638 0
M  V30 5327 H 513.093 -3.67538 1.22452 0
M  V30 5328 H 513.507 -3.97897 3.41729 0
M  V30 5329 H 514.981 -5.09579 2.12211 0
M  V30 5330 H 515.458 -4.35109 0.598092 0
M  V30 5331 H 516.064 -3.68107 2.13019 0
M  V30 5332 N 514.379 -1.04941 -1.1758 0
M  V30 5333 C 515.626 -0.757989 -1.87779 0
M  V30 5334 C 515.954 0.714827 -1.80888 0
M  V30 5335 O 515.209 1.53824 -1.20982 0
M  V30 5336 C 515.508 -1.18062 -3.37337 0
M  V30 5337 C 515.174 -2.65521 -3.6443 0
M  V30 5338 C 513.836 -3.05804 -3.71534 0
M  V30 5339 C 516.188 -3.60822 -3.76108 0
M  V30 5340 C 513.516 -4.40256 -3.87803 0
M  V30 5341 C 515.868 -4.95005 -3.93895 0
M  V30 5342 C 514.532 -5.34945 -3.99237 0
M  V30 5343 H 513.802 -0.277368 -0.68713 0
M  V30 5344 H 516.449 -1.31603 -1.39115 0
M  V30 5345 H 514.754 -0.541525 -3.8804 0
M  V30 5346 H 516.451 -0.932368 -3.9001 0
M  V30 5347 H 513.041 -2.33324 -3.59524 0
M  V30 5348 H 517.225 -3.30841 -3.69943 0
M  V30 5349 H 512.481 -4.70707 -3.90186 0
M  V30 5350 H 516.655 -5.68746 -4.01872 0
M  V30 5351 H 514.282 -6.39135 -4.11596 0
M  V30 5352 N 515.857 1.33968 -0.830081 0
M  V30 5353 C 517.104 1.98063 -0.421566 0
M  V30 5354 C 517.432 1.65787 1.0171 0
M  V30 5355 O 516.687 0.925348 1.72441 0
M  V30 5356 C 516.986 3.52679 -0.57898 0
M  V30 5357 C 516.652 4.04884 -1.98443 0
M  V30 5358 C 515.314 4.18852 -2.36888 0
M  V30 5359 C 517.666 4.32879 -2.90285 0
M  V30 5360 C 514.994 4.58145 -3.66497 0
M  V30 5361 C 517.346 4.7362 -4.19364 0
M  V30 5362 C 516.01 4.85794 -4.57778 0
M  V30 5363 H 515.28 0.724765 -0.154262 0
M  V30 5364 H 517.927 1.59792 -1.05541 0
M  V30 5365 H 516.232 3.91556 0.138219 0
M  V30 5366 H 517.929 4.00261 -0.243317 0
M  V30 5367 H 514.519 3.9448 -1.67581 0
M  V30 5368 H 518.703 4.21619 -2.61823 0
M  V30 5369 H 513.959 4.65762 -3.96075 0
M  V30 5370 H 518.133 4.9424 -4.90612 0
M  V30 5371 H 515.76 5.15998 -5.58256 0
M  V30 5372 N 517.335 0.585699 1.46312 0
M  V30 5373 C 518.282 -0.145835 2.30339 0
M  V30 5374 C 519.252 -0.881215 1.40797 0
M  V30 5375 O 520.437 -0.871293 1.69744 0
M  V30 5376 C 517.577 -1.15161 3.25318 0
M  V30 5377 C 516.69 -0.419367 4.2996 0
M  V30 5378 C 515.825 -1.41293 5.12064 0
M  V30 5379 C 514.864 -0.667261 6.08452 0
M  V30 5380 N 514.001 -1.60903 6.83414 0
M  V30 5381 H 518.841 0.576755 2.92365 0
M  V30 5382 H 516.378 0.296237 1.44086 0
M  V30 5383 H 518.336 -1.74763 3.78832 0
M  V30 5384 H 516.966 -1.84188 2.65094 0
M  V30 5385 H 516.018 0.291751 3.7928 0
M  V30 5386 H 517.33 0.163433 4.98532 0
M  V30 5387 H 516.484 -2.08167 5.6987 0
M  V30 5388 H 515.223 -2.02966 4.43459 0
M  V30 5389 H 514.228 0.0152356 5.49798 0
M  V30 5390 H 515.453 -0.0558817 6.79077 0
M  V30 5391 H 513.399 -2.21381 6.17516 0
M  V30 5392 H 513.316 -1.07911 7.48259 0
M  V30 5393 H 514.584 -2.26802 7.45775 0
M  V30 5394 N 518.813 -1.54241 0.323641 0
M  V30 5395 C 520.229 -1.59574 -0.0290018 0
M  V30 5396 C 520.429 -1.34017 -1.50472 0
M  V30 5397 O 519.485 -1.12464 -2.26071 0
M  V30 5398 C 520.798 -2.98169 0.389295 0
M  V30 5399 C 522.346 -3.11148 0.339958 0
M  V30 5400 C 522.821 -4.5209 0.733418 0
M  V30 5401 N 524.312 -4.5808 0.686827 0
M  V30 5402 C 525.047 -5.65248 0.963464 0
M  V30 5403 N 524.543 -6.80355 1.30724 0
M  V30 5404 N 526.336 -5.55025 0.88902 0
M  V30 5405 H 518.487 -1.6911 1.28512 0
M  V30 5406 H 520.75 -0.790972 0.522558 0
M  V30 5407 H 520.456 -3.21871 1.41746 0
M  V30 5408 H 520.33 -3.76399 -0.245657 0
M  V30 5409 H 522.717 -2.87182 -0.679002 0
M  V30 5410 H 522.798 -2.35023 1.00985 0
M  V30 5411 H 522.442 -4.76788 1.75029 0
M  V30 5412 H 522.372 -5.26584 0.0412189 0
M  V30 5413 H 524.863 -3.75411 0.43298 0
M  V30 5414 H 525.176 -7.58029 1.5037 0
M  V30 5415 H 523.521 -6.81851 1.3455 0
M  V30 5416 H 526.712 -4.63977 0.619939 0
M  V30 5417 H 526.885 -6.38458 1.10797 0
M  V30 5418 N 520.291 -0.0518155 -1.57515 0
M  V30 5419 C 521.538 0.621823 -1.92716 0
M  V30 5420 C 521.866 1.70813 -0.930229 0
M  V30 5421 O 521.121 1.95616 0.0573708 0
M  V30 5422 C 521.42 1.25607 -3.34601 0
M  V30 5423 C 521.086 0.297901 -4.49915 0
M  V30 5424 C 519.748 0.034243 -4.81188 0
M  V30 5425 C 522.1 -0.358738 -5.19964 0
M  V30 5426 C 519.428 -0.893479 -5.79857 0
M  V30 5427 C 521.78 -1.27466 -6.19625 0
M  V30 5428 C 520.444 -1.54698 -6.49326 0
M  V30 5429 H 519.714 0.227541 -0.705199 0
M  V30 5430 H 522.361 -0.118432 -1.91133 0
M  V30 5431 H 520.666 2.07161 -3.32553 0
M  V30 5432 H 522.363 1.78424 -3.59118 0
M  V30 5433 H 518.953 0.513581 -4.25512 0
M  V30 5434 H 523.137 -0.168133 -4.96015 0
M  V30 5435 H 518.393 -1.11193 -6.01204 0
M  V30 5436 H 522.567 -1.78953 -6.73015 0
M  V30 5437 H 520.194 -2.26748 -7.25596 0
M  V30 5438 N 521.769 1.56035 0.221574 0
M  V30 5439 C 523.046 1.69837 0.970301 0
M  V30 5440 C 523.426 0.599065 2.02421 0
M  V30 5441 O 522.774 -0.393929 2.25079 0
M  V30 5442 C 522.984 3.11148 1.58076 0
M  V30 5443 C 524.332 3.70555 2.07302 0
M  V30 5444 O 525.356 3.14109 1.6797 0
M  V30 5445 O 524.215 4.69562 2.79596 0
M  V30 5446 H 521.309 0.691727 0.453257 0
M  V30 5447 H 523.855 1.68353 0.213358 0
M  V30 5448 H 522.627 3.82617 0.819759 0
M  V30 5449 H 522.25 3.16749 2.40324 0
M  V30 5450 N 523.247 -0.488276 1.49845 0
M  V30 5451 C 524.524 -1.24959 1.50481 0
M  V30 5452 C 524.904 -2.09735 0.239698 0
M  V30 5453 O 524.252 -2.14865 -0.777524 0
M  V30 5454 C 524.462 -2.0954 2.79095 0
M  V30 5455 C 525.81 -2.68305 3.29086 0
M  V30 5456 O 526.834 -2.19797 2.80299 0
M  V30 5457 O 525.693 -3.56643 4.14087 0
M  V30 5458 H 522.787 -0.566133 0.602845 0
M  V30 5459 H 525.333 -0.501504 1.6212 0
M  V30 5460 H 524.105 -1.46958 3.62656 0
M  V30 5461 H 523.728 -2.91517 2.70377 0
M  V30 5462 N 524.725 -1.39134 -0.740242 0
M  V30 5463 C 525.971 -1.36273 -1.50192 0
M  V30 5464 C 526.304 0.0430136 -1.94152 0
M  V30 5465 O 525.579 1.00691 -1.66408 0
M  V30 5466 C 525.862 -2.33041 -2.74525 0
M  V30 5467 C 525.715 -3.82535 -2.36617 0
M  V30 5468 C 527.034 -2.27723 -3.76604 0
M  V30 5469 H 524.153 -0.496323 -0.544823 0
M  V30 5470 H 526.795 -1.70085 -0.846815 0
M  V30 5471 H 524.945 -2.04337 -3.30422 0
M  V30 5472 H 526.617 -4.21967 -1.86391 0
M  V30 5473 H 524.86 -3.99565 -1.68909 0
M  V30 5474 H 525.531 -4.45723 -3.2563 0
M  V30 5475 H 528.007 -2.53091 -3.30279 0
M  V30 5476 H 526.883 -2.97519 -4.61274 0
M  V30 5477 H 527.144 -1.28049 -4.2315 0
M  V30 5478 N 526.204 0.969867 -1.24223 0
M  V30 5479 C 527.114 2.09806 -1.0497 0
M  V30 5480 C 528.13 1.73998 0.00886455 0
M  V30 5481 O 529.306 2.00513 -0.188848 0
M  V30 5482 C 526.371 3.40467 -0.654452 0
M  V30 5483 C 525.432 3.90236 -1.78926 0
M  V30 5484 C 524.665 5.14662 -1.41277 0
M  V30 5485 O 524.888 5.69602 -0.301632 0
M  V30 5486 O 523.822 5.58761 -2.23763 0
M  V30 5487 H 527.648 2.28942 -1.99548 0
M  V30 5488 H 525.233 1.08197 -1.03023 0
M  V30 5489 H 527.115 4.19039 -0.445452 0
M  V30 5490 H 525.79 3.22636 0.262216 0
M  V30 5491 H 524.697 3.12735 -2.05299 0
M  V30 5492 H 526.03 4.1254 -2.68462 0
M  V30 5493 N 527.682 1.05563 1.17022 0
M  V30 5494 C 528.929 0.767937 1.87374 0
M  V30 5495 C 529.257 -0.705224 1.81265 0
M  V30 5496 O 528.512 -1.5318 1.21796 0
M  V30 5497 C 528.811 1.19849 3.36706 0
M  V30 5498 C 528.477 2.6745 3.63017 0
M  V30 5499 C 527.139 3.0777 3.69907 0
M  V30 5500 C 529.491 3.62811 3.74189 0
M  V30 5501 C 526.819 4.42307 3.85463 0
M  V30 5502 C 529.171 4.97087 3.91264 0
M  V30 5503 C 527.835 5.37055 3.96394 0
M  V30 5504 H 527.105 0.281008 0.68565 0
M  V30 5505 H 529.752 1.32339 1.38415 0
M  V30 5506 H 528.057 0.562096 3.87747 0
M  V30 5507 H 529.754 0.953038 3.8951 0
M  V30 5508 H 526.344 2.35228 3.58282 0
M  V30 5509 H 530.528 3.32798 3.68183 0
M  V30 5510 H 525.784 4.72769 3.87684 0
M  V30 5511 H 529.958 5.70869 3.9885 0
M  V30 5512 H 527.585 6.41308 4.082 0
M  V30 5513 N 529.16 -1.33526 0.837174 0
M  V30 5514 C 530.437 -1.92369 0.354065 0
M  V30 5515 C 530.817 -1.76348 -1.16038 0
M  V30 5516 O 530.165 -1.15083 -1.97403 0
M  V30 5517 C 530.375 -3.39728 0.799101 0
M  V30 5518 C 531.723 -4.16877 0.806139 0
M  V30 5519 O 532.747 -3.48373 0.742597 0
M  V30 5520 O 531.606 -5.39166 0.892345 0
M  V30 5521 H 528.7 -0.820952 0.0998378 0
M  V30 5522 H 531.246 -1.42409 0.922913 0
M  V30 5523 H 530.018 -3.45254 1.84162 0
M  V30 5524 H 529.641 -3.97062 0.206731 0
M  V30 5525 N 530.638 -0.59345 -1.46 0
M  V30 5526 C 531.548 0.135817 -2.34207 0
M  V30 5527 C 532.564 0.875008 -1.50398 0
M  V30 5528 O 533.74 0.835778 -1.83239 0
M  V30 5529 C 530.805 1.12977 -3.27776 0
M  V30 5530 C 529.866 0.394081 -4.27487 0
M  V30 5531 C 529.099 1.34068 -5.16586 0
M  V30 5532 O 529.322 2.5778 -5.08828 0
M  V30 5533 O 528.256 0.845426 -5.95933 0
M  V30 5534 H 532.082 -0.588691 -2.9794 0
M  V30 5535 H 529.667 -0.353784 -1.45151 0
M  V30 5536 H 531.549 1.70261 -3.85473 0
M  V30 5537 H 530.224 1.83556 -2.66625 0
M  V30 5538 H 529.131 -0.220869 -3.73447 0
M  V30 5539 H 530.464 -0.270939 -4.91454 0
M  V30 5540 N 532.116 1.54067 -0.331816 0
M  V30 5541 C 533.026 2.28322 0.539104 0
M  V30 5542 C 534.042 1.32985 1.1221 0
M  V30 5543 O 535.218 1.6601 1.1403 0
M  V30 5544 C 532.283 3.03277 1.68 0
M  V30 5545 C 531.344 4.14216 1.12798 0
M  V30 5546 C 530.577 4.85588 2.2145 0
M  V30 5547 O 530.8 4.56536 3.41952 0
M  V30 5548 O 529.734 5.72309 1.86404 0
M  V30 5549 H 533.56 3.03632 -0.0641692 0
M  V30 5550 H 531.145 1.49083 -0.0972365 0
M  V30 5551 H 533.027 3.50189 2.34405 0
M  V30 5552 H 531.702 2.30834 2.2693 0
M  V30 5553 H 530.609 3.71635 0.428782 0
M  V30 5554 H 531.942 4.88727 0.583698 0
M  V30 5555 N 533.594 0.0601682 1.57485 0
M  V30 5556 C 534.526 -0.94047 2.09016 0
M  V30 5557 C 535.539 -1.26897 1.01985 0
M  V30 5558 O 536.728 -1.22819 1.29529 0
M  V30 5559 C 533.828 -2.25955 2.52582 0
M  V30 5560 C 533.001 -2.11163 3.83052 0
M  V30 5561 C 532.06 -3.26273 4.12835 0
M  V30 5562 O 531.086 -3.01779 4.82616 0
M  V30 5563 N 532.288 -4.51022 3.65458 0
M  V30 5564 H 535.053 -0.500578 2.9549 0
M  V30 5565 H 532.614 -0.125852 1.6141 0
M  V30 5566 H 534.606 -3.01846 2.69575 0
M  V30 5567 H 533.176 -2.61481 1.71308 0
M  V30 5568 H 532.396 -1.19808 3.75552 0
M  V30 5569 H 533.684 -1.98517 4.68475 0
M  V30 5570 H 533.082 -4.73811 3.09062 0
M  V30 5571 H 531.639 -5.23978 3.87673 0
M  V30 5572 N 535.072 -1.5615 -0.213296 0
M  V30 5573 C 536.349 -1.70349 -0.961281 0
M  V30 5574 C 536.729 -0.609791 -2.02101 0
M  V30 5575 O 536.077 0.381987 -2.25285 0
M  V30 5576 C 536.287 -3.11982 -1.56424 0
M  V30 5577 C 537.635 -3.71649 -2.05334 0
M  V30 5578 O 538.659 -3.14995 -1.66302 0
M  V30 5579 O 537.518 -4.71038 -2.77102 0
M  V30 5580 H 534.612 -0.694121 -0.449582 0
M  V30 5581 H 537.158 -1.68464 -0.204426 0
M  V30 5582 H 535.93 -3.83046 -0.799457 0
M  V30 5583 H 535.553 -3.18019 -2.38641 0
M  V30 5584 N 536.55 0.480323 -1.50102 0
M  V30 5585 C 537.513 1.56181 -1.6775 0
M  V30 5586 C 538.513 1.51156 -0.548503 0
M  V30 5587 O 539.703 1.5394 -0.815363 0
M  V30 5588 C 536.835 2.95823 -1.69415 0
M  V30 5589 H 538.028 1.41855 -2.6423 0
M  V30 5590 H 535.581 0.70605 -1.39444 0
M  V30 5591 H 536.316 3.15604 -0.745948 0
M  V30 5592 H 536.101 3.00878 -2.51425 0
M  V30 5593 H 537.591 3.74359 -1.85054 0
M  V30 5594 N 538.028 1.39524 0.732853 0
M  V30 5595 C 539.274 1.37068 1.49467 0
M  V30 5596 C 539.607 -0.0327166 1.94172 0
M  V30 5597 O 538.882 -0.998071 1.66939 0
M  V30 5598 C 539.165 2.34494 2.73285 0
M  V30 5599 C 539.018 3.83784 2.34585 0
M  V30 5600 C 540.337 2.29717 3.75391 0
M  V30 5601 H 537.456 0.499206 0.542183 0
M  V30 5602 H 540.098 1.70532 0.837783 0
M  V30 5603 H 538.248 2.06087 3.29333 0
M  V30 5604 H 539.92 4.22949 1.84151 0
M  V30 5605 H 538.163 4.00455 1.66787 0
M  V30 5606 H 538.834 4.47444 3.23262 0
M  V30 5607 H 541.31 2.54839 3.28932 0
M  V30 5608 H 540.186 2.99962 4.59689 0
M  V30 5609 H 540.447 1.30291 4.22465 0
M  V30 5610 N 539.506 -0.963266 1.24736 0
M  V30 5611 C 540.456 -2.0438 1.01058 0
M  V30 5612 C 541.44 -1.60824 -0.0495354 0
M  V30 5613 O 542.632 -1.76232 0.164741 0
M  V30 5614 C 539.761 -3.37617 0.622067 0
M  V30 5615 C 538.847 -3.87722 1.7185 0
M  V30 5616 N 539.238 -4.10715 2.95207 0
M  V30 5617 C 537.536 -4.16426 1.59703 0
M  V30 5618 C 538.237 -4.51872 3.66315 0
M  V30 5619 N 537.213 -4.57302 2.93897 0
M  V30 5620 H 541.015 -2.20138 1.94721 0
M  V30 5621 H 538.529 -1.14741 1.14927 0
M  V30 5622 H 540.526 -4.14638 0.43366 0
M  V30 5623 H 539.186 -3.23242 -0.307327 0
M  V30 5624 H 540.197 -3.98037 3.31341 0
M  V30 5625 H 536.874 -4.10962 0.73598 0
M  V30 5626 H 538.264 -4.78037 4.72155 0
M  V30 5627 N 540.985 -1.06182 -1.16461 0
M  V30 5628 C 541.895 -0.682671 -2.24448 0
M  V30 5629 C 542.911 0.30078 -1.71381 0
M  V30 5630 O 544.087 0.150376 -2.00838 0
M  V30 5631 C 541.152 -0.0737202 -3.46622 0
M  V30 5632 C 540.213 -1.10889 -4.14731 0
M  V30 5633 C 539.446 -0.528908 -5.31073 0
M  V30 5634 O 539.669 0.65868 -5.66584 0
M  V30 5635 O 538.603 -1.26805 -5.88391 0
M  V30 5636 H 542.429 -1.58291 -2.59187 0
M  V30 5637 H 540.014 -0.834013 -1.23954 0
M  V30 5638 H 541.896 0.264192 -4.20571 0
M  V30 5639 H 540.571 0.800015 -3.13658 0
M  V30 5640 H 539.478 -1.49896 -3.42756 0
M  V30 5641 H 540.811 -1.95412 -4.51747 0
M  V30 5642 N 542.463 1.3308 -0.844243 0
M  V30 5643 C 543.74 1.92178 -0.364261 0
M  V30 5644 C 544.12 1.76961 1.15101 0
M  V30 5645 O 543.468 1.16128 1.9679 0
M  V30 5646 C 543.678 3.393 -0.817106 0
M  V30 5647 C 545.026 4.16444 -0.828236 0
M  V30 5648 O 546.05 3.47975 -0.761062 0
M  V30 5649 O 544.909 5.38685 -0.920926 0
M  V30 5650 H 542.003 0.820411 -0.10419 0
M  V30 5651 H 544.549 1.41918 -0.930453 0
M  V30 5652 H 543.321 3.44272 -1.85991 0
M  V30 5653 H 542.944 3.96947 -0.227785 0
M  V30 5654 N 543.941 0.601185 1.45683 0
M  V30 5655 C 545.357 0.264315 1.57396 0
M  V30 5656 C 545.557 -1.23324 1.59353 0
M  V30 5657 O 544.613 -2.01594 1.52039 0
M  V30 5658 C 545.926 0.929839 2.85962 0
M  V30 5659 C 547.474 0.905156 2.99626 0
M  V30 5660 C 547.949 1.55057 4.30954 0
M  V30 5661 N 549.44 1.51576 4.37697 0
M  V30 5662 C 550.175 1.98436 5.37969 0
M  V30 5663 N 549.671 2.53352 6.44813 0
M  V30 5664 N 551.464 1.89242 5.29286 0
M  V30 5665 H 543.615 1.57363 1.42656 0
M  V30 5666 H 545.878 0.658831 0.681649 0
M  V30 5667 H 545.584 1.98404 2.90394 0
M  V30 5668 H 545.458 0.449224 3.74515 0
M  V30 5669 H 547.845 -0.14048 2.94765 0
M  V30 5670 H 547.926 1.42397 2.12501 0
M  V30 5671 H 547.57 2.5955 4.36573 0
M  V30 5672 H 547.5 1.00682 5.16886 0
M  V30 5673 H 549.991 1.11452 3.61091 0
M  V30 5674 H 550.304 2.86918 7.17564 0
M  V30 5675 H 548.649 2.57388 6.45582 0
M  V30 5676 H 551.84 1.46083 4.44722 0
M  V30 5677 H 552.013 2.26075 6.07284 0
M  V30 5678 N 545.419 -1.53889 0.339982 0
M  V30 5679 C 546.369 -2.2165 -0.534354 0
M  V30 5680 C 547.353 -1.20266 -1.06887 0
M  V30 5681 O 548.545 -1.45827 -1.00316 0
M  V30 5682 C 545.674 -2.99014 -1.68659 0
M  V30 5683 C 544.76 -4.07751 -1.16618 0
M  V30 5684 N 545.151 -5.04469 -0.366717 0
M  V30 5685 C 543.449 -4.21998 -1.4434 0
M  V30 5686 C 544.15 -5.81638 -0.0847275 0
M  V30 5687 N 543.126 -5.39388 -0.675391 0
M  V30 5688 H 546.928 -2.93781 0.0835562 0
M  V30 5689 H 544.442 -1.61736 0.146665 0
M  V30 5690 H 546.439 -3.46056 -2.32489 0
M  V30 5691 H 545.099 -2.28408 -2.30781 0
M  V30 5692 H 546.11 -5.17899 -0.00811038 0
M  V30 5693 H 542.787 -3.62612 -2.06928 0
M  V30 5694 H 544.177 -6.69563 0.559943 0
M  V30 5695 N 546.897 -0.0685191 -1.57451 0
M  V30 5696 C 548.146 0.600898 -1.92541 0
M  V30 5697 C 548.459 1.70967 -0.950239 0
M  V30 5698 O 549.665 2.43844 -1.19384 0
M  V30 5699 C 548.121 1.12019 -3.42023 0
M  V30 5700 C 547.729 0.0426028 -4.4798 0
M  V30 5701 C 549.473 1.76386 -3.86119 0
M  V30 5702 C 547.38 0.575759 -5.88591 0
M  V30 5703 H 546.31 0.228225 -0.71863 0
M  V30 5704 H 548.961 -0.140223 -1.82963 0
M  V30 5705 H 547.343 1.91418 -3.46663 0
M  V30 5706 H 548.517 -0.73182 -4.54952 0
M  V30 5707 H 546.832 -0.504642 -4.13331 0
M  V30 5708 H 549.429 2.17302 -4.88553 0
M  V30 5709 H 549.772 2.62255 -3.23308 0
M  V30 5710 H 550.305 1.03615 -3.84069 0
M  V30 5711 H 547.044 -0.245691 -6.55039 0
M  V30 5712 H 546.564 1.31778 -5.85145 0
M  V30 5713 H 548.243 1.0532 -6.3837 0
M  V30 5714 N 548.375 1.56261 0.205012 0
M  V30 5715 C 549.622 1.8004 0.926927 0
M  V30 5716 C 549.95 0.640086 1.83666 0
M  V30 5717 O 549.205 -0.374702 1.92079 0
M  V30 5718 C 549.504 3.09722 1.78345 0
M  V30 5719 C 549.17 4.39082 1.02555 0
M  V30 5720 C 547.832 4.74226 0.816256 0
M  V30 5721 C 550.184 5.18877 0.491559 0
M  V30 5722 C 547.512 5.86668 0.0613287 0
M  V30 5723 C 549.864 6.32105 -0.250107 0
M  V30 5724 C 548.528 6.6584 -0.470508 0
M  V30 5725 H 547.798 0.658812 0.339187 0
M  V30 5726 H 550.445 1.90515 0.19395 0
M  V30 5727 H 548.75 2.9444 2.5848 0
M  V30 5728 H 550.447 3.25324 2.34446 0
M  V30 5729 H 547.037 4.11497 1.19868 0
M  V30 5730 H 551.221 4.92147 0.640684 0
M  V30 5731 H 546.477 6.11283 -0.119501 0
M  V30 5732 H 550.651 6.93157 -0.671307 0
M  V30 5733 H 548.278 7.5281 -1.05739 0
M  V30 5734 N 549.853 -0.472356 1.50355 0
M  V30 5735 C 551.083 -1.24603 1.64796 0
M  V30 5736 C 551.491 -1.86297 0.330156 0
M  V30 5737 O 550.834 -1.69934 -0.697728 0
M  V30 5738 C 550.896 -2.39578 2.68035 0
M  V30 5739 C 550.56 -1.98531 4.11624 0
M  V30 5740 C 551.557 -1.50856 4.97532 0
M  V30 5741 C 549.242 -2.0729 4.57532 0
M  V30 5742 C 551.236 -1.12481 6.27397 0
M  V30 5743 C 548.923 -1.68527 5.87403 0
M  V30 5744 C 549.921 -1.212 6.7216 0
M  V30 5745 O 549.609 -0.829728 7.99607 0
M  V30 5746 H 549.341 -0.383035 0.55701 0
M  V30 5747 H 551.895 -0.570392 1.97321 0
M  V30 5748 H 550.125 -3.10309 2.30749 0
M  V30 5749 H 551.814 -3.01544 2.71709 0
M  V30 5750 H 552.58 -1.43511 4.63281 0
M  V30 5751 H 548.459 -2.43076 3.91708 0
M  V30 5752 H 552.003 -0.754698 6.93506 0
M  V30 5753 H 547.9 -1.7553 6.21176 0
M  V30 5754 H 548.668 -0.958689 8.12866 0
M  V30 5755 N 551.331 -1.39911 -0.725443 0
M  V30 5756 C 552.261 -1.42138 -1.85254 0
M  V30 5757 C 553.242 -0.283513 -1.67721 0
M  V30 5758 O 554.427 -0.490717 -1.87898 0
M  V30 5759 C 551.557 -1.27354 -3.23107 0
M  V30 5760 C 550.511 -2.3864 -3.55296 0
M  V30 5761 C 549.837 -2.08939 -4.92188 0
M  V30 5762 C 551.137 -3.8097 -3.57295 0
M  V30 5763 H 552.831 -2.36461 -1.83648 0
M  V30 5764 H 550.377 -1.13817 -0.882138 0
M  V30 5765 H 552.33 -1.2753 -4.01639 0
M  V30 5766 H 551.054 -0.295025 -3.25265 0
M  V30 5767 H 549.713 -2.37696 -2.79099 0
M  V30 5768 H 549.361 -1.09502 -4.90936 0
M  V30 5769 H 549.061 -2.83491 -5.14691 0
M  V30 5770 H 550.585 -2.10781 -5.73065 0
M  V30 5771 H 551.999 -3.8379 -4.25885 0
M  V30 5772 H 550.396 -4.5496 -3.9132 0
M  V30 5773 H 551.466 -4.11261 -2.5689 0
M  V30 5774 N 552.809 0.956637 -1.25245 0
M  V30 5775 C 554.034 1.74104 -1.12706 0
M  V30 5776 C 554.459 1.85436 0.315429 0
M  V30 5777 O 553.817 1.33334 1.22848 0
M  V30 5778 C 553.865 3.1338 -1.78396 0
M  V30 5779 O 552.969 3.98485 -1.06224 0
M  V30 5780 H 552.31 0.53476 -0.393609 0
M  V30 5781 H 554.84 1.19924 -1.65769 0
M  V30 5782 H 554.85 3.6385 -1.846 0
M  V30 5783 H 553.525 3.04448 -2.83345 0
M  V30 5784 H 552.102 3.56952 -1.07886 0
M  V30 5785 N 554.287 1.06798 1.15896 0
M  V30 5786 C 555.235 0.677525 2.22514 0
M  V30 5787 C 556.229 -0.308994 1.66558 0
M  V30 5788 O 557.435 -0.173308 1.79164 0
M  V30 5789 H 553.81 0.200994 0.724642 0
M  V30 5790 H 555.781 1.5865 2.52731 0
M  V30 5791 C 554.53 0.0854153 3.47595 0
M  V30 5792 H 553.853 0.835645 3.90969 0
M  V30 5793 H 555.293 -0.150199 4.23734 0
M  V30 5794 C 553.752 -1.1724 3.15843 0
M  V30 5795 O 554.282 -2.25965 3.32119 0
M  V30 5796 N 552.488 -1.07636 2.69931 0
M  V30 5797 H 552.035 -0.191559 2.56887 0
M  V30 5798 H 551.993 -1.91876 2.4906 0
M  V30 5799 N 555.766 -1.3263 0.851289 0
M  V30 5800 C 557.015 -1.96633 0.449267 0
M  V30 5801 C 557.328 -1.68131 -0.999562 0
M  V30 5802 O 558.534 -2.25845 -1.50685 0
M  V30 5803 C 556.99 -3.51946 0.752446 0
M  V30 5804 C 556.598 -3.89311 2.21678 0
M  V30 5805 C 558.342 -4.22437 0.417983 0
M  V30 5806 C 556.249 -5.37655 2.46336 0
M  V30 5807 H 555.179 -0.735888 0.164269 0
M  V30 5808 H 557.83 -1.51073 1.0416 0
M  V30 5809 H 556.212 -3.95899 0.0895858 0
M  V30 5810 H 557.386 -3.56378 2.92115 0
M  V30 5811 H 555.701 -3.31836 2.51543 0
M  V30 5812 H 558.298 -5.31549 0.579674 0
M  V30 5813 H 558.641 -4.11349 -0.640115 0
M  V30 5814 H 559.174 -3.84057 1.03659 0
M  V30 5815 H 555.913 -5.5376 3.50757 0
M  V30 5816 H 555.433 -5.72005 1.80473 0
M  V30 5817 H 557.112 -6.04695 2.30115 0
M  V30 5818 N 557.244 -0.608902 -1.45362 0
M  V30 5819 C 558.154 0.110969 -2.34337 0
M  V30 5820 C 559.17 0.859007 -1.51318 0
M  V30 5821 O 560.346 0.816296 -1.84116 0
M  V30 5822 C 557.411 1.09494 -3.28956 0
M  V30 5823 C 556.472 0.348718 -4.27881 0
M  V30 5824 C 555.705 1.28582 -5.17979 0
M  V30 5825 O 555.928 2.52369 -5.11533 0
M  V30 5826 O 554.862 0.782172 -5.96796 0
M  V30 5827 H 558.688 -0.620258 -2.97299 0
M  V30 5828 H 556.273 -0.36916 -1.44767 0
M  V30 5829 H 558.155 1.66163 -3.87257 0
M  V30 5830 H 556.83 1.80717 -2.68557 0
M  V30 5831 H 555.737 -0.260465 -3.73192 0
M  V30 5832 H 557.07 -0.323049 -4.91139 0
M  V30 5833 N 558.722 1.53707 -0.348139 0
M  V30 5834 C 559.67 2.26671 0.521808 0
M  V30 5835 C 560.664 1.28988 1.09811 0
M  V30 5836 O 561.87 1.4668 1.04332 0
M  V30 5837 H 558.245 0.728387 0.186968 0
M  V30 5838 H 560.216 2.98176 -0.115563 0
M  V30 5839 C 558.965 3.05591 1.6586 0
M  V30 5840 H 558.288 3.80589 1.22443 0
M  V30 5841 H 559.728 3.59851 2.24239 0
M  V30 5842 C 558.187 2.15366 2.59073 0
M  V30 5843 O 558.717 1.7528 3.61441 0
M  V30 5844 N 556.923 1.80352 2.27863 0
M  V30 5845 H 556.47 2.13149 1.44656 0
M  V30 5846 H 556.428 1.20268 2.90488 0
M  V30 5847 N 560.2 0.0768682 1.57412 0
M  V30 5848 C 561.148 -0.906229 2.1422 0
M  V30 5849 C 562.142 -1.30477 1.08037 0
M  V30 5850 O 563.348 -1.28143 1.2641 0
M  V30 5851 H 559.723 -0.310207 0.685037 0
M  V30 5852 H 561.694 -0.402228 2.95677 0
M  V30 5853 C 560.443 -2.16245 2.72274 0
M  V30 5854 H 559.766 -1.86463 3.53655 0
M  V30 5855 H 561.206 -2.83134 3.15613 0
M  V30 5856 C 559.665 -2.92437 1.67279 0
M  V30 5857 O 560.195 -3.86322 1.10081 0
M  V30 5858 N 558.401 -2.55637 1.38195 0
M  V30 5859 H 557.948 -1.79363 1.84897 0
M  V30 5860 H 557.906 -3.06919 0.681787 0
M  V30 5861 N 561.678 -1.56367 -0.196722 0
M  V30 5862 C 562.924 -1.80796 -0.918725 0
M  V30 5863 C 563.257 -0.650645 -1.82976 0
M  V30 5864 O 562.532 0.348889 -1.91345 0
M  V30 5865 C 562.815 -3.15472 -1.73636 0
M  V30 5866 C 562.668 -4.41693 -0.85015 0
M  V30 5867 C 563.987 -3.46824 -2.70927 0
M  V30 5868 H 561.106 -0.657702 -0.332561 0
M  V30 5869 H 563.748 -1.89086 -0.186186 0
M  V30 5870 H 561.898 -3.08536 -2.36088 0
M  V30 5871 H 563.57 -4.60673 -0.240459 0
M  V30 5872 H 561.813 -4.33517 -0.156785 0
M  V30 5873 H 562.484 -5.32419 -1.45719 0
M  V30 5874 H 564.96 -3.54049 -2.18607 0
M  V30 5875 H 563.836 -4.4218 -3.25219 0
M  V30 5876 H 564.097 -2.70236 -3.49893 0
M  V30 5877 N 563.156 0.464375 -1.50603 0
M  V30 5878 C 564.572 0.798684 -1.38178 0
M  V30 5879 C 564.772 1.96568 -0.44308 0
M  V30 5880 O 563.828 2.52252 0.111814 0
M  V30 5881 C 565.141 1.10444 -2.79683 0
M  V30 5882 C 566.689 1.2105 -2.88645 0
M  V30 5883 C 567.164 1.54934 -4.30998 0
M  V30 5884 N 568.655 1.61913 -4.3398 0
M  V30 5885 C 569.39 1.8965 -5.41129 0
M  V30 5886 N 568.886 2.15361 -6.58477 0
M  V30 5887 N 570.679 1.91207 -5.28579 0
M  V30 5888 H 562.83 -0.304603 -2.10204 0
M  V30 5889 H 565.093 -0.0737804 -0.945125 0
M  V30 5890 H 564.799 0.319934 -3.50242 0
M  V30 5891 H 564.673 2.03896 -3.17342 0
M  V30 5892 H 567.06 1.98567 -2.18301 0
M  V30 5893 H 567.141 0.255613 -2.5452 0
M  V30 5894 H 566.785 0.779549 -5.01882 0
M  V30 5895 H 566.715 2.51584 -4.62615 0
M  V30 5896 H 569.206 1.44055 -3.49366 0
M  V30 5897 H 569.519 2.35818 -7.35941 0
M  V30 5898 H 567.864 2.1274 -6.6164 0
M  V30 5899 H 571.055 1.70622 -4.35897 0
M  V30 5900 H 571.228 2.12488 -6.12171 0
M  V30 5901 N 564.634 1.40294 0.718013 0
M  V30 5902 C 565.544 1.42678 1.86226 0
M  V30 5903 C 566.56 0.319655 1.71039 0
M  V30 5904 O 567.736 0.563852 1.93346 0
M  V30 5905 C 564.801 1.2852 3.21999 0
M  V30 5906 C 563.862 2.49354 3.49458 0
M  V30 5907 C 563.095 2.35863 4.78753 0
M  V30 5908 O 563.318 1.37114 5.53675 0
M  V30 5909 O 562.252 3.25189 5.06494 0
M  V30 5910 H 566.078 2.39167 1.87171 0
M  V30 5911 H 563.663 1.2159 0.868112 0
M  V30 5912 H 565.545 1.22824 4.03103 0
M  V30 5913 H 564.22 0.351359 3.21787 0
M  V30 5914 H 563.127 2.60628 2.68373 0
M  V30 5915 H 564.46 3.41491 3.54464 0
M  V30 5916 N 566.112 -0.949982 1.2575 0
M  V30 5917 C 567.342 -1.72721 1.13363 0
M  V30 5918 C 567.75 -1.86562 -0.314842 0
M  V30 5919 O 567.093 -1.36621 -1.22803 0
M  V30 5920 C 567.155 -3.15695 1.7198 0
M  V30 5921 C 566.819 -3.25268 3.21014 0
M  V30 5922 C 567.816 -3.09222 4.17945 0
M  V30 5923 C 565.501 -3.4894 3.61312 0
M  V30 5924 C 567.495 -3.16701 5.53154 0
M  V30 5925 C 565.182 -3.56055 4.96657 0
M  V30 5926 C 566.18 -3.3995 5.92387 0
M  V30 5927 O 565.868 -3.46757 7.25269 0
M  V30 5928 H 565.6 -0.547888 0.395973 0
M  V30 5929 H 568.154 -1.20009 1.66694 0
M  V30 5930 H 566.384 -3.69791 1.13101 0
M  V30 5931 H 568.073 -3.75295 1.54624 0
M  V30 5932 H 568.839 -2.90798 3.88151 0
M  V30 5933 H 564.718 -3.60534 2.87291 0
M  V30 5934 H 568.262 -3.04048 6.27854 0
M  V30 5935 H 564.159 -3.73997 5.26115 0
M  V30 5936 H 564.927 -3.63358 7.33426 0
M  V30 5937 N 567.59 -1.07411 -1.15328 0
M  V30 5938 C 568.54 -0.664788 -2.18093 0
M  V30 5939 C 569.524 0.310395 -1.57878 0
M  V30 5940 O 570.716 0.124026 -1.76565 0
M  V30 5941 C 567.845 -0.0647822 -3.43239 0
M  V30 5942 C 566.931 -1.06514 -4.10506 0
M  V30 5943 N 567.322 -2.24491 -4.53252 0
M  V30 5944 C 565.62 -0.898613 -4.36853 0
M  V30 5945 C 566.321 -2.8796 -5.05424 0
M  V30 5946 N 565.297 -2.15622 -4.99007 0
M  V30 5947 H 569.099 -1.56333 -2.48872 0
M  V30 5948 H 566.613 -0.947393 -1.31902 0
M  V30 5949 H 568.61 0.246363 -4.16171 0
M  V30 5950 H 567.27 0.828866 -3.13943 0
M  V30 5951 H 568.281 -2.62205 -4.46619 0
M  V30 5952 H 564.958 -0.0579118 -4.1746 0
M  V30 5953 H 566.348 -3.88137 -5.48452 0
M  V30 5954 N 569.068 1.32177 -0.85831 0
M  V30 5955 C 570.484 1.49873 -0.548656 0
M  V30 5956 C 570.684 1.79278 0.919874 0
M  V30 5957 O 569.74 1.86451 1.70271 0
M  V30 5958 C 571.053 2.64043 -1.4388 0
M  V30 5959 C 572.601 2.77928 -1.43961 0
M  V30 5960 C 573.076 3.95182 -2.31506 0
M  V30 5961 N 574.567 4.0245 -2.29321 0
M  V30 5962 C 575.302 4.9242 -2.93786 0
M  V30 5963 N 574.798 5.87373 -3.67376 0
M  V30 5964 N 576.591 4.85572 -2.83155 0
M  V30 5965 H 568.742 1.11357 -1.80868 0
M  V30 5966 H 571.005 0.549175 -0.772729 0
M  V30 5967 H 570.711 2.49055 -2.48324 0
M  V30 5968 H 570.585 3.59912 -1.12885 0
M  V30 5969 H 572.972 2.92338 -0.402813 0
M  V30 5970 H 573.053 1.82762 -1.78974 0
M  V30 5971 H 572.697 3.81531 -3.35256 0
M  V30 5972 H 572.627 4.89633 -1.93823 0
M  V30 5973 H 575.118 3.34507 -1.75822 0
M  V30 5974 H 575.431 6.52728 -4.13722 0
M  V30 5975 H 573.776 5.87388 -3.71484 0
M  V30 5976 H 576.967 4.10363 -2.25211 0
M  V30 5977 H 577.14 5.55486 -3.33676 0
M  V30 5978 N 570.547 0.616602 1.45037 0
M  V30 5979 C 571.958 0.199359 1.85633 0
M  V30 5980 C 572.309 -1.24588 1.51566 0
M  V30 5981 O 571.434 -1.94594 0.94668 0
M  V30 5982 C 572.029 0.355033 3.36935 0
M  V30 5983 C 570.588 -0.00758748 3.76399 0
M  V30 5984 C 569.735 0.675256 2.68953 0
M  V30 5985 H 572.686 0.822708 1.3571 0
M  V30 5986 H 572.707 -0.410201 3.78282 0
M  V30 5987 H 572.219 1.40699 3.61698 0
M  V30 5988 H 570.32 -1.05837 3.57252 0
M  V30 5989 H 570.433 0.392346 4.77491 0
M  V30 5990 H 568.797 0.111992 2.54454 0
M  V30 5991 H 569.58 1.72952 2.96551 0
M  V30 5992 N 572.025 -1.5352 0.356285 0
M  V30 5993 C 572.935 -2.29151 -0.502712 0
M  V30 5994 C 573.951 -1.34753 -1.1008 0
M  V30 5995 O 575.127 -1.67803 -1.11374 0
M  V30 5996 C 572.192 -3.05911 -1.63154 0
M  V30 5997 C 571.253 -4.15958 -1.06194 0
M  V30 5998 C 570.486 -4.8905 -2.13696 0
M  V30 5999 O 570.709 -4.61919 -3.34645 0
M  V30 6000 O 569.643 -5.75202 -1.77275 0
M  V30 6001 H 573.469 -3.03492 0.112466 0
M  V30 6002 H 571.054 -1.4891 0.120942 0
M  V30 6003 H 572.936 -3.53874 -2.28804 0
M  V30 6004 H 571.611 -2.34415 -2.23229 0
M  V30 6005 H 570.518 -3.7227 -0.369603 0
M  V30 6006 H 571.851 -4.89593 -0.505872 0
M  V30 6007 O 573.542 -0.225101 -1.59924 0
M  V30 6008 H 574.233 0.354711 -1.90425 0
M  V30 END ATOM
M  V30 BEGIN BOND
M  V30 END BOND
M  V30 END CTAB
M  END
$$$$
