drugbank_target|Q46444 Quinohemoprotein ethanol dehydrogenase type-1 (DB03051; DB03205; DB03317; DB03679)
 OpenBabel12092120013D

  0  0  0     0  0            999 V3000
M  V30 BEGIN CTAB
M  V30 COUNTS 10692 10855 0 0 0
M  V30 BEGIN ATOM
M  V30 1 H -0.908 1.98254 -0.117106 0
M  V30 2 N 0 1.576 0 0
M  V30 3 C 0.933 2.03868 1.02534 0
M  V30 4 C 1.911 0.928543 1.3348 0
M  V30 5 O 3.095 1.19667 1.45644 0
M  V30 6 C 0.222 2.43627 2.35294 0
M  V30 7 C -0.732 3.65373 2.2001 0
M  V30 8 S 0.101 5.13292 1.52614 0
M  V30 9 C 1.257 5.56322 2.86805 0
M  V30 10 H 1.49 2.90518 0.631377 0
M  V30 11 H -0.977 1.52953 0.210867 0
M  V30 12 H 0.981 2.67203 3.11629 0
M  V30 13 H -0.358 1.57376 2.7183 0
M  V30 14 H -1.165 3.90944 3.18086 0
M  V30 15 H -1.563 3.418 1.51819 0
M  V30 16 H 0.729 5.58782 3.83104 0
M  V30 17 H 1.672 6.56266 2.65933 0
M  V30 18 H 2.08 4.83886 2.90714 0
M  V30 19 N 1.4781 -0.272755 1.55222 0
M  V30 20 C 2.3881 -1.35918 1.91216 0
M  V30 21 C 3.4041 -1.54026 0.809436 0
M  V30 22 O 4.5801 -1.68148 1.10852 0
M  V30 23 C 1.6451 -2.69834 2.17693 0
M  V30 24 C 0.7061 -2.6047 3.41253 0
M  V30 25 C -0.0609 -3.88 3.66458 0
M  V30 26 O 0.1621 -4.88693 2.94169 0
M  V30 27 O -0.9039 -3.88189 4.59992 0
M  V30 28 H 2.9221 -1.0839 2.83699 0
M  V30 29 H 0.5071 -0.471301 1.41771 0
M  V30 30 H 2.3891 -3.49017 2.36147 0
M  V30 31 H 1.0641 -2.97148 1.28392 0
M  V30 32 H -0.0289 -1.79663 3.28134 0
M  V30 33 H 1.3041 -2.38106 4.30774 0
M  V30 34 N 2.9562 -1.48159 -0.537278 0
M  V30 35 C 4.3722 -1.34118 -0.865129 0
M  V30 36 C 4.5722 -0.346678 -1.98495 0
M  V30 37 O 3.6282 0.234715 -2.51407 0
M  V30 38 C 4.9412 -2.73963 -1.23954 0
M  V30 39 C 6.4892 -2.82397 -1.34984 0
M  V30 40 C 6.9642 -4.22928 -1.75772 0
M  V30 41 N 8.4552 -4.25566 -1.82887 0
M  V30 42 C 9.1902 -5.31235 -2.15817 0
M  V30 43 N 8.6862 -6.47189 -2.47222 0
M  V30 44 N 10.4792 -5.18624 -2.16761 0
M  V30 45 H 2.6302 -2.1144 0.201715 0
M  V30 46 H 4.8932 -0.947598 0.0275949 0
M  V30 47 H 4.5992 -3.48264 -0.490381 0
M  V30 48 H 4.4732 -3.0702 -2.19132 0
M  V30 49 H 6.8602 -2.08356 -2.08978 0
M  V30 50 H 6.9412 -2.5297 -0.379448 0
M  V30 51 H 6.5852 -4.97482 -1.02341 0
M  V30 52 H 6.5152 -4.49794 -2.73848 0
M  V30 53 H 9.0062 -3.41924 -1.60924 0
M  V30 54 H 9.3192 -7.23564 -2.71433 0
M  V30 55 H 7.6642 -6.50476 -2.44757 0
M  V30 56 H 10.8552 -4.27056 -1.91679 0
M  V30 57 H 11.0282 -6.01078 -2.42093 0
M  V30 58 N 4.4343 0.785586 -1.36625 0
M  V30 59 C 5.3643 1.91259 -1.33949 0
M  V30 60 C 6.3453 1.68795 -0.210325 0
M  V30 61 O 7.5303 1.89854 -0.408561 0
M  V30 62 C 4.6603 3.28339 -1.13186 0
M  V30 63 C 3.6143 3.65335 -2.22967 0
M  V30 64 C 2.9403 5.00806 -1.87342 0
M  V30 65 C 4.2403 3.7352 -3.65075 0
M  V30 66 H 5.9343 1.93755 -2.28253 0
M  V30 67 H 3.4803 0.930788 -1.09874 0
M  V30 68 H 5.4333 4.06804 -1.09948 0
M  V30 69 H 4.1573 3.2624 -0.153332 0
M  V30 70 H 2.8163 2.89169 -2.25337 0
M  V30 71 H 2.4643 4.95233 -0.880545 0
M  V30 72 H 2.1643 5.26529 -2.60846 0
M  V30 73 H 3.6883 5.81687 -1.85667 0
M  V30 74 H 5.1023 4.42168 -3.64911 0
M  V30 75 H 3.4993 4.10731 -4.37516 0
M  V30 76 H 4.5693 2.74527 -3.99703 0
M  V30 77 N 5.9124 1.20967 1.01018 0
M  V30 78 C 7.1614 1.01796 1.74128 0
M  V30 79 C 7.4744 -0.449691 1.90361 0
M  V30 80 O 8.6804 -0.76068 2.60626 0
M  V30 81 C 7.1364 1.7727 3.13215 0
M  V30 82 C 6.7444 3.28171 3.04972 0
M  V30 83 C 8.4884 1.66489 3.90489 0
M  V30 84 C 6.3954 3.96156 4.39107 0
M  V30 85 H 5.3254 0.377276 0.652824 0
M  V30 86 H 7.9764 1.44651 1.12909 0
M  V30 87 H 6.3584 1.27205 3.75013 0
M  V30 88 H 7.5324 3.85499 2.52443 0
M  V30 89 H 5.8474 3.39437 2.41188 0
M  V30 90 H 8.4444 2.14617 4.89738 0
M  V30 91 H 8.7874 0.6222 4.11624 0
M  V30 92 H 9.3204 2.14003 3.35332 0
M  V30 93 H 6.0594 5.00604 4.23174 0
M  V30 94 H 5.5794 3.43617 4.91617 0
M  V30 95 H 7.2584 4.00774 5.07926 0
M  V30 96 N 7.3905 -1.2043 1.01659 0
M  V30 97 C 8.6675 -1.8548 0.621004 0
M  V30 98 C 9.0475 -1.9091 -0.900919 0
M  V30 99 O 8.3955 -1.41694 -1.79263 0
M  V30 100 C 8.6055 -3.25119 1.2688 0
M  V30 101 C 9.9535 -4.01403 1.38423 0
M  V30 102 O 10.9775 -3.34473 1.22501 0
M  V30 103 O 9.8365 -5.21265 1.64151 0
M  V30 104 H 6.9305 -0.798761 0.214266 0
M  V30 105 H 9.4765 -1.28019 1.11396 0
M  V30 106 H 8.2485 -3.15932 2.30873 0
M  V30 107 H 7.8715 -3.90212 0.762917 0
M  V30 108 N 8.8686 -0.792821 -1.36206 0
M  V30 109 C 9.8166 -0.181555 -2.3189 0
M  V30 110 C 10.8106 0.661025 -1.55971 0
M  V30 111 O 12.0166 0.555728 -1.71206 0
M  V30 112 H 8.3916 -0.0399382 -0.750939 0
M  V30 113 H 10.3626 -1.00394 -2.81005 0
M  V30 114 C 9.1116 0.666444 -3.41253 0
M  V30 115 H 8.4346 0.0274489 -3.99791 0
M  V30 116 H 9.8746 1.06076 -4.10517 0
M  V30 117 C 8.3336 1.82614 -2.83114 0
M  V30 118 O 8.8636 2.9229 -2.75553 0
M  V30 119 N 7.0696 1.63333 -2.40356 0
M  V30 120 H 6.6166 0.741217 -2.46706 0
M  V30 121 H 6.5746 2.41087 -2.01803 0
M  V30 122 N 10.3467 1.47872 -0.545128 0
M  V30 123 C 11.5717 2.07391 -0.0190611 0
M  V30 124 C 11.9967 1.39688 1.25971 0
M  V30 125 O 11.3547 0.467816 1.7516 0
M  V30 126 C 11.4027 3.60188 0.172335 0
M  V30 127 O 10.5067 3.9339 1.23766 0
M  V30 128 H 9.8477 0.662411 -0.0459059 0
M  V30 129 H 12.3777 1.90066 -0.757365 0
M  V30 130 H 12.3877 4.06129 0.390305 0
M  V30 131 H 11.0627 4.08865 -0.761725 0
M  V30 132 H 9.6397 3.5921 1.00114 0
M  V30 133 N 11.8248 0.280983 1.55075 0
M  V30 134 C 12.7748 -0.618585 2.19448 0
M  V30 135 C 13.7588 -1.11401 1.16098 0
M  V30 136 O 14.9508 -1.0581 1.41891 0
M  V30 137 C 12.0798 -1.79951 2.92357 0
M  V30 138 C 11.1658 -1.321 4.03002 0
M  V30 139 N 11.5568 -0.559044 5.02701 0
M  V30 140 C 9.8548 -1.60346 4.16179 0
M  V30 141 C 10.5558 -0.306722 5.80891 0
M  V30 142 N 9.5318 -0.880825 5.36416 0
M  V30 143 H 13.3338 -0.0286638 2.93886 0
M  V30 144 H 10.8478 0.0848104 1.62178 0
M  V30 145 H 12.8448 -2.45531 3.36927 0
M  V30 146 H 11.5048 -2.39333 2.19431 0
M  V30 147 H 12.5158 -0.205827 5.17491 0
M  V30 148 H 9.1928 -2.20621 3.54447 0
M  V30 149 H 10.5828 0.30391 6.71212 0
M  V30 150 N 13.3029 -1.57598 0.00835791 0
M  V30 151 C 14.5509 -1.90551 -0.6734 0
M  V30 152 C 14.8719 -0.883301 -1.73847 0
M  V30 153 O 14.1419 0.0781442 -1.95744 0
M  V30 154 H 12.7219 -0.703312 -0.251717 0
M  V30 155 H 15.3839 -1.94833 0.0512592 0
M  V30 156 H 14.4799 -2.9056 -1.13935 0
M  V30 157 N 14.781 0.264519 -1.55364 0
M  V30 158 C 16.027 0.992314 -1.77552 0
M  V30 159 C 16.382 1.83626 -0.574379 0
M  V30 160 O 15.675 1.86648 0.432782 0
M  V30 161 C 15.869 1.9004 -3.02687 0
M  V30 162 C 15.698 1.14583 -4.34857 0
M  V30 163 C 14.468 0.858068 -4.97961 0
M  V30 164 C 16.666 0.532069 -5.1154 0
M  V30 165 N 14.648 0.0775974 -6.13851 0
M  V30 166 C 16.019 -0.113823 -6.19896 0
M  V30 167 C 18.074 0.440763 -4.95945 0
M  V30 168 C 16.777 -0.842231 -7.14352 0
M  V30 169 C 18.803 -0.274072 -5.90765 0
M  V30 170 C 18.165 -0.90867 -6.98515 0
M  V30 171 H 14.264 0.344811 -0.701875 0
M  V30 172 H 16.848 0.267141 -1.92859 0
M  V30 173 H 15.019 2.59775 -2.88741 0
M  V30 174 H 16.751 2.56243 -3.13243 0
M  V30 175 H 13.506 1.16547 -4.59036 0
M  V30 176 H 13.93 -0.300216 -6.76334 0
M  V30 177 H 18.572 0.917064 -4.12735 0
M  V30 178 H 16.29 -1.33019 -7.97077 0
M  V30 179 H 19.876 -0.345151 -5.80775 0
M  V30 180 H 18.756 -1.45299 -7.70622 0
M  V30 181 N 16.2591 1.48442 0.529413 0
M  V30 182 C 17.6701 1.5002 1.11134 0
M  V30 183 C 18.0211 0.27031 1.94329 0
M  V30 184 O 17.1461 -0.622507 2.07253 0
M  V30 185 C 17.7411 2.71834 2.02217 0
M  V30 186 C 16.3001 2.76283 2.55627 0
M  V30 187 C 15.4471 2.43542 1.326 0
M  V30 188 H 18.3981 1.5555 0.314641 0
M  V30 189 H 18.4191 2.50384 2.8651 0
M  V30 190 H 17.9311 3.61331 1.41639 0
M  V30 191 H 16.0321 1.90995 3.19924 0
M  V30 192 H 16.1451 3.77725 2.94721 0
M  V30 193 H 14.5091 1.94709 1.64196 0
M  V30 194 H 15.2921 3.3528 0.737734 0
M  V30 195 N 17.7372 -0.778329 1.37039 0
M  V30 196 C 18.9852 -1.53361 1.31623 0
M  V30 197 C 19.3062 -1.94739 -0.100831 0
M  V30 198 O 18.5762 -1.65797 -1.04347 0
M  V30 199 H 17.1562 -0.568794 0.484234 0
M  V30 200 H 19.8182 -0.926742 1.71457 0
M  V30 201 H 18.9142 -2.43606 1.95096 0
M  V30 202 N 19.2153 -1.21501 -1.00376 0
M  V30 203 C 20.6313 -0.972629 -1.26539 0
M  V30 204 C 20.8313 0.340257 -1.98606 0
M  V30 205 O 19.8873 1.06561 -2.28913 0
M  V30 206 C 21.2003 -2.16404 -2.08781 0
M  V30 207 C 22.7483 -2.20643 -2.22004 0
M  V30 208 C 23.2233 -3.39306 -3.07629 0
M  V30 209 N 24.7143 -3.39401 -3.15217 0
M  V30 210 C 25.4493 -4.27867 -3.81729 0
M  V30 211 N 24.9453 -5.26533 -4.5026 0
M  V30 212 N 26.7383 -4.15672 -3.78382 0
M  V30 213 H 18.8893 -2.05929 -0.520281 0
M  V30 214 H 21.1523 -0.901803 -0.292328 0
M  V30 215 H 20.8583 -3.11554 -1.63178 0
M  V30 216 H 20.7323 -2.15567 -3.09533 0
M  V30 217 H 23.1193 -1.26048 -2.66825 0
M  V30 218 H 23.2003 -2.25523 -1.20718 0
M  V30 219 H 22.8443 -4.34195 -2.63509 0
M  V30 220 H 22.7743 -3.31665 -4.09031 0
M  V30 221 H 25.2653 -2.67997 -2.66432 0
M  V30 222 H 25.5783 -5.90337 -4.98721 0
M  V30 223 H 23.9233 -5.30457 -4.49044 0
M  V30 224 H 27.1143 -3.3785 -3.23998 0
M  V30 225 H 27.2873 -4.84825 -4.2994 0
M  V30 226 N 20.6934 1.19889 -1.02296 0
M  V30 227 C 21.6264 2.21639 -0.543282 0
M  V30 228 C 22.6044 1.57275 0.412698 0
M  V30 229 O 23.7884 1.85568 0.331198 0
M  V30 230 C 20.9154 3.38057 0.208571 0
M  V30 231 C 19.9614 4.20751 -0.697933 0
M  V30 232 S 20.7944 4.89529 -2.17075 0
M  V30 233 C 21.9504 6.09363 -1.42923 0
M  V30 234 H 22.1834 2.61984 -1.40541 0
M  V30 235 H 19.7164 1.30041 -0.832387 0
M  V30 236 H 21.6744 4.05539 0.63624 0
M  V30 237 H 20.3354 2.96159 1.04635 0
M  V30 238 H 19.5284 5.03862 -0.117831 0
M  V30 239 H 19.1304 3.58556 -1.06366 0
M  V30 240 H 21.4224 6.73742 -0.712637 0
M  V30 241 H 22.3654 6.71845 -2.23673 0
M  V30 242 H 22.7734 5.56798 -0.929327 0
M  V30 243 N 22.1715 0.800033 1.35784 0
M  V30 244 C 23.4175 0.377901 1.99248 0
M  V30 245 C 23.7505 -1.05052 1.63333 0
M  V30 246 O 23.0255 -1.72768 0.893385 0
M  V30 247 C 23.3085 0.553922 3.55814 0
M  V30 248 C 23.1615 2.0268 4.01548 0
M  V30 249 C 24.4805 -0.0244802 4.40093 0
M  V30 250 H 21.5995 0.138782 0.723815 0
M  V30 251 H 24.2415 1.00835 1.61035 0
M  V30 252 H 22.3915 0.0172398 3.88496 0
M  V30 253 H 24.0635 2.62536 3.79305 0
M  V30 254 H 22.3065 2.5256 3.52698 0
M  V30 255 H 22.9775 2.10087 5.10458 0
M  V30 256 H 25.4535 0.433775 4.13833 0
M  V30 257 H 24.3295 0.128637 5.48749 0
M  V30 258 H 24.5905 -1.11758 4.27741 0
M  V30 259 N 23.6496 -1.47581 0.552962 0
M  V30 260 C 24.8956 -2.03369 0.0355807 0
M  V30 261 C 25.2506 -1.42016 -1.29805 0
M  V30 262 O 24.5436 -0.564917 -1.83083 0
M  V30 263 C 24.7376 -3.57199 -0.119728 0
M  V30 264 C 24.5666 -4.33468 1.1973 0
M  V30 265 C 23.3366 -4.7353 1.76345 0
M  V30 266 C 25.5346 -4.68866 2.11351 0
M  V30 267 N 23.5166 -5.34426 3.02097 0
M  V30 268 C 24.8876 -5.3002 3.21681 0
M  V30 269 C 26.9426 -4.50795 2.11397 0
M  V30 270 C 25.6456 -5.75011 4.32151 0
M  V30 271 C 27.6716 -4.96782 3.20876 0
M  V30 272 C 27.0336 -5.57981 4.29926 0
M  V30 273 H 23.1326 -0.780058 0.0550806 0
M  V30 274 H 25.7166 -1.80117 0.739315 0
M  V30 275 H 23.8876 -3.80227 -0.792579 0
M  V30 276 H 25.6196 -3.99627 -0.638792 0
M  V30 277 H 22.3746 -4.55352 1.30196 0
M  V30 278 H 22.7986 -5.69421 3.66182 0
M  V30 279 H 27.4406 -4.0284 1.28372 0
M  V30 280 H 25.1586 -6.21959 5.15938 0
M  V30 281 H 28.7446 -4.84573 3.21994 0
M  V30 282 H 27.6246 -5.92918 5.13243 0
M  V30 283 N 25.1277 -0.289203 -1.54924 0
M  V30 284 C 26.0577 0.58549 -2.2604 0
M  V30 285 C 27.0387 1.14753 -1.25562 0
M  V30 286 O 28.2237 1.17906 -1.54311 0
M  V30 287 C 25.3537 1.76305 -2.99222 0
M  V30 288 C 24.3077 1.33191 -4.06748 0
M  V30 289 C 23.6337 2.5937 -4.6758 0
M  V30 290 C 24.9337 0.471775 -5.20165 0
M  V30 291 H 26.6277 -0.00763532 -2.99399 0
M  V30 292 H 24.1737 -0.00511229 -1.43999 0
M  V30 293 H 26.1267 2.38097 -3.47689 0
M  V30 294 H 24.8507 2.38223 -2.23422 0
M  V30 295 H 23.5097 0.737121 -3.59113 0
M  V30 296 H 23.1577 3.19576 -3.88433 0
M  V30 297 H 22.8577 2.31228 -5.40192 0
M  V30 298 H 24.3817 3.21985 -5.18804 0
M  V30 299 H 25.7957 0.995056 -5.64599 0
M  V30 300 H 24.1927 0.284639 -5.99425 0
M  V30 301 H 25.2627 -0.506041 -4.82252 0
M  V30 302 N 26.6058 1.57591 -0.0167156 0
M  V30 303 C 27.5358 2.12496 0.967858 0
M  V30 304 C 28.5168 1.03807 1.34752 0
M  V30 305 O 29.7018 1.31577 1.42833 0
M  V30 306 C 26.8318 2.64194 2.25431 0
M  V30 307 C 25.7858 3.77559 2.01576 0
M  V30 308 C 25.1118 4.15636 3.36379 0
M  V30 309 C 26.4118 5.04151 1.36489 0
M  V30 310 H 28.1058 2.95013 0.510643 0
M  V30 311 H 25.6518 1.41915 0.244181 0
M  V30 312 H 27.6048 3.01236 2.94678 0
M  V30 313 H 26.3288 1.78821 2.73296 0
M  V30 314 H 24.9878 3.40937 1.34751 0
M  V30 315 H 24.6358 3.27263 3.81979 0
M  V30 316 H 24.3358 4.92022 3.21229 0
M  V30 317 H 25.8598 4.5525 4.06915 0
M  V30 318 H 27.2738 5.38857 1.95718 0
M  V30 319 H 25.6708 5.85453 1.31776 0
M  V30 320 H 26.7408 4.83733 0.336219 0
M  V30 321 N 28.0839 -0.256276 1.55502 0
M  V30 322 C 29.0469 -1.30047 1.88734 0
M  V30 323 C 30.0469 -1.4154 0.763086 0
M  V30 324 O 31.2369 -1.40403 1.03115 0
M  V30 325 C 28.3689 -2.67953 2.10747 0
M  V30 326 H 29.5619 -1.01802 2.82093 0
M  V30 327 H 27.1149 -0.495134 1.4825 0
M  V30 328 H 27.8499 -3.01351 1.19825 0
M  V30 329 H 27.6349 -2.60993 2.92617 0
M  V30 330 H 29.1249 -3.43368 2.37673 0
M  V30 331 N 29.562 -1.4872 -0.521534 0
M  V30 332 C 30.525 -1.63379 -1.60748 0
M  V30 333 C 31.525 -0.50661 -1.52611 0
M  V30 334 O 32.715 -0.772601 -1.5613 0
M  V30 335 C 29.847 -1.61192 -3.00383 0
M  V30 336 H 31.04 -2.60217 -1.49087 0
M  V30 337 H 28.593 -1.37444 -0.744235 0
M  V30 338 H 29.328 -0.65863 -3.17541 0
M  V30 339 H 29.113 -2.43032 -3.07698 0
M  V30 340 H 30.603 -1.7466 -3.7932 0
M  V30 341 N 31.0401 0.771051 -1.3745 0
M  V30 342 C 32.2801 1.54264 -1.34096 0
M  V30 343 C 32.6441 1.91858 0.0737639 0
M  V30 344 O 33.8451 2.67797 0.23203 0
M  V30 345 C 32.1161 2.77326 -2.25445 0
M  V30 346 S 33.6751 3.67383 -2.39948 0
M  V30 347 H 30.4931 0.528122 -0.476034 0
M  V30 348 H 33.0951 0.906633 -1.73206 0
M  V30 349 H 31.7991 2.47788 -3.27153 0
M  V30 350 H 31.3301 3.45886 -1.87421 0
M  V30 351 H 33.3451 4.69334 -1.61059 0
M  V30 352 N 32.5182 1.22032 0.997298 0
M  V30 353 C 33.4482 1.01065 2.10495 0
M  V30 354 C 34.4292 -0.0669542 1.69968 0
M  V30 355 O 35.6142 0.0943987 1.9397 0
M  V30 356 C 32.7442 0.582874 3.42374 0
M  V30 357 C 31.6982 1.60592 3.96729 0
M  V30 358 C 31.0242 1.03412 5.24605 0
M  V30 359 C 32.3242 2.99478 4.27914 0
M  V30 360 H 34.0182 1.93708 2.28292 0
M  V30 361 H 31.5642 0.932761 1.09707 0
M  V30 362 H 33.5172 0.423332 4.19268 0
M  V30 363 H 32.2412 -0.379213 3.24391 0
M  V30 364 H 30.9002 1.75316 3.21963 0
M  V30 365 H 30.5482 0.063518 5.0296 0
M  V30 366 H 30.2482 1.71754 5.61938 0
M  V30 367 H 31.7722 0.886066 6.04137 0
M  V30 368 H 33.1862 2.88153 4.95622 0
M  V30 369 H 31.5832 3.64903 4.76409 0
M  V30 370 H 32.6532 3.49742 3.3587 0
M  V30 371 N 33.9963 -1.19345 1.0293 0
M  V30 372 C 35.2443 -1.88665 0.724574 0
M  V30 373 C 35.5653 -1.80036 -0.749144 0
M  V30 374 O 34.8353 -1.2111 -1.53978 0
M  V30 375 H 33.4153 -0.698406 0.265025 0
M  V30 376 H 36.0773 -1.44885 1.30362 0
M  V30 377 H 35.1733 -2.94987 1.01926 0
M  V30 378 N 35.4744 -0.807222 -1.35358 0
M  V30 379 C 36.6994 -0.399309 -2.0352 0
M  V30 380 C 37.1244 0.981986 -1.60433 0
M  V30 381 O 36.4824 1.63601 -0.781299 0
M  V30 382 C 36.5304 -0.491552 -3.57234 0
M  V30 383 O 35.6344 0.494754 -4.09421 0
M  V30 384 H 34.9754 -0.166682 -0.642739 0
M  V30 385 H 37.5054 -1.09328 -1.72941 0
M  V30 386 H 37.5154 -0.361588 -4.06395 0
M  V30 387 H 36.1904 -1.49907 -3.87944 0
M  V30 388 H 34.7674 0.324977 -3.71481 0
M  V30 389 N 36.9525 1.47285 -0.560781 0
M  V30 390 C 37.9155 2.28535 0.174488 0
M  V30 391 C 38.9155 1.37153 0.839388 0
M  V30 392 O 40.1055 1.59748 0.694702 0
M  V30 393 C 37.2375 3.16934 1.25561 0
M  V30 394 H 38.4305 2.95012 -0.539262 0
M  V30 395 H 35.9835 1.53034 -0.317865 0
M  V30 396 H 36.7185 2.55157 2.00164 0
M  V30 397 H 36.5035 3.8419 0.783604 0
M  V30 398 H 37.9935 3.78143 1.77193 0
M  V30 399 N 38.4306 0.297415 1.54768 0
M  V30 400 C 39.3936 -0.567375 2.22066 0
M  V30 401 C 40.3936 -1.06409 1.20556 0
M  V30 402 O 41.5836 -0.960691 1.45315 0
M  V30 403 C 38.7156 -1.78517 2.90421 0
M  V30 404 H 39.9086 0.0205534 2.99893 0
M  V30 405 H 37.4616 0.0482163 1.56226 0
M  V30 406 H 38.1966 -2.41303 2.16664 0
M  V30 407 H 37.9816 -1.43669 3.64831 0
M  V30 408 H 39.4716 -2.39964 3.41771 0
M  V30 409 N 39.9087 -1.5758 0.0250728 0
M  V30 410 C 40.8717 -2.08896 -0.943139 0
M  V30 411 C 41.8717 -1.00321 -1.25668 0
M  V30 412 O 43.0617 -1.26495 -1.19769 0
M  V30 413 C 40.1937 -2.55143 -2.26086 0
M  V30 414 H 41.3867 -2.95723 -0.498775 0
M  V30 415 H 38.9397 -1.54703 -0.222888 0
M  V30 416 H 39.6747 -1.71633 -2.75159 0
M  V30 417 H 39.4597 -3.34461 -2.04641 0
M  V30 418 H 40.9497 -2.95083 -2.95492 0
M  V30 419 N 41.3868 0.248026 -1.55636 0
M  V30 420 C 42.6338 0.976224 -1.77415 0
M  V30 421 C 42.9618 1.85361 -0.589193 0
M  V30 422 O 42.2168 1.90973 0.427529 0
M  V30 423 C 42.5158 1.86819 -3.04686 0
M  V30 424 C 42.1818 1.14625 -4.36087 0
M  V30 425 C 40.8438 0.946723 -4.71795 0
M  V30 426 C 43.1958 0.634463 -5.17324 0
M  V30 427 C 40.5238 0.223091 -5.86276 0
M  V30 428 C 42.8758 -0.0756959 -6.32555 0
M  V30 429 C 41.5398 -0.286711 -6.66884 0
M  V30 430 H 40.8098 0.357226 -0.649208 0
M  V30 431 H 43.4568 0.246415 -1.89908 0
M  V30 432 H 41.7618 2.66502 -2.872 0
M  V30 433 H 43.4588 2.43329 -3.18735 0
M  V30 434 H 40.0488 1.3117 -4.08035 0
M  V30 435 H 44.2328 0.77616 -4.90193 0
M  V30 436 H 39.4888 0.0491185 -6.1138 0
M  V30 437 H 43.6628 -0.479899 -6.94745 0
M  V30 438 H 41.2898 -0.849389 -7.5544 0
M  V30 439 N 42.8649 1.48995 0.513639 0
M  V30 440 C 43.8279 1.64229 1.59879 0
M  V30 441 C 44.8279 0.514696 1.5234 0
M  V30 442 O 46.0179 0.78087 1.55718 0
M  V30 443 C 43.1499 1.62783 2.99524 0
M  V30 444 H 44.3429 2.61004 1.47705 0
M  V30 445 H 41.8959 1.37837 0.736936 0
M  V30 446 H 42.6309 0.675461 3.17188 0
M  V30 447 H 42.4159 2.4466 3.06404 0
M  V30 448 H 43.9059 1.76669 3.78388 0
M  V30 449 N 44.343 -0.763751 1.37857 0
M  V30 450 C 45.275 -1.88664 1.30148 0
M  V30 451 C 46.288 -1.61365 0.215685 0
M  V30 452 O 47.477 -1.72134 0.472459 0
M  V30 453 C 44.577 -3.24075 0.991396 0
M  V30 454 C 43.75 -3.78958 2.18426 0
M  V30 455 C 42.809 -4.92862 1.8432 0
M  V30 456 O 41.835 -5.08027 2.56704 0
M  V30 457 N 43.037 -5.75071 0.792081 0
M  V30 458 H 45.802 -1.95791 2.26905 0
M  V30 459 H 43.363 -0.943226 1.31586 0
M  V30 460 H 45.355 -3.97804 0.743935 0
M  V30 461 H 43.925 -3.12399 0.112122 0
M  V30 462 H 43.145 -2.96913 2.59299 0
M  V30 463 H 44.433 -4.12357 2.98058 0
M  V30 464 H 43.831 -5.65375 0.191595 0
M  V30 465 H 42.388 -6.48991 0.60449 0
M  V30 466 N 45.8211 -1.22559 -0.990812 0
M  V30 467 C 47.0491 -1.07779 -1.76611 0
M  V30 468 C 47.4641 0.371513 -1.85109 0
M  V30 469 O 46.8211 1.25737 -1.32274 0
M  V30 470 C 46.8721 -1.68512 -3.19822 0
M  V30 471 O 46.5931 -3.07774 -3.1178 0
M  V30 472 C 48.0941 -1.59035 -4.13791 0
M  V30 473 H 45.3141 -0.377729 -0.554583 0
M  V30 474 H 47.8581 -1.62195 -1.24551 0
M  V30 475 H 46.0131 -1.18154 -3.68942 0
M  V30 476 H 46.4271 -3.37062 -4.01858 0
M  V30 477 H 47.9011 -2.0625 -5.1202 0
M  V30 478 H 48.3781 -0.547273 -4.35777 0
M  V30 479 H 48.9841 -2.08709 -3.70568 0
M  V30 480 N 47.2992 1.18797 -1.03562 0
M  V30 481 C 48.5472 1.88278 -0.734569 0
M  V30 482 C 48.8682 1.8043 0.739586 0
M  V30 483 O 48.1382 1.21925 1.53333 0
M  V30 484 H 46.7182 0.696991 -0.268725 0
M  V30 485 H 49.3802 1.44192 -1.31129 0
M  V30 486 H 48.4762 2.94443 -1.03489 0
M  V30 487 N 48.7773 0.814389 1.34928 0
M  V30 488 C 50.1883 0.458364 1.80986 0
M  V30 489 C 50.5393 -1.02042 1.67577 0
M  V30 490 O 49.6643 -1.79352 1.21086 0
M  V30 491 C 50.2593 0.825212 3.28597 0
M  V30 492 C 48.8183 0.521677 3.72767 0
M  V30 493 C 47.9653 1.04668 2.56788 0
M  V30 494 H 50.9163 1.00533 1.22795 0
M  V30 495 H 50.9373 0.12571 3.80292 0
M  V30 496 H 50.4493 1.90154 3.38324 0
M  V30 497 H 48.5503 -0.545589 3.68584 0
M  V30 498 H 48.6633 1.05977 4.67232 0
M  V30 499 H 47.0273 0.468622 2.50352 0
M  V30 500 H 47.8103 2.12927 2.6929 0
M  V30 501 N 50.2554 -1.46986 0.568584 0
M  V30 502 C 51.2184 -2.28624 -0.162366 0
M  V30 503 C 52.2184 -1.37596 -0.832103 0
M  V30 504 O 53.4084 -1.60115 -0.68622 0
M  V30 505 C 50.5404 -3.17596 -1.23878 0
M  V30 506 H 51.7334 -2.94722 0.554899 0
M  V30 507 H 49.2864 -1.52863 0.325976 0
M  V30 508 H 50.0214 -2.56214 -1.98808 0
M  V30 509 H 49.8064 -3.846 -0.763219 0
M  V30 510 H 51.2964 -3.79078 -1.75185 0
M  V30 511 N 51.7335 -0.305618 -1.54608 0
M  V30 512 C 52.6965 0.555591 -2.22364 0
M  V30 513 C 53.6965 1.05768 -1.21119 0
M  V30 514 O 54.8865 0.952972 -1.45822 0
M  V30 515 C 52.0185 1.76974 -2.91364 0
M  V30 516 H 53.2115 -0.0364572 -2.99878 0
M  V30 517 H 50.7645 -0.0565007 -1.56198 0
M  V30 518 H 51.4995 2.40151 -2.17941 0
M  V30 519 H 51.2845 1.41732 -3.65588 0
M  V30 520 H 52.7745 2.38148 -3.43038 0
M  V30 521 N 53.2116 1.57565 -0.0334293 0
M  V30 522 C 54.1436 2.0739 0.975811 0
M  V30 523 C 55.1566 0.998166 1.2861 0
M  V30 524 O 56.3456 1.27426 1.25 0
M  V30 525 C 53.4456 2.4871 2.30209 0
M  V30 526 C 52.6186 3.79413 2.17634 0
M  V30 527 C 51.6776 4.07237 3.33233 0
M  V30 528 O 50.7036 4.77425 3.09927 0
M  V30 529 N 51.9056 3.5775 4.5716 0
M  V30 530 H 54.6706 2.94598 0.55066 0
M  V30 531 H 52.2316 1.61173 0.15323 0
M  V30 532 H 54.2236 2.64413 3.06378 0
M  V30 533 H 52.7936 1.66845 2.64351 0
M  V30 534 H 52.0136 3.73465 1.26165 0
M  V30 535 H 53.3016 4.65038 2.0644 0
M  V30 536 H 52.6996 3.00976 4.78989 0
M  V30 537 H 51.2566 3.78724 5.30482 0
M  V30 538 N 54.6897 -0.239769 1.55765 0
M  V30 539 C 55.6527 -1.28038 1.90103 0
M  V30 540 C 56.6527 -1.40723 0.778055 0
M  V30 541 O 57.8427 -1.39301 1.04599 0
M  V30 542 C 54.9747 -2.65702 2.13577 0
M  V30 543 H 56.1677 -0.988048 2.83157 0
M  V30 544 H 53.7207 -0.479382 1.48767 0
M  V30 545 H 54.4557 -3.00063 1.23015 0
M  V30 546 H 54.2407 -2.57875 2.95369 0
M  V30 547 H 55.7307 -3.40828 2.41301 0
M  V30 548 N 56.1678 -1.49265 -0.50573 0
M  V30 549 C 57.1308 -1.65075 -1.59006 0
M  V30 550 C 58.1308 -0.522768 -1.52065 0
M  V30 551 O 59.3208 -0.789117 -1.55302 0
M  V30 552 C 56.4528 -1.64369 -2.98656 0
M  V30 553 H 57.6458 -2.61784 -1.46319 0
M  V30 554 H 55.1988 -1.38226 -0.729616 0
M  V30 555 H 55.9338 -0.692272 -3.16825 0
M  V30 556 H 55.7188 -2.46282 -3.05103 0
M  V30 557 H 57.2088 -1.78674 -3.77446 0
M  V30 558 N 57.6459 0.756429 -1.3826 0
M  V30 559 C 58.6089 1.85176 -1.35065 0
M  V30 560 C 59.6089 1.58818 -0.251703 0
M  V30 561 O 60.7989 1.66615 -0.508433 0
M  V30 562 C 57.9309 3.22596 -1.10201 0
M  V30 563 H 59.1239 1.89417 -2.3251 0
M  V30 564 H 56.6769 0.95783 -1.23512 0
M  V30 565 H 57.4119 3.24025 -0.133504 0
M  V30 566 H 57.1969 3.43122 -1.89762 0
M  V30 567 H 58.6869 4.02673 -1.10654 0
M  V30 568 N 59.124 1.23083 0.984299 0
M  V30 569 C 60.087 1.00979 2.05757 0
M  V30 570 C 61.087 -0.0269573 1.60777 0
M  V30 571 O 62.277 0.212403 1.729 0
M  V30 572 C 59.409 0.527072 3.36801 0
M  V30 573 H 60.602 1.9622 2.26799 0
M  V30 574 H 58.155 1.05072 1.15714 0
M  V30 575 H 58.89 -0.429294 3.21446 0
M  V30 576 H 58.675 1.27515 3.70786 0
M  V30 577 H 60.165 0.392942 4.15747 0
M  V30 578 N 60.6021 -1.18246 1.0419 0
M  V30 579 C 61.8481 -1.88536 0.747122 0
M  V30 580 C 62.1811 -1.80223 -0.723409 0
M  V30 581 O 61.4561 -1.20337 -1.52804 0
M  V30 582 C 61.7391 -3.38968 1.21544 0
M  V30 583 C 61.5921 -3.56084 2.74816 0
M  V30 584 C 62.9111 -4.32648 0.806482 0
M  V30 585 H 60.0301 -0.684619 0.272883 0
M  V30 586 H 62.6721 -1.39113 1.29413 0
M  V30 587 H 60.8221 -3.8119 0.750081 0
M  V30 588 H 62.4941 -3.22946 3.29399 0
M  V30 589 H 60.7371 -2.98699 3.14582 0
M  V30 590 H 61.4081 -4.61639 3.02644 0
M  V30 591 H 63.8841 -3.98211 1.20695 0
M  V30 592 H 62.7601 -5.36462 1.1619 0
M  V30 593 H 63.0211 -4.41146 -0.29029 0
M  V30 594 N 62.0802 -0.821533 -1.34494 0
M  V30 595 C 63.0122 -0.199946 -2.28326 0
M  V30 596 C 64.0252 0.609377 -1.50965 0
M  V30 597 O 65.2142 0.439285 -1.7301 0
M  V30 598 C 62.3142 0.738431 -3.30757 0
M  V30 599 C 61.4872 -0.0277632 -4.37391 0
M  V30 600 C 60.5462 0.831332 -5.19591 0
M  V30 601 O 59.5722 0.276822 -5.68526 0
M  V30 602 N 60.7742 2.15132 -5.39165 0
M  V30 603 H 63.5392 -1.00609 -2.82308 0
M  V30 604 H 61.1002 -0.678366 -1.47003 0
M  V30 605 H 63.0922 1.31773 -3.82646 0
M  V30 606 H 61.6622 1.44533 -2.7718 0
M  V30 607 H 60.8822 -0.788359 -3.86236 0
M  V30 608 H 62.1702 -0.555251 -5.05761 0
M  V30 609 H 61.5682 2.62559 -5.01078 0
M  V30 610 H 60.1252 2.6795 -5.94177 0
M  V30 611 N 63.5583 1.46682 -0.576371 0
M  V30 612 C 64.9743 1.57822 -0.237562 0
M  V30 613 C 65.1743 1.57237 1.26011 0
M  V30 614 O 64.2303 1.48596 2.04146 0
M  V30 615 C 65.5433 2.87499 -0.881168 0
M  V30 616 C 67.0913 3.01119 -0.85417 0
M  V30 617 C 67.5663 4.33524 -1.4772 0
M  V30 618 N 69.0573 4.40207 -1.44125 0
M  V30 619 C 69.7923 5.4126 -1.89276 0
M  V30 620 N 69.2883 6.49021 -2.42371 0
M  V30 621 N 71.0813 5.32422 -1.80231 0
M  V30 622 H 63.2323 1.45306 -1.54919 0
M  V30 623 H 65.4953 0.692733 -0.647167 0
M  V30 624 H 65.2013 2.9372 -1.93447 0
M  V30 625 H 65.0753 3.75224 -0.385592 0
M  V30 626 H 67.4623 2.94485 0.190491 0
M  V30 627 H 67.5433 2.14887 -1.3877 0
M  V30 628 H 67.1873 4.40916 -2.52103 0
M  V30 629 H 67.1173 5.1852 -0.918947 0
M  V30 630 H 69.6083 3.62931 -1.05307 0
M  V30 631 H 69.9213 7.2233 -2.74698 0
M  V30 632 H 68.2663 6.49858 -2.46393 0
M  V30 633 H 71.4573 4.47137 -1.38514 0
M  V30 634 H 71.6303 6.11034 -2.15735 0
M  V30 635 N 65.0364 0.313813 1.54444 0
M  V30 636 C 66.2824 -0.292108 2.00685 0
M  V30 637 C 66.6154 -1.52548 1.20177 0
M  V30 638 O 65.8904 -1.92452 0.281531 0
M  V30 639 C 66.1734 -0.635968 3.5444 0
M  V30 640 C 66.0264 0.607437 4.4568 0
M  V30 641 C 67.3454 -1.45747 4.15266 0
M  V30 642 H 64.4644 -0.104697 0.729526 0
M  V30 643 H 67.1064 0.428457 1.85106 0
M  V30 644 H 65.2564 -1.24986 3.67846 0
M  V30 645 H 66.9284 1.24581 4.44159 0
M  V30 646 H 65.1714 1.23822 4.15753 0
M  V30 647 H 65.8424 0.322515 5.51057 0
M  V30 648 H 68.3184 -0.938645 4.05375 0
M  V30 649 H 67.1944 -1.66683 5.2298 0
M  V30 650 H 67.4554 -2.45063 3.67963 0
M  V30 651 N 66.5145 -1.57545 0.0417849 0
M  V30 652 C 67.7915 -1.83642 -0.673433 0
M  V30 653 C 68.1715 -0.928298 -1.89594 0
M  V30 654 O 67.5195 0.0129955 -2.28496 0
M  V30 655 C 67.7295 -3.33155 -1.03964 0
M  V30 656 C 69.0775 -3.99941 -1.42592 0
M  V30 657 O 70.1015 -3.37725 -1.13226 0
M  V30 658 O 68.9605 -5.09619 -1.9736 0
M  V30 659 H 66.0545 -0.757638 -0.331533 0
M  V30 660 H 68.6005 -1.69554 0.070433 0
M  V30 661 H 67.3725 -3.9093 -0.170098 0
M  V30 662 H 66.9955 -3.52396 -1.84126 0
M  V30 663 N 67.9926 0.231505 -1.5589 0
M  V30 664 C 69.2406 0.955461 -1.78088 0
M  V30 665 C 69.5616 1.85262 -0.608533 0
M  V30 666 O 68.8316 1.92277 0.375035 0
M  V30 667 H 67.4116 0.355787 -0.656829 0
M  V30 668 H 70.0736 0.245751 -1.93344 0
M  V30 669 H 69.1696 1.56814 -2.69844 0
M  V30 670 N 69.4707 1.49531 0.497807 0
M  V30 671 C 70.7477 1.49682 1.25915 0
M  V30 672 C 71.1277 0.226339 2.09883 0
M  V30 673 O 70.4757 -0.791189 2.14365 0
M  V30 674 C 70.6857 2.77755 2.11313 0
M  V30 675 C 72.0337 3.27371 2.70395 0
M  V30 676 O 73.0577 2.78894 2.21578 0
M  V30 677 O 71.9167 4.11808 3.59272 0
M  V30 678 H 69.0107 0.599228 0.56996 0
M  V30 679 H 71.5567 1.61798 0.511816 0
M  V30 680 H 70.3287 3.61713 1.49264 0
M  V30 681 H 69.9517 2.68515 2.93233 0
M  V30 682 N 70.9488 -0.749086 1.3866 0
M  V30 683 C 72.1958 -1.50833 1.35114 0
M  V30 684 C 72.5238 -1.94415 -0.0574049 0
M  V30 685 O 71.7788 -1.66065 -1.03541 0
M  V30 686 C 72.0778 -2.7712 2.25697 0
M  V30 687 C 71.7438 -2.52477 3.73585 0
M  V30 688 C 70.4058 -2.45466 4.13884 0
M  V30 689 C 72.7578 -2.31066 4.67181 0
M  V30 690 C 70.0858 -2.15064 5.45861 0
M  V30 691 C 72.4378 -2.02183 5.9942 0
M  V30 692 C 71.1018 -1.93631 6.38798 0
M  V30 693 H 70.3718 -0.551936 0.494416 0
M  V30 694 H 73.0188 -0.860979 1.71054 0
M  V30 695 H 71.3238 -3.46528 1.82827 0
M  V30 696 H 73.0208 -3.35096 2.20254 0
M  V30 697 H 69.6108 -2.58807 3.41638 0
M  V30 698 H 73.7948 -2.35459 4.3689 0
M  V30 699 H 69.0508 -2.06954 5.75308 0
M  V30 700 H 73.2248 -1.8462 6.71482 0
M  V30 701 H 70.8518 -1.69839 7.40985 0
M  V30 702 N 72.4269 -1.23603 -0.977757 0
M  V30 703 C 73.6759 -1.06377 -1.71368 0
M  V30 704 C 73.9889 0.399062 -1.91486 0
M  V30 705 O 75.1949 0.691312 -2.62551 0
M  V30 706 C 73.6509 -1.85512 -3.08404 0
M  V30 707 C 73.2589 -3.36141 -2.96164 0
M  V30 708 C 75.0029 -1.76783 -3.85938 0
M  V30 709 C 72.9099 -4.07659 -4.28449 0
M  V30 710 H 71.8399 -0.394452 -0.642591 0
M  V30 711 H 74.4909 -1.47594 -1.09034 0
M  V30 712 H 72.8729 -1.37103 -3.71509 0
M  V30 713 H 74.0469 -3.92056 -2.42133 0
M  V30 714 H 72.3619 -3.45712 -2.32104 0
M  V30 715 H 74.9589 -2.27526 -4.83876 0
M  V30 716 H 75.3019 -0.731116 -4.0983 0
M  V30 717 H 75.8349 -2.22818 -3.2954 0
M  V30 718 H 72.5739 -5.11648 -4.09752 0
M  V30 719 H 72.0939 -3.5653 -4.82334 0
M  V30 720 H 73.7729 -4.141 -4.97122 0
M  V30 721 N 73.905 1.17692 -1.04816 0
M  V30 722 C 75.321 1.39863 -0.768794 0
M  V30 723 C 75.521 1.91118 0.638451 0
M  V30 724 O 74.577 2.10036 1.40146 0
M  V30 725 C 75.89 2.39274 -1.82122 0
M  V30 726 C 77.438 2.52987 -1.843 0
M  V30 727 C 77.913 3.55669 -2.88555 0
M  V30 728 N 79.404 3.63183 -2.87493 0
M  V30 729 C 80.139 4.42381 -3.64811 0
M  V30 730 N 79.635 5.25125 -4.51903 0
M  V30 731 N 81.428 4.37217 -3.53267 0
M  V30 732 H 73.579 0.82752 -1.95617 0
M  V30 733 H 75.842 0.426123 -0.846831 0
M  V30 734 H 75.548 2.08678 -2.83102 0
M  V30 735 H 75.422 3.38725 -1.65967 0
M  V30 736 H 77.809 2.82896 -0.839869 0
M  V30 737 H 77.89 1.53623 -2.04532 0
M  V30 738 H 77.534 3.26499 -3.89051 0
M  V30 739 H 77.464 4.54728 -2.65575 0
M  V30 740 H 79.955 3.04103 -2.24343 0
M  V30 741 H 80.268 5.82728 -5.07591 0
M  V30 742 H 78.613 5.24519 -4.55966 0
M  V30 743 H 81.804 3.71626 -2.84625 0
M  V30 744 H 81.977 4.98696 -4.13771 0
M  V30 745 N 75.3831 0.828654 1.34056 0
M  V30 746 C 76.3461 0.259927 2.27721 0
M  V30 747 C 77.3461 -0.565478 1.50529 0
M  V30 748 O 78.5361 -0.38075 1.69988 0
M  V30 749 C 75.6681 -0.634944 3.34935 0
M  V30 750 H 76.8611 1.0863 2.79534 0
M  V30 751 H 74.4141 0.600951 1.44285 0
M  V30 752 H 75.1491 -1.48416 2.88346 0
M  V30 753 H 74.9341 -0.0444999 3.92075 0
M  V30 754 H 76.4241 -1.02648 4.04788 0
M  V30 755 N 76.8612 -1.46375 0.584142 0
M  V30 756 C 77.8092 -2.32042 -0.161047 0
M  V30 757 C 78.8032 -1.44569 -0.882966 0
M  V30 758 O 80.0092 -1.61186 -0.801191 0
M  V30 759 H 76.3842 -0.748659 -0.0708033 0
M  V30 760 H 78.3552 -2.92704 0.580269 0
M  V30 761 C 77.1042 -3.27762 -1.1605 0
M  V30 762 H 76.4272 -3.95051 -0.614419 0
M  V30 763 H 77.8672 -3.90481 -1.65228 0
M  V30 764 C 76.3262 -2.53218 -2.22221 0
M  V30 765 O 76.8562 -2.29628 -3.29597 0
M  V30 766 N 75.0622 -2.13756 -1.96868 0
M  V30 767 H 74.6092 -2.33142 -1.09557 0
M  V30 768 H 74.5672 -1.642 -2.68115 0
M  V30 769 N 78.3393 -0.321999 -1.54275 0
M  V30 770 C 79.3023 0.531975 -2.22941 0
M  V30 771 C 80.3023 1.04478 -1.22234 0
M  V30 772 O 81.4923 0.937452 -1.46825 0
M  V30 773 C 78.6243 1.73874 -2.93224 0
M  V30 774 H 79.8173 -0.0682612 -2.99822 0
M  V30 775 H 77.3703 -0.0730644 -1.56129 0
M  V30 776 H 78.1053 2.37825 -2.20476 0
M  V30 777 H 77.8903 1.37847 -3.6707 0
M  V30 778 H 79.3803 2.34496 -3.45545 0
M  V30 779 N 79.8174 1.5752 -0.0501392 0
M  V30 780 C 80.7804 2.1037 0.909786 0
M  V30 781 C 81.7804 1.02308 1.24056 0
M  V30 782 O 82.9704 1.28385 1.17741 0
M  V30 783 C 80.1024 2.58708 2.21998 0
M  V30 784 H 81.2954 2.96479 0.451665 0
M  V30 785 H 78.8484 1.55038 0.198248 0
M  V30 786 H 79.5834 1.75989 2.72394 0
M  V30 787 H 79.3684 3.37675 1.99295 0
M  V30 788 H 80.8584 2.99747 2.9076 0
M  V30 789 N 81.2955 -0.223234 1.56011 0
M  V30 790 C 82.7115 -0.572856 1.48965 0
M  V30 791 C 82.9115 -1.87225 0.74492 0
M  V30 792 O 81.9675 -2.50899 0.283896 0
M  V30 793 C 83.2805 -0.653646 2.9351 0
M  V30 794 C 84.8285 -0.744386 3.0402 0
M  V30 795 C 85.3035 -0.856535 4.49919 0
M  V30 796 N 86.7945 -0.9208 4.53955 0
M  V30 797 C 87.5295 -1.02726 5.64123 0
M  V30 798 N 87.0255 -1.09777 6.84047 0
M  V30 799 N 88.8185 -1.06226 5.51971 0
M  V30 800 H 80.9695 0.629462 2.02858 0
M  V30 801 H 83.2325 0.220621 0.921971 0
M  V30 802 H 82.9385 0.231518 3.50937 0
M  V30 803 H 82.8125 -1.51781 3.45315 0
M  V30 804 H 85.1995 -1.61999 2.46658 0
M  V30 805 H 85.2805 0.14541 2.55386 0
M  V30 806 H 84.9245 0.0146069 5.07898 0
M  V30 807 H 84.8545 -1.76172 4.96257 0
M  V30 808 H 87.3455 -0.876694 3.6759 0
M  V30 809 H 87.6585 -1.17872 7.63758 0
M  V30 810 H 86.0035 -1.06693 6.86762 0
M  V30 811 H 89.1945 -1.00382 4.5721 0
M  V30 812 H 89.3675 -1.14177 6.37862 0
M  V30 813 N 82.7736 -1.49793 -0.48987 0
M  V30 814 C 84.0016 -1.63568 -1.26701 0
M  V30 815 C 84.4166 -0.311465 -1.86213 0
M  V30 816 O 83.7736 0.704416 -1.68357 0
M  V30 817 C 83.8246 -2.71284 -2.38929 0
M  V30 818 O 83.5456 -3.9857 -1.81861 0
M  V30 819 C 85.0466 -2.95864 -3.3012 0
M  V30 820 H 82.2666 -0.550342 -0.383881 0
M  V30 821 H 84.8106 -1.95898 -0.586864 0
M  V30 822 H 82.9656 -2.417 -3.02753 0
M  V30 823 H 83.3796 -4.57993 -2.55622 0
M  V30 824 H 84.8536 -3.74941 -4.05121 0
M  V30 825 H 85.3306 -2.06206 -3.87783 0
M  V30 826 H 85.9366 -3.26907 -2.72051 0
M  V30 827 N 84.2517 0.741722 -1.39055 0
M  V30 828 C 85.6627 1.31966 -1.32068 0
M  V30 829 C 86.0137 1.96192 0.0180797 0
M  V30 830 O 85.1387 1.95861 0.920196 0
M  V30 831 C 85.7337 2.39954 -2.39181 0
M  V30 832 C 84.2927 2.93438 -2.35735 0
M  V30 833 C 83.4397 1.66936 -2.21422 0
M  V30 834 H 86.3907 0.539721 -1.4924 0
M  V30 835 H 86.4117 3.20182 -2.05581 0
M  V30 836 H 85.9237 1.9318 -3.36605 0
M  V30 837 H 84.0247 3.4451 -1.41929 0
M  V30 838 H 84.1377 3.4701 -3.30335 0
M  V30 839 H 82.5017 1.91016 -1.68478 0
M  V30 840 H 83.2847 1.22224 -3.20806 0
M  V30 841 N 85.7298 1.2412 0.971189 0
M  V30 842 C 87.0068 0.986867 1.6888 0
M  V30 843 C 87.3868 -0.491857 2.0529 0
M  V30 844 O 86.7348 -1.46531 1.75331 0
M  V30 845 C 86.9448 1.9063 2.92338 0
M  V30 846 C 88.2928 2.17515 3.64654 0
M  V30 847 O 89.3168 1.88254 3.02388 0
M  V30 848 O 88.1758 2.6719 4.7673 0
M  V30 849 H 85.2698 0.372944 0.738134 0
M  V30 850 H 87.8158 1.35203 1.02559 0
M  V30 851 H 86.5878 2.90552 2.62097 0
M  V30 852 H 86.2108 1.54408 3.66393 0
M  V30 853 N 87.2079 -1.17134 1.05439 0
M  V30 854 C 88.4539 -1.87979 0.776872 0
M  V30 855 C 88.8089 -1.7965 -0.688751 0
M  V30 856 O 88.1019 -1.19535 -1.4974 0
M  V30 857 C 88.2959 -3.36833 1.19491 0
M  V30 858 C 88.1249 -3.59653 2.69963 0
M  V30 859 C 86.8949 -3.76234 3.37307 0
M  V30 860 C 89.0929 -3.59091 3.68182 0
M  V30 861 N 87.0749 -3.86922 4.76618 0
M  V30 862 C 88.4459 -3.75659 4.93235 0
M  V30 863 C 90.5009 -3.42255 3.61616 0
M  V30 864 C 89.2039 -3.77133 6.12506 0
M  V30 865 C 91.2299 -3.45018 4.8033 0
M  V30 866 C 90.5919 -3.62096 6.04207 0
M  V30 867 H 86.6909 -0.705876 0.336546 0
M  V30 868 H 89.2749 -1.40602 1.34682 0
M  V30 869 H 87.4459 -3.82873 0.652884 0
M  V30 870 H 89.1779 -3.95305 0.866966 0
M  V30 871 H 85.9329 -3.76193 2.87708 0
M  V30 872 H 86.3569 -3.96055 5.49062 0
M  V30 873 H 90.9989 -3.27986 2.66805 0
M  V30 874 H 88.7169 -3.90186 7.07659 0
M  V30 875 H 92.3029 -3.33246 4.76905 0
M  V30 876 H 91.1829 -3.64142 6.94529 0
M  V30 877 N 88.686 -0.835752 -1.33615 0
M  V30 878 C 90.097 -0.487099 -1.80234 0
M  V30 879 C 90.448 0.993627 -1.69179 0
M  V30 880 O 89.573 1.77403 -1.23924 0
M  V30 881 C 90.168 -0.877385 -3.27242 0
M  V30 882 C 88.727 -0.580915 -3.7189 0
M  V30 883 C 87.874 -1.0874 -2.5509 0
M  V30 884 H 90.825 -1.02474 -1.2118 0
M  V30 885 H 90.846 -0.186195 -3.80044 0
M  V30 886 H 90.358 -1.95512 -3.35256 0
M  V30 887 H 88.459 0.486881 -3.69405 0
M  V30 888 H 88.572 -1.13396 -4.65487 0
M  V30 889 H 86.936 -0.508392 -2.49575 0
M  V30 890 H 87.719 -2.17184 -2.65868 0
M  V30 891 N 90.1641 1.46063 -0.591896 0
M  V30 892 C 91.3921 2.06717 -0.0868936 0
M  V30 893 C 91.8071 1.43916 1.22203 0
M  V30 894 O 91.1641 0.547698 1.74088 0
M  V30 895 C 91.2151 3.6142 0.0758725 0
M  V30 896 O 90.9361 4.21874 -1.18126 0
M  V30 897 C 92.4371 4.39025 0.61416 0
M  V30 898 H 89.6571 0.668162 -0.0616518 0
M  V30 899 H 92.2011 1.8755 -0.815175 0
M  V30 900 H 90.3561 3.79983 0.754413 0
M  V30 901 H 90.7701 5.14861 -1.00092 0
M  V30 902 H 92.2441 5.4783 0.677193 0
M  V30 903 H 92.7211 4.07708 1.63312 0
M  V30 904 H 93.3271 4.2529 -0.0298142 0
M  V30 905 N 91.6422 0.330177 1.54103 0
M  V30 906 C 92.8912 -0.271336 1.99867 0
M  V30 907 C 93.2042 -1.52723 1.22209 0
M  V30 908 O 94.4102 -2.20515 1.58383 0
M  V30 909 C 92.8662 -0.534032 3.55916 0
M  V30 910 C 92.4742 0.705193 4.42415 0
M  V30 911 C 94.2182 -1.09514 4.1013 0
M  V30 912 C 92.1252 0.414035 5.89949 0
M  V30 913 H 91.0552 -0.105166 0.74663 0
M  V30 914 H 93.7062 0.443429 1.78062 0
M  V30 915 H 92.0882 -1.30915 3.73734 0
M  V30 916 H 93.2622 1.4804 4.36372 0
M  V30 917 H 91.5772 1.18698 3.99124 0
M  V30 918 H 94.1742 -1.3277 5.17954 0
M  V30 919 H 94.5172 -2.04656 3.62521 0
M  V30 920 H 95.0502 -0.381038 3.95971 0
M  V30 921 H 91.7892 1.33481 6.41766 0
M  V30 922 H 91.3092 -0.323336 5.98928 0
M  V30 923 H 92.9882 0.0263105 6.46995 0
M  V30 924 N 93.1203 -1.57491 0.0584922 0
M  V30 925 C 94.3683 -1.92597 -0.612436 0
M  V30 926 C 94.6893 -0.938162 -1.70949 0
M  V30 927 O 93.9593 0.0158301 -1.95894 0
M  V30 928 H 92.5393 -0.710964 -0.229214 0
M  V30 929 H 95.2013 -1.94571 0.113218 0
M  V30 930 H 94.2973 -2.94038 -1.04633 0
M  V30 931 N 94.5984 0.214957 -1.56127 0
M  V30 932 C 95.8444 0.939762 -1.79712 0
M  V30 933 C 96.1774 1.83723 -0.629247 0
M  V30 934 O 95.4524 1.90925 0.371197 0
M  V30 935 C 95.7354 1.77306 -3.13424 0
M  V30 936 C 95.5884 0.90164 -4.40671 0
M  V30 937 C 96.9074 2.74956 -3.43638 0
M  V30 938 H 94.0264 0.340214 -0.653776 0
M  V30 939 H 96.6684 0.20824 -1.88855 0
M  V30 940 H 94.8184 2.39673 -3.0576 0
M  V30 941 H 96.4904 0.294206 -4.60361 0
M  V30 942 H 94.7334 0.207368 -4.33304 0
M  V30 943 H 95.4044 1.51923 -5.30682 0
M  V30 944 H 97.8804 2.22724 -3.51473 0
M  V30 945 H 96.7564 3.30358 -4.38355 0
M  V30 946 H 97.0174 3.53023 -2.66134 0
M  V30 947 N 96.0765 1.50051 0.48192 0
M  V30 948 C 97.3535 1.51009 1.2432 0
M  V30 949 C 97.7335 0.248587 2.09631 0
M  V30 950 O 97.0815 -0.768409 2.15192 0
M  V30 951 C 97.2915 2.79981 2.08355 0
M  V30 952 C 98.6395 3.3022 2.66908 0
M  V30 953 O 99.6635 2.81228 2.18607 0
M  V30 954 O 98.5225 4.15595 3.54884 0
M  V30 955 H 95.6165 0.605239 0.563573 0
M  V30 956 H 98.1625 1.62332 0.494627 0
M  V30 957 H 96.9345 3.63275 1.45419 0
M  V30 958 H 96.5575 2.7161 2.90368 0
M  V30 959 N 97.5546 -0.734337 1.39446 0
M  V30 960 C 98.7846 -1.52137 1.39778 0
M  V30 961 C 99.1926 -1.89198 -0.00929312 0
M  V30 962 O 98.5356 -1.54666 -0.991168 0
M  V30 963 C 98.5976 -2.83762 2.20724 0
M  V30 964 C 98.2616 -2.69131 3.69347 0
M  V30 965 C 99.2586 -2.37635 4.62413 0
M  V30 966 C 96.9436 -2.85982 4.1294 0
M  V30 967 C 98.9376 -2.23172 5.97054 0
M  V30 968 C 96.6246 -2.71137 5.47657 0
M  V30 969 C 97.6226 -2.39777 6.39528 0
M  V30 970 O 97.3106 -2.25026 7.71763 0
M  V30 971 H 97.0426 -0.476717 0.479288 0
M  V30 972 H 99.5966 -0.915012 1.83893 0
M  V30 973 H 97.8266 -3.4666 1.71359 0
M  V30 974 H 99.5156 -3.45383 2.13226 0
M  V30 975 H 100.282 -2.24267 4.30034 0
M  V30 976 H 96.1606 -3.09383 3.41765 0
M  V30 977 H 99.7046 -1.98617 6.68728 0
M  V30 978 H 95.6016 -2.84083 5.79626 0
M  V30 979 H 96.3696 -2.40091 7.82495 0
M  V30 980 N 99.0327 -1.24633 -0.964593 0
M  V30 981 C 99.9957 -1.0424 -2.04124 0
M  V30 982 C 100.996 0.00137563 -1.608 0
M  V30 983 O 102.186 -0.239883 -1.7254 0
M  V30 984 C 99.3177 -0.580588 -3.3592 0
M  V30 985 H 100.511 -1.99803 -2.23649 0
M  V30 986 H 98.0637 -1.06899 -1.14027 0
M  V30 987 H 98.7987 0.3781 -3.22088 0
M  V30 988 H 98.5837 -1.33398 -3.6871 0
M  V30 989 H 100.074 -0.459034 -4.15069 0
M  V30 990 N 100.511 1.16574 -1.06058 0
M  V30 991 C 101.421 2.2452 -0.680282 0
M  V30 992 C 102.437 1.71348 0.302604 0
M  V30 993 O 103.613 2.00822 0.152513 0
M  V30 994 C 100.678 3.46629 -0.0700315 0
M  V30 995 C 99.7388 4.14849 -1.10448 0
M  V30 996 C 98.9718 5.31129 -0.523256 0
M  V30 997 O 99.1948 5.66514 0.664709 0
M  V30 998 O 98.1288 5.88526 -1.26179 0
M  V30 999 H 101.955 2.59355 -1.58015 0
M  V30 1000 H 99.5398 1.24043 -0.832694 0
M  V30 1001 H 101.422 4.20543 0.268667 0
M  V30 1002 H 100.097 3.13573 0.803353 0
M  V30 1003 H 99.0038 3.42916 -1.49532 0
M  V30 1004 H 100.337 4.51954 -1.94931 0
M  V30 1005 N 101.989 0.842826 1.3317 0
M  V30 1006 C 103.217 0.454055 2.01856 0
M  V30 1007 C 103.632 -0.94587 1.63397 0
M  V30 1008 O 102.989 -1.61534 0.849302 0
M  V30 1009 C 103.04 0.569715 3.56982 0
M  V30 1010 O 102.761 1.91448 3.94055 0
M  V30 1011 C 104.262 0.178412 4.42941 0
M  V30 1012 H 101.482 0.17979 0.646465 0
M  V30 1013 H 104.026 1.1365 1.70012 0
M  V30 1014 H 102.181 -0.0648587 3.87346 0
M  V30 1015 H 102.595 1.90282 4.88767 0
M  V30 1016 H 104.069 0.310376 5.51127 0
M  V30 1017 H 104.546 -0.880056 4.30293 0
M  V30 1018 H 105.152 0.787579 4.17944 0
M  V30 1019 N 103.467 -1.45747 0.599634 0
M  V30 1020 C 104.883 -1.57424 0.26264 0
M  V30 1021 C 105.083 -1.59222 -1.23493 0
M  V30 1022 O 104.139 -1.51825 -2.01756 0
M  V30 1023 C 105.452 -2.86061 0.926795 0
M  V30 1024 C 107 -2.99722 0.901967 0
M  V30 1025 C 107.475 -4.31119 1.54598 0
M  V30 1026 N 108.966 -4.37858 1.5111 0
M  V30 1027 C 109.701 -5.3818 1.97863 0
M  V30 1028 N 109.197 -6.45083 2.52666 0
M  V30 1029 N 110.99 -5.29487 1.88679 0
M  V30 1030 H 103.141 -1.42823 1.57211 0
M  V30 1031 H 105.404 -0.68235 0.658105 0
M  V30 1032 H 105.11 -2.90605 1.98095 0
M  V30 1033 H 104.984 -3.74563 0.445238 0
M  V30 1034 H 107.371 -2.9475 -0.143617 0
M  V30 1035 H 107.452 -2.12652 1.42171 0
M  V30 1036 H 107.096 -4.36849 2.59085 0
M  V30 1037 H 107.026 -5.16992 1.00132 0
M  V30 1038 H 109.517 -3.61209 1.11068 0
M  V30 1039 H 109.83 -7.17869 2.86155 0
M  V30 1040 H 108.175 -6.45856 2.56701 0
M  V30 1041 H 111.366 -4.44877 1.4561 0
M  V30 1042 H 111.539 -6.07524 2.25429 0
M  V30 1043 N 104.945 -0.338344 -1.53925 0
M  V30 1044 C 106.175 0.260919 -2.04946 0
M  V30 1045 C 106.583 1.45174 -1.2133 0
M  V30 1046 O 105.926 1.82122 -0.240262 0
M  V30 1047 C 105.988 0.744596 -3.51704 0
M  V30 1048 C 105.652 -0.325883 -4.55837 0
M  V30 1049 C 106.649 -1.16687 -5.06636 0
M  V30 1050 C 104.334 -0.478317 -5.00017 0
M  V30 1051 C 106.328 -2.14588 -6.00192 0
M  V30 1052 C 104.015 -1.46073 -5.93385 0
M  V30 1053 C 105.013 -2.29297 -6.4336 0
M  V30 1054 O 104.701 -3.25867 -7.34892 0
M  V30 1055 H 104.433 0.0551207 -0.673749 0
M  V30 1056 H 106.987 -0.486984 -1.99544 0
M  V30 1057 H 105.217 1.54366 -3.54553 0
M  V30 1058 H 106.906 1.26383 -3.85723 0
M  V30 1059 H 107.672 -1.06016 -4.73271 0
M  V30 1060 H 103.551 0.159613 -4.60724 0
M  V30 1061 H 107.095 -2.79585 -6.39123 0
M  V30 1062 H 102.992 -1.56802 -6.26166 0
M  V30 1063 H 103.76 -3.21278 -7.5281 0
M  V30 1064 N 106.423 1.57458 -0.0668435 0
M  V30 1065 C 107.648 1.9804 0.616027 0
M  V30 1066 C 108.073 0.944771 1.62652 0
M  V30 1067 O 107.431 -0.0902094 1.81075 0
M  V30 1068 C 107.479 3.37665 1.26549 0
M  V30 1069 O 106.583 3.36701 2.38131 0
M  V30 1070 H 105.924 0.644719 0.158849 0
M  V30 1071 H 108.454 2.04121 -0.139891 0
M  V30 1072 H 108.464 3.7474 1.6135 0
M  V30 1073 H 107.139 4.12573 0.525016 0
M  V30 1074 H 105.716 3.1139 2.0516 0
M  V30 1075 N 107.901 -0.206675 1.56239 0
M  V30 1076 C 109.317 -0.557025 1.49564 0
M  V30 1077 C 109.517 -1.86424 0.764735 0
M  V30 1078 O 108.573 -2.50584 0.310491 0
M  V30 1079 C 109.886 -0.622478 2.94186 0
M  V30 1080 C 111.434 -0.712099 3.04792 0
M  V30 1081 C 111.909 -0.808767 4.50803 0
M  V30 1082 N 113.4 -0.8726 4.54907 0
M  V30 1083 C 114.135 -0.967365 5.65181 0
M  V30 1084 N 113.631 -1.02515 6.85173 0
M  V30 1085 N 115.424 -1.00366 5.53067 0
M  V30 1086 H 107.575 0.650943 2.02179 0
M  V30 1087 H 109.838 0.230387 0.919579 0
M  V30 1088 H 109.544 0.268727 3.50672 0
M  V30 1089 H 109.418 -1.4811 3.46905 0
M  V30 1090 H 111.805 -1.59374 2.48363 0
M  V30 1091 H 111.886 0.172489 2.55218 0
M  V30 1092 H 111.53 0.0684754 5.07854 0
M  V30 1093 H 111.46 -1.70899 4.98098 0
M  V30 1094 H 113.951 -0.837657 3.68499 0
M  V30 1095 H 114.264 -1.09765 7.64965 0
M  V30 1096 H 112.609 -0.994026 6.87855 0
M  V30 1097 H 115.8 -0.95527 4.58249 0
M  V30 1098 H 115.973 -1.07405 6.39037 0
M  V30 1099 N 109.379 -1.50304 -0.473955 0
M  V30 1100 C 110.309 -1.71886 -1.58042 0
M  V30 1101 C 111.29 -0.567799 -1.60344 0
M  V30 1102 O 112.475 -0.806623 -1.76656 0
M  V30 1103 C 109.605 -1.81036 -2.96384 0
M  V30 1104 C 108.559 -2.962 -3.08949 0
M  V30 1105 C 107.885 -2.9049 -4.48909 0
M  V30 1106 C 109.185 -4.36752 -2.86434 0
M  V30 1107 H 110.879 -2.64527 -1.40234 0
M  V30 1108 H 108.425 -1.27295 -0.673201 0
M  V30 1109 H 110.378 -1.94719 -3.73714 0
M  V30 1110 H 109.102 -0.850147 -3.15341 0
M  V30 1111 H 107.761 -2.82164 -2.3405 0
M  V30 1112 H 107.409 -1.92321 -4.64781 0
M  V30 1113 H 107.109 -3.67802 -4.58253 0
M  V30 1114 H 108.633 -3.06218 -5.28264 0
M  V30 1115 H 110.047 -4.5133 -3.53517 0
M  V30 1116 H 108.444 -5.15493 -3.07225 0
M  V30 1117 H 109.514 -4.49321 -1.82316 0
M  V30 1118 N 110.857 0.726932 -1.39834 0
M  V30 1119 C 112.134 1.47902 -1.28001 0
M  V30 1120 C 112.514 2.1083 0.106789 0
M  V30 1121 O 111.862 1.99242 1.11869 0
M  V30 1122 C 112.072 2.52392 -2.41038 0
M  V30 1123 C 113.42 3.18546 -2.80737 0
M  V30 1124 O 114.444 2.62708 -2.40547 0
M  V30 1125 O 113.303 4.19604 -3.50135 0
M  V30 1126 H 110.397 0.657163 -0.502062 0
M  V30 1127 H 112.943 0.760071 -1.51727 0
M  V30 1128 H 111.715 2.04329 -3.33715 0
M  V30 1129 H 111.338 3.31837 -2.19021 0
M  V30 1130 N 112.336 1.25143 0.95797 0
M  V30 1131 C 113.268 1.01023 2.05735 0
M  V30 1132 C 114.281 -0.0236902 1.62783 0
M  V30 1133 O 115.47 0.21448 1.77207 0
M  V30 1134 C 112.57 0.504595 3.35122 0
M  V30 1135 C 111.743 1.6039 4.06932 0
M  V30 1136 C 110.802 1.09922 5.14591 0
M  V30 1137 O 109.828 1.79293 5.40225 0
M  V30 1138 N 111.03 -0.0612545 5.80468 0
M  V30 1139 H 113.795 1.95683 2.26998 0
M  V30 1140 H 111.356 1.16303 1.12629 0
M  V30 1141 H 113.348 0.151516 4.04416 0
M  V30 1142 H 111.918 -0.347989 3.10657 0
M  V30 1143 H 111.138 2.12872 3.31782 0
M  V30 1144 H 112.426 2.34252 4.51667 0
M  V30 1145 H 111.824 -0.640985 5.62057 0
M  V30 1146 H 110.381 -0.355395 6.5083 0
M  V30 1147 N 113.814 -1.1601 1.06675 0
M  V30 1148 C 115.063 -1.85973 0.780818 0
M  V30 1149 C 115.376 -1.82819 -0.695444 0
M  V30 1150 O 116.582 -2.484 -1.09589 0
M  V30 1151 C 115.038 -3.33757 1.34665 0
M  V30 1152 C 114.646 -3.45374 2.85343 0
M  V30 1153 C 116.39 -4.0895 1.13843 0
M  V30 1154 C 114.297 -4.87266 3.35151 0
M  V30 1155 H 113.227 -0.696661 0.288407 0
M  V30 1156 H 115.878 -1.30903 1.28595 0
M  V30 1157 H 114.26 -3.88456 0.769274 0
M  V30 1158 H 115.434 -3.00816 3.49065 0
M  V30 1159 H 113.749 -2.83619 3.04876 0
M  V30 1160 H 116.346 -5.13654 1.4854 0
M  V30 1161 H 116.689 -4.16229 0.0770282 0
M  V30 1162 H 117.222 -3.605 1.68179 0
M  V30 1163 H 113.961 -4.85168 4.40786 0
M  V30 1164 H 113.481 -5.32433 2.76179 0
M  V30 1165 H 115.16 -5.56097 3.30704 0
M  V30 1166 N 115.292 -0.849877 -1.32721 0
M  V30 1167 C 116.24 -0.279745 -2.30912 0
M  V30 1168 C 117.234 0.594278 -1.58634 0
M  V30 1169 O 118.44 0.482613 -1.73409 0
M  V30 1170 H 114.815 -0.0717521 -0.748569 0
M  V30 1171 H 116.786 -1.12222 -2.76494 0
M  V30 1172 C 115.535 0.521108 -3.43773 0
M  V30 1173 H 114.858 -0.142141 -3.99547 0
M  V30 1174 H 116.298 0.885693 -4.14646 0
M  V30 1175 C 114.757 1.70442 -2.90605 0
M  V30 1176 O 115.287 2.8034 -2.87702 0
M  V30 1177 N 113.493 1.52991 -2.47067 0
M  V30 1178 H 113.04 0.635914 -2.49628 0
M  V30 1179 H 112.998 2.32311 -2.11847 0
M  V30 1180 N 116.77 1.45427 -0.607355 0
M  V30 1181 C 117.733 2.28974 0.101693 0
M  V30 1182 C 118.733 1.39754 0.795329 0
M  V30 1183 O 119.923 1.61878 0.643527 0
M  V30 1184 C 117.055 3.20768 1.15414 0
M  V30 1185 H 118.248 2.93147 -0.632844 0
M  V30 1186 H 115.801 1.51945 -0.366391 0
M  V30 1187 H 116.536 2.61395 1.91945 0
M  V30 1188 H 116.321 3.86489 0.66098 0
M  V30 1189 H 117.811 3.83589 1.65073 0
M  V30 1190 N 118.248 0.346503 1.53744 0
M  V30 1191 C 119.211 -0.496439 2.23759 0
M  V30 1192 C 120.211 -1.0252 1.2388 0
M  V30 1193 O 121.401 -0.913974 1.48297 0
M  V30 1194 C 118.533 -1.69187 2.95954 0
M  V30 1195 H 119.726 0.115952 2.99676 0
M  V30 1196 H 117.279 0.0978939 1.55993 0
M  V30 1197 H 118.014 -2.34288 2.24231 0
M  V30 1198 H 117.799 -1.31989 3.69217 0
M  V30 1199 H 119.289 -2.28969 3.49232 0
M  V30 1200 N 119.726 -1.57421 0.075193 0
M  V30 1201 C 120.674 -2.14124 -0.908508 0
M  V30 1202 C 121.668 -1.07898 -1.30592 0
M  V30 1203 O 122.874 -1.26273 -1.28277 0
M  V30 1204 H 119.249 -0.684707 -0.310935 0
M  V30 1205 H 121.22 -2.95634 -0.405374 0
M  V30 1206 C 119.969 -2.72044 -2.16535 0
M  V30 1207 H 119.292 -3.53456 -1.86839 0
M  V30 1208 H 120.732 -3.15311 -2.83469 0
M  V30 1209 C 119.191 -1.66968 -2.92615 0
M  V30 1210 O 119.721 -1.0967 -3.86439 0
M  V30 1211 N 117.927 -1.37923 -2.55784 0
M  V30 1212 H 117.474 -1.84706 -1.79559 0
M  V30 1213 H 117.432 -0.67852 -3.06991 0
M  V30 1214 N 121.204 0.198386 -1.56346 0
M  V30 1215 C 122.45 0.920648 -1.80698 0
M  V30 1216 C 122.783 1.83045 -0.648697 0
M  V30 1217 O 122.058 1.91308 0.350925 0
M  V30 1218 C 122.341 1.73971 -3.15287 0
M  V30 1219 C 122.194 0.85485 -4.41602 0
M  V30 1220 C 123.513 2.71296 -3.46535 0
M  V30 1221 H 120.632 0.333261 -0.657348 0
M  V30 1222 H 123.274 0.188198 -1.89066 0
M  V30 1223 H 121.424 2.36416 -3.08285 0
M  V30 1224 H 123.096 0.245362 -4.60647 0
M  V30 1225 H 121.339 0.161398 -4.335 0
M  V30 1226 H 122.01 1.46286 -5.32264 0
M  V30 1227 H 124.486 2.18983 -3.53816 0
M  V30 1228 H 123.362 3.2569 -4.41834 0
M  V30 1229 H 123.623 3.5018 -2.69864 0
M  V30 1230 N 122.682 1.50554 0.465978 0
M  V30 1231 C 123.629 1.6979 1.56333 0
M  V30 1232 C 124.599 0.539239 1.57103 0
M  V30 1233 O 125.784 0.770401 1.74555 0
M  V30 1234 C 122.924 1.80273 2.94271 0
M  V30 1235 C 122.037 3.07674 3.0325 0
M  V30 1236 C 121.172 3.08922 4.32135 0
M  V30 1237 C 120.211 4.30755 4.34875 0
M  V30 1238 N 119.348 4.29714 5.55239 0
M  V30 1239 H 124.188 2.63472 1.39235 0
M  V30 1240 H 121.725 1.30602 0.676873 0
M  V30 1241 H 123.683 1.84332 3.74269 0
M  V30 1242 H 122.313 0.900258 3.09992 0
M  V30 1243 H 121.365 3.13062 2.16094 0
M  V30 1244 H 122.677 3.97642 3.01135 0
M  V30 1245 H 121.831 3.11738 5.20485 0
M  V30 1246 H 120.57 2.16792 4.36866 0
M  V30 1247 H 119.575 4.28146 3.44922 0
M  V30 1248 H 120.8 5.24117 4.31831 0
M  V30 1249 H 118.746 3.4044 5.60746 0
M  V30 1250 H 118.663 5.13456 5.54886 0
M  V30 1251 H 119.931 4.36683 6.457 0
M  V30 1252 N 124.16 -0.719506 1.40217 0
M  V30 1253 C 125.437 -1.47221 1.28784 0
M  V30 1254 C 125.817 -2.10883 -0.0956067 0
M  V30 1255 O 125.165 -1.99833 -1.10811 0
M  V30 1256 C 125.375 -2.5111 2.42373 0
M  V30 1257 C 126.723 -3.17053 2.82423 0
M  V30 1258 O 127.747 -2.61429 2.41937 0
M  V30 1259 O 126.606 -4.17742 3.52355 0
M  V30 1260 H 123.7 -0.654491 0.50554 0
M  V30 1261 H 126.246 -0.752014 1.52128 0
M  V30 1262 H 125.018 -2.02556 3.34793 0
M  V30 1263 H 124.641 -3.3067 2.20778 0
M  V30 1264 N 125.638 -1.25649 -0.95132 0
M  V30 1265 C 126.568 -1.08808 -2.06599 0
M  V30 1266 C 127.549 0.00382547 -1.701 0
M  V30 1267 O 128.734 -0.166325 -1.93486 0
M  V30 1268 C 125.864 -0.709542 -3.39975 0
M  V30 1269 C 124.818 -1.75206 -3.90496 0
M  V30 1270 C 124.144 -1.22811 -5.20405 0
M  V30 1271 C 125.444 -3.15153 -4.16504 0
M  V30 1272 H 127.138 -2.02048 -2.20946 0
M  V30 1273 H 124.684 -0.972835 -1.06169 0
M  V30 1274 H 126.637 -0.578649 -4.17408 0
M  V30 1275 H 125.361 0.258556 -3.25575 0
M  V30 1276 H 124.02 -1.87145 -3.15234 0
M  V30 1277 H 123.668 -0.250145 -5.02378 0
M  V30 1278 H 123.368 -1.92492 -5.55176 0
M  V30 1279 H 124.892 -1.10968 -6.00432 0
M  V30 1280 H 126.306 -3.06349 -4.84586 0
M  V30 1281 H 124.703 -3.82333 -4.62538 0
M  V30 1282 H 125.773 -3.61966 -3.22658 0
M  V30 1283 N 127.117 1.15442 -1.07289 0
M  V30 1284 C 128.365 1.85845 -0.794096 0
M  V30 1285 C 128.686 1.82692 0.681809 0
M  V30 1286 O 127.956 1.26741 1.49377 0
M  V30 1287 H 126.536 0.688089 -0.290763 0
M  V30 1288 H 129.198 1.39947 -1.3565 0
M  V30 1289 H 128.294 2.91001 -1.12804 0
M  V30 1290 N 128.595 0.856903 1.32268 0
M  V30 1291 C 129.525 0.31858 2.31316 0
M  V30 1292 C 130.506 -0.583487 1.59779 0
M  V30 1293 O 131.691 -0.503259 1.87566 0
M  V30 1294 C 128.821 -0.491979 3.43798 0
M  V30 1295 C 127.775 0.315849 4.26833 0
M  V30 1296 C 127.101 -0.619586 5.31098 0
M  V30 1297 C 128.401 1.54282 4.98993 0
M  V30 1298 H 130.095 1.14621 2.76591 0
M  V30 1299 H 127.641 0.552613 1.32974 0
M  V30 1300 H 129.594 -0.879012 4.1213 0
M  V30 1301 H 128.318 -1.35299 2.97257 0
M  V30 1302 H 126.977 0.684664 3.6015 0
M  V30 1303 H 126.625 -1.47751 4.8081 0
M  V30 1304 H 126.325 -0.0830621 5.87541 0
M  V30 1305 H 127.849 -1.00375 6.02293 0
M  V30 1306 H 129.263 1.22796 5.59995 0
M  V30 1307 H 127.66 2.01745 5.65172 0
M  V30 1308 H 128.73 2.30285 4.26728 0
M  V30 1309 N 130.073 -1.45103 0.615059 0
M  V30 1310 C 131.036 -2.29025 -0.0895485 0
M  V30 1311 C 132.036 -1.40174 -0.787906 0
M  V30 1312 O 133.226 -1.62217 -0.634933 0
M  V30 1313 C 130.358 -3.21376 -1.13711 0
M  V30 1314 H 131.551 -2.92807 0.648382 0
M  V30 1315 H 129.104 -1.51749 0.374444 0
M  V30 1316 H 129.839 -2.6241 -1.90556 0
M  V30 1317 H 129.624 -3.86834 -0.640475 0
M  V30 1318 H 131.114 -3.84459 -1.63036 0
M  V30 1319 N 131.551 -0.354651 -1.53558 0
M  V30 1320 C 132.797 0.231422 -2.02079 0
M  V30 1321 C 133.152 1.47308 -1.23767 0
M  V30 1322 O 132.445 1.8891 -0.319947 0
M  V30 1323 C 132.639 0.587121 -3.52545 0
M  V30 1324 C 132.468 -0.618513 -4.45426 0
M  V30 1325 C 131.238 -1.12724 -4.92566 0
M  V30 1326 C 133.436 -1.48039 -4.92533 0
M  V30 1327 N 131.418 -2.29404 -5.69427 0
M  V30 1328 C 132.789 -2.49397 -5.67628 0
M  V30 1329 C 134.844 -1.50454 -4.74624 0
M  V30 1330 C 133.547 -3.53013 -6.26717 0
M  V30 1331 C 135.573 -2.52958 -5.34571 0
M  V30 1332 C 134.935 -3.5304 -6.09543 0
M  V30 1333 H 131.034 0.0476909 -0.780544 0
M  V30 1334 H 133.618 -0.496727 -1.88257 0
M  V30 1335 H 131.789 1.28436 -3.6655 0
M  V30 1336 H 133.521 1.15734 -3.87799 0
M  V30 1337 H 130.276 -0.693577 -4.68494 0
M  V30 1338 H 130.7 -2.88347 -6.12524 0
M  V30 1339 H 135.342 -0.744356 -4.16196 0
M  V30 1340 H 133.06 -4.2992 -6.84247 0
M  V30 1341 H 136.646 -2.55667 -5.22614 0
M  V30 1342 H 135.526 -4.31056 -6.55103 0
M  V30 1343 N 133.029 1.57378 -0.0835403 0
M  V30 1344 C 134.254 1.98682 0.594987 0
M  V30 1345 C 134.679 0.961969 1.61641 0
M  V30 1346 O 134.037 -0.0709989 1.81161 0
M  V30 1347 C 134.085 3.38988 1.2296 0
M  V30 1348 O 133.189 3.39208 2.34546 0
M  V30 1349 H 132.53 0.646368 0.152002 0
M  V30 1350 H 135.06 2.03961 -0.161533 0
M  V30 1351 H 135.07 3.76431 1.57366 0
M  V30 1352 H 133.745 4.13107 0.481228 0
M  V30 1353 H 132.322 3.13548 2.01846 0
M  V30 1354 N 134.507 -0.190092 1.56449 0
M  V30 1355 C 135.737 -0.92443 1.84764 0
M  V30 1356 C 136.145 -1.77146 0.664529 0
M  V30 1357 O 135.488 -1.79812 -0.375957 0
M  V30 1358 C 135.55 -1.86651 3.07248 0
M  V30 1359 C 135.214 -1.20094 4.40938 0
M  V30 1360 C 136.211 -0.575445 5.16706 0
M  V30 1361 C 133.896 -1.2033 4.87674 0
M  V30 1362 C 135.89 0.0388111 6.37388 0
M  V30 1363 C 133.577 -0.585214 6.08291 0
M  V30 1364 C 134.575 0.0347578 6.82991 0
M  V30 1365 O 134.263 0.643147 8.01323 0
M  V30 1366 H 133.995 -0.274974 0.617548 0
M  V30 1367 H 136.549 -0.200788 2.04416 0
M  V30 1368 H 134.779 -2.62998 2.83494 0
M  V30 1369 H 136.468 -2.46907 3.22167 0
M  V30 1370 H 137.234 -0.565728 4.81689 0
M  V30 1371 H 133.113 -1.67526 4.29484 0
M  V30 1372 H 136.657 0.523329 6.95634 0
M  V30 1373 H 132.554 -0.592451 6.42775 0
M  V30 1374 H 133.322 0.540545 8.16713 0
M  V30 1375 N 135.985 -1.50799 -0.457987 0
M  V30 1376 C 136.933 -1.71162 -1.575 0
M  V30 1377 C 137.927 -0.577592 -1.59249 0
M  V30 1378 O 139.133 -0.758443 -1.63241 0
M  V30 1379 H 135.508 -0.540468 -0.522875 0
M  V30 1380 H 137.479 -2.64837 -1.37492 0
M  V30 1381 C 136.228 -1.83496 -2.95338 0
M  V30 1382 H 135.551 -2.70153 -2.94716 0
M  V30 1383 H 136.991 -2.01765 -3.72917 0
M  V30 1384 C 135.45 -0.589694 -3.31699 0
M  V30 1385 O 135.98 0.265163 -4.00824 0
M  V30 1386 N 134.186 -0.439845 -2.87252 0
M  V30 1387 H 133.733 -1.13655 -2.31172 0
M  V30 1388 H 133.691 0.392159 -3.11945 0
M  V30 1389 N 137.463 0.71206 -1.40597 0
M  V30 1390 C 138.393 1.83889 -1.43899 0
M  V30 1391 C 139.374 1.67442 -0.299504 0
M  V30 1392 O 140.559 1.87421 -0.508624 0
M  V30 1393 C 137.689 3.21877 -1.30431 0
M  V30 1394 C 136.643 3.53002 -2.42019 0
M  V30 1395 C 135.969 4.90172 -2.13626 0
M  V30 1396 C 137.269 3.53643 -3.84362 0
M  V30 1397 H 138.963 1.81383 -2.38203 0
M  V30 1398 H 136.509 0.871237 -1.14654 0
M  V30 1399 H 138.462 4.00404 -1.31357 0
M  V30 1400 H 137.186 3.24968 -0.326049 0
M  V30 1401 H 135.845 2.76818 -2.40349 0
M  V30 1402 H 135.493 4.89869 -1.14182 0
M  V30 1403 H 135.193 5.11962 -2.88389 0
M  V30 1404 H 136.717 5.71028 -2.1624 0
M  V30 1405 H 138.131 4.22203 -3.87837 0
M  V30 1406 H 136.528 3.86961 -4.58673 0
M  V30 1407 H 137.598 2.52954 -4.13693 0
M  V30 1408 N 138.941 1.26152 0.944643 0
M  V30 1409 C 139.851 1.09176 2.07648 0
M  V30 1410 C 140.867 0.0261935 1.7398 0
M  V30 1411 O 142.043 0.229208 2.00091 0
M  V30 1412 C 139.108 0.722915 3.39079 0
M  V30 1413 C 138.169 1.86752 3.86552 0
M  V30 1414 C 137.402 1.51617 5.11711 0
M  V30 1415 O 137.625 0.416331 5.68879 0
M  V30 1416 O 136.559 2.34975 5.54139 0
M  V30 1417 H 140.385 2.0412 2.24875 0
M  V30 1418 H 137.97 1.05182 1.061 0
M  V30 1419 H 139.852 0.529787 4.18056 0
M  V30 1420 H 138.527 -0.197159 3.23099 0
M  V30 1421 H 137.434 2.11558 3.08535 0
M  V30 1422 H 138.767 2.76719 4.07047 0
M  V30 1423 N 140.419 -1.14872 1.07899 0
M  V30 1424 C 141.644 -1.90202 0.826926 0
M  V30 1425 C 142.069 -1.77774 -0.614664 0
M  V30 1426 O 141.427 -1.11431 -1.43013 0
M  V30 1427 C 141.475 -3.38352 1.24702 0
M  V30 1428 O 140.579 -4.10497 0.39575 0
M  V30 1429 H 139.92 -0.591968 0.300782 0
M  V30 1430 H 142.45 -1.45437 1.43907 0
M  V30 1431 H 142.46 -3.89156 1.22563 0
M  V30 1432 H 141.135 -3.46715 2.29698 0
M  V30 1433 H 139.712 -3.69796 0.480117 0
M  V30 1434 N 141.898 -0.863906 -1.31812 0
M  V30 1435 C 143.126 -0.486111 -2.01108 0
M  V30 1436 C 143.541 0.919755 -1.64882 0
M  V30 1437 O 142.898 1.60162 -0.874893 0
M  V30 1438 C 142.949 -0.626435 -3.56031 0
M  V30 1439 O 142.67 -1.97693 -3.90959 0
M  V30 1440 C 144.171 -0.248857 -4.42601 0
M  V30 1441 H 141.391 -0.190052 -0.643523 0
M  V30 1442 H 143.935 -1.1634 -1.68182 0
M  V30 1443 H 142.09 0.00322717 -3.874 0
M  V30 1444 H 142.504 -1.98034 -4.85678 0
M  V30 1445 H 143.978 -0.398016 -5.50563 0
M  V30 1446 H 144.455 0.811489 -4.31638 0
M  V30 1447 H 145.061 -0.853971 -4.16638 0
M  V30 1448 N 143.376 1.44774 -0.622745 0
M  V30 1449 C 144.792 1.56986 -0.287652 0
M  V30 1450 C 144.992 1.61167 1.20944 0
M  V30 1451 O 144.048 1.55015 1.99315 0
M  V30 1452 C 145.361 2.84551 -0.972188 0
M  V30 1453 C 146.909 2.9825 -0.949536 0
M  V30 1454 C 147.384 4.28605 -1.61437 0
M  V30 1455 N 148.875 4.35399 -1.58057 0
M  V30 1456 C 149.61 5.34964 -2.064 0
M  V30 1457 N 149.106 6.40981 -2.62897 0
M  V30 1458 N 150.899 5.26419 -1.97078 0
M  V30 1459 H 143.05 1.40304 -1.59463 0
M  V30 1460 H 145.313 0.671794 -0.668878 0
M  V30 1461 H 145.019 2.87417 -2.02693 0
M  V30 1462 H 144.893 3.73807 -0.504771 0
M  V30 1463 H 147.28 2.94941 0.0967067 0
M  V30 1464 H 147.361 2.10364 -1.45536 0
M  V30 1465 H 147.005 4.32672 -2.66002 0
M  V30 1466 H 146.935 5.15334 -1.08344 0
M  V30 1467 H 149.426 3.59397 -1.16801 0
M  V30 1468 H 149.739 7.13225 -2.97539 0
M  V30 1469 H 148.084 6.4169 -2.66943 0
M  V30 1470 H 151.275 4.42504 -1.52669 0
M  V30 1471 H 151.448 6.03861 -2.35066 0
M  V30 1472 N 144.854 0.36279 1.53368 0
M  V30 1473 C 146.102 -0.227326 2.00817 0
M  V30 1474 C 146.423 -1.49511 1.25186 0
M  V30 1475 O 145.693 -1.92482 0.364348 0
M  V30 1476 H 144.273 -0.0869923 0.741917 0
M  V30 1477 H 146.935 0.488381 1.88682 0
M  V30 1478 H 146.031 -0.456273 3.08747 0
M  V30 1479 N 146.332 -1.57332 0.0918853 0
M  V30 1480 C 147.578 -1.94524 -0.573425 0
M  V30 1481 C 147.911 -0.973578 -1.68033 0
M  V30 1482 O 147.186 -0.00609226 -1.94499 0
M  V30 1483 C 147.469 -3.41858 -1.13161 0
M  V30 1484 C 147.322 -4.4979 -0.0299747 0
M  V30 1485 C 148.641 -3.90435 -2.03098 0
M  V30 1486 H 145.76 -0.70734 -0.206975 0
M  V30 1487 H 148.402 -1.89309 0.161942 0
M  V30 1488 H 146.552 -3.46433 -1.7583 0
M  V30 1489 H 148.224 -4.57327 0.604112 0
M  V30 1490 H 146.467 -4.291 0.636833 0
M  V30 1491 H 147.138 -5.50069 -0.461287 0
M  V30 1492 H 149.614 -3.87992 -1.50338 0
M  V30 1493 H 148.49 -4.94097 -2.39081 0
M  V30 1494 H 148.751 -3.29541 -2.94712 0
M  V30 1495 N 147.81 0.181792 -1.56548 0
M  V30 1496 C 148.72 1.24538 -1.98815 0
M  V30 1497 C 149.736 1.49045 -0.897861 0
M  V30 1498 O 150.912 1.61399 -1.20467 0
M  V30 1499 C 147.977 2.56683 -2.33055 0
M  V30 1500 C 147.038 2.40131 -3.55859 0
M  V30 1501 C 146.271 3.65975 -3.88456 0
M  V30 1502 O 146.494 4.70711 -3.22161 0
M  V30 1503 O 145.428 3.6071 -4.81842 0
M  V30 1504 H 149.254 0.916647 -2.89536 0
M  V30 1505 H 146.839 0.387842 -1.44278 0
M  V30 1506 H 148.721 3.34655 -2.56094 0
M  V30 1507 H 147.396 2.89157 -1.45498 0
M  V30 1508 H 146.303 1.60226 -3.38051 0
M  V30 1509 H 147.636 2.12585 -4.43924 0
M  V30 1510 N 149.288 1.51039 0.449983 0
M  V30 1511 C 150.251 1.70863 1.5277 0
M  V30 1512 C 151.251 0.578846 1.5002 0
M  V30 1513 O 152.441 0.846213 1.52266 0
M  V30 1514 C 149.573 1.75341 2.9235 0
M  V30 1515 H 150.766 2.67034 1.36502 0
M  V30 1516 H 148.319 1.40838 0.677812 0
M  V30 1517 H 149.054 0.809383 3.14037 0
M  V30 1518 H 148.839 2.57436 2.95752 0
M  V30 1519 H 150.329 1.92559 3.70555 0
M  V30 1520 N 150.766 -0.704594 1.40972 0
M  V30 1521 C 151.994 -1.49354 1.43182 0
M  V30 1522 C 152.409 -1.88768 0.0345508 0
M  V30 1523 O 151.766 -1.56184 -0.944081 0
M  V30 1524 C 151.817 -2.76187 2.33244 0
M  V30 1525 O 151.538 -2.38436 3.67532 0
M  V30 1526 C 153.039 -3.7 2.44162 0
M  V30 1527 H 150.259 -0.460559 0.487982 0
M  V30 1528 H 152.803 -0.868261 1.85153 0
M  V30 1529 H 150.958 -3.34974 1.94606 0
M  V30 1530 H 151.372 -3.20126 4.15475 0
M  V30 1531 H 152.846 -4.55803 3.11364 0
M  V30 1532 H 153.323 -4.13867 1.47006 0
M  V30 1533 H 153.929 -3.17121 2.83398 0
M  V30 1534 N 152.244 -1.26651 -0.937939 0
M  V30 1535 C 153.655 -1.1125 -1.49934 0
M  V30 1536 C 154.006 0.306077 -1.93798 0
M  V30 1537 O 153.131 1.19792 -1.80219 0
M  V30 1538 C 153.726 -2.01339 -2.72485 0
M  V30 1539 C 152.285 -1.90074 -3.24883 0
M  V30 1540 C 151.432 -1.94498 -1.97651 0
M  V30 1541 H 154.383 -1.39693 -0.753091 0
M  V30 1542 H 154.404 -1.56319 -3.46907 0
M  V30 1543 H 153.916 -3.04577 -2.40529 0
M  V30 1544 H 152.017 -0.897827 -3.61621 0
M  V30 1545 H 152.13 -2.75778 -3.9177 0
M  V30 1546 H 150.494 -1.38591 -2.13693 0
M  V30 1547 H 151.277 -2.99372 -1.68022 0
M  V30 1548 N 153.722 1.14298 -1.08507 0
M  V30 1549 C 154.968 1.85633 -0.816581 0
M  V30 1550 C 155.301 1.82784 0.656021 0
M  V30 1551 O 154.576 1.25926 1.48233 0
M  V30 1552 C 154.859 3.34223 -1.34041 0
M  V30 1553 C 154.712 3.45639 -2.87843 0
M  V30 1554 C 156.031 4.29356 -0.9665 0
M  V30 1555 H 153.15 0.67402 -0.298104 0
M  V30 1556 H 155.792 1.34214 -1.34487 0
M  V30 1557 H 153.942 3.78144 -0.89104 0
M  V30 1558 H 155.614 3.10498 -3.41158 0
M  V30 1559 H 153.857 2.86817 -3.25451 0
M  V30 1560 H 154.528 4.50089 -3.19569 0
M  V30 1561 H 157.004 3.93457 -1.35391 0
M  V30 1562 H 155.88 5.3178 -1.3602 0
M  V30 1563 H 156.141 4.41919 0.126362 0
M  V30 1564 N 155.201 0.870884 1.31352 0
M  V30 1565 C 156.447 0.482987 1.96965 0
M  V30 1566 C 156.78 -0.962462 1.68672 0
M  V30 1567 O 156.055 -1.6779 0.98371 0
M  V30 1568 C 156.338 0.741752 3.52378 0
M  V30 1569 C 156.191 2.2368 3.9024 0
M  V30 1570 C 157.51 0.208838 4.39604 0
M  V30 1571 H 154.629 0.176955 0.715441 0
M  V30 1572 H 157.271 1.09229 1.55464 0
M  V30 1573 H 155.421 0.223149 3.87859 0
M  V30 1574 H 157.093 2.82273 3.64856 0
M  V30 1575 H 155.336 2.70901 3.38814 0
M  V30 1576 H 156.007 2.3685 4.98604 0
M  V30 1577 H 158.483 0.652529 4.10952 0
M  V30 1578 H 157.359 0.419336 5.47296 0
M  V30 1579 H 157.62 -0.889275 4.33064 0
M  V30 1580 N 156.679 -1.44442 0.630414 0
M  V30 1581 C 157.925 -2.02351 0.134816 0
M  V30 1582 C 158.258 -1.4947 -1.23986 0
M  V30 1583 O 157.533 -0.678475 -1.82283 0
M  V30 1584 C 157.816 -3.59898 0.120707 0
M  V30 1585 C 157.669 -4.23063 1.52767 0
M  V30 1586 C 158.988 -4.36585 -0.555127 0
M  V30 1587 H 156.107 -0.73527 0.0504646 0
M  V30 1588 H 158.749 -1.72022 0.806751 0
M  V30 1589 H 156.899 -3.85868 -0.451477 0
M  V30 1590 H 158.571 -4.08202 2.14869 0
M  V30 1591 H 156.814 -3.80586 2.08175 0
M  V30 1592 H 157.485 -5.32071 1.46984 0
M  V30 1593 H 159.961 -4.16044 -0.0685429 0
M  V30 1594 H 158.837 -5.46294 -0.534185 0
M  V30 1595 H 159.098 -4.11138 -1.62535 0
M  V30 1596 N 158.157 -0.370918 -1.53173 0
M  V30 1597 C 159.434 0.273754 -1.93675 0
M  V30 1598 C 159.814 1.65938 -1.3049 0
M  V30 1599 O 159.162 2.23698 -0.465999 0
M  V30 1600 C 159.372 0.318602 -3.47543 0
M  V30 1601 C 160.72 0.556392 -4.20939 0
M  V30 1602 O 161.744 0.399587 -3.53952 0
M  V30 1603 O 160.603 0.862133 -5.39657 0
M  V30 1604 H 157.697 0.165448 -0.810281 0
M  V30 1605 H 160.243 -0.42409 -1.64315 0
M  V30 1606 H 159.015 -0.652687 -3.85818 0
M  V30 1607 H 158.638 1.06212 -3.83151 0
M  V30 1608 N 159.635 1.57281 -0.100228 0
M  V30 1609 C 160.883 1.94153 0.561157 0
M  V30 1610 C 161.204 0.983157 1.68401 0
M  V30 1611 O 160.474 0.0361132 1.95867 0
M  V30 1612 H 159.054 0.716791 0.210283 0
M  V30 1613 H 161.716 1.94202 -0.164765 0
M  V30 1614 H 160.812 2.96709 0.968008 0
M  V30 1615 N 161.113 -0.173488 1.56642 0
M  V30 1616 C 162.362 -0.888758 1.81063 0
M  V30 1617 C 162.675 -1.83506 0.67712 0
M  V30 1618 O 163.881 -2.59254 0.806206 0
M  V30 1619 C 162.337 -1.63091 3.20826 0
M  V30 1620 C 161.945 -0.728357 4.4204 0
M  V30 1621 C 163.689 -2.33454 3.54541 0
M  V30 1622 C 161.596 -1.47062 5.72823 0
M  V30 1623 H 160.526 -0.335618 0.675186 0
M  V30 1624 H 163.177 -0.141712 1.82952 0
M  V30 1625 H 161.559 -2.42263 3.13248 0
M  V30 1626 H 162.733 0.0262449 4.60793 0
M  V30 1627 H 161.048 -0.134492 4.16183 0
M  V30 1628 H 163.645 -2.89578 4.49498 0
M  V30 1629 H 163.988 -3.08687 2.79317 0
M  V30 1630 H 164.521 -1.61227 3.63663 0
M  V30 1631 H 161.26 -0.760658 6.51072 0
M  V30 1632 H 160.78 -2.1986 5.58052 0
M  V30 1633 H 162.459 -2.01868 6.14702 0
M  V30 1634 N 162.591 -1.51276 -0.441967 0
M  V30 1635 C 163.524 -1.66933 -1.55591 0
M  V30 1636 C 164.502 -0.516958 -1.54163 0
M  V30 1637 O 165.686 -0.740209 -1.73358 0
M  V30 1638 C 162.813 -1.67866 -2.94174 0
M  V30 1639 C 161.859 -2.89013 -3.13646 0
M  V30 1640 S 162.692 -4.49897 -2.90436 0
M  V30 1641 C 163.848 -4.53568 -4.31308 0
M  V30 1642 H 164.081 -2.61155 -1.42076 0
M  V30 1643 H 161.614 -1.40902 -0.631341 0
M  V30 1644 H 163.572 -1.69089 -3.74058 0
M  V30 1645 H 162.233 -0.748296 -3.05056 0
M  V30 1646 H 161.426 -2.86054 -4.14957 0
M  V30 1647 H 161.028 -2.85509 -2.4158 0
M  V30 1648 H 163.32 -4.28924 -5.24434 0
M  V30 1649 H 164.263 -5.55355 -4.39303 0
M  V30 1650 H 164.671 -3.82943 -4.14747 0
M  V30 1651 N 164.069 0.697108 -1.41344 0
M  V30 1652 C 165.299 1.48377 -1.43763 0
M  V30 1653 C 165.707 1.89156 -0.0408726 0
M  V30 1654 O 165.05 1.57239 0.949812 0
M  V30 1655 C 165.112 2.7781 -2.2817 0
M  V30 1656 C 164.776 2.59244 -3.76353 0
M  V30 1657 C 165.773 2.25292 -4.68551 0
M  V30 1658 C 163.458 2.74933 -4.20378 0
M  V30 1659 C 165.452 2.07264 -6.02761 0
M  V30 1660 C 163.139 2.56521 -5.54653 0
M  V30 1661 C 164.137 2.22737 -6.4566 0
M  V30 1662 O 163.825 2.04485 -7.77458 0
M  V30 1663 H 163.557 0.463842 -0.491759 0
M  V30 1664 H 166.111 0.865934 -1.86255 0
M  V30 1665 H 164.341 3.41995 -1.8049 0
M  V30 1666 H 166.03 3.39608 -2.22309 0
M  V30 1667 H 166.796 2.12787 -4.35829 0
M  V30 1668 H 162.675 3.00213 -3.49848 0
M  V30 1669 H 166.219 1.80817 -6.73759 0
M  V30 1670 H 162.116 2.68616 -5.86955 0
M  V30 1671 H 162.884 2.1926 -7.88586 0
M  V30 1672 N 165.547 1.27147 0.931209 0
M  V30 1673 C 166.793 1.13446 1.68101 0
M  V30 1674 C 167.126 -0.319628 1.91552 0
M  V30 1675 O 166.401 -1.23407 1.50336 0
M  V30 1676 C 166.684 1.91482 3.0497 0
M  V30 1677 C 166.537 3.44855 2.88782 0
M  V30 1678 C 167.856 1.71651 4.05246 0
M  V30 1679 H 164.975 0.413498 0.610072 0
M  V30 1680 H 167.617 1.56261 1.08086 0
M  V30 1681 H 165.767 1.55095 3.56199 0
M  V30 1682 H 167.439 3.9105 2.44698 0
M  V30 1683 H 165.682 3.71373 2.24198 0
M  V30 1684 H 166.353 3.94694 3.85902 0
M  V30 1685 H 168.829 2.0337 3.63015 0
M  V30 1686 H 167.705 2.28651 4.99009 0
M  V30 1687 H 167.966 0.663555 4.37092 0
M  V30 1688 N 167.025 -1.13721 1.09112 0
M  V30 1689 C 168.25 -1.89314 0.847053 0
M  V30 1690 C 168.675 -1.78416 -0.595774 0
M  V30 1691 O 168.033 -1.12942 -1.41823 0
M  V30 1692 C 168.081 -3.3701 1.28284 0
M  V30 1693 O 167.185 -4.10054 0.439267 0
M  V30 1694 H 166.526 -0.588745 0.307044 0
M  V30 1695 H 169.056 -1.43902 1.45442 0
M  V30 1696 H 169.066 -3.87834 1.26683 0
M  V30 1697 H 167.741 -3.4426 2.33363 0
M  V30 1698 H 166.318 -3.69266 0.519312 0
M  V30 1699 N 168.503 -0.877838 -1.30888 0
M  V30 1700 C 169.466 -0.344265 -2.266 0
M  V30 1701 C 170.466 0.50922 -1.52524 0
M  V30 1702 O 171.656 0.317398 -1.71284 0
M  V30 1703 C 168.788 0.510198 -3.37061 0
M  V30 1704 H 169.981 -1.1893 -2.7531 0
M  V30 1705 H 167.534 -0.654088 -1.41956 0
M  V30 1706 H 168.269 1.37612 -2.93655 0
M  V30 1707 H 168.054 -0.101047 -3.9197 0
M  V30 1708 H 169.544 0.875537 -4.08319 0
M  V30 1709 N 169.982 1.44106 -0.638065 0
M  V30 1710 C 171.207 2.0685 -0.150916 0
M  V30 1711 C 171.632 1.47417 1.16833 0
M  V30 1712 O 170.99 0.578264 1.71831 0
M  V30 1713 C 171.038 3.60555 -0.05708 0
M  V30 1714 O 170.142 4.00465 0.984972 0
M  V30 1715 H 169.483 0.658151 -0.0879399 0
M  V30 1716 H 172.013 1.84865 -0.876707 0
M  V30 1717 H 172.023 4.07789 0.131232 0
M  V30 1718 H 170.698 4.03193 -1.02021 0
M  V30 1719 H 169.275 3.64849 0.770672 0
M  V30 1720 N 171.46 0.379036 1.52974 0
M  V30 1721 C 172.706 -0.199244 2.02422 0
M  V30 1722 C 173.061 -1.4532 1.26095 0
M  V30 1723 O 172.354 -1.88377 0.34996 0
M  V30 1724 C 172.548 -0.53096 3.53434 0
M  V30 1725 C 172.377 0.689298 4.44386 0
M  V30 1726 C 171.147 1.20546 4.9071 0
M  V30 1727 C 173.345 1.55856 4.90116 0
M  V30 1728 N 171.327 2.38434 5.65705 0
M  V30 1729 C 172.698 2.58396 5.63588 0
M  V30 1730 C 174.753 1.57986 4.7217 0
M  V30 1731 C 173.456 3.62939 6.21022 0
M  V30 1732 C 175.482 2.6143 5.30479 0
M  V30 1733 C 174.844 3.62693 6.03849 0
M  V30 1734 H 170.943 -0.0352671 0.781204 0
M  V30 1735 H 173.527 0.526614 1.87443 0
M  V30 1736 H 171.698 -1.22588 3.68547 0
M  V30 1737 H 173.43 -1.0955 3.89591 0
M  V30 1738 H 170.185 0.768022 4.67331 0
M  V30 1739 H 170.609 2.98055 6.07859 0
M  V30 1740 H 175.251 0.810475 4.14959 0
M  V30 1741 H 172.969 4.40751 6.77321 0
M  V30 1742 H 176.555 2.63949 5.18481 0
M  V30 1743 H 175.435 4.41424 6.48163 0
M  V30 1744 N 172.938 -1.57226 0.108567 0
M  V30 1745 C 174.163 -1.99604 -0.563303 0
M  V30 1746 C 174.588 -0.987563 -1.6009 0
M  V30 1747 O 173.946 0.0421687 -1.81251 0
M  V30 1748 C 173.994 -3.40902 -1.17552 0
M  V30 1749 O 173.098 -3.42896 -2.2912 0
M  V30 1750 H 172.439 -0.648704 -0.1417 0
M  V30 1751 H 174.969 -2.03679 0.193961 0
M  V30 1752 H 174.979 -3.78886 -1.51357 0
M  V30 1753 H 173.654 -4.1382 -0.415445 0
M  V30 1754 H 172.231 -3.1672 -1.96832 0
M  V30 1755 N 174.416 0.165178 -1.56732 0
M  V30 1756 C 175.662 0.882112 -1.82611 0
M  V30 1757 C 175.995 1.81628 -0.687378 0
M  V30 1758 O 175.27 1.92009 0.310267 0
M  V30 1759 C 175.553 1.67245 -3.18906 0
M  V30 1760 C 175.406 0.760987 -4.43316 0
M  V30 1761 C 176.725 2.63884 -3.52212 0
M  V30 1762 H 173.844 0.319242 -0.664269 0
M  V30 1763 H 176.486 0.148052 -1.89422 0
M  V30 1764 H 174.636 2.29824 -3.1323 0
M  V30 1765 H 176.308 0.147596 -4.61064 0
M  V30 1766 H 174.551 0.0694102 -4.33744 0
M  V30 1767 H 175.222 1.34962 -5.35247 0
M  V30 1768 H 177.698 2.11429 -3.58381 0
M  V30 1769 H 176.574 3.16245 -4.48643 0
M  V30 1770 H 176.835 3.44377 -2.77231 0
M  V30 1771 N 175.894 1.51508 0.433938 0
M  V30 1772 C 177.14 1.64588 1.18484 0
M  V30 1773 C 177.473 0.362666 1.90784 0
M  V30 1774 O 176.748 -0.637892 1.83742 0
M  V30 1775 C 177.031 2.85149 2.19913 0
M  V30 1776 C 176.884 4.23456 1.51674 0
M  V30 1777 C 178.203 3.01227 3.20858 0
M  V30 1778 H 175.322 0.598994 0.429389 0
M  V30 1779 H 177.964 1.84002 0.473647 0
M  V30 1780 H 176.114 2.68729 2.80566 0
M  V30 1781 H 177.786 4.51552 0.943322 0
M  V30 1782 H 176.029 4.25998 0.819035 0
M  V30 1783 H 176.7 5.03812 2.2556 0
M  V30 1784 H 179.176 3.16382 2.70263 0
M  V30 1785 H 178.052 3.87141 3.89118 0
M  V30 1786 H 178.313 2.13447 3.8716 0
M  V30 1787 N 177.372 -0.689602 1.41712 0
M  V30 1788 C 178.322 -1.79571 1.40493 0
M  V30 1789 C 179.306 -1.58473 0.278409 0
M  V30 1790 O 180.498 -1.69204 0.519532 0
M  V30 1791 C 177.627 -3.17923 1.29536 0
M  V30 1792 C 176.713 -3.44695 2.47075 0
M  V30 1793 N 177.104 -3.42132 3.72531 0
M  V30 1794 C 175.402 -3.75269 2.41017 0
M  V30 1795 C 176.103 -3.67976 4.50521 0
M  V30 1796 N 175.079 -3.88014 3.80718 0
M  V30 1797 H 178.881 -1.75961 2.35404 0
M  V30 1798 H 176.395 -0.889839 1.35851 0
M  V30 1799 H 178.392 -3.97167 1.26745 0
M  V30 1800 H 177.052 -3.22741 0.356153 0
M  V30 1801 H 178.063 -3.22375 4.05333 0
M  V30 1802 H 174.74 -3.87421 1.55599 0
M  V30 1803 H 176.13 -3.7208 5.59469 0
M  V30 1804 N 178.85 -1.27639 -0.924453 0
M  V30 1805 C 179.813 -1.10681 -2.00705 0
M  V30 1806 C 180.813 -0.0497823 -1.60723 0
M  V30 1807 O 182.003 -0.294654 -1.7169 0
M  V30 1808 C 179.135 -0.687164 -3.33902 0
M  V30 1809 H 180.328 -2.06817 -2.17179 0
M  V30 1810 H 177.881 -1.10473 -1.10569 0
M  V30 1811 H 178.616 0.275439 -3.23128 0
M  V30 1812 H 178.401 -1.45061 -3.6428 0
M  V30 1813 H 179.891 -0.590853 -4.13399 0
M  V30 1814 N 180.328 1.1314 -1.09713 0
M  V30 1815 C 181.577 1.83838 -0.829851 0
M  V30 1816 C 181.89 1.84599 0.646728 0
M  V30 1817 O 183.096 2.51218 1.02965 0
M  V30 1818 C 181.552 3.30069 -1.43466 0
M  V30 1819 C 181.16 3.37688 -2.94399 0
M  V30 1820 C 182.904 4.05788 -1.24645 0
M  V30 1821 C 180.811 4.78209 -3.47952 0
M  V30 1822 H 179.741 0.68877 -0.306777 0
M  V30 1823 H 182.392 1.27448 -1.3202 0
M  V30 1824 H 180.774 3.8628 -0.871996 0
M  V30 1825 H 181.948 2.91456 -3.56918 0
M  V30 1826 H 180.263 2.75436 -3.12289 0
M  V30 1827 H 182.86 5.09535 -1.62107 0
M  V30 1828 H 183.203 4.15878 -0.187357 0
M  V30 1829 H 183.736 3.55915 -1.77678 0
M  V30 1830 H 180.475 4.73311 -4.53495 0
M  V30 1831 H 179.995 5.24924 -2.90198 0
M  V30 1832 H 181.674 5.47133 -3.45332 0
M  V30 1833 N 181.806 0.884767 1.30421 0
M  V30 1834 C 183.083 0.423185 1.90967 0
M  V30 1835 C 183.463 -1.09605 1.80416 0
M  V30 1836 O 182.811 -1.93126 1.22125 0
M  V30 1837 C 183.021 0.921056 3.36627 0
M  V30 1838 C 184.369 0.955903 4.137 0
M  V30 1839 O 185.393 0.867706 3.4547 0
M  V30 1840 O 184.252 1.08614 5.35598 0
M  V30 1841 H 181.346 0.129369 0.816819 0
M  V30 1842 H 183.892 0.973653 1.3899 0
M  V30 1843 H 182.664 1.96489 3.3839 0
M  V30 1844 H 182.287 0.349741 3.96059 0
M  V30 1845 N 183.284 -1.43765 0.645699 0
M  V30 1846 C 184.512 -2.06253 0.163556 0
M  V30 1847 C 184.927 -1.48352 -1.16778 0
M  V30 1848 O 184.284 -0.611932 -1.71935 0
M  V30 1849 C 184.335 -3.61453 0.0583186 0
M  V30 1850 O 184.056 -4.172 1.33702 0
M  V30 1851 C 185.557 -4.41002 -0.450795 0
M  V30 1852 H 182.777 -0.665413 0.0864077 0
M  V30 1853 H 185.321 -1.84396 0.884222 0
M  V30 1854 H 183.476 -3.82522 -0.612865 0
M  V30 1855 H 183.89 -5.10791 1.19131 0
M  V30 1856 H 185.364 -5.49966 -0.473403 0
M  V30 1857 H 185.841 -4.13488 -1.48068 0
M  V30 1858 H 186.447 -4.24886 0.187637 0
M  V30 1859 N 184.763 -0.387143 -1.52771 0
M  V30 1860 C 186.179 -0.037007 -1.59557 0
M  V30 1861 C 186.379 1.44801 -1.40124 0
M  V30 1862 O 185.435 2.21227 -1.21716 0
M  V30 1863 C 186.748 -0.512256 -2.96305 0
M  V30 1864 C 188.296 -0.468328 -3.09476 0
M  V30 1865 C 188.771 -0.919731 -4.4867 0
M  V30 1866 N 190.262 -0.875656 -4.54848 0
M  V30 1867 C 190.997 -1.19637 -5.6078 0
M  V30 1868 N 190.493 -1.58745 -6.74368 0
M  V30 1869 N 192.286 -1.11776 -5.50874 0
M  V30 1870 H 184.437 -1.35395 -1.63652 0
M  V30 1871 H 186.7 -0.554818 -0.768688 0
M  V30 1872 H 186.406 -1.54935 -3.15734 0
M  V30 1873 H 186.28 0.089805 -3.77093 0
M  V30 1874 H 188.667 0.559671 -2.89744 0
M  V30 1875 H 188.748 -1.10616 -2.30646 0
M  V30 1876 H 188.392 -1.94595 -4.69143 0
M  V30 1877 H 188.322 -0.258927 -5.25963 0
M  V30 1878 H 190.813 -0.587843 -3.733 0
M  V30 1879 H 191.126 -1.81586 -7.51163 0
M  V30 1880 H 189.471 -1.6263 -6.75705 0
M  V30 1881 H 192.662 -0.811264 -4.61016 0
M  V30 1882 H 192.835 -1.37103 -6.3333 0
M  V30 1883 N 186.241 1.57166 -0.116904 0
M  V30 1884 C 187.469 1.99473 0.549383 0
M  V30 1885 C 187.884 0.996541 1.60357 0
M  V30 1886 O 187.241 -0.0108731 1.82497 0
M  V30 1887 C 187.292 3.41788 1.17741 0
M  V30 1888 O 187.013 4.37788 0.165362 0
M  V30 1889 C 188.514 3.99216 1.92722 0
M  V30 1890 H 185.734 0.655009 0.145616 0
M  V30 1891 H 188.278 2.03494 -0.202625 0
M  V30 1892 H 186.433 3.38713 1.88021 0
M  V30 1893 H 186.847 5.20806 0.621403 0
M  V30 1894 H 188.321 5.00882 2.31995 0
M  V30 1895 H 188.798 3.3824 2.80161 0
M  V30 1896 H 189.404 4.0583 1.27209 0
M  V30 1897 N 187.719 -0.156864 1.56817 0
M  V30 1898 C 188.967 -0.869404 1.82444 0
M  V30 1899 C 189.288 -1.82147 0.69623 0
M  V30 1900 O 188.558 -1.93847 -0.28287 0
M  V30 1901 H 187.138 -0.324043 0.673056 0
M  V30 1902 H 189.8 -0.153224 1.94297 0
M  V30 1903 H 188.896 -1.43761 2.77019 0
M  V30 1904 N 189.197 -1.51736 -0.425897 0
M  V30 1905 C 190.145 -1.74464 -1.53834 0
M  V30 1906 C 191.139 -0.611241 -1.57988 0
M  V30 1907 O 192.345 -0.792899 -1.61596 0
M  V30 1908 H 188.72 -0.551437 -0.511293 0
M  V30 1909 H 190.691 -2.67694 -1.31843 0
M  V30 1910 C 189.44 -1.8972 -2.91379 0
M  V30 1911 H 188.763 -2.76344 -2.88919 0
M  V30 1912 H 190.203 -2.09629 -3.68553 0
M  V30 1913 C 188.662 -0.65992 -3.30374 0
M  V30 1914 O 189.192 0.180083 -4.01296 0
M  V30 1915 N 187.398 -0.500677 -2.86254 0
M  V30 1916 H 186.945 -1.18532 -2.28709 0
M  V30 1917 H 186.903 0.325903 -3.12706 0
M  V30 1918 N 190.675 0.682077 -1.42076 0
M  V30 1919 C 192.091 0.994324 -1.24841 0
M  V30 1920 C 192.291 2.0096 -0.147389 0
M  V30 1921 O 191.347 2.47822 0.483782 0
M  V30 1922 C 192.66 1.50607 -2.60265 0
M  V30 1923 C 194.208 1.62421 -2.6756 0
M  V30 1924 C 194.683 2.16994 -4.03333 0
M  V30 1925 N 196.174 2.24337 -4.0525 0
M  V30 1926 C 196.909 2.67621 -5.07116 0
M  V30 1927 N 196.405 3.1041 -6.19368 0
M  V30 1928 N 198.198 2.67305 -4.94474 0
M  V30 1929 H 190.349 0.00973908 -2.12398 0
M  V30 1930 H 192.612 0.0668593 -0.945639 0
M  V30 1931 H 192.318 0.834583 -3.41654 0
M  V30 1932 H 192.192 2.48602 -2.83684 0
M  V30 1933 H 194.579 2.28678 -1.86521 0
M  V30 1934 H 194.66 0.629352 -2.47937 0
M  V30 1935 H 194.304 1.51349 -4.84826 0
M  V30 1936 H 194.234 3.17258 -4.20304 0
M  V30 1937 H 196.725 1.94158 -3.24209 0
M  V30 1938 H 197.038 3.42103 -6.92954 0
M  V30 1939 H 195.383 3.08286 -6.22884 0
M  V30 1940 H 198.574 2.33233 -4.05857 0
M  V30 1941 H 198.747 3.00718 -5.73997 0
M  V30 1942 N 192.153 1.28127 0.917671 0
M  V30 1943 C 193.402 1.14432 1.66097 0
M  V30 1944 C 193.715 -0.307247 1.93172 0
M  V30 1945 O 194.921 -0.565259 2.65551 0
M  V30 1946 C 193.377 2.00015 2.99202 0
M  V30 1947 C 192.985 3.49889 2.79789 0
M  V30 1948 C 194.729 1.94996 3.77064 0
M  V30 1949 C 192.636 4.27636 4.08511 0
M  V30 1950 H 191.566 0.424662 0.62304 0
M  V30 1951 H 194.217 1.52628 1.01868 0
M  V30 1952 H 192.599 1.54672 3.64544 0
M  V30 1953 H 193.773 4.03162 2.23152 0
M  V30 1954 H 192.088 3.56392 2.15345 0
M  V30 1955 H 194.685 2.50354 4.72469 0
M  V30 1956 H 195.028 0.925819 4.05875 0
M  V30 1957 H 195.561 2.38287 3.18534 0
M  V30 1958 H 192.3 5.30615 3.84874 0
M  V30 1959 H 191.82 3.79137 4.64774 0
M  V30 1960 H 193.499 4.37346 4.76799 0
M  V30 1961 N 193.631 -1.12557 1.10312 0
M  V30 1962 C 194.877 -1.84515 0.855901 0
M  V30 1963 C 195.232 -1.82409 -0.611936 0
M  V30 1964 O 194.525 -1.25778 -1.44535 0
M  V30 1965 C 194.719 -3.31462 1.33669 0
M  V30 1966 C 194.548 -3.47879 2.84974 0
M  V30 1967 C 193.318 -3.61589 3.52961 0
M  V30 1968 C 195.516 -3.43152 3.83081 0
M  V30 1969 N 193.498 -3.66359 4.926 0
M  V30 1970 C 194.869 -3.54401 5.08724 0
M  V30 1971 C 196.924 -3.2661 3.75807 0
M  V30 1972 C 195.627 -3.50815 6.2795 0
M  V30 1973 C 197.653 -3.24335 4.94531 0
M  V30 1974 C 197.015 -3.36144 6.19021 0
M  V30 1975 H 193.114 -0.690967 0.366182 0
M  V30 1976 H 195.698 -1.34763 1.40524 0
M  V30 1977 H 193.869 -3.7976 0.814686 0
M  V30 1978 H 195.601 -3.91272 1.03385 0
M  V30 1979 H 192.356 -3.63652 3.03404 0
M  V30 1980 H 192.78 -3.72411 5.65366 0
M  V30 1981 H 197.422 -3.16375 2.80476 0
M  V30 1982 H 195.14 -3.5982 7.23571 0
M  V30 1983 H 198.726 -3.12719 4.9061 0
M  V30 1984 H 197.606 -3.34357 7.09348 0
M  V30 1985 N 195.109 -0.891671 -1.2995 0
M  V30 1986 C 196.337 -0.52866 -2.00032 0
M  V30 1987 C 196.752 0.884574 -1.66795 0
M  V30 1988 O 196.109 1.5827 -0.908669 0
M  V30 1989 C 196.16 -0.701814 -3.54622 0
M  V30 1990 O 195.881 -2.05942 -3.86678 0
M  V30 1991 C 197.382 -0.342683 -4.41973 0
M  V30 1992 H 194.602 -0.203659 -0.639347 0
M  V30 1993 H 197.146 -1.19881 -1.65677 0
M  V30 1994 H 195.301 -0.0789468 -3.8732 0
M  V30 1995 H 195.715 -2.08291 -4.81368 0
M  V30 1996 H 197.189 -0.514709 -5.49595 0
M  V30 1997 H 197.666 0.71975 -4.33262 0
M  V30 1998 H 198.272 -0.942154 -4.14733 0
M  V30 1999 N 196.587 1.43421 -0.653314 0
M  V30 2000 C 197.817 2.05864 -0.174238 0
M  V30 2001 C 198.225 1.49052 1.16534 0
M  V30 2002 O 197.568 0.616481 1.73047 0
M  V30 2003 C 197.63 3.59499 -0.00875873 0
M  V30 2004 C 197.294 4.38893 -1.27364 0
M  V30 2005 C 198.291 4.70947 -2.20239 0
M  V30 2006 C 195.976 4.789 -1.51525 0
M  V30 2007 C 197.97 5.41916 -3.35568 0
M  V30 2008 C 195.657 5.49614 -2.67147 0
M  V30 2009 C 196.655 5.81044 -3.58994 0
M  V30 2010 O 196.343 6.50313 -4.72597 0
M  V30 2011 H 196.075 0.670345 -0.0872549 0
M  V30 2012 H 198.629 1.84913 -0.894226 0
M  V30 2013 H 196.859 3.79025 0.7666 0
M  V30 2014 H 198.548 4.0364 0.427687 0
M  V30 2015 H 199.314 4.40558 -2.02815 0
M  V30 2016 H 195.193 4.53843 -0.809158 0
M  V30 2017 H 198.737 5.66365 -4.07279 0
M  V30 2018 H 194.634 5.79419 -2.84505 0
M  V30 2019 H 195.402 6.68795 -4.71864 0
M  V30 2020 N 198.065 0.39524 1.52563 0
M  V30 2021 C 199.342 -0.242908 1.94086 0
M  V30 2022 C 199.722 -1.63841 1.33114 0
M  V30 2023 O 199.07 -2.22928 0.501529 0
M  V30 2024 C 199.28 -0.26327 3.48006 0
M  V30 2025 C 200.628 -0.489354 4.21771 0
M  V30 2026 O 201.652 -0.343226 3.54543 0
M  V30 2027 O 200.511 -0.776169 5.4096 0
M  V30 2028 H 197.605 -0.152536 0.812811 0
M  V30 2029 H 200.151 0.450178 1.6362 0
M  V30 2030 H 198.923 0.713985 3.84731 0
M  V30 2031 H 198.546 -1.00103 3.84792 0
M  V30 2032 N 199.544 -1.57102 0.125237 0
M  V30 2033 C 200.955 -1.82384 -0.399142 0
M  V30 2034 C 201.306 -1.04276 -1.66195 0
M  V30 2035 O 200.431 -0.281269 -2.14564 0
M  V30 2036 C 201.026 -3.30821 -0.730932 0
M  V30 2037 C 199.585 -3.56762 -1.19992 0
M  V30 2038 C 198.732 -2.7649 -0.211792 0
M  V30 2039 H 201.683 -1.54786 0.350277 0
M  V30 2040 H 201.704 -3.4579 -1.58775 0
M  V30 2041 H 201.216 -3.87643 0.188345 0
M  V30 2042 H 199.317 -3.05305 -2.13588 0
M  V30 2043 H 199.43 -4.65317 -1.14093 0
M  V30 2044 H 197.794 -2.4489 -0.700085 0
M  V30 2045 H 198.577 -3.36073 0.700691 0
M  V30 2046 N 201.022 0.148545 -1.56898 0
M  V30 2047 C 201.954 1.20852 -1.9475 0
M  V30 2048 C 202.967 1.39265 -0.843152 0
M  V30 2049 O 204.156 1.38864 -1.12156 0
M  V30 2050 C 201.256 2.57362 -2.20495 0
M  V30 2051 C 200.429 2.59947 -3.51776 0
M  V30 2052 C 199.488 3.77984 -3.6608 0
M  V30 2053 O 198.514 3.62929 -4.38487 0
M  V30 2054 N 199.716 4.95375 -3.02629 0
M  V30 2055 H 202.481 0.886804 -2.86279 0
M  V30 2056 H 200.042 0.338121 -1.5833 0
M  V30 2057 H 202.034 3.34833 -2.27307 0
M  V30 2058 H 200.604 2.81832 -1.35238 0
M  V30 2059 H 199.824 1.68403 -3.56419 0
M  V30 2060 H 201.112 2.58704 -4.38121 0
M  V30 2061 H 200.51 5.10509 -2.43715 0
M  V30 2062 H 199.067 5.70627 -3.15004 0
M  V30 2063 N 202.5 1.5196 0.417844 0
M  V30 2064 C 203.749 1.6482 1.16264 0
M  V30 2065 C 204.062 0.379886 1.91876 0
M  V30 2066 O 205.268 0.388154 2.68711 0
M  V30 2067 C 203.724 2.91161 2.1155 0
M  V30 2068 C 203.332 4.25068 1.41495 0
M  V30 2069 C 205.076 3.13383 2.86341 0
M  V30 2070 C 202.983 5.42541 2.35379 0
M  V30 2071 H 201.913 0.613954 0.437694 0
M  V30 2072 H 204.564 1.78442 0.427871 0
M  V30 2073 H 202.946 2.71218 2.88543 0
M  V30 2074 H 204.12 4.55463 0.699263 0
M  V30 2075 H 202.435 4.0888 0.787792 0
M  V30 2076 H 205.032 3.98324 3.5671 0
M  V30 2077 H 205.375 2.27256 3.48798 0
M  V30 2078 H 205.908 3.33757 2.1645 0
M  V30 2079 H 202.647 6.30987 1.77582 0
M  V30 2080 H 202.167 5.16497 3.04945 0
M  V30 2081 H 203.846 5.75272 2.96093 0
M  V30 2082 N 203.978 -0.674533 1.42435 0
M  V30 2083 C 205.255 -1.4305 1.33402 0
M  V30 2084 C 205.635 -2.11081 -0.0284674 0
M  V30 2085 O 204.983 -2.03257 -1.04397 0
M  V30 2086 C 205.193 -2.43272 2.50239 0
M  V30 2087 C 206.541 -3.07907 2.92367 0
M  V30 2088 O 207.565 -2.53599 2.50132 0
M  V30 2089 O 206.424 -4.0632 3.65467 0
M  V30 2090 H 203.518 -0.638076 0.526106 0
M  V30 2091 H 206.064 -0.703235 1.54443 0
M  V30 2092 H 204.836 -1.91803 3.41068 0
M  V30 2093 H 204.459 -3.23479 2.31186 0
M  V30 2094 N 205.456 -1.28612 -0.910864 0
M  V30 2095 C 206.872 -1.06381 -1.18976 0
M  V30 2096 C 207.072 0.191998 -2.00583 0
M  V30 2097 O 206.128 0.892869 -2.36187 0
M  V30 2098 C 207.441 -2.31295 -1.92154 0
M  V30 2099 C 208.989 -2.36503 -2.05025 0
M  V30 2100 C 209.464 -3.61191 -2.81612 0
M  V30 2101 N 210.955 -3.61847 -2.89172 0
M  V30 2102 C 211.69 -4.55004 -3.4894 0
M  V30 2103 N 211.186 -5.58482 -4.09963 0
M  V30 2104 N 212.979 -4.42594 -3.46506 0
M  V30 2105 H 205.13 -2.09221 -0.366094 0
M  V30 2106 H 207.393 -0.921003 -0.224629 0
M  V30 2107 H 207.099 -3.228 -1.39618 0
M  V30 2108 H 206.973 -2.37934 -2.9269 0
M  V30 2109 H 209.36 -1.45494 -2.5674 0
M  V30 2110 H 209.441 -2.33857 -1.03657 0
M  V30 2111 H 209.085 -4.52545 -2.30576 0
M  V30 2112 H 209.015 -3.61092 -3.83302 0
M  V30 2113 H 211.506 -2.87022 -2.45819 0
M  V30 2114 H 211.819 -6.25704 -4.53557 0
M  V30 2115 H 210.164 -5.62305 -4.08459 0
M  V30 2116 H 213.355 -3.60953 -2.98045 0
M  V30 2117 H 213.528 -5.15381 -3.92793 0
M  V30 2118 N 206.934 1.1197 -1.10907 0
M  V30 2119 C 208.159 1.87942 -0.877064 0
M  V30 2120 C 208.584 1.79341 0.567314 0
M  V30 2121 O 207.942 1.15184 1.40009 0
M  V30 2122 C 207.99 3.34926 -1.33629 0
M  V30 2123 O 207.094 4.09303 -0.504447 0
M  V30 2124 H 206.435 0.583785 -0.316371 0
M  V30 2125 H 208.965 1.4157 -1.47712 0
M  V30 2126 H 208.975 3.8577 -1.32837 0
M  V30 2127 H 207.65 3.40504 -2.3881 0
M  V30 2128 H 206.227 3.68393 -0.577993 0
M  V30 2129 N 208.412 0.89855 1.29475 0
M  V30 2130 C 209.64 0.539261 1.99749 0
M  V30 2131 C 210.055 -0.875716 1.67262 0
M  V30 2132 O 209.412 -1.57786 0.917049 0
M  V30 2133 C 209.463 0.72061 3.54245 0
M  V30 2134 O 209.184 2.07989 3.8558 0
M  V30 2135 C 210.685 0.366118 4.41786 0
M  V30 2136 H 207.905 0.207047 0.638258 0
M  V30 2137 H 210.449 1.20758 1.65039 0
M  V30 2138 H 208.604 0.0994862 3.87272 0
M  V30 2139 H 209.018 2.10841 4.80257 0
M  V30 2140 H 210.492 0.543848 5.49314 0
M  V30 2141 H 210.969 -0.696763 4.33638 0
M  V30 2142 H 211.575 0.964135 4.14228 0
M  V30 2143 N 209.89 -1.43072 0.660911 0
M  V30 2144 C 211.138 -2.01323 0.177094 0
M  V30 2145 C 211.459 -1.5245 -1.2159 0
M  V30 2146 O 210.729 -0.740322 -1.81373 0
M  V30 2147 H 209.309 -0.744382 0.0624804 0
M  V30 2148 H 211.971 -1.75179 0.854305 0
M  V30 2149 H 211.067 -3.11649 0.167641 0
M  V30 2150 N 211.368 -0.403325 -1.52352 0
M  V30 2151 C 212.615 0.174347 -2.01748 0
M  V30 2152 C 212.943 1.45636 -1.2892 0
M  V30 2153 O 212.198 1.9193 -0.382258 0
M  V30 2154 C 212.497 0.474665 -3.54234 0
M  V30 2155 C 212.163 -0.717458 -4.45155 0
M  V30 2156 C 210.825 -1.04447 -4.69728 0
M  V30 2157 C 213.177 -1.51432 -4.98716 0
M  V30 2158 C 210.505 -2.16963 -5.45109 0
M  V30 2159 C 212.857 -2.6302 -5.75329 0
M  V30 2160 C 211.521 -2.96213 -5.98175 0
M  V30 2161 H 210.791 0.0637981 -0.738248 0
M  V30 2162 H 213.438 -0.543553 -1.83624 0
M  V30 2163 H 211.743 1.27406 -3.70506 0
M  V30 2164 H 213.44 0.934496 -3.89959 0
M  V30 2165 H 210.03 -0.452596 -4.26204 0
M  V30 2166 H 214.214 -1.27491 -4.79645 0
M  V30 2167 H 209.47 -2.43034 -5.61021 0
M  V30 2168 H 213.644 -3.25158 -6.15829 0
M  V30 2169 H 211.271 -3.83516 -6.56368 0
M  V30 2170 N 212.846 1.57033 -0.133567 0
M  V30 2171 C 213.793 2.16074 0.811208 0
M  V30 2172 C 214.763 1.08979 1.2535 0
M  V30 2173 O 215.948 1.36958 1.32843 0
M  V30 2174 C 213.088 2.77595 2.05024 0
M  V30 2175 C 212.201 3.99042 1.65498 0
M  V30 2176 C 211.336 4.48603 2.84479 0
M  V30 2177 C 210.375 5.62547 2.41262 0
M  V30 2178 N 209.512 6.06787 3.53206 0
M  V30 2179 H 214.352 2.96477 0.300906 0
M  V30 2180 H 211.889 1.46462 0.136822 0
M  V30 2181 H 213.847 3.11402 2.77642 0
M  V30 2182 H 212.477 1.99859 2.53488 0
M  V30 2183 H 211.529 3.71302 0.826981 0
M  V30 2184 H 212.841 4.81629 1.29748 0
M  V30 2185 H 211.995 4.84395 3.65303 0
M  V30 2186 H 210.734 3.64995 3.23465 0
M  V30 2187 H 209.739 5.26345 1.58874 0
M  V30 2188 H 210.964 6.47931 2.03377 0
M  V30 2189 H 208.91 5.26117 3.91838 0
M  V30 2190 H 208.827 6.84266 3.21427 0
M  V30 2191 H 210.095 6.4722 4.34427 0
M  V30 2192 N 214.325 -0.140222 1.56975 0
M  V30 2193 C 215.573 -0.850005 1.83356 0
M  V30 2194 C 215.894 -1.81399 0.71551 0
M  V30 2195 O 215.164 -1.94136 -0.262294 0
M  V30 2196 H 213.744 -0.316886 0.676456 0
M  V30 2197 H 216.406 -0.132608 1.94448 0
M  V30 2198 H 215.502 -1.40814 2.78528 0
M  V30 2199 N 215.803 -1.52179 -0.40978 0
M  V30 2200 C 217.043 -1.67882 -1.16597 0
M  V30 2201 C 217.407 -0.399795 -1.87791 0
M  V30 2202 O 218.608 -0.43292 -2.65291 0
M  V30 2203 C 216.879 -2.86662 -2.13448 0
M  V30 2204 S 218.438 -3.22843 -2.97183 0
M  V30 2205 H 215.256 -0.59118 -0.395002 0
M  V30 2206 H 217.858 -1.9017 -0.453373 0
M  V30 2207 H 216.562 -3.77998 -1.59831 0
M  V30 2208 H 216.093 -2.66645 -2.89247 0
M  V30 2209 H 218.108 -2.71415 -4.15389 0
M  V30 2210 N 217.281 0.66697 -1.42791 0
M  V30 2211 C 218.521 1.43892 -1.4517 0
M  V30 2212 C 218.885 1.91877 -0.0687551 0
M  V30 2213 O 220.086 2.6878 0.0327455 0
M  V30 2214 C 218.357 2.59839 -2.45395 0
M  V30 2215 S 219.916 3.48572 -2.66539 0
M  V30 2216 H 216.734 0.491356 -0.513897 0
M  V30 2217 H 219.336 0.775656 -1.79454 0
M  V30 2218 H 218.04 2.22838 -3.44632 0
M  V30 2219 H 217.571 3.3103 -2.12562 0
M  V30 2220 H 219.586 4.56094 -1.95429 0
M  V30 2221 N 218.759 1.29093 0.90403 0
M  V30 2222 C 220.036 1.075 1.63411 0
M  V30 2223 C 220.416 -0.382346 2.07609 0
M  V30 2224 O 219.764 -1.37031 1.82851 0
M  V30 2225 C 219.974 2.05858 2.81822 0
M  V30 2226 C 221.322 2.36539 3.52611 0
M  V30 2227 O 222.346 2.04019 2.91984 0
M  V30 2228 O 221.205 2.92085 4.61897 0
M  V30 2229 H 218.299 0.411547 0.717327 0
M  V30 2230 H 220.845 1.40449 0.952479 0
M  V30 2231 H 219.617 3.04037 2.46327 0
M  V30 2232 H 219.24 1.73613 3.57693 0
M  V30 2233 N 220.237 -1.11381 1.11499 0
M  V30 2234 C 221.483 -1.83403 0.865512 0
M  V30 2235 C 221.816 -1.84459 -0.607329 0
M  V30 2236 O 221.091 -1.29811 -1.44842 0
M  V30 2237 C 221.374 -3.30552 1.42855 0
M  V30 2238 C 221.227 -3.37886 2.96906 0
M  V30 2239 C 222.546 -4.26643 1.08 0
M  V30 2240 H 219.665 -0.665879 0.31587 0
M  V30 2241 H 222.307 -1.30601 1.37998 0
M  V30 2242 H 220.457 -3.75648 0.990985 0
M  V30 2243 H 222.129 -3.01343 3.49271 0
M  V30 2244 H 220.372 -2.78088 3.32941 0
M  V30 2245 H 221.043 -4.41458 3.31389 0
M  V30 2246 H 223.519 -3.89729 1.45775 0
M  V30 2247 H 222.395 -5.27986 1.50072 0
M  V30 2248 H 222.656 -4.42099 -0.00915037 0
M  V30 2249 N 221.715 -0.905404 -1.28997 0
M  V30 2250 C 222.961 -0.535039 -1.95615 0
M  V30 2251 C 223.294 0.917404 -1.71165 0
M  V30 2252 O 222.569 1.65123 -1.02785 0
M  V30 2253 C 222.852 -0.834918 -3.50287 0
M  V30 2254 C 222.705 -2.33948 -3.84172 0
M  V30 2255 C 224.024 -0.325318 -4.38896 0
M  V30 2256 H 221.143 -0.195861 -0.710498 0
M  V30 2257 H 223.785 -1.13313 -1.52513 0
M  V30 2258 H 221.935 -0.325904 -3.87131 0
M  V30 2259 H 223.607 -2.91847 -3.57243 0
M  V30 2260 H 221.85 -2.79789 -3.31513 0
M  V30 2261 H 222.521 -2.49987 -4.92149 0
M  V30 2262 H 224.997 -0.761256 -4.09077 0
M  V30 2263 H 223.873 -0.564295 -5.45992 0
M  V30 2264 H 224.134 0.774144 -4.35269 0
M  V30 2265 N 223.193 1.4272 -0.668489 0
M  V30 2266 C 224.141 2.32586 0.0254857 0
M  V30 2267 C 225.135 1.49471 0.797176 0
M  V30 2268 O 226.341 1.65583 0.705853 0
M  V30 2269 H 222.716 0.751514 0.0270339 0
M  V30 2270 H 224.687 2.88823 -0.749936 0
M  V30 2271 C 223.436 3.3397 0.967427 0
M  V30 2272 H 222.759 3.97961 0.383048 0
M  V30 2273 H 224.199 3.9945 1.42181 0
M  V30 2274 C 222.658 2.65744 2.0708 0
M  V30 2275 O 223.188 2.48454 3.15648 0
M  V30 2276 N 221.394 2.2487 1.8407 0
M  V30 2277 H 220.941 2.39132 0.95778 0
M  V30 2278 H 220.899 1.79552 2.58086 0
M  V30 2279 N 224.671 0.411399 1.52136 0
M  V30 2280 C 226.087 0.0623865 1.59478 0
M  V30 2281 C 226.287 -1.42554 1.4241 0
M  V30 2282 O 225.343 -2.19263 1.2522 0
M  V30 2283 C 226.656 0.559331 2.95452 0
M  V30 2284 C 228.204 0.517503 3.08692 0
M  V30 2285 C 228.679 0.990994 4.4715 0
M  V30 2286 N 230.17 0.947908 4.53397 0
M  V30 2287 C 230.905 1.28544 5.58806 0
M  V30 2288 N 230.401 1.69454 6.71757 0
M  V30 2289 N 232.194 1.20526 5.49026 0
M  V30 2290 H 224.345 1.37982 1.61477 0
M  V30 2291 H 226.608 0.566977 0.759764 0
M  V30 2292 H 226.314 1.59938 3.1323 0
M  V30 2293 H 226.188 -0.0298014 3.77188 0
M  V30 2294 H 228.575 -0.513505 2.90598 0
M  V30 2295 H 228.656 1.14272 2.28857 0
M  V30 2296 H 228.3 2.02034 4.65988 0
M  V30 2297 H 228.23 0.34257 5.25485 0
M  V30 2298 H 230.721 0.647157 3.72317 0
M  V30 2299 H 231.034 1.93513 7.48179 0
M  V30 2300 H 229.379 1.73359 6.73032 0
M  V30 2301 H 232.57 0.884505 4.59667 0
M  V30 2302 H 232.743 1.47161 6.31069 0
M  V30 2303 N 226.149 -1.5696 0.141893 0
M  V30 2304 C 227.397 -1.95573 -0.509484 0
M  V30 2305 C 227.718 -1.02746 -1.65736 0
M  V30 2306 O 226.988 -0.0880311 -1.95702 0
M  V30 2307 H 225.568 -0.722115 -0.191205 0
M  V30 2308 H 228.23 -1.93697 0.216196 0
M  V30 2309 H 227.326 -2.99171 -0.889 0
M  V30 2310 N 227.627 0.131896 -1.57047 0
M  V30 2311 C 228.873 0.843179 -1.84441 0
M  V30 2312 C 229.206 1.80129 -0.725749 0
M  V30 2313 O 228.481 1.92624 0.269469 0
M  V30 2314 C 228.764 1.60442 -3.22382 0
M  V30 2315 C 228.617 0.666782 -4.4483 0
M  V30 2316 C 229.936 2.56354 -3.5773 0
M  V30 2317 H 227.055 0.305081 -0.670891 0
M  V30 2318 H 229.697 0.107839 -1.89694 0
M  V30 2319 H 227.847 2.23128 -3.18035 0
M  V30 2320 H 229.519 0.0497646 -4.61273 0
M  V30 2321 H 227.762 -0.022609 -4.33794 0
M  V30 2322 H 228.433 1.23579 -5.37989 0
M  V30 2323 H 230.909 2.0378 -3.62785 0
M  V30 2324 H 229.785 3.06657 -4.5525 0
M  V30 2325 H 230.046 3.38419 -2.84473 0
M  V30 2326 N 229.106 1.52395 0.401703 0
M  V30 2327 C 230.069 1.75636 1.47257 0
M  V30 2328 C 231.069 0.62628 1.48103 0
M  V30 2329 O 232.259 0.894227 1.49497 0
M  V30 2330 C 229.391 1.84553 2.86624 0
M  V30 2331 H 230.584 2.71241 1.27938 0
M  V30 2332 H 228.137 1.42923 0.632662 0
M  V30 2333 H 228.872 0.908882 3.11303 0
M  V30 2334 H 228.657 2.66715 2.87412 0
M  V30 2335 H 230.147 2.04251 3.64241 0
M  V30 2336 N 230.584 -0.659388 1.43143 0
M  V30 2337 C 231.514 -1.78422 1.50625 0
M  V30 2338 C 232.495 -1.66216 0.361443 0
M  V30 2339 O 233.68 -1.85404 0.577834 0
M  V30 2340 C 230.81 -3.16815 1.42287 0
M  V30 2341 C 229.764 -3.43777 2.54954 0
M  V30 2342 C 229.09 -4.81905 2.31671 0
M  V30 2343 C 230.39 -3.39134 3.97222 0
M  V30 2344 H 232.084 -1.72417 2.44771 0
M  V30 2345 H 229.63 -0.828084 1.17808 0
M  V30 2346 H 231.583 -3.95253 1.46127 0
M  V30 2347 H 230.307 -3.23534 0.446435 0
M  V30 2348 H 228.966 -2.67707 2.50457 0
M  V30 2349 H 228.614 -4.85294 1.32284 0
M  V30 2350 H 228.314 -5.00906 3.07192 0
M  V30 2351 H 229.838 -5.62609 2.37284 0
M  V30 2352 H 231.252 -4.07518 4.03239 0
M  V30 2353 H 229.649 -3.69671 4.72719 0
M  V30 2354 H 230.719 -2.37426 4.22797 0
M  V30 2355 N 232.062 -1.29571 -0.897171 0
M  V30 2356 C 233.308 -1.18873 -1.65048 0
M  V30 2357 C 233.663 0.256707 -1.9068 0
M  V30 2358 O 232.956 1.18202 -1.50794 0
M  V30 2359 C 233.15 -1.9382 -3.00281 0
M  V30 2360 C 232.979 -3.45503 -2.8785 0
M  V30 2361 C 231.749 -4.14856 -2.88483 0
M  V30 2362 C 233.947 -4.40956 -2.64693 0
M  V30 2363 N 231.929 -5.52886 -2.66815 0
M  V30 2364 C 233.3 -5.66464 -2.5203 0
M  V30 2365 C 235.355 -4.3069 -2.49821 0
M  V30 2366 C 234.058 -6.82871 -2.26008 0
M  V30 2367 C 236.084 -5.46852 -2.25182 0
M  V30 2368 C 235.446 -6.71333 -2.13286 0
M  V30 2369 H 231.545 -0.489998 -0.609447 0
M  V30 2370 H 234.129 -1.63431 -1.05822 0
M  V30 2371 H 232.3 -1.51671 -3.57562 0
M  V30 2372 H 234.032 -1.75366 -3.64731 0
M  V30 2373 H 230.787 -3.66579 -2.99861 0
M  V30 2374 H 231.211 -6.25487 -2.59027 0
M  V30 2375 H 235.853 -3.35141 -2.5776 0
M  V30 2376 H 233.571 -7.78473 -2.16806 0
M  V30 2377 H 237.157 -5.40809 -2.14515 0
M  V30 2378 H 236.037 -7.59701 -1.94485 0
M  V30 2379 N 233.54 1.10788 -1.12088 0
M  V30 2380 C 234.487 2.17025 -0.785407 0
M  V30 2381 C 235.457 1.64265 0.246191 0
M  V30 2382 O 236.642 1.90412 0.121584 0
M  V30 2383 C 233.782 3.44249 -0.242177 0
M  V30 2384 C 232.895 4.1098 -1.33115 0
M  V30 2385 C 232.03 5.25911 -0.747741 0
M  V30 2386 C 231.069 5.84538 -1.81609 0
M  V30 2387 N 230.206 6.90853 -1.25167 0
M  V30 2388 H 235.046 2.45066 -1.69548 0
M  V30 2389 H 232.583 1.20297 -0.846582 0
M  V30 2390 H 234.541 4.17101 0.0908026 0
M  V30 2391 H 233.171 3.16571 0.631072 0
M  V30 2392 H 232.223 3.36133 -1.78097 0
M  V30 2393 H 233.535 4.50601 -2.13917 0
M  V30 2394 H 232.689 6.056 -0.365216 0
M  V30 2395 H 231.428 4.87614 0.0915188 0
M  V30 2396 H 230.433 5.03522 -2.20785 0
M  V30 2397 H 231.658 6.249 -2.6585 0
M  V30 2398 H 229.604 6.54562 -0.434174 0
M  V30 2399 H 229.521 7.29166 -1.99633 0
M  V30 2400 H 230.789 7.7433 -0.896259 0
M  V30 2401 N 235.018 0.912232 1.28515 0
M  V30 2402 C 236.266 0.543523 1.94654 0
M  V30 2403 C 236.587 -0.9155 1.72173 0
M  V30 2404 O 235.857 -1.64708 1.06058 0
M  V30 2405 H 234.437 0.198017 0.720277 0
M  V30 2406 H 237.099 1.16126 1.56527 0
M  V30 2407 H 236.195 0.736684 3.03281 0
M  V30 2408 N 236.496 -1.42363 0.676048 0
M  V30 2409 C 237.443 -2.308 -0.00150904 0
M  V30 2410 C 238.413 -1.46032 -0.791444 0
M  V30 2411 O 239.598 -1.74861 -0.76344 0
M  V30 2412 C 236.738 -3.31883 -0.945919 0
M  V30 2413 C 235.851 -4.31741 -0.149675 0
M  V30 2414 C 234.986 -5.19898 -1.08995 0
M  V30 2415 C 234.025 -6.11434 -0.285465 0
M  V30 2416 N 233.162 -6.92138 -1.17851 0
M  V30 2417 H 238.002 -2.88187 0.758455 0
M  V30 2418 H 235.539 -1.41952 0.38576 0
M  V30 2419 H 237.497 -3.89019 -1.50731 0
M  V30 2420 H 236.127 -2.76093 -1.6725 0
M  V30 2421 H 235.179 -3.76713 0.528359 0
M  V30 2422 H 236.491 -4.96534 0.474866 0
M  V30 2423 H 235.645 -5.81772 -1.72123 0
M  V30 2424 H 234.384 -4.55284 -1.74837 0
M  V30 2425 H 233.389 -5.48627 0.359018 0
M  V30 2426 H 234.614 -6.78097 0.368883 0
M  V30 2427 H 232.56 -6.30152 -1.82332 0
M  V30 2428 H 232.477 -7.53542 -0.609082 0
M  V30 2429 H 233.745 -7.58499 -1.79722 0
M  V30 2430 N 237.974 -0.419461 -1.51915 0
M  V30 2431 C 239.22 0.153166 -2.02221 0
M  V30 2432 C 239.553 1.43907 -1.30401 0
M  V30 2433 O 238.828 1.90055 -0.413438 0
M  V30 2434 C 239.111 0.390291 -3.57979 0
M  V30 2435 C 238.964 -0.913014 -4.40436 0
M  V30 2436 C 240.283 1.16794 -4.2432 0
M  V30 2437 H 237.402 0.0541924 -0.735005 0
M  V30 2438 H 240.044 -0.554955 -1.81715 0
M  V30 2439 H 238.194 0.993491 -3.75582 0
M  V30 2440 H 239.866 -1.54882 -4.34522 0
M  V30 2441 H 238.109 -1.52168 -4.06236 0
M  V30 2442 H 238.78 -0.701361 -5.47526 0
M  V30 2443 H 241.256 0.657161 -4.10878 0
M  V30 2444 H 240.132 1.3026 -5.3322 0
M  V30 2445 H 240.393 2.19132 -3.83971 0
M  V30 2446 N 239.452 1.56882 -0.150215 0
M  V30 2447 C 240.682 2.00302 0.506213 0
M  V30 2448 C 241.09 1.02934 1.58749 0
M  V30 2449 O 240.433 0.0188384 1.8369 0
M  V30 2450 C 240.495 3.40156 1.16337 0
M  V30 2451 C 240.159 4.56439 0.226311 0
M  V30 2452 C 241.156 5.17012 -0.547265 0
M  V30 2453 C 238.841 5.02136 0.128279 0
M  V30 2454 C 240.835 6.21693 -1.40629 0
M  V30 2455 C 238.522 6.06672 -0.734345 0
M  V30 2456 C 239.52 6.6632 -1.50023 0
M  V30 2457 O 239.208 7.68831 -2.34848 0
M  V30 2458 H 238.94 0.662182 0.135984 0
M  V30 2459 H 241.494 2.03961 -0.242746 0
M  V30 2460 H 239.724 3.33346 1.96004 0
M  V30 2461 H 241.413 3.67663 1.71985 0
M  V30 2462 H 242.179 4.82603 -0.48158 0
M  V30 2463 H 238.058 4.55435 0.714157 0
M  V30 2464 H 241.602 6.68179 -2.00455 0
M  V30 2465 H 237.499 6.40507 -0.801309 0
M  V30 2466 H 238.267 7.86065 -2.28131 0
M  V30 2467 N 240.93 -0.123565 1.57115 0
M  V30 2468 C 242.176 -0.833386 1.84885 0
M  V30 2469 C 242.509 -1.79742 0.735292 0
M  V30 2470 O 241.784 -1.92764 -0.25925 0
M  V30 2471 C 242.067 -1.5873 3.23228 0
M  V30 2472 C 241.92 -0.643183 4.45178 0
M  V30 2473 C 243.239 -2.54453 3.59085 0
M  V30 2474 H 240.358 -0.301518 0.6725 0
M  V30 2475 H 243 -0.097778 1.89748 0
M  V30 2476 H 241.15 -2.21438 3.19214 0
M  V30 2477 H 242.822 -0.0253015 4.61293 0
M  V30 2478 H 241.065 0.0456139 4.33776 0
M  V30 2479 H 241.736 -1.20724 5.38637 0
M  V30 2480 H 244.212 -2.01853 3.63861 0
M  V30 2481 H 243.088 -3.04238 4.5687 0
M  V30 2482 H 243.349 -3.36906 2.86264 0
M  V30 2483 N 242.408 -1.52605 -0.393616 0
M  V30 2484 C 243.656 -1.67093 -1.13685 0
M  V30 2485 C 243.977 -0.411011 -1.90619 0
M  V30 2486 O 243.247 0.574491 -1.87287 0
M  V30 2487 H 241.827 -0.615923 -0.422668 0
M  V30 2488 H 244.489 -1.89704 -0.447039 0
M  V30 2489 H 243.585 -2.51922 -1.84232 0
M  V30 2490 N 243.887 0.651787 -1.4349 0
M  V30 2491 C 244.85 1.74647 -1.48429 0
M  V30 2492 C 245.85 1.56513 -0.368817 0
M  V30 2493 O 247.04 1.62385 -0.630623 0
M  V30 2494 C 244.172 3.13533 -1.33827 0
M  V30 2495 H 245.365 1.71649 -2.4592 0
M  V30 2496 H 242.918 0.863573 -1.30277 0
M  V30 2497 H 243.653 3.22142 -0.37349 0
M  V30 2498 H 243.438 3.28101 -2.14691 0
M  V30 2499 H 244.928 3.93356 -1.40218 0
M  V30 2500 N 245.365 1.30045 0.890287 0
M  V30 2501 C 246.611 1.19747 1.64415 0
M  V30 2502 C 246.966 -0.246591 1.90813 0
M  V30 2503 O 246.259 -1.174 1.51419 0
M  V30 2504 C 246.453 1.95409 2.99249 0
M  V30 2505 C 246.282 3.47025 2.86013 0
M  V30 2506 C 245.052 4.1638 2.86279 0
M  V30 2507 C 247.25 4.42353 2.62351 0
M  V30 2508 N 245.232 5.54293 2.63879 0
M  V30 2509 C 246.603 5.67792 2.49022 0
M  V30 2510 C 248.658 4.32009 2.47533 0
M  V30 2511 C 247.361 6.8406 2.22383 0
M  V30 2512 C 249.387 5.48038 2.22279 0
M  V30 2513 C 248.749 6.72455 2.09722 0
M  V30 2514 H 244.848 0.493223 0.60684 0
M  V30 2515 H 247.432 1.6399 1.04954 0
M  V30 2516 H 245.603 1.53565 3.56752 0
M  V30 2517 H 247.335 1.77298 3.63796 0
M  V30 2518 H 244.09 3.68164 2.97913 0
M  V30 2519 H 244.514 6.26852 2.55706 0
M  V30 2520 H 249.156 3.36503 2.55979 0
M  V30 2521 H 246.874 7.79612 2.12675 0
M  V30 2522 H 250.46 5.41939 2.11643 0
M  V30 2523 H 249.34 7.60722 1.90453 0
M  V30 2524 N 246.843 -1.10192 1.12674 0
M  V30 2525 C 248.12 -1.78717 0.794965 0
M  V30 2526 C 248.5 -1.98628 -0.714853 0
M  V30 2527 O 247.848 -1.58135 -1.64941 0
M  V30 2528 C 248.058 -3.11546 1.5729 0
M  V30 2529 C 249.406 -3.86382 1.76052 0
M  V30 2530 O 250.43 -3.21274 1.53823 0
M  V30 2531 O 249.289 -5.03246 2.13087 0
M  V30 2532 H 246.383 -0.774702 0.289423 0
M  V30 2533 H 248.929 -1.16819 1.23091 0
M  V30 2534 H 247.701 -2.92489 2.59935 0
M  V30 2535 H 247.324 -3.81164 1.13137 0
M  V30 2536 N 248.321 -0.919034 -1.28029 0
M  V30 2537 C 249.569 -0.553838 -1.94363 0
M  V30 2538 C 249.89 0.906357 -1.72656 0
M  V30 2539 O 249.16 1.64143 -1.0693 0
M  V30 2540 H 247.74 -0.201834 -0.719216 0
M  V30 2541 H 250.402 -1.16954 -1.55909 0
M  V30 2542 H 249.498 -0.752758 -3.02886 0
M  V30 2543 N 249.799 1.42003 -0.683588 0
M  V30 2544 C 251.215 1.55625 -0.353976 0
M  V30 2545 C 251.415 1.66151 1.14 0
M  V30 2546 O 250.471 1.63329 1.92561 0
M  V30 2547 C 251.784 2.80171 -1.092 0
M  V30 2548 C 253.332 2.93954 -1.07518 0
M  V30 2549 C 253.807 4.21372 -1.79471 0
M  V30 2550 N 255.298 4.28303 -1.76381 0
M  V30 2551 C 256.033 5.25729 -2.28904 0
M  V30 2552 N 255.529 6.29254 -2.89846 0
M  V30 2553 N 257.322 5.17586 -2.19228 0
M  V30 2554 H 249.473 1.33415 -1.6527 0
M  V30 2555 H 251.736 0.64282 -0.696769 0
M  V30 2556 H 251.442 2.78561 -2.14701 0
M  V30 2557 H 251.316 3.7133 -0.662862 0
M  V30 2558 H 253.703 2.95086 -0.028475 0
M  V30 2559 H 253.784 2.04002 -1.54328 0
M  V30 2560 H 253.428 4.21001 -2.84114 0
M  V30 2561 H 253.358 5.10275 -1.30104 0
M  V30 2562 H 255.849 3.54119 -1.31939 0
M  V30 2563 H 256.162 6.99964 -3.27522 0
M  V30 2564 H 254.507 6.29791 -2.93919 0
M  V30 2565 H 257.698 4.35631 -1.71299 0
M  V30 2566 H 257.871 5.93348 -2.60466 0
M  V30 2567 N 251.277 0.427512 1.51691 0
M  V30 2568 C 252.207 -0.3796 2.30394 0
M  V30 2569 C 253.188 -1.02982 1.35384 0
M  V30 2570 O 254.373 -1.03534 1.643 0
M  V30 2571 C 251.503 -1.48649 3.1388 0
M  V30 2572 C 250.457 -0.960294 4.17088 0
M  V30 2573 C 249.783 -2.16219 4.89033 0
M  V30 2574 C 251.083 -0.00153679 5.223 0
M  V30 2575 H 252.777 0.277164 2.98114 0
M  V30 2576 H 250.323 0.134739 1.43368 0
M  V30 2577 H 252.276 -2.05826 3.67714 0
M  V30 2578 H 251 -2.1714 2.43962 0
M  V30 2579 H 249.659 -0.410806 3.64291 0
M  V30 2580 H 249.307 -2.83307 4.15628 0
M  V30 2581 H 249.007 -1.81654 5.58816 0
M  V30 2582 H 250.531 -2.73968 5.45687 0
M  V30 2583 H 251.945 -0.482687 5.71264 0
M  V30 2584 H 250.342 0.256199 5.99553 0
M  V30 2585 H 251.412 0.938174 4.75738 0
M  V30 2586 N 252.755 -1.56801 0.158532 0
M  V30 2587 C 254.004 -1.95665 -0.489702 0
M  V30 2588 C 254.317 -1.04654 -1.65248 0
M  V30 2589 O 255.523 -1.33146 -2.3661 0
M  V30 2590 C 253.979 -3.47874 -0.922582 0
M  V30 2591 C 253.587 -4.47489 0.213893 0
M  V30 2592 C 255.331 -3.95583 -1.53996 0
M  V30 2593 C 253.238 -5.90921 -0.237903 0
M  V30 2594 H 252.168 -0.730516 -0.186716 0
M  V30 2595 H 254.819 -1.81861 0.244722 0
M  V30 2596 H 253.201 -3.57051 -1.71261 0
M  V30 2597 H 254.375 -4.50017 0.991036 0
M  V30 2598 H 252.69 -4.09764 0.740407 0
M  V30 2599 H 255.287 -5.0019 -1.8898 0
M  V30 2600 H 255.63 -3.37789 -2.43319 0
M  V30 2601 H 256.163 -3.8937 -0.814611 0
M  V30 2602 H 252.902 -6.52559 0.620236 0
M  V30 2603 H 252.422 -5.91729 -0.980676 0
M  V30 2604 H 254.101 -6.43352 -0.686067 0
M  V30 2605 N 254.233 0.115231 -1.57178 0
M  V30 2606 C 255.196 1.12526 -1.99676 0
M  V30 2607 C 256.196 1.34095 -0.88742 0
M  V30 2608 O 257.386 1.30548 -1.15337 0
M  V30 2609 C 254.518 2.4789 -2.34015 0
M  V30 2610 H 255.711 0.759912 -2.90113 0
M  V30 2611 H 253.264 0.359648 -1.52106 0
M  V30 2612 H 253.999 2.89339 -1.4647 0
M  V30 2613 H 253.784 2.33588 -3.14927 0
M  V30 2614 H 255.274 3.20575 -2.67622 0
M  V30 2615 N 255.711 1.52812 0.385517 0
M  V30 2616 C 256.641 1.80808 1.47752 0
M  V30 2617 C 257.622 0.660318 1.5676 0
M  V30 2618 O 258.807 0.908246 1.71652 0
M  V30 2619 C 255.937 1.98008 2.85324 0
M  V30 2620 C 254.891 3.13709 2.91154 0
M  V30 2621 C 254.217 3.16169 4.31209 0
M  V30 2622 C 255.517 4.52709 2.60483 0
M  V30 2623 H 257.211 2.72253 1.24573 0
M  V30 2624 H 254.757 1.31003 0.597839 0
M  V30 2625 H 256.71 2.16176 3.61726 0
M  V30 2626 H 255.434 1.03255 3.09848 0
M  V30 2627 H 254.093 2.95329 2.17201 0
M  V30 2628 H 253.741 2.19092 4.52778 0
M  V30 2629 H 253.441 3.93894 4.36029 0
M  V30 2630 H 254.965 3.36496 5.09512 0
M  V30 2631 H 256.379 4.71173 3.26602 0
M  V30 2632 H 254.776 5.32528 2.76648 0
M  V30 2633 H 255.846 4.59186 1.55809 0
M  V30 2634 N 257.189 -0.644168 1.43834 0
M  V30 2635 C 258.466 -1.40188 1.36406 0
M  V30 2636 C 258.846 -2.11094 0.0163124 0
M  V30 2637 O 258.194 -2.05426 -1.00062 0
M  V30 2638 C 258.404 -2.3791 2.55343 0
M  V30 2639 C 259.752 -3.01637 2.98832 0
M  V30 2640 O 260.776 -2.48237 2.55455 0
M  V30 2641 O 259.635 -3.98477 3.74003 0
M  V30 2642 H 256.729 -0.626773 0.539523 0
M  V30 2643 H 259.275 -0.670317 1.559 0
M  V30 2644 H 258.047 -1.84525 3.4506 0
M  V30 2645 H 257.67 -3.18503 2.37995 0
M  V30 2646 N 258.668 -1.30515 -0.883378 0
M  V30 2647 C 259.631 -1.1701 -1.97082 0
M  V30 2648 C 260.631 -0.10089 -1.60483 0
M  V30 2649 O 261.821 -0.349127 -1.70666 0
M  V30 2650 C 258.953 -0.793045 -3.31547 0
M  V30 2651 H 260.146 -2.13622 -2.10489 0
M  V30 2652 H 257.699 -1.13935 -1.06998 0
M  V30 2653 H 258.434 0.172499 -3.23841 0
M  V30 2654 H 258.219 -1.56576 -3.5948 0
M  V30 2655 H 259.709 -0.722073 -4.1131 0
M  V30 2656 N 260.146 1.09593 -1.13257 0
M  V30 2657 C 261.109 2.14359 -0.811358 0
M  V30 2658 C 262.109 1.59808 0.178377 0
M  V30 2659 O 263.299 1.74132 -0.0484911 0
M  V30 2660 C 260.431 3.40269 -0.207276 0
M  V30 2661 H 261.624 2.44284 -1.73969 0
M  V30 2662 H 259.177 1.25102 -0.936973 0
M  V30 2663 H 259.912 3.15969 0.73036 0
M  V30 2664 H 259.697 3.81154 -0.919992 0
M  V30 2665 H 261.187 4.176 0.000667944 0
M  V30 2666 N 261.624 0.925811 1.2754 0
M  V30 2667 C 262.852 0.581509 1.9856 0
M  V30 2668 C 263.267 -0.840041 1.69082 0
M  V30 2669 O 262.624 -1.55805 0.950312 0
M  V30 2670 C 262.675 0.795589 3.52637 0
M  V30 2671 O 262.396 2.16121 3.81082 0
M  V30 2672 C 263.897 0.459744 4.4091 0
M  V30 2673 H 261.117 0.220538 0.633722 0
M  V30 2674 H 263.661 1.24232 1.6244 0
M  V30 2675 H 261.816 0.18161 3.86974 0
M  V30 2676 H 262.23 2.2098 4.75676 0
M  V30 2677 H 263.704 0.660244 5.48037 0
M  V30 2678 H 264.181 -0.604625 4.35018 0
M  V30 2679 H 264.787 1.05178 4.12089 0
M  V30 2680 N 263.102 -1.41638 0.69111 0
M  V30 2681 C 264.35 -2.00902 0.219758 0
M  V30 2682 C 264.671 -1.54994 -1.18329 0
M  V30 2683 O 263.941 -0.778628 -1.79762 0
M  V30 2684 H 262.521 -0.74289 0.0782558 0
M  V30 2685 H 265.183 -1.73327 0.891271 0
M  V30 2686 H 264.279 -3.11224 0.233708 0
M  V30 2687 N 264.58 -0.43555 -1.51462 0
M  V30 2688 C 265.527 0.376797 -2.27703 0
M  V30 2689 C 266.497 1.01838 -1.31219 0
M  V30 2690 O 267.682 1.03762 -1.60119 0
M  V30 2691 C 264.822 1.47301 -3.12084 0
M  V30 2692 C 263.935 0.849744 -4.2356 0
M  V30 2693 C 263.07 1.92086 -4.95254 0
M  V30 2694 C 262.109 1.27593 -5.98654 0
M  V30 2695 N 261.246 2.28833 -6.63762 0
M  V30 2696 H 266.086 -0.279734 -2.96684 0
M  V30 2697 H 263.623 -0.149795 -1.46335 0
M  V30 2698 H 265.581 2.11984 -3.59331 0
M  V30 2699 H 264.211 2.0992 -2.45221 0
M  V30 2700 H 263.263 0.0912529 -3.80291 0
M  V30 2701 H 264.575 0.338878 -4.97648 0
M  V30 2702 H 263.729 2.64435 -5.46039 0
M  V30 2703 H 262.468 2.46545 -4.20793 0
M  V30 2704 H 261.473 0.537893 -5.47162 0
M  V30 2705 H 262.698 0.738693 -6.7507 0
M  V30 2706 H 260.644 2.82375 -5.92115 0
M  V30 2707 H 260.561 1.82632 -7.33608 0
M  V30 2708 H 261.829 3.00671 -7.19178 0
M  V30 2709 N 266.058 1.56714 -0.166846 0
M  V30 2710 C 266.968 2.21331 0.777791 0
M  V30 2711 C 267.984 1.20358 1.25658 0
M  V30 2712 O 269.16 1.53005 1.30964 0
M  V30 2713 C 266.225 2.83787 1.99163 0
M  V30 2714 C 265.286 3.99947 1.56016 0
M  V30 2715 C 264.519 4.59415 2.71613 0
M  V30 2716 O 264.742 4.17769 3.88362 0
M  V30 2717 O 263.676 5.49359 2.45945 0
M  V30 2718 H 267.502 3.02605 0.257636 0
M  V30 2719 H 265.087 1.49275 0.0611393 0
M  V30 2720 H 266.969 3.23405 2.70161 0
M  V30 2721 H 265.644 2.05513 2.50092 0
M  V30 2722 H 264.551 3.65007 0.819809 0
M  V30 2723 H 265.884 4.79801 1.09782 0
M  V30 2724 N 267.536 -0.106894 1.57237 0
M  V30 2725 C 268.782 -0.81373 1.85759 0
M  V30 2726 C 269.115 -1.78952 0.754315 0
M  V30 2727 O 268.39 -1.93029 -0.23879 0
M  V30 2728 C 268.673 -1.55293 3.24894 0
M  V30 2729 C 268.526 -0.595929 4.45835 0
M  V30 2730 C 269.845 -2.5063 3.61763 0
M  V30 2731 H 266.964 -0.294369 0.67566 0
M  V30 2732 H 269.606 -0.0776472 1.89841 0
M  V30 2733 H 267.756 -2.1804 3.21544 0
M  V30 2734 H 269.428 0.0236262 4.61294 0
M  V30 2735 H 267.671 0.0916191 4.33703 0
M  V30 2736 H 268.342 -1.15004 5.39887 0
M  V30 2737 H 270.818 -1.97982 3.65981 0
M  V30 2738 H 269.694 -2.99376 4.60071 0
M  V30 2739 H 269.955 -3.3385 2.89821 0
M  V30 2740 N 269.014 -1.53014 -0.377408 0
M  V30 2741 C 270.26 -1.69821 -1.11948 0
M  V30 2742 C 270.615 -0.438581 -1.87335 0
M  V30 2743 O 269.908 0.568094 -1.82984 0
M  V30 2744 C 270.102 -2.87982 -2.11663 0
M  V30 2745 C 269.931 -4.25315 -1.46072 0
M  V30 2746 C 268.701 -4.90354 -1.21986 0
M  V30 2747 C 270.899 -5.06281 -0.904664 0
M  V30 2748 N 268.881 -6.11641 -0.526215 0
M  V30 2749 C 270.252 -6.19069 -0.339726 0
M  V30 2750 C 272.307 -4.91395 -0.8022 0
M  V30 2751 C 271.01 -7.18598 0.317669 0
M  V30 2752 C 273.036 -5.91187 -0.158606 0
M  V30 2753 C 272.398 -7.03289 0.39551 0
M  V30 2754 H 268.497 -0.674785 -0.395207 0
M  V30 2755 H 271.081 -1.90389 -0.407437 0
M  V30 2756 H 269.252 -2.68974 -2.80192 0
M  V30 2757 H 270.984 -2.93669 -2.78461 0
M  V30 2758 H 267.739 -4.49286 -1.49798 0
M  V30 2759 H 268.163 -6.76719 -0.195098 0
M  V30 2760 H 272.805 -4.04925 -1.21639 0
M  V30 2761 H 270.523 -8.04669 0.743836 0
M  V30 2762 H 274.109 -5.81744 -0.0804138 0
M  V30 2763 H 272.989 -7.79183 0.885648 0
M  V30 2764 N 270.492 0.636531 -1.44174 0
M  V30 2765 C 271.442 1.74233 -1.47061 0
M  V30 2766 C 272.426 1.57331 -0.337034 0
M  V30 2767 O 273.618 1.67159 -0.581973 0
M  V30 2768 C 270.747 3.12897 -1.41246 0
M  V30 2769 C 269.833 3.35288 -2.59698 0
M  V30 2770 N 270.224 3.2807 -3.84972 0
M  V30 2771 C 268.522 3.66065 -2.54778 0
M  V30 2772 C 269.223 3.51001 -4.63867 0
M  V30 2773 N 268.199 3.73616 -3.94857 0
M  V30 2774 H 272.001 1.67103 -2.41773 0
M  V30 2775 H 269.515 0.838806 -1.3906 0
M  V30 2776 H 271.512 3.92189 -1.41398 0
M  V30 2777 H 270.172 3.21197 -0.47569 0
M  V30 2778 H 271.183 3.07109 -4.17019 0
M  V30 2779 H 267.86 3.81379 -1.6987 0
M  V30 2780 H 269.25 3.51059 -5.72894 0
M  V30 2781 N 271.97 1.30982 0.876444 0
M  V30 2782 C 272.902 1.13902 1.98894 0
M  V30 2783 C 273.915 0.0798815 1.62604 0
M  V30 2784 O 275.104 0.326743 1.75484 0
M  V30 2785 C 272.204 0.716699 3.31235 0
M  V30 2786 C 271.377 1.85945 3.95908 0
M  V30 2787 C 270.436 1.42426 5.06558 0
M  V30 2788 O 269.462 2.13287 5.27729 0
M  V30 2789 N 270.664 0.308025 5.79682 0
M  V30 2790 H 273.429 2.09724 2.14094 0
M  V30 2791 H 270.99 1.2323 1.05004 0
M  V30 2792 H 272.982 0.408403 4.02634 0
M  V30 2793 H 271.552 -0.149719 3.12241 0
M  V30 2794 H 270.772 2.33541 3.17573 0
M  V30 2795 H 272.06 2.62503 4.35855 0
M  V30 2796 H 271.458 -0.282241 5.64995 0
M  V30 2797 H 270.015 0.0592282 6.51773 0
M  V30 2798 N 273.449 -1.08991 1.13837 0
M  V30 2799 C 274.397 -2.17841 0.815347 0
M  V30 2800 C 275.391 -1.68164 -0.204233 0
M  V30 2801 O 276.597 -1.79897 -0.0609304 0
M  V30 2802 H 272.972 -0.710654 0.245915 0
M  V30 2803 H 274.943 -2.42315 1.74143 0
M  V30 2804 C 273.692 -3.46381 0.302614 0
M  V30 2805 H 273.015 -3.84979 1.0785 0
M  V30 2806 H 274.455 -4.23844 0.115074 0
M  V30 2807 C 272.914 -3.22556 -0.972591 0
M  V30 2808 O 273.444 -3.45599 -2.04754 0
M  V30 2809 N 271.65 -2.76134 -0.905455 0
M  V30 2810 H 271.197 -2.57582 -0.0305421 0
M  V30 2811 H 271.155 -2.60571 -1.75926 0
M  V30 2812 N 274.927 -0.932562 -1.27047 0
M  V30 2813 C 276.155 -0.592031 -1.98249 0
M  V30 2814 C 276.57 0.831062 -1.69525 0
M  V30 2815 O 275.927 1.55299 -0.958561 0
M  V30 2816 C 275.978 -0.814279 -3.5221 0
M  V30 2817 O 275.699 -2.18139 -3.7993 0
M  V30 2818 C 277.2 -0.483121 -4.4066 0
M  V30 2819 H 274.42 -0.223896 -0.632544 0
M  V30 2820 H 276.964 -1.25091 -1.61779 0
M  V30 2821 H 275.119 -0.20213 -3.86872 0
M  V30 2822 H 275.533 -2.235 -4.74498 0
M  V30 2823 H 277.007 -0.689298 -5.47679 0
M  V30 2824 H 277.484 0.581546 -4.35333 0
M  V30 2825 H 278.09 -1.07362 -4.11526 0
M  V30 2826 N 276.405 1.4127 -0.698611 0
M  V30 2827 C 277.652 2.0118 -0.230865 0
M  V30 2828 C 277.98 1.55338 1.17049 0
M  V30 2829 O 277.235 0.756775 1.80475 0
M  V30 2830 C 277.534 3.56592 -0.240192 0
M  V30 2831 C 277.2 4.21955 -1.58948 0
M  V30 2832 C 275.862 4.39524 -1.95887 0
M  V30 2833 C 278.214 4.58576 -2.47704 0
M  V30 2834 C 275.542 4.90992 -3.2116 0
M  V30 2835 C 277.894 5.11435 -3.72313 0
M  V30 2836 C 276.558 5.27215 -4.0939 0
M  V30 2837 H 275.828 0.736169 -0.0844796 0
M  V30 2838 H 278.475 1.69124 -0.8983 0
M  V30 2839 H 276.78 3.88456 0.510797 0
M  V30 2840 H 278.477 4.00758 0.139296 0
M  V30 2841 H 275.067 4.08657 -1.29219 0
M  V30 2842 H 279.251 4.44654 -2.20445 0
M  V30 2843 H 274.507 5.01393 -3.49878 0
M  V30 2844 H 278.681 5.38752 -4.4127 0
M  V30 2845 H 276.308 5.66859 -5.06533 0
M  V30 2846 N 277.883 0.443576 1.51229 0
M  V30 2847 C 278.793 -0.370721 2.31652 0
M  V30 2848 C 279.809 -1.02186 1.40833 0
M  V30 2849 O 280.985 -1.01586 1.73903 0
M  V30 2850 C 278.05 -1.45376 3.14749 0
M  V30 2851 C 277.111 -0.822099 4.21355 0
M  V30 2852 C 276.344 -1.85353 5.0048 0
M  V30 2853 O 276.567 -3.07656 4.80316 0
M  V30 2854 O 275.501 -1.4406 5.84406 0
M  V30 2855 H 279.327 0.286002 3.0235 0
M  V30 2856 H 276.912 0.20598 1.47973 0
M  V30 2857 H 278.794 -2.08173 3.66391 0
M  V30 2858 H 277.469 -2.09445 2.46809 0
M  V30 2859 H 276.376 -0.155909 3.73775 0
M  V30 2860 H 277.709 -0.224797 4.91686 0
M  V30 2861 N 279.361 -1.56624 0.175154 0
M  V30 2862 C 280.609 -1.96609 -0.467885 0
M  V30 2863 C 280.93 -1.06238 -1.63519 0
M  V30 2864 O 280.2 -0.129523 -1.95471 0
M  V30 2865 H 278.78 -0.726008 -0.175845 0
M  V30 2866 H 281.442 -1.93195 0.257234 0
M  V30 2867 H 280.538 -3.00989 -0.825342 0
M  V30 2868 N 280.839 0.0985539 -1.57292 0
M  V30 2869 C 281.771 1.14595 -1.98496 0
M  V30 2870 C 282.784 1.36512 -0.887031 0
M  V30 2871 O 283.973 1.35225 -1.16518 0
M  V30 2872 C 281.073 2.50216 -2.28572 0
M  V30 2873 C 280.246 2.48624 -3.59868 0
M  V30 2874 C 279.305 3.66146 -3.7792 0
M  V30 2875 O 278.331 3.48795 -4.49812 0
M  V30 2876 N 279.533 4.85496 -3.18235 0
M  V30 2877 H 282.298 0.795277 -2.88956 0
M  V30 2878 H 279.859 0.287579 -1.59325 0
M  V30 2879 H 281.851 3.27432 -2.37845 0
M  V30 2880 H 280.421 2.77387 -1.44136 0
M  V30 2881 H 279.641 1.56978 -3.61596 0
M  V30 2882 H 280.929 2.44635 -4.46129 0
M  V30 2883 H 280.327 5.02497 -2.59833 0
M  V30 2884 H 278.884 5.60317 -3.32999 0
M  V30 2885 N 282.317 1.53212 0.369288 0
M  V30 2886 C 283.264 1.79388 1.45219 0
M  V30 2887 C 284.234 0.638059 1.53356 0
M  V30 2888 O 285.419 0.879852 1.69302 0
M  V30 2889 C 282.559 1.98623 2.82211 0
M  V30 2890 C 281.672 3.26337 2.8307 0
M  V30 2891 C 280.807 3.35779 4.11614 0
M  V30 2892 C 279.846 4.5754 4.06601 0
M  V30 2893 N 278.983 4.64155 5.26787 0
M  V30 2894 H 283.823 2.71794 1.22198 0
M  V30 2895 H 281.36 1.34642 0.592444 0
M  V30 2896 H 283.318 2.07761 3.61789 0
M  V30 2897 H 281.948 1.09558 3.03639 0
M  V30 2898 H 281 3.26171 1.95747 0
M  V30 2899 H 282.312 4.15988 2.75237 0
M  V30 2900 H 281.466 3.44208 4.99606 0
M  V30 2901 H 280.205 2.44137 4.22195 0
M  V30 2902 H 279.21 4.49215 3.16996 0
M  V30 2903 H 280.435 5.50519 3.97625 0
M  V30 2904 H 278.381 3.75413 5.3796 0
M  V30 2905 H 278.298 5.47706 5.21109 0
M  V30 2906 H 279.566 4.76863 6.16621 0
M  V30 2907 N 283.795 -0.628877 1.44509 0
M  V30 2908 C 285.043 -1.38565 1.4712 0
M  V30 2909 C 285.364 -1.94712 0.105899 0
M  V30 2910 O 284.634 -1.75912 -0.862079 0
M  V30 2911 H 283.214 -0.514333 0.541729 0
M  V30 2912 H 285.876 -0.740018 1.80305 0
M  V30 2913 H 284.972 -2.21583 2.19789 0
M  V30 2914 N 285.273 -1.31445 -0.869486 0
M  V30 2915 C 286.498 -1.24256 -1.66058 0
M  V30 2916 C 286.923 0.188928 -1.87149 0
M  V30 2917 O 286.281 1.13522 -1.4136 0
M  V30 2918 C 286.329 -1.9924 -3.00559 0
M  V30 2919 O 285.433 -1.33007 -3.90362 0
M  V30 2920 H 284.774 -0.428973 -0.506831 0
M  V30 2921 H 287.304 -1.73521 -1.08404 0
M  V30 2922 H 287.314 -2.08854 -3.50491 0
M  V30 2923 H 285.989 -3.03342 -2.84528 0
M  V30 2924 H 284.566 -1.31848 -3.48813 0
M  V30 2925 N 286.751 1.08385 -1.14413 0
M  V30 2926 C 287.681 2.17321 -0.854044 0
M  V30 2927 C 288.662 1.69024 0.191049 0
M  V30 2928 O 289.847 1.94141 0.0476779 0
M  V30 2929 C 286.977 3.45719 -0.330983 0
M  V30 2930 C 285.931 4.07409 -1.31155 0
M  V30 2931 C 285.257 5.30762 -0.64778 0
M  V30 2932 C 286.557 4.48665 -2.67388 0
M  V30 2933 H 288.251 2.41845 -1.76498 0
M  V30 2934 H 285.797 1.16233 -0.850051 0
M  V30 2935 H 287.75 4.21241 -0.115645 0
M  V30 2936 H 286.474 3.2075 0.615381 0
M  V30 2937 H 285.133 3.33919 -1.51306 0
M  V30 2938 H 284.781 5.02078 0.304398 0
M  V30 2939 H 284.481 5.72992 -1.30207 0
M  V30 2940 H 286.005 6.08998 -0.441972 0
M  V30 2941 H 287.419 5.15364 -2.51143 0
M  V30 2942 H 285.816 5.01814 -3.29093 0
M  V30 2943 H 286.886 3.60543 -3.24248 0
M  V30 2944 N 288.23 0.939286 1.26551 0
M  V30 2945 C 289.458 0.602536 1.97932 0
M  V30 2946 C 289.873 -0.82206 1.69964 0
M  V30 2947 O 289.23 -1.54789 0.966784 0
M  V30 2948 C 289.281 0.832946 3.51773 0
M  V30 2949 O 289.002 2.20151 3.78768 0
M  V30 2950 C 290.503 0.506483 4.40397 0
M  V30 2951 H 287.723 0.227248 0.631347 0
M  V30 2952 H 290.267 1.25948 1.61113 0
M  V30 2953 H 288.422 0.222644 3.8676 0
M  V30 2954 H 288.836 2.26013 4.73306 0
M  V30 2955 H 290.31 0.718333 5.47306 0
M  V30 2956 H 290.787 -0.558451 4.35635 0
M  V30 2957 H 291.393 1.09543 4.10951 0
M  V30 2958 N 289.708 -1.40897 0.706093 0
M  V30 2959 C 290.957 -2.00284 0.238574 0
M  V30 2960 C 291.27 -1.56604 -1.17194 0
M  V30 2961 O 292.476 -2.08624 -1.73748 0
M  V30 2962 C 290.932 -3.57934 0.375623 0
M  V30 2963 C 290.54 -4.10591 1.79217 0
M  V30 2964 C 292.284 -4.24488 -0.0315857 0
M  V30 2965 C 290.191 -5.60712 1.88032 0
M  V30 2966 H 289.121 -0.749144 0.0854398 0
M  V30 2967 H 291.772 -1.61251 0.875813 0
M  V30 2968 H 290.154 -3.94622 -0.330042 0
M  V30 2969 H 291.328 -3.85301 2.52745 0
M  V30 2970 H 289.643 -3.56601 2.15 0
M  V30 2971 H 292.24 -5.34698 0.0136842 0
M  V30 2972 H 292.583 -4.02261 -1.072 0
M  V30 2973 H 293.116 -3.92873 0.624181 0
M  V30 2974 H 289.855 -5.87781 2.90161 0
M  V30 2975 H 289.375 -5.87896 1.18903 0
M  V30 2976 H 291.054 -6.25658 1.64805 0
M  V30 2977 N 291.186 -0.45159 -1.50991 0
M  V30 2978 C 292.414 0.108334 -2.06616 0
M  V30 2979 C 292.829 1.35224 -1.31757 0
M  V30 2980 O 292.186 1.78475 -0.381174 0
M  V30 2981 C 292.237 0.41619 -3.59096 0
M  V30 2982 O 291.958 -0.778361 -4.3113 0
M  V30 2983 C 293.459 1.02523 -4.31282 0
M  V30 2984 H 290.679 0.00159995 -0.670998 0
M  V30 2985 H 293.223 -0.634771 -1.94399 0
M  V30 2986 H 291.378 1.10921 -3.71181 0
M  V30 2987 H 291.792 -0.511181 -5.22003 0
M  V30 2988 H 293.266 1.19053 -5.39009 0
M  V30 2989 H 293.743 2.01013 -3.905 0
M  V30 2990 H 294.349 0.371173 -4.23677 0
M  V30 2991 N 292.664 1.56529 -0.183458 0
M  V30 2992 C 293.912 1.96855 0.457452 0
M  V30 2993 C 294.233 1.07104 1.62953 0
M  V30 2994 O 293.503 0.139887 1.954 0
M  V30 2995 H 292.083 0.72693 0.171992 0
M  V30 2996 H 294.745 1.93056 -0.267476 0
M  V30 2997 H 293.841 3.01423 0.809368 0
M  V30 2998 N 294.142 -0.090211 1.57342 0
M  V30 2999 C 295.105 -1.09335 2.01441 0
M  V30 3000 C 296.105 -1.32666 0.908641 0
M  V30 3001 O 297.295 -1.28697 1.174 0
M  V30 3002 C 294.427 -2.44136 2.3793 0
M  V30 3003 H 295.62 -0.713662 2.91285 0
M  V30 3004 H 293.173 -0.335404 1.52659 0
M  V30 3005 H 293.908 -2.86972 1.51055 0
M  V30 3006 H 293.693 -2.28548 3.18603 0
M  V30 3007 H 295.183 -3.16277 2.72688 0
M  V30 3008 N 295.62 -1.53406 -0.361157 0
M  V30 3009 C 297.031 -1.61442 -0.937728 0
M  V30 3010 C 297.382 -0.48461 -1.90121 0
M  V30 3011 O 296.507 0.388312 -2.12888 0
M  V30 3012 C 297.102 -2.92624 -1.70753 0
M  V30 3013 C 295.661 -3.02981 -2.23337 0
M  V30 3014 C 294.808 -2.5677 -1.04712 0
M  V30 3015 H 297.759 -1.58083 -0.139816 0
M  V30 3016 H 297.78 -2.80675 -2.56908 0
M  V30 3017 H 297.292 -3.74834 -1.00604 0
M  V30 3018 H 295.393 -2.25368 -2.96715 0
M  V30 3019 H 295.506 -4.0814 -2.50916 0
M  V30 3020 H 293.87 -2.11752 -1.41539 0
M  V30 3021 H 294.653 -3.41402 -0.360539 0
M  V30 3022 N 297.098 0.621204 -1.44841 0
M  V30 3023 C 298.514 0.94048 -1.28946 0
M  V30 3024 C 298.714 2.00154 -0.23249 0
M  V30 3025 O 297.77 2.49651 0.378237 0
M  V30 3026 C 299.083 1.39433 -2.66419 0
M  V30 3027 C 300.631 1.50927 -2.74208 0
M  V30 3028 C 301.106 1.99692 -4.12174 0
M  V30 3029 N 302.597 2.06947 -4.144 0
M  V30 3030 C 303.332 2.45871 -5.1801 0
M  V30 3031 N 302.828 2.83862 -6.31977 0
M  V30 3032 N 304.621 2.46092 -5.05366 0
M  V30 3033 H 296.772 -0.0803548 -2.12248 0
M  V30 3034 H 299.035 0.0266913 -0.947624 0
M  V30 3035 H 298.741 0.688925 -3.44887 0
M  V30 3036 H 298.615 2.36347 -2.93973 0
M  V30 3037 H 301.002 2.20561 -1.96053 0
M  V30 3038 H 301.083 0.523627 -2.50383 0
M  V30 3039 H 300.727 1.30649 -4.90809 0
M  V30 3040 H 300.657 2.99146 -4.33381 0
M  V30 3041 H 303.148 1.80232 -3.32152 0
M  V30 3042 H 303.461 3.12405 -7.0684 0
M  V30 3043 H 301.806 2.8159 -6.35399 0
M  V30 3044 H 304.997 2.1581 -4.15384 0
M  V30 3045 H 305.17 2.76102 -5.86235 0
M  V30 3046 N 298.576 1.31904 0.862503 0
M  V30 3047 C 299.822 1.22197 1.61851 0
M  V30 3048 C 300.155 -0.217641 1.92977 0
M  V30 3049 O 299.43 -1.15264 1.56666 0
M  V30 3050 C 299.713 2.07378 2.94391 0
M  V30 3051 C 299.566 3.59678 2.70096 0
M  V30 3052 C 300.885 1.92891 3.95577 0
M  V30 3053 H 298.004 0.445255 0.587296 0
M  V30 3054 H 300.646 1.6177 0.99651 0
M  V30 3055 H 298.796 1.73758 3.47477 0
M  V30 3056 H 300.468 4.03472 2.23625 0
M  V30 3057 H 298.711 3.82735 2.04197 0
M  V30 3058 H 299.382 4.14595 3.64438 0
M  V30 3059 H 301.858 2.22327 3.51724 0
M  V30 3060 H 300.734 2.54781 4.86187 0
M  V30 3061 H 300.995 0.894315 4.3296 0
M  V30 3062 N 300.054 -1.07777 1.14986 0
M  V30 3063 C 301.301 -1.8029 0.922056 0
M  V30 3064 C 301.629 -1.86531 -0.55105 0
M  V30 3065 O 300.884 -1.34189 -1.42449 0
M  V30 3066 C 301.183 -3.25495 1.47608 0
M  V30 3067 C 300.849 -3.39361 2.96893 0
M  V30 3068 C 299.511 -3.42852 3.37647 0
M  V30 3069 C 301.863 -3.42512 3.92854 0
M  V30 3070 C 299.191 -3.47094 4.73015 0
M  V30 3071 C 301.543 -3.4829 5.28088 0
M  V30 3072 C 300.207 -3.50058 5.68345 0
M  V30 3073 H 299.477 -0.659727 0.337404 0
M  V30 3074 H 302.124 -1.26854 1.43459 0
M  V30 3075 H 300.429 -3.81683 0.88463 0
M  V30 3076 H 302.126 -3.80168 1.27568 0
M  V30 3077 H 298.716 -3.37339 2.64387 0
M  V30 3078 H 302.9 -3.3904 3.62444 0
M  V30 3079 H 298.156 -3.46758 5.03556 0
M  V30 3080 H 302.33 -3.49675 6.02246 0
M  V30 3081 H 299.957 -3.53097 6.73221 0
M  V30 3082 N 301.532 -0.945985 -1.26051 0
M  V30 3083 C 302.479 -0.45809 -2.26208 0
M  V30 3084 C 303.449 0.484816 -1.58867 0
M  V30 3085 O 304.634 0.399969 -1.86561 0
M  V30 3086 C 301.774 0.266131 -3.44072 0
M  V30 3087 C 300.887 -0.713005 -4.26075 0
M  V30 3088 C 300.022 0.0329013 -5.3119 0
M  V30 3089 C 299.061 -0.93774 -6.04874 0
M  V30 3090 N 298.198 -0.223274 -7.01745 0
M  V30 3091 H 303.038 -1.3171 -2.67313 0
M  V30 3092 H 300.575 -0.66069 -1.31428 0
M  V30 3093 H 302.533 0.702514 -4.11243 0
M  V30 3094 H 301.163 1.08925 -3.03867 0
M  V30 3095 H 300.215 -1.26789 -3.58648 0
M  V30 3096 H 301.527 -1.45406 -4.77136 0
M  V30 3097 H 300.681 0.528335 -6.04395 0
M  V30 3098 H 299.42 0.806801 -4.8098 0
M  V30 3099 H 298.425 -1.44425 -5.30492 0
M  V30 3100 H 299.65 -1.71172 -6.57173 0
M  V30 3101 H 297.596 0.532046 -6.53839 0
M  V30 3102 H 297.513 -0.90357 -7.50581 0
M  V30 3103 H 298.781 0.250907 -7.79096 0
M  V30 3104 N 303.011 1.40521 -0.713556 0
M  V30 3105 C 304.259 2.00527 -0.251692 0
M  V30 3106 C 304.58 1.56857 1.15848 0
M  V30 3107 O 303.85 0.807127 1.785 0
M  V30 3108 H 302.43 0.741551 -0.0900646 0
M  V30 3109 H 305.092 1.71887 -0.918733 0
M  V30 3110 H 304.188 3.10813 -0.283192 0
M  V30 3111 N 304.489 0.459591 1.5075 0
M  V30 3112 C 305.436 -0.340524 2.28274 0
M  V30 3113 C 306.406 -0.997371 1.32822 0
M  V30 3114 O 307.591 -1.01202 1.61749 0
M  V30 3115 C 304.731 -1.42317 3.14388 0
M  V30 3116 C 303.844 -0.782251 4.24859 0
M  V30 3117 C 302.979 -1.84182 4.98247 0
M  V30 3118 C 302.018 -1.18053 6.00608 0
M  V30 3119 N 301.155 -2.18244 6.67319 0
M  V30 3120 H 305.995 0.326899 2.96202 0
M  V30 3121 H 303.532 0.173057 1.46078 0
M  V30 3122 H 305.49 -2.06241 3.62658 0
M  V30 3123 H 304.12 -2.05992 2.4853 0
M  V30 3124 H 303.172 -0.0307404 3.80388 0
M  V30 3125 H 304.484 -0.259663 4.98124 0
M  V30 3126 H 303.638 -2.55714 5.50177 0
M  V30 3127 H 302.377 -2.39819 4.24662 0
M  V30 3128 H 301.382 -0.450776 5.47949 0
M  V30 3129 H 302.607 -0.631202 6.7616 0
M  V30 3130 H 300.553 -2.72919 5.96533 0
M  V30 3131 H 300.47 -1.70938 7.36421 0
M  V30 3132 H 301.738 -2.89191 7.23871 0
M  V30 3133 N 305.967 -1.56429 0.191757 0
M  V30 3134 C 307.213 -1.97777 -0.448554 0
M  V30 3135 C 307.546 -1.07847 -1.61501 0
M  V30 3136 O 306.821 -0.129774 -1.94067 0
M  V30 3137 C 307.104 -3.48362 -0.911906 0
M  V30 3138 C 306.957 -4.4907 0.256136 0
M  V30 3139 C 308.276 -4.02561 -1.77857 0
M  V30 3140 H 305.395 -0.719071 -0.161572 0
M  V30 3141 H 308.037 -1.87896 0.282007 0
M  V30 3142 H 306.187 -3.56914 -1.53442 0
M  V30 3143 H 307.859 -4.5256 0.893733 0
M  V30 3144 H 306.102 -4.24181 0.908436 0
M  V30 3145 H 306.773 -5.51889 -0.11053 0
M  V30 3146 H 309.249 -3.96767 -1.25359 0
M  V30 3147 H 308.125 -5.08301 -2.07174 0
M  V30 3148 H 308.386 -3.47616 -2.73158 0
M  V30 3149 N 307.445 0.0818655 -1.57387 0
M  V30 3150 C 308.694 0.781681 -1.85937 0
M  V30 3151 C 309.007 1.79246 -0.782957 0
M  V30 3152 O 310.213 2.54112 -0.955987 0
M  V30 3153 C 308.669 1.44109 -3.29789 0
M  V30 3154 C 308.277 0.469396 -4.45534 0
M  V30 3155 C 310.021 2.12386 -3.67549 0
M  V30 3156 C 307.928 1.13415 -5.80423 0
M  V30 3157 H 306.858 0.295682 -0.693605 0
M  V30 3158 H 309.509 0.0348051 -1.83467 0
M  V30 3159 H 307.891 2.23588 -3.2684 0
M  V30 3160 H 309.065 -0.294856 -4.59856 0
M  V30 3161 H 307.38 -0.108383 -4.16259 0
M  V30 3162 H 309.977 2.62878 -4.65617 0
M  V30 3163 H 310.32 2.91877 -2.96839 0
M  V30 3164 H 310.853 1.39751 -3.72444 0
M  V30 3165 H 307.592 0.379771 -6.54399 0
M  V30 3166 H 307.112 1.8695 -5.69921 0
M  V30 3167 H 308.791 1.65686 -6.25426 0
M  V30 3168 N 308.923 1.53595 0.353017 0
M  V30 3169 C 310.172 1.69603 1.09168 0
M  V30 3170 C 310.485 0.460925 1.90092 0
M  V30 3171 O 311.691 0.501774 2.66823 0
M  V30 3172 C 310.147 2.99872 1.9901 0
M  V30 3173 C 309.755 4.30687 1.23339 0
M  V30 3174 C 311.499 3.25246 2.72792 0
M  V30 3175 C 309.406 5.52036 2.12156 0
M  V30 3176 H 308.336 0.631966 0.411261 0
M  V30 3177 H 310.987 1.80096 0.351802 0
M  V30 3178 H 309.369 2.83212 2.7678 0
M  V30 3179 H 310.543 4.58019 0.505456 0
M  V30 3180 H 308.858 4.11853 0.613663 0
M  V30 3181 H 311.455 4.13095 3.39495 0
M  V30 3182 H 311.798 2.41846 3.38846 0
M  V30 3183 H 312.331 3.42638 2.021 0
M  V30 3184 H 309.07 6.37951 1.50659 0
M  V30 3185 H 308.59 5.28966 2.82764 0
M  V30 3186 H 310.269 5.87313 2.71427 0
M  V30 3187 N 310.401 -0.613514 1.45168 0
M  V30 3188 C 311.649 -1.36997 1.48581 0
M  V30 3189 C 311.97 -1.94589 0.126545 0
M  V30 3190 O 311.24 -1.76816 -0.843372 0
M  V30 3191 H 309.82 -0.508558 0.547154 0
M  V30 3192 H 312.482 -0.720853 1.81079 0
M  V30 3193 H 311.578 -2.1924 2.22127 0
M  V30 3194 N 311.879 -1.3236 -0.855495 0
M  V30 3195 C 312.826 -1.21225 -1.964 0
M  V30 3196 C 313.796 -0.0946204 -1.6583 0
M  V30 3197 O 314.981 -0.27002 -1.8888 0
M  V30 3198 C 312.121 -0.940419 -3.32039 0
M  V30 3199 C 311.234 -2.14276 -3.75113 0
M  V30 3200 C 310.369 -1.80648 -4.9954 0
M  V30 3201 C 309.408 -2.97208 -5.35102 0
M  V30 3202 N 308.545 -2.63678 -6.50706 0
M  V30 3203 H 313.385 -2.16042 -2.05255 0
M  V30 3204 H 310.922 -1.07451 -1.00463 0
M  V30 3205 H 312.88 -0.763311 -4.10158 0
M  V30 3206 H 311.51 -0.0290413 -3.22787 0
M  V30 3207 H 310.562 -2.43017 -2.92655 0
M  V30 3208 H 311.874 -3.01468 -3.97389 0
M  V30 3209 H 311.028 -1.59484 -5.85363 0
M  V30 3210 H 309.767 -0.906678 -4.79198 0
M  V30 3211 H 308.772 -3.19004 -4.47791 0
M  V30 3212 H 309.997 -3.87918 -5.57401 0
M  V30 3213 H 307.943 -1.76238 -6.31883 0
M  V30 3214 H 307.86 -3.444 -6.72997 0
M  V30 3215 H 309.128 -2.45942 -7.39684 0
M  V30 3216 N 313.357 1.07166 -1.15556 0
M  V30 3217 C 314.773 1.31899 -0.898603 0
M  V30 3218 C 314.973 1.96333 0.453383 0
M  V30 3219 O 314.029 2.22438 1.19489 0
M  V30 3220 C 315.342 2.20826 -2.04099 0
M  V30 3221 C 316.89 2.34269 -2.07574 0
M  V30 3222 C 317.365 3.26546 -3.21141 0
M  V30 3223 N 318.856 3.34127 -3.20801 0
M  V30 3224 C 319.591 4.05595 -4.05315 0
M  V30 3225 N 319.087 4.79661 -4.99897 0
M  V30 3226 N 320.88 4.01555 -3.93332 0
M  V30 3227 H 313.031 0.637302 -2.02613 0
M  V30 3228 H 315.294 0.343468 -0.883591 0
M  V30 3229 H 315 1.80744 -3.01703 0
M  V30 3230 H 314.874 3.21364 -1.97496 0
M  V30 3231 H 317.261 2.73603 -1.10568 0
M  V30 3232 H 317.342 1.33429 -2.18244 0
M  V30 3233 H 316.986 2.87931 -4.184 0
M  V30 3234 H 316.916 4.27345 -3.07708 0
M  V30 3235 H 319.407 2.81336 -2.52306 0
M  V30 3236 H 319.72 5.31694 -5.60822 0
M  V30 3237 H 318.065 4.78671 -5.03884 0
M  V30 3238 H 321.256 3.42806 -3.18751 0
M  V30 3239 H 321.429 4.56987 -4.5942 0
M  V30 3240 N 314.835 0.952656 1.25548 0
M  V30 3241 C 316.083 0.605176 1.92826 0
M  V30 3242 C 316.404 -0.860261 1.74999 0
M  V30 3243 O 315.674 -1.6125 1.11244 0
M  V30 3244 H 314.254 0.220832 0.713612 0
M  V30 3245 H 316.916 1.21047 1.52754 0
M  V30 3246 H 316.012 0.832798 3.00784 0
M  V30 3247 N 316.313 -1.40141 0.720998 0
M  V30 3248 C 317.276 -2.29058 0.0805834 0
M  V30 3249 C 318.276 -1.45632 -0.681758 0
M  V30 3250 O 319.466 -1.6648 -0.512856 0
M  V30 3251 C 316.598 -3.28925 -0.895593 0
M  V30 3252 H 317.791 -2.87191 0.863793 0
M  V30 3253 H 315.344 -1.48553 0.485975 0
M  V30 3254 H 316.079 -2.75822 -1.70566 0
M  V30 3255 H 315.864 -3.90519 -0.351766 0
M  V30 3256 H 317.354 -3.95494 -1.34069 0
M  V30 3257 N 317.792 -0.46758 -1.50504 0
M  V30 3258 C 318.702 0.33382 -2.32213 0
M  V30 3259 C 319.718 0.999323 -1.42441 0
M  V30 3260 O 320.894 0.988068 -1.75497 0
M  V30 3261 C 317.959 1.4035 -3.17022 0
M  V30 3262 C 317.02 0.754961 -4.2261 0
M  V30 3263 C 316.253 1.77367 -5.03365 0
M  V30 3264 O 316.476 2.99976 -4.8515 0
M  V30 3265 O 315.41 1.34744 -5.86624 0
M  V30 3266 H 319.236 -0.334067 -3.01857 0
M  V30 3267 H 316.821 -0.229496 -1.47627 0
M  V30 3268 H 318.703 2.02318 -3.69656 0
M  V30 3269 H 317.378 2.05492 -2.5011 0
M  V30 3270 H 316.285 0.0964244 -3.73976 0
M  V30 3271 H 317.618 0.146545 -4.91982 0
M  V30 3272 N 319.27 1.56325 -0.20005 0
M  V30 3273 C 320.5 2.01811 0.442232 0
M  V30 3274 C 320.908 1.07932 1.55394 0
M  V30 3275 O 320.251 0.0772685 1.83537 0
M  V30 3276 C 320.313 3.43685 1.05457 0
M  V30 3277 C 319.977 4.56928 0.0809833 0
M  V30 3278 C 320.974 5.15009 -0.711471 0
M  V30 3279 C 318.659 5.0229 -0.0315364 0
M  V30 3280 C 320.653 6.16904 -1.60336 0
M  V30 3281 C 318.34 6.04028 -0.926981 0
M  V30 3282 C 319.338 6.6121 -1.71146 0
M  V30 3283 O 319.026 7.60971 -2.59189 0
M  V30 3284 H 318.758 0.666173 0.114848 0
M  V30 3285 H 321.312 2.03085 -0.307511 0
M  V30 3286 H 319.542 3.39413 1.85299 0
M  V30 3287 H 321.231 3.72948 1.60201 0
M  V30 3288 H 321.997 4.80827 -0.634873 0
M  V30 3289 H 317.876 4.57476 0.568902 0
M  V30 3290 H 321.42 6.61464 -2.21611 0
M  V30 3291 H 317.317 6.37634 -1.00468 0
M  V30 3292 H 318.085 7.7841 -2.53023 0
M  V30 3293 N 320.748 -0.0735177 1.57428 0
M  V30 3294 C 321.996 -0.771472 1.86796 0
M  V30 3295 C 322.317 -1.78201 0.791804 0
M  V30 3296 O 321.587 -1.95074 -0.179718 0
M  V30 3297 H 320.167 -0.28791 0.689287 0
M  V30 3298 H 322.829 -0.0500161 1.94836 0
M  V30 3299 H 321.925 -1.28874 2.8425 0
M  V30 3300 N 322.226 -1.5378 -0.344866 0
M  V30 3301 C 323.472 -1.71216 -1.08687 0
M  V30 3302 C 323.805 -0.473281 -1.88345 0
M  V30 3303 O 323.08 0.52968 -1.87149 0
M  V30 3304 C 323.363 -2.97486 -2.02914 0
M  V30 3305 C 323.216 -4.31579 -1.26727 0
M  V30 3306 C 324.535 -3.19422 -3.0275 0
M  V30 3307 H 321.654 -0.62301 -0.393735 0
M  V30 3308 H 324.296 -1.8645 -0.365563 0
M  V30 3309 H 322.446 -2.84629 -2.64421 0
M  V30 3310 H 324.118 -4.56284 -0.67845 0
M  V30 3311 H 322.361 -4.30049 -0.569273 0
M  V30 3312 H 323.032 -5.16106 -1.95803 0
M  V30 3313 H 325.508 -3.316 -2.51357 0
M  V30 3314 H 324.384 -4.09169 -3.65885 0
M  V30 3315 H 324.645 -2.35656 -3.74057 0
M  V30 3316 N 323.704 0.605807 -1.45491 0
M  V30 3317 C 325.12 0.926751 -1.29936 0
M  V30 3318 C 325.32 1.99896 -0.253706 0
M  V30 3319 O 324.376 2.50038 0.351737 0
M  V30 3320 C 325.689 1.36599 -2.67883 0
M  V30 3321 C 327.237 1.4801 -2.75793 0
M  V30 3322 C 327.712 1.95309 -4.14268 0
M  V30 3323 N 329.203 2.0254 -4.16571 0
M  V30 3324 C 329.938 2.40363 -5.20589 0
M  V30 3325 N 329.434 2.77143 -6.34952 0
M  V30 3326 N 331.227 2.40718 -5.07948 0
M  V30 3327 H 323.378 -0.102862 -2.12151 0
M  V30 3328 H 325.641 0.016639 -0.947854 0
M  V30 3329 H 325.347 0.652306 -3.45598 0
M  V30 3330 H 325.221 2.33215 -2.96463 0
M  V30 3331 H 327.608 2.1847 -1.98381 0
M  V30 3332 H 327.689 0.497041 -2.50925 0
M  V30 3333 H 327.333 1.25436 -4.92167 0
M  V30 3334 H 327.263 2.94532 -4.3653 0
M  V30 3335 H 329.754 1.76699 -3.34045 0
M  V30 3336 H 330.067 3.0489 -7.10114 0
M  V30 3337 H 328.412 2.74834 -6.3835 0
M  V30 3338 H 331.603 2.11392 -4.1765 0
M  V30 3339 H 331.776 2.69869 -5.89131 0
M  V30 3340 N 325.182 1.32811 0.848464 0
M  V30 3341 C 326.43 1.23479 1.59991 0
M  V30 3342 C 326.751 -0.201853 1.93952 0
M  V30 3343 O 326.021 -1.12818 1.60153 0
M  V30 3344 H 324.601 0.454034 0.593179 0
M  V30 3345 H 327.263 1.66412 1.01455 0
M  V30 3346 H 326.359 1.82178 2.53412 0
M  V30 3347 N 326.66 -1.06551 1.16123 0
M  V30 3348 C 327.89 -1.8274 0.963838 0
M  V30 3349 C 328.298 -1.82712 -0.491228 0
M  V30 3350 O 327.641 -1.24294 -1.35265 0
M  V30 3351 C 327.703 -3.3065 1.41106 0
M  V30 3352 C 327.367 -3.54384 2.88549 0
M  V30 3353 C 328.364 -3.4765 3.86569 0
M  V30 3354 C 326.049 -3.81789 3.26408 0
M  V30 3355 C 328.043 -3.67982 5.2045 0
M  V30 3356 C 325.73 -4.01772 4.60459 0
M  V30 3357 C 326.728 -3.94866 5.57288 0
M  V30 3358 O 326.416 -4.14306 6.88916 0
M  V30 3359 H 326.148 -0.583136 0.341948 0
M  V30 3360 H 328.702 -1.35351 1.54497 0
M  V30 3361 H 326.932 -3.78887 0.773394 0
M  V30 3362 H 328.621 -3.88324 1.1815 0
M  V30 3363 H 329.387 -3.2647 3.58667 0
M  V30 3364 H 325.266 -3.86276 2.51619 0
M  V30 3365 H 328.81 -3.62507 5.96015 0
M  V30 3366 H 324.707 -4.2244 4.88072 0
M  V30 3367 H 325.475 -4.31609 6.95454 0
M  V30 3368 N 328.138 -0.959301 -1.25041 0
M  V30 3369 C 329.387 -0.612254 -1.92183 0
M  V30 3370 C 329.7 0.855347 -1.75907 0
M  V30 3371 O 330.906 1.31256 -2.37664 0
M  V30 3372 C 329.362 -1.04435 -3.44414 0
M  V30 3373 C 328.97 -2.53482 -3.69393 0
M  V30 3374 C 330.714 -0.770055 -4.17457 0
M  V30 3375 C 328.621 -2.90468 -5.15153 0
M  V30 3376 H 327.551 -0.225279 -0.719559 0
M  V30 3377 H 330.202 -1.16438 -1.41825 0
M  V30 3378 H 328.584 -0.4206 -3.9376 0
M  V30 3379 H 329.758 -3.20916 -3.30681 0
M  V30 3380 H 328.073 -2.78432 -3.0962 0
M  V30 3381 H 330.67 -1.02249 -5.24832 0
M  V30 3382 H 331.013 0.293611 -4.15263 0
M  V30 3383 H 331.546 -1.35437 -3.74034 0
M  V30 3384 H 328.285 -3.95871 -5.22462 0
M  V30 3385 H 327.805 -2.27711 -5.54894 0
M  V30 3386 H 329.484 -2.79914 -5.83315 0
M  V30 3387 N 329.616 1.39756 -0.72842 0
M  V30 3388 C 330.844 2.04948 -0.283528 0
M  V30 3389 C 331.259 1.54908 1.0793 0
M  V30 3390 O 330.616 0.711135 1.68075 0
M  V30 3391 C 330.667 3.60498 -0.268957 0
M  V30 3392 O 330.388 4.08695 -1.57798 0
M  V30 3393 C 331.889 4.4288 0.192912 0
M  V30 3394 H 329.109 0.659243 -0.125056 0
M  V30 3395 H 331.653 1.78927 -0.990226 0
M  V30 3396 H 329.808 3.85444 0.388801 0
M  V30 3397 H 330.222 5.02977 -1.48709 0
M  V30 3398 H 331.696 5.51791 0.151952 0
M  V30 3399 H 332.173 4.21418 1.23708 0
M  V30 3400 H 332.779 4.23069 -0.435039 0
M  V30 3401 N 331.094 0.475555 1.50254 0
M  V30 3402 C 332.057 -0.305016 2.27161 0
M  V30 3403 C 333.057 -0.916519 1.32123 0
M  V30 3404 O 334.247 -0.785003 1.5551 0
M  V30 3405 C 331.379 -1.43496 3.09227 0
M  V30 3406 H 332.572 0.369511 2.97615 0
M  V30 3407 H 330.125 0.229747 1.54602 0
M  V30 3408 H 330.86 -2.14441 2.43281 0
M  V30 3409 H 330.645 -1.00223 3.79075 0
M  V30 3410 H 332.135 -1.98548 3.67381 0
M  V30 3411 N 332.573 -1.56217 0.208337 0
M  V30 3412 C 333.803 -2.02043 -0.431523 0
M  V30 3413 C 334.211 -1.08755 -1.54819 0
M  V30 3414 O 333.554 -0.0870009 -1.83494 0
M  V30 3415 C 333.616 -3.44239 -1.03633 0
M  V30 3416 C 333.28 -4.56965 -0.0567502 0
M  V30 3417 C 334.277 -5.14624 0.738773 0
M  V30 3418 C 331.962 -5.02266 0.0581736 0
M  V30 3419 C 333.956 -6.16045 1.63605 0
M  V30 3420 C 331.643 -6.03528 0.959001 0
M  V30 3421 C 332.641 -6.60293 1.7465 0
M  V30 3422 O 332.329 -7.59586 2.6322 0
M  V30 3423 H 332.061 -0.666772 -0.111313 0
M  V30 3424 H 334.615 -2.02919 0.318277 0
M  V30 3425 H 332.845 -3.40391 -1.83497 0
M  V30 3426 H 334.534 -3.73793 -1.58221 0
M  V30 3427 H 335.3 -4.80483 0.660364 0
M  V30 3428 H 331.179 -4.57771 -0.544633 0
M  V30 3429 H 334.723 -6.60279 2.25116 0
M  V30 3430 H 330.62 -6.37092 1.03848 0
M  V30 3431 H 331.388 -7.77057 2.57148 0
M  V30 3432 N 334.051 0.0651679 -1.57465 0
M  V30 3433 C 335.328 0.79644 -1.78651 0
M  V30 3434 C 335.708 1.95454 -0.797566 0
M  V30 3435 O 335.056 2.27882 0.167946 0
M  V30 3436 C 335.266 1.26322 -3.25337 0
M  V30 3437 C 336.614 1.6939 -3.89348 0
M  V30 3438 O 337.638 1.35872 -3.29268 0
M  V30 3439 O 336.497 2.31471 -4.95059 0
M  V30 3440 H 333.591 0.382157 -0.733407 0
M  V30 3441 H 336.137 0.0447311 -1.69641 0
M  V30 3442 H 334.909 0.434859 -3.88876 0
M  V30 3443 H 334.532 2.07604 -3.39096 0
M  V30 3444 N 335.529 1.53961 0.336706 0
M  V30 3445 C 336.492 1.81724 1.39675 0
M  V30 3446 C 337.492 0.688532 1.45313 0
M  V30 3447 O 338.682 0.956829 1.45569 0
M  V30 3448 C 335.814 1.96543 2.78538 0
M  V30 3449 H 337.007 2.76424 1.16318 0
M  V30 3450 H 334.56 1.45478 0.571474 0
M  V30 3451 H 335.295 1.0401 3.07168 0
M  V30 3452 H 335.08 2.78665 2.75841 0
M  V30 3453 H 336.57 2.19516 3.5525 0
M  V30 3454 N 337.007 -0.598083 1.45811 0
M  V30 3455 C 337.917 -1.73632 1.57763 0
M  V30 3456 C 338.933 -1.67763 0.461676 0
M  V30 3457 O 340.109 -1.87949 0.723685 0
M  V30 3458 C 337.174 -3.10114 1.55018 0
M  V30 3459 C 336.235 -3.27364 2.77726 0
M  V30 3460 C 335.468 -4.57334 2.75102 0
M  V30 3461 O 335.691 -5.40258 1.8297 0
M  V30 3462 O 334.625 -4.77502 3.66437 0
M  V30 3463 H 338.451 -1.66498 2.53992 0
M  V30 3464 H 336.036 -0.763308 1.28429 0
M  V30 3465 H 337.918 -3.9141 1.56129 0
M  V30 3466 H 336.593 -3.17718 0.619431 0
M  V30 3467 H 335.5 -2.45619 2.82174 0
M  V30 3468 H 336.833 -3.24641 3.69958 0
M  V30 3469 N 338.485 -1.33259 -0.841409 0
M  V30 3470 C 339.713 -1.27605 -1.62864 0
M  V30 3471 C 340.128 0.153507 -1.88175 0
M  V30 3472 O 339.485 1.09485 -1.46011 0
M  V30 3473 C 339.536 -2.04596 -2.98031 0
M  V30 3474 O 339.257 -3.41975 -2.73834 0
M  V30 3475 C 340.758 -2.06122 -3.92465 0
M  V30 3476 H 337.978 -0.439718 -0.506842 0
M  V30 3477 H 340.522 -1.75591 -1.04824 0
M  V30 3478 H 338.677 -1.60299 -3.5268 0
M  V30 3479 H 339.091 -3.81549 -3.59889 0
M  V30 3480 H 340.565 -2.64451 -4.84531 0
M  V30 3481 H 341.042 -1.05083 -4.26444 0
M  V30 3482 H 341.648 -2.50427 -3.43753 0
M  V30 3483 N 339.963 1.05934 -1.16686 0
M  V30 3484 C 341.211 1.78447 -0.948744 0
M  V30 3485 C 341.532 1.87813 0.524523 0
M  V30 3486 O 340.802 1.38945 1.38098 0
M  V30 3487 H 339.382 0.660971 -0.348033 0
M  V30 3488 H 342.044 1.27947 -1.47022 0
M  V30 3489 H 341.14 2.80394 -1.37061 0
M  V30 3490 N 341.441 0.965919 1.2453 0
M  V30 3491 C 342.351 0.502154 2.29163 0
M  V30 3492 C 343.367 -0.436017 1.68448 0
M  V30 3493 O 344.543 -0.309497 1.99008 0
M  V30 3494 C 341.608 -0.201956 3.46111 0
M  V30 3495 C 340.669 0.775821 4.22232 0
M  V30 3496 C 339.902 0.105217 5.33596 0
M  V30 3497 O 340.125 -1.10683 5.59558 0
M  V30 3498 O 339.059 0.796475 5.96607 0
M  V30 3499 H 342.885 1.37194 2.70946 0
M  V30 3500 H 340.47 0.732875 1.30189 0
M  V30 3501 H 342.352 -0.597564 4.17142 0
M  V30 3502 H 341.027 -1.04673 3.06309 0
M  V30 3503 H 339.934 1.22185 3.53584 0
M  V30 3504 H 341.267 1.58896 4.65846 0
M  V30 3505 N 342.919 -1.39368 0.735821 0
M  V30 3506 C 344.335 -1.54204 0.411492 0
M  V30 3507 C 344.535 -1.70268 -1.07755 0
M  V30 3508 O 343.591 -1.70364 -1.86366 0
M  V30 3509 C 344.904 -2.75925 1.19523 0
M  V30 3510 C 346.452 -2.89761 1.18354 0
M  V30 3511 C 346.927 -4.14421 1.94986 0
M  V30 3512 N 348.418 -4.21462 1.92156 0
M  V30 3513 C 349.153 -5.16871 2.48258 0
M  V30 3514 N 348.649 -6.18063 3.13001 0
M  V30 3515 N 350.442 -5.09093 2.38287 0
M  V30 3516 H 342.593 -1.27189 1.70108 0
M  V30 3517 H 344.856 -0.616517 0.720147 0
M  V30 3518 H 344.562 -2.70401 2.24892 0
M  V30 3519 H 344.436 -3.68614 0.800222 0
M  V30 3520 H 346.823 -2.94777 0.137975 0
M  V30 3521 H 346.904 -1.98133 1.61793 0
M  V30 3522 H 346.548 -4.10166 2.99543 0
M  V30 3523 H 346.478 -5.05095 1.48953 0
M  V30 3524 H 348.969 -3.48979 1.44991 0
M  V30 3525 H 349.282 -6.87326 3.53275 0
M  V30 3526 H 347.627 -6.18448 3.17091 0
M  V30 3527 H 350.818 -4.28973 1.8735 0
M  V30 3528 H 350.991 -5.83272 2.82308 0
M  V30 3529 N 344.397 -0.483516 -1.5 0
M  V30 3530 C 345.344 0.304164 -2.28787 0
M  V30 3531 C 346.314 0.976114 -1.34392 0
M  V30 3532 O 347.499 0.986156 -1.63339 0
M  V30 3533 C 344.639 1.37298 -3.16612 0
M  V30 3534 C 343.752 0.714561 -4.26049 0
M  V30 3535 C 342.887 1.76232 -5.01114 0
M  V30 3536 C 341.926 1.08483 -6.0241 0
M  V30 3537 N 341.063 2.076 -6.70706 0
M  V30 3538 H 345.903 -0.373981 -2.95644 0
M  V30 3539 H 343.44 -0.196275 -1.45785 0
M  V30 3540 H 345.398 2.00445 -3.65893 0
M  V30 3541 H 344.028 2.02012 -2.51776 0
M  V30 3542 H 343.08 -0.0297798 -3.80388 0
M  V30 3543 H 344.392 0.180383 -4.98474 0
M  V30 3544 H 343.546 2.46929 -5.54176 0
M  V30 3545 H 342.285 2.33033 -4.28424 0
M  V30 3546 H 341.29 0.363545 -5.48597 0
M  V30 3547 H 342.515 0.523551 -6.77079 0
M  V30 3548 H 340.461 2.63394 -6.00799 0
M  V30 3549 H 340.378 1.59201 -7.39047 0
M  V30 3550 H 341.646 2.77639 -7.2838 0
M  V30 3551 N 345.875 1.56104 -0.216619 0
M  V30 3552 C 347.121 1.99219 0.410301 0
M  V30 3553 C 347.476 1.10169 1.57735 0
M  V30 3554 O 346.769 0.150598 1.91007 0
M  V30 3555 C 346.963 3.45923 0.898464 0
M  V30 3556 C 346.792 4.49163 -0.219748 0
M  V30 3557 C 345.562 5.00642 -0.684516 0
M  V30 3558 C 347.76 5.03751 -1.03629 0
M  V30 3559 N 345.742 5.87579 -1.7783 0
M  V30 3560 C 347.113 5.87566 -1.97904 0
M  V30 3561 C 349.168 4.86128 -1.07629 0
M  V30 3562 C 347.871 6.5564 -2.95851 0
M  V30 3563 C 349.897 5.54958 -2.04392 0
M  V30 3564 C 349.259 6.38536 -2.97407 0
M  V30 3565 H 345.358 0.773206 0.11695 0
M  V30 3566 H 347.942 1.9193 -0.327258 0
M  V30 3567 H 346.113 3.53669 1.6054 0
M  V30 3568 H 347.845 3.75963 1.49779 0
M  V30 3569 H 344.6 4.72807 -0.27399 0
M  V30 3570 H 345.024 6.3575 -2.32705 0
M  V30 3571 H 349.666 4.21168 -0.371099 0
M  V30 3572 H 347.384 7.19785 -3.67335 0
M  V30 3573 H 350.97 5.43289 -2.08154 0
M  V30 3574 H 349.85 6.90858 -3.71059 0
M  V30 3575 N 347.353 -0.0568162 1.57498 0
M  V30 3576 C 348.769 -0.411933 1.54192 0
M  V30 3577 C 348.969 -1.78287 0.938942 0
M  V30 3578 O 348.025 -2.46483 0.547919 0
M  V30 3579 C 349.338 -0.339244 2.9878 0
M  V30 3580 C 350.886 -0.418348 3.10192 0
M  V30 3581 C 351.361 -0.375407 4.56459 0
M  V30 3582 N 352.852 -0.435038 4.61153 0
M  V30 3583 C 353.587 -0.424265 5.71828 0
M  V30 3584 N 353.083 -0.367418 6.91825 0
M  V30 3585 N 354.876 -0.471938 5.60115 0
M  V30 3586 H 347.027 0.840684 1.95055 0
M  V30 3587 H 349.29 0.316987 0.893433 0
M  V30 3588 H 348.996 0.601742 3.46514 0
M  V30 3589 H 348.87 -1.14371 3.59443 0
M  V30 3590 H 351.257 -1.34976 2.62422 0
M  V30 3591 H 351.338 0.414962 2.52412 0
M  V30 3592 H 350.982 0.552219 5.04889 0
M  V30 3593 H 350.912 -1.22645 5.12119 0
M  V30 3594 H 353.403 -0.482612 3.74806 0
M  V30 3595 H 353.716 -0.363535 7.71944 0
M  V30 3596 H 352.061 -0.333879 6.94198 0
M  V30 3597 H 355.252 -0.514145 4.65268 0
M  V30 3598 H 355.425 -0.460073 6.46365 0
M  V30 3599 N 348.832 -1.54138 -0.328536 0
M  V30 3600 C 350.078 -1.73297 -1.06488 0
M  V30 3601 C 350.433 -0.497958 -1.85844 0
M  V30 3602 O 349.726 0.509591 -1.84699 0
M  V30 3603 C 349.92 -2.9457 -2.02393 0
M  V30 3604 C 349.749 -4.29747 -1.32467 0
M  V30 3605 C 348.519 -4.93987 -1.06324 0
M  V30 3606 C 350.717 -5.08903 -0.743137 0
M  V30 3607 N 348.699 -6.13005 -0.331359 0
M  V30 3608 C 350.07 -6.19836 -0.142602 0
M  V30 3609 C 352.125 -4.93699 -0.64546 0
M  V30 3610 C 350.828 -7.17224 0.546125 0
M  V30 3611 C 352.854 -5.91393 0.0295558 0
M  V30 3612 C 352.216 -7.01674 0.619056 0
M  V30 3613 H 348.315 -0.687017 -0.373539 0
M  V30 3614 H 350.899 -1.91589 -0.346659 0
M  V30 3615 H 349.07 -2.77752 -2.71493 0
M  V30 3616 H 350.802 -3.0238 -2.68977 0
M  V30 3617 H 347.557 -4.53824 -1.35428 0
M  V30 3618 H 347.981 -6.76997 0.0202939 0
M  V30 3619 H 352.623 -4.08589 -1.08695 0
M  V30 3620 H 350.341 -8.01896 0.999459 0
M  V30 3621 H 353.927 -5.81706 0.104705 0
M  V30 3622 H 352.807 -7.75971 1.13309 0
M  V30 3623 N 350.31 0.590341 -1.46126 0
M  V30 3624 C 351.557 1.34882 -1.5104 0
M  V30 3625 C 351.885 1.93849 -0.159021 0
M  V30 3626 O 351.14 1.76544 0.844436 0
M  V30 3627 C 351.439 2.5032 -2.55097 0
M  V30 3628 C 351.105 2.09394 -3.99331 0
M  V30 3629 C 349.767 1.97947 -4.38601 0
M  V30 3630 C 352.119 1.77712 -4.89967 0
M  V30 3631 C 349.447 1.53065 -5.66381 0
M  V30 3632 C 351.799 1.34312 -6.18177 0
M  V30 3633 C 350.463 1.21436 -6.56361 0
M  V30 3634 H 349.733 0.493568 -0.552695 0
M  V30 3635 H 352.38 0.665539 -1.79563 0
M  V30 3636 H 350.685 3.24062 -2.20207 0
M  V30 3637 H 352.382 3.08541 -2.56132 0
M  V30 3638 H 348.972 2.19235 -3.68285 0
M  V30 3639 H 353.156 1.85445 -4.60352 0
M  V30 3640 H 348.412 1.41733 -5.94745 0
M  V30 3641 H 352.586 1.08849 -6.87841 0
M  V30 3642 H 350.213 0.864345 -7.5527 0
M  V30 3643 N 351.788 1.33704 0.83433 0
M  V30 3644 C 353.013 1.28615 1.62705 0
M  V30 3645 C 353.438 -0.139242 1.87584 0
M  V30 3646 O 352.796 -1.09734 1.4432 0
M  V30 3647 C 352.844 2.07139 2.95171 0
M  V30 3648 O 351.948 1.4331 3.86699 0
M  V30 3649 H 351.289 0.44226 0.49528 0
M  V30 3650 H 353.819 1.76335 1.03766 0
M  V30 3651 H 353.829 2.18073 3.44831 0
M  V30 3652 H 352.504 3.10779 2.76386 0
M  V30 3653 H 351.081 1.4105 3.45195 0
M  V30 3654 N 353.266 -1.05314 1.17247 0
M  V30 3655 C 354.512 -1.78557 0.961513 0
M  V30 3656 C 354.845 -1.87419 -0.508697 0
M  V30 3657 O 354.12 -1.37307 -1.37757 0
M  V30 3658 C 354.403 -3.22514 1.60176 0
M  V30 3659 C 354.256 -3.21673 3.14399 0
M  V30 3660 C 355.575 -4.20318 1.30463 0
M  V30 3661 H 352.694 -0.6482 0.350723 0
M  V30 3662 H 355.336 -1.23102 1.44727 0
M  V30 3663 H 353.486 -3.69867 1.18871 0
M  V30 3664 H 355.158 -2.82405 3.64753 0
M  V30 3665 H 353.401 -2.60048 3.47214 0
M  V30 3666 H 354.072 -4.23271 3.54324 0
M  V30 3667 H 356.548 -3.81454 1.66229 0
M  V30 3668 H 355.424 -5.19289 1.77848 0
M  V30 3669 H 355.685 -4.41526 0.22521 0
M  V30 3670 N 354.744 -0.972509 -1.24016 0
M  V30 3671 C 356.155 -0.67517 -1.74064 0
M  V30 3672 C 356.506 0.808939 -1.78747 0
M  V30 3673 O 355.631 1.63286 -1.42009 0
M  V30 3674 C 356.226 -1.21889 -3.16115 0
M  V30 3675 C 354.785 -0.971358 -3.6365 0
M  V30 3676 C 353.932 -1.35134 -2.42145 0
M  V30 3677 H 356.883 -1.14727 -1.09651 0
M  V30 3678 H 356.904 -0.587489 -3.75937 0
M  V30 3679 H 356.416 -2.29906 -3.12674 0
M  V30 3680 H 354.517 0.0930686 -3.72484 0
M  V30 3681 H 354.63 -1.62039 -4.50866 0
M  V30 3682 H 352.994 -0.769751 -2.4279 0
M  V30 3683 H 353.777 -2.4411 -2.41381 0
M  V30 3684 N 356.222 1.38976 -0.743202 0
M  V30 3685 C 357.47 1.99948 -0.29417 0
M  V30 3686 C 357.791 1.59279 1.12495 0
M  V30 3687 O 357.061 0.844808 1.76748 0
M  V30 3688 H 355.641 0.739473 -0.105774 0
M  V30 3689 H 358.303 1.699 -0.954986 0
M  V30 3690 H 357.399 3.10142 -0.349056 0
M  V30 3691 N 357.7 0.491464 1.49741 0
M  V30 3692 C 358.977 -0.118984 1.95238 0
M  V30 3693 C 359.357 -1.55044 1.43264 0
M  V30 3694 O 358.705 -2.19287 0.642287 0
M  V30 3695 C 358.915 -0.0414187 3.48975 0
M  V30 3696 C 360.263 -0.220133 4.24029 0
M  V30 3697 O 361.287 -0.117055 3.56008 0
M  V30 3698 O 360.146 -0.430567 5.44801 0
M  V30 3699 H 357.24 -0.100536 0.820866 0
M  V30 3700 H 359.786 0.553322 1.60426 0
M  V30 3701 H 358.558 0.957214 3.79412 0
M  V30 3702 H 358.181 -0.754292 3.9038 0
M  V30 3703 N 359.178 -1.55987 0.224894 0
M  V30 3704 C 360.589 -1.84553 -0.282345 0
M  V30 3705 C 360.94 -1.14634 -1.59227 0
M  V30 3706 O 360.065 -0.417155 -2.12341 0
M  V30 3707 C 360.66 -3.348 -0.519062 0
M  V30 3708 C 359.219 -3.63671 -0.970604 0
M  V30 3709 C 358.366 -2.77277 -0.0355261 0
M  V30 3710 H 361.317 -1.52245 0.448006 0
M  V30 3711 H 361.338 -3.55187 -1.36463 0
M  V30 3712 H 360.85 -3.8566 0.43449 0
M  V30 3713 H 358.951 -3.1827 -1.9374 0
M  V30 3714 H 359.064 -4.71631 -0.842698 0
M  V30 3715 H 357.428 -2.48846 -0.542927 0
M  V30 3716 H 358.211 -3.30937 0.913003 0
M  V30 3717 N 360.656 0.0484629 -1.57525 0
M  V30 3718 C 361.881 0.759177 -1.93006 0
M  V30 3719 C 362.306 1.69125 -0.823317 0
M  V30 3720 O 361.664 1.79931 0.222364 0
M  V30 3721 C 361.712 1.50899 -3.27509 0
M  V30 3722 O 360.816 2.62112 -3.18388 0
M  V30 3723 H 360.157 0.205564 -0.631379 0
M  V30 3724 H 362.687 0.00972959 -2.04598 0
M  V30 3725 H 362.697 1.88317 -3.6194 0
M  V30 3726 H 361.372 0.825269 -4.0763 0
M  V30 3727 H 359.949 2.27379 -2.95556 0
M  V30 3728 N 362.134 1.5431 0.320358 0
M  V30 3729 C 363.081 1.83918 1.39438 0
M  V30 3730 C 364.051 0.686525 1.51248 0
M  V30 3731 O 365.236 0.933269 1.66417 0
M  V30 3732 C 362.376 2.075 2.75749 0
M  V30 3733 C 361.489 3.35177 2.72544 0
M  V30 3734 C 360.624 3.48704 4.00723 0
M  V30 3735 C 359.663 4.70244 3.91838 0
M  V30 3736 N 358.8 4.80679 5.11754 0
M  V30 3737 H 363.64 2.75544 1.13489 0
M  V30 3738 H 361.177 1.36459 0.549309 0
M  V30 3739 H 363.135 2.19166 3.54996 0
M  V30 3740 H 361.765 1.19163 3 0
M  V30 3741 H 360.817 3.32233 1.85271 0
M  V30 3742 H 362.129 4.24534 2.61863 0
M  V30 3743 H 361.283 3.59928 4.88402 0
M  V30 3744 H 360.022 2.57445 4.14214 0
M  V30 3745 H 359.027 4.59072 3.02544 0
M  V30 3746 H 360.252 5.6289 3.7991 0
M  V30 3747 H 358.198 3.92337 5.25745 0
M  V30 3748 H 358.115 5.64007 5.0342 0
M  V30 3749 H 359.383 4.96239 6.01138 0
M  V30 3750 N 363.613 -0.582584 1.46437 0
M  V30 3751 C 365.024 -1.1647 1.45916 0
M  V30 3752 C 365.375 -1.95177 0.200077 0
M  V30 3753 O 364.5 -2.04874 -0.696819 0
M  V30 3754 C 365.095 -2.11885 2.64367 0
M  V30 3755 C 363.654 -2.65421 2.66887 0
M  V30 3756 C 362.801 -1.41294 2.38603 0
M  V30 3757 H 365.752 -0.370514 1.54314 0
M  V30 3758 H 365.773 -2.9535 2.39892 0
M  V30 3759 H 365.285 -1.54573 3.5599 0
M  V30 3760 H 363.386 -3.26602 1.79338 0
M  V30 3761 H 363.499 -3.08147 3.66854 0
M  V30 3762 H 361.863 -1.71109 1.88663 0
M  V30 3763 H 362.646 -0.858125 3.32402 0
M  V30 3764 N 365.091 -1.34144 -0.827227 0
M  V30 3765 C 366.338 -1.26258 -1.58319 0
M  V30 3766 C 366.666 0.168595 -1.93768 0
M  V30 3767 O 365.921 1.12877 -1.59866 0
M  V30 3768 C 366.22 -2.09464 -2.89585 0
M  V30 3769 C 365.886 -3.58521 -2.73448 0
M  V30 3770 C 364.548 -3.99155 -2.68754 0
M  V30 3771 C 366.9 -4.53189 -2.57428 0
M  V30 3772 C 364.228 -5.32656 -2.45957 0
M  V30 3773 C 366.58 -5.86864 -2.36163 0
M  V30 3774 C 365.244 -6.26667 -2.29879 0
M  V30 3775 H 364.514 -0.462013 -0.579332 0
M  V30 3776 H 367.161 -1.65845 -0.95748 0
M  V30 3777 H 365.466 -1.62692 -3.56425 0
M  V30 3778 H 367.163 -2.00712 -3.47154 0
M  V30 3779 H 363.753 -3.26264 -2.77939 0
M  V30 3780 H 367.937 -4.22696 -2.60081 0
M  V30 3781 H 363.193 -5.62519 -2.39546 0
M  V30 3782 H 367.367 -6.59813 -2.22754 0
M  V30 3783 H 364.994 -7.30049 -2.11975 0
M  V30 3784 N 366.569 1.04691 -1.17803 0
M  V30 3785 C 367.479 2.16057 -0.914151 0
M  V30 3786 C 368.495 1.73589 0.119503 0
M  V30 3787 O 369.671 2.01308 -0.0609468 0
M  V30 3788 C 366.736 3.4394 -0.436603 0
M  V30 3789 C 365.797 4.00825 -1.53746 0
M  V30 3790 C 365.03 5.22604 -1.0826 0
M  V30 3791 O 365.253 5.70367 0.0612244 0
M  V30 3792 O 364.187 5.7186 -1.87775 0
M  V30 3793 H 368.013 2.41169 -1.84584 0
M  V30 3794 H 365.598 1.1453 -0.959334 0
M  V30 3795 H 367.48 4.21024 -0.178057 0
M  V30 3796 H 366.155 3.20316 0.466869 0
M  V30 3797 H 365.062 3.25158 -1.84995 0
M  V30 3798 H 366.395 4.28778 -2.41683 0
M  V30 3799 N 368.047 0.979072 1.23499 0
M  V30 3800 C 369.324 0.563674 1.87302 0
M  V30 3801 C 369.704 -0.959199 1.88049 0
M  V30 3802 O 369.052 -1.83535 1.36114 0
M  V30 3803 C 369.262 1.16822 3.28867 0
M  V30 3804 C 370.61 1.26014 4.0547 0
M  V30 3805 O 371.634 1.12158 3.38082 0
M  V30 3806 O 370.493 1.48044 5.26066 0
M  V30 3807 H 367.587 0.189602 0.804972 0
M  V30 3808 H 370.133 1.07407 1.31384 0
M  V30 3809 H 368.905 2.21049 3.22883 0
M  V30 3810 H 368.528 0.642564 3.92373 0
M  V30 3811 N 369.525 -1.3858 0.750561 0
M  V30 3812 C 370.435 -2.34278 0.122825 0
M  V30 3813 C 371.451 -1.59116 -0.704131 0
M  V30 3814 O 372.627 -1.91326 -0.628987 0
M  V30 3815 C 369.692 -3.38221 -0.762086 0
M  V30 3816 C 368.753 -4.29227 0.078896 0
M  V30 3817 C 367.986 -5.28205 -0.763874 0
M  V30 3818 O 368.209 -5.34112 -2.00201 0
M  V30 3819 O 367.143 -6.01618 -0.18428 0
M  V30 3820 H 370.969 -2.89649 0.913088 0
M  V30 3821 H 368.554 -1.40374 0.511417 0
M  V30 3822 H 370.436 -4.01872 -1.26793 0
M  V30 3823 H 369.111 -2.85211 -1.5309 0
M  V30 3824 H 368.018 -3.68747 0.630621 0
M  V30 3825 H 369.351 -4.85484 0.810289 0
M  V30 3826 N 371.003 -0.499398 -1.49478 0
M  V30 3827 C 372.228 0.044722 -2.07352 0
M  V30 3828 C 372.653 1.30207 -1.35749 0
M  V30 3829 O 372.011 1.76516 -0.413732 0
M  V30 3830 C 372.059 0.283013 -3.59488 0
M  V30 3831 O 371.163 1.35804 -3.89398 0
M  V30 3832 H 370.504 -0.0255147 -0.66351 0
M  V30 3833 H 373.034 -0.698561 -1.92305 0
M  V30 3834 H 373.044 0.515007 -4.04737 0
M  V30 3835 H 371.719 -0.635636 -4.11014 0
M  V30 3836 H 370.296 1.11113 -3.55961 0
M  V30 3837 N 372.481 1.55866 -0.233164 0
M  V30 3838 C 373.414 2.16794 0.712442 0
M  V30 3839 C 374.392 1.1158 1.18273 0
M  V30 3840 O 375.576 1.39897 1.26337 0
M  V30 3841 C 372.703 2.75757 1.96661 0
M  V30 3842 C 371.749 3.93902 1.63533 0
M  V30 3843 S 372.582 5.30223 0.74995 0
M  V30 3844 C 373.738 5.92631 2.01343 0
M  V30 3845 H 373.971 2.96662 0.194617 0
M  V30 3846 H 371.504 1.5439 -0.0177425 0
M  V30 3847 H 373.462 3.10367 2.68668 0
M  V30 3848 H 372.123 1.9586 2.45556 0
M  V30 3849 H 371.316 4.33702 2.56747 0
M  V30 3850 H 370.918 3.60499 0.995804 0
M  V30 3851 H 373.21 6.09312 2.96219 0
M  V30 3852 H 374.153 6.88388 1.65915 0
M  V30 3853 H 374.561 5.21571 2.15925 0
M  V30 3854 N 373.959 -0.0401083 1.57549 0
M  V30 3855 C 374.906 -1.04413 2.05831 0
M  V30 3856 C 375.876 -1.36585 0.945184 0
M  V30 3857 O 377.061 -1.47112 1.21502 0
M  V30 3858 C 374.201 -2.34336 2.53339 0
M  V30 3859 C 373.314 -2.08419 3.78398 0
M  V30 3860 C 372.449 -3.32133 4.14561 0
M  V30 3861 C 371.488 -3.01721 5.3257 0
M  V30 3862 N 370.625 -4.17855 5.64218 0
M  V30 3863 H 375.465 -0.625442 2.91363 0
M  V30 3864 H 373.002 -0.297218 1.44066 0
M  V30 3865 H 374.96 -3.10234 2.78946 0
M  V30 3866 H 373.59 -2.73948 1.7074 0
M  V30 3867 H 372.642 -1.23069 3.59942 0
M  V30 3868 H 373.954 -1.81978 4.64419 0
M  V30 3869 H 373.108 -4.16406 4.41238 0
M  V30 3870 H 371.847 -3.61678 3.2717 0
M  V30 3871 H 370.852 -2.15849 5.05657 0
M  V30 3872 H 372.077 -2.73466 6.21605 0
M  V30 3873 H 370.023 -4.47372 4.79786 0
M  V30 3874 H 369.94 -3.94798 6.44725 0
M  V30 3875 H 371.208 -5.03033 5.95465 0
M  V30 3876 N 375.437 -1.54477 -0.31217 0
M  V30 3877 C 376.853 -1.45442 -0.657185 0
M  V30 3878 C 377.053 -0.63653 -1.91182 0
M  V30 3879 O 376.109 -0.139815 -2.52113 0
M  V30 3880 C 377.422 -2.89287 -0.82058 0
M  V30 3881 C 378.97 -2.9926 -0.917188 0
M  V30 3882 C 379.445 -4.44279 -1.11267 0
M  V30 3883 N 380.936 -4.4794 -1.17914 0
M  V30 3884 C 381.671 -5.57318 -1.34848 0
M  V30 3885 N 381.167 -6.76642 -1.48752 0
M  V30 3886 N 382.96 -5.44986 -1.37647 0
M  V30 3887 H 375.111 -2.06129 0.512313 0
M  V30 3888 H 377.374 -0.933088 0.167485 0
M  V30 3889 H 377.08 -3.51687 0.0302604 0
M  V30 3890 H 376.954 -3.36061 -1.71298 0
M  V30 3891 H 379.341 -2.36981 -1.75852 0
M  V30 3892 H 379.422 -2.558 -0.00101257 0
M  V30 3893 H 379.066 -5.07149 -0.27614 0
M  V30 3894 H 378.996 -4.85359 -2.04289 0
M  V30 3895 H 381.487 -3.61969 -1.08567 0
M  V30 3896 H 381.8 -7.55758 -1.61397 0
M  V30 3897 H 380.145 -6.79529 -1.45828 0
M  V30 3898 H 383.336 -4.50715 -1.26388 0
M  V30 3899 H 383.509 -6.3028 -1.50501 0
M  V30 3900 N 376.915 0.57481 -1.46744 0
M  V30 3901 C 377.878 1.66533 -1.57478 0
M  V30 3902 C 378.878 1.54338 -0.451263 0
M  V30 3903 O 380.068 1.58814 -0.715813 0
M  V30 3904 C 377.2 3.05999 -1.50259 0
M  V30 3905 H 378.393 1.58372 -2.54673 0
M  V30 3906 H 375.946 0.793301 -1.34672 0
M  V30 3907 H 376.681 3.19709 -0.543725 0
M  V30 3908 H 376.466 3.16259 -2.31781 0
M  V30 3909 H 377.956 3.8537 -1.60872 0
M  V30 3910 N 378.394 1.34581 0.820102 0
M  V30 3911 C 379.357 1.2628 1.91275 0
M  V30 3912 C 380.357 0.177344 1.59819 0
M  V30 3913 O 381.547 0.430156 1.68806 0
M  V30 3914 C 378.679 0.950327 3.27386 0
M  V30 3915 H 379.872 2.23421 2.00057 0
M  V30 3916 H 377.425 1.1891 1.0144 0
M  V30 3917 H 378.16 -0.0177938 3.24295 0
M  V30 3918 H 377.945 1.73549 3.51601 0
M  V30 3919 H 379.435 0.917492 4.07396 0
M  V30 3920 N 379.872 -1.04064 1.18357 0
M  V30 3921 C 381.288 -1.2947 0.933258 0
M  V30 3922 C 381.488 -1.97466 -0.401169 0
M  V30 3923 O 380.544 -2.25528 -1.13549 0
M  V30 3924 C 381.857 -2.15337 2.09882 0
M  V30 3925 C 383.405 -2.28683 2.13712 0
M  V30 3926 C 383.88 -3.17917 3.29686 0
M  V30 3927 N 385.371 -3.25504 3.29547 0
M  V30 3928 C 386.106 -3.94706 4.15926 0
M  V30 3929 N 385.602 -4.66239 5.12439 0
M  V30 3930 N 387.395 -3.90986 4.0384 0
M  V30 3931 H 379.546 -0.583359 2.04232 0
M  V30 3932 H 381.809 -0.319921 0.892387 0
M  V30 3933 H 381.515 -1.72682 3.06389 0
M  V30 3934 H 381.389 -3.16015 2.05947 0
M  V30 3935 H 383.776 -2.70575 1.17784 0
M  V30 3936 H 383.857 -1.27596 2.21705 0
M  V30 3937 H 383.501 -2.76736 4.25887 0
M  V30 3938 H 383.431 -4.19036 3.1893 0
M  V30 3939 H 385.922 -2.74547 2.59677 0
M  V30 3940 H 386.235 -5.16638 5.74722 0
M  V30 3941 H 384.58 -4.65143 5.16398 0
M  V30 3942 H 387.771 -3.34234 3.27727 0
M  V30 3943 H 387.944 -4.44646 4.71375 0
M  V30 3944 N 381.35 -0.985608 -1.22978 0
M  V30 3945 C 382.578 -0.675582 -1.95559 0
M  V30 3946 C 382.993 0.758413 -1.72897 0
M  V30 3947 O 382.35 1.51094 -1.02357 0
M  V30 3948 C 382.401 -0.96293 -3.48439 0
M  V30 3949 O 382.122 -2.34057 -3.70336 0
M  V30 3950 C 383.623 -0.669585 -4.38214 0
M  V30 3951 H 380.843 -0.250523 -0.622478 0
M  V30 3952 H 383.387 -1.3184 -1.56328 0
M  V30 3953 H 381.542 -0.366033 -3.85667 0
M  V30 3954 H 381.956 -2.43424 -4.64591 0
M  V30 3955 H 383.43 -0.920967 -5.44263 0
M  V30 3956 H 383.907 0.396383 -4.37408 0
M  V30 3957 H 384.513 -1.2472 -4.06602 0
M  V30 3958 N 382.828 1.3818 -0.7579 0
M  V30 3959 C 384.074 2.0078 -0.325423 0
M  V30 3960 C 384.429 1.59085 1.08211 0
M  V30 3961 O 383.722 0.820394 1.73148 0
M  V30 3962 C 383.916 3.55252 -0.391218 0
M  V30 3963 C 383.745 4.11947 -1.8036 0
M  V30 3964 C 382.515 4.43519 -2.42113 0
M  V30 3965 C 384.713 4.33908 -2.76095 0
M  V30 3966 N 382.695 4.85847 -3.75267 0
M  V30 3967 C 384.066 4.78692 -3.94023 0
M  V30 3968 C 386.121 4.16015 -2.73561 0
M  V30 3969 C 384.824 5.07459 -5.09782 0
M  V30 3970 C 386.85 4.45909 -3.88483 0
M  V30 3971 C 386.212 4.90921 -5.0515 0
M  V30 3972 H 382.311 0.764215 -0.165831 0
M  V30 3973 H 384.895 1.67724 -0.988776 0
M  V30 3974 H 383.066 3.87646 0.241886 0
M  V30 3975 H 384.798 4.04653 0.061989 0
M  V30 3976 H 381.553 4.32113 -1.93842 0
M  V30 3977 H 381.977 5.11339 -4.4369 0
M  V30 3978 H 386.619 3.80399 -1.84544 0
M  V30 3979 H 384.337 5.4197 -5.99412 0
M  V30 3980 H 387.923 4.33666 -3.87847 0
M  V30 3981 H 386.803 5.1361 -5.92599 0
M  V30 3982 N 384.306 0.507319 1.49211 0
M  V30 3983 C 385.583 -0.0982702 1.95353 0
M  V30 3984 C 385.963 -1.53516 1.449 0
M  V30 3985 O 385.311 -2.18594 0.66551 0
M  V30 3986 C 385.521 -0.00440283 3.49 0
M  V30 3987 C 386.869 -0.175147 4.24239 0
M  V30 3988 O 387.893 -0.0792891 3.56112 0
M  V30 3989 O 386.752 -0.37276 5.45227 0
M  V30 3990 H 383.846 -0.0918236 0.821887 0
M  V30 3991 H 386.392 0.570307 1.5983 0
M  V30 3992 H 385.164 0.997402 3.78375 0
M  V30 3993 H 384.787 -0.712845 3.91158 0
M  V30 3994 N 385.784 -1.5574 0.241426 0
M  V30 3995 C 387.195 -1.84842 -0.262755 0
M  V30 3996 C 387.546 -1.16317 -1.58003 0
M  V30 3997 O 386.671 -0.439653 -2.11887 0
M  V30 3998 C 387.266 -3.35332 -0.483523 0
M  V30 3999 C 385.825 -3.6468 -0.931977 0
M  V30 4000 C 384.972 -2.77299 -0.0061151 0
M  V30 4001 H 387.923 -1.51761 0.464129 0
M  V30 4002 H 387.944 -3.56615 -1.32688 0
M  V30 4003 H 387.456 -3.85178 0.47537 0
M  V30 4004 H 385.557 -3.20307 -1.90353 0
M  V30 4005 H 385.67 -4.72498 -0.792628 0
M  V30 4006 H 384.034 -2.49408 -0.516503 0
M  V30 4007 H 384.817 -3.2995 0.948052 0
M  V30 4008 N 387.262 0.0317525 -1.57568 0
M  V30 4009 C 388.487 0.738664 -1.938 0
M  V30 4010 C 388.912 1.68242 -0.841208 0
M  V30 4011 O 388.27 1.80157 0.203267 0
M  V30 4012 C 388.318 1.47417 -3.29091 0
M  V30 4013 O 387.422 2.5872 -3.2115 0
M  V30 4014 H 386.763 0.198856 -0.633524 0
M  V30 4015 H 389.293 -0.0119713 -2.04596 0
M  V30 4016 H 389.303 1.84468 -3.63917 0
M  V30 4017 H 387.978 0.781988 -4.08482 0
M  V30 4018 H 386.555 2.24231 -2.97951 0
M  V30 4019 N 388.74 1.54641 0.303973 0
M  V30 4020 C 389.988 1.73437 1.0375 0
M  V30 4021 C 390.309 0.521449 1.87899 0
M  V30 4022 O 389.579 -0.46432 1.90318 0
M  V30 4023 H 388.159 0.639518 0.386039 0
M  V30 4024 H 390.821 1.91988 0.335675 0
M  V30 4025 H 389.917 2.62235 1.69231 0
M  V30 4026 N 390.218 -0.567019 1.47046 0
M  V30 4027 C 391.165 -1.67489 1.58796 0
M  V30 4028 C 392.135 -1.60399 0.43144 0
M  V30 4029 O 393.32 -1.79378 0.650233 0
M  V30 4030 C 390.46 -3.05821 1.59899 0
M  V30 4031 C 389.573 -3.2342 2.86397 0
M  V30 4032 C 388.708 -4.52093 2.789 0
M  V30 4033 C 387.747 -4.6309 4.00267 0
M  V30 4034 N 386.884 -5.83106 3.91064 0
M  V30 4035 H 391.724 -1.56785 2.53422 0
M  V30 4036 H 389.261 -0.763896 1.2571 0
M  V30 4037 H 391.219 -3.8591 1.58522 0
M  V30 4038 H 389.849 -3.15384 0.687929 0
M  V30 4039 H 388.901 -2.3683 2.97684 0
M  V30 4040 H 390.213 -3.27412 3.76301 0
M  V30 4041 H 389.367 -5.4043 2.75718 0
M  V30 4042 H 388.106 -4.50565 1.86662 0
M  V30 4043 H 387.111 -3.73168 4.03765 0
M  V30 4044 H 388.336 -4.66386 4.93621 0
M  V30 4045 H 386.282 -5.82546 3.01623 0
M  V30 4046 H 386.199 -5.88434 4.74638 0
M  V30 4047 H 387.467 -6.73831 3.91882 0
M  V30 4048 N 391.696 -1.35014 -0.812953 0
M  V30 4049 C 392.942 -1.29129 -1.57154 0
M  V30 4050 C 393.297 0.134922 -1.91926 0
M  V30 4051 O 392.59 1.08373 -1.58006 0
M  V30 4052 C 392.784 -2.12524 -2.87347 0
M  V30 4053 C 392.613 -3.6311 -2.65294 0
M  V30 4054 C 391.383 -4.32363 -2.61516 0
M  V30 4055 C 393.581 -4.56897 -2.36114 0
M  V30 4056 N 391.563 -5.68735 -2.31113 0
M  V30 4057 C 392.934 -5.81345 -2.15494 0
M  V30 4058 C 394.989 -4.45706 -2.21925 0
M  V30 4059 C 393.692 -6.95862 -1.82122 0
M  V30 4060 C 395.718 -5.60066 -1.89948 0
M  V30 4061 C 395.08 -6.83539 -1.7016 0
M  V30 4062 H 391.179 -0.527764 -0.577052 0
M  V30 4063 H 393.763 -1.6983 -0.952146 0
M  V30 4064 H 391.934 -1.74104 -3.47192 0
M  V30 4065 H 393.666 -1.98207 -3.5284 0
M  V30 4066 H 390.421 -3.84907 -2.75941 0
M  V30 4067 H 390.845 -6.40694 -2.18724 0
M  V30 4068 H 395.487 -3.50855 -2.35925 0
M  V30 4069 H 393.205 -7.90685 -1.6686 0
M  V30 4070 H 396.791 -5.53357 -1.79687 0
M  V30 4071 H 395.671 -7.70531 -1.45777 0
M  V30 4072 N 393.175 1.03435 -1.18907 0
M  V30 4073 C 394.421 1.7713 -0.99982 0
M  V30 4074 C 394.776 1.86695 0.465049 0
M  V30 4075 O 394.069 1.36866 1.34083 0
M  V30 4076 C 394.263 3.19792 -1.59586 0
M  V30 4077 C 394.092 3.24134 -3.11717 0
M  V30 4078 C 392.862 3.32398 -3.80578 0
M  V30 4079 C 395.06 3.11625 -4.09138 0
M  V30 4080 N 393.042 3.26055 -5.20155 0
M  V30 4081 C 394.413 3.12855 -5.35277 0
M  V30 4082 C 396.468 2.95713 -4.00572 0
M  V30 4083 C 395.171 2.99805 -6.53842 0
M  V30 4084 C 397.197 2.84011 -5.1874 0
M  V30 4085 C 396.559 2.8589 -6.43775 0
M  V30 4086 H 392.658 0.659683 -0.419931 0
M  V30 4087 H 395.242 1.2317 -1.50789 0
M  V30 4088 H 393.413 3.72085 -1.11389 0
M  V30 4089 H 395.145 3.81819 -1.3415 0
M  V30 4090 H 391.9 3.38392 -3.31342 0
M  V30 4091 H 392.324 3.26307 -5.93172 0
M  V30 4092 H 396.966 2.93086 -3.0473 0
M  V30 4093 H 394.684 3.01184 -7.49876 0
M  V30 4094 H 398.27 2.72744 -5.13909 0
M  V30 4095 H 397.15 2.76931 -7.33675 0
M  V30 4096 N 394.653 0.992116 1.22453 0
M  V30 4097 C 395.563 0.55065 2.28046 0
M  V30 4098 C 396.579 -0.400189 1.69335 0
M  V30 4099 O 397.755 -0.267215 1.99619 0
M  V30 4100 C 394.82 -0.128496 3.46462 0
M  V30 4101 C 393.881 0.865208 4.20491 0
M  V30 4102 C 393.114 0.218377 5.33253 0
M  V30 4103 O 393.337 -0.987894 5.6178 0
M  V30 4104 O 392.271 0.922845 5.94783 0
M  V30 4105 H 396.097 1.4291 2.67975 0
M  V30 4106 H 393.682 0.760326 1.28606 0
M  V30 4107 H 395.564 -0.508947 4.18315 0
M  V30 4108 H 394.239 -0.981526 3.0846 0
M  V30 4109 H 393.146 1.29658 3.50913 0
M  V30 4110 H 394.479 1.68741 4.62371 0
M  V30 4111 N 396.131 -1.37776 0.765217 0
M  V30 4112 C 397.094 -2.28686 0.153416 0
M  V30 4113 C 398.094 -1.47727 -0.635081 0
M  V30 4114 O 399.284 -1.68027 -0.459632 0
M  V30 4115 C 396.416 -3.31608 -0.790495 0
M  V30 4116 H 397.609 -2.84297 0.954723 0
M  V30 4117 H 395.162 -1.46932 0.53299 0
M  V30 4118 H 395.897 -2.81109 -1.61705 0
M  V30 4119 H 395.682 -3.9144 -0.227348 0
M  V30 4120 H 397.172 -3.99559 -1.21419 0
M  V30 4121 N 397.609 -0.515225 -1.4894 0
M  V30 4122 C 398.857 0.0241671 -2.02086 0
M  V30 4123 C 399.178 1.3616 -1.3959 0
M  V30 4124 O 398.448 1.87841 -0.556121 0
M  V30 4125 H 397.028 0.0119203 -0.746905 0
M  V30 4126 H 399.69 -0.675702 -1.82812 0
M  V30 4127 H 398.786 0.143385 -3.1177 0
M  V30 4128 N 399.087 1.5561 -0.249682 0
M  V30 4129 C 400.335 1.98618 0.373548 0
M  V30 4130 C 400.656 1.13919 1.58264 0
M  V30 4131 O 399.926 0.222637 1.94631 0
M  V30 4132 H 398.506 0.733571 0.141006 0
M  V30 4133 H 401.168 1.91748 -0.349117 0
M  V30 4134 H 400.264 3.04584 0.680796 0
M  V30 4135 N 400.565 -0.0233959 1.57583 0
M  V30 4136 C 401.813 -0.711654 1.89156 0
M  V30 4137 C 402.134 -1.75591 0.848096 0
M  V30 4138 O 401.404 -1.95547 -0.117566 0
M  V30 4139 H 399.984 -0.265835 0.698098 0
M  V30 4140 H 402.646 0.0119948 1.94896 0
M  V30 4141 H 401.742 -1.19766 2.88206 0
M  V30 4142 N 402.043 -1.548 -0.295768 0
M  V30 4143 C 403.291 -1.73985 -1.02828 0
M  V30 4144 C 403.612 -0.531406 -1.87619 0
M  V30 4145 O 402.882 0.454221 -1.90561 0
M  V30 4146 H 401.462 -0.641556 -0.382642 0
M  V30 4147 H 404.124 -1.92163 -0.325489 0
M  V30 4148 H 403.22 -2.63129 -1.67838 0
M  V30 4149 N 403.521 0.559213 -1.47345 0
M  V30 4150 C 404.749 1.34194 -1.57479 0
M  V30 4151 C 405.164 1.87463 -0.224261 0
M  V30 4152 O 404.521 1.64888 0.782185 0
M  V30 4153 C 404.572 2.51324 -2.59843 0
M  V30 4154 O 404.293 2.00256 -3.89653 0
M  V30 4155 C 405.794 3.43563 -2.80142 0
M  V30 4156 H 403.014 0.409136 -0.531835 0
M  V30 4157 H 405.558 0.677609 -1.92947 0
M  V30 4158 H 403.713 3.13699 -2.27314 0
M  V30 4159 H 404.127 2.76708 -4.4557 0
M  V30 4160 H 405.601 4.2217 -3.55635 0
M  V30 4161 H 406.078 3.9698 -1.87892 0
M  V30 4162 H 406.684 2.87005 -3.1386 0
M  V30 4163 N 404.999 1.35443 0.805782 0
M  V30 4164 C 405.932 1.22783 1.92353 0
M  V30 4165 C 406.91 0.115543 1.62189 0
M  V30 4166 O 408.094 0.283778 1.86352 0
M  V30 4167 C 405.221 0.890746 3.26777 0
M  V30 4168 C 404.267 2.01519 3.75889 0
M  V30 4169 S 405.1 3.63101 3.93596 0
M  V30 4170 C 406.256 3.31472 5.30921 0
M  V30 4171 H 406.489 2.17394 2.02798 0
M  V30 4172 H 404.022 1.20669 0.963245 0
M  V30 4173 H 405.98 0.703068 4.04434 0
M  V30 4174 H 404.641 -0.0373152 3.14078 0
M  V30 4175 H 403.834 1.7335 4.7325 0
M  V30 4176 H 403.436 2.16124 3.05231 0
M  V30 4177 H 405.728 2.8435 6.1494 0
M  V30 4178 H 406.671 4.28036 5.64084 0
M  V30 4179 H 407.079 2.67221 4.97246 0
M  V30 4180 N 406.477 -1.02803 1.19454 0
M  V30 4181 C 407.723 -1.76598 1.0092 0
M  V30 4182 C 408.078 -1.86939 -0.455142 0
M  V30 4183 O 407.371 -1.37575 -1.33355 0
M  V30 4184 C 407.565 -3.18941 1.6128 0
M  V30 4185 C 407.394 -3.22476 3.13431 0
M  V30 4186 C 406.164 -3.30375 3.82336 0
M  V30 4187 C 408.362 -3.09451 4.10785 0
M  V30 4188 N 406.344 -3.23292 5.21877 0
M  V30 4189 C 407.715 -3.10012 5.36929 0
M  V30 4190 C 409.77 -2.93585 4.02135 0
M  V30 4191 C 408.473 -2.96334 6.55423 0
M  V30 4192 C 410.499 -2.81256 5.20239 0
M  V30 4193 C 409.861 -2.82472 6.45282 0
M  V30 4194 H 405.96 -0.657447 0.423424 0
M  V30 4195 H 408.544 -1.22369 1.5144 0
M  V30 4196 H 406.715 -3.71489 1.1336 0
M  V30 4197 H 408.447 -3.81102 1.36173 0
M  V30 4198 H 405.202 -3.3663 3.33132 0
M  V30 4199 H 405.626 -3.23156 5.94894 0
M  V30 4200 H 410.268 -2.91466 3.0628 0
M  V30 4201 H 407.986 -2.97203 7.51463 0
M  V30 4202 H 411.572 -2.70014 5.15348 0
M  V30 4203 H 410.452 -2.73036 7.35133 0
M  V30 4204 N 407.956 -0.998596 -1.21925 0
M  V30 4205 C 409.233 -0.593401 -1.86382 0
M  V30 4206 C 409.613 0.92916 -1.89552 0
M  V30 4207 O 408.961 1.81347 -1.39017 0
M  V30 4208 C 409.171 -1.22039 -3.26967 0
M  V30 4209 C 410.519 -1.32449 -4.03413 0
M  V30 4210 O 411.543 -1.17522 -3.36254 0
M  V30 4211 O 410.402 -1.56395 -5.23644 0
M  V30 4212 H 407.496 -0.202385 -0.801854 0
M  V30 4213 H 410.042 -1.09484 -1.29659 0
M  V30 4214 H 408.814 -2.26158 -3.19325 0
M  V30 4215 H 408.437 -0.704906 -3.91301 0
M  V30 4216 N 409.434 1.37368 -0.772513 0
M  V30 4217 C 410.659 2.0447 -0.347386 0
M  V30 4218 C 411.084 1.57882 1.0225 0
M  V30 4219 O 410.442 0.73941 1.65537 0
M  V30 4220 C 410.49 3.58369 -0.400479 0
M  V30 4221 O 409.594 4.0803 0.598789 0
M  V30 4222 H 408.935 0.646773 -0.15027 0
M  V30 4223 H 411.465 1.75667 -1.04892 0
M  V30 4224 H 411.475 4.07183 -0.258045 0
M  V30 4225 H 410.15 3.91633 -1.39986 0
M  V30 4226 H 408.727 3.70534 0.419411 0
M  V30 4227 N 410.912 0.523116 1.48665 0
M  V30 4228 C 411.845 -0.290518 2.26343 0
M  V30 4229 C 412.823 -0.950913 1.31895 0
M  V30 4230 O 414.007 -0.976662 1.61225 0
M  V30 4231 C 411.134 -1.41088 3.07915 0
M  V30 4232 C 410.18 -0.862597 4.17686 0
M  V30 4233 S 411.013 0.264135 5.34848 0
M  V30 4234 C 412.169 -0.858864 6.19979 0
M  V30 4235 H 412.402 0.368726 2.95005 0
M  V30 4236 H 409.935 0.30878 1.51281 0
M  V30 4237 H 411.893 -2.0527 3.55492 0
M  V30 4238 H 410.554 -2.04182 2.38681 0
M  V30 4239 H 409.747 -1.70287 4.74361 0
M  V30 4240 H 409.349 -0.297595 3.72814 0
M  V30 4241 H 411.641 -1.7591 6.54264 0
M  V30 4242 H 412.584 -0.330244 7.07329 0
M  V30 4243 H 412.992 -1.13617 5.52948 0
M  V30 4244 N 412.39 -1.55475 0.257931 0
M  V30 4245 C 413.618 -2.03609 -0.367559 0
M  V30 4246 C 414.033 -1.13687 -1.50734 0
M  V30 4247 O 413.39 -0.153479 -1.81853 0
M  V30 4248 C 413.441 -3.51001 -0.864908 0
M  V30 4249 O 413.162 -4.37499 0.229465 0
M  V30 4250 C 414.663 -4.14946 -1.55997 0
M  V30 4251 H 411.883 -0.665459 -0.0860521 0
M  V30 4252 H 414.427 -2.00843 0.385014 0
M  V30 4253 H 412.582 -3.54266 -1.56762 0
M  V30 4254 H 412.996 -5.24286 -0.14998 0
M  V30 4255 H 414.47 -5.19735 -1.85956 0
M  V30 4256 H 414.947 -3.6209 -2.4857 0
M  V30 4257 H 415.553 -4.15635 -0.901543 0
M  V30 4258 N 413.868 0.0150385 -1.57593 0
M  V30 4259 C 415.115 0.703001 -1.89906 0
M  V30 4260 C 415.443 1.74604 -0.856944 0
M  V30 4261 O 414.698 1.95197 0.140287 0
M  V30 4262 C 414.997 1.39686 -3.28972 0
M  V30 4263 C 414.663 0.488457 -4.48246 0
M  V30 4264 C 413.325 0.2383 -4.8061 0
M  V30 4265 C 415.677 -0.137881 -5.21018 0
M  V30 4266 C 413.005 -0.646738 -5.83125 0
M  V30 4267 C 415.357 -1.0107 -6.24474 0
M  V30 4268 C 414.021 -1.27019 -6.55303 0
M  V30 4269 H 413.291 0.257246 -0.694914 0
M  V30 4270 H 415.938 -0.037259 -1.91464 0
M  V30 4271 H 414.243 2.21079 -3.23468 0
M  V30 4272 H 415.94 1.93495 -3.51227 0
M  V30 4273 H 412.53 0.693593 -4.22951 0
M  V30 4274 H 416.714 0.0423953 -4.96282 0
M  V30 4275 H 411.97 -0.855937 -6.05379 0
M  V30 4276 H 416.144 -1.50247 -6.79999 0
M  V30 4277 H 413.771 -1.95769 -7.3456 0
M  V30 4278 N 415.346 1.54954 0.287554 0
M  V30 4279 C 416.623 1.65569 1.04146 0
M  V30 4280 C 417.003 0.512672 2.0478 0
M  V30 4281 O 416.351 -0.489038 2.23205 0
M  V30 4282 C 416.561 3.04163 1.71131 0
M  V30 4283 C 417.909 3.61429 2.22832 0
M  V30 4284 O 418.933 3.06702 1.81141 0
M  V30 4285 O 417.792 4.57281 2.9926 0
M  V30 4286 H 414.886 0.671881 0.482188 0
M  V30 4287 H 417.432 1.67297 0.28457 0
M  V30 4288 H 416.204 3.78796 0.981303 0
M  V30 4289 H 415.827 3.06271 2.53543 0
M  V30 4290 N 416.824 -0.551391 1.4764 0
M  V30 4291 C 417.787 -1.64007 1.60107 0
M  V30 4292 C 418.787 -1.53601 0.47576 0
M  V30 4293 O 419.977 -1.57655 0.740988 0
M  V30 4294 C 417.109 -3.03569 1.55108 0
M  V30 4295 H 418.302 -1.543 2.57161 0
M  V30 4296 H 415.855 -0.771776 1.35917 0
M  V30 4297 H 416.59 -3.18804 0.594519 0
M  V30 4298 H 416.375 -3.12532 2.36783 0
M  V30 4299 H 417.865 -3.82762 1.66982 0
M  V30 4300 N 418.302 -1.35869 -0.798587 0
M  V30 4301 C 419.212 -1.31578 -1.94228 0
M  V30 4302 C 420.228 -0.21939 -1.72611 0
M  V30 4303 O 421.404 -0.450167 -1.96305 0
M  V30 4304 C 418.469 -1.09528 -3.28944 0
M  V30 4305 C 417.53 -2.28556 -3.63402 0
M  V30 4306 C 416.763 -2.07549 -4.9169 0
M  V30 4307 O 416.986 -1.046 -5.60727 0
M  V30 4308 O 415.92 -2.95106 -5.24591 0
M  V30 4309 H 419.746 -2.27847 -2.00796 0
M  V30 4310 H 417.331 -1.16322 -0.937526 0
M  V30 4311 H 419.213 -0.991127 -4.09579 0
M  V30 4312 H 417.888 -0.16315 -3.23289 0
M  V30 4313 H 416.795 -2.44538 -2.83112 0
M  V30 4314 H 418.128 -3.20244 -3.73771 0
M  V30 4315 N 419.78 1.02168 -1.19998 0
M  V30 4316 C 420.71 2.12488 -0.96804 0
M  V30 4317 C 421.691 1.69799 0.101185 0
M  V30 4318 O 422.876 1.94121 -0.0552993 0
M  V30 4319 C 420.006 3.43479 -0.513776 0
M  V30 4320 C 418.96 3.99884 -1.52566 0
M  V30 4321 C 418.286 5.26582 -0.928214 0
M  V30 4322 C 419.586 4.33861 -2.90795 0
M  V30 4323 H 421.28 2.32149 -1.89069 0
M  V30 4324 H 418.826 1.11564 -0.910468 0
M  V30 4325 H 420.779 4.20036 -0.338774 0
M  V30 4326 H 419.503 3.23561 0.444493 0
M  V30 4327 H 418.162 3.25429 -1.68794 0
M  V30 4328 H 417.81 5.02986 0.0378289 0
M  V30 4329 H 417.51 5.65284 -1.60397 0
M  V30 4330 H 419.034 6.05799 -0.764167 0
M  V30 4331 H 420.448 5.01327 -2.78109 0
M  V30 4332 H 418.845 4.83664 -3.55231 0
M  V30 4333 H 419.915 3.42848 -3.42904 0
M  V30 4334 N 421.258 1.00505 1.21394 0
M  V30 4335 C 422.206 0.558623 2.25792 0
M  V30 4336 C 423.2 -0.396848 1.64686 0
M  V30 4337 O 424.406 -0.268035 1.77993 0
M  V30 4338 H 420.781 0.1623 0.734277 0
M  V30 4339 H 422.752 1.4503 2.60785 0
M  V30 4340 C 421.501 -0.0989574 3.47559 0
M  V30 4341 H 420.824 0.627225 3.94849 0
M  V30 4342 H 422.264 -0.3746 4.22342 0
M  V30 4343 C 420.723 -1.33817 3.09184 0
M  V30 4344 O 421.253 -2.43252 3.19674 0
M  V30 4345 N 419.459 -1.21793 2.63846 0
M  V30 4346 H 419.006 -0.32746 2.5551 0
M  V30 4347 H 418.964 -2.04809 2.38539 0
M  V30 4348 N 422.737 -1.36956 0.779787 0
M  V30 4349 C 423.965 -2.03755 0.359398 0
M  V30 4350 C 424.38 -1.58807 -1.02106 0
M  V30 4351 O 423.737 -0.773024 -1.6532 0
M  V30 4352 C 423.788 -3.59251 0.402568 0
M  V30 4353 O 423.509 -4.02557 1.72858 0
M  V30 4354 C 425.01 -4.43291 -0.0284068 0
M  V30 4355 H 422.23 -0.654148 0.149437 0
M  V30 4356 H 424.774 -1.75128 1.05595 0
M  V30 4357 H 422.929 -3.86621 -0.245478 0
M  V30 4358 H 423.343 -4.97111 1.67275 0
M  V30 4359 H 424.817 -5.51975 0.0529466 0
M  V30 4360 H 425.294 -4.25719 -1.07982 0
M  V30 4361 H 425.9 -4.21163 0.591758 0
M  V30 4362 N 424.215 -0.530993 -1.48385 0
M  V30 4363 C 425.148 0.278511 -2.26494 0
M  V30 4364 C 426.126 0.943905 -1.32398 0
M  V30 4365 O 427.31 0.968098 -1.61741 0
M  V30 4366 C 424.437 1.39453 -3.08659 0
M  V30 4367 C 423.483 0.840434 -4.18137 0
M  V30 4368 S 424.316 -0.292496 -5.34701 0
M  V30 4369 C 425.472 0.825973 -6.20426 0
M  V30 4370 H 425.705 -0.384365 -2.94805 0
M  V30 4371 H 423.238 -0.316799 -1.51115 0
M  V30 4372 H 425.196 2.03382 -3.56575 0
M  V30 4373 H 423.857 2.02913 -2.3976 0
M  V30 4374 H 423.05 1.67769 -4.75257 0
M  V30 4375 H 422.652 0.277819 -3.72967 0
M  V30 4376 H 424.944 1.72438 -6.55188 0
M  V30 4377 H 425.887 0.292728 -7.07495 0
M  V30 4378 H 426.295 1.10683 -5.53543 0
M  V30 4379 N 425.693 1.55336 -0.266172 0
M  V30 4380 C 426.923 2.03506 0.356239 0
M  V30 4381 C 427.331 1.14426 1.50676 0
M  V30 4382 O 426.674 0.155043 1.83045 0
M  V30 4383 C 426.736 3.47848 0.90785 0
M  V30 4384 C 426.4 4.56861 -0.112888 0
M  V30 4385 C 427.397 5.11528 -0.929264 0
M  V30 4386 C 425.082 5.01704 -0.244546 0
M  V30 4387 C 427.076 6.09549 -1.86357 0
M  V30 4388 C 424.763 5.99553 -1.18234 0
M  V30 4389 C 425.761 6.53356 -1.99036 0
M  V30 4390 O 425.449 7.49293 -2.91231 0
M  V30 4391 H 425.181 0.670444 0.08649 0
M  V30 4392 H 427.735 2.01598 -0.39337 0
M  V30 4393 H 425.965 3.46967 1.70737 0
M  V30 4394 H 427.654 3.79407 1.44239 0
M  V30 4395 H 428.42 4.77701 -0.838237 0
M  V30 4396 H 424.299 4.59477 0.374359 0
M  V30 4397 H 427.843 6.51469 -2.49467 0
M  V30 4398 H 423.74 6.32799 -1.27421 0
M  V30 4399 H 424.508 7.66978 -2.8581 0
M  V30 4400 N 427.171 -0.0066808 1.57599 0
M  V30 4401 C 428.417 -0.693947 1.90558 0
M  V30 4402 C 428.75 -1.73792 0.866594 0
M  V30 4403 O 428.025 -1.94156 -0.115548 0
M  V30 4404 C 428.308 -1.34317 3.34112 0
M  V30 4405 C 428.161 -0.311189 4.48722 0
M  V30 4406 C 429.48 -2.27116 3.7697 0
M  V30 4407 H 426.599 -0.250803 0.693013 0
M  V30 4408 H 429.241 0.043242 1.89951 0
M  V30 4409 H 427.391 -1.9715 3.3476 0
M  V30 4410 H 429.063 0.316944 4.6021 0
M  V30 4411 H 427.306 0.367253 4.32243 0
M  V30 4412 H 427.977 -0.804366 5.46108 0
M  V30 4413 H 430.453 -1.74306 3.77831 0
M  V30 4414 H 429.329 -2.69511 4.78179 0
M  V30 4415 H 429.59 -3.14743 3.10466 0
M  V30 4416 N 428.649 -1.55105 -0.279332 0
M  V30 4417 C 429.897 -1.75066 -1.00977 0
M  V30 4418 C 430.218 -0.551276 -1.87045 0
M  V30 4419 O 429.488 0.433984 -1.91032 0
M  V30 4420 H 428.068 -0.645578 -0.375816 0
M  V30 4421 H 430.73 -1.92497 -0.305089 0
M  V30 4422 H 429.826 -2.64894 -1.65038 0
M  V30 4423 N 430.127 0.543554 -1.4793 0
M  V30 4424 C 431.355 1.32516 -1.58894 0
M  V30 4425 C 431.77 1.87215 -0.244131 0
M  V30 4426 O 431.127 1.65709 0.764652 0
M  V30 4427 C 431.178 2.48554 -2.62494 0
M  V30 4428 O 430.899 1.96112 -3.91755 0
M  V30 4429 C 432.4 3.40572 -2.8377 0
M  V30 4430 H 429.62 0.403472 -0.536145 0
M  V30 4431 H 432.164 0.657106 -1.93655 0
M  V30 4432 H 430.319 3.1127 -2.30629 0
M  V30 4433 H 430.733 2.71967 -4.4848 0
M  V30 4434 H 432.207 4.18375 -3.60093 0
M  V30 4435 H 432.684 3.94965 -1.92092 0
M  V30 4436 H 433.29 2.8366 -3.16887 0
M  V30 4437 N 431.605 1.3629 0.791371 0
M  V30 4438 C 432.853 1.30154 1.5461 0
M  V30 4439 C 433.174 -0.119409 1.94634 0
M  V30 4440 O 432.444 -1.05924 1.64794 0
M  V30 4441 H 431.024 0.478784 0.573389 0
M  V30 4442 H 433.686 1.70565 0.94306 0
M  V30 4443 H 432.782 1.92762 2.45457 0
M  V30 4444 N 433.083 -1.0153 1.20538 0
M  V30 4445 C 434.031 -2.12215 0.952235 0
M  V30 4446 C 435.025 -1.69123 -0.0968735 0
M  V30 4447 O 436.231 -1.7992 0.0536006 0
M  V30 4448 H 432.606 -0.693576 0.290613 0
M  V30 4449 H 434.577 -2.3075 1.89201 0
M  V30 4450 C 433.326 -3.43755 0.522287 0
M  V30 4451 H 432.649 -3.7734 1.32115 0
M  V30 4452 H 434.089 -4.22254 0.384389 0
M  V30 4453 C 432.548 -3.28088 -0.765489 0
M  V30 4454 O 433.078 -3.57921 -1.8236 0
M  V30 4455 N 431.284 -2.81333 -0.728011 0
M  V30 4456 H 430.831 -2.57255 0.133332 0
M  V30 4457 H 430.789 -2.71232 -1.58999 0
M  V30 4458 N 434.561 -1.01147 -1.20859 0
M  V30 4459 C 435.809 -0.696486 -1.89719 0
M  V30 4460 C 436.13 0.775788 -1.78904 0
M  V30 4461 O 435.4 1.55759 -1.18811 0
M  V30 4462 H 433.98 -0.254628 -0.702263 0
M  V30 4463 H 436.642 -1.28197 -1.46804 0
M  V30 4464 H 435.738 -0.975357 -2.96468 0
M  V30 4465 N 436.039 1.36541 -0.78704 0
M  V30 4466 C 437.264 2.0409 -0.369053 0
M  V30 4467 C 437.689 1.58957 1.00569 0
M  V30 4468 O 437.047 0.756926 1.64743 0
M  V30 4469 C 437.095 3.57924 -0.438466 0
M  V30 4470 O 436.199 4.08642 0.555479 0
M  V30 4471 H 435.54 0.645142 -0.157122 0
M  V30 4472 H 438.07 1.74545 -1.06749 0
M  V30 4473 H 438.08 4.06887 -0.301218 0
M  V30 4474 H 436.755 3.90127 -1.44132 0
M  V30 4475 H 435.332 3.70958 0.380088 0
M  V30 4476 N 437.518 0.538854 1.48102 0
M  V30 4477 C 438.929 0.100679 1.86428 0
M  V30 4478 C 439.28 -1.32447 1.44749 0
M  V30 4479 O 438.405 -1.99339 0.842199 0
M  V30 4480 C 439 0.175933 3.38343 0
M  V30 4481 C 437.559 -0.207098 3.7583 0
M  V30 4482 C 436.706 0.531741 2.72154 0
M  V30 4483 H 439.657 0.749614 1.3988 0
M  V30 4484 H 439.678 -0.610144 3.75576 0
M  V30 4485 H 439.19 1.21328 3.68648 0
M  V30 4486 H 437.291 -1.24626 3.5114 0
M  V30 4487 H 437.404 0.138687 4.78899 0
M  V30 4488 H 435.768 -0.0230462 2.5469 0
M  V30 4489 H 436.551 1.56989 3.05302 0
M  V30 4490 N 438.996 -1.55193 0.274407 0
M  V30 4491 C 440.242 -2.00604 -0.33608 0
M  V30 4492 C 440.597 -1.15948 -1.53538 0
M  V30 4493 O 439.89 -0.221385 -1.90317 0
M  V30 4494 C 440.084 -3.49019 -0.769458 0
M  V30 4495 C 439.913 -4.48038 0.386301 0
M  V30 4496 C 438.683 -4.97757 0.869854 0
M  V30 4497 C 440.881 -4.99558 1.22254 0
M  V30 4498 N 438.863 -5.80575 1.99515 0
M  V30 4499 C 440.234 -5.79816 2.19575 0
M  V30 4500 C 442.289 -4.81799 1.25597 0
M  V30 4501 C 440.992 -6.44208 3.19981 0
M  V30 4502 C 443.018 -5.46989 2.24848 0
M  V30 4503 C 442.38 -6.27058 3.20901 0
M  V30 4504 H 438.479 -0.777013 -0.088172 0
M  V30 4505 H 441.063 -1.90583 0.398266 0
M  V30 4506 H 439.234 -3.59383 -1.47303 0
M  V30 4507 H 440.966 -3.81263 -1.35722 0
M  V30 4508 H 437.721 -4.71464 0.449281 0
M  V30 4509 H 438.145 -6.26675 2.5614 0
M  V30 4510 H 442.787 -4.19501 0.527158 0
M  V30 4511 H 440.505 -7.05656 3.93796 0
M  V30 4512 H 444.091 -5.35189 2.28174 0
M  V30 4513 H 442.971 -6.7661 3.96445 0
M  V30 4514 N 440.474 -0.00167713 -1.576 0
M  V30 4515 C 441.699 0.69739 -1.95323 0
M  V30 4516 C 442.124 1.6642 -0.876706 0
M  V30 4517 O 441.482 1.80548 0.165007 0
M  V30 4518 C 441.53 1.40403 -3.32144 0
M  V30 4519 O 440.634 2.5185 -3.26566 0
M  V30 4520 H 439.975 0.185373 -0.637599 0
M  V30 4521 H 442.505 -0.0553665 -2.04525 0
M  V30 4522 H 442.515 1.76707 -3.67748 0
M  V30 4523 H 441.19 0.695167 -4.10049 0
M  V30 4524 H 439.767 2.17861 -3.0264 0
M  V30 4525 N 441.952 1.55251 0.271103 0
M  V30 4526 C 442.902 1.84649 1.33749 0
M  V30 4527 C 443.886 0.705529 1.44607 0
M  V30 4528 O 445.078 0.966916 1.48256 0
M  V30 4529 C 442.207 2.12354 2.69742 0
M  V30 4530 C 441.293 3.32714 2.62988 0
M  V30 4531 N 441.684 4.52575 2.25853 0
M  V30 4532 C 439.982 3.35341 2.94045 0
M  V30 4533 C 440.683 5.34669 2.29136 0
M  V30 4534 N 439.659 4.73123 2.67685 0
M  V30 4535 H 443.461 2.74865 1.0405 0
M  V30 4536 H 440.975 1.55152 0.479738 0
M  V30 4537 H 442.972 2.31572 3.4667 0
M  V30 4538 H 441.632 1.23422 3.00328 0
M  V30 4539 H 442.643 4.78639 1.978 0
M  V30 4540 H 439.32 2.56608 3.2933 0
M  V30 4541 H 440.71 6.40509 2.02971 0
M  V30 4542 N 443.43 -0.535701 1.48216 0
M  V30 4543 C 444.377 -1.64083 1.62312 0
M  V30 4544 C 445.347 -1.59448 0.465365 0
M  V30 4545 O 446.532 -1.77959 0.688135 0
M  V30 4546 C 443.672 -3.0236 1.66349 0
M  V30 4547 C 442.785 -3.17273 2.93193 0
M  V30 4548 C 441.92 -4.46075 2.88427 0
M  V30 4549 C 440.959 -4.54496 4.1 0
M  V30 4550 N 440.096 -5.7468 4.03345 0
M  V30 4551 H 444.936 -1.51374 2.5669 0
M  V30 4552 H 442.473 -0.737059 1.27302 0
M  V30 4553 H 444.431 -3.82461 1.66672 0
M  V30 4554 H 443.061 -3.13854 0.754672 0
M  V30 4555 H 442.113 -2.30462 3.02641 0
M  V30 4556 H 443.425 -3.19357 3.83162 0
M  V30 4557 H 442.579 -5.3446 2.87119 0
M  V30 4558 H 441.318 -4.46504 1.96177 0
M  V30 4559 H 440.323 -3.64519 4.11589 0
M  V30 4560 H 441.548 -4.5581 5.03402 0
M  V30 4561 H 439.494 -5.76017 3.13912 0
M  V30 4562 H 439.411 -5.78234 4.87013 0
M  V30 4563 H 440.679 -6.65367 4.06087 0
M  V30 4564 N 444.908 -1.36708 -0.784132 0
M  V30 4565 C 446.154 -1.31426 -1.54451 0
M  V30 4566 C 446.487 0.10476 -1.93917 0
M  V30 4567 O 445.762 1.05934 -1.6312 0
M  V30 4568 C 446.045 -2.24189 -2.818 0
M  V30 4569 C 445.898 -3.74813 -2.48667 0
M  V30 4570 C 447.217 -2.15626 -3.83658 0
M  V30 4571 H 444.336 -0.478739 -0.560337 0
M  V30 4572 H 446.978 -1.67305 -0.900498 0
M  V30 4573 H 445.128 -1.93722 -3.36755 0
M  V30 4574 H 446.8 -4.15823 -1.99722 0
M  V30 4575 H 445.043 -3.93989 -1.81535 0
M  V30 4576 H 445.714 -4.35138 -3.39646 0
M  V30 4577 H 448.19 -2.42456 -3.38163 0
M  V30 4578 H 447.066 -2.82694 -4.70506 0
M  V30 4579 H 447.327 -1.14522 -4.27009 0
M  V30 4580 N 446.386 1.0089 -1.21074 0
M  V30 4581 C 447.802 1.2695 -0.967257 0
M  V30 4582 C 448.002 1.9846 0.348673 0
M  V30 4583 O 447.058 2.28459 1.0753 0
M  V30 4584 C 448.371 2.09697 -2.15517 0
M  V30 4585 C 449.919 2.22937 -2.197 0
M  V30 4586 C 450.394 3.09064 -3.37999 0
M  V30 4587 N 451.885 3.16653 -3.38061 0
M  V30 4588 C 452.62 3.8354 -4.26245 0
M  V30 4589 N 452.116 4.52488 -5.2462 0
M  V30 4590 N 453.909 3.80141 -4.14064 0
M  V30 4591 H 446.06 0.529005 -2.05707 0
M  V30 4592 H 448.323 0.296148 -0.900556 0
M  V30 4593 H 448.029 1.64497 -3.10859 0
M  V30 4594 H 447.903 3.10444 -2.14253 0
M  V30 4595 H 450.29 2.67357 -1.24916 0
M  V30 4596 H 450.371 1.21673 -2.2501 0
M  V30 4597 H 450.015 2.65347 -4.33074 0
M  V30 4598 H 449.945 4.10433 -3.29928 0
M  V30 4599 H 452.436 2.67566 -2.66865 0
M  V30 4600 H 452.749 5.01219 -5.88217 0
M  V30 4601 H 451.094 4.51288 -5.28549 0
M  V30 4602 H 454.285 3.25427 -3.36474 0
M  V30 4603 H 454.458 4.31992 -4.82998 0
M  V30 4604 N 447.864 1.01787 1.20321 0
M  V30 4605 C 449.089 0.727009 1.9424 0
M  V30 4606 C 449.514 -0.706179 1.74341 0
M  V30 4607 O 448.872 -1.48609 1.03852 0
M  V30 4608 C 448.92 1.06958 3.44372 0
M  V30 4609 O 448.024 0.181983 4.11998 0
M  V30 4610 H 447.365 0.269626 0.606793 0
M  V30 4611 H 449.895 1.36158 1.52716 0
M  V30 4612 H 449.905 1.02182 3.94997 0
M  V30 4613 H 448.58 2.11378 3.58179 0
M  V30 4614 H 447.157 0.287378 3.71791 0
M  V30 4615 N 449.342 -1.36122 0.79427 0
M  V30 4616 C 450.753 -1.81646 0.431446 0
M  V30 4617 C 451.104 -1.66043 -1.04518 0
M  V30 4618 O 450.229 -1.1841 -1.8113 0
M  V30 4619 C 450.824 -3.29785 0.776341 0
M  V30 4620 C 449.383 -3.73501 0.466282 0
M  V30 4621 C 448.53 -2.58313 1.00844 0
M  V30 4622 H 451.481 -1.24274 0.986995 0
M  V30 4623 H 451.502 -3.80437 0.0692413 0
M  V30 4624 H 451.014 -3.4111 1.8511 0
M  V30 4625 H 449.115 -3.67733 -0.600245 0
M  V30 4626 H 449.228 -4.68754 0.990288 0
M  V30 4627 H 447.592 -2.5102 0.431406 0
M  V30 4628 H 448.375 -2.72421 2.08906 0
M  V30 4629 N 450.82 -0.546701 -1.47814 0
M  V30 4630 C 451.767 0.206854 -2.29871 0
M  V30 4631 C 452.737 0.918235 -1.38411 0
M  V30 4632 O 453.922 0.915991 -1.67375 0
M  V30 4633 C 451.062 1.23746 -3.22151 0
M  V30 4634 C 450.175 0.533216 -4.28697 0
M  V30 4635 C 449.31 1.5482 -5.08138 0
M  V30 4636 C 448.349 0.828347 -6.06469 0
M  V30 4637 N 447.486 1.78966 -6.78908 0
M  V30 4638 H 452.326 -0.499037 -2.93792 0
M  V30 4639 H 449.863 -0.25793 -1.44821 0
M  V30 4640 H 451.821 1.84746 -3.74065 0
M  V30 4641 H 450.451 1.91151 -2.60117 0
M  V30 4642 H 449.503 -0.191089 -3.7992 0
M  V30 4643 H 450.815 -0.0311987 -4.9879 0
M  V30 4644 H 449.969 2.23202 -5.6415 0
M  V30 4645 H 448.708 2.14652 -4.37922 0
M  V30 4646 H 447.713 0.130539 -5.49645 0
M  V30 4647 H 448.938 0.235907 -6.7869 0
M  V30 4648 H 446.884 2.37675 -6.1143 0
M  V30 4649 H 446.801 1.27712 -7.45135 0
M  V30 4650 H 448.069 2.46496 -7.395 0
M  V30 4651 N 452.299 1.55045 -0.282633 0
M  V30 4652 C 453.547 1.99365 0.331334 0
M  V30 4653 C 453.868 1.1725 1.55812 0
M  V30 4654 O 453.138 0.263871 1.94115 0
M  V30 4655 H 451.718 0.736397 0.125414 0
M  V30 4656 H 454.38 1.90964 -0.389711 0
M  V30 4657 H 453.476 3.0596 0.616036 0
M  V30 4658 N 453.777 0.010035 1.57597 0
M  V30 4659 C 455.025 -0.671371 1.90623 0
M  V30 4660 C 455.346 -1.73753 0.885151 0
M  V30 4661 O 454.616 -1.95752 -0.0760611 0
M  V30 4662 H 453.196 -0.250968 0.703579 0
M  V30 4663 H 455.858 0.0533325 1.94827 0
M  V30 4664 H 454.954 -1.13626 2.90681 0
M  V30 4665 N 455.255 -1.55392 -0.262866 0
M  V30 4666 C 456.532 -1.67204 -1.01499 0
M  V30 4667 C 456.912 -0.545186 -2.03939 0
M  V30 4668 O 456.26 0.453467 -2.23955 0
M  V30 4669 C 456.47 -3.06847 -1.6627 0
M  V30 4670 C 457.818 -3.64928 -2.17054 0
M  V30 4671 O 458.842 -3.09545 -1.76239 0
M  V30 4672 O 457.701 -4.61984 -2.91947 0
M  V30 4673 H 454.795 -0.679467 -0.471438 0
M  V30 4674 H 457.341 -1.67729 -0.257918 0
M  V30 4675 H 456.113 -3.80309 -0.920915 0
M  V30 4676 H 455.736 -3.10266 -2.48638 0
M  V30 4677 N 456.733 0.527833 -1.48498 0
M  V30 4678 C 457.681 1.65313 -1.63628 0
M  V30 4679 C 458.675 1.6177 -0.502676 0
M  V30 4680 O 459.881 1.66601 -0.681469 0
M  V30 4681 H 456.256 0.547518 -0.515488 0
M  V30 4682 H 458.227 1.49696 -2.58135 0
M  V30 4683 C 456.976 3.03576 -1.6952 0
M  V30 4684 H 456.299 3.06997 -2.56111 0
M  V30 4685 H 457.739 3.81923 -1.84149 0
M  V30 4686 C 456.198 3.34089 -0.43432 0
M  V30 4687 O 456.728 3.99151 0.451852 0
M  V30 4688 N 454.934 2.88991 -0.305368 0
M  V30 4689 H 454.481 2.36222 -1.02747 0
M  V30 4690 H 454.439 3.09776 0.537249 0
M  V30 4691 N 458.211 1.37122 0.776871 0
M  V30 4692 C 459.141 1.35164 1.90402 0
M  V30 4693 C 460.122 0.221069 1.68657 0
M  V30 4694 O 461.307 0.420642 1.8959 0
M  V30 4695 C 458.437 1.15274 3.27611 0
M  V30 4696 C 457.391 2.25289 3.63908 0
M  V30 4697 C 456.717 1.90527 4.99603 0
M  V30 4698 C 458.017 3.67446 3.71188 0
M  V30 4699 H 459.711 2.29482 1.92297 0
M  V30 4700 H 457.257 1.10465 0.923773 0
M  V30 4701 H 459.21 1.12536 4.06096 0
M  V30 4702 H 457.934 0.174102 3.26136 0
M  V30 4703 H 456.593 2.27174 2.87728 0
M  V30 4704 H 456.241 0.91206 4.94662 0
M  V30 4705 H 455.941 2.64193 5.24858 0
M  V30 4706 H 457.465 1.89367 5.80493 0
M  V30 4707 H 458.879 3.67719 4.39836 0
M  V30 4708 H 457.276 4.40123 4.07936 0
M  V30 4709 H 458.346 4.01443 2.71977 0
M  V30 4710 N 459.689 -1.00246 1.21608 0
M  V30 4711 C 460.919 -1.77373 1.05935 0
M  V30 4712 C 461.327 -1.85059 -0.393686 0
M  V30 4713 O 460.67 -1.31289 -1.28487 0
M  V30 4714 C 460.732 -3.22705 1.58435 0
M  V30 4715 C 460.396 -3.38591 3.06929 0
M  V30 4716 C 461.393 -3.2667 4.04454 0
M  V30 4717 C 459.078 -3.6395 3.46187 0
M  V30 4718 C 461.072 -3.39877 5.39224 0
M  V30 4719 C 458.759 -3.768 4.81108 0
M  V30 4720 C 459.757 -3.6477 5.77436 0
M  V30 4721 O 459.445 -3.77206 7.09909 0
M  V30 4722 H 459.177 -0.56419 0.372378 0
M  V30 4723 H 461.731 -1.26971 1.61454 0
M  V30 4724 H 459.961 -3.74255 0.973147 0
M  V30 4725 H 461.65 -3.81515 1.38568 0
M  V30 4726 H 462.416 -3.06999 3.75468 0
M  V30 4727 H 458.295 -3.72395 2.71741 0
M  V30 4728 H 461.839 -3.30404 6.14393 0
M  V30 4729 H 457.736 -3.95975 5.09779 0
M  V30 4730 H 458.504 -3.94138 7.17355 0
M  V30 4731 N 461.167 -1.02423 -1.1978 0
M  V30 4732 C 462.097 -0.62157 -2.25075 0
M  V30 4733 C 463.078 0.367148 -1.6609 0
M  V30 4734 O 464.263 0.250892 -1.92573 0
M  V30 4735 C 461.393 0.0331826 -3.47284 0
M  V30 4736 C 460.347 -0.877323 -4.18912 0
M  V30 4737 C 459.673 -0.0879296 -5.34628 0
M  V30 4738 C 460.973 -2.18892 -4.74219 0
M  V30 4739 H 462.667 -1.50179 -2.59011 0
M  V30 4740 H 460.213 -0.723547 -1.24502 0
M  V30 4741 H 462.166 0.326488 -4.20133 0
M  V30 4742 H 460.89 0.948164 -3.12534 0
M  V30 4743 H 459.549 -1.15475 -3.47938 0
M  V30 4744 H 459.197 0.828941 -4.96123 0
M  V30 4745 H 458.897 -0.694359 -5.83483 0
M  V30 4746 H 460.421 0.198743 -6.10276 0
M  V30 4747 H 461.835 -1.95746 -5.38847 0
M  V30 4748 H 460.232 -2.74686 -5.33542 0
M  V30 4749 H 461.302 -2.84674 -3.92541 0
M  V30 4750 N 462.645 1.35699 -0.801477 0
M  V30 4751 C 463.608 2.28199 -0.213994 0
M  V30 4752 C 464.608 1.49359 0.595691 0
M  V30 4753 O 465.798 1.69186 0.414921 0
M  V30 4754 C 462.93 3.33587 0.702297 0
M  V30 4755 H 464.123 2.81666 -1.02976 0
M  V30 4756 H 461.676 1.45467 -0.571759 0
M  V30 4757 H 462.411 2.85297 1.54195 0
M  V30 4758 H 462.196 3.91906 0.123484 0
M  V30 4759 H 463.686 4.02638 1.10783 0
M  V30 4760 N 464.123 0.554532 1.47522 0
M  V30 4761 C 465.348 0.0322661 2.07375 0
M  V30 4762 C 465.773 -1.25079 1.40488 0
M  V30 4763 O 465.131 -1.74859 0.47896 0
M  V30 4764 C 465.179 -0.149397 3.6029 0
M  V30 4765 O 464.283 -1.21259 3.9417 0
M  V30 4766 H 463.624 0.0501228 0.662106 0
M  V30 4767 H 466.154 0.769452 1.8958 0
M  V30 4768 H 466.164 -0.364437 4.06369 0
M  V30 4769 H 464.839 0.787743 4.08372 0
M  V30 4770 H 463.416 -0.97825 3.5984 0
M  V30 4771 N 465.601 -1.54893 0.290851 0
M  V30 4772 C 466.85 -1.99111 -0.322113 0
M  V30 4773 C 467.163 -1.18283 -1.55784 0
M  V30 4774 O 468.369 -1.5272 -2.24475 0
M  V30 4775 C 466.825 -3.54442 -0.624438 0
M  V30 4776 C 466.433 -4.44066 0.592373 0
M  V30 4777 C 468.177 -4.07211 -1.19916 0
M  V30 4778 C 466.084 -5.90812 0.263762 0
M  V30 4779 H 465.014 -0.743712 -0.124133 0
M  V30 4780 H 467.665 -1.79132 0.39797 0
M  V30 4781 H 466.047 -3.70281 -1.40384 0
M  V30 4782 H 467.221 -4.39999 1.36886 0
M  V30 4783 H 465.536 -4.02015 1.08502 0
M  V30 4784 H 468.133 -5.14407 -1.45909 0
M  V30 4785 H 468.476 -3.57196 -2.13815 0
M  V30 4786 H 469.009 -3.94873 -0.481687 0
M  V30 4787 H 465.748 -6.44955 1.17105 0
M  V30 4788 H 465.268 -5.97911 -0.475655 0
M  V30 4789 H 466.947 -6.46852 -0.138354 0
M  V30 4790 N 467.08 -0.0183926 -1.57589 0
M  V30 4791 C 468.326 0.663543 -1.91638 0
M  V30 4792 C 468.659 1.72392 -0.894134 0
M  V30 4793 O 467.934 1.94316 0.0846449 0
M  V30 4794 C 468.217 1.28984 -3.36207 0
M  V30 4795 C 468.07 0.239761 -4.49161 0
M  V30 4796 C 469.389 2.2109 -3.80536 0
M  V30 4797 H 466.508 0.239746 -0.696915 0
M  V30 4798 H 469.15 -0.073456 -1.89858 0
M  V30 4799 H 467.3 1.91799 -3.37854 0
M  V30 4800 H 468.972 -0.390119 -4.59647 0
M  V30 4801 H 467.215 -0.435972 -4.31604 0
M  V30 4802 H 467.886 0.717383 -5.47319 0
M  V30 4803 H 470.362 1.68273 -3.80557 0
M  V30 4804 H 469.238 2.61869 -4.82406 0
M  V30 4805 H 469.499 3.09764 -3.15434 0
M  V30 4806 N 468.558 1.5553 0.254621 0
M  V30 4807 C 469.521 1.88872 1.29846 0
M  V30 4808 C 470.521 0.764591 1.41459 0
M  V30 4809 O 471.711 1.03265 1.40293 0
M  V30 4810 C 468.843 2.11032 2.67728 0
M  V30 4811 H 470.036 2.82201 1.01502 0
M  V30 4812 H 467.589 1.48303 0.493556 0
M  V30 4813 H 468.324 1.20146 3.01223 0
M  V30 4814 H 468.109 2.92895 2.60682 0
M  V30 4815 H 469.599 2.38038 3.43115 0
M  V30 4816 N 470.036 -0.519951 1.48776 0
M  V30 4817 C 470.966 -1.63253 1.66945 0
M  V30 4818 C 471.947 -1.62014 0.518224 0
M  V30 4819 O 473.132 -1.79053 0.751919 0
M  V30 4820 C 470.262 -3.0181 1.71836 0
M  V30 4821 C 469.216 -3.17911 2.8656 0
M  V30 4822 C 468.542 -4.5763 2.76548 0
M  V30 4823 C 469.842 -2.99729 4.27738 0
M  V30 4824 H 471.536 -1.48302 2.6009 0
M  V30 4825 H 469.082 -0.712026 1.25165 0
M  V30 4826 H 471.035 -3.79525 1.83135 0
M  V30 4827 H 469.759 -3.17806 0.752775 0
M  V30 4828 H 468.418 -2.42616 2.74833 0
M  V30 4829 H 468.066 -4.70476 1.77937 0
M  V30 4830 H 467.766 -4.69346 3.53536 0
M  V30 4831 H 469.29 -5.37431 2.89828 0
M  V30 4832 H 470.704 -3.67228 4.40246 0
M  V30 4833 H 469.101 -3.22932 5.05801 0
M  V30 4834 H 470.171 -1.96047 4.43502 0
M  V30 4835 N 471.514 -1.37532 -0.769588 0
M  V30 4836 C 472.791 -1.23392 -1.51768 0
M  V30 4837 C 473.171 0.17157 -2.10402 0
M  V30 4838 O 472.519 1.17943 -1.95708 0
M  V30 4839 C 472.729 -2.33163 -2.59685 0
M  V30 4840 C 474.077 -2.70809 -3.27028 0
M  V30 4841 O 475.101 -2.32355 -2.69981 0
M  V30 4842 O 473.96 -3.37066 -4.30173 0
M  V30 4843 H 471.054 -0.481617 -0.67229 0
M  V30 4844 H 473.6 -1.49318 -0.806368 0
M  V30 4845 H 472.372 -3.27273 -2.14494 0
M  V30 4846 H 471.995 -2.08713 -3.38415 0
M  V30 4847 N 472.992 0.995999 -1.22138 0
M  V30 4848 C 474.403 1.54961 -1.04135 0
M  V30 4849 C 474.754 1.92159 0.396147 0
M  V30 4850 O 473.879 1.74435 1.28069 0
M  V30 4851 C 474.474 2.81581 -1.88408 0
M  V30 4852 C 473.033 3.33396 -1.74712 0
M  V30 4853 C 472.18 2.06509 -1.85066 0
M  V30 4854 H 475.131 0.817436 -1.36028 0
M  V30 4855 H 475.152 3.53822 -1.39966 0
M  V30 4856 H 474.664 2.54476 -2.93025 0
M  V30 4857 H 472.765 3.65416 -0.728159 0
M  V30 4858 H 472.878 4.04208 -2.57202 0
M  V30 4859 H 471.242 2.19925 -1.28472 0
M  V30 4860 H 472.025 1.81804 -2.91208 0
M  V30 4861 N 474.47 1.03057 1.19235 0
M  V30 4862 C 475.747 0.642608 1.84743 0
M  V30 4863 C 476.127 -0.878577 1.91948 0
M  V30 4864 O 475.475 -1.77597 1.43776 0
M  V30 4865 C 475.685 1.30665 3.23616 0
M  V30 4866 C 477.033 1.43098 3.9976 0
M  V30 4867 O 478.057 1.26396 3.3302 0
M  V30 4868 O 476.916 1.70223 5.19313 0
M  V30 4869 H 474.01 0.223573 0.796206 0
M  V30 4870 H 476.556 1.12883 1.26711 0
M  V30 4871 H 475.328 2.34544 3.13217 0
M  V30 4872 H 474.951 0.808405 3.89295 0
M  V30 4873 N 475.948 -1.35272 0.808662 0
M  V30 4874 C 477.176 -2.02946 0.402537 0
M  V30 4875 C 477.591 -1.60937 -0.987147 0
M  V30 4876 O 476.948 -0.807917 -1.63643 0
M  V30 4877 C 476.999 -3.58317 0.47868 0
M  V30 4878 O 476.72 -3.98799 1.81358 0
M  V30 4879 C 478.221 -4.43251 0.0656281 0
M  V30 4880 H 475.441 -0.650831 0.163279 0
M  V30 4881 H 477.985 -1.72849 1.09286 0
M  V30 4882 H 476.14 -3.87055 -0.163415 0
M  V30 4883 H 476.554 -4.93451 1.77781 0
M  V30 4884 H 478.028 -5.51738 0.170017 0
M  V30 4885 H 478.505 -4.27913 -0.989278 0
M  V30 4886 H 479.111 -4.19813 0.68096 0
M  V30 4887 N 477.426 -0.562348 -1.47226 0
M  V30 4888 C 478.674 -0.0401371 -2.0206 0
M  V30 4889 C 478.995 1.3165 -1.43852 0
M  V30 4890 O 478.265 1.85976 -0.615599 0
M  V30 4891 H 476.845 -0.0118479 -0.746906 0
M  V30 4892 H 479.507 -0.73352 -1.8057 0
M  V30 4893 H 478.603 0.0441254 -3.12069 0
M  V30 4894 N 478.904 1.54736 -0.299062 0
M  V30 4895 C 479.851 2.23448 0.577899 0
M  V30 4896 C 480.821 1.21637 1.13109 0
M  V30 4897 O 482.006 1.50252 1.17597 0
M  V30 4898 C 479.146 2.9774 1.74484 0
M  V30 4899 C 478.259 4.1432 1.22323 0
M  V30 4900 C 477.394 4.76199 2.35388 0
M  V30 4901 C 476.433 5.84927 1.80351 0
M  V30 4902 N 475.57 6.4077 2.86982 0
M  V30 4903 H 480.41 2.97996 -0.0146545 0
M  V30 4904 H 477.947 1.47088 -0.0190013 0
M  V30 4905 H 479.905 3.39045 2.43114 0
M  V30 4906 H 478.535 2.25572 2.30905 0
M  V30 4907 H 477.587 3.7797 0.429249 0
M  V30 4908 H 478.899 4.92659 0.780309 0
M  V30 4909 H 478.053 5.20346 3.11969 0
M  V30 4910 H 476.792 3.97188 2.83006 0
M  V30 4911 H 475.797 5.40207 1.02259 0
M  V30 4912 H 477.022 6.65821 1.3364 0
M  V30 4913 H 474.968 5.64643 3.33938 0
M  V30 4914 H 474.885 7.1445 2.4718 0
M  V30 4915 H 476.153 6.89574 3.63466 0
M  V30 4916 N 480.382 0.0267497 1.57577 0
M  V30 4917 C 481.612 -0.6617 1.95717 0
M  V30 4918 C 482.02 -1.66331 0.901706 0
M  V30 4919 O 481.363 -1.83273 -0.125241 0
M  V30 4920 C 481.425 -1.42649 3.29987 0
M  V30 4921 C 481.089 -0.583482 4.5326 0
M  V30 4922 C 482.086 0.140221 5.19711 0
M  V30 4923 C 479.771 -0.521581 4.99585 0
M  V30 4924 C 481.765 0.914523 6.30805 0
M  V30 4925 C 479.452 0.256428 6.10562 0
M  V30 4926 C 480.45 0.973189 6.76031 0
M  V30 4927 O 480.138 1.73845 7.84878 0
M  V30 4928 H 479.87 -0.187483 0.649481 0
M  V30 4929 H 482.424 0.0820847 2.05236 0
M  V30 4930 H 480.654 -2.21536 3.16952 0
M  V30 4931 H 482.343 -2.00282 3.53047 0
M  V30 4932 H 483.109 0.101716 4.84893 0
M  V30 4933 H 478.988 -1.06904 4.48433 0
M  V30 4934 H 482.532 1.4745 6.81839 0
M  V30 4935 H 478.429 0.296657 6.44818 0
M  V30 4936 H 479.197 1.65797 8.01532 0
M  V30 4937 N 481.861 -1.55662 -0.24637 0
M  V30 4938 C 482.808 -1.90361 -1.30504 0
M  V30 4939 C 483.778 -0.757905 -1.47801 0
M  V30 4940 O 484.963 -1.01161 -1.61775 0
M  V30 4941 C 482.103 -2.2042 -2.65535 0
M  V30 4942 C 481.216 -3.47799 -2.56242 0
M  V30 4943 C 480.351 -3.67426 -3.8363 0
M  V30 4944 C 479.39 -4.88403 -3.68956 0
M  V30 4945 N 478.527 -5.04548 -4.88237 0
M  V30 4946 H 483.367 -2.80645 -1.00213 0
M  V30 4947 H 480.904 -1.38924 -0.483577 0
M  V30 4948 H 482.862 -2.35853 -3.44135 0
M  V30 4949 H 481.492 -1.3334 -2.93973 0
M  V30 4950 H 480.544 -3.40694 -1.69208 0
M  V30 4951 H 481.856 -4.36544 -2.4131 0
M  V30 4952 H 481.01 -3.82821 -4.70673 0
M  V30 4953 H 479.749 -2.76914 -4.01459 0
M  V30 4954 H 478.754 -4.72984 -2.80296 0
M  V30 4955 H 479.979 -5.80375 -3.52621 0
M  V30 4956 H 477.925 -4.16974 -5.06427 0
M  V30 4957 H 477.842 -5.87384 -4.75937 0
M  V30 4958 H 479.11 -5.24355 -5.76777 0
M  V30 4959 N 483.339 0.512053 -1.4905 0
M  V30 4960 C 484.585 1.26613 -1.59187 0
M  V30 4961 C 484.94 1.90494 -0.270163 0
M  V30 4962 O 484.233 1.77204 0.728648 0
M  V30 4963 C 484.427 2.36446 -2.68008 0
M  V30 4964 C 484.256 1.83334 -4.10632 0
M  V30 4965 C 483.026 1.65131 -4.77556 0
M  V30 4966 C 485.224 1.35153 -4.96224 0
M  V30 4967 N 483.206 1.06833 -6.04533 0
M  V30 4968 C 484.577 0.889186 -6.13591 0
M  V30 4969 C 486.632 1.23623 -4.82309 0
M  V30 4970 C 485.335 0.322953 -7.18575 0
M  V30 4971 C 487.361 0.683978 -5.87431 0
M  V30 4972 C 486.723 0.2318 -7.04018 0
M  V30 4973 H 482.822 0.453678 -0.636946 0
M  V30 4974 H 485.406 0.575217 -1.86009 0
M  V30 4975 H 483.577 3.03012 -2.42978 0
M  V30 4976 H 485.309 3.03485 -2.67729 0
M  V30 4977 H 482.064 1.89178 -4.34176 0
M  V30 4978 H 482.488 0.796425 -6.72299 0
M  V30 4979 H 487.13 1.57184 -3.92496 0
M  V30 4980 H 484.848 -0.024943 -8.08096 0
M  V30 4981 H 488.434 0.597694 -5.78722 0
M  V30 4982 H 487.314 -0.188869 -7.83973 0
M  V30 4983 N 484.817 1.37938 0.762283 0
M  V30 4984 C 485.767 1.30976 1.86626 0
M  V30 4985 C 486.751 0.195714 1.59705 0
M  V30 4986 O 487.943 0.430937 1.71674 0
M  V30 4987 C 485.072 1.12847 3.24223 0
M  V30 4988 C 484.158 2.28836 3.57064 0
M  V30 4989 N 484.549 3.54256 3.61022 0
M  V30 4990 C 482.847 2.21198 3.87282 0
M  V30 4991 C 483.548 4.30798 3.90881 0
M  V30 4992 N 482.524 3.60049 4.07266 0
M  V30 4993 H 486.326 2.25946 1.87951 0
M  V30 4994 H 483.84 1.31046 0.959206 0
M  V30 4995 H 485.837 1.05943 4.03214 0
M  V30 4996 H 484.497 0.188024 3.24155 0
M  V30 4997 H 485.508 3.8804 3.42995 0
M  V30 4998 H 482.185 1.35264 3.94981 0
M  V30 4999 H 483.575 5.39386 4.00639 0
M  V30 5000 N 486.295 -0.989507 1.22664 0
M  V30 5001 C 487.525 -1.7624 1.0781 0
M  V30 5002 C 487.933 -1.85466 -0.374036 0
M  V30 5003 O 487.276 -1.32645 -1.27087 0
M  V30 5004 C 487.338 -3.21007 1.61849 0
M  V30 5005 C 487.002 -3.35316 3.10503 0
M  V30 5006 C 487.999 -3.22362 4.07896 0
M  V30 5007 C 485.684 -3.60258 3.50028 0
M  V30 5008 C 487.678 -3.34139 5.42798 0
M  V30 5009 C 485.365 -3.71676 4.85078 0
M  V30 5010 C 486.363 -3.58625 5.81272 0
M  V30 5011 O 486.051 -3.69655 7.1387 0
M  V30 5012 H 485.783 -0.560209 0.378341 0
M  V30 5013 H 488.337 -1.25252 1.62792 0
M  V30 5014 H 486.567 -3.73202 1.01279 0
M  V30 5015 H 488.256 -3.80024 1.42606 0
M  V30 5016 H 489.022 -3.03 3.78703 0
M  V30 5017 H 484.901 -3.69492 2.75675 0
M  V30 5018 H 488.445 -3.23869 6.17863 0
M  V30 5019 H 484.342 -3.90545 5.1395 0
M  V30 5020 H 485.11 -3.86507 7.21495 0
M  V30 5021 N 487.773 -1.03688 -1.18687 0
M  V30 5022 C 488.705 -0.582696 -2.21669 0
M  V30 5023 C 489.718 0.345656 -1.59088 0
M  V30 5024 O 490.907 0.140776 -1.77944 0
M  V30 5025 C 488.007 0.169204 -3.38477 0
M  V30 5026 C 487.18 -0.766079 -4.30639 0
M  V30 5027 C 486.239 -0.0581541 -5.26168 0
M  V30 5028 O 485.265 -0.687346 -5.65035 0
M  V30 5029 N 486.467 1.20981 -5.67753 0
M  V30 5030 H 489.232 -1.46843 -2.61261 0
M  V30 5031 H 486.793 -0.916896 -1.33434 0
M  V30 5032 H 488.785 0.652543 -3.99405 0
M  V30 5033 H 487.355 0.956435 -2.97609 0
M  V30 5034 H 486.575 -1.42935 -3.67373 0
M  V30 5035 H 487.863 -1.40146 -4.89118 0
M  V30 5036 H 487.261 1.74159 -5.38224 0
M  V30 5037 H 485.818 1.6375 -6.30896 0
M  V30 5038 N 489.251 1.34841 -0.815825 0
M  V30 5039 C 490.161 2.33425 -0.234462 0
M  V30 5040 C 491.177 1.62295 0.627413 0
M  V30 5041 O 492.353 1.94109 0.536987 0
M  V30 5042 C 489.418 3.41471 0.599849 0
M  V30 5043 C 488.479 4.28362 -0.283596 0
M  V30 5044 C 487.712 5.31248 0.51099 0
M  V30 5045 O 487.935 5.43056 1.7449 0
M  V30 5046 O 486.869 6.01812 -0.10297 0
M  V30 5047 H 490.695 2.84962 -1.05024 0
M  V30 5048 H 488.28 1.37774 -0.577809 0
M  V30 5049 H 490.162 4.07464 1.07475 0
M  V30 5050 H 488.837 2.9219 1.39308 0
M  V30 5051 H 487.744 3.65318 -0.805836 0
M  V30 5052 H 489.077 4.81066 -1.041 0
M  V30 5053 N 490.729 0.570148 1.46925 0
M  V30 5054 C 491.957 0.0561966 2.06824 0
M  V30 5055 C 492.372 -1.24326 1.42086 0
M  V30 5056 O 491.729 -1.74882 0.521794 0
M  V30 5057 C 491.78 -0.129517 3.61268 0
M  V30 5058 O 491.501 1.1185 4.23581 0
M  V30 5059 C 493.002 -0.679266 4.38065 0
M  V30 5060 H 490.222 0.0517261 0.669003 0
M  V30 5061 H 492.766 0.787243 1.8874 0
M  V30 5062 H 490.921 -0.810739 3.78822 0
M  V30 5063 H 491.335 0.924375 5.1629 0
M  V30 5064 H 492.809 -0.758445 5.46765 0
M  V30 5065 H 493.286 -1.69346 4.05239 0
M  V30 5066 H 493.892 -0.0333237 4.25287 0
M  V30 5067 N 492.207 -1.54576 0.307264 0
M  V30 5068 C 493.618 -1.8579 -0.184121 0
M  V30 5069 C 493.969 -1.22914 -1.52927 0
M  V30 5070 O 493.094 -0.529126 -2.09831 0
M  V30 5071 C 493.689 -3.37081 -0.340862 0
M  V30 5072 C 492.248 -3.68304 -0.776465 0
M  V30 5073 C 491.395 -2.77076 0.111503 0
M  V30 5074 H 494.346 -1.49656 0.528078 0
M  V30 5075 H 494.367 -3.61922 -1.17443 0
M  V30 5076 H 493.879 -3.82815 0.638309 0
M  V30 5077 H 491.98 -3.28092 -1.76596 0
M  V30 5078 H 492.093 -4.75434 -0.591512 0
M  V30 5079 H 490.457 -2.51374 -0.410256 0
M  V30 5080 H 491.24 -3.25632 1.08714 0
M  V30 5081 N 493.685 -0.035106 -1.57561 0
M  V30 5082 C 494.933 0.64096 -1.91667 0
M  V30 5083 C 495.254 1.72323 -0.912681 0
M  V30 5084 O 494.524 1.95849 0.0449089 0
M  V30 5085 H 493.104 0.239743 -0.707483 0
M  V30 5086 H 495.766 -0.084321 -1.94718 0
M  V30 5087 H 494.862 1.08987 -2.92452 0
M  V30 5088 N 495.163 1.55791 0.238111 0
M  V30 5089 C 496.44 1.68798 0.98826 0
M  V30 5090 C 496.82 0.577562 2.03045 0
M  V30 5091 O 496.168 -0.41778 2.24648 0
M  V30 5092 C 496.378 3.09454 1.61367 0
M  V30 5093 C 497.726 3.68335 2.11221 0
M  V30 5094 O 498.75 3.1231 1.71292 0
M  V30 5095 O 497.609 4.6657 2.84561 0
M  V30 5096 H 494.703 0.686881 0.460568 0
M  V30 5097 H 497.249 1.68118 0.231202 0
M  V30 5098 H 496.021 3.81726 0.860295 0
M  V30 5099 H 495.644 3.14182 2.4367 0
M  V30 5100 N 496.642 -0.504142 1.49319 0
M  V30 5101 C 497.59 -1.62689 1.66238 0
M  V30 5102 C 498.584 -1.6095 0.528349 0
M  V30 5103 O 499.79 -1.65496 0.707887 0
M  V30 5104 H 496.165 -0.539247 0.524134 0
M  V30 5105 H 498.136 -1.45571 2.60484 0
M  V30 5106 C 496.885 -3.00841 1.74328 0
M  V30 5107 H 496.208 -3.02884 2.60963 0
M  V30 5108 H 497.648 -3.78945 1.90202 0
M  V30 5109 C 496.107 -3.33355 0.487416 0
M  V30 5110 O 496.637 -3.99819 -0.388294 0
M  V30 5111 N 494.843 -2.88469 0.351306 0
M  V30 5112 H 494.39 -2.34557 1.06492 0
M  V30 5113 H 494.348 -3.10591 -0.487899 0
M  V30 5114 N 498.12 -1.38341 -0.754957 0
M  V30 5115 C 499.366 -1.35678 -1.51536 0
M  V30 5116 C 499.721 0.0533985 -1.92326 0
M  V30 5117 O 499.014 1.01573 -1.6246 0
M  V30 5118 C 499.208 -2.2452 -2.78075 0
M  V30 5119 C 499.037 -3.74035 -2.49655 0
M  V30 5120 C 497.807 -4.43066 -2.42942 0
M  V30 5121 C 500.005 -4.665 -2.16523 0
M  V30 5122 N 497.987 -5.78026 -2.06783 0
M  V30 5123 C 499.358 -5.89962 -1.90644 0
M  V30 5124 C 501.413 -4.54718 -2.02821 0
M  V30 5125 C 500.116 -7.0296 -1.52444 0
M  V30 5126 C 502.142 -5.67618 -1.66023 0
M  V30 5127 C 501.504 -6.90141 -1.41015 0
M  V30 5128 H 497.603 -0.551764 -0.554148 0
M  V30 5129 H 500.187 -1.73716 -0.879258 0
M  V30 5130 H 498.358 -1.88673 -3.39496 0
M  V30 5131 H 500.09 -2.12993 -3.44116 0
M  V30 5132 H 496.845 -3.96264 -2.59367 0
M  V30 5133 H 497.269 -6.49394 -1.91353 0
M  V30 5134 H 501.911 -3.60546 -2.20831 0
M  V30 5135 H 499.629 -7.97051 -1.33174 0
M  V30 5136 H 503.215 -5.6048 -1.56055 0
M  V30 5137 H 502.095 -7.76021 -1.12965 0
M  V30 5138 N 499.598 0.982988 -1.23187 0
M  V30 5139 C 500.875 1.69814 -0.970707 0
M  V30 5140 C 501.255 2.04811 0.511424 0
M  V30 5141 O 500.603 1.73924 1.48198 0
M  V30 5142 C 500.813 2.94143 -1.87831 0
M  V30 5143 C 502.161 3.66712 -2.14026 0
M  V30 5144 O 503.185 3.04171 -1.8536 0
M  V30 5145 O 502.044 4.79258 -2.62629 0
M  V30 5146 H 499.138 0.741659 -0.365884 0
M  V30 5147 H 501.684 1.03844 -1.34218 0
M  V30 5148 H 500.456 2.64858 -2.88038 0
M  V30 5149 H 500.079 3.6785 -1.50905 0
M  V30 5150 N 501.076 1.04316 1.18135 0
M  V30 5151 C 502.306 0.767003 1.91835 0
M  V30 5152 C 502.714 -0.68002 1.76557 0
M  V30 5153 O 502.057 -1.47548 1.09432 0
M  V30 5154 C 502.119 1.05674 3.43618 0
M  V30 5155 C 501.783 2.49818 3.82675 0
M  V30 5156 C 502.78 3.48003 3.86251 0
M  V30 5157 C 500.465 2.84596 4.13897 0
M  V30 5158 C 502.459 4.79016 4.20503 0
M  V30 5159 C 500.146 4.15813 4.4782 0
M  V30 5160 C 501.144 5.12834 4.51099 0
M  V30 5161 O 500.832 6.41699 4.84229 0
M  V30 5162 H 500.564 0.278948 0.615763 0
M  V30 5163 H 503.118 1.3946 1.50798 0
M  V30 5164 H 501.348 0.372029 3.84906 0
M  V30 5165 H 503.037 0.767994 3.98568 0
M  V30 5166 H 503.803 3.22475 3.62264 0
M  V30 5167 H 499.682 2.09748 4.1052 0
M  V30 5168 H 503.226 5.54739 4.22978 0
M  V30 5169 H 499.123 4.41109 4.71268 0
M  V30 5170 H 499.891 6.46387 5.02121 0
M  V30 5171 N 502.554 -1.34406 0.822964 0
M  V30 5172 C 503.782 -2.02508 0.424039 0
M  V30 5173 C 504.197 -1.61975 -0.970022 0
M  V30 5174 O 503.554 -0.825228 -1.62777 0
M  V30 5175 C 503.605 -3.57789 0.516657 0
M  V30 5176 O 503.326 -3.96853 1.85577 0
M  V30 5177 C 504.827 -4.43157 0.112637 0
M  V30 5178 H 502.047 -0.649063 0.170173 0
M  V30 5179 H 504.591 -1.7168 1.11113 0
M  V30 5180 H 502.746 -3.87207 -0.122353 0
M  V30 5181 H 503.16 -4.91538 1.83005 0
M  V30 5182 H 504.634 -5.51527 0.228526 0
M  V30 5183 H 505.111 -4.28939 -0.943837 0
M  V30 5184 H 505.717 -4.19067 0.725449 0
M  V30 5185 N 504.032 -0.577932 -1.46621 0
M  V30 5186 C 505.257 -0.0652536 -2.07297 0
M  V30 5187 C 505.682 1.22828 -1.4246 0
M  V30 5188 O 505.04 1.74075 -0.506718 0
M  V30 5189 C 505.088 0.0920589 -3.60482 0
M  V30 5190 O 504.192 1.14972 -3.96049 0
M  V30 5191 H 503.533 -0.06065 -0.661224 0
M  V30 5192 H 506.063 -0.799515 -1.88332 0
M  V30 5193 H 506.073 0.299741 -4.06897 0
M  V30 5194 H 504.748 -0.852612 -4.07067 0
M  V30 5195 H 503.325 0.920879 -3.61351 0
M  V30 5196 N 505.51 1.54411 -0.315457 0
M  V30 5197 C 506.738 2.04833 0.291738 0
M  V30 5198 C 507.153 1.19203 1.46411 0
M  V30 5199 O 506.51 0.220867 1.81159 0
M  V30 5200 C 506.561 3.53969 0.73404 0
M  V30 5201 O 506.282 4.36346 -0.391682 0
M  V30 5202 C 507.783 4.2045 1.40489 0
M  V30 5203 H 505.003 0.668195 0.0612947 0
M  V30 5204 H 507.547 1.99276 -0.45929 0
M  V30 5205 H 505.702 3.5984 1.43506 0
M  V30 5206 H 506.116 5.24481 -0.0447088 0
M  V30 5207 H 507.59 5.26278 1.66539 0
M  V30 5208 H 508.067 3.71067 2.3496 0
M  V30 5209 H 508.673 4.18694 0.746662 0
M  V30 5210 N 506.988 0.0434614 1.5754 0
M  V30 5211 C 507.92 -0.962586 2.08007 0
M  V30 5212 C 508.933 -1.27972 1.00634 0
M  V30 5213 O 510.122 -1.24186 1.28219 0
M  V30 5214 C 507.222 -2.28621 2.50171 0
M  V30 5215 C 506.395 -2.15214 3.80791 0
M  V30 5216 C 505.454 -3.30633 4.09351 0
M  V30 5217 O 504.48 -3.0688 4.79388 0
M  V30 5218 N 505.682 -4.54873 3.60654 0
M  V30 5219 H 508.447 -0.531891 2.94942 0
M  V30 5220 H 506.008 -0.142965 1.61268 0
M  V30 5221 H 508 -3.04689 2.66359 0
M  V30 5222 H 506.57 -2.63283 1.68525 0
M  V30 5223 H 505.79 -1.23785 3.74261 0
M  V30 5224 H 507.078 -2.03475 4.66343 0
M  V30 5225 H 506.476 -4.77063 3.04019 0
M  V30 5226 H 505.033 -5.2806 3.82094 0
M  V30 5227 N 508.466 -1.55915 -0.229846 0
M  V30 5228 C 509.877 -1.68809 -0.797531 0
M  V30 5229 C 510.228 -0.643995 -1.8533 0
M  V30 5230 O 509.353 0.206492 -2.15413 0
M  V30 5231 C 509.948 -3.06043 -1.45338 0
M  V30 5232 C 508.507 -3.20819 -1.96856 0
M  V30 5233 C 507.654 -2.6472 -0.825736 0
M  V30 5234 H 510.605 -1.58699 -0.00533733 0
M  V30 5235 H 510.626 -3.01438 -2.32196 0
M  V30 5236 H 510.138 -3.82012 -0.684743 0
M  V30 5237 H 508.239 -2.49704 -2.76548 0
M  V30 5238 H 508.352 -4.27937 -2.15423 0
M  V30 5239 H 506.716 -2.22985 -1.23084 0
M  V30 5240 H 507.499 -3.43229 -0.0699019 0
M  V30 5241 N 509.944 0.496216 -1.49584 0
M  V30 5242 C 510.877 1.61508 -1.61215 0
M  V30 5243 C 511.855 1.55927 -0.461045 0
M  V30 5244 O 513.039 1.75914 -0.677231 0
M  V30 5245 C 510.166 3.00035 -1.57152 0
M  V30 5246 C 509.212 3.23861 -2.77518 0
M  V30 5247 S 510.045 3.06466 -4.39134 0
M  V30 5248 C 511.201 4.4738 -4.37724 0
M  V30 5249 H 511.434 1.51398 -2.55863 0
M  V30 5250 H 508.967 0.681727 -1.38535 0
M  V30 5251 H 510.925 3.7991 -1.55494 0
M  V30 5252 H 509.586 3.07556 -0.637834 0
M  V30 5253 H 508.779 4.25 -2.70908 0
M  V30 5254 H 508.381 2.51716 -2.76614 0
M  V30 5255 H 510.673 5.39556 -4.09738 0
M  V30 5256 H 511.616 4.59038 -5.39156 0
M  V30 5257 H 512.024 4.28283 -3.67742 0
M  V30 5258 N 511.423 1.38739 0.74761 0
M  V30 5259 C 512.672 1.3459 1.50228 0
M  V30 5260 C 512.985 -0.0595592 1.95509 0
M  V30 5261 O 514.191 -0.22361 2.70578 0
M  V30 5262 C 512.647 2.36377 2.71393 0
M  V30 5263 C 512.255 3.82573 2.33113 0
M  V30 5264 C 513.999 2.41281 3.49262 0
M  V30 5265 C 511.906 4.76032 3.50924 0
M  V30 5266 H 510.836 0.500312 0.564096 0
M  V30 5267 H 513.487 1.64324 0.8167 0
M  V30 5268 H 511.869 1.99694 3.41962 0
M  V30 5269 H 513.043 4.28227 1.70171 0
M  V30 5270 H 511.358 3.80844 1.68365 0
M  V30 5271 H 513.955 3.08301 4.36869 0
M  V30 5272 H 514.298 1.43353 3.9084 0
M  V30 5273 H 514.831 2.76793 2.85711 0
M  V30 5274 H 511.57 5.75177 3.14408 0
M  V30 5275 H 511.09 4.35066 4.12889 0
M  V30 5276 H 512.769 4.94331 4.17427 0
M  V30 5277 N 512.901 -0.976442 1.23707 0
M  V30 5278 C 513.831 -2.08749 1.04624 0
M  V30 5279 C 514.812 -1.70057 -0.0380956 0
M  V30 5280 O 515.997 -1.93782 0.127308 0
M  V30 5281 C 513.127 -3.41335 0.640902 0
M  V30 5282 C 512.081 -3.93947 1.67302 0
M  V30 5283 C 511.407 -5.22774 1.12301 0
M  V30 5284 C 512.707 -4.22769 3.06697 0
M  V30 5285 H 514.401 -2.24972 1.97555 0
M  V30 5286 H 511.947 -1.08108 0.951247 0
M  V30 5287 H 513.9 -4.18489 0.494434 0
M  V30 5288 H 512.624 -3.24988 -0.324099 0
M  V30 5289 H 511.283 -3.18941 1.80755 0
M  V30 5290 H 510.931 -5.0278 0.148877 0
M  V30 5291 H 510.631 -5.58942 1.81267 0
M  V30 5292 H 512.155 -6.02546 0.988479 0
M  V30 5293 H 513.569 -4.90659 2.96524 0
M  V30 5294 H 511.966 -4.70147 3.72937 0
M  V30 5295 H 513.036 -3.29885 3.55392 0
M  V30 5296 N 514.379 -1.04941 -1.1758 0
M  V30 5297 C 515.342 -0.652456 -2.19717 0
M  V30 5298 C 516.342 0.294745 -1.58076 0
M  V30 5299 O 517.532 0.0789579 -1.74021 0
M  V30 5300 C 514.664 0.0420712 -3.40874 0
M  V30 5301 H 515.857 -1.55642 -2.5635 0
M  V30 5302 H 513.41 -0.842995 -1.31618 0
M  V30 5303 H 514.145 0.95943 -3.09783 0
M  V30 5304 H 513.93 -0.638844 -3.86861 0
M  V30 5305 H 515.42 0.306 -4.16477 0
M  V30 5306 N 515.857 1.33968 -0.830081 0
M  V30 5307 C 517.134 1.92554 -0.343858 0
M  V30 5308 C 517.514 1.7573 1.16971 0
M  V30 5309 O 516.862 1.14035 1.98011 0
M  V30 5310 C 517.072 3.40147 -0.781073 0
M  V30 5311 C 518.42 4.17299 -0.78402 0
M  V30 5312 O 519.444 3.48762 -0.724112 0
M  V30 5313 O 518.303 5.39631 -0.863739 0
M  V30 5314 H 515.397 0.821469 -0.0954827 0
M  V30 5315 H 517.943 1.42897 -0.915348 0
M  V30 5316 H 516.715 3.46225 -1.82329 0
M  V30 5317 H 516.338 3.97166 -0.18567 0
M  V30 5318 N 517.335 0.585699 1.46312 0
M  V30 5319 C 518.584 0.0701192 2.01578 0
M  V30 5320 C 518.897 -1.29889 1.46247 0
M  V30 5321 O 520.103 -1.90598 1.93351 0
M  V30 5322 C 518.559 0.0747499 3.59822 0
M  V30 5323 C 518.167 1.44226 4.24149 0
M  V30 5324 C 519.911 -0.38673 4.22735 0
M  V30 5325 C 517.818 1.40446 5.74481 0
M  V30 5326 H 516.748 0.0224441 0.753666 0
M  V30 5327 H 519.399 0.737789 1.68015 0
M  V30 5328 H 517.781 -0.659144 3.90476 0
M  V30 5329 H 518.955 2.19612 4.05101 0
M  V30 5330 H 517.27 1.84401 3.73343 0
M  V30 5331 H 519.867 -0.433853 5.32937 0
M  V30 5332 H 520.21 -1.40489 3.91878 0
M  V30 5333 H 520.743 0.293195 3.96718 0
M  V30 5334 H 517.482 2.39952 6.10003 0
M  V30 5335 H 517.002 0.692845 5.95785 0
M  V30 5336 H 518.681 1.11865 6.37256 0
M  V30 5337 N 518.813 -1.54241 0.323641 0
M  V30 5338 C 519.76 -2.24339 -0.542277 0
M  V30 5339 C 520.73 -1.23421 -1.11159 0
M  V30 5340 O 521.915 -1.52104 -1.15192 0
M  V30 5341 C 519.055 -3.00479 -1.69725 0
M  V30 5342 C 518.168 -4.16214 -1.15716 0
M  V30 5343 C 517.303 -4.79884 -2.27783 0
M  V30 5344 C 516.342 -5.87722 -1.71023 0
M  V30 5345 N 515.479 -6.45254 -2.76752 0
M  V30 5346 H 520.319 -2.97935 0.0620613 0
M  V30 5347 H 517.856 -1.47039 0.0423993 0
M  V30 5348 H 519.814 -3.42869 -2.3769 0
M  V30 5349 H 518.444 -2.29217 -2.27288 0
M  V30 5350 H 517.496 -3.78605 -0.369063 0
M  V30 5351 H 518.808 -4.93838 -0.701832 0
M  V30 5352 H 517.962 -5.25243 -3.03651 0
M  V30 5353 H 516.701 -4.01641 -2.76652 0
M  V30 5354 H 515.706 -5.41765 -0.936518 0
M  V30 5355 H 516.931 -6.67863 -1.2303 0
M  V30 5356 H 514.877 -5.69884 -3.24912 0
M  V30 5357 H 514.794 -7.18292 -2.35782 0
M  V30 5358 H 516.062 -6.95269 -3.5245 0
M  V30 5359 N 520.291 -0.0518155 -1.57515 0
M  V30 5360 C 521.54 0.621286 -1.91893 0
M  V30 5361 C 521.853 1.71966 -0.932052 0
M  V30 5362 O 523.059 2.45096 -1.16791 0
M  V30 5363 C 521.515 1.15641 -3.40816 0
M  V30 5364 C 521.123 0.0901146 -4.47909 0
M  V30 5365 C 522.867 1.80472 -3.84227 0
M  V30 5366 C 520.774 0.638154 -5.87947 0
M  V30 5367 H 519.704 0.235835 -0.716169 0
M  V30 5368 H 522.355 -0.120809 -1.83102 0
M  V30 5369 H 520.737 1.95084 -3.44613 0
M  V30 5370 H 521.911 -0.683525 -4.55702 0
M  V30 5371 H 520.226 -0.460774 -4.13843 0
M  V30 5372 H 522.823 2.22471 -4.86221 0
M  V30 5373 H 523.166 2.65669 -3.20508 0
M  V30 5374 H 523.699 1.07683 -3.82948 0
M  V30 5375 H 520.438 -0.176202 -6.55263 0
M  V30 5376 H 519.958 1.37976 -5.83714 0
M  V30 5377 H 521.637 1.12085 -6.37217 0
M  V30 5378 N 521.769 1.56035 0.221574 0
M  V30 5379 C 522.732 1.91584 1.2581 0
M  V30 5380 C 523.732 0.794425 1.39805 0
M  V30 5381 O 524.922 1.06217 1.38071 0
M  V30 5382 C 522.054 2.16663 2.63192 0
M  V30 5383 H 523.247 2.8429 0.954935 0
M  V30 5384 H 520.8 1.49316 0.461988 0
M  V30 5385 H 521.535 1.26508 2.98607 0
M  V30 5386 H 521.32 2.98358 2.5441 0
M  V30 5387 H 522.81 2.45262 3.37988 0
M  V30 5388 N 523.247 -0.488276 1.49845 0
M  V30 5389 C 524.495 -1.23911 1.59657 0
M  V30 5390 C 524.816 -1.92816 0.291005 0
M  V30 5391 O 524.086 -1.83328 -0.690485 0
M  V30 5392 H 522.666 -0.460357 0.588286 0
M  V30 5393 H 525.328 -0.564794 1.86537 0
M  V30 5394 H 524.424 -1.99625 2.39909 0
M  V30 5395 N 524.725 -1.39134 -0.740242 0
M  V30 5396 C 525.672 -1.37434 -1.8542 0
M  V30 5397 C 526.642 -0.234822 -1.64432 0
M  V30 5398 O 527.827 -0.429125 -1.85912 0
M  V30 5399 C 524.967 -1.21844 -3.22875 0
M  V30 5400 C 524.08 -2.45296 -3.55603 0
M  V30 5401 C 523.215 -2.22334 -4.82432 0
M  V30 5402 C 522.254 -3.41488 -5.07988 0
M  V30 5403 N 521.391 -3.17877 -6.26018 0
M  V30 5404 H 526.231 -2.3266 -1.86207 0
M  V30 5405 H 523.768 -1.15578 -0.909946 0
M  V30 5406 H 525.726 -1.10818 -4.02213 0
M  V30 5407 H 524.356 -0.3025 -3.21379 0
M  V30 5408 H 523.408 -2.66945 -2.71006 0
M  V30 5409 H 524.72 -3.34063 -3.7041 0
M  V30 5410 H 523.874 -2.0852 -5.69741 0
M  V30 5411 H 522.613 -1.30954 -4.6979 0
M  V30 5412 H 521.618 -3.55807 -4.19144 0
M  V30 5413 H 522.843 -4.33763 -5.22519 0
M  V30 5414 H 520.789 -2.29156 -6.14673 0
M  V30 5415 H 520.706 -4.00198 -6.41387 0
M  V30 5416 H 521.974 -3.07746 -7.16179 0
M  V30 5417 N 526.204 0.969867 -1.24223 0
M  V30 5418 C 527.615 1.52717 -1.07399 0
M  V30 5419 C 527.966 1.92956 0.355298 0
M  V30 5420 O 527.091 1.77112 1.2434 0
M  V30 5421 C 527.686 2.77521 -1.94339 0
M  V30 5422 C 526.245 3.29615 -1.81744 0
M  V30 5423 C 525.392 2.02537 -1.89405 0
M  V30 5424 H 528.343 0.788399 -1.37732 0
M  V30 5425 H 528.364 3.50773 -1.47439 0
M  V30 5426 H 527.876 2.48203 -2.98357 0
M  V30 5427 H 525.977 3.63789 -0.805505 0
M  V30 5428 H 526.09 3.98661 -2.65718 0
M  V30 5429 H 524.454 2.17151 -1.33108 0
M  V30 5430 H 525.237 1.75587 -2.94999 0
M  V30 5431 N 527.682 1.05563 1.17022 0
M  V30 5432 C 529.098 0.777684 1.39371 0
M  V30 5433 C 529.298 -0.626269 1.91521 0
M  V30 5434 O 528.354 -1.38806 2.10924 0
M  V30 5435 C 529.667 1.83642 2.3811 0
M  V30 5436 C 531.215 1.85907 2.51809 0
M  V30 5437 C 531.69 2.90813 3.53824 0
M  V30 5438 N 533.181 2.898 3.61345 0
M  V30 5439 C 533.916 3.6762 4.40049 0
M  V30 5440 N 533.412 4.55237 5.22237 0
M  V30 5441 N 535.205 3.56044 4.34959 0
M  V30 5442 H 527.356 1.9614 0.815047 0
M  V30 5443 H 529.619 0.849527 0.420722 0
M  V30 5444 H 529.325 2.84425 2.06871 0
M  V30 5445 H 529.199 1.6812 3.37662 0
M  V30 5446 H 531.586 0.857865 2.82356 0
M  V30 5447 H 531.667 2.05506 1.52318 0
M  V30 5448 H 531.311 3.91122 3.24015 0
M  V30 5449 H 531.241 2.68465 4.53028 0
M  V30 5450 H 533.732 2.26274 3.02669 0
M  V30 5451 H 534.045 5.11291 5.79484 0
M  V30 5452 H 532.39 4.59296 5.21605 0
M  V30 5453 H 535.581 2.86986 3.69806 0
M  V30 5454 H 535.754 4.16938 4.96051 0
M  V30 5455 N 529.16 -1.33526 0.837174 0
M  V30 5456 C 530.107 -2.29248 0.267169 0
M  V30 5457 C 531.077 -1.54252 -0.616071 0
M  V30 5458 O 532.262 -1.82559 -0.554699 0
M  V30 5459 C 529.402 -3.40638 -0.553152 0
M  V30 5460 C 528.515 -4.30548 0.353921 0
M  V30 5461 C 527.65 -5.29051 -0.477339 0
M  V30 5462 C 526.689 -6.106 0.42823 0
M  V30 5463 N 525.826 -7.01152 -0.364801 0
M  V30 5464 H 530.666 -2.77398 1.08877 0
M  V30 5465 H 528.203 -1.36496 0.54838 0
M  V30 5466 H 530.161 -4.03921 -1.04422 0
M  V30 5467 H 528.791 -2.93685 -1.33973 0
M  V30 5468 H 527.843 -3.68001 0.963289 0
M  V30 5469 H 529.155 -4.87631 1.04964 0
M  V30 5470 H 528.309 -5.97853 -1.0323 0
M  V30 5471 H 527.048 -4.72541 -1.2065 0
M  V30 5472 H 526.053 -5.40718 0.995219 0
M  V30 5473 H 527.278 -6.69193 1.15573 0
M  V30 5474 H 525.224 -6.47092 -1.07738 0
M  V30 5475 H 525.141 -7.5551 0.272238 0
M  V30 5476 H 526.409 -7.74263 -0.902054 0
M  V30 5477 N 530.638 -0.59345 -1.46 0
M  V30 5478 C 531.884 -0.0832754 -2.02629 0
M  V30 5479 C 532.217 1.27749 -1.46266 0
M  V30 5480 O 531.492 1.8395 -0.631866 0
M  V30 5481 C 531.775 -0.0290756 -3.60088 0
M  V30 5482 C 531.628 -1.41951 -4.26814 0
M  V30 5483 C 532.947 0.666055 -4.35031 0
M  V30 5484 H 530.066 -0.031736 -0.736316 0
M  V30 5485 H 532.708 -0.762711 -1.74019 0
M  V30 5486 H 530.858 0.549532 -3.84594 0
M  V30 5487 H 532.53 -2.04411 -4.13538 0
M  V30 5488 H 530.773 -1.98422 -3.8576 0
M  V30 5489 H 531.444 -1.33395 -5.3564 0
M  V30 5490 H 533.92 0.174401 -4.15734 0
M  V30 5491 H 532.796 0.673041 -5.44758 0
M  V30 5492 H 533.057 1.72946 -4.06869 0
M  V30 5493 N 532.116 1.54067 -0.331816 0
M  V30 5494 C 533.365 1.99895 0.269209 0
M  V30 5495 C 533.678 1.22371 1.52593 0
M  V30 5496 O 534.884 1.58618 2.20347 0
M  V30 5497 C 533.34 3.55972 0.530244 0
M  V30 5498 C 532.948 4.4234 -0.709901 0
M  V30 5499 C 534.692 4.10247 1.09077 0
M  V30 5500 C 532.599 5.89905 -0.420312 0
M  V30 5501 H 531.529 0.746741 0.104371 0
M  V30 5502 H 534.18 1.78014 -0.445324 0
M  V30 5503 H 532.562 3.73873 1.30518 0
M  V30 5504 H 533.736 4.36215 -1.48504 0
M  V30 5505 H 532.051 3.98997 -1.19123 0
M  V30 5506 H 534.648 5.18095 1.32219 0
M  V30 5507 H 534.991 3.62739 2.0427 0
M  V30 5508 H 535.524 3.96011 0.376824 0
M  V30 5509 H 532.263 6.41623 -1.34164 0
M  V30 5510 H 531.783 5.98962 0.316962 0
M  V30 5511 H 533.462 6.46991 -0.0331956 0
M  V30 5512 N 533.594 0.0601682 1.57485 0
M  V30 5513 C 534.524 -0.90889 2.15085 0
M  V30 5514 C 535.505 -1.31838 1.07484 0
M  V30 5515 O 536.69 -1.3915 1.35466 0
M  V30 5516 C 533.82 -2.18059 2.7031 0
M  V30 5517 C 532.774 -1.91088 3.82974 0
M  V30 5518 C 532.1 -3.24789 4.24754 0
M  V30 5519 C 533.4 -1.22535 5.07723 0
M  V30 5520 H 535.094 -0.429093 2.96309 0
M  V30 5521 H 532.64 -0.204952 1.42534 0
M  V30 5522 H 534.593 -2.86258 3.09248 0
M  V30 5523 H 533.317 -2.6826 1.8629 0
M  V30 5524 H 531.976 -1.25297 3.44523 0
M  V30 5525 H 531.624 -3.72809 3.37672 0
M  V30 5526 H 531.324 -3.07538 5.00694 0
M  V30 5527 H 532.848 -3.94205 4.66299 0
M  V30 5528 H 534.262 -1.80783 5.4405 0
M  V30 5529 H 532.659 -1.1558 5.88864 0
M  V30 5530 H 533.729 -0.202692 4.84476 0
M  V30 5531 N 535.072 -1.5615 -0.213296 0
M  V30 5532 C 536.022 -1.89485 -1.26804 0
M  V30 5533 C 537.006 -0.758713 -1.41889 0
M  V30 5534 O 538.198 -1.02127 -1.44565 0
M  V30 5535 C 535.327 -2.22219 -2.61675 0
M  V30 5536 C 534.413 -3.42245 -2.50458 0
M  V30 5537 N 534.804 -4.60645 -2.089 0
M  V30 5538 C 533.102 -3.46023 -2.81397 0
M  V30 5539 C 533.803 -5.42805 -2.09135 0
M  V30 5540 N 532.779 -4.82732 -2.49941 0
M  V30 5541 H 536.581 -2.78537 -0.937771 0
M  V30 5542 H 534.095 -1.56826 -0.421824 0
M  V30 5543 H 536.092 -2.44278 -3.37837 0
M  V30 5544 H 534.752 -1.34484 -2.95541 0
M  V30 5545 H 535.763 -4.85651 -1.79899 0
M  V30 5546 H 532.44 -2.68654 -3.1958 0
M  V30 5547 H 533.83 -6.47601 -1.79059 0
M  V30 5548 N 536.55 0.480323 -1.50102 0
M  V30 5549 C 537.513 1.56181 -1.6775 0
M  V30 5550 C 538.513 1.51156 -0.548503 0
M  V30 5551 O 539.703 1.5394 -0.815363 0
M  V30 5552 C 536.835 2.95823 -1.69415 0
M  V30 5553 H 538.028 1.41855 -2.6423 0
M  V30 5554 H 535.581 0.70605 -1.39444 0
M  V30 5555 H 536.316 3.15604 -0.745948 0
M  V30 5556 H 536.101 3.00878 -2.51425 0
M  V30 5557 H 537.591 3.74359 -1.85054 0
M  V30 5558 N 538.028 1.39524 0.732853 0
M  V30 5559 C 539.439 1.32905 1.31122 0
M  V30 5560 C 539.79 -0.00558708 1.96199 0
M  V30 5561 O 538.915 -0.907706 1.96443 0
M  V30 5562 C 539.51 2.40704 2.38426 0
M  V30 5563 C 538.069 2.37599 2.91931 0
M  V30 5564 C 537.216 2.2248 1.65523 0
M  V30 5565 H 540.167 1.49581 0.530207 0
M  V30 5566 H 540.188 2.07616 3.18867 0
M  V30 5567 H 539.7 3.37829 1.91033 0
M  V30 5568 H 537.801 1.44119 3.43599 0
M  V30 5569 H 537.914 3.32538 3.44899 0
M  V30 5570 H 536.278 1.69691 1.8994 0
M  V30 5571 H 537.061 3.21577 1.20178 0
M  V30 5572 N 539.506 -0.963266 1.24736 0
M  V30 5573 C 540.453 -2.05857 1.04363 0
M  V30 5574 C 541.423 -1.6604 -0.0444951 0
M  V30 5575 O 542.608 -1.90477 0.110999 0
M  V30 5576 C 539.748 -3.38745 0.659235 0
M  V30 5577 C 538.861 -3.9173 1.82131 0
M  V30 5578 C 537.996 -5.12906 1.38208 0
M  V30 5579 C 537.035 -5.58098 2.51382 0
M  V30 5580 N 536.172 -6.7049 2.08295 0
M  V30 5581 H 541.012 -2.22616 1.98107 0
M  V30 5582 H 538.549 -1.09103 0.986661 0
M  V30 5583 H 540.507 -4.15107 0.417371 0
M  V30 5584 H 539.137 -3.21898 -0.241201 0
M  V30 5585 H 538.189 -3.11966 2.17672 0
M  V30 5586 H 539.501 -4.21225 2.67153 0
M  V30 5587 H 538.655 -5.96657 1.09935 0
M  V30 5588 H 537.394 -4.85105 0.502456 0
M  V30 5589 H 536.399 -4.72917 2.80409 0
M  V30 5590 H 537.624 -5.87911 3.39909 0
M  V30 5591 H 535.57 -6.44416 1.22737 0
M  V30 5592 H 535.487 -6.99458 2.86869 0
M  V30 5593 H 536.755 -7.57672 1.83175 0
M  V30 5594 N 540.985 -1.06182 -1.16461 0
M  V30 5595 C 541.933 -0.665716 -2.2287 0
M  V30 5596 C 542.927 0.317822 -1.66392 0
M  V30 5597 O 544.133 0.182807 -1.79069 0
M  V30 5598 H 540.508 -0.197148 -0.725697 0
M  V30 5599 H 542.479 -1.57307 -2.53569 0
M  V30 5600 C 541.228 -0.0669803 -3.47635 0
M  V30 5601 H 540.551 -0.814899 -3.91407 0
M  V30 5602 H 541.991 0.172669 -4.23648 0
M  V30 5603 C 540.45 1.18913 -3.15216 0
M  V30 5604 O 540.98 2.27723 -3.30916 0
M  V30 5605 N 539.186 1.09066 -2.69357 0
M  V30 5606 H 538.733 0.20518 -2.56782 0
M  V30 5607 H 538.691 1.93195 -2.48039 0
M  V30 5608 N 542.463 1.3308 -0.844243 0
M  V30 5609 C 543.711 1.97215 -0.441676 0
M  V30 5610 C 544.032 1.67185 1.0037 0
M  V30 5611 O 543.302 0.973588 1.69994 0
M  V30 5612 H 541.882 0.72959 -0.160335 0
M  V30 5613 H 544.544 1.62348 -1.07838 0
M  V30 5614 H 543.64 3.06698 -0.57815 0
M  V30 5615 N 543.941 0.601185 1.45683 0
M  V30 5616 C 545.188 0.0938811 2.02282 0
M  V30 5617 C 545.516 -1.27315 1.47041 0
M  V30 5618 O 544.771 -1.85193 0.632623 0
M  V30 5619 C 545.07 -0.00222425 3.574 0
M  V30 5620 C 544.736 1.29963 4.31764 0
M  V30 5621 C 543.398 1.65625 4.51798 0
M  V30 5622 C 545.75 2.1603 4.74321 0
M  V30 5623 C 543.078 2.87119 5.11644 0
M  V30 5624 C 545.43 3.36766 5.3551 0
M  V30 5625 C 544.094 3.72689 5.53768 0
M  V30 5626 H 543.364 0.0343535 0.740203 0
M  V30 5627 H 546.011 0.781522 1.74827 0
M  V30 5628 H 544.316 -0.773096 3.84097 0
M  V30 5629 H 546.013 -0.410794 3.9889 0
M  V30 5630 H 542.603 1.01204 4.1648 0
M  V30 5631 H 546.787 1.89778 4.58582 0
M  V30 5632 H 542.043 3.15065 5.2397 0
M  V30 5633 H 546.217 4.03713 5.67441 0
M  V30 5634 H 543.844 4.66918 5.99909 0
M  V30 5635 N 545.419 -1.53889 0.339982 0
M  V30 5636 C 546.666 -2.00855 -0.257621 0
M  V30 5637 C 546.994 -1.22788 -1.50842 0
M  V30 5638 O 546.249 -0.302567 -1.93347 0
M  V30 5639 C 546.548 -3.51968 -0.620735 0
M  V30 5640 C 546.214 -4.47741 0.532771 0
M  V30 5641 C 544.876 -4.73645 0.849339 0
M  V30 5642 C 547.228 -5.04551 1.3068 0
M  V30 5643 C 544.556 -5.53614 1.94237 0
M  V30 5644 C 546.908 -5.85713 2.39005 0
M  V30 5645 C 545.572 -6.09912 2.71225 0
M  V30 5646 H 544.842 -0.734979 -0.0942703 0
M  V30 5647 H 547.489 -1.85714 0.467159 0
M  V30 5648 H 545.794 -3.64921 -1.42618 0
M  V30 5649 H 547.491 -3.85762 -1.09495 0
M  V30 5650 H 544.081 -4.27711 0.275973 0
M  V30 5651 H 548.265 -4.84507 1.07549 0
M  V30 5652 H 543.521 -5.7059 2.19628 0
M  V30 5653 H 547.695 -6.28748 2.99415 0
M  V30 5654 H 545.322 -6.71665 3.56047 0
M  V30 5655 N 546.897 -0.0685191 -1.57451 0
M  V30 5656 C 548.144 0.601348 -1.93365 0
M  V30 5657 C 548.472 1.69816 -0.948294 0
M  V30 5658 O 547.727 1.95666 0.0366199 0
M  V30 5659 C 548.026 1.22051 -3.35914 0
M  V30 5660 C 547.692 0.250165 -4.50205 0
M  V30 5661 C 546.354 -0.0167954 -4.81197 0
M  V30 5662 C 548.706 -0.413867 -5.19554 0
M  V30 5663 C 546.034 -0.95493 -5.78876 0
M  V30 5664 C 548.386 -1.3403 -6.18238 0
M  V30 5665 C 547.05 -1.61576 -6.47649 0
M  V30 5666 H 546.32 0.220049 -0.707573 0
M  V30 5667 H 548.967 -0.138697 -1.90997 0
M  V30 5668 H 547.272 2.03622 -3.34732 0
M  V30 5669 H 548.969 1.74605 -3.6099 0
M  V30 5670 H 545.559 0.468421 -4.26033 0
M  V30 5671 H 549.743 -0.220733 -4.95809 0
M  V30 5672 H 544.999 -1.17563 -5.99991 0
M  V30 5673 H 549.173 -1.86081 -6.71079 0
M  V30 5674 H 546.8 -2.34431 -7.2315 0
M  V30 5675 N 548.375 1.56261 0.205012 0
M  V30 5676 C 549.621 1.80306 0.9283 0
M  V30 5677 C 549.954 0.640932 1.83319 0
M  V30 5678 O 549.229 -0.359032 1.91158 0
M  V30 5679 C 549.512 3.14547 1.75306 0
M  V30 5680 C 549.365 4.41236 0.873562 0
M  V30 5681 C 550.684 3.45382 2.72762 0
M  V30 5682 H 547.803 0.655929 0.336044 0
M  V30 5683 H 550.445 1.88984 0.196211 0
M  V30 5684 H 548.595 3.0728 2.37721 0
M  V30 5685 H 550.267 4.60539 0.264887 0
M  V30 5686 H 548.51 4.33427 0.179773 0
M  V30 5687 H 549.181 5.31639 1.48541 0
M  V30 5688 H 551.657 3.52884 2.20481 0
M  V30 5689 H 550.533 4.40449 3.2756 0
M  V30 5690 H 550.794 2.68377 3.51321 0
M  V30 5691 N 549.853 -0.472356 1.50355 0
M  V30 5692 C 550.783 -1.57859 1.72055 0
M  V30 5693 C 551.764 -1.60283 0.569505 0
M  V30 5694 O 552.949 -1.7657 0.808503 0
M  V30 5695 C 550.079 -2.96191 1.81351 0
M  V30 5696 C 549.033 -3.08633 2.96529 0
M  V30 5697 C 548.359 -4.486 2.90968 0
M  V30 5698 C 549.659 -2.85969 4.37057 0
M  V30 5699 H 551.353 -1.39953 2.64676 0
M  V30 5700 H 548.899 -0.671846 1.27367 0
M  V30 5701 H 550.852 -3.73507 1.95117 0
M  V30 5702 H 549.576 -3.15251 0.853502 0
M  V30 5703 H 548.235 -2.33749 2.82413 0
M  V30 5704 H 547.883 -4.64577 1.92815 0
M  V30 5705 H 547.583 -4.57861 3.68289 0
M  V30 5706 H 549.107 -5.27938 3.0678 0
M  V30 5707 H 550.521 -3.53036 4.51706 0
M  V30 5708 H 548.918 -3.06677 5.15819 0
M  V30 5709 H 549.988 -1.81838 4.49514 0
M  V30 5710 N 551.331 -1.39911 -0.725443 0
M  V30 5711 C 552.608 -1.28158 -1.47766 0
M  V30 5712 C 552.988 0.104545 -2.10841 0
M  V30 5713 O 552.336 1.11657 -1.99361 0
M  V30 5714 C 552.546 -2.41306 -2.52135 0
M  V30 5715 C 553.894 -2.81076 -3.18247 0
M  V30 5716 O 554.918 -2.40827 -2.62452 0
M  V30 5717 O 553.777 -3.50581 -4.19231 0
M  V30 5718 H 550.871 -0.502761 -0.656628 0
M  V30 5719 H 553.417 -1.51808 -0.758456 0
M  V30 5720 H 552.189 -3.33932 -2.03974 0
M  V30 5721 H 551.812 -2.19374 -3.31603 0
M  V30 5722 N 552.809 0.956637 -1.25245 0
M  V30 5723 C 554.225 1.22733 -1.02023 0
M  V30 5724 C 554.425 1.99761 0.264186 0
M  V30 5725 O 553.481 2.32814 0.977436 0
M  V30 5726 C 554.794 2.00367 -2.24217 0
M  V30 5727 C 556.342 2.13418 -2.28958 0
M  V30 5728 C 556.817 2.9445 -3.50803 0
M  V30 5729 N 558.308 3.02029 -3.51187 0
M  V30 5730 C 559.043 3.65116 -4.42129 0
M  V30 5731 N 558.539 4.2983 -5.43339 0
M  V30 5732 N 560.332 3.62237 -4.29815 0
M  V30 5733 H 552.483 0.441282 -2.07765 0
M  V30 5734 H 554.746 0.257686 -0.912306 0
M  V30 5735 H 554.452 1.51165 -3.17556 0
M  V30 5736 H 554.326 3.01077 -2.27228 0
M  V30 5737 H 556.713 2.61819 -1.36143 0
M  V30 5738 H 556.794 1.1202 -2.29968 0
M  V30 5739 H 556.438 2.46741 -4.43939 0
M  V30 5740 H 556.368 3.9607 -3.47039 0
M  V30 5741 H 558.859 2.56007 -2.77973 0
M  V30 5742 H 559.172 4.75819 -6.08947 0
M  V30 5743 H 557.517 4.28465 -5.47214 0
M  V30 5744 H 560.708 3.10863 -3.49974 0
M  V30 5745 H 560.881 4.11117 -5.00886 0
M  V30 5746 N 554.287 1.06798 1.15896 0
M  V30 5747 C 555.515 0.808694 1.90441 0
M  V30 5748 C 555.93 -0.637506 1.77711 0
M  V30 5749 O 555.287 -1.43684 1.12522 0
M  V30 5750 C 555.338 1.20068 3.40978 0
M  V30 5751 O 555.059 2.59013 3.53333 0
M  V30 5752 C 556.56 0.96987 4.3256 0
M  V30 5753 H 553.78 0.292809 0.603742 0
M  V30 5754 H 556.324 1.42296 1.46874 0
M  V30 5755 H 554.479 0.630842 3.82229 0
M  V30 5756 H 554.893 2.7485 4.46719 0
M  V30 5757 H 556.367 1.29371 5.36626 0
M  V30 5758 H 556.844 -0.0941209 4.39099 0
M  V30 5759 H 557.45 1.52433 3.97044 0
M  V30 5760 N 555.766 -1.3263 0.851289 0
M  V30 5761 C 556.714 -2.30882 0.282202 0
M  V30 5762 C 557.708 -1.58697 -0.592589 0
M  V30 5763 O 558.914 -1.73461 -0.480768 0
M  V30 5764 H 555.289 -0.748492 0.0725487 0
M  V30 5765 H 557.26 -2.76374 1.12516 0
M  V30 5766 C 556.009 -3.43828 -0.517449 0
M  V30 5767 H 555.332 -3.99532 0.146392 0
M  V30 5768 H 556.772 -4.1474 -0.88128 0
M  V30 5769 C 555.231 -2.90786 -1.70133 0
M  V30 5770 O 555.761 -2.88 -2.80034 0
M  V30 5771 N 553.967 -2.4723 -1.52728 0
M  V30 5772 H 553.514 -2.49695 -0.633257 0
M  V30 5773 H 553.472 -2.12094 -2.32085 0
M  V30 5774 N 557.244 -0.608902 -1.45362 0
M  V30 5775 C 558.492 -0.104401 -2.0183 0
M  V30 5776 C 558.813 1.27007 -1.47967 0
M  V30 5777 O 558.083 1.83924 -0.674455 0
M  V30 5778 H 556.663 -0.0356042 -0.746151 0
M  V30 5779 H 559.325 -0.790596 -1.78145 0
M  V30 5780 H 558.421 -0.0551793 -3.12051 0
M  V30 5781 N 558.722 1.53707 -0.348139 0
M  V30 5782 C 559.669 2.25173 0.506518 0
M  V30 5783 C 560.639 1.25174 1.09182 0
M  V30 5784 O 561.824 1.53917 1.12757 0
M  V30 5785 C 558.964 3.03141 1.64923 0
M  V30 5786 C 558.077 4.18002 1.0908 0
M  V30 5787 C 557.212 4.83447 2.20119 0
M  V30 5788 C 556.251 5.90369 1.61651 0
M  V30 5789 N 555.388 6.49575 2.66451 0
M  V30 5790 H 560.228 2.97799 -0.109452 0
M  V30 5791 H 557.765 1.46953 -0.0657866 0
M  V30 5792 H 559.723 3.46607 2.32205 0
M  V30 5793 H 558.353 2.32803 2.23612 0
M  V30 5794 H 557.405 3.79145 0.308783 0
M  V30 5795 H 558.717 4.94892 0.623178 0
M  V30 5796 H 557.871 5.30008 2.95257 0
M  V30 5797 H 556.61 4.05991 2.70227 0
M  V30 5798 H 555.615 5.43186 0.850209 0
M  V30 5799 H 556.84 6.69735 1.1239 0
M  V30 5800 H 554.786 5.74981 3.15805 0
M  V30 5801 H 554.703 7.21952 2.24325 0
M  V30 5802 H 555.971 7.00789 3.41344 0
M  V30 5803 N 560.2 0.0768682 1.57412 0
M  V30 5804 C 561.447 -0.591085 1.93681 0
M  V30 5805 C 561.775 -1.69311 0.957286 0
M  V30 5806 O 561.03 -1.95682 -0.0262428 0
M  V30 5807 C 561.329 -1.20268 3.36557 0
M  V30 5808 C 560.995 -0.226286 4.50332 0
M  V30 5809 C 559.657 0.0423142 4.81181 0
M  V30 5810 C 562.009 0.441415 5.19327 0
M  V30 5811 C 559.337 0.985616 5.78362 0
M  V30 5812 C 561.689 1.37307 6.17519 0
M  V30 5813 C 560.353 1.65009 6.46783 0
M  V30 5814 H 559.623 -0.216293 0.70873 0
M  V30 5815 H 562.27 0.148824 1.90921 0
M  V30 5816 H 560.575 -2.01844 3.35807 0
M  V30 5817 H 562.272 -1.72688 3.61911 0
M  V30 5818 H 558.862 -0.445821 4.26275 0
M  V30 5819 H 563.046 0.247023 4.95685 0
M  V30 5820 H 558.302 1.20743 5.99359 0
M  V30 5821 H 562.476 1.89637 6.70083 0
M  V30 5822 H 560.103 2.38263 7.21897 0
M  V30 5823 N 561.678 -1.56367 -0.196722 0
M  V30 5824 C 562.927 -1.79724 -0.915539 0
M  V30 5825 C 563.24 -0.649804 -1.84491 0
M  V30 5826 O 564.446 -0.767631 -2.60422 0
M  V30 5827 C 562.902 -3.18369 -1.67836 0
M  V30 5828 C 562.51 -4.4091 -0.793897 0
M  V30 5829 C 564.254 -3.51037 -2.38691 0
M  V30 5830 C 562.161 -5.70577 -1.55549 0
M  V30 5831 H 561.091 -0.67013 -0.345604 0
M  V30 5832 H 563.742 -1.82721 -0.168856 0
M  V30 5833 H 562.124 -3.09617 -2.46887 0
M  V30 5834 H 563.298 -4.60781 -0.042163 0
M  V30 5835 H 561.613 -4.15937 -0.19626 0
M  V30 5836 H 564.21 -4.4515 -2.96219 0
M  V30 5837 H 564.553 -2.74704 -3.12799 0
M  V30 5838 H 565.086 -3.61229 -1.66608 0
M  V30 5839 H 561.825 -6.49871 -0.857226 0
M  V30 5840 H 561.345 -5.54726 -2.2812 0
M  V30 5841 H 563.024 -6.11637 -2.10971 0
M  V30 5842 N 563.156 0.464375 -1.50603 0
M  V30 5843 C 564.381 1.24372 -1.65971 0
M  V30 5844 C 564.806 1.84901 -0.345453 0
M  V30 5845 O 564.164 1.67596 0.691457 0
M  V30 5846 C 564.212 2.32331 -2.7578 0
M  V30 5847 O 563.316 3.37146 -2.375 0
M  V30 5848 H 562.657 0.365604 -0.554283 0
M  V30 5849 H 565.187 0.55183 -1.97018 0
M  V30 5850 H 565.197 2.77539 -2.99059 0
M  V30 5851 H 563.872 1.87648 -3.71162 0
M  V30 5852 H 562.449 2.97602 -2.24694 0
M  V30 5853 N 564.634 1.40294 0.718013 0
M  V30 5854 C 565.597 1.4012 1.81381 0
M  V30 5855 C 566.597 0.295405 1.58063 0
M  V30 5856 O 567.787 0.554187 1.6515 0
M  V30 5857 C 564.919 1.19056 3.19435 0
M  V30 5858 H 566.112 2.37645 1.82933 0
M  V30 5859 H 563.665 1.26107 0.923405 0
M  V30 5860 H 564.4 0.222809 3.23534 0
M  V30 5861 H 564.185 1.99152 3.37758 0
M  V30 5862 H 565.675 1.21716 3.99468 0
M  V30 5863 N 566.112 -0.949982 1.2575 0
M  V30 5864 C 567.059 -2.04738 1.06541 0
M  V30 5865 C 568.029 -1.66078 -0.0268818 0
M  V30 5866 O 569.214 -1.90348 0.131196 0
M  V30 5867 C 566.354 -3.38027 0.695127 0
M  V30 5868 C 565.467 -3.89776 1.86276 0
M  V30 5869 C 564.602 -5.11411 1.4364 0
M  V30 5870 C 563.641 -5.554 2.57287 0
M  V30 5871 N 562.778 -6.68244 2.15395 0
M  V30 5872 H 567.618 -2.20502 2.00457 0
M  V30 5873 H 565.155 -1.0805 0.998178 0
M  V30 5874 H 567.113 -4.14641 0.461375 0
M  V30 5875 H 565.743 -3.22135 -0.207046 0
M  V30 5876 H 564.795 -3.0964 2.20969 0
M  V30 5877 H 566.107 -4.18368 2.71606 0
M  V30 5878 H 565.261 -5.95457 1.16257 0
M  V30 5879 H 564 -4.84545 0.553879 0
M  V30 5880 H 563.005 -4.69916 2.85409 0
M  V30 5881 H 564.23 -5.84272 3.46125 0
M  V30 5882 H 562.176 -6.43078 1.29565 0
M  V30 5883 H 562.093 -6.96377 2.94272 0
M  V30 5884 H 563.361 -7.55687 1.91201 0
M  V30 5885 N 567.59 -1.07411 -1.15328 0
M  V30 5886 C 568.538 -0.689316 -2.22151 0
M  V30 5887 C 569.532 0.300156 -1.6672 0
M  V30 5888 O 570.738 0.163804 -1.79253 0
M  V30 5889 H 567.113 -0.204834 -0.723566 0
M  V30 5890 H 569.084 -1.59988 -2.51886 0
M  V30 5891 C 567.833 -0.103848 -3.47545 0
M  V30 5892 H 567.156 -0.856367 -3.90521 0
M  V30 5893 H 568.596 0.127725 -4.23808 0
M  V30 5894 C 567.055 1.15563 -3.1646 0
M  V30 5895 O 567.585 2.242 -3.33312 0
M  V30 5896 N 565.791 1.06203 -2.70498 0
M  V30 5897 H 565.338 0.177933 -2.56985 0
M  V30 5898 H 565.296 1.90553 -2.50074 0
M  V30 5899 N 569.068 1.32177 -0.85831 0
M  V30 5900 C 570.315 1.97125 -0.463484 0
M  V30 5901 C 570.643 1.67907 0.981705 0
M  V30 5902 O 569.898 0.961717 1.70439 0
M  V30 5903 C 570.197 3.51372 -0.653658 0
M  V30 5904 C 569.863 4.00584 -2.06987 0
M  V30 5905 C 568.525 4.13733 -2.4572 0
M  V30 5906 C 570.877 4.26624 -2.99402 0
M  V30 5907 C 568.205 4.50268 -3.76132 0
M  V30 5908 C 570.557 4.64618 -4.29316 0
M  V30 5909 C 569.221 4.75975 -4.67979 0
M  V30 5910 H 568.491 0.72133 -0.169601 0
M  V30 5911 H 571.138 1.57517 -1.08907 0
M  V30 5912 H 569.443 3.91761 0.0551328 0
M  V30 5913 H 571.14 3.99655 -0.328163 0
M  V30 5914 H 567.73 3.90837 -1.75911 0
M  V30 5915 H 571.914 4.1597 -2.70708 0
M  V30 5916 H 567.17 4.57256 -4.05865 0
M  V30 5917 H 571.344 4.83722 -5.00985 0
M  V30 5918 H 568.971 5.04041 -5.69076 0
M  V30 5919 N 570.547 0.616602 1.45037 0
M  V30 5920 C 571.793 0.115501 2.02471 0
M  V30 5921 C 572.126 -1.25406 1.4828 0
M  V30 5922 O 571.401 -1.82922 0.661051 0
M  V30 5923 C 571.684 0.0863588 3.59996 0
M  V30 5924 C 571.537 1.48723 4.24501 0
M  V30 5925 C 572.856 -0.596762 4.36035 0
M  V30 5926 H 569.975 0.0434461 0.735718 0
M  V30 5927 H 572.617 0.7903 1.72784 0
M  V30 5928 H 570.767 -0.488277 3.85419 0
M  V30 5929 H 572.439 2.10964 4.10234 0
M  V30 5930 H 570.682 2.04534 3.82555 0
M  V30 5931 H 571.353 1.419 5.3345 0
M  V30 5932 H 573.829 -0.10824 4.15959 0
M  V30 5933 H 572.705 -0.586289 5.4576 0
M  V30 5934 H 572.966 -1.66451 4.09569 0
M  V30 5935 N 572.025 -1.5352 0.356285 0
M  V30 5936 C 573.436 -1.86282 -0.12492 0
M  V30 5937 C 573.787 -1.27717 -1.48939 0
M  V30 5938 O 572.912 -0.595614 -2.08042 0
M  V30 5939 C 573.507 -3.37995 -0.23345 0
M  V30 5940 C 572.066 -3.70588 -0.658899 0
M  V30 5941 C 571.213 -2.76581 0.199596 0
M  V30 5942 H 574.164 -1.47901 0.575423 0
M  V30 5943 H 574.185 -3.65475 -1.0587 0
M  V30 5944 H 573.697 -3.8059 0.759776 0
M  V30 5945 H 571.798 -3.33544 -1.66069 0
M  V30 5946 H 571.911 -4.77076 -0.439957 0
M  V30 5947 H 570.275 -2.52552 -0.330076 0
M  V30 5948 H 571.058 -3.22008 1.19019 0
M  V30 5949 N 573.503 -0.0852151 -1.57369 0
M  V30 5950 C 574.749 0.581666 -1.94279 0
M  V30 5951 C 575.082 1.68444 -0.966446 0
M  V30 5952 O 574.357 1.945 0.00215277 0
M  V30 5953 C 574.64 1.14609 -3.41375 0
M  V30 5954 C 574.493 0.0490414 -4.49773 0
M  V30 5955 C 575.812 2.04751 -3.8957 0
M  V30 5956 H 572.931 0.209972 -0.706456 0
M  V30 5957 H 575.573 -0.153915 -1.89376 0
M  V30 5958 H 573.723 1.77297 -3.45685 0
M  V30 5959 H 575.395 -0.584721 -4.57579 0
M  V30 5960 H 573.638 -0.618638 -4.29366 0
M  V30 5961 H 574.309 0.484601 -5.49869 0
M  V30 5962 H 576.785 1.51981 -3.87351 0
M  V30 5963 H 575.661 2.41173 -4.93079 0
M  V30 5964 H 575.922 2.96107 -3.28288 0
M  V30 5965 N 574.981 1.5647 0.188427 0
M  V30 5966 C 575.929 1.95971 1.25293 0
M  V30 5967 C 576.923 0.846047 1.4676 0
M  V30 5968 O 578.129 1.03109 1.47542 0
M  V30 5969 H 574.504 0.623253 0.420784 0
M  V30 5970 H 576.475 2.84731 0.892792 0
M  V30 5971 C 575.224 2.32116 2.58877 0
M  V30 5972 H 574.547 3.17341 2.43176 0
M  V30 5973 H 575.987 2.63613 3.3209 0
M  V30 5974 C 574.446 1.15823 3.16365 0
M  V30 5975 O 574.976 0.436785 3.99318 0
M  V30 5976 N 573.182 0.933278 2.75206 0
M  V30 5977 H 572.729 1.52169 2.07852 0
M  V30 5978 H 572.687 0.156976 3.14008 0
M  V30 5979 N 576.459 -0.456382 1.50847 0
M  V30 5980 C 577.705 -1.20618 1.63777 0
M  V30 5981 C 578.06 -1.8936 0.340677 0
M  V30 5982 O 577.353 -1.79786 -0.662378 0
M  V30 5983 C 577.547 -2.26336 2.76599 0
M  V30 5984 C 577.376 -1.67968 4.17153 0
M  V30 5985 C 576.146 -1.47293 4.83356 0
M  V30 5986 C 578.344 -1.16643 5.00898 0
M  V30 5987 N 576.326 -0.843222 6.08081 0
M  V30 5988 C 577.697 -0.660843 6.16468 0
M  V30 5989 C 579.752 -1.05637 4.86565 0
M  V30 5990 C 578.455 -0.0560365 7.19278 0
M  V30 5991 C 580.481 -0.465485 5.89565 0
M  V30 5992 C 579.843 0.0296516 7.04394 0
M  V30 5993 H 575.942 -0.429725 0.653345 0
M  V30 5994 H 578.526 -0.505784 1.88016 0
M  V30 5995 H 576.697 -2.93785 2.54056 0
M  V30 5996 H 578.429 -2.9334 2.78808 0
M  V30 5997 H 575.184 -1.72934 4.40898 0
M  V30 5998 H 575.608 -0.546357 6.74792 0
M  V30 5999 H 580.25 -1.42508 3.98059 0
M  V30 6000 H 577.968 0.324845 8.07447 0
M  V30 6001 H 581.554 -0.382493 5.80541 0
M  V30 6002 H 580.434 0.479705 7.82731 0
M  V30 6003 N 577.937 -1.40673 -0.710563 0
M  V30 6004 C 578.9 -1.4108 -1.80635 0
M  V30 6005 C 579.9 -0.303783 -1.57904 0
M  V30 6006 O 581.09 -0.562937 -1.64853 0
M  V30 6007 C 578.222 -1.20748 -3.18799 0
M  V30 6008 H 579.415 -2.38612 -1.81671 0
M  V30 6009 H 576.968 -1.26595 -0.916704 0
M  V30 6010 H 577.703 -0.239964 -3.23411 0
M  V30 6011 H 577.488 -2.00941 -3.36698 0
M  V30 6012 H 578.978 -1.23833 -3.98817 0
M  V30 6013 N 579.415 0.9433 -1.26252 0
M  V30 6014 C 580.64 1.72898 -1.14547 0
M  V30 6015 C 581.065 1.85761 0.295743 0
M  V30 6016 O 580.423 1.3463 1.21427 0
M  V30 6017 C 580.471 3.11471 -1.8171 0
M  V30 6018 O 579.575 3.97336 -1.10445 0
M  V30 6019 H 578.916 0.530555 -0.399259 0
M  V30 6020 H 581.446 1.18159 -1.67032 0
M  V30 6021 H 581.456 3.61872 -1.88449 0
M  V30 6022 H 580.131 3.01425 -2.86558 0
M  V30 6023 H 578.708 3.55788 -1.11666 0
M  V30 6024 N 580.893 1.08022 1.14757 0
M  V30 6025 C 582.141 0.805913 1.85336 0
M  V30 6026 C 582.462 -0.670162 1.83122 0
M  V30 6027 O 581.732 -1.48567 1.2769 0
M  V30 6028 H 580.312 0.295138 0.686223 0
M  V30 6029 H 582.974 1.36538 1.3908 0
M  V30 6030 H 582.07 1.14655 2.90277 0
M  V30 6031 N 582.371 -1.3172 0.865308 0
M  V30 6032 C 583.601 -2.00765 0.487543 0
M  V30 6033 C 584.009 -1.65145 -0.92325 0
M  V30 6034 O 583.352 -0.874294 -1.61561 0
M  V30 6035 C 583.414 -3.55122 0.559369 0
M  V30 6036 C 583.078 -4.14202 1.93095 0
M  V30 6037 C 584.075 -4.3165 2.89784 0
M  V30 6038 C 581.76 -4.50036 2.23099 0
M  V30 6039 C 583.754 -4.84114 4.14623 0
M  V30 6040 C 581.441 -5.02203 3.48189 0
M  V30 6041 C 582.439 -5.19192 4.43767 0
M  V30 6042 O 582.127 -5.70241 5.6664 0
M  V30 6043 H 581.859 -0.649066 0.188915 0
M  V30 6044 H 584.413 -1.69032 1.16694 0
M  V30 6045 H 582.643 -3.86295 -0.176926 0
M  V30 6046 H 584.332 -4.05428 0.195694 0
M  V30 6047 H 585.098 -4.04288 2.6791 0
M  V30 6048 H 580.977 -4.36091 1.49485 0
M  V30 6049 H 584.521 -4.9729 4.89233 0
M  V30 6050 H 580.418 -5.28997 3.69908 0
M  V30 6051 H 581.186 -5.88617 5.68746 0
M  V30 6052 N 583.85 -0.624285 -1.44708 0
M  V30 6053 C 585.127 -0.0572781 -1.95516 0
M  V30 6054 C 585.507 1.41516 -1.56641 0
M  V30 6055 O 584.855 2.12614 -0.837111 0
M  V30 6056 C 585.065 -0.272944 -3.47931 0
M  V30 6057 C 586.413 -0.162529 -4.24289 0
M  V30 6058 O 587.437 -0.203946 -3.55616 0
M  V30 6059 O 586.296 -0.0616847 -5.46465 0
M  V30 6060 H 583.389 0.0262219 -0.826584 0
M  V30 6061 H 585.936 -0.695512 -1.54793 0
M  V30 6062 H 584.707 -1.29492 -3.69253 0
M  V30 6063 H 584.331 0.399756 -3.95585 0
M  V30 6064 N 585.328 1.53329 -0.364422 0
M  V30 6065 C 586.275 2.25698 0.482607 0
M  V30 6066 C 587.245 1.26325 1.07848 0
M  V30 6067 O 588.43 1.55104 1.11119 0
M  V30 6068 C 585.57 3.04873 1.61699 0
M  V30 6069 C 584.683 4.19135 1.0464 0
M  V30 6070 C 583.818 4.85754 2.14979 0
M  V30 6071 C 582.857 5.9205 1.5538 0
M  V30 6072 N 581.994 6.52365 2.59547 0
M  V30 6073 H 586.834 2.97666 -0.141032 0
M  V30 6074 H 584.371 1.46875 -0.0813692 0
M  V30 6075 H 586.329 3.49051 2.28516 0
M  V30 6076 H 584.959 2.35162 2.2113 0
M  V30 6077 H 584.011 3.79451 0.268553 0
M  V30 6078 H 585.323 4.95525 0.570653 0
M  V30 6079 H 584.477 5.3311 2.89619 0
M  V30 6080 H 583.216 4.08834 2.65906 0
M  V30 6081 H 582.221 5.44058 0.792549 0
M  V30 6082 H 583.446 6.7089 1.0528 0
M  V30 6083 H 581.392 5.78298 3.09689 0
M  V30 6084 H 581.309 7.2429 2.16655 0
M  V30 6085 H 582.577 7.0437 3.33892 0
M  V30 6086 N 586.806 0.0935595 1.57322 0
M  V30 6087 C 587.756 -0.876521 2.10478 0
M  V30 6088 C 588.74 -1.24482 1.01946 0
M  V30 6089 O 589.932 -1.22016 1.28223 0
M  V30 6090 C 587.061 -2.13615 2.68745 0
M  V30 6091 C 586.147 -1.79335 3.84317 0
M  V30 6092 N 586.538 -1.15606 4.92411 0
M  V30 6093 C 584.836 -2.08954 3.94023 0
M  V30 6094 C 585.537 -0.999036 5.73057 0
M  V30 6095 N 584.513 -1.51585 5.22037 0
M  V30 6096 H 588.315 -0.379829 2.91435 0
M  V30 6097 H 585.829 -0.109699 1.62029 0
M  V30 6098 H 587.826 -2.84053 3.05155 0
M  V30 6099 H 586.486 -2.63851 1.89242 0
M  V30 6100 H 587.497 -0.823063 5.11318 0
M  V30 6101 H 584.174 -2.61416 3.25527 0
M  V30 6102 H 585.564 -0.500772 6.70031 0
M  V30 6103 N 588.284 -1.56567 -0.180126 0
M  V30 6104 C 589.532 -1.81133 -0.896392 0
M  V30 6105 C 589.853 -0.669114 -1.83161 0
M  V30 6106 O 589.123 0.311616 -1.93406 0
M  V30 6107 H 587.703 -0.668172 -0.333999 0
M  V30 6108 H 590.365 -1.94048 -0.182051 0
M  V30 6109 H 589.461 -2.74854 -1.47857 0
M  V30 6110 N 589.762 0.448376 -1.51087 0
M  V30 6111 C 590.709 1.54341 -1.71603 0
M  V30 6112 C 591.679 1.56463 -0.557536 0
M  V30 6113 O 592.864 1.73644 -0.79072 0
M  V30 6114 C 590.004 2.92148 -1.83695 0
M  V30 6115 C 589.117 2.99639 -3.11192 0
M  V30 6116 C 588.252 4.285 -3.13944 0
M  V30 6117 C 587.291 4.29819 -4.35801 0
M  V30 6118 N 586.428 5.50186 -4.36164 0
M  V30 6119 H 591.268 1.36151 -2.65079 0
M  V30 6120 H 588.805 0.661585 -1.31383 0
M  V30 6121 H 590.763 3.72093 -1.88687 0
M  V30 6122 H 589.393 3.0892 -0.936374 0
M  V30 6123 H 588.445 2.12425 -3.15562 0
M  V30 6124 H 589.757 2.96474 -4.01129 0
M  V30 6125 H 588.911 5.16811 -3.17791 0
M  V30 6126 H 587.65 4.34307 -2.21876 0
M  V30 6127 H 586.655 3.39902 -4.32142 0
M  V30 6128 H 587.88 4.25685 -5.29121 0
M  V30 6129 H 585.826 5.56735 -3.46961 0
M  V30 6130 H 585.743 5.48856 -5.19897 0
M  V30 6131 H 587.011 6.40559 -4.44189 0
M  V30 6132 N 591.24 1.41047 0.703093 0
M  V30 6133 C 592.651 1.35657 1.28274 0
M  V30 6134 C 593.002 0.0360309 1.96167 0
M  V30 6135 O 592.127 -0.865833 1.98324 0
M  V30 6136 C 592.722 2.45707 2.33267 0
M  V30 6137 C 591.281 2.43738 2.86825 0
M  V30 6138 C 590.428 2.25941 1.60767 0
M  V30 6139 H 593.379 1.50672 0.49836 0
M  V30 6140 H 593.4 2.14333 3.14391 0
M  V30 6141 H 592.912 3.41805 1.83824 0
M  V30 6142 H 591.013 1.51375 3.40465 0
M  V30 6143 H 591.126 3.39779 3.37768 0
M  V30 6144 H 589.49 1.73681 1.86298 0
M  V30 6145 H 590.273 3.24054 1.1333 0
M  V30 6146 N 592.718 -0.936591 1.26751 0
M  V30 6147 C 593.967 -1.67778 1.11953 0
M  V30 6148 C 594.28 -1.92694 -0.33589 0
M  V30 6149 O 595.486 -2.64682 -0.604618 0
M  V30 6150 C 593.942 -3.02138 1.95551 0
M  V30 6151 C 593.55 -2.84953 3.45696 0
M  V30 6152 C 595.294 -3.79917 1.89377 0
M  V30 6153 C 593.201 -4.14814 4.21525 0
M  V30 6154 H 592.131 -0.629275 0.415366 0
M  V30 6155 H 594.782 -1.04122 1.51099 0
M  V30 6156 H 593.164 -3.668 1.49243 0
M  V30 6157 H 594.338 -2.29112 3.99805 0
M  V30 6158 H 592.653 -2.20612 3.53156 0
M  V30 6159 H 595.25 -4.76134 2.43312 0
M  V30 6160 H 595.593 -4.07204 0.865464 0
M  V30 6161 H 596.126 -3.22037 2.33532 0
M  V30 6162 H 592.865 -3.92709 5.24843 0
M  V30 6163 H 592.385 -4.70352 3.72195 0
M  V30 6164 H 594.064 -4.83239 4.3022 0
M  V30 6165 N 594.196 -1.08629 -1.14182 0
M  V30 6166 C 595.444 -0.815731 -1.84906 0
M  V30 6167 C 595.765 0.660441 -1.83475 0
M  V30 6168 O 595.035 1.47888 -1.28476 0
M  V30 6169 H 593.615 -0.298773 -0.684648 0
M  V30 6170 H 596.277 -1.37274 -1.38354 0
M  V30 6171 H 595.373 -1.16193 -2.89665 0
M  V30 6172 N 595.674 1.31259 -0.872281 0
M  V30 6173 C 596.923 1.95893 -0.480493 0
M  V30 6174 C 597.236 1.697 0.972688 0
M  V30 6175 O 598.442 2.28214 1.47073 0
M  V30 6176 C 596.898 3.50705 -0.808342 0
M  V30 6177 C 596.506 3.85735 -2.27844 0
M  V30 6178 C 598.25 4.21719 -0.485136 0
M  V30 6179 C 596.157 5.33668 -2.54858 0
M  V30 6180 H 595.087 0.733182 -0.175955 0
M  V30 6181 H 597.738 1.49396 -1.0655 0
M  V30 6182 H 596.12 3.95706 -0.152558 0
M  V30 6183 H 597.294 3.51686 -2.97748 0
M  V30 6184 H 595.609 3.27792 -2.56791 0
M  V30 6185 H 598.206 5.30559 -0.664166 0
M  V30 6186 H 598.549 4.12316 0.574592 0
M  V30 6187 H 599.082 3.82359 -1.09756 0
M  V30 6188 H 595.821 5.48109 -3.59523 0
M  V30 6189 H 595.341 5.69061 -1.8955 0
M  V30 6190 H 597.02 6.00958 -2.39706 0
M  V30 6191 N 597.152 0.631951 1.44375 0
M  V30 6192 C 598.115 -0.0628142 2.29114 0
M  V30 6193 C 599.115 -0.771494 1.41084 0
M  V30 6194 O 600.305 -0.615959 1.62947 0
M  V30 6195 C 597.437 -1.09953 3.22681 0
M  V30 6196 H 598.63 0.682509 2.92031 0
M  V30 6197 H 596.183 0.392128 1.51301 0
M  V30 6198 H 596.918 -1.87481 2.64616 0
M  V30 6199 H 596.703 -0.595286 3.87555 0
M  V30 6200 H 598.193 -1.58538 3.86336 0
M  V30 6201 N 598.631 -1.53133 0.372548 0
M  V30 6202 C 599.594 -2.24569 -0.458389 0
M  V30 6203 C 600.594 -1.25603 -1.00402 0
M  V30 6204 O 601.784 -1.49827 -0.888672 0
M  V30 6205 C 598.916 -2.98783 -1.6414 0
M  V30 6206 H 600.109 -2.99436 0.166799 0
M  V30 6207 H 597.662 -1.55805 0.124357 0
M  V30 6208 H 598.397 -2.28176 -2.30448 0
M  V30 6209 H 598.182 -3.71404 -1.25704 0
M  V30 6210 H 599.672 -3.53068 -2.23008 0
M  V30 6211 N 600.109 -0.101901 -1.5727 0
M  V30 6212 C 601.072 0.840129 -2.13247 0
M  V30 6213 C 602.072 1.20625 -1.06331 0
M  V30 6214 O 603.262 1.13456 -1.32186 0
M  V30 6215 C 600.394 2.13372 -2.65867 0
M  V30 6216 H 601.587 0.353945 -2.97804 0
M  V30 6217 H 599.14 0.147167 -1.55606 0
M  V30 6218 H 599.875 2.66461 -1.84849 0
M  V30 6219 H 599.66 1.88085 -3.44044 0
M  V30 6220 H 601.15 2.80748 -3.09145 0
M  V30 6221 N 601.587 1.56661 0.17182 0
M  V30 6222 C 603.003 1.50768 0.52357 0
M  V30 6223 C 603.203 0.806072 1.84675 0
M  V30 6224 O 602.259 0.366233 2.4983 0
M  V30 6225 C 603.572 2.955 0.556793 0
M  V30 6226 C 605.12 3.06303 0.644029 0
M  V30 6227 C 605.595 4.52492 0.708148 0
M  V30 6228 N 607.086 4.56737 0.771051 0
M  V30 6229 C 607.821 5.67196 0.841229 0
M  V30 6230 N 607.317 6.87287 0.872272 0
M  V30 6231 N 609.11 5.55165 0.88021 0
M  V30 6232 H 601.261 2.00679 -0.695817 0
M  V30 6233 H 603.524 0.914219 -0.250814 0
M  V30 6234 H 603.23 3.49986 -0.346774 0
M  V30 6235 H 603.104 3.50119 1.40346 0
M  V30 6236 H 605.491 2.51851 1.53802 0
M  V30 6237 H 605.572 2.5477 -0.229297 0
M  V30 6238 H 605.216 5.07575 -0.181585 0
M  V30 6239 H 605.146 5.01781 1.59761 0
M  V30 6240 H 607.637 3.70274 0.755364 0
M  V30 6241 H 607.95 7.6722 0.92698 0
M  V30 6242 H 606.295 6.89898 0.840557 0
M  V30 6243 H 609.486 4.60263 0.852956 0
M  V30 6244 H 609.659 6.41271 0.931439 0
M  V30 6245 N 603.065 -0.440357 1.51323 0
M  V30 6246 C 604.342 -1.20109 1.5438 0
M  V30 6247 C 604.722 -2.08866 0.306303 0
M  V30 6248 O 604.07 -2.1723 -0.708773 0
M  V30 6249 C 604.28 -2.00555 2.8562 0
M  V30 6250 C 605.628 -2.577 3.37455 0
M  V30 6251 O 606.652 -2.10769 2.8715 0
M  V30 6252 O 605.511 -3.43289 4.25224 0
M  V30 6253 H 602.605 -0.546668 0.620551 0
M  V30 6254 H 605.151 -0.449672 1.63634 0
M  V30 6255 H 603.923 -1.35346 3.67147 0
M  V30 6256 H 603.546 -2.82768 2.79514 0
M  V30 6257 N 604.543 -1.41418 -0.695603 0
M  V30 6258 C 605.791 -1.40496 -1.45277 0
M  V30 6259 C 606.112 -0.0149538 -1.94994 0
M  V30 6260 O 605.382 0.9432 -1.71699 0
M  V30 6261 H 603.962 -0.517147 -0.539044 0
M  V30 6262 H 606.624 -1.76656 -0.823321 0
M  V30 6263 H 605.72 -2.09214 -2.31595 0
M  V30 6264 N 606.021 0.929856 -1.27246 0
M  V30 6265 C 607.246 1.71674 -1.16374 0
M  V30 6266 C 607.671 1.86064 0.276024 0
M  V30 6267 O 607.029 1.3591 1.19992 0
M  V30 6268 C 607.077 3.09526 -1.85003 0
M  V30 6269 O 606.181 3.96142 -1.14653 0
M  V30 6270 H 605.522 0.52629 -0.404863 0
M  V30 6271 H 608.052 1.16381 -1.68276 0
M  V30 6272 H 608.062 3.59852 -1.92276 0
M  V30 6273 H 606.737 2.98369 -2.89739 0
M  V30 6274 H 605.314 3.54584 -1.15433 0
M  V30 6275 N 607.499 1.09233 1.13605 0
M  V30 6276 C 608.446 0.729921 2.18954 0
M  V30 6277 C 609.416 -0.287916 1.63586 0
M  V30 6278 O 610.601 -0.170003 1.90041 0
M  V30 6279 C 607.741 0.154489 3.44754 0
M  V30 6280 C 606.854 1.22613 4.14234 0
M  V30 6281 C 605.989 0.613657 5.27644 0
M  V30 6282 C 605.028 1.66674 5.8897 0
M  V30 6283 N 604.165 1.07545 6.93814 0
M  V30 6284 H 609.005 1.63257 2.49302 0
M  V30 6285 H 606.542 0.815693 1.22413 0
M  V30 6286 H 608.5 -0.196923 4.16735 0
M  V30 6287 H 607.13 -0.711433 3.14863 0
M  V30 6288 H 606.182 1.69485 3.40557 0
M  V30 6289 H 607.494 2.0238 4.55899 0
M  V30 6290 H 606.648 0.210976 6.06333 0
M  V30 6291 H 605.387 -0.215584 4.87223 0
M  V30 6292 H 604.392 2.07899 5.08978 0
M  V30 6293 H 605.617 2.49861 6.31464 0
M  V30 6294 H 603.563 0.267451 6.55455 0
M  V30 6295 H 603.48 1.81011 7.3401 0
M  V30 6296 H 604.748 0.698906 7.7636 0
M  V30 6297 N 608.977 -1.30795 0.87923 0
M  V30 6298 C 610.388 -1.78535 0.546093 0
M  V30 6299 C 610.739 -1.72354 -0.937467 0
M  V30 6300 O 609.864 -1.2969 -1.73233 0
M  V30 6301 C 610.459 -3.24181 0.9845 0
M  V30 6302 C 609.018 -3.69779 0.702871 0
M  V30 6303 C 608.165 -2.51377 1.17068 0
M  V30 6304 H 611.116 -1.17746 1.06403 0
M  V30 6305 H 611.137 -3.79227 0.311045 0
M  V30 6306 H 610.649 -3.28647 2.06429 0
M  V30 6307 H 608.75 -3.70806 -0.365166 0
M  V30 6308 H 608.863 -4.61507 1.28639 0
M  V30 6309 H 607.227 -2.47768 0.590172 0
M  V30 6310 H 608.01 -2.58584 2.25808 0
M  V30 6311 N 610.455 -0.639598 -1.44038 0
M  V30 6312 C 611.387 0.0987684 -2.28987 0
M  V30 6313 C 612.4 0.80058 -1.41755 0
M  V30 6314 O 613.589 0.660611 -1.65826 0
M  V30 6315 C 610.689 1.16242 -3.18341 0
M  V30 6316 C 609.862 0.541447 -4.34036 0
M  V30 6317 C 608.921 1.50017 -5.04362 0
M  V30 6318 O 607.947 1.01403 -5.60095 0
M  V30 6319 N 609.149 2.83441 -5.06598 0
M  V30 6320 H 611.914 -0.630305 -2.92997 0
M  V30 6321 H 609.475 -0.481376 -1.54578 0
M  V30 6322 H 611.467 1.80429 -3.62253 0
M  V30 6323 H 610.037 1.79362 -2.56024 0
M  V30 6324 H 609.257 -0.27923 -3.9321 0
M  V30 6325 H 610.545 0.107379 -5.08687 0
M  V30 6326 H 609.943 3.2551 -4.62666 0
M  V30 6327 H 608.5 3.42966 -5.54272 0
M  V30 6328 N 611.933 1.52934 -0.380664 0
M  V30 6329 C 613.21 1.93845 0.261417 0
M  V30 6330 C 613.59 1.31544 1.65104 0
M  V30 6331 O 612.938 0.480234 2.23397 0
M  V30 6332 C 613.148 3.47739 0.296466 0
M  V30 6333 C 614.496 4.21284 0.529578 0
M  V30 6334 O 615.52 3.54199 0.377041 0
M  V30 6335 O 614.379 5.40195 0.827753 0
M  V30 6336 H 611.473 0.811318 0.160285 0
M  V30 6337 H 614.019 1.64042 -0.434544 0
M  V30 6338 H 612.791 3.85395 -0.67724 0
M  V30 6339 H 612.414 3.8382 1.0377 0
M  V30 6340 N 613.412 0.11024 1.57214 0
M  V30 6341 C 614.375 -0.828808 2.1369 0
M  V30 6342 C 615.375 -1.20059 1.06969 0
M  V30 6343 O 616.565 -1.12754 1.32786 0
M  V30 6344 C 613.697 -2.11959 2.66994 0
M  V30 6345 H 614.89 -0.338146 2.97988 0
M  V30 6346 H 612.443 -0.138913 1.55681 0
M  V30 6347 H 613.178 -2.65476 1.8626 0
M  V30 6348 H 612.963 -1.86258 3.45037 0
M  V30 6349 H 614.453 -2.79105 3.10629 0
M  V30 6350 N 614.89 -1.56749 -0.16351 0
M  V30 6351 C 616.136 -1.82704 -0.880168 0
M  V30 6352 C 616.469 -0.689311 -1.81555 0
M  V30 6353 O 615.744 0.308224 -1.92042 0
M  V30 6354 C 616.027 -3.19084 -1.66905 0
M  V30 6355 C 615.88 -4.43397 -0.756269 0
M  V30 6356 C 617.199 -3.52493 -2.63509 0
M  V30 6357 H 614.318 -0.664608 -0.318535 0
M  V30 6358 H 616.96 -1.89438 -0.146036 0
M  V30 6359 H 615.11 -3.13475 -2.2949 0
M  V30 6360 H 616.782 -4.61079 -0.14269 0
M  V30 6361 H 615.025 -4.33752 -0.0647944 0
M  V30 6362 H 615.696 -5.3539 -1.34393 0
M  V30 6363 H 618.172 -3.58606 -2.11047 0
M  V30 6364 H 617.048 -4.48979 -3.15767 0
M  V30 6365 H 617.309 -2.77597 -3.44082 0
M  V30 6366 N 616.368 0.432326 -1.51554 0
M  V30 6367 C 617.779 1.01202 -1.56892 0
M  V30 6368 C 618.13 1.92175 -0.395394 0
M  V30 6369 O 617.255 2.10844 0.487198 0
M  V30 6370 C 617.85 1.84217 -2.8434 0
M  V30 6371 C 616.409 2.37228 -2.92233 0
M  V30 6372 C 615.556 1.16576 -2.51606 0
M  V30 6373 H 618.507 0.213407 -1.57259 0
M  V30 6374 H 618.528 2.69721 -2.68385 0
M  V30 6375 H 618.04 1.17979 -3.69733 0
M  V30 6376 H 616.141 3.06905 -2.11282 0
M  V30 6377 H 616.254 2.69682 -3.95991 0
M  V30 6378 H 614.618 1.51263 -2.04919 0
M  V30 6379 H 615.401 0.519404 -3.39348 0
M  V30 6380 N 617.846 1.41785 0.688094 0
M  V30 6381 C 619.094 1.41264 1.4453 0
M  V30 6382 C 619.415 0.0252946 1.94984 0
M  V30 6383 O 618.685 -0.934081 1.72197 0
M  V30 6384 H 617.265 0.519998 0.536294 0
M  V30 6385 H 619.927 1.7709 0.813941 0
M  V30 6386 H 619.023 2.10439 2.30482 0
M  V30 6387 N 619.324 -0.923095 1.27737 0
M  V30 6388 C 620.735 -1.48626 1.12993 0
M  V30 6389 C 621.086 -1.94142 -0.283439 0
M  V30 6390 O 620.211 -1.81605 -1.17681 0
M  V30 6391 C 620.806 -2.70117 2.04505 0
M  V30 6392 C 619.365 -3.22642 1.93853 0
M  V30 6393 C 618.512 -1.95368 1.96791 0
M  V30 6394 H 621.463 -0.736737 1.40563 0
M  V30 6395 H 621.484 -3.4506 1.60356 0
M  V30 6396 H 620.996 -2.36959 3.07363 0
M  V30 6397 H 619.097 -3.60549 0.939968 0
M  V30 6398 H 619.21 -3.88525 2.80331 0
M  V30 6399 H 617.574 -2.12061 1.41076 0
M  V30 6400 H 618.357 -1.64517 3.01312 0
M  V30 6401 N 620.802 -1.09834 -1.13024 0
M  V30 6402 C 622.032 -0.857657 -1.87957 0
M  V30 6403 C 622.44 0.595008 -1.796 0
M  V30 6404 O 621.783 1.42158 -1.16347 0
M  V30 6405 C 621.845 -1.21949 -3.38185 0
M  V30 6406 C 621.509 -2.67791 -3.7032 0
M  V30 6407 C 622.506 -3.66036 -3.69207 0
M  V30 6408 C 620.191 -3.04019 -3.99847 0
M  V30 6409 C 622.185 -4.98533 -3.9717 0
M  V30 6410 C 619.872 -4.36706 -4.27471 0
M  V30 6411 C 620.87 -5.33772 -4.26118 0
M  V30 6412 O 620.558 -6.64072 -4.53061 0
M  V30 6413 H 620.29 -0.308009 -0.601753 0
M  V30 6414 H 622.844 -1.46496 -1.43973 0
M  V30 6415 H 621.074 -0.555249 -3.82693 0
M  V30 6416 H 622.763 -0.957281 -3.9445 0
M  V30 6417 H 623.529 -3.39392 -3.46465 0
M  V30 6418 H 619.408 -2.29096 -4.00045 0
M  V30 6419 H 622.952 -5.74288 -3.96029 0
M  V30 6420 H 618.849 -4.63091 -4.49685 0
M  V30 6421 H 619.617 -6.69608 -4.7071 0
M  V30 6422 N 622.28 1.30327 -0.886154 0
M  V30 6423 C 623.528 1.9571 -0.504195 0
M  V30 6424 C 623.849 1.70294 0.950003 0
M  V30 6425 O 623.119 1.02718 1.66811 0
M  V30 6426 H 621.699 0.72412 -0.183465 0
M  V30 6427 H 624.361 1.58835 -1.12949 0
M  V30 6428 H 623.457 3.04704 -0.675431 0
M  V30 6429 N 623.758 0.647228 1.43697 0
M  V30 6430 C 624.721 -0.0385101 2.29168 0
M  V30 6431 C 625.721 -0.756487 1.41894 0
M  V30 6432 O 626.911 -0.598641 1.63591 0
M  V30 6433 C 624.043 -1.06524 3.23829 0
M  V30 6434 H 625.236 0.713445 2.9129 0
M  V30 6435 H 622.789 0.408153 1.50877 0
M  V30 6436 H 623.524 -1.84664 2.66589 0
M  V30 6437 H 623.309 -0.554147 3.88164 0
M  V30 6438 H 624.799 -1.54432 3.87996 0
M  V30 6439 N 625.236 -1.5273 0.388769 0
M  V30 6440 C 626.186 -2.23238 -0.463567 0
M  V30 6441 C 627.17 -1.23606 -1.03007 0
M  V30 6442 O 628.362 -1.48945 -0.956261 0
M  V30 6443 C 625.491 -3.04228 -1.5906 0
M  V30 6444 C 624.577 -4.11255 -1.03587 0
M  V30 6445 N 624.968 -5.0538 -0.206038 0
M  V30 6446 C 623.266 -4.26376 -1.30841 0
M  V30 6447 C 623.967 -5.81613 0.100359 0
M  V30 6448 N 622.943 -5.41264 -0.503447 0
M  V30 6449 H 626.745 -2.93367 0.176978 0
M  V30 6450 H 624.259 -1.61188 0.198046 0
M  V30 6451 H 626.256 -3.53277 -2.21362 0
M  V30 6452 H 624.916 -2.35634 -2.23398 0
M  V30 6453 H 625.927 -5.17663 0.156659 0
M  V30 6454 H 622.604 -3.69011 -1.95287 0
M  V30 6455 H 623.994 -6.67442 0.772676 0
M  V30 6456 N 626.714 -0.118576 -1.57153 0
M  V30 6457 C 627.662 0.849114 -2.16547 0
M  V30 6458 C 628.656 1.27567 -1.11458 0
M  V30 6459 O 629.862 1.24746 -1.29763 0
M  V30 6460 H 626.237 0.291935 -0.693021 0
M  V30 6461 H 628.208 0.323693 -2.96639 0
M  V30 6462 C 626.957 2.08951 -2.77912 0
M  V30 6463 H 626.28 1.77021 -3.58474 0
M  V30 6464 H 627.72 2.74666 -3.23008 0
M  V30 6465 C 626.179 2.87899 -1.74974 0
M  V30 6466 O 626.709 3.83268 -1.20285 0
M  V30 6467 N 624.915 2.51884 -1.44924 0
M  V30 6468 H 624.462 1.74397 -1.89587 0
M  V30 6469 H 624.42 3.05003 -0.762921 0
M  V30 6470 N 628.193 1.56834 0.155195 0
M  V30 6471 C 629.439 1.84058 0.865687 0
M  V30 6472 C 629.794 0.701418 1.79159 0
M  V30 6473 O 629.087 -0.301162 1.89218 0
M  V30 6474 C 629.281 3.15239 1.68402 0
M  V30 6475 C 629.11 4.41807 0.838847 0
M  V30 6476 C 627.88 5.02744 0.507645 0
M  V30 6477 C 630.078 5.14009 0.172946 0
M  V30 6478 N 628.06 6.1289 -0.351978 0
M  V30 6479 C 629.431 6.17581 -0.547158 0
M  V30 6480 C 631.486 4.97814 0.0927721 0
M  V30 6481 C 630.189 7.06711 -1.33985 0
M  V30 6482 C 632.215 5.874 -0.686638 0
M  V30 6483 C 631.577 6.90447 -1.39505 0
M  V30 6484 H 627.676 0.724276 0.294871 0
M  V30 6485 H 630.26 1.94255 0.131583 0
M  V30 6486 H 628.431 3.06205 2.38942 0
M  V30 6487 H 630.163 3.304 2.33705 0
M  V30 6488 H 626.918 4.66064 0.841517 0
M  V30 6489 H 627.342 6.72577 -0.772573 0
M  V30 6490 H 631.984 4.18138 0.626112 0
M  V30 6491 H 629.702 7.8582 -1.88448 0
M  V30 6492 H 633.288 5.76938 -0.750555 0
M  V30 6493 H 632.168 7.58571 -1.98847 0
M  V30 6494 N 629.671 -0.424282 1.51781 0
M  V30 6495 C 630.621 -1.51464 1.70419 0
M  V30 6496 C 631.605 -1.50911 0.558094 0
M  V30 6497 O 632.797 -1.57143 0.814552 0
M  V30 6498 C 629.926 -2.89539 1.84451 0
M  V30 6499 C 629.012 -2.94798 3.04886 0
M  V30 6500 N 629.403 -2.69778 4.27848 0
M  V30 6501 C 627.701 -3.25962 3.04408 0
M  V30 6502 C 628.402 -2.81216 5.09208 0
M  V30 6503 N 627.378 -3.13447 4.44131 0
M  V30 6504 H 631.18 -1.30892 2.63144 0
M  V30 6505 H 628.694 -0.631783 1.49607 0
M  V30 6506 H 630.691 -3.67998 1.95917 0
M  V30 6507 H 629.351 -3.11121 0.929168 0
M  V30 6508 H 630.362 -2.44458 4.56575 0
M  V30 6509 H 627.039 -3.53236 2.22555 0
M  V30 6510 H 628.429 -2.65715 6.17127 0
M  V30 6511 N 631.149 -1.42148 -0.680565 0
M  V30 6512 C 632.56 -1.3768 -1.26099 0
M  V30 6513 C 632.911 -0.0672348 -1.96085 0
M  V30 6514 O 632.036 0.834172 -1.99676 0
M  V30 6515 C 632.631 -2.49387 -2.29328 0
M  V30 6516 C 631.19 -2.4827 -2.82911 0
M  V30 6517 C 630.337 -2.2847 -1.57152 0
M  V30 6518 H 633.288 -1.51446 -0.474326 0
M  V30 6519 H 633.309 -2.19307 -3.10941 0
M  V30 6520 H 632.821 -3.44686 -1.78363 0
M  V30 6521 H 630.922 -1.56773 -3.38013 0
M  V30 6522 H 631.035 -3.45109 -3.3232 0
M  V30 6523 H 629.399 -1.76623 -1.83511 0
M  V30 6524 H 630.182 -3.25816 -1.0816 0
M  V30 6525 N 632.627 0.916307 -1.28225 0
M  V30 6526 C 633.56 2.01954 -1.06254 0
M  V30 6527 C 634.538 1.62587 0.0205983 0
M  V30 6528 O 635.722 1.88073 -0.126824 0
M  V30 6529 C 632.849 3.33086 -0.614141 0
M  V30 6530 C 631.895 3.91435 -1.69354 0
M  V30 6531 S 632.728 4.22603 -3.28887 0
M  V30 6532 C 633.884 5.568 -2.85876 0
M  V30 6533 H 634.117 2.20281 -1.99659 0
M  V30 6534 H 631.65 1.06085 -1.12184 0
M  V30 6535 H 633.608 4.089 -0.36213 0
M  V30 6536 H 632.269 3.12664 0.300036 0
M  V30 6537 H 631.462 4.86098 -1.33136 0
M  V30 6538 H 631.064 3.22248 -1.89821 0
M  V30 6539 H 633.356 6.3658 -2.31888 0
M  V30 6540 H 634.299 5.97927 -3.79326 0
M  V30 6541 H 634.707 5.17865 -2.24669 0
M  V30 6542 N 634.105 1.10431 1.1244 0
M  V30 6543 C 635.33 0.869089 1.88313 0
M  V30 6544 C 635.755 -0.574912 1.79099 0
M  V30 6545 O 635.113 -1.40496 1.14589 0
M  V30 6546 C 635.161 1.32208 3.3549 0
M  V30 6547 O 634.265 0.487092 4.09513 0
M  V30 6548 H 633.606 0.313894 0.585121 0
M  V30 6549 H 636.136 1.47111 1.42195 0
M  V30 6550 H 636.146 1.31201 3.86329 0
M  V30 6551 H 634.821 2.37364 3.41513 0
M  V30 6552 H 633.398 0.562372 3.68635 0
M  V30 6553 N 635.583 -1.29855 0.893053 0
M  V30 6554 C 636.83 -1.95826 0.515585 0
M  V30 6555 C 637.158 -1.70451 -0.936842 0
M  V30 6556 O 636.413 -1.00657 -1.67829 0
M  V30 6557 C 636.712 -3.49515 0.746588 0
M  V30 6558 C 636.378 -3.94955 2.17535 0
M  V30 6559 C 635.04 -4.07073 2.56603 0
M  V30 6560 C 637.392 -4.18536 3.10607 0
M  V30 6561 C 634.72 -4.40138 3.87938 0
M  V30 6562 C 637.072 -4.53073 4.41484 0
M  V30 6563 C 635.736 -4.634 4.80434 0
M  V30 6564 H 635.006 -0.71658 0.188666 0
M  V30 6565 H 637.653 -1.54574 1.13045 0
M  V30 6566 H 635.958 -3.9177 0.0487551 0
M  V30 6567 H 637.655 -3.98644 0.434009 0
M  V30 6568 H 634.245 -3.86035 1.86212 0
M  V30 6569 H 638.429 -4.08646 2.81641 0
M  V30 6570 H 633.685 -4.46335 4.17846 0
M  V30 6571 H 637.859 -4.70269 5.13634 0
M  V30 6572 H 635.486 -4.88775 5.82239 0
M  V30 6573 N 637.061 -0.65484 -1.43351 0
M  V30 6574 C 638.009 0.0476784 -2.32551 0
M  V30 6575 C 639.003 0.811403 -1.48703 0
M  V30 6576 O 640.209 0.721621 -1.64902 0
M  V30 6577 H 636.584 0.0342038 -0.751222 0
M  V30 6578 H 638.555 -0.722342 -2.89525 0
M  V30 6579 C 637.304 0.999251 -3.33032 0
M  V30 6580 H 636.627 0.421005 -3.97577 0
M  V30 6581 H 638.067 1.45986 -3.98076 0
M  V30 6582 C 636.526 2.09606 -2.63756 0
M  V30 6583 O 637.056 3.18004 -2.4543 0
M  V30 6584 N 635.262 1.86207 -2.23103 0
M  V30 6585 H 634.809 0.980555 -2.38208 0
M  V30 6586 H 634.767 2.59787 -1.77081 0
M  V30 6587 N 638.539 1.52521 -0.396863 0
M  V30 6588 C 639.95 1.86547 0.0754868 0
M  V30 6589 C 640.301 1.31621 1.45501 0
M  V30 6590 O 639.426 0.650563 2.0639 0
M  V30 6591 C 640.021 3.38495 0.143754 0
M  V30 6592 C 638.58 3.72205 0.560413 0
M  V30 6593 C 637.727 2.75954 -0.272856 0
M  V30 6594 H 640.678 1.46323 -0.614434 0
M  V30 6595 H 640.699 3.68153 0.961425 0
M  V30 6596 H 640.211 3.78442 -0.860415 0
M  V30 6597 H 638.312 3.3783 1.57167 0
M  V30 6598 H 638.425 4.78074 0.313314 0
M  V30 6599 H 636.789 2.53339 0.263 0
M  V30 6600 H 637.572 3.1874 -1.27515 0
M  V30 6601 N 640.017 0.126909 1.57088 0
M  V30 6602 C 640.949 -0.850973 2.12817 0
M  V30 6603 C 641.962 -1.22457 1.07276 0
M  V30 6604 O 643.151 -1.17215 1.34622 0
M  V30 6605 C 640.251 -2.15039 2.61938 0
M  V30 6606 C 639.424 -1.94726 3.91664 0
M  V30 6607 C 638.483 -3.0847 4.26301 0
M  V30 6608 O 637.509 -2.81038 4.94981 0
M  V30 6609 N 638.711 -4.35116 3.84259 0
M  V30 6610 H 641.476 -0.3748 2.97347 0
M  V30 6611 H 639.037 -0.0572793 1.61799 0
M  V30 6612 H 641.029 -2.90141 2.82135 0
M  V30 6613 H 639.599 -2.5398 1.82244 0
M  V30 6614 H 638.819 -1.03772 3.80296 0
M  V30 6615 H 640.107 -1.78469 4.76473 0
M  V30 6616 H 639.505 -4.60276 3.2888 0
M  V30 6617 H 638.062 -5.07064 4.09548 0
M  V30 6618 N 641.495 -1.56914 -0.146875 0
M  V30 6619 C 642.723 -1.87515 -0.874394 0
M  V30 6620 C 643.138 -0.715116 -1.74733 0
M  V30 6621 O 642.495 0.315113 -1.79759 0
M  V30 6622 C 642.546 -3.17362 -1.731 0
M  V30 6623 O 642.267 -4.28897 -0.893245 0
M  V30 6624 C 643.768 -3.61479 -2.56609 0
M  V30 6625 H 640.988 -0.621546 -0.252827 0
M  V30 6626 H 643.532 -2.04023 -0.139627 0
M  V30 6627 H 641.687 -3.02608 -2.41883 0
M  V30 6628 H 642.101 -5.03146 -1.48137 0
M  V30 6629 H 643.575 -4.5517 -3.12289 0
M  V30 6630 H 644.052 -2.86773 -3.32653 0
M  V30 6631 H 644.658 -3.78927 -1.93117 0
M  V30 6632 N 642.974 0.416227 -1.52004 0
M  V30 6633 C 644.222 1.16153 -1.65387 0
M  V30 6634 C 644.543 1.91208 -0.382669 0
M  V30 6635 O 643.813 1.86413 0.602231 0
M  V30 6636 H 642.393 0.431765 -0.60958 0
M  V30 6637 H 645.055 0.475151 -1.89019 0
M  V30 6638 H 644.151 1.87952 -2.4916 0
M  V30 6639 N 644.452 1.42507 0.673017 0
M  V30 6640 C 645.382 1.48916 1.79851 0
M  V30 6641 C 646.363 0.345566 1.66553 0
M  V30 6642 O 647.548 0.560116 1.85947 0
M  V30 6643 C 644.678 1.39258 3.18158 0
M  V30 6644 C 643.632 2.51662 3.46194 0
M  V30 6645 C 642.958 2.27062 4.84094 0
M  V30 6646 C 644.258 3.93968 3.42909 0
M  V30 6647 H 645.952 2.43114 1.74745 0
M  V30 6648 H 643.498 1.17013 0.839288 0
M  V30 6649 H 645.451 1.42349 3.96629 0
M  V30 6650 H 644.175 0.415542 3.23946 0
M  V30 6651 H 642.834 2.47891 2.70084 0
M  V30 6652 H 642.482 1.27648 4.86534 0
M  V30 6653 H 642.182 3.02398 5.03815 0
M  V30 6654 H 643.706 2.31905 5.64847 0
M  V30 6655 H 645.12 3.99332 4.11347 0
M  V30 6656 H 643.517 4.6917 3.74165 0
M  V30 6657 H 644.587 4.20512 2.41449 0
M  V30 6658 N 645.93 -0.909495 1.28709 0
M  V30 6659 C 647.176 -1.66151 1.16283 0
M  V30 6660 C 647.509 -1.92067 -0.287069 0
M  V30 6661 O 646.784 -1.52409 -1.20837 0
M  V30 6662 C 647.067 -3.01676 1.9663 0
M  V30 6663 C 646.92 -2.82888 3.49707 0
M  V30 6664 C 648.239 -4.02274 1.78504 0
M  V30 6665 H 645.358 -0.602966 0.423793 0
M  V30 6666 H 648 -1.05418 1.58073 0
M  V30 6667 H 646.15 -3.53515 1.61119 0
M  V30 6668 H 647.822 -2.38026 3.95147 0
M  V30 6669 H 646.065 -2.17862 3.75125 0
M  V30 6670 H 646.736 -3.79147 4.01187 0
M  V30 6671 H 649.212 -3.59511 2.09503 0
M  V30 6672 H 648.088 -4.95056 2.37088 0
M  V30 6673 H 648.349 -4.35903 0.737647 0
M  V30 6674 N 647.408 -1.11026 -1.11852 0
M  V30 6675 C 648.638 -0.877544 -1.87037 0
M  V30 6676 C 649.046 0.575925 -1.80221 0
M  V30 6677 O 648.389 1.40916 -1.17849 0
M  V30 6678 C 648.451 -1.25529 -3.36872 0
M  V30 6679 C 648.115 -2.71704 -3.67459 0
M  V30 6680 C 649.112 -3.69931 -3.65304 0
M  V30 6681 C 646.797 -3.08243 -3.966 0
M  V30 6682 C 648.791 -5.02717 -3.9186 0
M  V30 6683 C 646.478 -4.41215 -4.22815 0
M  V30 6684 C 647.476 -5.38262 -4.20432 0
M  V30 6685 O 647.164 -6.68839 -4.45992 0
M  V30 6686 H 646.896 -0.314374 -0.598452 0
M  V30 6687 H 649.45 -1.48015 -1.42411 0
M  V30 6688 H 647.68 -0.595808 -3.82082 0
M  V30 6689 H 649.369 -0.999064 -3.93413 0
M  V30 6690 H 650.135 -3.43047 -3.42846 0
M  V30 6691 H 646.014 -2.33326 -3.97593 0
M  V30 6692 H 649.558 -5.78456 -3.89916 0
M  V30 6693 H 645.455 -4.67835 -4.44748 0
M  V30 6694 H 646.223 -6.74563 -4.63581 0
M  V30 6695 N 648.886 1.2938 -0.899927 0
M  V30 6696 C 649.816 2.30144 -0.39446 0
M  V30 6697 C 650.797 1.61611 0.530639 0
M  V30 6698 O 651.982 1.89119 0.441319 0
M  V30 6699 C 649.112 3.45229 0.37868 0
M  V30 6700 C 648.066 4.25564 -0.456012 0
M  V30 6701 C 647.392 5.32848 0.444637 0
M  V30 6702 C 648.692 4.93651 -1.70605 0
M  V30 6703 H 650.386 2.72673 -1.23653 0
M  V30 6704 H 647.932 1.31086 -0.596034 0
M  V30 6705 H 649.885 4.14797 0.743037 0
M  V30 6706 H 648.609 3.01545 1.25453 0
M  V30 6707 H 647.268 3.57704 -0.802704 0
M  V30 6708 H 646.916 4.85408 1.31863 0
M  V30 6709 H 646.616 5.87497 -0.110154 0
M  V30 6710 H 648.14 6.05268 0.805182 0
M  V30 6711 H 649.554 5.55655 -1.41141 0
M  V30 6712 H 647.951 5.58233 -2.20217 0
M  V30 6713 H 649.021 4.18926 -2.4419 0
M  V30 6714 N 650.364 0.662433 1.43002 0
M  V30 6715 C 651.775 0.258315 1.84904 0
M  V30 6716 C 652.126 -1.19703 1.55453 0
M  V30 6717 O 651.251 -1.91484 1.00811 0
M  V30 6718 C 651.846 0.462047 3.35635 0
M  V30 6719 C 650.405 0.112165 3.76233 0
M  V30 6720 C 649.552 0.760479 2.66668 0
M  V30 6721 H 652.503 0.865467 1.33024 0
M  V30 6722 H 652.524 -0.289646 3.79396 0
M  V30 6723 H 652.036 1.52135 3.57039 0
M  V30 6724 H 650.137 -0.944179 3.60439 0
M  V30 6725 H 650.25 0.544058 4.76001 0
M  V30 6726 H 648.614 0.192887 2.53969 0
M  V30 6727 H 649.397 1.82299 2.90898 0
M  V30 6728 N 651.842 -1.52309 0.404946 0
M  V30 6729 C 652.805 -2.25491 -0.410651 0
M  V30 6730 C 653.805 -1.27704 -0.977154 0
M  V30 6731 O 654.995 -1.51679 -0.856691 0
M  V30 6732 C 652.127 -3.02197 -1.57765 0
M  V30 6733 H 653.32 -2.99015 0.230277 0
M  V30 6734 H 650.873 -1.55506 0.157377 0
M  V30 6735 H 651.608 -2.33013 -2.25556 0
M  V30 6736 H 651.393 -3.73987 -1.17797 0
M  V30 6737 H 652.883 -3.57719 -2.15469 0
M  V30 6738 N 653.32 -0.135238 -1.57019 0
M  V30 6739 C 654.252 0.839675 -2.13265 0
M  V30 6740 C 655.265 1.21887 -1.07923 0
M  V30 6741 O 656.454 1.16499 -1.35241 0
M  V30 6742 C 653.554 2.13647 -2.63075 0
M  V30 6743 C 652.727 1.92646 -3.92691 0
M  V30 6744 C 651.786 3.06205 -4.27931 0
M  V30 6745 O 650.812 2.78409 -4.96465 0
M  V30 6746 N 652.014 4.33072 -3.86561 0
M  V30 6747 H 654.779 0.359026 -2.97542 0
M  V30 6748 H 652.34 0.0486979 -1.61827 0
M  V30 6749 H 654.332 2.88641 -2.8367 0
M  V30 6750 H 652.902 2.5301 -1.83588 0
M  V30 6751 H 652.122 1.01754 -3.80841 0
M  V30 6752 H 653.41 1.75939 -4.77413 0
M  V30 6753 H 652.808 4.58526 -3.31316 0
M  V30 6754 H 651.365 5.04885 -4.12231 0
M  V30 6755 N 654.798 1.5699 0.138552 0
M  V30 6756 C 655.746 1.99858 1.18994 0
M  V30 6757 C 656.74 0.89231 1.43994 0
M  V30 6758 O 657.946 1.0775 1.44187 0
M  V30 6759 H 654.321 0.636325 0.400743 0
M  V30 6760 H 656.292 2.87427 0.801755 0
M  V30 6761 C 655.041 2.40235 2.51361 0
M  V30 6762 H 654.364 3.24917 2.32957 0
M  V30 6763 H 655.804 2.74045 3.23535 0
M  V30 6764 C 654.263 1.25829 3.1252 0
M  V30 6765 O 654.793 0.563604 3.97727 0
M  V30 6766 N 652.999 1.02036 2.72097 0
M  V30 6767 H 652.546 1.58705 2.02905 0
M  V30 6768 H 652.504 0.256796 3.1335 0
M  V30 6769 N 656.276 -0.40816 1.52223 0
M  V30 6770 C 657.522 -1.15673 1.66576 0
M  V30 6771 C 657.855 -1.90141 0.394996 0
M  V30 6772 O 657.13 -1.84798 -0.606613 0
M  V30 6773 C 657.413 -2.15042 2.88841 0
M  V30 6774 C 657.266 -1.44465 4.25969 0
M  V30 6775 C 658.585 -3.15699 3.0663 0
M  V30 6776 H 655.704 -0.41916 0.606196 0
M  V30 6777 H 658.346 -0.442348 1.84779 0
M  V30 6778 H 656.496 -2.75964 2.73452 0
M  V30 6779 H 658.168 -0.866544 4.53088 0
M  V30 6780 H 656.411 -0.746612 4.27327 0
M  V30 6781 H 657.082 -2.16976 5.07568 0
M  V30 6782 H 659.558 -2.64854 3.20923 0
M  V30 6783 H 658.434 -3.82491 3.9369 0
M  V30 6784 H 658.695 -3.83481 2.19987 0
M  V30 6785 N 657.755 -1.42862 -0.66545 0
M  V30 6786 C 659.166 -1.3901 -1.24632 0
M  V30 6787 C 659.517 -0.0880285 -1.96002 0
M  V30 6788 O 658.642 0.812947 -2.0055 0
M  V30 6789 C 659.237 -2.51806 -2.2667 0
M  V30 6790 C 657.796 -2.51257 -2.80262 0
M  V30 6791 C 656.943 -2.30124 -1.5472 0
M  V30 6792 H 659.894 -1.5194 -0.458237 0
M  V30 6793 H 659.915 -2.22593 -3.08598 0
M  V30 6794 H 659.427 -3.46558 -1.74697 0
M  V30 6795 H 657.528 -1.60349 -3.36332 0
M  V30 6796 H 657.641 -3.48614 -3.28641 0
M  V30 6797 H 656.005 -1.7856 -1.81627 0
M  V30 6798 H 656.788 -3.26945 -1.04699 0
M  V30 6799 N 659.233 0.902656 -1.29189 0
M  V30 6800 C 660.479 1.65532 -1.17163 0
M  V30 6801 C 660.812 1.92216 0.276879 0
M  V30 6802 O 660.087 1.53048 1.20027 0
M  V30 6803 C 660.37 3.00629 -1.98228 0
M  V30 6804 C 660.223 2.81029 -3.51202 0
M  V30 6805 C 661.542 4.01321 -1.80635 0
M  V30 6806 H 658.661 0.60071 -0.426985 0
M  V30 6807 H 661.303 1.04578 -1.5863 0
M  V30 6808 H 659.453 3.52656 -1.62991 0
M  V30 6809 H 661.125 2.35927 -3.96404 0
M  V30 6810 H 659.368 2.1587 -3.76275 0
M  V30 6811 H 660.039 3.77014 -4.03192 0
M  V30 6812 H 662.515 3.58394 -2.11406 0
M  V30 6813 H 661.391 4.93792 -2.3971 0
M  V30 6814 H 661.652 4.35505 -0.760754 0
M  V30 6815 N 660.711 1.11618 1.11262 0
M  V30 6816 C 661.659 0.771291 2.1944 0
M  V30 6817 C 662.653 -0.238073 1.67719 0
M  V30 6818 O 663.859 -0.0971628 1.79738 0
M  V30 6819 H 660.234 0.231548 0.715465 0
M  V30 6820 H 662.205 1.69226 2.45775 0
M  V30 6821 C 660.954 0.232765 3.4692 0
M  V30 6822 H 660.277 1.00072 3.87073 0
M  V30 6823 H 661.717 0.0296561 4.2399 0
M  V30 6824 C 660.176 -1.03738 3.20531 0
M  V30 6825 O 660.706 -2.11675 3.41404 0
M  V30 6826 N 658.912 -0.960906 2.74253 0
M  V30 6827 H 658.459 -0.0824323 2.57468 0
M  V30 6828 H 658.417 -1.8114 2.56974 0
M  V30 6829 N 662.189 -1.289 0.906776 0
M  V30 6830 C 663.119 -2.29932 0.406659 0
M  V30 6831 C 664.1 -1.6189 -0.522061 0
M  V30 6832 O 665.285 -1.8935 -0.431283 0
M  V30 6833 C 662.415 -3.45425 -0.360366 0
M  V30 6834 C 661.369 -4.25316 0.478574 0
M  V30 6835 C 660.695 -5.33076 -0.416373 0
M  V30 6836 C 661.995 -4.92739 1.7322 0
M  V30 6837 H 663.689 -2.72013 1.25097 0
M  V30 6838 H 661.235 -1.30768 0.602977 0
M  V30 6839 H 663.188 -4.15186 -0.721029 0
M  V30 6840 H 661.912 -3.02206 -1.23852 0
M  V30 6841 H 660.571 -3.57273 0.821662 0
M  V30 6842 H 660.219 -4.86101 -1.29287 0
M  V30 6843 H 659.919 -5.8743 0.141309 0
M  V30 6844 H 661.443 -6.05686 -0.773072 0
M  V30 6845 H 662.857 -5.54898 1.44086 0
M  V30 6846 H 661.254 -5.57057 2.23175 0
M  V30 6847 H 662.324 -4.17625 2.46408 0
M  V30 6848 N 663.667 -0.670007 -1.42649 0
M  V30 6849 C 664.6 0.0613623 -2.28117 0
M  V30 6850 C 665.578 0.813414 -1.40792 0
M  V30 6851 O 666.762 0.809529 -1.70232 0
M  V30 6852 C 663.889 1.09399 -3.20546 0
M  V30 6853 C 662.935 0.438064 -4.24244 0
M  V30 6854 S 663.768 -0.800808 -5.29478 0
M  V30 6855 C 664.924 0.23086 -6.25474 0
M  V30 6856 H 665.157 -0.663606 -2.89799 0
M  V30 6857 H 662.69 -0.45939 -1.47407 0
M  V30 6858 H 664.648 1.68469 -3.74337 0
M  V30 6859 H 663.309 1.79137 -2.58009 0
M  V30 6860 H 662.502 1.21707 -4.89084 0
M  V30 6861 H 662.104 -0.0789346 -3.73917 0
M  V30 6862 H 664.396 1.09204 -6.68641 0
M  V30 6863 H 665.339 -0.382945 -7.07064 0
M  V30 6864 H 665.747 0.574191 -5.61572 0
M  V30 6865 N 665.145 1.52092 -0.413018 0
M  V30 6866 C 666.422 1.94356 0.22024 0
M  V30 6867 C 666.802 1.35017 1.62277 0
M  V30 6868 O 666.15 0.527511 2.22328 0
M  V30 6869 C 666.36 3.48289 0.222638 0
M  V30 6870 C 667.708 4.22313 0.440098 0
M  V30 6871 O 668.732 3.54919 0.301826 0
M  V30 6872 O 667.591 5.41829 0.712984 0
M  V30 6873 H 664.685 0.814536 0.14304 0
M  V30 6874 H 667.231 1.63083 -0.469242 0
M  V30 6875 H 666.003 3.83872 -0.758836 0
M  V30 6876 H 665.626 3.85934 0.956057 0
M  V30 6877 N 666.623 0.143563 1.56945 0
M  V30 6878 C 667.9 -0.553285 1.87612 0
M  V30 6879 C 668.28 -1.83195 1.04894 0
M  V30 6880 O 667.628 -2.28102 0.134773 0
M  V30 6881 C 667.838 -0.822055 3.3918 0
M  V30 6882 C 669.186 -1.16435 4.08324 0
M  V30 6883 O 670.21 -0.911522 3.4434 0
M  V30 6884 O 669.069 -1.63996 5.21313 0
M  V30 6885 H 666.163 -0.281851 0.777489 0
M  V30 6886 H 668.709 0.179916 1.68744 0
M  V30 6887 H 667.481 0.0830265 3.91212 0
M  V30 6888 H 667.104 -1.60956 3.63564 0
M  V30 6889 N 668.101 -1.57061 -0.130224 0
M  V30 6890 C 669.048 -1.99517 -1.16024 0
M  V30 6891 C 670.018 -0.865452 -1.41771 0
M  V30 6892 O 671.203 -1.12882 -1.53826 0
M  V30 6893 C 668.343 -2.3951 -2.48453 0
M  V30 6894 C 667.456 -3.65848 -2.29737 0
M  V30 6895 C 666.591 -3.9487 -3.55318 0
M  V30 6896 C 665.63 -5.14426 -3.31711 0
M  V30 6897 N 664.767 -5.39375 -4.49466 0
M  V30 6898 H 669.607 -2.87305 -0.791194 0
M  V30 6899 H 667.144 -1.42129 -0.379195 0
M  V30 6900 H 669.102 -2.60731 -3.25692 0
M  V30 6901 H 667.732 -1.54779 -2.83272 0
M  V30 6902 H 666.784 -3.52307 -1.4347 0
M  V30 6903 H 668.096 -4.53241 -2.08263 0
M  V30 6904 H 667.25 -4.16679 -4.4098 0
M  V30 6905 H 665.989 -3.05931 -3.79813 0
M  V30 6906 H 664.994 -4.92473 -2.44439 0
M  V30 6907 H 666.219 -6.04933 -3.08598 0
M  V30 6908 H 664.165 -4.53391 -4.74102 0
M  V30 6909 H 664.082 -6.21069 -4.31055 0
M  V30 6910 H 665.35 -5.65694 -5.36293 0
M  V30 6911 N 669.579 0.400081 -1.52437 0
M  V30 6912 C 670.526 1.48803 -1.76426 0
M  V30 6913 C 671.496 1.5461 -0.607032 0
M  V30 6914 O 672.681 1.71041 -0.845563 0
M  V30 6915 C 669.821 2.86156 -1.92896 0
M  V30 6916 C 668.934 2.89587 -3.20567 0
M  V30 6917 C 668.069 4.18296 -3.27417 0
M  V30 6918 C 667.108 4.15736 -4.49255 0
M  V30 6919 N 666.245 5.36032 -4.53447 0
M  V30 6920 H 671.085 1.27649 -2.69276 0
M  V30 6921 H 668.622 0.619451 -1.33421 0
M  V30 6922 H 670.58 3.65901 -2.00429 0
M  V30 6923 H 669.21 3.05785 -1.03418 0
M  V30 6924 H 668.262 2.02278 -3.22161 0
M  V30 6925 H 669.574 2.83562 -4.10358 0
M  V30 6926 H 668.728 5.06439 -3.34072 0
M  V30 6927 H 667.467 4.27028 -2.35581 0
M  V30 6928 H 666.472 3.25982 -4.42737 0
M  V30 6929 H 667.697 4.08636 -5.42396 0
M  V30 6930 H 665.643 5.45415 -3.64498 0
M  V30 6931 H 665.56 5.32038 -5.37096 0
M  V30 6932 H 666.828 6.26104 -4.64343 0
M  V30 6933 N 671.057 1.43213 0.657864 0
M  V30 6934 C 672.303 1.45795 1.41829 0
M  V30 6935 C 672.658 0.0792176 1.92237 0
M  V30 6936 O 671.951 -0.901406 1.69072 0
M  V30 6937 C 672.145 2.43143 2.61947 0
M  V30 6938 C 671.974 3.90345 2.23295 0
M  V30 6939 C 670.744 4.58749 2.11843 0
M  V30 6940 C 672.942 4.80308 1.83873 0
M  V30 6941 N 670.924 5.90898 1.66473 0
M  V30 6942 C 672.295 6.01693 1.49549 0
M  V30 6943 C 674.35 4.67609 1.71015 0
M  V30 6944 C 673.053 7.11792 1.03657 0
M  V30 6945 C 675.079 5.77707 1.26527 0
M  V30 6946 C 674.441 6.98215 0.931379 0
M  V30 6947 H 670.54 0.588628 0.514822 0
M  V30 6948 H 673.124 1.7936 0.7575 0
M  V30 6949 H 671.295 2.11612 3.25692 0
M  V30 6950 H 673.027 2.36193 3.28626 0
M  V30 6951 H 669.782 4.1319 2.31453 0
M  V30 6952 H 670.206 6.61034 1.46163 0
M  V30 6953 H 674.848 3.74902 1.95469 0
M  V30 6954 H 672.566 8.04332 0.779502 0
M  V30 6955 H 676.152 5.69899 1.17074 0
M  V30 6956 H 675.032 7.81959 0.592379 0
M  V30 6957 N 672.536 -0.895792 1.29666 0
M  V30 6958 C 673.446 -2.03329 1.17024 0
M  V30 6959 C 674.462 -1.73753 0.0925962 0
M  V30 6960 O 675.638 -1.99071 0.305431 0
M  V30 6961 C 672.703 -3.36072 0.851841 0
M  V30 6962 C 671.764 -3.7914 2.01373 0
M  V30 6963 C 670.997 -5.05549 1.71043 0
M  V30 6964 O 671.22 -5.66874 0.633213 0
M  V30 6965 O 670.154 -5.44764 2.5596 0
M  V30 6966 H 673.98 -2.16918 2.12556 0
M  V30 6967 H 671.565 -1.02007 1.09156 0
M  V30 6968 H 673.447 -4.15729 0.689006 0
M  V30 6969 H 672.122 -3.23616 -0.0736634 0
M  V30 6970 H 671.029 -3.00233 2.23183 0
M  V30 6971 H 672.362 -3.96186 2.92058 0
M  V30 6972 N 674.014 -1.12206 -1.10668 0
M  V30 6973 C 675.261 -0.875875 -1.82578 0
M  V30 6974 C 675.589 0.598342 -1.85068 0
M  V30 6975 O 674.844 1.45818 -1.3052 0
M  V30 6976 C 675.143 -1.39276 -3.29146 0
M  V30 6977 C 674.809 -2.8816 -3.46806 0
M  V30 6978 C 673.471 -3.28813 -3.51334 0
M  V30 6979 C 675.823 -3.8401 -3.52399 0
M  V30 6980 C 673.151 -4.64028 -3.59019 0
M  V30 6981 C 675.503 -5.19053 -3.61617 0
M  V30 6982 C 674.167 -5.59252 -3.64408 0
M  V30 6983 H 673.437 -0.320505 -0.6681 0
M  V30 6984 H 676.084 -1.40184 -1.30464 0
M  V30 6985 H 674.389 -0.787207 -3.8381 0
M  V30 6986 H 676.086 -1.17851 -3.83291 0
M  V30 6987 H 672.676 -2.55716 -3.43958 0
M  V30 6988 H 676.86 -3.53698 -3.48154 0
M  V30 6989 H 672.116 -4.94568 -3.59461 0
M  V30 6990 H 676.29 -5.93152 -3.64889 0
M  V30 6991 H 673.917 -6.64017 -3.70116 0
M  V30 6992 N 675.492 1.28418 -0.913599 0
M  V30 6993 C 676.44 2.29272 -0.392037 0
M  V30 6994 C 677.434 1.61344 0.516198 0
M  V30 6995 O 678.64 1.75557 0.39746 0
M  V30 6996 H 675.015 0.744178 -0.108178 0
M  V30 6997 H 676.986 2.70691 -1.25574 0
M  V30 6998 C 675.735 3.45905 0.352815 0
M  V30 6999 H 675.058 3.98378 -0.336848 0
M  V30 7000 H 676.498 4.18473 0.682398 0
M  V30 7001 C 674.957 2.98572 1.56065 0
M  V30 7002 O 675.487 3.01033 2.65974 0
M  V30 7003 N 673.693 2.54235 1.40759 0
M  V30 7004 H 673.24 2.52432 0.513403 0
M  V30 7005 H 673.198 2.22925 2.21702 0
M  V30 7006 N 676.97 0.677563 1.42291 0
M  V30 7007 C 677.902 -0.0380218 2.29168 0
M  V30 7008 C 678.915 -0.762714 1.43828 0
M  V30 7009 O 680.104 -0.616413 1.67519 0
M  V30 7010 C 677.204 -1.07761 3.21311 0
M  V30 7011 C 676.377 -0.42618 4.35319 0
M  V30 7012 C 675.436 -1.36592 5.08162 0
M  V30 7013 O 674.462 -0.865174 5.62586 0
M  V30 7014 N 675.664 -2.69909 5.13935 0
M  V30 7015 H 678.429 0.707766 2.91223 0
M  V30 7016 H 675.99 0.52219 1.53247 0
M  V30 7017 H 677.982 -1.70761 3.6691 0
M  V30 7018 H 676.552 -1.72511 2.60689 0
M  V30 7019 H 675.772 0.383385 3.92331 0
M  V30 7020 H 677.06 0.0275277 5.08793 0
M  V30 7021 H 676.458 -3.13129 4.71134 0
M  V30 7022 H 675.015 -3.2815 5.6317 0
M  V30 7023 N 678.448 -1.51871 0.421078 0
M  V30 7024 C 679.411 -2.25914 -0.386712 0
M  V30 7025 C 680.411 -1.28733 -0.963555 0
M  V30 7026 O 681.601 -1.52579 -0.840556 0
M  V30 7027 C 678.733 -3.03853 -1.54551 0
M  V30 7028 H 679.926 -2.98754 0.261978 0
M  V30 7029 H 677.479 -1.5533 0.173862 0
M  V30 7030 H 678.214 -2.35392 -2.23072 0
M  V30 7031 H 677.999 -3.75215 -1.13824 0
M  V30 7032 H 679.489 -3.59984 -2.11663 0
M  V30 7033 N 679.926 -0.151884 -1.56866 0
M  V30 7034 C 681.174 0.497021 -1.95893 0
M  V30 7035 C 681.495 1.65078 -1.03799 0
M  V30 7036 O 680.765 1.95642 -0.10049 0
M  V30 7037 H 679.345 0.186603 -0.723318 0
M  V30 7038 H 682.007 -0.228525 -1.93556 0
M  V30 7039 H 681.103 0.869933 -2.99731 0
M  V30 7040 N 681.404 1.57128 0.121893 0
M  V30 7041 C 682.815 1.73902 0.679348 0
M  V30 7042 C 683.166 0.770135 1.80453 0
M  V30 7043 O 682.291 -0.0576083 2.16323 0
M  V30 7044 C 682.886 3.15328 1.2391 0
M  V30 7045 C 681.445 3.33618 1.74288 0
M  V30 7046 C 680.592 2.6978 0.641414 0
M  V30 7047 H 683.543 1.58359 -0.104 0
M  V30 7048 H 683.564 3.16718 2.10879 0
M  V30 7049 H 683.076 3.85821 0.419957 0
M  V30 7050 H 681.177 2.68162 2.58689 0
M  V30 7051 H 681.29 4.4176 1.85432 0
M  V30 7052 H 679.654 2.30935 1.0743 0
M  V30 7053 H 680.437 3.42895 -0.166707 0
M  V30 7054 N 682.882 -0.391992 1.52647 0
M  V30 7055 C 684.13 -1.13507 1.67214 0
M  V30 7056 C 684.451 -1.90575 0.41304 0
M  V30 7057 O 683.721 -1.87348 -0.572498 0
M  V30 7058 H 682.301 -0.422013 0.616372 0
M  V30 7059 H 684.963 -0.44502 1.89751 0
M  V30 7060 H 684.059 -1.83964 2.52118 0
M  V30 7061 N 684.36 -1.4356 -0.65026 0
M  V30 7062 C 685.307 -1.48948 -1.76304 0
M  V30 7063 C 686.277 -0.338919 -1.62605 0
M  V30 7064 O 687.462 -0.54649 -1.82806 0
M  V30 7065 C 684.602 -1.42131 -3.14472 0
M  V30 7066 C 683.715 -2.67415 -3.39284 0
M  V30 7067 C 682.85 -2.52565 -4.67316 0
M  V30 7068 C 681.889 -3.73103 -4.85243 0
M  V30 7069 N 681.026 -3.57046 -6.04535 0
M  V30 7070 H 685.866 -2.44032 -1.71034 0
M  V30 7071 H 683.403 -1.21131 -0.834601 0
M  V30 7072 H 685.361 -1.36172 -3.94351 0
M  V30 7073 H 683.991 -0.506273 -3.18805 0
M  V30 7074 H 683.043 -2.8364 -2.53481 0
M  V30 7075 H 684.355 -3.56943 -3.48415 0
M  V30 7076 H 683.509 -2.44331 -5.55326 0
M  V30 7077 H 682.248 -1.60566 -4.60511 0
M  V30 7078 H 681.253 -3.81743 -3.95667 0
M  V30 7079 H 682.478 -4.66115 -4.93876 0
M  V30 7080 H 680.424 -2.67783 -5.98856 0
M  V30 7081 H 680.341 -4.40178 -6.14638 0
M  V30 7082 H 681.609 -3.52669 -6.95158 0
M  V30 7083 N 685.838 0.888903 -1.30139 0
M  V30 7084 C 687.249 1.45578 -1.16893 0
M  V30 7085 C 687.6 1.94825 0.231866 0
M  V30 7086 O 686.725 1.84661 1.12824 0
M  V30 7087 C 687.32 2.646 -2.11595 0
M  V30 7088 C 685.879 3.17389 -2.02339 0
M  V30 7089 C 685.026 1.90081 -2.01902 0
M  V30 7090 H 687.977 0.69921 -1.42467 0
M  V30 7091 H 687.998 3.40687 -1.69449 0
M  V30 7092 H 687.51 2.28726 -3.13538 0
M  V30 7093 H 685.611 3.5793 -1.03523 0
M  V30 7094 H 685.724 3.80955 -2.90534 0
M  V30 7095 H 684.088 2.08246 -1.46648 0
M  V30 7096 H 684.871 1.5647 -3.05568 0
M  V30 7097 N 687.317 1.12792 1.10072 0
M  V30 7098 C 688.249 0.757003 2.16338 0
M  V30 7099 C 689.262 -0.218144 1.61332 0
M  V30 7100 O 690.451 0.0010727 1.785 0
M  V30 7101 C 687.551 0.100303 3.38752 0
M  V30 7102 C 686.724 1.10586 4.2319 0
M  V30 7103 C 685.783 0.47609 5.24042 0
M  V30 7104 O 684.809 1.13418 5.57786 0
M  V30 7105 N 686.011 -0.754823 5.75572 0
M  V30 7106 H 688.776 1.6714 2.48766 0
M  V30 7107 H 686.337 1.02003 1.25726 0
M  V30 7108 H 688.329 -0.333092 4.03327 0
M  V30 7109 H 686.899 -0.716915 3.04268 0
M  V30 7110 H 686.119 1.71677 3.54853 0
M  V30 7111 H 687.407 1.78571 4.76435 0
M  V30 7112 H 686.805 -1.30838 5.50362 0
M  V30 7113 H 685.362 -1.13098 6.41913 0
M  V30 7114 N 688.795 -1.27931 0.920396 0
M  V30 7115 C 690.02 -1.99343 0.572478 0
M  V30 7116 C 690.445 -1.68267 -0.840696 0
M  V30 7117 O 689.803 -0.918805 -1.56294 0
M  V30 7118 C 689.851 -3.51698 0.796284 0
M  V30 7119 O 688.955 -4.12157 -0.141602 0
M  V30 7120 H 688.296 -0.626065 0.221221 0
M  V30 7121 H 690.826 -1.62921 1.23765 0
M  V30 7122 H 690.836 -4.01793 0.708984 0
M  V30 7123 H 689.511 -3.73649 1.82644 0
M  V30 7124 H 688.088 -3.729 -0.005007 0
M  V30 7125 N 690.273 -0.685099 -1.4193 0
M  V30 7126 C 691.521 -0.21124 -2.00993 0
M  V30 7127 C 691.842 1.18985 -1.54491 0
M  V30 7128 O 691.112 1.8009 -0.771 0
M  V30 7129 H 689.692 -0.0751059 -0.743215 0
M  V30 7130 H 692.354 -0.883915 -1.73704 0
M  V30 7131 H 691.45 -0.220513 -3.1132 0
M  V30 7132 N 691.751 1.51645 -0.429126 0
M  V30 7133 C 692.979 2.06433 0.138994 0
M  V30 7134 C 693.394 1.29735 1.37165 0
M  V30 7135 O 692.751 0.354638 1.79021 0
M  V30 7136 C 692.802 3.58439 0.469452 0
M  V30 7137 O 692.523 4.32238 -0.714273 0
M  V30 7138 C 694.024 4.29712 1.08914 0
M  V30 7139 H 691.244 0.6709 0.0115608 0
M  V30 7140 H 693.788 1.9532 -0.605843 0
M  V30 7141 H 691.943 3.69494 1.16419 0
M  V30 7142 H 692.357 5.22704 -0.433633 0
M  V30 7143 H 693.831 5.37182 1.27042 0
M  V30 7144 H 694.308 3.87473 2.06788 0
M  V30 7145 H 694.914 4.2308 0.434028 0
M  V30 7146 N 693.229 0.160201 1.56784 0
M  V30 7147 C 694.477 -0.486625 1.96154 0
M  V30 7148 C 694.798 -1.64525 1.04673 0
M  V30 7149 O 694.068 -1.95586 0.110864 0
M  V30 7150 H 692.648 -0.182764 0.724297 0
M  V30 7151 H 695.31 0.238787 1.93432 0
M  V30 7152 H 694.406 -0.854025 3.00188 0
M  V30 7153 N 694.707 -1.5719 -0.113559 0
M  V30 7154 C 695.953 -1.86289 -0.816583 0
M  V30 7155 C 696.308 -0.748672 -1.77236 0
M  V30 7156 O 695.601 0.250889 -1.8995 0
M  V30 7157 C 695.795 -3.19593 -1.59984 0
M  V30 7158 C 695.624 -4.43876 -0.721414 0
M  V30 7159 C 694.394 -5.03913 -0.374172 0
M  V30 7160 C 696.592 -5.14287 -0.0366045 0
M  V30 7161 N 694.574 -6.11741 0.514352 0
M  V30 7162 C 695.945 -6.15913 0.710706 0
M  V30 7163 C 698 -4.97885 0.039247 0
M  V30 7164 C 696.703 -7.0291 1.52675 0
M  V30 7165 C 698.729 -5.85373 0.842135 0
M  V30 7166 C 698.091 -6.86506 1.57762 0
M  V30 7167 H 694.19 -0.731839 -0.275564 0
M  V30 7168 H 696.774 -1.94535 -0.080033 0
M  V30 7169 H 694.945 -3.12432 -2.30739 0
M  V30 7170 H 696.677 -3.3648 -2.24862 0
M  V30 7171 H 693.432 -4.68131 -0.717653 0
M  V30 7172 H 693.856 -6.70293 0.950623 0
M  V30 7173 H 698.498 -4.19651 -0.51503 0
M  V30 7174 H 696.216 -7.80547 2.09217 0
M  V30 7175 H 699.802 -5.74746 0.903256 0
M  V30 7176 H 698.682 -7.53032 2.1889 0
M  V30 7177 N 696.185 0.383891 -1.52853 0
M  V30 7178 C 697.133 1.48965 -1.7864 0
M  V30 7179 C 698.127 1.56242 -0.654577 0
M  V30 7180 O 699.333 1.59347 -0.83716 0
M  V30 7181 H 695.708 0.495892 -0.565328 0
M  V30 7182 H 697.679 1.24411 -2.71228 0
M  V30 7183 C 696.428 2.86036 -1.97683 0
M  V30 7184 H 695.751 2.81188 -2.84206 0
M  V30 7185 H 697.191 3.62632 -2.19713 0
M  V30 7186 C 695.65 3.28428 -0.750776 0
M  V30 7187 O 696.18 4.0164 0.0693491 0
M  V30 7188 N 694.386 2.84765 -0.579427 0
M  V30 7189 H 693.933 2.25353 -1.24795 0
M  V30 7190 H 693.891 3.13486 0.239544 0
M  V30 7191 N 697.663 1.43903 0.642637 0
M  V30 7192 C 698.891 1.4954 1.42988 0
M  V30 7193 C 699.306 0.116588 1.8844 0
M  V30 7194 O 698.663 -0.875285 1.60141 0
M  V30 7195 C 698.714 2.45031 2.65785 0
M  V30 7196 O 698.435 3.77551 2.22232 0
M  V30 7197 C 699.936 2.60017 3.59035 0
M  V30 7198 H 697.156 0.507544 0.438907 0
M  V30 7199 H 699.7 1.88752 0.786942 0
M  V30 7200 H 697.855 2.08985 3.26196 0
M  V30 7201 H 698.269 4.29001 3.01759 0
M  V30 7202 H 699.743 3.30887 4.41835 0
M  V30 7203 H 700.22 1.64861 4.07084 0
M  V30 7204 H 700.826 2.96918 3.045 0
M  V30 7205 N 699.141 -0.881989 1.30609 0
M  V30 7206 C 700.104 -1.96957 1.1722 0
M  V30 7207 C 701.104 -1.60472 0.102598 0
M  V30 7208 O 702.294 -1.70628 0.350943 0
M  V30 7209 C 699.426 -3.31463 0.796572 0
M  V30 7210 H 700.619 -2.10262 2.13846 0
M  V30 7211 H 698.172 -1.06877 1.14048 0
M  V30 7212 H 698.907 -3.23859 -0.169053 0
M  V30 7213 H 698.692 -3.59314 1.56959 0
M  V30 7214 H 700.182 -4.11233 0.72645 0
M  V30 7215 N 700.619 -1.13374 -1.09472 0
M  V30 7216 C 701.566 -0.810682 -2.16094 0
M  V30 7217 C 702.536 0.227003 -1.64541 0
M  V30 7218 O 703.721 0.0993538 -1.90541 0
M  V30 7219 C 700.861 -0.282336 -3.43943 0
M  V30 7220 C 699.974 -1.37902 -4.09398 0
M  V30 7221 C 699.109 -0.809066 -5.25002 0
M  V30 7222 C 698.148 -1.88419 -5.82379 0
M  V30 7223 N 697.285 -1.33221 -6.89345 0
M  V30 7224 H 702.125 -1.72397 -2.43071 0
M  V30 7225 H 699.662 -0.860564 -1.19301 0
M  V30 7226 H 701.62 0.0421189 -4.17179 0
M  V30 7227 H 700.25 0.594083 -3.17286 0
M  V30 7228 H 699.302 -1.82008 -3.34032 0
M  V30 7229 H 700.614 -2.19161 -4.48074 0
M  V30 7230 H 699.768 -0.435867 -6.05132 0
M  V30 7231 H 698.507 0.0346058 -4.87688 0
M  V30 7232 H 697.512 -2.26646 -5.00911 0
M  V30 7233 H 698.737 -2.73125 -6.21755 0
M  V30 7234 H 696.683 -0.510535 -6.5401 0
M  V30 7235 H 696.6 -2.08129 -7.26786 0
M  V30 7236 H 697.868 -0.986565 -7.73232 0
M  V30 7237 N 702.098 1.27442 -0.927168 0
M  V30 7238 C 703.345 1.94391 -0.567324 0
M  V30 7239 C 703.673 1.72875 0.891321 0
M  V30 7240 O 702.928 1.05071 1.65102 0
M  V30 7241 C 703.227 3.47413 -0.838994 0
M  V30 7242 C 702.893 3.89049 -2.2793 0
M  V30 7243 C 701.555 4.00127 -2.67305 0
M  V30 7244 C 703.907 4.10154 -3.21595 0
M  V30 7245 C 701.235 4.29697 -3.99471 0
M  V30 7246 C 703.587 4.41208 -4.53341 0
M  V30 7247 C 702.251 4.50499 -4.92551 0
M  V30 7248 H 701.521 0.711325 -0.207598 0
M  V30 7249 H 704.168 1.51523 -1.17103 0
M  V30 7250 H 702.473 3.91503 -0.152609 0
M  V30 7251 H 704.17 3.97354 -0.53955 0
M  V30 7252 H 700.76 3.80962 -1.96381 0
M  V30 7253 H 704.944 4.01036 -2.92377 0
M  V30 7254 H 700.2 4.35099 -4.29533 0
M  V30 7255 H 704.374 4.56486 -5.25922 0
M  V30 7256 H 702.001 4.73167 -5.94994 0
M  V30 7257 N 703.576 0.692616 1.41565 0
M  V30 7258 C 704.823 0.222335 2.01276 0
M  V30 7259 C 705.151 -1.17706 1.5484 0
M  V30 7260 O 704.406 -1.80795 0.749118 0
M  V30 7261 C 704.705 0.225073 3.56691 0
M  V30 7262 C 704.371 1.57158 4.22625 0
M  V30 7263 C 703.033 1.94022 4.40351 0
M  V30 7264 C 705.385 2.45758 4.59622 0
M  V30 7265 C 702.713 3.19076 4.92349 0
M  V30 7266 C 705.065 3.70141 5.13009 0
M  V30 7267 C 703.729 4.07152 5.28946 0
M  V30 7268 H 702.999 0.0813581 0.73652 0
M  V30 7269 H 705.646 0.891123 1.69503 0
M  V30 7270 H 703.951 -0.527259 3.88236 0
M  V30 7271 H 705.648 -0.156283 4.00695 0
M  V30 7272 H 702.238 1.27486 4.09201 0
M  V30 7273 H 706.422 2.18558 4.45585 0
M  V30 7274 H 701.678 3.4775 5.02872 0
M  V30 7275 H 705.852 4.38983 5.40617 0
M  V30 7276 H 703.479 5.04125 5.69001 0
M  V30 7277 N 705.054 -1.51416 0.437162 0
M  V30 7278 C 706.002 -2.29328 -0.388765 0
M  V30 7279 C 706.996 -1.35171 -1.02104 0
M  V30 7280 O 708.202 -1.52513 -0.956024 0
M  V30 7281 H 704.577 -0.738048 -0.144183 0
M  V30 7282 H 706.548 -2.96995 0.289212 0
M  V30 7283 C 705.297 -3.14741 -1.47761 0
M  V30 7284 H 704.62 -3.8708 -1.00045 0
M  V30 7285 H 706.06 -3.72313 -2.02877 0
M  V30 7286 C 704.519 -2.30105 -2.46076 0
M  V30 7287 O 705.049 -1.96055 -3.50607 0
M  V30 7288 N 703.255 -1.93331 -2.1696 0
M  V30 7289 H 702.802 -2.2122 -1.31983 0
M  V30 7290 H 702.76 -1.36999 -2.82982 0
M  V30 7291 N 706.532 -0.168513 -1.56696 0
M  V30 7292 C 707.495 0.748928 -2.16619 0
M  V30 7293 C 708.495 1.16007 -1.11351 0
M  V30 7294 O 709.685 1.07748 -1.3688 0
M  V30 7295 C 706.817 2.01904 -2.74677 0
M  V30 7296 H 708.01 0.227317 -2.99037 0
M  V30 7297 H 705.563 0.0810372 -1.5609 0
M  V30 7298 H 706.298 2.58381 -1.95985 0
M  V30 7299 H 706.083 1.73323 -3.51712 0
M  V30 7300 H 707.573 2.67383 -3.20774 0
M  V30 7301 N 708.01 1.57248 0.105221 0
M  V30 7302 C 708.92 2.04653 1.14693 0
M  V30 7303 C 709.936 0.969488 1.44489 0
M  V30 7304 O 711.112 1.28196 1.55331 0
M  V30 7305 C 708.177 2.45297 2.45011 0
M  V30 7306 C 707.238 3.67148 2.22489 0
M  V30 7307 C 706.471 4.05844 3.46592 0
M  V30 7308 O 706.694 3.44736 4.54437 0
M  V30 7309 O 705.628 4.98862 3.36779 0
M  V30 7310 H 709.454 2.93663 0.774336 0
M  V30 7311 H 707.039 1.45998 0.31701 0
M  V30 7312 H 708.921 2.72112 3.21766 0
M  V30 7313 H 707.596 1.59429 2.81717 0
M  V30 7314 H 706.503 3.45463 1.43547 0
M  V30 7315 H 707.836 4.53764 1.9068 0
M  V30 7316 N 709.488 -0.375779 1.53054 0
M  V30 7317 C 710.899 -0.95309 1.6054 0
M  V30 7318 C 711.25 -1.90575 0.466446 0
M  V30 7319 O 710.375 -2.12507 -0.408609 0
M  V30 7320 C 710.97 -1.73537 2.90982 0
M  V30 7321 C 709.529 -2.26218 3.00836 0
M  V30 7322 C 708.676 -1.07157 2.55759 0
M  V30 7323 H 711.627 -0.154895 1.57942 0
M  V30 7324 H 711.648 -2.59574 2.78211 0
M  V30 7325 H 711.16 -1.04176 3.73857 0
M  V30 7326 H 709.261 -2.98852 2.22527 0
M  V30 7327 H 709.374 -2.54799 4.05727 0
M  V30 7328 H 707.738 -1.43553 2.10391 0
M  V30 7329 H 708.521 -0.393099 3.41042 0
M  V30 7330 N 710.966 -1.44241 -0.634997 0
M  V30 7331 C 712.377 -1.41622 -1.21655 0
M  V30 7332 C 712.728 -0.129584 -1.95772 0
M  V30 7333 O 711.853 0.770225 -2.02229 0
M  V30 7334 C 712.448 -2.56557 -2.21278 0
M  V30 7335 C 711.007 -2.57145 -2.7487 0
M  V30 7336 C 710.154 -2.33354 -1.49804 0
M  V30 7337 H 713.105 -1.52878 -0.425905 0
M  V30 7338 H 713.126 -2.29089 -3.03807 0
M  V30 7339 H 712.638 -3.50186 -1.67306 0
M  V30 7340 H 710.739 -1.67447 -3.32855 0
M  V30 7341 H 710.852 -3.55507 -3.21172 0
M  V30 7342 H 709.216 -1.82372 -1.77799 0
M  V30 7343 H 709.999 -3.29092 -0.977402 0
M  V30 7344 N 712.444 0.87505 -1.31075 0
M  V30 7345 C 713.391 1.98178 -1.18296 0
M  V30 7346 C 714.361 1.65952 -0.0699923 0
M  V30 7347 O 715.546 1.8926 -0.241951 0
M  V30 7348 C 712.686 3.33399 -0.891024 0
M  V30 7349 C 711.799 3.78253 -2.08684 0
M  V30 7350 C 710.934 5.02166 -1.73212 0
M  V30 7351 C 709.973 5.39455 -2.89231 0
M  V30 7352 N 709.11 6.54549 -2.53989 0
M  V30 7353 H 713.95 2.0844 -2.12971 0
M  V30 7354 H 711.487 1.02047 -1.05948 0
M  V30 7355 H 713.445 4.11246 -0.702338 0
M  V30 7356 H 712.075 3.22794 0.0188799 0
M  V30 7357 H 711.127 2.9623 -2.38646 0
M  V30 7358 H 712.439 4.01821 -2.95536 0
M  V30 7359 H 711.593 5.87666 -1.50777 0
M  V30 7360 H 710.332 4.80491 -0.83544 0
M  V30 7361 H 709.337 4.52477 -3.12321 0
M  V30 7362 H 710.562 5.63098 -3.79601 0
M  V30 7363 H 708.508 6.3443 -1.66838 0
M  V30 7364 H 708.425 6.78035 -3.34372 0
M  V30 7365 H 709.693 7.43254 -2.34934 0
M  V30 7366 N 713.922 1.13953 1.08869 0
M  V30 7367 C 715.147 0.928559 1.85452 0
M  V30 7368 C 715.572 -0.517642 1.80837 0
M  V30 7369 O 714.93 -1.36779 1.19001 0
M  V30 7370 C 714.978 1.42814 3.31114 0
M  V30 7371 O 714.082 0.617129 4.07756 0
M  V30 7372 H 713.423 0.33235 0.574839 0
M  V30 7373 H 715.953 1.5156 1.37443 0
M  V30 7374 H 715.963 1.43425 3.8196 0
M  V30 7375 H 714.638 2.48109 3.33788 0
M  V30 7376 H 713.215 0.679365 3.66659 0
M  V30 7377 N 715.4 -1.26948 0.933913 0
M  V30 7378 C 716.347 -2.26635 0.436484 0
M  V30 7379 C 717.317 -1.58397 -0.499953 0
M  V30 7380 O 718.502 -1.86171 -0.417753 0
M  V30 7381 C 715.642 -3.43803 -0.298951 0
M  V30 7382 C 714.755 -4.26736 0.672316 0
M  V30 7383 C 713.89 -5.31134 -0.0835872 0
M  V30 7384 C 712.929 -6.05742 0.879979 0
M  V30 7385 N 712.066 -7.01926 0.156301 0
M  V30 7386 H 716.906 -2.68558 1.29154 0
M  V30 7387 H 714.443 -1.32052 0.648118 0
M  V30 7388 H 716.401 -4.10554 -0.741723 0
M  V30 7389 H 715.031 -3.02814 -1.1182 0
M  V30 7390 H 714.083 -3.59842 1.23361 0
M  V30 7391 H 715.395 -4.78502 1.40846 0
M  V30 7392 H 714.549 -6.03863 -0.585984 0
M  V30 7393 H 713.288 -4.80188 -0.852661 0
M  V30 7394 H 712.293 -5.31846 1.39357 0
M  V30 7395 H 713.518 -6.58777 1.64894 0
M  V30 7396 H 711.464 -6.53301 -0.594413 0
M  V30 7397 H 711.381 -7.51409 0.831906 0
M  V30 7398 H 712.649 -7.78821 -0.325239 0
M  V30 7399 N 716.879 -0.700114 -1.41195 0
M  V30 7400 C 718.29 -0.307249 -1.84154 0
M  V30 7401 C 718.641 1.15539 -1.58572 0
M  V30 7402 O 717.766 1.88744 -1.05852 0
M  V30 7403 C 718.361 -0.550872 -3.34292 0
M  V30 7404 C 716.92 -0.211877 -3.75803 0
M  V30 7405 C 716.067 -0.830915 -2.64558 0
M  V30 7406 H 719.018 -0.900431 -1.30683 0
M  V30 7407 H 719.039 0.188954 -3.80031 0
M  V30 7408 H 718.551 -1.61548 -3.5288 0
M  V30 7409 H 716.652 0.848283 -3.62815 0
M  V30 7410 H 716.765 -0.67007 -4.74391 0
M  V30 7411 H 715.129 -0.260155 -2.53368 0
M  V30 7412 H 715.912 -1.89948 -2.85963 0
M  V30 7413 N 718.357 1.51182 -0.445186 0
M  V30 7414 C 719.604 2.02152 0.118645 0
M  V30 7415 C 719.932 1.32888 1.42025 0
M  V30 7416 O 719.187 0.435041 1.90803 0
M  V30 7417 C 719.486 3.55408 0.376797 0
M  V30 7418 C 719.152 4.43008 -0.839945 0
M  V30 7419 C 717.814 4.66669 -1.17361 0
M  V30 7420 C 720.166 4.9435 -1.65127 0
M  V30 7421 C 717.494 5.38919 -2.31913 0
M  V30 7422 C 719.846 5.67857 -2.78786 0
M  V30 7423 C 718.51 5.89779 -3.12597 0
M  V30 7424 H 717.78 0.739727 0.0434152 0
M  V30 7425 H 720.427 1.82055 -0.593984 0
M  V30 7426 H 718.732 3.73879 1.1714 0
M  V30 7427 H 720.429 3.92388 0.826602 0
M  V30 7428 H 717.019 4.24793 -0.569958 0
M  V30 7429 H 721.203 4.75947 -1.4067 0
M  V30 7430 H 716.459 5.54105 -2.58413 0
M  V30 7431 H 720.633 6.06628 -3.42017 0
M  V30 7432 H 718.26 6.45542 -4.01471 0
M  V30 7433 N 719.835 0.176821 1.56605 0
M  V30 7434 C 721.083 -0.465793 1.96659 0
M  V30 7435 C 721.404 -1.63406 1.06412 0
M  V30 7436 O 720.674 -1.95457 0.131603 0
M  V30 7437 H 719.254 -0.175072 0.726195 0
M  V30 7438 H 721.916 0.25929 1.93168 0
M  V30 7439 H 721.012 -0.822138 3.01077 0
M  V30 7440 N 721.313 -1.57302 -0.09688 0
M  V30 7441 C 722.729 -1.53094 -0.451041 0
M  V30 7442 C 722.929 -0.893265 -1.80618 0
M  V30 7443 O 721.985 -0.485013 -2.47798 0
M  V30 7444 C 723.298 -2.9782 -0.415172 0
M  V30 7445 C 724.846 -3.09026 -0.497155 0
M  V30 7446 C 725.321 -4.55356 -0.491452 0
M  V30 7447 N 726.812 -4.59896 -0.552258 0
M  V30 7448 C 727.547 -5.70563 -0.569654 0
M  V30 7449 N 727.043 -6.90666 -0.543365 0
M  V30 7450 N 728.836 -5.58733 -0.614331 0
M  V30 7451 H 720.987 -1.97131 0.790771 0
M  V30 7452 H 723.25 -0.901211 0.294147 0
M  V30 7453 H 722.956 -3.47933 0.513362 0
M  V30 7454 H 722.83 -3.56416 -1.23481 0
M  V30 7455 H 725.217 -2.58902 -1.41611 0
M  V30 7456 H 725.298 -2.53386 0.35059 0
M  V30 7457 H 724.942 -5.06131 0.423549 0
M  V30 7458 H 724.872 -5.08832 -1.35639 0
M  V30 7459 H 727.363 -3.73456 -0.577842 0
M  V30 7460 H 727.676 -7.70769 -0.559873 0
M  V30 7461 H 726.021 -6.93123 -0.510441 0
M  V30 7462 H 729.212 -4.63809 -0.632387 0
M  V30 7463 H 729.385 -6.44984 -0.62442 0
M  V30 7464 N 722.791 0.367657 -1.53252 0
M  V30 7465 C 723.721 1.45632 -1.8252 0
M  V30 7466 C 724.702 1.55979 -0.678568 0
M  V30 7467 O 725.887 1.70581 -0.928217 0
M  V30 7468 C 723.017 2.82994 -2.01325 0
M  V30 7469 C 721.971 2.87473 -3.17086 0
M  V30 7470 C 721.297 4.2749 -3.21179 0
M  V30 7471 C 722.597 2.55182 -4.55719 0
M  V30 7472 H 724.291 1.21387 -2.73689 0
M  V30 7473 H 721.837 0.58251 -1.31692 0
M  V30 7474 H 723.79 3.59179 -2.20383 0
M  V30 7475 H 722.514 3.08622 -1.06864 0
M  V30 7476 H 721.173 2.13739 -2.97844 0
M  V30 7477 H 720.821 4.5019 -2.24361 0
M  V30 7478 H 720.521 4.31403 -3.98955 0
M  V30 7479 H 722.045 5.0555 -3.42419 0
M  V30 7480 H 723.459 3.21081 -4.74953 0
M  V30 7481 H 721.856 2.70414 -5.3572 0
M  V30 7482 H 722.926 1.5044 -4.60973 0
M  V30 7483 N 724.269 1.44576 0.627338 0
M  V30 7484 C 725.199 1.54562 1.75022 0
M  V30 7485 C 726.18 0.398378 1.65369 0
M  V30 7486 O 727.365 0.61899 1.84071 0
M  V30 7487 C 724.495 1.49309 3.13567 0
M  V30 7488 C 723.449 2.62549 3.38012 0
M  V30 7489 C 722.775 2.42348 4.76625 0
M  V30 7490 C 724.075 4.04678 3.30202 0
M  V30 7491 H 725.769 2.4855 1.66922 0
M  V30 7492 H 723.315 1.19624 0.801636 0
M  V30 7493 H 725.268 1.54895 3.919 0
M  V30 7494 H 723.992 0.518392 3.2246 0
M  V30 7495 H 722.651 2.56358 2.62061 0
M  V30 7496 H 722.299 1.43062 4.82226 0
M  V30 7497 H 721.999 3.18273 4.93939 0
M  V30 7498 H 723.523 2.49758 5.57183 0
M  V30 7499 H 724.937 4.12217 3.98435 0
M  V30 7500 H 723.334 4.80836 3.5905 0
M  V30 7501 H 724.404 4.2798 2.27949 0
M  V30 7502 N 725.747 -0.868086 1.31537 0
M  V30 7503 C 726.71 -1.95703 1.19302 0
M  V30 7504 C 727.71 -1.60355 0.119612 0
M  V30 7505 O 728.9 -1.70247 0.36902 0
M  V30 7506 C 726.032 -3.30599 0.831684 0
M  V30 7507 H 727.225 -2.07982 2.16064 0
M  V30 7508 H 724.778 -1.05661 1.15176 0
M  V30 7509 H 725.513 -3.2402 -0.134694 0
M  V30 7510 H 725.298 -3.57629 1.60761 0
M  V30 7511 H 726.788 -4.10439 0.770026 0
M  V30 7512 N 727.225 -1.14528 -1.08264 0
M  V30 7513 C 728.471 -0.925721 -1.81113 0
M  V30 7514 C 728.826 0.54185 -1.84612 0
M  V30 7515 O 728.119 1.39628 -1.31205 0
M  V30 7516 C 728.313 -1.46226 -3.26117 0
M  V30 7517 C 728.142 -2.98047 -3.36746 0
M  V30 7518 C 726.912 -3.66508 -3.4785 0
M  V30 7519 C 729.11 -3.95903 -3.28277 0
M  V30 7520 N 727.092 -5.06227 -3.47285 0
M  V30 7521 C 728.463 -5.21883 -3.34721 0
M  V30 7522 C 730.518 -3.88002 -3.12024 0
M  V30 7523 C 729.221 -6.40886 -3.26585 0
M  V30 7524 C 731.247 -5.06553 -3.05219 0
M  V30 7525 C 730.609 -6.31403 -3.12266 0
M  V30 7526 H 726.708 -0.392294 -0.676483 0
M  V30 7527 H 729.292 -1.45567 -1.293 0
M  V30 7528 H 727.463 -0.959076 -3.76373 0
M  V30 7529 H 729.195 -1.18247 -3.8704 0
M  V30 7530 H 725.95 -3.17067 -3.51804 0
M  V30 7531 H 726.374 -5.79172 -3.50555 0
M  V30 7532 H 731.016 -2.9235 -3.05436 0
M  V30 7533 H 728.734 -7.36781 -3.31934 0
M  V30 7534 H 732.32 -5.02191 -2.93761 0
M  V30 7535 H 731.2 -7.21596 -3.07032 0
M  V30 7536 N 728.703 1.26451 -0.940633 0
M  V30 7537 C 729.98 1.88947 -0.505811 0
M  V30 7538 C 730.36 1.85011 1.01657 0
M  V30 7539 O 729.708 1.30406 1.87634 0
M  V30 7540 C 729.918 3.32304 -1.06654 0
M  V30 7541 C 731.266 4.09153 -1.13486 0
M  V30 7542 O 732.29 3.41371 -1.01708 0
M  V30 7543 O 731.149 5.30369 -1.31797 0
M  V30 7544 H 728.243 0.810422 -0.164759 0
M  V30 7545 H 730.789 1.34625 -1.03316 0
M  V30 7546 H 729.561 3.29527 -2.11015 0
M  V30 7547 H 729.184 3.94164 -0.521603 0
M  V30 7548 N 730.181 0.707592 1.40822 0
M  V30 7549 C 731.592 0.317011 1.83989 0
M  V30 7550 C 731.943 -1.14697 1.59182 0
M  V30 7551 O 731.068 -1.8818 1.06852 0
M  V30 7552 C 731.663 0.568593 3.33995 0
M  V30 7553 C 730.222 0.231804 3.75686 0
M  V30 7554 C 729.369 0.844933 2.64114 0
M  V30 7555 H 732.32 0.907349 1.30203 0
M  V30 7556 H 732.341 -0.168798 3.80125 0
M  V30 7557 H 731.853 1.63417 3.52018 0
M  V30 7558 H 729.954 -0.82903 3.6326 0
M  V30 7559 H 730.067 0.695219 4.74029 0
M  V30 7560 H 728.431 0.273588 2.53226 0
M  V30 7561 H 729.214 1.91462 2.84951 0
M  V30 7562 N 731.66 -1.50943 0.453197 0
M  V30 7563 C 732.906 -2.02512 -0.108082 0
M  V30 7564 C 733.239 -1.33574 -1.40967 0
M  V30 7565 O 732.514 -0.455671 -1.89087 0
M  V30 7566 C 732.797 -3.58759 -0.310453 0
M  V30 7567 C 732.65 -4.38293 1.0109 0
M  V30 7568 C 733.969 -4.26816 -1.07313 0
M  V30 7569 H 731.088 -0.73603 -0.0378064 0
M  V30 7570 H 733.73 -1.80433 0.595295 0
M  V30 7571 H 731.88 -3.77702 -0.909582 0
M  V30 7572 H 733.552 -4.30964 1.64523 0
M  V30 7573 H 731.795 -4.02745 1.61179 0
M  V30 7574 H 732.466 -5.45828 0.82315 0
M  V30 7575 H 734.942 -4.1224 -0.565473 0
M  V30 7576 H 733.818 -5.35989 -1.1835 0
M  V30 7577 H 734.079 -3.88757 -2.10525 0
M  V30 7578 N 733.138 -0.185124 -1.56509 0
M  V30 7579 C 734.101 0.72591 -2.17401 0
M  V30 7580 C 735.101 1.14819 -1.12575 0
M  V30 7581 O 736.291 1.0629 -1.38015 0
M  V30 7582 C 733.423 1.98979 -2.76803 0
M  V30 7583 H 734.616 0.195588 -2.99262 0
M  V30 7584 H 732.169 0.0644772 -1.56167 0
M  V30 7585 H 732.904 2.56287 -1.98714 0
M  V30 7586 H 732.689 1.69583 -3.53531 0
M  V30 7587 H 734.179 2.63966 -3.23592 0
M  V30 7588 N 734.616 1.57351 0.0885366 0
M  V30 7589 C 735.548 1.99221 1.13329 0
M  V30 7590 C 736.561 0.895705 1.35945 0
M  V30 7591 O 737.75 1.17376 1.34481 0
M  V30 7592 C 734.85 2.3016 2.48756 0
M  V30 7593 C 734.023 3.61444 2.46327 0
M  V30 7594 C 733.082 3.80244 3.63732 0
M  V30 7595 O 732.108 4.52024 3.45924 0
M  V30 7596 N 733.31 3.2132 4.8346 0
M  V30 7597 H 736.075 2.89456 0.776862 0
M  V30 7598 H 733.636 1.59505 0.277428 0
M  V30 7599 H 735.628 2.39925 3.25911 0
M  V30 7600 H 734.198 1.459 2.76464 0
M  V30 7601 H 733.418 3.62588 1.54673 0
M  V30 7602 H 734.706 4.47678 2.41789 0
M  V30 7603 H 734.104 2.63028 5.00832 0
M  V30 7604 H 732.661 3.3656 5.58185 0
M  V30 7605 N 736.094 -0.359525 1.53444 0
M  V30 7606 C 737.041 -1.44073 1.8031 0
M  V30 7607 C 738.011 -1.52946 0.647811 0
M  V30 7608 O 739.196 -1.68739 0.890614 0
M  V30 7609 C 736.336 -2.80941 2.00416 0
M  V30 7610 C 735.449 -2.80986 3.28132 0
M  V30 7611 C 734.584 -4.09468 3.38393 0
M  V30 7612 C 733.623 -4.03679 4.60119 0
M  V30 7613 N 732.76 -5.23821 4.675 0
M  V30 7614 H 737.6 -1.20464 2.72566 0
M  V30 7615 H 735.137 -0.583859 1.35017 0
M  V30 7616 H 737.095 -3.60459 2.1006 0
M  V30 7617 H 735.725 -3.02936 1.11489 0
M  V30 7618 H 734.777 -1.93666 3.27411 0
M  V30 7619 H 736.089 -2.72583 4.17732 0
M  V30 7620 H 735.243 -4.97404 3.47382 0
M  V30 7621 H 733.982 -4.20632 2.4682 0
M  V30 7622 H 732.987 -3.14129 4.51224 0
M  V30 7623 H 734.212 -3.94112 5.5304 0
M  V30 7624 H 732.158 -5.35559 3.7883 0
M  V30 7625 H 732.075 -5.17611 5.51013 0
M  V30 7626 H 733.343 -6.13572 4.8078 0
M  V30 7627 N 737.572 -1.44907 -0.619662 0
M  V30 7628 C 738.535 -1.52282 -1.71297 0
M  V30 7629 C 739.535 -0.40359 -1.55653 0
M  V30 7630 O 740.725 -0.666638 -1.6094 0
M  V30 7631 C 737.857 -1.40778 -3.10474 0
M  V30 7632 H 739.05 -2.49683 -1.66128 0
M  V30 7633 H 736.603 -1.32168 -0.834339 0
M  V30 7634 H 737.338 -0.445156 -3.2123 0
M  V30 7635 H 737.123 -2.21947 -3.23237 0
M  V30 7636 H 738.613 -1.48946 -3.90135 0
M  V30 7637 N 739.05 0.861098 -1.31996 0
M  V30 7638 C 740.013 1.95068 -1.20338 0
M  V30 7639 C 741.013 1.60289 -0.128114 0
M  V30 7640 O 742.203 1.70048 -0.378044 0
M  V30 7641 C 739.335 3.30153 -0.849205 0
M  V30 7642 H 740.528 2.06833 -2.17164 0
M  V30 7643 H 738.081 1.05049 -1.15734 0
M  V30 7644 H 738.816 3.24087 0.117508 0
M  V30 7645 H 738.601 3.56771 -1.62655 0
M  V30 7646 H 740.091 4.10025 -0.791782 0
M  V30 7647 N 740.528 1.15101 1.07655 0
M  V30 7648 C 741.774 0.935313 1.8062 0
M  V30 7649 C 742.129 -0.532052 1.84897 0
M  V30 7650 O 741.422 -1.3893 1.31943 0
M  V30 7651 C 741.616 1.47954 3.25337 0
M  V30 7652 C 741.445 2.99829 3.35161 0
M  V30 7653 C 740.215 3.68348 3.45902 0
M  V30 7654 C 742.413 3.97638 3.26173 0
M  V30 7655 N 740.395 5.08062 3.44596 0
M  V30 7656 C 741.766 5.23651 3.31949 0
M  V30 7657 C 743.821 3.89651 3.09962 0
M  V30 7658 C 742.524 6.42609 3.23182 0
M  V30 7659 C 744.55 5.08164 3.02528 0
M  V30 7660 C 743.912 6.3305 3.08913 0
M  V30 7661 H 740.011 0.395876 0.674393 0
M  V30 7662 H 742.595 1.4625 1.28526 0
M  V30 7663 H 740.766 0.979022 3.75859 0
M  V30 7664 H 742.498 1.20298 3.86407 0
M  V30 7665 H 739.253 3.18928 3.50117 0
M  V30 7666 H 739.677 5.81023 3.47479 0
M  V30 7667 H 744.319 2.93966 3.03881 0
M  V30 7668 H 742.037 7.38531 3.28022 0
M  V30 7669 H 745.623 5.03742 2.91093 0
M  V30 7670 H 744.503 7.23214 3.03201 0
M  V30 7671 N 742.006 -1.2595 0.947325 0
M  V30 7672 C 743.231 -1.98083 0.614633 0
M  V30 7673 C 743.656 -1.70013 -0.804815 0
M  V30 7674 O 743.014 -0.95175 -1.54309 0
M  V30 7675 C 743.062 -3.4993 0.870706 0
M  V30 7676 O 742.166 -4.12364 -0.0541451 0
M  V30 7677 H 741.507 -0.621232 0.234451 0
M  V30 7678 H 744.037 -1.60259 1.27193 0
M  V30 7679 H 744.047 -4.00198 0.794051 0
M  V30 7680 H 742.722 -3.69691 1.90529 0
M  V30 7681 H 741.299 -3.72826 0.0740917 0
M  V30 7682 N 743.484 -0.715051 -1.40445 0
M  V30 7683 C 744.73 -0.254705 -2.01194 0
M  V30 7684 C 745.063 1.14894 -1.56567 0
M  V30 7685 O 744.338 1.77933 -0.785491 0
M  V30 7686 C 744.621 -0.334148 -3.58546 0
M  V30 7687 C 744.474 -1.77613 -4.13248 0
M  V30 7688 C 745.793 0.294968 -4.3911 0
M  V30 7689 H 742.912 -0.094025 -0.730978 0
M  V30 7690 H 745.554 -0.907449 -1.66929 0
M  V30 7691 H 743.704 0.221609 -3.87867 0
M  V30 7692 H 745.376 -2.38723 -3.94727 0
M  V30 7693 H 743.619 -2.30402 -3.67556 0
M  V30 7694 H 744.29 -1.78311 -5.22407 0
M  V30 7695 H 746.766 -0.178563 -4.15717 0
M  V30 7696 H 745.642 0.208934 -5.48502 0
M  V30 7697 H 745.903 1.37841 -4.20062 0
M  V30 7698 N 744.962 1.50701 -0.461195 0
M  V30 7699 C 745.872 2.32069 0.343661 0
M  V30 7700 C 746.888 1.42016 1.00535 0
M  V30 7701 O 748.064 1.75077 0.995498 0
M  V30 7702 C 745.129 3.16424 1.41692 0
M  V30 7703 C 744.19 4.22286 0.772869 0
M  V30 7704 C 743.423 5.02609 1.79499 0
M  V30 7705 O 743.646 4.83874 3.0203 0
M  V30 7706 O 742.58 5.86047 1.3723 0
M  V30 7707 H 746.406 3.01996 -0.321268 0
M  V30 7708 H 743.991 1.47723 -0.223235 0
M  V30 7709 H 745.873 3.68795 2.03883 0
M  V30 7710 H 744.548 2.49236 2.0655 0
M  V30 7711 H 743.455 3.73931 0.112277 0
M  V30 7712 H 744.788 4.91915 0.167399 0
M  V30 7713 N 746.441 0.193421 1.56409 0
M  V30 7714 C 747.391 -0.74089 2.15627 0
M  V30 7715 C 748.375 -1.17747 1.09656 0
M  V30 7716 O 749.567 -1.13615 1.35723 0
M  V30 7717 C 746.696 -1.96091 2.81786 0
M  V30 7718 C 745.782 -1.54531 3.94944 0
M  V30 7719 N 746.173 -0.840569 4.98767 0
M  V30 7720 C 744.471 -1.83473 4.06514 0
M  V30 7721 C 745.172 -0.632571 5.7825 0
M  V30 7722 N 744.148 -1.18078 5.30621 0
M  V30 7723 H 747.95 -0.193718 2.93261 0
M  V30 7724 H 745.464 -0.00643211 1.62399 0
M  V30 7725 H 747.461 -2.64071 3.22602 0
M  V30 7726 H 746.121 -2.51282 2.05639 0
M  V30 7727 H 747.132 -0.496218 5.15517 0
M  V30 7728 H 743.809 -2.40184 3.41493 0
M  V30 7729 H 745.199 -0.0736433 6.7186 0
M  V30 7730 N 747.919 -1.57396 -0.0801906 0
M  V30 7731 C 749.165 -1.87113 -0.782083 0
M  V30 7732 C 749.498 -0.78458 -1.77646 0
M  V30 7733 O 748.773 0.205993 -1.93406 0
M  V30 7734 C 749.056 -3.27483 -1.49756 0
M  V30 7735 C 748.909 -4.46782 -0.520171 0
M  V30 7736 C 750.228 -3.65965 -2.44454 0
M  V30 7737 H 747.347 -0.680559 -0.282858 0
M  V30 7738 H 749.989 -1.89946 -0.0454139 0
M  V30 7739 H 748.139 -3.25199 -2.12551 0
M  V30 7740 H 749.811 -4.61187 0.101919 0
M  V30 7741 H 748.054 -4.33485 0.165219 0
M  V30 7742 H 748.725 -5.41761 -1.05824 0
M  V30 7743 H 751.201 -3.69289 -1.91742 0
M  V30 7744 H 750.077 -4.65086 -2.91524 0
M  V30 7745 H 750.338 -2.95446 -3.28883 0
M  V30 7746 N 749.397 0.351382 -1.53633 0
M  V30 7747 C 750.622 1.11718 -1.74739 0
M  V30 7748 C 751.047 1.81829 -0.481657 0
M  V30 7749 O 750.405 1.72264 0.565233 0
M  V30 7750 C 750.453 2.11234 -2.92254 0
M  V30 7751 O 749.557 3.186 -2.61855 0
M  V30 7752 H 748.898 0.323482 -0.579875 0
M  V30 7753 H 751.428 0.404167 -2.00568 0
M  V30 7754 H 751.438 2.54591 -3.18822 0
M  V30 7755 H 750.113 1.59599 -3.84058 0
M  V30 7756 H 748.69 2.80115 -2.4615 0
M  V30 7757 N 750.875 1.45233 0.611969 0
M  V30 7758 C 752.286 1.4354 1.19387 0
M  V30 7759 C 752.637 0.160713 1.95541 0
M  V30 7760 O 751.762 -0.737954 2.03429 0
M  V30 7761 C 752.357 2.60045 2.17169 0
M  V30 7762 C 750.916 2.61486 2.70744 0
M  V30 7763 C 750.063 2.35708 1.46072 0
M  V30 7764 H 753.014 1.53536 0.401529 0
M  V30 7765 H 753.035 2.33893 3.00124 0
M  V30 7766 H 752.547 3.52803 1.61714 0
M  V30 7767 H 750.648 1.72721 3.30149 0
M  V30 7768 H 750.761 3.60572 3.15476 0
M  V30 7769 H 749.125 1.85178 1.74875 0
M  V30 7770 H 749.908 3.30606 0.924922 0
M  V30 7771 N 752.353 -0.854086 1.3245 0
M  V30 7772 C 753.599 -1.6105 1.24235 0
M  V30 7773 C 753.954 -1.91421 -0.193877 0
M  V30 7774 O 753.247 -1.54599 -1.1318 0
M  V30 7775 C 753.441 -2.93746 2.03587 0
M  V30 7776 C 753.27 -2.76335 3.54781 0
M  V30 7777 C 752.04 -2.74687 4.24117 0
M  V30 7778 C 754.238 -2.50052 4.4942 0
M  V30 7779 N 752.22 -2.48493 5.6136 0
M  V30 7780 C 753.591 -2.33269 5.74444 0
M  V30 7781 C 755.646 -2.35525 4.38671 0
M  V30 7782 C 754.349 -2.03434 6.89933 0
M  V30 7783 C 756.375 -2.07081 5.5396 0
M  V30 7784 C 755.737 -1.91098 6.77983 0
M  V30 7785 H 751.836 -0.593008 0.50977 0
M  V30 7786 H 754.42 -1.00392 1.66822 0
M  V30 7787 H 752.591 -3.52382 1.63345 0
M  V30 7788 H 754.323 -3.58768 1.87263 0
M  V30 7789 H 751.078 -2.87647 3.7624 0
M  V30 7790 H 751.502 -2.38322 6.33665 0
M  V30 7791 H 756.144 -2.46602 3.43435 0
M  V30 7792 H 753.862 -1.91095 7.85181 0
M  V30 7793 H 757.448 -1.96618 5.4757 0
M  V30 7794 H 756.328 -1.69402 7.65684 0
M  V30 7795 N 753.831 -1.1567 -1.07043 0
M  V30 7796 C 754.779 -0.852204 -2.16426 0
M  V30 7797 C 755.773 0.175661 -1.68487 0
M  V30 7798 O 756.979 0.0303874 -1.79974 0
M  V30 7799 H 753.354 -0.257942 -0.706378 0
M  V30 7800 H 755.325 -1.78231 -2.39324 0
M  V30 7801 C 754.074 -0.361362 -3.45817 0
M  V30 7802 H 753.397 -1.14369 -3.83092 0
M  V30 7803 H 754.837 -0.186997 -4.23587 0
M  V30 7804 C 753.296 0.917703 -3.2416 0
M  V30 7805 O 753.826 1.98858 -3.49025 0
M  V30 7806 N 752.032 0.858456 -2.77631 0
M  V30 7807 H 751.579 -0.0131821 -2.57597 0
M  V30 7808 H 751.537 1.71478 -2.6352 0
M  V30 7809 N 755.309 1.25446 -0.953992 0
M  V30 7810 C 756.557 1.92762 -0.607227 0
M  V30 7811 C 756.878 1.7509 0.858399 0
M  V30 7812 O 756.148 1.11416 1.61132 0
M  V30 7813 H 754.728 0.713377 -0.221591 0
M  V30 7814 H 757.39 1.52625 -1.21209 0
M  V30 7815 H 756.486 3.00695 -0.835998 0
M  V30 7816 N 756.787 0.722489 1.40064 0
M  V30 7817 C 758.035 0.264455 2.00362 0
M  V30 7818 C 758.356 -1.14847 1.57592 0
M  V30 7819 O 757.626 -1.77982 0.818477 0
M  V30 7820 H 756.206 0.0947846 0.740962 0
M  V30 7821 H 758.868 0.929659 1.71299 0
M  V30 7822 H 757.964 0.302977 3.10626 0
M  V30 7823 N 758.265 -1.50454 0.469181 0
M  V30 7824 C 759.493 -2.06729 -0.0842134 0
M  V30 7825 C 759.908 -1.33326 -1.33677 0
M  V30 7826 O 759.265 -0.401977 -1.78018 0
M  V30 7827 C 759.316 -3.59557 -0.374253 0
M  V30 7828 O 759.037 -4.30192 0.828622 0
M  V30 7829 C 760.538 -4.32449 -0.974824 0
M  V30 7830 H 757.758 -0.670971 0.006231 0
M  V30 7831 H 760.302 -1.93645 0.657415 0
M  V30 7832 H 758.457 -3.7245 -1.06581 0
M  V30 7833 H 758.871 -5.21371 0.572066 0
M  V30 7834 H 760.345 -5.40361 -1.12755 0
M  V30 7835 H 760.822 -3.92819 -1.96442 0
M  V30 7836 H 761.428 -4.24082 -0.321703 0
M  V30 7837 N 759.743 -0.201713 -1.56304 0
M  V30 7838 C 760.673 0.71155 -2.22394 0
M  V30 7839 C 761.654 1.21625 -1.18917 0
M  V30 7840 O 762.839 1.26388 -1.47444 0
M  V30 7841 C 759.969 1.92837 -2.88845 0
M  V30 7842 C 758.923 1.55831 -3.98623 0
M  V30 7843 C 758.249 2.85228 -4.52271 0
M  V30 7844 C 759.549 0.763249 -5.16693 0
M  V30 7845 H 761.243 0.160573 -2.98969 0
M  V30 7846 H 758.789 0.0757916 -1.438 0
M  V30 7847 H 760.742 2.57253 -3.33764 0
M  V30 7848 H 759.466 2.50398 -2.09686 0
M  V30 7849 H 758.125 0.9377 -3.54405 0
M  V30 7850 H 757.773 3.40893 -3.69866 0
M  V30 7851 H 757.473 2.6121 -5.26349 0
M  V30 7852 H 758.997 3.50622 -4.99897 0
M  V30 7853 H 760.411 1.31066 -5.58117 0
M  V30 7854 H 758.808 0.620935 -5.96879 0
M  V30 7855 H 759.878 -0.234322 -4.84334 0
M  V30 7856 N 761.222 1.57436 0.0718424 0
M  V30 7857 C 762.45 1.91474 0.783932 0
M  V30 7858 C 762.865 0.797669 1.71122 0
M  V30 7859 O 762.222 -0.228989 1.81058 0
M  V30 7860 C 762.273 3.25259 1.57761 0
M  V30 7861 O 761.994 4.3267 0.687596 0
M  V30 7862 C 763.495 3.7331 2.3907 0
M  V30 7863 H 760.715 0.632901 0.222885 0
M  V30 7864 H 763.259 2.04457 0.0421262 0
M  V30 7865 H 761.414 3.13804 2.27169 0
M  V30 7866 H 761.828 5.09641 1.23962 0
M  V30 7867 H 763.302 4.69551 2.90216 0
M  V30 7868 H 763.779 3.02318 3.18591 0
M  V30 7869 H 764.385 3.8771 1.74818 0
M  V30 7870 N 762.7 -0.34323 1.53817 0
M  V30 7871 C 763.928 -1.10348 1.75017 0
M  V30 7872 C 764.343 -1.82345 0.489475 0
M  V30 7873 O 763.7 -1.74362 -0.538886 0
M  V30 7874 C 763.751 -2.11672 2.93048 0
M  V30 7875 O 763.472 -1.42603 4.14241 0
M  V30 7876 C 764.973 -3.0007 3.26301 0
M  V30 7877 H 762.193 -0.329056 0.584776 0
M  V30 7878 H 764.737 -0.395339 2.00642 0
M  V30 7879 H 762.892 -2.78051 2.69753 0
M  V30 7880 H 763.306 -2.10294 4.80496 0
M  V30 7881 H 764.78 -3.67101 4.12239 0
M  V30 7882 H 765.257 -3.66105 2.42618 0
M  V30 7883 H 765.863 -2.3928 3.51604 0
M  V30 7884 N 764.178 -1.45556 -0.604258 0
M  V30 7885 C 765.141 -1.54091 -1.69672 0
M  V30 7886 C 766.141 -0.420076 -1.55216 0
M  V30 7887 O 767.331 -0.683671 -1.60224 0
M  V30 7888 C 764.463 -1.44063 -3.08964 0
M  V30 7889 H 765.656 -2.51431 -1.6347 0
M  V30 7890 H 763.209 -1.33046 -0.820273 0
M  V30 7891 H 763.944 -0.479201 -3.2074 0
M  V30 7892 H 763.729 -2.25362 -3.20865 0
M  V30 7893 H 765.219 -1.53075 -3.88533 0
M  V30 7894 N 765.656 0.84705 -1.32902 0
M  V30 7895 C 766.904 1.5986 -1.2365 0
M  V30 7896 C 767.225 1.93974 0.199789 0
M  V30 7897 O 766.495 1.60273 1.12648 0
M  V30 7898 H 765.075 0.592696 -0.454665 0
M  V30 7899 H 767.737 1.01278 -1.66519 0
M  V30 7900 H 766.833 2.53218 -1.82448 0
M  V30 7901 N 767.134 1.16236 1.06428 0
M  V30 7902 C 768.082 0.863669 2.15971 0
M  V30 7903 C 769.076 -0.166723 1.68578 0
M  V30 7904 O 770.282 -0.0208425 1.79988 0
M  V30 7905 H 766.657 0.261684 0.705 0
M  V30 7906 H 768.628 1.79498 2.38376 0
M  V30 7907 C 767.377 0.379697 3.45621 0
M  V30 7908 H 766.7 1.16399 3.82481 0
M  V30 7909 H 768.14 0.209458 4.23482 0
M  V30 7910 C 766.599 -0.900499 3.24642 0
M  V30 7911 O 767.129 -1.97004 3.50074 0
M  V30 7912 N 765.335 -0.843721 2.78082 0
M  V30 7913 H 764.882 0.0268429 2.57586 0
M  V30 7914 H 764.84 -1.70078 2.64425 0
M  V30 7915 N 768.612 -1.24939 0.960631 0
M  V30 7916 C 769.858 -1.93104 0.61958 0
M  V30 7917 C 770.191 -1.74991 -0.84212 0
M  V30 7918 O 769.466 -1.09867 -1.60498 0
M  V30 7919 C 769.749 -3.46326 0.986422 0
M  V30 7920 C 769.602 -3.73638 2.50429 0
M  V30 7921 C 770.921 -4.37067 0.515827 0
M  V30 7922 H 768.04 -0.701311 0.226566 0
M  V30 7923 H 770.682 -1.47442 1.19836 0
M  V30 7924 H 768.832 -3.85348 0.493907 0
M  V30 7925 H 770.504 -3.44217 3.07103 0
M  V30 7926 H 768.747 -3.19035 2.93937 0
M  V30 7927 H 769.418 -4.80815 2.71147 0
M  V30 7928 H 771.894 -4.05381 0.938389 0
M  V30 7929 H 770.77 -5.43022 0.80114 0
M  V30 7930 H 771.031 -4.38224 -0.584171 0
M  V30 7931 N 770.09 -0.729906 -1.39679 0
M  V30 7932 C 771.336 -0.27603 -2.00913 0
M  V30 7933 C 771.669 1.13227 -1.57776 0
M  V30 7934 O 770.944 1.7709 -0.804319 0
M  V30 7935 C 771.227 -0.372157 -3.58172 0
M  V30 7936 C 771.08 -1.81986 -4.11341 0
M  V30 7937 C 772.399 0.248378 -4.39399 0
M  V30 7938 H 769.518 -0.101773 -0.729939 0
M  V30 7939 H 772.16 -0.925104 -1.65957 0
M  V30 7940 H 770.31 0.180459 -3.88081 0
M  V30 7941 H 771.982 -2.42896 -3.92172 0
M  V30 7942 H 770.225 -2.34287 -3.65092 0
M  V30 7943 H 770.896 -1.83842 -5.20486 0
M  V30 7944 H 773.372 -0.222645 -4.15504 0
M  V30 7945 H 772.248 0.150746 -5.48693 0
M  V30 7946 H 772.509 1.33378 -4.21501 0
M  V30 7947 N 771.568 1.50203 -0.477153 0
M  V30 7948 C 772.815 2.02358 0.0757385 0
M  V30 7949 C 773.143 1.3587 1.39174 0
M  V30 7950 O 772.398 0.475415 1.89838 0
M  V30 7951 C 772.697 3.56127 0.301325 0
M  V30 7952 C 772.363 4.41126 -0.933725 0
M  V30 7953 C 771.025 4.64075 -1.27233 0
M  V30 7954 C 773.377 4.90737 -1.75576 0
M  V30 7955 C 770.705 5.33878 -2.43292 0
M  V30 7956 C 773.057 5.61816 -2.90768 0
M  V30 7957 C 771.721 5.83016 -3.25036 0
M  V30 7958 H 770.991 0.740482 0.0277147 0
M  V30 7959 H 773.638 1.80754 -0.632467 0
M  V30 7960 H 771.943 3.76279 1.09183 0
M  V30 7961 H 773.64 3.94053 0.743184 0
M  V30 7962 H 770.23 4.23489 -0.659935 0
M  V30 7963 H 774.414 4.72856 -1.50734 0
M  V30 7964 H 769.67 5.48499 -2.70109 0
M  V30 7965 H 773.844 5.99237 -3.54807 0
M  V30 7966 H 771.471 6.36881 -4.15074 0
M  V30 7967 N 773.046 0.209999 1.56195 0
M  V30 7968 C 773.978 -0.736967 2.17029 0
M  V30 7969 C 774.991 -1.16599 1.13616 0
M  V30 7970 O 776.18 -1.09914 1.40646 0
M  V30 7971 C 773.28 -2.00852 2.72969 0
M  V30 7972 C 772.453 -1.73691 4.01435 0
M  V30 7973 C 771.512 -2.85439 4.42053 0
M  V30 7974 O 770.538 -2.54405 5.09183 0
M  V30 7975 N 771.74 -4.14135 4.06783 0
M  V30 7976 H 774.505 -0.216656 2.98916 0
M  V30 7977 H 772.066 0.0285672 1.61875 0
M  V30 7978 H 774.058 -2.74778 2.97118 0
M  V30 7979 H 772.628 -2.43963 1.95451 0
M  V30 7980 H 771.848 -0.834676 3.85262 0
M  V30 7981 H 773.136 -1.52961 4.85263 0
M  V30 7982 H 772.534 -4.42196 3.52816 0
M  V30 7983 H 771.091 -4.84642 4.35851 0
M  V30 7984 N 774.524 -1.57472 -0.0634922 0
M  V30 7985 C 775.772 -1.87283 -0.759563 0
M  V30 7986 C 776.093 -0.803135 -1.77693 0
M  V30 7987 O 775.363 0.167293 -1.95184 0
M  V30 7988 H 773.943 -0.691106 -0.283516 0
M  V30 7989 H 776.605 -1.94864 -0.0376091 0
M  V30 7990 H 775.701 -2.85064 -1.27062 0
M  V30 7991 N 776.003 0.335068 -1.53997 0
M  V30 7992 C 777.231 1.09418 -1.756 0
M  V30 7993 C 777.646 1.82083 -0.499138 0
M  V30 7994 O 777.003 1.74646 0.529631 0
M  V30 7995 C 777.054 2.10115 -2.94166 0
M  V30 7996 O 776.775 1.40404 -4.14992 0
M  V30 7997 C 778.276 2.98336 -3.27888 0
M  V30 7998 H 775.496 0.32595 -0.586513 0
M  V30 7999 H 778.04 0.384693 -2.00849 0
M  V30 8000 H 776.195 2.76616 -2.71224 0
M  V30 8001 H 776.609 2.07743 -4.81605 0
M  V30 8002 H 778.083 3.6491 -4.1418 0
M  V30 8003 H 778.56 3.64814 -2.44556 0
M  V30 8004 H 779.166 2.37412 -3.52868 0
M  V30 8005 N 777.481 1.45874 0.596531 0
M  V30 8006 C 778.444 1.54988 1.68853 0
M  V30 8007 C 779.444 0.428302 1.54991 0
M  V30 8008 O 780.634 0.692158 1.59859 0
M  V30 8009 C 777.766 1.457 3.08195 0
M  V30 8010 H 778.959 2.52294 1.62135 0
M  V30 8011 H 776.512 1.33479 0.813206 0
M  V30 8012 H 777.247 0.496204 3.20481 0
M  V30 8013 H 777.032 2.27061 3.19665 0
M  V30 8014 H 778.522 1.55133 3.87716 0
M  V30 8015 N 778.959 -0.83999 1.33349 0
M  V30 8016 C 780.236 -1.57973 1.15342 0
M  V30 8017 C 780.616 -2.09226 -0.280632 0
M  V30 8018 O 779.964 -1.89317 -1.2795 0
M  V30 8019 C 780.174 -2.71446 2.19359 0
M  V30 8020 C 781.522 -3.40654 2.53456 0
M  V30 8021 O 782.546 -2.81686 2.18017 0
M  V30 8022 O 781.405 -4.47101 3.14266 0
M  V30 8023 H 778.499 -0.6964 0.446044 0
M  V30 8024 H 781.045 -0.882843 1.44927 0
M  V30 8025 H 779.817 -2.31205 3.1569 0
M  V30 8026 H 779.44 -3.488 1.90852 0
M  V30 8027 N 780.437 -1.16799 -1.0581 0
M  V30 8028 C 781.685 -0.950642 -1.78346 0
M  V30 8029 C 782.006 0.522524 -1.87869 0
M  V30 8030 O 781.276 1.3795 -1.39092 0
M  V30 8031 H 779.856 -0.348736 -0.6606 0
M  V30 8032 H 782.518 -1.47158 -1.27791 0
M  V30 8033 H 781.614 -1.37359 -2.80248 0
M  V30 8034 N 781.915 1.24427 -0.967243 0
M  V30 8035 C 783.331 1.44684 -0.6737 0
M  V30 8036 C 783.531 1.86429 0.764625 0
M  V30 8037 O 782.587 2.00211 1.53857 0
M  V30 8038 C 783.9 2.509 -1.6574 0
M  V30 8039 C 785.448 2.64728 -1.66998 0
M  V30 8040 C 785.923 3.7414 -2.64165 0
M  V30 8041 N 787.414 3.81567 -2.62604 0
M  V30 8042 C 788.149 4.6575 -3.34462 0
M  V30 8043 N 787.645 5.54124 -4.15835 0
M  V30 8044 N 789.438 4.59827 -3.23288 0
M  V30 8045 H 781.589 0.956276 -1.89655 0
M  V30 8046 H 783.852 0.48171 -0.816492 0
M  V30 8047 H 783.558 2.27113 -2.68538 0
M  V30 8048 H 783.432 3.4905 -1.42981 0
M  V30 8049 H 785.819 2.87872 -0.649121 0
M  V30 8050 H 785.9 1.66936 -1.93819 0
M  V30 8051 H 785.544 3.51745 -3.66384 0
M  V30 8052 H 785.474 4.71444 -2.34623 0
M  V30 8053 H 787.965 3.18403 -2.03539 0
M  V30 8054 H 788.278 6.15316 -4.67553 0
M  V30 8055 H 786.623 5.53791 -4.19929 0
M  V30 8056 H 789.814 3.898 -2.59179 0
M  V30 8057 H 789.987 5.25208 -3.79553 0
M  V30 8058 N 783.393 0.737304 1.3929 0
M  V30 8059 C 784.323 0.113988 2.33222 0
M  V30 8060 C 785.304 -0.721695 1.54031 0
M  V30 8061 O 786.489 -0.666206 1.82415 0
M  V30 8062 C 783.619 -0.792319 3.38141 0
M  V30 8063 C 782.573 -0.0606178 4.27957 0
M  V30 8064 C 781.899 -1.08409 5.23595 0
M  V30 8065 C 783.199 1.09817 5.10625 0
M  V30 8066 H 784.893 0.898611 2.85596 0
M  V30 8067 H 782.439 0.433571 1.37318 0
M  V30 8068 H 784.392 -1.23793 4.02807 0
M  V30 8069 H 783.116 -1.60908 2.84211 0
M  V30 8070 H 781.775 0.365393 3.64775 0
M  V30 8071 H 781.423 -1.89449 4.6596 0
M  V30 8072 H 781.123 -0.599269 5.84536 0
M  V30 8073 H 782.647 -1.52936 5.91137 0
M  V30 8074 H 784.061 0.730892 5.68622 0
M  V30 8075 H 782.458 1.51278 5.80719 0
M  V30 8076 H 783.528 1.91878 4.45321 0
M  V30 8077 N 784.871 -1.49948 0.485112 0
M  V30 8078 C 786.117 -2.02695 -0.0651022 0
M  V30 8079 C 786.45 -1.36534 -1.38102 0
M  V30 8080 O 785.725 -0.495677 -1.88078 0
M  V30 8081 C 786.008 -3.59337 -0.234285 0
M  V30 8082 C 785.861 -4.3605 1.10364 0
M  V30 8083 C 787.18 -4.28996 -0.982351 0
M  V30 8084 H 784.299 -0.736666 -0.0221856 0
M  V30 8085 H 786.941 -1.7913 0.633433 0
M  V30 8086 H 785.091 -3.79546 -0.829262 0
M  V30 8087 H 786.763 -4.27377 1.73627 0
M  V30 8088 H 785.006 -3.99236 1.69686 0
M  V30 8089 H 785.677 -5.43959 0.938743 0
M  V30 8090 H 788.153 -4.13346 -0.477904 0
M  V30 8091 H 787.029 -5.38379 -1.06955 0
M  V30 8092 H 787.29 -3.93135 -2.02231 0
M  V30 8093 N 786.349 -0.21828 -1.56081 0
M  V30 8094 C 787.312 0.679633 -2.18892 0
M  V30 8095 C 788.312 1.12405 -1.14986 0
M  V30 8096 O 789.502 1.03339 -1.40238 0
M  V30 8097 C 786.634 1.93063 -2.80962 0
M  V30 8098 H 787.827 0.132066 -2.99609 0
M  V30 8099 H 785.38 0.0313374 -1.56269 0
M  V30 8100 H 786.115 2.52015 -2.04106 0
M  V30 8101 H 785.9 1.62046 -3.57048 0
M  V30 8102 H 787.39 2.57043 -3.29118 0
M  V30 8103 N 787.827 1.57504 0.0551401 0
M  V30 8104 C 789.057 1.92015 0.762472 0
M  V30 8105 C 789.465 0.814088 1.7079 0
M  V30 8106 O 788.808 -0.220273 1.82375 0
M  V30 8107 C 788.87 3.22132 1.59598 0
M  V30 8108 C 788.534 4.49617 0.818141 0
M  V30 8109 C 789.531 5.19738 0.129933 0
M  V30 8110 C 787.216 4.96201 0.780387 0
M  V30 8111 C 789.21 6.34704 -0.585616 0
M  V30 8112 C 786.897 6.11069 0.0610756 0
M  V30 8113 C 787.895 6.80174 -0.62071 0
M  V30 8114 O 787.583 7.92849 -1.3284 0
M  V30 8115 H 787.315 0.638866 0.220967 0
M  V30 8116 H 789.869 2.05385 0.0246362 0
M  V30 8117 H 788.099 3.05016 2.37701 0
M  V30 8118 H 789.788 3.42166 2.18351 0
M  V30 8119 H 790.554 4.84767 0.150299 0
M  V30 8120 H 786.433 4.42275 1.30054 0
M  V30 8121 H 789.977 6.88578 -1.11833 0
M  V30 8122 H 785.874 6.45488 0.0386945 0
M  V30 8123 H 786.642 8.09062 -1.23938 0
M  V30 8124 N 789.305 -0.326896 1.54172 0
M  V30 8125 C 790.255 -1.40319 1.79707 0
M  V30 8126 C 791.239 -1.47056 0.652938 0
M  V30 8127 O 792.431 -1.51645 0.91284 0
M  V30 8128 C 789.56 -2.77222 2.02491 0
M  V30 8129 C 788.646 -2.74811 3.23016 0
M  V30 8130 N 789.037 -2.42022 4.44138 0
M  V30 8131 C 787.335 -3.05943 3.24522 0
M  V30 8132 C 788.036 -2.48263 5.26061 0
M  V30 8133 N 787.012 -2.84567 4.63166 0
M  V30 8134 H 790.814 -1.13892 2.70935 0
M  V30 8135 H 788.328 -0.53536 1.53322 0
M  V30 8136 H 790.325 -3.54793 2.18923 0
M  V30 8137 H 788.985 -3.04582 1.12515 0
M  V30 8138 H 789.996 -2.14926 4.71197 0
M  V30 8139 H 786.673 -3.38367 2.44569 0
M  V30 8140 H 788.063 -2.2593 6.32776 0
M  V30 8141 N 790.784 -1.46188 -0.588786 0
M  V30 8142 C 791.747 -1.55882 -1.68029 0
M  V30 8143 C 792.747 -0.436515 -1.54762 0
M  V30 8144 O 793.937 -0.700626 -1.59489 0
M  V30 8145 C 791.069 -1.47332 -3.07418 0
M  V30 8146 H 792.262 -2.5315 -1.60795 0
M  V30 8147 H 789.815 -1.33908 -0.806116 0
M  V30 8148 H 790.55 -0.513193 -3.20214 0
M  V30 8149 H 790.335 -2.28753 -3.18456 0
M  V30 8150 H 791.825 -1.57187 -3.86887 0
M  V30 8151 N 792.262 0.832906 -1.33792 0
M  V30 8152 C 793.225 1.92471 -1.24449 0
M  V30 8153 C 794.225 1.59981 -0.162085 0
M  V30 8154 O 795.415 1.69208 -0.414029 0
M  V30 8155 C 792.547 3.28278 -0.919044 0
M  V30 8156 H 793.74 2.0218 -2.21502 0
M  V30 8157 H 791.293 1.0257 -1.17936 0
M  V30 8158 H 792.028 3.24263 0.048738 0
M  V30 8159 H 791.813 3.53241 -1.70187 0
M  V30 8160 H 793.303 4.08253 -0.878576 0
M  V30 8161 N 793.74 1.17359 1.05189 0
M  V30 8162 C 794.968 0.986529 1.81866 0
M  V30 8163 C 795.383 -0.46522 1.82979 0
M  V30 8164 O 794.74 -1.32305 1.25705 0
M  V30 8165 C 794.791 1.52021 3.27982 0
M  V30 8166 O 794.512 2.91511 3.27037 0
M  V30 8167 C 796.013 1.37774 4.21347 0
M  V30 8168 H 793.233 0.349021 0.573084 0
M  V30 8169 H 795.777 1.55648 1.32643 0
M  V30 8170 H 793.932 0.992287 3.74476 0
M  V30 8171 H 794.346 3.16178 4.18488 0
M  V30 8172 H 795.82 1.7993 5.21852 0
M  V30 8173 H 796.297 0.32483 4.37997 0
M  V30 8174 H 796.903 1.89583 3.80708 0
M  V30 8175 N 795.218 -1.23913 0.973828 0
M  V30 8176 C 796.466 -1.91771 0.637817 0
M  V30 8177 C 796.787 -1.76434 -0.830435 0
M  V30 8178 O 796.057 -1.13965 -1.59339 0
M  V30 8179 H 794.637 -0.709761 0.232912 0
M  V30 8180 H 797.299 -1.50677 1.23622 0
M  V30 8181 H 796.395 -2.99327 0.883731 0
M  V30 8182 N 796.696 -0.74468 -1.38897 0
M  V30 8183 C 797.606 -0.112892 -2.34328 0
M  V30 8184 C 798.622 0.71087 -1.58816 0
M  V30 8185 O 799.798 0.637092 -1.91058 0
M  V30 8186 C 796.863 0.776417 -3.37894 0
M  V30 8187 C 795.924 -0.0606999 -4.29257 0
M  V30 8188 C 795.157 0.786258 -5.27877 0
M  V30 8189 O 795.38 2.02463 -5.33259 0
M  V30 8190 O 794.314 0.209781 -6.01534 0
M  V30 8191 H 798.14 -0.900801 -2.90033 0
M  V30 8192 H 795.725 -0.505462 -1.4059 0
M  V30 8193 H 797.607 1.28496 -4.01331 0
M  V30 8194 H 796.282 1.54297 -2.84559 0
M  V30 8195 H 795.189 -0.614984 -3.69011 0
M  V30 8196 H 796.522 -0.789702 -4.85824 0
M  V30 8197 N 798.174 1.49689 -0.493057 0
M  V30 8198 C 799.121 2.28976 0.28959 0
M  V30 8199 C 800.091 1.35011 0.967536 0
M  V30 8200 O 801.276 1.63964 0.975736 0
M  V30 8201 C 798.416 3.1748 1.35279 0
M  V30 8202 C 797.529 4.26496 0.687418 0
M  V30 8203 C 796.664 5.02226 1.73038 0
M  V30 8204 C 795.703 6.03089 1.04645 0
M  V30 8205 N 794.84 6.72014 2.03325 0
M  V30 8206 H 799.68 2.954 -0.392798 0
M  V30 8207 H 797.217 1.45657 -0.205554 0
M  V30 8208 H 799.175 3.67162 1.98111 0
M  V30 8209 H 797.805 2.53057 2.00405 0
M  V30 8210 H 796.857 3.80362 -0.0540001 0
M  V30 8211 H 798.169 4.98578 0.14864 0
M  V30 8212 H 797.323 5.55737 2.43395 0
M  V30 8213 H 796.062 4.29899 2.303 0
M  V30 8214 H 795.067 5.48817 0.328606 0
M  V30 8215 H 796.292 6.77398 0.480428 0
M  V30 8216 H 794.238 6.02464 2.59564 0
M  V30 8217 H 794.155 7.40046 1.54492 0
M  V30 8218 H 795.423 7.30133 2.72995 0
M  V30 8219 N 799.652 0.226554 1.55963 0
M  V30 8220 C 800.582 -0.676079 2.23498 0
M  V30 8221 C 801.563 -1.19718 1.20837 0
M  V30 8222 O 802.748 -1.24027 1.49436 0
M  V30 8223 C 799.878 -1.88217 2.91876 0
M  V30 8224 C 798.832 -1.4947 4.01052 0
M  V30 8225 C 798.158 -2.77997 4.56751 0
M  V30 8226 C 799.458 -0.680951 5.17842 0
M  V30 8227 H 801.152 -0.112989 2.99187 0
M  V30 8228 H 798.698 -0.0529046 1.43903 0
M  V30 8229 H 800.651 -2.51911 3.37815 0
M  V30 8230 H 799.375 -2.47031 2.13643 0
M  V30 8231 H 798.034 -0.881199 3.55852 0
M  V30 8232 H 797.682 -3.34966 3.75243 0
M  V30 8233 H 797.382 -2.52803 5.30438 0
M  V30 8234 H 798.906 -3.42625 5.05411 0
M  V30 8235 H 800.32 -1.22171 5.60131 0
M  V30 8236 H 798.717 -0.525898 5.97791 0
M  V30 8237 H 799.787 0.311346 4.83899 0
M  V30 8238 N 801.13 -1.57531 -0.0467866 0
M  V30 8239 C 802.376 -1.89584 -0.736837 0
M  V30 8240 C 802.731 -0.82317 -1.73901 0
M  V30 8241 O 802.024 0.170098 -1.90843 0
M  V30 8242 C 802.218 -3.26091 -1.46285 0
M  V30 8243 C 802.047 -4.46536 -0.532502 0
M  V30 8244 C 800.817 -5.05046 -0.160109 0
M  V30 8245 C 803.015 -5.13979 0.181555 0
M  V30 8246 N 800.997 -6.09009 0.773349 0
M  V30 8247 C 802.368 -6.12345 0.971297 0
M  V30 8248 C 804.423 -4.9727 0.250382 0
M  V30 8249 C 803.126 -6.95802 1.82351 0
M  V30 8250 C 805.152 -5.81275 1.08965 0
M  V30 8251 C 804.514 -6.79197 1.86737 0
M  V30 8252 H 800.613 -0.742868 -0.244277 0
M  V30 8253 H 803.197 -1.947 0.0025481 0
M  V30 8254 H 801.368 -3.21938 -2.1728 0
M  V30 8255 H 803.1 -3.45715 -2.10389 0
M  V30 8256 H 799.855 -4.70754 -0.518457 0
M  V30 8257 H 800.279 -6.65658 1.23406 0
M  V30 8258 H 804.921 -4.21458 -0.336578 0
M  V30 8259 H 802.639 -7.70971 2.42134 0
M  V30 8260 H 806.225 -5.70397 1.14621 0
M  V30 8261 H 805.105 -7.4307 2.50631 0
M  V30 8262 N 802.608 0.318715 -1.54344 0
M  V30 8263 C 803.518 1.41535 -1.87097 0
M  V30 8264 C 804.534 1.56361 -0.763353 0
M  V30 8265 O 805.71 1.71365 -1.05811 0
M  V30 8266 C 802.775 2.76178 -2.09587 0
M  V30 8267 C 801.836 2.70486 -3.3337 0
M  V30 8268 C 801.069 3.98708 -3.54778 0
M  V30 8269 O 801.292 4.9721 -2.79532 0
M  V30 8270 O 800.226 4.01674 -4.48266 0
M  V30 8271 H 804.052 1.16764 -2.80357 0
M  V30 8272 H 801.637 0.51318 -1.4031 0
M  V30 8273 H 803.519 3.55873 -2.25682 0
M  V30 8274 H 802.194 3.00829 -1.19514 0
M  V30 8275 H 801.101 1.89325 -3.22656 0
M  V30 8276 H 802.434 2.50789 -4.23516 0
M  V30 8277 N 804.086 1.46499 0.581025 0
M  V30 8278 C 805.049 1.5677 1.672 0
M  V30 8279 C 806.049 0.444716 1.54528 0
M  V30 8280 O 807.239 0.709074 1.59116 0
M  V30 8281 C 804.371 1.4896 3.06633 0
M  V30 8282 H 805.564 2.54 1.5945 0
M  V30 8283 H 803.117 1.34334 0.799003 0
M  V30 8284 H 803.852 0.530168 3.19937 0
M  V30 8285 H 803.637 2.30439 3.17239 0
M  V30 8286 H 805.127 1.59237 3.86048 0
M  V30 8287 N 805.565 -0.825799 1.34232 0
M  V30 8288 C 806.976 -1.39835 1.23706 0
M  V30 8289 C 807.327 -1.95709 -0.138649 0
M  V30 8290 O 806.452 -1.89833 -1.03886 0
M  V30 8291 C 807.047 -2.54203 2.23978 0
M  V30 8292 C 805.606 -3.07374 2.17251 0
M  V30 8293 C 804.753 -1.80232 2.10741 0
M  V30 8294 H 807.704 -0.630442 1.4564 0
M  V30 8295 H 807.725 -3.32214 1.8551 0
M  V30 8296 H 807.237 -2.13506 3.24094 0
M  V30 8297 H 805.338 -3.52583 1.20483 0
M  V30 8298 H 805.451 -3.6666 3.08379 0
M  V30 8299 H 803.815 -2.01012 1.56417 0
M  V30 8300 H 804.598 -1.41713 3.12686 0
M  V30 8301 N 807.043 -1.17915 -1.04565 0
M  V30 8302 C 808.271 -0.99616 -1.8134 0
M  V30 8303 C 808.686 0.455509 -1.83223 0
M  V30 8304 O 808.043 1.31636 -1.26405 0
M  V30 8305 C 808.094 -1.53758 -3.27171 0
M  V30 8306 O 807.815 -2.93241 -3.25486 0
M  V30 8307 C 809.316 -1.40007 -4.2061 0
M  V30 8308 H 806.536 -0.352055 -0.571225 0
M  V30 8309 H 809.08 -1.56349 -1.31815 0
M  V30 8310 H 807.235 -1.01213 -3.73945 0
M  V30 8311 H 807.649 -3.18392 -4.16805 0
M  V30 8312 H 809.123 -1.82695 -5.2089 0
M  V30 8313 H 809.6 -0.348054 -4.37819 0
M  V30 8314 H 810.206 -1.916 -3.79697 0
M  V30 8315 N 808.521 1.23394 -0.980386 0
M  V30 8316 C 809.769 1.91431 -0.647978 0
M  V30 8317 C 810.09 1.76871 0.821066 0
M  V30 8318 O 809.36 1.14808 1.58732 0
M  V30 8319 H 807.94 0.708516 -0.236673 0
M  V30 8320 H 810.602 1.50019 -1.2442 0
M  V30 8321 H 809.698 2.98854 -0.899592 0
M  V30 8322 N 809.999 0.752036 1.385 0
M  V30 8323 C 811.227 0.318274 2.04437 0
M  V30 8324 C 811.642 -1.05285 1.56718 0
M  V30 8325 O 810.999 -1.66844 0.73956 0
M  V30 8326 C 811.05 0.330106 3.5999 0
M  V30 8327 O 810.771 1.64712 4.05957 0
M  V30 8328 C 812.272 -0.117713 4.43144 0
M  V30 8329 H 809.492 0.136228 0.657026 0
M  V30 8330 H 812.036 1.02045 1.7722 0
M  V30 8331 H 810.191 -0.323323 3.86048 0
M  V30 8332 H 810.605 1.57225 5.0038 0
M  V30 8333 H 812.079 -0.0582735 5.51969 0
M  V30 8334 H 812.556 -1.16538 4.23457 0
M  V30 8335 H 813.162 0.506784 4.2227 0
M  V30 8336 N 811.477 -1.49425 0.500989 0
M  V30 8337 C 812.725 -2.02053 -0.0434495 0
M  V30 8338 C 813.046 -1.38285 -1.37486 0
M  V30 8339 O 812.316 -0.538171 -1.88363 0
M  V30 8340 H 810.896 -0.746757 -0.0190469 0
M  V30 8341 H 813.558 -1.83449 0.658227 0
M  V30 8342 H 812.654 -3.11619 -0.173129 0
M  V30 8343 N 812.955 -0.234822 -1.55841 0
M  V30 8344 C 814.201 0.393843 -1.98939 0
M  V30 8345 C 814.534 1.58466 -1.1226 0
M  V30 8346 O 813.809 1.93635 -0.183242 0
M  V30 8347 C 814.092 0.815492 -3.50745 0
M  V30 8348 C 813.945 -0.379878 -4.48193 0
M  V30 8349 C 815.264 1.66687 -4.07312 0
M  V30 8350 H 812.383 0.141681 -0.723253 0
M  V30 8351 H 815.025 -0.333716 -1.87046 0
M  V30 8352 H 813.175 1.43541 -3.6101 0
M  V30 8353 H 814.847 -1.0182 -4.49923 0
M  V30 8354 H 813.09 -1.02507 -4.21515 0
M  V30 8355 H 813.761 -0.0417069 -5.51984 0
M  V30 8356 H 816.237 1.14369 -4.00074 0
M  V30 8357 H 815.113 1.93078 -5.13821 0
M  V30 8358 H 815.374 2.63468 -3.55017 0
M  V30 8359 N 814.433 1.57553 0.0384317 0
M  V30 8360 C 815.679 1.89121 0.732199 0
M  V30 8361 C 816.012 0.831404 1.75503 0
M  V30 8362 O 815.287 -0.154642 1.93884 0
M  V30 8363 C 815.57 3.31338 1.41021 0
M  V30 8364 C 815.423 4.48004 0.401532 0
M  V30 8365 C 816.742 3.72318 2.34665 0
M  V30 8366 H 813.861 0.687819 0.264715 0
M  V30 8367 H 816.503 1.89999 -0.00496279 0
M  V30 8368 H 814.653 3.3072 2.03854 0
M  V30 8369 H 816.325 4.60755 -0.224159 0
M  V30 8370 H 814.568 4.32895 -0.280092 0
M  V30 8371 H 815.239 5.44377 0.91423 0
M  V30 8372 H 817.715 3.74243 1.81883 0
M  V30 8373 H 816.591 4.72652 2.7909 0
M  V30 8374 H 816.852 3.04062 3.20934 0
M  V30 8375 N 815.911 -0.310526 1.54511 0
M  V30 8376 C 816.874 -1.3657 1.84068 0
M  V30 8377 C 817.874 -1.44123 0.713097 0
M  V30 8378 O 819.064 -1.43924 0.981399 0
M  V30 8379 C 816.196 -2.75162 2.01243 0
M  V30 8380 H 817.389 -1.1161 2.78358 0
M  V30 8381 H 814.942 -0.546699 1.46427 0
M  V30 8382 H 815.677 -3.05359 1.09208 0
M  V30 8383 H 815.462 -2.71071 2.83307 0
M  V30 8384 H 816.952 -3.51473 2.25514 0
M  V30 8385 N 817.389 -1.46805 -0.573248 0
M  V30 8386 C 818.352 -1.57655 -1.66366 0
M  V30 8387 C 819.352 -0.452905 -1.5429 0
M  V30 8388 O 820.542 -0.717502 -1.58737 0
M  V30 8389 C 817.674 -1.50584 -3.05839 0
M  V30 8390 H 818.867 -2.54842 -1.581 0
M  V30 8391 H 816.42 -1.34756 -0.791868 0
M  V30 8392 H 817.155 -0.547127 -3.19651 0
M  V30 8393 H 816.94 -2.32118 -3.16012 0
M  V30 8394 H 818.43 -1.61282 -3.85199 0
M  V30 8395 N 818.867 0.818669 -1.34668 0
M  V30 8396 C 820.278 1.39177 -1.24446 0
M  V30 8397 C 820.629 1.9578 0.128268 0
M  V30 8398 O 819.754 1.90382 1.02877 0
M  V30 8399 C 820.349 2.53012 -2.25323 0
M  V30 8400 C 818.908 3.06218 -2.18878 0
M  V30 8401 C 818.055 1.79112 -2.11694 0
M  V30 8402 H 821.006 0.622709 -1.45973 0
M  V30 8403 H 821.027 3.31226 -1.8727 0
M  V30 8404 H 820.539 2.11784 -3.25221 0
M  V30 8405 H 818.64 3.51939 -1.22351 0
M  V30 8406 H 818.753 3.65019 -3.10319 0
M  V30 8407 H 817.117 2.0018 -1.57481 0
M  V30 8408 H 817.9 1.40053 -3.13433 0
M  V30 8409 N 820.346 1.18468 1.03938 0
M  V30 8410 C 821.571 1.00638 1.81347 0
M  V30 8411 C 821.996 -0.440477 1.8287 0
M  V30 8412 O 821.354 -1.31609 1.24695 0
M  V30 8413 C 821.402 1.5673 3.24759 0
M  V30 8414 O 820.506 0.789517 4.04772 0
M  V30 8415 H 819.847 0.356432 0.560225 0
M  V30 8416 H 822.377 1.57253 1.30891 0
M  V30 8417 H 822.387 1.59496 3.75533 0
M  V30 8418 H 821.062 2.62043 3.22965 0
M  V30 8419 H 819.639 0.834267 3.63448 0
M  V30 8420 N 821.824 -1.22873 0.986916 0
M  V30 8421 C 823.052 -1.95487 0.677663 0
M  V30 8422 C 823.467 -1.72978 -0.756572 0
M  V30 8423 O 822.824 -1.02517 -1.50985 0
M  V30 8424 C 822.875 -3.48337 0.966638 0
M  V30 8425 O 822.596 -3.70087 2.34451 0
M  V30 8426 C 824.097 -4.38142 0.674248 0
M  V30 8427 H 821.317 -0.622211 0.251185 0
M  V30 8428 H 823.861 -1.56187 1.32007 0
M  V30 8429 H 822.016 -3.85628 0.370137 0
M  V30 8430 H 822.43 -4.64332 2.43918 0
M  V30 8431 H 823.904 -5.44165 0.926759 0
M  V30 8432 H 824.381 -4.3745 -0.391728 0
M  V30 8433 H 824.987 -4.06469 1.25152 0
M  V30 8434 N 823.302 -0.75937 -1.38099 0
M  V30 8435 C 824.532 -0.328634 -2.0397 0
M  V30 8436 C 824.94 1.04989 -1.57398 0
M  V30 8437 O 824.283 1.67918 -0.744932 0
M  V30 8438 C 824.345 -0.279216 -3.58414 0
M  V30 8439 C 824.009 -1.60025 -4.28067 0
M  V30 8440 C 825.006 -2.55048 -4.53041 0
M  V30 8441 C 822.691 -1.87128 -4.66142 0
M  V30 8442 C 824.685 -3.7539 -5.15132 0
M  V30 8443 C 822.372 -3.07742 -5.27956 0
M  V30 8444 C 823.37 -4.01694 -5.52387 0
M  V30 8445 O 823.058 -5.20186 -6.12912 0
M  V30 8446 H 822.79 -0.137443 -0.66188 0
M  V30 8447 H 825.344 -1.03082 -1.77661 0
M  V30 8448 H 823.574 0.479254 -3.83719 0
M  V30 8449 H 825.263 0.122781 -4.05714 0
M  V30 8450 H 826.029 -2.35387 -4.24049 0
M  V30 8451 H 821.908 -1.14833 -4.46469 0
M  V30 8452 H 825.452 -4.48737 -5.34117 0
M  V30 8453 H 821.349 -3.27294 -5.56371 0
M  V30 8454 H 822.117 -5.20846 -6.31397 0
M  V30 8455 N 824.78 1.49157 -0.508906 0
M  V30 8456 C 825.713 2.26056 0.312103 0
M  V30 8457 C 826.691 1.30982 0.963456 0
M  V30 8458 O 827.875 1.60286 0.992002 0
M  V30 8459 C 825.002 3.06555 1.4402 0
M  V30 8460 C 824.048 4.16844 0.902414 0
M  V30 8461 S 824.881 5.35076 -0.213087 0
M  V30 8462 C 826.037 6.19132 0.917985 0
M  V30 8463 H 826.27 2.95343 -0.340559 0
M  V30 8464 H 823.803 1.51569 -0.294331 0
M  V30 8465 H 825.761 3.53517 2.08653 0
M  V30 8466 H 824.422 2.36722 2.0645 0
M  V30 8467 H 823.615 4.72714 1.74806 0
M  V30 8468 H 823.217 3.72513 0.333156 0
M  V30 8469 H 825.509 6.52556 1.82145 0
M  V30 8470 H 826.452 7.06982 0.397724 0
M  V30 8471 H 826.86 5.51839 1.18889 0
M  V30 8472 N 826.258 0.243083 1.55714 0
M  V30 8473 C 827.504 -0.383287 1.99145 0
M  V30 8474 C 827.837 -1.57868 1.13098 0
M  V30 8475 O 827.112 -1.93535 0.193509 0
M  V30 8476 C 827.395 -0.796879 3.51172 0
M  V30 8477 C 827.248 0.403642 4.47985 0
M  V30 8478 C 828.567 -1.64525 4.08191 0
M  V30 8479 H 825.686 -0.137843 0.723995 0
M  V30 8480 H 828.328 0.343631 1.86867 0
M  V30 8481 H 826.478 -1.41625 3.61766 0
M  V30 8482 H 828.15 1.04204 4.49376 0
M  V30 8483 H 826.393 1.04741 4.20965 0
M  V30 8484 H 827.064 0.0709794 5.51954 0
M  V30 8485 H 829.54 -1.12246 4.00674 0
M  V30 8486 H 828.416 -1.9035 5.14838 0
M  V30 8487 H 828.677 -2.61582 3.56409 0
M  V30 8488 N 827.736 -1.57571 -0.0300757 0
M  V30 8489 C 829.013 -1.80381 -0.756447 0
M  V30 8490 C 829.393 -0.840906 -1.93628 0
M  V30 8491 O 828.741 0.117143 -2.282 0
M  V30 8492 C 828.951 -3.2807 -1.19043 0
M  V30 8493 C 830.299 -3.93025 -1.60676 0
M  V30 8494 O 831.323 -3.32213 -1.28503 0
M  V30 8495 O 830.182 -5.00092 -2.20386 0
M  V30 8496 H 827.276 -0.741737 -0.365725 0
M  V30 8497 H 829.822 -1.69699 -0.00693177 0
M  V30 8498 H 828.594 -3.89748 -0.348128 0
M  V30 8499 H 828.217 -3.43637 -1.99999 0
M  V30 8500 N 829.214 0.302327 -1.54673 0
M  V30 8501 C 830.462 1.03565 -1.73547 0
M  V30 8502 C 830.783 1.87843 -0.523448 0
M  V30 8503 O 830.053 1.90367 0.462295 0
M  V30 8504 H 828.633 0.385358 -0.639928 0
M  V30 8505 H 831.295 0.333632 -1.92023 0
M  V30 8506 H 830.391 1.68952 -2.62415 0
M  V30 8507 N 830.692 1.47107 0.565454 0
M  V30 8508 C 832.108 1.32443 0.890566 0
M  V30 8509 C 832.308 0.308735 1.99121 0
M  V30 8510 O 831.364 -0.28265 2.50913 0
M  V30 8511 C 832.677 2.71548 1.2916 0
M  V30 8512 C 834.225 2.7977 1.40349 0
M  V30 8513 C 834.7 4.19497 1.83811 0
M  V30 8514 N 836.191 4.21998 1.90975 0
M  V30 8515 C 836.926 5.2702 2.25916 0
M  V30 8516 N 836.422 6.42353 2.59527 0
M  V30 8517 N 838.215 5.14393 2.26619 0
M  V30 8518 H 830.366 2.11786 -0.161328 0
M  V30 8519 H 832.629 0.947952 -0.00950631 0
M  V30 8520 H 832.335 3.47265 0.556753 0
M  V30 8521 H 832.209 3.02782 2.24951 0
M  V30 8522 H 834.596 2.0433 2.12916 0
M  V30 8523 H 834.677 2.522 0.427655 0
M  V30 8524 H 834.321 4.95439 1.11816 0
M  V30 8525 H 834.251 4.44486 2.82382 0
M  V30 8526 H 836.742 3.38791 1.6742 0
M  V30 8527 H 837.055 7.18252 2.85191 0
M  V30 8528 H 835.4 6.45687 2.57126 0
M  V30 8529 H 838.591 4.2332 1.99794 0
M  V30 8530 H 838.764 5.96349 2.5352 0
M  V30 8531 N 832.17 -0.811516 1.35101 0
M  V30 8532 C 833.102 -1.93102 1.23468 0
M  V30 8533 C 834.115 -1.62021 0.159095 0
M  V30 8534 O 835.304 -1.73682 0.411945 0
M  V30 8535 C 832.404 -3.27345 0.877404 0
M  V30 8536 C 831.577 -3.86368 2.05033 0
M  V30 8537 C 830.636 -4.99009 1.66963 0
M  V30 8538 O 829.662 -5.16698 2.38772 0
M  V30 8539 N 830.864 -5.7749 0.590394 0
M  V30 8540 H 833.629 -2.0361 2.19916 0
M  V30 8541 H 831.19 -0.988687 1.28205 0
M  V30 8542 H 833.182 -4.00163 0.604298 0
M  V30 8543 H 831.752 -3.126 0.00275267 0
M  V30 8544 H 830.972 -3.05804 2.48752 0
M  V30 8545 H 832.26 -4.22533 2.83449 0
M  V30 8546 H 831.658 -5.657 -0.00633259 0
M  V30 8547 H 830.215 -6.50708 0.377055 0
M  V30 8548 N 833.648 -1.19017 -1.03309 0
M  V30 8549 C 834.878 -1.01387 -1.80012 0
M  V30 8550 C 835.286 0.440655 -1.83997 0
M  V30 8551 O 834.629 1.31786 -1.27977 0
M  V30 8552 C 834.691 -1.50171 -3.26633 0
M  V30 8553 C 834.355 -2.98213 -3.46292 0
M  V30 8554 C 835.352 -3.96009 -3.36857 0
M  V30 8555 C 833.037 -3.36812 -3.72643 0
M  V30 8556 C 835.031 -5.30399 -3.5349 0
M  V30 8557 C 832.718 -4.71363 -3.88922 0
M  V30 8558 C 833.716 -5.67966 -3.79347 0
M  V30 8559 O 833.404 -7.00079 -3.95151 0
M  V30 8560 H 833.136 -0.357899 -0.573484 0
M  V30 8561 H 835.69 -1.58171 -1.31039 0
M  V30 8562 H 833.92 -0.877586 -3.7661 0
M  V30 8563 H 835.609 -1.28814 -3.84918 0
M  V30 8564 H 836.375 -3.67534 -3.16455 0
M  V30 8565 H 832.254 -2.62175 -3.7919 0
M  V30 8566 H 835.798 -6.05786 -3.45933 0
M  V30 8567 H 831.695 -4.99536 -4.0882 0
M  V30 8568 H 832.463 -7.07092 -4.12266 0
M  V30 8569 N 835.127 1.22348 -0.993418 0
M  V30 8570 C 836.373 1.91393 -0.67056 0
M  V30 8571 C 836.706 1.77163 0.795428 0
M  V30 8572 O 835.981 1.14084 1.57528 0
M  V30 8573 C 836.264 3.43589 -1.0779 0
M  V30 8574 C 836.117 3.66867 -2.60248 0
M  V30 8575 C 837.436 4.35545 -0.631527 0
M  V30 8576 H 834.555 0.695057 -0.24508 0
M  V30 8577 H 837.197 1.44213 -1.23703 0
M  V30 8578 H 835.347 3.83903 -0.595902 0
M  V30 8579 H 837.019 3.35954 -3.16121 0
M  V30 8580 H 835.262 3.1113 -3.02293 0
M  V30 8581 H 835.933 4.73457 -2.838 0
M  V30 8582 H 838.409 4.0275 -1.04554 0
M  V30 8583 H 837.285 5.40707 -0.944831 0
M  V30 8584 H 837.546 4.39618 0.467779 0
M  V30 8585 N 836.605 0.766683 1.37694 0
M  V30 8586 C 837.83 0.338715 2.04615 0
M  V30 8587 C 838.255 -1.02918 1.57447 0
M  V30 8588 O 837.613 -1.65849 0.732386 0
M  V30 8589 C 837.661 0.385284 3.58536 0
M  V30 8590 O 836.765 -0.616081 4.07772 0
M  V30 8591 H 836.106 0.147527 0.647404 0
M  V30 8592 H 838.636 1.04146 1.7611 0
M  V30 8593 H 838.646 0.240782 4.07289 0
M  V30 8594 H 837.321 1.38325 3.92223 0
M  V30 8595 H 835.898 -0.435115 3.70353 0
M  V30 8596 N 838.083 -1.48885 0.516809 0
M  V30 8597 C 839.329 -2.02788 -0.0220928 0
M  V30 8598 C 839.662 -1.39433 -1.35175 0
M  V30 8599 O 838.937 -0.535459 -1.86984 0
M  V30 8600 C 839.22 -3.59753 -0.158012 0
M  V30 8601 C 839.073 -4.33611 1.19588 0
M  V30 8602 C 840.392 -4.30984 -0.891133 0
M  V30 8603 H 837.511 -0.736971 -0.00655488 0
M  V30 8604 H 840.153 -1.77746 0.671287 0
M  V30 8605 H 838.303 -3.8122 -0.748568 0
M  V30 8606 H 839.975 -4.23598 1.82653 0
M  V30 8607 H 838.218 -3.95547 1.78116 0
M  V30 8608 H 838.889 -5.41846 1.05391 0
M  V30 8609 H 841.365 -4.14267 -0.39012 0
M  V30 8610 H 840.241 -5.40527 -0.955107 0
M  V30 8611 H 840.502 -3.97336 -1.93847 0
M  V30 8612 N 839.561 -0.251338 -1.55583 0
M  V30 8613 C 840.524 0.63305 -2.20284 0
M  V30 8614 C 841.524 1.09941 -1.17344 0
M  V30 8615 O 842.714 1.00341 -1.42399 0
M  V30 8616 C 839.846 1.8706 -2.84993 0
M  V30 8617 H 841.039 0.0684846 -2.99822 0
M  V30 8618 H 838.592 -0.00181653 -1.563 0
M  V30 8619 H 839.327 2.47629 -2.09405 0
M  V30 8620 H 839.112 1.54436 -3.60405 0
M  V30 8621 H 840.602 2.50004 -3.34496 0
M  V30 8622 N 841.039 1.57585 0.0217189 0
M  V30 8623 C 842.285 1.89887 0.712099 0
M  V30 8624 C 842.618 0.849971 1.74611 0
M  V30 8625 O 841.893 -0.13407 1.94037 0
M  V30 8626 C 842.176 3.32815 1.37499 0
M  V30 8627 C 842.029 4.48405 0.353993 0
M  V30 8628 C 843.348 3.74786 2.30703 0
M  V30 8629 H 840.467 0.690588 0.257405 0
M  V30 8630 H 843.109 1.89983 -0.0251145 0
M  V30 8631 H 841.259 3.32863 2.00335 0
M  V30 8632 H 842.931 4.60491 -0.273015 0
M  V30 8633 H 841.174 4.32573 -0.32599 0
M  V30 8634 H 841.845 5.45316 0.85644 0
M  V30 8635 H 844.321 3.76151 1.77904 0
M  V30 8636 H 843.197 4.75585 2.74061 0
M  V30 8637 H 843.458 3.07449 3.17691 0
M  V30 8638 N 842.517 -0.29412 1.54831 0
M  V30 8639 C 843.765 -1.02643 1.74094 0
M  V30 8640 C 844.086 -1.87563 0.533402 0
M  V30 8641 O 843.356 -1.9061 -0.452192 0
M  V30 8642 H 841.936 -0.381959 0.641963 0
M  V30 8643 H 844.598 -0.323444 1.92197 0
M  V30 8644 H 843.694 -1.67558 2.63307 0
M  V30 8645 N 843.995 -1.47404 -0.557645 0
M  V30 8646 C 845.241 -1.55219 -1.31449 0
M  V30 8647 C 845.596 -0.211457 -1.91234 0
M  V30 8648 O 844.889 0.782795 -1.7488 0
M  V30 8649 C 845.083 -2.6061 -2.44575 0
M  V30 8650 C 844.912 -4.048 -1.95875 0
M  V30 8651 C 843.682 -4.72252 -1.79738 0
M  V30 8652 C 845.88 -4.91833 -1.50348 0
M  V30 8653 N 843.862 -6.00962 -1.25372 0
M  V30 8654 C 845.233 -6.10566 -1.07745 0
M  V30 8655 C 847.288 -4.78279 -1.38396 0
M  V30 8656 C 845.991 -7.17242 -0.543767 0
M  V30 8657 C 848.017 -5.8505 -0.864293 0
M  V30 8658 C 847.379 -7.02973 -0.44818 0
M  V30 8659 H 843.478 -0.622694 -0.47305 0
M  V30 8660 H 846.062 -1.84152 -0.632144 0
M  V30 8661 H 844.233 -2.33545 -3.10341 0
M  V30 8662 H 845.965 -2.5827 -3.11574 0
M  V30 8663 H 842.72 -4.28153 -2.0244 0
M  V30 8664 H 843.144 -6.69532 -1.00278 0
M  V30 8665 H 847.786 -3.87477 -1.69179 0
M  V30 8666 H 845.504 -8.07791 -0.223563 0
M  V30 8667 H 849.09 -5.7661 -0.775371 0
M  V30 8668 H 847.97 -7.84183 -0.0522964 0
M  V30 8669 N 845.473 0.80434 -1.35529 0
M  V30 8670 C 846.721 1.55845 -1.28673 0
M  V30 8671 C 847.042 1.94511 0.137976 0
M  V30 8672 O 846.312 1.63775 1.07492 0
M  V30 8673 H 844.892 0.577931 -0.473291 0
M  V30 8674 H 847.554 0.959293 -1.69657 0
M  V30 8675 H 846.65 2.47285 -1.90411 0
M  V30 8676 N 846.951 1.19563 1.02676 0
M  V30 8677 C 848.199 0.997593 1.75763 0
M  V30 8678 C 848.52 -0.47253 1.89188 0
M  V30 8679 O 847.79 -1.34214 1.42701 0
M  V30 8680 H 846.37 0.366128 0.651122 0
M  V30 8681 H 849.032 1.50495 1.23844 0
M  V30 8682 H 848.128 1.44741 2.76508 0
M  V30 8683 N 848.429 -1.21819 0.999893 0
M  V30 8684 C 849.675 -1.91035 0.680701 0
M  V30 8685 C 850.008 -1.77582 -0.786021 0
M  V30 8686 O 849.283 -1.14917 -1.56921 0
M  V30 8687 C 849.566 -3.43013 1.0961 0
M  V30 8688 C 849.419 -3.65481 2.6219 0
M  V30 8689 C 850.738 -4.35204 0.654616 0
M  V30 8690 H 847.857 -0.693748 0.248763 0
M  V30 8691 H 850.499 -1.43555 1.24466 0
M  V30 8692 H 848.649 -3.83581 0.616253 0
M  V30 8693 H 850.321 -3.34273 3.17899 0
M  V30 8694 H 848.564 -3.09522 3.03938 0
M  V30 8695 H 849.235 -4.71945 2.86307 0
M  V30 8696 H 851.711 -4.0219 1.06688 0
M  V30 8697 H 850.587 -5.40198 0.973492 0
M  V30 8698 H 850.848 -4.3986 -0.444458 0
M  V30 8699 N 849.908 -0.773975 -1.37286 0
M  V30 8700 C 851.138 -0.350249 -2.03609 0
M  V30 8701 C 851.546 1.03313 -1.58502 0
M  V30 8702 O 850.889 1.67118 -0.7627 0
M  V30 8703 C 850.951 -0.317215 -3.58098 0
M  V30 8704 C 850.615 -1.64556 -4.26345 0
M  V30 8705 C 851.612 -2.59839 -4.50311 0
M  V30 8706 C 849.297 -1.92061 -4.64131 0
M  V30 8707 C 851.291 -3.80833 -5.11122 0
M  V30 8708 C 848.978 -3.13325 -5.24663 0
M  V30 8709 C 849.976 -4.0753 -5.48095 0
M  V30 8710 O 849.664 -5.26658 -6.0736 0
M  V30 8711 H 849.396 -0.144456 -0.660385 0
M  V30 8712 H 851.95 -1.0496 -1.76557 0
M  V30 8713 H 850.18 0.438528 -3.84205 0
M  V30 8714 H 851.869 0.0797428 -4.05822 0
M  V30 8715 H 852.635 -2.39872 -4.21529 0
M  V30 8716 H 848.514 -1.19562 -4.45226 0
M  V30 8717 H 852.058 -4.54377 -5.29327 0
M  V30 8718 H 847.955 -3.33177 -5.52869 0
M  V30 8719 H 848.723 -5.27513 -6.25837 0
M  V30 8720 N 851.386 1.48609 -0.524698 0
M  V30 8721 C 852.634 2.02097 0.0112991 0
M  V30 8722 C 852.955 1.40455 1.35268 0
M  V30 8723 O 852.225 0.56807 1.87483 0
M  V30 8724 H 850.805 0.746966 0.00716426 0
M  V30 8725 H 853.467 1.82378 -0.687329 0
M  V30 8726 H 852.563 3.11855 0.123531 0
M  V30 8727 N 852.864 0.259585 1.55447 0
M  V30 8728 C 853.794 -0.62852 2.24882 0
M  V30 8729 C 854.775 -1.17128 1.23349 0
M  V30 8730 O 855.96 -1.20829 1.52033 0
M  V30 8731 C 853.09 -1.81983 2.95803 0
M  V30 8732 C 852.044 -1.40929 4.04132 0
M  V30 8733 C 851.37 -2.68246 4.62545 0
M  V30 8734 C 852.67 -0.570956 5.1917 0
M  V30 8735 H 854.364 -0.0495021 2.99359 0
M  V30 8736 H 851.91 -0.0223688 1.43983 0
M  V30 8737 H 853.863 -2.44689 3.43082 0
M  V30 8738 H 852.587 -2.42444 2.18835 0
M  V30 8739 H 851.246 -0.805519 3.57641 0
M  V30 8740 H 850.894 -3.26931 3.82263 0
M  V30 8741 H 850.594 -2.41495 5.35681 0
M  V30 8742 H 852.118 -3.31827 5.12565 0
M  V30 8743 H 853.532 -1.10262 5.62597 0
M  V30 8744 H 851.929 -0.398979 5.98772 0
M  V30 8745 H 852.999 0.413918 4.8313 0
M  V30 8746 N 854.342 -1.57594 -0.0133615 0
M  V30 8747 C 855.305 -2.06534 -0.993799 0
M  V30 8748 C 856.305 -0.972267 -1.28077 0
M  V30 8749 O 857.495 -1.23537 -1.22818 0
M  V30 8750 C 854.627 -2.49554 -2.3224 0
M  V30 8751 H 855.82 -2.94419 -0.570741 0
M  V30 8752 H 853.373 -1.54113 -0.260546 0
M  V30 8753 H 854.108 -1.64872 -2.79263 0
M  V30 8754 H 853.893 -3.29371 -2.12737 0
M  V30 8755 H 855.383 -2.8779 -3.026 0
M  V30 8756 N 855.82 0.285905 -1.54985 0
M  V30 8757 C 856.783 1.33625 -1.86218 0
M  V30 8758 C 857.783 1.42971 -0.735936 0
M  V30 8759 O 858.973 1.42345 -1.00417 0
M  V30 8760 C 856.105 2.71926 -2.05595 0
M  V30 8761 H 857.298 1.07167 -2.80099 0
M  V30 8762 H 854.851 0.523335 -1.47278 0
M  V30 8763 H 855.586 3.03583 -1.14053 0
M  V30 8764 H 855.371 2.6653 -2.87583 0
M  V30 8765 H 856.861 3.47841 -2.31077 0
M  V30 8766 N 857.298 1.47698 0.54982 0
M  V30 8767 C 858.714 1.3338 0.876468 0
M  V30 8768 C 858.914 0.329837 1.98782 0
M  V30 8769 O 857.97 -0.256022 2.51199 0
M  V30 8770 C 859.283 2.72903 1.26272 0
M  V30 8771 C 860.831 2.81243 1.37373 0
M  V30 8772 C 861.306 4.21423 1.79351 0
M  V30 8773 N 862.797 4.24 1.86489 0
M  V30 8774 C 863.532 5.29386 2.20313 0
M  V30 8775 N 863.028 6.4507 2.527 0
M  V30 8776 N 864.821 5.16768 2.2115 0
M  V30 8777 H 856.972 2.11603 -0.183781 0
M  V30 8778 H 859.235 0.947798 -0.0195601 0
M  V30 8779 H 858.941 3.47836 0.519889 0
M  V30 8780 H 858.815 3.05151 2.21727 0
M  V30 8781 H 861.202 2.06577 2.10737 0
M  V30 8782 H 861.283 2.52639 0.400882 0
M  V30 8783 H 860.927 4.96597 1.06555 0
M  V30 8784 H 860.857 4.47456 2.77652 0
M  V30 8785 H 863.348 3.40547 1.63817 0
M  V30 8786 H 863.661 7.21236 2.77557 0
M  V30 8787 H 862.006 6.48377 2.50263 0
M  V30 8788 H 865.197 4.25416 1.95293 0
M  V30 8789 H 865.37 5.99004 2.4718 0
M  V30 8790 N 858.776 -0.797141 1.35954 0
M  V30 8791 C 859.739 -1.89104 1.29508 0
M  V30 8792 C 860.739 -1.59495 0.204444 0
M  V30 8793 O 861.929 -1.68051 0.458746 0
M  V30 8794 C 859.061 -3.25726 1.00576 0
M  V30 8795 H 860.254 -1.96237 2.26785 0
M  V30 8796 H 857.807 -0.994075 1.20614 0
M  V30 8797 H 858.542 -3.24279 0.0372519 0
M  V30 8798 H 858.327 -3.48604 1.79492 0
M  V30 8799 H 859.817 -4.0578 0.986508 0
M  V30 8800 N 860.254 -1.20106 -1.0204 0
M  V30 8801 C 861.482 -1.0344 -1.79186 0
M  V30 8802 C 861.897 0.416542 -1.84148 0
M  V30 8803 O 861.254 1.28925 -1.29168 0
M  V30 8804 C 861.305 -1.60663 -3.23836 0
M  V30 8805 O 861.026 -3.00079 -3.19193 0
M  V30 8806 C 862.527 -1.48897 -4.17546 0
M  V30 8807 H 859.747 -0.364093 -0.563629 0
M  V30 8808 H 862.291 -1.5911 -1.28469 0
M  V30 8809 H 860.446 -1.09122 -3.71714 0
M  V30 8810 H 860.86 -3.27162 -4.09958 0
M  V30 8811 H 862.334 -1.93703 -5.16898 0
M  V30 8812 H 862.811 -0.440843 -4.36982 0
M  V30 8813 H 863.417 -1.9961 -3.75547 0
M  V30 8814 N 861.732 1.21287 -1.00634 0
M  V30 8815 C 862.642 2.27388 -0.577226 0
M  V30 8816 C 863.658 1.69791 0.380399 0
M  V30 8817 O 864.834 1.99918 0.2439 0
M  V30 8818 C 861.899 3.46588 0.0880532 0
M  V30 8819 C 860.96 4.19453 -0.914222 0
M  V30 8820 C 860.193 5.32962 -0.280596 0
M  V30 8821 O 860.416 5.62895 0.922265 0
M  V30 8822 O 859.35 5.93666 -0.992196 0
M  V30 8823 H 863.176 2.66289 -1.46028 0
M  V30 8824 H 860.761 1.2771 -0.775283 0
M  V30 8825 H 862.643 4.18881 0.460094 0
M  V30 8826 H 861.318 3.09585 0.945461 0
M  V30 8827 H 860.225 3.49376 -1.33744 0
M  V30 8828 H 861.558 4.6037 -1.74126 0
M  V30 8829 N 863.21 0.781244 1.36873 0
M  V30 8830 C 864.626 0.461968 1.52768 0
M  V30 8831 C 864.826 -1.02099 1.73719 0
M  V30 8832 O 863.882 -1.80665 1.76399 0
M  V30 8833 C 865.195 1.2853 2.71846 0
M  V30 8834 C 866.743 1.27817 2.85713 0
M  V30 8835 C 867.218 2.08506 4.07786 0
M  V30 8836 N 868.709 2.05909 4.14917 0
M  V30 8837 C 869.444 2.65118 5.08429 0
M  V30 8838 N 868.94 3.33152 6.07438 0
M  V30 8839 N 870.733 2.54896 5.00983 0
M  V30 8840 H 862.884 1.74198 1.21527 0
M  V30 8841 H 865.147 0.740027 0.592506 0
M  V30 8842 H 864.853 2.3366 2.62861 0
M  V30 8843 H 864.727 0.920981 3.65784 0
M  V30 8844 H 867.114 0.234817 2.94164 0
M  V30 8845 H 867.195 1.68219 1.92707 0
M  V30 8846 H 866.839 3.12867 4.00096 0
M  V30 8847 H 866.769 1.65479 4.99924 0
M  V30 8848 H 869.26 1.56386 3.44023 0
M  V30 8849 H 869.573 3.75681 6.75339 0
M  V30 8850 H 867.918 3.37253 6.07689 0
M  V30 8851 H 871.109 2.01352 4.22581 0
M  V30 8852 H 871.282 3.01332 5.73675 0
M  V30 8853 N 864.689 -1.48329 0.532571 0
M  V30 8854 C 865.621 -2.27652 -0.265931 0
M  V30 8855 C 866.634 -1.35522 -0.902083 0
M  V30 8856 O 867.823 -1.60552 -0.780088 0
M  V30 8857 C 864.923 -3.0899 -1.39207 0
M  V30 8858 C 864.096 -4.28915 -0.857349 0
M  V30 8859 C 863.155 -4.92044 -1.86493 0
M  V30 8860 O 862.181 -5.51181 -1.42084 0
M  V30 8861 N 863.383 -4.84518 -3.19723 0
M  V30 8862 H 866.148 -2.96821 0.414389 0
M  V30 8863 H 863.709 -1.57684 0.367066 0
M  V30 8864 H 865.701 -3.48091 -2.06433 0
M  V30 8865 H 864.271 -2.42224 -1.97601 0
M  V30 8866 H 863.491 -3.94199 -0.00901765 0
M  V30 8867 H 864.779 -5.0654 -0.479025 0
M  V30 8868 H 864.177 -4.37628 -3.58467 0
M  V30 8869 H 862.734 -5.27712 -3.82575 0
M  V30 8870 N 866.167 -0.267825 -1.55308 0
M  V30 8871 C 867.415 0.350343 -1.9904 0
M  V30 8872 C 867.736 1.56924 -1.15758 0
M  V30 8873 O 867.006 1.94358 -0.245336 0
M  V30 8874 H 865.586 0.132435 -0.735167 0
M  V30 8875 H 868.248 -0.371471 -1.91327 0
M  V30 8876 H 867.344 0.645203 -3.05358 0
M  V30 8877 N 867.645 1.57599 0.00500368 0
M  V30 8878 C 869.056 1.78462 0.54848 0
M  V30 8879 C 869.407 0.901869 1.74243 0
M  V30 8880 O 868.532 0.103014 2.16155 0
M  V30 8881 C 869.127 3.2365 1.00179 0
M  V30 8882 C 867.686 3.45627 1.49061 0
M  V30 8883 C 866.833 2.73794 0.439531 0
M  V30 8884 H 869.784 1.57151 -0.22118 0
M  V30 8885 H 869.805 3.31488 1.86805 0
M  V30 8886 H 869.317 3.87873 0.132607 0
M  V30 8887 H 867.418 2.86612 2.38085 0
M  V30 8888 H 867.531 4.54298 1.52152 0
M  V30 8889 H 865.895 2.38267 0.900043 0
M  V30 8890 H 866.678 3.40714 -0.420599 0
M  V30 8891 N 869.123 -0.277682 1.55134 0
M  V30 8892 C 870.371 -1.00791 1.75173 0
M  V30 8893 C 870.692 -1.86987 0.553266 0
M  V30 8894 O 869.962 -1.91079 -0.43195 0
M  V30 8895 H 868.542 -0.375129 0.645978 0
M  V30 8896 H 871.204 -0.303041 1.9253 0
M  V30 8897 H 870.3 -1.64756 2.6507 0
M  V30 8898 N 870.601 -1.47988 -0.541979 0
M  V30 8899 C 871.829 -1.59034 -1.32347 0
M  V30 8900 C 872.244 -0.246123 -1.87189 0
M  V30 8901 O 871.601 0.762889 -1.6579 0
M  V30 8902 C 871.652 -2.62759 -2.48274 0
M  V30 8903 O 871.373 -3.91963 -1.95695 0
M  V30 8904 C 872.874 -2.84133 -3.4027 0
M  V30 8905 H 870.094 -0.536574 -0.402901 0
M  V30 8906 H 872.638 -1.93725 -0.655045 0
M  V30 8907 H 870.793 -2.3096 -3.11025 0
M  V30 8908 H 871.207 -4.48769 -2.7149 0
M  V30 8909 H 872.681 -3.60538 -4.17991 0
M  V30 8910 H 873.158 -1.92512 -3.9476 0
M  V30 8911 H 873.764 -3.17188 -2.83322 0
M  V30 8912 N 872.079 0.78992 -1.36375 0
M  V30 8913 C 873.325 1.55007 -1.3077 0
M  V30 8914 C 873.658 1.93871 0.112979 0
M  V30 8915 O 872.933 1.6267 1.06625 0
M  V30 8916 C 873.216 2.82748 -2.22993 0
M  V30 8917 C 873.069 2.50253 -3.73756 0
M  V30 8918 C 874.388 3.84569 -2.13998 0
M  V30 8919 H 871.507 0.562362 -0.476359 0
M  V30 8920 H 874.149 0.907582 -1.66922 0
M  V30 8921 H 872.299 3.37573 -1.92292 0
M  V30 8922 H 873.971 2.01482 -4.14973 0
M  V30 8923 H 872.214 1.83203 -3.93216 0
M  V30 8924 H 872.885 3.41487 -4.33694 0
M  V30 8925 H 875.361 3.39188 -2.4102 0
M  V30 8926 H 874.237 4.717 -2.80697 0
M  V30 8927 H 874.498 4.27491 -1.12711 0
M  V30 8928 N 873.557 1.20646 1.01402 0
M  V30 8929 C 874.787 1.04238 1.78376 0
M  V30 8930 C 875.195 -0.411327 1.84675 0
M  V30 8931 O 874.538 -1.29734 1.30057 0
M  V30 8932 C 874.6 1.55349 3.24202 0
M  V30 8933 C 874.264 3.03684 3.41504 0
M  V30 8934 C 875.261 4.01318 3.30514 0
M  V30 8935 C 872.946 3.42698 3.67237 0
M  V30 8936 C 874.94 5.35956 3.45007 0
M  V30 8937 C 872.627 4.77491 3.81373 0
M  V30 8938 C 873.625 5.73929 3.70263 0
M  V30 8939 O 873.313 7.06277 3.83963 0
M  V30 8940 H 873.045 0.366978 0.567718 0
M  V30 8941 H 875.599 1.60235 1.28506 0
M  V30 8942 H 873.829 0.93739 3.75166 0
M  V30 8943 H 875.518 1.34921 3.8282 0
M  V30 8944 H 876.284 3.72522 3.10568 0
M  V30 8945 H 872.163 2.68175 3.74971 0
M  V30 8946 H 875.707 6.11212 3.36252 0
M  V30 8947 H 871.604 5.05977 4.00821 0
M  V30 8948 H 872.372 7.13561 4.00965 0
M  V30 8949 N 875.035 -1.20752 1.01276 0
M  V30 8950 C 876.263 -1.94006 0.718976 0
M  V30 8951 C 876.678 -1.74544 -0.719711 0
M  V30 8952 O 876.035 -1.05697 -1.48776 0
M  V30 8953 C 876.086 -3.46208 1.04031 0
M  V30 8954 O 875.807 -3.65031 2.42248 0
M  V30 8955 C 877.308 -4.36614 0.767032 0
M  V30 8956 H 874.528 -0.616743 0.264327 0
M  V30 8957 H 877.072 -1.53352 1.3529 0
M  V30 8958 H 875.227 -3.84756 0.451852 0
M  V30 8959 H 875.641 -4.59054 2.53712 0
M  V30 8960 H 877.115 -5.42076 1.04198 0
M  V30 8961 H 877.592 -4.38182 -0.298851 0
M  V30 8962 H 878.198 -4.03723 1.33746 0
M  V30 8963 N 876.513 -0.788492 -1.36457 0
M  V30 8964 C 877.76 -0.360461 -1.99266 0
M  V30 8965 C 878.088 1.0676 -1.62581 0
M  V30 8966 O 877.343 1.75205 -0.871884 0
M  V30 8967 C 877.642 -0.470255 -3.54293 0
M  V30 8968 C 877.308 -1.85899 -4.10795 0
M  V30 8969 C 875.97 -2.23896 -4.25939 0
M  V30 8970 C 878.322 -2.76836 -4.41601 0
M  V30 8971 C 875.65 -3.52235 -4.69199 0
M  V30 8972 C 878.002 -4.04602 -4.86292 0
M  V30 8973 C 876.666 -4.42623 -4.99641 0
M  V30 8974 H 875.936 -0.131902 -0.729166 0
M  V30 8975 H 878.583 -1.00577 -1.62962 0
M  V30 8976 H 876.888 0.258559 -3.90946 0
M  V30 8977 H 878.585 -0.120119 -4.0082 0
M  V30 8978 H 875.175 -1.55372 -3.99447 0
M  V30 8979 H 879.359 -2.48735 -4.2947 0
M  V30 8980 H 874.615 -3.81565 -4.77722 0
M  V30 8981 H 878.789 -4.75182 -5.09092 0
M  V30 8982 H 876.416 -5.42125 -5.32921 0
M  V30 8983 N 877.991 1.48044 -0.54043 0
M  V30 8984 C 879.237 2.02797 -0.0101718 0
M  V30 8985 C 879.57 1.41565 1.32939 0
M  V30 8986 O 878.845 0.565139 1.86109 0
M  V30 8987 C 879.128 3.59959 0.100758 0
M  V30 8988 C 878.981 4.31654 -1.26471 0
M  V30 8989 C 880.3 4.32347 0.822455 0
M  V30 8990 H 877.419 0.736982 -0.00517052 0
M  V30 8991 H 880.061 1.76656 -0.69948 0
M  V30 8992 H 878.211 3.82363 0.687824 0
M  V30 8993 H 879.883 4.20639 -1.89369 0
M  V30 8994 H 878.126 3.92663 -1.84386 0
M  V30 8995 H 878.797 5.401 -1.13998 0
M  V30 8996 H 881.273 4.14835 0.324164 0
M  V30 8997 H 880.149 5.41978 0.868993 0
M  V30 8998 H 880.41 4.00369 1.87501 0
M  V30 8999 N 879.47 0.276058 1.55163 0
M  V30 9000 C 880.716 -0.340959 1.99913 0
M  V30 9001 C 881.049 -1.55434 1.16422 0
M  V30 9002 O 880.324 -1.93081 0.234517 0
M  V30 9003 C 880.607 -0.722211 3.52783 0
M  V30 9004 C 880.46 0.498575 4.47028 0
M  V30 9005 C 881.779 -1.5583 4.11589 0
M  V30 9006 H 878.898 -0.122455 0.726756 0
M  V30 9007 H 881.54 0.38319 1.86096 0
M  V30 9008 H 879.69 -1.33919 3.64689 0
M  V30 9009 H 881.362 1.13713 4.47065 0
M  V30 9010 H 879.605 1.13646 4.18649 0
M  V30 9011 H 880.276 0.188041 5.5168 0
M  V30 9012 H 882.752 -1.03722 4.02965 0
M  V30 9013 H 881.628 -1.79387 5.1876 0
M  V30 9014 H 881.889 -2.53963 3.61877 0
M  V30 9015 N 880.948 -1.576 0.00335426 0
M  V30 9016 C 881.911 -2.07576 -0.971838 0
M  V30 9017 C 882.911 -0.985796 -1.27038 0
M  V30 9018 O 884.101 -1.24833 -1.21501 0
M  V30 9019 C 881.233 -2.52003 -2.29581 0
M  V30 9020 H 882.426 -2.95008 -0.539481 0
M  V30 9021 H 879.979 -1.54381 -0.244186 0
M  V30 9022 H 880.714 -1.67825 -2.77498 0
M  V30 9023 H 880.499 -3.31609 -2.09231 0
M  V30 9024 H 881.989 -2.90983 -2.99531 0
M  V30 9025 N 882.426 0.269451 -1.5528 0
M  V30 9026 C 883.674 0.998604 -1.75705 0
M  V30 9027 C 883.995 1.86691 -0.563175 0
M  V30 9028 O 883.265 1.91305 0.421811 0
M  V30 9029 H 881.845 0.371698 -0.647958 0
M  V30 9030 H 884.507 0.292826 -1.92688 0
M  V30 9031 H 883.603 1.63348 -2.6594 0
M  V30 9032 N 883.904 1.48273 0.534124 0
M  V30 9033 C 884.851 1.62487 1.6391 0
M  V30 9034 C 885.821 0.467062 1.59398 0
M  V30 9035 O 887.006 0.690029 1.77885 0
M  V30 9036 C 884.146 1.66671 3.02183 0
M  V30 9037 C 883.259 2.9353 3.16961 0
M  V30 9038 C 882.394 2.88902 4.45768 0
M  V30 9039 C 881.433 4.10483 4.54059 0
M  V30 9040 N 880.57 4.03956 5.74251 0
M  V30 9041 H 885.41 2.56851 1.51101 0
M  V30 9042 H 882.947 1.27381 0.735704 0
M  V30 9043 H 884.905 1.67079 3.82283 0
M  V30 9044 H 883.535 0.758011 3.13774 0
M  V30 9045 H 882.587 3.02886 2.3014 0
M  V30 9046 H 883.899 3.83501 3.18949 0
M  V30 9047 H 883.053 2.87688 5.34154 0
M  V30 9048 H 881.792 1.96652 4.46295 0
M  V30 9049 H 880.797 4.11977 3.64081 0
M  V30 9050 H 882.022 5.03887 4.55274 0
M  V30 9051 H 879.968 3.14525 5.75682 0
M  V30 9052 H 879.885 4.87628 5.77715 0
M  V30 9053 H 881.153 4.06795 6.64935 0
M  V30 9054 N 885.382 -0.782676 1.36792 0
M  V30 9055 C 886.345 -1.8772 1.31507 0
M  V30 9056 C 887.345 -1.59269 0.221349 0
M  V30 9057 O 888.535 -1.67555 0.476544 0
M  V30 9058 C 885.667 -3.24641 1.04025 0
M  V30 9059 H 886.86 -1.9382 2.28853 0
M  V30 9060 H 884.413 -0.981226 1.21662 0
M  V30 9061 H 885.148 -3.24221 0.0716439 0
M  V30 9062 H 884.933 -3.46681 1.8318 0
M  V30 9063 H 886.423 -4.04711 1.02949 0
M  V30 9064 N 886.86 -1.21182 -1.00761 0
M  V30 9065 C 888.276 -0.968607 -1.26847 0
M  V30 9066 C 888.476 0.346561 -1.98497 0
M  V30 9067 O 887.532 1.07287 -2.28573 0
M  V30 9068 C 888.845 -2.1574 -2.09467 0
M  V30 9069 C 890.393 -2.19937 -2.22703 0
M  V30 9070 C 890.868 -3.38328 -3.08704 0
M  V30 9071 N 892.359 -3.38398 -3.16293 0
M  V30 9072 C 893.094 -4.26653 -3.83086 0
M  V30 9073 N 892.59 -5.25101 -4.5193 0
M  V30 9074 N 894.383 -4.14469 -3.797 0
M  V30 9075 H 886.534 -2.05763 -0.526816 0
M  V30 9076 H 888.797 -0.90087 -0.29519 0
M  V30 9077 H 888.503 -3.11034 -1.64167 0
M  V30 9078 H 888.377 -2.14584 -3.10216 0
M  V30 9079 H 890.764 -1.25201 -2.67224 0
M  V30 9080 H 890.845 -2.25139 -1.21433 0
M  V30 9081 H 890.489 -4.33356 -2.64886 0
M  V30 9082 H 890.419 -3.30364 -4.10082 0
M  V30 9083 H 892.91 -2.67149 -2.67282 0
M  V30 9084 H 893.223 -5.8875 -5.00592 0
M  V30 9085 H 891.568 -5.29029 -4.50726 0
M  V30 9086 H 894.759 -3.3682 -3.25069 0
M  V30 9087 H 894.932 -4.83458 -4.31477 0
M  V30 9088 N 888.338 1.20213 -1.01915 0
M  V30 9089 C 889.271 2.2181 -0.536243 0
M  V30 9090 C 890.249 1.57144 0.417689 0
M  V30 9091 O 891.433 1.85461 0.337088 0
M  V30 9092 C 888.56 3.37989 0.219303 0
M  V30 9093 C 887.606 4.2097 -0.684571 0
M  V30 9094 S 888.439 4.90216 -2.15519 0
M  V30 9095 C 889.595 6.09814 -1.40988 0
M  V30 9096 H 889.828 2.62429 -1.39709 0
M  V30 9097 H 887.361 1.30305 -0.828254 0
M  V30 9098 H 889.319 4.05335 0.649112 0
M  V30 9099 H 887.98 2.95825 1.05575 0
M  V30 9100 H 887.173 5.03897 -0.101833 0
M  V30 9101 H 886.775 3.58892 -1.05227 0
M  V30 9102 H 889.067 6.73964 -0.691243 0
M  V30 9103 H 890.01 6.72552 -2.21539 0
M  V30 9104 H 890.418 5.5709 -0.911645 0
M  V30 9105 N 889.816 0.795718 1.36037 0
M  V30 9106 C 891.227 0.433379 1.816 0
M  V30 9107 C 891.578 -1.04341 1.66155 0
M  V30 9108 O 890.703 -1.81004 1.18603 0
M  V30 9109 C 891.298 0.77985 3.29703 0
M  V30 9110 C 889.857 0.470256 3.73451 0
M  V30 9111 C 889.004 1.01119 2.58206 0
M  V30 9112 H 891.955 0.988317 1.24169 0
M  V30 9113 H 891.976 0.0732898 3.80429 0
M  V30 9114 H 891.488 1.85473 3.40913 0
M  V30 9115 H 889.589 -0.596332 3.67797 0
M  V30 9116 H 889.702 0.995276 4.68648 0
M  V30 9117 H 888.066 0.434077 2.50974 0
M  V30 9118 H 888.849 2.09196 2.72198 0
M  V30 9119 N 891.294 -1.47756 0.548274 0
M  V30 9120 C 892.204 -2.33678 -0.207773 0
M  V30 9121 C 893.22 -1.47636 -0.920843 0
M  V30 9122 O 894.396 -1.80583 -0.89173 0
M  V30 9123 C 891.461 -3.24147 -1.23003 0
M  V30 9124 C 890.522 -4.26073 -0.52535 0
M  V30 9125 C 889.755 -5.12219 -1.4989 0
M  V30 9126 O 889.978 -5.0066 -2.73305 0
M  V30 9127 O 888.912 -5.93051 -1.02828 0
M  V30 9128 H 892.738 -2.99609 0.496794 0
M  V30 9129 H 890.323 -1.4617 0.308982 0
M  V30 9130 H 892.205 -3.80055 -1.82034 0
M  V30 9131 H 890.88 -2.60855 -1.91668 0
M  V30 9132 H 889.787 -3.7395 0.105927 0
M  V30 9133 H 891.12 -4.92054 0.119686 0
M  V30 9134 N 892.772 -0.284283 -1.55015 0
M  V30 9135 C 894.019 0.329864 -1.99795 0
M  V30 9136 C 894.347 1.55171 -1.1727 0
M  V30 9137 O 893.602 1.94312 -0.232667 0
M  V30 9138 C 893.901 0.747219 -3.49502 0
M  V30 9139 C 893.567 -0.37101 -4.49371 0
M  V30 9140 C 892.229 -0.678034 -4.76399 0
M  V30 9141 C 894.581 -1.12406 -5.08935 0
M  V30 9142 C 891.909 -1.74152 -5.60257 0
M  V30 9143 C 894.261 -2.17734 -5.93948 0
M  V30 9144 C 892.925 -2.49061 -6.19294 0
M  V30 9145 H 892.195 0.120706 -0.731103 0
M  V30 9146 H 894.842 -0.399904 -1.87278 0
M  V30 9147 H 893.147 1.55681 -3.59542 0
M  V30 9148 H 894.844 1.2333 -3.81563 0
M  V30 9149 H 891.434 -0.1216 -4.28427 0
M  V30 9150 H 895.618 -0.900119 -4.88069 0
M  V30 9151 H 890.874 -1.98915 -5.78137 0
M  V30 9152 H 895.048 -2.76553 -6.39133 0
M  V30 9153 H 892.675 -3.31602 -6.84064 0
M  V30 9154 N 894.251 1.57596 -0.0117121 0
M  V30 9155 C 895.497 1.91355 0.671661 0
M  V30 9156 C 895.83 0.886818 1.72769 0
M  V30 9157 O 895.105 -0.0928813 1.94278 0
M  V30 9158 C 895.388 3.35657 1.30409 0
M  V30 9159 C 895.241 4.49055 0.2588 0
M  V30 9160 C 896.56 3.79595 2.22701 0
M  V30 9161 H 893.679 0.695893 0.242698 0
M  V30 9162 H 896.321 1.89887 -0.0654071 0
M  V30 9163 H 894.471 3.37038 1.9323 0
M  V30 9164 H 896.143 4.59809 -0.370631 0
M  V30 9165 H 894.386 4.31785 -0.417672 0
M  V30 9166 H 895.057 5.4701 0.740578 0
M  V30 9167 H 897.533 3.7984 1.69885 0
M  V30 9168 H 896.409 4.81292 2.63912 0
M  V30 9169 H 896.67 3.14118 3.11098 0
M  V30 9170 N 895.729 -0.261212 1.5542 0
M  V30 9171 C 896.692 -1.30645 1.8832 0
M  V30 9172 C 897.692 -1.41782 0.758588 0
M  V30 9173 O 898.882 -1.40729 1.02669 0
M  V30 9174 C 896.014 -2.6862 2.09895 0
M  V30 9175 H 897.207 -1.02698 2.81768 0
M  V30 9176 H 894.76 -0.499838 1.48092 0
M  V30 9177 H 895.495 -3.0173 1.18868 0
M  V30 9178 H 895.28 -2.61921 2.91787 0
M  V30 9179 H 896.77 -3.44121 2.36581 0
M  V30 9180 N 897.207 -1.48554 -0.526253 0
M  V30 9181 C 898.139 -1.59446 -1.6465 0
M  V30 9182 C 899.152 -0.478525 -1.55608 0
M  V30 9183 O 900.341 -0.74953 -1.62001 0
M  V30 9184 C 897.441 -1.51164 -3.03319 0
M  V30 9185 C 896.614 -2.77861 -3.37805 0
M  V30 9186 C 895.673 -2.62982 -4.5577 0
M  V30 9187 O 894.699 -3.36876 -4.58806 0
M  V30 9188 N 895.901 -1.72847 -5.5417 0
M  V30 9189 H 898.666 -2.56055 -1.55743 0
M  V30 9190 H 896.227 -1.45325 -0.713606 0
M  V30 9191 H 898.219 -1.389 -3.80117 0
M  V30 9192 H 896.789 -0.625147 -3.06285 0
M  V30 9193 H 896.009 -3.04663 -2.50149 0
M  V30 9194 H 897.297 -3.61908 -3.57632 0
M  V30 9195 H 896.695 -1.12022 -5.54498 0
M  V30 9196 H 895.252 -1.6652 -6.3017 0
M  V30 9197 N 898.685 0.775411 -1.37205 0
M  V30 9198 C 900.101 1.07546 -1.17924 0
M  V30 9199 C 900.301 2.01496 -0.0128897 0
M  V30 9200 O 899.357 2.44039 0.64816 0
M  V30 9201 C 900.67 1.67647 -2.49629 0
M  V30 9202 C 902.218 1.79923 -2.56119 0
M  V30 9203 C 902.693 2.43438 -3.87946 0
M  V30 9204 N 904.184 2.50893 -3.89368 0
M  V30 9205 C 904.919 3.00881 -4.88117 0
M  V30 9206 N 904.415 3.5107 -5.97262 0
M  V30 9207 N 906.208 2.99722 -4.75524 0
M  V30 9208 H 898.359 0.151524 -2.11859 0
M  V30 9209 H 900.622 0.129845 -0.939066 0
M  V30 9210 H 900.328 1.06082 -3.3532 0
M  V30 9211 H 900.202 2.66988 -2.66453 0
M  V30 9212 H 902.589 2.40621 -1.70838 0
M  V30 9213 H 902.67 0.793482 -2.43182 0
M  V30 9214 H 902.314 1.8338 -4.73639 0
M  V30 9215 H 902.244 3.44611 -3.98184 0
M  V30 9216 H 904.735 2.1537 -3.10522 0
M  V30 9217 H 905.048 3.87604 -6.68568 0
M  V30 9218 H 903.393 3.49184 -6.00912 0
M  V30 9219 H 906.584 2.5981 -3.8938 0
M  V30 9220 H 906.757 3.38369 -5.52639 0
M  V30 9221 N 900.163 1.21714 1.00117 0
M  V30 9222 C 901.391 1.06278 1.77518 0
M  V30 9223 C 901.806 -0.387193 1.84787 0
M  V30 9224 O 901.163 -1.26854 1.31203 0
M  V30 9225 C 901.214 1.65795 3.21239 0
M  V30 9226 O 900.935 3.05119 3.14378 0
M  V30 9227 C 902.436 1.55521 4.15124 0
M  V30 9228 H 899.656 0.373013 0.557765 0
M  V30 9229 H 902.2 1.61133 1.25922 0
M  V30 9230 H 900.355 1.15022 3.69931 0
M  V30 9231 H 900.769 3.33643 4.04701 0
M  V30 9232 H 902.243 2.01902 5.13751 0
M  V30 9233 H 902.72 0.510307 4.36225 0
M  V30 9234 H 903.326 2.0556 3.72324 0
M  V30 9235 N 901.641 -1.19671 1.02551 0
M  V30 9236 C 902.889 -1.88894 0.71858 0
M  V30 9237 C 903.21 -1.79797 -0.754856 0
M  V30 9238 O 902.48 -1.20621 -1.54362 0
M  V30 9239 H 901.06 -0.699244 0.262806 0
M  V30 9240 H 903.722 -1.45298 1.29902 0
M  V30 9241 H 902.818 -2.95309 1.00989 0
M  V30 9242 N 903.119 -0.802921 -1.35613 0
M  V30 9243 C 904.051 -0.168461 -2.2858 0
M  V30 9244 C 905.064 0.630123 -1.50111 0
M  V30 9245 O 906.253 0.463086 -1.72388 0
M  V30 9246 C 903.353 0.783943 -3.29708 0
M  V30 9247 C 902.526 0.0325165 -4.37388 0
M  V30 9248 C 901.585 0.902859 -5.18396 0
M  V30 9249 O 900.611 0.355144 -5.68091 0
M  V30 9250 N 901.813 2.22542 -5.36149 0
M  V30 9251 H 904.578 -0.96709 -2.83668 0
M  V30 9252 H 902.139 -0.658043 -1.47924 0
M  V30 9253 H 904.131 1.37034 -3.80794 0
M  V30 9254 H 902.701 1.48339 -2.75162 0
M  V30 9255 H 901.921 -0.735057 -3.87286 0
M  V30 9256 H 903.209 -0.485499 -5.06478 0
M  V30 9257 H 902.607 2.69439 -4.97412 0
M  V30 9258 H 901.164 2.76113 -5.90428 0
M  V30 9259 N 904.597 1.47463 -0.556102 0
M  V30 9260 C 905.527 2.32801 0.180497 0
M  V30 9261 C 906.508 1.43721 0.909848 0
M  V30 9262 O 907.693 1.72578 0.89053 0
M  V30 9263 C 904.823 3.25478 1.21167 0
M  V30 9264 C 903.777 4.2379 0.598846 0
M  V30 9265 C 903.103 5.05783 1.73457 0
M  V30 9266 C 904.403 5.20387 -0.446659 0
M  V30 9267 H 906.097 2.94636 -0.531956 0
M  V30 9268 H 903.643 1.41683 -0.257267 0
M  V30 9269 H 905.596 3.8402 1.73513 0
M  V30 9270 H 904.32 2.61695 1.95405 0
M  V30 9271 H 902.979 3.66472 0.0966897 0
M  V30 9272 H 902.627 4.38405 2.46596 0
M  V30 9273 H 902.327 5.72343 1.33031 0
M  V30 9274 H 903.851 5.67183 2.26131 0
M  V30 9275 H 905.265 5.73299 -0.00930019 0
M  V30 9276 H 903.662 5.95143 -0.769735 0
M  V30 9277 H 904.732 4.65932 -1.34295 0
M  V30 9278 N 906.075 0.2925 1.54862 0
M  V30 9279 C 907.005 -0.580677 2.26165 0
M  V30 9280 C 907.986 -1.14485 1.25806 0
M  V30 9281 O 909.171 -1.17577 1.54562 0
M  V30 9282 C 906.301 -1.75668 2.99596 0
M  V30 9283 C 905.255 -1.32325 4.07031 0
M  V30 9284 C 904.581 -2.58374 4.68131 0
M  V30 9285 C 905.881 -0.460703 5.20264 0
M  V30 9286 H 907.575 0.0140075 2.99397 0
M  V30 9287 H 905.121 0.00817706 1.43998 0
M  V30 9288 H 907.074 -2.37356 3.48195 0
M  V30 9289 H 905.798 -2.37747 2.23928 0
M  V30 9290 H 904.457 -0.729477 3.59269 0
M  V30 9291 H 904.105 -3.18749 3.89112 0
M  V30 9292 H 903.805 -2.30078 5.40683 0
M  V30 9293 H 905.329 -3.2088 5.19489 0
M  V30 9294 H 906.743 -0.983037 5.64809 0
M  V30 9295 H 905.14 -0.271881 5.99484 0
M  V30 9296 H 906.21 0.516304 4.82143 0
M  V30 9297 N 907.553 -1.57587 0.0200696 0
M  V30 9298 C 908.485 -2.06555 -0.993359 0
M  V30 9299 C 909.498 -0.987227 -1.29451 0
M  V30 9300 O 910.687 -1.26361 -1.26075 0
M  V30 9301 C 907.787 -2.4675 -2.3231 0
M  V30 9302 C 906.96 -3.77554 -2.20843 0
M  V30 9303 C 906.019 -4.04397 -3.36674 0
M  V30 9304 O 905.045 -4.7478 -3.13963 0
M  V30 9305 N 906.247 -3.53861 -4.60176 0
M  V30 9306 H 909.012 -2.9412 -0.575617 0
M  V30 9307 H 906.573 -1.61038 -0.166889 0
M  V30 9308 H 908.565 -2.61806 -3.08609 0
M  V30 9309 H 907.135 -1.64598 -2.65756 0
M  V30 9310 H 906.355 -3.72382 -1.29327 0
M  V30 9311 H 907.643 -4.63271 -2.10375 0
M  V30 9312 H 907.041 -2.96904 -4.81523 0
M  V30 9313 H 905.598 -3.74213 -5.33674 0
M  V30 9314 N 909.032 0.252966 -1.55557 0
M  V30 9315 C 910.28 0.979912 -1.76754 0
M  V30 9316 C 910.601 1.86083 -0.582944 0
M  V30 9317 O 909.871 1.91742 0.401497 0
M  V30 9318 H 908.451 0.364805 -0.651864 0
M  V30 9319 H 911.113 0.272372 -1.92987 0
M  V30 9320 H 910.209 1.60518 -2.67657 0
M  V30 9321 N 910.51 1.48831 0.518367 0
M  V30 9322 C 911.756 1.57672 1.27543 0
M  V30 9323 C 912.089 0.254915 1.9252 0
M  V30 9324 O 911.364 -0.740107 1.79868 0
M  V30 9325 C 911.647 2.72345 2.35585 0
M  V30 9326 C 911.5 4.14267 1.75224 0
M  V30 9327 C 912.819 2.82726 3.37274 0
M  V30 9328 H 909.938 0.573926 0.462361 0
M  V30 9329 H 912.58 1.8105 0.576267 0
M  V30 9330 H 910.73 2.52543 2.95219 0
M  V30 9331 H 912.402 4.45539 1.19551 0
M  V30 9332 H 910.645 4.20724 1.05706 0
M  V30 9333 H 911.316 4.90345 2.53507 0
M  V30 9334 H 913.792 3.00699 2.8761 0
M  V30 9335 H 912.668 3.6467 4.10252 0
M  V30 9336 H 912.929 1.9136 3.9854 0
M  V30 9337 N 911.988 -0.768124 1.37614 0
M  V30 9338 C 912.935 -1.88151 1.33671 0
M  V30 9339 C 913.905 -1.64871 0.201645 0
M  V30 9340 O 915.09 -1.86739 0.391582 0
M  V30 9341 C 912.23 -3.25264 1.15314 0
M  V30 9342 C 911.343 -3.60473 2.38082 0
M  V30 9343 C 910.478 -4.86814 2.12569 0
M  V30 9344 C 909.517 -5.14765 3.31184 0
M  V30 9345 N 908.654 -6.32295 3.052 0
M  V30 9346 H 913.494 -1.90857 2.28862 0
M  V30 9347 H 911.031 -0.933048 1.13722 0
M  V30 9348 H 912.989 -4.04364 1.02691 0
M  V30 9349 H 911.619 -3.21924 0.237689 0
M  V30 9350 H 910.671 -2.7633 2.61431 0
M  V30 9351 H 911.983 -3.77065 3.26532 0
M  V30 9352 H 911.137 -5.73826 1.96999 0
M  V30 9353 H 909.876 -4.72333 1.21462 0
M  V30 9354 H 908.881 -4.26227 3.4729 0
M  V30 9355 H 910.106 -5.31153 4.23147 0
M  V30 9356 H 908.052 -6.19166 2.16726 0
M  V30 9357 H 907.969 -6.4932 3.87195 0
M  V30 9358 H 909.237 -7.22234 2.93254 0
M  V30 9359 N 913.466 -1.22244 -0.994698 0
M  V30 9360 C 914.696 -1.07062 -1.76695 0
M  V30 9361 C 915.104 0.381895 -1.85306 0
M  V30 9362 O 914.447 1.27648 -1.32105 0
M  V30 9363 C 914.509 -1.60487 -3.2169 0
M  V30 9364 C 914.173 -3.09079 -3.36629 0
M  V30 9365 C 915.17 -4.06526 -3.24088 0
M  V30 9366 C 912.855 -3.48497 -3.61739 0
M  V30 9367 C 914.849 -5.41377 -3.36437 0
M  V30 9368 C 912.536 -4.83498 -3.73729 0
M  V30 9369 C 913.534 -5.79747 -3.61086 0
M  V30 9370 O 913.222 -7.12297 -3.72678 0
M  V30 9371 H 912.954 -0.375963 -0.561807 0
M  V30 9372 H 915.508 -1.62259 -1.25941 0
M  V30 9373 H 913.738 -0.996957 -3.73628 0
M  V30 9374 H 915.427 -1.40994 -3.80625 0
M  V30 9375 H 916.193 -3.77415 -3.04602 0
M  V30 9376 H 912.072 -2.74106 -3.70657 0
M  V30 9377 H 915.616 -6.16485 -3.26485 0
M  V30 9378 H 911.513 -5.1229 -3.92721 0
M  V30 9379 H 912.281 -7.1985 -3.89562 0
M  V30 9380 N 914.944 1.19125 -1.03184 0
M  V30 9381 C 916.221 1.84674 -0.644574 0
M  V30 9382 C 916.601 1.92042 0.876534 0
M  V30 9383 O 915.949 1.43965 1.77444 0
M  V30 9384 C 916.159 3.23477 -1.3101 0
M  V30 9385 C 917.507 3.99608 -1.43524 0
M  V30 9386 O 918.531 3.32886 -1.2675 0
M  V30 9387 O 917.39 5.19132 -1.70776 0
M  V30 9388 H 914.484 0.795968 -0.22442 0
M  V30 9389 H 917.03 1.2659 -1.13018 0
M  V30 9390 H 915.802 3.12967 -2.34878 0
M  V30 9391 H 915.425 3.89209 -0.812547 0
M  V30 9392 N 916.422 0.810101 1.35185 0
M  V30 9393 C 917.833 0.452616 1.81131 0
M  V30 9394 C 918.184 -1.02573 1.67252 0
M  V30 9395 O 917.309 -1.79735 1.20516 0
M  V30 9396 C 917.904 0.814775 3.28857 0
M  V30 9397 C 916.463 0.509839 3.72931 0
M  V30 9398 C 915.61 1.03852 2.57119 0
M  V30 9399 H 918.561 1.00143 1.23114 0
M  V30 9400 H 918.582 0.113635 3.8033 0
M  V30 9401 H 918.094 1.89078 3.38926 0
M  V30 9402 H 916.195 -0.557289 3.68409 0
M  V30 9403 H 916.308 1.04493 4.67566 0
M  V30 9404 H 914.672 0.460671 2.50499 0
M  V30 9405 H 915.455 2.12071 2.69964 0
M  V30 9406 N 917.9 -1.47166 0.563914 0
M  V30 9407 C 918.863 -2.28571 -0.169624 0
M  V30 9408 C 919.863 -1.37331 -0.836467 0
M  V30 9409 O 921.053 -1.59896 -0.6913 0
M  V30 9410 C 918.185 -3.17201 -1.24886 0
M  V30 9411 H 919.378 -2.94896 0.545539 0
M  V30 9412 H 916.931 -1.52966 0.321121 0
M  V30 9413 H 917.666 -2.55582 -1.99621 0
M  V30 9414 H 917.451 -3.84356 -0.775426 0
M  V30 9415 H 918.941 -3.7852 -1.76388 0
M  V30 9416 N 919.378 -0.300708 -1.54705 0
M  V30 9417 C 920.325 0.57552 -2.23509 0
M  V30 9418 C 921.295 1.12979 -1.21758 0
M  V30 9419 O 922.48 1.17437 -1.50377 0
M  V30 9420 C 919.62 1.74167 -2.97926 0
M  V30 9421 C 918.733 1.21882 -4.1445 0
M  V30 9422 C 917.868 2.34881 -4.7645 0
M  V30 9423 C 916.907 1.79729 -5.85119 0
M  V30 9424 N 916.044 2.863 -6.41075 0
M  V30 9425 H 920.884 -0.0178257 -2.97995 0
M  V30 9426 H 918.421 -0.0205666 -1.47086 0
M  V30 9427 H 920.379 2.42753 -3.39303 0
M  V30 9428 H 919.009 2.30665 -2.25817 0
M  V30 9429 H 918.061 0.425227 -3.78016 0
M  V30 9430 H 919.373 0.775065 -4.92741 0
M  V30 9431 H 918.527 3.11415 -5.20678 0
M  V30 9432 H 917.266 2.82584 -3.97489 0
M  V30 9433 H 916.271 1.01684 -5.40315 0
M  V30 9434 H 917.496 1.32931 -6.65963 0
M  V30 9435 H 915.442 3.33337 -5.64998 0
M  V30 9436 H 915.359 2.46419 -7.14712 0
M  V30 9437 H 916.627 3.62732 -6.89961 0
M  V30 9438 N 920.856 1.57574 -0.0284266 0
M  V30 9439 C 922.102 1.92056 0.651327 0
M  V30 9440 C 922.435 0.905092 1.71819 0
M  V30 9441 O 921.71 -0.0722703 1.94366 0
M  V30 9442 C 921.993 3.37021 1.26841 0
M  V30 9443 C 921.846 4.49304 0.211157 0
M  V30 9444 C 923.165 3.81936 2.18662 0
M  V30 9445 H 920.284 0.698428 0.235304 0
M  V30 9446 H 922.926 1.89807 -0.0855435 0
M  V30 9447 H 921.076 3.39068 1.89644 0
M  V30 9448 H 922.748 4.5939 -0.419379 0
M  V30 9449 H 920.991 4.31317 -0.463445 0
M  V30 9450 H 921.662 5.47764 0.682518 0
M  V30 9451 H 924.138 3.8162 1.65847 0
M  V30 9452 H 923.014 4.84064 2.58792 0
M  V30 9453 H 923.275 3.174 3.07749 0
M  V30 9454 N 922.334 -0.244713 1.55689 0
M  V30 9455 C 923.244 -1.32447 1.93636 0
M  V30 9456 C 924.26 -1.52541 0.837086 0
M  V30 9457 O 925.436 -1.66121 1.13867 0
M  V30 9458 C 922.501 -2.65864 2.22525 0
M  V30 9459 C 921.562 -2.54273 3.45896 0
M  V30 9460 C 920.795 -3.81327 3.73397 0
M  V30 9461 O 921.018 -4.83307 3.02936 0
M  V30 9462 O 919.952 -3.79829 4.66919 0
M  V30 9463 H 923.778 -1.03255 2.85608 0
M  V30 9464 H 921.363 -0.445652 1.42598 0
M  V30 9465 H 923.245 -3.447 2.42404 0
M  V30 9466 H 921.92 -2.94784 1.33731 0
M  V30 9467 H 920.827 -1.73715 3.31321 0
M  V30 9468 H 922.16 -2.30297 4.34999 0
M  V30 9469 N 923.813 -1.49104 -0.510467 0
M  V30 9470 C 924.776 -1.64569 -1.59529 0
M  V30 9471 C 925.776 -0.517937 -1.5223 0
M  V30 9472 O 926.966 -0.784183 -1.55551 0
M  V30 9473 C 924.098 -1.6342 -2.99177 0
M  V30 9474 H 925.291 -2.61318 -1.4715 0
M  V30 9475 H 922.844 -1.37993 -0.734001 0
M  V30 9476 H 923.579 -0.68221 -3.17043 0
M  V30 9477 H 923.364 -2.45312 -3.05883 0
M  V30 9478 H 924.854 -1.77474 -3.78011 0
M  V30 9479 N 925.291 0.760815 -1.38019 0
M  V30 9480 C 926.539 1.51673 -1.33566 0
M  V30 9481 C 926.86 1.94852 0.076024 0
M  V30 9482 O 926.13 1.67112 1.02227 0
M  V30 9483 H 924.71 0.562581 -0.491438 0
M  V30 9484 H 927.372 0.904832 -1.72623 0
M  V30 9485 H 926.468 2.41102 -1.98182 0
M  V30 9486 N 926.769 1.22769 0.988202 0
M  V30 9487 C 927.997 1.08155 1.76381 0
M  V30 9488 C 928.412 -0.367573 1.85187 0
M  V30 9489 O 927.769 -1.25455 1.32541 0
M  V30 9490 C 927.82 1.69193 3.19462 0
M  V30 9491 O 927.541 3.08437 3.11125 0
M  V30 9492 C 929.042 1.59915 4.13451 0
M  V30 9493 H 926.262 0.378908 0.553778 0
M  V30 9494 H 928.806 1.6246 1.24206 0
M  V30 9495 H 926.961 1.18939 3.6869 0
M  V30 9496 H 927.375 3.37916 4.0114 0
M  V30 9497 H 928.849 2.07339 5.1158 0
M  V30 9498 H 929.326 0.556546 4.3566 0
M  V30 9499 H 929.932 2.09497 3.70123 0
M  V30 9500 N 928.247 -1.18576 1.03814 0
M  V30 9501 C 929.18 -2.20929 0.571463 0
M  V30 9502 C 930.158 -1.57788 -0.392636 0
M  V30 9503 O 931.342 -1.85974 -0.30754 0
M  V30 9504 C 928.469 -3.38295 -0.165504 0
M  V30 9505 C 927.515 -4.19828 0.751457 0
M  V30 9506 S 928.348 -4.86725 2.23291 0
M  V30 9507 C 929.504 -6.07494 1.50672 0
M  V30 9508 H 929.737 -2.60173 1.43866 0
M  V30 9509 H 927.27 -1.2897 0.84888 0
M  V30 9510 H 929.228 -4.06317 -0.584545 0
M  V30 9511 H 927.889 -2.97468 -1.00855 0
M  V30 9512 H 927.082 -5.03671 0.181986 0
M  V30 9513 H 926.684 -3.57172 1.10923 0
M  V30 9514 H 928.976 -6.72779 0.798377 0
M  V30 9515 H 929.919 -6.68942 2.3221 0
M  V30 9516 H 930.327 -5.55569 1.00016 0
M  V30 9517 N 929.725 -0.817259 -1.34754 0
M  V30 9518 C 930.655 -0.249769 -2.3216 0
M  V30 9519 C 931.636 0.630663 -1.57977 0
M  V30 9520 O 932.821 0.558719 -1.85989 0
M  V30 9521 C 929.951 0.593825 -3.42186 0
M  V30 9522 C 928.905 -0.188997 -4.27583 0
M  V30 9523 C 928.231 0.776979 -5.29025 0
M  V30 9524 C 929.531 -1.39401 -5.03354 0
M  V30 9525 H 931.225 -1.06359 -2.79872 0
M  V30 9526 H 928.771 -0.512894 -1.34556 0
M  V30 9527 H 930.724 1.00097 -4.09339 0
M  V30 9528 H 929.448 1.44064 -2.93109 0
M  V30 9529 H 928.107 -0.577445 -3.62024 0
M  V30 9530 H 927.755 1.61959 -4.76212 0
M  V30 9531 H 927.455 0.257448 -5.87036 0
M  V30 9532 H 928.979 1.18211 -5.99048 0
M  V30 9533 H 930.393 -1.06117 -5.63393 0
M  V30 9534 H 928.79 -1.84878 -5.70912 0
M  V30 9535 H 929.86 -2.17515 -4.33377 0
M  V30 9536 N 931.203 1.46865 -0.571711 0
M  V30 9537 C 932.433 2.06518 -0.0583129 0
M  V30 9538 C 932.841 1.4227 1.24723 0
M  V30 9539 O 932.184 0.518293 1.76237 0
M  V30 9540 C 932.246 3.5898 0.193214 0
M  V30 9541 C 931.91 4.45355 -1.02507 0
M  V30 9542 C 932.907 4.82575 -1.93435 0
M  V30 9543 C 930.592 4.86656 -1.24382 0
M  V30 9544 C 932.586 5.59912 -3.04595 0
M  V30 9545 C 930.273 5.63754 -2.35849 0
M  V30 9546 C 931.271 6.00294 -3.25785 0
M  V30 9547 O 930.959 6.75836 -4.35318 0
M  V30 9548 H 930.691 0.674188 -0.0494584 0
M  V30 9549 H 933.245 1.89644 -0.788934 0
M  V30 9550 H 931.475 3.7412 0.978319 0
M  V30 9551 H 933.164 4.006 0.653769 0
M  V30 9552 H 933.93 4.51256 -1.77745 0
M  V30 9553 H 929.809 4.57672 -0.55292 0
M  V30 9554 H 933.353 5.88351 -3.74818 0
M  V30 9555 H 929.25 5.94487 -2.51506 0
M  V30 9556 H 930.018 6.94247 -4.33547 0
M  V30 9557 N 932.681 0.308908 1.54543 0
M  V30 9558 C 933.927 -0.298478 2.00592 0
M  V30 9559 C 934.26 -1.52929 1.19692 0
M  V30 9560 O 933.535 -1.9254 0.27542 0
M  V30 9561 C 933.818 -0.647218 3.54236 0
M  V30 9562 C 933.671 0.593284 4.4587 0
M  V30 9563 C 934.99 -1.47064 4.14801 0
M  V30 9564 H 932.109 -0.107012 0.72919 0
M  V30 9565 H 934.751 0.422578 1.85241 0
M  V30 9566 H 932.901 -1.26153 3.67447 0
M  V30 9567 H 934.573 1.2317 4.44552 0
M  V30 9568 H 932.816 1.22501 4.16144 0
M  V30 9569 H 933.487 0.305018 5.51157 0
M  V30 9570 H 935.963 -0.951511 4.05075 0
M  V30 9571 H 934.839 -1.68343 5.22448 0
M  V30 9572 H 935.1 -2.4623 3.67183 0
M  V30 9573 N 934.159 -1.57557 0.0367827 0
M  V30 9574 C 935.122 -2.09591 -0.927589 0
M  V30 9575 C 936.122 -1.01252 -1.24919 0
M  V30 9576 O 937.312 -1.27382 -1.18825 0
M  V30 9577 C 934.444 -2.56816 -2.24184 0
M  V30 9578 H 935.637 -2.96086 -0.476784 0
M  V30 9579 H 933.19 -1.54864 -0.211385 0
M  V30 9580 H 933.925 -1.73673 -2.73876 0
M  V30 9581 H 933.71 -3.35973 -2.0215 0
M  V30 9582 H 935.2 -2.97271 -2.93291 0
M  V30 9583 N 935.637 0.236453 -1.55816 0
M  V30 9584 C 936.585 1.31259 -1.92025 0
M  V30 9585 C 937.579 1.49292 -0.800518 0
M  V30 9586 O 938.785 1.50643 -0.985229 0
M  V30 9587 H 935.16 0.439751 -0.610019 0
M  V30 9588 H 937.131 0.979926 -2.81851 0
M  V30 9589 C 935.88 2.65892 -2.24046 0
M  V30 9590 H 935.203 2.5282 -3.09713 0
M  V30 9591 H 936.643 3.40039 -2.53277 0
M  V30 9592 C 935.102 3.19777 -1.0604 0
M  V30 9593 O 935.632 4.00473 -0.313786 0
M  V30 9594 N 933.838 2.77946 -0.848209 0
M  V30 9595 H 933.385 2.12433 -1.45706 0
M  V30 9596 H 933.343 3.14342 -0.0603424 0
M  V30 9597 N 937.115 1.49373 0.502552 0
M  V30 9598 C 938.355 1.60398 1.26696 0
M  V30 9599 C 938.719 0.283599 1.89894 0
M  V30 9600 O 939.92 0.269022 2.6745 0
M  V30 9601 C 938.191 2.72998 2.30666 0
M  V30 9602 S 939.75 3.03964 3.16466 0
M  V30 9603 H 936.568 0.565781 0.430596 0
M  V30 9604 H 939.17 1.87024 0.569418 0
M  V30 9605 H 937.874 3.67458 1.82765 0
M  V30 9606 H 937.405 2.4836 3.05091 0
M  V30 9607 H 939.42 2.45367 4.31288 0
M  V30 9608 N 938.594 -0.753485 1.38421 0
M  V30 9609 C 939.84 -1.51485 1.34834 0
M  V30 9610 C 940.173 -1.94102 -0.0615381 0
M  V30 9611 O 939.448 -1.65439 -1.02274 0
M  V30 9612 C 939.731 -2.76736 2.30411 0
M  V30 9613 C 939.584 -2.40256 3.80259 0
M  V30 9614 C 940.903 -3.7876 2.24119 0
M  V30 9615 H 938.022 -0.549534 0.491102 0
M  V30 9616 H 940.664 -0.863006 1.6927 0
M  V30 9617 H 938.814 -3.32357 2.01175 0
M  V30 9618 H 940.486 -1.90409 4.20169 0
M  V30 9619 H 938.729 -1.72714 3.97935 0
M  V30 9620 H 939.4 -3.29869 4.42595 0
M  V30 9621 H 941.876 -3.32679 2.49928 0
M  V30 9622 H 940.752 -4.64092 2.93104 0
M  V30 9623 H 941.013 -4.24352 1.24006 0
M  V30 9624 N 940.072 -1.23292 -0.981677 0
M  V30 9625 C 941.319 -1.06424 -1.72279 0
M  V30 9626 C 941.647 0.399055 -1.90362 0
M  V30 9627 O 940.902 1.31181 -1.45224 0
M  V30 9628 C 941.201 -1.73339 -3.12551 0
M  V30 9629 C 940.867 -3.23256 -3.14351 0
M  V30 9630 C 939.529 -3.64159 -3.14549 0
M  V30 9631 C 941.881 -4.1916 -3.09765 0
M  V30 9632 C 939.209 -4.99428 -3.07877 0
M  V30 9633 C 941.561 -5.54419 -3.04635 0
M  V30 9634 C 940.225 -5.94688 -3.03154 0
M  V30 9635 H 939.495 -0.389434 -0.630415 0
M  V30 9636 H 942.142 -1.53208 -1.1489 0
M  V30 9637 H 940.447 -1.18911 -3.73319 0
M  V30 9638 H 942.144 -1.57767 -3.68661 0
M  V30 9639 H 938.734 -2.90693 -3.14953 0
M  V30 9640 H 942.918 -3.88569 -3.08753 0
M  V30 9641 H 938.174 -5.29844 -3.05083 0
M  V30 9642 H 942.348 -6.28448 -3.00043 0
M  V30 9643 H 939.975 -6.99468 -2.97739 0
M  V30 9644 N 941.55 1.18024 -1.04442 0
M  V30 9645 C 942.79 1.89787 -0.758957 0
M  V30 9646 C 943.154 1.78757 0.700707 0
M  V30 9647 O 944.355 2.45265 1.09994 0
M  V30 9648 C 942.626 3.36047 -1.21685 0
M  V30 9649 S 944.185 4.25864 -1.05761 0
M  V30 9650 H 941.003 0.655311 -0.275841 0
M  V30 9651 H 943.605 1.42589 -1.33749 0
M  V30 9652 H 942.309 3.41606 -2.2745 0
M  V30 9653 H 941.84 3.88286 -0.63227 0
M  V30 9654 H 943.855 4.96195 0.022729 0
M  V30 9655 N 943.028 0.824394 1.34319 0
M  V30 9656 C 943.978 0.219624 2.2694 0
M  V30 9657 C 944.962 -0.616964 1.48601 0
M  V30 9658 O 946.154 -0.471303 1.7061 0
M  V30 9659 C 943.283 -0.616379 3.37721 0
M  V30 9660 C 942.369 0.230917 4.23471 0
M  V30 9661 N 942.76 1.30264 4.88738 0
M  V30 9662 C 941.058 0.0155016 4.45997 0
M  V30 9663 C 941.759 1.82141 5.52449 0
M  V30 9664 N 940.735 1.12508 5.3183 0
M  V30 9665 H 944.537 1.03939 2.74907 0
M  V30 9666 H 942.051 0.667353 1.48055 0
M  V30 9667 H 944.048 -1.06582 4.03046 0
M  V30 9668 H 942.708 -1.43429 2.91304 0
M  V30 9669 H 943.719 1.68545 4.89707 0
M  V30 9670 H 940.396 -0.770128 4.10336 0
M  V30 9671 H 941.786 2.7181 6.14466 0
M  V30 9672 N 944.506 -1.46559 0.579492 0
M  V30 9673 C 945.754 -2.02 0.0637157 0
M  V30 9674 C 946.075 -1.45378 -1.29962 0
M  V30 9675 O 945.345 -0.637262 -1.85245 0
M  V30 9676 H 943.925 -0.746717 0.0205638 0
M  V30 9677 H 946.587 -1.79702 0.754544 0
M  V30 9678 H 945.683 -3.12099 -0.00770254 0
M  V30 9679 N 945.984 -0.3171 -1.54377 0
M  V30 9680 C 947.23 0.287836 -2.00747 0
M  V30 9681 C 947.563 1.52292 -1.20502 0
M  V30 9682 O 946.838 1.92391 -0.285626 0
M  V30 9683 C 947.121 0.628423 -3.54574 0
M  V30 9684 C 946.974 -0.616922 -4.45549 0
M  V30 9685 C 948.293 1.44862 -4.15575 0
M  V30 9686 H 945.412 0.103144 -0.729747 0
M  V30 9687 H 948.054 -0.432396 -1.85014 0
M  V30 9688 H 946.204 1.24203 -3.68111 0
M  V30 9689 H 947.876 -1.25526 -4.43893 0
M  V30 9690 H 946.119 -1.24706 -4.15489 0
M  V30 9691 H 946.79 -0.334243 -5.50987 0
M  V30 9692 H 949.266 0.930015 -4.05574 0
M  V30 9693 H 948.142 1.6557 -5.23333 0
M  V30 9694 H 948.403 2.44279 -3.68484 0
M  V30 9695 N 947.462 1.57535 -0.0451378 0
M  V30 9696 C 948.873 1.80116 0.491426 0
M  V30 9697 C 949.224 0.956846 1.71286 0
M  V30 9698 O 948.349 0.17173 2.15718 0
M  V30 9699 C 948.944 3.26674 0.898315 0
M  V30 9700 C 947.503 3.50194 1.37989 0
M  V30 9701 C 946.65 2.75054 0.352202 0
M  V30 9702 H 949.601 1.56368 -0.271065 0
M  V30 9703 H 949.622 3.37263 1.76164 0
M  V30 9704 H 949.134 3.88099 0.009141 0
M  V30 9705 H 947.235 2.94041 2.28846 0
M  V30 9706 H 947.348 4.58909 1.37622 0
M  V30 9707 H 945.712 2.4101 0.823784 0
M  V30 9708 H 946.495 3.39203 -0.528782 0
M  V30 9709 N 948.94 -0.228186 1.55939 0
M  V30 9710 C 950.188 -0.951668 1.78291 0
M  V30 9711 C 950.509 -1.85132 0.612474 0
M  V30 9712 O 949.779 -1.92356 -0.370942 0
M  V30 9713 H 948.359 -0.354388 0.657585 0
M  V30 9714 H 951.021 -0.241635 1.93396 0
M  V30 9715 H 950.117 -1.56239 2.70177 0
M  V30 9716 N 950.418 -1.49637 -0.494624 0
M  V30 9717 C 951.664 -1.59681 -1.25019 0
M  V30 9718 C 951.997 -0.285511 -1.9209 0
M  V30 9719 O 951.272 0.711398 -1.81023 0
M  V30 9720 C 951.555 -2.76058 -2.31222 0
M  V30 9721 C 951.408 -4.17002 -1.68611 0
M  V30 9722 C 952.727 -2.88056 -3.32734 0
M  V30 9723 H 949.846 -0.581209 -0.453172 0
M  V30 9724 H 952.488 -1.81944 -0.547391 0
M  V30 9725 H 950.638 -2.57207 -2.91164 0
M  V30 9726 H 952.31 -4.47385 -1.12447 0
M  V30 9727 H 950.553 -4.22352 -0.989991 0
M  V30 9728 H 951.224 -4.94316 -2.45674 0
M  V30 9729 H 953.7 -3.05237 -2.82789 0
M  V30 9730 H 952.576 -3.71151 -4.04399 0
M  V30 9731 H 952.837 -1.97676 -3.95445 0
M  V30 9732 N 951.896 0.746133 -1.38819 0
M  V30 9733 C 953.173 1.49652 -1.25951 0
M  V30 9734 C 953.553 2.10663 0.135833 0
M  V30 9735 O 952.901 1.97682 1.14604 0
M  V30 9736 C 953.111 2.5569 -2.37537 0
M  V30 9737 C 954.459 3.22385 -2.76321 0
M  V30 9738 O 955.483 2.65998 -2.36904 0
M  V30 9739 O 954.342 4.2439 -3.44319 0
M  V30 9740 H 951.436 0.664019 -0.492958 0
M  V30 9741 H 953.982 0.780908 -1.50665 0
M  V30 9742 H 952.754 2.08908 -3.30867 0
M  V30 9743 H 952.377 3.34823 -2.14427 0
M  V30 9744 N 953.375 1.23811 0.975125 0
M  V30 9745 C 954.791 1.0019 1.24234 0
M  V30 9746 C 954.991 -0.293811 1.99346 0
M  V30 9747 O 954.047 -1.01189 2.31337 0
M  V30 9748 C 955.36 2.21218 2.03674 0
M  V30 9749 C 956.908 2.25764 2.16793 0
M  V30 9750 C 957.383 3.46394 2.99626 0
M  V30 9751 N 958.874 3.46665 3.07209 0
M  V30 9752 C 959.609 4.3666 3.71639 0
M  V30 9753 N 959.105 5.36899 4.37849 0
M  V30 9754 N 960.898 4.2439 3.68578 0
M  V30 9755 H 953.049 2.07087 0.472076 0
M  V30 9756 H 955.312 0.90838 0.271201 0
M  V30 9757 H 955.018 3.15277 1.55862 0
M  V30 9758 H 954.892 2.22733 3.04417 0
M  V30 9759 H 957.279 1.32242 2.63811 0
M  V30 9760 H 957.36 2.28279 1.15422 0
M  V30 9761 H 957.004 4.40227 2.53304 0
M  V30 9762 H 956.934 3.41121 4.01178 0
M  V30 9763 H 959.425 2.74142 2.60105 0
M  V30 9764 H 959.738 6.01816 4.84807 0
M  V30 9765 H 958.083 5.40793 4.36541 0
M  V30 9766 H 961.274 3.4532 3.16025 0
M  V30 9767 H 961.447 4.94727 4.18508 0
M  V30 9768 N 954.853 -1.17469 1.05066 0
M  V30 9769 C 956.101 -1.87327 0.758485 0
M  V30 9770 C 956.422 -1.81358 -0.716549 0
M  V30 9771 O 955.692 -1.23868 -1.51768 0
M  V30 9772 H 954.272 -0.693512 0.277579 0
M  V30 9773 H 956.934 -1.4251 1.32954 0
M  V30 9774 H 956.03 -2.93101 1.0723 0
M  V30 9775 N 956.331 -0.831506 -1.3388 0
M  V30 9776 C 957.579 -0.422837 -1.97627 0
M  V30 9777 C 957.9 1.01961 -1.6622 0
M  V30 9778 O 957.17 1.70916 -0.957323 0
M  V30 9779 H 955.75 -0.153365 -0.731087 0
M  V30 9780 H 958.412 -1.06284 -1.6337 0
M  V30 9781 H 957.508 -0.548858 -3.07236 0
M  V30 9782 N 957.809 1.4625 -0.587256 0
M  V30 9783 C 958.757 2.32076 0.156108 0
M  V30 9784 C 959.751 1.44756 0.879887 0
M  V30 9785 O 960.957 1.61356 0.797759 0
M  V30 9786 H 957.332 0.748808 0.0692098 0
M  V30 9787 H 959.303 2.9258 -0.586497 0
M  V30 9788 C 958.052 3.28008 1.15352 0
M  V30 9789 H 957.375 3.9518 0.60601 0
M  V30 9790 H 958.815 3.90832 1.64396 0
M  V30 9791 C 957.274 2.53691 2.21681 0
M  V30 9792 O 957.804 2.30329 3.29107 0
M  V30 9793 N 956.01 2.14174 1.96412 0
M  V30 9794 H 955.557 2.33374 1.09061 0
M  V30 9795 H 955.515 1.6477 2.67765 0
M  V30 9796 N 959.287 0.325282 1.54207 0
M  V30 9797 C 960.536 -0.27768 1.99779 0
M  V30 9798 C 960.849 -1.5311 1.21723 0
M  V30 9799 O 962.055 -2.21017 1.57682 0
M  V30 9800 C 960.511 -0.545329 3.55745 0
M  V30 9801 C 960.119 0.691143 4.42637 0
M  V30 9802 C 961.863 -1.10815 4.09781 0
M  V30 9803 C 959.77 0.395302 5.90077 0
M  V30 9804 H 958.7 -0.107536 0.746292 0
M  V30 9805 H 961.351 0.437773 1.78202 0
M  V30 9806 H 959.733 -1.32101 3.73317 0
M  V30 9807 H 960.907 1.46653 4.3684 0
M  V30 9808 H 959.222 1.1743 3.99499 0
M  V30 9809 H 961.819 -1.34414 5.1753 0
M  V30 9810 H 962.162 -2.05806 3.6187 0
M  V30 9811 H 962.695 -0.393608 3.95848 0
M  V30 9812 H 959.434 1.31443 6.42186 0
M  V30 9813 H 958.954 -0.34235 5.98822 0
M  V30 9814 H 960.633 0.00576877 6.47 0
M  V30 9815 N 960.765 -1.57509 0.0534917 0
M  V30 9816 C 962.176 -1.80374 -0.481867 0
M  V30 9817 C 962.527 -0.965917 -1.70776 0
M  V30 9818 O 961.652 -0.183167 -2.15623 0
M  V30 9819 C 962.247 -3.27146 -0.880978 0
M  V30 9820 C 960.806 -3.50921 -1.3613 0
M  V30 9821 C 959.953 -2.75237 -0.337611 0
M  V30 9822 H 962.904 -1.56222 0.279353 0
M  V30 9823 H 962.925 -3.38193 -1.74373 0
M  V30 9824 H 962.437 -3.88098 0.011441 0
M  V30 9825 H 960.538 -2.95251 -2.27283 0
M  V30 9826 H 960.651 -4.59632 -1.35186 0
M  V30 9827 H 959.015 -2.41444 -0.810991 0
M  V30 9828 H 959.798 -3.38918 0.546763 0
M  V30 9829 N 962.243 0.219913 -1.56058 0
M  V30 9830 C 963.191 1.29215 -1.93407 0
M  V30 9831 C 964.185 1.48434 -0.816307 0
M  V30 9832 O 965.391 1.49589 -1.00115 0
M  V30 9833 H 961.766 0.433256 -0.614649 0
M  V30 9834 H 963.737 0.949977 -2.82875 0
M  V30 9835 C 962.486 2.63501 -2.26854 0
M  V30 9836 H 961.809 2.4952 -3.12377 0
M  V30 9837 H 963.249 3.37334 -2.56869 0
M  V30 9838 C 961.708 3.18634 -1.09425 0
M  V30 9839 O 962.238 4.00117 -0.356243 0
M  V30 9840 N 960.444 2.7703 -0.877642 0
M  V30 9841 H 959.991 2.10875 -1.47951 0
M  V30 9842 H 959.949 3.1426 -0.0936792 0
M  V30 9843 N 963.721 1.49897 0.486681 0
M  V30 9844 C 964.651 1.7054 1.59494 0
M  V30 9845 C 965.632 0.554184 1.60819 0
M  V30 9846 O 966.817 0.791617 1.77333 0
M  V30 9847 C 963.947 1.78517 2.97908 0
M  V30 9848 C 962.901 2.93571 3.11449 0
M  V30 9849 C 962.227 2.86674 4.51356 0
M  V30 9850 C 963.527 4.34308 2.90127 0
M  V30 9851 H 965.221 2.63329 1.42472 0
M  V30 9852 H 962.767 1.2672 0.683969 0
M  V30 9853 H 964.72 1.91544 3.75352 0
M  V30 9854 H 963.444 0.823381 3.16051 0
M  V30 9855 H 962.103 2.80169 2.36433 0
M  V30 9856 H 961.751 1.88373 4.66395 0
M  V30 9857 H 961.451 3.63903 4.61355 0
M  V30 9858 H 962.975 3.01728 5.30841 0
M  V30 9859 H 964.389 4.48317 3.57331 0
M  V30 9860 H 962.786 5.12869 3.11585 0
M  V30 9861 H 963.856 4.47759 1.86119 0
M  V30 9862 N 965.199 -0.738761 1.39212 0
M  V30 9863 C 966.447 -1.49529 1.35962 0
M  V30 9864 C 966.768 -1.94948 -0.0450152 0
M  V30 9865 O 966.038 -1.68717 -0.995552 0
M  V30 9866 H 964.618 -0.554692 0.500326 0
M  V30 9867 H 967.28 -0.877255 1.74041 0
M  V30 9868 H 966.376 -2.37919 2.01993 0
M  V30 9869 N 966.677 -1.24326 -0.968545 0
M  V30 9870 C 967.907 -1.10786 -1.74385 0
M  V30 9871 C 968.315 0.342503 -1.86074 0
M  V30 9872 O 967.658 1.24817 -1.34782 0
M  V30 9873 C 967.72 -1.67274 -3.18213 0
M  V30 9874 C 967.384 -3.1615 -3.29998 0
M  V30 9875 C 968.381 -4.13309 -3.15392 0
M  V30 9876 C 966.066 -3.56092 -3.54265 0
M  V30 9877 C 968.06 -5.48392 -3.24878 0
M  V30 9878 C 965.747 -4.91316 -3.63389 0
M  V30 9879 C 966.745 -5.87275 -3.48707 0
M  V30 9880 O 966.433 -7.20041 -3.57485 0
M  V30 9881 H 966.165 -0.387795 -0.553706 0
M  V30 9882 H 968.719 -1.64894 -1.22471 0
M  V30 9883 H 966.949 -1.07598 -3.71429 0
M  V30 9884 H 968.638 -1.49036 -3.77549 0
M  V30 9885 H 969.404 -3.83792 -2.96528 0
M  V30 9886 H 965.283 -2.81907 -3.6476 0
M  V30 9887 H 968.827 -6.23271 -3.13335 0
M  V30 9888 H 964.724 -5.20505 -3.81766 0
M  V30 9889 H 965.492 -7.27951 -3.74205 0
M  V30 9890 N 968.156 1.1691 -1.05688 0
M  V30 9891 C 969.089 2.19992 -0.606539 0
M  V30 9892 C 970.067 1.58393 0.367483 0
M  V30 9893 O 971.251 1.8644 0.277914 0
M  V30 9894 C 968.378 3.38516 0.111663 0
M  V30 9895 C 967.424 4.18579 -0.818153 0
M  V30 9896 S 968.257 4.83111 -2.31006 0
M  V30 9897 C 969.413 6.0502 -1.60317 0
M  V30 9898 H 969.646 2.57851 -1.47987 0
M  V30 9899 H 967.179 1.27604 -0.869291 0
M  V30 9900 H 969.137 4.07195 0.519829 0
M  V30 9901 H 967.798 2.99034 0.961103 0
M  V30 9902 H 966.991 5.03318 -0.262092 0
M  V30 9903 H 966.593 3.55362 -1.16592 0
M  V30 9904 H 968.885 6.71424 -0.905309 0
M  V30 9905 H 969.828 6.65164 -2.42823 0
M  V30 9906 H 970.236 5.53908 -1.08842 0
M  V30 9907 N 969.634 0.838594 1.33437 0
M  V30 9908 C 970.911 0.356112 1.92331 0
M  V30 9909 C 971.291 -1.1585 1.76471 0
M  V30 9910 O 970.639 -1.97281 1.15293 0
M  V30 9911 C 970.849 0.802715 3.39643 0
M  V30 9912 C 972.197 0.810575 4.16791 0
M  V30 9913 O 973.221 0.746304 3.48294 0
M  V30 9914 O 972.08 0.898082 5.3907 0
M  V30 9915 H 969.174 0.100711 0.820845 0
M  V30 9916 H 971.72 0.924428 1.42311 0
M  V30 9917 H 970.492 1.84529 3.45057 0
M  V30 9918 H 970.115 0.210956 3.9704 0
M  V30 9919 N 971.112 -1.45937 0.595003 0
M  V30 9920 C 972.075 -2.2888 -0.121102 0
M  V30 9921 C 973.075 -1.39075 -0.807149 0
M  V30 9922 O 974.265 -1.61326 -0.657228 0
M  V30 9923 C 971.397 -3.19778 -1.1813 0
M  V30 9924 H 972.59 -2.93673 0.607968 0
M  V30 9925 H 970.143 -1.5225 0.353495 0
M  V30 9926 H 970.878 -2.59759 -1.94154 0
M  V30 9927 H 970.663 -3.85914 -0.693724 0
M  V30 9928 H 972.153 -3.82176 -1.68319 0
M  V30 9929 N 972.59 -0.333456 -1.54032 0
M  V30 9930 C 973.815 0.270517 -2.05628 0
M  V30 9931 C 974.24 1.44231 -1.20744 0
M  V30 9932 O 973.598 1.79975 -0.218822 0
M  V30 9933 C 973.646 0.673251 -3.54259 0
M  V30 9934 O 972.75 1.77448 -3.72271 0
M  V30 9935 H 972.091 0.0469753 -0.662336 0
M  V30 9936 H 974.621 -0.484739 -1.98775 0
M  V30 9937 H 974.631 0.953194 -3.96709 0
M  V30 9938 H 973.306 -0.183747 -4.15494 0
M  V30 9939 H 971.883 1.49259 -3.41725 0
M  V30 9940 N 974.068 1.57479 -0.061844 0
M  V30 9941 C 975.298 1.97142 0.61794 0
M  V30 9942 C 975.706 0.938533 1.64281 0
M  V30 9943 O 975.049 -0.084385 1.83506 0
M  V30 9944 C 975.111 3.33083 1.35263 0
M  V30 9945 C 974.775 4.54447 0.482372 0
M  V30 9946 C 975.772 5.1927 -0.255954 0
M  V30 9947 C 973.457 5.00623 0.410167 0
M  V30 9948 C 975.451 6.28612 -1.05481 0
M  V30 9949 C 973.138 6.09839 -0.392369 0
M  V30 9950 C 974.136 6.73696 -1.12354 0
M  V30 9951 O 973.824 7.80811 -1.91285 0
M  V30 9952 H 973.556 0.653497 0.172969 0
M  V30 9953 H 976.11 2.05002 -0.127781 0
M  V30 9954 H 974.34 3.21808 2.14421 0
M  V30 9955 H 976.029 3.5742 1.92368 0
M  V30 9956 H 976.795 4.84546 -0.209703 0
M  V30 9957 H 972.674 4.50704 0.968883 0
M  V30 9958 H 976.218 6.78385 -1.62602 0
M  V30 9959 H 972.115 6.43997 -0.44022 0
M  V30 9960 H 972.883 7.9764 -1.83611 0
M  V30 9961 N 975.546 -0.211634 1.56173 0
M  V30 9962 C 976.795 -0.932647 1.78842 0
M  V30 9963 C 977.108 -1.85103 0.63217 0
M  V30 9964 O 978.314 -2.61143 0.742746 0
M  V30 9965 C 976.77 -1.70866 3.16753 0
M  V30 9966 C 976.378 -0.835934 4.40132 0
M  V30 9967 C 978.122 -2.4203 3.48743 0
M  V30 9968 C 976.029 -1.60987 5.69067 0
M  V30 9969 H 974.959 -0.351983 0.666801 0
M  V30 9970 H 977.61 -0.186284 1.82552 0
M  V30 9971 H 975.992 -2.4983 3.07247 0
M  V30 9972 H 977.166 -0.0861298 4.60719 0
M  V30 9973 H 975.481 -0.235941 4.15731 0
M  V30 9974 H 978.078 -3.00453 4.42303 0
M  V30 9975 H 978.421 -3.15406 2.71707 0
M  V30 9976 H 978.954 -1.70048 3.59623 0
M  V30 9977 H 975.693 -0.9192 6.49023 0
M  V30 9978 H 975.213 -2.33403 5.52524 0
M  V30 9979 H 976.892 -2.16798 6.09596 0
M  V30 9980 N 977.024 -1.50153 -0.478725 0
M  V30 9981 C 977.934 -1.71232 -1.60364 0
M  V30 9982 C 978.95 -0.595269 -1.63501 0
M  V30 9983 O 980.126 -0.872683 -1.81511 0
M  V30 9984 C 977.191 -1.79487 -2.96623 0
M  V30 9985 C 976.252 -3.03185 -3.03937 0
M  V30 9986 C 975.485 -3.11036 -4.33696 0
M  V30 9987 O 975.708 -2.2588 -5.23769 0
M  V30 9988 O 974.642 -4.03698 -4.46443 0
M  V30 9989 H 978.468 -2.66575 -1.45505 0
M  V30 9990 H 976.053 -1.34158 -0.65741 0
M  V30 9991 H 977.935 -1.8714 -3.77567 0
M  V30 9992 H 976.61 -0.873264 -3.11698 0
M  V30 9993 H 975.517 -3.01036 -2.22099 0
M  V30 9994 H 976.85 -3.94898 -2.93796 0
M  V30 9995 N 978.502 0.731368 -1.39602 0
M  V30 9996 C 979.45 1.86676 -1.38761 0
M  V30 9997 C 980.444 1.6723 -0.270247 0
M  V30 9998 O 981.65 1.74528 -0.440471 0
M  V30 9999 H 978.025 0.614553 -0.433391 0
M  V30 10000 H 979.996 1.84501 -2.34525 0
M  V30 10001 C 978.745 3.24394 -1.25155 0
M  V30 10002 H 978.068 3.39955 -2.10406 0
M  V30 10003 H 979.508 4.04019 -1.28625 0
M  V30 10004 C 977.967 3.36877 0.0396976 0
M  V30 10005 O 978.497 3.88833 1.00854 0
M  V30 10006 N 976.703 2.90414 0.103965 0
M  V30 10007 H 976.25 2.48321 -0.685155 0
M  V30 10008 H 976.208 2.99146 0.967435 0
M  V30 10009 N 979.98 1.24838 0.961938 0
M  V30 10010 C 980.91 1.07053 2.07514 0
M  V30 10011 C 981.891 -0.0182465 1.7009 0
M  V30 10012 O 983.076 0.149915 1.9362 0
M  V30 10013 C 980.206 0.680693 3.40564 0
M  V30 10014 C 979.16 1.71889 3.91967 0
M  V30 10015 C 978.486 1.18395 5.21428 0
M  V30 10016 C 979.786 3.1161 4.19161 0
M  V30 10017 H 981.48 2.00167 2.22651 0
M  V30 10018 H 979.026 0.963799 1.0699 0
M  V30 10019 H 980.979 0.54324 4.17884 0
M  V30 10020 H 979.703 -0.28615 3.25344 0
M  V30 10021 H 978.362 1.84465 3.16809 0
M  V30 10022 H 978.01 0.207543 5.02572 0
M  V30 10023 H 977.71 1.87778 5.56788 0
M  V30 10024 H 979.234 1.05873 6.01351 0
M  V30 10025 H 980.648 3.0223 4.87165 0
M  V30 10026 H 979.045 3.78398 4.65763 0
M  V30 10027 H 980.115 3.59218 3.25715 0
M  V30 10028 N 981.458 -1.16348 1.06306 0
M  V30 10029 C 982.869 -1.68491 0.80422 0
M  V30 10030 C 983.22 -1.84327 -0.672159 0
M  V30 10031 O 982.345 -1.53892 -1.52139 0
M  V30 10032 C 982.94 -3.06048 1.45328 0
M  V30 10033 C 981.499 -3.55311 1.24221 0
M  V30 10034 C 980.646 -2.31291 1.5297 0
M  V30 10035 H 983.597 -1.00708 1.22652 0
M  V30 10036 H 983.618 -3.70451 0.868674 0
M  V30 10037 H 983.13 -2.9449 2.52779 0
M  V30 10038 H 981.231 -3.72128 0.187447 0
M  V30 10039 H 981.344 -4.37397 1.95502 0
M  V30 10040 H 979.708 -2.3631 0.950241 0
M  V30 10041 H 980.491 -2.22331 2.6158 0
M  V30 10042 N 982.937 -0.845659 -1.3299 0
M  V30 10043 C 983.885 -0.272412 -2.30999 0
M  V30 10044 C 984.879 0.599311 -1.58444 0
M  V30 10045 O 986.085 0.488117 -1.73255 0
M  V30 10046 H 982.46 -0.0693751 -0.748793 0
M  V30 10047 H 984.431 -1.11343 -2.76849 0
M  V30 10048 C 983.18 0.532019 -3.43606 0
M  V30 10049 H 982.503 -0.129455 -3.9959 0
M  V30 10050 H 983.943 0.898853 -4.14363 0
M  V30 10051 C 982.402 1.71364 -2.90062 0
M  V30 10052 O 982.932 2.81252 -2.8681 0
M  V30 10053 N 981.138 1.53775 -2.4658 0
M  V30 10054 H 980.685 0.643836 -2.49424 0
M  V30 10055 H 980.643 2.32982 -2.11108 0
M  V30 10056 N 984.415 1.45619 -0.602734 0
M  V30 10057 C 985.662 2.02272 -0.0960337 0
M  V30 10058 C 985.99 1.47177 1.27159 0
M  V30 10059 O 985.245 0.634593 1.85125 0
M  V30 10060 C 985.544 3.574 -0.00157909 0
M  V30 10061 C 985.21 4.31626 -1.30422 0
M  V30 10062 C 983.872 4.51622 -1.66106 0
M  V30 10063 C 986.224 4.74091 -2.16535 0
M  V30 10064 C 983.552 5.11338 -2.87663 0
M  V30 10065 C 985.904 5.35151 -3.37336 0
M  V30 10066 C 984.568 5.53371 -3.73278 0
M  V30 10067 H 983.838 0.740166 -0.0351412 0
M  V30 10068 H 986.485 1.74744 -0.783382 0
M  V30 10069 H 984.79 3.84179 0.769008 0
M  V30 10070 H 986.487 3.98934 0.406549 0
M  V30 10071 H 983.077 4.16372 -1.01647 0
M  V30 10072 H 987.261 4.5838 -1.90266 0
M  V30 10073 H 982.517 5.23634 -3.15622 0
M  V30 10074 H 986.691 5.67011 -4.04316 0
M  V30 10075 H 984.318 5.99412 -4.67556 0
M  V30 10076 N 985.893 0.34162 1.53853 0
M  V30 10077 C 987.139 -0.255862 2.01179 0
M  V30 10078 C 987.472 -1.50356 1.22909 0
M  V30 10079 O 986.747 -1.91913 0.316198 0
M  V30 10080 C 987.03 -0.571934 3.55529 0
M  V30 10081 C 986.883 0.687727 4.44511 0
M  V30 10082 C 988.202 -1.38233 4.17827 0
M  V30 10083 H 985.321 -0.091521 0.731295 0
M  V30 10084 H 987.963 0.461775 1.84303 0
M  V30 10085 H 986.113 -1.18331 3.70041 0
M  V30 10086 H 987.785 1.32572 4.4184 0
M  V30 10087 H 986.028 1.313 4.13452 0
M  V30 10088 H 986.699 0.421858 5.50386 0
M  V30 10089 H 989.175 -0.865374 4.07002 0
M  V30 10090 H 988.051 -1.57223 5.25901 0
M  V30 10091 H 988.312 -2.38386 3.72323 0
M  V30 10092 N 987.371 -1.57444 0.0701946 0
M  V30 10093 C 988.618 -1.93429 -0.59929 0
M  V30 10094 C 988.946 -0.9501 -1.69715 0
M  V30 10095 O 988.201 0.0345377 -1.9567 0
M  V30 10096 C 988.5 -3.36044 -1.21694 0
M  V30 10097 C 988.166 -4.50232 -0.245374 0
M  V30 10098 C 986.828 -4.81195 0.0219161 0
M  V30 10099 C 989.18 -5.1951 0.419396 0
M  V30 10100 C 986.508 -5.78775 0.96109 0
M  V30 10101 C 988.86 -6.18095 1.34688 0
M  V30 10102 C 987.524 -6.47477 1.62265 0
M  V30 10103 H 986.794 -0.707807 -0.219296 0
M  V30 10104 H 989.441 -1.90982 0.14073 0
M  V30 10105 H 987.746 -3.34948 -2.03265 0
M  V30 10106 H 989.443 -3.61176 -1.74221 0
M  V30 10107 H 986.033 -4.26082 -0.463887 0
M  V30 10108 H 990.217 -4.95785 0.226009 0
M  V30 10109 H 985.473 -5.99865 1.18202 0
M  V30 10110 H 989.647 -6.7088 1.86795 0
M  V30 10111 H 987.274 -7.229 2.352 0
M  V30 10112 N 988.849 0.203349 -1.56283 0
M  V30 10113 C 989.796 1.25205 -1.93888 0
M  V30 10114 C 990.766 1.45654 -0.798376 0
M  V30 10115 O 991.951 1.58924 -1.05583 0
M  V30 10116 C 989.091 2.59355 -2.27659 0
M  V30 10117 C 988.204 2.46553 -3.54733 0
M  V30 10118 C 987.339 3.73351 -3.77865 0
M  V30 10119 C 986.378 3.55347 -4.98392 0
M  V30 10120 N 985.515 4.74137 -5.17821 0
M  V30 10121 H 990.355 0.924356 -2.83301 0
M  V30 10122 H 987.892 0.445082 -1.40205 0
M  V30 10123 H 989.85 3.375 -2.45254 0
M  V30 10124 H 988.48 2.90184 -1.41396 0
M  V30 10125 H 987.532 1.59749 -3.45231 0
M  V30 10126 H 988.844 2.2918 -4.43033 0
M  V30 10127 H 987.998 4.59937 -3.95655 0
M  V30 10128 H 986.737 3.9367 -2.8788 0
M  V30 10129 H 985.742 2.67146 -4.80534 0
M  V30 10130 H 986.967 3.36482 -5.89879 0
M  V30 10131 H 984.913 4.94735 -4.30782 0
M  V30 10132 H 984.83 4.59558 -6.00285 0
M  V30 10133 H 986.098 5.62098 -5.40061 0
M  V30 10134 N 990.327 1.50405 0.470755 0
M  V30 10135 C 991.575 1.61092 1.2204 0
M  V30 10136 C 991.896 0.313487 1.92464 0
M  V30 10137 O 991.166 -0.669043 1.84121 0
M  V30 10138 H 989.746 0.593618 0.45346 0
M  V30 10139 H 992.408 1.87184 0.542985 0
M  V30 10140 H 991.504 2.42222 1.96812 0
M  V30 10141 N 991.805 -0.723954 1.39988 0
M  V30 10142 C 993.216 -1.30273 1.33738 0
M  V30 10143 C 993.567 -1.96199 0.00690581 0
M  V30 10144 O 992.692 -1.97016 -0.895179 0
M  V30 10145 C 993.287 -2.36889 2.42217 0
M  V30 10146 C 991.846 -2.90412 2.39453 0
M  V30 10147 C 990.993 -1.64103 2.2353 0
M  V30 10148 H 993.944 -0.520672 1.49916 0
M  V30 10149 H 993.965 -3.17538 2.09642 0
M  V30 10150 H 993.477 -1.88878 3.39038 0
M  V30 10151 H 991.578 -3.42674 1.46304 0
M  V30 10152 H 991.691 -3.42775 3.34727 0
M  V30 10153 H 990.055 -1.88855 1.70897 0
M  V30 10154 H 990.838 -1.18128 3.22336 0
M  V30 10155 N 993.283 -1.25346 -0.955304 0
M  V30 10156 C 994.246 -1.05754 -2.03344 0
M  V30 10157 C 995.246 -0.0105743 -1.60797 0
M  V30 10158 O 996.436 -0.252699 -1.72357 0
M  V30 10159 C 993.568 -0.605536 -3.35479 0
M  V30 10160 H 994.761 -2.01459 -2.22158 0
M  V30 10161 H 992.314 -1.07744 -1.1323 0
M  V30 10162 H 993.049 0.354154 -3.2236 0
M  V30 10163 H 992.834 -1.36134 -3.67709 0
M  V30 10164 H 994.324 -0.489867 -4.14717 0
M  V30 10165 N 994.761 1.15782 -1.06922 0
M  V30 10166 C 995.694 2.19336 -0.629837 0
M  V30 10167 C 996.672 1.58774 0.350663 0
M  V30 10168 O 997.856 1.86724 0.258124 0
M  V30 10169 C 994.983 3.38615 0.0757526 0
M  V30 10170 C 994.029 4.17688 -0.862503 0
M  V30 10171 S 994.862 4.80634 -2.36117 0
M  V30 10172 C 996.018 6.03286 -1.66725 0
M  V30 10173 H 996.251 2.56267 -1.50714 0
M  V30 10174 H 993.784 1.26674 -0.882776 0
M  V30 10175 H 995.742 4.07724 0.476611 0
M  V30 10176 H 994.403 3.00037 0.929332 0
M  V30 10177 H 993.596 5.03012 -0.315461 0
M  V30 10178 H 993.198 3.54106 -1.20354 0
M  V30 10179 H 995.49 6.70426 -0.976472 0
M  V30 10180 H 996.433 6.62551 -2.49864 0
M  V30 10181 H 996.841 5.52722 -1.14711 0
M  V30 10182 N 996.239 0.8527 1.3254 0
M  V30 10183 C 997.485 0.455798 1.97612 0
M  V30 10184 C 997.818 -0.985616 1.6733 0
M  V30 10185 O 997.093 -1.69129 0.960493 0
M  V30 10186 C 997.376 0.69312 3.53366 0
M  V30 10187 C 997.229 2.18281 3.93285 0
M  V30 10188 C 998.548 0.148236 4.3985 0
M  V30 10189 H 995.667 0.167078 0.717812 0
M  V30 10190 H 998.309 1.07076 1.56954 0
M  V30 10191 H 996.459 0.169677 3.88129 0
M  V30 10192 H 998.131 2.77218 3.68711 0
M  V30 10193 H 996.374 2.66206 3.42515 0
M  V30 10194 H 997.045 2.29957 5.01821 0
M  V30 10195 H 999.521 0.595834 4.11812 0
M  V30 10196 H 998.397 0.343873 5.47822 0
M  V30 10197 H 998.658 -0.948872 4.31797 0
M  V30 10198 N 997.718 -1.45297 0.610449 0
M  V30 10199 C 999.134 -1.57225 0.274332 0
M  V30 10200 C 999.334 -1.60136 -1.22306 0
M  V30 10201 O 998.39 -1.5332 -2.00622 0
M  V30 10202 C 999.703 -2.85365 0.948028 0
M  V30 10203 C 1001.25 -2.99044 0.924216 0
M  V30 10204 C 1001.73 -4.29958 1.57798 0
M  V30 10205 N 1003.22 -4.36723 1.5436 0
M  V30 10206 C 1003.95 -5.36695 2.01857 0
M  V30 10207 N 1003.45 -6.43187 2.57453 0
M  V30 10208 N 1005.24 -5.28071 1.92608 0
M  V30 10209 H 997.392 -1.41651 1.58268 0
M  V30 10210 H 999.655 -0.67744 0.663158 0
M  V30 10211 H 999.361 -2.89125 2.00249 0
M  V30 10212 H 999.235 -3.74222 0.473062 0
M  V30 10213 H 1001.62 -2.94849 -0.121709 0
M  V30 10214 H 1001.7 -2.1159 1.43748 0
M  V30 10215 H 1001.35 -4.34912 2.62325 0
M  V30 10216 H 1001.28 -5.16234 1.03972 0
M  V30 10217 H 1003.77 -3.60374 1.13749 0
M  V30 10218 H 1004.08 -7.15722 2.91482 0
M  V30 10219 H 1002.43 -6.4393 2.61493 0
M  V30 10220 H 1005.62 -4.43783 1.48912 0
M  V30 10221 H 1005.79 -6.05832 2.29938 0
M  V30 10222 N 999.196 -0.349774 -1.5367 0
M  V30 10223 C 1000.44 0.244343 -2.00617 0
M  V30 10224 C 1000.76 1.50567 -1.23914 0
M  V30 10225 O 1000.03 1.92784 -0.348016 0
M  V30 10226 H 998.615 0.0932792 -0.741153 0
M  V30 10227 H 1001.28 -0.472367 -1.89089 0
M  V30 10228 H 1000.37 0.482433 -3.08349 0
M  V30 10229 N 1000.67 1.57404 -0.0785433 0
M  V30 10230 C 1001.61 2.08724 0.922464 0
M  V30 10231 C 1002.58 0.993912 1.28686 0
M  V30 10232 O 1003.77 1.26776 1.39499 0
M  V30 10233 C 1000.9 2.55051 2.2286 0
M  V30 10234 C 999.942 3.75884 2.01528 0
M  V30 10235 S 1000.77 5.2026 1.26844 0
M  V30 10236 C 1001.93 5.69924 2.58723 0
M  V30 10237 H 1002.16 2.93304 0.485807 0
M  V30 10238 H 999.697 1.53814 0.134377 0
M  V30 10239 H 1001.65 2.82402 2.97926 0
M  V30 10240 H 1000.32 1.70727 2.63649 0
M  V30 10241 H 999.509 4.06311 2.98207 0
M  V30 10242 H 999.111 3.48941 1.34596 0
M  V30 10243 H 1001.4 5.7718 3.5478 0
M  V30 10244 H 1002.35 6.68704 2.32897 0
M  V30 10245 H 1002.75 4.97773 2.66237 0
M  V30 10246 N 1002.15 -0.195058 1.56388 0
M  V30 10247 C 1003.56 -0.75973 1.70543 0
M  V30 10248 C 1003.91 -1.83849 0.685118 0
M  V30 10249 O 1003.04 -2.15819 -0.158457 0
M  V30 10250 C 1003.63 -1.38485 3.09204 0
M  V30 10251 C 1002.19 -1.89661 3.25124 0
M  V30 10252 C 1001.34 -0.766563 2.66494 0
M  V30 10253 H 1004.29 0.0300148 1.58672 0
M  V30 10254 H 1004.31 -2.25424 3.06536 0
M  V30 10255 H 1003.82 -0.599479 3.83442 0
M  V30 10256 H 1001.92 -2.70917 2.55802 0
M  V30 10257 H 1002.04 -2.05837 4.32629 0
M  V30 10258 H 1000.4 -1.18086 2.25672 0
M  V30 10259 H 1001.18 0.00657102 3.43299 0
M  V30 10260 N 1003.63 -1.50653 -0.462772 0
M  V30 10261 C 1004.91 -1.5258 -1.22387 0
M  V30 10262 C 1005.29 -0.275263 -2.09298 0
M  V30 10263 O 1004.63 0.740943 -2.16153 0
M  V30 10264 C 1004.84 -2.82611 -2.04773 0
M  V30 10265 C 1006.19 -3.33592 -2.62681 0
M  V30 10266 O 1007.22 -2.83989 -2.15008 0
M  V30 10267 O 1006.08 -4.20081 -3.49563 0
M  V30 10268 H 1003.17 -0.612367 -0.55582 0
M  V30 10269 H 1005.72 -1.62948 -0.473914 0
M  V30 10270 H 1004.49 -3.65098 -1.40781 0
M  V30 10271 H 1004.11 -2.75286 -2.86886 0
M  V30 10272 N 1005.11 0.71652 -1.4037 0
M  V30 10273 C 1006.36 1.47638 -1.38597 0
M  V30 10274 C 1006.68 1.94496 0.0120141 0
M  V30 10275 O 1005.94 1.68437 0.996373 0
M  V30 10276 C 1006.24 2.71777 -2.32103 0
M  V30 10277 C 1005.9 2.43689 -3.79376 0
M  V30 10278 C 1004.57 2.35739 -4.195 0
M  V30 10279 C 1006.92 2.20099 -4.72447 0
M  V30 10280 C 1004.25 2.02265 -5.50732 0
M  V30 10281 C 1006.6 1.88138 -6.03976 0
M  V30 10282 C 1005.26 1.78669 -6.43143 0
M  V30 10283 H 1004.53 0.540246 -0.507163 0
M  V30 10284 H 1007.18 0.820822 -1.73017 0
M  V30 10285 H 1005.48 3.42166 -1.90865 0
M  V30 10286 H 1007.18 3.29864 -2.28015 0
M  V30 10287 H 1003.77 2.50763 -3.47585 0
M  V30 10288 H 1007.95 2.25198 -4.42266 0
M  V30 10289 H 1003.21 1.93471 -5.79982 0
M  V30 10290 H 1007.38 1.68898 -6.75608 0
M  V30 10291 H 1005.01 1.52498 -7.44747 0
M  V30 10292 N 1006.59 1.25851 0.948643 0
M  V30 10293 C 1007.81 1.13711 1.72851 0
M  V30 10294 C 1008.23 -0.308471 1.86263 0
M  V30 10295 O 1007.59 -1.21175 1.36465 0
M  V30 10296 C 1007.64 1.79271 3.13918 0
M  V30 10297 O 1007.36 3.18179 3.01154 0
M  V30 10298 C 1008.86 1.72988 4.08154 0
M  V30 10299 H 1006.08 0.396334 0.541443 0
M  V30 10300 H 1008.62 1.66329 1.18974 0
M  V30 10301 H 1006.78 1.30609 3.64719 0
M  V30 10302 H 1007.19 3.50507 3.90186 0
M  V30 10303 H 1008.67 2.2351 5.04725 0
M  V30 10304 H 1009.14 0.694866 4.33668 0
M  V30 10305 H 1009.75 2.21166 3.63271 0
M  V30 10306 N 1008.06 -1.15214 1.07534 0
M  V30 10307 C 1009.31 -1.85676 0.79805 0
M  V30 10308 C 1009.63 -1.82837 -0.677919 0
M  V30 10309 O 1008.9 -1.27059 -1.49107 0
M  V30 10310 H 1007.48 -0.687468 0.292227 0
M  V30 10311 H 1010.15 -1.39658 1.35947 0
M  V30 10312 H 1009.24 -2.9076 1.13423 0
M  V30 10313 N 1009.54 -0.859717 -1.32086 0
M  V30 10314 C 1010.49 -0.306042 -2.28762 0
M  V30 10315 C 1011.46 0.589801 -1.55276 0
M  V30 10316 O 1012.64 0.523633 -1.83474 0
M  V30 10317 C 1009.78 0.495256 -3.41528 0
M  V30 10318 C 1008.9 -0.426947 -4.29885 0
M  V30 10319 C 1008.03 0.387474 -5.29785 0
M  V30 10320 C 1007.07 -0.531807 -6.09785 0
M  V30 10321 N 1006.21 0.245741 -7.0167 0
M  V30 10322 H 1011.05 -1.1357 -2.7551 0
M  V30 10323 H 1008.59 -0.571468 -1.35546 0
M  V30 10324 H 1010.54 0.97551 -4.05635 0
M  V30 10325 H 1009.17 1.28969 -2.95917 0
M  V30 10326 H 1008.23 -1.02561 -3.66313 0
M  V30 10327 H 1009.54 -1.13226 -4.85779 0
M  V30 10328 H 1008.69 0.930677 -5.99519 0
M  V30 10329 H 1007.43 1.12612 -4.74521 0
M  V30 10330 H 1006.44 -1.08685 -5.3895 0
M  V30 10331 H 1007.66 -1.26915 -6.67135 0
M  V30 10332 H 1005.61 0.967391 -6.48828 0
M  V30 10333 H 1005.52 -0.400432 -7.54939 0
M  V30 10334 H 1006.79 0.770507 -7.75683 0
M  V30 10335 N 1011.02 1.44971 -0.618145 0
M  V30 10336 C 1011.95 2.33357 0.0815955 0
M  V30 10337 C 1012.93 1.47451 0.848072 0
M  V30 10338 O 1014.12 1.762 0.816532 0
M  V30 10339 C 1011.25 3.30324 1.07253 0
M  V30 10340 C 1010.2 4.25948 0.418563 0
M  V30 10341 C 1009.53 5.12685 1.51849 0
M  V30 10342 C 1010.83 5.18024 -0.66697 0
M  V30 10343 H 1012.52 2.92115 -0.656442 0
M  V30 10344 H 1010.07 1.40465 -0.317129 0
M  V30 10345 H 1012.02 3.91033 1.57069 0
M  V30 10346 H 1010.74 2.69748 1.8413 0
M  V30 10347 H 1009.4 3.66553 -0.0588308 0
M  V30 10348 H 1009.05 4.4847 2.2778 0
M  V30 10349 H 1008.75 5.7747 1.08637 0
M  V30 10350 H 1010.27 5.76264 2.01871 0
M  V30 10351 H 1011.69 5.72744 -0.252448 0
M  V30 10352 H 1010.09 5.91343 -1.02146 0
M  V30 10353 H 1011.16 4.59817 -1.53936 0
M  V30 10354 N 1012.5 0.357919 1.53482 0
M  V30 10355 C 1013.72 -0.237769 2.06033 0
M  V30 10356 C 1014.15 -1.42292 1.23023 0
M  V30 10357 O 1013.51 -1.79604 0.247427 0
M  V30 10358 C 1013.55 -0.616806 3.55286 0
M  V30 10359 O 1012.66 -1.71503 3.75047 0
M  V30 10360 H 1012 -0.0364322 0.663 0
M  V30 10361 H 1014.53 0.516301 1.97979 0
M  V30 10362 H 1014.54 -0.88996 3.98175 0
M  V30 10363 H 1013.21 0.249825 4.15149 0
M  V30 10364 H 1011.79 -1.43803 3.44057 0
M  V30 10365 N 1013.98 -1.5736 0.0868897 0
M  V30 10366 C 1015.22 -1.9367 -0.577598 0
M  V30 10367 C 1015.55 -0.968844 -1.69229 0
M  V30 10368 O 1014.82 -0.0195061 -1.9589 0
M  V30 10369 H 1013.4 -0.714983 -0.216353 0
M  V30 10370 H 1016.06 -1.94335 0.148294 0
M  V30 10371 H 1015.15 -2.95877 -0.993128 0
M  V30 10372 N 1015.45 0.186762 -1.56489 0
M  V30 10373 C 1016.73 0.932229 -1.71956 0
M  V30 10374 C 1017.11 2.01037 -0.644006 0
M  V30 10375 O 1016.46 2.259 0.343694 0
M  V30 10376 C 1016.67 1.51106 -3.14592 0
M  V30 10377 C 1018.02 1.98997 -3.75081 0
M  V30 10378 O 1019.04 1.60931 -3.17773 0
M  V30 10379 O 1017.9 2.69067 -4.75673 0
M  V30 10380 H 1014.99 0.437736 -0.701652 0
M  V30 10381 H 1017.54 0.175803 -1.68787 0
M  V30 10382 H 1016.31 0.734327 -3.84348 0
M  V30 10383 H 1015.94 2.33209 -3.22024 0
M  V30 10384 N 1016.93 1.50896 0.454776 0
M  V30 10385 C 1018.21 1.53227 1.21576 0
M  V30 10386 C 1018.59 0.286358 2.09149 0
M  V30 10387 O 1017.94 -0.729469 2.16543 0
M  V30 10388 C 1018.15 2.83693 2.03271 0
M  V30 10389 C 1019.5 3.34981 2.60908 0
M  V30 10390 O 1020.52 2.85126 2.13499 0
M  V30 10391 O 1019.38 4.21929 3.4733 0
M  V30 10392 H 1016.47 0.615306 0.552564 0
M  V30 10393 H 1019.02 1.63197 0.465266 0
M  V30 10394 H 1017.79 3.65839 1.38843 0
M  V30 10395 H 1017.41 2.76803 2.85422 0
M  V30 10396 N 1018.41 -0.709066 1.40748 0
M  V30 10397 C 1019.66 -1.47119 1.39585 0
M  V30 10398 C 1019.99 -1.942 0.000245323 0
M  V30 10399 O 1019.26 -1.68609 -0.969593 0
M  V30 10400 C 1019.55 -2.69266 2.39099 0
M  V30 10401 C 1019.4 -2.28037 3.8771 0
M  V30 10402 C 1020.72 -3.71438 2.36055 0
M  V30 10403 H 1017.84 -0.533632 0.508336 0
M  V30 10404 H 1020.48 -0.808718 1.7193 0
M  V30 10405 H 1018.63 -3.25788 2.11647 0
M  V30 10406 H 1020.3 -1.76946 4.26014 0
M  V30 10407 H 1018.55 -1.59966 4.03229 0
M  V30 10408 H 1019.22 -3.15621 4.52866 0
M  V30 10409 H 1021.69 -3.24559 2.60385 0
M  V30 10410 H 1020.57 -4.54532 3.07721 0
M  V30 10411 H 1020.83 -4.20193 1.37443 0
M  V30 10412 N 1019.89 -1.26353 -0.941956 0
M  V30 10413 C 1020.8 -1.09618 -2.07415 0
M  V30 10414 C 1021.82 -0.0298963 -1.73974 0
M  V30 10415 O 1022.99 -0.233466 -2.00042 0
M  V30 10416 C 1020.06 -0.73013 -3.38925 0
M  V30 10417 C 1019.12 -1.87574 -3.86153 0
M  V30 10418 C 1018.35 -1.52706 -5.11387 0
M  V30 10419 O 1018.57 -0.428438 -5.68789 0
M  V30 10420 O 1017.51 -2.36154 -5.53638 0
M  V30 10421 H 1021.33 -2.04598 -2.2444 0
M  V30 10422 H 1018.92 -1.05407 -1.05876 0
M  V30 10423 H 1020.8 -0.538684 -4.17943 0
M  V30 10424 H 1019.48 0.190282 -3.2314 0
M  V30 10425 H 1018.38 -2.12214 -3.08084 0
M  V30 10426 H 1019.72 -2.77585 -4.06457 0
M  V30 10427 N 1021.37 1.14642 -1.08144 0
M  V30 10428 C 1022.59 1.90025 -0.830972 0
M  V30 10429 C 1023.02 1.77904 0.610879 0
M  V30 10430 O 1022.38 1.11735 1.42776 0
M  V30 10431 C 1022.42 3.38085 -1.25422 0
M  V30 10432 O 1021.53 4.10412 -0.404486 0
M  V30 10433 H 1020.87 0.591327 -0.302041 0
M  V30 10434 H 1023.4 1.4513 -1.44216 0
M  V30 10435 H 1023.41 3.88894 -1.23391 0
M  V30 10436 H 1022.08 3.46226 -2.30435 0
M  V30 10437 H 1020.66 3.69693 -0.487987 0
M  V30 10438 N 1022.85 0.866709 1.31628 0
M  V30 10439 C 1023.78 0.335762 2.31073 0
M  V30 10440 C 1024.76 -0.571597 1.60209 0
M  V30 10441 O 1025.94 -0.489306 1.87935 0
M  V30 10442 C 1023.07 -0.466416 3.44154 0
M  V30 10443 C 1022.03 0.347561 4.26586 0
M  V30 10444 C 1021.35 -0.5801 5.31544 0
M  V30 10445 C 1022.65 1.57986 4.97833 0
M  V30 10446 H 1024.35 1.16673 2.75731 0
M  V30 10447 H 1021.89 0.56248 1.3256 0
M  V30 10448 H 1023.84 -0.84836 4.12772 0
M  V30 10449 H 1022.57 -1.33086 2.98254 0
M  V30 10450 H 1021.23 0.71141 3.59631 0
M  V30 10451 H 1020.88 -1.44174 4.81895 0
M  V30 10452 H 1020.58 -0.0393965 5.87587 0
M  V30 10453 H 1022.1 -0.958958 6.03023 0
M  V30 10454 H 1023.51 1.26954 5.59067 0
M  V30 10455 H 1021.91 2.05939 5.63657 0
M  V30 10456 H 1022.98 2.3345 4.25005 0
M  V30 10457 N 1024.32 -1.44642 0.625825 0
M  V30 10458 C 1025.27 -2.30653 -0.082259 0
M  V30 10459 C 1026.24 -1.43174 -0.842052 0
M  V30 10460 O 1027.43 -1.72082 -0.824151 0
M  V30 10461 C 1024.57 -3.2837 -1.06146 0
M  V30 10462 C 1023.68 -4.30953 -0.300638 0
M  V30 10463 C 1022.81 -5.15766 -1.27118 0
M  V30 10464 C 1021.85 -6.10061 -0.499215 0
M  V30 10465 N 1020.99 -6.87591 -1.41995 0
M  V30 10466 H 1025.83 -2.90664 0.657161 0
M  V30 10467 H 1023.37 -1.43215 0.335859 0
M  V30 10468 H 1025.32 -3.83507 -1.6425 0
M  V30 10469 H 1023.95 -2.70072 -1.76807 0
M  V30 10470 H 1023.01 -3.78331 0.396234 0
M  V30 10471 H 1024.32 -4.97892 0.300851 0
M  V30 10472 H 1023.47 -5.75394 -1.92372 0
M  V30 10473 H 1022.21 -4.48888 -1.9066 0
M  V30 10474 H 1021.22 -5.49547 0.166848 0
M  V30 10475 H 1022.44 -6.78973 0.131409 0
M  V30 10476 H 1020.39 -6.23387 -2.04267 0
M  V30 10477 H 1020.3 -7.5095 -0.872354 0
M  V30 10478 H 1021.57 -7.51746 -2.0615 0
M  V30 10479 N 1025.8 -0.366053 -1.5329 0
M  V30 10480 C 1026.76 0.467904 -2.24373 0
M  V30 10481 C 1027.76 1.00934 -1.25176 0
M  V30 10482 O 1028.95 0.895015 -1.49449 0
M  V30 10483 C 1026.09 1.65405 -2.98084 0
M  V30 10484 H 1027.28 -0.154105 -2.99504 0
M  V30 10485 H 1024.83 -0.117751 -1.55856 0
M  V30 10486 H 1025.57 2.31413 -2.27197 0
M  V30 10487 H 1025.35 1.27277 -3.70868 0
M  V30 10488 H 1026.84 2.24503 -3.52119 0
M  V30 10489 N 1027.28 1.57312 -0.0952337 0
M  V30 10490 C 1028.53 1.94358 0.568442 0
M  V30 10491 C 1028.85 0.97698 1.68182 0
M  V30 10492 O 1028.11 -0.00340398 1.957 0
M  V30 10493 C 1028.41 3.37937 1.16332 0
M  V30 10494 C 1028.07 4.50565 0.173715 0
M  V30 10495 C 1026.74 4.81099 -0.0984673 0
M  V30 10496 C 1029.09 5.18777 -0.501992 0
M  V30 10497 C 1026.42 5.77172 -1.05305 0
M  V30 10498 C 1028.77 6.15874 -1.44505 0
M  V30 10499 C 1027.43 6.44813 -1.72546 0
M  V30 10500 H 1026.7 0.711206 0.208007 0
M  V30 10501 H 1029.35 1.90734 -0.171096 0
M  V30 10502 H 1027.65 3.3814 1.97911 0
M  V30 10503 H 1029.35 3.63902 1.68453 0
M  V30 10504 H 1025.94 4.26766 0.396042 0
M  V30 10505 H 1030.13 4.95363 -0.304855 0
M  V30 10506 H 1025.38 5.97909 -1.2773 0
M  V30 10507 H 1029.56 6.67824 -1.97444 0
M  V30 10508 H 1027.18 7.19067 -2.46671 0
M  V30 10509 N 1028.76 -0.17846 1.56586 0
M  V30 10510 C 1030.01 -0.894502 1.8078 0
M  V30 10511 C 1030.32 -1.8372 0.67129 0
M  V30 10512 O 1031.53 -2.59509 0.797971 0
M  V30 10513 C 1029.98 -1.64109 3.20306 0
M  V30 10514 C 1029.59 -0.742387 4.41806 0
M  V30 10515 C 1031.33 -2.34578 3.53798 0
M  V30 10516 C 1029.24 -1.4888 5.72354 0
M  V30 10517 H 1028.17 -0.33776 0.674117 0
M  V30 10518 H 1030.82 -0.14752 1.82906 0
M  V30 10519 H 1029.2 -2.43257 3.12477 0
M  V30 10520 H 1030.38 0.011615 4.60799 0
M  V30 10521 H 1028.69 -0.147705 4.16138 0
M  V30 10522 H 1031.29 -2.91004 4.48577 0
M  V30 10523 H 1031.63 -3.09572 2.78336 0
M  V30 10524 H 1032.17 -1.62381 3.63149 0
M  V30 10525 H 1028.9 -0.781325 6.50827 0
M  V30 10526 H 1028.42 -2.21631 5.57351 0
M  V30 10527 H 1030.1 -2.03819 6.14058 0
M  V30 10528 N 1030.24 -1.51135 -0.446768 0
M  V30 10529 C 1031.17 -1.67949 -1.55967 0
M  V30 10530 C 1032.18 -0.560337 -1.52853 0
M  V30 10531 O 1033.37 -0.83435 -1.578 0
M  V30 10532 C 1030.47 -1.6703 -2.9488 0
M  V30 10533 C 1029.64 -2.95377 -3.22601 0
M  V30 10534 C 1028.7 -2.86772 -4.4119 0
M  V30 10535 O 1027.73 -3.60722 -4.40304 0
M  V30 10536 N 1028.93 -2.01979 -5.44228 0
M  V30 10537 H 1031.69 -2.63951 -1.41951 0
M  V30 10538 H 1029.26 -1.48903 -0.635569 0
M  V30 10539 H 1031.25 -1.58854 -3.7222 0
M  V30 10540 H 1029.82 -0.786623 -3.02541 0
M  V30 10541 H 1029.04 -3.17494 -2.33647 0
M  V30 10542 H 1030.33 -3.80356 -3.37945 0
M  V30 10543 H 1029.72 -1.41257 -5.4778 0
M  V30 10544 H 1028.28 -1.99689 -6.20457 0
M  V30 10545 N 1031.71 0.701592 -1.41122 0
M  V30 10546 C 1032.96 1.45871 -1.39879 0
M  V30 10547 C 1033.28 1.94999 -0.00668769 0
M  V30 10548 O 1032.55 1.71298 0.95047 0
M  V30 10549 H 1031.13 0.541231 -0.514857 0
M  V30 10550 H 1033.79 0.830803 -1.76306 0
M  V30 10551 H 1032.89 2.32479 -2.0823 0
M  V30 10552 N 1033.19 1.2685 0.935242 0
M  V30 10553 C 1034.42 1.15538 1.71635 0
M  V30 10554 C 1034.83 -0.288698 1.8658 0
M  V30 10555 O 1034.19 -1.19721 1.37743 0
M  V30 10556 C 1034.24 1.8259 3.11999 0
M  V30 10557 O 1033.96 3.21355 2.97763 0
M  V30 10558 C 1035.46 1.77307 4.06297 0
M  V30 10559 H 1032.68 0.402055 0.537208 0
M  V30 10560 H 1035.23 1.67582 1.17203 0
M  V30 10561 H 1033.38 1.3447 3.63313 0
M  V30 10562 H 1033.8 3.54626 3.86446 0
M  V30 10563 H 1035.27 2.28851 5.02326 0
M  V30 10564 H 1035.75 0.740823 4.32907 0
M  V30 10565 H 1036.35 2.25007 3.60904 0
M  V30 10566 N 1034.67 -1.14067 1.0875 0
M  V30 10567 C 1035.63 -2.17453 0.724341 0
M  V30 10568 C 1036.63 -1.58959 -0.242614 0
M  V30 10569 O 1037.82 -1.74186 -0.0217008 0
M  V30 10570 C 1034.96 -3.40828 0.0700236 0
M  V30 10571 H 1036.15 -2.51094 1.63987 0
M  V30 10572 H 1033.7 -1.28775 0.885813 0
M  V30 10573 H 1034.44 -3.1277 -0.857061 0
M  V30 10574 H 1034.22 -3.84551 0.76569 0
M  V30 10575 H 1035.71 -4.17258 -0.168905 0
M  V30 10576 N 1036.15 -0.873678 -1.31166 0
M  V30 10577 C 1037.43 -0.40698 -1.91319 0
M  V30 10578 C 1037.81 1.1113 -1.79481 0
M  V30 10579 O 1037.15 1.94155 -1.20483 0
M  V30 10580 C 1037.36 -0.892484 -3.37396 0
M  V30 10581 C 1038.71 -0.920795 -4.14496 0
M  V30 10582 O 1039.74 -0.838386 -3.46193 0
M  V30 10583 O 1038.59 -1.04069 -5.365 0
M  V30 10584 H 1035.69 -0.122439 -0.817886 0
M  V30 10585 H 1038.23 -0.961835 -1.3981 0
M  V30 10586 H 1037.01 -1.93613 -3.40044 0
M  V30 10587 H 1036.63 -0.31615 -3.96341 0
M  V30 10588 N 1037.63 1.44308 -0.633487 0
M  V30 10589 C 1038.59 2.2912 0.060376 0
M  V30 10590 C 1039.59 1.41166 0.769992 0
M  V30 10591 O 1040.78 1.63012 0.614224 0
M  V30 10592 C 1037.91 3.22798 1.0961 0
M  V30 10593 H 1039.1 2.91958 -0.685617 0
M  V30 10594 H 1036.66 1.51259 -0.393738 0
M  V30 10595 H 1037.39 2.64815 1.87199 0
M  V30 10596 H 1037.18 3.87618 0.591161 0
M  V30 10597 H 1038.67 3.86504 1.58127 0
M  V30 10598 N 1039.1 0.374177 1.53094 0
M  V30 10599 C 1040.35 -0.213981 2.00562 0
M  V30 10600 C 1040.67 -1.4916 1.26533 0
M  V30 10601 O 1041.87 -2.15889 1.64634 0
M  V30 10602 C 1040.33 -0.431876 3.57299 0
M  V30 10603 C 1039.94 0.831615 4.40214 0
M  V30 10604 C 1041.68 -0.977222 4.13099 0
M  V30 10605 C 1039.59 0.582831 5.88521 0
M  V30 10606 H 1038.52 -0.0837386 0.749336 0
M  V30 10607 H 1041.17 0.494245 1.76719 0
M  V30 10608 H 1039.55 -1.20158 3.7733 0
M  V30 10609 H 1040.72 1.60477 4.31953 0
M  V30 10610 H 1039.04 1.30081 3.9556 0
M  V30 10611 H 1041.64 -1.17881 5.21544 0
M  V30 10612 H 1041.98 -1.94189 3.68234 0
M  V30 10613 H 1042.51 -0.267473 3.969 0
M  V30 10614 H 1039.25 1.51807 6.37679 0
M  V30 10615 H 1038.77 -0.151666 5.99608 0
M  V30 10616 H 1040.45 0.211604 6.46654 0
M  V30 10617 N 1040.58 -1.57259 0.103575 0
M  V30 10618 C 1042 -1.57581 -0.253062 0
M  V30 10619 C 1042.2 -1.11531 -1.67819 0
M  V30 10620 O 1041.25 -0.795632 -2.39637 0
M  V30 10621 C 1042.57 -3.00681 -0.0337753 0
M  V30 10622 C 1044.12 -3.12837 -0.10087 0
M  V30 10623 C 1044.59 -4.57911 0.0905295 0
M  V30 10624 N 1046.08 -4.63186 0.0359789 0
M  V30 10625 C 1046.82 -5.73179 0.159199 0
M  V30 10626 N 1046.31 -6.91976 0.337728 0
M  V30 10627 N 1048.11 -5.62011 0.0998662 0
M  V30 10628 H 1040.26 -1.85499 1.0346 0
M  V30 10629 H 1042.52 -0.856584 0.406163 0
M  V30 10630 H 1042.23 -3.38602 0.950858 0
M  V30 10631 H 1042.1 -3.69207 -0.772406 0
M  V30 10632 H 1044.49 -2.74783 -1.07601 0
M  V30 10633 H 1044.57 -2.46886 0.66939 0
M  V30 10634 H 1044.21 -4.9666 1.06258 0
M  V30 10635 H 1044.14 -5.21933 -0.699528 0
M  V30 10636 H 1046.63 -3.7777 -0.099121 0
M  V30 10637 H 1046.95 -7.71641 0.423032 0
M  V30 10638 H 1045.29 -6.93996 0.373504 0
M  V30 10639 H 1048.48 -4.68084 -0.0385356 0
M  V30 10640 H 1048.65 -6.47693 0.199342 0
M  V30 10641 N 1042.06 0.170153 -1.56679 0
M  V30 10642 C 1043.47 0.732502 -1.7173 0
M  V30 10643 C 1043.82 1.82736 -0.71428 0
M  V30 10644 O 1042.95 2.16044 0.124102 0
M  V30 10645 C 1043.54 1.33548 -3.11368 0
M  V30 10646 C 1042.1 1.84464 -3.281 0
M  V30 10647 C 1041.25 0.724069 -2.6768 0
M  V30 10648 H 1044.2 -0.0552543 -1.58604 0
M  V30 10649 H 1044.22 2.20519 -3.10083 0
M  V30 10650 H 1043.73 0.5384 -3.84347 0
M  V30 10651 H 1041.83 2.66813 -2.6008 0
M  V30 10652 H 1041.95 1.98928 -4.35849 0
M  V30 10653 H 1040.31 1.14481 -2.27522 0
M  V30 10654 H 1041.09 -0.0611861 -3.43245 0
M  V30 10655 N 1043.54 1.5137 0.438746 0
M  V30 10656 C 1044.49 1.72582 1.53245 0
M  V30 10657 C 1045.46 0.567488 1.56105 0
M  V30 10658 O 1046.64 0.80176 1.73137 0
M  V30 10659 C 1043.78 1.85551 2.90972 0
M  V30 10660 C 1042.89 3.13094 2.97652 0
M  V30 10661 C 1042.03 3.16666 4.26493 0
M  V30 10662 C 1041.07 4.38529 4.27035 0
M  V30 10663 N 1040.2 4.39659 5.47398 0
M  V30 10664 H 1045.04 2.65941 1.3446 0
M  V30 10665 H 1042.58 1.31801 0.653206 0
M  V30 10666 H 1044.54 1.91053 3.70884 0
M  V30 10667 H 1043.17 0.956025 3.08318 0
M  V30 10668 H 1042.22 3.16909 2.10412 0
M  V30 10669 H 1043.53 4.03009 2.93914 0
M  V30 10670 H 1042.69 3.21075 5.14777 0
M  V30 10671 H 1041.43 2.24637 4.32885 0
M  V30 10672 H 1040.43 4.34297 3.37144 0
M  V30 10673 H 1041.66 5.31821 4.22307 0
M  V30 10674 H 1039.6 3.50499 5.54514 0
M  V30 10675 H 1039.52 5.23382 5.45534 0
M  V30 10676 H 1040.79 4.48259 6.37718 0
M  V30 10677 N 1045.02 -0.694098 1.41492 0
M  V30 10678 C 1046.43 -1.27407 1.36471 0
M  V30 10679 C 1046.78 -1.9614 0.0485209 0
M  V30 10680 O 1045.9 -1.98871 -0.853188 0
M  V30 10681 C 1046.5 -2.31698 2.47188 0
M  V30 10682 C 1045.06 -2.85268 2.45559 0
M  V30 10683 C 1044.2 -1.59325 2.2696 0
M  V30 10684 H 1047.16 -0.488756 1.50986 0
M  V30 10685 H 1047.18 -3.1302 2.1633 0
M  V30 10686 H 1046.69 -1.81644 3.42968 0
M  V30 10687 H 1044.79 -3.39494 1.5354 0
M  V30 10688 H 1044.9 -3.35598 3.41922 0
M  V30 10689 H 1043.27 -1.85188 1.74864 0
M  V30 10690 H 1044.05 -1.11265 3.24769 0
M  V30 10691 O 1046.53 -1.38164 -0.836233 0
M  V30 10692 H 1047.22 -1.25159 -1.47834 0
M  V30 END ATOM
M  V30 BEGIN BOND
M  V30 END BOND
M  V30 END CTAB
M  END
$$$$
