drugbank_target|P02918 Penicillin-binding protein 1A (DB00274; DB00303; DB00430; DB00438; DB01327; DB01328; DB01329; DB01331; DB01332; DB01333; DB01414; DB01415; DB01598; DB04570; DB06211)
 OpenBabel12092119353D

  0  0  0     0  0            999 V3000
M  V30 BEGIN CTAB
M  V30 COUNTS 13106 13256 0 0 0
M  V30 BEGIN ATOM
M  V30 1 H -0.908 1.98254 -0.117106 0
M  V30 2 N 0 1.576 0 0
M  V30 3 C 0.933 2.03868 1.02534 0
M  V30 4 C 1.911 0.928543 1.3348 0
M  V30 5 O 3.095 1.19667 1.45644 0
M  V30 6 C 0.222 2.43627 2.35294 0
M  V30 7 C -0.732 3.65373 2.2001 0
M  V30 8 S 0.101 5.13292 1.52614 0
M  V30 9 C 1.257 5.56322 2.86805 0
M  V30 10 H 1.49 2.90518 0.631377 0
M  V30 11 H -0.977 1.52953 0.210867 0
M  V30 12 H 0.981 2.67203 3.11629 0
M  V30 13 H -0.358 1.57376 2.7183 0
M  V30 14 H -1.165 3.90944 3.18086 0
M  V30 15 H -1.563 3.418 1.51819 0
M  V30 16 H 0.729 5.58782 3.83104 0
M  V30 17 H 1.672 6.56266 2.65933 0
M  V30 18 H 2.08 4.83886 2.90714 0
M  V30 19 N 1.4781 -0.272755 1.55222 0
M  V30 20 C 2.4251 -1.33716 1.88119 0
M  V30 21 C 3.3951 -1.49066 0.73271 0
M  V30 22 O 4.5801 -1.63469 0.984002 0
M  V30 23 C 1.7201 -2.69238 2.15882 0
M  V30 24 C 0.8331 -2.62108 3.43399 0
M  V30 25 C -0.0319 -3.89811 3.60861 0
M  V30 26 C -0.9929 -3.77193 4.8207 0
M  V30 27 N -1.8559 -4.9673 4.96189 0
M  V30 28 H 2.9841 -1.04962 2.78903 0
M  V30 29 H 0.5211 -0.507088 1.38083 0
M  V30 30 H 2.4791 -3.48089 2.29978 0
M  V30 31 H 1.1091 -2.96194 1.28331 0
M  V30 32 H 0.1611 -1.74967 3.37773 0
M  V30 33 H 1.4731 -2.48685 4.32386 0
M  V30 34 H 0.6271 -4.77103 3.74777 0
M  V30 35 H -0.6339 -4.06102 2.7006 0
M  V30 36 H -1.6289 -2.88284 4.68159 0
M  V30 37 H -0.4039 -3.62421 5.74307 0
M  V30 38 H -2.4579 -5.13431 4.08319 0
M  V30 39 H -2.5409 -4.85839 5.79221 0
M  V30 40 H -1.2729 -5.85594 5.1449 0
M  V30 41 N 2.9562 -1.48159 -0.537278 0
M  V30 42 C 4.2032 -1.55804 -1.29349 0
M  V30 43 C 4.5312 -0.228802 -1.9315 0
M  V30 44 O 3.7862 0.780242 -1.79473 0
M  V30 45 C 4.0852 -2.63956 -2.40961 0
M  V30 46 C 3.7512 -4.0662 -1.94861 0
M  V30 47 C 2.4132 -4.45452 -1.82006 0
M  V30 48 C 4.7652 -4.96055 -1.59933 0
M  V30 49 C 2.0932 -5.71531 -1.32547 0
M  V30 50 C 4.4452 -6.22617 -1.11939 0
M  V30 51 C 3.1092 -6.60312 -0.976951 0
M  V30 52 H 2.3792 -0.570129 -0.473322 0
M  V30 53 H 5.0262 -1.81845 -0.600372 0
M  V30 54 H 3.3312 -2.31747 -3.15912 0
M  V30 55 H 5.0282 -2.67089 -2.99107 0
M  V30 56 H 1.6182 -3.75949 -2.05815 0
M  V30 57 H 5.8022 -4.66738 -1.68728 0
M  V30 58 H 1.0582 -5.99468 -1.202 0
M  V30 59 H 5.2322 -6.91318 -0.839811 0
M  V30 60 H 2.8592 -7.57895 -0.591501 0
M  V30 61 N 4.4343 0.785586 -1.36625 0
M  V30 62 C 5.6803 1.54591 -1.31261 0
M  V30 63 C 6.0133 1.93906 0.106823 0
M  V30 64 O 5.2883 1.63007 1.06108 0
M  V30 65 C 5.5713 2.82038 -2.23889 0
M  V30 66 C 5.4243 2.49066 -3.74548 0
M  V30 67 C 6.7433 3.83887 -2.15217 0
M  V30 68 H 3.8623 0.560846 -0.478143 0
M  V30 69 H 6.5043 0.902278 -1.67209 0
M  V30 70 H 4.6543 3.36961 -1.93363 0
M  V30 71 H 6.3263 2.00164 -4.15611 0
M  V30 72 H 4.5693 1.81954 -3.93796 0
M  V30 73 H 5.2403 3.40109 -4.34776 0
M  V30 74 H 7.7163 3.38421 -2.42096 0
M  V30 75 H 6.5923 4.70806 -2.82193 0
M  V30 76 H 6.8533 4.27131 -1.14068 0
M  V30 77 N 5.9124 1.20967 1.01018 0
M  V30 78 C 6.8594 0.964281 2.09691 0
M  V30 79 C 7.8294 -0.107853 1.65749 0
M  V30 80 O 9.0144 0.0381987 1.90762 0
M  V30 81 C 6.1544 0.52943 3.41015 0
M  V30 82 C 5.2674 1.67043 3.98398 0
M  V30 83 C 4.4024 1.18525 5.17808 0
M  V30 84 C 3.4414 2.29892 5.67288 0
M  V30 85 N 2.5784 1.82546 6.77954 0
M  V30 86 H 7.4184 1.89463 2.30017 0
M  V30 87 H 4.9554 0.944289 1.1279 0
M  V30 88 H 6.9134 0.258588 4.16398 0
M  V30 89 H 5.5434 -0.363919 3.20742 0
M  V30 90 H 4.5954 2.05603 3.20049 0
M  V30 91 H 5.9074 2.50877 4.31117 0
M  V30 92 H 5.0614 0.870762 6.00419 0
M  V30 93 H 3.8004 0.316887 4.86669 0
M  V30 94 H 2.8054 2.6215 4.83278 0
M  V30 95 H 4.0304 3.17216 6.00459 0
M  V30 96 H 1.9764 0.980454 6.48632 0
M  V30 97 H 1.8934 2.59956 7.09901 0
M  V30 98 H 3.1614 1.54115 7.64113 0
M  V30 99 N 7.3905 -1.2043 1.01659 0
M  V30 100 C 8.6205 -1.93496 0.724081 0
M  V30 101 C 9.0285 -1.74998 -0.71918 0
M  V30 102 O 8.3715 -1.06118 -1.49949 0
M  V30 103 C 8.4335 -3.45886 0.97994 0
M  V30 104 C 8.0975 -3.88145 2.41232 0
M  V30 105 C 9.0945 -3.93907 3.39313 0
M  V30 106 C 6.7795 -4.20134 2.75305 0
M  V30 107 C 8.7735 -4.31069 4.6953 0
M  V30 108 C 6.4605 -4.56971 4.05735 0
M  V30 109 C 7.4585 -4.62411 5.02658 0
M  V30 110 O 7.1465 -4.98403 6.30754 0
M  V30 111 H 6.8785 -0.621824 0.265162 0
M  V30 112 H 9.4325 -1.53867 1.36066 0
M  V30 113 H 7.6625 -3.85639 0.286198 0
M  V30 114 H 9.3515 -4.0018 0.679021 0
M  V30 115 H 10.1175 -3.69357 3.14325 0
M  V30 116 H 5.9965 -4.1509 2.00551 0
M  V30 117 H 9.5405 -4.3523 5.45179 0
M  V30 118 H 5.4375 -4.80977 4.30502 0
M  V30 119 H 6.2055 -5.16395 6.35042 0
M  V30 120 N 8.8686 -0.792821 -1.36206 0
M  V30 121 C 10.1156 -0.366786 -1.99151 0
M  V30 122 C 10.4436 1.06243 -1.62919 0
M  V30 123 O 9.6986 1.74927 -0.877442 0
M  V30 124 C 9.9976 -0.481501 -3.54142 0
M  V30 125 C 9.6636 -1.87202 -4.10203 0
M  V30 126 C 8.3256 -2.25248 -4.25226 0
M  V30 127 C 10.6776 -2.78237 -4.40719 0
M  V30 128 C 8.0056 -3.53723 -4.68078 0
M  V30 129 C 10.3576 -4.06144 -4.85005 0
M  V30 130 C 9.0216 -4.44207 -4.98234 0
M  V30 131 H 8.2916 -0.134217 -0.728743 0
M  V30 132 H 10.9386 -1.01094 -1.62641 0
M  V30 133 H 9.2436 0.246146 -3.91026 0
M  V30 134 H 10.9406 -0.132844 -4.0078 0
M  V30 135 H 7.5306 -1.56639 -3.98951 0
M  V30 136 H 11.7146 -2.50097 -4.28679 0
M  V30 137 H 6.9706 -3.8308 -4.76508 0
M  V30 138 H 11.1446 -4.76796 -5.07581 0
M  V30 139 H 8.7716 -5.43814 -5.31197 0
M  V30 140 N 10.3467 1.47872 -0.545128 0
M  V30 141 C 11.2767 2.32661 0.197793 0
M  V30 142 C 12.2577 1.43041 0.920504 0
M  V30 143 O 13.4427 1.71912 0.90333 0
M  V30 144 C 10.5727 3.24569 1.23582 0
M  V30 145 C 9.5267 4.23333 0.630323 0
M  V30 146 C 8.8527 5.0448 1.77211 0
M  V30 147 C 10.1527 5.20704 -0.407974 0
M  V30 148 H 11.8467 2.95024 -0.510045 0
M  V30 149 H 9.3927 1.4187 -0.246731 0
M  V30 150 H 11.3457 3.8272 1.76362 0
M  V30 151 H 10.0697 2.60236 1.97344 0
M  V30 152 H 8.7287 3.6639 0.123922 0
M  V30 153 H 8.3767 4.36561 2.49847 0
M  V30 154 H 8.0767 5.71339 1.37281 0
M  V30 155 H 9.6007 5.65487 2.3034 0
M  V30 156 H 11.0147 5.7329 0.033305 0
M  V30 157 H 9.4117 5.95699 -0.725486 0
M  V30 158 H 10.4817 4.66917 -1.30828 0
M  V30 159 N 11.8248 0.280983 1.55075 0
M  V30 160 C 13.0738 -0.334784 1.98902 0
M  V30 161 C 13.3868 -1.56534 1.17288 0
M  V30 162 O 14.5928 -2.25443 1.51287 0
M  V30 163 C 13.0488 -0.646994 3.54037 0
M  V30 164 C 12.6568 0.564085 4.44435 0
M  V30 165 C 14.4008 -1.22506 4.06439 0
M  V30 166 C 12.3078 0.226137 5.90967 0
M  V30 167 H 11.2378 -0.128866 0.742906 0
M  V30 168 H 13.8888 0.386556 1.79382 0
M  V30 169 H 12.2708 -1.42739 3.6938 0
M  V30 170 H 13.4448 1.34082 4.40861 0
M  V30 171 H 11.7598 1.0594 4.02698 0
M  V30 172 H 14.3568 -1.49182 5.13468 0
M  V30 173 H 14.6998 -2.16085 3.55827 0
M  V30 174 H 15.2328 -0.50682 3.94558 0
M  V30 175 H 11.9718 1.12996 6.45687 0
M  V30 176 H 11.4918 -0.513717 5.97596 0
M  V30 177 H 13.1708 -0.179539 6.46751 0
M  V30 178 N 13.3029 -1.57598 0.00835791 0
M  V30 179 C 14.2329 -2.1198 -0.979113 0
M  V30 180 C 15.2139 -1.03091 -1.35301 0
M  V30 181 O 16.3989 -1.30818 -1.43528 0
M  V30 182 C 13.5289 -2.62995 -2.26828 0
M  V30 183 C 12.4829 -3.76485 -2.03576 0
M  V30 184 C 11.8089 -4.13846 -3.38579 0
M  V30 185 C 13.1089 -5.0342 -1.39161 0
M  V30 186 H 14.8029 -2.94738 -0.526281 0
M  V30 187 H 12.3489 -1.41783 -0.251704 0
M  V30 188 H 14.3019 -2.99669 -2.96271 0
M  V30 189 H 13.0259 -1.7737 -2.7424 0
M  V30 190 H 11.6849 -3.40217 -1.36557 0
M  V30 191 H 11.3329 -3.25232 -3.83709 0
M  V30 192 H 11.0329 -4.90312 -3.23834 0
M  V30 193 H 12.5569 -4.53086 -4.09323 0
M  V30 194 H 13.9709 -5.37812 -1.98573 0
M  V30 195 H 12.3679 -5.84746 -1.34878 0
M  V30 196 H 13.4379 -4.83548 -0.361868 0
M  V30 197 N 14.781 0.264519 -1.55364 0
M  V30 198 C 15.744 1.31046 -1.88042 0
M  V30 199 C 16.744 1.41943 -0.755569 0
M  V30 200 O 17.934 1.40947 -1.02369 0
M  V30 201 C 15.066 2.69067 -2.09323 0
M  V30 202 H 16.259 1.03297 -2.81549 0
M  V30 203 H 13.812 0.502989 -1.47986 0
M  V30 204 H 14.547 3.01982 -1.18226 0
M  V30 205 H 14.332 2.62542 -2.91229 0
M  V30 206 H 15.822 3.44623 -2.35848 0
M  V30 207 N 16.2591 1.48442 0.529413 0
M  V30 208 C 17.5051 1.5672 1.28711 0
M  V30 209 C 17.8381 0.2406 1.92704 0
M  V30 210 O 17.1131 -0.753454 1.79313 0
M  V30 211 C 17.3961 2.70587 2.37603 0
M  V30 212 C 17.2491 4.12953 1.78297 0
M  V30 213 C 18.5681 2.80212 3.39366 0
M  V30 214 H 15.6871 0.570474 0.466613 0
M  V30 215 H 18.3291 1.80617 0.589706 0
M  V30 216 H 16.4791 2.50342 2.97088 0
M  V30 217 H 18.1511 4.44639 1.22858 0
M  V30 218 H 16.3941 4.19927 1.0883 0
M  V30 219 H 17.0651 4.88448 2.57144 0
M  V30 220 H 19.5411 2.98553 2.89836 0
M  V30 221 H 18.4171 3.61611 4.12951 0
M  V30 222 H 18.6781 1.88393 3.99951 0
M  V30 223 N 17.7372 -0.778329 1.37039 0
M  V30 224 C 18.9772 -1.54973 1.33276 0
M  V30 225 C 19.3412 -1.91816 -0.0839376 0
M  V30 226 O 20.5422 -2.6767 -0.246228 0
M  V30 227 C 18.8132 -2.78517 2.23971 0
M  V30 228 S 20.3722 -3.6865 2.37997 0
M  V30 229 H 17.1902 -0.530639 0.473226 0
M  V30 230 H 19.7922 -0.915806 1.72723 0
M  V30 231 H 18.4962 -2.4952 3.25835 0
M  V30 232 H 18.0272 -3.46875 1.85584 0
M  V30 233 H 20.0422 -4.70182 1.58567 0
M  V30 234 N 19.2153 -1.21501 -1.00376 0
M  V30 235 C 20.4553 -1.04444 -1.75701 0
M  V30 236 C 20.8193 0.414644 -1.87469 0
M  V30 237 O 22.0203 0.705763 -2.59369 0
M  V30 238 C 20.2913 -1.72389 -3.13077 0
M  V30 239 S 21.8503 -1.70604 -4.04277 0
M  V30 240 H 18.6683 -0.374249 -0.604532 0
M  V30 241 H 21.2703 -1.54267 -1.20091 0
M  V30 242 H 19.9743 -2.77734 -3.02146 0
M  V30 243 H 19.5053 -1.22751 -3.73759 0
M  V30 244 H 21.5203 -0.748012 -4.9053 0
M  V30 245 N 20.6934 1.19889 -1.02296 0
M  V30 246 C 21.9424 1.88743 -0.711257 0
M  V30 247 C 22.2554 1.80112 0.762817 0
M  V30 248 O 23.4614 2.44161 1.18733 0
M  V30 249 C 21.9174 3.38525 -1.22185 0
M  V30 250 C 21.5254 3.55727 -2.72328 0
M  V30 251 C 23.2694 4.12893 -0.985864 0
M  V30 252 C 21.1764 4.99369 -3.16835 0
M  V30 253 H 20.1064 0.706885 -0.262353 0
M  V30 254 H 22.7574 1.35586 -1.23648 0
M  V30 255 H 21.1394 3.91044 -0.624571 0
M  V30 256 H 22.3134 3.13564 -3.3766 0
M  V30 257 H 20.6284 2.94739 -2.9414 0
M  V30 258 H 23.2254 5.18813 -1.29374 0
M  V30 259 H 23.5684 4.16228 0.0775055 0
M  V30 260 H 24.1014 3.66494 -1.54684 0
M  V30 261 H 20.8404 5.01193 -4.22476 0
M  V30 262 H 20.3604 5.42317 -2.56228 0
M  V30 263 H 22.0394 5.67988 -3.09837 0
M  V30 264 N 22.1715 0.800033 1.35784 0
M  V30 265 C 23.1015 0.220184 2.3246 0
M  V30 266 C 24.0825 -0.65073 1.57161 0
M  V30 267 O 25.2675 -0.582359 1.85263 0
M  V30 268 C 22.3975 -0.637353 3.41402 0
M  V30 269 C 21.3515 0.134531 4.27789 0
M  V30 270 C 20.6775 -0.844285 5.27992 0
M  V30 271 C 21.9775 1.32979 5.05088 0
M  V30 272 H 23.6715 1.02787 2.81203 0
M  V30 273 H 21.2175 0.495717 1.35199 0
M  V30 274 H 23.1705 -1.05302 4.08031 0
M  V30 275 H 21.8945 -1.47785 2.91251 0
M  V30 276 H 20.5535 0.531296 3.6273 0
M  V30 277 H 20.2015 -1.68011 4.74111 0
M  V30 278 H 19.9015 -0.332184 5.8666 0
M  V30 279 H 21.4255 -1.2583 5.97494 0
M  V30 280 H 22.8395 0.98934 5.64699 0
M  V30 281 H 21.2365 1.77593 5.7322 0
M  V30 282 H 22.3065 2.11978 4.36111 0
M  V30 283 N 23.6496 -1.47581 0.552962 0
M  V30 284 C 24.5796 -2.32762 -0.185451 0
M  V30 285 C 25.5606 -1.43527 -0.912905 0
M  V30 286 O 26.7456 -1.72388 -0.894201 0
M  V30 287 C 23.8756 -3.25219 -1.21859 0
M  V30 288 C 22.8296 -4.23661 -0.607864 0
M  V30 289 C 22.1556 -5.05413 -1.74533 0
M  V30 290 C 23.4556 -5.20481 0.435582 0
M  V30 291 H 25.1496 -2.94749 0.525684 0
M  V30 292 H 22.6956 -1.41738 0.254251 0
M  V30 293 H 24.6486 -3.8365 -1.7433 0
M  V30 294 H 23.3726 -2.61279 -1.95961 0
M  V30 295 H 22.0316 -3.66451 -0.104489 0
M  V30 296 H 21.6796 -4.3788 -2.47529 0
M  V30 297 H 21.3796 -5.72059 -1.34249 0
M  V30 298 H 22.9036 -5.66701 -2.27338 0
M  V30 299 H 24.3176 -5.733 -0.00290157 0
M  V30 300 H 22.7146 -5.95305 0.757067 0
M  V30 301 H 23.7846 -4.66217 1.33303 0
M  V30 302 N 25.1277 -0.289203 -1.54924 0
M  V30 303 C 26.3757 0.322879 -1.99504 0
M  V30 304 C 26.6967 1.55313 -1.1791 0
M  V30 305 O 25.9667 1.94001 -0.272097 0
M  V30 306 H 24.5467 0.122291 -0.736922 0
M  V30 307 H 27.2087 -0.397802 -1.90797 0
M  V30 308 H 26.3047 0.603061 -3.06218 0
M  V30 309 N 26.6058 1.57591 -0.0167156 0
M  V30 310 C 27.5688 2.08393 0.954204 0
M  V30 311 C 28.5688 0.996531 1.26198 0
M  V30 312 O 29.7588 1.25858 1.20438 0
M  V30 313 C 26.8908 2.5394 2.27436 0
M  V30 314 H 28.0838 2.95455 0.514451 0
M  V30 315 H 25.6368 1.54582 0.231089 0
M  V30 316 H 26.3718 1.70171 2.76066 0
M  V30 317 H 26.1568 3.33371 2.06412 0
M  V30 318 H 27.6468 2.93512 2.97053 0
M  V30 319 N 28.0839 -0.256276 1.55502 0
M  V30 320 C 29.3319 -0.983672 1.76545 0
M  V30 321 C 29.6529 -1.86206 0.578982 0
M  V30 322 O 28.9229 -1.91656 -0.405577 0
M  V30 323 H 27.5029 -0.366191 0.651086 0
M  V30 324 H 30.1649 -0.276479 1.92929 0
M  V30 325 H 29.2609 -1.61087 2.67315 0
M  V30 326 N 29.562 -1.4872 -0.521534 0
M  V30 327 C 30.787 -1.61101 -1.30618 0
M  V30 328 C 31.212 -0.274611 -1.86085 0
M  V30 329 O 30.57 0.754937 -1.64834 0
M  V30 330 C 30.618 -2.66709 -2.4269 0
M  V30 331 O 29.722 -2.24456 -3.45967 0
M  V30 332 H 29.063 -0.539921 -0.386499 0
M  V30 333 H 31.593 -1.94767 -0.626645 0
M  V30 334 H 31.603 -2.88245 -2.88754 0
M  V30 335 H 30.278 -3.63727 -2.01682 0
M  V30 336 H 28.855 -2.13168 -3.05964 0
M  V30 337 N 31.0401 0.771051 -1.3745 0
M  V30 338 C 32.2891 1.52491 -1.3202 0
M  V30 339 C 32.6021 1.9538 0.0927347 0
M  V30 340 O 33.8081 2.70159 0.269503 0
M  V30 341 C 32.2641 2.75366 -2.31736 0
M  V30 342 C 31.8721 2.39573 -3.78562 0
M  V30 343 C 33.6161 3.53307 -2.35318 0
M  V30 344 C 31.5231 3.58954 -4.70007 0
M  V30 345 H 30.4531 0.572506 -0.490666 0
M  V30 346 H 33.1041 0.844474 -1.62914 0
M  V30 347 H 31.4861 3.45303 -1.93861 0
M  V30 348 H 32.6601 1.77415 -4.25277 0
M  V30 349 H 30.9751 1.74805 -3.77932 0
M  V30 350 H 33.5721 4.42039 -3.00842 0
M  V30 351 H 33.9151 3.93217 -1.36698 0
M  V30 352 H 34.4481 2.90367 -2.71904 0
M  V30 353 H 31.1871 3.24125 -5.69757 0
M  V30 354 H 30.7071 4.20214 -4.27996 0
M  V30 355 H 32.3861 4.25758 -4.87175 0
M  V30 356 N 32.5182 1.22032 0.997298 0
M  V30 357 C 33.7482 1.06686 1.76923 0
M  V30 358 C 34.1562 -0.385838 1.85224 0
M  V30 359 O 33.4992 -1.27929 1.31833 0
M  V30 360 C 33.5612 1.59802 3.22031 0
M  V30 361 C 33.2252 3.08362 3.37286 0
M  V30 362 C 34.2222 4.05835 3.24952 0
M  V30 363 C 31.9072 3.47727 3.6248 0
M  V30 364 C 33.9012 5.4066 3.37588 0
M  V30 365 C 31.5882 4.82701 3.74757 0
M  V30 366 C 32.5862 5.78977 3.62319 0
M  V30 367 O 32.2742 7.11502 3.74193 0
M  V30 368 H 32.0062 0.374767 0.562606 0
M  V30 369 H 34.5602 1.61991 1.26286 0
M  V30 370 H 32.7902 0.989003 3.73839 0
M  V30 371 H 34.4792 1.40184 3.80924 0
M  V30 372 H 35.2452 3.76766 3.05405 0
M  V30 373 H 31.1242 2.73317 3.7124 0
M  V30 374 H 34.6682 6.15788 3.27796 0
M  V30 375 H 30.5652 5.11453 3.9381 0
M  V30 376 H 31.3332 7.19019 3.91093 0
M  V30 377 N 33.9963 -1.19345 1.0293 0
M  V30 378 C 35.2443 -1.88665 0.724574 0
M  V30 379 C 35.5653 -1.80036 -0.749144 0
M  V30 380 O 34.8353 -1.2111 -1.53978 0
M  V30 381 H 33.4153 -0.698406 0.265025 0
M  V30 382 H 36.0773 -1.44885 1.30362 0
M  V30 383 H 35.1733 -2.94987 1.01926 0
M  V30 384 N 35.4744 -0.807222 -1.35358 0
M  V30 385 C 36.4044 -0.232509 -2.3234 0
M  V30 386 C 37.3854 0.642386 -1.57504 0
M  V30 387 O 38.5704 0.572526 -1.85569 0
M  V30 388 C 35.7004 0.619238 -3.41735 0
M  V30 389 C 34.6544 -0.157215 -4.27711 0
M  V30 390 C 33.9804 0.816273 -5.28433 0
M  V30 391 C 35.2804 -1.35656 -5.04376 0
M  V30 392 H 36.9744 -1.04276 -2.80654 0
M  V30 393 H 34.5204 -0.50288 -1.34934 0
M  V30 394 H 36.4734 1.03137 -4.08584 0
M  V30 395 H 35.1974 1.46239 -2.92031 0
M  V30 396 H 33.8564 -0.550525 -3.62443 0
M  V30 397 H 33.5044 1.65494 -4.74996 0
M  V30 398 H 33.2044 0.301067 -5.86828 0
M  V30 399 H 34.7284 1.22659 -5.98153 0
M  V30 400 H 36.1424 -1.01927 -5.64166 0
M  V30 401 H 34.5394 -1.8063 -5.7227 0
M  V30 402 H 35.6094 -2.14288 -4.34981 0
M  V30 403 N 36.9525 1.47285 -0.560781 0
M  V30 404 C 38.1825 2.06555 -0.0429638 0
M  V30 405 C 38.5905 1.41339 1.25777 0
M  V30 406 O 37.9335 0.505182 1.76617 0
M  V30 407 C 37.9955 3.58827 0.219887 0
M  V30 408 C 37.6595 4.46105 -0.991944 0
M  V30 409 C 38.6565 4.84 -1.89843 0
M  V30 410 C 36.3415 4.87567 -1.20762 0
M  V30 411 C 38.3355 5.6216 -3.00425 0
M  V30 412 C 36.0225 5.65491 -2.31653 0
M  V30 413 C 37.0205 6.02699 -3.21315 0
M  V30 414 O 36.7085 6.79052 -4.30283 0
M  V30 415 H 36.4405 0.674537 -0.0444468 0
M  V30 416 H 38.9945 1.90225 -0.774818 0
M  V30 417 H 37.2245 3.73383 1.00609 0
M  V30 418 H 38.9135 4.00103 0.683522 0
M  V30 419 H 39.6795 4.52564 -1.74387 0
M  V30 420 H 35.5585 4.5807 -0.518893 0
M  V30 421 H 39.1025 5.9112 -3.70436 0
M  V30 422 H 34.9995 5.9634 -2.47081 0
M  V30 423 H 35.7675 6.9745 -4.28376 0
M  V30 424 N 38.4306 0.297415 1.54768 0
M  V30 425 C 39.8466 -0.0560823 1.59501 0
M  V30 426 C 40.0466 -1.52725 1.31444 0
M  V30 427 O 39.1026 -2.27947 1.08611 0
M  V30 428 C 40.4156 0.338631 2.98787 0
M  V30 429 C 41.9636 0.287097 3.11681 0
M  V30 430 C 42.4386 0.656579 4.53269 0
M  V30 431 N 43.9296 0.608977 4.59179 0
M  V30 432 C 44.6646 0.867385 5.66802 0
M  V30 433 N 44.1606 1.19157 6.82476 0
M  V30 434 N 45.9536 0.794687 5.56454 0
M  V30 435 H 38.1046 1.25624 1.71267 0
M  V30 436 H 40.3676 0.509057 0.799728 0
M  V30 437 H 40.0736 1.36263 3.2423 0
M  V30 438 H 39.9476 -0.309508 3.75928 0
M  V30 439 H 42.3346 -0.727649 2.85988 0
M  V30 440 H 42.4156 0.969809 2.36703 0
M  V30 441 H 42.0596 1.66912 4.7969 0
M  V30 442 H 41.9896 -0.0481649 5.26578 0
M  V30 443 H 44.4806 0.369198 3.76092 0
M  V30 444 H 44.7936 1.37482 7.60473 0
M  V30 445 H 43.1386 1.22958 6.84037 0
M  V30 446 H 46.3296 0.541098 4.64962 0
M  V30 447 H 46.5026 0.999445 6.40246 0
M  V30 448 N 39.9087 -1.5758 0.0250728 0
M  V30 449 C 41.1387 -1.95646 -0.663783 0
M  V30 450 C 41.5467 -0.899935 -1.66427 0
M  V30 451 O 40.8897 0.127191 -1.83259 0
M  V30 452 C 40.9517 -3.29835 -1.43 0
M  V30 453 C 40.6157 -4.53197 -0.588305 0
M  V30 454 C 41.6127 -5.19726 0.13469 0
M  V30 455 C 39.2977 -4.99529 -0.526897 0
M  V30 456 C 41.2917 -6.30902 0.90781 0
M  V30 457 C 38.9787 -6.10589 0.24993 0
M  V30 458 C 39.9767 -6.76134 0.965994 0
M  V30 459 O 39.6647 -7.85062 1.7301 0
M  V30 460 H 39.3967 -0.649282 -0.188174 0
M  V30 461 H 41.9507 -2.05245 0.0799006 0
M  V30 462 H 40.1807 -3.16716 -2.21873 0
M  V30 463 H 41.8697 -3.52833 -2.00658 0
M  V30 464 H 42.6357 -4.84904 0.0965562 0
M  V30 465 H 38.5147 -4.48319 -1.07381 0
M  V30 466 H 42.0587 -6.81995 1.46724 0
M  V30 467 H 37.9557 -6.44849 0.289795 0
M  V30 468 H 38.7237 -8.01708 1.64944 0
M  V30 469 N 41.3868 0.248026 -1.55636 0
M  V30 470 C 42.6358 0.974134 -1.76617 0
M  V30 471 C 42.9488 1.86528 -0.588796 0
M  V30 472 O 44.1548 2.62805 -0.681594 0
M  V30 473 C 42.6108 1.78213 -3.12679 0
M  V30 474 C 42.2188 0.93843 -4.38061 0
M  V30 475 C 43.9628 2.50104 -3.42999 0
M  V30 476 C 41.8698 1.74225 -5.65155 0
M  V30 477 H 40.7998 0.36745 -0.658405 0
M  V30 478 H 43.4508 0.22884 -1.82067 0
M  V30 479 H 41.8328 2.56933 -3.01333 0
M  V30 480 H 43.0068 0.193635 -4.60393 0
M  V30 481 H 41.3218 0.332905 -4.15067 0
M  V30 482 H 43.9188 3.10694 -4.3517 0
M  V30 483 H 44.2618 3.21662 -2.64271 0
M  V30 484 H 44.7948 1.78395 -3.55556 0
M  V30 485 H 41.5338 1.07043 -6.46701 0
M  V30 486 H 41.0538 2.46235 -5.46926 0
M  V30 487 H 42.7328 2.30967 -6.0437 0
M  V30 488 N 42.8649 1.48995 0.513639 0
M  V30 489 C 43.7749 1.67443 1.64317 0
M  V30 490 C 44.7909 0.556947 1.64846 0
M  V30 491 O 45.9669 0.830082 1.83498 0
M  V30 492 C 43.0319 1.72515 3.00732 0
M  V30 493 C 42.0929 2.96009 3.1093 0
M  V30 494 C 41.3259 3.00829 4.40837 0
M  V30 495 O 41.5489 2.13594 5.28898 0
M  V30 496 O 40.4829 3.93168 4.55744 0
M  V30 497 H 44.3089 2.63106 1.51687 0
M  V30 498 H 41.8939 1.32588 0.688543 0
M  V30 499 H 43.7759 1.78277 3.81831 0
M  V30 500 H 42.4509 0.800278 3.13651 0
M  V30 501 H 41.3579 2.9577 2.29065 0
M  V30 502 H 42.6909 3.87934 3.02933 0
M  V30 503 N 44.343 -0.763751 1.37857 0
M  V30 504 C 45.754 -1.3405 1.29952 0
M  V30 505 C 46.105 -1.96138 -0.0492898 0
M  V30 506 O 45.23 -1.94372 -0.951239 0
M  V30 507 C 45.825 -2.43729 2.35333 0
M  V30 508 C 44.384 -2.97151 2.31037 0
M  V30 509 C 43.531 -1.70438 2.18738 0
M  V30 510 H 46.482 -0.563396 1.48363 0
M  V30 511 H 46.503 -3.23412 2.00462 0
M  V30 512 H 46.015 -1.9851 3.33489 0
M  V30 513 H 44.116 -3.46724 1.3643 0
M  V30 514 H 44.229 -3.52221 3.24772 0
M  V30 515 H 42.593 -1.93673 1.65418 0
M  V30 516 H 43.376 -1.27312 3.18821 0
M  V30 517 N 45.8211 -1.22559 -0.990812 0
M  V30 518 C 46.7531 -0.955325 -2.08342 0
M  V30 519 C 47.7661 0.0668408 -1.62663 0
M  V30 520 O 48.9551 -0.167421 -1.77713 0
M  V30 521 C 46.0551 -0.415566 -3.36342 0
M  V30 522 C 45.2281 -1.49544 -4.11042 0
M  V30 523 C 44.2871 -0.962399 -5.17324 0
M  V30 524 O 43.3131 -1.64907 -5.44788 0
M  V30 525 N 44.5151 0.215134 -5.80101 0
M  V30 526 H 47.2801 -1.89596 -2.32106 0
M  V30 527 H 44.8411 -1.13276 -1.15673 0
M  V30 528 H 46.8331 -0.0442386 -4.04676 0
M  V30 529 H 45.4031 0.430232 -3.09625 0
M  V30 530 H 44.6231 -2.04 -3.37309 0
M  V30 531 H 45.9111 -2.22195 -4.57719 0
M  V30 532 H 45.3091 0.789779 -5.6016 0
M  V30 533 H 43.8661 0.527826 -6.49659 0
M  V30 534 N 47.2992 1.18797 -1.03562 0
M  V30 535 C 48.2292 2.24472 -0.643019 0
M  V30 536 C 49.2102 1.66433 0.351283 0
M  V30 537 O 50.3952 1.92803 0.232505 0
M  V30 538 C 47.5252 3.473 4.24935e-05 0
M  V30 539 C 46.4792 4.18055 -0.917257 0
M  V30 540 C 45.8052 5.34519 -0.138941 0
M  V30 541 C 47.1052 4.72109 -2.23407 0
M  V30 542 H 48.7992 2.57566 -1.52643 0
M  V30 543 H 46.3452 1.23806 -0.735394 0
M  V30 544 H 48.2982 4.20426 0.286383 0
M  V30 545 H 47.0222 3.13424 0.918299 0
M  V30 546 H 45.6812 3.46821 -1.1879 0
M  V30 547 H 45.3292 4.96891 0.781562 0
M  V30 548 H 45.0292 5.82794 -0.750005 0
M  V30 549 H 46.5532 6.10438 0.1405 0
M  V30 550 H 47.9672 5.36955 -2.00879 0
M  V30 551 H 46.3642 5.30897 -2.79765 0
M  V30 552 H 47.4342 3.89807 -2.88407 0
M  V30 553 N 48.7773 0.814389 1.34928 0
M  V30 554 C 50.1883 0.458364 1.80986 0
M  V30 555 C 50.5393 -1.02042 1.67577 0
M  V30 556 O 49.6643 -1.79352 1.21086 0
M  V30 557 C 50.2593 0.825212 3.28597 0
M  V30 558 C 48.8183 0.521677 3.72767 0
M  V30 559 C 47.9653 1.04668 2.56788 0
M  V30 560 H 50.9163 1.00533 1.22795 0
M  V30 561 H 50.9373 0.12571 3.80292 0
M  V30 562 H 50.4493 1.90154 3.38324 0
M  V30 563 H 48.5503 -0.545589 3.68584 0
M  V30 564 H 48.6633 1.05977 4.67232 0
M  V30 565 H 47.0273 0.468622 2.50352 0
M  V30 566 H 47.8103 2.12927 2.6929 0
M  V30 567 N 50.2554 -1.46986 0.568584 0
M  V30 568 C 51.5324 -1.95592 -0.0174074 0
M  V30 569 C 51.9124 -1.51124 -1.47393 0
M  V30 570 O 51.2604 -0.755329 -2.15655 0
M  V30 571 C 51.4704 -3.48719 0.139913 0
M  V30 572 C 52.8184 -4.246 0.000426376 0
M  V30 573 O 53.8424 -3.56135 0.0680316 0
M  V30 574 O 52.7014 -5.46302 -0.146988 0
M  V30 575 H 49.7954 -0.82498 -0.0577599 0
M  V30 576 H 52.3414 -1.57335 0.635909 0
M  V30 577 H 51.1134 -3.73927 1.15301 0
M  V30 578 H 50.7364 -3.93771 -0.550491 0
M  V30 579 N 51.7335 -0.305618 -1.54608 0
M  V30 580 C 52.9795 0.302746 -2.00528 0
M  V30 581 C 53.3125 1.53184 -1.19367 0
M  V30 582 O 52.5875 1.92598 -0.271321 0
M  V30 583 C 52.8705 0.654756 -3.54097 0
M  V30 584 C 52.7235 -0.583793 -4.45995 0
M  V30 585 C 54.0425 1.47947 -4.14487 0
M  V30 586 H 51.1615 0.108564 -0.72896 0
M  V30 587 H 53.8035 -0.418634 -1.85331 0
M  V30 588 H 51.9535 1.26935 -3.67178 0
M  V30 589 H 53.6255 -1.22224 -4.44814 0
M  V30 590 H 51.8685 -1.21615 -4.16404 0
M  V30 591 H 52.5395 -0.293287 -5.5122 0
M  V30 592 H 55.0155 0.96013 -4.04871 0
M  V30 593 H 53.8915 1.69454 -5.22088 0
M  V30 594 H 54.1525 2.47011 -3.66658 0
M  V30 595 N 53.2116 1.57565 -0.0334293 0
M  V30 596 C 54.1746 2.09393 0.932048 0
M  V30 597 C 55.1746 1.00986 1.25134 0
M  V30 598 O 56.3646 1.27129 1.19096 0
M  V30 599 C 53.4966 2.56338 2.2473 0
M  V30 600 H 54.6896 2.95984 0.483085 0
M  V30 601 H 52.2426 1.54819 0.21468 0
M  V30 602 H 52.9776 1.7309 2.74245 0
M  V30 603 H 52.7626 3.35542 2.02865 0
M  V30 604 H 54.2526 2.96646 2.93923 0
M  V30 605 N 54.6897 -0.239769 1.55765 0
M  V30 606 C 55.9177 -0.98417 1.81994 0
M  V30 607 C 56.3327 -1.7867 0.610124 0
M  V30 608 O 55.6897 -1.77571 -0.421271 0
M  V30 609 C 55.7407 -1.91635 3.06526 0
M  V30 610 O 55.4617 -1.14629 4.22838 0
M  V30 611 C 56.9627 -2.77616 3.45607 0
M  V30 612 H 54.1827 -0.28928 0.605441 0
M  V30 613 H 56.7267 -0.260499 2.02834 0
M  V30 614 H 54.8817 -2.5942 2.87715 0
M  V30 615 H 55.2957 -1.77745 4.93464 0
M  V30 616 H 56.7697 -3.38759 4.35828 0
M  V30 617 H 57.2467 -3.4909 2.6652 0
M  V30 618 H 57.8527 -2.15271 3.66795 0
M  V30 619 N 56.1678 -1.49265 -0.50573 0
M  V30 620 C 57.0978 -1.68495 -1.61653 0
M  V30 621 C 58.0788 -0.53366 -1.61512 0
M  V30 622 O 59.2638 -0.76897 -1.78327 0
M  V30 623 C 56.3938 -1.74709 -3.00157 0
M  V30 624 C 55.3478 -2.89581 -3.15162 0
M  V30 625 C 54.6738 -2.80903 -4.5497 0
M  V30 626 C 55.9738 -4.30578 -2.95634 0
M  V30 627 H 57.6678 -2.61493 -1.45814 0
M  V30 628 H 55.2138 -1.25838 -0.70005 0
M  V30 629 H 57.1668 -1.86748 -3.77761 0
M  V30 630 H 55.8908 -0.783067 -3.17074 0
M  V30 631 H 54.5498 -2.77136 -2.39982 0
M  V30 632 H 54.1978 -1.82419 -4.68756 0
M  V30 633 H 53.8978 -3.57999 -4.65951 0
M  V30 634 H 55.4218 -2.94944 -5.34641 0
M  V30 635 H 56.8358 -4.4373 -3.63011 0
M  V30 636 H 55.2328 -5.0886 -3.18091 0
M  V30 637 H 56.3028 -4.45352 -1.91806 0
M  V30 638 N 57.6459 0.756429 -1.3826 0
M  V30 639 C 58.5929 1.87011 -1.35261 0
M  V30 640 C 59.5629 1.64695 -0.215616 0
M  V30 641 O 60.7479 1.864 -0.407399 0
M  V30 642 C 57.8879 3.24275 -1.18068 0
M  V30 643 C 57.0009 3.58442 -2.41129 0
M  V30 644 C 56.1359 4.84994 -2.16689 0
M  V30 645 C 55.1749 5.11939 -3.35537 0
M  V30 646 N 54.3119 6.29685 -3.10549 0
M  V30 647 H 59.1519 1.8891 -2.30472 0
M  V30 648 H 56.6889 0.923373 -1.14509 0
M  V30 649 H 58.6469 4.03479 -1.06116 0
M  V30 650 H 57.2769 3.21711 -0.264973 0
M  V30 651 H 56.3289 2.74103 -2.63764 0
M  V30 652 H 57.6409 3.74283 -3.29717 0
M  V30 653 H 56.7949 5.72135 -2.01857 0
M  V30 654 H 55.5339 4.71286 -1.25462 0
M  V30 655 H 54.5389 4.23268 -3.50891 0
M  V30 656 H 55.7639 5.27546 -4.27635 0
M  V30 657 H 53.7099 6.17306 -2.21967 0
M  V30 658 H 53.6269 6.46014 -3.92686 0
M  V30 659 H 54.8949 7.19722 -2.99367 0
M  V30 660 N 59.124 1.23083 0.984299 0
M  V30 661 C 60.401 0.9689 1.69917 0
M  V30 662 C 60.781 -0.513604 2.04757 0
M  V30 663 O 60.129 -1.48383 1.73767 0
M  V30 664 C 60.339 1.87518 2.94343 0
M  V30 665 C 61.687 2.13636 3.6694 0
M  V30 666 O 62.711 1.85036 3.04368 0
M  V30 667 O 61.57 2.62119 4.79537 0
M  V30 668 H 58.664 0.365095 0.742048 0
M  V30 669 H 61.21 1.34107 1.03987 0
M  V30 670 H 59.982 2.87756 2.65164 0
M  V30 671 H 59.605 1.50514 3.6801 0
M  V30 672 N 60.6021 -1.18246 1.0419 0
M  V30 673 C 61.8481 -1.88536 0.747122 0
M  V30 674 C 62.1811 -1.80223 -0.723409 0
M  V30 675 O 61.4561 -1.20337 -1.52804 0
M  V30 676 C 61.7391 -3.38968 1.21544 0
M  V30 677 C 61.5921 -3.56084 2.74816 0
M  V30 678 C 62.9111 -4.32648 0.806482 0
M  V30 679 H 60.0301 -0.684619 0.272883 0
M  V30 680 H 62.6721 -1.39113 1.29413 0
M  V30 681 H 60.8221 -3.8119 0.750081 0
M  V30 682 H 62.4941 -3.22946 3.29399 0
M  V30 683 H 60.7371 -2.98699 3.14582 0
M  V30 684 H 61.4081 -4.61639 3.02644 0
M  V30 685 H 63.8841 -3.98211 1.20695 0
M  V30 686 H 62.7601 -5.36462 1.1619 0
M  V30 687 H 63.0211 -4.41146 -0.29029 0
M  V30 688 N 62.0802 -0.821533 -1.34494 0
M  V30 689 C 63.4962 -0.507117 -1.51329 0
M  V30 690 C 63.6962 0.968964 -1.76673 0
M  V30 691 O 62.7522 1.75348 -1.81685 0
M  V30 692 C 64.0652 -1.36544 -2.67911 0
M  V30 693 C 65.6132 -1.36242 -2.81793 0
M  V30 694 C 66.0882 -2.2052 -4.01416 0
M  V30 695 N 67.5792 -2.18136 -4.08621 0
M  V30 696 C 68.3142 -2.80095 -5.00334 0
M  V30 697 N 67.8102 -3.51039 -5.9728 0
M  V30 698 N 69.6032 -2.69656 -4.93196 0
M  V30 699 H 61.7542 -1.77729 -1.16302 0
M  V30 700 H 64.0172 -0.757291 -0.570276 0
M  V30 701 H 63.7232 -2.41361 -2.55808 0
M  V30 702 H 63.5972 -1.02917 -3.62888 0
M  V30 703 H 65.9842 -0.322041 -2.93338 0
M  V30 704 H 66.0652 -1.73866 -1.87628 0
M  V30 705 H 65.7092 -3.24607 -3.90631 0
M  V30 706 H 65.6392 -1.80247 -4.94791 0
M  V30 707 H 68.1302 -1.6653 -3.39229 0
M  V30 708 H 68.4432 -3.95565 -6.63889 0
M  V30 709 H 66.7882 -3.55145 -5.97409 0
M  V30 710 H 69.9792 -2.13808 -4.16418 0
M  V30 711 H 70.1522 -3.1823 -5.64476 0
M  V30 712 N 63.5583 1.46682 -0.576371 0
M  V30 713 C 64.4883 2.33028 0.148397 0
M  V30 714 C 65.4693 1.44961 0.889956 0
M  V30 715 O 66.6543 1.73789 0.866662 0
M  V30 716 C 63.7843 3.27117 1.1667 0
M  V30 717 C 62.7383 4.24575 0.540386 0
M  V30 718 C 62.0643 5.08126 1.6647 0
M  V30 719 C 63.3643 5.19722 -0.518331 0
M  V30 720 H 65.0583 2.93875 -0.572509 0
M  V30 721 H 62.6043 1.41315 -0.276768 0
M  V30 722 H 64.5573 3.86374 1.68204 0
M  V30 723 H 63.2813 2.64364 1.9178 0
M  V30 724 H 61.9403 3.66571 0.0461769 0
M  V30 725 H 61.5883 4.41762 2.40531 0
M  V30 726 H 61.2883 5.74122 1.25131 0
M  V30 727 H 62.8123 5.70246 2.18293 0
M  V30 728 H 64.2263 5.73232 -0.0883058 0
M  V30 729 H 62.6233 5.94026 -0.851679 0
M  V30 730 H 63.6933 4.64037 -1.40703 0
M  V30 731 N 65.0364 0.313813 1.54444 0
M  V30 732 C 65.9684 -0.590425 2.21465 0
M  V30 733 C 66.9814 -1.08753 1.21147 0
M  V30 734 O 68.1704 -1.00278 1.4767 0
M  V30 735 C 65.2704 -1.82179 2.85769 0
M  V30 736 C 64.4434 -1.46502 4.12136 0
M  V30 737 C 63.5024 -2.55288 4.60124 0
M  V30 738 O 62.5284 -2.19842 5.25032 0
M  V30 739 N 63.7304 -3.86053 4.33525 0
M  V30 740 H 66.4954 -0.0166033 2.99695 0
M  V30 741 H 64.0564 0.136578 1.61323 0
M  V30 742 H 66.0484 -2.54328 3.14801 0
M  V30 743 H 64.6184 -2.30369 2.11303 0
M  V30 744 H 63.8384 -0.575595 3.89975 0
M  V30 745 H 65.1264 -1.20221 4.94393 0
M  V30 746 H 64.5244 -4.17654 3.81552 0
M  V30 747 H 63.0814 -4.54461 4.67235 0
M  V30 748 N 66.5145 -1.57545 0.0417849 0
M  V30 749 C 67.7635 -1.91494 -0.633492 0
M  V30 750 C 68.0765 -0.921084 -1.72556 0
M  V30 751 O 69.2825 -1.15228 -2.45835 0
M  V30 752 C 67.7385 -3.40072 -1.17808 0
M  V30 753 C 67.3465 -4.47843 -0.118633 0
M  V30 754 C 69.0905 -3.8307 -1.82915 0
M  V30 755 C 66.9975 -5.87529 -0.675578 0
M  V30 756 H 65.9275 -0.714653 -0.24039 0
M  V30 757 H 68.5785 -1.83175 0.109148 0
M  V30 758 H 66.9605 -3.43364 -1.97274 0
M  V30 759 H 68.1345 -4.56128 0.654494 0
M  V30 760 H 66.4495 -4.14128 0.434414 0
M  V30 761 H 69.0465 -4.84794 -2.25563 0
M  V30 762 H 69.3895 -3.1881 -2.67705 0
M  V30 763 H 69.9225 -3.82255 -1.10119 0
M  V30 764 H 66.6615 -6.55362 0.134475 0
M  V30 765 H 66.1815 -5.82824 -1.4169 0
M  V30 766 H 67.8605 -6.36491 -1.1614 0
M  V30 767 N 67.9926 0.231505 -1.5589 0
M  V30 768 C 69.4036 0.799327 -1.68724 0
M  V30 769 C 69.7546 1.85398 -0.642022 0
M  V30 770 O 68.8796 2.1539 0.208784 0
M  V30 771 C 69.4746 1.45664 -3.05888 0
M  V30 772 C 68.0336 1.97197 -3.20609 0
M  V30 773 C 67.1806 0.828552 -2.64632 0
M  V30 774 H 70.1316 0.00702616 -1.58698 0
M  V30 775 H 70.1526 2.32517 -3.01191 0
M  V30 776 H 69.6646 0.688808 -3.81939 0
M  V30 777 H 67.7656 2.76813 -2.4941 0
M  V30 778 H 67.8786 2.15878 -4.27707 0
M  V30 779 H 66.2426 1.23321 -2.22854 0
M  V30 780 H 67.0256 0.0735544 -3.43221 0
M  V30 781 N 69.4707 1.49531 0.497807 0
M  V30 782 C 70.4037 1.61043 1.6168 0
M  V30 783 C 71.3817 0.459386 1.55976 0
M  V30 784 O 72.5657 0.675358 1.75986 0
M  V30 785 C 69.6927 1.56833 3.00202 0
M  V30 786 C 68.7387 2.77173 3.24156 0
M  V30 787 S 69.5717 4.38808 3.06933 0
M  V30 788 C 70.7277 4.37248 4.47845 0
M  V30 789 H 70.9607 2.55702 1.51671 0
M  V30 790 H 68.4937 1.38462 0.683201 0
M  V30 791 H 70.4517 1.55089 3.80076 0
M  V30 792 H 69.1127 0.634561 3.07623 0
M  V30 793 H 68.3057 2.70456 4.25288 0
M  V30 794 H 67.9077 2.76346 2.5201 0
M  V30 795 H 70.1997 4.09164 5.39992 0
M  V30 796 H 71.1427 5.38668 4.59612 0
M  V30 797 H 71.5507 3.67286 4.28674 0
M  V30 798 N 70.9488 -0.749086 1.3866 0
M  V30 799 C 71.8808 -1.87273 1.32142 0
M  V30 800 C 72.8938 -1.61127 0.232787 0
M  V30 801 O 74.0828 -1.71623 0.49069 0
M  V30 802 C 71.1828 -3.23005 1.02571 0
M  V30 803 C 70.3558 -3.7662 2.22433 0
M  V30 804 C 69.4148 -4.90879 1.89537 0
M  V30 805 O 68.4408 -5.05276 2.62078 0
M  V30 806 N 69.6428 -5.74198 0.853031 0
M  V30 807 H 72.4078 -1.93373 2.28969 0
M  V30 808 H 69.9688 -0.929216 1.32579 0
M  V30 809 H 71.9608 -3.96992 0.786085 0
M  V30 810 H 70.5308 -3.12262 0.145249 0
M  V30 811 H 69.7508 -2.94147 2.62434 0
M  V30 812 H 71.0388 -4.09173 3.02415 0
M  V30 813 H 70.4368 -5.6514 0.25155 0
M  V30 814 H 68.9938 -6.48313 0.67329 0
M  V30 815 N 72.4269 -1.23603 -0.977757 0
M  V30 816 C 73.6759 -1.06377 -1.71368 0
M  V30 817 C 73.9889 0.399062 -1.91486 0
M  V30 818 O 75.1949 0.691312 -2.62551 0
M  V30 819 C 73.6509 -1.85512 -3.08404 0
M  V30 820 C 73.2589 -3.36141 -2.96164 0
M  V30 821 C 75.0029 -1.76783 -3.85938 0
M  V30 822 C 72.9099 -4.07659 -4.28449 0
M  V30 823 H 71.8399 -0.394452 -0.642591 0
M  V30 824 H 74.4909 -1.47594 -1.09034 0
M  V30 825 H 72.8729 -1.37103 -3.71509 0
M  V30 826 H 74.0469 -3.92056 -2.42133 0
M  V30 827 H 72.3619 -3.45712 -2.32104 0
M  V30 828 H 74.9589 -2.27526 -4.83876 0
M  V30 829 H 75.3019 -0.731116 -4.0983 0
M  V30 830 H 75.8349 -2.22818 -3.2954 0
M  V30 831 H 72.5739 -5.11648 -4.09752 0
M  V30 832 H 72.0939 -3.5653 -4.82334 0
M  V30 833 H 73.7729 -4.141 -4.97122 0
M  V30 834 N 73.905 1.17692 -1.04816 0
M  V30 835 C 75.135 1.91508 -0.775128 0
M  V30 836 C 75.543 1.76844 0.67253 0
M  V30 837 O 74.886 1.10057 1.47082 0
M  V30 838 C 74.948 3.43167 -1.0713 0
M  V30 839 C 74.612 3.81612 -2.51438 0
M  V30 840 C 75.609 3.84772 -3.49638 0
M  V30 841 C 73.294 4.12687 -2.86348 0
M  V30 842 C 75.288 4.18469 -4.80794 0
M  V30 843 C 72.975 4.46053 -4.17708 0
M  V30 844 C 73.973 4.48921 -5.14741 0
M  V30 845 O 73.661 4.81504 -6.43746 0
M  V30 846 H 73.393 0.614575 -0.281555 0
M  V30 847 H 75.947 1.50206 -1.40098 0
M  V30 848 H 74.177 3.84745 -0.388342 0
M  V30 849 H 75.866 3.98239 -0.784883 0
M  V30 850 H 76.632 3.60893 -3.24008 0
M  V30 851 H 72.511 4.09627 -2.11486 0
M  V30 852 H 76.055 4.20623 -5.56527 0
M  V30 853 H 71.952 4.69393 -4.43103 0
M  V30 854 H 72.72 4.99377 -6.4851 0
M  V30 855 N 75.3831 0.828654 1.34056 0
M  V30 856 C 76.6081 0.431637 2.02859 0
M  V30 857 C 77.0331 -0.956339 1.61975 0
M  V30 858 O 76.3911 -1.62338 0.807228 0
M  V30 859 C 76.4391 0.548323 3.56407 0
M  V30 860 O 75.5431 -0.429556 4.10157 0
M  V30 861 H 74.8841 0.176886 0.640006 0
M  V30 862 H 77.4141 1.12066 1.71179 0
M  V30 863 H 77.4241 0.426196 4.05768 0
M  V30 864 H 76.0991 1.5606 3.8551 0
M  V30 865 H 74.6761 -0.265836 3.71951 0
M  V30 866 N 76.8612 -1.46375 0.584142 0
M  V30 867 C 77.8242 -2.28784 -0.138108 0
M  V30 868 C 78.8242 -1.38471 -0.817462 0
M  V30 869 O 80.0142 -1.60833 -0.669199 0
M  V30 870 C 77.1462 -3.18892 -1.20503 0
M  V30 871 H 78.3392 -2.94117 0.586127 0
M  V30 872 H 75.8922 -1.52509 0.342171 0
M  V30 873 H 76.6272 -2.58309 -1.96079 0
M  V30 874 H 76.4122 -3.85388 -0.722384 0
M  V30 875 H 77.9022 -3.80914 -1.71155 0
M  V30 876 N 78.3393 -0.321999 -1.54275 0
M  V30 877 C 79.6163 0.335232 -1.92706 0
M  V30 878 C 79.9963 1.70006 -1.25145 0
M  V30 879 O 79.3443 2.25067 -0.394596 0
M  V30 880 C 79.5543 0.429008 -3.46353 0
M  V30 881 C 80.9023 0.690029 -4.18956 0
M  V30 882 O 81.9263 0.511992 -3.52501 0
M  V30 883 O 80.7853 1.03338 -5.36641 0
M  V30 884 H 77.8793 0.191143 -0.804608 0
M  V30 885 H 80.4253 -0.3716 -1.65581 0
M  V30 886 H 79.1973 -0.529611 -3.87699 0
M  V30 887 H 78.8203 1.18348 -3.79578 0
M  V30 888 N 79.8174 1.5752 -0.0501392 0
M  V30 889 C 81.0654 1.9227 0.622642 0
M  V30 890 C 81.3864 0.929083 1.71444 0
M  V30 891 O 80.6564 -0.0262186 1.95882 0
M  V30 892 H 79.2364 0.709739 0.232981 0
M  V30 893 H 81.8984 1.94628 -0.102898 0
M  V30 894 H 80.9944 2.93479 1.06191 0
M  V30 895 N 81.2955 -0.223234 1.56011 0
M  V30 896 C 82.2055 -1.29766 1.95443 0
M  V30 897 C 83.2215 -1.51373 0.858028 0
M  V30 898 O 84.3975 -1.64536 1.16146 0
M  V30 899 C 81.4625 -2.62772 2.26167 0
M  V30 900 C 80.5235 -2.49482 3.49367 0
M  V30 901 C 79.7565 -3.76145 3.78616 0
M  V30 902 O 79.9795 -4.79087 3.09568 0
M  V30 903 O 78.9135 -3.73358 4.72109 0
M  V30 904 H 82.7395 -0.99309 2.87004 0
M  V30 905 H 80.3245 -0.425958 1.43199 0
M  V30 906 H 82.2065 -3.41327 2.47131 0
M  V30 907 H 80.8815 -2.92913 1.37781 0
M  V30 908 H 79.7885 -1.69133 3.33684 0
M  V30 909 H 81.1215 -2.2428 4.38131 0
M  V30 910 N 82.7736 -1.49793 -0.48987 0
M  V30 911 C 83.7036 -1.70201 -1.59856 0
M  V30 912 C 84.6846 -0.55076 -1.60937 0
M  V30 913 O 85.8696 -0.787841 -1.77501 0
M  V30 914 C 82.9996 -1.77882 -2.98287 0
M  V30 915 C 81.9536 -2.92907 -3.12073 0
M  V30 916 C 81.2796 -2.85712 -4.51965 0
M  V30 917 C 82.5796 -4.3369 -2.91051 0
M  V30 918 H 84.2736 -2.63025 -1.43032 0
M  V30 919 H 81.8196 -1.26574 -0.686664 0
M  V30 920 H 83.7726 -1.90744 -3.75759 0
M  V30 921 H 82.4966 -0.816653 -3.16225 0
M  V30 922 H 81.1556 -2.79665 -2.37029 0
M  V30 923 H 80.8036 -1.8738 -4.66795 0
M  V30 924 H 80.5036 -3.62921 -4.62128 0
M  V30 925 H 82.0276 -3.00598 -5.31482 0
M  V30 926 H 83.4416 -4.47555 -3.58284 0
M  V30 927 H 81.8386 -5.12205 -3.12675 0
M  V30 928 H 82.9086 -4.47362 -1.87071 0
M  V30 929 N 84.2517 0.741722 -1.39055 0
M  V30 930 C 85.5007 1.49656 -1.35225 0
M  V30 931 C 85.8137 1.95533 0.0512708 0
M  V30 932 O 87.0197 2.7067 0.212138 0
M  V30 933 C 85.4757 2.70389 -2.37525 0
M  V30 934 C 85.0837 2.31489 -3.83558 0
M  V30 935 C 86.8277 3.48236 -2.42759 0
M  V30 936 C 84.7347 3.48903 -4.77515 0
M  V30 937 H 83.6647 0.56197 -0.502699 0
M  V30 938 H 86.3157 0.809727 -1.64668 0
M  V30 939 H 84.6977 3.41113 -2.01142 0
M  V30 940 H 85.8717 1.68354 -4.28945 0
M  V30 941 H 84.1867 1.66749 -3.81554 0
M  V30 942 H 86.7837 4.35558 -3.1015 0
M  V30 943 H 87.1267 3.90229 -1.45008 0
M  V30 944 H 87.6597 2.84535 -2.78002 0
M  V30 945 H 84.3987 3.11966 -5.76504 0
M  V30 946 H 83.9187 4.11041 -4.36813 0
M  V30 947 H 85.5977 4.15328 -4.96096 0
M  V30 948 N 85.7298 1.2412 0.971189 0
M  V30 949 C 86.6928 1.03156 2.04674 0
M  V30 950 C 87.6928 -0.00990322 1.60797 0
M  V30 951 O 88.8828 0.230729 1.72665 0
M  V30 952 C 86.0148 0.562765 3.36223 0
M  V30 953 H 87.2078 1.98614 2.24705 0
M  V30 954 H 84.7608 1.06293 1.14593 0
M  V30 955 H 85.4958 -0.395176 3.21883 0
M  V30 956 H 85.2808 1.31441 3.69413 0
M  V30 957 H 86.7708 0.437015 4.15307 0
M  V30 958 N 87.2079 -1.17134 1.05439 0
M  V30 959 C 88.1399 -2.2078 0.615539 0
M  V30 960 C 89.1529 -1.59584 -0.322001 0
M  V30 961 O 90.3419 -1.78133 -0.114344 0
M  V30 962 C 87.4419 -3.38691 -0.118938 0
M  V30 963 C 86.6149 -4.29454 0.829924 0
M  V30 964 C 85.6739 -5.26024 0.136258 0
M  V30 965 O 84.6999 -5.63952 0.77115 0
M  V30 966 N 85.9019 -5.69487 -1.1254 0
M  V30 967 H 88.6669 -2.59052 1.50705 0
M  V30 968 H 86.2279 -1.32058 0.936603 0
M  V30 969 H 88.2199 -4.00329 -0.593179 0
M  V30 970 H 86.7899 -2.98996 -0.91215 0
M  V30 971 H 86.0099 -3.65211 1.48373 0
M  V30 972 H 87.2979 -4.86984 1.47392 0
M  V30 973 H 86.6959 -5.4075 -1.6615 0
M  V30 974 H 85.2529 -6.33257 -1.54366 0
M  V30 975 N 88.686 -0.835752 -1.33615 0
M  V30 976 C 89.916 -0.442701 -2.01801 0
M  V30 977 C 90.324 0.959807 -1.63047 0
M  V30 978 O 89.667 1.63468 -0.838088 0
M  V30 979 C 89.729 -0.480125 -3.56279 0
M  V30 980 C 89.393 -1.8382 -4.18401 0
M  V30 981 C 90.39 -2.80097 -4.37998 0
M  V30 982 C 88.075 -2.13019 -4.54894 0
M  V30 983 C 90.069 -4.03736 -4.9323 0
M  V30 984 C 87.756 -3.36916 -5.09834 0
M  V30 985 C 88.754 -4.32091 -5.28948 0
M  V30 986 O 88.442 -5.53797 -5.82721 0
M  V30 987 H 88.174 -0.17441 -0.653114 0
M  V30 988 H 90.728 -1.129 -1.71589 0
M  V30 989 H 88.958 0.262931 -3.85805 0
M  V30 990 H 90.647 -0.105335 -4.05763 0
M  V30 991 H 91.413 -2.58838 -4.10156 0
M  V30 992 H 87.292 -1.39733 -4.39313 0
M  V30 993 H 90.836 -4.78034 -5.08064 0
M  V30 994 H 86.733 -3.58033 -5.37106 0
M  V30 995 H 87.501 -5.55494 -6.0114 0
M  V30 996 N 90.1641 1.46063 -0.591896 0
M  V30 997 C 91.4121 2.01938 -0.0808391 0
M  V30 998 C 91.7331 1.46475 1.28725 0
M  V30 999 O 91.0031 0.652944 1.84698 0
M  V30 1000 H 89.5831 0.746516 -0.0268938 0
M  V30 1001 H 92.2451 1.79055 -0.769752 0
M  V30 1002 H 91.3411 3.12094 -0.0187578 0
M  V30 1003 N 91.6422 0.330177 1.54103 0
M  V30 1004 C 92.5522 -0.541534 2.28264 0
M  V30 1005 C 93.5682 -1.12351 1.32866 0
M  V30 1006 O 94.7442 -1.14206 1.65888 0
M  V30 1007 C 91.8092 -1.68322 3.03098 0
M  V30 1008 C 90.8702 -1.13238 4.14096 0
M  V30 1009 C 90.1032 -2.21966 4.85352 0
M  V30 1010 O 90.3262 -3.42437 4.56172 0
M  V30 1011 O 89.2602 -1.87013 5.7211 0
M  V30 1012 H 93.0862 0.060938 3.03639 0
M  V30 1013 H 90.6712 0.09565 1.49093 0
M  V30 1014 H 92.5532 -2.34777 3.49939 0
M  V30 1015 H 91.2282 -2.27176 2.30593 0
M  V30 1016 H 90.1352 -0.432736 3.71589 0
M  V30 1017 H 91.4682 -0.588898 4.88664 0
M  V30 1018 N 93.1203 -1.57491 0.0584922 0
M  V30 1019 C 94.0673 -2.11958 -0.913376 0
M  V30 1020 C 95.0373 -1.02875 -1.30407 0
M  V30 1021 O 96.2223 -1.30464 -1.39226 0
M  V30 1022 C 93.3623 -2.67497 -2.18035 0
M  V30 1023 C 92.4753 -3.90691 -1.84349 0
M  V30 1024 C 91.6103 -4.3452 -3.05559 0
M  V30 1025 C 90.6493 -5.50395 -2.67827 0
M  V30 1026 N 89.7863 -5.89244 -3.81754 0
M  V30 1027 H 94.6263 -2.94704 -0.442017 0
M  V30 1028 H 92.1633 -1.45643 -0.206545 0
M  V30 1029 H 94.1213 -2.978 -2.92183 0
M  V30 1030 H 92.7513 -1.87537 -2.62735 0
M  V30 1031 H 91.8033 -3.66934 -1.00319 0
M  V30 1032 H 93.1153 -4.7489 -1.5258 0
M  V30 1033 H 92.2693 -4.66414 -3.87998 0
M  V30 1034 H 91.0083 -3.49147 -3.40511 0
M  V30 1035 H 90.0133 -5.18165 -1.83806 0
M  V30 1036 H 91.2383 -6.3749 -2.34059 0
M  V30 1037 H 89.1843 -5.06823 -4.16493 0
M  V30 1038 H 89.1013 -6.68151 -3.53708 0
M  V30 1039 H 90.3693 -6.25756 -4.64811 0
M  V30 1040 N 94.5984 0.214957 -1.56127 0
M  V30 1041 C 96.0144 0.564948 -1.49267 0
M  V30 1042 C 96.2144 1.86827 -0.754838 0
M  V30 1043 O 95.2704 2.50745 -0.297198 0
M  V30 1044 C 96.5834 0.638071 -2.93852 0
M  V30 1045 C 98.1314 0.728253 -3.0441 0
M  V30 1046 C 98.6064 0.832663 -4.50367 0
M  V30 1047 N 100.097 0.896712 -4.54437 0
M  V30 1048 C 100.832 0.997324 -5.6466 0
M  V30 1049 N 100.328 1.06147 -6.8462 0
M  V30 1050 N 102.121 1.03297 -5.52527 0
M  V30 1051 H 94.2724 -0.640211 -2.02522 0
M  V30 1052 H 96.5354 -0.225507 -0.920788 0
M  V30 1053 H 96.2414 -0.250126 -3.50809 0
M  V30 1054 H 96.1154 1.49947 -3.46115 0
M  V30 1055 H 98.5024 1.60689 -2.47514 0
M  V30 1056 H 98.5834 -0.158952 -2.55306 0
M  V30 1057 H 98.2274 -0.0415417 -5.07883 0
M  V30 1058 H 98.1574 1.73538 -4.97184 0
M  V30 1059 H 100.648 0.857188 -3.6805 0
M  V30 1060 H 100.961 1.1382 -7.64372 0
M  V30 1061 H 99.3064 1.03049 -6.87318 0
M  V30 1062 H 102.497 0.979558 -4.57736 0
M  V30 1063 H 102.67 1.10793 -6.38458 0
M  V30 1064 N 96.0765 1.50051 0.48192 0
M  V30 1065 C 97.4925 1.37237 0.814756 0
M  V30 1066 C 97.6925 0.420109 1.97072 0
M  V30 1067 O 96.7485 -0.141246 2.52105 0
M  V30 1068 C 98.0615 2.78375 1.13701 0
M  V30 1069 C 99.6095 2.87213 1.2441 0
M  V30 1070 C 100.084 4.29161 1.59954 0
M  V30 1071 N 101.575 4.32061 1.66967 0
M  V30 1072 C 102.31 5.38879 1.95952 0
M  V30 1073 N 101.806 6.55918 2.23031 0
M  V30 1074 N 103.599 5.26312 1.97363 0
M  V30 1075 H 95.7505 2.10546 -0.28005 0
M  V30 1076 H 98.0135 0.945921 -0.0627454 0
M  V30 1077 H 97.7195 3.49845 0.360787 0
M  V30 1078 H 97.5935 3.14941 2.07586 0
M  V30 1079 H 99.9805 2.15969 2.01101 0
M  V30 1080 H 100.061 2.54204 0.285299 0
M  V30 1081 H 99.7055 5.00938 0.838067 0
M  V30 1082 H 99.6355 4.59648 2.56966 0
M  V30 1083 H 102.126 3.47661 1.48123 0
M  V30 1084 H 102.439 7.33139 2.44391 0
M  V30 1085 H 100.784 6.59112 2.20447 0
M  V30 1086 H 103.975 4.33876 1.75697 0
M  V30 1087 H 104.148 6.09649 2.19618 0
M  V30 1088 N 97.5546 -0.734337 1.39446 0
M  V30 1089 C 98.8036 -1.48937 1.36017 0
M  V30 1090 C 99.1166 -1.95557 -0.0409005 0
M  V30 1091 O 100.323 -2.70779 -0.19778 0
M  V30 1092 C 98.7786 -2.69125 2.38955 0
M  V30 1093 C 98.3866 -2.29452 3.8478 0
M  V30 1094 C 100.131 -3.46944 2.44603 0
M  V30 1095 C 98.0376 -3.46366 4.79358 0
M  V30 1096 H 96.9676 -0.559296 0.505672 0
M  V30 1097 H 99.6186 -0.800983 1.65095 0
M  V30 1098 H 98.0006 -3.40041 2.02948 0
M  V30 1099 H 99.1746 -1.66077 4.29831 0
M  V30 1100 H 97.4896 -1.64723 3.82433 0
M  V30 1101 H 100.087 -4.33907 3.12456 0
M  V30 1102 H 100.43 -3.89454 1.47076 0
M  V30 1103 H 100.963 -2.83056 2.79507 0
M  V30 1104 H 97.7016 -3.08905 5.78151 0
M  V30 1105 H 97.2216 -4.08719 4.38986 0
M  V30 1106 H 98.9006 -4.12691 4.98292 0
M  V30 1107 N 99.0327 -1.24633 -0.964593 0
M  V30 1108 C 100.444 -1.08045 -1.5226 0
M  V30 1109 C 100.795 0.347116 -1.93105 0
M  V30 1110 O 99.9197 1.23588 -1.77637 0
M  V30 1111 C 100.515 -1.95514 -2.76695 0
M  V30 1112 C 99.0737 -1.8314 -3.28841 0
M  V30 1113 C 98.2207 -1.90262 -2.01732 0
M  V30 1114 H 101.172 -1.38064 -0.782553 0
M  V30 1115 H 101.193 -1.48925 -3.50145 0
M  V30 1116 H 100.705 -2.99407 -2.46936 0
M  V30 1117 H 98.8057 -0.82092 -3.63444 0
M  V30 1118 H 98.9187 -2.67406 -3.97531 0
M  V30 1119 H 97.2827 -1.34027 -2.16584 0
M  V30 1120 H 98.0657 -2.9574 -1.74334 0
M  V30 1121 N 100.511 1.16574 -1.06058 0
M  V30 1122 C 101.757 1.87324 -0.777022 0
M  V30 1123 C 102.09 1.81351 0.694645 0
M  V30 1124 O 101.365 1.22753 1.50871 0
M  V30 1125 C 101.648 3.36991 -1.26922 0
M  V30 1126 C 101.501 3.51667 -2.80447 0
M  V30 1127 C 102.82 4.3131 -0.87521 0
M  V30 1128 H 99.9388 0.680191 -0.28374 0
M  V30 1129 H 102.581 1.37036 -1.3161 0
M  V30 1130 H 100.731 3.79949 -0.81063 0
M  V30 1131 H 102.403 3.17664 -3.34495 0
M  V30 1132 H 100.646 2.93656 -3.19294 0
M  V30 1133 H 101.317 4.56766 -3.0995 0
M  V30 1134 H 103.793 3.9624 -1.27014 0
M  V30 1135 H 102.669 5.34545 -1.2471 0
M  V30 1136 H 102.93 4.41552 0.220071 0
M  V30 1137 N 101.989 0.842826 1.3317 0
M  V30 1138 C 103.217 0.454055 2.01856 0
M  V30 1139 C 103.632 -0.94587 1.63397 0
M  V30 1140 O 102.989 -1.61534 0.849302 0
M  V30 1141 C 103.04 0.569715 3.56982 0
M  V30 1142 O 102.761 1.91448 3.94055 0
M  V30 1143 C 104.262 0.178412 4.42941 0
M  V30 1144 H 101.482 0.17979 0.646465 0
M  V30 1145 H 104.026 1.1365 1.70012 0
M  V30 1146 H 102.181 -0.0648587 3.87346 0
M  V30 1147 H 102.595 1.90282 4.88767 0
M  V30 1148 H 104.069 0.310376 5.51127 0
M  V30 1149 H 104.546 -0.880056 4.30293 0
M  V30 1150 H 105.152 0.787579 4.17944 0
M  V30 1151 N 103.467 -1.45747 0.599634 0
M  V30 1152 C 104.397 -2.33235 -0.111306 0
M  V30 1153 C 105.378 -1.46359 -0.866781 0
M  V30 1154 O 106.563 -1.75146 -0.838904 0
M  V30 1155 C 103.693 -3.28932 -1.11451 0
M  V30 1156 C 102.647 -4.25381 -0.472772 0
M  V30 1157 C 101.973 -5.1071 -1.58365 0
M  V30 1158 C 103.273 -5.18831 0.600948 0
M  V30 1159 H 104.967 -2.92927 0.61919 0
M  V30 1160 H 102.513 -1.40857 0.299215 0
M  V30 1161 H 104.466 -3.89002 -1.62036 0
M  V30 1162 H 103.19 -2.67381 -1.8755 0
M  V30 1163 H 101.849 -3.66598 0.0121472 0
M  V30 1164 H 101.497 -4.45533 -2.33473 0
M  V30 1165 H 101.197 -5.7604 -1.15982 0
M  V30 1166 H 102.721 -5.73647 -2.09194 0
M  V30 1167 H 104.135 -5.73019 0.179491 0
M  V30 1168 H 102.532 -5.92595 0.946076 0
M  V30 1169 H 103.602 -4.6174 1.48068 0
M  V30 1170 N 104.945 -0.338344 -1.53925 0
M  V30 1171 C 106.222 0.314774 -1.93051 0
M  V30 1172 C 106.602 1.68669 -1.26941 0
M  V30 1173 O 105.95 2.24636 -0.418445 0
M  V30 1174 C 106.16 0.392249 -3.46789 0
M  V30 1175 C 107.508 0.645554 -4.19664 0
M  V30 1176 O 108.532 0.474575 -3.53024 0
M  V30 1177 O 107.391 0.976408 -5.37707 0
M  V30 1178 H 104.485 0.182598 -0.80659 0
M  V30 1179 H 107.031 -0.389141 -1.65178 0
M  V30 1180 H 105.803 -0.570702 -3.87116 0
M  V30 1181 H 105.426 1.14316 -3.80812 0
M  V30 1182 N 106.423 1.57458 -0.0668435 0
M  V30 1183 C 107.355 2.09413 0.931601 0
M  V30 1184 C 108.368 1.02522 1.26464 0
M  V30 1185 O 109.557 1.30049 1.22269 0
M  V30 1186 C 106.657 2.53537 2.24882 0
M  V30 1187 C 105.83 3.83944 2.09537 0
M  V30 1188 C 104.889 4.14214 3.2452 0
M  V30 1189 O 103.915 4.83891 2.9973 0
M  V30 1190 N 105.117 3.67367 4.49469 0
M  V30 1191 H 107.882 2.95699 0.488048 0
M  V30 1192 H 105.443 1.61462 0.119009 0
M  V30 1193 H 107.435 2.70853 3.00701 0
M  V30 1194 H 106.005 1.72415 2.60753 0
M  V30 1195 H 105.225 3.76057 1.18215 0
M  V30 1196 H 106.513 4.69312 1.96529 0
M  V30 1197 H 105.911 3.11068 4.72497 0
M  V30 1198 H 104.468 3.89891 5.2233 0
M  V30 1199 N 107.901 -0.206675 1.56239 0
M  V30 1200 C 109.15 -0.926964 1.79138 0
M  V30 1201 C 109.463 -1.84901 0.638043 0
M  V30 1202 O 110.669 -2.60906 0.751033 0
M  V30 1203 C 109.125 -1.6986 3.17294 0
M  V30 1204 C 108.733 -0.821956 4.40395 0
M  V30 1205 C 110.477 -2.40922 3.4951 0
M  V30 1206 C 108.384 -1.59179 5.69575 0
M  V30 1207 H 107.314 -0.349864 0.667915 0
M  V30 1208 H 109.965 -0.180487 1.8261 0
M  V30 1209 H 108.347 -2.48853 3.08039 0
M  V30 1210 H 109.521 -0.0715019 4.60745 0
M  V30 1211 H 107.836 -0.222741 4.15804 0
M  V30 1212 H 110.433 -2.99047 4.43255 0
M  V30 1213 H 110.776 -3.14542 2.72707 0
M  V30 1214 H 111.309 -1.68905 3.60161 0
M  V30 1215 H 108.048 -0.898589 6.49312 0
M  V30 1216 H 107.568 -2.31648 5.53262 0
M  V30 1217 H 109.247 -2.14862 6.10281 0
M  V30 1218 N 109.379 -1.50304 -0.473955 0
M  V30 1219 C 110.79 -1.54042 -1.0549 0
M  V30 1220 C 111.141 -0.342248 -1.93192 0
M  V30 1221 O 110.266 0.545157 -2.09421 0
M  V30 1222 C 110.861 -2.79152 -1.91989 0
M  V30 1223 C 109.42 -2.8558 -2.45196 0
M  V30 1224 C 108.567 -2.48295 -1.2347 0
M  V30 1225 H 111.518 -1.5661 -0.256693 0
M  V30 1226 H 111.539 -2.60845 -2.7702 0
M  V30 1227 H 111.051 -3.66339 -1.28131 0
M  V30 1228 H 109.152 -2.02738 -3.12615 0
M  V30 1229 H 109.265 -3.88403 -2.80499 0
M  V30 1230 H 107.629 -2.00669 -1.56856 0
M  V30 1231 H 108.412 -3.37787 -0.612789 0
M  V30 1232 N 110.857 0.726932 -1.39834 0
M  V30 1233 C 112.268 1.30558 -1.3346 0
M  V30 1234 C 112.619 1.962 -0.00273003 0
M  V30 1235 O 111.744 1.96826 0.899371 0
M  V30 1236 C 112.339 2.37404 -2.41713 0
M  V30 1237 C 110.898 2.90921 -2.38835 0
M  V30 1238 C 110.045 1.64578 -2.2318 0
M  V30 1239 H 112.996 0.523862 -1.49804 0
M  V30 1240 H 113.017 3.17984 -2.08966 0
M  V30 1241 H 112.529 1.89599 -3.38635 0
M  V30 1242 H 110.63 3.42985 -1.45575 0
M  V30 1243 H 110.743 3.43487 -3.33997 0
M  V30 1244 H 109.107 1.89219 -1.70494 0
M  V30 1245 H 109.89 1.18814 -3.22084 0
M  V30 1246 N 112.336 1.25143 0.95797 0
M  V30 1247 C 113.246 1.06968 2.08794 0
M  V30 1248 C 114.262 0.00773911 1.73998 0
M  V30 1249 O 115.438 0.207972 2.00323 0
M  V30 1250 C 112.503 0.68691 3.39827 0
M  V30 1251 C 111.564 1.82641 3.88511 0
M  V30 1252 C 110.797 1.46181 5.1329 0
M  V30 1253 O 111.02 0.355971 5.69288 0
M  V30 1254 O 109.954 2.29085 5.566 0
M  V30 1255 H 113.78 2.01723 2.27027 0
M  V30 1256 H 111.365 1.04051 1.07209 0
M  V30 1257 H 113.247 0.485417 4.18595 0
M  V30 1258 H 111.922 -0.231417 3.22872 0
M  V30 1259 H 110.829 2.08274 3.10762 0
M  V30 1260 H 112.162 2.72386 4.09959 0
M  V30 1261 N 113.814 -1.1601 1.06675 0
M  V30 1262 C 114.747 -2.1947 0.625168 0
M  V30 1263 C 115.725 -1.58699 -0.354041 0
M  V30 1264 O 116.909 -1.86669 -0.262098 0
M  V30 1265 C 114.036 -3.38598 -0.0829593 0
M  V30 1266 C 113.082 -4.1787 0.853611 0
M  V30 1267 S 113.915 -4.81135 2.35094 0
M  V30 1268 C 115.071 -6.03639 1.65441 0
M  V30 1269 H 115.304 -2.56587 1.50168 0
M  V30 1270 H 112.837 -1.26862 0.880078 0
M  V30 1271 H 114.795 -4.07621 -0.485288 0
M  V30 1272 H 113.456 -2.99839 -0.935716 0
M  V30 1273 H 112.649 -5.03078 0.304755 0
M  V30 1274 H 112.251 -3.54361 1.196 0
M  V30 1275 H 114.543 -6.70632 0.962201 0
M  V30 1276 H 115.486 -6.63081 2.48454 0
M  V30 1277 H 115.894 -5.52965 1.13534 0
M  V30 1278 N 115.292 -0.849877 -1.32721 0
M  V30 1279 C 116.538 -0.451591 -1.97708 0
M  V30 1280 C 116.871 0.989175 -1.6712 0
M  V30 1281 O 116.146 1.69334 -0.956891 0
M  V30 1282 C 116.429 -0.685598 -3.53513 0
M  V30 1283 C 116.282 -2.17444 -3.93749 0
M  V30 1284 C 117.601 -0.138874 -4.39881 0
M  V30 1285 H 114.72 -0.16555 -0.718166 0
M  V30 1286 H 117.362 -1.06742 -1.57182 0
M  V30 1287 H 115.512 -0.161416 -3.88165 0
M  V30 1288 H 117.184 -2.76433 -3.693 0
M  V30 1289 H 115.427 -2.65476 -3.43081 0
M  V30 1290 H 116.098 -2.28888 -5.02309 0
M  V30 1291 H 118.574 -0.587068 -4.11938 0
M  V30 1292 H 117.45 -0.332213 -5.47894 0
M  V30 1293 H 117.711 0.95806 -4.31594 0
M  V30 1294 N 116.77 1.45427 -0.607355 0
M  V30 1295 C 117.717 2.3053 0.111625 0
M  V30 1296 C 118.687 1.4209 0.860216 0
M  V30 1297 O 119.872 1.71019 0.845998 0
M  V30 1298 C 117.012 3.26992 1.10319 0
M  V30 1299 C 116.125 4.30535 0.355493 0
M  V30 1300 C 115.26 5.14105 1.33676 0
M  V30 1301 C 114.299 6.09376 0.576862 0
M  V30 1302 N 113.436 6.85727 1.5074 0
M  V30 1303 H 118.276 2.91477 -0.620093 0
M  V30 1304 H 115.813 1.43631 -0.317594 0
M  V30 1305 H 117.771 3.81385 1.6912 0
M  V30 1306 H 116.401 2.67799 1.80232 0
M  V30 1307 H 115.453 3.78805 -0.348023 0
M  V30 1308 H 116.765 4.98235 -0.237423 0
M  V30 1309 H 115.919 5.72897 1.99684 0
M  V30 1310 H 114.658 4.46423 1.9636 0
M  V30 1311 H 113.663 5.49715 -0.0968519 0
M  V30 1312 H 114.888 6.79085 -0.0449341 0
M  V30 1313 H 112.834 6.20735 2.12189 0
M  V30 1314 H 112.751 7.49778 0.967913 0
M  V30 1315 H 114.019 7.4906 2.15706 0
M  V30 1316 N 118.248 0.346503 1.53744 0
M  V30 1317 C 119.211 -0.496439 2.23759 0
M  V30 1318 C 120.211 -1.0252 1.2388 0
M  V30 1319 O 121.401 -0.913974 1.48297 0
M  V30 1320 C 118.533 -1.69187 2.95954 0
M  V30 1321 H 119.726 0.115952 2.99676 0
M  V30 1322 H 117.279 0.0978939 1.55993 0
M  V30 1323 H 118.014 -2.34288 2.24231 0
M  V30 1324 H 117.799 -1.31989 3.69217 0
M  V30 1325 H 119.289 -2.28969 3.49232 0
M  V30 1326 N 119.726 -1.57421 0.075193 0
M  V30 1327 C 120.973 -1.93618 -0.593146 0
M  V30 1328 C 121.301 -0.955484 -1.69413 0
M  V30 1329 O 120.556 0.0283251 -1.9568 0
M  V30 1330 C 120.855 -3.36428 -1.20626 0
M  V30 1331 C 120.521 -4.50307 -0.231078 0
M  V30 1332 C 119.183 -4.81186 0.0371936 0
M  V30 1333 C 121.535 -5.19374 0.435888 0
M  V30 1334 C 118.863 -5.78466 0.979461 0
M  V30 1335 C 121.215 -6.17665 1.3665 0
M  V30 1336 C 119.879 -6.46958 1.6432 0
M  V30 1337 H 119.149 -0.708499 -0.217047 0
M  V30 1338 H 121.796 -1.90937 0.146793 0
M  V30 1339 H 120.101 -3.35592 -2.02201 0
M  V30 1340 H 121.798 -3.61727 -1.73073 0
M  V30 1341 H 118.388 -4.26227 -0.450357 0
M  V30 1342 H 122.572 -4.95711 0.241748 0
M  V30 1343 H 117.828 -5.99487 1.20106 0
M  V30 1344 H 122.002 -6.70284 1.88924 0
M  V30 1345 H 119.629 -7.2215 2.37494 0
M  V30 1346 N 121.204 0.198386 -1.56346 0
M  V30 1347 C 122.453 0.917451 -1.79627 0
M  V30 1348 C 122.766 1.8456 -0.64784 0
M  V30 1349 O 123.972 2.60504 -0.764859 0
M  V30 1350 C 122.428 1.68175 -3.18191 0
M  V30 1351 C 122.036 0.798589 -4.40825 0
M  V30 1352 C 123.78 2.39065 -3.50782 0
M  V30 1353 C 121.687 1.56157 -5.70411 0
M  V30 1354 H 120.617 0.346317 -0.669762 0
M  V30 1355 H 123.268 0.170801 -1.82703 0
M  V30 1356 H 121.65 2.47216 -3.09354 0
M  V30 1357 H 122.824 0.0470665 -4.60776 0
M  V30 1358 H 121.139 0.200686 -4.15916 0
M  V30 1359 H 123.736 2.96692 -4.44835 0
M  V30 1360 H 124.079 3.13091 -2.74371 0
M  V30 1361 H 124.612 1.66993 -3.61052 0
M  V30 1362 H 121.351 0.864142 -6.49779 0
M  V30 1363 H 120.871 2.2871 -5.54483 0
M  V30 1364 H 122.55 2.11622 -6.11412 0
M  V30 1365 N 122.682 1.50554 0.465978 0
M  V30 1366 C 123.645 1.69233 1.54574 0
M  V30 1367 C 124.645 0.562901 1.50626 0
M  V30 1368 O 125.835 0.830016 1.53155 0
M  V30 1369 C 122.967 1.7223 2.94193 0
M  V30 1370 H 124.16 2.65571 1.39327 0
M  V30 1371 H 121.713 1.40111 0.692711 0
M  V30 1372 H 122.448 0.77603 3.14878 0
M  V30 1373 H 122.233 2.54285 2.98466 0
M  V30 1374 H 123.723 1.88618 3.72576 0
M  V30 1375 N 124.16 -0.719506 1.40217 0
M  V30 1376 C 125.388 -1.50864 1.41589 0
M  V30 1377 C 125.803 -1.88794 0.0145275 0
M  V30 1378 O 125.16 -1.55174 -0.960594 0
M  V30 1379 C 125.211 -2.78646 2.30302 0
M  V30 1380 O 124.932 -2.42321 3.64983 0
M  V30 1381 C 126.433 -3.72569 2.40224 0
M  V30 1382 H 123.653 -0.465709 0.48307 0
M  V30 1383 H 126.197 -0.88785 1.84221 0
M  V30 1384 H 124.352 -3.37019 1.91042 0
M  V30 1385 H 124.766 -3.24514 4.12057 0
M  V30 1386 H 126.24 -4.5908 3.06512 0
M  V30 1387 H 126.717 -4.15403 1.42608 0
M  V30 1388 H 127.323 -3.20109 2.80019 0
M  V30 1389 N 125.638 -1.25649 -0.95132 0
M  V30 1390 C 126.548 -1.08073 -2.08224 0
M  V30 1391 C 127.564 -0.0169666 -1.73992 0
M  V30 1392 O 128.74 -0.218593 -2.0021 0
M  V30 1393 C 125.805 -0.704922 -3.39458 0
M  V30 1394 C 124.866 -1.84699 -3.87537 0
M  V30 1395 C 124.099 -1.48902 -5.12508 0
M  V30 1396 O 124.322 -0.386156 -5.69091 0
M  V30 1397 O 123.256 -2.32033 -5.55378 0
M  V30 1398 H 127.082 -2.02924 -2.25954 0
M  V30 1399 H 124.667 -1.04618 -1.06656 0
M  V30 1400 H 126.549 -0.507609 -4.18332 0
M  V30 1401 H 125.224 0.214291 -3.2299 0
M  V30 1402 H 124.131 -2.09919 -3.09653 0
M  V30 1403 H 125.464 -2.74557 -4.08509 0
M  V30 1404 N 127.117 1.15442 -1.07289 0
M  V30 1405 C 128.394 1.82306 -0.708792 0
M  V30 1406 C 128.774 1.94991 0.808807 0
M  V30 1407 O 128.122 1.50085 1.72298 0
M  V30 1408 C 128.332 3.18695 -1.42247 0
M  V30 1409 C 129.68 3.94341 -1.57417 0
M  V30 1410 O 130.704 3.28247 -1.38319 0
M  V30 1411 O 129.563 5.12839 -1.88834 0
M  V30 1412 H 126.657 0.787628 -0.252132 0
M  V30 1413 H 129.203 1.22559 -1.17377 0
M  V30 1414 H 127.975 3.04557 -2.45684 0
M  V30 1415 H 127.598 3.86128 -0.948223 0
M  V30 1416 N 128.595 0.856903 1.32268 0
M  V30 1417 C 129.82 0.474569 2.01897 0
M  V30 1418 C 130.245 -0.921766 1.63967 0
M  V30 1419 O 129.603 -1.60589 0.84148 0
M  V30 1420 C 129.651 0.623799 3.55164 0
M  V30 1421 O 128.755 -0.342459 4.10976 0
M  V30 1422 H 128.096 0.190422 0.63611 0
M  V30 1423 H 130.626 1.15672 1.68764 0
M  V30 1424 H 130.636 0.512169 4.04773 0
M  V30 1425 H 129.311 1.64202 3.82113 0
M  V30 1426 H 127.888 -0.18688 3.72431 0
M  V30 1427 N 130.073 -1.45103 0.615059 0
M  V30 1428 C 131.489 -1.57137 0.279322 0
M  V30 1429 C 131.689 -1.60523 -1.21797 0
M  V30 1430 O 130.745 -1.53956 -2.00134 0
M  V30 1431 C 132.058 -2.85062 0.957083 0
M  V30 1432 C 133.606 -2.98749 0.933706 0
M  V30 1433 C 134.081 -4.29455 1.59162 0
M  V30 1434 N 135.572 -4.36231 1.55746 0
M  V30 1435 C 136.307 -5.36051 2.0356 0
M  V30 1436 N 135.803 -6.42367 2.59494 0
M  V30 1437 N 137.596 -5.27456 1.94284 0
M  V30 1438 H 129.747 -1.41148 1.58717 0
M  V30 1439 H 132.01 -0.675331 0.665306 0
M  V30 1440 H 131.716 -2.88488 2.01166 0
M  V30 1441 H 131.59 -3.7407 0.48494 0
M  V30 1442 H 133.977 -2.94886 -0.112347 0
M  V30 1443 H 134.058 -2.11132 1.44419 0
M  V30 1444 H 133.702 -4.34077 2.63704 0
M  V30 1445 H 133.632 -5.15901 1.0561 0
M  V30 1446 H 136.123 -3.60011 1.14893 0
M  V30 1447 H 136.436 -7.14793 2.93752 0
M  V30 1448 H 134.781 -6.43097 2.63537 0
M  V30 1449 H 137.972 -4.43308 1.5032 0
M  V30 1450 H 138.145 -6.05099 2.3186 0
M  V30 1451 N 131.551 -0.354651 -1.53558 0
M  V30 1452 C 132.798 0.238443 -2.01091 0
M  V30 1453 C 133.126 1.49663 -1.24222 0
M  V30 1454 O 132.381 1.93049 -0.321003 0
M  V30 1455 C 132.68 0.587121 -3.52545 0
M  V30 1456 C 132.346 -0.575472 -4.47213 0
M  V30 1457 C 131.008 -0.894497 -4.72813 0
M  V30 1458 C 133.36 -1.35489 -5.03281 0
M  V30 1459 C 130.688 -1.99511 -5.51736 0
M  V30 1460 C 133.04 -2.44583 -5.83405 0
M  V30 1461 C 131.704 -2.77033 -6.07296 0
M  V30 1462 H 130.974 0.0872526 -0.735845 0
M  V30 1463 H 133.621 -0.484859 -1.8526 0
M  V30 1464 H 131.926 1.39129 -3.66265 0
M  V30 1465 H 133.623 1.05809 -3.86789 0
M  V30 1466 H 130.213 -0.316774 -4.27428 0
M  V30 1467 H 134.397 -1.12167 -4.83459 0
M  V30 1468 H 129.653 -2.25063 -5.68469 0
M  V30 1469 H 133.827 -3.05401 -6.25862 0
M  V30 1470 H 131.454 -3.6244 -6.68237 0
M  V30 1471 N 133.029 1.57378 -0.0835403 0
M  V30 1472 C 134.259 1.97975 0.590713 0
M  V30 1473 C 134.667 0.961083 1.62972 0
M  V30 1474 O 134.01 -0.0590879 1.83605 0
M  V30 1475 C 134.072 3.34915 1.3066 0
M  V30 1476 C 133.736 4.55069 0.419698 0
M  V30 1477 C 134.733 5.18868 -0.32749 0
M  V30 1478 C 132.418 5.0114 0.341137 0
M  V30 1479 C 134.412 6.27098 -1.14134 0
M  V30 1480 C 132.099 6.0924 -0.476374 0
M  V30 1481 C 133.097 6.72083 -1.21627 0
M  V30 1482 O 132.785 7.781 -2.02028 0
M  V30 1483 H 132.517 0.655818 0.163947 0
M  V30 1484 H 135.071 2.04807 -0.156021 0
M  V30 1485 H 133.301 3.24733 2.09966 0
M  V30 1486 H 134.99 3.60037 1.87424 0
M  V30 1487 H 135.756 4.84211 -0.276459 0
M  V30 1488 H 131.635 4.51996 0.90668 0
M  V30 1489 H 135.179 6.7608 -1.71935 0
M  V30 1490 H 131.076 6.43329 -0.528927 0
M  V30 1491 H 131.844 7.95034 -1.94586 0
M  V30 1492 N 134.507 -0.190092 1.56449 0
M  V30 1493 C 135.417 -1.25591 1.98152 0
M  V30 1494 C 136.433 -1.49519 0.889944 0
M  V30 1495 O 137.609 -1.62036 1.19609 0
M  V30 1496 C 134.674 -2.57916 2.3169 0
M  V30 1497 C 133.735 -2.42015 3.5458 0
M  V30 1498 C 132.968 -3.6803 3.8651 0
M  V30 1499 O 133.191 -4.72413 3.1966 0
M  V30 1500 O 132.125 -3.6326 4.79923 0
M  V30 1501 H 135.951 -0.931988 2.89046 0
M  V30 1502 H 133.536 -0.395488 1.4407 0
M  V30 1503 H 135.418 -3.36008 2.54316 0
M  V30 1504 H 134.093 -2.89925 1.43963 0
M  V30 1505 H 133 -1.62017 3.37196 0
M  V30 1506 H 134.333 -2.14937 4.4279 0
M  V30 1507 N 135.985 -1.50799 -0.457987 0
M  V30 1508 C 136.935 -1.67003 -1.55222 0
M  V30 1509 C 137.919 -0.52434 -1.52117 0
M  V30 1510 O 139.111 -0.779345 -1.58919 0
M  V30 1511 C 136.24 -1.77956 -2.93576 0
M  V30 1512 C 135.326 -2.98243 -3.01516 0
M  V30 1513 N 135.717 -4.21732 -2.79241 0
M  V30 1514 C 134.015 -2.97072 -3.32662 0
M  V30 1515 C 134.716 -5.02817 -2.92489 0
M  V30 1516 N 133.692 -4.37038 -3.23262 0
M  V30 1517 H 137.494 -2.60163 -1.36721 0
M  V30 1518 H 135.008 -1.48163 -0.664952 0
M  V30 1519 H 137.005 -1.87671 -3.72271 0
M  V30 1520 H 135.665 -0.859634 -3.13114 0
M  V30 1521 H 136.676 -4.51016 -2.54567 0
M  V30 1522 H 133.353 -2.14631 -3.58106 0
M  V30 1523 H 134.743 -6.11054 -2.79396 0
M  V30 1524 N 137.463 0.71206 -1.40597 0
M  V30 1525 C 138.413 1.81783 -1.37619 0
M  V30 1526 C 139.397 1.58896 -0.253162 0
M  V30 1527 O 140.589 1.70009 -0.492547 0
M  V30 1528 C 137.718 3.19944 -1.24462 0
M  V30 1529 C 136.804 3.48582 -2.4156 0
M  V30 1530 N 137.195 3.48016 -3.67041 0
M  V30 1531 C 135.493 3.79056 -2.35016 0
M  V30 1532 C 136.194 3.75096 -4.44609 0
M  V30 1533 N 135.17 3.94022 -3.74497 0
M  V30 1534 H 138.972 1.79683 -2.32575 0
M  V30 1535 H 136.486 0.91134 -1.34419 0
M  V30 1536 H 138.483 3.99133 -1.20411 0
M  V30 1537 H 137.143 3.23267 -0.304762 0
M  V30 1538 H 138.154 3.28782 -4.00153 0
M  V30 1539 H 134.831 3.89848 -1.49415 0
M  V30 1540 H 136.221 3.80934 -5.53479 0
M  V30 1541 N 138.941 1.26152 0.944643 0
M  V30 1542 C 140.189 1.11271 1.6871 0
M  V30 1543 C 140.51 -0.345166 1.91921 0
M  V30 1544 O 139.78 -1.24387 1.51343 0
M  V30 1545 H 138.36 0.408783 0.625224 0
M  V30 1546 H 141.022 1.58427 1.1352 0
M  V30 1547 H 140.118 1.62879 2.66227 0
M  V30 1548 N 140.419 -1.14872 1.07899 0
M  V30 1549 C 141.665 -1.86064 0.806725 0
M  V30 1550 C 141.998 -1.82434 -0.665706 0
M  V30 1551 O 141.273 -1.25138 -1.48899 0
M  V30 1552 C 141.556 -3.34929 1.32267 0
M  V30 1553 C 141.409 -3.47161 2.86006 0
M  V30 1554 C 142.728 -4.29863 0.943717 0
M  V30 1555 H 139.847 -0.675591 0.294526 0
M  V30 1556 H 142.489 -1.34925 1.33773 0
M  V30 1557 H 140.639 -3.78611 0.870974 0
M  V30 1558 H 142.311 -3.12302 3.39507 0
M  V30 1559 H 140.554 -2.88539 3.23925 0
M  V30 1560 H 141.225 -4.51777 3.17177 0
M  V30 1561 H 143.701 -3.9417 1.33302 0
M  V30 1562 H 142.577 -5.32494 1.33198 0
M  V30 1563 H 142.838 -4.41846 -0.149796 0
M  V30 1564 N 141.898 -0.863906 -1.31812 0
M  V30 1565 C 143.175 -0.39275 -1.91616 0
M  V30 1566 C 143.555 1.12461 -1.7865 0
M  V30 1567 O 142.903 1.95045 -1.19037 0
M  V30 1568 C 143.113 -0.867385 -3.38049 0
M  V30 1569 C 144.461 -0.889966 -4.15168 0
M  V30 1570 O 145.485 -0.812635 -3.46806 0
M  V30 1571 O 144.344 -1.00079 -5.37258 0
M  V30 1572 H 141.438 -0.116358 -0.818773 0
M  V30 1573 H 143.984 -0.951418 -1.40521 0
M  V30 1574 H 142.756 -1.91081 -3.41473 0
M  V30 1575 H 142.379 -0.286687 -3.96565 0
M  V30 1576 N 143.376 1.44774 -0.622745 0
M  V30 1577 C 144.787 1.85546 -0.207226 0
M  V30 1578 C 145.138 1.52093 1.23944 0
M  V30 1579 O 144.263 0.95492 1.94191 0
M  V30 1580 C 144.858 3.36781 -0.369313 0
M  V30 1581 C 143.417 3.76399 -0.00836847 0
M  V30 1582 C 142.564 2.68664 -0.686651 0
M  V30 1583 H 145.515 1.3536 -0.828454 0
M  V30 1584 H 145.536 3.78453 0.394162 0
M  V30 1585 H 145.048 3.61098 -1.42231 0
M  V30 1586 H 143.149 3.57698 1.04322 0
M  V30 1587 H 143.262 4.7732 -0.412584 0
M  V30 1588 H 141.626 2.54404 -0.122777 0
M  V30 1589 H 142.409 2.95815 -1.74208 0
M  V30 1590 N 144.854 0.36279 1.53368 0
M  V30 1591 C 146.1 -0.228113 2.01513 0
M  V30 1592 C 146.433 -1.48648 1.2497 0
M  V30 1593 O 145.708 -1.91459 0.342616 0
M  V30 1594 C 145.991 -0.522884 3.56284 0
M  V30 1595 C 145.844 0.74892 4.43521 0
M  V30 1596 C 147.163 -1.32461 4.19693 0
M  V30 1597 H 144.282 -0.0814343 0.732487 0
M  V30 1598 H 146.924 0.48713 1.83649 0
M  V30 1599 H 145.074 -1.1322 3.71636 0
M  V30 1600 H 146.746 1.38648 4.39971 0
M  V30 1601 H 144.989 1.36986 4.11603 0
M  V30 1602 H 145.66 0.497667 5.49752 0
M  V30 1603 H 148.136 -0.809203 4.08156 0
M  V30 1604 H 147.012 -1.49961 5.28018 0
M  V30 1605 H 147.273 -2.33232 3.75573 0
M  V30 1606 N 146.332 -1.57332 0.0918853 0
M  V30 1607 C 147.58 -1.93853 -0.571446 0
M  V30 1608 C 147.901 -0.974212 -1.6892 0
M  V30 1609 O 147.171 -0.0257254 -1.95883 0
M  V30 1610 H 145.751 -0.715666 -0.214082 0
M  V30 1611 H 148.413 -1.94287 0.154464 0
M  V30 1612 H 147.509 -2.96191 -0.983729 0
M  V30 1613 N 147.81 0.181792 -1.56548 0
M  V30 1614 C 149.059 0.898348 -1.8059 0
M  V30 1615 C 149.372 1.83862 -0.667379 0
M  V30 1616 O 150.578 2.59678 -0.792446 0
M  V30 1617 C 149.034 1.64791 -3.19956 0
M  V30 1618 C 148.642 0.751789 -4.41647 0
M  V30 1619 C 150.386 2.35331 -3.53298 0
M  V30 1620 C 148.293 1.50098 -5.72035 0
M  V30 1621 H 147.223 0.339194 -0.673397 0
M  V30 1622 H 149.874 0.151413 -1.82874 0
M  V30 1623 H 148.256 2.43921 -3.11959 0
M  V30 1624 H 149.43 -0.0018076 -4.608 0
M  V30 1625 H 147.745 0.156562 -4.16106 0
M  V30 1626 H 150.342 2.91958 -4.47956 0
M  V30 1627 H 150.685 3.10164 -2.77676 0
M  V30 1628 H 151.218 1.63154 -3.62803 0
M  V30 1629 H 147.957 0.795175 -6.50659 0
M  V30 1630 H 147.477 2.22817 -5.56878 0
M  V30 1631 H 149.156 2.05125 -6.13622 0
M  V30 1632 N 149.288 1.51039 0.449983 0
M  V30 1633 C 150.535 1.63081 1.20045 0
M  V30 1634 C 150.863 0.341024 1.91487 0
M  V30 1635 O 150.118 -0.674276 1.83717 0
M  V30 1636 C 150.417 2.77556 2.25161 0
M  V30 1637 C 150.083 4.17289 1.70823 0
M  V30 1638 C 148.745 4.55305 1.55725 0
M  V30 1639 C 151.097 5.04536 1.3074 0
M  V30 1640 C 148.425 5.78287 0.989999 0
M  V30 1641 C 150.777 6.28085 0.754482 0
M  V30 1642 C 149.441 6.64885 0.590308 0
M  V30 1643 H 148.711 0.596755 0.439277 0
M  V30 1644 H 151.358 1.85037 0.49333 0
M  V30 1645 H 149.663 2.49771 3.01863 0
M  V30 1646 H 151.36 2.84073 2.83026 0
M  V30 1647 H 147.95 3.8731 1.83546 0
M  V30 1648 H 152.134 4.75782 1.41229 0
M  V30 1649 H 147.39 6.05456 0.850451 0
M  V30 1650 H 151.564 6.95038 0.435324 0
M  V30 1651 H 149.191 7.60055 0.14862 0
M  V30 1652 N 150.766 -0.704594 1.40972 0
M  V30 1653 C 152.182 -1.01406 1.23244 0
M  V30 1654 C 152.382 -2.01169 0.115399 0
M  V30 1655 O 151.438 -2.47021 -0.523147 0
M  V30 1656 C 152.751 -1.54728 2.57836 0
M  V30 1657 C 154.299 -1.66658 2.64942 0
M  V30 1658 C 154.774 -2.23383 3.9983 0
M  V30 1659 N 156.265 -2.30756 4.01629 0
M  V30 1660 C 157 -2.75655 5.02794 0
M  V30 1661 N 156.496 -3.20225 6.14352 0
M  V30 1662 N 158.289 -2.75138 4.90159 0
M  V30 1663 H 150.44 -0.0435285 2.12355 0
M  V30 1664 H 152.703 -0.0818951 0.944456 0
M  V30 1665 H 152.409 -0.888832 3.40283 0
M  V30 1666 H 152.283 -2.53084 2.79693 0
M  V30 1667 H 154.67 -2.31617 1.8286 0
M  V30 1668 H 154.751 -0.668717 2.46904 0
M  V30 1669 H 154.395 -1.59043 4.82357 0
M  V30 1670 H 154.325 -3.23904 4.15203 0
M  V30 1671 H 156.816 -1.99291 3.21079 0
M  V30 1672 H 157.129 -3.53084 6.87424 0
M  V30 1673 H 155.474 -3.18156 6.17901 0
M  V30 1674 H 158.665 -2.39661 4.02095 0
M  V30 1675 H 158.838 -3.09812 5.6914 0
M  V30 1676 N 152.244 -1.26651 -0.937939 0
M  V30 1677 C 153.207 -1.08546 -2.01867 0
M  V30 1678 C 154.207 -0.0327327 -1.60767 0
M  V30 1679 O 155.397 -0.276427 -1.71993 0
M  V30 1680 C 152.529 -0.651711 -3.34613 0
M  V30 1681 H 153.722 -2.04502 -2.1936 0
M  V30 1682 H 151.275 -1.09294 -1.11734 0
M  V30 1683 H 152.01 0.309696 -3.22818 0
M  V30 1684 H 151.795 -1.41189 -3.65798 0
M  V30 1685 H 153.285 -0.546973 -4.14002 0
M  V30 1686 N 153.722 1.14298 -1.08507 0
M  V30 1687 C 154.685 2.17607 -0.719711 0
M  V30 1688 C 155.685 1.58907 0.245997 0
M  V30 1689 O 156.875 1.74181 0.0254081 0
M  V30 1690 C 154.007 3.40842 -0.0627695 0
M  V30 1691 H 155.2 2.51443 -1.63452 0
M  V30 1692 H 152.753 1.28963 -0.88307 0
M  V30 1693 H 153.488 3.12587 0.863716 0
M  V30 1694 H 153.273 3.84713 -0.757504 0
M  V30 1695 H 154.763 4.17221 0.177786 0
M  V30 1696 N 155.201 0.870884 1.31352 0
M  V30 1697 C 156.426 0.495957 2.01383 0
M  V30 1698 C 156.851 -0.904324 1.64935 0
M  V30 1699 O 156.209 -1.59687 0.858466 0
M  V30 1700 C 156.257 0.661433 3.54482 0
M  V30 1701 O 155.361 -0.298851 4.11316 0
M  V30 1702 H 154.702 0.197158 0.634054 0
M  V30 1703 H 157.232 1.17455 1.67527 0
M  V30 1704 H 157.242 0.555072 4.04207 0
M  V30 1705 H 155.917 1.68246 3.8035 0
M  V30 1706 H 154.494 -0.147368 3.72609 0
M  V30 1707 N 156.679 -1.44442 0.630414 0
M  V30 1708 C 157.925 -2.02351 0.134816 0
M  V30 1709 C 158.258 -1.4947 -1.23986 0
M  V30 1710 O 157.533 -0.678475 -1.82283 0
M  V30 1711 C 157.816 -3.59898 0.120707 0
M  V30 1712 C 157.669 -4.23063 1.52767 0
M  V30 1713 C 158.988 -4.36585 -0.555127 0
M  V30 1714 H 156.107 -0.73527 0.0504646 0
M  V30 1715 H 158.749 -1.72022 0.806751 0
M  V30 1716 H 156.899 -3.85868 -0.451477 0
M  V30 1717 H 158.571 -4.08202 2.14869 0
M  V30 1718 H 156.814 -3.80586 2.08175 0
M  V30 1719 H 157.485 -5.32071 1.46984 0
M  V30 1720 H 159.961 -4.16044 -0.0685429 0
M  V30 1721 H 158.837 -5.46294 -0.534185 0
M  V30 1722 H 159.098 -4.11138 -1.62535 0
M  V30 1723 N 158.157 -0.370918 -1.53173 0
M  V30 1724 C 159.12 0.460778 -2.24521 0
M  V30 1725 C 160.12 1.00536 -1.25496 0
M  V30 1726 O 161.31 0.890266 -1.49733 0
M  V30 1727 C 158.442 1.64457 -2.98608 0
M  V30 1728 H 159.635 -0.163613 -2.99453 0
M  V30 1729 H 157.188 -0.122699 -1.55818 0
M  V30 1730 H 157.923 2.30691 -2.2793 0
M  V30 1731 H 157.708 1.26099 -3.7127 0
M  V30 1732 H 159.198 2.23384 -3.5283 0
M  V30 1733 N 159.635 1.57281 -0.100228 0
M  V30 1734 C 160.565 2.17328 0.853857 0
M  V30 1735 C 161.546 1.10804 1.2906 0
M  V30 1736 O 162.731 1.38963 1.35657 0
M  V30 1737 C 159.861 2.75772 2.11109 0
M  V30 1738 C 158.815 3.87713 1.81279 0
M  V30 1739 C 158.141 4.32882 3.13874 0
M  V30 1740 C 159.441 5.10677 1.09574 0
M  V30 1741 H 161.135 2.97305 0.353545 0
M  V30 1742 H 158.681 1.43009 0.168612 0
M  V30 1743 H 160.634 3.16433 2.78296 0
M  V30 1744 H 159.358 1.93057 2.63432 0
M  V30 1745 H 158.017 3.476 1.16489 0
M  V30 1746 H 157.665 3.47051 3.64095 0
M  V30 1747 H 157.365 5.08358 2.94696 0
M  V30 1748 H 158.889 4.7618 3.82211 0
M  V30 1749 H 160.303 5.48474 1.66879 0
M  V30 1750 H 158.7 5.91615 1.00557 0
M  V30 1751 H 159.77 4.84835 0.0793299 0
M  V30 1752 N 161.113 -0.173488 1.56642 0
M  V30 1753 C 162.36 -0.890465 1.81871 0
M  V30 1754 C 162.688 -1.82339 0.67696 0
M  V30 1755 O 161.943 -1.92795 -0.335926 0
M  V30 1756 C 162.242 -1.72069 3.13252 0
M  V30 1757 C 161.908 -0.936878 4.41059 0
M  V30 1758 C 160.57 -0.720545 4.75775 0
M  V30 1759 C 162.922 -0.386919 5.19762 0
M  V30 1760 C 160.25 0.0568829 5.86672 0
M  V30 1761 C 162.602 0.37741 6.31473 0
M  V30 1762 C 161.266 0.604563 6.64757 0
M  V30 1763 H 160.536 -0.325844 0.665512 0
M  V30 1764 H 163.183 -0.155527 1.90867 0
M  V30 1765 H 161.488 -2.52496 2.99588 0
M  V30 1766 H 163.185 -2.27844 3.29982 0
M  V30 1767 H 159.775 -1.11553 4.13828 0
M  V30 1768 H 163.959 -0.541398 4.93338 0
M  V30 1769 H 159.215 0.242635 6.10918 0
M  V30 1770 H 163.389 0.810825 6.91664 0
M  V30 1771 H 161.016 1.20885 7.50527 0
M  V30 1772 N 162.591 -1.51276 -0.441967 0
M  V30 1773 C 163.816 -1.67799 -1.21895 0
M  V30 1774 C 164.241 -0.372864 -1.84367 0
M  V30 1775 O 163.599 0.666501 -1.68604 0
M  V30 1776 C 163.647 -2.79199 -2.28211 0
M  V30 1777 O 162.751 -2.42479 -3.33583 0
M  V30 1778 H 162.092 -0.559649 -0.357336 0
M  V30 1779 H 164.622 -1.97815 -0.522522 0
M  V30 1780 H 164.632 -3.03146 -2.73069 0
M  V30 1781 H 163.307 -3.73906 -1.82118 0
M  V30 1782 H 161.884 -2.29087 -2.94234 0
M  V30 1783 N 164.069 0.697108 -1.41344 0
M  V30 1784 C 165.317 1.45426 -1.40341 0
M  V30 1785 C 165.638 1.94996 -0.0128787 0
M  V30 1786 O 164.908 1.71599 0.945027 0
M  V30 1787 H 163.488 0.539594 -0.516573 0
M  V30 1788 H 166.15 0.825201 -1.76569 0
M  V30 1789 H 165.246 2.31817 -2.08967 0
M  V30 1790 N 165.547 1.27147 0.931209 0
M  V30 1791 C 166.497 1.06227 2.01742 0
M  V30 1792 C 167.481 -0.00859065 1.60898 0
M  V30 1793 O 168.673 0.209537 1.75755 0
M  V30 1794 C 165.802 0.707787 3.35924 0
M  V30 1795 C 164.888 1.81661 3.83223 0
M  V30 1796 N 165.279 3.05564 4.03069 0
M  V30 1797 C 163.577 1.70249 4.12227 0
M  V30 1798 C 164.278 3.77697 4.42403 0
M  V30 1799 N 163.254 3.0544 4.49675 0
M  V30 1800 H 167.056 2.00261 2.15111 0
M  V30 1801 H 164.57 1.1781 1.11779 0
M  V30 1802 H 166.567 0.539043 4.134 0
M  V30 1803 H 165.227 -0.224964 3.2392 0
M  V30 1804 H 166.238 3.41363 3.89476 0
M  V30 1805 H 162.915 0.840329 4.08956 0
M  V30 1806 H 164.305 4.84168 4.65866 0
M  V30 1807 N 167.025 -1.13721 1.09112 0
M  V30 1808 C 167.988 -2.17222 0.731241 0
M  V30 1809 C 168.988 -1.59035 -0.237566 0
M  V30 1810 O 170.178 -1.74192 -0.0161704 0
M  V30 1811 C 167.31 -3.40804 0.0808443 0
M  V30 1812 H 168.503 -2.50573 1.64783 0
M  V30 1813 H 166.056 -1.28493 0.889897 0
M  V30 1814 H 166.791 -3.1304 -0.847127 0
M  V30 1815 H 166.576 -3.84306 0.777896 0
M  V30 1816 H 168.066 -4.1731 -0.155657 0
M  V30 1817 N 168.503 -0.877838 -1.30888 0
M  V30 1818 C 169.728 -0.506629 -2.01117 0
M  V30 1819 C 170.153 0.895564 -1.65412 0
M  V30 1820 O 169.511 1.5923 -0.866922 0
M  V30 1821 C 169.559 -0.680223 -3.54126 0
M  V30 1822 O 168.663 0.277033 -4.11468 0
M  V30 1823 H 168.004 -0.200518 -0.633 0
M  V30 1824 H 170.534 -1.18342 -1.66902 0
M  V30 1825 H 170.544 -0.5765 -4.03907 0
M  V30 1826 H 169.219 -1.70261 -3.79452 0
M  V30 1827 H 167.796 0.127606 -3.72682 0
M  V30 1828 N 169.982 1.44106 -0.638065 0
M  V30 1829 C 170.914 2.28976 0.101205 0
M  V30 1830 C 171.927 1.4167 0.802088 0
M  V30 1831 O 173.116 1.65755 0.662375 0
M  V30 1832 C 170.216 3.18217 1.16581 0
M  V30 1833 C 169.389 4.33978 0.546066 0
M  V30 1834 C 168.448 5.04202 1.50554 0
M  V30 1835 O 167.474 5.59986 1.01999 0
M  V30 1836 N 168.676 5.06296 2.8398 0
M  V30 1837 H 171.441 2.93064 -0.627186 0
M  V30 1838 H 169.002 1.54629 -0.479731 0
M  V30 1839 H 170.994 3.62061 1.80815 0
M  V30 1840 H 169.564 2.55833 1.79634 0
M  V30 1841 H 168.784 3.93239 -0.275046 0
M  V30 1842 H 170.072 5.08675 0.112793 0
M  V30 1843 H 169.47 4.62319 3.26002 0
M  V30 1844 H 168.027 5.53907 3.43556 0
M  V30 1845 N 171.46 0.379036 1.52974 0
M  V30 1846 C 172.708 -0.206014 2.01047 0
M  V30 1847 C 173.029 -1.48175 1.26765 0
M  V30 1848 O 172.299 -1.92085 0.384743 0
M  V30 1849 H 170.879 -0.0791184 0.742798 0
M  V30 1850 H 173.541 0.508366 1.88153 0
M  V30 1851 H 172.637 -0.423501 3.09213 0
M  V30 1852 N 172.938 -1.57226 0.108567 0
M  V30 1853 C 173.901 -2.13602 -0.831082 0
M  V30 1854 C 174.901 -1.06841 -1.20173 0
M  V30 1855 O 176.091 -1.32666 -1.12895 0
M  V30 1856 C 173.223 -2.66769 -2.12243 0
M  V30 1857 H 174.416 -2.97951 -0.341317 0
M  V30 1858 H 171.969 -1.55667 -0.14057 0
M  V30 1859 H 172.704 -1.85977 -2.65675 0
M  V30 1860 H 172.489 -3.44839 -1.86625 0
M  V30 1861 H 173.979 -3.10332 -2.79435 0
M  V30 1862 N 174.416 0.165178 -1.56732 0
M  V30 1863 C 175.641 0.900253 -1.86843 0
M  V30 1864 C 176.066 1.74766 -0.695596 0
M  V30 1865 O 175.424 1.77786 0.35522 0
M  V30 1866 C 175.472 1.74777 -3.15413 0
M  V30 1867 O 174.576 2.85007 -2.98068 0
M  V30 1868 H 173.917 0.251832 -0.614391 0
M  V30 1869 H 176.447 0.161468 -2.03962 0
M  V30 1870 H 176.457 2.14646 -3.46974 0
M  V30 1871 H 175.132 1.12537 -4.00385 0
M  V30 1872 H 173.709 2.48676 -2.77875 0
M  V30 1873 N 175.894 1.51508 0.433938 0
M  V30 1874 C 177.122 1.68157 1.20543 0
M  V30 1875 C 177.537 0.380362 1.84929 0
M  V30 1876 O 176.894 -0.641446 1.70856 0
M  V30 1877 C 176.945 2.79965 2.28696 0
M  V30 1878 O 176.666 4.05045 1.66943 0
M  V30 1879 C 178.167 3.07912 3.18912 0
M  V30 1880 H 175.387 0.56421 0.363191 0
M  V30 1881 H 177.931 1.97941 0.513754 0
M  V30 1882 H 176.086 2.5277 2.93574 0
M  V30 1883 H 176.5 4.67165 2.38448 0
M  V30 1884 H 177.974 3.89719 3.90926 0
M  V30 1885 H 178.451 2.20456 3.79863 0
M  V30 1886 H 179.057 3.36779 2.59731 0
M  V30 1887 N 177.372 -0.689602 1.41712 0
M  V30 1888 C 178.621 -1.44534 1.40686 0
M  V30 1889 C 178.934 -1.95588 0.0213352 0
M  V30 1890 O 180.14 -2.71271 -0.111534 0
M  V30 1891 C 178.596 -2.61387 2.47396 0
M  V30 1892 C 178.204 -2.17094 3.91885 0
M  V30 1893 C 179.948 -3.38986 2.55517 0
M  V30 1894 C 177.855 -3.3094 4.90135 0
M  V30 1895 H 176.785 -0.542925 0.52321 0
M  V30 1896 H 179.436 -0.748054 1.6756 0
M  V30 1897 H 177.818 -3.33412 2.13664 0
M  V30 1898 H 178.992 -1.52318 4.34897 0
M  V30 1899 H 177.307 -1.52473 3.8748 0
M  V30 1900 H 179.904 -4.23747 3.26102 0
M  V30 1901 H 180.247 -3.84578 1.59391 0
M  V30 1902 H 180.78 -2.74021 2.8837 0
M  V30 1903 H 177.519 -2.90355 5.87685 0
M  V30 1904 H 177.039 -3.94546 4.51767 0
M  V30 1905 H 178.718 -3.9663 5.11169 0
M  V30 1906 N 178.85 -1.27639 -0.924453 0
M  V30 1907 C 180.078 -1.16989 -1.70649 0
M  V30 1908 C 180.493 0.272869 -1.86818 0
M  V30 1909 O 179.85 1.18549 -1.38753 0
M  V30 1910 C 179.901 -1.85229 -3.10439 0
M  V30 1911 O 179.622 -3.23868 -2.95028 0
M  V30 1912 C 181.123 -1.80746 -4.04779 0
M  V30 1913 H 178.343 -0.406595 -0.53378 0
M  V30 1914 H 180.887 -1.68569 -1.15778 0
M  V30 1915 H 179.042 -1.37545 -3.6216 0
M  V30 1916 H 179.456 -3.57889 -3.83426 0
M  V30 1917 H 180.93 -2.33101 -5.00368 0
M  V30 1918 H 181.407 -0.777499 -4.32263 0
M  V30 1919 H 182.013 -2.28059 -3.58984 0
M  V30 1920 N 180.328 1.1314 -1.09713 0
M  V30 1921 C 181.26 2.18343 -0.697056 0
M  V30 1922 C 182.273 1.60669 0.262551 0
M  V30 1923 O 183.462 1.78435 0.0481527 0
M  V30 1924 C 180.562 3.38899 -0.00684728 0
M  V30 1925 C 179.735 4.26078 -0.988741 0
M  V30 1926 C 178.794 5.25155 -0.331394 0
M  V30 1927 O 177.82 5.60701 -0.979926 0
M  V30 1928 N 179.022 5.73271 0.913261 0
M  V30 1929 H 181.787 2.5328 -1.60216 0
M  V30 1930 H 179.348 1.28491 -0.984971 0
M  V30 1931 H 181.34 4.02255 0.444191 0
M  V30 1932 H 179.91 3.02175 0.800551 0
M  V30 1933 H 179.13 3.59453 -1.61826 0
M  V30 1934 H 180.418 4.81178 -1.65364 0
M  V30 1935 H 179.816 5.46544 1.45966 0
M  V30 1936 H 178.373 6.3855 1.30757 0
M  V30 1937 N 181.806 0.884767 1.30421 0
M  V30 1938 C 182.738 0.308655 2.27112 0
M  V30 1939 C 183.751 -0.536655 1.53701 0
M  V30 1940 O 184.94 -0.35624 1.74909 0
M  V30 1941 C 182.04 -0.579782 3.33904 0
M  V30 1942 C 181.213 0.236417 4.36761 0
M  V30 1943 C 180.272 -0.582482 5.22966 0
M  V30 1944 O 179.298 -0.00525502 5.692 0
M  V30 1945 N 180.5 -1.89163 5.48815 0
M  V30 1946 H 183.265 1.13964 2.77186 0
M  V30 1947 H 180.826 0.747731 1.43599 0
M  V30 1948 H 182.818 -1.13366 3.88497 0
M  V30 1949 H 181.388 -1.31144 2.83761 0
M  V30 1950 H 180.608 0.97174 3.82035 0
M  V30 1951 H 181.896 0.795924 5.02536 0
M  V30 1952 H 181.294 -2.38352 5.13035 0
M  V30 1953 H 179.851 -2.39296 6.06284 0
M  V30 1954 N 183.284 -1.43765 0.645699 0
M  V30 1955 C 184.214 -2.33471 -0.0370477 0
M  V30 1956 C 185.195 -1.49042 -0.819779 0
M  V30 1957 O 186.38 -1.77726 -0.782758 0
M  V30 1958 C 183.51 -3.32311 -1.0093 0
M  V30 1959 C 182.464 -4.2667 -0.337201 0
M  V30 1960 C 181.79 -5.1549 -1.42037 0
M  V30 1961 C 183.09 -5.16657 0.765706 0
M  V30 1962 H 184.784 -2.90809 0.712069 0
M  V30 1963 H 182.33 -1.39834 0.343876 0
M  V30 1964 H 184.283 -3.9396 -1.49578 0
M  V30 1965 H 183.007 -2.73213 -1.78948 0
M  V30 1966 H 181.666 -3.66374 0.128771 0
M  V30 1967 H 181.314 -4.52735 -2.1918 0
M  V30 1968 H 181.014 -5.79438 -0.975966 0
M  V30 1969 H 182.538 -5.80012 -1.90838 0
M  V30 1970 H 183.952 -5.72158 0.361702 0
M  V30 1971 H 182.349 -5.89286 1.13413 0
M  V30 1972 H 183.419 -4.56796 1.62683 0
M  V30 1973 N 184.763 -0.387143 -1.52771 0
M  V30 1974 C 185.726 0.436939 -2.24997 0
M  V30 1975 C 186.726 0.991991 -1.26555 0
M  V30 1976 O 187.916 0.874335 -1.50669 0
M  V30 1977 C 185.048 1.61281 -3.00335 0
M  V30 1978 H 186.241 -0.195365 -2.99263 0
M  V30 1979 H 183.794 -0.139218 -1.55679 0
M  V30 1980 H 184.529 2.2826 -2.30364 0
M  V30 1981 H 184.314 1.22154 -3.72587 0
M  V30 1982 H 185.804 2.19629 -3.5518 0
M  V30 1983 N 186.241 1.57166 -0.116904 0
M  V30 1984 C 187.657 1.5779 0.239693 0
M  V30 1985 C 187.857 1.1295 1.66867 0
M  V30 1986 O 186.913 0.81592 2.38954 0
M  V30 1987 C 188.226 3.00699 0.00828202 0
M  V30 1988 C 189.774 3.12912 0.0743438 0
M  V30 1989 C 190.249 4.57817 -0.129348 0
M  V30 1990 N 191.74 4.63139 -0.075247 0
M  V30 1991 C 192.475 5.73023 -0.207788 0
M  V30 1992 N 191.971 6.91665 -0.396382 0
M  V30 1993 N 193.764 5.61906 -0.14751 0
M  V30 1994 H 185.915 1.84615 -1.05029 0
M  V30 1995 H 188.178 0.85311 -0.41341 0
M  V30 1996 H 187.884 3.37784 -0.979531 0
M  V30 1997 H 187.758 3.69848 0.741077 0
M  V30 1998 H 190.145 2.75686 1.05268 0
M  V30 1999 H 190.226 2.4631 -0.690297 0
M  V30 2000 H 189.87 4.95742 -1.10465 0
M  V30 2001 H 189.8 5.22507 0.655253 0
M  V30 2002 H 192.291 3.7784 0.0670898 0
M  V30 2003 H 192.604 7.71255 -0.488437 0
M  V30 2004 H 190.949 6.93654 -0.432329 0
M  V30 2005 H 194.14 4.681 -0.00115036 0
M  V30 2006 H 194.313 6.47501 -0.254247 0
M  V30 2007 N 187.719 -0.156864 1.56817 0
M  V30 2008 C 188.667 -1.21319 1.98455 0
M  V30 2009 C 189.661 -1.45025 0.875444 0
M  V30 2010 O 190.867 -1.45435 1.0606 0
M  V30 2011 H 187.242 -0.408142 0.631605 0
M  V30 2012 H 189.213 -0.835244 2.86472 0
M  V30 2013 C 187.962 -2.54148 2.37285 0
M  V30 2014 H 187.285 -2.36733 3.22176 0
M  V30 2015 H 188.725 -3.26712 2.70251 0
M  V30 2016 C 187.184 -3.13967 1.22173 0
M  V30 2017 O 187.714 -3.98357 0.517149 0
M  V30 2018 N 185.92 -2.7327 0.988536 0
M  V30 2019 H 185.467 -2.04744 1.56326 0
M  V30 2020 H 185.425 -3.13628 0.220209 0
M  V30 2021 N 189.197 -1.51736 -0.425897 0
M  V30 2022 C 190.444 -1.6497 -1.17436 0
M  V30 2023 C 190.772 -0.371445 -1.9092 0
M  V30 2024 O 190.027 0.644963 -1.84767 0
M  V30 2025 C 190.326 -2.81103 -2.20717 0
M  V30 2026 C 189.992 -4.19954 -1.64162 0
M  V30 2027 C 188.654 -4.57725 -1.48462 0
M  V30 2028 C 191.006 -5.06552 -1.22696 0
M  V30 2029 C 188.334 -5.79789 -0.897873 0
M  V30 2030 C 190.686 -6.29205 -0.654464 0
M  V30 2031 C 189.35 -6.6574 -0.484456 0
M  V30 2032 H 188.62 -0.603668 -0.429727 0
M  V30 2033 H 191.267 -1.85798 -0.463829 0
M  V30 2034 H 189.572 -2.54542 -2.97852 0
M  V30 2035 H 191.269 -2.8854 -2.78471 0
M  V30 2036 H 187.859 -3.90181 -1.77361 0
M  V30 2037 H 192.043 -4.77968 -1.33642 0
M  V30 2038 H 187.299 -6.06733 -0.75402 0
M  V30 2039 H 191.473 -6.95643 -0.324694 0
M  V30 2040 H 189.1 -7.60195 -0.0276833 0
M  V30 2041 N 190.675 0.682077 -1.42076 0
M  V30 2042 C 191.922 1.44215 -1.42156 0
M  V30 2043 C 192.25 1.94468 -0.0354186 0
M  V30 2044 O 191.505 1.70816 0.955002 0
M  V30 2045 C 191.804 2.66036 -2.38662 0
M  V30 2046 C 191.47 2.34366 -3.85206 0
M  V30 2047 C 190.132 2.25439 -4.25124 0
M  V30 2048 C 192.484 2.08513 -4.77673 0
M  V30 2049 C 189.812 1.88775 -5.55501 0
M  V30 2050 C 192.164 1.73354 -6.08384 0
M  V30 2051 C 190.828 1.62933 -6.47309 0
M  V30 2052 H 190.098 0.527718 -0.520187 0
M  V30 2053 H 192.745 0.778387 -1.74967 0
M  V30 2054 H 191.05 3.3741 -1.99152 0
M  V30 2055 H 192.747 3.24205 -2.35991 0
M  V30 2056 H 189.337 2.42213 -3.53597 0
M  V30 2057 H 193.521 2.14346 -4.47626 0
M  V30 2058 H 188.777 1.7927 -5.84527 0
M  V30 2059 H 192.951 1.52373 -6.79526 0
M  V30 2060 H 190.578 1.34292 -7.48244 0
M  V30 2061 N 192.153 1.28127 0.917671 0
M  V30 2062 C 193.083 1.14248 2.03641 0
M  V30 2063 C 194.064 0.0412748 1.7005 0
M  V30 2064 O 195.249 0.217566 1.92977 0
M  V30 2065 C 192.379 0.799431 3.37974 0
M  V30 2066 C 191.333 1.85497 3.85713 0
M  V30 2067 C 190.659 1.36565 5.16966 0
M  V30 2068 C 191.959 3.26085 4.08002 0
M  V30 2069 H 193.653 2.07835 2.15511 0
M  V30 2070 H 191.199 1.00064 1.03553 0
M  V30 2071 H 193.152 0.689114 4.15727 0
M  V30 2072 H 191.876 -0.172145 3.26146 0
M  V30 2073 H 190.535 1.95437 3.10161 0
M  V30 2074 H 190.183 0.383253 5.01538 0
M  V30 2075 H 189.883 2.07143 5.49878 0
M  V30 2076 H 191.407 1.26848 5.97279 0
M  V30 2077 H 192.821 3.19089 4.76293 0
M  V30 2078 H 191.218 3.94462 4.52238 0
M  V30 2079 H 192.288 3.70394 3.12948 0
M  V30 2080 N 193.631 -1.12557 1.10312 0
M  V30 2081 C 194.856 -1.88405 0.867085 0
M  V30 2082 C 195.281 -1.79038 -0.576817 0
M  V30 2083 O 194.639 -1.14439 -1.40618 0
M  V30 2084 C 194.687 -3.3563 1.31851 0
M  V30 2085 O 193.791 -4.09565 0.482734 0
M  V30 2086 H 193.132 -0.585455 0.313271 0
M  V30 2087 H 195.662 -1.42352 1.4696 0
M  V30 2088 H 195.672 -3.86469 1.3079 0
M  V30 2089 H 194.347 -3.41765 2.37001 0
M  V30 2090 H 192.924 -3.68695 0.558448 0
M  V30 2091 N 195.109 -0.891671 -1.2995 0
M  V30 2092 C 196.52 -0.563104 -1.78006 0
M  V30 2093 C 196.871 0.920978 -1.73241 0
M  V30 2094 O 195.996 1.71987 -1.31337 0
M  V30 2095 C 196.591 -1.01539 -3.23226 0
M  V30 2096 C 195.15 -0.738124 -3.69092 0
M  V30 2097 C 194.297 -1.19461 -2.50249 0
M  V30 2098 H 197.248 -1.07522 -1.16725 0
M  V30 2099 H 197.269 -0.347217 -3.78912 0
M  V30 2100 H 196.781 -2.09555 -3.26662 0
M  V30 2101 H 194.882 0.329766 -3.71138 0
M  V30 2102 H 194.995 -1.33037 -4.60259 0
M  V30 2103 H 193.359 -0.613787 -2.47194 0
M  V30 2104 H 194.142 -2.28265 -2.56417 0
M  V30 2105 N 196.587 1.43421 -0.653314 0
M  V30 2106 C 197.497 2.34568 0.0388565 0
M  V30 2107 C 198.513 1.53888 0.81207 0
M  V30 2108 O 199.689 1.86539 0.759294 0
M  V30 2109 C 196.754 3.32167 0.993269 0
M  V30 2110 C 195.815 4.28751 0.216977 0
M  V30 2111 C 195.048 5.21688 1.12593 0
M  V30 2112 O 195.271 5.19052 2.36519 0
M  V30 2113 O 194.205 5.98919 0.598284 0
M  V30 2114 H 198.031 2.95251 -0.711386 0
M  V30 2115 H 195.616 1.43564 -0.413502 0
M  V30 2116 H 197.498 3.92183 1.54176 0
M  V30 2117 H 196.173 2.73987 1.72374 0
M  V30 2118 H 195.08 3.72215 -0.375101 0
M  V30 2119 H 196.413 4.89913 -0.473924 0
M  V30 2120 N 198.065 0.39524 1.52563 0
M  V30 2121 C 199.481 0.0454682 1.59535 0
M  V30 2122 C 199.681 -1.44056 1.4089 0
M  V30 2123 O 198.737 -2.20579 1.22888 0
M  V30 2124 C 200.05 0.527963 2.96029 0
M  V30 2125 C 201.598 0.484733 3.09224 0
M  V30 2126 C 202.073 0.943512 4.48176 0
M  V30 2127 N 203.564 0.899765 4.54377 0
M  V30 2128 C 204.299 1.22609 5.60138 0
M  V30 2129 N 203.795 1.62319 6.73516 0
M  V30 2130 N 205.588 1.14696 5.50274 0
M  V30 2131 H 197.739 1.36261 1.62931 0
M  V30 2132 H 200.002 0.558887 0.765735 0
M  V30 2133 H 199.708 1.56607 3.14908 0
M  V30 2134 H 199.582 -0.0698056 3.77135 0
M  V30 2135 H 201.969 -0.544298 2.90037 0
M  V30 2136 H 202.05 1.11838 2.30056 0
M  V30 2137 H 201.694 1.9708 4.68104 0
M  V30 2138 H 201.624 0.286817 5.25818 0
M  V30 2139 H 204.115 0.607632 3.72983 0
M  V30 2140 H 204.428 1.85567 7.5019 0
M  V30 2141 H 202.773 1.66211 6.74833 0
M  V30 2142 H 205.964 0.835701 4.6058 0
M  V30 2143 H 206.137 1.40459 6.32594 0
M  V30 2144 N 199.544 -1.57102 0.125237 0
M  V30 2145 C 200.772 -1.99761 -0.538797 0
M  V30 2146 C 201.187 -1.00503 -1.59827 0
M  V30 2147 O 200.544 0.00119474 -1.825 0
M  V30 2148 C 200.595 -3.42408 -1.15927 0
M  V30 2149 O 200.316 -4.37869 -0.142143 0
M  V30 2150 C 201.817 -4.00232 -1.90602 0
M  V30 2151 H 199.037 -0.655772 -0.14214 0
M  V30 2152 H 201.581 -2.03383 0.213413 0
M  V30 2153 H 199.736 -3.39706 -1.86223 0
M  V30 2154 H 200.15 -5.21128 -0.593775 0
M  V30 2155 H 201.624 -5.02105 -2.29335 0
M  V30 2156 H 202.101 -3.39721 -2.78363 0
M  V30 2157 H 202.707 -4.06499 -1.25055 0
M  V30 2158 N 201.022 0.148545 -1.56898 0
M  V30 2159 C 201.952 1.18524 -2.01182 0
M  V30 2160 C 202.933 1.4489 -0.891123 0
M  V30 2161 O 204.118 1.55836 -1.15882 0
M  V30 2162 C 201.248 2.51879 -2.39112 0
M  V30 2163 C 200.202 2.40038 -3.54353 0
M  V30 2164 C 199.528 3.78089 -3.78091 0
M  V30 2165 C 200.828 1.88577 -4.87069 0
M  V30 2166 H 202.522 0.817029 -2.88036 0
M  V30 2167 H 200.068 0.391575 -1.38574 0
M  V30 2168 H 202.021 3.24627 -2.68692 0
M  V30 2169 H 200.745 2.90532 -1.49193 0
M  V30 2170 H 199.404 1.69742 -3.24936 0
M  V30 2171 H 199.052 4.14175 -2.85426 0
M  V30 2172 H 198.752 3.71028 -4.55645 0
M  V30 2173 H 200.276 4.52387 -4.10095 0
M  V30 2174 H 201.69 2.51117 -5.15377 0
M  V30 2175 H 200.087 1.9241 -5.68417 0
M  V30 2176 H 201.157 0.84136 -4.77545 0
M  V30 2177 N 202.5 1.5196 0.417844 0
M  V30 2178 C 203.433 1.69387 1.52916 0
M  V30 2179 C 204.411 0.541419 1.53321 0
M  V30 2180 O 205.595 0.767695 1.72159 0
M  V30 2181 C 202.722 1.72525 2.91467 0
M  V30 2182 C 201.768 2.93967 3.09008 0
M  V30 2183 S 202.601 4.54461 2.83242 0
M  V30 2184 C 203.757 4.60372 4.24038 0
M  V30 2185 H 203.99 2.63382 1.37903 0
M  V30 2186 H 201.523 1.41889 0.608845 0
M  V30 2187 H 203.481 1.75018 3.7132 0
M  V30 2188 H 202.142 0.796733 3.03827 0
M  V30 2189 H 201.335 2.92619 4.10353 0
M  V30 2190 H 200.937 2.89316 2.37007 0
M  V30 2191 H 203.229 4.37213 5.17544 0
M  V30 2192 H 204.172 5.62273 4.30412 0
M  V30 2193 H 204.58 3.89492 4.08602 0
M  V30 2194 N 203.978 -0.674533 1.42435 0
M  V30 2195 C 205.394 -0.98769 1.25367 0
M  V30 2196 C 205.594 -2.00879 0.158044 0
M  V30 2197 O 204.65 -2.48075 -0.470633 0
M  V30 2198 C 205.963 -1.49224 2.6106 0
M  V30 2199 C 207.511 -1.61 2.68417 0
M  V30 2200 C 207.986 -2.14852 4.04478 0
M  V30 2201 N 209.477 -2.22185 4.06434 0
M  V30 2202 C 210.212 -2.64928 5.08528 0
M  V30 2203 N 209.708 -3.07121 6.21006 0
M  V30 2204 N 211.501 -2.64679 4.95885 0
M  V30 2205 H 203.652 0.00152503 2.124 0
M  V30 2206 H 205.915 -0.0618434 0.945981 0
M  V30 2207 H 205.621 -0.816453 3.42092 0
M  V30 2208 H 205.495 -2.47094 2.84999 0
M  V30 2209 H 207.882 -2.27686 1.87732 0
M  V30 2210 H 207.963 -0.616195 2.48267 0
M  V30 2211 H 207.607 -1.48775 4.85622 0
M  V30 2212 H 207.537 -3.15024 4.2198 0
M  V30 2213 H 210.028 -1.92435 3.25234 0
M  V30 2214 H 210.341 -3.38423 6.94759 0
M  V30 2215 H 208.686 -3.04978 6.24511 0
M  V30 2216 H 211.877 -2.31078 4.07088 0
M  V30 2217 H 212.05 -2.9767 5.75584 0
M  V30 2218 N 205.456 -1.28612 -0.910864 0
M  V30 2219 C 206.403 -1.12786 -2.01365 0
M  V30 2220 C 207.373 -0.024201 -1.66082 0
M  V30 2221 O 208.558 -0.189667 -1.89855 0
M  V30 2222 C 205.698 -0.798743 -3.35729 0
M  V30 2223 C 204.811 -1.98173 -3.83864 0
M  V30 2224 C 203.946 -1.59298 -5.06752 0
M  V30 2225 C 202.985 -2.74245 -5.47226 0
M  V30 2226 N 202.122 -2.35842 -6.61304 0
M  V30 2227 H 206.962 -2.07142 -2.14234 0
M  V30 2228 H 204.499 -1.03093 -1.0493 0
M  V30 2229 H 206.457 -0.588662 -4.13026 0
M  V30 2230 H 205.087 0.10789 -3.2262 0
M  V30 2231 H 204.139 -2.30386 -3.02699 0
M  V30 2232 H 205.451 -2.84343 -4.09818 0
M  V30 2233 H 204.605 -1.34513 -5.916 0
M  V30 2234 H 203.344 -0.702618 -4.82612 0
M  V30 2235 H 202.349 -2.99725 -4.60918 0
M  V30 2236 H 203.574 -3.63928 -5.73353 0
M  V30 2237 H 201.52 -1.49279 -6.38789 0
M  V30 2238 H 201.437 -3.15546 -6.86998 0
M  V30 2239 H 202.705 -2.14348 -7.4945 0
M  V30 2240 N 206.934 1.1197 -1.10907 0
M  V30 2241 C 208.183 1.82947 -0.849302 0
M  V30 2242 C 208.496 1.85275 0.627112 0
M  V30 2243 O 209.702 2.52296 1.00295 0
M  V30 2244 C 208.158 3.28529 -1.46959 0
M  V30 2245 C 207.766 3.34546 -2.97965 0
M  V30 2246 C 209.51 4.04443 -1.28942 0
M  V30 2247 C 207.417 4.74491 -3.53004 0
M  V30 2248 H 206.347 0.685477 -0.314065 0
M  V30 2249 H 208.998 1.2604 -1.33365 0
M  V30 2250 H 207.38 3.85333 -0.912917 0
M  V30 2251 H 208.554 2.87654 -3.59989 0
M  V30 2252 H 206.869 2.72108 -3.15192 0
M  V30 2253 H 209.466 5.07787 -1.67502 0
M  V30 2254 H 209.809 4.15656 -0.231456 0
M  V30 2255 H 210.342 3.5401 -1.81443 0
M  V30 2256 H 207.081 4.68474 -4.58489 0
M  V30 2257 H 206.601 5.21816 -2.9575 0
M  V30 2258 H 208.28 5.4344 -3.51115 0
M  V30 2259 N 208.412 0.89855 1.29475 0
M  V30 2260 C 209.359 0.373819 2.27753 0
M  V30 2261 C 210.329 -0.543444 1.56958 0
M  V30 2262 O 211.514 -0.468934 1.84948 0
M  V30 2263 C 208.654 -0.393648 3.42848 0
M  V30 2264 C 207.767 0.554379 4.28428 0
M  V30 2265 C 206.902 -0.230026 5.30702 0
M  V30 2266 C 205.941 0.712599 6.07938 0
M  V30 2267 N 205.078 -0.0373283 7.0209 0
M  V30 2268 H 209.918 1.21699 2.72017 0
M  V30 2269 H 207.455 0.611456 1.33789 0
M  V30 2270 H 209.413 -0.85466 4.08352 0
M  V30 2271 H 208.043 -1.20128 2.99615 0
M  V30 2272 H 207.095 1.13391 3.63107 0
M  V30 2273 H 208.407 1.27597 4.82204 0
M  V30 2274 H 207.561 -0.752288 6.02018 0
M  V30 2275 H 206.3 -0.984758 4.77654 0
M  V30 2276 H 205.305 1.24637 5.35486 0
M  V30 2277 H 206.53 1.46664 6.63074 0
M  V30 2278 H 204.476 -0.774348 6.51414 0
M  V30 2279 H 204.393 0.624374 7.53417 0
M  V30 2280 H 205.661 -0.539891 7.77628 0
M  V30 2281 N 209.89 -1.43072 0.660911 0
M  V30 2282 C 210.8 -2.34585 -0.0264163 0
M  V30 2283 C 211.816 -1.54316 -0.803898 0
M  V30 2284 O 212.992 -1.86939 -0.749391 0
M  V30 2285 C 210.057 -3.32689 -0.975639 0
M  V30 2286 C 209.118 -4.2886 -0.194236 0
M  V30 2287 C 208.351 -5.22278 -1.09825 0
M  V30 2288 O 208.574 -5.20299 -2.33763 0
M  V30 2289 O 207.508 -5.99228 -0.566513 0
M  V30 2290 H 211.334 -2.94869 0.727034 0
M  V30 2291 H 208.919 -1.43342 0.42111 0
M  V30 2292 H 210.801 -3.92995 -1.52094 0
M  V30 2293 H 209.476 -2.74898 -1.70918 0
M  V30 2294 H 208.383 -3.72011 0.394835 0
M  V30 2295 H 209.716 -4.89655 0.499899 0
M  V30 2296 N 211.368 -0.403325 -1.52352 0
M  V30 2297 C 212.614 0.174605 -2.02047 0
M  V30 2298 C 212.947 1.45282 -1.28867 0
M  V30 2299 O 212.222 1.90483 -0.393257 0
M  V30 2300 C 212.505 0.428238 -3.57545 0
M  V30 2301 C 212.358 -0.866248 -4.4138 0
M  V30 2302 C 213.677 1.21287 -4.23057 0
M  V30 2303 H 210.796 0.0619851 -0.734389 0
M  V30 2304 H 213.438 -0.53565 -1.82293 0
M  V30 2305 H 211.588 1.03327 -3.74507 0
M  V30 2306 H 213.26 -1.50265 -4.3614 0
M  V30 2307 H 211.503 -1.47851 -4.07827 0
M  V30 2308 H 212.174 -0.643249 -5.48239 0
M  V30 2309 H 214.65 0.700703 -4.10158 0
M  V30 2310 H 213.526 1.35909 -5.31808 0
M  V30 2311 H 213.787 2.23193 -3.81625 0
M  V30 2312 N 212.846 1.57033 -0.133567 0
M  V30 2313 C 214.093 1.95686 0.520877 0
M  V30 2314 C 214.421 1.0177 1.6575 0
M  V30 2315 O 213.676 0.0443195 1.9565 0
M  V30 2316 C 213.975 3.40674 1.08057 0
M  V30 2317 C 213.641 4.50855 0.0637899 0
M  V30 2318 C 212.303 4.80716 -0.215757 0
M  V30 2319 C 214.655 5.17398 -0.62835 0
M  V30 2320 C 211.983 5.74433 -1.19348 0
M  V30 2321 C 214.335 6.12167 -1.5948 0
M  V30 2322 C 212.999 6.40414 -1.88218 0
M  V30 2323 H 212.269 0.716067 0.190602 0
M  V30 2324 H 214.916 1.9026 -0.217556 0
M  V30 2325 H 213.221 3.42865 1.89606 0
M  V30 2326 H 214.918 3.67902 1.59529 0
M  V30 2327 H 211.508 4.27605 0.291855 0
M  V30 2328 H 215.692 4.94472 -0.425562 0
M  V30 2329 H 210.948 5.94616 -1.42272 0
M  V30 2330 H 215.122 6.6281 -2.13671 0
M  V30 2331 H 212.749 7.12838 -2.64133 0
M  V30 2332 N 214.325 -0.140222 1.56975 0
M  V30 2333 C 215.255 -1.17456 2.01808 0
M  V30 2334 C 216.236 -1.44415 0.898794 0
M  V30 2335 O 217.421 -1.5522 1.16707 0
M  V30 2336 C 214.551 -2.50607 2.40444 0
M  V30 2337 C 213.505 -2.38155 3.55621 0
M  V30 2338 C 212.831 -3.76078 3.80091 0
M  V30 2339 C 214.131 -1.85991 4.88062 0
M  V30 2340 H 215.825 -0.801743 2.88466 0
M  V30 2341 H 213.371 -0.38422 1.38779 0
M  V30 2342 H 215.324 -3.23197 2.7041 0
M  V30 2343 H 214.048 -2.89737 1.50732 0
M  V30 2344 H 212.707 -1.68016 3.25832 0
M  V30 2345 H 212.355 -4.12656 2.87618 0
M  V30 2346 H 212.055 -3.68606 4.57606 0
M  V30 2347 H 213.579 -4.50206 4.12488 0
M  V30 2348 H 214.993 -2.4838 5.16701 0
M  V30 2349 H 213.39 -1.89393 5.6943 0
M  V30 2350 H 214.46 -0.816023 4.77984 0
M  V30 2351 N 215.803 -1.52179 -0.40978 0
M  V30 2352 C 216.766 -1.74853 -1.48186 0
M  V30 2353 C 217.766 -0.618417 -1.48433 0
M  V30 2354 O 218.956 -0.886286 -1.49969 0
M  V30 2355 C 216.088 -1.8303 -2.87598 0
M  V30 2356 H 217.281 -2.70559 -1.29374 0
M  V30 2357 H 214.834 -1.42586 -0.640233 0
M  V30 2358 H 215.569 -0.89236 -3.11781 0
M  V30 2359 H 215.354 -2.65187 -2.88822 0
M  V30 2360 H 216.844 -2.02316 -3.65319 0
M  V30 2361 N 217.281 0.66697 -1.42791 0
M  V30 2362 C 218.53 1.42278 -1.42968 0
M  V30 2363 C 218.843 1.9553 -0.0524489 0
M  V30 2364 O 220.049 2.71414 0.068363 0
M  V30 2365 C 218.505 2.57418 -2.51524 0
M  V30 2366 C 218.113 2.10832 -3.9529 0
M  V30 2367 C 219.857 3.34878 -2.60877 0
M  V30 2368 C 217.764 3.23101 -4.95338 0
M  V30 2369 H 216.694 0.534533 -0.531781 0
M  V30 2370 H 219.345 0.721302 -1.68729 0
M  V30 2371 H 217.727 3.29971 -2.18941 0
M  V30 2372 H 218.901 1.4538 -4.37266 0
M  V30 2373 H 217.216 1.46289 -3.89857 0
M  V30 2374 H 219.813 4.18505 -3.32802 0
M  V30 2375 H 220.156 3.81993 -1.6549 0
M  V30 2376 H 220.689 2.69398 -2.92693 0
M  V30 2377 H 217.428 2.80969 -5.9223 0
M  V30 2378 H 216.948 3.87309 -4.57987 0
M  V30 2379 H 218.627 3.88447 -5.17415 0
M  V30 2380 N 218.759 1.29093 0.90403 0
M  V30 2381 C 220.175 1.07011 1.1841 0
M  V30 2382 C 220.375 -0.181358 2.00682 0
M  V30 2383 O 219.431 -0.880331 2.36657 0
M  V30 2384 C 220.744 2.32311 1.90924 0
M  V30 2385 C 222.292 2.37587 2.03768 0
M  V30 2386 C 222.767 3.62679 2.79693 0
M  V30 2387 N 224.258 3.63376 2.87249 0
M  V30 2388 C 224.993 4.56848 3.46522 0
M  V30 2389 N 224.489 5.60648 4.06996 0
M  V30 2390 N 226.282 4.44426 3.44154 0
M  V30 2391 H 218.433 2.09412 0.354993 0
M  V30 2392 H 220.696 0.922181 0.219742 0
M  V30 2393 H 220.402 3.23536 1.37905 0
M  V30 2394 H 220.276 2.39483 2.91424 0
M  V30 2395 H 222.663 1.46853 2.55965 0
M  V30 2396 H 222.744 2.34403 1.02415 0
M  V30 2397 H 222.388 4.53762 2.28173 0
M  V30 2398 H 222.318 3.63119 3.81381 0
M  V30 2399 H 224.809 2.88321 2.44293 0
M  V30 2400 H 225.122 6.28101 4.50232 0
M  V30 2401 H 223.467 5.64463 4.05471 0
M  V30 2402 H 226.658 3.62529 2.96126 0
M  V30 2403 H 226.831 5.17457 3.90054 0
M  V30 2404 N 220.237 -1.11381 1.11499 0
M  V30 2405 C 221.486 -1.82494 0.858993 0
M  V30 2406 C 221.799 -1.85605 -0.617278 0
M  V30 2407 O 223.005 -2.52824 -0.989552 0
M  V30 2408 C 221.461 -3.27745 1.48699 0
M  V30 2409 C 221.069 -3.32961 2.99735 0
M  V30 2410 C 222.813 -4.03754 1.31085 0
M  V30 2411 C 220.72 -4.72612 3.55516 0
M  V30 2412 H 219.65 -0.683802 0.317696 0
M  V30 2413 H 222.301 -1.25331 1.34031 0
M  V30 2414 H 220.683 -3.84844 0.933339 0
M  V30 2415 H 221.857 -2.85741 3.61509 0
M  V30 2416 H 220.172 -2.70433 3.16631 0
M  V30 2417 H 222.769 -5.06891 1.70192 0
M  V30 2418 H 223.112 -4.15527 0.253496 0
M  V30 2419 H 223.645 -3.53043 1.83318 0
M  V30 2420 H 220.384 -4.66036 4.60967 0
M  V30 2421 H 219.904 -5.2024 2.98513 0
M  V30 2422 H 221.583 -5.4157 3.53992 0
M  V30 2423 N 221.715 -0.905404 -1.28997 0
M  V30 2424 C 222.625 -0.392246 -2.31298 0
M  V30 2425 C 223.641 0.515889 -1.66176 0
M  V30 2426 O 224.817 0.404093 -1.97304 0
M  V30 2427 C 221.882 0.36686 -3.44754 0
M  V30 2428 C 220.943 -0.573485 -4.25452 0
M  V30 2429 C 220.176 0.149488 -5.33491 0
M  V30 2430 O 220.399 1.37255 -5.5364 0
M  V30 2431 O 219.333 -0.510919 -5.99728 0
M  V30 2432 H 223.159 -1.2411 -2.77183 0
M  V30 2433 H 220.744 -0.669926 -1.33538 0
M  V30 2434 H 222.626 0.795907 -4.13816 0
M  V30 2435 H 221.301 1.19169 -3.00966 0
M  V30 2436 H 220.208 -1.05176 -3.59011 0
M  V30 2437 H 221.541 -1.36489 -4.72897 0
M  V30 2438 N 223.193 1.4272 -0.668489 0
M  V30 2439 C 224.125 2.2914 0.052613 0
M  V30 2440 C 225.138 1.43339 0.771857 0
M  V30 2441 O 226.327 1.67123 0.627067 0
M  V30 2442 C 223.427 3.20618 1.09804 0
M  V30 2443 C 222.6 4.35039 0.45389 0
M  V30 2444 C 221.659 5.07282 1.39825 0
M  V30 2445 O 220.685 5.62024 0.900978 0
M  V30 2446 N 221.887 5.12206 2.73176 0
M  V30 2447 H 224.652 2.91668 -0.689209 0
M  V30 2448 H 222.213 1.53577 -0.512422 0
M  V30 2449 H 224.205 3.65815 1.73094 0
M  V30 2450 H 222.775 2.59585 1.74167 0
M  V30 2451 H 221.995 3.92567 -0.358396 0
M  V30 2452 H 223.283 5.088 0.00486972 0
M  V30 2453 H 222.681 4.6913 3.16122 0
M  V30 2454 H 221.238 5.61069 3.31729 0
M  V30 2455 N 224.671 0.411399 1.52136 0
M  V30 2456 C 225.601 -0.404015 2.29978 0
M  V30 2457 C 226.582 -1.04412 1.34284 0
M  V30 2458 O 227.767 -1.0527 1.63192 0
M  V30 2459 C 224.897 -1.5197 3.12286 0
M  V30 2460 C 223.851 -1.00448 4.16046 0
M  V30 2461 C 223.177 -2.21393 4.86712 0
M  V30 2462 C 224.477 -0.0569336 5.22269 0
M  V30 2463 H 226.171 0.245529 2.98392 0
M  V30 2464 H 223.717 0.119525 1.43503 0
M  V30 2465 H 225.67 -2.09715 3.6551 0
M  V30 2466 H 224.394 -2.19716 2.41646 0
M  V30 2467 H 223.053 -0.449421 3.63835 0
M  V30 2468 H 222.701 -2.87699 4.12599 0
M  V30 2469 H 222.401 -1.87571 5.56858 0
M  V30 2470 H 223.925 -2.7974 5.4275 0
M  V30 2471 H 225.339 -0.54325 5.7072 0
M  V30 2472 H 223.736 0.192594 5.99791 0
M  V30 2473 H 224.806 0.887663 4.76706 0
M  V30 2474 N 226.149 -1.5696 0.141893 0
M  V30 2475 C 227.079 -2.19516 -0.795936 0
M  V30 2476 C 228.06 -1.14187 -1.26077 0
M  V30 2477 O 229.245 -1.42511 -1.31925 0
M  V30 2478 C 226.375 -2.81272 -2.03723 0
M  V30 2479 C 225.329 -3.92384 -1.70936 0
M  V30 2480 C 224.655 -4.41052 -3.02287 0
M  V30 2481 C 225.955 -5.13403 -0.959954 0
M  V30 2482 H 227.649 -2.98138 -0.274596 0
M  V30 2483 H 225.195 -1.43406 -0.130636 0
M  V30 2484 H 227.148 -3.237 -2.69808 0
M  V30 2485 H 225.872 -1.99973 -2.58221 0
M  V30 2486 H 224.531 -3.50566 -1.07232 0
M  V30 2487 H 224.179 -3.56582 -3.54765 0
M  V30 2488 H 223.879 -5.15993 -2.81114 0
M  V30 2489 H 225.403 -4.86146 -3.69451 0
M  V30 2490 H 226.817 -5.52706 -1.52279 0
M  V30 2491 H 225.214 -5.94073 -0.848357 0
M  V30 2492 H 226.284 -4.84875 0.0492434 0
M  V30 2493 N 227.627 0.131896 -1.57047 0
M  V30 2494 C 228.855 0.856461 -1.88341 0
M  V30 2495 C 229.27 1.74042 -0.731757 0
M  V30 2496 O 228.627 1.80051 0.297945 0
M  V30 2497 C 228.678 1.70064 -3.18999 0
M  V30 2498 O 228.399 0.852278 -4.2973 0
M  V30 2499 C 229.9 2.53148 -3.63911 0
M  V30 2500 H 227.12 0.246885 -0.62393 0
M  V30 2501 H 229.664 0.120152 -2.04147 0
M  V30 2502 H 227.819 2.38984 -3.04902 0
M  V30 2503 H 228.233 1.43329 -5.04537 0
M  V30 2504 H 229.707 3.07931 -4.58129 0
M  V30 2505 H 230.184 3.29901 -2.89935 0
M  V30 2506 H 230.79 1.89492 -3.80753 0
M  V30 2507 N 229.106 1.52395 0.401703 0
M  V30 2508 C 230.053 1.76268 1.48991 0
M  V30 2509 C 231.023 0.605386 1.54675 0
M  V30 2510 O 232.208 0.843742 1.7113 0
M  V30 2511 C 229.348 1.92592 2.86361 0
M  V30 2512 C 228.461 3.20259 2.89928 0
M  V30 2513 C 227.596 3.26972 4.18644 0
M  V30 2514 C 226.635 4.48812 4.16214 0
M  V30 2515 N 225.772 4.52877 5.36514 0
M  V30 2516 H 230.612 2.6914 1.27935 0
M  V30 2517 H 228.149 1.33355 0.620871 0
M  V30 2518 H 230.107 2.0004 3.66115 0
M  V30 2519 H 228.737 1.03093 3.05895 0
M  V30 2520 H 227.789 3.21945 2.02621 0
M  V30 2521 H 229.101 4.10056 2.83999 0
M  V30 2522 H 228.255 3.33533 5.06794 0
M  V30 2523 H 226.994 2.35126 4.27278 0
M  V30 2524 H 225.999 4.4239 3.26453 0
M  V30 2525 H 227.224 5.41961 4.09213 0
M  V30 2526 H 225.17 3.63917 5.45802 0
M  V30 2527 H 225.087 5.36529 5.32609 0
M  V30 2528 H 226.355 4.63676 6.26597 0
M  V30 2529 N 230.584 -0.659388 1.43143 0
M  V30 2530 C 231.861 -1.41627 1.34912 0
M  V30 2531 C 232.241 -2.11099 -0.00607785 0
M  V30 2532 O 231.589 -2.04353 -1.02236 0
M  V30 2533 C 231.799 -2.40604 2.52805 0
M  V30 2534 C 233.147 -3.04789 2.95616 0
M  V30 2535 O 234.171 -2.50932 2.52807 0
M  V30 2536 O 233.03 -4.02421 3.69756 0
M  V30 2537 H 230.124 -0.63246 0.532844 0
M  V30 2538 H 232.67 -0.686814 1.5518 0
M  V30 2539 H 231.442 -1.88174 3.43083 0
M  V30 2540 H 231.065 -3.21009 2.34604 0
M  V30 2541 N 232.062 -1.29571 -0.897171 0
M  V30 2542 C 232.972 -1.16808 -2.03453 0
M  V30 2543 C 233.988 -0.0907471 -1.73763 0
M  V30 2544 O 235.164 -0.303312 -1.99103 0
M  V30 2545 C 232.229 -0.848264 -3.36163 0
M  V30 2546 C 231.29 -2.0097 -3.79354 0
M  V30 2547 C 230.523 -1.70505 -5.05731 0
M  V30 2548 O 230.746 -0.62718 -5.66941 0
M  V30 2549 O 229.68 -2.5538 -5.45036 0
M  V30 2550 H 233.506 -2.12325 -2.17144 0
M  V30 2551 H 231.091 -1.09047 -1.02123 0
M  V30 2552 H 232.973 -0.684581 -4.15802 0
M  V30 2553 H 231.648 0.0771071 -3.23608 0
M  V30 2554 H 230.555 -2.22863 -3.00471 0
M  V30 2555 H 231.888 -2.91636 -3.96496 0
M  V30 2556 N 233.54 1.10788 -1.12088 0
M  V30 2557 C 234.789 1.82036 -0.868659 0
M  V30 2558 C 235.102 1.85929 0.607426 0
M  V30 2559 O 236.308 2.53346 0.97613 0
M  V30 2560 C 234.764 3.26951 -1.50435 0
M  V30 2561 C 234.372 3.31367 -3.01496 0
M  V30 2562 C 236.116 4.03053 -1.33225 0
M  V30 2563 C 234.023 4.7072 -3.58017 0
M  V30 2564 H 232.953 0.682108 -0.321318 0
M  V30 2565 H 235.604 1.24618 -1.34694 0
M  V30 2566 H 233.986 3.84343 -0.953735 0
M  V30 2567 H 235.16 2.83819 -3.6302 0
M  V30 2568 H 233.475 2.6875 -3.18061 0
M  V30 2569 H 236.072 5.05981 -1.72878 0
M  V30 2570 H 236.415 4.15387 -0.275529 0
M  V30 2571 H 236.948 3.52066 -1.85188 0
M  V30 2572 H 233.687 4.63585 -4.63432 0
M  V30 2573 H 233.207 5.1865 -3.01268 0
M  V30 2574 H 234.886 5.39685 -3.56859 0
M  V30 2575 N 235.018 0.912232 1.28515 0
M  V30 2576 C 235.948 0.416403 2.29757 0
M  V30 2577 C 236.929 -0.515194 1.6211 0
M  V30 2578 O 238.114 -0.423253 1.89532 0
M  V30 2579 C 235.244 -0.34572 3.45575 0
M  V30 2580 C 234.198 0.496599 4.25109 0
M  V30 2581 C 233.524 -0.393771 5.33248 0
M  V30 2582 C 234.824 1.75307 4.92001 0
M  V30 2583 H 236.518 1.26249 2.7148 0
M  V30 2584 H 234.064 0.608515 1.30511 0
M  V30 2585 H 236.017 -0.703422 4.15488 0
M  V30 2586 H 234.741 -1.2257 3.02728 0
M  V30 2587 H 233.4 0.8368 3.56922 0
M  V30 2588 H 233.048 -1.27225 4.86644 0
M  V30 2589 H 232.748 0.166209 5.87365 0
M  V30 2590 H 234.272 -0.747389 6.06009 0
M  V30 2591 H 235.686 1.46437 5.54283 0
M  V30 2592 H 234.083 2.25534 5.56106 0
M  V30 2593 H 235.153 2.48176 4.16577 0
M  V30 2594 N 236.496 -1.42363 0.676048 0
M  V30 2595 C 237.406 -2.346 -0.00153389 0
M  V30 2596 C 238.422 -1.5516 -0.787485 0
M  V30 2597 O 239.598 -1.87723 -0.729521 0
M  V30 2598 C 236.663 -3.33705 -0.940298 0
M  V30 2599 C 235.724 -4.29042 -0.148739 0
M  V30 2600 C 234.957 -5.23413 -1.04279 0
M  V30 2601 O 235.18 -5.22749 -2.28232 0
M  V30 2602 O 234.114 -5.99795 -0.502925 0
M  V30 2603 H 237.94 -2.94082 0.758268 0
M  V30 2604 H 235.525 -1.42888 0.436289 0
M  V30 2605 H 237.407 -3.94586 -1.47917 0
M  V30 2606 H 236.082 -2.76695 -1.67993 0
M  V30 2607 H 234.989 -3.71571 0.43427 0
M  V30 2608 H 236.322 -4.89097 0.551805 0
M  V30 2609 N 237.974 -0.419461 -1.51915 0
M  V30 2610 C 238.904 0.391813 -2.30189 0
M  V30 2611 C 239.885 1.03699 -1.34836 0
M  V30 2612 O 241.07 1.04403 -1.63748 0
M  V30 2613 C 238.2 1.50312 -3.13087 0
M  V30 2614 C 237.154 0.9824 -4.16573 0
M  V30 2615 C 236.48 2.18809 -4.8788 0
M  V30 2616 C 237.78 0.0292356 -5.22292 0
M  V30 2617 H 239.474 -0.26135 -2.98257 0
M  V30 2618 H 237.02 -0.127134 -1.43438 0
M  V30 2619 H 238.973 2.07773 -3.66617 0
M  V30 2620 H 237.697 2.18431 -2.42807 0
M  V30 2621 H 236.356 0.430119 -3.64068 0
M  V30 2622 H 236.004 2.85507 -4.14119 0
M  V30 2623 H 235.704 1.84615 -5.57845 0
M  V30 2624 H 237.228 2.76858 -5.44226 0
M  V30 2625 H 238.642 0.512976 -5.71 0
M  V30 2626 H 237.039 -0.2244 -5.9968 0
M  V30 2627 H 238.109 -0.912931 -4.76228 0
M  V30 2628 N 239.452 1.56882 -0.150215 0
M  V30 2629 C 240.682 2.00302 0.506213 0
M  V30 2630 C 241.09 1.02934 1.58749 0
M  V30 2631 O 240.433 0.0188384 1.8369 0
M  V30 2632 C 240.495 3.40156 1.16337 0
M  V30 2633 C 240.159 4.56439 0.226311 0
M  V30 2634 C 241.156 5.17012 -0.547265 0
M  V30 2635 C 238.841 5.02136 0.128279 0
M  V30 2636 C 240.835 6.21693 -1.40629 0
M  V30 2637 C 238.522 6.06672 -0.734345 0
M  V30 2638 C 239.52 6.6632 -1.50023 0
M  V30 2639 O 239.208 7.68831 -2.34848 0
M  V30 2640 H 238.94 0.662182 0.135984 0
M  V30 2641 H 241.494 2.03961 -0.242746 0
M  V30 2642 H 239.724 3.33346 1.96004 0
M  V30 2643 H 241.413 3.67663 1.71985 0
M  V30 2644 H 242.179 4.82603 -0.48158 0
M  V30 2645 H 238.058 4.55435 0.714157 0
M  V30 2646 H 241.602 6.68179 -2.00455 0
M  V30 2647 H 237.499 6.40507 -0.801309 0
M  V30 2648 H 238.267 7.86065 -2.28131 0
M  V30 2649 N 240.93 -0.123565 1.57115 0
M  V30 2650 C 241.86 -1.15309 2.03042 0
M  V30 2651 C 242.841 -1.43454 0.914061 0
M  V30 2652 O 244.026 -1.53973 1.18347 0
M  V30 2653 C 241.156 -2.48043 2.43089 0
M  V30 2654 C 240.11 -2.3437 3.58127 0
M  V30 2655 C 239.436 -3.72026 3.84059 0
M  V30 2656 C 240.736 -1.80804 4.90007 0
M  V30 2657 H 242.43 -0.771102 2.893 0
M  V30 2658 H 239.976 -0.369479 1.39179 0
M  V30 2659 H 241.929 -3.20311 2.73823 0
M  V30 2660 H 240.653 -2.88122 1.53796 0
M  V30 2661 H 239.312 -1.64551 3.27595 0
M  V30 2662 H 238.96 -4.09582 2.91979 0
M  V30 2663 H 238.66 -3.63732 4.6149 0
M  V30 2664 H 240.184 -4.45806 4.1724 0
M  V30 2665 H 241.598 -2.42886 5.19307 0
M  V30 2666 H 239.995 -1.83343 5.71407 0
M  V30 2667 H 241.065 -0.76528 4.78823 0
M  V30 2668 N 242.408 -1.52605 -0.393616 0
M  V30 2669 C 243.356 -1.77688 -1.50099 0
M  V30 2670 C 244.35 -0.644615 -1.56656 0
M  V30 2671 O 245.556 -0.826997 -1.59877 0
M  V30 2672 H 241.931 -0.562159 -0.499481 0
M  V30 2673 H 243.902 -2.7043 -1.26135 0
M  V30 2674 C 242.651 -1.95858 -2.87289 0
M  V30 2675 H 241.974 -2.8241 -2.82992 0
M  V30 2676 H 243.414 -2.174 -3.64024 0
M  V30 2677 C 241.873 -0.729848 -3.28899 0
M  V30 2678 O 242.403 0.0949217 -4.01588 0
M  V30 2679 N 240.609 -0.561283 -2.85128 0
M  V30 2680 H 240.156 -1.23357 -2.26143 0
M  V30 2681 H 240.114 0.2595 -3.13327 0
M  V30 2682 N 243.887 0.651787 -1.4349 0
M  V30 2683 C 244.834 1.76462 -1.4876 0
M  V30 2684 C 245.804 1.62641 -0.337189 0
M  V30 2685 O 246.989 1.82864 -0.544544 0
M  V30 2686 C 244.129 3.14623 -1.41796 0
M  V30 2687 C 243.242 3.39568 -2.67053 0
M  V30 2688 C 242.377 4.67585 -2.52068 0
M  V30 2689 C 241.416 4.85639 -3.72587 0
M  V30 2690 N 240.553 6.04915 -3.56402 0
M  V30 2691 H 245.393 1.71293 -2.43849 0
M  V30 2692 H 242.93 0.835889 -1.21043 0
M  V30 2693 H 244.888 3.94496 -1.35753 0
M  V30 2694 H 243.518 3.18859 -0.50288 0
M  V30 2695 H 242.57 2.53783 -2.8337 0
M  V30 2696 H 243.882 3.48795 -3.56572 0
M  V30 2697 H 243.036 5.55586 -2.4374 0
M  V30 2698 H 241.775 4.60681 -1.60075 0
M  V30 2699 H 240.78 3.96073 -3.81321 0
M  V30 2700 H 242.005 4.94372 -4.65589 0
M  V30 2701 H 239.951 5.9914 -2.67146 0
M  V30 2702 H 239.868 6.15106 -4.39524 0
M  V30 2703 H 241.136 6.95533 -3.51929 0
M  V30 2704 N 245.365 1.30045 0.890287 0
M  V30 2705 C 246.614 1.17929 1.63633 0
M  V30 2706 C 246.927 -0.266204 1.9378 0
M  V30 2707 O 248.133 -0.508804 2.6669 0
M  V30 2708 C 246.589 2.06317 2.94892 0
M  V30 2709 C 246.197 3.55745 2.72305 0
M  V30 2710 C 247.941 2.0295 3.72843 0
M  V30 2711 C 245.848 4.36205 3.99348 0
M  V30 2712 H 244.778 0.437782 0.613892 0
M  V30 2713 H 247.429 1.54754 0.986075 0
M  V30 2714 H 245.811 1.6237 3.61182 0
M  V30 2715 H 246.985 4.07805 2.1455 0
M  V30 2716 H 245.3 3.6088 2.07737 0
M  V30 2717 H 247.897 2.60319 4.67053 0
M  V30 2718 H 248.24 1.0117 4.0382 0
M  V30 2719 H 248.773 2.4499 3.13408 0
M  V30 2720 H 245.512 5.38659 3.73533 0
M  V30 2721 H 245.032 3.8891 4.56628 0
M  V30 2722 H 246.711 4.47362 4.67415 0
M  V30 2723 N 246.843 -1.10192 1.12674 0
M  V30 2724 C 248.073 -1.85713 0.905213 0
M  V30 2725 C 248.481 -1.81056 -0.549108 0
M  V30 2726 O 247.824 -1.19927 -1.39151 0
M  V30 2727 C 247.886 -3.34972 1.30516 0
M  V30 2728 C 247.55 -3.63385 2.77129 0
M  V30 2729 C 248.547 -3.59772 3.75313 0
M  V30 2730 C 246.232 -3.91981 3.14096 0
M  V30 2731 C 248.226 -3.84354 5.08479 0
M  V30 2732 C 245.913 -4.16218 4.47443 0
M  V30 2733 C 246.911 -4.12395 5.44444 0
M  V30 2734 O 246.599 -4.36014 6.75387 0
M  V30 2735 H 246.331 -0.593719 0.323223 0
M  V30 2736 H 248.885 -1.40198 1.50112 0
M  V30 2737 H 247.115 -3.81156 0.652463 0
M  V30 2738 H 248.804 -3.91886 1.05736 0
M  V30 2739 H 249.57 -3.37716 3.48099 0
M  V30 2740 H 245.449 -3.94085 2.39202 0
M  V30 2741 H 248.993 -3.81285 5.84181 0
M  V30 2742 H 244.89 -4.37754 4.74386 0
M  V30 2743 H 245.658 -4.53516 6.8137 0
M  V30 2744 N 248.321 -0.919034 -1.28029 0
M  V30 2745 C 249.251 -0.428581 -2.29533 0
M  V30 2746 C 250.232 0.50659 -1.62381 0
M  V30 2747 O 251.417 0.413195 -1.89753 0
M  V30 2748 C 248.547 0.327388 -3.45753 0
M  V30 2749 C 247.501 -0.519137 -4.2484 0
M  V30 2750 C 246.827 0.365486 -5.33449 0
M  V30 2751 C 248.127 -1.77914 -4.91064 0
M  V30 2752 H 249.821 -1.27687 -2.70807 0
M  V30 2753 H 247.367 -0.615428 -1.30186 0
M  V30 2754 H 249.32 0.681378 -4.15855 0
M  V30 2755 H 248.044 1.20963 -3.03374 0
M  V30 2756 H 246.703 -0.855717 -3.56473 0
M  V30 2757 H 246.351 1.24642 -4.87312 0
M  V30 2758 H 246.051 -0.197356 -5.87268 0
M  V30 2759 H 247.575 0.715241 -6.06396 0
M  V30 2760 H 248.989 -1.49374 -5.53498 0
M  V30 2761 H 247.386 -2.2848 -5.54903 0
M  V30 2762 H 248.456 -2.50382 -4.15255 0
M  V30 2763 N 249.799 1.42003 -0.683588 0
M  V30 2764 C 251.047 2.01015 -0.209101 0
M  V30 2765 C 251.368 1.54365 1.19149 0
M  V30 2766 O 250.638 0.769083 1.80172 0
M  V30 2767 H 249.218 0.743294 -0.074315 0
M  V30 2768 H 251.88 1.73798 -0.882066 0
M  V30 2769 H 250.976 3.11343 -0.2172 0
M  V30 2770 N 251.277 0.427512 1.51691 0
M  V30 2771 C 252.507 -0.140986 2.06118 0
M  V30 2772 C 252.915 -1.37854 1.29588 0
M  V30 2773 O 252.258 -1.80411 0.346036 0
M  V30 2774 C 252.32 -0.538276 3.55447 0
M  V30 2775 C 251.984 0.591095 4.53161 0
M  V30 2776 C 252.981 1.46027 4.98971 0
M  V30 2777 C 250.666 0.769028 4.96378 0
M  V30 2778 C 252.66 2.49216 5.8666 0
M  V30 2779 C 250.347 1.80421 5.83859 0
M  V30 2780 C 251.345 2.66417 6.28897 0
M  V30 2781 O 251.033 3.68159 7.14643 0
M  V30 2782 H 250.765 -0.0157455 0.675817 0
M  V30 2783 H 253.319 0.602495 1.96365 0
M  V30 2784 H 251.549 -1.33432 3.6295 0
M  V30 2785 H 253.238 -1.0368 3.92435 0
M  V30 2786 H 254.004 1.33429 4.66285 0
M  V30 2787 H 249.883 0.109273 4.6087 0
M  V30 2788 H 253.427 3.16372 6.21735 0
M  V30 2789 H 249.324 1.93042 6.15959 0
M  V30 2790 H 250.092 3.64622 7.32798 0
M  V30 2791 N 252.755 -1.56801 0.158532 0
M  V30 2792 C 254.171 -1.5837 -0.197774 0
M  V30 2793 C 254.371 -1.17334 -1.63814 0
M  V30 2794 O 253.427 -0.878988 -2.36707 0
M  V30 2795 C 254.74 -3.00615 0.0714459 0
M  V30 2796 C 256.288 -3.12999 0.00864533 0
M  V30 2797 C 256.763 -4.57313 0.250685 0
M  V30 2798 N 258.254 -4.62777 0.198014 0
M  V30 2799 C 258.989 -5.72271 0.359642 0
M  V30 2800 N 258.485 -6.90371 0.579625 0
M  V30 2801 N 260.278 -5.61318 0.296438 0
M  V30 2802 H 252.429 -1.81765 1.09887 0
M  V30 2803 H 254.692 -0.841849 0.435884 0
M  V30 2804 H 254.398 -3.35068 1.06874 0
M  V30 2805 H 254.272 -3.71683 -0.642757 0
M  V30 2806 H 256.659 -2.7838 -0.979217 0
M  V30 2807 H 256.74 -2.44393 0.755359 0
M  V30 2808 H 256.384 -4.92639 1.2357 0
M  V30 2809 H 256.314 -5.24061 -0.516489 0
M  V30 2810 H 258.805 -3.77885 0.0331115 0
M  V30 2811 H 259.118 -7.69689 0.69275 0
M  V30 2812 H 257.463 -6.92264 0.616087 0
M  V30 2813 H 260.654 -4.67932 0.125258 0
M  V30 2814 H 260.827 -6.46599 0.425831 0
M  V30 2815 N 254.233 0.115231 -1.57178 0
M  V30 2816 C 255.196 1.12526 -1.99676 0
M  V30 2817 C 256.196 1.34095 -0.88742 0
M  V30 2818 O 257.386 1.30548 -1.15337 0
M  V30 2819 C 254.518 2.4789 -2.34015 0
M  V30 2820 H 255.711 0.759912 -2.90113 0
M  V30 2821 H 253.264 0.359648 -1.52106 0
M  V30 2822 H 253.999 2.89339 -1.4647 0
M  V30 2823 H 253.784 2.33588 -3.14927 0
M  V30 2824 H 255.274 3.20575 -2.67622 0
M  V30 2825 N 255.711 1.52812 0.385517 0
M  V30 2826 C 256.941 1.71658 1.14966 0
M  V30 2827 C 257.349 0.436253 1.84102 0
M  V30 2828 O 256.692 -0.599313 1.73649 0
M  V30 2829 C 256.754 2.81309 2.23843 0
M  V30 2830 C 256.418 4.22313 1.74644 0
M  V30 2831 C 257.415 5.05352 1.22129 0
M  V30 2832 C 255.1 4.68648 1.80761 0
M  V30 2833 C 257.094 6.32807 0.763838 0
M  V30 2834 C 254.781 5.96086 1.34627 0
M  V30 2835 C 255.779 6.77996 0.825264 0
M  V30 2836 O 255.467 8.03045 0.370669 0
M  V30 2837 H 255.199 0.578022 0.350523 0
M  V30 2838 H 257.753 2.00263 0.456509 0
M  V30 2839 H 255.983 2.48133 2.96592 0
M  V30 2840 H 257.672 2.88524 2.85497 0
M  V30 2841 H 258.438 4.70736 1.16758 0
M  V30 2842 H 254.317 4.04979 2.20256 0
M  V30 2843 H 257.861 6.96689 0.356494 0
M  V30 2844 H 253.758 6.30205 1.39686 0
M  V30 2845 H 254.526 8.17021 0.491829 0
M  V30 2846 N 257.189 -0.644168 1.43834 0
M  V30 2847 C 258.437 -1.40117 1.45642 0
M  V30 2848 C 258.758 -1.94814 0.0852413 0
M  V30 2849 O 258.028 -1.74988 -0.880688 0
M  V30 2850 H 256.608 -0.52005 0.536243 0
M  V30 2851 H 259.27 -0.7591 1.7951 0
M  V30 2852 H 258.366 -2.23902 2.17427 0
M  V30 2853 N 258.668 -1.30515 -0.883378 0
M  V30 2854 C 259.914 -1.19607 -1.63774 0
M  V30 2855 C 260.247 0.248314 -1.92606 0
M  V30 2856 O 259.522 1.17742 -1.54813 0
M  V30 2857 C 259.805 -2.02669 -2.97653 0
M  V30 2858 C 259.658 -3.55335 -2.75784 0
M  V30 2859 C 260.977 -1.86573 -3.98596 0
M  V30 2860 H 258.096 -0.435856 -0.594305 0
M  V30 2861 H 260.738 -1.60165 -1.02212 0
M  V30 2862 H 258.888 -1.68208 -3.50197 0
M  V30 2863 H 260.56 -3.99863 -2.30016 0
M  V30 2864 H 258.803 -3.79438 -2.1026 0
M  V30 2865 H 259.474 -4.08745 -3.70988 0
M  V30 2866 H 261.95 -2.16703 -3.55217 0
M  V30 2867 H 260.826 -2.47014 -4.90179 0
M  V30 2868 H 261.087 -0.825321 -4.34328 0
M  V30 2869 N 260.146 1.09593 -1.13257 0
M  V30 2870 C 261.394 1.81375 -0.891492 0
M  V30 2871 C 261.715 1.86049 0.584009 0
M  V30 2872 O 260.985 1.34481 1.42449 0
M  V30 2873 H 259.565 0.671708 -0.326828 0
M  V30 2874 H 262.227 1.3256 -1.42877 0
M  V30 2875 H 261.323 2.84612 -1.28071 0
M  V30 2876 N 261.624 0.925811 1.2754 0
M  V30 2877 C 262.587 0.428129 2.25166 0
M  V30 2878 C 263.587 -0.452261 1.54309 0
M  V30 2879 O 264.777 -0.253608 1.72344 0
M  V30 2880 C 261.909 -0.384749 3.38722 0
M  V30 2881 H 263.102 1.29066 2.70706 0
M  V30 2882 H 260.655 0.706323 1.3943 0
M  V30 2883 H 261.39 -1.26618 2.98561 0
M  V30 2884 H 261.175 0.246454 3.91325 0
M  V30 2885 H 262.665 -0.723389 4.11287 0
M  V30 2886 N 263.102 -1.41638 0.69111 0
M  V30 2887 C 264.065 -2.29178 0.0319786 0
M  V30 2888 C 265.065 -1.44153 -0.712496 0
M  V30 2889 O 266.255 -1.65354 -0.548053 0
M  V30 2890 C 263.387 -3.26952 -0.965161 0
M  V30 2891 H 264.58 -2.88959 0.802681 0
M  V30 2892 H 262.133 -1.4955 0.454356 0
M  V30 2893 H 262.868 -2.72142 -1.76378 0
M  V30 2894 H 262.653 -3.89685 -0.434522 0
M  V30 2895 H 264.143 -3.92561 -1.42428 0
M  V30 2896 N 264.58 -0.43555 -1.51462 0
M  V30 2897 C 265.543 0.365137 -2.26273 0
M  V30 2898 C 266.543 0.951227 -1.29647 0
M  V30 2899 O 267.733 0.825958 -1.53374 0
M  V30 2900 C 264.865 1.51645 -3.05314 0
M  V30 2901 H 266.058 -0.290474 -2.9849 0
M  V30 2902 H 263.611 -0.188676 -1.55157 0
M  V30 2903 H 264.346 2.20816 -2.3751 0
M  V30 2904 H 264.131 1.10238 -3.76284 0
M  V30 2905 H 265.621 2.08218 -3.61987 0
M  V30 2906 N 266.058 1.56714 -0.166846 0
M  V30 2907 C 266.99 2.14914 0.796537 0
M  V30 2908 C 268.003 1.10357 1.19688 0
M  V30 2909 O 269.192 1.37561 1.13751 0
M  V30 2910 C 266.292 2.67326 2.08303 0
M  V30 2911 C 265.465 3.96493 1.84696 0
M  V30 2912 C 264.524 4.34014 2.97521 0
M  V30 2913 O 263.55 5.01973 2.6835 0
M  V30 2914 N 264.752 3.95208 4.25196 0
M  V30 2915 H 267.517 2.98205 0.299006 0
M  V30 2916 H 265.078 1.61892 0.0160839 0
M  V30 2917 H 267.07 2.89428 2.82867 0
M  V30 2918 H 265.64 1.88649 2.4926 0
M  V30 2919 H 264.86 3.82814 0.940602 0
M  V30 2920 H 266.148 4.8086 1.66285 0
M  V30 2921 H 265.546 3.40487 4.51758 0
M  V30 2922 H 264.103 4.2232 4.96477 0
M  V30 2923 N 267.536 -0.106894 1.57237 0
M  V30 2924 C 268.782 -0.81373 1.85759 0
M  V30 2925 C 269.115 -1.78952 0.754315 0
M  V30 2926 O 268.39 -1.93029 -0.23879 0
M  V30 2927 C 268.673 -1.55293 3.24894 0
M  V30 2928 C 268.526 -0.595929 4.45835 0
M  V30 2929 C 269.845 -2.5063 3.61763 0
M  V30 2930 H 266.964 -0.294369 0.67566 0
M  V30 2931 H 269.606 -0.0776472 1.89841 0
M  V30 2932 H 267.756 -2.1804 3.21544 0
M  V30 2933 H 269.428 0.0236262 4.61294 0
M  V30 2934 H 267.671 0.0916191 4.33703 0
M  V30 2935 H 268.342 -1.15004 5.39887 0
M  V30 2936 H 270.818 -1.97982 3.65981 0
M  V30 2937 H 269.694 -2.99376 4.60071 0
M  V30 2938 H 269.955 -3.3385 2.89821 0
M  V30 2939 N 269.014 -1.53014 -0.377408 0
M  V30 2940 C 270.244 -1.72265 -1.14054 0
M  V30 2941 C 270.652 -0.44601 -1.83868 0
M  V30 2942 O 269.995 0.590095 -1.73964 0
M  V30 2943 C 270.057 -2.82492 -2.22348 0
M  V30 2944 C 269.721 -4.23233 -1.72402 0
M  V30 2945 C 270.718 -5.05992 -1.19448 0
M  V30 2946 C 268.403 -4.696 -1.78273 0
M  V30 2947 C 270.397 -6.33203 -0.730268 0
M  V30 2948 C 268.084 -5.96792 -1.31464 0
M  V30 2949 C 269.082 -6.78424 -0.789297 0
M  V30 2950 O 268.77 -8.0323 -0.328077 0
M  V30 2951 H 268.502 -0.579873 -0.347453 0
M  V30 2952 H 271.056 -2.00502 -0.445882 0
M  V30 2953 H 269.286 -2.49702 -2.95272 0
M  V30 2954 H 270.975 -2.90034 -2.83963 0
M  V30 2955 H 271.741 -4.71349 -1.14259 0
M  V30 2956 H 267.62 -4.06142 -2.18106 0
M  V30 2957 H 271.164 -6.96868 -0.319542 0
M  V30 2958 H 267.061 -6.30937 -1.36342 0
M  V30 2959 H 267.829 -8.1727 -0.448493 0
M  V30 2960 N 270.492 0.636531 -1.44174 0
M  V30 2961 C 271.739 1.39619 -1.46672 0
M  V30 2962 C 272.067 1.94257 -0.0972691 0
M  V30 2963 O 271.322 1.73768 0.900175 0
M  V30 2964 C 271.621 2.58309 -2.47005 0
M  V30 2965 C 271.287 2.21992 -3.92467 0
M  V30 2966 C 269.949 2.118 -4.32081 0
M  V30 2967 C 272.301 1.9321 -4.84065 0
M  V30 2968 C 269.629 1.71007 -5.61225 0
M  V30 2969 C 271.981 1.53911 -6.13591 0
M  V30 2970 C 270.645 1.42257 -6.52165 0
M  V30 2971 H 269.915 0.510902 -0.536712 0
M  V30 2972 H 272.562 0.722328 -1.77355 0
M  V30 2973 H 270.867 3.30903 -2.09786 0
M  V30 2974 H 272.564 3.16533 -2.46186 0
M  V30 2975 H 269.154 2.30841 -3.61124 0
M  V30 2976 H 273.338 1.99997 -4.54219 0
M  V30 2977 H 268.594 1.60583 -5.89935 0
M  V30 2978 H 272.768 1.30677 -6.8403 0
M  V30 2979 H 270.395 1.10419 -7.52138 0
M  V30 2980 N 271.97 1.30982 0.876444 0
M  V30 2981 C 273.218 1.20058 1.62575 0
M  V30 2982 C 273.539 -0.242947 1.93481 0
M  V30 2983 O 272.809 -1.1619 1.57724 0
M  V30 2984 H 271.389 0.44135 0.602677 0
M  V30 2985 H 274.051 1.64222 1.04962 0
M  V30 2986 H 273.147 1.76762 2.57219 0
M  V30 2987 N 273.449 -1.08991 1.13837 0
M  V30 2988 C 274.396 -2.15748 0.819835 0
M  V30 2989 C 275.366 -1.64636 -0.220026 0
M  V30 2990 O 276.551 -1.90582 -0.0912757 0
M  V30 2991 C 273.691 -3.4382 0.296913 0
M  V30 2992 C 272.804 -4.0881 1.39636 0
M  V30 2993 C 271.939 -5.24655 0.831314 0
M  V30 2994 C 270.978 -5.81575 1.90886 0
M  V30 2995 N 270.115 -6.88774 1.36142 0
M  V30 2996 H 274.955 -2.42338 1.73426 0
M  V30 2997 H 272.492 -1.18935 0.865613 0
M  V30 2998 H 274.45 -4.17193 -0.0244339 0
M  V30 2999 H 273.08 -3.17535 -0.580628 0
M  V30 3000 H 272.132 -3.33258 1.83422 0
M  V30 3001 H 273.444 -4.47141 2.21058 0
M  V30 3002 H 272.598 -6.04942 0.461515 0
M  V30 3003 H 271.337 -4.87698 -0.013932 0
M  V30 3004 H 270.342 -4.99946 2.28767 0
M  V30 3005 H 271.567 -6.20592 2.75758 0
M  V30 3006 H 269.513 -6.53788 0.538254 0
M  V30 3007 H 269.43 -7.25898 2.11208 0
M  V30 3008 H 270.698 -7.72806 1.01933 0
M  V30 3009 N 274.927 -0.932562 -1.27047 0
M  V30 3010 C 276.155 -0.592031 -1.98249 0
M  V30 3011 C 276.57 0.831062 -1.69525 0
M  V30 3012 O 275.927 1.55299 -0.958561 0
M  V30 3013 C 275.978 -0.814279 -3.5221 0
M  V30 3014 O 275.699 -2.18139 -3.7993 0
M  V30 3015 C 277.2 -0.483121 -4.4066 0
M  V30 3016 H 274.42 -0.223896 -0.632544 0
M  V30 3017 H 276.964 -1.25091 -1.61779 0
M  V30 3018 H 275.119 -0.20213 -3.86872 0
M  V30 3019 H 275.533 -2.235 -4.74498 0
M  V30 3020 H 277.007 -0.689298 -5.47679 0
M  V30 3021 H 277.484 0.581546 -4.35333 0
M  V30 3022 H 278.09 -1.07362 -4.11526 0
M  V30 3023 N 276.405 1.4127 -0.698611 0
M  V30 3024 C 277.651 2.01478 -0.231207 0
M  V30 3025 C 277.984 1.55215 1.16713 0
M  V30 3026 O 277.259 0.764672 1.78838 0
M  V30 3027 C 277.542 3.58912 -0.292281 0
M  V30 3028 C 277.395 4.15293 -1.72778 0
M  V30 3029 C 278.714 4.38736 0.346194 0
M  V30 3030 H 275.833 0.732025 -0.0854878 0
M  V30 3031 H 278.475 1.67977 -0.887906 0
M  V30 3032 H 276.625 3.87582 0.26686 0
M  V30 3033 H 278.297 3.97486 -2.341 0
M  V30 3034 H 276.54 3.7022 -2.26096 0
M  V30 3035 H 277.211 5.24452 -1.72202 0
M  V30 3036 H 279.687 4.15897 -0.130035 0
M  V30 3037 H 278.563 5.48221 0.272932 0
M  V30 3038 H 278.824 4.18425 1.42734 0
M  V30 3039 N 277.883 0.443576 1.51229 0
M  V30 3040 C 279.16 -0.181038 1.9476 0
M  V30 3041 C 279.54 -1.59523 1.38259 0
M  V30 3042 O 278.888 -2.2122 0.572198 0
M  V30 3043 C 279.098 -0.152422 3.48667 0
M  V30 3044 C 280.446 -0.354923 4.23114 0
M  V30 3045 O 281.47 -0.230257 3.55455 0
M  V30 3046 O 280.329 -0.603674 5.43156 0
M  V30 3047 H 277.423 -0.1266 0.817252 0
M  V30 3048 H 279.969 0.502004 1.62105 0
M  V30 3049 H 278.741 0.836022 3.82265 0
M  V30 3050 H 278.364 -0.878107 3.87782 0
M  V30 3051 N 279.361 -1.56624 0.175154 0
M  V30 3052 C 280.293 -2.15333 -0.785128 0
M  V30 3053 C 281.306 -1.1099 -1.19101 0
M  V30 3054 O 282.495 -1.38162 -1.13019 0
M  V30 3055 C 279.595 -2.68427 -2.06882 0
M  V30 3056 C 278.768 -3.97466 -1.8259 0
M  V30 3057 C 277.827 -4.35585 -2.95215 0
M  V30 3058 O 276.853 -5.03389 -2.65684 0
M  V30 3059 N 278.055 -3.97457 -4.23094 0
M  V30 3060 H 280.82 -2.98359 -0.283187 0
M  V30 3061 H 278.381 -1.61898 -0.00749817 0
M  V30 3062 H 280.373 -2.90924 -2.81328 0
M  V30 3063 H 278.943 -1.89968 -2.48256 0
M  V30 3064 H 278.163 -3.83307 -0.920287 0
M  V30 3065 H 279.451 -4.81736 -1.63733 0
M  V30 3066 H 278.849 -3.42878 -4.49945 0
M  V30 3067 H 277.406 -4.24947 -4.9423 0
M  V30 3068 N 280.839 0.0985539 -1.57292 0
M  V30 3069 C 281.769 1.12064 -2.04851 0
M  V30 3070 C 282.75 1.41981 -0.936767 0
M  V30 3071 O 283.935 1.52071 -1.20781 0
M  V30 3072 C 281.065 2.44144 -2.47004 0
M  V30 3073 C 280.019 2.28643 -3.6181 0
M  V30 3074 C 279.345 3.65869 -3.89929 0
M  V30 3075 C 280.645 1.72986 -4.92822 0
M  V30 3076 H 282.339 0.724979 -2.9049 0
M  V30 3077 H 279.885 0.34729 -1.39749 0
M  V30 3078 H 281.838 3.15914 -2.78884 0
M  V30 3079 H 280.562 2.85639 -1.5836 0
M  V30 3080 H 279.221 1.59318 -3.30172 0
M  V30 3081 H 278.869 4.04885 -2.98458 0
M  V30 3082 H 278.569 3.56344 -4.67218 0
M  V30 3083 H 280.093 4.39112 -4.2428 0
M  V30 3084 H 281.507 2.34593 -5.23105 0
M  V30 3085 H 279.904 1.74229 -5.74251 0
M  V30 3086 H 280.974 0.689007 -4.7998 0
M  V30 3087 N 282.317 1.53212 0.369288 0
M  V30 3088 C 283.545 1.73119 1.13303 0
M  V30 3089 C 283.96 0.458455 1.83149 0
M  V30 3090 O 283.317 -0.568403 1.73423 0
M  V30 3091 C 283.368 2.89413 2.16616 0
M  V30 3092 O 283.089 4.11761 1.49614 0
M  V30 3093 C 284.59 3.21161 3.05566 0
M  V30 3094 H 281.81 0.579107 0.338934 0
M  V30 3095 H 284.354 1.99942 0.429338 0
M  V30 3096 H 282.509 2.64994 2.82589 0
M  V30 3097 H 282.923 4.76858 2.18419 0
M  V30 3098 H 284.397 4.05949 3.74045 0
M  V30 3099 H 284.874 2.36369 3.70171 0
M  V30 3100 H 285.48 3.47492 2.45213 0
M  V30 3101 N 283.795 -0.628877 1.44509 0
M  V30 3102 C 284.725 -1.75187 1.54376 0
M  V30 3103 C 285.706 -1.65411 0.396618 0
M  V30 3104 O 286.891 -1.84137 0.617031 0
M  V30 3105 C 284.021 -3.13725 1.48976 0
M  V30 3106 C 282.975 -3.38291 2.62189 0
M  V30 3107 C 282.301 -4.76883 2.41841 0
M  V30 3108 C 283.601 -3.30632 4.04326 0
M  V30 3109 H 285.295 -1.67187 2.48373 0
M  V30 3110 H 282.841 -0.802909 1.19538 0
M  V30 3111 H 284.794 -3.92064 1.54478 0
M  V30 3112 H 283.518 -3.22515 0.514961 0
M  V30 3113 H 282.177 -2.62334 2.56079 0
M  V30 3114 H 281.825 -4.82378 1.42548 0
M  V30 3115 H 281.525 -4.94278 3.17747 0
M  V30 3116 H 283.049 -5.57449 2.49165 0
M  V30 3117 H 284.463 -3.98873 4.11793 0
M  V30 3118 H 282.86 -3.59561 4.80454 0
M  V30 3119 H 283.93 -2.28404 4.27738 0
M  V30 3120 N 285.273 -1.31445 -0.869486 0
M  V30 3121 C 286.221 -1.19067 -1.99814 0
M  V30 3122 C 287.215 -0.0988569 -1.69111 0
M  V30 3123 O 288.421 -0.260781 -1.78101 0
M  V30 3124 H 284.796 -0.368677 -0.655425 0
M  V30 3125 H 286.767 -2.14555 -2.07385 0
M  V30 3126 C 285.516 -0.915323 -3.35436 0
M  V30 3127 H 284.839 -1.74759 -3.59582 0
M  V30 3128 H 286.279 -0.868895 -4.15001 0
M  V30 3129 C 284.738 0.381928 -3.34728 0
M  V30 3130 O 285.268 1.39857 -3.76567 0
M  V30 3131 N 283.474 0.398633 -2.87853 0
M  V30 3132 H 283.021 -0.429186 -2.54 0
M  V30 3133 H 282.979 1.26651 -2.87762 0
M  V30 3134 N 286.751 1.08385 -1.14413 0
M  V30 3135 C 287.661 2.18856 -0.844951 0
M  V30 3136 C 288.677 1.73121 0.174668 0
M  V30 3137 O 289.853 2.014 0.00312857 0
M  V30 3138 C 286.918 3.45155 -0.32696 0
M  V30 3139 C 285.979 4.05513 -1.40916 0
M  V30 3140 C 285.212 5.25784 -0.915793 0
M  V30 3141 O 285.435 5.69884 0.242651 0
M  V30 3142 O 284.369 5.77545 -1.69487 0
M  V30 3143 H 288.195 2.46919 -1.76818 0
M  V30 3144 H 285.78 1.17524 -0.922411 0
M  V30 3145 H 287.662 4.21377 -0.0440211 0
M  V30 3146 H 286.337 3.18668 0.568539 0
M  V30 3147 H 285.244 3.30879 -1.74556 0
M  V30 3148 H 286.577 4.3625 -2.27919 0
M  V30 3149 N 288.23 0.939286 1.26551 0
M  V30 3150 C 289.163 0.391702 2.24813 0
M  V30 3151 C 290.141 -0.518421 1.54114 0
M  V30 3152 O 291.325 -0.456299 1.82894 0
M  V30 3153 C 288.452 -0.437382 3.35864 0
M  V30 3154 C 287.498 0.410946 4.24516 0
M  V30 3155 S 288.331 1.83372 5.03125 0
M  V30 3156 C 289.487 1.01264 6.17654 0
M  V30 3157 H 289.72 1.22448 2.70913 0
M  V30 3158 H 287.253 0.742269 1.35387 0
M  V30 3159 H 289.211 -0.909837 4.0029 0
M  V30 3160 H 287.872 -1.24482 2.8838 0
M  V30 3161 H 287.065 -0.224191 5.03501 0
M  V30 3162 H 286.667 0.818014 3.64945 0
M  V30 3163 H 288.959 0.254023 6.77024 0
M  V30 3164 H 289.902 1.77589 6.85469 0
M  V30 3165 H 290.31 0.549532 5.61819 0
M  V30 3166 N 289.708 -1.40897 0.706093 0
M  V30 3167 C 290.671 -2.29131 0.0562841 0
M  V30 3168 C 291.671 -1.44901 -0.697166 0
M  V30 3169 O 292.861 -1.65926 -0.530484 0
M  V30 3170 C 289.993 -3.27957 -0.93043 0
M  V30 3171 H 291.186 -2.88091 0.833284 0
M  V30 3172 H 288.739 -1.4906 0.470192 0
M  V30 3173 H 289.474 -2.73997 -1.73482 0
M  V30 3174 H 289.259 -3.90124 -0.393166 0
M  V30 3175 H 290.749 -3.94049 -1.38256 0
M  V30 3176 N 291.186 -0.45159 -1.50991 0
M  V30 3177 C 292.432 0.110237 -2.025 0
M  V30 3178 C 292.765 1.41109 -1.33424 0
M  V30 3179 O 292.04 1.89135 -0.453659 0
M  V30 3180 C 292.323 0.314271 -3.58726 0
M  V30 3181 C 292.176 -1.00623 -4.38401 0
M  V30 3182 C 293.495 1.07767 -4.26702 0
M  V30 3183 H 290.614 0.0385897 -0.735989 0
M  V30 3184 H 293.256 -0.593374 -1.80497 0
M  V30 3185 H 291.406 0.913601 -3.77605 0
M  V30 3186 H 293.078 -1.64064 -4.31139 0
M  V30 3187 H 291.321 -1.6075 -4.02917 0
M  V30 3188 H 291.992 -0.817341 -5.45915 0
M  V30 3189 H 294.468 0.56986 -4.12179 0
M  V30 3190 H 293.344 1.18921 -5.35863 0
M  V30 3191 H 293.605 2.10939 -3.88532 0
M  V30 3192 N 292.664 1.56529 -0.183458 0
M  V30 3193 C 293.913 1.96419 0.458511 0
M  V30 3194 C 294.226 1.0727 1.63562 0
M  V30 3195 O 295.432 1.36893 2.34462 0
M  V30 3196 C 293.888 3.49298 0.867122 0
M  V30 3197 C 293.496 4.47092 -0.285057 0
M  V30 3198 C 295.24 3.97983 1.47683 0
M  V30 3199 C 293.147 5.91225 0.143862 0
M  V30 3200 H 292.077 0.733394 0.175071 0
M  V30 3201 H 294.728 1.81448 -0.273624 0
M  V30 3202 H 293.11 3.59731 1.65559 0
M  V30 3203 H 294.284 4.48383 -1.0625 0
M  V30 3204 H 292.599 4.08535 -0.805503 0
M  V30 3205 H 295.196 5.03134 1.80999 0
M  V30 3206 H 295.539 3.41618 2.37914 0
M  V30 3207 H 296.072 3.90617 0.752562 0
M  V30 3208 H 292.811 6.5149 -0.723974 0
M  V30 3209 H 292.331 5.93214 0.886413 0
M  V30 3210 H 294.01 6.44362 0.583628 0
M  V30 3211 N 294.142 -0.090211 1.57342 0
M  V30 3212 C 295.105 -1.09335 2.01441 0
M  V30 3213 C 296.105 -1.32666 0.908641 0
M  V30 3214 O 297.295 -1.28697 1.174 0
M  V30 3215 C 294.427 -2.44136 2.3793 0
M  V30 3216 H 295.62 -0.713662 2.91285 0
M  V30 3217 H 293.173 -0.335404 1.52659 0
M  V30 3218 H 293.908 -2.86972 1.51055 0
M  V30 3219 H 293.693 -2.28548 3.18603 0
M  V30 3220 H 295.183 -3.16277 2.72688 0
M  V30 3221 N 295.62 -1.53406 -0.361157 0
M  V30 3222 C 296.868 -1.69467 -1.10115 0
M  V30 3223 C 297.189 -0.451352 -1.89705 0
M  V30 3224 O 296.459 0.534636 -1.88463 0
M  V30 3225 H 295.039 -0.624749 -0.409508 0
M  V30 3226 H 297.701 -1.90609 -0.406699 0
M  V30 3227 H 296.797 -2.55774 -1.78847 0
M  V30 3228 N 297.098 0.621204 -1.44841 0
M  V30 3229 C 298.028 1.74366 -1.55303 0
M  V30 3230 C 299.009 1.65199 -0.405385 0
M  V30 3231 O 300.194 1.83807 -0.626787 0
M  V30 3232 C 297.324 3.12931 -1.50637 0
M  V30 3233 C 296.278 3.36896 -2.63979 0
M  V30 3234 C 295.604 4.75594 -2.44366 0
M  V30 3235 C 296.904 3.28483 -4.06074 0
M  V30 3236 H 298.598 1.65867 -2.49256 0
M  V30 3237 H 296.144 0.796558 -1.19962 0
M  V30 3238 H 298.097 3.9124 -1.56555 0
M  V30 3239 H 296.821 3.22237 -0.532057 0
M  V30 3240 H 295.48 2.60972 -2.57467 0
M  V30 3241 H 295.128 4.81616 -1.45105 0
M  V30 3242 H 294.828 4.92586 -3.20364 0
M  V30 3243 H 296.352 5.5612 -2.52117 0
M  V30 3244 H 297.766 3.96684 -4.13902 0
M  V30 3245 H 296.163 3.57008 -4.82354 0
M  V30 3246 H 297.233 2.26133 -4.28943 0
M  V30 3247 N 298.576 1.31904 0.862503 0
M  V30 3248 C 299.987 1.19803 1.43193 0
M  V30 3249 C 300.338 -0.192567 1.95253 0
M  V30 3250 O 299.463 -1.09081 1.86896 0
M  V30 3251 C 300.058 2.16883 2.60283 0
M  V30 3252 C 298.617 2.08692 3.13248 0
M  V30 3253 C 297.764 2.05691 1.85975 0
M  V30 3254 H 300.715 1.43846 0.670365 0
M  V30 3255 H 300.736 1.76278 3.37204 0
M  V30 3256 H 300.248 3.18083 2.22363 0
M  V30 3257 H 298.349 1.10713 3.55771 0
M  V30 3258 H 298.462 2.9815 3.75025 0
M  V30 3259 H 296.826 1.50814 2.05249 0
M  V30 3260 H 297.609 3.08659 1.50282 0
M  V30 3261 N 300.054 -1.07777 1.14986 0
M  V30 3262 C 301.001 -2.14867 0.842672 0
M  V30 3263 C 301.971 -1.6486 -0.202552 0
M  V30 3264 O 303.156 -1.90668 -0.0710568 0
M  V30 3265 C 300.296 -3.43486 0.333363 0
M  V30 3266 C 299.409 -4.07306 1.43965 0
M  V30 3267 C 298.544 -5.23744 0.886914 0
M  V30 3268 C 297.583 -5.79517 1.97043 0
M  V30 3269 N 296.72 -6.87291 1.4344 0
M  V30 3270 H 301.56 -2.40485 1.75986 0
M  V30 3271 H 299.097 -1.1801 0.878179 0
M  V30 3272 H 301.055 -4.17195 0.0198163 0
M  V30 3273 H 299.685 -3.18133 -0.546916 0
M  V30 3274 H 298.737 -3.31293 1.86946 0
M  V30 3275 H 300.049 -4.44771 2.25788 0
M  V30 3276 H 299.203 -6.04419 0.525651 0
M  V30 3277 H 297.942 -4.87685 0.0377957 0
M  V30 3278 H 296.947 -4.97491 2.34057 0
M  V30 3279 H 298.172 -6.17632 2.82325 0
M  V30 3280 H 296.118 -6.5318 0.607567 0
M  V30 3281 H 296.035 -7.23617 2.18895 0
M  V30 3282 H 297.303 -7.71682 1.10124 0
M  V30 3283 N 301.532 -0.945985 -1.26051 0
M  V30 3284 C 302.495 -0.463897 -2.24456 0
M  V30 3285 C 303.495 0.427655 -1.55009 0
M  V30 3286 O 304.685 0.226157 -1.72726 0
M  V30 3287 C 301.817 0.330812 -3.39291 0
M  V30 3288 H 303.01 -1.33357 -2.68619 0
M  V30 3289 H 300.563 -0.728416 -1.38289 0
M  V30 3290 H 301.298 1.21852 -3.00537 0
M  V30 3291 H 301.083 -0.308679 -3.90883 0
M  V30 3292 H 302.573 0.657865 -4.12386 0
M  V30 3293 N 303.011 1.40521 -0.713556 0
M  V30 3294 C 304.422 1.83853 -0.324807 0
M  V30 3295 C 304.773 1.59667 1.14021 0
M  V30 3296 O 303.898 1.07649 1.87725 0
M  V30 3297 C 304.493 3.33751 -0.582746 0
M  V30 3298 C 303.052 3.75584 -0.247727 0
M  V30 3299 C 302.199 2.63753 -0.856121 0
M  V30 3300 H 305.15 1.29817 -0.91286 0
M  V30 3301 H 305.171 3.80194 0.152682 0
M  V30 3302 H 304.683 3.51322 -1.64908 0
M  V30 3303 H 302.784 3.63608 0.813624 0
M  V30 3304 H 302.897 4.7373 -0.715307 0
M  V30 3305 H 301.261 2.53108 -0.28432 0
M  V30 3306 H 302.044 2.84137 -1.92668 0
M  V30 3307 N 304.489 0.459591 1.5075 0
M  V30 3308 C 305.714 -0.0996819 2.0716 0
M  V30 3309 C 306.139 -1.33761 1.32249 0
M  V30 3310 O 305.497 -1.77551 0.366786 0
M  V30 3311 C 305.545 -0.378226 3.58611 0
M  V30 3312 O 304.649 -1.46081 3.85661 0
M  V30 3313 H 303.99 0.00791392 0.663953 0
M  V30 3314 H 306.52 0.647329 1.9409 0
M  V30 3315 H 306.53 -0.622135 4.03229 0
M  V30 3316 H 305.205 0.526439 4.12555 0
M  V30 3317 H 303.782 -1.20511 3.5289 0
M  V30 3318 N 305.967 -1.56429 0.191757 0
M  V30 3319 C 307.195 -2.01867 -0.453586 0
M  V30 3320 C 307.61 -1.07191 -1.5542 0
M  V30 3321 O 306.967 -0.0762108 -1.82341 0
M  V30 3322 C 307.018 -3.47017 -1.013 0
M  V30 3323 O 306.739 -4.38078 0.0437005 0
M  V30 3324 C 308.24 -4.07956 -1.73456 0
M  V30 3325 H 305.46 -0.661211 -0.114199 0
M  V30 3326 H 308.004 -2.02295 0.299483 0
M  V30 3327 H 306.159 -3.47298 -1.71647 0
M  V30 3328 H 306.573 -5.23178 -0.372212 0
M  V30 3329 H 308.047 -5.1138 -2.07833 0
M  V30 3330 H 308.524 -3.51222 -2.63704 0
M  V30 3331 H 309.13 -4.11437 -1.07702 0
M  V30 3332 N 307.445 0.0818655 -1.57387 0
M  V30 3333 C 308.692 0.782914 -1.86753 0
M  V30 3334 C 309.02 1.78082 -0.782118 0
M  V30 3335 O 308.275 1.94426 0.22295 0
M  V30 3336 C 308.574 1.53513 -3.22752 0
M  V30 3337 C 308.24 0.678134 -4.45771 0
M  V30 3338 C 306.902 0.441929 -4.79166 0
M  V30 3339 C 309.254 0.0832243 -5.21134 0
M  V30 3340 C 306.582 -0.398833 -5.85343 0
M  V30 3341 C 308.934 -0.744935 -6.28199 0
M  V30 3342 C 307.598 -0.991107 -6.60101 0
M  V30 3343 H 306.868 0.286489 -0.683378 0
M  V30 3344 H 309.515 0.0439808 -1.91449 0
M  V30 3345 H 307.82 2.34599 -3.138 0
M  V30 3346 H 309.517 2.08218 -3.42705 0
M  V30 3347 H 306.107 0.872357 -4.19628 0
M  V30 3348 H 310.291 0.252847 -4.95655 0
M  V30 3349 H 305.547 -0.598405 -6.08465 0
M  V30 3350 H 309.721 -1.21271 -6.8576 0
M  V30 3351 H 307.348 -1.64437 -7.42202 0
M  V30 3352 N 308.923 1.53595 0.353017 0
M  V30 3353 C 309.871 1.81605 1.45335 0
M  V30 3354 C 310.865 0.685923 1.54892 0
M  V30 3355 O 312.071 0.869095 1.57628 0
M  V30 3356 H 308.446 0.575204 0.484401 0
M  V30 3357 H 310.417 2.73679 1.18921 0
M  V30 3358 C 309.166 2.03406 2.81995 0
M  V30 3359 H 308.489 2.89814 2.75405 0
M  V30 3360 H 309.929 2.26975 3.58132 0
M  V30 3361 C 308.388 0.816794 3.26849 0
M  V30 3362 O 308.918 0.0115856 4.01698 0
M  V30 3363 N 307.124 0.636682 2.8354 0
M  V30 3364 H 306.671 1.2931 2.22793 0
M  V30 3365 H 306.629 -0.176336 3.13905 0
M  V30 3366 N 310.401 -0.613514 1.45168 0
M  V30 3367 C 311.812 -1.19539 1.43413 0
M  V30 3368 C 312.163 -1.95558 0.158632 0
M  V30 3369 O 311.288 -2.0335 -0.740119 0
M  V30 3370 C 311.883 -2.17445 2.59813 0
M  V30 3371 C 310.442 -2.71022 2.61197 0
M  V30 3372 C 309.589 -1.46323 2.35552 0
M  V30 3373 H 312.54 -0.403163 1.53494 0
M  V30 3374 H 312.561 -3.00373 2.33574 0
M  V30 3375 H 312.073 -1.62089 3.52631 0
M  V30 3376 H 310.174 -3.30332 1.7237 0
M  V30 3377 H 310.287 -3.15859 3.60236 0
M  V30 3378 H 308.651 -1.75072 1.84992 0
M  V30 3379 H 309.434 -0.92844 3.30507 0
M  V30 3380 N 311.879 -1.3236 -0.855495 0
M  V30 3381 C 312.809 -1.23833 -1.97958 0
M  V30 3382 C 313.79 -0.122361 -1.69659 0
M  V30 3383 O 314.975 -0.30939 -1.9172 0
M  V30 3384 C 312.105 -0.959772 -3.33775 0
M  V30 3385 C 311.059 -2.03689 -3.76424 0
M  V30 3386 C 310.385 -1.61075 -5.09862 0
M  V30 3387 C 311.685 -3.4518 -3.9198 0
M  V30 3388 H 313.379 -2.1788 -2.0535 0
M  V30 3389 H 310.925 -1.04891 -0.986605 0
M  V30 3390 H 312.878 -0.886678 -4.11966 0
M  V30 3391 H 311.602 0.0163404 -3.26596 0
M  V30 3392 H 310.261 -2.10012 -3.00484 0
M  V30 3393 H 309.909 -0.622107 -4.99138 0
M  V30 3394 H 309.609 -2.33143 -5.39368 0
M  V30 3395 H 311.133 -1.55201 -5.90546 0
M  V30 3396 H 312.547 -3.4145 -4.60526 0
M  V30 3397 H 310.944 -4.1559 -4.32903 0
M  V30 3398 H 312.014 -3.84903 -2.94919 0
M  V30 3399 N 313.357 1.07166 -1.15556 0
M  V30 3400 C 314.587 1.83248 -0.954133 0
M  V30 3401 C 314.995 1.82449 0.500911 0
M  V30 3402 O 314.338 1.23575 1.35923 0
M  V30 3403 C 314.4 3.31393 -1.39351 0
M  V30 3404 C 314.064 3.5591 -2.86666 0
M  V30 3405 C 315.061 3.49695 -3.8472 0
M  V30 3406 C 312.746 3.83515 -3.24379 0
M  V30 3407 C 314.74 3.70737 -5.18491 0
M  V30 3408 C 312.427 4.04209 -4.58321 0
M  V30 3409 C 313.425 3.97815 -5.55186 0
M  V30 3410 O 313.113 4.17954 -6.86709 0
M  V30 3411 H 312.845 0.584941 -0.338851 0
M  V30 3412 H 315.399 1.36169 -1.53777 0
M  V30 3413 H 313.629 3.79292 -0.75329 0
M  V30 3414 H 315.318 3.88945 -1.16089 0
M  V30 3415 H 316.084 3.28368 -3.56931 0
M  V30 3416 H 311.963 3.87605 -2.49567 0
M  V30 3417 H 315.507 3.65663 -5.94085 0
M  V30 3418 H 311.404 4.25023 -4.85825 0
M  V30 3419 H 312.172 4.35291 -6.93155 0
M  V30 3420 N 314.835 0.952656 1.25548 0
M  V30 3421 C 316.06 0.623025 1.97821 0
M  V30 3422 C 316.485 -0.7976 1.70352 0
M  V30 3423 O 315.843 -1.53905 0.958283 0
M  V30 3424 C 315.891 0.885532 3.49558 0
M  V30 3425 O 314.995 -0.0366641 4.12384 0
M  V30 3426 H 314.336 0.237082 0.620232 0
M  V30 3427 H 316.866 1.27871 1.59719 0
M  V30 3428 H 316.876 0.811009 3.99858 0
M  V30 3429 H 315.551 1.92094 3.6888 0
M  V30 3430 H 314.128 0.0898954 3.72792 0
M  V30 3431 N 316.313 -1.40141 0.720998 0
M  V30 3432 C 317.246 -2.2819 0.020916 0
M  V30 3433 C 318.224 -1.43633 -0.762129 0
M  V30 3434 O 319.408 -1.7304 -0.747633 0
M  V30 3435 C 316.535 -3.24281 -0.977715 0
M  V30 3436 C 315.581 -4.25548 -0.284836 0
M  V30 3437 S 316.414 -5.26247 0.991169 0
M  V30 3438 C 317.57 -6.259 -0.0052214 0
M  V30 3439 H 317.803 -2.87218 0.767649 0
M  V30 3440 H 315.336 -1.45656 0.512233 0
M  V30 3441 H 317.294 -3.80167 -1.54865 0
M  V30 3442 H 315.955 -2.643 -1.69719 0
M  V30 3443 H 315.148 -4.93154 -1.03996 0
M  V30 3444 H 314.75 -3.73389 0.213684 0
M  V30 3445 H 317.042 -6.72143 -0.850279 0
M  V30 3446 H 317.985 -7.05224 0.637599 0
M  V30 3447 H 318.393 -5.63277 -0.371366 0
M  V30 3448 N 317.792 -0.46758 -1.50504 0
M  V30 3449 C 319.069 0.15003 -1.95024 0
M  V30 3450 C 319.449 1.57304 -1.40779 0
M  V30 3451 O 318.797 2.20281 -0.607319 0
M  V30 3452 C 319.007 0.0969324 -3.48865 0
M  V30 3453 C 320.355 0.287565 -4.23625 0
M  V30 3454 O 321.379 0.173678 -3.55776 0
M  V30 3455 O 320.238 0.517186 -5.44047 0
M  V30 3456 H 317.332 0.113582 -0.819163 0
M  V30 3457 H 319.878 -0.52773 -1.61286 0
M  V30 3458 H 318.65 -0.896732 -3.80886 0
M  V30 3459 H 318.273 0.816303 -3.8913 0
M  V30 3460 N 319.27 1.56325 -0.20005 0
M  V30 3461 C 320.686 1.58839 0.155716 0
M  V30 3462 C 320.886 1.21636 1.60645 0
M  V30 3463 O 319.942 0.941437 2.34293 0
M  V30 3464 C 321.255 3.0032 -0.151124 0
M  V30 3465 C 322.803 3.12866 -0.0916284 0
M  V30 3466 C 323.278 4.56488 -0.371845 0
M  V30 3467 N 324.769 4.62089 -0.320641 0
M  V30 3468 C 325.504 5.71116 -0.511243 0
M  V30 3469 N 325 6.88592 -0.762461 0
M  V30 3470 N 326.793 5.60335 -0.445157 0
M  V30 3471 H 318.944 1.78788 -1.14668 0
M  V30 3472 H 321.207 0.829996 -0.458051 0
M  V30 3473 H 320.913 3.32117 -1.15721 0
M  V30 3474 H 320.787 3.73257 0.543986 0
M  V30 3475 H 323.174 2.80878 0.905065 0
M  V30 3476 H 323.255 2.42304 -0.81989 0
M  V30 3477 H 322.899 4.89189 -1.36588 0
M  V30 3478 H 322.829 5.25246 0.377362 0
M  V30 3479 H 325.32 3.77665 -0.13329 0
M  V30 3480 H 325.633 7.67581 -0.896576 0
M  V30 3481 H 323.978 6.90387 -0.799412 0
M  V30 3482 H 327.169 4.67436 -0.249278 0
M  V30 3483 H 327.342 6.45243 -0.597116 0
M  V30 3484 N 320.748 -0.0735177 1.57428 0
M  V30 3485 C 321.711 -1.07192 2.02589 0
M  V30 3486 C 322.711 -1.31695 0.922661 0
M  V30 3487 O 323.901 -1.27445 1.18758 0
M  V30 3488 C 321.033 -2.41599 2.40506 0
M  V30 3489 H 322.226 -0.682727 2.92025 0
M  V30 3490 H 319.779 -0.319193 1.53006 0
M  V30 3491 H 320.514 -2.85354 1.5409 0
M  V30 3492 H 320.299 -2.25156 3.21009 0
M  V30 3493 H 321.789 -3.13367 2.76027 0
M  V30 3494 N 322.226 -1.5378 -0.344866 0
M  V30 3495 C 323.472 -1.71216 -1.08687 0
M  V30 3496 C 323.805 -0.473281 -1.88345 0
M  V30 3497 O 323.08 0.52968 -1.87149 0
M  V30 3498 C 323.363 -2.97486 -2.02914 0
M  V30 3499 C 323.216 -4.31579 -1.26727 0
M  V30 3500 C 324.535 -3.19422 -3.0275 0
M  V30 3501 H 321.654 -0.62301 -0.393735 0
M  V30 3502 H 324.296 -1.8645 -0.365563 0
M  V30 3503 H 322.446 -2.84629 -2.64421 0
M  V30 3504 H 324.118 -4.56284 -0.67845 0
M  V30 3505 H 322.361 -4.30049 -0.569273 0
M  V30 3506 H 323.032 -5.16106 -1.95803 0
M  V30 3507 H 325.508 -3.316 -2.51357 0
M  V30 3508 H 324.384 -4.09169 -3.65885 0
M  V30 3509 H 324.645 -2.35656 -3.74057 0
M  V30 3510 N 323.704 0.605807 -1.45491 0
M  V30 3511 C 324.667 1.69836 -1.5391 0
M  V30 3512 C 325.667 1.55261 -0.418424 0
M  V30 3513 O 326.857 1.60296 -0.681965 0
M  V30 3514 C 323.989 3.09117 -1.43734 0
M  V30 3515 H 325.182 1.63738 -2.51257 0
M  V30 3516 H 322.735 0.821689 -1.32959 0
M  V30 3517 H 323.47 3.20791 -0.475788 0
M  V30 3518 H 323.255 3.21104 -2.25021 0
M  V30 3519 H 324.745 3.88696 -1.52661 0
M  V30 3520 N 325.182 1.32811 0.848464 0
M  V30 3521 C 326.598 1.11937 1.13764 0
M  V30 3522 C 326.798 -0.0960789 2.01271 0
M  V30 3523 O 325.854 -0.779165 2.40178 0
M  V30 3524 C 327.167 2.402 1.809 0
M  V30 3525 C 328.715 2.46016 1.93508 0
M  V30 3526 C 329.19 3.74215 2.64059 0
M  V30 3527 N 330.681 3.75232 2.71579 0
M  V30 3528 C 331.416 4.71134 3.26833 0
M  V30 3529 N 330.912 5.77406 3.8285 0
M  V30 3530 N 332.705 4.58623 3.24995 0
M  V30 3531 H 324.856 2.1073 0.265855 0
M  V30 3532 H 327.119 0.930671 0.180431 0
M  V30 3533 H 326.825 3.29093 1.24058 0
M  V30 3534 H 326.699 2.51628 2.81004 0
M  V30 3535 H 329.086 1.57577 2.49506 0
M  V30 3536 H 329.167 2.38536 0.923811 0
M  V30 3537 H 328.811 4.63031 2.08722 0
M  V30 3538 H 328.741 3.78968 3.65637 0
M  V30 3539 H 331.232 2.98423 2.31845 0
M  V30 3540 H 331.545 6.46632 4.23187 0
M  V30 3541 H 329.89 5.81152 3.81165 0
M  V30 3542 H 333.081 3.74762 2.80484 0
M  V30 3543 H 333.254 5.33535 3.67756 0
M  V30 3544 N 326.66 -1.06551 1.16123 0
M  V30 3545 C 328.076 -1.3142 0.905585 0
M  V30 3546 C 328.276 -1.96571 -0.442964 0
M  V30 3547 O 327.332 -2.23068 -1.18308 0
M  V30 3548 C 328.645 -2.19741 2.05267 0
M  V30 3549 C 330.193 -2.33165 2.08813 0
M  V30 3550 C 330.668 -3.24838 3.22868 0
M  V30 3551 N 332.159 -3.32421 3.22568 0
M  V30 3552 C 332.894 -4.0344 4.0746 0
M  V30 3553 N 332.39 -4.77003 5.02434 0
M  V30 3554 N 334.183 -3.99464 3.95456 0
M  V30 3555 H 326.334 -0.626548 2.02949 0
M  V30 3556 H 328.597 -0.338777 0.8854 0
M  V30 3557 H 328.303 -1.79142 3.02657 0
M  V30 3558 H 328.177 -3.20313 1.99198 0
M  V30 3559 H 330.564 -2.73013 1.12018 0
M  V30 3560 H 330.645 -1.3227 2.18948 0
M  V30 3561 H 330.289 -2.85708 4.19921 0
M  V30 3562 H 330.219 -4.25707 3.0997 0
M  V30 3563 H 332.71 -2.79994 2.53795 0
M  V30 3564 H 333.023 -5.28712 5.63634 0
M  V30 3565 H 331.368 -4.75992 5.06415 0
M  V30 3566 H 334.559 -3.4111 3.20564 0
M  V30 3567 H 334.732 -4.54544 4.61837 0
M  V30 3568 N 328.138 -0.959301 -1.25041 0
M  V30 3569 C 329.086 -0.474437 -2.2771 0
M  V30 3570 C 330.08 0.457697 -1.631 0
M  V30 3571 O 331.286 0.333912 -1.76876 0
M  V30 3572 H 327.661 -0.134936 -0.739795 0
M  V30 3573 H 329.632 -1.35251 -2.65988 0
M  V30 3574 C 328.381 0.227884 -3.46952 0
M  V30 3575 H 327.704 -0.480248 -3.96905 0
M  V30 3576 H 329.144 0.531091 -4.20661 0
M  V30 3577 C 327.603 1.452 -3.04004 0
M  V30 3578 O 328.133 2.54949 -3.10426 0
M  V30 3579 N 326.339 1.31502 -2.59144 0
M  V30 3580 H 325.886 0.422065 -2.54119 0
M  V30 3581 H 325.844 2.13521 -2.30773 0
M  V30 3582 N 329.616 1.39756 -0.72842 0
M  V30 3583 C 330.862 2.00942 -0.273892 0
M  V30 3584 C 331.195 1.57656 1.13394 0
M  V30 3585 O 330.47 0.802434 1.77176 0
M  V30 3586 C 330.753 3.58211 -0.368346 0
M  V30 3587 C 330.606 4.11534 -1.81548 0
M  V30 3588 C 331.925 4.39372 0.253054 0
M  V30 3589 H 329.044 0.730047 -0.100996 0
M  V30 3590 H 331.686 1.66056 -0.923337 0
M  V30 3591 H 329.836 3.88061 0.184588 0
M  V30 3592 H 331.508 3.92431 -2.42478 0
M  V30 3593 H 329.751 3.65341 -2.33898 0
M  V30 3594 H 330.422 5.20682 -1.83288 0
M  V30 3595 H 332.898 4.15527 -0.218224 0
M  V30 3596 H 331.774 5.48677 0.156585 0
M  V30 3597 H 332.035 4.21358 1.33826 0
M  V30 3598 N 331.094 0.475555 1.50254 0
M  V30 3599 C 332.34 -0.0780073 2.0265 0
M  V30 3600 C 332.673 -1.38968 1.35652 0
M  V30 3601 O 331.948 -1.8839 0.483691 0
M  V30 3602 C 332.231 -0.257161 3.59181 0
M  V30 3603 C 332.084 1.07585 4.36744 0
M  V30 3604 C 333.403 -1.00965 4.28362 0
M  V30 3605 H 330.522 -0.0268758 0.73651 0
M  V30 3606 H 333.164 0.622015 1.7953 0
M  V30 3607 H 331.314 -0.853412 3.79011 0
M  V30 3608 H 332.986 1.70902 4.28474 0
M  V30 3609 H 331.229 1.6714 4.00308 0
M  V30 3610 H 331.9 0.904088 5.44546 0
M  V30 3611 H 334.376 -0.504214 4.13034 0
M  V30 3612 H 333.252 -1.10381 5.37687 0
M  V30 3613 H 333.513 -2.04731 3.91839 0
M  V30 3614 N 332.573 -1.56217 0.208337 0
M  V30 3615 C 333.503 -2.22694 -0.702116 0
M  V30 3616 C 334.484 -1.19432 -1.2112 0
M  V30 3617 O 335.669 -1.47978 -1.25762 0
M  V30 3618 C 332.799 -2.8966 -1.9161 0
M  V30 3619 C 331.753 -3.9928 -1.5414 0
M  V30 3620 C 331.079 -4.53476 -2.83308 0
M  V30 3621 C 332.379 -5.17012 -0.741339 0
M  V30 3622 H 334.073 -2.99034 -0.147898 0
M  V30 3623 H 331.619 -1.43831 -0.0696951 0
M  V30 3624 H 333.572 -3.34852 -2.55836 0
M  V30 3625 H 332.296 -2.10746 -2.49507 0
M  V30 3626 H 330.955 -3.54799 -0.922668 0
M  V30 3627 H 330.603 -3.71308 -3.39322 0
M  V30 3628 H 330.303 -5.27451 -2.58976 0
M  V30 3629 H 331.827 -5.01378 -3.485 0
M  V30 3630 H 333.241 -5.58667 -1.28699 0
M  V30 3631 H 331.638 -5.97137 -0.595627 0
M  V30 3632 H 332.708 -4.8423 0.254851 0
M  V30 3633 N 334.051 0.0651679 -1.57465 0
M  V30 3634 C 335.276 0.779605 -1.9219 0
M  V30 3635 C 335.701 1.69988 -0.805333 0
M  V30 3636 O 335.059 1.79685 0.241435 0
M  V30 3637 C 335.107 1.54364 -3.2589 0
M  V30 3638 O 334.211 2.65474 -3.1559 0
M  V30 3639 H 333.552 0.212249 -0.629163 0
M  V30 3640 H 336.082 0.0314294 -2.04576 0
M  V30 3641 H 336.092 1.92146 -3.59922 0
M  V30 3642 H 334.767 0.868457 -4.06732 0
M  V30 3643 H 333.344 2.30501 -2.93128 0
M  V30 3644 N 335.529 1.53961 0.336706 0
M  V30 3645 C 336.945 1.44378 0.680241 0
M  V30 3646 C 337.145 0.606034 1.9217 0
M  V30 3647 O 336.201 0.099688 2.52303 0
M  V30 3648 C 337.514 2.87945 0.8665 0
M  V30 3649 C 339.062 2.97763 0.964682 0
M  V30 3650 C 339.537 4.42453 1.18321 0
M  V30 3651 N 341.028 4.46008 1.25025 0
M  V30 3652 C 341.763 5.55102 1.43697 0
M  V30 3653 N 341.259 6.7419 1.59498 0
M  V30 3654 N 343.052 5.42727 1.463 0
M  V30 3655 H 335.203 2.06918 -0.479455 0
M  V30 3656 H 337.466 0.935634 -0.152619 0
M  V30 3657 H 337.172 3.51691 0.0256937 0
M  V30 3658 H 337.046 3.33293 1.76623 0
M  V30 3659 H 339.433 2.34153 1.796 0
M  V30 3660 H 339.514 2.55766 0.041708 0
M  V30 3661 H 339.158 5.06645 0.356788 0
M  V30 3662 H 339.088 4.82048 2.11985 0
M  V30 3663 H 341.579 3.60196 1.14312 0
M  V30 3664 H 341.892 7.53095 1.734 0
M  V30 3665 H 340.237 6.77123 1.56621 0
M  V30 3666 H 343.428 4.48647 1.33543 0
M  V30 3667 H 343.601 6.27806 1.6051 0
M  V30 3668 N 337.007 -0.598083 1.45811 0
M  V30 3669 C 337.94 -1.7223 1.49706 0
M  V30 3670 C 338.918 -1.58732 0.352535 0
M  V30 3671 O 340.102 -1.80162 0.554438 0
M  V30 3672 C 337.229 -3.10148 1.3611 0
M  V30 3673 C 336.275 -3.42209 2.54549 0
M  V30 3674 S 337.108 -3.35989 4.16979 0
M  V30 3675 C 338.264 -4.76471 4.05865 0
M  V30 3676 H 338.497 -1.68665 2.44826 0
M  V30 3677 H 336.03 -0.775541 1.33509 0
M  V30 3678 H 337.988 -3.8972 1.28953 0
M  V30 3679 H 336.649 -3.11219 0.424451 0
M  V30 3680 H 335.842 -4.42652 2.40988 0
M  V30 3681 H 335.444 -2.70173 2.58617 0
M  V30 3682 H 337.736 -5.665 3.71596 0
M  V30 3683 H 338.679 -4.95089 5.06253 0
M  V30 3684 H 339.087 -4.52599 3.37364 0
M  V30 3685 N 338.485 -1.33259 -0.841409 0
M  V30 3686 C 339.415 -1.25926 -1.96634 0
M  V30 3687 C 340.396 -0.140349 -1.6952 0
M  V30 3688 O 341.581 -0.329707 -1.91381 0
M  V30 3689 C 338.711 -0.99512 -3.32738 0
M  V30 3690 C 337.665 -2.0767 -3.74242 0
M  V30 3691 C 336.991 -1.66474 -5.08125 0
M  V30 3692 C 338.291 -3.49318 -3.88297 0
M  V30 3693 H 339.985 -2.20046 -2.03027 0
M  V30 3694 H 337.531 -1.05931 -0.975425 0
M  V30 3695 H 339.484 -0.930323 -4.11002 0
M  V30 3696 H 338.208 -0.0183004 -3.26595 0
M  V30 3697 H 336.867 -2.13187 -2.98239 0
M  V30 3698 H 336.515 -0.675012 -4.9845 0
M  V30 3699 H 336.215 -2.3885 -5.36865 0
M  V30 3700 H 337.739 -1.61455 -5.88867 0
M  V30 3701 H 339.153 -3.46316 -4.56879 0
M  V30 3702 H 337.55 -4.20158 -4.28471 0
M  V30 3703 H 338.62 -3.8801 -2.9082 0
M  V30 3704 N 339.963 1.05934 -1.16686 0
M  V30 3705 C 341.24 1.75643 -0.860747 0
M  V30 3706 C 341.62 2.01144 0.640641 0
M  V30 3707 O 340.968 1.64147 1.58959 0
M  V30 3708 C 341.178 3.05493 -1.68745 0
M  V30 3709 C 342.526 3.79581 -1.90271 0
M  V30 3710 O 343.55 3.15344 -1.65641 0
M  V30 3711 O 342.409 4.9499 -2.31618 0
M  V30 3712 H 339.503 0.763426 -0.317977 0
M  V30 3713 H 342.049 1.1217 -1.27342 0
M  V30 3714 H 340.821 2.8264 -2.70611 0
M  V30 3715 H 340.444 3.76702 -1.27206 0
M  V30 3716 N 341.441 0.965919 1.2453 0
M  V30 3717 C 342.351 0.502154 2.29163 0
M  V30 3718 C 343.367 -0.436017 1.68448 0
M  V30 3719 O 344.543 -0.309497 1.99008 0
M  V30 3720 C 341.608 -0.201956 3.46111 0
M  V30 3721 C 340.669 0.775821 4.22232 0
M  V30 3722 C 339.902 0.105217 5.33596 0
M  V30 3723 O 340.125 -1.10683 5.59558 0
M  V30 3724 O 339.059 0.796475 5.96607 0
M  V30 3725 H 342.885 1.37194 2.70946 0
M  V30 3726 H 340.47 0.732875 1.30189 0
M  V30 3727 H 342.352 -0.597564 4.17142 0
M  V30 3728 H 341.027 -1.04673 3.06309 0
M  V30 3729 H 339.934 1.22185 3.53584 0
M  V30 3730 H 341.267 1.58896 4.65846 0
M  V30 3731 N 342.919 -1.39368 0.735821 0
M  V30 3732 C 344.167 -2.00101 0.283562 0
M  V30 3733 C 344.488 -1.5868 -1.13338 0
M  V30 3734 O 343.758 -0.835423 -1.77193 0
M  V30 3735 H 342.338 -0.740024 0.101851 0
M  V30 3736 H 345 -1.70404 0.945962 0
M  V30 3737 H 344.096 -3.10323 0.332604 0
M  V30 3738 N 344.397 -0.483516 -1.5 0
M  V30 3739 C 345.627 0.0643896 -2.065 0
M  V30 3740 C 346.035 1.32949 -1.34615 0
M  V30 3741 O 345.378 1.79003 -0.412756 0
M  V30 3742 C 345.44 0.405983 -3.572 0
M  V30 3743 C 345.104 -0.758875 -4.50655 0
M  V30 3744 C 346.101 -1.64445 -4.93208 0
M  V30 3745 C 343.786 -0.952725 -4.93182 0
M  V30 3746 C 345.78 -2.70818 -5.77006 0
M  V30 3747 C 343.467 -2.01966 -5.76761 0
M  V30 3748 C 344.465 -2.89574 -6.18576 0
M  V30 3749 O 344.153 -3.94429 -7.00486 0
M  V30 3750 H 343.885 -0.00934786 -0.675935 0
M  V30 3751 H 346.439 -0.674959 -1.93993 0
M  V30 3752 H 344.669 1.19869 -3.67652 0
M  V30 3753 H 346.358 0.890433 -3.96013 0
M  V30 3754 H 347.124 -1.50643 -4.61012 0
M  V30 3755 H 343.003 -0.280247 -4.60147 0
M  V30 3756 H 346.547 -3.3923 -6.09565 0
M  V30 3757 H 342.444 -2.1577 -6.0837 0
M  V30 3758 H 343.212 -3.91568 -7.1876 0
M  V30 3759 N 345.875 1.56104 -0.216619 0
M  V30 3760 C 347.124 1.97348 0.416744 0
M  V30 3761 C 347.437 1.10715 1.6125 0
M  V30 3762 O 348.643 1.41836 2.31506 0
M  V30 3763 C 347.099 3.51059 0.792835 0
M  V30 3764 C 346.707 4.46387 -0.379828 0
M  V30 3765 C 348.451 4.01026 1.39208 0
M  V30 3766 C 346.358 5.91397 0.0184223 0
M  V30 3767 H 345.288 0.736942 0.159475 0
M  V30 3768 H 347.939 1.80827 -0.31205 0
M  V30 3769 H 346.321 3.63162 1.57891 0
M  V30 3770 H 347.495 4.46029 -1.15737 0
M  V30 3771 H 345.81 4.06734 -0.891979 0
M  V30 3772 H 348.407 5.0686 1.70286 0
M  V30 3773 H 348.75 3.46587 2.30614 0
M  V30 3774 H 349.283 3.92125 0.669537 0
M  V30 3775 H 346.022 6.49807 -0.862002 0
M  V30 3776 H 345.542 5.94961 0.760384 0
M  V30 3777 H 347.221 6.45455 0.446818 0
M  V30 3778 N 347.353 -0.0568162 1.57498 0
M  V30 3779 C 348.581 -0.765626 1.92213 0
M  V30 3780 C 348.996 -1.70353 0.813961 0
M  V30 3781 O 348.353 -1.81268 -0.211701 0
M  V30 3782 C 348.404 -1.5465 3.2675 0
M  V30 3783 O 348.125 -0.646278 4.33307 0
M  V30 3784 C 349.626 -2.35497 3.75574 0
M  V30 3785 H 346.846 -0.216835 0.634999 0
M  V30 3786 H 349.39 -0.0226146 2.04487 0
M  V30 3787 H 347.545 -2.24165 3.15957 0
M  V30 3788 H 347.959 -1.19093 5.108 0
M  V30 3789 H 349.433 -2.85722 4.72299 0
M  V30 3790 H 349.91 -3.15692 3.05344 0
M  V30 3791 H 350.516 -1.7111 3.8936 0
M  V30 3792 N 348.832 -1.54138 -0.328536 0
M  V30 3793 C 349.764 -1.79509 -1.4251 0
M  V30 3794 C 350.777 -0.67688 -1.48061 0
M  V30 3795 O 351.966 -0.953898 -1.50874 0
M  V30 3796 C 349.066 -1.89337 -2.81078 0
M  V30 3797 C 348.239 -3.19443 -2.98789 0
M  V30 3798 C 347.298 -3.20036 -4.17688 0
M  V30 3799 O 346.324 -3.93697 -4.11086 0
M  V30 3800 N 347.526 -2.43467 -5.26976 0
M  V30 3801 H 350.291 -2.74139 -1.21111 0
M  V30 3802 H 347.852 -1.53373 -0.518499 0
M  V30 3803 H 349.844 -1.87167 -3.58818 0
M  V30 3804 H 348.414 -1.01826 -2.95551 0
M  V30 3805 H 347.634 -3.34614 -2.08391 0
M  V30 3806 H 348.922 -4.05354 -3.07515 0
M  V30 3807 H 348.32 -1.83201 -5.35214 0
M  V30 3808 H 346.877 -2.4708 -6.03154 0
M  V30 3809 N 350.31 0.590341 -1.46126 0
M  V30 3810 C 351.242 1.71427 -1.52136 0
M  V30 3811 C 352.255 1.57542 -0.41042 0
M  V30 3812 O 353.444 1.65106 -0.678389 0
M  V30 3813 C 350.544 3.09605 -1.37834 0
M  V30 3814 C 349.717 3.49566 -2.62912 0
M  V30 3815 C 348.776 4.66773 -2.42918 0
M  V30 3816 O 347.802 4.73019 -3.1661 0
M  V30 3817 N 349.004 5.61161 -1.4859 0
M  V30 3818 H 351.769 1.66728 -2.49042 0
M  V30 3819 H 349.33 0.776113 -1.42085 0
M  V30 3820 H 351.322 3.85796 -1.22243 0
M  V30 3821 H 349.892 3.08714 -0.491393 0
M  V30 3822 H 349.112 2.63158 -2.93499 0
M  V30 3823 H 350.4 3.73028 -3.46017 0
M  V30 3824 H 349.798 5.58844 -0.87808 0
M  V30 3825 H 348.355 6.36814 -1.38965 0
M  V30 3826 N 351.788 1.33704 0.83433 0
M  V30 3827 C 352.72 1.20172 1.9517 0
M  V30 3828 C 353.733 0.131572 1.62267 0
M  V30 3829 O 354.922 0.382406 1.74356 0
M  V30 3830 C 352.022 0.821716 3.28787 0
M  V30 3831 C 351.195 1.98446 3.89792 0
M  V30 3832 C 350.254 1.58469 5.01771 0
M  V30 3833 O 349.28 2.29968 5.20676 0
M  V30 3834 N 350.482 0.492291 5.78409 0
M  V30 3835 H 353.247 2.16429 2.07313 0
M  V30 3836 H 350.808 1.26509 1.0103 0
M  V30 3837 H 352.8 0.536291 4.01131 0
M  V30 3838 H 351.37 -0.0503058 3.1256 0
M  V30 3839 H 350.59 2.43526 3.09982 0
M  V30 3840 H 351.878 2.76236 4.27283 0
M  V30 3841 H 351.276 -0.102349 5.65607 0
M  V30 3842 H 349.833 0.266555 6.51255 0
M  V30 3843 N 353.266 -1.05314 1.17247 0
M  V30 3844 C 354.513 -1.78293 0.960091 0
M  V30 3845 C 354.841 -1.87658 -0.51136 0
M  V30 3846 O 354.096 -1.3718 -1.39571 0
M  V30 3847 C 354.395 -3.2229 1.54479 0
M  V30 3848 C 354.061 -3.32987 3.04024 0
M  V30 3849 C 352.723 -3.35613 3.44844 0
M  V30 3850 C 355.075 -3.34102 4.00031 0
M  V30 3851 C 352.403 -3.36982 4.8027 0
M  V30 3852 C 354.755 -3.3701 5.35357 0
M  V30 3853 C 353.419 -3.37923 5.75642 0
M  V30 3854 H 352.689 -0.652422 0.351322 0
M  V30 3855 H 355.336 -1.23782 1.46117 0
M  V30 3856 H 353.641 -3.7972 0.965391 0
M  V30 3857 H 355.338 -3.77376 1.35603 0
M  V30 3858 H 351.928 -3.31655 2.71483 0
M  V30 3859 H 356.112 -3.31276 3.69554 0
M  V30 3860 H 351.368 -3.35999 5.10798 0
M  V30 3861 H 355.542 -3.36822 6.09528 0
M  V30 3862 H 353.169 -3.38738 6.80559 0
M  V30 3863 N 354.744 -0.972509 -1.24016 0
M  V30 3864 C 356.021 -0.553733 -1.87598 0
M  V30 3865 C 356.401 0.969158 -1.87538 0
M  V30 3866 O 355.749 1.84255 -1.35139 0
M  V30 3867 C 355.959 -1.15076 -3.29482 0
M  V30 3868 C 357.307 -1.23862 -4.06132 0
M  V30 3869 O 358.331 -1.10363 -3.38672 0
M  V30 3870 O 357.19 -1.45252 -5.26844 0
M  V30 3871 H 354.284 -0.185331 -0.805966 0
M  V30 3872 H 356.83 -1.06709 -1.31952 0
M  V30 3873 H 355.602 -2.19333 -3.2405 0
M  V30 3874 H 355.225 -0.621746 -3.92709 0
M  V30 3875 N 356.222 1.38976 -0.743202 0
M  V30 3876 C 357.154 2.29096 -0.0689228 0
M  V30 3877 C 358.167 1.47229 0.694791 0
M  V30 3878 O 359.356 1.70212 0.537597 0
M  V30 3879 C 356.456 3.25988 0.926548 0
M  V30 3880 C 355.629 4.36833 0.222647 0
M  V30 3881 C 354.688 5.13981 1.12739 0
M  V30 3882 O 353.714 5.6601 0.601795 0
M  V30 3883 N 354.916 5.25966 2.45641 0
M  V30 3884 H 357.681 2.87604 -0.842846 0
M  V30 3885 H 355.242 1.50645 -0.593109 0
M  V30 3886 H 357.234 3.74476 1.5346 0
M  V30 3887 H 355.804 2.68453 1.60162 0
M  V30 3888 H 355.024 3.90116 -0.565983 0
M  V30 3889 H 356.312 5.0811 -0.264841 0
M  V30 3890 H 355.71 4.85228 2.9081 0
M  V30 3891 H 354.267 5.77865 3.01522 0
M  V30 3892 N 357.7 0.491464 1.49741 0
M  V30 3893 C 358.928 -0.0535151 2.06831 0
M  V30 3894 C 359.343 -1.31683 1.35296 0
M  V30 3895 O 358.7 -1.77402 0.42836 0
M  V30 3896 C 358.751 -0.320835 3.60073 0
M  V30 3897 O 358.472 0.892394 4.28915 0
M  V30 3898 C 359.973 -0.910519 4.33848 0
M  V30 3899 H 357.193 0.0161909 0.670805 0
M  V30 3900 H 359.737 0.68609 1.92647 0
M  V30 3901 H 357.892 -1.0104 3.73991 0
M  V30 3902 H 358.306 0.649401 5.20464 0
M  V30 3903 H 359.78 -1.04721 5.41976 0
M  V30 3904 H 360.257 -1.90589 3.95692 0
M  V30 3905 H 360.863 -0.258712 4.24512 0
M  V30 3906 N 359.178 -1.55987 0.224894 0
M  V30 3907 C 360.594 -1.59066 -0.130426 0
M  V30 3908 C 360.794 -1.24176 -1.5869 0
M  V30 3909 O 359.85 -0.978592 -2.32766 0
M  V30 3910 C 361.163 -3.00042 0.198883 0
M  V30 3911 C 362.711 -3.1268 0.141391 0
M  V30 3912 C 363.186 -4.55839 0.444422 0
M  V30 3913 N 364.677 -4.6152 0.394115 0
M  V30 3914 C 365.412 -5.70231 0.602038 0
M  V30 3915 N 364.908 -6.87291 0.871914 0
M  V30 3916 N 366.701 -5.59555 0.534245 0
M  V30 3917 H 358.852 -1.76941 1.17497 0
M  V30 3918 H 361.115 -0.822604 0.471197 0
M  V30 3919 H 360.821 -3.30234 1.2099 0
M  V30 3920 H 360.695 -3.74075 -0.484535 0
M  V30 3921 H 363.082 -2.82283 -0.860265 0
M  V30 3922 H 363.163 -2.40969 0.858335 0
M  V30 3923 H 362.807 -4.86954 1.44353 0
M  V30 3924 H 362.737 -5.2578 -0.293752 0
M  V30 3925 H 365.228 -3.77405 0.193356 0
M  V30 3926 H 365.541 -7.66058 1.01858 0
M  V30 3927 H 363.886 -6.89028 0.909145 0
M  V30 3928 H 367.077 -4.6698 0.323612 0
M  V30 3929 H 367.25 -6.44211 0.699693 0
M  V30 3930 N 360.656 0.0484629 -1.57525 0
M  V30 3931 C 361.884 0.755421 -1.92616 0
M  V30 3932 C 362.299 1.69919 -0.822984 0
M  V30 3933 O 361.656 1.81378 0.202085 0
M  V30 3934 C 361.707 1.52915 -3.27566 0
M  V30 3935 O 361.428 0.62329 -4.33644 0
M  V30 3936 C 362.929 2.33502 -3.76818 0
M  V30 3937 H 360.149 0.213465 -0.63614 0
M  V30 3938 H 362.693 0.0117698 -2.04497 0
M  V30 3939 H 360.848 2.22486 -3.17142 0
M  V30 3940 H 361.262 1.16383 -5.11425 0
M  V30 3941 H 362.736 2.83214 -4.73808 0
M  V30 3942 H 363.213 3.14068 -3.07014 0
M  V30 3943 H 363.819 1.69043 -3.90262 0
M  V30 3944 N 362.134 1.5431 0.320358 0
M  V30 3945 C 363.044 1.86946 1.41734 0
M  V30 3946 C 364.06 0.761689 1.56443 0
M  V30 3947 O 365.236 1.05629 1.71477 0
M  V30 3948 C 362.301 2.09293 2.76401 0
M  V30 3949 C 361.362 3.33082 2.70841 0
M  V30 3950 C 360.595 3.54353 3.99086 0
M  V30 3951 O 360.818 2.79002 4.97508 0
M  V30 3952 O 359.752 4.47838 4.0215 0
M  V30 3953 H 363.578 2.80232 1.17062 0
M  V30 3954 H 361.163 1.40255 0.514673 0
M  V30 3955 H 363.045 2.25303 3.56113 0
M  V30 3956 H 361.72 1.19194 3.00956 0
M  V30 3957 H 360.627 3.22454 1.89668 0
M  V30 3958 H 361.96 4.23249 2.5124 0
M  V30 3959 N 363.613 -0.582584 1.46437 0
M  V30 3960 C 364.576 -1.67366 1.56592 0
M  V30 3961 C 365.576 -1.54575 0.443072 0
M  V30 3962 O 366.766 -1.59191 0.707381 0
M  V30 3963 C 363.898 -3.06791 1.48634 0
M  V30 3964 H 365.091 -1.5972 2.5383 0
M  V30 3965 H 362.644 -0.800432 1.34249 0
M  V30 3966 H 363.379 -3.19993 0.526763 0
M  V30 3967 H 363.164 -3.17484 2.30101 0
M  V30 3968 H 364.654 -3.86218 1.58826 0
M  V30 3969 N 365.091 -1.34144 -0.827227 0
M  V30 3970 C 366.34 -1.25602 -1.5782 0
M  V30 3971 C 366.653 0.173445 -1.94829 0
M  V30 3972 O 367.859 0.380984 -2.68814 0
M  V30 3973 C 366.315 -2.20151 -2.84713 0
M  V30 3974 C 365.923 -3.68331 -2.55021 0
M  V30 3975 C 367.667 -2.20508 -3.62735 0
M  V30 3976 C 365.574 -4.54762 -3.78082 0
M  V30 3977 H 364.504 -0.466573 -0.592306 0
M  V30 3978 H 367.155 -1.59283 -0.911116 0
M  V30 3979 H 365.537 -1.79417 -3.53023 0
M  V30 3980 H 366.711 -4.17577 -1.94849 0
M  V30 3981 H 365.026 -3.7038 -1.90283 0
M  V30 3982 H 367.623 -2.82306 -4.54101 0
M  V30 3983 H 367.966 -1.20322 -3.98533 0
M  V30 3984 H 368.499 -2.59664 -3.01362 0
M  V30 3985 H 365.238 -5.55867 -3.47407 0
M  V30 3986 H 364.758 -4.10254 -4.37552 0
M  V30 3987 H 366.437 -4.69153 -4.45538 0
M  V30 3988 N 366.569 1.04691 -1.17803 0
M  V30 3989 C 367.517 2.14665 -0.895635 0
M  V30 3990 C 368.511 1.68806 0.141679 0
M  V30 3991 O 369.717 1.79999 -0.00587914 0
M  V30 3992 H 366.092 0.701038 -0.272121 0
M  V30 3993 H 368.063 2.35685 -1.83017 0
M  V30 3994 C 366.812 3.45019 -0.430962 0
M  V30 3995 H 366.135 3.8071 -1.22064 0
M  V30 3996 H 367.575 4.23125 -0.272301 0
M  V30 3997 C 366.034 3.25943 0.852207 0
M  V30 3998 O 366.564 3.5296 1.91786 0
M  V30 3999 N 364.77 2.79304 0.802346 0
M  V30 4000 H 364.317 2.57518 -0.0650788 0
M  V30 4001 H 364.275 2.66921 1.66134 0
M  V30 4002 N 368.047 0.979072 1.23499 0
M  V30 4003 C 369.01 0.523244 2.23147 0
M  V30 4004 C 370.01 -0.386406 1.56088 0
M  V30 4005 O 371.2 -0.180283 1.73265 0
M  V30 4006 C 368.332 -0.240739 3.40049 0
M  V30 4007 H 369.525 1.40432 2.64989 0
M  V30 4008 H 367.078 0.764824 1.36309 0
M  V30 4009 H 367.813 -1.13841 3.03662 0
M  V30 4010 H 367.598 0.412207 3.89927 0
M  V30 4011 H 369.088 -0.548297 4.13985 0
M  V30 4012 N 369.525 -1.3858 0.750561 0
M  V30 4013 C 370.473 -2.32339 0.110162 0
M  V30 4014 C 371.467 -1.53864 -0.708674 0
M  V30 4015 O 372.673 -1.69417 -0.608112 0
M  V30 4016 H 369.048 -0.751812 0.0168275 0
M  V30 4017 H 371.019 -2.83959 0.917053 0
M  V30 4018 C 369.768 -3.39043 -0.771067 0
M  V30 4019 H 369.091 -3.99517 -0.150374 0
M  V30 4020 H 370.531 -4.07061 -1.1865 0
M  V30 4021 C 368.99 -2.77365 -1.91234 0
M  V30 4022 O 369.52 -2.66434 -3.00626 0
M  V30 4023 N 367.726 -2.35219 -1.70646 0
M  V30 4024 H 367.273 -2.4431 -0.81673 0
M  V30 4025 H 367.231 -1.94294 -2.47178 0
M  V30 4026 N 371.003 -0.499398 -1.49478 0
M  V30 4027 C 372.233 0.0424839 -2.06556 0
M  V30 4028 C 372.641 1.31514 -1.36018 0
M  V30 4029 O 371.984 1.78555 -0.431718 0
M  V30 4030 C 372.046 0.368074 -3.57611 0
M  V30 4031 C 371.71 -0.806631 -4.49825 0
M  V30 4032 C 372.707 -1.69667 -4.91436 0
M  V30 4033 C 370.392 -1.00498 -4.92144 0
M  V30 4034 C 372.386 -2.76923 -5.74101 0
M  V30 4035 C 370.073 -2.08072 -5.74586 0
M  V30 4036 C 371.071 -2.96119 -6.15469 0
M  V30 4037 O 370.759 -4.01836 -6.96264 0
M  V30 4038 H 370.491 -0.0165165 -0.675798 0
M  V30 4039 H 373.045 -0.695497 -1.93267 0
M  V30 4040 H 371.275 1.15963 -3.68903 0
M  V30 4041 H 372.964 0.848381 -3.96935 0
M  V30 4042 H 373.73 -1.55524 -4.59388 0
M  V30 4043 H 369.609 -0.329036 -4.59824 0
M  V30 4044 H 373.153 -3.45676 -6.05932 0
M  V30 4045 H 369.05 -2.22211 -6.06047 0
M  V30 4046 H 369.818 -3.9917 -7.14567 0
M  V30 4047 N 372.481 1.55866 -0.233164 0
M  V30 4048 C 373.431 2.17442 0.685774 0
M  V30 4049 C 374.415 1.12617 1.14918 0
M  V30 4050 O 375.607 1.3857 1.10124 0
M  V30 4051 C 372.736 2.86685 1.88856 0
M  V30 4052 C 371.822 3.98749 1.4443 0
M  V30 4053 N 372.213 5.00744 0.713364 0
M  V30 4054 C 370.511 4.11052 1.73068 0
M  V30 4055 C 371.212 5.79673 0.485205 0
M  V30 4056 N 370.188 5.33454 1.04536 0
M  V30 4057 H 373.99 2.93659 0.119022 0
M  V30 4058 H 371.504 1.62362 -0.0348995 0
M  V30 4059 H 373.501 3.29218 2.55776 0
M  V30 4060 H 372.161 2.11967 2.45967 0
M  V30 4061 H 373.172 5.16613 0.364861 0
M  V30 4062 H 369.849 3.47495 2.31416 0
M  V30 4063 H 371.239 6.71829 -0.097365 0
M  V30 4064 N 373.959 -0.0401083 1.57549 0
M  V30 4065 C 374.922 -1.02871 2.04817 0
M  V30 4066 C 375.922 -1.29708 0.950388 0
M  V30 4067 O 377.112 -1.24897 1.21435 0
M  V30 4068 C 374.244 -2.36443 2.45576 0
M  V30 4069 H 375.437 -0.620631 2.93408 0
M  V30 4070 H 372.99 -0.286667 1.53649 0
M  V30 4071 H 373.725 -2.82021 1.60108 0
M  V30 4072 H 373.51 -2.18296 3.25713 0
M  V30 4073 H 375 -3.07441 2.82612 0
M  V30 4074 N 375.437 -1.54477 -0.31217 0
M  V30 4075 C 376.848 -1.64344 -0.885891 0
M  V30 4076 C 377.199 -0.54485 -1.88483 0
M  V30 4077 O 376.324 0.320387 -2.14015 0
M  V30 4078 C 376.919 -2.97908 -1.61357 0
M  V30 4079 C 375.478 -3.09933 -2.13585 0
M  V30 4080 C 374.625 -2.59971 -0.964897 0
M  V30 4081 H 377.576 -1.58448 -0.0894528 0
M  V30 4082 H 377.597 -2.88706 -2.47848 0
M  V30 4083 H 377.109 -3.77845 -0.886277 0
M  V30 4084 H 375.21 -2.34694 -2.89395 0
M  V30 4085 H 375.323 -4.15916 -2.37804 0
M  V30 4086 H 373.687 -2.16147 -1.34731 0
M  V30 4087 H 374.47 -3.42376 -0.251742 0
M  V30 4088 N 376.915 0.57481 -1.46744 0
M  V30 4089 C 377.825 1.711 -1.60505 0
M  V30 4090 C 378.841 1.67008 -0.488307 0
M  V30 4091 O 380.017 1.86774 -0.753495 0
M  V30 4092 C 377.082 3.07608 -1.59932 0
M  V30 4093 C 376.143 3.22904 -2.82898 0
M  V30 4094 C 375.376 4.529 -2.82343 0
M  V30 4095 O 375.599 5.37278 -1.91542 0
M  V30 4096 O 374.533 4.71611 -3.73987 0
M  V30 4097 H 378.359 1.62436 -2.56609 0
M  V30 4098 H 375.944 0.742779 -1.29627 0
M  V30 4099 H 377.826 3.88877 -1.62336 0
M  V30 4100 H 376.501 3.16692 -0.669898 0
M  V30 4101 H 375.408 2.41099 -2.86046 0
M  V30 4102 H 376.741 3.18715 -3.75076 0
M  V30 4103 N 378.394 1.34581 0.820102 0
M  V30 4104 C 379.643 1.26437 1.57151 0
M  V30 4105 C 379.956 -0.163111 1.94919 0
M  V30 4106 O 381.162 -0.366722 2.69012 0
M  V30 4107 C 379.618 2.21658 2.83541 0
M  V30 4108 C 379.226 3.69679 2.53065 0
M  V30 4109 C 380.97 2.22428 3.61561 0
M  V30 4110 C 378.877 4.56761 3.75664 0
M  V30 4111 H 377.807 0.469707 0.589823 0
M  V30 4112 H 380.458 1.59763 0.902656 0
M  V30 4113 H 378.84 1.81287 3.52067 0
M  V30 4114 H 380.014 4.18605 1.92631 0
M  V30 4115 H 378.329 3.71384 1.88316 0
M  V30 4116 H 380.926 2.8471 4.52597 0
M  V30 4117 H 381.269 1.22434 3.97889 0
M  V30 4118 H 381.802 2.61259 2.99981 0
M  V30 4119 H 378.541 5.57702 3.44454 0
M  V30 4120 H 378.061 4.12568 4.35371 0
M  V30 4121 H 379.74 4.71509 4.43044 0
M  V30 4122 N 379.872 -1.04064 1.18357 0
M  V30 4123 C 380.835 -2.10243 0.912707 0
M  V30 4124 C 381.835 -1.60477 -0.101928 0
M  V30 4125 O 383.025 -1.73703 0.131517 0
M  V30 4126 C 380.157 -3.38893 0.369387 0
M  V30 4127 H 381.35 -2.35706 1.85426 0
M  V30 4128 H 378.903 -1.20489 0.995594 0
M  V30 4129 H 379.638 -3.19094 -0.578776 0
M  V30 4130 H 379.423 -3.76331 1.1008 0
M  V30 4131 H 380.913 -4.17128 0.198575 0
M  V30 4132 N 381.35 -0.985608 -1.22978 0
M  V30 4133 C 382.597 -0.657386 -1.91532 0
M  V30 4134 C 382.925 0.809707 -1.76845 0
M  V30 4135 O 382.18 1.60021 -1.12658 0
M  V30 4136 C 382.479 -1.00014 -3.43121 0
M  V30 4137 C 382.145 -2.4583 -3.77993 0
M  V30 4138 C 380.807 -2.85679 -3.87222 0
M  V30 4139 C 383.159 -3.40378 -3.94705 0
M  V30 4140 C 380.487 -4.19081 -4.10595 0
M  V30 4141 C 382.839 -4.73429 -4.1958 0
M  V30 4142 C 381.503 -5.1303 -4.27032 0
M  V30 4143 H 380.773 -0.240555 -0.700867 0
M  V30 4144 H 383.42 -1.24044 -1.45895 0
M  V30 4145 H 381.725 -0.335072 -3.90365 0
M  V30 4146 H 383.422 -0.724322 -3.94404 0
M  V30 4147 H 380.012 -2.13939 -3.71387 0
M  V30 4148 H 384.196 -3.10766 -3.8696 0
M  V30 4149 H 379.452 -4.49362 -4.14589 0
M  V30 4150 H 383.626 -5.46644 -4.31455 0
M  V30 4151 H 381.253 -6.16418 -4.44896 0
M  V30 4152 N 382.828 1.3818 -0.7579 0
M  V30 4153 C 384.053 2.04827 -0.325679 0
M  V30 4154 C 384.478 1.56788 1.03919 0
M  V30 4155 O 383.836 0.721811 1.66312 0
M  V30 4156 C 383.884 3.58774 -0.362447 0
M  V30 4157 O 382.988 4.07372 0.642033 0
M  V30 4158 H 382.329 0.64833 -0.143402 0
M  V30 4159 H 384.859 1.7677 -1.03023 0
M  V30 4160 H 384.869 4.07434 -0.214844 0
M  V30 4161 H 383.544 3.93096 -1.35824 0
M  V30 4162 H 382.121 3.70068 0.458688 0
M  V30 4163 N 384.306 0.507319 1.49211 0
M  V30 4164 C 385.269 -0.256763 2.27757 0
M  V30 4165 C 386.269 -0.888287 1.34038 0
M  V30 4166 O 387.459 -0.751841 1.5714 0
M  V30 4167 C 384.591 -1.36905 3.12202 0
M  V30 4168 H 385.784 0.432557 2.96764 0
M  V30 4169 H 383.337 0.262488 1.5408 0
M  V30 4170 H 384.072 -2.09233 2.47775 0
M  V30 4171 H 383.857 -0.921599 3.81115 0
M  V30 4172 H 385.347 -1.9071 3.7151 0
M  V30 4173 N 385.784 -1.5574 0.241426 0
M  V30 4174 C 387.195 -1.84842 -0.262755 0
M  V30 4175 C 387.546 -1.16317 -1.58003 0
M  V30 4176 O 386.671 -0.439653 -2.11887 0
M  V30 4177 C 387.266 -3.35332 -0.483523 0
M  V30 4178 C 385.825 -3.6468 -0.931977 0
M  V30 4179 C 384.972 -2.77299 -0.0061151 0
M  V30 4180 H 387.923 -1.51761 0.464129 0
M  V30 4181 H 387.944 -3.56615 -1.32688 0
M  V30 4182 H 387.456 -3.85178 0.47537 0
M  V30 4183 H 385.557 -3.20307 -1.90353 0
M  V30 4184 H 385.67 -4.72498 -0.792628 0
M  V30 4185 H 384.034 -2.49408 -0.516503 0
M  V30 4186 H 384.817 -3.2995 0.948052 0
M  V30 4187 N 387.262 0.0317525 -1.57568 0
M  V30 4188 C 388.492 0.733884 -1.93126 0
M  V30 4189 C 388.9 1.69563 -0.839352 0
M  V30 4190 O 388.243 1.82681 0.193175 0
M  V30 4191 C 388.305 1.54798 -3.24465 0
M  V30 4192 C 387.969 0.751304 -4.50782 0
M  V30 4193 C 388.966 0.0527632 -5.19873 0
M  V30 4194 C 386.651 0.706639 -4.97305 0
M  V30 4195 C 388.645 -0.679774 -6.33765 0
M  V30 4196 C 386.332 -0.0296449 -6.11093 0
M  V30 4197 C 387.33 -0.721614 -6.79177 0
M  V30 4198 O 387.018 -1.44595 -7.90789 0
M  V30 4199 H 386.75 0.211459 -0.642076 0
M  V30 4200 H 389.304 -0.00585615 -2.05399 0
M  V30 4201 H 387.534 2.33147 -3.08512 0
M  V30 4202 H 389.223 2.13247 -3.4537 0
M  V30 4203 H 389.989 0.0783188 -4.84937 0
M  V30 4204 H 385.868 1.23474 -4.44157 0
M  V30 4205 H 389.412 -1.22042 -6.86842 0
M  V30 4206 H 385.309 -0.0571331 -6.45475 0
M  V30 4207 H 386.077 -1.35935 -8.07133 0
M  V30 4208 N 388.74 1.54641 0.303973 0
M  V30 4209 C 389.67 1.88386 1.3796 0
M  V30 4210 C 390.651 0.742485 1.5304 0
M  V30 4211 O 391.836 0.997959 1.66597 0
M  V30 4212 C 388.966 2.12854 2.74427 0
M  V30 4213 C 387.92 3.28702 2.74115 0
M  V30 4214 C 387.246 3.38582 4.13844 0
M  V30 4215 C 388.546 4.65881 2.3612 0
M  V30 4216 H 390.24 2.78474 1.09966 0
M  V30 4217 H 387.786 1.33988 0.527556 0
M  V30 4218 H 389.739 2.35047 3.49758 0
M  V30 4219 H 388.463 1.19535 3.03939 0
M  V30 4220 H 387.122 3.06428 2.0124 0
M  V30 4221 H 386.77 2.42784 4.40528 0
M  V30 4222 H 386.47 4.16453 4.14537 0
M  V30 4223 H 387.994 3.63031 4.90959 0
M  V30 4224 H 389.408 4.87823 3.01167 0
M  V30 4225 H 387.805 5.46444 2.48031 0
M  V30 4226 H 388.875 4.66799 1.3125 0
M  V30 4227 N 390.218 -0.567019 1.47046 0
M  V30 4228 C 391.443 -1.3551 1.57009 0
M  V30 4229 C 391.868 -1.86841 0.217259 0
M  V30 4230 O 391.226 -1.62435 -0.805268 0
M  V30 4231 C 391.274 -2.50777 2.5912 0
M  V30 4232 O 390.378 -3.52706 2.13711 0
M  V30 4233 H 389.719 -0.402919 0.52778 0
M  V30 4234 H 392.249 -0.686241 1.92748 0
M  V30 4235 H 392.259 -2.97481 2.79229 0
M  V30 4236 H 390.934 -2.12771 3.57353 0
M  V30 4237 H 389.511 -3.12374 2.03659 0
M  V30 4238 N 391.696 -1.35014 -0.812953 0
M  V30 4239 C 392.606 -1.2951 -1.95613 0
M  V30 4240 C 393.622 -0.20107 -1.72834 0
M  V30 4241 O 394.798 -0.42932 -1.96771 0
M  V30 4242 C 391.863 -1.06033 -3.30088 0
M  V30 4243 C 390.924 -2.24688 -3.65805 0
M  V30 4244 C 390.157 -2.02322 -4.93864 0
M  V30 4245 O 390.38 -0.986464 -5.61805 0
M  V30 4246 O 389.314 -2.89525 -5.27692 0
M  V30 4247 H 393.14 -2.25705 -2.03202 0
M  V30 4248 H 390.725 -1.15321 -0.949811 0
M  V30 4249 H 392.607 -0.94763 -4.10607 0
M  V30 4250 H 391.282 -0.128852 -3.23443 0
M  V30 4251 H 390.189 -2.41521 -2.85689 0
M  V30 4252 H 391.522 -3.16261 -3.77147 0
M  V30 4253 N 393.175 1.03435 -1.18907 0
M  V30 4254 C 394.108 2.11162 -0.86521 0
M  V30 4255 C 395.086 1.6165 0.175473 0
M  V30 4256 O 396.27 1.88425 0.0530129 0
M  V30 4257 C 393.397 3.37423 -0.293868 0
M  V30 4258 C 392.443 4.05795 -1.31274 0
M  V30 4259 S 393.276 4.52027 -2.8711 0
M  V30 4260 C 394.432 5.81513 -2.31504 0
M  V30 4261 H 394.665 2.38308 -1.77754 0
M  V30 4262 H 392.198 1.16295 -1.01562 0
M  V30 4263 H 394.156 4.1049 0.0292572 0
M  V30 4264 H 392.817 3.0838 0.596682 0
M  V30 4265 H 392.01 4.96574 -0.86198 0
M  V30 4266 H 391.612 3.38874 -1.58242 0
M  V30 4267 H 393.904 6.55784 -1.70157 0
M  V30 4268 H 394.847 6.3136 -3.20608 0
M  V30 4269 H 395.255 5.36921 -1.74286 0
M  V30 4270 N 394.653 0.992116 1.22453 0
M  V30 4271 C 395.899 0.668523 1.91464 0
M  V30 4272 C 396.232 -0.797313 1.77078 0
M  V30 4273 O 395.507 -1.5765 1.13916 0
M  V30 4274 C 395.79 1.07424 3.43703 0
M  V30 4275 C 395.643 2.59857 3.67143 0
M  V30 4276 C 396.962 0.626891 4.35612 0
M  V30 4277 H 394.081 0.244341 0.695318 0
M  V30 4278 H 396.723 1.2355 1.44345 0
M  V30 4279 H 394.873 0.591816 3.83966 0
M  V30 4280 H 396.545 3.15764 3.3629 0
M  V30 4281 H 394.788 3.01961 3.11451 0
M  V30 4282 H 395.459 2.83296 4.73759 0
M  V30 4283 H 397.935 1.04125 4.02861 0
M  V30 4284 H 396.811 0.939076 5.40807 0
M  V30 4285 H 397.072 -0.472457 4.39568 0
M  V30 4286 N 396.131 -1.37776 0.765217 0
M  V30 4287 C 397.547 -1.53297 0.444108 0
M  V30 4288 C 397.747 -1.72515 -1.04119 0
M  V30 4289 O 396.803 -1.74278 -1.82711 0
M  V30 4290 C 398.116 -2.73328 1.25349 0
M  V30 4291 C 399.664 -2.87185 1.24473 0
M  V30 4292 C 400.139 -4.10191 2.03733 0
M  V30 4293 N 401.63 -4.17291 2.01053 0
M  V30 4294 C 402.365 -5.11488 2.59166 0
M  V30 4295 N 401.861 -6.11285 3.26041 0
M  V30 4296 N 403.654 -5.03924 2.49032 0
M  V30 4297 H 395.805 -1.23552 1.72768 0
M  V30 4298 H 398.068 -0.601103 0.733062 0
M  V30 4299 H 397.774 -2.6557 2.30577 0
M  V30 4300 H 397.648 -3.66834 0.87823 0
M  V30 4301 H 400.035 -2.94418 0.20047 0
M  V30 4302 H 400.116 -1.94657 1.65959 0
M  V30 4303 H 399.76 -4.0372 3.08176 0
M  V30 4304 H 399.69 -5.01821 1.59633 0
M  V30 4305 H 402.181 -3.45825 1.5236 0
M  V30 4306 H 402.494 -6.79678 3.67774 0
M  V30 4307 H 400.839 -6.11583 3.30138 0
M  V30 4308 H 404.03 -4.24902 1.96407 0
M  V30 4309 H 404.203 -5.77152 2.94617 0
M  V30 4310 N 397.609 -0.515225 -1.4894 0
M  V30 4311 C 398.541 0.292481 -2.27326 0
M  V30 4312 C 399.554 0.917838 -1.3446 0
M  V30 4313 O 400.743 0.798772 -1.5963 0
M  V30 4314 C 397.843 1.42803 -3.07344 0
M  V30 4315 C 397.016 0.907347 -4.27885 0
M  V30 4316 C 396.075 1.92222 -4.89834 0
M  V30 4317 O 395.101 1.48506 -5.49486 0
M  V30 4318 N 396.303 3.25355 -4.80754 0
M  V30 4319 H 399.068 -0.379721 -2.97285 0
M  V30 4320 H 396.629 -0.348638 -1.58102 0
M  V30 4321 H 398.621 2.10481 -3.45658 0
M  V30 4322 H 397.191 2.00414 -2.39902 0
M  V30 4323 H 396.411 0.0550218 -3.94162 0
M  V30 4324 H 397.699 0.538108 -5.05946 0
M  V30 4325 H 397.097 3.6355 -4.33414 0
M  V30 4326 H 395.654 3.88707 -5.23211 0
M  V30 4327 N 399.087 1.5561 -0.249682 0
M  V30 4328 C 399.997 2.25143 0.659375 0
M  V30 4329 C 401.013 1.2685 1.19101 0
M  V30 4330 O 402.189 1.59732 1.22669 0
M  V30 4331 C 399.254 2.93945 1.8384 0
M  V30 4332 C 398.315 4.07655 1.34596 0
M  V30 4333 C 397.548 4.73167 2.46878 0
M  V30 4334 O 397.771 4.37768 3.65671 0
M  V30 4335 O 396.705 5.61623 2.16478 0
M  V30 4336 H 400.531 3.03545 0.0968698 0
M  V30 4337 H 398.116 1.49389 -0.018074 0
M  V30 4338 H 399.998 3.37271 2.52638 0
M  V30 4339 H 398.673 2.18481 2.38847 0
M  V30 4340 H 397.58 3.68839 0.625174 0
M  V30 4341 H 398.913 4.84946 0.841941 0
M  V30 4342 N 400.565 -0.0233959 1.57583 0
M  V30 4343 C 401.498 -1.05549 2.02323 0
M  V30 4344 C 402.476 -1.34843 0.908626 0
M  V30 4345 O 403.66 -1.47404 1.17491 0
M  V30 4346 C 400.787 -2.38885 2.40108 0
M  V30 4347 C 399.833 -2.2541 3.62067 0
M  V30 4348 S 400.666 -1.60217 5.1097 0
M  V30 4349 C 401.822 -2.95032 5.52003 0
M  V30 4350 H 402.055 -0.674435 2.89549 0
M  V30 4351 H 399.588 -0.23355 1.52623 0
M  V30 4352 H 401.546 -3.15562 2.62547 0
M  V30 4353 H 400.207 -2.74137 1.53323 0
M  V30 4354 H 399.4 -3.23854 3.86179 0
M  V30 4355 H 399.002 -1.56876 3.39508 0
M  V30 4356 H 401.294 -3.91357 5.53033 0
M  V30 4357 H 402.237 -2.75646 6.52246 0
M  V30 4358 H 402.645 -2.97865 4.79517 0
M  V30 4359 N 402.043 -1.548 -0.295768 0
M  V30 4360 C 403.273 -1.78069 -1.04762 0
M  V30 4361 C 403.681 -0.542847 -1.81245 0
M  V30 4362 O 403.024 0.497051 -1.76848 0
M  V30 4363 C 403.086 -2.93881 -2.07061 0
M  V30 4364 C 402.75 -4.31777 -1.49725 0
M  V30 4365 C 403.747 -5.11613 -0.924581 0
M  V30 4366 C 401.432 -4.78389 -1.5313 0
M  V30 4367 C 403.426 -6.36184 -0.393594 0
M  V30 4368 C 401.113 -6.02921 -0.996447 0
M  V30 4369 C 402.111 -6.81654 -0.428569 0
M  V30 4370 O 401.799 -8.0384 0.0981593 0
M  V30 4371 H 401.531 -0.597475 -0.316226 0
M  V30 4372 H 404.085 -2.02584 -0.338973 0
M  V30 4373 H 402.315 -2.65003 -2.81621 0
M  V30 4374 H 404.004 -3.04679 -2.6819 0
M  V30 4375 H 404.77 -4.76743 -0.891136 0
M  V30 4376 H 400.649 -4.17132 -1.9627 0
M  V30 4377 H 404.193 -6.97582 0.0503014 0
M  V30 4378 H 400.09 -6.37277 -1.02706 0
M  V30 4379 H 400.858 -8.18499 -0.0146455 0
M  V30 4380 N 403.521 0.559213 -1.47345 0
M  V30 4381 C 404.469 1.68747 -1.60085 0
M  V30 4382 C 405.463 1.628 -0.46825 0
M  V30 4383 O 406.669 1.68009 -0.645977 0
M  V30 4384 H 403.044 0.558329 -0.503759 0
M  V30 4385 H 405.015 1.55138 -2.54902 0
M  V30 4386 C 403.764 3.07103 -1.63042 0
M  V30 4387 H 403.087 3.12361 -2.49541 0
M  V30 4388 H 404.527 3.85743 -1.76006 0
M  V30 4389 C 402.986 3.34935 -0.363357 0
M  V30 4390 O 403.516 3.98102 0.536416 0
M  V30 4391 N 401.722 2.89574 -0.244 0
M  V30 4392 H 401.269 2.38348 -0.977133 0
M  V30 4393 H 401.227 3.08566 0.602836 0
M  V30 4394 N 404.999 1.35443 0.805782 0
M  V30 4395 C 406.415 1.15499 1.10146 0
M  V30 4396 C 406.615 -0.0319975 2.01475 0
M  V30 4397 O 405.671 -0.70236 2.42535 0
M  V30 4398 C 406.984 2.45833 1.73166 0
M  V30 4399 C 408.532 2.52047 1.85583 0
M  V30 4400 C 409.007 3.82427 2.52019 0
M  V30 4401 N 410.498 3.83682 2.59504 0
M  V30 4402 C 411.233 4.81294 3.11679 0
M  V30 4403 N 410.729 5.89294 3.64287 0
M  V30 4404 N 412.522 4.6873 3.1024 0
M  V30 4405 H 404.673 2.11469 0.198678 0
M  V30 4406 H 406.936 0.93594 0.150731 0
M  V30 4407 H 406.642 3.32874 1.13526 0
M  V30 4408 H 406.516 2.6044 2.72857 0
M  V30 4409 H 408.903 1.65435 2.44367 0
M  V30 4410 H 408.984 2.41354 0.847455 0
M  V30 4411 H 408.628 4.69437 1.93885 0
M  V30 4412 H 408.558 3.90409 3.53395 0
M  V30 4413 H 411.049 3.05648 2.22234 0
M  V30 4414 H 411.362 6.59768 4.02401 0
M  V30 4415 H 409.707 5.92985 3.62483 0
M  V30 4416 H 412.898 3.83496 2.68419 0
M  V30 4417 H 413.071 5.44965 3.50596 0
M  V30 4418 N 406.477 -1.02803 1.19454 0
M  V30 4419 C 407.707 -1.79581 1.02149 0
M  V30 4420 C 408.115 -1.84182 -0.432851 0
M  V30 4421 O 407.458 -1.28534 -1.31243 0
M  V30 4422 C 407.52 -3.25993 1.51554 0
M  V30 4423 C 407.184 -3.45025 2.99678 0
M  V30 4424 C 408.181 -3.35175 3.97434 0
M  V30 4425 C 405.866 -3.71212 3.38389 0
M  V30 4426 C 407.86 -3.51238 5.31893 0
M  V30 4427 C 405.547 -3.8692 4.73008 0
M  V30 4428 C 406.545 -3.76936 5.69569 0
M  V30 4429 O 406.233 -3.92179 7.01748 0
M  V30 4430 H 405.965 -0.571962 0.360327 0
M  V30 4431 H 408.519 -1.30367 1.58725 0
M  V30 4432 H 406.749 -3.76235 0.893543 0
M  V30 4433 H 408.438 -3.84368 1.30444 0
M  V30 4434 H 409.204 -3.14895 3.68872 0
M  V30 4435 H 405.083 -3.78075 2.6378 0
M  V30 4436 H 408.627 -3.43362 6.07247 0
M  V30 4437 H 404.524 -4.06699 5.01265 0
M  V30 4438 H 405.292 -4.09265 7.08833 0
M  V30 4439 N 407.956 -0.998596 -1.21925 0
M  V30 4440 C 409.204 -0.676325 -1.90448 0
M  V30 4441 C 409.525 0.794719 -1.78071 0
M  V30 4442 O 408.795 1.5701 -1.17152 0
M  V30 4443 H 407.375 -0.247165 -0.704925 0
M  V30 4444 H 410.037 -1.26633 -1.48156 0
M  V30 4445 H 409.133 -0.943858 -2.97486 0
M  V30 4446 N 409.434 1.37368 -0.772513 0
M  V30 4447 C 410.344 2.34053 -0.160081 0
M  V30 4448 C 411.36 1.60216 0.678728 0
M  V30 4449 O 412.536 1.92303 0.59847 0
M  V30 4450 C 409.601 3.3939 0.708182 0
M  V30 4451 C 408.662 4.29048 -0.147172 0
M  V30 4452 C 407.895 5.29354 0.679744 0
M  V30 4453 O 408.118 5.3723 1.91678 0
M  V30 4454 O 407.052 6.01835 0.0885444 0
M  V30 4455 H 410.878 2.88159 -0.959053 0
M  V30 4456 H 408.463 1.39543 -0.533685 0
M  V30 4457 H 410.345 4.03839 1.20384 0
M  V30 4458 H 409.02 2.8761 1.48533 0
M  V30 4459 H 407.927 3.67697 -0.689205 0
M  V30 4460 H 409.26 4.84134 -0.887423 0
M  V30 4461 N 410.912 0.523116 1.48665 0
M  V30 4462 C 412.137 -0.0117284 2.07397 0
M  V30 4463 C 412.562 -1.28031 1.37803 0
M  V30 4464 O 411.92 -1.75836 0.441762 0
M  V30 4465 C 411.968 -0.225786 3.59892 0
M  V30 4466 O 411.072 -1.29592 3.91509 0
M  V30 4467 H 410.413 0.0360673 0.66302 0
M  V30 4468 H 412.943 0.729066 1.9117 0
M  V30 4469 H 412.953 -0.450552 4.05505 0
M  V30 4470 H 411.628 0.700944 4.09951 0
M  V30 4471 H 410.205 -1.05436 3.57684 0
M  V30 4472 N 412.39 -1.55475 0.257931 0
M  V30 4473 C 413.353 -2.20551 -0.623706 0
M  V30 4474 C 414.353 -1.17809 -1.09443 0
M  V30 4475 O 415.543 -1.42823 -0.997362 0
M  V30 4476 C 412.675 -2.85784 -1.8585 0
M  V30 4477 H 413.868 -2.99848 -0.0557743 0
M  V30 4478 H 411.421 -1.56298 0.0084422 0
M  V30 4479 H 412.156 -2.10453 -2.46739 0
M  V30 4480 H 411.941 -3.61057 -1.52907 0
M  V30 4481 H 413.431 -3.35553 -2.48584 0
M  V30 4482 N 413.868 0.0150385 -1.57593 0
M  V30 4483 C 415.098 0.713359 -1.93894 0
M  V30 4484 C 415.506 1.68663 -0.857289 0
M  V30 4485 O 414.849 1.82876 0.173788 0
M  V30 4486 C 414.911 1.51348 -3.26089 0
M  V30 4487 C 414.575 0.703451 -4.51554 0
M  V30 4488 C 415.572 -0.00237924 -5.199 0
M  V30 4489 C 413.257 0.653854 -4.98026 0
M  V30 4490 C 415.251 -0.746955 -6.33008 0
M  V30 4491 C 412.938 -0.0944578 -6.11027 0
M  V30 4492 C 413.936 -0.793609 -6.78374 0
M  V30 4493 O 413.624 -1.52974 -7.89211 0
M  V30 4494 H 413.356 0.204637 -0.644282 0
M  V30 4495 H 415.91 -0.0276411 -2.05381 0
M  V30 4496 H 414.14 2.29862 -3.10967 0
M  V30 4497 H 415.829 2.09572 -3.47612 0
M  V30 4498 H 416.595 0.0268803 -4.84993 0
M  V30 4499 H 412.474 1.18756 -4.45441 0
M  V30 4500 H 416.018 -1.2932 -6.85509 0
M  V30 4501 H 411.915 -0.125591 -6.45378 0
M  V30 4502 H 412.683 -1.44488 -8.05646 0
M  V30 4503 N 415.346 1.54954 0.287554 0
M  V30 4504 C 416.256 1.8991 1.37736 0
M  V30 4505 C 417.272 0.794701 1.54792 0
M  V30 4506 O 418.448 1.09243 1.69198 0
M  V30 4507 C 415.513 2.15108 2.71899 0
M  V30 4508 C 414.574 3.38752 2.63715 0
M  V30 4509 C 413.807 3.62739 3.91479 0
M  V30 4510 O 414.03 2.89492 4.91478 0
M  V30 4511 O 412.964 4.56267 3.92561 0
M  V30 4512 H 416.79 2.82652 1.11092 0
M  V30 4513 H 414.375 1.41315 0.484807 0
M  V30 4514 H 416.257 2.32806 3.51254 0
M  V30 4515 H 414.932 1.25551 2.9836 0
M  V30 4516 H 413.839 3.26405 1.82786 0
M  V30 4517 H 415.172 4.28483 2.42205 0
M  V30 4518 N 416.824 -0.551391 1.4764 0
M  V30 4519 C 418.101 -1.31229 1.45046 0
M  V30 4520 C 418.481 -2.10563 0.150527 0
M  V30 4521 O 417.829 -2.11374 -0.867956 0
M  V30 4522 C 418.039 -2.21189 2.69956 0
M  V30 4523 C 419.387 -2.82021 3.1741 0
M  V30 4524 O 420.411 -2.31488 2.70724 0
M  V30 4525 O 419.27 -3.73885 3.98588 0
M  V30 4526 H 416.364 -0.591193 0.578291 0
M  V30 4527 H 418.91 -0.569813 1.59847 0
M  V30 4528 H 417.682 -1.62207 3.56096 0
M  V30 4529 H 417.305 -3.02722 2.57769 0
M  V30 4530 N 418.302 -1.35869 -0.798587 0
M  V30 4531 C 419.55 -1.29332 -1.55298 0
M  V30 4532 C 419.871 0.129729 -1.94568 0
M  V30 4533 O 419.141 1.06796 -1.6423 0
M  V30 4534 H 417.721 -0.475737 -0.57592 0
M  V30 4535 H 420.383 -1.70062 -0.952093 0
M  V30 4536 H 419.479 -1.91458 -2.46476 0
M  V30 4537 N 419.78 1.02168 -1.19998 0
M  V30 4538 C 421.01 1.79036 -1.031 0
M  V30 4539 C 421.418 1.84409 0.423078 0
M  V30 4540 O 420.761 1.29228 1.30559 0
M  V30 4541 C 420.823 3.25185 -1.53281 0
M  V30 4542 C 420.487 3.43431 -3.01503 0
M  V30 4543 C 421.484 3.33063 -3.99206 0
M  V30 4544 C 419.169 3.69412 -3.40353 0
M  V30 4545 C 421.163 3.48413 -5.33748 0
M  V30 4546 C 418.85 3.84406 -4.75053 0
M  V30 4547 C 419.848 3.7391 -5.71559 0
M  V30 4548 O 419.536 3.88452 -7.03818 0
M  V30 4549 H 419.268 0.570043 -0.363355 0
M  V30 4550 H 421.822 1.29524 -1.59414 0
M  V30 4551 H 420.052 3.75756 -0.913483 0
M  V30 4552 H 421.741 3.83671 -1.32481 0
M  V30 4553 H 422.507 3.12934 -3.70537 0
M  V30 4554 H 418.386 3.76671 -2.65782 0
M  V30 4555 H 421.93 3.40137 -6.09059 0
M  V30 4556 H 417.827 4.04035 -5.03415 0
M  V30 4557 H 418.595 4.055 -7.10993 0
M  V30 4558 N 421.258 1.00505 1.21394 0
M  V30 4559 C 422.674 0.717873 1.42544 0
M  V30 4560 C 422.874 -0.706936 1.88692 0
M  V30 4561 O 421.93 -1.47627 2.04847 0
M  V30 4562 C 423.243 1.73377 2.45684 0
M  V30 4563 C 424.791 1.75059 2.59467 0
M  V30 4564 C 425.266 2.75545 3.6584 0
M  V30 4565 N 426.757 2.74213 3.73311 0
M  V30 4566 C 427.492 3.48626 4.55245 0
M  V30 4567 N 426.988 4.32678 5.41075 0
M  V30 4568 N 428.781 3.37276 4.49668 0
M  V30 4569 H 420.932 1.92506 0.897503 0
M  V30 4570 H 423.195 0.830919 0.456375 0
M  V30 4571 H 422.901 2.75395 2.18748 0
M  V30 4572 H 422.775 1.53647 3.44489 0
M  V30 4573 H 425.162 0.737337 2.8574 0
M  V30 4574 H 425.243 1.98861 1.60897 0
M  V30 4575 H 424.887 3.77028 3.40313 0
M  V30 4576 H 424.817 2.49009 4.64007 0
M  V30 4577 H 427.308 2.13234 3.11993 0
M  V30 4578 H 427.621 4.86253 6.00648 0
M  V30 4579 H 425.966 4.3676 5.40616 0
M  V30 4580 H 429.157 2.71043 3.81646 0
M  V30 4581 H 429.33 3.95524 5.13288 0
M  V30 4582 N 422.737 -1.36956 0.779787 0
M  V30 4583 C 423.986 -1.98738 0.344405 0
M  V30 4584 C 424.299 -1.62596 -1.08728 0
M  V30 4585 O 425.505 -2.1754 -1.62445 0
M  V30 4586 C 423.961 -3.5544 0.564829 0
M  V30 4587 C 423.569 -4.00514 2.0073 0
M  V30 4588 C 425.313 -4.24059 0.193471 0
M  V30 4589 C 423.22 -5.49957 2.17489 0
M  V30 4590 H 422.15 -0.743561 0.12503 0
M  V30 4591 H 424.801 -1.56381 0.960057 0
M  V30 4592 H 423.183 -3.95817 -0.120397 0
M  V30 4593 H 424.357 -3.71362 2.72814 0
M  V30 4594 H 422.672 -3.44703 2.336 0
M  V30 4595 H 425.269 -5.33874 0.297097 0
M  V30 4596 H 425.612 -4.07378 -0.857263 0
M  V30 4597 H 426.145 -3.89012 0.831556 0
M  V30 4598 H 422.884 -5.71574 3.2091 0
M  V30 4599 H 422.404 -5.80767 1.49899 0
M  V30 4600 H 424.083 -6.16043 1.97738 0
M  V30 4601 N 424.215 -0.530993 -1.48385 0
M  V30 4602 C 425.445 -0.00133928 -2.066 0
M  V30 4603 C 425.853 1.28599 -1.38777 0
M  V30 4604 O 425.196 1.77599 -0.469495 0
M  V30 4605 C 425.258 0.292137 -3.58311 0
M  V30 4606 C 424.922 -0.901864 -4.48013 0
M  V30 4607 C 425.919 -1.80053 -4.87726 0
M  V30 4608 C 423.604 -1.10915 -4.89901 0
M  V30 4609 C 425.598 -2.89038 -5.68098 0
M  V30 4610 C 423.285 -2.20213 -5.70043 0
M  V30 4611 C 424.283 -3.09107 -6.0905 0
M  V30 4612 O 423.971 -4.16514 -6.87583 0
M  V30 4613 H 423.703 -0.0308475 -0.675296 0
M  V30 4614 H 426.257 -0.736335 -1.91748 0
M  V30 4615 H 424.487 1.08112 -3.7128 0
M  V30 4616 H 426.176 0.763994 -3.98645 0
M  V30 4617 H 426.942 -1.65234 -4.55986 0
M  V30 4618 H 422.821 -0.426498 -4.59023 0
M  V30 4619 H 426.365 -3.58451 -5.98464 0
M  V30 4620 H 422.262 -2.35016 -6.01197 0
M  V30 4621 H 423.03 -4.14237 -7.05939 0
M  V30 4622 N 425.693 1.55336 -0.266172 0
M  V30 4623 C 426.921 2.03801 0.356756 0
M  V30 4624 C 427.336 1.14485 1.50129 0
M  V30 4625 O 426.693 0.163121 1.8177 0
M  V30 4626 C 426.744 3.51455 0.846281 0
M  V30 4627 O 426.465 4.37371 -0.252663 0
M  V30 4628 C 427.966 4.15767 1.53794 0
M  V30 4629 H 425.186 0.665906 0.0825218 0
M  V30 4630 H 427.73 2.00636 -0.39566 0
M  V30 4631 H 425.885 3.55092 1.54881 0
M  V30 4632 H 426.299 5.24358 0.122173 0
M  V30 4633 H 427.773 5.20714 1.83198 0
M  V30 4634 H 428.25 3.63404 2.46646 0
M  V30 4635 H 428.856 4.16107 0.879488 0
M  V30 4636 N 427.171 -0.0066808 1.57599 0
M  V30 4637 C 428.399 -0.704087 1.94551 0
M  V30 4638 C 428.814 -1.67677 0.867746 0
M  V30 4639 O 428.171 -1.8185 -0.153925 0
M  V30 4640 C 428.222 -1.44177 3.31505 0
M  V30 4641 O 427.943 -0.508097 4.35144 0
M  V30 4642 C 429.444 -2.23429 3.82876 0
M  V30 4643 H 426.664 -0.196523 0.641576 0
M  V30 4644 H 429.208 0.042453 2.04456 0
M  V30 4645 H 427.363 -2.13999 3.22929 0
M  V30 4646 H 427.777 -1.02782 5.14331 0
M  V30 4647 H 429.251 -2.70552 4.8115 0
M  V30 4648 H 429.728 -3.05818 3.15233 0
M  V30 4649 H 430.334 -1.58636 3.94607 0
M  V30 4650 N 428.649 -1.55105 -0.279332 0
M  V30 4651 C 429.898 -1.74618 -1.00952 0
M  V30 4652 C 430.211 -0.551096 -1.87676 0
M  V30 4653 O 431.417 -0.628507 -2.64125 0
M  V30 4654 C 429.873 -3.09025 -1.84476 0
M  V30 4655 C 429.481 -4.36081 -1.0265 0
M  V30 4656 C 431.225 -3.37891 -2.56963 0
M  V30 4657 C 429.132 -5.6153 -1.85576 0
M  V30 4658 H 428.062 -0.650868 -0.38064 0
M  V30 4659 H 430.713 -1.81569 -0.265475 0
M  V30 4660 H 429.095 -2.96095 -2.62952 0
M  V30 4661 H 430.269 -4.59909 -0.286354 0
M  V30 4662 H 428.584 -4.14312 -0.416464 0
M  V30 4663 H 431.181 -4.28822 -3.19399 0
M  V30 4664 H 431.524 -2.57737 -3.26921 0
M  V30 4665 H 432.057 -3.5189 -1.85522 0
M  V30 4666 H 428.796 -6.44413 -1.2005 0
M  V30 4667 H 428.316 -5.41854 -2.57204 0
M  V30 4668 H 429.995 -5.99594 -2.43096 0
M  V30 4669 N 430.127 0.543554 -1.4793 0
M  V30 4670 C 431.355 1.32516 -1.58894 0
M  V30 4671 C 431.77 1.87215 -0.244131 0
M  V30 4672 O 431.127 1.65709 0.764652 0
M  V30 4673 C 431.178 2.48554 -2.62494 0
M  V30 4674 O 430.899 1.96112 -3.91755 0
M  V30 4675 C 432.4 3.40572 -2.8377 0
M  V30 4676 H 429.62 0.403472 -0.536145 0
M  V30 4677 H 432.164 0.657106 -1.93655 0
M  V30 4678 H 430.319 3.1127 -2.30629 0
M  V30 4679 H 430.733 2.71967 -4.4848 0
M  V30 4680 H 432.207 4.18375 -3.60093 0
M  V30 4681 H 432.684 3.94965 -1.92092 0
M  V30 4682 H 433.29 2.8366 -3.16887 0
M  V30 4683 N 431.605 1.3629 0.791371 0
M  V30 4684 C 433.021 1.16661 1.08914 0
M  V30 4685 C 433.221 -0.0106266 2.01497 0
M  V30 4686 O 432.277 -0.676596 2.43266 0
M  V30 4687 C 433.59 2.47656 1.70549 0
M  V30 4688 C 435.138 2.54002 1.82899 0
M  V30 4689 C 435.613 3.85078 2.47949 0
M  V30 4690 N 437.104 3.86413 2.5542 0
M  V30 4691 C 437.839 4.84572 3.06557 0
M  V30 4692 N 437.335 5.93124 3.58016 0
M  V30 4693 N 439.128 4.71994 3.05251 0
M  V30 4694 H 431.279 2.11668 0.176238 0
M  V30 4695 H 433.542 0.937486 0.140796 0
M  V30 4696 H 433.248 3.34059 1.09989 0
M  V30 4697 H 433.122 2.63319 2.70079 0
M  V30 4698 H 435.509 1.68018 2.42598 0
M  V30 4699 H 435.59 2.42239 0.821808 0
M  V30 4700 H 435.234 4.71467 1.88895 0
M  V30 4701 H 435.164 3.94135 3.49235 0
M  V30 4702 H 437.655 3.07988 2.18979 0
M  V30 4703 H 437.968 6.63999 3.95381 0
M  V30 4704 H 436.313 5.96796 3.56173 0
M  V30 4705 H 439.504 3.86321 2.64336 0
M  V30 4706 H 439.677 5.48653 3.44796 0
M  V30 4707 N 433.083 -1.0153 1.20538 0
M  V30 4708 C 434.03 -2.10098 0.955383 0
M  V30 4709 C 435 -1.65702 -0.114878 0
M  V30 4710 O 436.185 -1.90776 0.0301118 0
M  V30 4711 C 433.325 -3.41236 0.514969 0
M  V30 4712 C 432.438 -3.99102 1.65353 0
M  V30 4713 C 431.573 -5.18306 1.16329 0
M  V30 4714 C 430.612 -5.68258 2.27485 0
M  V30 4715 N 429.749 -6.78722 1.7967 0
M  V30 4716 H 434.589 -2.30818 1.88486 0
M  V30 4717 H 432.126 -1.13189 0.939499 0
M  V30 4718 H 434.084 -4.16504 0.240935 0
M  V30 4719 H 432.714 -3.20585 -0.377512 0
M  V30 4720 H 431.766 -3.20918 2.04245 0
M  V30 4721 H 433.078 -4.32177 2.49047 0
M  V30 4722 H 432.232 -6.00782 0.845302 0
M  V30 4723 H 430.971 -4.86799 0.296254 0
M  V30 4724 H 429.976 -4.84385 2.60099 0
M  V30 4725 H 431.201 -6.01798 3.14667 0
M  V30 4726 H 429.147 -6.49042 0.95295 0
M  V30 4727 H 429.064 -7.10996 2.56944 0
M  V30 4728 H 430.332 -7.64759 1.50875 0
M  V30 4729 N 434.561 -1.01147 -1.20859 0
M  V30 4730 C 435.807 -0.698899 -1.90377 0
M  V30 4731 C 436.14 0.76904 -1.78324 0
M  V30 4732 O 435.415 1.55817 -1.16409 0
M  V30 4733 C 435.698 -1.12878 -3.41951 0
M  V30 4734 C 435.551 -2.65665 -3.62963 0
M  V30 4735 C 436.87 -0.696114 -4.3456 0
M  V30 4736 H 433.989 -0.255372 -0.691342 0
M  V30 4737 H 436.631 -1.25831 -1.42361 0
M  V30 4738 H 434.781 -0.652827 -3.82976 0
M  V30 4739 H 436.453 -3.21074 -3.31224 0
M  V30 4740 H 434.696 -3.06878 -3.06608 0
M  V30 4741 H 435.367 -2.90797 -4.69192 0
M  V30 4742 H 437.843 -1.10521 -4.01154 0
M  V30 4743 H 436.719 -1.025 -5.39245 0
M  V30 4744 H 436.98 0.402465 -4.40264 0
M  V30 4745 N 436.039 1.36541 -0.78704 0
M  V30 4746 C 436.971 2.28761 -0.141773 0
M  V30 4747 C 437.984 1.49365 0.647599 0
M  V30 4748 O 439.173 1.71836 0.483173 0
M  V30 4749 C 436.273 3.28771 0.822368 0
M  V30 4750 C 435.446 4.3732 0.0835594 0
M  V30 4751 C 434.505 5.17307 0.963296 0
M  V30 4752 O 433.531 5.67638 0.421419 0
M  V30 4753 N 434.733 5.33515 2.28784 0
M  V30 4754 H 437.498 2.84777 -0.933919 0
M  V30 4755 H 435.059 1.48682 -0.640735 0
M  V30 4756 H 437.051 3.79169 1.41468 0
M  V30 4757 H 435.621 2.73412 1.5154 0
M  V30 4758 H 434.841 3.88118 -0.689809 0
M  V30 4759 H 436.129 5.0701 -0.426358 0
M  V30 4760 H 435.527 4.94234 2.75226 0
M  V30 4761 H 434.084 5.87165 2.82985 0
M  V30 4762 N 437.518 0.538854 1.48102 0
M  V30 4763 C 438.45 -0.256278 2.27763 0
M  V30 4764 C 439.463 -0.89633 1.35904 0
M  V30 4765 O 440.652 -0.773275 1.60881 0
M  V30 4766 C 437.752 -1.37896 3.09577 0
M  V30 4767 C 436.925 -0.839159 4.29275 0
M  V30 4768 C 435.984 -1.84405 4.9283 0
M  V30 4769 O 435.01 -1.39746 5.51779 0
M  V30 4770 N 436.212 -3.17666 4.85869 0
M  V30 4771 H 438.977 0.426968 2.96643 0
M  V30 4772 H 436.538 0.373747 1.57527 0
M  V30 4773 H 438.53 -2.04955 3.48963 0
M  V30 4774 H 437.1 -1.96572 2.4306 0
M  V30 4775 H 436.32 0.00769287 3.94199 0
M  V30 4776 H 437.608 -0.457548 5.06739 0
M  V30 4777 H 437.006 -3.56609 4.39143 0
M  V30 4778 H 435.563 -3.80334 5.29329 0
M  V30 4779 N 438.996 -1.55193 0.274407 0
M  V30 4780 C 439.959 -2.212 -0.600279 0
M  V30 4781 C 440.959 -1.18963 -1.08187 0
M  V30 4782 O 442.149 -1.43873 -0.982158 0
M  V30 4783 C 439.281 -2.87739 -1.82809 0
M  V30 4784 H 440.474 -2.9989 -0.0239682 0
M  V30 4785 H 438.027 -1.5628 0.0250192 0
M  V30 4786 H 438.762 -2.13058 -2.44493 0
M  V30 4787 H 438.547 -3.62658 -1.49069 0
M  V30 4788 H 440.037 -3.38171 -2.45011 0
M  V30 4789 N 440.474 -0.00167713 -1.576 0
M  V30 4790 C 441.437 0.974046 -2.07473 0
M  V30 4791 C 442.437 1.27143 -0.984444 0
M  V30 4792 O 443.627 1.21633 -1.24703 0
M  V30 4793 C 440.759 2.29849 -2.51759 0
M  V30 4794 H 441.952 0.54262 -2.9495 0
M  V30 4795 H 439.505 0.245829 -1.54355 0
M  V30 4796 H 440.24 2.77677 -1.67529 0
M  V30 4797 H 440.025 2.09584 -3.31386 0
M  V30 4798 H 441.515 2.9984 -2.90664 0
M  V30 4799 N 441.952 1.55251 0.271103 0
M  V30 4800 C 442.884 1.84675 1.35749 0
M  V30 4801 C 443.897 0.731366 1.45447 0
M  V30 4802 O 445.086 1.00924 1.4723 0
M  V30 4803 C 442.186 1.99638 2.73857 0
M  V30 4804 C 441.359 3.30312 2.86727 0
M  V30 4805 C 440.418 3.35318 4.05522 0
M  V30 4806 O 439.444 4.08682 3.96191 0
M  V30 4807 N 440.646 2.62857 5.17577 0
M  V30 4808 H 443.411 2.78445 1.10853 0
M  V30 4809 H 440.972 1.55191 0.461218 0
M  V30 4810 H 442.964 2.00355 3.51625 0
M  V30 4811 H 441.534 1.12725 2.91568 0
M  V30 4812 H 440.754 3.42118 1.95829 0
M  V30 4813 H 442.042 4.16488 2.92258 0
M  V30 4814 H 441.44 2.02939 5.28046 0
M  V30 4815 H 439.997 2.69295 5.93568 0
M  V30 4816 N 443.43 -0.535701 1.48216 0
M  V30 4817 C 444.362 -1.65662 1.58394 0
M  V30 4818 C 445.375 -1.5591 0.468607 0
M  V30 4819 O 446.564 -1.62475 0.7392 0
M  V30 4820 C 443.664 -3.04276 1.4923 0
M  V30 4821 C 442.837 -3.39567 2.75705 0
M  V30 4822 C 441.896 -4.57436 2.60075 0
M  V30 4823 O 440.922 -4.60942 3.33948 0
M  V30 4824 N 442.124 -5.55259 1.69315 0
M  V30 4825 H 444.889 -1.5737 2.55058 0
M  V30 4826 H 442.45 -0.722845 1.44867 0
M  V30 4827 H 444.442 -3.80994 1.36477 0
M  V30 4828 H 443.012 -3.06677 0.605632 0
M  V30 4829 H 442.232 -2.52083 3.03064 0
M  V30 4830 H 443.52 -3.59929 3.59623 0
M  V30 4831 H 442.918 -5.552 1.08489 0
M  V30 4832 H 441.475 -6.31218 1.62504 0
M  V30 4833 N 444.908 -1.36708 -0.784132 0
M  V30 4834 C 445.871 -1.31307 -1.87859 0
M  V30 4835 C 446.871 -0.219654 -1.59293 0
M  V30 4836 O 448.061 -0.47476 -1.67606 0
M  V30 4837 C 445.193 -1.03679 -3.24751 0
M  V30 4838 H 446.386 -2.28647 -1.94064 0
M  V30 4839 H 443.939 -1.21558 -0.98252 0
M  V30 4840 H 444.674 -0.0681936 -3.24228 0
M  V30 4841 H 444.459 -1.82811 -3.46876 0
M  V30 4842 H 445.949 -1.02518 -4.04821 0
M  V30 4843 N 446.386 1.0089 -1.21074 0
M  V30 4844 C 447.632 1.74866 -1.02712 0
M  V30 4845 C 447.965 1.89178 0.438787 0
M  V30 4846 O 447.24 1.42325 1.32567 0
M  V30 4847 C 447.523 3.16347 -1.72036 0
M  V30 4848 C 447.376 3.09782 -3.26121 0
M  V30 4849 C 448.695 4.15187 -1.45973 0
M  V30 4850 H 445.814 0.634736 -0.374539 0
M  V30 4851 H 448.456 1.17646 -1.49196 0
M  V30 4852 H 446.606 3.65201 -1.32517 0
M  V30 4853 H 448.278 2.68673 -3.74983 0
M  V30 4854 H 446.521 2.46982 -3.56626 0
M  V30 4855 H 447.192 4.09829 -3.6979 0
M  V30 4856 H 449.668 3.75022 -1.80272 0
M  V30 4857 H 448.544 5.12331 -1.96999 0
M  V30 4858 H 448.805 4.40386 -0.388924 0
M  V30 4859 N 447.864 1.01787 1.20321 0
M  V30 4860 C 449.28 0.732951 1.41774 0
M  V30 4861 C 449.48 -0.686883 1.89431 0
M  V30 4862 O 448.536 -1.45446 2.06402 0
M  V30 4863 C 449.849 1.75973 2.43832 0
M  V30 4864 C 451.397 1.77802 2.57596 0
M  V30 4865 C 451.872 2.7941 3.62897 0
M  V30 4866 N 453.363 2.78157 3.70382 0
M  V30 4867 C 454.098 3.53434 4.51521 0
M  V30 4868 N 453.594 4.38392 5.36455 0
M  V30 4869 N 455.387 3.42026 4.46066 0
M  V30 4870 H 447.538 1.93447 0.877035 0
M  V30 4871 H 449.801 0.835712 0.447536 0
M  V30 4872 H 449.507 2.77699 2.15815 0
M  V30 4873 H 449.381 1.57292 3.4284 0
M  V30 4874 H 451.768 0.767602 2.84942 0
M  V30 4875 H 451.849 2.00557 1.58779 0
M  V30 4876 H 451.493 3.80616 3.36295 0
M  V30 4877 H 451.423 2.53916 4.61339 0
M  V30 4878 H 453.914 2.16531 3.09714 0
M  V30 4879 H 454.227 4.92596 5.95457 0
M  V30 4880 H 452.572 4.4247 5.35953 0
M  V30 4881 H 455.763 2.75075 3.78749 0
M  V30 4882 H 455.936 4.00946 5.09064 0
M  V30 4883 N 449.342 -1.36122 0.79427 0
M  V30 4884 C 450.29 -2.31871 0.184023 0
M  V30 4885 C 451.284 -1.56041 -0.659365 0
M  V30 4886 O 452.49 -1.71266 -0.553906 0
M  V30 4887 H 448.865 -0.750896 0.0407373 0
M  V30 4888 H 450.836 -2.80898 1.00693 0
M  V30 4889 C 449.585 -3.41324 -0.662813 0
M  V30 4890 H 448.908 -3.99793 -0.0231944 0
M  V30 4891 H 450.348 -4.10629 -1.05639 0
M  V30 4892 C 448.807 -2.83308 -1.82313 0
M  V30 4893 O 449.337 -2.75863 -2.91997 0
M  V30 4894 N 447.543 -2.40529 -1.63077 0
M  V30 4895 H 447.09 -2.46785 -0.738591 0
M  V30 4896 H 447.048 -2.02059 -2.40872 0
M  V30 4897 N 450.82 -0.546701 -1.47814 0
M  V30 4898 C 451.768 0.220048 -2.31557 0
M  V30 4899 C 452.762 0.919472 -1.42275 0
M  V30 4900 O 453.968 0.841953 -1.59095 0
M  V30 4901 H 450.343 0.0898334 -0.746615 0
M  V30 4902 H 452.314 -0.505589 -2.94086 0
M  V30 4903 C 451.063 1.24353 -3.24702 0
M  V30 4904 H 450.386 0.714758 -3.93359 0
M  V30 4905 H 451.826 1.75112 -3.8615 0
M  V30 4906 C 450.285 2.28593 -2.47481 0
M  V30 4907 O 450.815 3.35334 -2.21165 0
M  V30 4908 N 449.021 2.02244 -2.08676 0
M  V30 4909 H 448.568 1.15455 -2.30278 0
M  V30 4910 H 448.526 2.72207 -1.57323 0
M  V30 4911 N 452.299 1.55045 -0.282633 0
M  V30 4912 C 453.545 2.00056 0.332481 0
M  V30 4913 C 453.878 1.1708 1.54939 0
M  V30 4914 O 453.153 0.2427 1.9298 0
M  V30 4915 C 453.436 3.53086 0.70725 0
M  V30 4916 C 453.289 4.46813 -0.517521 0
M  V30 4917 C 454.608 4.12245 1.54084 0
M  V30 4918 H 451.727 0.727268 0.119373 0
M  V30 4919 H 454.369 1.85932 -0.391076 0
M  V30 4920 H 452.519 3.65253 1.32372 0
M  V30 4921 H 454.191 4.46579 -1.15607 0
M  V30 4922 H 452.434 4.18163 -1.1542 0
M  V30 4923 H 453.105 5.51595 -0.211426 0
M  V30 4924 H 455.581 4.03401 1.02013 0
M  V30 4925 H 454.457 5.19515 1.77186 0
M  V30 4926 H 454.718 3.62951 2.52427 0
M  V30 4927 N 453.777 0.010035 1.57597 0
M  V30 4928 C 454.707 -0.976857 2.12084 0
M  V30 4929 C 455.688 -1.35191 1.03235 0
M  V30 4930 O 456.873 -1.43389 1.3097 0
M  V30 4931 C 454.003 -2.26548 2.63236 0
M  V30 4932 C 452.957 -2.03175 3.76701 0
M  V30 4933 C 452.283 -3.38138 4.14206 0
M  V30 4934 C 453.583 -1.38625 5.03568 0
M  V30 4935 H 455.277 -0.523145 2.94794 0
M  V30 4936 H 452.823 -0.250195 1.4181 0
M  V30 4937 H 454.776 -2.95952 2.99984 0
M  V30 4938 H 453.5 -2.74051 1.77661 0
M  V30 4939 H 452.159 -1.36195 3.40362 0
M  V30 4940 H 451.807 -3.83363 3.25641 0
M  V30 4941 H 451.507 -3.23312 4.90656 0
M  V30 4942 H 453.031 -4.08841 4.53521 0
M  V30 4943 H 454.445 -1.98 5.38023 0
M  V30 4944 H 452.842 -1.34256 5.84889 0
M  V30 4945 H 453.912 -0.356722 4.83586 0
M  V30 4946 N 455.255 -1.55392 -0.262866 0
M  V30 4947 C 456.532 -1.67204 -1.01499 0
M  V30 4948 C 456.912 -0.545186 -2.03939 0
M  V30 4949 O 456.26 0.453467 -2.23955 0
M  V30 4950 C 456.47 -3.06847 -1.6627 0
M  V30 4951 C 457.818 -3.64928 -2.17054 0
M  V30 4952 O 458.842 -3.09545 -1.76239 0
M  V30 4953 O 457.701 -4.61984 -2.91947 0
M  V30 4954 H 454.795 -0.679467 -0.471438 0
M  V30 4955 H 457.341 -1.67729 -0.257918 0
M  V30 4956 H 456.113 -3.80309 -0.920915 0
M  V30 4957 H 455.736 -3.10266 -2.48638 0
M  V30 4958 N 456.733 0.527833 -1.48498 0
M  V30 4959 C 457.963 1.30633 -1.60058 0
M  V30 4960 C 458.371 1.87394 -0.260786 0
M  V30 4961 O 457.714 1.67227 0.760317 0
M  V30 4962 C 457.776 2.49361 -2.58958 0
M  V30 4963 C 457.44 2.13671 -4.03972 0
M  V30 4964 C 458.437 1.69217 -4.91591 0
M  V30 4965 C 456.122 2.24129 -4.49524 0
M  V30 4966 C 458.116 1.35689 -6.2279 0
M  V30 4967 C 455.803 1.90212 -5.80743 0
M  V30 4968 C 456.801 1.46063 -6.67199 0
M  V30 4969 O 456.489 1.12593 -7.95976 0
M  V30 4970 H 456.221 0.403444 -0.54241 0
M  V30 4971 H 458.775 0.643233 -1.95068 0
M  V30 4972 H 457.005 3.18659 -2.19073 0
M  V30 4973 H 458.694 3.11421 -2.6033 0
M  V30 4974 H 459.46 1.60607 -4.57636 0
M  V30 4975 H 455.339 2.57447 -3.82416 0
M  V30 4976 H 458.883 1.01157 -6.90227 0
M  V30 4977 H 454.78 1.98464 -6.14233 0
M  V30 4978 H 455.548 1.25972 -8.08748 0
M  V30 4979 N 458.211 1.37122 0.776871 0
M  V30 4980 C 459.488 1.22586 1.52421 0
M  V30 4981 C 459.868 -0.182726 2.10308 0
M  V30 4982 O 459.216 -1.18979 1.9508 0
M  V30 4983 C 459.426 2.31782 2.60918 0
M  V30 4984 C 460.774 2.69071 3.2846 0
M  V30 4985 O 461.798 2.3092 2.71209 0
M  V30 4986 O 460.657 3.3478 4.31954 0
M  V30 4987 H 457.751 0.478045 0.674835 0
M  V30 4988 H 460.297 1.48888 0.814275 0
M  V30 4989 H 459.069 3.26131 2.16227 0
M  V30 4990 H 458.692 2.06916 3.39517 0
M  V30 4991 N 459.689 -1.00246 1.21608 0
M  V30 4992 C 460.622 -2.08794 0.920892 0
M  V30 4993 C 461.6 -1.62059 -0.132552 0
M  V30 4994 O 462.784 -1.885 -0.0030366 0
M  V30 4995 C 459.911 -3.36525 0.383226 0
M  V30 4996 C 458.957 -4.02172 1.41987 0
M  V30 4997 S 459.79 -4.44256 2.98994 0
M  V30 4998 C 460.946 -5.7517 2.4684 0
M  V30 4999 H 461.179 -2.33511 1.8401 0
M  V30 5000 H 458.712 -1.13562 1.04609 0
M  V30 5001 H 460.67 -4.10423 0.0795871 0
M  V30 5002 H 459.331 -3.09854 -0.514711 0
M  V30 5003 H 458.524 -4.94114 0.993335 0
M  V30 5004 H 458.126 -3.34559 1.67171 0
M  V30 5005 H 460.418 -6.51042 1.87484 0
M  V30 5006 H 461.361 -6.22638 3.37235 0
M  V30 5007 H 461.769 -5.32112 1.88461 0
M  V30 5008 N 461.167 -1.02423 -1.1978 0
M  V30 5009 C 462.583 -0.740459 -1.41384 0
M  V30 5010 C 462.783 0.676827 -1.89793 0
M  V30 5011 O 461.839 1.4435 -2.0717 0
M  V30 5012 C 463.152 -1.77264 -2.42895 0
M  V30 5013 C 464.7 -1.79165 -2.56649 0
M  V30 5014 C 465.175 -2.8133 -3.6141 0
M  V30 5015 N 466.666 -2.80118 -3.68901 0
M  V30 5016 C 467.401 -3.55824 -4.49641 0
M  V30 5017 N 466.897 -4.41231 -5.34123 0
M  V30 5018 N 468.69 -3.44387 -4.44246 0
M  V30 5019 H 460.841 -1.9391 -0.866764 0
M  V30 5020 H 463.104 -0.838074 -0.443098 0
M  V30 5021 H 462.81 -2.7884 -2.14339 0
M  V30 5022 H 462.684 -1.59108 -3.42001 0
M  V30 5023 H 465.071 -0.782702 -2.84531 0
M  V30 5024 H 465.152 -2.01396 -1.57713 0
M  V30 5025 H 464.796 -3.82394 -3.34271 0
M  V30 5026 H 464.726 -2.56359 -4.59986 0
M  V30 5027 H 467.217 -2.1817 -3.08562 0
M  V30 5028 H 467.53 -4.95747 -5.92836 0
M  V30 5029 H 465.875 -4.45306 -5.33599 0
M  V30 5030 H 469.066 -2.7708 -3.77285 0
M  V30 5031 H 469.239 -4.0364 -5.06931 0
M  V30 5032 N 462.645 1.35699 -0.801477 0
M  V30 5033 C 463.595 2.2728 -0.181073 0
M  V30 5034 C 464.579 1.47533 0.642098 0
M  V30 5035 O 465.771 1.69785 0.500193 0
M  V30 5036 C 462.9 3.36626 0.673612 0
M  V30 5037 C 461.986 4.23802 -0.159008 0
M  V30 5038 N 462.377 4.90879 -1.2195 0
M  V30 5039 C 460.675 4.45959 0.0602005 0
M  V30 5040 C 461.376 5.5546 -1.72738 0
M  V30 5041 N 460.352 5.33663 -1.03465 0
M  V30 5042 H 464.154 2.76632 -0.992582 0
M  V30 5043 H 461.668 1.49166 -0.642127 0
M  V30 5044 H 463.665 4.01179 1.13408 0
M  V30 5045 H 462.325 2.88828 1.48353 0
M  V30 5046 H 463.336 4.92497 -1.60209 0
M  V30 5047 H 460.013 4.08969 0.839664 0
M  V30 5048 H 461.403 6.18991 -2.61342 0
M  V30 5049 N 464.123 0.554532 1.47522 0
M  V30 5050 C 465.371 0.0294208 2.02079 0
M  V30 5051 C 465.692 -1.32411 1.43151 0
M  V30 5052 O 464.962 -1.863 0.605728 0
M  V30 5053 H 463.542 0.00788672 0.746958 0
M  V30 5054 H 466.204 0.723934 1.80956 0
M  V30 5055 H 465.3 -0.0606745 3.12041 0
M  V30 5056 N 465.601 -1.54893 0.290851 0
M  V30 5057 C 466.831 -2.04047 -0.323818 0
M  V30 5058 C 467.239 -1.16809 -1.48837 0
M  V30 5059 O 466.582 -0.184145 -1.82775 0
M  V30 5060 C 466.644 -3.49248 -0.852395 0
M  V30 5061 C 466.308 -4.56623 0.185557 0
M  V30 5062 C 467.305 -5.09985 1.01053 0
M  V30 5063 C 464.99 -5.01252 0.324332 0
M  V30 5064 C 466.984 -6.06507 1.96031 0
M  V30 5065 C 464.671 -5.97596 1.27757 0
M  V30 5066 C 465.669 -6.50107 2.09405 0
M  V30 5067 O 465.357 -7.44565 3.03114 0
M  V30 5068 H 465.089 -0.671735 -0.0758129 0
M  V30 5069 H 467.643 -2.00947 0.425393 0
M  V30 5070 H 465.873 -3.49639 -1.65195 0
M  V30 5071 H 467.562 -3.81654 -1.38185 0
M  V30 5072 H 468.328 -4.76307 0.914129 0
M  V30 5073 H 464.207 -4.60015 -0.301213 0
M  V30 5074 H 467.751 -6.47418 2.598 0
M  V30 5075 H 463.648 -6.30691 1.37473 0
M  V30 5076 H 464.416 -7.62334 2.97976 0
M  V30 5077 N 467.08 -0.0183926 -1.57589 0
M  V30 5078 C 468.496 0.337897 -1.55982 0
M  V30 5079 C 468.696 1.73604 -1.02294 0
M  V30 5080 O 467.752 2.43589 -0.664895 0
M  V30 5081 C 469.065 0.196305 -3.00059 0
M  V30 5082 C 470.613 0.269875 -3.11834 0
M  V30 5083 C 471.088 0.157197 -4.5773 0
M  V30 5084 N 472.579 0.214521 -4.62703 0
M  V30 5085 C 473.314 0.150955 -5.73201 0
M  V30 5086 N 472.81 0.0369212 -6.9279 0
M  V30 5087 N 474.603 0.204162 -5.61729 0
M  V30 5088 H 466.754 -0.93279 -1.90821 0
M  V30 5089 H 469.017 -0.359253 -0.877292 0
M  V30 5090 H 468.723 -0.766383 -3.43248 0
M  V30 5091 H 468.597 0.970908 -3.6449 0
M  V30 5092 H 470.984 1.22302 -2.68563 0
M  V30 5093 H 471.065 -0.534918 -2.50144 0
M  V30 5094 H 470.709 -0.792479 -5.01679 0
M  V30 5095 H 470.639 0.980717 -5.17387 0
M  V30 5096 H 473.13 0.303238 -3.76681 0
M  V30 5097 H 473.443 -0.00518321 -7.728 0
M  V30 5098 H 471.788 0.0022886 -6.95 0
M  V30 5099 H 474.979 0.291575 -4.67191 0
M  V30 5100 H 475.152 0.15116 -6.47824 0
M  V30 5101 N 468.558 1.5553 0.254621 0
M  V30 5102 C 469.806 1.7665 0.981793 0
M  V30 5103 C 470.127 0.580963 1.86145 0
M  V30 5104 O 469.397 -0.403537 1.91699 0
M  V30 5105 H 467.977 0.651475 0.365498 0
M  V30 5106 H 470.639 1.92958 0.274426 0
M  V30 5107 H 469.735 2.67486 1.60802 0
M  V30 5108 N 470.036 -0.519951 1.48776 0
M  V30 5109 C 471.447 -1.10177 1.50725 0
M  V30 5110 C 471.798 -1.94153 0.282678 0
M  V30 5111 O 470.923 -2.07645 -0.609298 0
M  V30 5112 C 471.518 -2.00482 2.73116 0
M  V30 5113 C 470.077 -2.53862 2.77905 0
M  V30 5114 C 469.224 -1.31047 2.44381 0
M  V30 5115 H 472.175 -0.30473 1.55747 0
M  V30 5116 H 472.196 -2.8491 2.52203 0
M  V30 5117 H 471.708 -1.39335 3.62225 0
M  V30 5118 H 469.809 -3.18702 1.93029 0
M  V30 5119 H 469.922 -2.9231 3.79594 0
M  V30 5120 H 468.286 -1.62953 1.95751 0
M  V30 5121 H 469.069 -0.71637 3.35743 0
M  V30 5122 N 471.514 -1.37532 -0.769588 0
M  V30 5123 C 472.477 -1.33292 -1.86456 0
M  V30 5124 C 473.477 -0.236537 -1.59051 0
M  V30 5125 O 474.667 -0.492511 -1.67093 0
M  V30 5126 C 471.799 -1.07118 -3.23633 0
M  V30 5127 H 472.992 -2.30692 -1.91628 0
M  V30 5128 H 470.545 -1.22593 -0.969572 0
M  V30 5129 H 471.28 -0.102578 -3.24138 0
M  V30 5130 H 471.065 -1.86479 -3.44917 0
M  V30 5131 H 472.555 -1.06806 -4.03711 0
M  V30 5132 N 472.992 0.995999 -1.22138 0
M  V30 5133 C 473.94 2.10673 -0.985876 0
M  V30 5134 C 474.934 1.69255 0.0699553 0
M  V30 5135 O 476.14 1.79812 -0.0822176 0
M  V30 5136 H 472.515 0.688865 -0.30161 0
M  V30 5137 H 474.486 2.27711 -1.92848 0
M  V30 5138 C 473.235 3.42881 -0.576909 0
M  V30 5139 H 472.558 3.75191 -1.38101 0
M  V30 5140 H 473.998 4.21589 -0.451518 0
M  V30 5141 C 472.457 3.29265 0.713196 0
M  V30 5142 O 472.987 3.60777 1.76643 0
M  V30 5143 N 471.193 2.82456 0.683162 0
M  V30 5144 H 470.74 2.5701 -0.174242 0
M  V30 5145 H 470.698 2.73727 1.54663 0
M  V30 5146 N 474.47 1.03057 1.19235 0
M  V30 5147 C 475.716 0.729098 1.89241 0
M  V30 5148 C 476.049 -0.740573 1.79525 0
M  V30 5149 O 475.324 -1.53946 1.18874 0
M  V30 5150 C 475.607 1.18304 3.40112 0
M  V30 5151 C 475.46 2.71406 3.5869 0
M  V30 5152 C 476.779 0.765161 4.33397 0
M  V30 5153 H 473.898 0.266338 0.687192 0
M  V30 5154 H 476.54 1.28079 1.40341 0
M  V30 5155 H 474.69 0.713672 3.81889 0
M  V30 5156 H 476.362 3.26303 3.26074 0
M  V30 5157 H 474.605 3.11717 3.01687 0
M  V30 5158 H 475.276 2.98225 4.64506 0
M  V30 5159 H 477.752 1.16889 3.99345 0
M  V30 5160 H 476.628 1.11065 5.37546 0
M  V30 5161 H 476.889 -0.332372 4.40849 0
M  V30 5162 N 475.948 -1.35272 0.808662 0
M  V30 5163 C 476.878 -2.32315 0.234981 0
M  V30 5164 C 477.859 -1.57572 -0.64071 0
M  V30 5165 O 479.044 -1.8563 -0.570551 0
M  V30 5166 C 476.174 -3.41801 -0.615601 0
M  V30 5167 C 475.128 -4.27694 0.161767 0
M  V30 5168 C 474.454 -5.28519 -0.810649 0
M  V30 5169 C 475.754 -5.04231 1.36193 0
M  V30 5170 H 477.448 -2.80543 1.04575 0
M  V30 5171 H 474.994 -1.3488 0.504315 0
M  V30 5172 H 476.947 -4.08693 -1.02702 0
M  V30 5173 H 475.671 -2.92186 -1.45928 0
M  V30 5174 H 474.33 -3.62384 0.554382 0
M  V30 5175 H 473.978 -4.75171 -1.64988 0
M  V30 5176 H 473.678 -5.8686 -0.294822 0
M  V30 5177 H 475.202 -5.98283 -1.22023 0
M  V30 5178 H 476.616 -5.64058 1.02528 0
M  V30 5179 H 475.013 -5.72077 1.81239 0
M  V30 5180 H 476.083 -4.34753 2.14751 0
M  V30 5181 N 477.426 -0.562348 -1.47226 0
M  V30 5182 C 478.672 -0.0485293 -2.03342 0
M  V30 5183 C 479.027 1.28898 -1.42839 0
M  V30 5184 O 478.32 1.82719 -0.576563 0
M  V30 5185 C 478.514 0.0969817 -3.57268 0
M  V30 5186 C 478.343 -1.22487 -4.32697 0
M  V30 5187 C 477.113 -1.79357 -4.72397 0
M  V30 5188 C 479.311 -2.14332 -4.67511 0
M  V30 5189 N 477.293 -3.05493 -5.32491 0
M  V30 5190 C 478.664 -3.25049 -5.27961 0
M  V30 5191 C 480.719 -2.14263 -4.4944 0
M  V30 5192 C 479.422 -4.35804 -5.72248 0
M  V30 5193 C 481.448 -3.24033 -4.94729 0
M  V30 5194 C 480.81 -4.3347 -5.55233 0
M  V30 5195 H 476.909 -0.0600464 -0.779691 0
M  V30 5196 H 479.493 -0.750769 -1.79643 0
M  V30 5197 H 477.664 0.768353 -3.80724 0
M  V30 5198 H 479.396 0.613333 -4.00025 0
M  V30 5199 H 476.151 -1.33093 -4.54514 0
M  V30 5200 H 476.575 -3.698 -5.67077 0
M  V30 5201 H 481.217 -1.30935 -4.02015 0
M  V30 5202 H 478.935 -5.19888 -6.18661 0
M  V30 5203 H 482.521 -3.25073 -4.82513 0
M  V30 5204 H 481.401 -5.17008 -5.89638 0
M  V30 5205 N 478.904 1.54736 -0.299062 0
M  V30 5206 C 479.851 2.23448 0.577899 0
M  V30 5207 C 480.821 1.21637 1.13109 0
M  V30 5208 O 482.006 1.50252 1.17597 0
M  V30 5209 C 479.146 2.9774 1.74484 0
M  V30 5210 C 478.259 4.1432 1.22323 0
M  V30 5211 C 477.394 4.76199 2.35388 0
M  V30 5212 C 476.433 5.84927 1.80351 0
M  V30 5213 N 475.57 6.4077 2.86982 0
M  V30 5214 H 480.41 2.97996 -0.0146545 0
M  V30 5215 H 477.947 1.47088 -0.0190013 0
M  V30 5216 H 479.905 3.39045 2.43114 0
M  V30 5217 H 478.535 2.25572 2.30905 0
M  V30 5218 H 477.587 3.7797 0.429249 0
M  V30 5219 H 478.899 4.92659 0.780309 0
M  V30 5220 H 478.053 5.20346 3.11969 0
M  V30 5221 H 476.792 3.97188 2.83006 0
M  V30 5222 H 475.797 5.40207 1.02259 0
M  V30 5223 H 477.022 6.65821 1.3364 0
M  V30 5224 H 474.968 5.64643 3.33938 0
M  V30 5225 H 474.885 7.1445 2.4718 0
M  V30 5226 H 476.153 6.89574 3.63466 0
M  V30 5227 N 480.382 0.0267497 1.57577 0
M  V30 5228 C 481.628 -0.653371 1.91987 0
M  V30 5229 C 481.961 -1.71915 0.903263 0
M  V30 5230 O 481.236 -1.94358 -0.0743387 0
M  V30 5231 C 481.519 -1.272 3.36886 0
M  V30 5232 C 481.372 -0.215938 4.49281 0
M  V30 5233 C 482.691 -2.19069 3.81703 0
M  V30 5234 H 479.81 -0.236047 0.698177 0
M  V30 5235 H 482.452 0.0835236 1.89816 0
M  V30 5236 H 480.602 -1.90005 3.38866 0
M  V30 5237 H 482.274 0.41449 4.59434 0
M  V30 5238 H 480.517 0.458855 4.31366 0
M  V30 5239 H 481.188 -0.688347 5.47691 0
M  V30 5240 H 483.664 -1.66253 3.81444 0
M  V30 5241 H 482.54 -2.59307 4.83788 0
M  V30 5242 H 482.801 -3.08087 3.17072 0
M  V30 5243 N 481.861 -1.55662 -0.24637 0
M  V30 5244 C 483.109 -1.77168 -0.972411 0
M  V30 5245 C 483.43 -0.590827 -1.85834 0
M  V30 5246 O 482.7 0.393365 -1.9191 0
M  V30 5247 H 481.28 -0.653405 -0.362038 0
M  V30 5248 H 483.942 -1.93101 -0.264189 0
M  V30 5249 H 483.038 -2.68335 -1.59382 0
M  V30 5250 N 483.339 0.512053 -1.4905 0
M  V30 5251 C 484.249 1.64139 -1.67617 0
M  V30 5252 C 485.265 1.64786 -0.558701 0
M  V30 5253 O 486.441 1.8341 -0.832034 0
M  V30 5254 C 483.506 3.00548 -1.72835 0
M  V30 5255 C 482.567 3.10615 -2.96339 0
M  V30 5256 C 481.8 4.40517 -3.01298 0
M  V30 5257 O 482.023 5.28671 -2.14157 0
M  V30 5258 O 480.957 4.55325 -3.93653 0
M  V30 5259 H 484.783 1.51407 -2.63267 0
M  V30 5260 H 482.368 0.687131 -1.32661 0
M  V30 5261 H 484.25 3.81641 -1.78683 0
M  V30 5262 H 482.925 3.13566 -0.803616 0
M  V30 5263 H 481.832 2.2875 -2.96014 0
M  V30 5264 H 483.165 3.0252 -3.88256 0
M  V30 5265 N 484.817 1.37938 0.762283 0
M  V30 5266 C 486.042 1.37059 1.55659 0
M  V30 5267 C 486.467 -0.0396123 1.88058 0
M  V30 5268 O 485.825 -1.01929 1.49934 0
M  V30 5269 C 485.873 2.22494 2.83776 0
M  V30 5270 O 484.977 1.63607 3.78559 0
M  V30 5271 H 484.318 0.467892 0.47114 0
M  V30 5272 H 486.848 1.81587 0.942725 0
M  V30 5273 H 486.858 2.36045 3.32786 0
M  V30 5274 H 485.533 3.24993 2.59524 0
M  V30 5275 H 484.11 1.5915 3.37233 0
M  V30 5276 N 486.295 -0.989507 1.22664 0
M  V30 5277 C 487.258 -2.06183 1.00106 0
M  V30 5278 C 488.258 -1.60765 -0.0337726 0
M  V30 5279 O 489.448 -1.72989 0.205072 0
M  V30 5280 C 486.58 -3.37021 0.51279 0
M  V30 5281 H 487.773 -2.27629 1.95256 0
M  V30 5282 H 485.326 -1.16158 1.0458 0
M  V30 5283 H 486.061 -3.21261 -0.442917 0
M  V30 5284 H 485.846 -3.71323 1.25942 0
M  V30 5285 H 487.336 -4.1591 0.375315 0
M  V30 5286 N 487.773 -1.03688 -1.18687 0
M  V30 5287 C 489.019 -0.74888 -1.89112 0
M  V30 5288 C 489.374 0.715345 -1.78607 0
M  V30 5289 O 488.667 1.51498 -1.17299 0
M  V30 5290 C 488.861 -1.14477 -3.3857 0
M  V30 5291 C 488.69 -2.64594 -3.63621 0
M  V30 5292 C 487.46 -3.31685 -3.812 0
M  V30 5293 C 489.658 -3.62811 -3.64517 0
M  V30 5294 N 487.64 -4.70822 -3.93955 0
M  V30 5295 C 489.011 -4.87603 -3.8294 0
M  V30 5296 C 491.066 -3.56495 -3.47585 0
M  V30 5297 C 489.769 -6.0684 -3.86184 0
M  V30 5298 C 491.795 -4.75155 -3.52111 0
M  V30 5299 C 491.157 -5.98765 -3.71026 0
M  V30 5300 H 487.256 -0.32603 -0.710794 0
M  V30 5301 H 489.84 -1.3258 -1.42586 0
M  V30 5302 H 488.011 -0.595974 -3.838 0
M  V30 5303 H 489.743 -0.808187 -3.96548 0
M  V30 5304 H 486.498 -2.82091 -3.80423 0
M  V30 5305 H 486.922 -5.43122 -4.04163 0
M  V30 5306 H 491.564 -2.61907 -3.31911 0
M  V30 5307 H 489.282 -7.01788 -4.00648 0
M  V30 5308 H 492.868 -4.71905 -3.40289 0
M  V30 5309 H 491.748 -6.89047 -3.74412 0
M  V30 5310 N 489.251 1.34841 -0.815825 0
M  V30 5311 C 490.528 1.92908 -0.323416 0
M  V30 5312 C 490.908 1.74479 1.18828 0
M  V30 5313 O 490.256 1.11928 1.99209 0
M  V30 5314 C 490.466 3.40957 -0.744952 0
M  V30 5315 C 491.814 4.18107 -0.739716 0
M  V30 5316 O 492.838 3.49511 -0.68708 0
M  V30 5317 O 491.697 5.40517 -0.806456 0
M  V30 5318 H 488.791 0.822436 -0.0867646 0
M  V30 5319 H 491.337 1.4386 -0.90014 0
M  V30 5320 H 490.109 3.4814 -1.78646 0
M  V30 5321 H 489.732 3.97341 -0.143535 0
M  V30 5322 N 490.729 0.570148 1.46925 0
M  V30 5323 C 491.677 -0.183181 2.31878 0
M  V30 5324 C 492.671 -0.896721 1.43719 0
M  V30 5325 O 493.877 -0.816536 1.60414 0
M  V30 5326 H 490.252 -0.077944 0.74795 0
M  V30 5327 H 492.223 0.552312 2.93244 0
M  V30 5328 C 490.972 -1.19172 3.2664 0
M  V30 5329 H 490.295 -0.652088 3.94446 0
M  V30 5330 H 491.735 -1.68946 3.88887 0
M  V30 5331 C 490.194 -2.24627 2.51086 0
M  V30 5332 O 490.724 -3.31773 2.26472 0
M  V30 5333 N 488.93 -1.98898 2.11867 0
M  V30 5334 H 488.477 -1.11777 2.32086 0
M  V30 5335 H 488.435 -2.6967 1.61634 0
M  V30 5336 N 492.207 -1.54576 0.307264 0
M  V30 5337 C 493.155 -2.25208 -0.581723 0
M  V30 5338 C 494.149 -1.26031 -1.13192 0
M  V30 5339 O 495.355 -1.43862 -1.08184 0
M  V30 5340 H 491.73 -0.723173 -0.206214 0
M  V30 5341 H 493.701 -2.98378 0.0364663 0
M  V30 5342 C 492.45 -3.01086 -1.73904 0
M  V30 5343 H 491.773 -3.77208 -1.32491 0
M  V30 5344 H 493.213 -3.5378 -2.33701 0
M  V30 5345 C 491.672 -2.08422 -2.64692 0
M  V30 5346 O 492.202 -1.65636 -3.65961 0
M  V30 5347 N 490.408 -1.74247 -2.32564 0
M  V30 5348 H 489.955 -2.09238 -1.50257 0
M  V30 5349 H 489.913 -1.12524 -2.93574 0
M  V30 5350 N 493.685 -0.035106 -1.57561 0
M  V30 5351 C 494.632 0.94474 -2.10578 0
M  V30 5352 C 495.602 1.3192 -1.00927 0
M  V30 5353 O 496.787 1.41147 -1.28382 0
M  V30 5354 C 493.927 2.21982 -2.64231 0
M  V30 5355 C 493.04 1.90128 -3.87911 0
M  V30 5356 C 492.175 3.11975 -4.29936 0
M  V30 5357 C 491.214 2.75968 -5.46359 0
M  V30 5358 N 490.351 3.90459 -5.83512 0
M  V30 5359 H 495.191 0.485717 -2.94015 0
M  V30 5360 H 492.728 0.228143 -1.4532 0
M  V30 5361 H 494.686 2.96572 -2.9343 0
M  V30 5362 H 493.316 2.6549 -1.83616 0
M  V30 5363 H 492.368 1.05755 -3.65404 0
M  V30 5364 H 493.68 1.59613 -4.72573 0
M  V30 5365 H 492.834 3.9488 -4.60603 0
M  V30 5366 H 491.573 3.45657 -3.44053 0
M  V30 5367 H 490.578 1.91478 -5.1538 0
M  V30 5368 H 491.803 2.43497 -6.33945 0
M  V30 5369 H 489.749 4.23971 -5.00584 0
M  V30 5370 H 489.666 3.63588 -6.62827 0
M  V30 5371 H 490.934 4.7405 -6.18787 0
M  V30 5372 N 495.163 1.55791 0.238111 0
M  V30 5373 C 496.412 1.77234 0.962868 0
M  V30 5374 C 496.725 0.600661 1.86149 0
M  V30 5375 O 497.931 0.698315 2.62366 0
M  V30 5376 C 496.387 3.13808 1.76218 0
M  V30 5377 C 495.995 4.3865 0.910518 0
M  V30 5378 C 497.739 3.44585 2.47914 0
M  V30 5379 C 495.646 5.66252 1.70623 0
M  V30 5380 H 494.576 0.660731 0.36325 0
M  V30 5381 H 497.227 1.8221 0.217242 0
M  V30 5382 H 495.609 3.02963 2.55009 0
M  V30 5383 H 496.783 4.60507 0.164316 0
M  V30 5384 H 495.098 4.15271 0.30647 0
M  V30 5385 H 497.695 4.3714 3.07917 0
M  V30 5386 H 498.038 2.66314 3.19973 0
M  V30 5387 H 498.571 3.56685 1.76127 0
M  V30 5388 H 495.31 6.47369 1.02923 0
M  V30 5389 H 494.83 5.48483 2.42748 0
M  V30 5390 H 496.509 6.05829 2.27114 0
M  V30 5391 N 496.642 -0.504142 1.49319 0
M  V30 5392 C 497.87 -1.28256 1.62351 0
M  V30 5393 C 498.285 -1.86502 0.293682 0
M  V30 5394 O 497.642 -1.67678 -0.720449 0
M  V30 5395 C 497.693 -2.41507 2.68992 0
M  V30 5396 O 497.414 -1.85656 3.96817 0
M  V30 5397 C 498.915 -3.32929 2.927 0
M  V30 5398 H 496.135 -0.389115 0.546654 0
M  V30 5399 H 498.679 -0.605531 1.95329 0
M  V30 5400 H 496.834 -3.05046 2.38801 0
M  V30 5401 H 497.248 -2.59981 4.55533 0
M  V30 5402 H 498.722 -4.0868 3.71058 0
M  V30 5403 H 499.199 -3.89733 2.02496 0
M  V30 5404 H 499.805 -2.75158 3.24296 0
M  V30 5405 N 498.12 -1.38341 -0.754957 0
M  V30 5406 C 499.397 -1.24995 -1.50451 0
M  V30 5407 C 499.777 0.149244 -2.10572 0
M  V30 5408 O 499.125 1.15861 -1.96948 0
M  V30 5409 C 499.335 -2.35904 -2.57197 0
M  V30 5410 C 500.683 -2.74262 -3.24138 0
M  V30 5411 O 501.707 -2.35205 -2.67501 0
M  V30 5412 O 500.566 -3.4161 -4.26574 0
M  V30 5413 H 497.66 -0.48872 -0.667144 0
M  V30 5414 H 500.206 -1.50165 -0.790486 0
M  V30 5415 H 498.978 -3.2953 -2.11011 0
M  V30 5416 H 498.601 -2.12291 -3.36182 0
M  V30 5417 N 499.598 0.982988 -1.23187 0
M  V30 5418 C 500.826 1.75921 -1.08901 0
M  V30 5419 C 501.241 1.85341 0.359719 0
M  V30 5420 O 500.598 1.33072 1.24892 0
M  V30 5421 C 500.649 3.18742 -1.70545 0
M  V30 5422 O 500.37 3.09814 -3.09753 0
M  V30 5423 C 501.871 4.1277 -1.61667 0
M  V30 5424 H 499.091 0.552166 -0.381252 0
M  V30 5425 H 501.635 1.23516 -1.62985 0
M  V30 5426 H 499.79 3.68182 -1.20501 0
M  V30 5427 H 500.204 3.99703 -3.39614 0
M  V30 5428 H 501.678 5.10697 -2.09506 0
M  V30 5429 H 502.155 4.3542 -0.575009 0
M  V30 5430 H 502.761 3.69232 -2.11064 0
M  V30 5431 N 501.076 1.04316 1.18135 0
M  V30 5432 C 502.006 0.657299 2.24058 0
M  V30 5433 C 502.987 -0.340678 1.66654 0
M  V30 5434 O 504.172 -0.220223 1.92947 0
M  V30 5435 C 501.302 0.0220715 3.47293 0
M  V30 5436 C 500.256 0.943857 4.17463 0
M  V30 5437 C 499.582 0.172973 5.3442 0
M  V30 5438 C 500.882 2.26409 4.70677 0
M  V30 5439 H 502.576 1.5428 2.56589 0
M  V30 5440 H 500.122 0.743263 1.23335 0
M  V30 5441 H 502.075 -0.259607 4.206 0
M  V30 5442 H 500.799 -0.898323 3.14003 0
M  V30 5443 H 499.458 1.20996 3.46057 0
M  V30 5444 H 499.106 -0.749907 4.97379 0
M  V30 5445 H 498.806 0.787098 5.82304 0
M  V30 5446 H 500.33 -0.101628 6.10515 0
M  V30 5447 H 501.744 2.04294 5.35665 0
M  V30 5448 H 500.141 2.8314 5.29105 0
M  V30 5449 H 501.211 2.90883 3.87962 0
M  V30 5450 N 502.554 -1.34406 0.822964 0
M  V30 5451 C 503.501 -2.29519 0.24284 0
M  V30 5452 C 504.471 -1.5359 -0.632397 0
M  V30 5453 O 505.656 -1.8196 -0.57403 0
M  V30 5454 C 502.796 -3.40032 -0.58925 0
M  V30 5455 C 501.909 -4.30899 0.308236 0
M  V30 5456 C 501.044 -5.28515 -0.533425 0
M  V30 5457 C 500.083 -6.1102 0.363444 0
M  V30 5458 N 499.22 -7.00725 -0.439147 0
M  V30 5459 H 504.06 -2.78537 1.05929 0
M  V30 5460 H 501.597 -1.3707 0.533872 0
M  V30 5461 H 503.555 -4.0279 -1.087 0
M  V30 5462 H 502.185 -2.92248 -1.37081 0
M  V30 5463 H 501.237 -3.69002 0.924203 0
M  V30 5464 H 502.549 -4.88717 0.997862 0
M  V30 5465 H 501.703 -5.96725 -1.09565 0
M  V30 5466 H 500.442 -4.71235 -1.25656 0
M  V30 5467 H 499.447 -5.41743 0.937812 0
M  V30 5468 H 500.672 -6.70381 1.08469 0
M  V30 5469 H 498.618 -6.45913 -1.14595 0
M  V30 5470 H 498.535 -7.55756 0.19209 0
M  V30 5471 H 499.803 -7.73263 -0.984124 0
M  V30 5472 N 504.032 -0.577932 -1.46621 0
M  V30 5473 C 504.995 0.147805 -2.28723 0
M  V30 5474 C 505.995 0.823325 -1.38123 0
M  V30 5475 O 507.185 0.676011 -1.60548 0
M  V30 5476 C 504.317 1.21853 -3.18378 0
M  V30 5477 H 505.51 -0.573654 -2.94362 0
M  V30 5478 H 503.063 -0.335703 -1.52652 0
M  V30 5479 H 503.798 1.97173 -2.57475 0
M  V30 5480 H 503.583 0.738714 -3.85078 0
M  V30 5481 H 505.073 1.72768 -3.80186 0
M  V30 5482 N 505.51 1.54411 -0.315457 0
M  V30 5483 C 506.44 2.27002 0.547039 0
M  V30 5484 C 507.421 1.27492 1.12605 0
M  V30 5485 O 508.606 1.5629 1.15269 0
M  V30 5486 C 505.736 3.02171 1.71201 0
M  V30 5487 C 504.69 4.0895 1.26268 0
M  V30 5488 C 504.016 4.71915 2.51396 0
M  V30 5489 C 505.316 5.20891 0.383419 0
M  V30 5490 H 507.01 2.99343 -0.0584517 0
M  V30 5491 H 504.556 1.4397 -0.0295527 0
M  V30 5492 H 506.509 3.51681 2.32161 0
M  V30 5493 H 505.233 2.27433 2.34397 0
M  V30 5494 H 503.892 3.60312 0.676062 0
M  V30 5495 H 503.54 3.93801 3.12937 0
M  V30 5496 H 503.24 5.44039 2.22026 0
M  V30 5497 H 504.764 5.24195 3.13133 0
M  V30 5498 H 506.178 5.66206 0.899082 0
M  V30 5499 H 504.575 5.99821 0.182857 0
M  V30 5500 H 505.645 4.81324 -0.587821 0
M  V30 5501 N 506.988 0.0434614 1.5754 0
M  V30 5502 C 508.399 -0.493343 1.80064 0
M  V30 5503 C 508.75 -1.71388 0.955023 0
M  V30 5504 O 507.875 -2.15736 0.169434 0
M  V30 5505 C 508.47 -0.90179 3.26578 0
M  V30 5506 C 507.029 -1.38362 3.50047 0
M  V30 5507 C 506.176 -0.355129 2.75017 0
M  V30 5508 H 509.127 0.2694 1.56397 0
M  V30 5509 H 509.148 -1.76523 3.37075 0
M  V30 5510 H 508.66 -0.013271 3.88098 0
M  V30 5511 H 506.761 -2.29159 2.93798 0
M  V30 5512 H 506.874 -1.3811 4.58762 0
M  V30 5513 H 505.238 -0.826348 2.40922 0
M  V30 5514 H 506.021 0.525172 3.39259 0
M  V30 5515 N 508.466 -1.55915 -0.229846 0
M  V30 5516 C 509.694 -1.82617 -0.972562 0
M  V30 5517 C 510.109 -0.621488 -1.78278 0
M  V30 5518 O 509.466 0.409956 -1.77836 0
M  V30 5519 C 509.517 -3.0774 -1.89679 0
M  V30 5520 O 509.238 -4.23559 -1.11934 0
M  V30 5521 C 510.739 -3.47368 -2.75409 0
M  V30 5522 H 507.959 -0.60727 -0.285419 0
M  V30 5523 H 510.503 -2.02996 -0.247579 0
M  V30 5524 H 508.658 -2.89361 -2.57583 0
M  V30 5525 H 509.072 -4.94586 -1.74599 0
M  V30 5526 H 510.546 -4.37977 -3.35977 0
M  V30 5527 H 511.023 -2.68737 -3.47386 0
M  V30 5528 H 511.629 -3.68158 -2.12931 0
M  V30 5529 N 509.944 0.496216 -1.49584 0
M  V30 5530 C 511.174 1.27209 -1.62793 0
M  V30 5531 C 511.582 1.86799 -0.300476 0
M  V30 5532 O 510.925 1.68802 0.724674 0
M  V30 5533 C 510.987 2.43812 -2.64189 0
M  V30 5534 C 510.651 2.05055 -4.08414 0
M  V30 5535 C 511.648 1.58752 -4.9507 0
M  V30 5536 C 509.333 2.14543 -4.54177 0
M  V30 5537 C 511.327 1.22448 -6.25528 0
M  V30 5538 C 509.014 1.77851 -5.84647 0
M  V30 5539 C 510.012 1.31878 -6.70147 0
M  V30 5540 O 509.7 0.956834 -7.98185 0
M  V30 5541 H 509.432 0.391848 -0.550846 0
M  V30 5542 H 511.986 0.601712 -1.96389 0
M  V30 5543 H 510.216 3.13941 -2.25783 0
M  V30 5544 H 511.905 3.05829 -2.66877 0
M  V30 5545 H 512.671 1.50863 -4.60939 0
M  V30 5546 H 508.55 2.49277 -3.87791 0
M  V30 5547 H 512.094 0.864933 -6.92217 0
M  V30 5548 H 507.991 1.8539 -6.18305 0
M  V30 5549 H 508.759 1.08789 -8.11238 0
M  V30 5550 N 511.423 1.38739 0.74761 0
M  V30 5551 C 512.671 1.35007 1.50391 0
M  V30 5552 C 512.992 -0.0574274 1.94915 0
M  V30 5553 O 512.262 -1.00628 1.6808 0
M  V30 5554 H 510.842 0.496784 0.557866 0
M  V30 5555 H 513.504 1.73479 0.888319 0
M  V30 5556 H 512.6 2.00474 2.392 0
M  V30 5557 N 512.901 -0.976442 1.23707 0
M  V30 5558 C 514.312 -1.53284 1.06587 0
M  V30 5559 C 514.663 -1.92765 -0.365526 0
M  V30 5560 O 513.788 -1.7645 -1.25277 0
M  V30 5561 C 514.383 -2.78548 1.92864 0
M  V30 5562 C 512.942 -3.30574 1.79994 0
M  V30 5563 C 512.089 -2.03538 1.88328 0
M  V30 5564 H 515.04 -0.795692 1.37311 0
M  V30 5565 H 515.061 -3.5155 1.45577 0
M  V30 5566 H 514.573 -2.49782 2.97037 0
M  V30 5567 H 512.674 -3.64211 0.786202 0
M  V30 5568 H 512.787 -4.00065 2.636 0
M  V30 5569 H 511.151 -2.17853 1.31954 0
M  V30 5570 H 511.934 -1.77149 2.94063 0
M  V30 5571 N 514.379 -1.04941 -1.1758 0
M  V30 5572 C 515.309 -0.669172 -2.23706 0
M  V30 5573 C 516.29 0.331835 -1.66832 0
M  V30 5574 O 517.475 0.209988 -1.93061 0
M  V30 5575 C 514.605 -0.0404889 -3.47276 0
M  V30 5576 C 513.559 -0.965983 -4.16957 0
M  V30 5577 C 512.885 -0.201312 -5.34321 0
M  V30 5578 C 514.185 -2.28902 -4.69469 0
M  V30 5579 H 515.879 -1.55639 -2.55767 0
M  V30 5580 H 513.425 -0.749793 -1.22939 0
M  V30 5581 H 515.378 0.237298 -4.20731 0
M  V30 5582 H 514.102 0.881658 -3.14475 0
M  V30 5583 H 512.761 -1.22829 -3.45411 0
M  V30 5584 H 512.409 0.723519 -4.97769 0
M  V30 5585 H 512.109 -0.817968 -5.81879 0
M  V30 5586 H 513.633 0.0692499 -6.10561 0
M  V30 5587 H 515.047 -2.07132 -5.34574 0
M  V30 5588 H 513.444 -2.85942 -5.27596 0
M  V30 5589 H 514.514 -2.92937 -3.86414 0
M  V30 5590 N 515.857 1.33968 -0.830081 0
M  V30 5591 C 516.787 2.31911 -0.271911 0
M  V30 5592 C 517.768 1.58571 0.61556 0
M  V30 5593 O 518.953 1.86514 0.540946 0
M  V30 5594 C 516.083 3.42737 0.561146 0
M  V30 5595 C 515.037 4.27383 -0.229789 0
M  V30 5596 C 514.363 5.29742 0.726463 0
M  V30 5597 C 515.663 5.02 -1.44197 0
M  V30 5598 H 517.357 2.78844 -1.09025 0
M  V30 5599 H 514.903 1.34061 -0.52571 0
M  V30 5600 H 516.856 4.10276 0.961867 0
M  V30 5601 H 515.58 2.94471 1.41261 0
M  V30 5602 H 514.239 3.61456 -0.611964 0
M  V30 5603 H 513.887 4.77736 1.57408 0
M  V30 5604 H 513.587 5.87255 0.20142 0
M  V30 5605 H 515.111 6.00149 1.12489 0
M  V30 5606 H 516.525 5.62355 -1.11488 0
M  V30 5607 H 514.922 5.69122 -1.90317 0
M  V30 5608 H 515.992 4.31281 -2.2164 0
M  V30 5609 N 517.335 0.585699 1.46312 0
M  V30 5610 C 518.746 0.159938 1.86014 0
M  V30 5611 C 519.097 -1.27775 1.48889 0
M  V30 5612 O 518.222 -1.96559 0.90519 0
M  V30 5613 C 518.817 0.283485 3.37612 0
M  V30 5614 C 517.376 -0.0874256 3.76298 0
M  V30 5615 C 516.523 0.618055 2.70325 0
M  V30 5616 H 519.474 0.793737 1.37425 0
M  V30 5617 H 519.495 -0.490348 3.77327 0
M  V30 5618 H 519.007 1.32995 3.64601 0
M  V30 5619 H 517.108 -1.13391 3.54927 0
M  V30 5620 H 517.221 0.290975 4.78216 0
M  V30 5621 H 515.585 0.057993 2.54634 0
M  V30 5622 H 516.368 1.66623 3.00153 0
M  V30 5623 N 518.813 -1.54241 0.323641 0
M  V30 5624 C 519.776 -2.22997 -0.529602 0
M  V30 5625 C 520.776 -1.22345 -1.04347 0
M  V30 5626 O 521.966 -1.46924 -0.935889 0
M  V30 5627 C 519.098 -2.93409 -1.73562 0
M  V30 5628 H 520.291 -2.99815 0.0714518 0
M  V30 5629 H 517.844 -1.56121 0.0747258 0
M  V30 5630 H 518.579 -2.20729 -2.37591 0
M  V30 5631 H 518.364 -3.67217 -1.37456 0
M  V30 5632 H 519.854 -3.45794 -2.34128 0
M  V30 5633 N 520.291 -0.0518155 -1.57515 0
M  V30 5634 C 521.254 0.907547 -2.10467 0
M  V30 5635 C 522.254 1.23947 -1.02439 0
M  V30 5636 O 523.444 1.17604 -1.2851 0
M  V30 5637 C 520.576 2.21723 -2.58944 0
M  V30 5638 H 521.769 0.44851 -2.96527 0
M  V30 5639 H 519.322 0.196598 -1.55059 0
M  V30 5640 H 520.057 2.72206 -1.76279 0
M  V30 5641 H 519.842 1.98935 -3.37886 0
M  V30 5642 H 521.332 2.90441 -3.00056 0
M  V30 5643 N 521.769 1.56035 0.221574 0
M  V30 5644 C 523.015 1.79312 0.947372 0
M  V30 5645 C 523.348 0.621453 1.83988 0
M  V30 5646 O 522.623 -0.379287 1.90766 0
M  V30 5647 C 522.906 3.1267 1.78633 0
M  V30 5648 C 522.759 4.40284 0.920312 0
M  V30 5649 C 524.078 3.4247 2.7641 0
M  V30 5650 H 521.197 0.652328 0.342982 0
M  V30 5651 H 523.839 1.88765 0.216244 0
M  V30 5652 H 521.989 3.04741 2.40967 0
M  V30 5653 H 523.661 4.60232 0.313718 0
M  V30 5654 H 521.904 4.33212 0.225734 0
M  V30 5655 H 522.575 5.30033 1.54171 0
M  V30 5656 H 525.051 3.50526 2.24211 0
M  V30 5657 H 523.927 4.3695 3.32213 0
M  V30 5658 H 524.188 2.64635 3.54148 0
M  V30 5659 N 523.247 -0.488276 1.49845 0
M  V30 5660 C 524.475 -1.26527 1.63702 0
M  V30 5661 C 524.89 -1.8618 0.313447 0
M  V30 5662 O 524.247 -1.68432 -0.702624 0
M  V30 5663 C 524.298 -2.3864 2.71538 0
M  V30 5664 O 524.019 -1.81437 3.98763 0
M  V30 5665 C 525.52 -3.29805 2.96215 0
M  V30 5666 H 522.74 -0.383295 0.55075 0
M  V30 5667 H 525.284 -0.584779 1.95961 0
M  V30 5668 H 523.439 -3.02496 2.42023 0
M  V30 5669 H 523.853 -2.55135 4.58265 0
M  V30 5670 H 525.327 -4.04722 3.75372 0
M  V30 5671 H 525.804 -3.87563 2.06619 0
M  V30 5672 H 526.41 -2.71703 3.27196 0
M  V30 5673 N 524.725 -1.39134 -0.740242 0
M  V30 5674 C 525.95 -1.39518 -1.53459 0
M  V30 5675 C 526.375 0.00968883 -1.88098 0
M  V30 5676 O 525.733 0.995312 -1.51536 0
M  V30 5677 C 525.781 -2.26981 -2.802 0
M  V30 5678 O 524.885 -1.69609 -3.75908 0
M  V30 5679 H 524.226 -0.475328 -0.463637 0
M  V30 5680 H 526.756 -1.83064 -0.913717 0
M  V30 5681 H 526.766 -2.41309 -3.28989 0
M  V30 5682 H 525.441 -3.29081 -2.5432 0
M  V30 5683 H 524.018 -1.64495 -3.34658 0
M  V30 5684 N 526.204 0.969867 -1.24223 0
M  V30 5685 C 527.167 2.04564 -1.03373 0
M  V30 5686 C 528.167 1.60798 0.00819206 0
M  V30 5687 O 529.357 1.72641 -0.232567 0
M  V30 5688 C 526.489 3.36163 -0.566343 0
M  V30 5689 H 527.682 2.24494 -1.98853 0
M  V30 5690 H 525.235 1.1448 -1.06415 0
M  V30 5691 H 525.97 3.21925 0.391751 0
M  V30 5692 H 525.755 3.69273 -1.31834 0
M  V30 5693 H 527.245 4.1526 -0.441435 0
M  V30 5694 N 527.682 1.05563 1.17022 0
M  V30 5695 C 528.63 0.653887 2.2322 0
M  V30 5696 C 529.624 -0.326642 1.66221 0
M  V30 5697 O 530.83 -0.192301 1.7897 0
M  V30 5698 H 527.205 0.193297 0.726733 0
M  V30 5699 H 529.176 1.5596 2.54399 0
M  V30 5700 C 527.925 0.0485434 3.47666 0
M  V30 5701 H 527.248 0.79413 3.91834 0
M  V30 5702 H 528.688 -0.195133 4.23551 0
M  V30 5703 C 527.147 -1.20583 3.14581 0
M  V30 5704 O 527.677 -2.29475 3.29703 0
M  V30 5705 N 525.883 -1.10493 2.68774 0
M  V30 5706 H 525.43 -0.218795 2.56669 0
M  V30 5707 H 525.388 -1.94507 2.47011 0
M  V30 5708 N 529.16 -1.33526 0.837174 0
M  V30 5709 C 530.571 -1.80182 0.489017 0
M  V30 5710 C 530.922 -1.69285 -0.991826 0
M  V30 5711 O 530.047 -1.24113 -1.77271 0
M  V30 5712 C 530.642 -3.27149 0.880866 0
M  V30 5713 C 529.201 -3.71828 0.584872 0
M  V30 5714 C 528.348 -2.54974 1.09011 0
M  V30 5715 H 531.299 -1.21071 1.02603 0
M  V30 5716 H 531.32 -3.80024 0.190239 0
M  V30 5717 H 530.832 -3.35048 1.95869 0
M  V30 5718 H 528.933 -3.69457 -0.48295 0
M  V30 5719 H 529.046 -4.65366 1.13892 0
M  V30 5720 H 527.41 -2.4952 0.511047 0
M  V30 5721 H 528.193 -2.65637 2.17467 0
M  V30 5722 N 530.638 -0.59345 -1.46 0
M  V30 5723 C 531.57 0.171569 -2.28557 0
M  V30 5724 C 532.583 0.845273 -1.39137 0
M  V30 5725 O 533.772 0.713033 -1.6364 0
M  V30 5726 C 530.872 1.26311 -3.14482 0
M  V30 5727 C 530.045 0.679258 -4.32094 0
M  V30 5728 C 529.104 1.65987 -4.99334 0
M  V30 5729 O 528.13 1.19171 -5.56585 0
M  V30 5730 N 529.332 2.99414 -4.97324 0
M  V30 5731 H 532.097 -0.536771 -2.94854 0
M  V30 5732 H 529.658 -0.431954 -1.56031 0
M  V30 5733 H 531.65 1.91863 -3.5633 0
M  V30 5734 H 530.22 1.87416 -2.50188 0
M  V30 5735 H 529.44 -0.153992 -3.93899 0
M  V30 5736 H 530.728 0.26916 -5.08088 0
M  V30 5737 H 530.126 3.40064 -4.52076 0
M  V30 5738 H 528.683 3.60426 -5.4308 0
M  V30 5739 N 532.116 1.54067 -0.331816 0
M  V30 5740 C 533.048 2.22139 0.564538 0
M  V30 5741 C 534.061 1.22408 1.07332 0
M  V30 5742 O 535.25 1.4883 0.985481 0
M  V30 5743 C 532.35 2.87876 1.78831 0
M  V30 5744 C 531.523 4.13817 1.41682 0
M  V30 5745 C 530.582 4.63072 2.49901 0
M  V30 5746 O 529.608 5.27562 2.13699 0
M  V30 5747 N 530.81 4.38001 3.80967 0
M  V30 5748 H 533.575 2.99694 -0.0183736 0
M  V30 5749 H 531.136 1.61153 -0.155396 0
M  V30 5750 H 533.128 3.17747 2.50637 0
M  V30 5751 H 531.698 2.13977 2.27887 0
M  V30 5752 H 530.918 3.9062 0.530044 0
M  V30 5753 H 532.206 4.95762 1.14443 0
M  V30 5754 H 531.604 3.864 4.13173 0
M  V30 5755 H 530.161 4.72507 4.48977 0
M  V30 5756 N 533.594 0.0601682 1.57485 0
M  V30 5757 C 534.557 -0.896373 2.10945 0
M  V30 5758 C 535.557 -1.23402 1.03095 0
M  V30 5759 O 536.747 -1.16921 1.29132 0
M  V30 5760 C 533.879 -2.20346 2.60116 0
M  V30 5761 H 535.072 -0.432778 2.96761 0
M  V30 5762 H 532.625 -0.188372 1.55161 0
M  V30 5763 H 533.36 -2.71268 1.7772 0
M  V30 5764 H 533.145 -1.9714 3.38937 0
M  V30 5765 H 534.635 -2.88846 3.01592 0
M  V30 5766 N 535.072 -1.5615 -0.213296 0
M  V30 5767 C 536.3 -1.83638 -0.953139 0
M  V30 5768 C 536.715 -0.640362 -1.77609 0
M  V30 5769 O 536.072 0.391071 -1.78261 0
M  V30 5770 C 536.123 -3.09735 -1.86405 0
M  V30 5771 O 535.844 -4.24723 -1.07435 0
M  V30 5772 C 537.345 -3.5027 -2.71709 0
M  V30 5773 H 534.565 -0.610263 -0.278962 0
M  V30 5774 H 537.109 -2.03247 -0.226035 0
M  V30 5775 H 535.264 -2.92077 -2.545 0
M  V30 5776 H 535.678 -4.9641 -1.69343 0
M  V30 5777 H 537.152 -4.41515 -3.31313 0
M  V30 5778 H 537.629 -2.72406 -3.44516 0
M  V30 5779 H 538.235 -3.70396 -2.09015 0
M  V30 5780 N 536.55 0.480323 -1.50102 0
M  V30 5781 C 537.513 1.56181 -1.6775 0
M  V30 5782 C 538.513 1.51156 -0.548503 0
M  V30 5783 O 539.703 1.5394 -0.815363 0
M  V30 5784 C 536.835 2.95823 -1.69415 0
M  V30 5785 H 538.028 1.41855 -2.6423 0
M  V30 5786 H 535.581 0.70605 -1.39444 0
M  V30 5787 H 536.316 3.15604 -0.745948 0
M  V30 5788 H 536.101 3.00878 -2.51425 0
M  V30 5789 H 537.591 3.74359 -1.85054 0
M  V30 5790 N 538.028 1.39524 0.732853 0
M  V30 5791 C 538.961 1.32806 1.85574 0
M  V30 5792 C 539.939 0.201354 1.61348 0
M  V30 5793 O 541.123 0.38216 1.84585 0
M  V30 5794 C 538.25 1.06271 3.21596 0
M  V30 5795 C 537.296 2.21161 3.64678 0
M  V30 5796 S 538.129 3.83454 3.73796 0
M  V30 5797 C 539.285 3.59149 5.12604 0
M  V30 5798 H 539.518 2.27838 1.9099 0
M  V30 5799 H 537.051 1.25605 0.897927 0
M  V30 5800 H 539.009 0.916461 4.00139 0
M  V30 5801 H 537.67 0.129223 3.13834 0
M  V30 5802 H 536.863 1.98193 4.63396 0
M  V30 5803 H 536.465 2.32 2.93346 0
M  V30 5804 H 538.757 3.16547 5.99003 0
M  V30 5805 H 539.7 4.57335 5.40602 0
M  V30 5806 H 540.108 2.93203 4.82382 0
M  V30 5807 N 539.506 -0.963266 1.24736 0
M  V30 5808 C 540.436 -2.07628 1.06832 0
M  V30 5809 C 541.417 -1.70088 -0.0200566 0
M  V30 5810 O 542.602 -1.93636 0.147854 0
M  V30 5811 C 539.732 -3.40636 0.677069 0
M  V30 5812 C 538.686 -3.9215 1.71471 0
M  V30 5813 C 538.012 -5.21553 1.1784 0
M  V30 5814 C 539.312 -4.19493 3.11164 0
M  V30 5815 H 541.006 -2.22864 1.9993 0
M  V30 5816 H 538.552 -1.07093 0.96266 0
M  V30 5817 H 540.505 -4.17941 0.538792 0
M  V30 5818 H 539.229 -3.25313 -0.289612 0
M  V30 5819 H 537.888 -3.17005 1.84128 0
M  V30 5820 H 537.536 -5.02593 0.202195 0
M  V30 5821 H 537.236 -5.56988 1.87185 0
M  V30 5822 H 538.76 -6.01463 1.05233 0
M  V30 5823 H 540.174 -4.87487 3.01711 0
M  V30 5824 H 538.571 -4.66165 3.77902 0
M  V30 5825 H 539.641 -3.26097 3.58871 0
M  V30 5826 N 540.985 -1.06182 -1.16461 0
M  V30 5827 C 541.948 -0.675723 -2.19013 0
M  V30 5828 C 542.948 0.277963 -1.58379 0
M  V30 5829 O 544.138 0.0604962 -1.74095 0
M  V30 5830 C 541.27 0.00591459 -3.40899 0
M  V30 5831 H 542.463 -1.58353 -2.54685 0
M  V30 5832 H 540.016 -0.856908 -1.30716 0
M  V30 5833 H 540.751 0.92652 -3.10783 0
M  V30 5834 H 540.536 -0.67984 -3.86161 0
M  V30 5835 H 542.026 0.26181 -4.16778 0
M  V30 5836 N 542.463 1.3308 -0.844243 0
M  V30 5837 C 543.74 1.92178 -0.364261 0
M  V30 5838 C 544.12 1.76961 1.15101 0
M  V30 5839 O 543.468 1.16128 1.9679 0
M  V30 5840 C 543.678 3.393 -0.817106 0
M  V30 5841 C 545.026 4.16444 -0.828236 0
M  V30 5842 O 546.05 3.47975 -0.761062 0
M  V30 5843 O 544.909 5.38685 -0.920926 0
M  V30 5844 H 542.003 0.820411 -0.10419 0
M  V30 5845 H 544.549 1.41918 -0.930453 0
M  V30 5846 H 543.321 3.44272 -1.85991 0
M  V30 5847 H 542.944 3.96947 -0.227785 0
M  V30 5848 N 543.941 0.601185 1.45683 0
M  V30 5849 C 545.189 0.0936957 2.01883 0
M  V30 5850 C 545.51 -1.2779 1.47291 0
M  V30 5851 O 544.78 -1.84279 0.664691 0
M  V30 5852 H 543.36 0.0316466 0.746329 0
M  V30 5853 H 546.022 0.781137 1.78562 0
M  V30 5854 H 545.118 0.0386297 3.12076 0
M  V30 5855 N 545.419 -1.53889 0.339982 0
M  V30 5856 C 546.644 -2.05741 -0.261798 0
M  V30 5857 C 547.069 -1.21354 -1.43718 0
M  V30 5858 O 546.427 -0.22645 -1.7988 0
M  V30 5859 C 546.475 -3.54542 -0.658228 0
M  V30 5860 O 545.579 -3.7302 -1.75869 0
M  V30 5861 H 544.92 -0.662529 -0.0441672 0
M  V30 5862 H 547.45 -1.98568 0.493161 0
M  V30 5863 H 547.46 -3.9711 -0.936368 0
M  V30 5864 H 546.135 -4.15412 0.201358 0
M  V30 5865 H 544.712 -3.42355 -1.47809 0
M  V30 5866 N 546.897 -0.0685191 -1.57451 0
M  V30 5867 C 548.125 0.610462 -1.97689 0
M  V30 5868 C 548.54 1.63346 -0.946758 0
M  V30 5869 O 547.897 1.82377 0.0669868 0
M  V30 5870 C 547.948 1.28196 -3.38006 0
M  V30 5871 O 547.669 0.299906 -4.37072 0
M  V30 5872 C 549.17 2.04907 -3.931 0
M  V30 5873 H 546.39 0.165689 -0.650222 0
M  V30 5874 H 548.934 -0.139953 -2.04021 0
M  V30 5875 H 547.089 1.98348 -3.32771 0
M  V30 5876 H 547.503 0.78126 -5.18649 0
M  V30 5877 H 548.977 2.47287 -4.93511 0
M  V30 5878 H 549.454 2.9043 -3.29465 0
M  V30 5879 H 550.06 1.39629 -4.01726 0
M  V30 5880 N 548.375 1.56261 0.205012 0
M  V30 5881 C 549.621 1.80306 0.9283 0
M  V30 5882 C 549.954 0.640932 1.83319 0
M  V30 5883 O 549.229 -0.359032 1.91158 0
M  V30 5884 C 549.512 3.14547 1.75306 0
M  V30 5885 C 549.365 4.41236 0.873562 0
M  V30 5886 C 550.684 3.45382 2.72762 0
M  V30 5887 H 547.803 0.655929 0.336044 0
M  V30 5888 H 550.445 1.88984 0.196211 0
M  V30 5889 H 548.595 3.0728 2.37721 0
M  V30 5890 H 550.267 4.60539 0.264887 0
M  V30 5891 H 548.51 4.33427 0.179773 0
M  V30 5892 H 549.181 5.31639 1.48541 0
M  V30 5893 H 551.657 3.52884 2.20481 0
M  V30 5894 H 550.533 4.40449 3.2756 0
M  V30 5895 H 550.794 2.68377 3.51321 0
M  V30 5896 N 549.853 -0.472356 1.50355 0
M  V30 5897 C 550.816 -1.5529 1.68576 0
M  V30 5898 C 551.816 -1.50863 0.556511 0
M  V30 5899 O 553.006 -1.53505 0.823516 0
M  V30 5900 C 550.138 -2.94921 1.70981 0
M  V30 5901 H 551.331 -1.40451 2.64978 0
M  V30 5902 H 548.884 -0.698645 1.39816 0
M  V30 5903 H 549.619 -3.15204 0.762675 0
M  V30 5904 H 549.404 -2.99541 2.53017 0
M  V30 5905 H 550.894 -3.73372 1.87037 0
M  V30 5906 N 551.331 -1.39911 -0.725443 0
M  V30 5907 C 552.261 -1.42138 -1.85254 0
M  V30 5908 C 553.242 -0.283513 -1.67721 0
M  V30 5909 O 554.427 -0.490717 -1.87898 0
M  V30 5910 C 551.557 -1.27354 -3.23107 0
M  V30 5911 C 550.511 -2.3864 -3.55296 0
M  V30 5912 C 549.837 -2.08939 -4.92188 0
M  V30 5913 C 551.137 -3.8097 -3.57295 0
M  V30 5914 H 552.831 -2.36461 -1.83648 0
M  V30 5915 H 550.377 -1.13817 -0.882138 0
M  V30 5916 H 552.33 -1.2753 -4.01639 0
M  V30 5917 H 551.054 -0.295025 -3.25265 0
M  V30 5918 H 549.713 -2.37696 -2.79099 0
M  V30 5919 H 549.361 -1.09502 -4.90936 0
M  V30 5920 H 549.061 -2.83491 -5.14691 0
M  V30 5921 H 550.585 -2.10781 -5.73065 0
M  V30 5922 H 551.999 -3.8379 -4.25885 0
M  V30 5923 H 550.396 -4.5496 -3.9132 0
M  V30 5924 H 551.466 -4.11261 -2.5689 0
M  V30 5925 N 552.809 0.956637 -1.25245 0
M  V30 5926 C 554.034 1.74104 -1.12706 0
M  V30 5927 C 554.459 1.85436 0.315429 0
M  V30 5928 O 553.817 1.33334 1.22848 0
M  V30 5929 C 553.865 3.1338 -1.78396 0
M  V30 5930 O 552.969 3.98485 -1.06224 0
M  V30 5931 H 552.31 0.53476 -0.393609 0
M  V30 5932 H 554.84 1.19924 -1.65769 0
M  V30 5933 H 554.85 3.6385 -1.846 0
M  V30 5934 H 553.525 3.04448 -2.83345 0
M  V30 5935 H 552.102 3.56952 -1.07886 0
M  V30 5936 N 554.287 1.06798 1.15896 0
M  V30 5937 C 555.22 0.627503 2.19403 0
M  V30 5938 C 556.198 -0.352352 1.58736 0
M  V30 5939 O 557.382 -0.260111 1.86697 0
M  V30 5940 C 554.509 -0.079356 3.38607 0
M  V30 5941 C 553.555 0.858057 4.17779 0
M  V30 5942 S 554.388 2.35605 4.80885 0
M  V30 5943 C 555.544 1.66083 6.03463 0
M  V30 5944 H 555.777 1.50441 2.56427 0
M  V30 5945 H 553.31 0.881427 1.26768 0
M  V30 5946 H 555.268 -0.48095 4.07673 0
M  V30 5947 H 553.929 -0.932524 2.99938 0
M  V30 5948 H 553.122 0.310108 5.03045 0
M  V30 5949 H 552.724 1.19977 3.54234 0
M  V30 5950 H 555.016 0.969337 6.7053 0
M  V30 5951 H 555.959 2.49159 6.62816 0
M  V30 5952 H 556.367 1.14122 5.52844 0
M  V30 5953 N 555.766 -1.3263 0.851289 0
M  V30 5954 C 556.676 -2.32722 0.296268 0
M  V30 5955 C 557.692 -1.63901 -0.584162 0
M  V30 5956 O 558.868 -1.95465 -0.485334 0
M  V30 5957 C 555.933 -3.42942 -0.509103 0
M  V30 5958 C 554.994 -4.2746 0.397069 0
M  V30 5959 C 554.227 -5.32416 -0.36996 0
M  V30 5960 O 554.45 -5.47491 -1.6003 0
M  V30 5961 O 553.384 -6.01327 0.262493 0
M  V30 5962 H 557.21 -2.82078 1.12543 0
M  V30 5963 H 554.795 -1.36194 0.614135 0
M  V30 5964 H 556.677 -4.1017 -0.96634 0
M  V30 5965 H 555.352 -2.95781 -1.31512 0
M  V30 5966 H 554.259 -3.63053 0.902411 0
M  V30 5967 H 555.592 -4.78136 1.16818 0
M  V30 5968 N 557.244 -0.608902 -1.45362 0
M  V30 5969 C 558.492 -0.104401 -2.0183 0
M  V30 5970 C 558.813 1.27007 -1.47967 0
M  V30 5971 O 558.083 1.83924 -0.674455 0
M  V30 5972 H 556.663 -0.0356042 -0.746151 0
M  V30 5973 H 559.325 -0.790596 -1.78145 0
M  V30 5974 H 558.421 -0.0551793 -3.12051 0
M  V30 5975 N 558.722 1.53707 -0.348139 0
M  V30 5976 C 559.968 2.01286 0.247332 0
M  V30 5977 C 560.301 1.23546 1.49834 0
M  V30 5978 O 559.576 0.324331 1.91777 0
M  V30 5979 C 559.859 3.55768 0.556858 0
M  V30 5980 C 559.712 4.44216 -0.706564 0
M  V30 5981 C 561.031 4.1841 1.3646 0
M  V30 5982 H 558.15 0.731677 0.0884201 0
M  V30 5983 H 560.792 1.84106 -0.469584 0
M  V30 5984 H 558.942 3.70539 1.16761 0
M  V30 5985 H 560.614 4.41274 -1.34444 0
M  V30 5986 H 558.857 4.12892 -1.33052 0
M  V30 5987 H 559.528 5.50202 -0.445186 0
M  V30 5988 H 562.004 4.07365 0.848113 0
M  V30 5989 H 560.88 5.26563 1.54992 0
M  V30 5990 H 561.141 3.7333 2.36805 0
M  V30 5991 N 560.2 0.0768682 1.57412 0
M  V30 5992 C 561.616 -0.279772 1.57129 0
M  V30 5993 C 561.816 -1.69688 1.08666 0
M  V30 5994 O 560.872 -2.40953 0.754843 0
M  V30 5995 C 562.185 -0.0848055 3.0058 0
M  V30 5996 C 563.733 -0.153954 3.12621 0
M  V30 5997 C 564.208 0.0127946 4.57998 0
M  V30 5998 N 565.699 -0.0426435 4.6318 0
M  V30 5999 C 566.434 0.0618892 5.73367 0
M  V30 6000 N 565.93 0.220229 6.9245 0
M  V30 6001 N 567.723 0.00446072 5.621 0
M  V30 6002 H 559.874 1.00297 1.87228 0
M  V30 6003 H 562.137 0.391565 0.863354 0
M  V30 6004 H 561.843 0.89325 3.40168 0
M  V30 6005 H 561.717 -0.834961 3.67843 0
M  V30 6006 H 564.104 -1.1225 2.72917 0
M  V30 6007 H 564.185 0.627389 2.47987 0
M  V30 6008 H 563.829 0.978128 4.98392 0
M  V30 6009 H 563.759 -0.788016 5.20671 0
M  V30 6010 H 566.25 -0.163226 3.77547 0
M  V30 6011 H 566.563 0.291999 7.72248 0
M  V30 6012 H 564.908 0.255658 6.9453 0
M  V30 6013 H 568.099 -0.117979 4.67951 0
M  V30 6014 H 568.272 0.0893796 6.47938 0
M  V30 6015 N 561.678 -1.56367 -0.196722 0
M  V30 6016 C 562.924 -1.81698 -0.914182 0
M  V30 6017 C 563.279 -0.65367 -1.80956 0
M  V30 6018 O 562.572 0.351224 -1.88353 0
M  V30 6019 C 562.766 -3.10663 -1.767 0
M  V30 6020 C 562.595 -4.39428 -0.955689 0
M  V30 6021 C 561.365 -5.01221 -0.64076 0
M  V30 6022 C 563.563 -5.1337 -0.309165 0
M  V30 6023 N 561.545 -6.13608 0.189358 0
M  V30 6024 C 562.916 -6.18815 0.383225 0
M  V30 6025 C 564.971 -4.97393 -0.224726 0
M  V30 6026 C 563.674 -7.10015 1.15201 0
M  V30 6027 C 565.7 -5.89014 0.530658 0
M  V30 6028 C 565.062 -6.93903 1.2115 0
M  V30 6029 H 561.161 -0.716203 -0.31397 0
M  V30 6030 H 563.745 -1.93838 -0.18304 0
M  V30 6031 H 561.916 -2.99762 -2.46976 0
M  V30 6032 H 563.648 -3.24088 -2.42382 0
M  V30 6033 H 560.403 -4.63669 -0.96479 0
M  V30 6034 H 560.827 -6.74389 0.593979 0
M  V30 6035 H 565.469 -4.16331 -0.736754 0
M  V30 6036 H 563.187 -7.9054 1.67547 0
M  V30 6037 H 566.773 -5.78726 0.597326 0
M  V30 6038 H 565.653 -7.63576 1.78665 0
M  V30 6039 N 563.156 0.464375 -1.50603 0
M  V30 6040 C 564.119 1.54393 -1.69397 0
M  V30 6041 C 565.119 1.50566 -0.564504 0
M  V30 6042 O 566.309 1.53066 -0.831645 0
M  V30 6043 C 563.441 2.9401 -1.72543 0
M  V30 6044 H 564.634 1.39044 -2.65719 0
M  V30 6045 H 562.187 0.69122 -1.40185 0
M  V30 6046 H 562.922 3.14795 -0.77938 0
M  V30 6047 H 562.707 2.98195 -2.54602 0
M  V30 6048 H 564.197 3.72375 -1.89015 0
M  V30 6049 N 564.634 1.40294 0.718013 0
M  V30 6050 C 566.05 1.2227 1.02577 0
M  V30 6051 C 566.25 0.0961976 2.0127 0
M  V30 6052 O 565.306 -0.546695 2.46511 0
M  V30 6053 C 566.619 2.56348 1.57182 0
M  V30 6054 C 568.167 2.6334 1.69178 0
M  V30 6055 C 568.642 3.9768 2.27188 0
M  V30 6056 N 570.133 3.99409 2.34578 0
M  V30 6057 C 570.868 5.00141 2.8044 0
M  V30 6058 N 570.364 6.11268 3.26073 0
M  V30 6059 N 572.157 4.87511 2.79802 0
M  V30 6060 H 564.308 2.12304 0.0637899 0
M  V30 6061 H 566.571 0.943632 0.0909036 0
M  V30 6062 H 566.277 3.3942 0.921262 0
M  V30 6063 H 566.151 2.77266 2.55741 0
M  V30 6064 H 568.538 1.80641 2.33351 0
M  V30 6065 H 568.619 2.46255 0.692247 0
M  V30 6066 H 568.263 4.80817 1.63638 0
M  V30 6067 H 568.193 4.12093 3.27852 0
M  V30 6068 H 570.684 3.19162 2.02346 0
M  V30 6069 H 570.997 6.84023 3.59628 0
M  V30 6070 H 569.342 6.14837 3.24038 0
M  V30 6071 H 572.533 3.9979 2.43487 0
M  V30 6072 H 572.706 5.66158 3.15228 0
M  V30 6073 N 566.112 -0.949982 1.2575 0
M  V30 6074 C 567.523 -1.50989 1.09815 0
M  V30 6075 C 567.874 -1.93497 -0.324556 0
M  V30 6076 O 566.999 -1.79068 -1.21506 0
M  V30 6077 C 567.594 -2.74394 1.98729 0
M  V30 6078 C 566.153 -3.26682 1.86965 0
M  V30 6079 C 565.3 -1.99498 1.92603 0
M  V30 6080 H 568.251 -0.766387 1.38968 0
M  V30 6081 H 568.272 -3.48383 1.53001 0
M  V30 6082 H 567.784 -2.43425 3.02268 0
M  V30 6083 H 565.885 -3.62461 0.863279 0
M  V30 6084 H 565.998 -3.94383 2.72027 0
M  V30 6085 H 564.362 -2.15005 1.36546 0
M  V30 6086 H 565.145 -1.70871 2.97755 0
M  V30 6087 N 567.59 -1.07411 -1.15328 0
M  V30 6088 C 568.82 -0.817595 -1.89734 0
M  V30 6089 C 569.228 0.63297 -1.78298 0
M  V30 6090 O 568.571 1.44594 -1.13306 0
M  V30 6091 C 568.633 -1.14748 -3.40695 0
M  V30 6092 C 568.297 -2.59876 -3.75917 0
M  V30 6093 C 569.294 -3.58122 -3.76888 0
M  V30 6094 C 566.979 -2.95469 -4.06206 0
M  V30 6095 C 568.973 -4.89996 -4.07655 0
M  V30 6096 C 566.66 -4.2754 -4.36638 0
M  V30 6097 C 567.658 -5.24614 -4.37344 0
M  V30 6098 O 567.346 -6.54312 -4.67045 0
M  V30 6099 H 567.078 -0.295175 -0.608151 0
M  V30 6100 H 569.632 -1.43409 -1.47048 0
M  V30 6101 H 567.862 -0.47395 -3.83785 0
M  V30 6102 H 569.551 -0.873397 -3.96392 0
M  V30 6103 H 570.317 -3.31966 -3.53587 0
M  V30 6104 H 566.196 -2.20558 -4.04815 0
M  V30 6105 H 569.74 -5.65759 -4.08121 0
M  V30 6106 H 565.637 -4.53449 -4.59407 0
M  V30 6107 H 566.405 -6.59473 -4.84807 0
M  V30 6108 N 569.068 1.32177 -0.85831 0
M  V30 6109 C 570.484 1.49873 -0.548656 0
M  V30 6110 C 570.684 1.79278 0.919874 0
M  V30 6111 O 569.74 1.86451 1.70271 0
M  V30 6112 C 571.053 2.64043 -1.4388 0
M  V30 6113 C 572.601 2.77928 -1.43961 0
M  V30 6114 C 573.076 3.95182 -2.31506 0
M  V30 6115 N 574.567 4.0245 -2.29321 0
M  V30 6116 C 575.302 4.9242 -2.93786 0
M  V30 6117 N 574.798 5.87373 -3.67376 0
M  V30 6118 N 576.591 4.85572 -2.83155 0
M  V30 6119 H 568.742 1.11357 -1.80868 0
M  V30 6120 H 571.005 0.549175 -0.772729 0
M  V30 6121 H 570.711 2.49055 -2.48324 0
M  V30 6122 H 570.585 3.59912 -1.12885 0
M  V30 6123 H 572.972 2.92338 -0.402813 0
M  V30 6124 H 573.053 1.82762 -1.78974 0
M  V30 6125 H 572.697 3.81531 -3.35256 0
M  V30 6126 H 572.627 4.89633 -1.93823 0
M  V30 6127 H 575.118 3.34507 -1.75822 0
M  V30 6128 H 575.431 6.52728 -4.13722 0
M  V30 6129 H 573.776 5.87388 -3.71484 0
M  V30 6130 H 576.967 4.10363 -2.25211 0
M  V30 6131 H 577.14 5.55486 -3.33676 0
M  V30 6132 N 570.547 0.616602 1.45037 0
M  V30 6133 C 571.772 0.120192 2.07051 0
M  V30 6134 C 572.197 -1.19008 1.45666 0
M  V30 6135 O 571.555 -1.7267 0.552692 0
M  V30 6136 C 571.603 0.00354901 3.606 0
M  V30 6137 O 570.707 -1.04431 3.98958 0
M  V30 6138 H 570.048 0.0781599 0.659384 0
M  V30 6139 H 572.578 0.849167 1.86146 0
M  V30 6140 H 572.588 -0.191754 4.07549 0
M  V30 6141 H 571.263 0.960239 4.04663 0
M  V30 6142 H 569.84 -0.824749 3.63665 0
M  V30 6143 N 572.025 -1.5352 0.356285 0
M  V30 6144 C 573.302 -1.93405 -0.292223 0
M  V30 6145 C 573.682 -1.28901 -1.67176 0
M  V30 6146 O 573.03 -0.444632 -2.24132 0
M  V30 6147 C 573.24 -3.47223 -0.35175 0
M  V30 6148 C 574.588 -4.20389 -0.596534 0
M  V30 6149 O 575.612 -3.53554 -0.433344 0
M  V30 6150 O 574.471 -5.3881 -0.913589 0
M  V30 6151 H 571.565 -0.808666 -0.173172 0
M  V30 6152 H 574.111 -1.64713 0.408391 0
M  V30 6153 H 572.883 -3.86423 0.615841 0
M  V30 6154 H 572.506 -3.8212 -1.09864 0
M  V30 6155 N 573.503 -0.0852151 -1.57369 0
M  V30 6156 C 574.731 0.58946 -1.98325 0
M  V30 6157 C 575.146 1.62333 -0.96403 0
M  V30 6158 O 574.503 1.82438 0.0476395 0
M  V30 6159 C 574.554 1.24604 -3.39347 0
M  V30 6160 O 574.275 0.253532 -4.37366 0
M  V30 6161 C 575.776 2.00726 -3.95252 0
M  V30 6162 H 572.996 0.158783 -0.651942 0
M  V30 6163 H 575.54 -0.161584 -2.03861 0
M  V30 6164 H 573.695 1.94808 -3.34856 0
M  V30 6165 H 574.109 0.726207 -5.19448 0
M  V30 6166 H 575.583 2.42039 -4.96106 0
M  V30 6167 H 576.06 2.86919 -3.32527 0
M  V30 6168 H 576.666 1.3536 -4.03185 0
M  V30 6169 N 574.981 1.5647 0.188427 0
M  V30 6170 C 575.913 1.91611 1.25769 0
M  V30 6171 C 576.926 0.807436 1.41366 0
M  V30 6172 O 578.115 1.08586 1.41673 0
M  V30 6173 C 575.215 2.13874 2.6289 0
M  V30 6174 C 574.388 3.45047 2.68815 0
M  V30 6175 C 573.447 3.56342 3.87178 0
M  V30 6176 O 572.473 4.29109 3.73971 0
M  V30 6177 N 573.675 2.89924 5.02916 0
M  V30 6178 H 576.44 2.8393 0.959373 0
M  V30 6179 H 574.001 1.57418 0.378306 0
M  V30 6180 H 575.993 2.18713 3.4051 0
M  V30 6181 H 574.563 1.28022 2.85183 0
M  V30 6182 H 573.783 3.52017 1.77419 0
M  V30 6183 H 575.071 4.31395 2.6977 0
M  V30 6184 H 574.469 2.30644 5.16546 0
M  V30 6185 H 573.026 3.0038 5.78459 0
M  V30 6186 N 576.459 -0.456382 1.50847 0
M  V30 6187 C 577.391 -1.57033 1.66953 0
M  V30 6188 C 578.404 -1.53207 0.550593 0
M  V30 6189 O 579.593 -1.58328 0.824285 0
M  V30 6190 C 576.693 -2.95937 1.65149 0
M  V30 6191 C 575.866 -3.24475 2.93317 0
M  V30 6192 C 574.925 -4.43007 2.83957 0
M  V30 6193 O 573.951 -4.42592 3.57912 0
M  V30 6194 N 575.153 -5.45503 1.9851 0
M  V30 6195 H 577.918 -1.43629 2.63042 0
M  V30 6196 H 575.479 -0.645037 1.48495 0
M  V30 6197 H 577.471 -3.73224 1.56481 0
M  V30 6198 H 576.041 -3.03036 0.767343 0
M  V30 6199 H 575.261 -2.35664 3.16 0
M  V30 6200 H 576.549 -3.4036 3.78196 0
M  V30 6201 H 575.947 -5.48668 1.37766 0
M  V30 6202 H 574.504 -6.21716 1.95735 0
M  V30 6203 N 577.937 -1.40673 -0.710563 0
M  V30 6204 C 579.185 -1.38947 -1.46759 0
M  V30 6205 C 579.506 0.00572879 -1.94999 0
M  V30 6206 O 578.776 0.961358 -1.70689 0
M  V30 6207 H 577.356 -0.5114 -0.544499 0
M  V30 6208 H 580.018 -1.75773 -0.842012 0
M  V30 6209 H 579.114 -2.06745 -2.33801 0
M  V30 6210 N 579.415 0.9433 -1.26252 0
M  V30 6211 C 580.826 1.50404 -1.10614 0
M  V30 6212 C 581.177 1.93666 0.31429 0
M  V30 6213 O 580.302 1.79709 1.20555 0
M  V30 6214 C 580.897 2.73336 -2.00182 0
M  V30 6215 C 579.456 3.25686 -1.88695 0
M  V30 6216 C 578.603 1.98474 -1.93658 0
M  V30 6217 H 581.554 0.759006 -1.39373 0
M  V30 6218 H 581.575 3.47567 -1.54847 0
M  V30 6219 H 581.087 2.41818 -3.03555 0
M  V30 6220 H 579.188 3.61998 -0.882489 0
M  V30 6221 H 579.301 3.92935 -2.74115 0
M  V30 6222 H 577.665 2.14278 -1.37684 0
M  V30 6223 H 578.448 1.6929 -2.98657 0
M  V30 6224 N 580.893 1.08022 1.14757 0
M  V30 6225 C 582.121 0.828847 1.89572 0
M  V30 6226 C 582.536 -0.618621 1.78377 0
M  V30 6227 O 581.893 -1.42482 1.1404 0
M  V30 6228 C 581.944 1.23677 3.39685 0
M  V30 6229 O 581.665 2.62746 3.50566 0
M  V30 6230 C 583.166 1.01569 4.31507 0
M  V30 6231 H 580.386 0.299196 0.600602 0
M  V30 6232 H 582.93 1.43846 1.45357 0
M  V30 6233 H 581.085 0.671347 3.81539 0
M  V30 6234 H 581.499 2.79573 4.43778 0
M  V30 6235 H 582.973 1.35055 5.35223 0
M  V30 6236 H 583.45 -0.0475433 4.39174 0
M  V30 6237 H 584.056 1.56636 3.95405 0
M  V30 6238 N 582.371 -1.3172 0.865308 0
M  V30 6239 C 583.782 -1.79104 0.527126 0
M  V30 6240 C 584.133 -1.7135 -0.955695 0
M  V30 6241 O 583.258 -1.27845 -1.74598 0
M  V30 6242 C 583.853 -3.25207 0.950061 0
M  V30 6243 C 582.412 -3.70504 0.663611 0
M  V30 6244 C 581.559 -2.52605 1.14395 0
M  V30 6245 H 584.51 -1.18868 1.05148 0
M  V30 6246 H 584.531 -3.79535 0.270805 0
M  V30 6247 H 584.043 -3.30818 2.02931 0
M  V30 6248 H 582.144 -3.70398 -0.404474 0
M  V30 6249 H 582.257 -4.62845 1.23737 0
M  V30 6250 H 580.621 -2.4838 0.563859 0
M  V30 6251 H 581.404 -2.60964 2.23053 0
M  V30 6252 N 583.85 -0.624285 -1.44708 0
M  V30 6253 C 585.266 -0.289322 -1.56956 0
M  V30 6254 C 585.466 1.20773 -1.61295 0
M  V30 6255 O 584.522 1.9915 -1.55227 0
M  V30 6256 C 585.835 -0.975215 -2.84447 0
M  V30 6257 C 587.383 -0.952709 -2.98148 0
M  V30 6258 C 587.858 -1.61893 -4.28433 0
M  V30 6259 N 589.349 -1.5852 -4.35231 0
M  V30 6260 C 590.084 -2.06969 -5.34744 0
M  V30 6261 N 589.58 -2.63579 -6.40701 0
M  V30 6262 N 591.373 -1.97638 -5.26209 0
M  V30 6263 H 583.524 -1.59612 -1.40135 0
M  V30 6264 H 585.787 -0.669592 -0.671081 0
M  V30 6265 H 585.493 -2.02999 -2.87201 0
M  V30 6266 H 585.367 -0.508749 -3.73753 0
M  V30 6267 H 587.754 0.093568 -2.94952 0
M  V30 6268 H 587.835 -1.4576 -2.10209 0
M  V30 6269 H 587.479 -2.66463 -4.32389 0
M  V30 6270 H 587.409 -1.08893 -5.15218 0
M  V30 6271 H 589.899 -1.17183 -3.59272 0
M  V30 6272 H 590.213 -2.98298 -7.12908 0
M  V30 6273 H 588.558 -2.67626 -6.41406 0
M  V30 6274 H 591.749 -1.5314 -4.42341 0
M  V30 6275 H 591.922 -2.35708 -6.03611 0
M  V30 6276 N 585.328 1.53329 -0.364422 0
M  V30 6277 C 586.275 2.25698 0.482607 0
M  V30 6278 C 587.245 1.26325 1.07848 0
M  V30 6279 O 588.43 1.55104 1.11119 0
M  V30 6280 C 585.57 3.04873 1.61699 0
M  V30 6281 C 584.683 4.19135 1.0464 0
M  V30 6282 C 583.818 4.85754 2.14979 0
M  V30 6283 C 582.857 5.9205 1.5538 0
M  V30 6284 N 581.994 6.52365 2.59547 0
M  V30 6285 H 586.834 2.97666 -0.141032 0
M  V30 6286 H 584.371 1.46875 -0.0813692 0
M  V30 6287 H 586.329 3.49051 2.28516 0
M  V30 6288 H 584.959 2.35162 2.2113 0
M  V30 6289 H 584.011 3.79451 0.268553 0
M  V30 6290 H 585.323 4.95525 0.570653 0
M  V30 6291 H 584.477 5.3311 2.89619 0
M  V30 6292 H 583.216 4.08834 2.65906 0
M  V30 6293 H 582.221 5.44058 0.792549 0
M  V30 6294 H 583.446 6.7089 1.0528 0
M  V30 6295 H 581.392 5.78298 3.09689 0
M  V30 6296 H 581.309 7.2429 2.16655 0
M  V30 6297 H 582.577 7.0437 3.33892 0
M  V30 6298 N 586.806 0.0935595 1.57322 0
M  V30 6299 C 588.052 -0.571355 1.94585 0
M  V30 6300 C 588.385 -1.67929 0.975366 0
M  V30 6301 O 587.66 -1.94498 0.00816206 0
M  V30 6302 C 587.943 -1.12797 3.41978 0
M  V30 6303 C 587.796 -0.0251881 4.49793 0
M  V30 6304 C 589.115 -2.02682 3.90651 0
M  V30 6305 H 586.234 -0.206223 0.70756 0
M  V30 6306 H 588.876 0.163956 1.89291 0
M  V30 6307 H 587.026 -1.75461 3.4662 0
M  V30 6308 H 588.698 0.608979 4.57263 0
M  V30 6309 H 586.941 0.641399 4.29032 0
M  V30 6310 H 587.612 -0.455433 5.50118 0
M  V30 6311 H 590.088 -1.49925 3.88152 0
M  V30 6312 H 588.964 -2.38555 4.94351 0
M  V30 6313 H 589.225 -2.94362 3.29854 0
M  V30 6314 N 588.284 -1.56567 -0.180126 0
M  V30 6315 C 589.512 -1.85618 -0.913972 0
M  V30 6316 C 589.927 -0.677892 -1.7621 0
M  V30 6317 O 589.284 0.353171 -1.7905 0
M  V30 6318 C 589.335 -3.13619 -1.79793 0
M  V30 6319 O 589.056 -4.26906 -0.98402 0
M  V30 6320 C 590.557 -3.55954 -2.64219 0
M  V30 6321 H 587.777 -0.616043 -0.265954 0
M  V30 6322 H 590.321 -2.03681 -0.182872 0
M  V30 6323 H 588.476 -2.97409 -2.48247 0
M  V30 6324 H 588.89 -4.9989 -1.58776 0
M  V30 6325 H 590.364 -4.48444 -3.21873 0
M  V30 6326 H 590.841 -2.79653 -3.38661 0
M  V30 6327 H 591.447 -3.74746 -2.01111 0
M  V30 6328 N 589.762 0.448376 -1.51087 0
M  V30 6329 C 591.039 1.20926 -1.53741 0
M  V30 6330 C 591.419 2.09025 -0.295222 0
M  V30 6331 O 590.767 2.16851 0.720283 0
M  V30 6332 C 590.977 2.02067 -2.84552 0
M  V30 6333 C 592.325 2.59486 -3.36084 0
M  V30 6334 O 593.349 2.12289 -2.86028 0
M  V30 6335 O 592.208 3.45539 -4.23397 0
M  V30 6336 H 589.302 0.549951 -0.617643 0
M  V30 6337 H 591.848 0.458344 -1.63393 0
M  V30 6338 H 590.62 1.37291 -3.66425 0
M  V30 6339 H 590.243 2.84246 -2.78011 0
M  V30 6340 N 591.24 1.41047 0.703093 0
M  V30 6341 C 592.486 1.40207 1.46526 0
M  V30 6342 C 592.819 0.00847763 1.94198 0
M  V30 6343 O 592.094 -0.962437 1.69019 0
M  V30 6344 C 592.377 2.40238 2.6825 0
M  V30 6345 C 592.23 3.88674 2.26391 0
M  V30 6346 C 593.549 2.37627 3.70434 0
M  V30 6347 H 590.668 0.510594 0.531472 0
M  V30 6348 H 593.31 1.72271 0.801422 0
M  V30 6349 H 591.46 2.13026 3.24888 0
M  V30 6350 H 593.132 4.2676 1.75138 0
M  V30 6351 H 591.375 4.03903 1.58255 0
M  V30 6352 H 592.046 4.542 3.13698 0
M  V30 6353 H 594.522 2.61759 3.23452 0
M  V30 6354 H 593.398 3.09645 4.53223 0
M  V30 6355 H 593.659 1.39223 4.19606 0
M  V30 6356 N 592.718 -0.936591 1.26751 0
M  V30 6357 C 593.648 -2.05315 1.11212 0
M  V30 6358 C 594.629 -1.70092 0.0160262 0
M  V30 6359 O 595.814 -1.93279 0.188894 0
M  V30 6360 C 592.944 -3.39123 0.749171 0
M  V30 6361 C 591.898 -3.88425 1.79751 0
M  V30 6362 C 591.224 -5.18936 1.28876 0
M  V30 6363 C 592.524 -4.12798 3.19992 0
M  V30 6364 H 594.218 -2.18573 2.04613 0
M  V30 6365 H 591.764 -1.05027 0.985159 0
M  V30 6366 H 593.717 -4.16704 0.627323 0
M  V30 6367 H 592.441 -3.25855 -0.220543 0
M  V30 6368 H 591.1 -3.13028 1.90811 0
M  V30 6369 H 590.748 -5.02051 0.308757 0
M  V30 6370 H 590.448 -5.52892 1.98958 0
M  V30 6371 H 591.972 -5.99096 1.17967 0
M  V30 6372 H 593.386 -4.80977 3.11983 0
M  V30 6373 H 591.783 -4.58044 3.87705 0
M  V30 6374 H 592.853 -3.18412 3.65707 0
M  V30 6375 N 594.196 -1.08629 -1.14182 0
M  V30 6376 C 595.128 -0.676189 -2.18998 0
M  V30 6377 C 596.141 0.277871 -1.60411 0
M  V30 6378 O 597.33 0.0651771 -1.78381 0
M  V30 6379 C 594.43 0.0254916 -3.3889 0
M  V30 6380 C 593.603 -0.948039 -4.27002 0
M  V30 6381 C 592.662 -0.281268 -5.25448 0
M  V30 6382 O 591.688 -0.926378 -5.61611 0
M  V30 6383 N 592.89 0.967923 -5.72374 0
M  V30 6384 H 595.655 -1.57792 -2.54798 0
M  V30 6385 H 593.216 -0.972665 -1.29425 0
M  V30 6386 H 595.208 0.482554 -4.01813 0
M  V30 6387 H 593.778 0.829348 -3.01398 0
M  V30 6388 H 592.998 -1.58388 -3.6098 0
M  V30 6389 H 594.286 -1.60765 -4.82734 0
M  V30 6390 H 593.684 1.51175 -5.45126 0
M  V30 6391 H 592.241 1.36844 -6.37273 0
M  V30 6392 N 595.674 1.31259 -0.872281 0
M  V30 6393 C 596.902 2.00795 -0.498907 0
M  V30 6394 C 597.317 1.65464 0.909238 0
M  V30 6395 O 596.674 0.885073 1.59602 0
M  V30 6396 C 596.725 3.55625 -0.649092 0
M  V30 6397 O 596.446 3.89692 -2.00179 0
M  V30 6398 C 597.947 4.42434 -0.277034 0
M  V30 6399 H 595.167 0.642299 -0.194145 0
M  V30 6400 H 597.711 1.67438 -1.17408 0
M  V30 6401 H 595.866 3.87394 -0.0214402 0
M  V30 6402 H 596.28 4.84407 -2.01122 0
M  V30 6403 H 597.754 5.50299 -0.433064 0
M  V30 6404 H 598.231 4.32146 0.783989 0
M  V30 6405 H 598.837 4.16086 -0.880483 0
M  V30 6406 N 597.152 0.631951 1.44375 0
M  V30 6407 C 598.4 0.136497 2.01639 0
M  V30 6408 C 598.721 -1.24637 1.49969 0
M  V30 6409 O 597.991 -1.82827 0.70363 0
M  V30 6410 H 596.571 0.0474703 0.74549 0
M  V30 6411 H 599.233 0.818837 1.76865 0
M  V30 6412 H 598.329 0.104817 3.11924 0
M  V30 6413 N 598.631 -1.53133 0.372548 0
M  V30 6414 C 599.563 -2.23557 -0.505444 0
M  V30 6415 C 600.576 -1.25211 -1.04049 0
M  V30 6416 O 601.765 -1.51391 -0.945675 0
M  V30 6417 C 598.865 -2.92516 -1.71136 0
M  V30 6418 C 598.038 -4.17428 -1.30661 0
M  V30 6419 C 597.097 -4.69535 -2.37536 0
M  V30 6420 O 596.123 -5.33042 -1.99637 0
M  V30 6421 N 597.325 -4.47947 -3.6922 0
M  V30 6422 H 600.09 -2.9954 0.0978259 0
M  V30 6423 H 597.651 -1.60684 0.198068 0
M  V30 6424 H 599.643 -3.24281 -2.42124 0
M  V30 6425 H 598.213 -2.19944 -2.22134 0
M  V30 6426 H 597.433 -3.91888 -0.426292 0
M  V30 6427 H 598.721 -4.98622 -1.01259 0
M  V30 6428 H 598.119 -3.97219 -4.02783 0
M  V30 6429 H 596.676 -4.84245 -4.36292 0
M  V30 6430 N 600.109 -0.101901 -1.5727 0
M  V30 6431 C 601.041 0.884723 -2.11436 0
M  V30 6432 C 602.054 1.24149 -1.05314 0
M  V30 6433 O 603.243 1.19341 -1.3274 0
M  V30 6434 C 600.343 2.19179 -2.58484 0
M  V30 6435 C 599.516 2.00933 -3.88516 0
M  V30 6436 C 598.575 3.15213 -4.2134 0
M  V30 6437 O 597.601 2.88877 -4.90448 0
M  V30 6438 N 598.803 4.41174 -3.77288 0
M  V30 6439 H 601.568 0.422058 -2.96713 0
M  V30 6440 H 599.129 0.0830128 -1.61687 0
M  V30 6441 H 601.121 2.94593 -2.77484 0
M  V30 6442 H 599.691 2.56847 -1.7818 0
M  V30 6443 H 598.911 1.09809 -3.78597 0
M  V30 6444 H 600.199 1.86026 -4.73573 0
M  V30 6445 H 599.597 4.6545 -3.21516 0
M  V30 6446 H 598.154 5.13515 -4.01429 0
M  V30 6447 N 601.587 1.56661 0.17182 0
M  V30 6448 C 602.836 1.81158 0.886831 0
M  V30 6449 C 603.149 0.679072 1.83434 0
M  V30 6450 O 604.355 0.808964 2.59168 0
M  V30 6451 C 602.811 3.20999 1.6275 0
M  V30 6452 C 602.419 4.42117 0.723652 0
M  V30 6453 C 604.163 3.5479 2.33076 0
M  V30 6454 C 602.07 5.7298 1.46452 0
M  V30 6455 H 601 0.675543 0.334899 0
M  V30 6456 H 603.651 1.82967 0.139765 0
M  V30 6457 H 602.033 3.13506 2.4193 0
M  V30 6458 H 603.207 4.60789 -0.0311485 0
M  V30 6459 H 601.522 4.16197 0.130063 0
M  V30 6460 H 604.119 4.49806 2.89099 0
M  V30 6461 H 604.462 2.79646 3.08389 0
M  V30 6462 H 604.995 3.63834 1.6084 0
M  V30 6463 H 601.734 6.51152 0.753729 0
M  V30 6464 H 601.254 5.58285 2.19266 0
M  V30 6465 H 602.933 6.14916 2.01214 0
M  V30 6466 N 603.065 -0.440357 1.51323 0
M  V30 6467 C 604.311 -1.18874 1.65047 0
M  V30 6468 C 604.666 -1.88988 0.360742 0
M  V30 6469 O 603.959 -1.80479 -0.643272 0
M  V30 6470 C 604.153 -2.2339 2.78984 0
M  V30 6471 C 603.982 -1.63534 4.18911 0
M  V30 6472 C 602.752 -1.42158 4.84891 0
M  V30 6473 C 604.95 -1.11324 5.02107 0
M  V30 6474 N 602.932 -0.778679 6.08942 0
M  V30 6475 C 604.303 -0.595421 6.17134 0
M  V30 6476 C 606.358 -1.00471 4.87658 0
M  V30 6477 C 605.061 0.0202557 7.19297 0
M  V30 6478 C 607.087 -0.402928 5.90026 0
M  V30 6479 C 606.449 0.10436 7.04323 0
M  V30 6480 H 602.548 -0.422771 0.657866 0
M  V30 6481 H 605.132 -0.485814 1.88542 0
M  V30 6482 H 603.303 -2.91074 2.57158 0
M  V30 6483 H 605.035 -2.90366 2.81904 0
M  V30 6484 H 601.79 -1.68247 4.42707 0
M  V30 6485 H 602.214 -0.474755 6.75333 0
M  V30 6486 H 606.856 -1.38278 3.99548 0
M  V30 6487 H 604.574 0.410468 8.07057 0
M  V30 6488 H 608.16 -0.320897 5.80914 0
M  V30 6489 H 607.04 0.562697 7.82179 0
M  V30 6490 N 604.543 -1.41418 -0.695603 0
M  V30 6491 C 605.789 -1.40982 -1.4578 0
M  V30 6492 C 606.122 -0.0187763 -1.94191 0
M  V30 6493 O 605.397 0.95346 -1.69527 0
M  V30 6494 C 605.68 -2.41657 -2.66972 0
M  V30 6495 C 605.533 -3.89869 -2.24327 0
M  V30 6496 C 606.852 -2.39589 -3.69168 0
M  V30 6497 H 603.971 -0.513405 -0.528757 0
M  V30 6498 H 606.613 -1.72693 -0.792275 0
M  V30 6499 H 604.763 -2.14746 -3.23754 0
M  V30 6500 H 606.435 -4.27683 -1.72872 0
M  V30 6501 H 604.678 -4.04737 -1.56111 0
M  V30 6502 H 605.349 -4.55857 -3.11285 0
M  V30 6503 H 607.825 -2.63471 -3.2206 0
M  V30 6504 H 606.701 -3.12044 -4.51575 0
M  V30 6505 H 606.962 -1.41447 -4.18862 0
M  V30 6506 N 606.021 0.929856 -1.27246 0
M  V30 6507 C 607.437 1.20542 -1.04603 0
M  V30 6508 C 607.637 2.00276 0.221754 0
M  V30 6509 O 606.693 2.34835 0.927833 0
M  V30 6510 C 608.006 1.95566 -2.28417 0
M  V30 6511 C 609.554 2.08513 -2.33433 0
M  V30 6512 C 610.029 2.86943 -3.5697 0
M  V30 6513 N 611.52 2.94512 -3.57515 0
M  V30 6514 C 612.255 3.55656 -4.49774 0
M  V30 6515 N 611.751 4.18209 -5.52334 0
M  V30 6516 N 613.544 3.53038 -4.37402 0
M  V30 6517 H 605.695 0.397113 -2.08655 0
M  V30 6518 H 607.958 0.238277 -0.917566 0
M  V30 6519 H 607.664 1.44395 -3.20691 0
M  V30 6520 H 607.538 2.9619 -2.33563 0
M  V30 6521 H 609.925 2.58872 -1.41666 0
M  V30 6522 H 610.006 1.07117 -2.32292 0
M  V30 6523 H 609.65 2.37268 -4.49072 0
M  V30 6524 H 609.58 3.8862 -3.55362 0
M  V30 6525 H 612.071 2.50053 -2.83341 0
M  V30 6526 H 612.384 4.62796 -6.18902 0
M  V30 6527 H 610.729 4.16761 -5.56179 0
M  V30 6528 H 613.92 3.0337 -3.56489 0
M  V30 6529 H 614.093 4.004 -5.09493 0
M  V30 6530 N 607.499 1.09233 1.13605 0
M  V30 6531 C 608.431 0.687794 2.18637 0
M  V30 6532 C 609.444 -0.26936 1.60556 0
M  V30 6533 O 610.633 -0.0557162 1.78413 0
M  V30 6534 C 607.733 -0.00751901 3.38899 0
M  V30 6535 C 606.906 0.97067 4.26494 0
M  V30 6536 C 605.965 0.309129 5.25291 0
M  V30 6537 O 604.991 0.956149 5.61112 0
M  V30 6538 N 606.193 -0.937555 5.72879 0
M  V30 6539 H 608.958 1.59141 2.53957 0
M  V30 6540 H 606.519 0.979515 1.28907 0
M  V30 6541 H 608.511 -0.461238 4.02063 0
M  V30 6542 H 607.081 -0.813353 3.01833 0
M  V30 6543 H 606.301 1.603 3.60135 0
M  V30 6544 H 607.589 1.63323 4.81875 0
M  V30 6545 H 606.987 -1.48281 5.4592 0
M  V30 6546 H 605.544 -1.33463 6.3799 0
M  V30 6547 N 608.977 -1.30795 0.87923 0
M  V30 6548 C 610.223 -1.96653 0.495519 0
M  V30 6549 C 610.556 -1.69282 -0.951703 0
M  V30 6550 O 609.831 -0.994374 -1.6716 0
M  V30 6551 C 610.114 -3.51898 0.764174 0
M  V30 6552 C 609.967 -3.88808 2.2616 0
M  V30 6553 C 611.286 -4.39462 0.236825 0
M  V30 6554 H 608.405 -0.7143 0.181507 0
M  V30 6555 H 611.047 -1.54765 1.10217 0
M  V30 6556 H 609.197 -3.87709 0.247841 0
M  V30 6557 H 610.869 -3.63051 2.8459 0
M  V30 6558 H 609.112 -3.37082 2.73053 0
M  V30 6559 H 609.783 -4.97086 2.4002 0
M  V30 6560 H 612.259 -4.10528 0.678683 0
M  V30 6561 H 611.135 -5.47018 0.454176 0
M  V30 6562 H 611.396 -4.33621 -0.861683 0
M  V30 6563 N 610.455 -0.639598 -1.44038 0
M  V30 6564 C 611.703 -0.147188 -2.01563 0
M  V30 6565 C 612.024 1.2384 -1.50628 0
M  V30 6566 O 611.294 1.82452 -0.713316 0
M  V30 6567 H 609.874 -0.0514231 -0.745228 0
M  V30 6568 H 612.536 -0.828205 -1.76428 0
M  V30 6569 H 611.632 -0.121358 -3.11864 0
M  V30 6570 N 611.933 1.52934 -0.380664 0
M  V30 6571 C 613.21 1.93845 0.261417 0
M  V30 6572 C 613.59 1.31544 1.65104 0
M  V30 6573 O 612.938 0.480234 2.23397 0
M  V30 6574 C 613.148 3.47739 0.296466 0
M  V30 6575 C 614.496 4.21284 0.529578 0
M  V30 6576 O 615.52 3.54199 0.377041 0
M  V30 6577 O 614.379 5.40195 0.827753 0
M  V30 6578 H 611.473 0.811318 0.160285 0
M  V30 6579 H 614.019 1.64042 -0.434544 0
M  V30 6580 H 612.791 3.85395 -0.67724 0
M  V30 6581 H 612.414 3.8382 1.0377 0
M  V30 6582 N 613.412 0.11024 1.57214 0
M  V30 6583 C 614.375 -0.828808 2.1369 0
M  V30 6584 C 615.375 -1.20059 1.06969 0
M  V30 6585 O 616.565 -1.12754 1.32786 0
M  V30 6586 C 613.697 -2.11959 2.66994 0
M  V30 6587 H 614.89 -0.338146 2.97988 0
M  V30 6588 H 612.443 -0.138913 1.55681 0
M  V30 6589 H 613.178 -2.65476 1.8626 0
M  V30 6590 H 612.963 -1.86258 3.45037 0
M  V30 6591 H 614.453 -2.79105 3.10629 0
M  V30 6592 N 614.89 -1.56749 -0.16351 0
M  V30 6593 C 616.136 -1.83597 -0.875436 0
M  V30 6594 C 616.491 -0.691907 -1.79528 0
M  V30 6595 O 615.784 0.311193 -1.89056 0
M  V30 6596 C 615.978 -3.14342 -1.70071 0
M  V30 6597 C 615.807 -4.41356 -0.862265 0
M  V30 6598 C 614.577 -5.02467 -0.534299 0
M  V30 6599 C 616.775 -5.1391 -0.200203 0
M  V30 6600 N 614.757 -6.13068 0.31947 0
M  V30 6601 C 616.128 -6.17862 0.514398 0
M  V30 6602 C 618.183 -4.97757 -0.119171 0
M  V30 6603 C 616.886 -7.07412 1.30236 0
M  V30 6604 C 618.912 -5.87756 0.655477 0
M  V30 6605 C 618.274 -6.91178 1.35842 0
M  V30 6606 H 614.373 -0.722702 -0.298708 0
M  V30 6607 H 616.957 -1.94182 -0.141883 0
M  V30 6608 H 615.128 -3.04933 -2.40562 0
M  V30 6609 H 616.86 -3.29156 -2.35453 0
M  V30 6610 H 613.615 -4.65611 -0.866222 0
M  V30 6611 H 614.039 -6.72978 0.736893 0
M  V30 6612 H 618.681 -4.178 -0.648278 0
M  V30 6613 H 616.399 -7.86808 1.84278 0
M  V30 6614 H 619.985 -5.77328 0.719948 0
M  V30 6615 H 618.865 -7.59614 1.94822 0
M  V30 6616 N 616.368 0.432326 -1.51554 0
M  V30 6617 C 617.614 1.17997 -1.65675 0
M  V30 6618 C 617.969 1.88794 -0.37076 0
M  V30 6619 O 617.262 1.80817 0.633692 0
M  V30 6620 C 617.456 2.21907 -2.80164 0
M  V30 6621 C 617.285 1.6131 -4.19773 0
M  V30 6622 C 616.055 1.39585 -4.85638 0
M  V30 6623 C 618.253 1.08659 -5.0269 0
M  V30 6624 N 616.235 0.746374 -6.09346 0
M  V30 6625 C 617.606 0.562685 -6.17441 0
M  V30 6626 C 619.661 0.978831 -4.88184 0
M  V30 6627 C 618.364 -0.0584015 -7.19276 0
M  V30 6628 C 620.39 0.371631 -5.90231 0
M  V30 6629 C 619.752 -0.141711 -7.04257 0
M  V30 6630 H 615.851 0.419277 -0.660099 0
M  V30 6631 H 618.435 0.475809 -1.88797 0
M  V30 6632 H 616.606 2.89706 -2.58698 0
M  V30 6633 H 618.338 2.88867 -2.8344 0
M  V30 6634 H 615.093 1.65897 -4.43593 0
M  V30 6635 H 615.517 0.438934 -6.75576 0
M  V30 6636 H 620.159 1.36157 -4.00276 0
M  V30 6637 H 617.877 -0.453262 -8.06828 0
M  V30 6638 H 621.463 0.290086 -5.81076 0
M  V30 6639 H 620.343 -0.60417 -7.81869 0
M  V30 6640 N 617.846 1.41785 0.688094 0
M  V30 6641 C 618.776 1.47 1.8142 0
M  V30 6642 C 619.757 0.327881 1.6691 0
M  V30 6643 O 620.942 0.540362 1.86531 0
M  V30 6644 C 618.072 1.35876 3.19617 0
M  V30 6645 C 617.026 2.47976 3.48844 0
M  V30 6646 C 616.352 2.21915 4.86475 0
M  V30 6647 C 617.652 3.90309 3.47068 0
M  V30 6648 H 619.346 2.41247 1.77314 0
M  V30 6649 H 616.892 1.16116 0.851651 0
M  V30 6650 H 618.845 1.38134 3.98117 0
M  V30 6651 H 617.569 0.38116 3.24368 0
M  V30 6652 H 616.228 2.45013 2.72698 0
M  V30 6653 H 615.876 1.2248 4.8786 0
M  V30 6654 H 615.576 2.97037 5.06994 0
M  V30 6655 H 617.1 2.25901 5.67275 0
M  V30 6656 H 618.514 3.94947 4.1556 0
M  V30 6657 H 616.911 4.65175 3.7912 0
M  V30 6658 H 617.981 4.17927 2.45896 0
M  V30 6659 N 619.324 -0.923095 1.27737 0
M  V30 6660 C 620.287 -2.00587 1.10894 0
M  V30 6661 C 621.287 -1.60718 0.0514927 0
M  V30 6662 O 622.477 -1.71658 0.296481 0
M  V30 6663 C 619.609 -3.33829 0.690717 0
M  V30 6664 H 620.802 -2.16959 2.07048 0
M  V30 6665 H 618.355 -1.10451 1.1059 0
M  V30 6666 H 619.09 -3.23157 -0.272 0
M  V30 6667 H 618.875 -3.64125 1.45448 0
M  V30 6668 H 620.365 -4.13336 0.595252 0
M  V30 6669 N 620.802 -1.09834 -1.13024 0
M  V30 6670 C 621.734 -0.699379 -2.18269 0
M  V30 6671 C 622.747 0.260841 -1.60697 0
M  V30 6672 O 623.936 0.0462538 -1.7844 0
M  V30 6673 C 621.036 -0.0104537 -3.38898 0
M  V30 6674 C 620.209 -0.993275 -4.25973 0
M  V30 6675 C 619.268 -0.336982 -5.2512 0
M  V30 6676 O 618.294 -0.985892 -5.60597 0
M  V30 6677 N 619.496 0.90716 -5.73368 0
M  V30 6678 H 622.261 -1.60486 -2.5311 0
M  V30 6679 H 619.822 -0.986337 -1.28386 0
M  V30 6680 H 621.814 0.43991 -4.02302 0
M  V30 6681 H 620.384 0.797335 -3.0226 0
M  V30 6682 H 619.604 -1.62208 -3.5928 0
M  V30 6683 H 620.892 -1.65876 -4.81002 0
M  V30 6684 H 620.29 1.45384 -5.46699 0
M  V30 6685 H 618.847 1.30077 -6.38689 0
M  V30 6686 N 622.28 1.30327 -0.886154 0
M  V30 6687 C 623.526 1.96388 -0.505941 0
M  V30 6688 C 623.859 1.69784 0.942712 0
M  V30 6689 O 623.134 1.00322 1.6663 0
M  V30 6690 C 623.417 3.51488 -0.782826 0
M  V30 6691 C 623.27 3.87603 -2.28219 0
M  V30 6692 C 624.589 4.39331 -0.260128 0
M  V30 6693 H 621.708 0.713327 -0.185292 0
M  V30 6694 H 624.35 1.54178 -1.11036 0
M  V30 6695 H 622.5 3.87572 -0.268399 0
M  V30 6696 H 624.172 3.61537 -2.86512 0
M  V30 6697 H 622.415 3.3563 -2.74837 0
M  V30 6698 H 623.086 4.95806 -2.42653 0
M  V30 6699 H 625.562 4.10162 -0.700444 0
M  V30 6700 H 624.438 5.46769 -0.483179 0
M  V30 6701 H 624.699 4.34072 0.838674 0
M  V30 6702 N 623.758 0.647228 1.43697 0
M  V30 6703 C 625.169 0.238689 1.85168 0
M  V30 6704 C 625.52 -1.21345 1.54175 0
M  V30 6705 O 624.645 -1.92542 0.987743 0
M  V30 6706 C 625.24 0.426422 3.36106 0
M  V30 6707 C 623.799 0.0722541 3.76331 0
M  V30 6708 C 622.946 0.732153 2.6746 0
M  V30 6709 H 625.897 0.851309 1.33934 0
M  V30 6710 H 625.918 -0.32987 3.79067 0
M  V30 6711 H 625.43 1.48339 3.58632 0
M  V30 6712 H 623.531 -0.982355 3.59417 0
M  V30 6713 H 623.644 0.493541 4.76551 0
M  V30 6714 H 622.008 0.16594 2.54159 0
M  V30 6715 H 622.791 1.79204 2.92816 0
M  V30 6716 N 625.236 -1.5273 0.388769 0
M  V30 6717 C 626.146 -2.30165 -0.453993 0
M  V30 6718 C 627.162 -1.37058 -1.07197 0
M  V30 6719 O 628.338 -1.70127 -1.0779 0
M  V30 6720 C 625.403 -3.09303 -1.56628 0
M  V30 6721 C 624.464 -4.18117 -0.973467 0
M  V30 6722 C 623.697 -4.93472 -2.03275 0
M  V30 6723 O 623.92 -4.68913 -3.24772 0
M  V30 6724 O 622.854 -5.78833 -1.65034 0
M  V30 6725 H 626.68 -3.03185 0.176816 0
M  V30 6726 H 624.265 -1.4862 0.152501 0
M  V30 6727 H 626.147 -3.58648 -2.21246 0
M  V30 6728 H 624.822 -2.39098 -2.18206 0
M  V30 6729 H 623.729 -3.7297 -0.290556 0
M  V30 6730 H 625.062 -4.90556 -0.401908 0
M  V30 6731 N 626.714 -0.118576 -1.57153 0
M  V30 6732 C 627.96 0.540326 -1.95469 0
M  V30 6733 C 628.293 1.66356 -1.00196 0
M  V30 6734 O 627.568 1.94461 -0.039104 0
M  V30 6735 C 627.851 1.07342 -3.43729 0
M  V30 6736 C 627.704 -0.0463732 -4.49776 0
M  V30 6737 C 629.023 1.96442 -3.93826 0
M  V30 6738 H 626.142 0.19494 -0.710751 0
M  V30 6739 H 628.784 -0.19405 -1.89006 0
M  V30 6740 H 626.934 1.69925 -3.49368 0
M  V30 6741 H 628.606 -0.681648 -4.56236 0
M  V30 6742 H 626.849 -0.709574 -4.27957 0
M  V30 6743 H 627.52 0.367856 -5.50773 0
M  V30 6744 H 629.996 1.43731 -3.90488 0
M  V30 6745 H 628.872 2.3066 -4.98084 0
M  V30 6746 H 629.133 2.89077 -3.34495 0
M  V30 6747 N 628.193 1.56834 0.155195 0
M  V30 6748 C 629.141 1.98584 1.21107 0
M  V30 6749 C 630.135 0.876987 1.44932 0
M  V30 6750 O 631.341 1.06215 1.45322 0
M  V30 6751 H 627.716 0.632039 0.407469 0
M  V30 6752 H 629.687 2.86561 0.832195 0
M  V30 6753 C 628.436 2.37555 2.53895 0
M  V30 6754 H 627.759 3.22428 2.3639 0
M  V30 6755 H 629.199 2.70598 3.26424 0
M  V30 6756 C 627.658 1.22507 3.13837 0
M  V30 6757 O 628.188 0.521388 3.98302 0
M  V30 6758 N 626.394 0.991444 2.73164 0
M  V30 6759 H 625.941 1.56544 2.04577 0
M  V30 6760 H 625.899 0.223546 3.13604 0
M  V30 6761 N 629.671 -0.424282 1.51781 0
M  V30 6762 C 630.896 -1.19928 1.6921 0
M  V30 6763 C 631.321 -1.8392 0.394355 0
M  V30 6764 O 630.679 -1.69371 -0.646778 0
M  V30 6765 C 630.727 -2.24937 2.81843 0
M  V30 6766 O 629.831 -3.3073 2.46356 0
M  V30 6767 H 629.172 -0.35078 0.563781 0
M  V30 6768 H 631.702 -0.499401 1.98412 0
M  V30 6769 H 631.712 -2.69512 3.06312 0
M  V30 6770 H 630.387 -1.77742 3.76006 0
M  V30 6771 H 628.964 -2.9154 2.32505 0
M  V30 6772 N 631.149 -1.42148 -0.680565 0
M  V30 6773 C 632.112 -1.4488 -1.77602 0
M  V30 6774 C 633.112 -0.337209 -1.57224 0
M  V30 6775 O 634.302 -0.597778 -1.63622 0
M  V30 6776 C 631.434 -1.27483 -3.16166 0
M  V30 6777 H 632.627 -2.42412 -1.76568 0
M  V30 6778 H 630.18 -1.28511 -0.889645 0
M  V30 6779 H 630.915 -0.30851 -3.22829 0
M  V30 6780 H 630.7 -2.08037 -3.3236 0
M  V30 6781 H 632.19 -1.32265 -3.96101 0
M  V30 6782 N 632.627 0.916307 -1.28225 0
M  V30 6783 C 633.557 2.0352 -1.14464 0
M  V30 6784 C 634.538 1.70045 -0.0430844 0
M  V30 6785 O 635.723 1.92954 -0.219619 0
M  V30 6786 C 632.853 3.37889 -0.803027 0
M  V30 6787 C 631.807 3.85516 -1.85908 0
M  V30 6788 C 631.133 5.1682 -1.37116 0
M  V30 6789 C 632.433 4.07655 -3.26519 0
M  V30 6790 H 634.127 2.1529 -2.08064 0
M  V30 6791 H 631.673 1.03446 -1.00174 0
M  V30 6792 H 633.626 4.15654 -0.693537 0
M  V30 6793 H 632.35 3.26164 0.168674 0
M  V30 6794 H 631.009 3.09953 -1.95767 0
M  V30 6795 H 630.657 5.01497 -0.38859 0
M  V30 6796 H 630.357 5.49657 -2.07728 0
M  V30 6797 H 631.881 5.97143 -1.27484 0
M  V30 6798 H 633.295 4.75953 -3.19596 0
M  V30 6799 H 631.692 4.51818 -3.94943 0
M  V30 6800 H 632.762 3.12553 -3.70727 0
M  V30 6801 N 634.105 1.10431 1.1244 0
M  V30 6802 C 635.351 0.847972 1.84221 0
M  V30 6803 C 635.684 -0.624903 1.83871 0
M  V30 6804 O 634.959 -1.46074 1.28423 0
M  V30 6805 C 635.242 1.39695 3.319 0
M  V30 6806 C 635.095 2.93668 3.40704 0
M  V30 6807 C 636.414 1.03924 4.27654 0
M  V30 6808 H 633.533 0.309502 0.668863 0
M  V30 6809 H 636.175 1.36745 1.31912 0
M  V30 6810 H 634.325 0.955095 3.76577 0
M  V30 6811 H 635.997 3.46379 3.04662 0
M  V30 6812 H 634.24 3.30272 2.81252 0
M  V30 6813 H 634.911 3.27162 4.446 0
M  V30 6814 H 637.387 1.42049 3.91102 0
M  V30 6815 H 636.263 1.45027 5.29394 0
M  V30 6816 H 636.524 -0.051336 4.4207 0
M  V30 6817 N 635.583 -1.29855 0.893053 0
M  V30 6818 C 636.808 -2.00512 0.530066 0
M  V30 6819 C 637.233 -1.66446 -0.876199 0
M  V30 6820 O 636.591 -0.885446 -1.58207 0
M  V30 6821 C 636.639 -3.53308 0.721505 0
M  V30 6822 O 635.743 -4.11764 -0.228994 0
M  V30 6823 H 635.084 -0.630617 0.207891 0
M  V30 6824 H 637.614 -1.6551 1.20282 0
M  V30 6825 H 637.624 -4.03206 0.623599 0
M  V30 6826 H 636.299 -3.77439 1.74678 0
M  V30 6827 H 634.876 -3.72805 -0.0841034 0
M  V30 6828 N 637.061 -0.65484 -1.43351 0
M  V30 6829 C 638.31 -0.166215 -2.01014 0
M  V30 6830 C 638.623 1.22764 -1.52278 0
M  V30 6831 O 639.829 1.81156 -2.02224 0
M  V30 6832 C 638.285 -0.246341 -3.59056 0
M  V30 6833 C 637.893 -1.64299 -4.16785 0
M  V30 6834 C 639.637 0.184597 -4.24098 0
M  V30 6835 C 637.544 -1.67695 -5.67126 0
M  V30 6836 H 636.474 -0.0583769 -0.751737 0
M  V30 6837 H 639.125 -0.817111 -1.64303 0
M  V30 6838 H 637.507 0.472092 -3.93176 0
M  V30 6839 H 638.681 -2.3869 -3.94162 0
M  V30 6840 H 636.996 -2.02004 -3.6412 0
M  V30 6841 H 639.593 0.179088 -5.344 0
M  V30 6842 H 639.936 1.21632 -3.98135 0
M  V30 6843 H 640.469 -0.482141 -3.94867 0
M  V30 6844 H 637.208 -2.68783 -5.9786 0
M  V30 6845 H 636.728 -0.976313 -5.91801 0
M  V30 6846 H 638.407 -1.42142 -6.31193 0
M  V30 6847 N 638.539 1.52521 -0.396863 0
M  V30 6848 C 639.487 2.28217 0.44943 0
M  V30 6849 C 640.481 1.32416 1.05652 0
M  V30 6850 O 641.687 1.49925 0.996124 0
M  V30 6851 H 638.062 0.733966 0.1637 0
M  V30 6852 H 640.033 2.97658 -0.210367 0
M  V30 6853 C 638.782 3.10713 1.56054 0
M  V30 6854 H 638.105 3.84291 1.10273 0
M  V30 6855 H 639.545 3.66803 2.12677 0
M  V30 6856 C 638.004 2.23499 2.52091 0
M  V30 6857 O 638.534 1.8669 3.55682 0
M  V30 6858 N 636.74 1.8751 2.2201 0
M  V30 6859 H 636.287 2.17643 1.37802 0
M  V30 6860 H 636.245 1.29448 2.86514 0
M  V30 6861 N 640.017 0.126909 1.57088 0
M  V30 6862 C 641.428 -0.397201 1.82426 0
M  V30 6863 C 641.779 -1.66084 1.04453 0
M  V30 6864 O 640.904 -2.14534 0.283552 0
M  V30 6865 C 641.499 -0.727411 3.30899 0
M  V30 6866 C 640.058 -1.19612 3.56889 0
M  V30 6867 C 639.205 -0.20885 2.76512 0
M  V30 6868 H 642.156 0.351924 1.54749 0
M  V30 6869 H 642.177 -1.58407 3.45959 0
M  V30 6870 H 641.689 0.19247 3.87622 0
M  V30 6871 H 639.79 -2.13263 3.05532 0
M  V30 6872 H 639.903 -1.13598 4.65438 0
M  V30 6873 H 638.267 -0.697479 2.44964 0
M  V30 6874 H 639.05 0.704267 3.35998 0
M  V30 6875 N 641.495 -1.56914 -0.146875 0
M  V30 6876 C 642.427 -1.94878 -1.20645 0
M  V30 6877 C 643.44 -0.844633 -1.39175 0
M  V30 6878 O 644.629 -1.12304 -1.38744 0
M  V30 6879 C 641.729 -2.20769 -2.57127 0
M  V30 6880 C 640.902 -3.52053 -2.59572 0
M  V30 6881 C 639.961 -3.66482 -3.77594 0
M  V30 6882 O 638.987 -4.38873 -3.62462 0
M  V30 6883 N 640.189 -3.03156 -4.95052 0
M  V30 6884 H 642.954 -2.86374 -0.883757 0
M  V30 6885 H 640.515 -1.58366 -0.336436 0
M  V30 6886 H 642.507 -2.27664 -3.34591 0
M  V30 6887 H 641.077 -1.35538 -2.81688 0
M  V30 6888 H 640.297 -3.56598 -1.68023 0
M  V30 6889 H 641.585 -4.38396 -2.58238 0
M  V30 6890 H 640.983 -2.44258 -5.10249 0
M  V30 6891 H 639.54 -3.15611 -5.70292 0
M  V30 6892 N 642.974 0.416227 -1.52004 0
M  V30 6893 C 643.922 1.5272 -1.7544 0
M  V30 6894 C 644.916 1.57596 -0.621289 0
M  V30 6895 O 646.122 1.61087 -0.803172 0
M  V30 6896 H 642.497 0.507772 -0.554682 0
M  V30 6897 H 644.468 1.30136 -2.68528 0
M  V30 6898 C 643.217 2.90165 -1.91571 0
M  V30 6899 H 642.54 2.87154 -2.78178 0
M  V30 6900 H 643.98 3.67211 -2.11972 0
M  V30 6901 C 642.439 3.29947 -0.680942 0
M  V30 6902 O 642.969 4.01403 0.154527 0
M  V30 6903 N 641.175 2.8593 -0.518894 0
M  V30 6904 H 640.722 2.2795 -1.19986 0
M  V30 6905 H 640.68 3.12907 0.305985 0
M  V30 6906 N 644.452 1.42507 0.673017 0
M  V30 6907 C 645.7 1.42789 1.43023 0
M  V30 6908 C 646.021 0.0459738 1.94946 0
M  V30 6909 O 645.291 -0.915765 1.73178 0
M  V30 6910 H 643.871 0.525657 0.530748 0
M  V30 6911 H 646.533 1.77944 0.795113 0
M  V30 6912 H 645.629 2.12872 2.28237 0
M  V30 6913 N 645.93 -0.909495 1.28709 0
M  V30 6914 C 646.893 -1.99399 1.13016 0
M  V30 6915 C 647.893 -1.60654 0.068536 0
M  V30 6916 O 649.083 -1.71334 0.314671 0
M  V30 6917 C 646.215 -3.33078 0.726085 0
M  V30 6918 H 647.408 -2.14751 2.09338 0
M  V30 6919 H 644.961 -1.09272 1.11756 0
M  V30 6920 H 645.696 -3.23428 -0.23771 0
M  V30 6921 H 645.481 -3.62562 1.49302 0
M  V30 6922 H 646.971 -4.12681 0.639058 0
M  V30 6923 N 647.408 -1.11026 -1.11852 0
M  V30 6924 C 648.654 -0.857729 -1.83768 0
M  V30 6925 C 648.987 0.615143 -1.842 0
M  V30 6926 O 648.262 1.45391 -1.29196 0
M  V30 6927 C 648.545 -1.41453 -3.31154 0
M  V30 6928 C 648.398 -2.95471 -3.39142 0
M  V30 6929 C 649.717 -1.0619 -4.27097 0
M  V30 6930 H 646.836 -0.313044 -0.667212 0
M  V30 6931 H 649.478 -1.37443 -1.31185 0
M  V30 6932 H 647.628 -0.975052 -3.76065 0
M  V30 6933 H 649.3 -3.4799 -3.02821 0
M  V30 6934 H 647.543 -3.31759 -2.79497 0
M  V30 6935 H 648.214 -3.29515 -4.42859 0
M  V30 6936 H 650.69 -1.44122 -3.90344 0
M  V30 6937 H 649.566 -1.47832 -5.28618 0
M  V30 6938 H 649.827 0.0278912 -4.42091 0
M  V30 6939 N 648.886 1.2938 -0.899927 0
M  V30 6940 C 649.819 2.25911 -0.322386 0
M  V30 6941 C 650.797 1.52447 0.565567 0
M  V30 6942 O 651.981 1.81404 0.512324 0
M  V30 6943 C 649.108 3.3436 0.540455 0
M  V30 6944 C 648.154 4.25579 -0.280211 0
M  V30 6945 S 648.987 5.08526 -1.67814 0
M  V30 6946 C 650.143 6.20476 -0.822224 0
M  V30 6947 H 650.376 2.7455 -1.1406 0
M  V30 6948 H 647.909 1.37606 -0.700285 0
M  V30 6949 H 649.867 3.97303 1.0325 0
M  V30 6950 H 648.528 2.84416 1.33291 0
M  V30 6951 H 647.721 5.02574 0.378915 0
M  V30 6952 H 647.323 3.67287 -0.705405 0
M  V30 6953 H 649.615 6.77485 -0.0457138 0
M  V30 6954 H 650.558 6.90606 -1.56426 0
M  V30 6955 H 650.966 5.63243 -0.37651 0
M  V30 6956 N 650.364 0.662433 1.43002 0
M  V30 6957 C 651.327 -0.0142016 2.29196 0
M  V30 6958 C 652.327 -0.741394 1.42688 0
M  V30 6959 O 653.517 -0.581257 1.64216 0
M  V30 6960 C 650.649 -1.03084 3.24941 0
M  V30 6961 H 651.842 0.7443 2.90517 0
M  V30 6962 H 649.395 0.424133 1.50435 0
M  V30 6963 H 650.13 -1.81826 2.68533 0
M  V30 6964 H 649.915 -0.512946 3.8873 0
M  V30 6965 H 651.405 -1.50308 3.89612 0
M  V30 6966 N 651.842 -1.52309 0.404946 0
M  V30 6967 C 652.772 -2.29805 -0.41376 0
M  V30 6968 C 653.753 -1.3384 -1.0498 0
M  V30 6969 O 654.938 -1.62745 -1.05961 0
M  V30 6970 C 652.068 -3.11639 -1.53292 0
M  V30 6971 C 651.022 -4.15616 -1.02211 0
M  V30 6972 C 650.348 -4.8577 -2.23455 0
M  V30 6973 C 651.648 -5.2224 -0.0790725 0
M  V30 6974 H 653.342 -2.98493 0.232878 0
M  V30 6975 H 650.888 -1.43552 0.113441 0
M  V30 6976 H 652.841 -3.64618 -2.11262 0
M  V30 6977 H 651.565 -2.40712 -2.20738 0
M  V30 6978 H 650.224 -3.63641 -0.46484 0
M  V30 6979 H 649.872 -4.11376 -2.89445 0
M  V30 6980 H 649.572 -5.56058 -1.89929 0
M  V30 6981 H 651.096 -5.4156 -2.82038 0
M  V30 6982 H 652.51 -5.70485 -0.567438 0
M  V30 6983 H 650.907 -5.99867 0.167167 0
M  V30 6984 H 651.977 -4.77078 0.867447 0
M  V30 6985 N 653.32 -0.135238 -1.57019 0
M  V30 6986 C 654.566 0.519563 -1.96032 0
M  V30 6987 C 654.899 1.65284 -1.01955 0
M  V30 6988 O 654.174 1.94408 -0.059727 0
M  V30 6989 C 654.457 1.0369 -3.44848 0
M  V30 6990 C 654.31 -0.0940754 -4.49702 0
M  V30 6991 C 655.629 1.92254 -3.95887 0
M  V30 6992 H 652.748 0.18739 -0.712779 0
M  V30 6993 H 655.39 -0.214086 -1.8879 0
M  V30 6994 H 653.54 1.66209 -3.5115 0
M  V30 6995 H 655.212 -0.73 -4.55487 0
M  V30 6996 H 653.455 -0.754924 -4.27181 0
M  V30 6997 H 654.126 0.309419 -5.51132 0
M  V30 6998 H 656.602 1.39581 -3.9199 0
M  V30 6999 H 655.478 2.25364 -5.00502 0
M  V30 7000 H 655.739 2.85513 -3.37543 0
M  V30 7001 N 654.798 1.5699 0.138552 0
M  V30 7002 C 656.046 1.83446 0.848053 0
M  V30 7003 C 656.367 0.71744 1.81322 0
M  V30 7004 O 655.637 -0.260228 1.94164 0
M  V30 7005 H 654.217 0.676792 0.316166 0
M  V30 7006 H 656.879 1.94462 0.130538 0
M  V30 7007 H 655.975 2.78677 1.40518 0
M  V30 7008 N 656.276 -0.40816 1.52223 0
M  V30 7009 C 657.524 -1.15274 1.66001 0
M  V30 7010 C 657.845 -1.91003 0.392803 0
M  V30 7011 O 657.115 -1.8673 -0.592336 0
M  V30 7012 H 655.695 -0.428526 0.611861 0
M  V30 7013 H 658.357 -0.46512 1.89269 0
M  V30 7014 H 657.453 -1.86628 2.50153 0
M  V30 7015 N 657.755 -1.42862 -0.66545 0
M  V30 7016 C 659.002 -1.4383 -1.42546 0
M  V30 7017 C 659.33 -0.0581114 -1.94413 0
M  V30 7018 O 658.585 0.935002 -1.71919 0
M  V30 7019 C 658.884 -2.4175 -2.63233 0
M  V30 7020 C 658.55 -3.87915 -2.29854 0
M  V30 7021 C 657.212 -4.27726 -2.20463 0
M  V30 7022 C 659.564 -4.80074 -2.02924 0
M  V30 7023 C 656.892 -5.57666 -1.82279 0
M  V30 7024 C 659.244 -6.10366 -1.66242 0
M  V30 7025 C 657.908 -6.49167 -1.55367 0
M  V30 7026 H 657.178 -0.52631 -0.521612 0
M  V30 7027 H 659.825 -1.75863 -0.757914 0
M  V30 7028 H 658.13 -2.03077 -3.35063 0
M  V30 7029 H 659.827 -2.39759 -3.21429 0
M  V30 7030 H 656.417 -3.564 -2.3807 0
M  V30 7031 H 660.601 -4.50097 -2.09108 0
M  V30 7032 H 655.857 -5.8658 -1.72436 0
M  V30 7033 H 660.031 -6.81258 -1.44432 0
M  V30 7034 H 657.658 -7.49761 -1.2555 0
M  V30 7035 N 659.233 0.902656 -1.29189 0
M  V30 7036 C 660.51 1.63296 -1.07674 0
M  V30 7037 C 660.89 2.07649 0.380137 0
M  V30 7038 O 660.238 1.82997 1.36837 0
M  V30 7039 C 660.448 2.81603 -2.06158 0
M  V30 7040 C 661.796 3.52359 -2.36914 0
M  V30 7041 O 662.82 2.91767 -2.04329 0
M  V30 7042 O 661.679 4.61586 -2.92576 0
M  V30 7043 H 658.773 0.716889 -0.41231 0
M  V30 7044 H 661.319 0.950984 -1.4055 0
M  V30 7045 H 660.091 2.46004 -3.04299 0
M  V30 7046 H 659.714 3.57508 -1.73993 0
M  V30 7047 N 660.711 1.11618 1.11262 0
M  V30 7048 C 661.958 0.86618 1.8304 0
M  V30 7049 C 662.286 -0.608149 1.84748 0
M  V30 7050 O 661.541 -1.46508 1.29745 0
M  V30 7051 C 661.84 1.37529 3.2988 0
M  V30 7052 C 661.506 2.86317 3.4833 0
M  V30 7053 C 660.168 3.26945 3.53073 0
M  V30 7054 C 662.52 3.82136 3.54431 0
M  V30 7055 C 659.848 4.62117 3.61475 0
M  V30 7056 C 662.2 5.17128 3.64365 0
M  V30 7057 C 660.864 5.57312 3.67369 0
M  V30 7058 H 660.134 0.316958 0.66979 0
M  V30 7059 H 662.781 1.3949 1.31205 0
M  V30 7060 H 661.086 0.766842 3.84222 0
M  V30 7061 H 662.783 1.15817 3.83911 0
M  V30 7062 H 659.373 2.53889 3.45309 0
M  V30 7063 H 663.557 3.51847 3.50025 0
M  V30 7064 H 658.813 4.92655 3.62079 0
M  V30 7065 H 662.987 5.91208 3.68029 0
M  V30 7066 H 660.614 6.62045 3.73632 0
M  V30 7067 N 662.189 -1.289 0.906776 0
M  V30 7068 C 663.137 -2.29477 0.379873 0
M  V30 7069 C 664.131 -1.61068 -0.524747 0
M  V30 7070 O 665.337 -1.75344 -0.406765 0
M  V30 7071 H 661.712 -0.744742 0.10423 0
M  V30 7072 H 663.683 -2.71353 1.24137 0
M  V30 7073 C 662.432 -3.45713 -0.371154 0
M  V30 7074 H 661.755 -3.98551 0.315716 0
M  V30 7075 H 663.195 -4.18105 -0.704581 0
M  V30 7076 C 661.654 -2.9774 -1.57646 0
M  V30 7077 O 662.184 -2.99618 -2.67567 0
M  V30 7078 N 660.39 -2.53485 -1.42105 0
M  V30 7079 H 659.937 -2.52156 -0.526783 0
M  V30 7080 H 659.895 -2.21747 -2.22881 0
M  V30 7081 N 663.667 -0.670007 -1.42649 0
M  V30 7082 C 664.599 0.0501746 -2.29145 0
M  V30 7083 C 665.612 0.770331 -1.43422 0
M  V30 7084 O 666.801 0.625288 -1.6719 0
M  V30 7085 C 663.901 1.09463 -3.20735 0
M  V30 7086 C 663.074 0.44926 -4.35087 0
M  V30 7087 C 662.133 1.39285 -5.07431 0
M  V30 7088 O 661.159 0.894997 -5.6212 0
M  V30 7089 N 662.361 2.72631 -5.12496 0
M  V30 7090 H 665.126 -0.692312 -2.91594 0
M  V30 7091 H 662.687 -0.514056 -1.53522 0
M  V30 7092 H 664.679 1.72705 -3.65999 0
M  V30 7093 H 663.249 1.73891 -2.59771 0
M  V30 7094 H 662.469 -0.362573 -3.92529 0
M  V30 7095 H 663.757 -0.000544776 -5.088 0
M  V30 7096 H 663.155 3.15623 -4.69467 0
M  V30 7097 H 661.712 3.31132 -5.61422 0
M  V30 7098 N 665.145 1.52092 -0.413018 0
M  V30 7099 C 666.37 2.06756 0.163338 0
M  V30 7100 C 666.795 1.28073 1.37764 0
M  V30 7101 O 666.153 0.312015 1.78595 0
M  V30 7102 C 666.201 3.57278 0.488322 0
M  V30 7103 O 665.305 3.80986 1.57871 0
M  V30 7104 H 664.646 0.663882 0.0125068 0
M  V30 7105 H 667.176 1.95988 -0.587339 0
M  V30 7106 H 667.186 4.01125 0.745836 0
M  V30 7107 H 665.861 4.13978 -0.399327 0
M  V30 7108 H 664.438 3.49017 1.31306 0
M  V30 7109 N 666.623 0.143563 1.56945 0
M  V30 7110 C 667.57 -0.797433 2.16586 0
M  V30 7111 C 668.54 -1.24654 1.09775 0
M  V30 7112 O 669.725 -1.31968 1.37801 0
M  V30 7113 C 666.865 -2.03253 2.78895 0
M  V30 7114 C 665.978 -1.62954 4.00087 0
M  V30 7115 C 665.113 -2.81617 4.50406 0
M  V30 7116 C 664.152 -2.37675 5.64072 0
M  V30 7117 N 663.289 -3.49335 6.09023 0
M  V30 7118 H 668.129 -0.282023 2.96662 0
M  V30 7119 H 665.666 -0.127494 1.46546 0
M  V30 7120 H 667.624 -2.75653 3.13163 0
M  V30 7121 H 666.254 -2.52211 2.01469 0
M  V30 7122 H 665.306 -0.803322 3.71821 0
M  V30 7123 H 666.618 -1.26679 4.82446 0
M  V30 7124 H 665.772 -3.62212 4.86711 0
M  V30 7125 H 664.511 -3.21134 3.67048 0
M  V30 7126 H 663.516 -1.55519 5.27346 0
M  V30 7127 H 664.741 -1.99247 6.49213 0
M  V30 7128 H 662.687 -3.8848 5.28601 0
M  V30 7129 H 662.604 -3.17064 6.86299 0
M  V30 7130 H 663.872 -4.30297 6.49973 0
M  V30 7131 N 668.101 -1.57061 -0.130224 0
M  V30 7132 C 669.348 -1.84257 -0.839972 0
M  V30 7133 C 669.676 -0.726986 -1.80403 0
M  V30 7134 O 668.931 0.282632 -1.93648 0
M  V30 7135 C 669.23 -3.17878 -1.63365 0
M  V30 7136 C 668.896 -4.43475 -0.814891 0
M  V30 7137 C 667.558 -4.77581 -0.589066 0
M  V30 7138 C 669.91 -5.20631 -0.243437 0
M  V30 7139 C 667.238 -5.86292 0.218648 0
M  V30 7140 C 669.59 -6.30192 0.551408 0
M  V30 7141 C 668.254 -6.62837 0.787653 0
M  V30 7142 H 667.524 -0.674245 -0.307367 0
M  V30 7143 H 670.171 -1.91224 -0.102832 0
M  V30 7144 H 668.476 -3.06437 -2.44138 0
M  V30 7145 H 670.173 -3.3614 -2.18658 0
M  V30 7146 H 666.763 -4.16747 -1.00098 0
M  V30 7147 H 670.947 -4.94644 -0.405145 0
M  V30 7148 H 666.203 -6.10017 0.411016 0
M  V30 7149 H 670.377 -6.89165 1.00126 0
M  V30 7150 H 668.004 -7.46908 1.41537 0
M  V30 7151 N 669.579 0.400081 -1.52437 0
M  V30 7152 C 670.527 1.50851 -1.7705 0
M  V30 7153 C 671.521 1.56928 -0.637969 0
M  V30 7154 O 672.727 1.60226 -0.820212 0
M  V30 7155 H 669.102 0.50186 -0.560036 0
M  V30 7156 H 671.073 1.27281 -2.69893 0
M  V30 7157 C 669.822 2.88117 -1.94638 0
M  V30 7158 H 669.145 2.84187 -2.81208 0
M  V30 7159 H 670.585 3.64942 -2.15855 0
M  V30 7160 C 669.044 3.29206 -0.715899 0
M  V30 7161 O 669.574 4.01544 0.111944 0
M  V30 7162 N 667.78 2.85363 -0.549191 0
M  V30 7163 H 667.327 2.26664 -1.22397 0
M  V30 7164 H 667.285 3.13214 0.27278 0
M  V30 7165 N 671.057 1.43213 0.657864 0
M  V30 7166 C 672.473 1.26511 0.972992 0
M  V30 7167 C 672.673 0.181477 2.00681 0
M  V30 7168 O 671.729 -0.441649 2.48608 0
M  V30 7169 C 673.042 2.62784 1.46168 0
M  V30 7170 C 674.59 2.70278 1.57857 0
M  V30 7171 C 675.065 4.06958 2.10117 0
M  V30 7172 N 676.556 4.08999 2.17426 0
M  V30 7173 C 677.291 5.11585 2.58975 0
M  V30 7174 N 676.787 6.24548 2.99853 0
M  V30 7175 N 678.58 4.9894 2.58873 0
M  V30 7176 H 670.731 2.12384 -0.0263129 0
M  V30 7177 H 672.994 0.946638 0.0507992 0
M  V30 7178 H 672.7 3.43022 0.776474 0
M  V30 7179 H 672.574 2.87863 2.43751 0
M  V30 7180 H 674.961 1.90376 2.25479 0
M  V30 7181 H 675.042 2.4897 0.587179 0
M  V30 7182 H 674.686 4.87325 1.43098 0
M  V30 7183 H 674.616 4.25628 3.10078 0
M  V30 7184 H 677.107 3.27457 1.88627 0
M  V30 7185 H 677.42 6.98661 3.30292 0
M  V30 7186 H 675.765 6.28027 2.97669 0
M  V30 7187 H 678.956 4.09757 2.26311 0
M  V30 7188 H 679.129 5.79019 2.90932 0
M  V30 7189 N 672.536 -0.895792 1.29666 0
M  V30 7190 C 673.499 -1.98189 1.15124 0
M  V30 7191 C 674.499 -1.60572 0.0855717 0
M  V30 7192 O 675.689 -1.70991 0.332826 0
M  V30 7193 C 672.821 -3.32289 0.761372 0
M  V30 7194 H 674.014 -2.12518 2.11603 0
M  V30 7195 H 671.567 -1.0808 1.12908 0
M  V30 7196 H 672.302 -3.23662 -0.203393 0
M  V30 7197 H 672.087 -3.60958 1.53139 0
M  V30 7198 H 673.577 -4.1198 0.682792 0
M  V30 7199 N 674.014 -1.12206 -1.10668 0
M  V30 7200 C 675.242 -0.898635 -1.86366 0
M  V30 7201 C 675.657 0.551991 -1.80551 0
M  V30 7202 O 675.014 1.38152 -1.19249 0
M  V30 7203 C 675.065 -1.36199 -3.34861 0
M  V30 7204 O 674.786 -2.75576 -3.40573 0
M  V30 7205 C 676.287 -1.17515 -4.2744 0
M  V30 7206 H 673.507 -0.321281 -0.589084 0
M  V30 7207 H 676.051 -1.49142 -1.39918 0
M  V30 7208 H 674.206 -0.81249 -3.78784 0
M  V30 7209 H 674.62 -2.95851 -4.33096 0
M  V30 7210 H 676.094 -1.54827 -5.29842 0
M  V30 7211 H 676.571 -0.115486 -4.39048 0
M  V30 7212 H 677.177 -1.71203 -3.89319 0
M  V30 7213 N 675.492 1.28418 -0.913599 0
M  V30 7214 C 676.424 2.26368 -0.359169 0
M  V30 7215 C 677.437 1.54858 0.502285 0
M  V30 7216 O 678.626 1.75659 0.31719 0
M  V30 7217 C 675.726 3.35112 0.50526 0
M  V30 7218 C 674.899 4.36126 -0.333648 0
M  V30 7219 C 673.958 5.24134 0.465845 0
M  V30 7220 O 672.984 5.6907 -0.121538 0
M  V30 7221 N 674.186 5.52892 1.76891 0
M  V30 7222 H 676.951 2.74579 -1.2011 0
M  V30 7223 H 674.512 1.41898 -0.779532 0
M  V30 7224 H 676.504 3.90926 1.04684 0
M  V30 7225 H 675.074 2.86611 1.2479 0
M  V30 7226 H 674.294 3.79776 -1.0566 0
M  V30 7227 H 675.582 5.00638 -0.907669 0
M  V30 7228 H 674.98 5.18217 2.26865 0
M  V30 7229 H 673.537 6.11464 2.25732 0
M  V30 7230 N 676.97 0.677563 1.42291 0
M  V30 7231 C 677.933 0.0101085 2.29198 0
M  V30 7232 C 678.933 -0.726219 1.43467 0
M  V30 7233 O 680.123 -0.563807 1.64824 0
M  V30 7234 C 677.255 -0.996316 3.26016 0
M  V30 7235 H 678.448 0.775071 2.89711 0
M  V30 7236 H 676.001 0.440065 1.49977 0
M  V30 7237 H 676.736 -1.78967 2.70446 0
M  V30 7238 H 676.521 -0.471687 3.89253 0
M  V30 7239 H 678.011 -1.46167 3.91184 0
M  V30 7240 N 678.448 -1.51871 0.421078 0
M  V30 7241 C 679.378 -2.30231 -0.389363 0
M  V30 7242 C 680.359 -1.34946 -1.03555 0
M  V30 7243 O 681.544 -1.63859 -1.04229 0
M  V30 7244 C 678.674 -3.13247 -1.49979 0
M  V30 7245 C 677.628 -4.16677 -0.977966 0
M  V30 7246 C 676.954 -4.88112 -2.1829 0
M  V30 7247 C 678.254 -5.22295 -0.0236775 0
M  V30 7248 H 679.948 -2.98229 0.264524 0
M  V30 7249 H 677.494 -1.43424 0.12866 0
M  V30 7250 H 679.447 -3.66838 -2.07383 0
M  V30 7251 H 678.171 -2.4304 -2.18173 0
M  V30 7252 H 676.83 -3.64114 -0.426245 0
M  V30 7253 H 676.478 -4.14423 -2.85066 0
M  V30 7254 H 676.178 -5.58041 -1.84021 0
M  V30 7255 H 677.702 -5.44521 -2.76278 0
M  V30 7256 H 679.116 -5.71055 -0.506899 0
M  V30 7257 H 677.513 -5.99656 0.230782 0
M  V30 7258 H 678.583 -4.76131 0.917999 0
M  V30 7259 N 679.926 -0.151884 -1.56866 0
M  V30 7260 C 681.342 0.204486 -1.58285 0
M  V30 7261 C 681.542 1.6431 -1.16639 0
M  V30 7262 O 680.598 2.37077 -0.868946 0
M  V30 7263 C 681.911 -0.0587019 -3.00643 0
M  V30 7264 C 683.459 0.00462303 -3.13 0
M  V30 7265 C 683.934 -0.231297 -4.57416 0
M  V30 7266 N 685.425 -0.178394 -4.62856 0
M  V30 7267 C 686.16 -0.335379 -5.72418 0
M  V30 7268 N 685.656 -0.550355 -6.90611 0
M  V30 7269 N 687.449 -0.272641 -5.61438 0
M  V30 7270 H 679.6 -1.09116 -1.82229 0
M  V30 7271 H 681.863 -0.432311 -0.843689 0
M  V30 7272 H 681.569 -1.05453 -3.35518 0
M  V30 7273 H 681.443 0.658508 -3.71407 0
M  V30 7274 H 683.83 0.991009 -2.77962 0
M  V30 7275 H 683.911 -0.744992 -2.44711 0
M  V30 7276 H 683.555 -1.2148 -4.93158 0
M  V30 7277 H 683.485 0.5387 -5.23837 0
M  V30 7278 H 685.976 -0.0170923 -3.77896 0
M  V30 7279 H 686.289 -0.660116 -7.69976 0
M  V30 7280 H 684.634 -0.586736 -6.92519 0
M  V30 7281 H 687.825 -0.105421 -4.67981 0
M  V30 7282 H 687.998 -0.398418 -6.46774 0
M  V30 7283 N 681.404 1.57128 0.121893 0
M  V30 7284 C 682.336 1.96773 1.17529 0
M  V30 7285 C 683.349 0.866668 1.37814 0
M  V30 7286 O 684.538 1.14497 1.3694 0
M  V30 7287 C 681.638 2.24832 2.53582 0
M  V30 7288 C 680.811 3.56138 2.53939 0
M  V30 7289 C 679.87 3.72443 3.71716 0
M  V30 7290 O 678.896 4.44584 3.55434 0
M  V30 7291 N 680.098 3.10993 4.90167 0
M  V30 7292 H 682.863 2.87743 0.838086 0
M  V30 7293 H 680.424 1.58881 0.311199 0
M  V30 7294 H 682.416 2.32958 3.30927 0
M  V30 7295 H 680.986 1.40002 2.79496 0
M  V30 7296 H 680.206 3.59226 1.62329 0
M  V30 7297 H 681.494 4.42448 2.51231 0
M  V30 7298 H 680.892 2.52345 5.06299 0
M  V30 7299 H 679.449 3.24644 5.65198 0
M  V30 7300 N 682.882 -0.391992 1.52647 0
M  V30 7301 C 684.128 -1.139 1.67793 0
M  V30 7302 C 684.461 -1.89711 0.41514 0
M  V30 7303 O 683.736 -1.85431 -0.586979 0
M  V30 7304 C 684.019 -2.11966 2.91105 0
M  V30 7305 C 683.872 -1.39939 4.27478 0
M  V30 7306 C 685.191 -3.1243 3.09961 0
M  V30 7307 H 682.31 -0.412707 0.610608 0
M  V30 7308 H 684.952 -0.422725 1.85238 0
M  V30 7309 H 683.102 -2.73048 2.76364 0
M  V30 7310 H 684.774 -0.818439 4.53982 0
M  V30 7311 H 683.017 -0.701246 4.28095 0
M  V30 7312 H 683.688 -2.1158 5.09841 0
M  V30 7313 H 686.164 -2.61435 3.23714 0
M  V30 7314 H 685.04 -3.78294 3.97725 0
M  V30 7315 H 685.301 -3.81127 2.24042 0
M  V30 7316 N 684.36 -1.4356 -0.65026 0
M  V30 7317 C 685.608 -1.45046 -1.40734 0
M  V30 7318 C 685.929 -0.0769822 -1.94848 0
M  V30 7319 O 685.199 0.888098 -1.74613 0
M  V30 7320 H 683.779 -0.534034 -0.522318 0
M  V30 7321 H 686.441 -1.79186 -0.766703 0
M  V30 7322 H 685.537 -2.16476 -2.24822 0
M  V30 7323 N 685.838 0.888903 -1.30139 0
M  V30 7324 C 687.063 1.67884 -1.21777 0
M  V30 7325 C 687.488 1.86848 0.216689 0
M  V30 7326 O 686.846 1.39659 1.15608 0
M  V30 7327 C 686.894 3.03483 -1.94757 0
M  V30 7328 O 685.998 3.92294 -1.27198 0
M  V30 7329 H 685.339 0.513144 -0.421402 0
M  V30 7330 H 687.869 1.10968 -1.71893 0
M  V30 7331 H 687.879 3.53553 -2.03627 0
M  V30 7332 H 686.554 2.89 -2.99085 0
M  V30 7333 H 685.131 3.50732 -1.26655 0
M  V30 7334 N 687.317 1.12792 1.10072 0
M  V30 7335 C 688.265 0.794523 2.18609 0
M  V30 7336 C 689.259 -0.220271 1.67962 0
M  V30 7337 O 690.465 -0.0780938 1.79831 0
M  V30 7338 H 686.84 0.239123 0.712969 0
M  V30 7339 H 688.811 1.71823 2.43966 0
M  V30 7340 C 687.56 0.269548 3.46654 0
M  V30 7341 H 686.883 1.04171 3.8599 0
M  V30 7342 H 688.323 0.0746242 4.23934 0
M  V30 7343 C 686.782 -1.00333 3.21613 0
M  V30 7344 O 687.312 -2.08042 3.4363 0
M  V30 7345 N 685.518 -0.931763 2.75257 0
M  V30 7346 H 685.065 -0.0551197 2.57541 0
M  V30 7347 H 685.023 -1.78405 2.58881 0
M  V30 7348 N 688.795 -1.27931 0.920396 0
M  V30 7349 C 690.044 -1.93975 0.552867 0
M  V30 7350 C 690.357 -1.73193 -0.909035 0
M  V30 7351 O 691.563 -2.33515 -1.38502 0
M  V30 7352 C 690.019 -3.47463 0.937947 0
M  V30 7353 C 689.627 -3.77013 2.42003 0
M  V30 7354 C 691.371 -4.19628 0.64132 0
M  V30 7355 C 689.278 -5.23841 2.74489 0
M  V30 7356 H 688.208 -0.726146 0.203046 0
M  V30 7357 H 690.859 -1.45339 1.12022 0
M  V30 7358 H 689.241 -3.94867 0.299317 0
M  V30 7359 H 690.415 -3.40393 3.10595 0
M  V30 7360 H 688.73 -3.18035 2.6878 0
M  V30 7361 H 691.327 -5.27729 0.860622 0
M  V30 7362 H 691.67 -4.14164 -0.421168 0
M  V30 7363 H 692.203 -3.78022 1.23872 0
M  V30 7364 H 688.942 -5.34388 3.79618 0
M  V30 7365 H 688.462 -5.61634 2.1054 0
M  V30 7366 H 690.141 -5.91647 2.61845 0
M  V30 7367 N 690.273 -0.685099 -1.4193 0
M  V30 7368 C 691.22 -0.0131869 -2.30796 0
M  V30 7369 C 692.19 0.782129 -1.46533 0
M  V30 7370 O 693.375 0.75229 -1.75343 0
M  V30 7371 C 690.515 0.924768 -3.32479 0
M  V30 7372 C 689.628 0.122181 -4.31827 0
M  V30 7373 C 688.763 1.05682 -5.20581 0
M  V30 7374 C 687.802 0.246526 -6.11603 0
M  V30 7375 N 686.939 1.13442 -6.92875 0
M  V30 7376 H 691.779 -0.776789 -2.87698 0
M  V30 7377 H 689.316 -0.394791 -1.41703 0
M  V30 7378 H 691.274 1.48251 -3.89971 0
M  V30 7379 H 689.904 1.65488 -2.77152 0
M  V30 7380 H 688.956 -0.552335 -3.76369 0
M  V30 7381 H 690.268 -0.506473 -4.96222 0
M  V30 7382 H 689.422 1.68415 -5.82856 0
M  V30 7383 H 688.161 1.71935 -4.56388 0
M  V30 7384 H 687.166 -0.393944 -5.48387 0
M  V30 7385 H 688.391 -0.412053 -6.77849 0
M  V30 7386 H 686.337 1.78316 -6.313 0
M  V30 7387 H 686.254 0.561089 -7.53915 0
M  V30 7388 H 687.522 1.74889 -7.59628 0
M  V30 7389 N 691.751 1.51645 -0.429126 0
M  V30 7390 C 693.162 1.86665 0.0359003 0
M  V30 7391 C 693.513 1.34677 1.42676 0
M  V30 7392 O 692.638 0.694195 2.04963 0
M  V30 7393 C 693.233 3.38724 0.0719221 0
M  V30 7394 C 691.792 3.7331 0.481336 0
M  V30 7395 C 690.939 2.75313 -0.331329 0
M  V30 7396 H 693.89 1.44987 -0.645333 0
M  V30 7397 H 693.911 3.7011 0.883118 0
M  V30 7398 H 693.423 3.76532 -0.940495 0
M  V30 7399 H 691.524 3.41088 1.49966 0
M  V30 7400 H 691.637 4.78631 0.211837 0
M  V30 7401 H 690.001 2.53839 0.209204 0
M  V30 7402 H 690.784 3.15963 -1.34247 0
M  V30 7403 N 693.229 0.160201 1.56784 0
M  V30 7404 C 694.476 -0.487588 1.96542 0
M  V30 7405 C 694.804 -1.63999 1.04569 0
M  V30 7406 O 694.059 -1.95546 0.0775211 0
M  V30 7407 C 694.358 -1.02259 3.42459 0
M  V30 7408 C 694.024 0.0127436 4.50898 0
M  V30 7409 C 692.686 0.297318 4.80281 0
M  V30 7410 C 695.038 0.716078 5.16257 0
M  V30 7411 C 692.366 1.29081 5.72324 0
M  V30 7412 C 694.718 1.69847 6.09372 0
M  V30 7413 C 693.382 1.99061 6.37127 0
M  V30 7414 H 692.652 -0.178421 0.719199 0
M  V30 7415 H 695.299 0.249818 1.89864 0
M  V30 7416 H 693.604 -1.8376 3.46034 0
M  V30 7417 H 695.301 -1.53261 3.70556 0
M  V30 7418 H 691.891 -0.219235 4.28039 0
M  V30 7419 H 696.075 0.509428 4.93679 0
M  V30 7420 H 691.331 1.52344 5.92116 0
M  V30 7421 H 695.505 2.2489 6.59088 0
M  V30 7422 H 693.132 2.76194 7.08252 0
M  V30 7423 N 694.707 -1.5719 -0.113559 0
M  V30 7424 C 695.637 -2.03772 -1.14013 0
M  V30 7425 C 696.618 -0.923176 -1.42869 0
M  V30 7426 O 697.803 -1.19325 -1.53216 0
M  V30 7427 C 694.933 -2.44663 -2.4649 0
M  V30 7428 C 693.887 -3.59612 -2.32085 0
M  V30 7429 C 693.213 -3.8642 -3.69573 0
M  V30 7430 C 694.513 -4.91149 -1.7768 0
M  V30 7431 H 696.207 -2.89785 -0.752665 0
M  V30 7432 H 693.753 -1.39412 -0.360609 0
M  V30 7433 H 695.706 -2.75857 -3.18561 0
M  V30 7434 H 694.43 -1.55628 -2.87137 0
M  V30 7435 H 693.089 -3.28636 -1.62461 0
M  V30 7436 H 692.737 -2.94581 -4.07715 0
M  V30 7437 H 692.437 -4.63797 -3.60786 0
M  V30 7438 H 693.961 -4.2007 -4.4314 0
M  V30 7439 H 695.375 -5.20843 -2.39574 0
M  V30 7440 H 693.772 -5.72562 -1.79701 0
M  V30 7441 H 694.842 -4.79301 -0.734776 0
M  V30 7442 N 696.185 0.383891 -1.52853 0
M  V30 7443 C 697.415 1.14783 -1.7178 0
M  V30 7444 C 697.823 1.84055 -0.438211 0
M  V30 7445 O 697.166 1.73713 0.597465 0
M  V30 7446 C 697.228 2.23543 -2.81547 0
M  V30 7447 C 696.892 1.74195 -4.22499 0
M  V30 7448 C 697.889 1.21591 -5.05481 0
M  V30 7449 C 695.574 1.80262 -4.6884 0
M  V30 7450 C 697.568 0.757104 -6.32888 0
M  V30 7451 C 695.255 1.33993 -5.96229 0
M  V30 7452 C 696.253 0.818049 -6.78083 0
M  V30 7453 O 695.941 0.362123 -8.03084 0
M  V30 7454 H 695.673 0.349908 -0.578395 0
M  V30 7455 H 698.227 0.454377 -2.00311 0
M  V30 7456 H 696.457 2.96328 -2.48449 0
M  V30 7457 H 698.146 2.8519 -2.88828 0
M  V30 7458 H 698.912 1.16257 -4.7086 0
M  V30 7459 H 694.791 2.19825 -4.05213 0
M  V30 7460 H 698.335 0.34908 -6.96726 0
M  V30 7461 H 694.232 1.39015 -6.30353 0
M  V30 7462 H 695 0.483134 -8.17073 0
M  V30 7463 N 697.663 1.43903 0.642637 0
M  V30 7464 C 698.891 1.4954 1.42988 0
M  V30 7465 C 699.306 0.116588 1.8844 0
M  V30 7466 O 698.663 -0.875285 1.60141 0
M  V30 7467 C 698.714 2.45031 2.65785 0
M  V30 7468 O 698.435 3.77551 2.22232 0
M  V30 7469 C 699.936 2.60017 3.59035 0
M  V30 7470 H 697.156 0.507544 0.438907 0
M  V30 7471 H 699.7 1.88752 0.786942 0
M  V30 7472 H 697.855 2.08985 3.26196 0
M  V30 7473 H 698.269 4.29001 3.01759 0
M  V30 7474 H 699.743 3.30887 4.41835 0
M  V30 7475 H 700.22 1.64861 4.07084 0
M  V30 7476 H 700.826 2.96918 3.045 0
M  V30 7477 N 699.141 -0.881989 1.30609 0
M  V30 7478 C 700.104 -1.96957 1.1722 0
M  V30 7479 C 701.104 -1.60472 0.102598 0
M  V30 7480 O 702.294 -1.70628 0.350943 0
M  V30 7481 C 699.426 -3.31463 0.796572 0
M  V30 7482 H 700.619 -2.10262 2.13846 0
M  V30 7483 H 698.172 -1.06877 1.14048 0
M  V30 7484 H 698.907 -3.23859 -0.169053 0
M  V30 7485 H 698.692 -3.59314 1.56959 0
M  V30 7486 H 700.182 -4.11233 0.72645 0
M  V30 7487 N 700.619 -1.13374 -1.09472 0
M  V30 7488 C 701.582 -0.813639 -2.14272 0
M  V30 7489 C 702.582 0.176677 -1.59826 0
M  V30 7490 O 703.772 -0.0503441 -1.74127 0
M  V30 7491 C 700.904 -0.210897 -3.40247 0
M  V30 7492 H 702.097 -1.74229 -2.44099 0
M  V30 7493 H 699.65 -0.938304 -1.25002 0
M  V30 7494 H 700.385 0.726998 -3.16046 0
M  V30 7495 H 700.17 -0.924048 -3.81056 0
M  V30 7496 H 701.66 -0.00377603 -4.176 0
M  V30 7497 N 702.098 1.27442 -0.927168 0
M  V30 7498 C 703.031 2.25177 -0.370232 0
M  V30 7499 C 704.009 1.53612 0.533103 0
M  V30 7500 O 705.193 1.8245 0.47373 0
M  V30 7501 C 702.32 3.35431 0.469411 0
M  V30 7502 C 701.366 4.24888 -0.370419 0
M  V30 7503 S 702.199 5.04852 -1.78562 0
M  V30 7504 C 703.355 6.18592 -0.953651 0
M  V30 7505 H 703.588 2.72069 -1.19858 0
M  V30 7506 H 701.121 1.36089 -0.729316 0
M  V30 7507 H 703.079 3.99404 0.947992 0
M  V30 7508 H 701.74 2.87179 1.27228 0
M  V30 7509 H 700.933 5.03264 0.272226 0
M  V30 7510 H 700.535 3.65709 -0.783153 0
M  V30 7511 H 702.827 6.77235 -0.189408 0
M  V30 7512 H 703.77 6.87132 -1.7104 0
M  V30 7513 H 704.178 5.62318 -0.495897 0
M  V30 7514 N 703.576 0.692616 1.41565 0
M  V30 7515 C 704.853 0.150496 1.9502 0
M  V30 7516 C 705.233 -1.33881 1.63215 0
M  V30 7517 O 704.581 -2.08378 0.937598 0
M  V30 7518 C 704.791 0.438636 3.46233 0
M  V30 7519 C 706.139 0.364777 4.2303 0
M  V30 7520 O 707.163 0.373383 3.54238 0
M  V30 7521 O 706.022 0.32234 5.45549 0
M  V30 7522 H 703.116 0.0132454 0.826894 0
M  V30 7523 H 705.662 0.768574 1.51298 0
M  V30 7524 H 704.434 1.46962 3.62654 0
M  V30 7525 H 704.057 -0.210562 3.97042 0
M  V30 7526 N 705.054 -1.51416 0.437162 0
M  V30 7527 C 706.001 -2.27743 -0.374374 0
M  V30 7528 C 706.971 -1.31327 -1.01698 0
M  V30 7529 O 708.156 -1.60229 -1.03592 0
M  V30 7530 C 705.296 -3.12241 -1.46969 0
M  V30 7531 C 704.409 -4.23651 -0.845236 0
M  V30 7532 C 703.544 -4.95458 -1.91559 0
M  V30 7533 C 702.583 -5.98789 -1.26956 0
M  V30 7534 N 701.72 -6.64005 -2.28126 0
M  V30 7535 H 706.56 -2.96654 0.282892 0
M  V30 7536 H 704.097 -1.46319 0.151352 0
M  V30 7537 H 706.055 -3.59556 -2.11602 0
M  V30 7538 H 704.685 -2.45445 -2.09659 0
M  V30 7539 H 703.737 -3.803 -0.0872059 0
M  V30 7540 H 705.049 -4.97683 -0.333582 0
M  V30 7541 H 704.203 -5.46321 -2.63854 0
M  V30 7542 H 702.942 -4.21055 -2.46097 0
M  V30 7543 H 701.947 -5.47219 -0.53207 0
M  V30 7544 H 703.172 -6.75149 -0.731509 0
M  V30 7545 H 701.118 -5.92415 -2.81745 0
M  V30 7546 H 701.035 -7.33802 -1.81852 0
M  V30 7547 H 702.303 -7.19498 -2.99905 0
M  V30 7548 N 706.532 -0.168513 -1.56696 0
M  V30 7549 C 707.78 0.476216 -1.96409 0
M  V30 7550 C 708.101 1.63968 -1.05544 0
M  V30 7551 O 707.371 1.95525 -0.121235 0
M  V30 7552 H 705.951 0.178921 -0.725256 0
M  V30 7553 H 708.613 -0.249042 -1.93302 0
M  V30 7554 H 707.709 0.838094 -3.00637 0
M  V30 7555 N 708.01 1.57248 0.105221 0
M  V30 7556 C 708.94 2.04374 1.12931 0
M  V30 7557 C 709.921 0.93074 1.42377 0
M  V30 7558 O 711.106 1.20136 1.52581 0
M  V30 7559 C 708.236 2.45967 2.45189 0
M  V30 7560 C 707.19 3.60838 2.30174 0
M  V30 7561 C 706.516 3.88374 3.67518 0
M  V30 7562 C 707.816 4.92084 1.75073 0
M  V30 7563 H 709.51 2.9018 0.737287 0
M  V30 7564 H 707.056 1.39601 0.353211 0
M  V30 7565 H 709.009 2.77542 3.17094 0
M  V30 7566 H 707.733 1.57148 2.86308 0
M  V30 7567 H 706.392 3.29493 1.60716 0
M  V30 7568 H 706.04 2.96739 4.06147 0
M  V30 7569 H 705.74 4.65703 3.58321 0
M  V30 7570 H 707.264 4.22415 4.40906 0
M  V30 7571 H 708.678 5.22106 2.36809 0
M  V30 7572 H 707.075 5.73507 1.76662 0
M  V30 7573 H 708.145 4.79684 0.709347 0
M  V30 7574 N 709.488 -0.375779 1.53054 0
M  V30 7575 C 710.716 -1.14036 1.72637 0
M  V30 7576 C 711.131 -1.83342 0.450687 0
M  V30 7577 O 710.488 -1.7318 -0.575749 0
M  V30 7578 C 710.539 -2.17841 2.88492 0
M  V30 7579 O 710.26 -1.51358 4.11123 0
M  V30 7580 C 711.761 -3.06924 3.19863 0
M  V30 7581 H 708.981 -0.341386 0.577665 0
M  V30 7582 H 711.525 -0.437809 1.99759 0
M  V30 7583 H 709.68 -2.8371 2.63794 0
M  V30 7584 H 710.094 -2.20439 4.75928 0
M  V30 7585 H 711.568 -3.75763 4.04359 0
M  V30 7586 H 712.045 -3.71169 2.34798 0
M  V30 7587 H 712.651 -2.46684 3.46449 0
M  V30 7588 N 710.966 -1.44241 -0.634997 0
M  V30 7589 C 711.896 -1.53632 -1.7584 0
M  V30 7590 C 712.877 -0.389603 -1.65578 0
M  V30 7591 O 714.062 -0.609219 -1.84397 0
M  V30 7592 C 711.192 -1.47644 -3.14354 0
M  V30 7593 C 710.146 -2.60752 -3.394 0
M  V30 7594 C 709.472 -2.39817 -4.77904 0
M  V30 7595 C 710.772 -4.02921 -3.32343 0
M  V30 7596 H 712.466 -2.47662 -1.68238 0
M  V30 7597 H 710.012 -1.19197 -0.807969 0
M  V30 7598 H 711.965 -1.52815 -3.92716 0
M  V30 7599 H 710.689 -0.501284 -3.2273 0
M  V30 7600 H 709.348 -2.54965 -2.63417 0
M  V30 7601 H 708.996 -1.40502 -4.82978 0
M  V30 7602 H 708.696 -3.15649 -4.9562 0
M  V30 7603 H 710.22 -2.46799 -5.585 0
M  V30 7604 H 711.634 -4.10098 -4.00615 0
M  V30 7605 H 710.031 -4.78925 -3.61595 0
M  V30 7606 H 711.101 -4.26766 -2.30215 0
M  V30 7607 N 712.444 0.87505 -1.31075 0
M  V30 7608 C 713.407 1.96333 -1.18263 0
M  V30 7609 C 714.407 1.60416 -0.111106 0
M  V30 7610 O 715.597 1.7044 -0.359987 0
M  V30 7611 C 712.729 3.31036 -0.81414 0
M  V30 7612 H 713.922 2.09125 -2.14958 0
M  V30 7613 H 711.475 1.06271 -1.14614 0
M  V30 7614 H 712.21 3.23944 0.151875 0
M  V30 7615 H 711.995 3.58476 -1.58862 0
M  V30 7616 H 713.485 4.10842 -0.748249 0
M  V30 7617 N 713.922 1.13953 1.08869 0
M  V30 7618 C 715.147 0.928559 1.85452 0
M  V30 7619 C 715.572 -0.517642 1.80837 0
M  V30 7620 O 714.93 -1.36779 1.19001 0
M  V30 7621 C 714.978 1.42814 3.31114 0
M  V30 7622 O 714.082 0.617129 4.07756 0
M  V30 7623 H 713.423 0.33235 0.574839 0
M  V30 7624 H 715.953 1.5156 1.37443 0
M  V30 7625 H 715.963 1.43425 3.8196 0
M  V30 7626 H 714.638 2.48109 3.33788 0
M  V30 7627 H 713.215 0.679365 3.66659 0
M  V30 7628 N 715.4 -1.26948 0.933913 0
M  V30 7629 C 716.333 -2.24977 0.382169 0
M  V30 7630 C 717.311 -1.53893 -0.524949 0
M  V30 7631 O 718.495 -1.82699 -0.464048 0
M  V30 7632 C 715.622 -3.35676 -0.451615 0
M  V30 7633 C 714.668 -4.24686 0.392947 0
M  V30 7634 S 715.501 -5.03898 1.81237 0
M  V30 7635 C 716.657 -6.18078 0.986443 0
M  V30 7636 H 716.89 -2.71429 1.21299 0
M  V30 7637 H 714.423 -1.35701 0.736523 0
M  V30 7638 H 716.381 -3.99901 -0.926797 0
M  V30 7639 H 715.042 -2.8785 -1.25703 0
M  V30 7640 H 714.235 -5.03402 -0.245533 0
M  V30 7641 H 713.837 -3.65288 0.802537 0
M  V30 7642 H 716.129 -6.77125 0.225321 0
M  V30 7643 H 717.072 -6.86216 1.74682 0
M  V30 7644 H 717.48 -5.62047 0.525711 0
M  V30 7645 N 716.879 -0.700114 -1.41195 0
M  V30 7646 C 717.809 -0.0521132 -2.33442 0
M  V30 7647 C 718.79 0.76228 -1.52063 0
M  V30 7648 O 719.975 0.714336 -1.80585 0
M  V30 7649 C 717.105 0.881693 -3.35922 0
M  V30 7650 C 716.059 0.174062 -4.27646 0
M  V30 7651 C 715.385 1.22254 -5.20536 0
M  V30 7652 C 716.685 -0.962396 -5.13357 0
M  V30 7653 H 718.379 -0.822574 -2.87879 0
M  V30 7654 H 715.925 -0.397011 -1.38419 0
M  V30 7655 H 717.878 1.34429 -3.99383 0
M  V30 7656 H 716.602 1.68387 -2.79845 0
M  V30 7657 H 715.261 -0.268551 -3.65615 0
M  V30 7658 H 714.909 2.01736 -4.60773 0
M  V30 7659 H 714.609 0.754038 -5.82742 0
M  V30 7660 H 716.133 1.68555 -5.86874 0
M  V30 7661 H 717.547 -0.579875 -5.7036 0
M  V30 7662 H 715.944 -1.35828 -5.84526 0
M  V30 7663 H 717.014 -1.80003 -4.50252 0
M  V30 7664 N 718.357 1.51182 -0.445186 0
M  V30 7665 C 719.305 2.29531 0.376597 0
M  V30 7666 C 720.299 1.35711 1.01385 0
M  V30 7667 O 721.505 1.53018 0.947922 0
M  V30 7668 H 717.88 0.738803 0.140267 0
M  V30 7669 H 719.851 2.96838 -0.304958 0
M  V30 7670 C 718.6 3.1552 1.4609 0
M  V30 7671 H 717.923 3.87605 0.979912 0
M  V30 7672 H 719.363 3.73384 2.009 0
M  V30 7673 C 717.822 2.31406 2.44852 0
M  V30 7674 O 718.352 1.97912 3.49562 0
M  V30 7675 N 716.558 1.94478 2.15932 0
M  V30 7676 H 716.105 2.21917 1.30808 0
M  V30 7677 H 716.063 1.38498 2.82251 0
M  V30 7678 N 719.835 0.176821 1.56605 0
M  V30 7679 C 721.112 -0.513365 1.88743 0
M  V30 7680 C 721.492 -1.80929 1.08757 0
M  V30 7681 O 720.84 -2.27765 0.183127 0
M  V30 7682 C 721.05 -0.749925 3.40848 0
M  V30 7683 C 722.398 -1.07747 4.10701 0
M  V30 7684 O 723.422 -0.838277 3.46196 0
M  V30 7685 O 722.281 -1.52901 5.24675 0
M  V30 7686 H 719.375 -0.265296 0.783292 0
M  V30 7687 H 721.921 0.215669 1.68324 0
M  V30 7688 H 720.693 0.16599 3.90948 0
M  V30 7689 H 720.316 -1.53208 3.66897 0
M  V30 7690 N 721.313 -1.57302 -0.09688 0
M  V30 7691 C 722.559 -1.86273 -0.801885 0
M  V30 7692 C 722.892 -0.765694 -1.78468 0
M  V30 7693 O 722.167 0.226495 -1.93177 0
M  V30 7694 C 722.45 -3.25876 -1.53221 0
M  V30 7695 C 722.303 -4.46205 -0.567529 0
M  V30 7696 C 723.622 -3.63352 -2.48321 0
M  V30 7697 H 720.741 -0.67752 -0.29006 0
M  V30 7698 H 723.383 -1.89887 -0.0655577 0
M  V30 7699 H 721.533 -3.22926 -2.15988 0
M  V30 7700 H 723.205 -4.6127 0.0529982 0
M  V30 7701 H 721.448 -4.33636 0.119233 0
M  V30 7702 H 722.119 -5.40608 -1.11564 0
M  V30 7703 H 724.595 -3.67234 -1.95648 0
M  V30 7704 H 723.471 -4.61968 -2.9644 0
M  V30 7705 H 723.732 -2.91941 -3.31998 0
M  V30 7706 N 722.791 0.367657 -1.53252 0
M  V30 7707 C 724.202 0.944563 -1.61043 0
M  V30 7708 C 724.553 1.90325 -0.476546 0
M  V30 7709 O 723.678 2.12721 0.397333 0
M  V30 7710 C 724.273 1.71992 -2.91898 0
M  V30 7711 C 722.832 2.2462 -3.02031 0
M  V30 7712 C 721.979 1.05799 -2.56324 0
M  V30 7713 H 724.93 0.146516 -1.58022 0
M  V30 7714 H 724.951 2.58095 -2.79584 0
M  V30 7715 H 724.463 1.02192 -3.74404 0
M  V30 7716 H 722.564 2.97668 -2.24108 0
M  V30 7717 H 722.677 2.52644 -4.07073 0
M  V30 7718 H 721.041 1.42435 -2.1115 0
M  V30 7719 H 721.824 0.375008 -3.41246 0
M  V30 7720 N 724.269 1.44576 0.627338 0
M  V30 7721 C 725.518 1.46837 1.38281 0
M  V30 7722 C 725.831 0.10635 1.95311 0
M  V30 7723 O 727.037 0.00651084 2.71499 0
M  V30 7724 C 725.493 2.58527 2.50384 0
M  V30 7725 C 725.101 4.00953 1.99851 0
M  V30 7726 C 726.845 2.70013 3.27557 0
M  V30 7727 C 724.752 5.0406 3.09318 0
M  V30 7728 H 723.682 0.546319 0.519664 0
M  V30 7729 H 726.333 1.70654 0.674497 0
M  V30 7730 H 724.715 2.27957 3.23808 0
M  V30 7731 H 725.889 4.41108 1.33267 0
M  V30 7732 H 724.204 3.93743 1.35482 0
M  V30 7733 H 726.801 3.44217 4.09168 0
M  V30 7734 H 727.144 1.75961 3.77284 0
M  V30 7735 H 727.677 3.00011 2.61224 0
M  V30 7736 H 724.416 5.99753 2.6453 0
M  V30 7737 H 723.936 4.68493 3.74532 0
M  V30 7738 H 725.615 5.2793 3.74031 0
M  V30 7739 N 725.747 -0.868086 1.31537 0
M  V30 7740 C 726.972 -1.65926 1.24432 0
M  V30 7741 C 727.397 -1.87169 -0.186936 0
M  V30 7742 O 726.755 -1.4148 -1.13371 0
M  V30 7743 C 726.803 -3.00347 1.9956 0
M  V30 7744 O 725.907 -3.90221 1.33422 0
M  V30 7745 H 725.248 -0.506375 0.429512 0
M  V30 7746 H 727.778 -1.0822 1.73637 0
M  V30 7747 H 727.788 -3.50269 2.09226 0
M  V30 7748 H 726.463 -2.84205 3.03645 0
M  V30 7749 H 725.04 -3.48672 1.32219 0
M  V30 7750 N 727.225 -1.14528 -1.08264 0
M  V30 7751 C 728.641 -0.885976 -1.3275 0
M  V30 7752 C 728.841 0.472096 -1.95892 0
M  V30 7753 O 727.897 1.21606 -2.21288 0
M  V30 7754 C 729.21 -2.01982 -2.22764 0
M  V30 7755 C 730.758 -2.05329 -2.36239 0
M  V30 7756 C 731.233 -3.1801 -3.29596 0
M  V30 7757 N 732.724 -3.17598 -3.37173 0
M  V30 7758 C 733.459 -4.01426 -4.09444 0
M  V30 7759 N 732.955 -4.95297 -4.8441 0
M  V30 7760 N 734.748 -3.89482 -4.0529 0
M  V30 7761 H 726.899 -2.01996 -0.656607 0
M  V30 7762 H 729.162 -0.880274 -0.351884 0
M  V30 7763 H 728.868 -2.99964 -1.83615 0
M  V30 7764 H 728.742 -1.94421 -3.23234 0
M  V30 7765 H 731.129 -1.07953 -2.74646 0
M  V30 7766 H 731.21 -2.1696 -1.35506 0
M  V30 7767 H 730.854 -4.15633 -2.9191 0
M  V30 7768 H 730.784 -3.03616 -4.30261 0
M  V30 7769 H 733.275 -2.4961 -2.83731 0
M  V30 7770 H 733.588 -5.55723 -5.37021 0
M  V30 7771 H 731.933 -4.99293 -4.83457 0
M  V30 7772 H 735.124 -3.15465 -3.45832 0
M  V30 7773 H 735.297 -4.55039 -4.6135 0
M  V30 7774 N 728.703 1.26451 -0.940633 0
M  V30 7775 C 729.949 1.94401 -0.598303 0
M  V30 7776 C 730.304 1.72449 0.853178 0
M  V30 7777 O 729.597 1.0506 1.60228 0
M  V30 7778 C 729.791 3.46503 -0.875794 0
M  V30 7779 C 729.62 3.83247 -2.3527 0
M  V30 7780 C 728.39 4.06032 -3.00776 0
M  V30 7781 C 730.588 3.91841 -3.33114 0
M  V30 7782 N 728.57 4.29656 -4.38485 0
M  V30 7783 C 729.941 4.19991 -4.56078 0
M  V30 7784 C 731.996 3.74466 -3.28146 0
M  V30 7785 C 730.699 4.32574 -5.74693 0
M  V30 7786 C 732.725 3.88281 -4.46085 0
M  V30 7787 C 732.087 4.16829 -5.67831 0
M  V30 7788 H 728.186 0.734168 -0.269297 0
M  V30 7789 H 730.77 1.52541 -1.20992 0
M  V30 7790 H 728.941 3.87292 -0.293223 0
M  V30 7791 H 730.673 4.01664 -0.494788 0
M  V30 7792 H 727.428 4.01369 -2.51396 0
M  V30 7793 H 727.852 4.45501 -5.09762 0
M  V30 7794 H 732.494 3.51424 -2.35077 0
M  V30 7795 H 730.212 4.54438 -6.68215 0
M  V30 7796 H 733.798 3.76241 -4.43773 0
M  V30 7797 H 732.678 4.27284 -6.5757 0
M  V30 7798 N 730.181 0.707592 1.40822 0
M  V30 7799 C 731.458 0.171172 1.9485 0
M  V30 7800 C 731.838 -1.32143 1.64625 0
M  V30 7801 O 731.186 -2.07372 0.959647 0
M  V30 7802 C 731.396 0.475334 3.45748 0
M  V30 7803 C 732.744 0.409625 4.22619 0
M  V30 7804 O 733.768 0.410934 3.53822 0
M  V30 7805 O 732.627 0.380185 5.45176 0
M  V30 7806 H 729.721 0.022015 0.826707 0
M  V30 7807 H 732.267 0.784577 1.50474 0
M  V30 7808 H 731.039 1.50801 3.61075 0
M  V30 7809 H 730.662 -0.168439 3.97243 0
M  V30 7810 N 731.66 -1.50943 0.453197 0
M  V30 7811 C 732.623 -2.26684 -0.338705 0
M  V30 7812 C 733.623 -1.30748 -0.936032 0
M  V30 7813 O 734.813 -1.54327 -0.808002 0
M  V30 7814 C 731.945 -3.07063 -1.48071 0
M  V30 7815 H 733.138 -2.98131 0.325289 0
M  V30 7816 H 730.691 -1.54926 0.206771 0
M  V30 7817 H 731.426 -2.4007 -2.18029 0
M  V30 7818 H 731.211 -3.77545 -1.0584 0
M  V30 7819 H 732.701 -3.64393 -2.0398 0
M  V30 7820 N 733.138 -0.185124 -1.56509 0
M  V30 7821 C 734.363 0.465278 -2.02114 0
M  V30 7822 C 734.788 1.55083 -1.06447 0
M  V30 7823 O 734.146 1.81241 -0.0462852 0
M  V30 7824 C 734.194 1.00784 -3.46229 0
M  V30 7825 O 733.298 2.12123 -3.53663 0
M  V30 7826 H 732.639 0.109891 -0.654843 0
M  V30 7827 H 735.169 -0.293072 -2.0249 0
M  V30 7828 H 735.179 1.32697 -3.85818 0
M  V30 7829 H 733.854 0.213113 -4.15354 0
M  V30 7830 H 732.431 1.8115 -3.25943 0
M  V30 7831 N 734.616 1.57351 0.0885366 0
M  V30 7832 C 735.579 2.01557 1.09121 0
M  V30 7833 C 736.579 0.910052 1.3257 0
M  V30 7834 O 737.769 1.17537 1.28572 0
M  V30 7835 C 734.901 2.38189 2.43883 0
M  V30 7836 H 736.094 2.91361 0.710562 0
M  V30 7837 H 733.647 1.52694 0.333779 0
M  V30 7838 H 734.382 1.5136 2.86811 0
M  V30 7839 H 734.167 3.18846 2.28209 0
M  V30 7840 H 735.657 2.73025 3.15986 0
M  V30 7841 N 736.094 -0.359525 1.53444 0
M  V30 7842 C 737.342 -1.09935 1.69584 0
M  V30 7843 C 737.663 -1.89656 0.453371 0
M  V30 7844 O 736.933 -1.8852 -0.53263 0
M  V30 7845 H 735.513 -0.408843 0.625185 0
M  V30 7846 H 738.175 -0.40467 1.90653 0
M  V30 7847 H 737.271 -1.78575 2.55964 0
M  V30 7848 N 737.572 -1.44907 -0.619662 0
M  V30 7849 C 738.797 -1.52021 -1.41083 0
M  V30 7850 C 739.222 -0.14976 -1.87503 0
M  V30 7851 O 738.58 0.863303 -1.59426 0
M  V30 7852 C 738.628 -2.49911 -2.59955 0
M  V30 7853 O 737.732 -2.00857 -3.60181 0
M  V30 7854 H 737.073 -0.512912 -0.421684 0
M  V30 7855 H 739.603 -1.90149 -0.755282 0
M  V30 7856 H 739.613 -2.68323 -3.07354 0
M  V30 7857 H 738.288 -3.4945 -2.25516 0
M  V30 7858 H 736.865 -1.92265 -3.19513 0
M  V30 7859 N 739.05 0.861098 -1.31996 0
M  V30 7860 C 740.327 1.59788 -1.12814 0
M  V30 7861 C 740.707 2.08753 0.313882 0
M  V30 7862 O 740.055 1.87258 1.30946 0
M  V30 7863 C 740.265 2.74901 -2.15012 0
M  V30 7864 C 741.613 3.44643 -2.48004 0
M  V30 7865 O 742.637 2.85119 -2.13508 0
M  V30 7866 O 741.496 4.52044 -3.07113 0
M  V30 7867 H 738.59 0.703408 -0.434909 0
M  V30 7868 H 741.136 0.905788 -1.43505 0
M  V30 7869 H 739.908 2.36198 -3.11971 0
M  V30 7870 H 739.531 3.51792 -1.85279 0
M  V30 7871 N 740.528 1.15101 1.07655 0
M  V30 7872 C 741.774 0.935313 1.8062 0
M  V30 7873 C 742.129 -0.532052 1.84897 0
M  V30 7874 O 741.422 -1.3893 1.31943 0
M  V30 7875 C 741.616 1.47954 3.25337 0
M  V30 7876 C 741.445 2.99829 3.35161 0
M  V30 7877 C 740.215 3.68348 3.45902 0
M  V30 7878 C 742.413 3.97638 3.26173 0
M  V30 7879 N 740.395 5.08062 3.44596 0
M  V30 7880 C 741.766 5.23651 3.31949 0
M  V30 7881 C 743.821 3.89651 3.09962 0
M  V30 7882 C 742.524 6.42609 3.23182 0
M  V30 7883 C 744.55 5.08164 3.02528 0
M  V30 7884 C 743.912 6.3305 3.08913 0
M  V30 7885 H 740.011 0.395876 0.674393 0
M  V30 7886 H 742.595 1.4625 1.28526 0
M  V30 7887 H 740.766 0.979022 3.75859 0
M  V30 7888 H 742.498 1.20298 3.86407 0
M  V30 7889 H 739.253 3.18928 3.50117 0
M  V30 7890 H 739.677 5.81023 3.47479 0
M  V30 7891 H 744.319 2.93966 3.03881 0
M  V30 7892 H 742.037 7.38531 3.28022 0
M  V30 7893 H 745.623 5.03742 2.91093 0
M  V30 7894 H 744.503 7.23214 3.03201 0
M  V30 7895 N 742.006 -1.2595 0.947325 0
M  V30 7896 C 742.938 -2.25336 0.41906 0
M  V30 7897 C 743.951 -1.56135 -0.461051 0
M  V30 7898 O 745.14 -1.76438 -0.270505 0
M  V30 7899 C 742.24 -3.36334 -0.416233 0
M  V30 7900 C 741.413 -4.35088 0.449162 0
M  V30 7901 C 740.472 -5.25185 -0.326716 0
M  V30 7902 O 739.498 -5.68548 0.272374 0
M  V30 7903 N 740.7 -5.57388 -1.6217 0
M  V30 7904 H 743.465 -2.71298 1.27348 0
M  V30 7905 H 741.026 -1.39781 0.81688 0
M  V30 7906 H 743.018 -3.93564 -0.942826 0
M  V30 7907 H 741.588 -2.89819 -1.17148 0
M  V30 7908 H 740.808 -3.76841 1.15692 0
M  V30 7909 H 742.096 -4.98056 1.04008 0
M  V30 7910 H 741.494 -5.2405 -2.13046 0
M  V30 7911 H 740.051 -6.17234 -2.0944 0
M  V30 7912 N 743.484 -0.715051 -1.40445 0
M  V30 7913 C 744.895 -0.326763 -1.83818 0
M  V30 7914 C 745.246 1.13851 -1.59789 0
M  V30 7915 O 744.371 1.87611 -1.07848 0
M  V30 7916 C 744.966 -0.586297 -3.33688 0
M  V30 7917 C 743.525 -0.251724 -3.75557 0
M  V30 7918 C 742.672 -0.858928 -2.63662 0
M  V30 7919 H 745.623 -0.914241 -1.2972 0
M  V30 7920 H 745.644 0.148636 -3.8021 0
M  V30 7921 H 745.156 -1.65281 -3.51146 0
M  V30 7922 H 743.257 0.809754 -3.63695 0
M  V30 7923 H 743.37 -0.720348 -4.73654 0
M  V30 7924 H 741.734 -0.287013 -2.53078 0
M  V30 7925 H 742.517 -1.9297 -2.83932 0
M  V30 7926 N 744.962 1.50701 -0.461195 0
M  V30 7927 C 745.909 2.2831 0.338094 0
M  V30 7928 C 746.879 1.32928 0.995957 0
M  V30 7929 O 748.064 1.61857 1.0103 0
M  V30 7930 C 745.204 3.14539 1.41983 0
M  V30 7931 C 744.317 4.24942 0.77773 0
M  V30 7932 C 743.452 4.98443 1.83652 0
M  V30 7933 C 742.491 6.00733 1.17413 0
M  V30 7934 N 741.628 6.6755 2.17533 0
M  V30 7935 H 746.468 2.96167 -0.330051 0
M  V30 7936 H 744.005 1.4606 -0.174611 0
M  V30 7937 H 745.963 3.62877 2.05855 0
M  V30 7938 H 744.593 2.48749 2.05727 0
M  V30 7939 H 743.645 3.80391 0.0266924 0
M  V30 7940 H 744.957 4.98151 0.254362 0
M  V30 7941 H 744.111 5.50449 2.55129 0
M  V30 7942 H 742.85 4.24917 2.39367 0
M  V30 7943 H 741.855 5.47997 0.444944 0
M  V30 7944 H 743.08 6.76227 0.624006 0
M  V30 7945 H 741.026 5.96823 2.72284 0
M  V30 7946 H 740.943 7.36603 1.70154 0
M  V30 7947 H 742.211 7.24178 2.88421 0
M  V30 7948 N 746.441 0.193421 1.56409 0
M  V30 7949 C 747.389 -0.744829 2.20352 0
M  V30 7950 C 748.383 -1.22104 1.17418 0
M  V30 7951 O 749.589 -1.18413 1.35567 0
M  V30 7952 H 745.964 -0.258538 0.70616 0
M  V30 7953 H 747.935 -0.181794 2.97846 0
M  V30 7954 C 746.684 -1.95453 2.87565 0
M  V30 7955 H 746.007 -1.59716 3.66512 0
M  V30 7956 H 747.447 -2.58942 3.35745 0
M  V30 7957 C 745.906 -2.79223 1.8851 0
M  V30 7958 O 746.436 -3.77093 1.38434 0
M  V30 7959 N 744.642 -2.44682 1.56777 0
M  V30 7960 H 744.189 -1.65153 1.97692 0
M  V30 7961 H 744.147 -3.01016 0.907573 0
M  V30 7962 N 747.919 -1.57396 -0.0801906 0
M  V30 7963 C 749.144 -1.91437 -0.797909 0
M  V30 7964 C 749.569 -0.789075 -1.70749 0
M  V30 7965 O 748.927 0.25857 -1.79447 0
M  V30 7966 C 748.975 -3.24402 -1.57467 0
M  V30 7967 O 748.079 -3.13043 -2.68473 0
M  V30 7968 H 747.42 -0.627109 -0.218243 0
M  V30 7969 H 749.95 -2.04537 -0.050949 0
M  V30 7970 H 749.96 -3.58072 -1.95571 0
M  V30 7971 H 748.635 -4.05884 -0.907229 0
M  V30 7972 H 747.212 -2.90915 -2.33287 0
M  V30 7973 N 749.397 0.351382 -1.53633 0
M  V30 7974 C 750.808 0.927429 -1.62036 0
M  V30 7975 C 751.159 1.89809 -0.496706 0
M  V30 7976 O 750.284 2.1313 0.374749 0
M  V30 7977 C 750.879 1.68886 -2.93706 0
M  V30 7978 C 749.438 2.21404 -3.04397 0
M  V30 7979 C 748.585 1.03075 -2.57431 0
M  V30 7980 H 751.536 0.129748 -1.58169 0
M  V30 7981 H 751.557 2.55116 -2.82305 0
M  V30 7982 H 751.069 0.982149 -3.75467 0
M  V30 7983 H 749.17 2.95274 -2.27253 0
M  V30 7984 H 749.283 2.48312 -4.09729 0
M  V30 7985 H 747.647 1.40188 -2.12649 0
M  V30 7986 H 748.43 0.338793 -3.41624 0
M  V30 7987 N 750.875 1.45233 0.611969 0
M  V30 7988 C 752.286 1.4354 1.19387 0
M  V30 7989 C 752.637 0.160713 1.95541 0
M  V30 7990 O 751.762 -0.737954 2.03429 0
M  V30 7991 C 752.357 2.60045 2.17169 0
M  V30 7992 C 750.916 2.61486 2.70744 0
M  V30 7993 C 750.063 2.35708 1.46072 0
M  V30 7994 H 753.014 1.53536 0.401529 0
M  V30 7995 H 753.035 2.33893 3.00124 0
M  V30 7996 H 752.547 3.52803 1.61714 0
M  V30 7997 H 750.648 1.72721 3.30149 0
M  V30 7998 H 750.761 3.60572 3.15476 0
M  V30 7999 H 749.125 1.85178 1.74875 0
M  V30 8000 H 749.908 3.30606 0.924922 0
M  V30 8001 N 752.353 -0.854086 1.3245 0
M  V30 8002 C 753.285 -1.96932 1.17262 0
M  V30 8003 C 754.298 -1.62445 0.107469 0
M  V30 8004 O 755.487 -1.74904 0.356481 0
M  V30 8005 C 752.587 -3.29971 0.772817 0
M  V30 8006 C 751.76 -3.92695 1.92638 0
M  V30 8007 C 750.819 -5.04068 1.51003 0
M  V30 8008 O 749.845 -5.24032 2.22213 0
M  V30 8009 N 751.047 -5.79076 0.406371 0
M  V30 8010 H 753.812 -2.10503 2.13327 0
M  V30 8011 H 751.373 -1.02897 1.24995 0
M  V30 8012 H 753.365 -4.01883 0.476684 0
M  V30 8013 H 751.935 -3.1245 -0.0967 0
M  V30 8014 H 751.155 -3.13563 2.38897 0
M  V30 8015 H 752.443 -4.31337 2.69863 0
M  V30 8016 H 751.841 -5.65393 -0.186302 0
M  V30 8017 H 750.398 -6.51579 0.169846 0
M  V30 8018 N 753.831 -1.1567 -1.07043 0
M  V30 8019 C 755.061 -0.956083 -1.83146 0
M  V30 8020 C 755.469 0.498969 -1.82502 0
M  V30 8021 O 754.812 1.35791 -1.23719 0
M  V30 8022 C 754.874 -1.39704 -3.31245 0
M  V30 8023 C 754.538 -2.87045 -3.55604 0
M  V30 8024 C 755.535 -3.85092 -3.49285 0
M  V30 8025 C 753.22 -3.24787 -3.8317 0
M  V30 8026 C 755.214 -5.18885 -3.70185 0
M  V30 8027 C 752.901 -4.58751 -4.03721 0
M  V30 8028 C 753.899 -5.55609 -3.97224 0
M  V30 8029 O 753.587 -6.87154 -4.17223 0
M  V30 8030 H 753.319 -0.339473 -0.58458 0
M  V30 8031 H 755.873 -1.53922 -1.36005 0
M  V30 8032 H 754.103 -0.757326 -3.79212 0
M  V30 8033 H 755.792 -1.16503 -3.88821 0
M  V30 8034 H 756.558 -3.5728 -3.27988 0
M  V30 8035 H 752.437 -2.49979 -3.87339 0
M  V30 8036 H 755.981 -5.94473 -3.6503 0
M  V30 8037 H 751.878 -4.86277 -4.24505 0
M  V30 8038 H 752.646 -6.93618 -4.34553 0
M  V30 8039 N 755.309 1.25446 -0.953992 0
M  V30 8040 C 756.272 2.24156 -0.478179 0
M  V30 8041 C 757.272 1.55278 0.417776 0
M  V30 8042 O 758.462 1.72866 0.215155 0
M  V30 8043 C 755.594 3.39495 0.309202 0
M  V30 8044 H 756.787 2.67764 -1.35064 0
M  V30 8045 H 754.34 1.37822 -0.737206 0
M  V30 8046 H 755.075 3.01307 1.19936 0
M  V30 8047 H 754.86 3.90679 -0.333562 0
M  V30 8048 H 756.35 4.12796 0.631594 0
M  V30 8049 N 756.787 0.722489 1.40064 0
M  V30 8050 C 758.035 0.264455 2.00362 0
M  V30 8051 C 758.356 -1.14847 1.57592 0
M  V30 8052 O 757.626 -1.77982 0.818477 0
M  V30 8053 H 756.206 0.0947846 0.740962 0
M  V30 8054 H 758.868 0.929659 1.71299 0
M  V30 8055 H 757.964 0.302977 3.10626 0
M  V30 8056 N 758.265 -1.50454 0.469181 0
M  V30 8057 C 759.676 -1.86695 0.0136034 0
M  V30 8058 C 760.027 -1.38413 -1.39055 0
M  V30 8059 O 759.152 -0.748294 -2.03051 0
M  V30 8060 C 759.747 -3.38795 0.0179098 0
M  V30 8061 C 758.306 -3.74455 -0.382191 0
M  V30 8062 C 757.453 -2.74338 0.404207 0
M  V30 8063 H 760.404 -1.43225 0.683547 0
M  V30 8064 H 760.425 -3.72321 -0.78468 0
M  V30 8065 H 759.937 -3.73906 1.04 0
M  V30 8066 H 758.038 -3.44944 -1.4087 0
M  V30 8067 H 758.151 -4.79025 -0.084862 0
M  V30 8068 H 756.515 -2.54305 -0.141829 0
M  V30 8069 H 757.298 -3.12293 1.42577 0
M  V30 8070 N 759.743 -0.201713 -1.56304 0
M  V30 8071 C 760.992 0.435557 -1.96941 0
M  V30 8072 C 761.305 1.62299 -1.09172 0
M  V30 8073 O 762.511 2.32849 -1.3962 0
M  V30 8074 C 760.967 0.826298 -3.50286 0
M  V30 8075 C 760.575 -0.337216 -4.46729 0
M  V30 8076 C 762.319 1.43028 -3.99679 0
M  V30 8077 C 760.226 0.0748539 -5.91353 0
M  V30 8078 H 759.156 0.1665 -0.735387 0
M  V30 8079 H 761.807 -0.294781 -1.81117 0
M  V30 8080 H 760.189 1.61349 -3.61639 0
M  V30 8081 H 761.363 -1.11476 -4.47113 0
M  V30 8082 H 759.678 -0.853126 -4.07567 0
M  V30 8083 H 762.275 1.75115 -5.05212 0
M  V30 8084 H 762.618 2.33911 -3.44371 0
M  V30 8085 H 763.151 0.706924 -3.91468 0
M  V30 8086 H 759.89 -0.799957 -6.506 0
M  V30 8087 H 759.41 0.817122 -5.94208 0
M  V30 8088 H 761.089 0.508389 -6.45 0
M  V30 8089 N 761.222 1.57436 0.0718424 0
M  V30 8090 C 762.638 1.53792 0.426628 0
M  V30 8091 C 762.838 0.921887 1.79174 0
M  V30 8092 O 761.894 0.524374 2.46995 0
M  V30 8093 C 763.207 2.98443 0.367739 0
M  V30 8094 C 764.755 3.09778 0.447928 0
M  V30 8095 C 765.23 4.5608 0.418946 0
M  V30 8096 N 766.721 4.60716 0.479022 0
M  V30 8097 C 767.456 5.71397 0.47881 0
M  V30 8098 N 766.952 6.91443 0.433417 0
M  V30 8099 N 768.745 5.59639 0.525364 0
M  V30 8100 H 760.896 1.95848 -0.822033 0
M  V30 8101 H 763.159 0.896418 -0.308447 0
M  V30 8102 H 762.865 3.47072 -0.56865 0
M  V30 8103 H 762.739 3.58335 1.17795 0
M  V30 8104 H 765.126 2.61122 1.37474 0
M  V30 8105 H 765.207 2.52796 -0.390857 0
M  V30 8106 H 764.851 5.05393 -0.504016 0
M  V30 8107 H 764.781 5.10925 1.27526 0
M  V30 8108 H 767.272 3.74328 0.518355 0
M  V30 8109 H 767.585 7.71562 0.43718 0
M  V30 8110 H 765.93 6.93847 0.400106 0
M  V30 8111 H 769.121 4.64756 0.558519 0
M  V30 8112 H 769.294 6.45896 0.52173 0
M  V30 8113 N 762.7 -0.34323 1.53817 0
M  V30 8114 C 763.63 -1.42709 1.84814 0
M  V30 8115 C 764.611 -1.5488 0.703297 0
M  V30 8116 O 765.796 -1.69082 0.955237 0
M  V30 8117 C 762.926 -2.79756 2.05801 0
M  V30 8118 C 761.88 -2.82392 3.21619 0
M  V30 8119 C 761.206 -4.22326 3.2794 0
M  V30 8120 C 762.506 -2.479 4.59721 0
M  V30 8121 H 764.2 -1.17018 2.75585 0
M  V30 8122 H 761.746 -0.561485 1.32602 0
M  V30 8123 H 763.699 -3.55627 2.26069 0
M  V30 8124 H 762.423 -3.06883 1.11761 0
M  V30 8125 H 761.082 -2.08974 3.01207 0
M  V30 8126 H 760.73 -4.46564 2.31494 0
M  V30 8127 H 760.43 -4.25001 4.05768 0
M  V30 8128 H 761.954 -5.00039 3.50419 0
M  V30 8129 H 763.368 -3.13484 4.80001 0
M  V30 8130 H 761.765 -2.61857 5.39954 0
M  V30 8131 H 762.835 -1.43087 4.63308 0
M  V30 8132 N 764.178 -1.45556 -0.604258 0
M  V30 8133 C 765.594 -1.30035 -0.925368 0
M  V30 8134 C 765.794 -0.255833 -1.99869 0
M  V30 8135 O 764.85 0.349076 -2.50075 0
M  V30 8136 C 766.163 -2.68028 -1.36314 0
M  V30 8137 C 767.711 -2.75951 -1.47717 0
M  V30 8138 C 768.186 -4.14476 -1.94868 0
M  V30 8139 N 769.677 -4.16787 -2.02097 0
M  V30 8140 C 770.412 -5.20845 -2.39809 0
M  V30 8141 N 769.908 -6.35246 -2.76467 0
M  V30 8142 N 771.701 -5.08204 -2.40177 0
M  V30 8143 H 763.852 -2.1214 0.10512 0
M  V30 8144 H 766.115 -0.947871 -0.0156303 0
M  V30 8145 H 765.821 -3.45667 -0.648628 0
M  V30 8146 H 765.695 -2.96711 -2.329 0
M  V30 8147 H 768.082 -1.98613 -2.18258 0
M  V30 8148 H 768.163 -2.50977 -0.494371 0
M  V30 8149 H 767.807 -4.923 -1.24912 0
M  V30 8150 H 767.737 -4.36843 -2.94068 0
M  V30 8151 H 770.228 -3.34233 -1.76343 0
M  V30 8152 H 770.541 -7.10438 -3.04134 0
M  V30 8153 H 768.886 -6.38642 -2.74155 0
M  V30 8154 H 772.077 -4.17874 -2.10947 0
M  V30 8155 H 772.25 -5.89417 -2.69242 0
M  V30 8156 N 765.656 0.84705 -1.32902 0
M  V30 8157 C 766.588 1.96308 -1.18304 0
M  V30 8158 C 767.601 1.62386 -0.116082 0
M  V30 8159 O 768.79 1.74713 -0.365751 0
M  V30 8160 C 765.89 3.29556 -0.790305 0
M  V30 8161 C 765.063 3.91668 -1.94717 0
M  V30 8162 C 764.122 5.0326 -1.53674 0
M  V30 8163 O 763.148 5.22847 -2.24989 0
M  V30 8164 N 764.35 5.78852 -0.437075 0
M  V30 8165 H 767.115 2.09369 -2.14441 0
M  V30 8166 H 764.676 1.02233 -1.25539 0
M  V30 8167 H 766.668 4.01624 -0.49799 0
M  V30 8168 H 765.238 3.12497 0.0801286 0
M  V30 8169 H 764.458 3.12292 -2.40557 0
M  V30 8170 H 765.746 4.299 -2.72146 0
M  V30 8171 H 765.144 5.65484 0.156316 0
M  V30 8172 H 763.701 6.51479 -0.204399 0
M  V30 8173 N 767.134 1.16236 1.06428 0
M  V30 8174 C 768.382 0.941171 1.78847 0
M  V30 8175 C 768.703 -0.53248 1.87589 0
M  V30 8176 O 767.973 -1.38686 1.38358 0
M  V30 8177 H 766.553 0.345228 0.66244 0
M  V30 8178 H 769.215 1.46479 1.28569 0
M  V30 8179 H 768.311 1.35871 2.80972 0
M  V30 8180 N 768.612 -1.24939 0.960631 0
M  V30 8181 C 769.542 -2.28 0.503815 0
M  V30 8182 C 770.523 -1.63959 -0.452928 0
M  V30 8183 O 771.708 -1.91009 -0.350585 0
M  V30 8184 C 768.838 -3.46643 -0.213535 0
M  V30 8185 C 767.792 -4.22903 0.658535 0
M  V30 8186 C 767.118 -5.34363 -0.189902 0
M  V30 8187 C 768.418 -4.84949 1.93963 0
M  V30 8188 H 770.112 -2.66462 1.36521 0
M  V30 8189 H 767.658 -1.28093 0.657897 0
M  V30 8190 H 769.611 -4.1787 -0.544286 0
M  V30 8191 H 768.335 -3.07187 -1.10923 0
M  V30 8192 H 766.994 -3.53467 0.972455 0
M  V30 8193 H 766.642 -4.91147 -1.08553 0
M  V30 8194 H 766.342 -5.86302 0.390331 0
M  V30 8195 H 767.866 -6.0842 -0.515484 0
M  V30 8196 H 769.28 -5.48288 1.67491 0
M  V30 8197 H 767.677 -5.47091 2.46601 0
M  V30 8198 H 768.747 -4.06799 2.639 0
M  V30 8199 N 770.09 -0.729906 -1.39679 0
M  V30 8200 C 771.338 -0.275077 -2.00219 0
M  V30 8201 C 771.659 1.1401 -1.58199 0
M  V30 8202 O 770.929 1.77546 -0.827904 0
M  V30 8203 H 769.509 -0.0987127 -0.740449 0
M  V30 8204 H 772.171 -0.93873 -1.70804 0
M  V30 8205 H 771.267 -0.319446 -3.10461 0
M  V30 8206 N 771.568 1.50203 -0.477153 0
M  V30 8207 C 772.5 2.26508 0.350239 0
M  V30 8208 C 773.513 1.32081 0.95176 0
M  V30 8209 O 774.702 1.57546 0.839139 0
M  V30 8210 C 771.802 3.0361 1.50579 0
M  V30 8211 C 770.975 4.25438 1.01595 0
M  V30 8212 C 770.034 4.84783 2.04626 0
M  V30 8213 O 769.06 5.45528 1.62442 0
M  V30 8214 N 770.262 4.72318 3.37485 0
M  V30 8215 H 773.027 2.98155 -0.30394 0
M  V30 8216 H 770.588 1.58938 -0.308289 0
M  V30 8217 H 772.58 3.4019 2.1921 0
M  V30 8218 H 771.15 2.34724 2.06455 0
M  V30 8219 H 770.37 3.93894 0.155316 0
M  V30 8220 H 771.658 5.04413 0.666694 0
M  V30 8221 H 771.056 4.24022 3.74462 0
M  V30 8222 H 769.613 5.13149 4.01897 0
M  V30 8223 N 773.046 0.209999 1.56195 0
M  V30 8224 C 774.271 -0.433064 2.02828 0
M  V30 8225 C 774.696 -1.5337 1.08901 0
M  V30 8226 O 774.054 -1.81144 0.0751132 0
M  V30 8227 C 774.102 -0.952635 3.47789 0
M  V30 8228 O 773.206 -2.0647 3.56993 0
M  V30 8229 H 772.547 -0.0994594 0.656509 0
M  V30 8230 H 775.077 0.32525 2.01998 0
M  V30 8231 H 775.087 -1.26542 3.8788 0
M  V30 8232 H 773.762 -0.147007 4.1564 0
M  V30 8233 H 772.339 -1.75942 3.28784 0
M  V30 8234 N 774.524 -1.57472 -0.0634922 0
M  V30 8235 C 775.471 -2.04258 -1.07457 0
M  V30 8236 C 776.441 -0.924804 -1.37973 0
M  V30 8237 O 777.626 -1.19305 -1.48899 0
M  V30 8238 C 774.766 -2.49832 -2.38071 0
M  V30 8239 C 773.879 -3.75263 -2.14014 0
M  V30 8240 C 773.014 -4.09585 -3.38251 0
M  V30 8241 C 772.053 -5.28032 -3.09594 0
M  V30 8242 N 771.19 -5.57953 -4.26185 0
M  V30 8243 H 776.03 -2.90402 -0.668626 0
M  V30 8244 H 773.567 -1.43609 -0.318572 0
M  V30 8245 H 775.525 -2.7431 -3.14341 0
M  V30 8246 H 774.155 -1.66654 -2.76453 0
M  V30 8247 H 773.207 -3.58075 -1.28399 0
M  V30 8248 H 774.519 -4.61667 -1.88852 0
M  V30 8249 H 773.673 -4.35008 -4.2291 0
M  V30 8250 H 772.412 -3.21765 -3.66495 0
M  V30 8251 H 771.417 -5.02397 -2.23332 0
M  V30 8252 H 772.642 -6.17477 -2.82663 0
M  V30 8253 H 770.588 -4.73092 -4.54445 0
M  V30 8254 H 770.505 -6.38793 -4.04326 0
M  V30 8255 H 771.773 -5.87931 -5.11817 0
M  V30 8256 N 776.003 0.335068 -1.53997 0
M  V30 8257 C 776.951 1.43206 -1.83289 0
M  V30 8258 C 777.945 1.54081 -0.703953 0
M  V30 8259 O 779.151 1.56603 -0.887432 0
M  V30 8260 H 775.526 0.477655 -0.580818 0
M  V30 8261 H 777.497 1.15719 -2.75049 0
M  V30 8262 C 776.246 2.79602 -2.06683 0
M  V30 8263 H 775.569 2.72004 -2.93008 0
M  V30 8264 H 777.009 3.55459 -2.31139 0
M  V30 8265 C 775.468 3.25873 -0.854883 0
M  V30 8266 O 775.998 4.01657 -0.0584648 0
M  V30 8267 N 774.204 2.82777 -0.669729 0
M  V30 8268 H 773.751 2.21269 -1.31901 0
M  V30 8269 H 773.709 3.1409 0.13969 0
M  V30 8270 N 777.481 1.45874 0.596531 0
M  V30 8271 C 778.727 1.5069 1.35722 0
M  V30 8272 C 779.06 0.152506 1.936 0
M  V30 8273 O 778.335 -0.834411 1.75692 0
M  V30 8274 C 778.618 2.59474 2.4969 0
M  V30 8275 C 778.471 4.04396 1.96937 0
M  V30 8276 C 779.79 2.64451 3.51787 0
M  V30 8277 H 776.909 0.548611 0.492133 0
M  V30 8278 H 779.551 1.77741 0.671428 0
M  V30 8279 H 777.701 2.36539 3.08191 0
M  V30 8280 H 779.373 4.38576 1.43 0
M  V30 8281 H 777.616 4.14529 1.27859 0
M  V30 8282 H 778.287 4.76218 2.79143 0
M  V30 8283 H 780.763 2.85031 3.03145 0
M  V30 8284 H 779.639 3.42411 4.29006 0
M  V30 8285 H 779.9 1.69965 4.08123 0
M  V30 8286 N 778.959 -0.83999 1.33349 0
M  V30 8287 C 780.205 -1.59753 1.24927 0
M  V30 8288 C 780.538 -1.93318 -0.184855 0
M  V30 8289 O 779.813 -1.586 -1.12589 0
M  V30 8290 C 780.096 -2.90829 2.12345 0
M  V30 8291 C 779.949 -2.63953 3.6421 0
M  V30 8292 C 781.268 -3.92246 1.99577 0
M  V30 8293 H 778.387 -0.579654 0.45516 0
M  V30 8294 H 781.029 -0.968909 1.63439 0
M  V30 8295 H 779.179 -3.44478 1.79631 0
M  V30 8296 H 780.851 -2.16745 4.07209 0
M  V30 8297 H 779.094 -1.97671 3.86146 0
M  V30 8298 H 779.765 -3.57348 4.20721 0
M  V30 8299 H 782.241 -3.479 2.28265 0
M  V30 8300 H 781.117 -4.81793 2.62996 0
M  V30 8301 H 781.378 -4.3138 0.967673 0
M  V30 8302 N 780.437 -1.16799 -1.0581 0
M  V30 8303 C 781.37 -0.822491 -2.12862 0
M  V30 8304 C 782.348 0.208006 -1.61264 0
M  V30 8305 O 783.532 0.0909652 -1.8828 0
M  V30 8306 C 780.659 -0.225826 -3.37946 0
M  V30 8307 C 779.705 -1.23071 -4.08357 0
M  V30 8308 S 780.538 -2.77944 -4.5772 0
M  V30 8309 C 781.694 -2.19741 -5.86059 0
M  V30 8310 H 781.927 -1.72917 -2.41841 0
M  V30 8311 H 779.46 -0.991982 -1.18318 0
M  V30 8312 H 781.418 0.111955 -4.10347 0
M  V30 8313 H 780.079 0.658692 -3.07116 0
M  V30 8314 H 779.272 -0.761758 -4.9821 0
M  V30 8315 H 778.874 -1.51383 -3.41993 0
M  V30 8316 H 781.166 -1.5691 -6.59079 0
M  V30 8317 H 782.109 -3.07823 -6.37692 0
M  V30 8318 H 782.517 -1.63433 -5.40324 0
M  V30 8319 N 781.915 1.24427 -0.967243 0
M  V30 8320 C 783.161 1.92772 -0.629812 0
M  V30 8321 C 783.494 1.75436 0.832827 0
M  V30 8322 O 782.769 1.10716 1.59913 0
M  V30 8323 C 783.052 3.45798 -1.00477 0
M  V30 8324 C 782.905 3.72304 -2.52407 0
M  V30 8325 C 784.224 4.36787 -0.538999 0
M  V30 8326 H 781.343 0.700099 -0.230282 0
M  V30 8327 H 783.985 1.46805 -1.20616 0
M  V30 8328 H 782.135 3.8508 -0.514336 0
M  V30 8329 H 783.807 3.42584 -3.08924 0
M  V30 8330 H 782.05 3.17472 -2.95625 0
M  V30 8331 H 782.721 4.7937 -2.73693 0
M  V30 8332 H 785.197 4.04877 -0.959874 0
M  V30 8333 H 784.073 5.4259 -0.829926 0
M  V30 8334 H 784.334 4.38527 0.560923 0
M  V30 8335 N 783.393 0.737304 1.3929 0
M  V30 8336 C 784.809 0.413132 1.5416 0
M  V30 8337 C 785.009 -1.07574 1.70382 0
M  V30 8338 O 784.065 -1.86185 1.70562 0
M  V30 8339 C 785.378 1.19817 2.75798 0
M  V30 8340 C 786.926 1.18662 2.89635 0
M  V30 8341 C 787.401 1.95427 4.14213 0
M  V30 8342 N 788.892 1.92605 4.21257 0
M  V30 8343 C 789.627 2.48808 5.16606 0
M  V30 8344 N 789.123 3.13659 6.1773 0
M  V30 8345 N 790.916 2.38829 5.08839 0
M  V30 8346 H 783.067 1.70243 1.27008 0
M  V30 8347 H 785.33 0.720802 0.61575 0
M  V30 8348 H 785.036 2.25179 2.70161 0
M  V30 8349 H 784.91 0.804144 3.68529 0
M  V30 8350 H 787.297 0.141112 2.94762 0
M  V30 8351 H 787.378 1.62003 1.97961 0
M  V30 8352 H 787.022 2.9998 4.09847 0
M  V30 8353 H 786.952 1.4949 5.04936 0
M  V30 8354 H 789.443 1.45362 3.48824 0
M  V30 8355 H 789.756 3.54006 6.8695 0
M  V30 8356 H 788.101 3.17749 6.1811 0
M  V30 8357 H 791.292 1.87806 4.28773 0
M  V30 8358 H 791.465 2.82929 5.82971 0
M  V30 8359 N 784.871 -1.49948 0.485112 0
M  V30 8360 C 785.834 -2.27351 -0.290546 0
M  V30 8361 C 786.834 -1.32704 -0.908087 0
M  V30 8362 O 788.024 -1.56007 -0.775085 0
M  V30 8363 C 785.156 -3.10135 -1.41524 0
M  V30 8364 H 786.349 -2.97374 0.388454 0
M  V30 8365 H 783.902 -1.54453 0.239586 0
M  V30 8366 H 784.637 -2.44641 -2.12888 0
M  V30 8367 H 784.422 -3.79705 -0.978074 0
M  V30 8368 H 785.912 -3.68638 -1.96204 0
M  V30 8369 N 786.349 -0.21828 -1.56081 0
M  V30 8370 C 787.282 0.733096 -2.16104 0
M  V30 8371 C 788.26 1.19333 -1.10447 0
M  V30 8372 O 789.444 1.27666 -1.38685 0
M  V30 8373 C 786.571 1.99283 -2.73868 0
M  V30 8374 C 785.617 1.67285 -3.92324 0
M  V30 8375 S 786.45 0.800511 -5.29483 0
M  V30 8376 C 787.606 2.06988 -5.90683 0
M  V30 8377 H 787.839 0.222917 -2.96463 0
M  V30 8378 H 785.372 -0.00300946 -1.544 0
M  V30 8379 H 787.33 2.71618 -3.07789 0
M  V30 8380 H 785.991 2.47414 -1.93508 0
M  V30 8381 H 785.184 2.60874 -4.31232 0
M  V30 8382 H 784.786 1.03016 -3.59533 0
M  V30 8383 H 787.078 3.02019 -6.06457 0
M  V30 8384 H 788.021 1.72476 -6.86773 0
M  V30 8385 H 788.429 2.20893 -5.19487 0
M  V30 8386 N 787.827 1.57504 0.0551401 0
M  V30 8387 C 789.243 1.54236 0.410292 0
M  V30 8388 C 789.443 0.940839 1.78187 0
M  V30 8389 O 788.499 0.550541 2.46425 0
M  V30 8390 C 789.812 2.98816 0.336064 0
M  V30 8391 C 791.36 3.10236 0.415047 0
M  V30 8392 C 791.835 4.56499 0.37055 0
M  V30 8393 N 793.326 4.61199 0.43013 0
M  V30 8394 C 794.061 5.71873 0.418179 0
M  V30 8395 N 793.557 6.91864 0.360056 0
M  V30 8396 N 795.35 5.60165 0.465977 0
M  V30 8397 H 787.501 1.94965 -0.842759 0
M  V30 8398 H 789.764 0.893096 -0.317937 0
M  V30 8399 H 789.47 3.4645 -0.605429 0
M  V30 8400 H 789.344 3.59564 1.13988 0
M  V30 8401 H 791.731 2.62566 1.34697 0
M  V30 8402 H 791.812 2.52367 -0.417648 0
M  V30 8403 H 791.456 5.0483 -0.557592 0
M  V30 8404 H 791.386 5.12249 1.221 0
M  V30 8405 H 793.877 3.74857 0.478623 0
M  V30 8406 H 794.19 7.71983 0.35532 0
M  V30 8407 H 792.535 6.94233 0.326492 0
M  V30 8408 H 795.726 4.65322 0.509194 0
M  V30 8409 H 795.899 6.46413 0.453194 0
M  V30 8410 N 789.305 -0.326896 1.54172 0
M  V30 8411 C 790.268 -1.38515 1.8261 0
M  V30 8412 C 791.268 -1.44872 0.697771 0
M  V30 8413 O 792.458 -1.44957 0.966078 0
M  V30 8414 C 789.59 -2.77281 1.98313 0
M  V30 8415 H 790.783 -1.14556 2.77159 0
M  V30 8416 H 788.336 -0.562199 1.45839 0
M  V30 8417 H 789.071 -3.065 1.05964 0
M  V30 8418 H 788.856 -2.74061 2.80416 0
M  V30 8419 H 790.346 -3.53845 2.21773 0
M  V30 8420 N 790.784 -1.46188 -0.588786 0
M  V30 8421 C 791.717 -1.508 -1.71274 0
M  V30 8422 C 792.695 -0.362635 -1.58505 0
M  V30 8423 O 793.879 -0.565899 -1.79805 0
M  V30 8424 C 791.006 -1.38082 -3.09275 0
M  V30 8425 C 790.052 -2.56723 -3.40581 0
M  V30 8426 S 790.885 -4.1911 -3.33327 0
M  V30 8427 C 792.041 -4.08891 -4.73877 0
M  V30 8428 H 792.274 -2.45895 -1.67102 0
M  V30 8429 H 789.807 -1.34 -0.767025 0
M  V30 8430 H 791.765 -1.31432 -3.88891 0
M  V30 8431 H 790.426 -0.444259 -3.10942 0
M  V30 8432 H 789.619 -2.43801 -4.41109 0
M  V30 8433 H 789.221 -2.60332 -2.68521 0
M  V30 8434 H 791.513 -3.75196 -5.64123 0
M  V30 8435 H 792.456 -5.09395 -4.91856 0
M  V30 8436 H 792.864 -3.40239 -4.50441 0
M  V30 8437 N 792.262 0.832906 -1.33792 0
M  V30 8438 C 793.51 1.58539 -1.25338 0
M  V30 8439 C 793.831 1.94175 0.179204 0
M  V30 8440 O 793.101 1.61458 1.10941 0
M  V30 8441 H 791.681 0.58784 -0.460926 0
M  V30 8442 H 794.343 0.995064 -1.67584 0
M  V30 8443 H 793.439 2.51268 -1.85123 0
M  V30 8444 N 793.74 1.17359 1.05189 0
M  V30 8445 C 794.986 0.963413 1.78455 0
M  V30 8446 C 795.319 -0.506703 1.87473 0
M  V30 8447 O 794.594 -1.37611 1.37453 0
M  V30 8448 C 794.877 1.60519 3.22344 0
M  V30 8449 C 794.73 3.14741 3.21338 0
M  V30 8450 C 796.049 1.3091 4.20179 0
M  V30 8451 H 793.168 0.351412 0.647826 0
M  V30 8452 H 795.81 1.44858 1.22948 0
M  V30 8453 H 793.96 1.19265 3.69741 0
M  V30 8454 H 795.632 3.65053 2.82017 0
M  V30 8455 H 793.875 3.4749 2.59679 0
M  V30 8456 H 794.546 3.54775 4.22894 0
M  V30 8457 H 797.022 1.66635 3.81277 0
M  V30 8458 H 795.898 1.784 5.191 0
M  V30 8459 H 796.159 0.229908 4.41502 0
M  V30 8460 N 795.218 -1.23913 0.973828 0
M  V30 8461 C 796.495 -1.87539 0.555729 0
M  V30 8462 C 796.875 -1.87641 -0.967162 0
M  V30 8463 O 796.223 -1.35335 -1.84111 0
M  V30 8464 C 796.433 -3.29359 1.15427 0
M  V30 8465 C 797.781 -4.06 1.24294 0
M  V30 8466 O 798.805 -3.38554 1.10723 0
M  V30 8467 O 797.664 -5.26689 1.45813 0
M  V30 8468 H 794.758 -0.805769 0.186188 0
M  V30 8469 H 797.304 -1.31838 1.06849 0
M  V30 8470 H 796.076 -3.23817 2.19678 0
M  V30 8471 H 795.699 -3.92642 0.625925 0
M  V30 8472 N 796.696 -0.74468 -1.38897 0
M  V30 8473 C 797.926 -0.306982 -2.04307 0
M  V30 8474 C 798.334 1.06652 -1.56275 0
M  V30 8475 O 797.677 1.68699 -0.72708 0
M  V30 8476 C 797.739 -0.241186 -3.5869 0
M  V30 8477 C 797.403 -1.55476 -4.2974 0
M  V30 8478 C 798.4 -2.50229 -4.55721 0
M  V30 8479 C 796.085 -1.82173 -4.68101 0
M  V30 8480 C 798.079 -3.69905 -5.19085 0
M  V30 8481 C 795.766 -3.02125 -5.31191 0
M  V30 8482 C 796.764 -3.95812 -5.56616 0
M  V30 8483 O 796.452 -5.13656 -6.18395 0
M  V30 8484 H 796.184 -0.130416 -0.663301 0
M  V30 8485 H 798.738 -1.01192 -1.78744 0
M  V30 8486 H 796.968 0.519925 -3.83189 0
M  V30 8487 H 798.657 0.165806 -4.05561 0
M  V30 8488 H 799.423 -2.30877 -4.26522 0
M  V30 8489 H 795.302 -1.10091 -4.47662 0
M  V30 8490 H 798.846 -4.43047 -5.38846 0
M  V30 8491 H 794.743 -3.21374 -5.59811 0
M  V30 8492 H 795.511 -5.14119 -6.36886 0
M  V30 8493 N 798.174 1.49689 -0.493057 0
M  V30 8494 C 799.137 2.27502 0.278485 0
M  V30 8495 C 800.137 1.33184 0.901037 0
M  V30 8496 O 801.327 1.56415 0.766801 0
M  V30 8497 C 798.459 3.10881 1.39878 0
M  V30 8498 H 799.652 2.97163 -0.404219 0
M  V30 8499 H 797.205 1.54324 -0.247774 0
M  V30 8500 H 797.94 2.45767 2.11587 0
M  V30 8501 H 797.725 3.80219 0.957924 0
M  V30 8502 H 799.215 3.69673 1.94247 0
M  V30 8503 N 799.652 0.226554 1.55963 0
M  V30 8504 C 800.615 -0.668015 2.19249 0
M  V30 8505 C 801.615 -1.11794 1.1558 0
M  V30 8506 O 802.805 -1.02593 1.40784 0
M  V30 8507 C 799.937 -1.91571 2.81981 0
M  V30 8508 H 801.13 -0.116175 2.99675 0
M  V30 8509 H 798.683 -0.0230497 1.56283 0
M  V30 8510 H 799.418 -2.50929 2.05439 0
M  V30 8511 H 799.203 -1.6015 3.57903 0
M  V30 8512 H 800.693 -2.55294 3.30477 0
M  V30 8513 N 801.13 -1.57531 -0.0467866 0
M  V30 8514 C 802.04 -2.08768 -1.07018 0
M  V30 8515 C 803.056 -1.02245 -1.40791 0
M  V30 8516 O 804.232 -1.33873 -1.50466 0
M  V30 8517 C 801.297 -2.54221 -2.35738 0
M  V30 8518 C 800.358 -3.75152 -2.08709 0
M  V30 8519 C 799.591 -4.18428 -3.31291 0
M  V30 8520 O 799.814 -3.61365 -4.4133 0
M  V30 8521 O 798.748 -5.11018 -3.18032 0
M  V30 8522 H 802.574 -2.96334 -0.664812 0
M  V30 8523 H 800.159 -1.47074 -0.262605 0
M  V30 8524 H 802.041 -2.83866 -3.11445 0
M  V30 8525 H 800.716 -1.69774 -2.75605 0
M  V30 8526 H 799.623 -3.50553 -1.30627 0
M  V30 8527 H 800.956 -4.60528 -1.73708 0
M  V30 8528 N 802.608 0.318715 -1.54344 0
M  V30 8529 C 803.838 1.07394 -1.76494 0
M  V30 8530 C 804.246 1.82031 -0.515881 0
M  V30 8531 O 803.589 1.7609 0.52325 0
M  V30 8532 C 803.651 2.11401 -2.90775 0
M  V30 8533 C 803.315 1.56118 -4.29507 0
M  V30 8534 C 804.312 1.00043 -5.10184 0
M  V30 8535 C 801.997 1.60215 -4.76063 0
M  V30 8536 C 803.991 0.487993 -6.35529 0
M  V30 8537 C 801.678 1.08584 -6.01376 0
M  V30 8538 C 802.676 0.529714 -6.80943 0
M  V30 8539 O 802.364 0.0211823 -8.03897 0
M  V30 8540 H 802.096 0.325061 -0.592715 0
M  V30 8541 H 804.65 0.36901 -2.02058 0
M  V30 8542 H 802.88 2.85524 -2.60793 0
M  V30 8543 H 804.569 2.72683 -3.00664 0
M  V30 8544 H 805.335 0.961811 -4.75367 0
M  V30 8545 H 801.214 2.02441 -4.14172 0
M  V30 8546 H 804.758 0.0532608 -6.9758 0
M  V30 8547 H 800.655 1.12155 -6.35682 0
M  V30 8548 H 801.423 0.136151 -8.18387 0
M  V30 8549 N 804.086 1.46499 0.581025 0
M  V30 8550 C 805.016 1.60052 1.70017 0
M  V30 8551 C 805.997 0.450788 1.64018 0
M  V30 8552 O 807.182 0.677237 1.82009 0
M  V30 8553 C 804.312 1.5921 3.08658 0
M  V30 8554 C 803.266 2.73169 3.29488 0
M  V30 8555 C 802.592 2.57389 4.68674 0
M  V30 8556 C 803.892 4.14978 3.1716 0
M  V30 8557 H 805.586 2.53735 1.5893 0
M  V30 8558 H 803.132 1.22113 0.763173 0
M  V30 8559 H 805.085 1.67285 3.86773 0
M  V30 8560 H 803.809 0.620718 3.20647 0
M  V30 8561 H 802.468 2.64566 2.53773 0
M  V30 8562 H 802.116 1.58331 4.77431 0
M  V30 8563 H 801.816 3.33826 4.83564 0
M  V30 8564 H 803.34 2.67358 5.48956 0
M  V30 8565 H 804.754 4.24684 3.85119 0
M  V30 8566 H 803.151 4.92016 3.4357 0
M  V30 8567 H 804.221 4.35016 2.14218 0
M  V30 8568 N 805.565 -0.825799 1.34232 0
M  V30 8569 C 806.497 -1.94401 1.21413 0
M  V30 8570 C 807.51 -1.6218 0.141902 0
M  V30 8571 O 808.699 -1.74109 0.3935 0
M  V30 8572 C 805.799 -3.28257 0.842635 0
M  V30 8573 C 804.972 -3.88521 2.00924 0
M  V30 8574 C 804.031 -5.00752 1.61661 0
M  V30 8575 O 803.057 -5.19201 2.33279 0
M  V30 8576 N 804.259 -5.78084 0.52911 0
M  V30 8577 H 807.024 -2.05931 2.17744 0
M  V30 8578 H 804.585 -1.00223 1.27149 0
M  V30 8579 H 806.577 -4.00781 0.561822 0
M  V30 8580 H 805.147 -3.12585 -0.0304029 0
M  V30 8581 H 804.367 -3.08425 2.45495 0
M  V30 8582 H 805.655 -4.25516 2.78951 0
M  V30 8583 H 805.053 -5.65661 -0.0663322 0
M  V30 8584 H 803.61 -6.51072 0.308017 0
M  V30 8585 N 807.043 -1.17915 -1.04565 0
M  V30 8586 C 808.459 -0.927761 -1.29864 0
M  V30 8587 C 808.659 0.409536 -1.97294 0
M  V30 8588 O 807.715 1.14505 -2.25044 0
M  V30 8589 C 809.028 -2.08967 -2.16225 0
M  V30 8590 C 810.576 -2.12741 -2.29587 0
M  V30 8591 C 811.051 -3.28335 -3.19312 0
M  V30 8592 N 812.542 -3.28164 -3.26898 0
M  V30 8593 C 813.277 -4.14249 -3.96466 0
M  V30 8594 N 812.773 -5.10457 -4.68407 0
M  V30 8595 N 814.566 -4.02179 -3.92694 0
M  V30 8596 H 806.717 -2.03983 -0.592011 0
M  V30 8597 H 808.98 -0.891023 -0.323701 0
M  V30 8598 H 808.686 -3.05654 -1.73979 0
M  V30 8599 H 808.56 -2.04606 -3.16885 0
M  V30 8600 H 810.947 -1.16636 -2.71072 0
M  V30 8601 H 811.028 -2.21162 -1.28535 0
M  V30 8602 H 810.672 -4.2471 -2.78539 0
M  V30 8603 H 810.602 -3.17151 -4.20384 0
M  V30 8604 H 813.093 -2.58511 -2.75646 0
M  V30 8605 H 813.406 -5.72526 -5.1907 0
M  V30 8606 H 811.751 -5.14422 -4.67328 0
M  V30 8607 H 814.942 -3.26308 -3.3562 0
M  V30 8608 H 815.115 -4.69486 -4.4664 0
M  V30 8609 N 808.521 1.23394 -0.980386 0
M  V30 8610 C 809.768 1.91809 -0.649261 0
M  V30 8611 C 810.096 1.765 0.817197 0
M  V30 8612 O 809.351 1.11979 1.60497 0
M  V30 8613 C 809.65 3.43542 -0.985588 0
M  V30 8614 C 809.316 3.79031 -2.44225 0
M  V30 8615 C 807.978 3.88429 -2.84035 0
M  V30 8616 C 810.33 3.96145 -3.38702 0
M  V30 8617 C 807.658 4.12368 -4.17336 0
M  V30 8618 C 810.01 4.21583 -4.71646 0
M  V30 8619 C 808.674 4.29203 -5.11215 0
M  V30 8620 H 807.944 0.70188 -0.237581 0
M  V30 8621 H 810.591 1.4642 -1.23424 0
M  V30 8622 H 808.896 3.90503 -0.318521 0
M  V30 8623 H 810.593 3.94708 -0.707596 0
M  V30 8624 H 807.183 3.7229 -2.12362 0
M  V30 8625 H 811.367 3.88274 -3.09123 0
M  V30 8626 H 806.623 4.1649 -4.47601 0
M  V30 8627 H 810.797 4.33769 -5.4481 0
M  V30 8628 H 808.424 4.47505 -6.14527 0
M  V30 8629 N 809.999 0.752036 1.385 0
M  V30 8630 C 811.247 0.306895 1.99756 0
M  V30 8631 C 811.568 -1.11478 1.59992 0
M  V30 8632 O 810.838 -1.76206 0.856045 0
M  V30 8633 H 809.418 0.11048 0.738785 0
M  V30 8634 H 812.08 0.965785 1.69289 0
M  V30 8635 H 811.176 0.368797 3.09913 0
M  V30 8636 N 811.477 -1.49425 0.500989 0
M  V30 8637 C 812.724 -2.02453 -0.0435355 0
M  V30 8638 C 813.052 -1.38067 -1.36995 0
M  V30 8639 O 812.307 -0.505557 -1.89057 0
M  V30 8640 C 812.606 -3.56562 -0.24463 0
M  V30 8641 C 812.272 -4.39585 1.00379 0
M  V30 8642 C 810.934 -4.61992 1.346 0
M  V30 8643 C 813.286 -4.87881 1.83361 0
M  V30 8644 C 810.614 -5.2994 2.51755 0
M  V30 8645 C 812.966 -5.57119 2.99669 0
M  V30 8646 C 811.63 -5.77771 3.3427 0
M  V30 8647 H 810.9 -0.740829 -0.0159308 0
M  V30 8648 H 813.547 -1.79725 0.661143 0
M  V30 8649 H 811.852 -3.77969 -1.03183 0
M  V30 8650 H 813.549 -3.95185 -0.6804 0
M  V30 8651 H 810.139 -4.22385 0.727225 0
M  V30 8652 H 814.323 -4.70398 1.58237 0
M  V30 8653 H 809.579 -5.44133 2.788 0
M  V30 8654 H 813.753 -5.93516 3.64296 0
M  V30 8655 H 811.38 -6.30197 4.25154 0
M  V30 8656 N 812.955 -0.234822 -1.55841 0
M  V30 8657 C 814.366 0.270588 -1.84729 0
M  V30 8658 C 814.717 1.58494 -1.15646 0
M  V30 8659 O 813.842 2.12071 -0.430667 0
M  V30 8660 C 814.437 0.497733 -3.35124 0
M  V30 8661 C 812.996 0.947428 -3.64281 0
M  V30 8662 C 812.143 0.01787 -2.77294 0
M  V30 8663 H 815.094 -0.457691 -1.51957 0
M  V30 8664 H 815.115 1.34199 -3.56049 0
M  V30 8665 H 814.627 -0.459037 -3.85376 0
M  V30 8666 H 812.728 1.91709 -3.19497 0
M  V30 8667 H 812.841 0.812651 -4.72158 0
M  V30 8668 H 811.205 0.527071 -2.49187 0
M  V30 8669 H 811.988 -0.934056 -3.30349 0
M  V30 8670 N 814.433 1.57553 0.0384317 0
M  V30 8671 C 815.396 2.04927 1.02653 0
M  V30 8672 C 816.396 0.951768 1.29607 0
M  V30 8673 O 817.586 1.21568 1.24768 0
M  V30 8674 C 814.718 2.45828 2.36181 0
M  V30 8675 H 815.911 2.93474 0.617508 0
M  V30 8676 H 813.464 1.53679 0.285031 0
M  V30 8677 H 814.199 1.60408 2.8185 0
M  V30 8678 H 813.984 3.25945 2.1795 0
M  V30 8679 H 815.474 2.82939 3.0714 0
M  V30 8680 N 815.911 -0.310526 1.54511 0
M  V30 8681 C 816.843 -1.40405 1.8116 0
M  V30 8682 C 817.856 -1.47261 0.694114 0
M  V30 8683 O 819.045 -1.49751 0.971441 0
M  V30 8684 C 816.145 -2.78849 1.92604 0
M  V30 8685 C 815.318 -2.95041 3.22908 0
M  V30 8686 C 814.377 -4.13925 3.24889 0
M  V30 8687 O 813.403 -4.06463 3.98467 0
M  V30 8688 N 814.605 -5.24099 2.496 0
M  V30 8689 H 817.37 -1.17903 2.75534 0
M  V30 8690 H 814.931 -0.500564 1.53967 0
M  V30 8691 H 816.923 -3.5661 1.91342 0
M  V30 8692 H 815.493 -2.94342 1.05268 0
M  V30 8693 H 814.713 -2.04472 3.37023 0
M  V30 8694 H 816.001 -3.02763 4.08916 0
M  V30 8695 H 815.399 -5.33039 1.89435 0
M  V30 8696 H 813.956 -6.0023 2.54102 0
M  V30 8697 N 817.389 -1.46805 -0.573248 0
M  V30 8698 C 818.337 -1.58468 -1.70267 0
M  V30 8699 C 819.331 -0.452694 -1.63239 0
M  V30 8700 O 820.537 -0.629915 -1.68618 0
M  V30 8701 H 816.912 -0.498408 -0.56311 0
M  V30 8702 H 818.883 -2.5341 -1.57563 0
M  V30 8703 C 817.632 -1.60104 -3.08645 0
M  V30 8704 H 816.955 -2.4655 -3.14727 0
M  V30 8705 H 818.395 -1.72318 -3.87405 0
M  V30 8706 C 816.854 -0.33138 -3.35266 0
M  V30 8707 O 817.384 0.57438 -3.97572 0
M  V30 8708 N 815.59 -0.216358 -2.89793 0
M  V30 8709 H 815.137 -0.954345 -2.3927 0
M  V30 8710 H 815.095 0.632253 -3.07977 0
M  V30 8711 N 818.867 0.818669 -1.34668 0
M  V30 8712 C 820.116 1.57017 -1.26604 0
M  V30 8713 C 820.429 1.94936 0.161036 0
M  V30 8714 O 821.635 2.69051 0.36386 0
M  V30 8715 C 820.091 2.83305 -2.2196 0
M  V30 8716 C 819.699 2.52671 -3.69948 0
M  V30 8717 C 821.443 3.61324 -2.22813 0
M  V30 8718 C 819.35 3.75178 -4.5716 0
M  V30 8719 H 818.28 0.589323 -0.470335 0
M  V30 8720 H 820.931 0.900956 -1.59859 0
M  V30 8721 H 819.313 3.51874 -1.81661 0
M  V30 8722 H 820.487 1.92186 -4.18809 0
M  V30 8723 H 818.802 1.8792 -3.71584 0
M  V30 8724 H 821.399 4.52294 -2.85192 0
M  V30 8725 H 821.742 3.97759 -1.22857 0
M  V30 8726 H 822.275 2.99703 -2.61578 0
M  V30 8727 H 819.014 3.43861 -5.58068 0
M  V30 8728 H 818.534 4.34931 -4.13031 0
M  V30 8729 H 820.213 4.42542 -4.71981 0
M  V30 8730 N 820.346 1.18468 1.03938 0
M  V30 8731 C 821.592 0.982286 1.77423 0
M  V30 8732 C 821.925 -0.48679 1.88 0
M  V30 8733 O 821.2 -1.36146 1.38905 0
M  V30 8734 C 821.483 1.63929 3.20623 0
M  V30 8735 C 821.336 3.18132 3.17982 0
M  V30 8736 C 822.655 1.3536 4.18767 0
M  V30 8737 H 819.774 0.358264 0.644062 0
M  V30 8738 H 822.416 1.46154 1.21405 0
M  V30 8739 H 820.566 1.2318 3.68455 0
M  V30 8740 H 822.238 3.68024 2.78129 0
M  V30 8741 H 820.481 3.50225 2.55978 0
M  V30 8742 H 821.152 3.5924 4.19107 0
M  V30 8743 H 823.628 1.70669 3.79488 0
M  V30 8744 H 822.504 1.83896 5.17178 0
M  V30 8745 H 822.765 0.276722 4.41233 0
M  V30 8746 N 821.824 -1.22873 0.986916 0
M  V30 8747 C 822.774 -2.2237 0.503547 0
M  V30 8748 C 823.758 -1.55186 -0.424998 0
M  V30 8749 O 824.95 -1.75186 -0.252791 0
M  V30 8750 C 822.079 -3.42794 -0.186355 0
M  V30 8751 C 821.165 -4.17196 0.762143 0
M  V30 8752 N 821.556 -4.68453 1.9075 0
M  V30 8753 C 819.854 -4.42255 0.576797 0
M  V30 8754 C 820.555 -5.25126 2.50235 0
M  V30 8755 N 819.531 -5.13437 1.7856 0
M  V30 8756 H 823.333 -2.59636 1.37718 0
M  V30 8757 H 820.847 -1.38476 0.848415 0
M  V30 8758 H 822.844 -4.13256 -0.549993 0
M  V30 8759 H 821.504 -3.07042 -1.05619 0
M  V30 8760 H 822.515 -4.64595 2.28848 0
M  V30 8761 H 819.192 -4.16766 -0.247474 0
M  V30 8762 H 820.582 -5.75363 3.46997 0
M  V30 8763 N 823.302 -0.75937 -1.38099 0
M  V30 8764 C 824.53 -0.329111 -2.04266 0
M  V30 8765 C 824.945 1.04453 -1.57274 0
M  V30 8766 O 824.302 1.66449 -0.748397 0
M  V30 8767 C 824.353 -0.349192 -3.5981 0
M  V30 8768 O 824.074 -1.66863 -4.05078 0
M  V30 8769 C 825.575 0.0942106 -4.432 0
M  V30 8770 H 822.795 -0.13971 -0.656294 0
M  V30 8771 H 825.339 -1.02984 -1.76677 0
M  V30 8772 H 823.494 0.302846 -3.86214 0
M  V30 8773 H 823.908 -1.59877 -4.9954 0
M  V30 8774 H 825.382 0.0290004 -5.51992 0
M  V30 8775 H 825.859 1.1429 -4.24069 0
M  V30 8776 H 826.465 -0.529171 -4.21995 0
M  V30 8777 N 824.78 1.49157 -0.508906 0
M  V30 8778 C 825.69 2.33045 0.269656 0
M  V30 8779 C 826.706 1.45143 0.959662 0
M  V30 8780 O 827.882 1.78155 0.939295 0
M  V30 8781 C 824.947 3.20772 1.31554 0
M  V30 8782 C 824.008 4.24531 0.638131 0
M  V30 8783 C 823.241 5.08065 1.63418 0
M  V30 8784 O 823.464 4.93238 2.86483 0
M  V30 8785 O 822.398 5.90117 1.18516 0
M  V30 8786 H 826.224 3.00821 -0.417183 0
M  V30 8787 H 823.809 1.46938 -0.270119 0
M  V30 8788 H 825.691 3.75095 1.92047 0
M  V30 8789 H 824.366 2.55681 1.98516 0
M  V30 8790 H 823.273 3.74099 -0.00674357 0
M  V30 8791 H 824.606 4.92199 0.0108155 0
M  V30 8792 N 826.258 0.243083 1.55714 0
M  V30 8793 C 827.483 -0.389944 2.03701 0
M  V30 8794 C 827.908 -1.51025 1.12129 0
M  V30 8795 O 827.266 -1.80944 0.11352 0
M  V30 8796 C 827.314 -0.878649 3.49731 0
M  V30 8797 O 826.418 -1.98851 3.61292 0
M  V30 8798 H 825.759 -0.0855115 0.658471 0
M  V30 8799 H 828.289 0.368023 2.01263 0
M  V30 8800 H 828.299 -1.18287 3.90477 0
M  V30 8801 H 826.974 -0.0588107 4.15858 0
M  V30 8802 H 825.551 -1.68928 3.32442 0
M  V30 8803 N 827.736 -1.57571 -0.0300757 0
M  V30 8804 C 828.666 -2.0953 -1.03051 0
M  V30 8805 C 829.647 -0.99761 -1.37774 0
M  V30 8806 O 830.832 -1.27279 -1.46676 0
M  V30 8807 C 827.962 -2.57385 -2.33174 0
M  V30 8808 C 826.916 -3.71409 -2.12696 0
M  V30 8809 C 826.242 -4.05467 -3.4857 0
M  V30 8810 C 827.542 -4.99877 -1.51396 0
M  V30 8811 H 829.236 -2.93367 -0.597999 0
M  V30 8812 H 826.782 -1.41127 -0.286203 0
M  V30 8813 H 828.735 -2.92355 -3.03491 0
M  V30 8814 H 827.459 -1.70629 -2.78484 0
M  V30 8815 H 826.118 -3.36786 -1.44813 0
M  V30 8816 H 825.766 -3.15779 -3.91526 0
M  V30 8817 H 825.466 -4.82269 -3.35694 0
M  V30 8818 H 826.99 -4.4297 -4.2025 0
M  V30 8819 H 828.404 -5.3281 -2.11629 0
M  V30 8820 H 826.801 -5.81283 -1.49098 0
M  V30 8821 H 827.871 -4.82522 -0.479676 0
M  V30 8822 N 829.214 0.302327 -1.54673 0
M  V30 8823 C 830.177 1.35592 -1.8479 0
M  V30 8824 C 831.177 1.43743 -0.72073 0
M  V30 8825 O 832.367 1.43402 -0.989017 0
M  V30 8826 C 829.499 2.74091 -2.02699 0
M  V30 8827 H 830.692 1.10132 -2.78946 0
M  V30 8828 H 828.245 0.538926 -1.46715 0
M  V30 8829 H 828.98 3.04775 -1.10826 0
M  V30 8830 H 828.765 2.69565 -2.8474 0
M  V30 8831 H 830.255 3.50272 -2.27374 0
M  V30 8832 N 830.692 1.47107 0.565454 0
M  V30 8833 C 831.622 1.61846 1.68309 0
M  V30 8834 C 832.603 0.468159 1.63531 0
M  V30 8835 O 833.788 0.696504 1.8128 0
M  V30 8836 C 830.918 1.62474 3.06952 0
M  V30 8837 C 829.872 2.76649 3.26572 0
M  V30 8838 C 829.198 2.62345 4.65917 0
M  V30 8839 C 830.498 4.18319 3.12741 0
M  V30 8840 H 832.192 2.55407 1.5623 0
M  V30 8841 H 829.738 1.22916 0.750179 0
M  V30 8842 H 831.691 1.71378 3.84977 0
M  V30 8843 H 830.415 0.654692 3.19971 0
M  V30 8844 H 829.074 2.67242 2.50952 0
M  V30 8845 H 828.722 1.63386 4.75725 0
M  V30 8846 H 828.422 3.38936 4.79996 0
M  V30 8847 H 829.946 2.73165 5.46089 0
M  V30 8848 H 831.36 4.28745 3.80593 0
M  V30 8849 H 829.757 4.95632 3.38333 0
M  V30 8850 H 830.827 4.37263 2.09592 0
M  V30 8851 N 832.17 -0.811516 1.35101 0
M  V30 8852 C 833.418 -1.56525 1.27845 0
M  V30 8853 C 833.739 -1.94435 -0.14829 0
M  V30 8854 O 833.009 -1.63203 -1.08359 0
M  V30 8855 H 831.589 -0.580433 0.47022 0
M  V30 8856 H 834.251 -0.968277 1.69146 0
M  V30 8857 H 833.347 -2.48291 1.89097 0
M  V30 8858 N 833.648 -1.19017 -1.03309 0
M  V30 8859 C 834.873 -1.01598 -1.80811 0
M  V30 8860 C 835.298 0.430773 -1.83101 0
M  V30 8861 O 834.656 1.30946 -1.25391 0
M  V30 8862 C 834.704 -1.5845 -3.23923 0
M  V30 8863 O 833.808 -0.810972 -4.04348 0
M  V30 8864 H 833.149 -0.359398 -0.558327 0
M  V30 8865 H 835.679 -1.57945 -1.30055 0
M  V30 8866 H 835.689 -1.61486 -3.74682 0
M  V30 8867 H 834.364 -2.63752 -3.21571 0
M  V30 8868 H 832.941 -0.85353 -3.63 0
M  V30 8869 N 835.127 1.22348 -0.993418 0
M  V30 8870 C 836.09 2.22522 -0.549251 0
M  V30 8871 C 837.09 1.56529 0.368164 0
M  V30 8872 O 838.28 1.73463 0.16005 0
M  V30 8873 C 835.412 3.40307 0.201037 0
M  V30 8874 H 836.605 2.63332 -1.43515 0
M  V30 8875 H 834.158 1.35407 -0.78068 0
M  V30 8876 H 834.893 3.0497 1.10289 0
M  V30 8877 H 834.678 3.8942 -0.457685 0
M  V30 8878 H 836.168 4.14597 0.499946 0
M  V30 8879 N 836.605 0.766683 1.37694 0
M  V30 8880 C 837.83 0.338715 2.04615 0
M  V30 8881 C 838.255 -1.02918 1.57447 0
M  V30 8882 O 837.613 -1.65849 0.732386 0
M  V30 8883 C 837.661 0.385284 3.58536 0
M  V30 8884 O 836.765 -0.616081 4.07772 0
M  V30 8885 H 836.106 0.147527 0.647404 0
M  V30 8886 H 838.636 1.04146 1.7611 0
M  V30 8887 H 838.646 0.240782 4.07289 0
M  V30 8888 H 837.321 1.38325 3.92223 0
M  V30 8889 H 835.898 -0.435115 3.70353 0
M  V30 8890 N 838.083 -1.48885 0.516809 0
M  V30 8891 C 839.33 -2.02488 -0.0220602 0
M  V30 8892 C 839.658 -1.39513 -1.35523 0
M  V30 8893 O 838.913 -0.52558 -1.8851 0
M  V30 8894 C 839.212 -3.56801 -0.206798 0
M  V30 8895 C 838.878 -4.38496 1.05035 0
M  V30 8896 C 837.54 -4.60538 1.39492 0
M  V30 8897 C 839.892 -4.85909 1.88525 0
M  V30 8898 C 837.22 -5.2724 2.57361 0
M  V30 8899 C 839.572 -5.53909 3.05561 0
M  V30 8900 C 838.236 -5.74193 3.4038 0
M  V30 8901 H 837.506 -0.740956 -0.00807238 0
M  V30 8902 H 840.153 -1.79014 0.680168 0
M  V30 8903 H 838.458 -3.79042 -0.991687 0
M  V30 8904 H 840.155 -3.95885 -0.638447 0
M  V30 8905 H 836.745 -4.2159 0.771984 0
M  V30 8906 H 840.929 -4.68694 1.63218 0
M  V30 8907 H 836.185 -5.41145 2.84556 0
M  V30 8908 H 840.359 -5.89619 3.7057 0
M  V30 8909 H 837.986 -6.25652 4.31814 0
M  V30 8910 N 839.561 -0.251338 -1.55583 0
M  V30 8911 C 840.789 0.376187 -2.03451 0
M  V30 8912 C 841.204 1.51215 -1.13047 0
M  V30 8913 O 840.561 1.81917 -0.145769 0
M  V30 8914 C 840.612 0.879779 -3.50631 0
M  V30 8915 O 840.333 -0.210917 -4.37592 0
M  V30 8916 C 841.834 1.57754 -4.14281 0
M  V30 8917 H 839.054 0.0888722 -0.665089 0
M  V30 8918 H 841.598 -0.376497 -2.01004 0
M  V30 8919 H 839.753 1.58263 -3.53598 0
M  V30 8920 H 840.167 0.172203 -5.24217 0
M  V30 8921 H 841.641 1.88158 -5.18942 0
M  V30 8922 H 842.118 2.50103 -3.61034 0
M  V30 8923 H 842.724 0.919154 -4.15249 0
M  V30 8924 N 841.039 1.57585 0.0217189 0
M  V30 8925 C 842.45 1.7787 0.567377 0
M  V30 8926 C 842.801 0.883337 1.7519 0
M  V30 8927 O 841.926 0.0800819 2.16252 0
M  V30 8928 C 842.521 3.2257 1.03606 0
M  V30 8929 C 841.08 3.44026 1.52718 0
M  V30 8930 C 840.227 2.73313 0.468545 0
M  V30 8931 H 843.178 1.57377 -0.2045 0
M  V30 8932 H 843.199 3.29488 1.9031 0
M  V30 8933 H 842.711 3.87711 0.173739 0
M  V30 8934 H 840.812 2.8407 2.41111 0
M  V30 8935 H 840.925 4.52659 1.56962 0
M  V30 8936 H 839.289 2.37299 0.925263 0
M  V30 8937 H 840.072 3.41141 -0.384438 0
M  V30 8938 N 842.517 -0.29412 1.54831 0
M  V30 8939 C 843.45 -1.38779 1.81151 0
M  V30 8940 C 844.428 -1.48464 0.663124 0
M  V30 8941 O 845.612 -1.65418 0.903835 0
M  V30 8942 C 842.739 -2.76627 1.95436 0
M  V30 8943 C 841.785 -2.84333 3.17895 0
M  V30 8944 S 842.618 -2.45726 4.75793 0
M  V30 8945 C 843.774 -3.85589 4.93023 0
M  V30 8946 H 844.007 -1.16246 2.73631 0
M  V30 8947 H 841.54 -0.492611 1.46331 0
M  V30 8948 H 843.498 -3.56021 2.04351 0
M  V30 8949 H 842.159 -2.96425 1.03881 0
M  V30 8950 H 841.352 -3.85457 3.24713 0
M  V30 8951 H 840.954 -2.1294 3.07461 0
M  V30 8952 H 843.246 -4.80656 4.77468 0
M  V30 8953 H 844.189 -3.83737 5.95107 0
M  V30 8954 H 844.597 -3.75911 4.21131 0
M  V30 8955 N 843.995 -1.47404 -0.557645 0
M  V30 8956 C 844.927 -1.55917 -1.67995 0
M  V30 8957 C 845.94 -0.445411 -1.56588 0
M  V30 8958 O 847.129 -0.714999 -1.63554 0
M  V30 8959 C 844.229 -1.44697 -3.06457 0
M  V30 8960 C 843.402 -2.70633 -3.43622 0
M  V30 8961 C 842.461 -2.53256 -4.61246 0
M  V30 8962 O 841.487 -3.27068 -4.65849 0
M  V30 8963 N 842.689 -1.61053 -5.57711 0
M  V30 8964 H 845.454 -2.52694 -1.61139 0
M  V30 8965 H 843.015 -1.43778 -0.744271 0
M  V30 8966 H 845.007 -1.30806 -3.82978 0
M  V30 8967 H 843.577 -0.560039 -3.07542 0
M  V30 8968 H 842.797 -2.99288 -2.56555 0
M  V30 8969 H 844.085 -3.5424 -3.65228 0
M  V30 8970 H 843.483 -1.00235 -5.56749 0
M  V30 8971 H 842.04 -1.53115 -6.33561 0
M  V30 8972 N 845.473 0.80434 -1.35529 0
M  V30 8973 C 846.719 1.56385 -1.29118 0
M  V30 8974 C 847.052 1.9374 0.133536 0
M  V30 8975 O 846.327 1.6153 1.08344 0
M  V30 8976 C 846.61 2.85097 -2.19981 0
M  V30 8977 C 846.463 2.54204 -3.7108 0
M  V30 8978 C 847.782 3.86817 -2.09907 0
M  V30 8979 H 844.901 0.567382 -0.470368 0
M  V30 8980 H 847.543 0.925235 -1.6595 0
M  V30 8981 H 845.693 3.39594 -1.88701 0
M  V30 8982 H 847.365 2.05872 -4.12813 0
M  V30 8983 H 845.608 1.87364 -3.91251 0
M  V30 8984 H 846.279 3.46068 -4.30048 0
M  V30 8985 H 848.755 3.41725 -2.37409 0
M  V30 8986 H 847.631 4.7465 -2.75678 0
M  V30 8987 H 847.892 4.28663 -1.08171 0
M  V30 8988 N 846.951 1.19563 1.02676 0
M  V30 8989 C 847.914 0.937182 2.09164 0
M  V30 8990 C 848.914 -0.0831927 1.60585 0
M  V30 8991 O 850.104 0.15178 1.73538 0
M  V30 8992 C 847.236 0.408912 3.38439 0
M  V30 8993 H 848.429 1.88164 2.33526 0
M  V30 8994 H 845.982 1.00959 1.19319 0
M  V30 8995 H 846.717 -0.541497 3.19747 0
M  V30 8996 H 846.502 1.14464 3.7502 0
M  V30 8997 H 847.992 0.247242 4.16867 0
M  V30 8998 N 848.429 -1.21819 0.999893 0
M  V30 8999 C 849.845 -1.42847 0.711824 0
M  V30 9000 C 850.045 -1.88391 -0.714928 0
M  V30 9001 O 849.101 -2.0422 -1.48494 0
M  V30 9002 C 850.414 -2.46417 1.72334 0
M  V30 9003 C 851.962 -2.60207 1.73958 0
M  V30 9004 C 852.437 -3.67005 2.73992 0
M  V30 9005 N 853.928 -3.7447 2.72628 0
M  V30 9006 C 854.663 -4.56718 3.46693 0
M  V30 9007 N 854.159 -5.42904 4.3038 0
M  V30 9008 N 855.952 -4.51094 3.35366 0
M  V30 9009 H 848.103 -0.905656 1.92124 0
M  V30 9010 H 850.366 -0.459893 0.828977 0
M  V30 9011 H 850.072 -2.19914 2.74465 0
M  V30 9012 H 849.946 -3.45137 1.52186 0
M  V30 9013 H 852.333 -2.8605 0.725217 0
M  V30 9014 H 852.414 -1.61739 1.98177 0
M  V30 9015 H 852.058 -3.41908 3.75582 0
M  V30 9016 H 851.988 -4.65058 2.4704 0
M  V30 9017 H 854.479 -3.12895 2.11909 0
M  V30 9018 H 854.792 -6.02704 4.83702 0
M  V30 9019 H 853.137 -5.42463 4.34464 0
M  V30 9020 H 856.328 -3.82791 2.69423 0
M  V30 9021 H 856.501 -5.1496 3.93344 0
M  V30 9022 N 849.908 -0.773975 -1.37286 0
M  V30 9023 C 851.156 -0.338636 -1.99243 0
M  V30 9024 C 851.477 1.08919 -1.61746 0
M  V30 9025 O 850.747 1.74822 -0.88397 0
M  V30 9026 H 849.327 -0.12222 -0.736934 0
M  V30 9027 H 851.989 -0.992595 -1.67731 0
M  V30 9028 H 851.085 -0.418055 -3.09287 0
M  V30 9029 N 851.386 1.48609 -0.524698 0
M  V30 9030 C 852.616 2.06599 0.00741868 0
M  V30 9031 C 853.024 1.3823 1.29186 0
M  V30 9032 O 852.367 0.461962 1.77797 0
M  V30 9033 C 852.429 3.58184 0.307324 0
M  V30 9034 C 852.093 4.48391 -0.882864 0
M  V30 9035 C 853.09 4.88485 -1.77984 0
M  V30 9036 C 850.775 4.90367 -1.08837 0
M  V30 9037 C 852.769 5.69319 -2.86627 0
M  V30 9038 C 850.456 5.70972 -2.17794 0
M  V30 9039 C 851.454 6.10355 -3.06523 0
M  V30 9040 O 851.142 6.89343 -4.13596 0
M  V30 9041 H 850.874 0.675421 -0.0279846 0
M  V30 9042 H 853.428 1.92058 -0.7282 0
M  V30 9043 H 851.658 3.70818 1.09685 0
M  V30 9044 H 853.347 3.98318 0.780886 0
M  V30 9045 H 854.113 4.56682 -1.63299 0
M  V30 9046 H 849.992 4.592 -0.407035 0
M  V30 9047 H 853.536 5.99978 -3.55911 0
M  V30 9048 H 849.433 6.02188 -2.32465 0
M  V30 9049 H 850.201 7.07689 -4.1124 0
M  V30 9050 N 852.864 0.259585 1.55447 0
M  V30 9051 C 853.827 -0.621359 2.20617 0
M  V30 9052 C 854.827 -1.09317 1.17925 0
M  V30 9053 O 856.017 -0.995842 1.42929 0
M  V30 9054 C 853.149 -1.85546 2.85982 0
M  V30 9055 H 854.342 -0.0525833 2.99854 0
M  V30 9056 H 851.895 0.0101055 1.56297 0
M  V30 9057 H 852.63 -2.46515 2.10715 0
M  V30 9058 H 852.415 -1.52523 3.61219 0
M  V30 9059 H 853.905 -2.48227 3.35817 0
M  V30 9060 N 854.342 -1.57594 -0.0133615 0
M  V30 9061 C 855.588 -1.90262 -0.702019 0
M  V30 9062 C 855.921 -0.859219 -1.74158 0
M  V30 9063 O 855.196 0.123778 -1.94106 0
M  V30 9064 C 855.479 -3.3354 -1.35732 0
M  V30 9065 C 855.332 -4.48586 -0.330208 0
M  V30 9066 C 856.651 -3.76004 -2.28712 0
M  V30 9067 H 853.77 -0.691943 -0.253739 0
M  V30 9068 H 856.412 -1.89967 0.0351894 0
M  V30 9069 H 854.562 -3.33921 -1.98567 0
M  V30 9070 H 856.234 -4.6034 0.297433 0
M  V30 9071 H 854.477 -4.32394 0.348926 0
M  V30 9072 H 855.148 -5.45762 -0.827508 0
M  V30 9073 H 857.624 -3.77089 -1.75906 0
M  V30 9074 H 856.5 -4.77032 -2.71535 0
M  V30 9075 H 856.761 -3.09129 -3.16056 0
M  V30 9076 N 855.82 0.285905 -1.54985 0
M  V30 9077 C 856.753 1.37817 -1.81884 0
M  V30 9078 C 857.731 1.4811 -0.670988 0
M  V30 9079 O 858.915 1.64936 -0.912595 0
M  V30 9080 C 856.042 2.75587 -1.969 0
M  V30 9081 C 855.088 2.82643 -3.19398 0
M  V30 9082 S 855.921 2.43199 -4.7709 0
M  V30 9083 C 857.077 3.82969 -4.95061 0
M  V30 9084 H 857.31 1.14794 -2.74244 0
M  V30 9085 H 854.843 0.484843 -1.4659 0
M  V30 9086 H 856.801 3.54932 -2.06236 0
M  V30 9087 H 855.462 2.9587 -1.05451 0
M  V30 9088 H 854.655 3.8373 -3.26753 0
M  V30 9089 H 854.257 2.11306 -3.08586 0
M  V30 9090 H 856.549 4.78117 -4.80011 0
M  V30 9091 H 857.492 3.80575 -5.97133 0
M  V30 9092 H 857.9 3.73673 -4.23118 0
M  V30 9093 N 857.298 1.47698 0.54982 0
M  V30 9094 C 858.261 1.60282 1.63837 0
M  V30 9095 C 859.261 0.477394 1.5355 0
M  V30 9096 O 860.451 0.742665 1.57576 0
M  V30 9097 C 857.583 1.55431 3.03404 0
M  V30 9098 H 858.776 2.57325 1.54026 0
M  V30 9099 H 856.329 1.35999 0.770329 0
M  V30 9100 H 857.064 0.597912 3.1874 0
M  V30 9101 H 856.849 2.37116 3.12279 0
M  V30 9102 H 858.339 1.6739 3.82584 0
M  V30 9103 N 858.776 -0.797141 1.35954 0
M  V30 9104 C 859.724 -1.93084 1.29697 0
M  V30 9105 C 860.718 -1.68329 0.190152 0
M  V30 9106 O 861.924 -1.7643 0.3567 0
M  V30 9107 H 858.299 -0.634531 0.403577 0
M  V30 9108 H 860.27 -1.95481 2.25455 0
M  V30 9109 C 859.019 -3.29996 1.09536 0
M  V30 9110 H 858.342 -3.49607 1.93946 0
M  V30 9111 H 859.782 -4.09696 1.09202 0
M  V30 9112 C 858.241 -3.36304 -0.200381 0
M  V30 9113 O 858.771 -3.83579 -1.19291 0
M  V30 9114 N 856.977 -2.89587 -0.242406 0
M  V30 9115 H 856.524 -2.51307 0.565897 0
M  V30 9116 H 856.482 -2.94189 -1.10906 0
M  V30 9117 N 860.254 -1.20106 -1.0204 0
M  V30 9118 C 861.502 -1.0069 -1.75231 0
M  V30 9119 C 861.823 0.462491 -1.89436 0
M  V30 9120 O 861.093 1.33455 -1.4341 0
M  V30 9121 H 859.673 -0.369576 -0.649171 0
M  V30 9122 H 862.335 -1.51149 -1.23044 0
M  V30 9123 H 861.431 -1.46205 -2.75736 0
M  V30 9124 N 861.732 1.21287 -1.00634 0
M  V30 9125 C 862.98 1.90013 -0.688438 0
M  V30 9126 C 863.301 1.78573 0.783365 0
M  V30 9127 O 862.571 1.1815 1.56261 0
M  V30 9128 H 861.151 0.703336 -0.251648 0
M  V30 9129 H 863.813 1.47346 -1.27574 0
M  V30 9130 H 862.909 2.96879 -0.962781 0
M  V30 9131 N 863.21 0.781244 1.36873 0
M  V30 9132 C 864.457 0.349889 1.99454 0
M  V30 9133 C 864.785 -1.07621 1.62013 0
M  V30 9134 O 864.04 -1.75665 0.86258 0
M  V30 9135 C 864.339 0.45146 3.54537 0
M  V30 9136 C 864.005 1.83718 4.11775 0
M  V30 9137 C 862.667 2.21634 4.2712 0
M  V30 9138 C 865.019 2.7449 4.43063 0
M  V30 9139 C 862.347 3.49742 4.7106 0
M  V30 9140 C 864.699 4.02017 4.88431 0
M  V30 9141 C 863.363 4.39967 5.01982 0
M  V30 9142 H 862.633 0.128033 0.729855 0
M  V30 9143 H 865.28 0.997117 1.63493 0
M  V30 9144 H 863.585 -0.279288 3.90803 0
M  V30 9145 H 865.282 0.0988609 4.00878 0
M  V30 9146 H 861.872 1.53251 4.00265 0
M  V30 9147 H 866.056 2.46453 4.30783 0
M  V30 9148 H 861.312 3.79026 4.79738 0
M  V30 9149 H 865.486 4.72475 5.11605 0
M  V30 9150 H 863.113 5.39291 5.35788 0
M  V30 9151 N 864.689 -1.48329 0.532571 0
M  V30 9152 C 865.619 -2.32485 -0.217511 0
M  V30 9153 C 866.6 -1.42255 -0.932598 0
M  V30 9154 O 867.785 -1.7114 -0.917873 0
M  V30 9155 C 864.915 -3.23509 -1.26329 0
M  V30 9156 C 863.869 -4.22784 -0.666191 0
M  V30 9157 C 863.195 -5.0296 -1.81482 0
M  V30 9158 C 864.495 -5.21031 0.363813 0
M  V30 9159 H 866.189 -2.95445 0.485014 0
M  V30 9160 H 863.735 -1.42075 0.234694 0
M  V30 9161 H 865.688 -3.81211 -1.79601 0
M  V30 9162 H 864.412 -2.58554 -1.99543 0
M  V30 9163 H 863.071 -3.66272 -0.15498 0
M  V30 9164 H 862.719 -4.34427 -2.5354 0
M  V30 9165 H 862.419 -5.70154 -1.4212 0
M  V30 9166 H 863.943 -5.63514 -2.35126 0
M  V30 9167 H 865.357 -5.73241 -0.0819079 0
M  V30 9168 H 863.754 -5.96292 0.674956 0
M  V30 9169 H 864.824 -4.6801 1.26865 0
M  V30 9170 N 866.167 -0.267825 -1.55308 0
M  V30 9171 C 867.413 0.351556 -1.9973 0
M  V30 9172 C 867.746 1.56049 -1.15596 0
M  V30 9173 O 867.021 1.93203 -0.224274 0
M  V30 9174 C 867.304 0.74091 -3.52395 0
M  V30 9175 C 867.157 -0.474861 -4.47286 0
M  V30 9176 C 868.476 1.5801 -4.10756 0
M  V30 9177 H 865.595 0.126308 -0.726096 0
M  V30 9178 H 868.237 -0.373316 -1.86296 0
M  V30 9179 H 866.387 1.35851 -3.63973 0
M  V30 9180 H 868.059 -1.1134 -4.47662 0
M  V30 9181 H 866.302 -1.11425 -4.19246 0
M  V30 9182 H 866.973 -0.158782 -5.51772 0
M  V30 9183 H 869.449 1.05857 -4.0241 0
M  V30 9184 H 868.325 1.82135 -5.17801 0
M  V30 9185 H 868.586 2.55878 -3.60526 0
M  V30 9186 N 867.645 1.57599 0.00500368 0
M  V30 9187 C 868.922 1.81561 0.727654 0
M  V30 9188 C 869.302 0.871604 1.92266 0
M  V30 9189 O 868.65 -0.0808232 2.28357 0
M  V30 9190 C 868.86 3.29922 1.13809 0
M  V30 9191 C 870.208 3.95531 1.54403 0
M  V30 9192 O 871.232 3.34215 1.23202 0
M  V30 9193 O 870.091 5.03535 2.12402 0
M  V30 9194 H 867.185 0.747462 0.353878 0
M  V30 9195 H 869.731 1.69688 -0.0200667 0
M  V30 9196 H 868.503 3.90253 0.286078 0
M  V30 9197 H 868.126 3.46775 1.94507 0
M  V30 9198 N 869.123 -0.277682 1.55134 0
M  V30 9199 C 870.534 -0.849063 1.66276 0
M  V30 9200 C 870.885 -1.87223 0.5867 0
M  V30 9201 O 870.01 -2.14676 -0.272635 0
M  V30 9202 C 870.605 -1.54681 3.01429 0
M  V30 9203 C 869.164 -2.06628 3.14614 0
M  V30 9204 C 868.311 -0.906748 2.62056 0
M  V30 9205 H 871.262 -0.0541357 1.58608 0
M  V30 9206 H 871.283 -2.41356 2.94156 0
M  V30 9207 H 870.795 -0.80189 3.79725 0
M  V30 9208 H 868.896 -2.84095 2.41082 0
M  V30 9209 H 869.009 -2.2848 4.2111 0
M  V30 9210 H 867.373 -1.29882 2.19095 0
M  V30 9211 H 868.156 -0.175414 3.42852 0
M  V30 9212 N 870.601 -1.47988 -0.541979 0
M  V30 9213 C 871.847 -1.56604 -1.29795 0
M  V30 9214 C 872.202 -0.231728 -1.90999 0
M  V30 9215 O 871.495 0.764203 -1.757 0
M  V30 9216 C 871.689 -2.63189 -2.41798 0
M  V30 9217 C 871.518 -4.06855 -1.9157 0
M  V30 9218 C 870.288 -4.74132 -1.74719 0
M  V30 9219 C 872.486 -4.934 -1.45123 0
M  V30 9220 N 870.468 -6.02258 -1.18991 0
M  V30 9221 C 871.839 -6.11675 -1.01263 0
M  V30 9222 C 873.894 -4.7972 -1.33315 0
M  V30 9223 C 872.597 -7.17778 -0.467663 0
M  V30 9224 C 874.623 -5.85934 -0.802192 0
M  V30 9225 C 873.985 -7.03409 -0.373595 0
M  V30 9226 H 870.084 -0.627677 -0.466418 0
M  V30 9227 H 872.668 -1.84812 -0.612576 0
M  V30 9228 H 870.839 -2.36823 -3.07846 0
M  V30 9229 H 872.571 -2.6156 -3.08818 0
M  V30 9230 H 869.326 -4.30276 -1.97887 0
M  V30 9231 H 869.75 -6.70558 -0.931715 0
M  V30 9232 H 874.392 -3.89249 -1.6506 0
M  V30 9233 H 872.11 -8.07982 -0.137874 0
M  V30 9234 H 875.696 -5.774 -0.714171 0
M  V30 9235 H 874.576 -7.84194 0.0308796 0
M  V30 9236 N 872.079 0.78992 -1.36375 0
M  V30 9237 C 873.326 1.54777 -1.30576 0
M  V30 9238 C 873.654 1.94159 0.115095 0
M  V30 9239 O 872.909 1.62918 1.08426 0
M  V30 9240 C 873.208 2.83698 -2.17371 0
M  V30 9241 C 872.874 2.63457 -3.65925 0
M  V30 9242 C 871.536 2.57645 -4.06415 0
M  V30 9243 C 873.888 2.44833 -4.60115 0
M  V30 9244 C 871.216 2.31174 -5.39236 0
M  V30 9245 C 873.568 2.19889 -5.93154 0
M  V30 9246 C 872.232 2.1251 -6.32768 0
M  V30 9247 H 871.502 0.566371 -0.477813 0
M  V30 9248 H 874.149 0.91138 -1.68422 0
M  V30 9249 H 872.454 3.51802 -1.72459 0
M  V30 9250 H 874.151 3.41487 -2.10209 0
M  V30 9251 H 870.741 2.68836 -3.33804 0
M  V30 9252 H 874.925 2.48325 -4.29707 0
M  V30 9253 H 870.181 2.23942 -5.68911 0
M  V30 9254 H 874.355 2.04473 -6.65705 0
M  V30 9255 H 871.982 1.91761 -7.35616 0
M  V30 9256 N 873.557 1.20646 1.01402 0
M  V30 9257 C 874.806 1.01242 1.7445 0
M  V30 9258 C 875.119 -0.455732 1.90217 0
M  V30 9259 O 876.325 -0.768951 2.60383 0
M  V30 9260 C 874.781 1.76275 3.13776 0
M  V30 9261 C 874.389 3.27201 3.06013 0
M  V30 9262 C 876.133 1.65248 3.91016 0
M  V30 9263 C 874.04 3.9476 4.40362 0
M  V30 9264 H 872.97 0.375202 0.654018 0
M  V30 9265 H 875.621 1.44292 1.13367 0
M  V30 9266 H 874.003 1.26013 3.75415 0
M  V30 9267 H 875.177 3.84695 2.53665 0
M  V30 9268 H 873.492 3.38669 2.42265 0
M  V30 9269 H 876.089 2.13061 4.90417 0
M  V30 9270 H 876.432 0.609128 4.1182 0
M  V30 9271 H 876.965 2.12937 3.3601 0
M  V30 9272 H 873.704 4.99258 4.24761 0
M  V30 9273 H 873.224 3.42054 4.92706 0
M  V30 9274 H 874.903 3.99159 5.09196 0
M  V30 9275 N 875.035 -1.20752 1.01276 0
M  V30 9276 C 876.26 -1.94547 0.718769 0
M  V30 9277 C 876.685 -1.7404 -0.713563 0
M  V30 9278 O 876.043 -1.03221 -1.49047 0
M  V30 9279 C 876.091 -3.44823 1.05497 0
M  V30 9280 O 875.195 -4.12072 0.164516 0
M  V30 9281 H 874.536 -0.607931 0.267051 0
M  V30 9282 H 877.066 -1.53292 1.35509 0
M  V30 9283 H 877.076 -3.95427 1.00507 0
M  V30 9284 H 875.751 -3.59072 2.09858 0
M  V30 9285 H 874.328 -3.71909 0.271615 0
M  V30 9286 N 876.513 -0.788492 -1.36457 0
M  V30 9287 C 877.46 -0.18435 -2.30063 0
M  V30 9288 C 878.43 0.67128 -1.51931 0
M  V30 9289 O 879.615 0.620152 -1.8044 0
M  V30 9290 C 876.755 0.675596 -3.38422 0
M  V30 9291 C 875.868 -0.198475 -4.31544 0
M  V30 9292 C 875.003 0.667757 -5.26986 0
M  V30 9293 C 874.042 -0.207825 -6.11747 0
M  V30 9294 N 873.179 0.617335 -6.99381 0
M  V30 9295 H 878.019 -0.988056 -2.81143 0
M  V30 9296 H 875.556 -0.498815 -1.38384 0
M  V30 9297 H 877.514 1.18916 -3.99894 0
M  V30 9298 H 876.144 1.44474 -2.88664 0
M  V30 9299 H 875.196 -0.829995 -3.71235 0
M  V30 9300 H 876.508 -0.873163 -4.91098 0
M  V30 9301 H 875.662 1.24716 -5.93743 0
M  V30 9302 H 874.401 1.37607 -4.67884 0
M  V30 9303 H 873.406 -0.799638 -5.43954 0
M  V30 9304 H 874.631 -0.913729 -6.72925 0
M  V30 9305 H 872.577 1.30996 -6.42788 0
M  V30 9306 H 872.494 0.000307255 -7.56 0
M  V30 9307 H 873.762 1.1806 -7.70508 0
M  V30 9308 N 877.991 1.48044 -0.54043 0
M  V30 9309 C 879.24 2.01698 -0.00809961 0
M  V30 9310 C 879.553 1.42184 1.34325 0
M  V30 9311 O 880.759 1.87398 1.96454 0
M  V30 9312 C 879.215 3.59882 0.035933 0
M  V30 9313 C 878.823 4.28384 -1.31115 0
M  V30 9314 C 880.567 4.21346 0.51654 0
M  V30 9315 C 878.474 5.78529 -1.22714 0
M  V30 9316 H 877.404 0.754 0.000742174 0
M  V30 9317 H 880.055 1.70204 -0.685775 0
M  V30 9318 H 878.437 3.88264 0.778906 0
M  V30 9319 H 879.611 4.11663 -2.07051 0
M  V30 9320 H 877.926 3.78837 -1.72834 0
M  V30 9321 H 880.523 5.31351 0.597529 0
M  V30 9322 H 880.866 3.87373 1.52473 0
M  V30 9323 H 881.399 3.97432 -0.171064 0
M  V30 9324 H 878.138 6.17093 -2.21081 0
M  V30 9325 H 877.658 5.97634 -0.50931 0
M  V30 9326 H 879.337 6.40395 -0.92216 0
M  V30 9327 N 879.47 0.276058 1.55163 0
M  V30 9328 C 880.38 -0.621066 2.2623 0
M  V30 9329 C 881.396 -1.16931 1.28853 0
M  V30 9330 O 882.572 -1.1994 1.61791 0
M  V30 9331 C 879.637 -1.78824 2.97023 0
M  V30 9332 C 878.698 -1.27657 4.09881 0
M  V30 9333 C 877.931 -2.38812 4.77289 0
M  V30 9334 O 878.154 -3.58188 4.43912 0
M  V30 9335 O 877.088 -2.06915 5.65217 0
M  V30 9336 H 880.914 -0.0453346 3.03666 0
M  V30 9337 H 878.499 0.0434275 1.49337 0
M  V30 9338 H 880.381 -2.46877 3.41511 0
M  V30 9339 H 879.056 -2.35104 2.22503 0
M  V30 9340 H 877.963 -0.56248 3.69847 0
M  V30 9341 H 879.296 -0.759509 4.86305 0
M  V30 9342 N 880.948 -1.576 0.00335426 0
M  V30 9343 C 881.896 -2.09759 -1.00517 0
M  V30 9344 C 882.89 -1.01833 -1.35375 0
M  V30 9345 O 884.096 -1.20294 -1.339 0
M  V30 9346 H 880.471 -0.669821 -0.341825 0
M  V30 9347 H 882.442 -2.93478 -0.539718 0
M  V30 9348 C 881.191 -2.6189 -2.28711 0
M  V30 9349 H 880.514 -3.44571 -2.02758 0
M  V30 9350 H 881.954 -3.02061 -2.97548 0
M  V30 9351 C 880.413 -1.53455 -2.99922 0
M  V30 9352 O 880.943 -0.919402 -3.91037 0
M  V30 9353 N 879.149 -1.2612 -2.61806 0
M  V30 9354 H 878.696 -1.76329 -1.87792 0
M  V30 9355 H 878.654 -0.537872 -3.09765 0
M  V30 9356 N 882.426 0.269451 -1.5528 0
M  V30 9357 C 883.703 1.02207 -1.66773 0
M  V30 9358 C 884.083 2.04168 -0.536536 0
M  V30 9359 O 883.431 2.23761 0.462956 0
M  V30 9360 C 883.641 1.67569 -3.0614 0
M  V30 9361 C 884.989 2.18599 -3.64005 0
M  V30 9362 O 886.013 1.7755 -3.08795 0
M  V30 9363 O 884.872 2.93903 -4.60742 0
M  V30 9364 H 881.966 0.474314 -0.677462 0
M  V30 9365 H 884.512 0.265026 -1.67618 0
M  V30 9366 H 883.284 0.937029 -3.79915 0
M  V30 9367 H 882.907 2.49951 -3.09209 0
M  V30 9368 N 883.904 1.48273 0.534124 0
M  V30 9369 C 884.836 1.5857 1.65494 0
M  V30 9370 C 885.849 0.470266 1.5586 0
M  V30 9371 O 887.038 0.740928 1.62396 0
M  V30 9372 C 884.138 1.49554 3.04117 0
M  V30 9373 C 883.311 2.76066 3.39273 0
M  V30 9374 C 882.37 2.60562 4.57159 0
M  V30 9375 O 881.396 3.34438 4.60587 0
M  V30 9376 N 882.598 1.69906 5.55079 0
M  V30 9377 H 885.363 2.55226 1.57099 0
M  V30 9378 H 882.924 1.44944 0.721303 0
M  V30 9379 H 884.916 1.36882 3.80848 0
M  V30 9380 H 883.486 0.608895 3.06613 0
M  V30 9381 H 882.706 3.03332 2.51761 0
M  V30 9382 H 883.994 3.60006 3.59546 0
M  V30 9383 H 883.392 1.09079 5.55084 0
M  V30 9384 H 881.949 1.63175 6.31044 0
M  V30 9385 N 885.382 -0.782676 1.36792 0
M  V30 9386 C 886.63 -1.53778 1.31136 0
M  V30 9387 C 886.951 -1.94706 -0.107014 0
M  V30 9388 O 886.221 -1.65465 -1.04872 0
M  V30 9389 H 884.801 -0.570328 0.482426 0
M  V30 9390 H 887.463 -0.932181 1.71162 0
M  V30 9391 H 886.559 -2.44224 1.94321 0
M  V30 9392 N 886.86 -1.21182 -1.00761 0
M  V30 9393 C 888.108 -1.02543 -1.74153 0
M  V30 9394 C 888.429 0.442372 -1.89916 0
M  V30 9395 O 887.699 1.31927 -1.44818 0
M  V30 9396 H 886.279 -0.37644 -0.645214 0
M  V30 9397 H 888.941 -1.52446 -1.21434 0
M  V30 9398 H 888.037 -1.49122 -2.7417 0
M  V30 9399 N 888.338 1.20213 -1.01915 0
M  V30 9400 C 889.584 1.89928 -0.711007 0
M  V30 9401 C 889.917 1.7881 0.75767 0
M  V30 9402 O 889.192 1.17399 1.55073 0
M  V30 9403 C 889.475 3.41225 -1.15053 0
M  V30 9404 C 889.328 3.61264 -2.67971 0
M  V30 9405 C 890.647 4.34108 -0.72377 0
M  V30 9406 H 887.766 0.689702 -0.259768 0
M  V30 9407 H 890.408 1.41557 -1.26734 0
M  V30 9408 H 888.558 3.82552 -0.677199 0
M  V30 9409 H 890.23 3.29173 -3.23176 0
M  V30 9410 H 888.473 3.04647 -3.08824 0
M  V30 9411 H 889.144 4.67331 -2.93779 0
M  V30 9412 H 891.62 4.00442 -1.13073 0
M  V30 9413 H 890.496 5.38581 -1.05931 0
M  V30 9414 H 890.757 4.40512 0.374424 0
M  V30 9415 N 889.816 0.795718 1.36037 0
M  V30 9416 C 891.065 0.367575 1.98322 0
M  V30 9417 C 891.378 -1.06823 1.63854 0
M  V30 9418 O 892.584 -1.59895 2.19421 0
M  V30 9419 C 891.04 0.606272 3.54757 0
M  V30 9420 C 890.648 2.0539 3.98144 0
M  V30 9421 C 892.392 0.242947 4.23804 0
M  V30 9422 C 890.299 2.23893 5.47381 0
M  V30 9423 H 889.229 0.133699 0.742052 0
M  V30 9424 H 891.88 0.978242 1.5525 0
M  V30 9425 H 890.262 -0.0741957 3.9593 0
M  V30 9426 H 891.436 2.77129 3.68152 0
M  V30 9427 H 889.751 2.37607 3.41953 0
M  V30 9428 H 892.348 0.359382 5.33491 0
M  V30 9429 H 892.691 -0.809661 4.08351 0
M  V30 9430 H 893.224 0.876899 3.88015 0
M  V30 9431 H 889.963 3.27559 5.6779 0
M  V30 9432 H 889.483 1.56666 5.78978 0
M  V30 9433 H 891.162 2.04914 6.13693 0
M  V30 9434 N 891.294 -1.47756 0.548274 0
M  V30 9435 C 892.541 -2.02489 0.0208955 0
M  V30 9436 C 892.869 -1.42356 -1.32533 0
M  V30 9437 O 892.124 -0.565448 -1.87353 0
M  V30 9438 C 892.423 -3.5716 -0.131069 0
M  V30 9439 C 892.089 -4.36169 1.14313 0
M  V30 9440 C 890.751 -4.57476 1.4923 0
M  V30 9441 C 893.103 -4.81801 1.9879 0
M  V30 9442 C 890.431 -5.21662 2.68487 0
M  V30 9443 C 892.783 -5.47303 3.17242 0
M  V30 9444 C 891.447 -5.66844 3.52483 0
M  V30 9445 H 890.717 -0.740961 0.00764621 0
M  V30 9446 H 893.364 -1.77531 0.717987 0
M  V30 9447 H 891.669 -3.8106 -0.911063 0
M  V30 9448 H 893.366 -3.9715 -0.55433 0
M  V30 9449 H 889.956 -4.19858 0.861235 0
M  V30 9450 H 894.14 -4.65126 1.73123 0
M  V30 9451 H 889.396 -5.34987 2.95971 0
M  V30 9452 H 893.57 -5.81626 3.82994 0
M  V30 9453 H 891.197 -6.16352 4.44988 0
M  V30 9454 N 892.772 -0.284283 -1.55015 0
M  V30 9455 C 893.682 0.60906 -2.26556 0
M  V30 9456 C 894.698 1.16246 -1.29472 0
M  V30 9457 O 895.874 1.1908 -1.62425 0
M  V30 9458 C 892.939 1.77246 -2.97968 0
M  V30 9459 C 892 1.25482 -4.10552 0
M  V30 9460 C 891.233 2.36277 -4.78549 0
M  V30 9461 O 891.456 3.55829 -4.45805 0
M  V30 9462 O 890.39 2.03914 -5.66306 0
M  V30 9463 H 894.216 0.0292298 -3.03686 0
M  V30 9464 H 891.801 -0.0513466 -1.49312 0
M  V30 9465 H 893.683 2.45062 -3.42815 0
M  V30 9466 H 892.358 2.33921 -2.23747 0
M  V30 9467 H 891.265 0.542859 -3.7014 0
M  V30 9468 H 892.598 0.733708 -4.86701 0
M  V30 9469 N 894.251 1.57596 -0.0117121 0
M  V30 9470 C 895.214 2.08089 0.960816 0
M  V30 9471 C 896.214 0.992519 1.26514 0
M  V30 9472 O 897.404 1.25475 1.20837 0
M  V30 9473 C 894.536 2.53217 2.28241 0
M  V30 9474 H 895.729 2.9529 0.523829 0
M  V30 9475 H 893.282 1.54508 0.235995 0
M  V30 9476 H 894.017 1.69294 2.76604 0
M  V30 9477 H 893.802 3.32714 2.0747 0
M  V30 9478 H 895.292 2.92568 2.97983 0
M  V30 9479 N 895.729 -0.261212 1.5542 0
M  V30 9480 C 896.676 -1.32315 1.89107 0
M  V30 9481 C 897.646 -1.48517 0.743767 0
M  V30 9482 O 898.831 -1.62733 0.996123 0
M  V30 9483 C 895.971 -2.67626 2.17877 0
M  V30 9484 C 895.084 -2.59549 3.45338 0
M  V30 9485 C 894.219 -3.87118 3.63748 0
M  V30 9486 C 893.258 -3.736 4.8486 0
M  V30 9487 N 892.395 -4.93029 4.99867 0
M  V30 9488 H 897.235 -1.02886 2.79675 0
M  V30 9489 H 894.772 -0.496812 1.38456 0
M  V30 9490 H 896.73 -3.4637 2.32559 0
M  V30 9491 H 895.36 -2.95232 1.30529 0
M  V30 9492 H 894.412 -1.72452 3.39064 0
M  V30 9493 H 895.724 -2.45465 4.34222 0
M  V30 9494 H 894.878 -4.74305 3.78312 0
M  V30 9495 H 893.617 -4.04084 2.73071 0
M  V30 9496 H 892.622 -2.84797 4.70288 0
M  V30 9497 H 893.847 -3.58143 5.76984 0
M  V30 9498 H 891.793 -5.10383 4.12123 0
M  V30 9499 H 891.71 -4.81521 5.82815 0
M  V30 9500 H 892.978 -5.81754 5.18828 0
M  V30 9501 N 897.207 -1.48554 -0.526253 0
M  V30 9502 C 898.618 -1.50256 -1.10815 0
M  V30 9503 C 898.969 -0.274445 -1.94271 0
M  V30 9504 O 898.094 0.618094 -2.07385 0
M  V30 9505 C 898.689 -2.72264 -2.01638 0
M  V30 9506 C 897.248 -2.76826 -2.55038 0
M  V30 9507 C 896.395 -2.43823 -1.32081 0
M  V30 9508 H 899.346 -1.55616 -0.31133 0
M  V30 9509 H 899.367 -2.50993 -2.85977 0
M  V30 9510 H 898.879 -3.61632 -1.4087 0
M  V30 9511 H 896.98 -1.91676 -3.19517 0
M  V30 9512 H 897.093 -3.78351 -2.93917 0
M  V30 9513 H 895.457 -1.95058 -1.63781 0
M  V30 9514 H 896.24 -3.35436 -0.730596 0
M  V30 9515 N 898.685 0.775411 -1.37205 0
M  V30 9516 C 899.632 1.88857 -1.32671 0
M  V30 9517 C 900.602 1.64976 -0.192899 0
M  V30 9518 O 901.787 1.86944 -0.381673 0
M  V30 9519 C 898.927 3.25871 -1.13588 0
M  V30 9520 C 898.04 3.61731 -2.36167 0
M  V30 9521 C 897.175 4.87934 -2.09985 0
M  V30 9522 C 896.214 5.16514 -3.2845 0
M  V30 9523 N 895.351 6.33905 -3.01842 0
M  V30 9524 H 900.191 1.92068 -2.27846 0
M  V30 9525 H 897.728 0.939066 -1.13225 0
M  V30 9526 H 899.686 4.04903 -1.00546 0
M  V30 9527 H 898.316 3.22045 -0.220613 0
M  V30 9528 H 897.368 2.77712 -2.59962 0
M  V30 9529 H 898.68 3.78792 -3.24528 0
M  V30 9530 H 897.834 5.74863 -1.93953 0
M  V30 9531 H 896.573 4.7297 -1.18956 0
M  V30 9532 H 895.578 4.28063 -3.45025 0
M  V30 9533 H 896.803 5.33389 -4.20325 0
M  V30 9534 H 894.749 6.20306 -2.13439 0
M  V30 9535 H 894.666 6.51364 -3.83746 0
M  V30 9536 H 895.934 7.23779 -2.8942 0
M  V30 9537 N 900.163 1.21714 1.00117 0
M  V30 9538 C 901.409 1.03823 1.74208 0
M  V30 9539 C 901.742 -0.426733 1.89454 0
M  V30 9540 O 901.017 -1.31658 1.43166 0
M  V30 9541 C 901.3 1.74047 3.15246 0
M  V30 9542 C 901.153 3.28087 3.077 0
M  V30 9543 C 902.472 1.48614 4.14249 0
M  V30 9544 H 899.591 0.378573 0.632338 0
M  V30 9545 H 902.233 1.49942 1.16694 0
M  V30 9546 H 900.383 1.3484 3.64349 0
M  V30 9547 H 902.055 3.76686 2.6628 0
M  V30 9548 H 900.298 3.58191 2.44707 0
M  V30 9549 H 900.969 3.72392 4.07466 0
M  V30 9550 H 903.445 1.82656 3.73866 0
M  V30 9551 H 902.321 2.00257 5.11066 0
M  V30 9552 H 902.582 0.416957 4.40129 0
M  V30 9553 N 901.641 -1.19671 1.02551 0
M  V30 9554 C 902.604 -2.20987 0.608055 0
M  V30 9555 C 903.604 -1.5745 -0.326534 0
M  V30 9556 O 904.794 -1.73827 -0.114003 0
M  V30 9557 C 901.926 -3.4072 -0.11074 0
M  V30 9558 H 903.119 -2.59434 1.50446 0
M  V30 9559 H 900.672 -1.3329 0.816307 0
M  V30 9560 H 901.407 -3.07787 -1.02165 0
M  V30 9561 H 901.192 -3.88069 0.560772 0
M  V30 9562 H 902.682 -4.15776 -0.389848 0
M  V30 9563 N 903.119 -0.802921 -1.35613 0
M  V30 9564 C 904.359 -0.387163 -2.007 0
M  V30 9565 C 904.723 1.02546 -1.62322 0
M  V30 9566 O 905.924 1.54303 -2.201 0
M  V30 9567 C 904.195 -0.560813 -3.52973 0
M  V30 9568 S 905.754 -0.234935 -4.38171 0
M  V30 9569 H 902.572 -0.147218 -0.695592 0
M  V30 9570 H 905.174 -1.04437 -1.65267 0
M  V30 9571 H 903.878 -1.58897 -3.78391 0
M  V30 9572 H 903.409 0.111845 -3.93241 0
M  V30 9573 H 905.424 0.958715 -4.8685 0
M  V30 9574 N 904.597 1.47463 -0.556102 0
M  V30 9575 C 906.008 1.86298 -0.122429 0
M  V30 9576 C 906.359 1.46285 1.30749 0
M  V30 9577 O 905.484 0.865405 1.98342 0
M  V30 9578 C 906.079 3.38115 -0.215407 0
M  V30 9579 C 904.638 3.76046 0.163223 0
M  V30 9580 C 903.785 2.71515 -0.563466 0
M  V30 9581 H 906.736 1.38996 -0.765888 0
M  V30 9582 H 906.757 3.76263 0.566271 0
M  V30 9583 H 906.269 3.67207 -1.25622 0
M  V30 9584 H 904.37 3.5257 1.20519 0
M  V30 9585 H 904.483 4.78705 -0.194568 0
M  V30 9586 H 902.847 2.54699 -0.00667879 0
M  V30 9587 H 903.63 3.03449 -1.60542 0
M  V30 9588 N 906.075 0.2925 1.54862 0
M  V30 9589 C 906.985 -0.597036 2.26876 0
M  V30 9590 C 908.001 -1.15558 1.30086 0
M  V30 9591 O 909.177 -1.18217 1.63054 0
M  V30 9592 C 906.242 -1.75664 2.98903 0
M  V30 9593 C 905.303 -1.23303 4.11212 0
M  V30 9594 C 904.536 -2.33736 4.79795 0
M  V30 9595 O 904.759 -3.53459 4.47686 0
M  V30 9596 O 903.693 -2.00908 5.67379 0
M  V30 9597 H 907.519 -0.0131242 3.03697 0
M  V30 9598 H 905.104 0.0592642 1.49282 0
M  V30 9599 H 906.986 -2.43241 3.4411 0
M  V30 9600 H 905.661 -2.32731 2.24984 0
M  V30 9601 H 904.568 -0.523222 3.70423 0
M  V30 9602 H 905.901 -0.707887 4.87083 0
M  V30 9603 N 907.553 -1.57587 0.0200696 0
M  V30 9604 C 908.793 -1.93287 -0.66479 0
M  V30 9605 C 909.157 -0.896022 -1.6981 0
M  V30 9606 O 910.358 -1.13892 -2.43479 0
M  V30 9607 C 908.629 -3.33949 -1.27328 0
M  V30 9608 S 910.188 -3.91564 -1.98047 0
M  V30 9609 H 907.006 -0.676397 -0.219106 0
M  V30 9610 H 909.608 -1.9533 0.081568 0
M  V30 9611 H 908.312 -4.07235 -0.508673 0
M  V30 9612 H 907.843 -3.35329 -2.05714 0
M  V30 9613 H 909.858 -3.74265 -3.25791 0
M  V30 9614 N 909.032 0.252966 -1.55557 0
M  V30 9615 C 910.309 1.00432 -1.67847 0
M  V30 9616 C 910.689 2.03587 -0.55816 0
M  V30 9617 O 910.037 2.24239 0.439197 0
M  V30 9618 C 910.247 1.64313 -3.079 0
M  V30 9619 C 911.595 2.14726 -3.66303 0
M  V30 9620 O 912.619 1.74264 -3.10661 0
M  V30 9621 O 911.478 2.89 -4.63833 0
M  V30 9622 H 908.572 0.467102 -0.682455 0
M  V30 9623 H 911.118 0.247233 -1.67889 0
M  V30 9624 H 909.89 0.896681 -3.80888 0
M  V30 9625 H 909.513 2.46657 -3.11843 0
M  V30 9626 N 910.51 1.48831 0.518367 0
M  V30 9627 C 911.759 1.5669 1.27008 0
M  V30 9628 C 912.072 0.250934 1.93984 0
M  V30 9629 O 913.278 0.207884 2.70703 0
M  V30 9630 C 911.734 2.76387 2.30517 0
M  V30 9631 C 911.342 4.14673 1.69559 0
M  V30 9632 C 913.086 2.93566 3.06625 0
M  V30 9633 C 910.993 5.25616 2.71076 0
M  V30 9634 H 909.923 0.583362 0.477708 0
M  V30 9635 H 912.574 1.75187 0.546052 0
M  V30 9636 H 910.956 2.51348 3.06006 0
M  V30 9637 H 912.13 4.49779 1.00179 0
M  V30 9638 H 910.445 4.02708 1.05902 0
M  V30 9639 H 913.042 3.7362 3.82508 0
M  V30 9640 H 913.385 2.03462 3.63193 0
M  V30 9641 H 913.918 3.18562 2.38251 0
M  V30 9642 H 910.657 6.17723 2.19313 0
M  V30 9643 H 910.177 4.94985 3.38748 0
M  V30 9644 H 911.856 5.5422 3.3384 0
M  V30 9645 N 911.988 -0.768124 1.37614 0
M  V30 9646 C 913.399 -1.34462 1.29525 0
M  V30 9647 C 913.75 -1.96121 -0.0555168 0
M  V30 9648 O 912.875 -1.94069 -0.957406 0
M  V30 9649 C 913.47 -2.44475 2.34558 0
M  V30 9650 C 912.029 -2.97883 2.30093 0
M  V30 9651 C 911.176 -1.71131 2.18196 0
M  V30 9652 H 914.127 -0.568103 1.48183 0
M  V30 9653 H 914.148 -3.24047 1.99434 0
M  V30 9654 H 913.66 -1.99568 3.32858 0
M  V30 9655 H 911.761 -3.47156 1.35328 0
M  V30 9656 H 911.874 -3.53251 3.23652 0
M  V30 9657 H 910.238 -1.94197 1.64802 0
M  V30 9658 H 911.021 -1.28323 3.18415 0
M  V30 9659 N 913.466 -1.22244 -0.994698 0
M  V30 9660 C 914.712 -1.04746 -1.73655 0
M  V30 9661 C 915.045 0.41668 -1.89677 0
M  V30 9662 O 914.32 1.30897 -1.43862 0
M  V30 9663 C 914.603 -1.75716 -3.14318 0
M  V30 9664 C 914.456 -3.29714 -3.05955 0
M  V30 9665 C 915.775 -1.50809 -4.13455 0
M  V30 9666 H 912.894 -0.381921 -0.630322 0
M  V30 9667 H 915.536 -1.50559 -1.15897 0
M  V30 9668 H 913.686 -1.3677 -3.63629 0
M  V30 9669 H 915.358 -3.78093 -2.64279 0
M  V30 9670 H 913.601 -3.59484 -2.42804 0
M  V30 9671 H 914.272 -3.74547 -4.05485 0
M  V30 9672 H 916.748 -1.84636 -3.72892 0
M  V30 9673 H 915.624 -2.02964 -5.09997 0
M  V30 9674 H 915.885 -0.440292 -4.39902 0
M  V30 9675 N 914.944 1.19125 -1.03184 0
M  V30 9676 C 916.193 1.8821 -0.725264 0
M  V30 9677 C 916.506 1.80674 0.749411 0
M  V30 9678 O 917.712 2.45037 1.16915 0
M  V30 9679 C 916.168 3.37607 -1.24697 0
M  V30 9680 C 915.776 3.53693 -2.74964 0
M  V30 9681 C 917.52 4.12149 -1.01652 0
M  V30 9682 C 915.427 4.97001 -3.20538 0
M  V30 9683 H 914.357 0.704916 -0.267599 0
M  V30 9684 H 917.008 1.34663 -1.24652 0
M  V30 9685 H 915.39 3.90569 -0.653614 0
M  V30 9686 H 916.564 3.11046 -3.39981 0
M  V30 9687 H 914.879 2.92544 -2.96322 0
M  V30 9688 H 917.476 5.17837 -1.33226 0
M  V30 9689 H 917.819 4.16274 0.0465712 0
M  V30 9690 H 918.352 3.65334 -1.57403 0
M  V30 9691 H 915.091 4.9804 -4.26189 0
M  V30 9692 H 914.611 5.40398 -2.60251 0
M  V30 9693 H 916.29 5.65669 -3.14049 0
M  V30 9694 N 916.422 0.810101 1.35185 0
M  V30 9695 C 917.652 0.404109 2.02609 0
M  V30 9696 C 918.06 -0.990748 1.61186 0
M  V30 9697 O 917.403 -1.65038 0.80674 0
M  V30 9698 C 917.465 0.412047 3.57131 0
M  V30 9699 C 917.129 1.75802 4.21832 0
M  V30 9700 C 918.126 2.71687 4.43263 0
M  V30 9701 C 915.811 2.04299 4.58876 0
M  V30 9702 C 917.805 3.9425 5.00845 0
M  V30 9703 C 915.492 3.27125 5.16171 0
M  V30 9704 C 916.49 4.21918 5.37098 0
M  V30 9705 O 916.178 5.42576 5.93184 0
M  V30 9706 H 915.91 0.161914 0.656323 0
M  V30 9707 H 918.464 1.09605 1.73712 0
M  V30 9708 H 916.694 -0.336509 3.85233 0
M  V30 9709 H 918.383 0.0278817 4.0589 0
M  V30 9710 H 919.149 2.50964 4.15021 0
M  V30 9711 H 915.028 1.31324 4.41899 0
M  V30 9712 H 918.572 4.68251 5.17094 0
M  V30 9713 H 914.469 3.47718 5.43841 0
M  V30 9714 H 915.237 5.43921 6.11631 0
M  V30 9715 N 917.9 -1.47166 0.563914 0
M  V30 9716 C 919.148 -2.02056 0.0422873 0
M  V30 9717 C 919.469 -1.43992 -1.31497 0
M  V30 9718 O 918.739 -0.617578 -1.85911 0
M  V30 9719 H 917.319 -0.746893 0.0126427 0
M  V30 9720 H 919.981 -1.80492 0.735441 0
M  V30 9721 H 919.077 -3.12073 -0.0408044 0
M  V30 9722 N 919.378 -0.300708 -1.54705 0
M  V30 9723 C 920.655 0.361757 -1.92226 0
M  V30 9724 C 921.035 1.71714 -1.2279 0
M  V30 9725 O 920.383 2.2559 -0.363542 0
M  V30 9726 C 920.593 0.476699 -3.45729 0
M  V30 9727 C 921.941 0.7477 -4.17965 0
M  V30 9728 O 922.965 0.560521 -3.51762 0
M  V30 9729 O 921.824 1.10724 -5.35166 0
M  V30 9730 H 918.918 0.202213 -0.801897 0
M  V30 9731 H 921.464 -0.348746 -1.66078 0
M  V30 9732 H 920.236 -0.476132 -3.88392 0
M  V30 9733 H 919.859 1.23568 -3.77911 0
M  V30 9734 N 920.856 1.57574 -0.0284266 0
M  V30 9735 C 922.084 1.96071 0.660575 0
M  V30 9736 C 922.499 0.904881 1.65703 0
M  V30 9737 O 921.856 -0.113379 1.82147 0
M  V30 9738 C 921.907 3.34634 1.36756 0
M  V30 9739 O 921.628 4.36167 0.411041 0
M  V30 9740 C 923.129 3.87758 2.14845 0
M  V30 9741 H 920.349 0.645794 0.182183 0
M  V30 9742 H 922.893 2.04311 -0.0879858 0
M  V30 9743 H 921.048 3.27616 2.06753 0
M  V30 9744 H 921.462 5.16493 0.913 0
M  V30 9745 H 922.936 4.87058 2.59767 0
M  V30 9746 H 923.413 3.21967 2.9872 0
M  V30 9747 H 924.019 3.98043 1.49807 0
M  V30 9748 N 922.334 -0.244713 1.55689 0
M  V30 9749 C 923.266 -1.32595 1.86952 0
M  V30 9750 C 924.279 -1.44185 0.755948 0
M  V30 9751 O 925.468 -1.45496 1.03408 0
M  V30 9752 C 922.568 -2.70429 2.04258 0
M  V30 9753 C 921.741 -2.8108 3.35131 0
M  V30 9754 C 920.8 -3.99773 3.42152 0
M  V30 9755 O 919.826 -3.89197 4.15348 0
M  V30 9756 N 921.028 -5.13041 2.71604 0
M  V30 9757 H 923.793 -1.06111 2.80287 0
M  V30 9758 H 921.354 -0.434811 1.55952 0
M  V30 9759 H 923.346 -3.48173 2.06295 0
M  V30 9760 H 921.916 -2.89612 1.17658 0
M  V30 9761 H 921.136 -1.89994 3.45392 0
M  V30 9762 H 922.424 -2.85147 4.21389 0
M  V30 9763 H 921.822 -5.24525 2.11872 0
M  V30 9764 H 920.379 -5.88912 2.79331 0
M  V30 9765 N 923.813 -1.49104 -0.510467 0
M  V30 9766 C 924.76 -1.65074 -1.61305 0
M  V30 9767 C 925.73 -0.492362 -1.58635 0
M  V30 9768 O 926.915 -0.718241 -1.76765 0
M  V30 9769 C 924.055 -1.71457 -2.99493 0
M  V30 9770 C 923.168 -2.98536 -3.12251 0
M  V30 9771 C 922.303 -2.95957 -4.41116 0
M  V30 9772 C 921.342 -4.17655 -4.47471 0
M  V30 9773 N 920.479 -4.13041 -5.67751 0
M  V30 9774 H 925.319 -2.59222 -1.46996 0
M  V30 9775 H 922.856 -1.28535 -0.715346 0
M  V30 9776 H 924.814 -1.7314 -3.79577 0
M  V30 9777 H 923.444 -0.807834 -3.12528 0
M  V30 9778 H 922.496 -3.06509 -2.25292 0
M  V30 9779 H 923.808 -3.88527 -3.12807 0
M  V30 9780 H 922.962 -2.96149 -5.2951 0
M  V30 9781 H 921.701 -2.03728 -4.4311 0
M  V30 9782 H 920.706 -4.17717 -3.57481 0
M  V30 9783 H 921.931 -5.11066 -4.472 0
M  V30 9784 H 919.877 -3.23643 -5.70606 0
M  V30 9785 H 919.794 -4.96757 -5.69884 0
M  V30 9786 H 921.062 -4.17322 -6.58379 0
M  V30 9787 N 925.291 0.760815 -1.38019 0
M  V30 9788 C 926.516 1.55513 -1.37224 0
M  V30 9789 C 926.941 1.88062 0.037611 0
M  V30 9790 O 926.299 1.50042 1.0177 0
M  V30 9791 C 926.347 2.83539 -2.22796 0
M  V30 9792 O 925.451 3.78384 -1.64009 0
M  V30 9793 H 924.792 0.470642 -0.468393 0
M  V30 9794 H 927.322 0.940792 -1.81687 0
M  V30 9795 H 927.332 3.32535 -2.36399 0
M  V30 9796 H 926.007 2.59178 -3.25269 0
M  V30 9797 H 924.584 3.37063 -1.59508 0
M  V30 9798 N 926.769 1.22769 0.988202 0
M  V30 9799 C 927.717 0.999271 2.10041 0
M  V30 9800 C 928.711 -0.0591767 1.69297 0
M  V30 9801 O 929.917 0.0936653 1.79756 0
M  V30 9802 H 926.292 0.30599 0.686931 0
M  V30 9803 H 928.263 1.94294 2.26478 0
M  V30 9804 C 927.012 0.59873 3.42506 0
M  V30 9805 H 926.335 1.40487 3.74304 0
M  V30 9806 H 927.775 0.478353 4.21293 0
M  V30 9807 C 926.234 -0.692216 3.29712 0
M  V30 9808 O 926.764 -1.74342 3.61895 0
M  V30 9809 N 924.97 -0.665163 2.82885 0
M  V30 9810 H 924.517 0.190604 2.56894 0
M  V30 9811 H 924.475 -1.52917 2.74706 0
M  V30 9812 N 928.247 -1.18576 1.03814 0
M  V30 9813 C 929.493 -1.88773 0.741132 0
M  V30 9814 C 929.826 -1.79993 -0.729127 0
M  V30 9815 O 929.101 -1.19851 -1.53186 0
M  V30 9816 C 929.384 -3.39352 1.20468 0
M  V30 9817 C 929.237 -3.56955 2.73684 0
M  V30 9818 C 930.556 -4.32901 0.792741 0
M  V30 9819 H 927.675 -0.685482 0.270708 0
M  V30 9820 H 930.317 -1.39523 1.2897 0
M  V30 9821 H 928.467 -3.81427 0.737974 0
M  V30 9822 H 930.139 -3.2399 3.28372 0
M  V30 9823 H 928.382 -2.99696 3.13632 0
M  V30 9824 H 929.053 -4.62598 3.01176 0
M  V30 9825 H 931.529 -3.98592 1.1943 0
M  V30 9826 H 930.405 -5.36828 1.14486 0
M  V30 9827 H 930.666 -4.41052 -0.304295 0
M  V30 9828 N 929.725 -0.817259 -1.34754 0
M  V30 9829 C 930.655 -0.249769 -2.3216 0
M  V30 9830 C 931.636 0.630663 -1.57977 0
M  V30 9831 O 932.821 0.558719 -1.85989 0
M  V30 9832 C 929.951 0.593825 -3.42186 0
M  V30 9833 C 928.905 -0.188997 -4.27583 0
M  V30 9834 C 928.231 0.776979 -5.29025 0
M  V30 9835 C 929.531 -1.39401 -5.03354 0
M  V30 9836 H 931.225 -1.06359 -2.79872 0
M  V30 9837 H 928.771 -0.512894 -1.34556 0
M  V30 9838 H 930.724 1.00097 -4.09339 0
M  V30 9839 H 929.448 1.44064 -2.93109 0
M  V30 9840 H 928.107 -0.577445 -3.62024 0
M  V30 9841 H 927.755 1.61959 -4.76212 0
M  V30 9842 H 927.455 0.257448 -5.87036 0
M  V30 9843 H 928.979 1.18211 -5.99048 0
M  V30 9844 H 930.393 -1.06117 -5.63393 0
M  V30 9845 H 928.79 -1.84878 -5.70912 0
M  V30 9846 H 929.86 -2.17515 -4.33377 0
M  V30 9847 N 931.203 1.46865 -0.571711 0
M  V30 9848 C 932.113 2.33979 0.170571 0
M  V30 9849 C 933.129 1.49083 0.897239 0
M  V30 9850 O 934.305 1.81979 0.862888 0
M  V30 9851 C 931.37 3.26063 1.17831 0
M  V30 9852 C 930.431 4.26855 0.457499 0
M  V30 9853 C 929.664 5.14539 1.41722 0
M  V30 9854 O 929.887 5.04945 2.65305 0
M  V30 9855 O 928.821 5.94612 0.9338 0
M  V30 9856 H 932.647 2.98781 -0.544396 0
M  V30 9857 H 930.232 1.4566 -0.332198 0
M  V30 9858 H 932.114 3.82903 1.75965 0
M  V30 9859 H 930.789 2.63871 1.87493 0
M  V30 9860 H 929.696 3.73734 -0.165406 0
M  V30 9861 H 931.029 4.91802 -0.197953 0
M  V30 9862 N 932.681 0.308908 1.54543 0
M  V30 9863 C 933.629 -0.579326 2.2527 0
M  V30 9864 C 934.623 -1.13058 1.26152 0
M  V30 9865 O 935.829 -1.08031 1.43977 0
M  V30 9866 H 932.204 -0.205444 0.723392 0
M  V30 9867 H 934.175 0.0396415 2.98374 0
M  V30 9868 C 932.924 -1.73584 3.01271 0
M  V30 9869 H 932.247 -1.32089 3.77349 0
M  V30 9870 H 933.687 -2.33324 3.54028 0
M  V30 9871 C 932.146 -2.6447 2.08703 0
M  V30 9872 O 932.676 -3.65785 1.66025 0
M  V30 9873 N 930.882 -2.32379 1.74495 0
M  V30 9874 H 930.429 -1.50034 2.09398 0
M  V30 9875 H 930.387 -2.93454 1.12836 0
M  V30 9876 N 934.159 -1.57557 0.0367827 0
M  V30 9877 C 935.107 -2.11844 -0.960454 0
M  V30 9878 C 936.101 -1.04681 -1.33185 0
M  V30 9879 O 937.307 -1.23108 -1.31318 0
M  V30 9880 H 933.682 -0.676921 -0.32754 0
M  V30 9881 H 935.653 -2.94557 -0.477346 0
M  V30 9882 C 934.402 -2.66683 -2.23105 0
M  V30 9883 H 933.725 -3.48795 -1.95403 0
M  V30 9884 H 935.165 -3.08305 -2.91074 0
M  V30 9885 C 933.624 -1.59782 -2.96599 0
M  V30 9886 O 934.154 -1.00214 -3.88999 0
M  V30 9887 N 932.36 -1.31644 -2.59072 0
M  V30 9888 H 931.907 -1.80272 -1.8401 0
M  V30 9889 H 931.865 -0.603457 -3.08554 0
M  V30 9890 N 935.637 0.236453 -1.55816 0
M  V30 9891 C 936.914 0.986463 -1.68903 0
M  V30 9892 C 937.294 2.02984 -0.579722 0
M  V30 9893 O 936.642 2.24693 0.415389 0
M  V30 9894 C 936.852 1.61038 -3.09625 0
M  V30 9895 C 938.2 2.10829 -3.6856 0
M  V30 9896 O 939.224 1.7096 -3.12492 0
M  V30 9897 O 938.083 2.84064 -4.66873 0
M  V30 9898 H 935.177 0.459837 -0.687371 0
M  V30 9899 H 937.723 0.229412 -1.68142 0
M  V30 9900 H 936.495 0.856232 -3.81817 0
M  V30 9901 H 936.118 2.43336 -3.14441 0
M  V30 9902 N 937.115 1.49373 0.502552 0
M  V30 9903 C 938.361 1.59016 1.25864 0
M  V30 9904 C 938.694 0.27532 1.92238 0
M  V30 9905 O 937.969 -0.720988 1.80643 0
M  V30 9906 C 938.252 2.74828 2.32683 0
M  V30 9907 C 938.105 4.16102 1.7082 0
M  V30 9908 C 939.424 2.86288 3.34256 0
M  V30 9909 H 936.543 0.578798 0.456248 0
M  V30 9910 H 939.185 1.81651 0.557032 0
M  V30 9911 H 937.335 2.5566 2.92524 0
M  V30 9912 H 939.007 4.46782 1.14818 0
M  V30 9913 H 937.25 4.21822 1.01238 0
M  V30 9914 H 937.921 4.93006 2.48292 0
M  V30 9915 H 940.397 3.03733 2.84404 0
M  V30 9916 H 939.273 3.69001 4.06362 0
M  V30 9917 H 939.534 1.95576 3.96488 0
M  V30 9918 N 938.594 -0.753485 1.38421 0
M  V30 9919 C 939.504 -1.89797 1.37892 0
M  V30 9920 C 940.52 -1.71797 0.276023 0
M  V30 9921 O 941.696 -1.94718 0.514464 0
M  V30 9922 C 938.761 -3.25166 1.20284 0
M  V30 9923 C 937.822 -3.55691 2.4038 0
M  V30 9924 C 937.055 -4.84601 2.23602 0
M  V30 9925 O 937.278 -5.56985 1.22979 0
M  V30 9926 O 936.212 -5.14605 3.12194 0
M  V30 9927 H 940.038 -1.93197 2.34326 0
M  V30 9928 H 937.623 -0.898775 1.19342 0
M  V30 9929 H 939.505 -4.06099 1.12525 0
M  V30 9930 H 938.18 -3.22577 0.269352 0
M  V30 9931 H 937.087 -2.74919 2.53714 0
M  V30 9932 H 938.42 -3.6304 3.32359 0
M  V30 9933 N 940.072 -1.23292 -0.981677 0
M  V30 9934 C 941.349 -0.972514 -1.6971 0
M  V30 9935 C 941.729 0.509244 -2.04866 0
M  V30 9936 O 941.077 1.48013 -1.74082 0
M  V30 9937 C 941.287 -1.88144 -2.93943 0
M  V30 9938 C 942.635 -2.14416 -3.66485 0
M  V30 9939 O 943.659 -1.85684 -3.03974 0
M  V30 9940 O 942.518 -2.63139 -4.78978 0
M  V30 9941 H 939.612 -0.366673 -0.741269 0
M  V30 9942 H 942.158 -1.34328 -1.03701 0
M  V30 9943 H 940.93 -2.8832 -2.64551 0
M  V30 9944 H 940.553 -1.51296 -3.67689 0
M  V30 9945 N 941.55 1.18024 -1.04442 0
M  V30 9946 C 942.796 1.88377 -0.751133 0
M  V30 9947 C 943.129 1.80377 0.719571 0
M  V30 9948 O 942.404 1.20662 1.52548 0
M  V30 9949 C 942.687 3.38708 -1.22265 0
M  V30 9950 C 942.54 3.55499 -2.75574 0
M  V30 9951 C 943.859 4.32475 -0.815688 0
M  V30 9952 H 940.978 0.684037 -0.27434 0
M  V30 9953 H 943.62 1.38837 -1.29709 0
M  V30 9954 H 941.77 3.8103 -0.758192 0
M  V30 9955 H 943.442 3.22244 -3.30086 0
M  V30 9956 H 941.685 2.98028 -3.15217 0
M  V30 9957 H 942.356 4.60994 -3.03625 0
M  V30 9958 H 944.832 3.97953 -1.21542 0
M  V30 9959 H 943.708 5.36213 -1.17331 0
M  V30 9960 H 943.969 4.41207 0.280901 0
M  V30 9961 N 943.028 0.824394 1.34319 0
M  V30 9962 C 943.991 0.252696 2.27803 0
M  V30 9963 C 944.991 -0.570254 1.50349 0
M  V30 9964 O 946.181 -0.386145 1.69866 0
M  V30 9965 C 943.313 -0.645575 3.34731 0
M  V30 9966 H 944.506 1.07742 2.79878 0
M  V30 9967 H 942.059 0.596367 1.44475 0
M  V30 9968 H 942.794 -1.4933 2.87873 0
M  V30 9969 H 942.579 -0.0569478 3.92059 0
M  V30 9970 H 944.069 -1.03933 4.0446 0
M  V30 9971 N 944.506 -1.46559 0.579492 0
M  V30 9972 C 945.755 -2.01606 0.0615735 0
M  V30 9973 C 946.068 -1.45695 -1.30508 0
M  V30 9974 O 947.274 -1.92541 -1.91416 0
M  V30 9975 C 945.73 -3.59851 0.059496 0
M  V30 9976 C 945.338 -4.24757 1.42427 0
M  V30 9977 C 947.082 -4.22567 -0.404646 0
M  V30 9978 C 944.989 -5.75072 1.38009 0
M  V30 9979 H 943.919 -0.753754 0.0192491 0
M  V30 9980 H 946.57 -1.68326 0.73066 0
M  V30 9981 H 944.952 -3.90193 -0.675691 0
M  V30 9982 H 946.126 -4.06029 2.17893 0
M  V30 9983 H 944.441 -3.74121 1.82817 0
M  V30 9984 H 947.038 -5.32748 -0.456441 0
M  V30 9985 H 947.381 -3.91279 -1.42149 0
M  V30 9986 H 947.914 -3.96839 0.276376 0
M  V30 9987 H 944.653 -6.11014 2.37364 0
M  V30 9988 H 944.173 -5.96073 0.667583 0
M  V30 9989 H 945.852 -6.37724 1.09163 0
M  V30 9990 N 945.984 -0.3171 -1.54377 0
M  V30 9991 C 947.209 0.292311 -2.0533 0
M  V30 9992 C 947.634 1.45503 -1.19207 0
M  V30 9993 O 946.992 1.80197 -0.199721 0
M  V30 9994 C 947.04 0.710787 -3.53525 0
M  V30 9995 O 946.144 1.81387 -3.70368 0
M  V30 9996 H 945.485 0.0539976 -0.661801 0
M  V30 9997 H 948.015 -0.463629 -1.99278 0
M  V30 9998 H 948.025 0.995216 -3.95676 0
M  V30 9999 H 946.7 -0.139668 -4.15665 0
M  V30 10000 H 945.277 1.52875 -3.40123 0
M  V30 10001 N 947.462 1.57535 -0.0451378 0
M  V30 10002 C 948.878 1.56533 0.311373 0
M  V30 10003 C 949.078 1.05225 1.71843 0
M  V30 10004 O 948.134 0.706144 2.42425 0
M  V30 10005 C 949.447 3.00349 0.145348 0
M  V30 10006 C 950.995 3.12248 0.216908 0
M  V30 10007 C 951.47 4.57931 0.0794834 0
M  V30 10008 N 952.961 4.63 0.135954 0
M  V30 10009 C 953.696 5.73375 0.0536426 0
M  V30 10010 N 953.192 6.92753 -0.0806725 0
M  V30 10011 N 954.985 5.61995 0.108789 0
M  V30 10012 H 947.136 1.89211 -0.965044 0
M  V30 10013 H 949.399 0.871068 -0.374091 0
M  V30 10014 H 949.105 3.41898 -0.824533 0
M  V30 10015 H 948.979 3.66086 0.908903 0
M  V30 10016 H 951.366 2.70601 1.17726 0
M  V30 10017 H 951.447 2.49201 -0.577299 0
M  V30 10018 H 951.091 5.00262 -0.877516 0
M  V30 10019 H 951.021 5.18977 0.892758 0
M  V30 10020 H 953.512 3.77142 0.23926 0
M  V30 10021 H 953.825 7.7268 -0.136351 0
M  V30 10022 H 952.17 6.94904 -0.115675 0
M  V30 10023 H 955.361 4.67619 0.212235 0
M  V30 10024 H 955.534 6.47987 0.0411822 0
M  V30 10025 N 948.94 -0.228186 1.55939 0
M  V30 10026 C 949.85 -1.30386 1.9503 0
M  V30 10027 C 950.866 -1.51645 0.853218 0
M  V30 10028 O 952.042 -1.64904 1.15623 0
M  V30 10029 C 949.107 -2.63489 2.25332 0
M  V30 10030 C 948.168 -2.5059 3.48573 0
M  V30 10031 C 947.401 -3.77345 3.7742 0
M  V30 10032 O 947.624 -4.80067 3.08045 0
M  V30 10033 O 946.558 -3.74855 4.70922 0
M  V30 10034 H 950.384 -1.0022 2.86687 0
M  V30 10035 H 947.969 -0.430503 1.43063 0
M  V30 10036 H 949.851 -3.4211 2.46046 0
M  V30 10037 H 948.526 -2.93349 1.3685 0
M  V30 10038 H 947.433 -1.70191 3.33145 0
M  V30 10039 H 948.766 -2.2567 4.37417 0
M  V30 10040 N 950.418 -1.49637 -0.494624 0
M  V30 10041 C 951.35 -1.62902 -1.61231 0
M  V30 10042 C 952.363 -0.511425 -1.54558 0
M  V30 10043 O 953.552 -0.783724 -1.60375 0
M  V30 10044 C 950.652 -1.57564 -3.00045 0
M  V30 10045 C 949.825 -2.84964 -3.31835 0
M  V30 10046 C 948.884 -2.72591 -4.5009 0
M  V30 10047 O 947.91 -3.46532 -4.51558 0
M  V30 10048 N 949.112 -1.84563 -5.50379 0
M  V30 10049 H 951.877 -2.59301 -1.50276 0
M  V30 10050 H 949.438 -1.46806 -0.68262 0
M  V30 10051 H 951.43 -1.46932 -3.77085 0
M  V30 10052 H 950 -0.689974 -3.0489 0
M  V30 10053 H 949.22 -3.099 -2.4363 0
M  V30 10054 H 950.508 -3.69412 -3.49875 0
M  V30 10055 H 949.906 -1.23758 -5.51997 0
M  V30 10056 H 948.463 -1.79849 -6.26496 0
M  V30 10057 N 951.896 0.746133 -1.38819 0
M  V30 10058 C 952.828 1.86991 -1.3254 0
M  V30 10059 C 953.841 1.61077 -0.236216 0
M  V30 10060 O 955.03 1.71518 -0.494341 0
M  V30 10061 C 952.13 3.22786 -1.03258 0
M  V30 10062 C 951.303 3.76145 -2.23234 0
M  V30 10063 C 950.362 4.90474 -1.90581 0
M  V30 10064 O 949.388 5.04717 -2.63153 0
M  V30 10065 N 950.59 5.74015 -0.86525 0
M  V30 10066 H 953.355 1.92885 -2.2938 0
M  V30 10067 H 950.916 0.926392 -1.32776 0
M  V30 10068 H 952.908 3.96824 -0.794533 0
M  V30 10069 H 951.478 3.12231 -0.151895 0
M  V30 10070 H 950.698 2.93587 -2.63059 0
M  V30 10071 H 951.986 4.08528 -3.03285 0
M  V30 10072 H 951.384 5.65086 -0.263577 0
M  V30 10073 H 949.941 6.48168 -0.687087 0
M  V30 10074 N 953.375 1.23811 0.975125 0
M  V30 10075 C 954.323 1.02149 2.0897 0
M  V30 10076 C 955.317 -0.0412172 1.6935 0
M  V30 10077 O 956.523 0.112726 1.79647 0
M  V30 10078 H 952.898 0.313259 0.683647 0
M  V30 10079 H 954.869 1.96686 2.24404 0
M  V30 10080 C 953.618 0.635023 3.41852 0
M  V30 10081 H 952.941 1.44449 3.72793 0
M  V30 10082 H 954.381 0.52301 4.20762 0
M  V30 10083 C 952.84 -0.657207 3.30428 0
M  V30 10084 O 953.37 -1.70494 3.63723 0
M  V30 10085 N 951.576 -0.635122 2.83575 0
M  V30 10086 H 951.123 0.21784 2.56677 0
M  V30 10087 H 951.081 -1.49995 2.76313 0
M  V30 10088 N 954.853 -1.17469 1.05066 0
M  V30 10089 C 956.099 -1.87976 0.761113 0
M  V30 10090 C 956.432 -1.80756 -0.709995 0
M  V30 10091 O 955.707 -1.21469 -1.51906 0
M  V30 10092 C 955.99 -3.38055 1.2406 0
M  V30 10093 C 955.843 -3.54032 2.77455 0
M  V30 10094 C 957.162 -4.32036 0.838612 0
M  V30 10095 H 954.281 -0.682573 0.277963 0
M  V30 10096 H 956.923 -1.38147 1.30443 0
M  V30 10097 H 955.073 -3.80622 0.778388 0
M  V30 10098 H 956.745 -3.20489 3.3179 0
M  V30 10099 H 954.988 -2.96352 3.16793 0
M  V30 10100 H 955.659 -4.59377 3.06066 0
M  V30 10101 H 958.135 -3.97303 1.23651 0
M  V30 10102 H 957.011 -5.35583 1.20173 0
M  V30 10103 H 957.272 -4.41349 -0.257498 0
M  V30 10104 N 956.331 -0.831506 -1.3388 0
M  V30 10105 C 957.556 -0.435954 -2.02766 0
M  V30 10106 C 957.981 0.952889 -1.62178 0
M  V30 10107 O 957.339 1.62166 -0.810681 0
M  V30 10108 C 957.387 -0.555907 -3.56289 0
M  V30 10109 O 956.491 0.420826 -4.10247 0
M  V30 10110 H 955.832 -0.178248 -0.639628 0
M  V30 10111 H 958.362 -1.1243 -1.70941 0
M  V30 10112 H 958.372 -0.434831 -4.05676 0
M  V30 10113 H 957.047 -1.56881 -3.85177 0
M  V30 10114 H 955.624 0.257919 -3.72007 0
M  V30 10115 N 957.809 1.4625 -0.587256 0
M  V30 10116 C 959.055 2.02662 -0.0746851 0
M  V30 10117 C 959.388 1.45723 1.28368 0
M  V30 10118 O 958.663 0.624062 1.84216 0
M  V30 10119 C 958.946 3.60097 -0.0138109 0
M  V30 10120 C 958.799 4.27412 -1.4014 0
M  V30 10121 C 960.118 4.34744 0.684491 0
M  V30 10122 H 957.237 0.736444 -0.0286144 0
M  V30 10123 H 959.879 1.74341 -0.755328 0
M  V30 10124 H 958.029 3.84357 0.56583 0
M  V30 10125 H 959.701 4.14401 -2.02656 0
M  V30 10126 H 957.944 3.86598 -1.96785 0
M  V30 10127 H 958.615 5.362 -1.31124 0
M  V30 10128 H 961.091 4.15657 0.192023 0
M  V30 10129 H 959.967 5.44468 0.696127 0
M  V30 10130 H 960.228 4.06132 1.74669 0
M  V30 10131 N 959.287 0.325282 1.54207 0
M  V30 10132 C 960.698 -0.162426 1.85992 0
M  V30 10133 C 961.049 -1.51482 1.2469 0
M  V30 10134 O 960.174 -2.092 0.553578 0
M  V30 10135 C 960.769 -0.3015 3.37456 0
M  V30 10136 C 959.328 -0.73343 3.69185 0
M  V30 10137 C 958.475 0.143831 2.76927 0
M  V30 10138 H 961.426 0.545508 1.4903 0
M  V30 10139 H 961.447 -1.13212 3.63268 0
M  V30 10140 H 960.959 0.682942 3.82044 0
M  V30 10141 H 959.06 -1.72755 3.30131 0
M  V30 10142 H 959.173 -0.535987 4.76092 0
M  V30 10143 H 957.537 -0.380892 2.51836 0
M  V30 10144 H 958.32 1.12507 3.24341 0
M  V30 10145 N 960.765 -1.57509 0.0534917 0
M  V30 10146 C 961.698 -2.0723 -0.955554 0
M  V30 10147 C 962.676 -0.973313 -1.30251 0
M  V30 10148 O 963.86 -1.24541 -1.41498 0
M  V30 10149 C 960.987 -2.51473 -2.2689 0
M  V30 10150 C 960.033 -3.7263 -2.07482 0
M  V30 10151 S 960.866 -5.18177 -1.35104 0
M  V30 10152 C 962.022 -5.65736 -2.67757 0
M  V30 10153 H 962.255 -2.92494 -0.532407 0
M  V30 10154 H 959.788 -1.53581 -0.158831 0
M  V30 10155 H 961.746 -2.77626 -3.02381 0
M  V30 10156 H 960.407 -1.66511 -2.66332 0
M  V30 10157 H 959.6 -4.01515 -3.04633 0
M  V30 10158 H 959.202 -3.46756 -1.4013 0
M  V30 10159 H 961.494 -5.71463 -3.63918 0
M  V30 10160 H 962.437 -6.64914 -2.43506 0
M  V30 10161 H 962.845 -4.93475 -2.74123 0
M  V30 10162 N 962.243 0.219913 -1.56058 0
M  V30 10163 C 963.654 0.786766 -1.69313 0
M  V30 10164 C 964.005 1.84916 -0.655782 0
M  V30 10165 O 963.13 2.1554 0.192772 0
M  V30 10166 C 963.725 1.43387 -3.06962 0
M  V30 10167 C 962.284 1.94809 -3.22066 0
M  V30 10168 C 961.431 0.808863 -2.65241 0
M  V30 10169 H 964.382 -0.00476777 -1.58699 0
M  V30 10170 H 964.403 2.30272 -3.02911 0
M  V30 10171 H 963.915 0.660405 -3.8244 0
M  V30 10172 H 962.016 2.74952 -2.5146 0
M  V30 10173 H 962.129 2.12694 -4.293 0
M  V30 10174 H 960.493 1.21661 -2.23765 0
M  V30 10175 H 961.276 0.0480458 -3.43266 0
M  V30 10176 N 963.721 1.49897 0.486681 0
M  V30 10177 C 964.653 1.63755 1.60365 0
M  V30 10178 C 965.666 0.519614 1.54285 0
M  V30 10179 O 966.855 0.792219 1.59957 0
M  V30 10180 C 963.955 1.59153 2.99205 0
M  V30 10181 C 963.128 2.8672 3.30319 0
M  V30 10182 C 962.187 2.74974 4.48638 0
M  V30 10183 O 961.213 3.48922 4.49714 0
M  V30 10184 N 962.415 1.87479 5.49392 0
M  V30 10185 H 965.18 2.60094 1.48899 0
M  V30 10186 H 962.741 1.47166 0.674825 0
M  V30 10187 H 964.733 1.4893 3.76301 0
M  V30 10188 H 963.303 0.706133 3.0452 0
M  V30 10189 H 962.523 3.11188 2.41983 0
M  V30 10190 H 963.811 3.71262 3.47911 0
M  V30 10191 H 963.209 1.26684 5.51333 0
M  V30 10192 H 961.766 1.83169 6.25534 0
M  V30 10193 N 965.199 -0.738761 1.39212 0
M  V30 10194 C 966.129 -1.86602 1.40364 0
M  V30 10195 C 967.11 -1.67984 0.267495 0
M  V30 10196 O 968.295 -1.88358 0.472765 0
M  V30 10197 C 965.425 -3.24308 1.24265 0
M  V30 10198 C 964.379 -3.57557 2.35239 0
M  V30 10199 C 963.705 -4.94159 2.04233 0
M  V30 10200 C 965.005 -3.60914 3.77543 0
M  V30 10201 H 966.699 -1.85896 2.34698 0
M  V30 10202 H 964.245 -0.892959 1.1297 0
M  V30 10203 H 966.198 -4.02838 1.23692 0
M  V30 10204 H 964.922 -3.25531 0.263974 0
M  V30 10205 H 963.581 -2.81354 2.35022 0
M  V30 10206 H 963.229 -4.91959 1.04813 0
M  V30 10207 H 962.929 -5.17373 2.78567 0
M  V30 10208 H 964.453 -5.7505 2.05303 0
M  V30 10209 H 965.867 -4.29528 3.79709 0
M  V30 10210 H 964.264 -3.95644 4.51205 0
M  V30 10211 H 965.334 -2.60803 4.08791 0
M  V30 10212 N 966.677 -1.24326 -0.968545 0
M  V30 10213 C 967.587 -1.05194 -2.09694 0
M  V30 10214 C 968.603 0.00701291 -1.73999 0
M  V30 10215 O 969.779 -0.190981 -2.00492 0
M  V30 10216 C 966.844 -0.658075 -3.40397 0
M  V30 10217 C 965.905 -1.79341 -3.90045 0
M  V30 10218 C 965.138 -1.41824 -5.14511 0
M  V30 10219 O 965.361 -0.307693 -5.69569 0
M  V30 10220 O 964.295 -2.24358 -5.58522 0
M  V30 10221 H 968.121 -1.99791 -2.2873 0
M  V30 10222 H 965.706 -1.03138 -1.08088 0
M  V30 10223 H 967.588 -0.449911 -4.18991 0
M  V30 10224 H 966.263 0.258782 -3.22664 0
M  V30 10225 H 965.17 -2.05632 -3.12516 0
M  V30 10226 H 966.503 -2.68901 -4.12254 0
M  V30 10227 N 968.156 1.1691 -1.05688 0
M  V30 10228 C 969.088 2.20648 -0.620237 0
M  V30 10229 C 970.101 1.59652 0.318604 0
M  V30 10230 O 971.29 1.78157 0.110553 0
M  V30 10231 C 968.39 3.38716 0.111729 0
M  V30 10232 C 967.563 4.29277 -0.839062 0
M  V30 10233 C 966.622 5.25993 -0.147453 0
M  V30 10234 O 965.648 5.63787 -0.783151 0
M  V30 10235 N 966.85 5.69725 1.11327 0
M  V30 10236 H 969.615 2.58731 -1.51256 0
M  V30 10237 H 967.176 1.31858 -0.939412 0
M  V30 10238 H 969.168 4.00455 0.584657 0
M  V30 10239 H 967.738 2.99189 0.905784 0
M  V30 10240 H 966.958 3.64894 -1.4915 0
M  V30 10241 H 968.246 4.86669 -1.48428 0
M  V30 10242 H 967.644 5.41103 1.64999 0
M  V30 10243 H 966.201 6.33584 1.53018 0
M  V30 10244 N 969.634 0.838594 1.33437 0
M  V30 10245 C 970.597 0.276843 2.27522 0
M  V30 10246 C 971.597 -0.554275 1.50945 0
M  V30 10247 O 972.787 -0.368107 1.70266 0
M  V30 10248 C 969.919 -0.610036 3.35397 0
M  V30 10249 H 971.112 1.10705 2.78719 0
M  V30 10250 H 968.665 0.611657 1.43835 0
M  V30 10251 H 969.4 -1.46269 2.89441 0
M  V30 10252 H 969.185 -0.0153615 3.92097 0
M  V30 10253 H 970.675 -0.996368 4.05539 0
M  V30 10254 N 971.112 -1.45937 0.595003 0
M  V30 10255 C 972.06 -2.32155 -0.143798 0
M  V30 10256 C 973.054 -1.45221 -0.872198 0
M  V30 10257 O 974.26 -1.61777 -0.789191 0
M  V30 10258 H 970.635 -0.749165 -0.0652377 0
M  V30 10259 H 972.606 -2.92264 0.602005 0
M  V30 10260 C 971.355 -3.28615 -1.13611 0
M  V30 10261 H 970.678 -3.95496 -0.585044 0
M  V30 10262 H 972.118 -3.91699 -1.62321 0
M  V30 10263 C 970.577 -2.54863 -2.20333 0
M  V30 10264 O 971.107 -2.32071 -3.27881 0
M  V30 10265 N 969.313 -2.15213 -1.95274 0
M  V30 10266 H 968.86 -2.33949 -1.07822 0
M  V30 10267 H 968.818 -1.66188 -2.66888 0
M  V30 10268 N 972.59 -0.333456 -1.54032 0
M  V30 10269 C 973.522 0.562174 -2.22199 0
M  V30 10270 C 974.535 1.07202 -1.22522 0
M  V30 10271 O 975.724 0.983897 -1.48935 0
M  V30 10272 C 972.824 1.78525 -2.88066 0
M  V30 10273 C 971.997 1.41242 -4.13968 0
M  V30 10274 C 971.056 2.49408 -4.63338 0
M  V30 10275 O 970.082 2.13138 -5.27789 0
M  V30 10276 N 971.284 3.805 -4.38406 0
M  V30 10277 H 974.049 -0.0215629 -2.99692 0
M  V30 10278 H 971.61 -0.157111 -1.61136 0
M  V30 10279 H 973.602 2.50298 -3.18014 0
M  V30 10280 H 972.172 2.2766 -2.14219 0
M  V30 10281 H 971.392 0.525887 -3.90676 0
M  V30 10282 H 972.68 1.13916 -4.95884 0
M  V30 10283 H 972.078 4.12761 -3.86839 0
M  V30 10284 H 970.635 4.48474 -4.72984 0
M  V30 10285 N 974.068 1.57479 -0.061844 0
M  V30 10286 C 975.031 2.1104 0.894127 0
M  V30 10287 C 976.031 1.03227 1.23292 0
M  V30 10288 O 977.221 1.29256 1.16784 0
M  V30 10289 C 974.353 2.6035 2.20069 0
M  V30 10290 H 975.546 2.96807 0.429619 0
M  V30 10291 H 973.099 1.55181 0.18672 0
M  V30 10292 H 973.834 1.78008 2.71079 0
M  V30 10293 H 973.619 3.39146 1.9678 0
M  V30 10294 H 975.109 3.019 2.88525 0
M  V30 10295 N 975.546 -0.211634 1.56173 0
M  V30 10296 C 976.476 -1.26533 1.96244 0
M  V30 10297 C 977.457 -1.48362 0.832028 0
M  V30 10298 O 978.642 -1.60378 1.0951 0
M  V30 10299 C 975.772 -2.61307 2.2877 0
M  V30 10300 C 974.726 -2.54119 3.44395 0
M  V30 10301 C 974.052 -3.93014 3.62552 0
M  V30 10302 C 975.352 -2.08046 4.79076 0
M  V30 10303 H 977.046 -0.932407 2.84511 0
M  V30 10304 H 974.592 -0.447084 1.36884 0
M  V30 10305 H 976.545 -3.35188 2.55396 0
M  V30 10306 H 975.269 -2.96307 1.37367 0
M  V30 10307 H 973.928 -1.82694 3.17834 0
M  V30 10308 H 973.576 -4.25338 2.68508 0
M  V30 10309 H 973.276 -3.89083 4.40327 0
M  V30 10310 H 974.8 -4.68542 3.91537 0
M  V30 10311 H 976.214 -2.71676 5.04842 0
M  V30 10312 H 974.611 -2.15154 5.60204 0
M  V30 10313 H 975.681 -1.03306 4.73768 0
M  V30 10314 N 977.024 -1.50153 -0.478725 0
M  V30 10315 C 978.27 -1.60998 -1.23318 0
M  V30 10316 C 978.603 -0.305868 -1.91776 0
M  V30 10317 O 977.878 0.692158 -1.81767 0
M  V30 10318 C 978.161 -2.78495 -2.28282 0
M  V30 10319 C 978.014 -4.18767 -1.64178 0
M  V30 10320 C 979.333 -2.91569 -3.2966 0
M  V30 10321 H 976.452 -0.585983 -0.446982 0
M  V30 10322 H 979.094 -1.82514 -0.528063 0
M  V30 10323 H 977.244 -2.60281 -2.8842 0
M  V30 10324 H 978.916 -4.48552 -1.07696 0
M  V30 10325 H 977.159 -4.23379 -0.94514 0
M  V30 10326 H 977.83 -4.96894 -2.40417 0
M  V30 10327 H 980.306 -3.08219 -2.79536 0
M  V30 10328 H 979.182 -3.75419 -4.0044 0
M  V30 10329 H 979.443 -2.01859 -3.93326 0
M  V30 10330 N 978.502 0.731368 -1.39602 0
M  V30 10331 C 979.465 1.8271 -1.38383 0
M  V30 10332 C 980.465 1.58338 -0.280309 0
M  V30 10333 O 981.655 1.65671 -0.538402 0
M  V30 10334 C 978.787 3.20556 -1.16002 0
M  V30 10335 H 979.98 1.85193 -2.35889 0
M  V30 10336 H 977.533 0.935396 -1.2522 0
M  V30 10337 H 978.268 3.23732 -0.191927 0
M  V30 10338 H 978.053 3.39643 -1.9592 0
M  V30 10339 H 979.543 4.00612 -1.17899 0
M  V30 10340 N 979.98 1.24838 0.961938 0
M  V30 10341 C 980.927 1.04582 2.05745 0
M  V30 10342 C 981.897 -0.0427281 1.66045 0
M  V30 10343 O 983.082 0.113026 1.90465 0
M  V30 10344 C 980.222 0.66284 3.38675 0
M  V30 10345 C 979.335 1.82548 3.91536 0
M  V30 10346 C 978.47 1.38753 5.12758 0
M  V30 10347 C 977.509 2.51976 5.5783 0
M  V30 10348 N 976.646 2.09009 6.70268 0
M  V30 10349 H 981.486 1.98343 2.22405 0
M  V30 10350 H 979.023 0.987822 1.08998 0
M  V30 10351 H 980.981 0.421788 4.15062 0
M  V30 10352 H 979.611 -0.237776 3.21923 0
M  V30 10353 H 978.663 2.18004 3.11735 0
M  V30 10354 H 979.975 2.67601 4.20941 0
M  V30 10355 H 979.129 1.1057 5.96539 0
M  V30 10356 H 977.868 0.507618 4.85051 0
M  V30 10357 H 976.873 2.80912 4.72619 0
M  V30 10358 H 978.098 3.40534 5.87549 0
M  V30 10359 H 976.044 1.23423 6.44285 0
M  V30 10360 H 975.961 2.87613 6.99153 0
M  V30 10361 H 977.229 1.83981 7.57477 0
M  V30 10362 N 981.458 -1.16348 1.06306 0
M  V30 10363 C 982.686 -1.90782 0.800614 0
M  V30 10364 C 983.101 -1.77439 -0.645033 0
M  V30 10365 O 982.458 -1.11912 -1.4416 0
M  V30 10366 C 982.509 -3.41484 1.18621 0
M  V30 10367 O 982.23 -3.54428 2.57512 0
M  V30 10368 C 983.731 -4.32968 0.951525 0
M  V30 10369 H 980.951 -0.604977 0.290247 0
M  V30 10370 H 983.495 -1.47476 1.41672 0
M  V30 10371 H 981.65 -3.82493 0.614633 0
M  V30 10372 H 982.064 -4.4788 2.72954 0
M  V30 10373 H 983.538 -5.37169 1.27095 0
M  V30 10374 H 984.015 -4.39055 -0.112734 0
M  V30 10375 H 984.621 -3.97687 1.50749 0
M  V30 10376 N 982.937 -0.845659 -1.3299 0
M  V30 10377 C 984.185 -0.443774 -1.97168 0
M  V30 10378 C 984.506 1.00192 -1.67292 0
M  V30 10379 O 983.776 1.69891 -0.975397 0
M  V30 10380 H 982.356 -0.161111 -0.729419 0
M  V30 10381 H 985.018 -1.08011 -1.62233 0
M  V30 10382 H 984.114 -0.581414 -3.06637 0
M  V30 10383 N 984.415 1.45619 -0.602734 0
M  V30 10384 C 985.378 2.28941 0.108962 0
M  V30 10385 C 986.378 1.39501 0.799762 0
M  V30 10386 O 987.568 1.61673 0.648663 0
M  V30 10387 C 984.7 3.204 1.16432 0
M  V30 10388 H 985.893 2.93346 -0.623534 0
M  V30 10389 H 983.446 1.52061 -0.361565 0
M  V30 10390 H 984.181 2.60785 1.92774 0
M  V30 10391 H 983.966 3.86277 0.673248 0
M  V30 10392 H 985.456 3.83063 1.6629 0
M  V30 10393 N 985.893 0.34162 1.53853 0
M  V30 10394 C 986.825 -0.550383 2.22494 0
M  V30 10395 C 987.838 -1.0655 1.23089 0
M  V30 10396 O 989.027 -0.975985 1.49455 0
M  V30 10397 C 986.127 -1.76995 2.89009 0
M  V30 10398 C 985.3 -1.39045 4.14711 0
M  V30 10399 C 984.359 -2.46947 4.64654 0
M  V30 10400 O 983.385 -2.10336 5.28912 0
M  V30 10401 N 984.587 -3.7817 4.40418 0
M  V30 10402 H 987.352 0.037456 2.99677 0
M  V30 10403 H 984.913 0.165654 1.6105 0
M  V30 10404 H 986.905 -2.48608 3.19337 0
M  V30 10405 H 985.475 -2.2652 2.15424 0
M  V30 10406 H 984.695 -0.505161 3.9095 0
M  V30 10407 H 985.983 -1.11284 4.96481 0
M  V30 10408 H 985.381 -4.10704 3.89023 0
M  V30 10409 H 983.938 -4.45959 4.75356 0
M  V30 10410 N 987.371 -1.57444 0.0701946 0
M  V30 10411 C 988.281 -2.16132 -0.912377 0
M  V30 10412 C 989.297 -1.12406 -1.32819 0
M  V30 10413 O 990.473 -1.44665 -1.40121 0
M  V30 10414 C 987.538 -2.71008 -2.16231 0
M  V30 10415 C 986.599 -3.896 -1.80306 0
M  V30 10416 C 985.832 -4.4185 -2.9934 0
M  V30 10417 O 986.055 -3.93106 -4.13309 0
M  V30 10418 O 984.989 -5.33201 -2.7925 0
M  V30 10419 H 988.815 -3.00449 -0.443167 0
M  V30 10420 H 986.4 -1.48617 -0.152786 0
M  V30 10421 H 988.282 -3.06186 -2.8953 0
M  V30 10422 H 986.957 -1.8975 -2.62253 0
M  V30 10423 H 985.864 -3.59277 -1.04264 0
M  V30 10424 H 987.197 -4.72145 -1.39068 0
M  V30 10425 N 988.849 0.203349 -1.56283 0
M  V30 10426 C 990.079 0.940061 -1.83974 0
M  V30 10427 C 990.487 1.77703 -0.649486 0
M  V30 10428 O 989.83 1.79487 0.391189 0
M  V30 10429 C 989.892 1.89249 -3.05655 0
M  V30 10430 C 989.556 1.23828 -4.39904 0
M  V30 10431 C 990.553 0.619231 -5.16199 0
M  V30 10432 C 988.238 1.2446 -4.86636 0
M  V30 10433 C 990.232 0.0152287 -6.37398 0
M  V30 10434 C 987.919 0.636764 -6.07773 0
M  V30 10435 C 988.917 0.0231481 -6.82996 0
M  V30 10436 O 988.605 -0.575187 -8.0184 0
M  V30 10437 H 988.337 0.280199 -0.615194 0
M  V30 10438 H 990.891 0.218111 -2.04239 0
M  V30 10439 H 989.121 2.65392 -2.81254 0
M  V30 10440 H 990.81 2.4963 -3.20062 0
M  V30 10441 H 991.576 0.606545 -4.81192 0
M  V30 10442 H 987.455 1.71161 -4.28048 0
M  V30 10443 H 990.999 -0.464333 -6.96053 0
M  V30 10444 H 986.896 0.646924 -6.4225 0
M  V30 10445 H 987.664 -0.471284 -8.17142 0
M  V30 10446 N 990.327 1.50405 0.470755 0
M  V30 10447 C 991.29 1.68741 1.5511 0
M  V30 10448 C 992.29 0.558116 1.50804 0
M  V30 10449 O 993.48 0.825149 1.53418 0
M  V30 10450 C 990.612 1.71295 2.94739 0
M  V30 10451 H 991.805 2.65127 1.40169 0
M  V30 10452 H 989.358 1.39891 0.697156 0
M  V30 10453 H 990.093 0.766029 3.15123 0
M  V30 10454 H 989.878 2.53336 2.99271 0
M  V30 10455 H 991.368 1.87434 3.73173 0
M  V30 10456 N 991.805 -0.723954 1.39988 0
M  V30 10457 C 993.216 -1.30273 1.33738 0
M  V30 10458 C 993.567 -1.96199 0.00690581 0
M  V30 10459 O 992.692 -1.97016 -0.895179 0
M  V30 10460 C 993.287 -2.36889 2.42217 0
M  V30 10461 C 991.846 -2.90412 2.39453 0
M  V30 10462 C 990.993 -1.64103 2.2353 0
M  V30 10463 H 993.944 -0.520672 1.49916 0
M  V30 10464 H 993.965 -3.17538 2.09642 0
M  V30 10465 H 993.477 -1.88878 3.39038 0
M  V30 10466 H 991.578 -3.42674 1.46304 0
M  V30 10467 H 991.691 -3.42775 3.34727 0
M  V30 10468 H 990.055 -1.88855 1.70897 0
M  V30 10469 H 990.838 -1.18128 3.22336 0
M  V30 10470 N 993.283 -1.25346 -0.955304 0
M  V30 10471 C 994.233 -1.02358 -2.03732 0
M  V30 10472 C 995.217 0.0392941 -1.60852 0
M  V30 10473 O 996.409 -0.175959 -1.76123 0
M  V30 10474 C 993.538 -0.643552 -3.37214 0
M  V30 10475 C 992.624 -1.74315 -3.8662 0
M  V30 10476 N 993.015 -2.97816 -4.08827 0
M  V30 10477 C 991.313 -1.62351 -4.15401 0
M  V30 10478 C 992.014 -3.69185 -4.4953 0
M  V30 10479 N 990.99 -2.96803 -4.55422 0
M  V30 10480 H 994.792 -1.96119 -2.18894 0
M  V30 10481 H 992.306 -1.15655 -1.14007 0
M  V30 10482 H 994.303 -0.460053 -4.14354 0
M  V30 10483 H 992.963 0.286738 -3.23431 0
M  V30 10484 H 993.974 -3.33868 -3.95919 0
M  V30 10485 H 990.651 -0.762133 -4.10485 0
M  V30 10486 H 992.041 -4.7519 -4.7502 0
M  V30 10487 N 994.761 1.15782 -1.06922 0
M  V30 10488 C 996.007 1.86741 -0.790922 0
M  V30 10489 C 996.34 1.81863 0.681149 0
M  V30 10490 O 995.615 1.23871 1.49954 0
M  V30 10491 C 995.898 3.36038 -1.29422 0
M  V30 10492 C 995.751 3.49573 -2.83052 0
M  V30 10493 C 997.07 4.30647 -0.907239 0
M  V30 10494 H 994.189 0.678064 -0.288787 0
M  V30 10495 H 996.831 1.36054 -1.32624 0
M  V30 10496 H 994.981 3.79336 -0.838843 0
M  V30 10497 H 996.653 3.1517 -3.36847 0
M  V30 10498 H 994.896 2.91275 -3.21467 0
M  V30 10499 H 995.567 4.5445 -3.13335 0
M  V30 10500 H 998.043 3.95286 -1.29956 0
M  V30 10501 H 996.919 5.33604 -1.28679 0
M  V30 10502 H 997.18 4.41703 0.187251 0
M  V30 10503 N 996.239 0.8527 1.3254 0
M  V30 10504 C 997.488 0.45136 1.96585 0
M  V30 10505 C 997.801 -0.997773 1.68237 0
M  V30 10506 O 999.007 -1.50445 2.26006 0
M  V30 10507 C 997.463 0.75619 3.51866 0
M  V30 10508 C 997.071 2.22092 3.89075 0
M  V30 10509 C 998.815 0.422478 4.22392 0
M  V30 10510 C 996.722 2.46908 5.37392 0
M  V30 10511 H 995.652 0.165052 0.735713 0
M  V30 10512 H 998.303 1.04321 1.50962 0
M  V30 10513 H 996.685 0.0937988 3.95889 0
M  V30 10514 H 997.859 2.92494 3.56067 0
M  V30 10515 H 996.174 2.51896 3.31568 0
M  V30 10516 H 998.771 0.58533 5.31487 0
M  V30 10517 H 999.114 -0.635737 4.11417 0
M  V30 10518 H 999.647 1.04068 3.83946 0
M  V30 10519 H 996.386 3.51346 5.53386 0
M  V30 10520 H 995.906 1.81082 5.71812 0
M  V30 10521 H 997.585 2.30758 6.0445 0
M  V30 10522 N 997.718 -1.45297 0.610449 0
M  V30 10523 C 998.666 -2.32295 -0.119167 0
M  V30 10524 C 999.66 -1.46138 -0.856746 0
M  V30 10525 O 1000.87 -1.62605 -0.771988 0
M  V30 10526 H 997.241 -0.749815 -0.0572881 0
M  V30 10527 H 999.212 -2.91609 0.63297 0
M  V30 10528 C 997.961 -3.29802 -1.10119 0
M  V30 10529 H 997.284 -3.96095 -0.543063 0
M  V30 10530 H 998.724 -3.93398 -1.58158 0
M  V30 10531 C 997.183 -2.57185 -2.17617 0
M  V30 10532 O 997.713 -2.35535 -3.25401 0
M  V30 10533 N 995.919 -2.17272 -1.9298 0
M  V30 10534 H 995.466 -2.3508 -1.05334 0
M  V30 10535 H 995.424 -1.69009 -2.6511 0
M  V30 10536 N 999.196 -0.349774 -1.5367 0
M  V30 10537 C 1000.42 0.246038 -2.05432 0
M  V30 10538 C 1000.84 1.43719 -1.22435 0
M  V30 10539 O 1000.2 1.80622 -0.261166 0
M  V30 10540 C 1000.25 0.65501 -3.55516 0
M  V30 10541 O 999.968 -0.488782 -4.35365 0
M  V30 10542 C 1001.47 1.31088 -4.23475 0
M  V30 10543 H 998.689 0.0463952 -0.669394 0
M  V30 10544 H 1001.23 -0.503566 -1.98203 0
M  V30 10545 H 999.388 1.35455 -3.62947 0
M  V30 10546 H 999.802 -0.161528 -5.24251 0
M  V30 10547 H 1001.28 1.54774 -5.29857 0
M  V30 10548 H 1001.75 2.26636 -3.76208 0
M  V30 10549 H 1002.36 0.653211 -4.20254 0
M  V30 10550 N 1000.67 1.57404 -0.0785433 0
M  V30 10551 C 1002.08 1.81118 0.45311 0
M  V30 10552 C 1002.44 0.992963 1.69218 0
M  V30 10553 O 1001.56 0.217448 2.15305 0
M  V30 10554 C 1002.16 3.28506 0.82882 0
M  V30 10555 C 1000.71 3.53042 1.3053 0
M  V30 10556 C 999.862 2.75739 0.29378 0
M  V30 10557 H 1002.81 1.55758 -0.304171 0
M  V30 10558 H 1002.83 3.40924 1.68971 0
M  V30 10559 H 1002.35 3.88031 -0.0731826 0
M  V30 10560 H 1000.45 2.98829 2.22558 0
M  V30 10561 H 1000.56 4.61724 1.27857 0
M  V30 10562 H 998.924 2.42703 0.772477 0
M  V30 10563 H 999.707 3.38005 -0.600613 0
M  V30 10564 N 1002.15 -0.195058 1.56388 0
M  V30 10565 C 1003.08 -1.24444 1.97575 0
M  V30 10566 C 1004.06 -1.47471 0.847717 0
M  V30 10567 O 1005.25 -1.59208 1.11205 0
M  V30 10568 C 1002.38 -2.58866 2.31529 0
M  V30 10569 C 1001.33 -2.50451 3.47071 0
M  V30 10570 C 1000.66 -3.89146 3.667 0
M  V30 10571 C 1001.96 -2.02953 4.81256 0
M  V30 10572 H 1003.65 -0.902178 2.85484 0
M  V30 10573 H 1001.2 -0.43254 1.3735 0
M  V30 10574 H 1003.15 -3.3246 2.58936 0
M  V30 10575 H 1001.87 -2.94833 1.40502 0
M  V30 10576 H 1000.53 -1.79313 3.19754 0
M  V30 10577 H 1000.18 -4.22466 2.73004 0
M  V30 10578 H 999.882 -3.84391 4.44429 0
M  V30 10579 H 1001.41 -4.64363 3.96484 0
M  V30 10580 H 1002.82 -2.66306 5.07695 0
M  V30 10581 H 1001.22 -2.092 5.62455 0
M  V30 10582 H 1002.29 -0.982757 4.74837 0
M  V30 10583 N 1003.63 -1.50653 -0.462772 0
M  V30 10584 C 1004.59 -1.69561 -1.54213 0
M  V30 10585 C 1005.59 -0.566106 -1.50505 0
M  V30 10586 O 1006.78 -0.833273 -1.52978 0
M  V30 10587 C 1003.91 -1.72856 -2.93826 0
M  V30 10588 H 1005.11 -2.65867 -1.38761 0
M  V30 10589 H 1002.66 -1.40259 -0.689728 0
M  V30 10590 H 1003.4 -0.78273 -3.14712 0
M  V30 10591 H 1003.18 -2.54919 -2.97924 0
M  V30 10592 H 1004.67 -1.89411 -3.72174 0
M  V30 10593 N 1005.11 0.71652 -1.4037 0
M  V30 10594 C 1006.36 1.47638 -1.38597 0
M  V30 10595 C 1006.68 1.94496 0.0120141 0
M  V30 10596 O 1005.94 1.68437 0.996373 0
M  V30 10597 C 1006.24 2.71777 -2.32103 0
M  V30 10598 C 1005.9 2.43689 -3.79376 0
M  V30 10599 C 1004.57 2.35739 -4.195 0
M  V30 10600 C 1006.92 2.20099 -4.72447 0
M  V30 10601 C 1004.25 2.02265 -5.50732 0
M  V30 10602 C 1006.6 1.88138 -6.03976 0
M  V30 10603 C 1005.26 1.78669 -6.43143 0
M  V30 10604 H 1004.53 0.540246 -0.507163 0
M  V30 10605 H 1007.18 0.820822 -1.73017 0
M  V30 10606 H 1005.48 3.42166 -1.90865 0
M  V30 10607 H 1007.18 3.29864 -2.28015 0
M  V30 10608 H 1003.77 2.50763 -3.47585 0
M  V30 10609 H 1007.95 2.25198 -4.42266 0
M  V30 10610 H 1003.21 1.93471 -5.79982 0
M  V30 10611 H 1007.38 1.68898 -6.75608 0
M  V30 10612 H 1005.01 1.52498 -7.44747 0
M  V30 10613 N 1006.59 1.25851 0.948643 0
M  V30 10614 C 1007.52 1.09248 2.06367 0
M  V30 10615 C 1008.5 -0.000205168 1.701 0
M  V30 10616 O 1009.68 0.170442 1.93451 0
M  V30 10617 C 1006.81 0.716777 3.39823 0
M  V30 10618 C 1005.77 1.76036 3.90122 0
M  V30 10619 C 1005.09 1.23918 5.20143 0
M  V30 10620 C 1006.39 3.16039 4.15833 0
M  V30 10621 H 1008.09 2.02518 2.20515 0
M  V30 10622 H 1005.63 0.975093 1.05962 0
M  V30 10623 H 1007.59 0.587531 4.17284 0
M  V30 10624 H 1006.31 -0.251626 3.25629 0
M  V30 10625 H 1004.97 1.87815 3.14835 0
M  V30 10626 H 1004.62 0.260836 5.02323 0
M  V30 10627 H 1004.32 1.93673 5.54765 0
M  V30 10628 H 1005.84 1.12245 6.00194 0
M  V30 10629 H 1007.25 3.0738 4.83933 0
M  V30 10630 H 1005.65 3.83317 4.61723 0
M  V30 10631 H 1006.72 3.62652 3.21887 0
M  V30 10632 N 1008.06 -1.15214 1.07534 0
M  V30 10633 C 1009.31 -1.85388 0.794617 0
M  V30 10634 C 1009.63 -1.83331 -0.681838 0
M  V30 10635 O 1010.83 -2.49207 -1.0774 0
M  V30 10636 C 1009.29 -3.32747 1.37141 0
M  V30 10637 C 1008.9 -3.43244 2.87902 0
M  V30 10638 C 1010.64 -4.08093 1.16879 0
M  V30 10639 C 1008.55 -4.84762 3.38763 0
M  V30 10640 H 1007.48 -0.694499 0.293577 0
M  V30 10641 H 1010.13 -1.29944 1.29564 0
M  V30 10642 H 1008.51 -3.87874 0.798121 0
M  V30 10643 H 1009.68 -2.98214 3.51291 0
M  V30 10644 H 1008 -2.81345 3.06975 0
M  V30 10645 H 1010.6 -5.12535 1.52353 0
M  V30 10646 H 1010.94 -4.1616 0.107958 0
M  V30 10647 H 1011.47 -3.59241 1.70854 0
M  V30 10648 H 1008.21 -4.81879 4.4438 0
M  V30 10649 H 1007.73 -5.30366 2.80128 0
M  V30 10650 H 1009.41 -5.53624 3.34827 0
M  V30 10651 N 1009.54 -0.859717 -1.32086 0
M  V30 10652 C 1010.49 -0.306042 -2.28762 0
M  V30 10653 C 1011.46 0.589801 -1.55276 0
M  V30 10654 O 1012.64 0.523633 -1.83474 0
M  V30 10655 C 1009.78 0.495256 -3.41528 0
M  V30 10656 C 1008.9 -0.426947 -4.29885 0
M  V30 10657 C 1008.03 0.387474 -5.29785 0
M  V30 10658 C 1007.07 -0.531807 -6.09785 0
M  V30 10659 N 1006.21 0.245741 -7.0167 0
M  V30 10660 H 1011.05 -1.1357 -2.7551 0
M  V30 10661 H 1008.59 -0.571468 -1.35546 0
M  V30 10662 H 1010.54 0.97551 -4.05635 0
M  V30 10663 H 1009.17 1.28969 -2.95917 0
M  V30 10664 H 1008.23 -1.02561 -3.66313 0
M  V30 10665 H 1009.54 -1.13226 -4.85779 0
M  V30 10666 H 1008.69 0.930677 -5.99519 0
M  V30 10667 H 1007.43 1.12612 -4.74521 0
M  V30 10668 H 1006.44 -1.08685 -5.3895 0
M  V30 10669 H 1007.66 -1.26915 -6.67135 0
M  V30 10670 H 1005.61 0.967391 -6.48828 0
M  V30 10671 H 1005.52 -0.400432 -7.54939 0
M  V30 10672 H 1006.79 0.770507 -7.75683 0
M  V30 10673 N 1011.02 1.44971 -0.618145 0
M  V30 10674 C 1012.25 2.07039 -0.122395 0
M  V30 10675 C 1012.67 1.45793 1.18853 0
M  V30 10676 O 1012.03 0.55453 1.72611 0
M  V30 10677 C 1012.08 3.60599 -0.0073864 0
M  V30 10678 O 1011.18 3.99069 1.04007 0
M  V30 10679 H 1010.52 0.6593 -0.0788615 0
M  V30 10680 H 1013.05 1.86055 -0.851147 0
M  V30 10681 H 1013.06 4.07569 0.187417 0
M  V30 10682 H 1011.74 4.04561 -0.964544 0
M  V30 10683 H 1010.31 3.63753 0.820879 0
M  V30 10684 N 1012.5 0.357919 1.53482 0
M  V30 10685 C 1013.46 -0.479797 2.24122 0
M  V30 10686 C 1014.46 -1.01596 1.24639 0
M  V30 10687 O 1015.65 -0.902928 1.48973 0
M  V30 10688 C 1012.78 -1.66983 2.97203 0
M  V30 10689 H 1013.98 0.138219 2.99581 0
M  V30 10690 H 1011.53 0.109484 1.55916 0
M  V30 10691 H 1012.26 -2.32615 2.25966 0
M  V30 10692 H 1012.05 -1.29242 3.70188 0
M  V30 10693 H 1013.54 -2.26367 3.50924 0
M  V30 10694 N 1013.98 -1.5736 0.0868897 0
M  V30 10695 C 1014.91 -2.16596 -0.872252 0
M  V30 10696 C 1015.89 -1.09706 -1.29995 0
M  V30 10697 O 1017.07 -1.37808 -1.36831 0
M  V30 10698 C 1014.2 -2.73972 -2.1344 0
M  V30 10699 C 1013.16 -3.86163 -1.8456 0
M  V30 10700 C 1012.48 -4.30206 -3.17533 0
M  V30 10701 C 1013.78 -5.0973 -1.13899 0
M  V30 10702 H 1015.48 -2.96995 -0.378738 0
M  V30 10703 H 1013.02 -1.42861 -0.18073 0
M  V30 10704 H 1014.98 -3.14062 -2.80968 0
M  V30 10705 H 1013.7 -1.90817 -2.6506 0
M  V30 10706 H 1012.36 -3.466 -1.19432 0
M  V30 10707 H 1012.01 -3.43951 -3.67024 0
M  V30 10708 H 1011.71 -5.05841 -2.98996 0
M  V30 10709 H 1013.23 -4.72922 -3.86234 0
M  V30 10710 H 1014.64 -5.4704 -1.71523 0
M  V30 10711 H 1013.04 -5.90741 -1.05569 0
M  V30 10712 H 1014.11 -4.8475 -0.120432 0
M  V30 10713 N 1015.45 0.186762 -1.56489 0
M  V30 10714 C 1016.4 1.25084 -1.96104 0
M  V30 10715 C 1017.4 1.4667 -0.847609 0
M  V30 10716 O 1018.6 1.47432 -1.03266 0
M  V30 10717 H 1014.98 0.420121 -0.623701 0
M  V30 10718 H 1016.95 0.889761 -2.84826 0
M  V30 10719 C 1015.7 2.5863 -2.32392 0
M  V30 10720 H 1015.02 2.42838 -3.176 0
M  V30 10721 H 1016.46 3.3181 -2.63967 0
M  V30 10722 C 1014.92 3.16241 -1.16159 0
M  V30 10723 O 1015.45 3.99272 -0.441034 0
M  V30 10724 N 1013.66 2.75106 -0.936206 0
M  V30 10725 H 1013.2 2.0769 -1.5239 0
M  V30 10726 H 1013.16 3.13991 -0.160317 0
M  V30 10727 N 1016.93 1.50896 0.454776 0
M  V30 10728 C 1018.16 1.6648 1.22849 0
M  V30 10729 C 1018.58 0.354841 1.85435 0
M  V30 10730 O 1017.93 -0.664931 1.69956 0
M  V30 10731 C 1017.98 2.76787 2.32532 0
M  V30 10732 O 1017.7 4.02706 1.72509 0
M  V30 10733 C 1019.21 3.03488 3.23125 0
M  V30 10734 H 1016.43 0.559152 0.370932 0
M  V30 10735 H 1018.97 1.97215 0.540983 0
M  V30 10736 H 1017.12 2.48701 2.9703 0
M  V30 10737 H 1017.54 4.63834 2.44863 0
M  V30 10738 H 1019.01 3.84294 3.9626 0
M  V30 10739 H 1019.49 2.152 3.82865 0
M  V30 10740 H 1020.1 3.33167 2.64347 0
M  V30 10741 N 1018.41 -0.709066 1.40748 0
M  V30 10742 C 1019.36 -1.84445 1.41714 0
M  V30 10743 C 1020.35 -1.66779 0.296818 0
M  V30 10744 O 1021.56 -1.73805 0.468181 0
M  V30 10745 H 1017.93 -0.607581 0.443114 0
M  V30 10746 H 1019.9 -1.80747 2.3743 0
M  V30 10747 C 1018.65 -3.22362 1.303 0
M  V30 10748 H 1017.98 -3.36565 2.15787 0
M  V30 10749 H 1019.42 -4.01922 1.35036 0
M  V30 10750 C 1017.88 -3.36897 0.0139015 0
M  V30 10751 O 1018.41 -3.90389 -0.946553 0
M  V30 10752 N 1016.61 -2.90543 -0.0577491 0
M  V30 10753 H 1016.16 -2.472 0.724574 0
M  V30 10754 H 1016.12 -3.00647 -0.919721 0
M  V30 10755 N 1019.89 -1.26353 -0.941956 0
M  V30 10756 C 1021.14 -1.11241 -1.68251 0
M  V30 10757 C 1021.45 0.344055 -1.9255 0
M  V30 10758 O 1022.66 0.615832 -2.64423 0
M  V30 10759 C 1021.11 -1.94269 -3.02965 0
M  V30 10760 C 1020.72 -3.44485 -2.86415 0
M  V30 10761 C 1022.47 -1.87764 -3.80716 0
M  V30 10762 C 1020.37 -4.19763 -4.16597 0
M  V30 10763 H 1019.3 -0.412694 -0.63103 0
M  V30 10764 H 1021.95 -1.50656 -1.04762 0
M  V30 10765 H 1020.34 -1.47687 -3.6743 0
M  V30 10766 H 1021.51 -3.9883 -2.30805 0
M  V30 10767 H 1019.82 -3.52218 -2.22107 0
M  V30 10768 H 1022.42 -2.41292 -4.77161 0
M  V30 10769 H 1022.76 -0.848195 -4.07568 0
M  V30 10770 H 1023.3 -2.32165 -3.23024 0
M  V30 10771 H 1020.04 -5.23173 -3.9493 0
M  V30 10772 H 1019.56 -3.70198 -4.71925 0
M  V30 10773 H 1021.24 -4.28168 -4.85058 0
M  V30 10774 N 1021.37 1.14642 -1.08144 0
M  V30 10775 C 1022.61 1.85617 -0.809484 0
M  V30 10776 C 1022.94 1.8279 0.664672 0
M  V30 10777 O 1022.2 1.25178 1.50429 0
M  V30 10778 C 1022.5 3.33953 -1.2732 0
M  V30 10779 C 1022.16 3.56969 -2.7547 0
M  V30 10780 C 1020.82 3.6296 -3.15933 0
M  V30 10781 C 1023.18 3.66014 -3.71057 0
M  V30 10782 C 1020.5 3.75515 -4.50783 0
M  V30 10783 C 1022.86 3.80094 -5.05679 0
M  V30 10784 C 1021.52 3.84333 -5.45751 0
M  V30 10785 H 1020.79 0.67922 -0.296211 0
M  V30 10786 H 1023.44 1.35433 -1.35389 0
M  V30 10787 H 1021.74 3.86399 -0.648329 0
M  V30 10788 H 1023.44 3.87291 -1.03957 0
M  V30 10789 H 1020.03 3.52953 -2.4315 0
M  V30 10790 H 1024.21 3.60679 -3.40917 0
M  V30 10791 H 1019.47 3.77057 -4.81288 0
M  V30 10792 H 1023.64 3.86035 -5.79612 0
M  V30 10793 H 1021.27 3.93814 -6.50242 0
M  V30 10794 N 1022.85 0.866709 1.31628 0
M  V30 10795 C 1024.09 0.475086 1.96437 0
M  V30 10796 C 1024.41 -0.975179 1.68865 0
M  V30 10797 O 1023.68 -1.68317 1.0023 0
M  V30 10798 H 1022.26 0.172695 0.726764 0
M  V30 10799 H 1024.93 1.10578 1.60494 0
M  V30 10800 H 1024.02 0.630123 3.05673 0
M  V30 10801 N 1024.32 -1.44642 0.625825 0
M  V30 10802 C 1025.23 -2.34451 -0.0836134 0
M  V30 10803 C 1026.25 -1.5231 -0.841289 0
M  V30 10804 O 1027.43 -1.85056 -0.794754 0
M  V30 10805 C 1024.49 -3.30211 -1.05648 0
M  V30 10806 C 1023.55 -4.28259 -0.298759 0
M  V30 10807 C 1022.78 -5.19444 -1.22528 0
M  V30 10808 O 1023.01 -5.14444 -2.46382 0
M  V30 10809 O 1021.94 -5.97668 -0.71247 0
M  V30 10810 H 1025.77 -2.96555 0.654912 0
M  V30 10811 H 1023.35 -1.44327 0.386029 0
M  V30 10812 H 1025.23 -3.8917 -1.61632 0
M  V30 10813 H 1023.91 -2.70648 -1.77571 0
M  V30 10814 H 1022.82 -3.72863 0.304001 0
M  V30 10815 H 1024.15 -4.90728 0.380345 0
M  V30 10816 N 1025.8 -0.366053 -1.5329 0
M  V30 10817 C 1027.21 0.113056 -1.86357 0
M  V30 10818 C 1027.56 1.48123 -1.28662 0
M  V30 10819 O 1026.69 2.07658 -0.608849 0
M  V30 10820 C 1027.28 0.211923 -3.38137 0
M  V30 10821 C 1025.84 0.635289 -3.71 0
M  V30 10822 C 1024.99 -0.217203 -2.76448 0
M  V30 10823 H 1027.94 -0.584829 -1.47531 0
M  V30 10824 H 1027.96 1.0354 -3.66142 0
M  V30 10825 H 1027.47 -0.783994 -3.80099 0
M  V30 10826 H 1025.57 1.63942 -3.34595 0
M  V30 10827 H 1025.69 0.409571 -4.77346 0
M  V30 10828 H 1024.05 0.313988 -2.52757 0
M  V30 10829 H 1024.83 -1.21067 -3.21244 0
M  V30 10830 N 1027.28 1.57312 -0.0952337 0
M  V30 10831 C 1028.53 1.93974 0.567319 0
M  V30 10832 C 1028.85 0.977805 1.68713 0
M  V30 10833 O 1028.12 0.0298944 1.95877 0
M  V30 10834 H 1026.7 0.71612 0.212558 0
M  V30 10835 H 1029.36 1.94254 -0.158598 0
M  V30 10836 H 1028.46 2.964 0.977423 0
M  V30 10837 N 1028.76 -0.17846 1.56586 0
M  V30 10838 C 1030 -0.892915 1.82753 0
M  V30 10839 C 1030.36 -1.8018 0.674744 0
M  V30 10840 O 1029.65 -1.8875 -0.329219 0
M  V30 10841 C 1029.85 -1.73063 3.12704 0
M  V30 10842 C 1029.67 -0.904341 4.40513 0
M  V30 10843 C 1028.44 -0.582221 5.01935 0
M  V30 10844 C 1030.64 -0.249232 5.13696 0
M  V30 10845 N 1028.62 0.260955 6.13345 0
M  V30 10846 C 1030 0.455417 6.18325 0
M  V30 10847 C 1032.05 -0.166663 4.97621 0
M  V30 10848 C 1030.75 1.23479 7.08622 0
M  V30 10849 C 1032.78 0.599362 5.88355 0
M  V30 10850 C 1032.14 1.2924 6.92442 0
M  V30 10851 H 1028.24 -0.30559 0.719818 0
M  V30 10852 H 1030.82 -0.160405 1.94038 0
M  V30 10853 H 1029 -2.43461 3.02624 0
M  V30 10854 H 1030.73 -2.38584 3.26894 0
M  V30 10855 H 1027.48 -0.910612 4.64763 0
M  V30 10856 H 1027.91 0.672643 6.7365 0
M  V30 10857 H 1032.55 -0.688116 4.17163 0
M  V30 10858 H 1030.27 1.76762 7.88531 0
M  V30 10859 H 1033.85 0.664826 5.77989 0
M  V30 10860 H 1032.73 1.87564 7.61439 0
M  V30 10861 N 1030.24 -1.51135 -0.446768 0
M  V30 10862 C 1031.17 -1.67949 -1.55967 0
M  V30 10863 C 1032.18 -0.560337 -1.52853 0
M  V30 10864 O 1033.37 -0.83435 -1.578 0
M  V30 10865 C 1030.47 -1.6703 -2.9488 0
M  V30 10866 C 1029.64 -2.95377 -3.22601 0
M  V30 10867 C 1028.7 -2.86772 -4.4119 0
M  V30 10868 O 1027.73 -3.60722 -4.40304 0
M  V30 10869 N 1028.93 -2.01979 -5.44228 0
M  V30 10870 H 1031.69 -2.63951 -1.41951 0
M  V30 10871 H 1029.26 -1.48903 -0.635569 0
M  V30 10872 H 1031.25 -1.58854 -3.7222 0
M  V30 10873 H 1029.82 -0.786623 -3.02541 0
M  V30 10874 H 1029.04 -3.17494 -2.33647 0
M  V30 10875 H 1030.33 -3.80356 -3.37945 0
M  V30 10876 H 1029.72 -1.41257 -5.4778 0
M  V30 10877 H 1028.28 -1.99689 -6.20457 0
M  V30 10878 N 1031.71 0.701592 -1.41122 0
M  V30 10879 C 1032.96 1.45871 -1.39879 0
M  V30 10880 C 1033.28 1.94999 -0.00668769 0
M  V30 10881 O 1032.55 1.71298 0.95047 0
M  V30 10882 H 1031.13 0.541231 -0.514857 0
M  V30 10883 H 1033.79 0.830803 -1.76306 0
M  V30 10884 H 1032.89 2.32479 -2.0823 0
M  V30 10885 N 1033.19 1.2685 0.935242 0
M  V30 10886 C 1034.42 1.15538 1.71635 0
M  V30 10887 C 1034.83 -0.288698 1.8658 0
M  V30 10888 O 1034.19 -1.19721 1.37743 0
M  V30 10889 C 1034.24 1.8259 3.11999 0
M  V30 10890 O 1033.96 3.21355 2.97763 0
M  V30 10891 C 1035.46 1.77307 4.06297 0
M  V30 10892 H 1032.68 0.402055 0.537208 0
M  V30 10893 H 1035.23 1.67582 1.17203 0
M  V30 10894 H 1033.38 1.3447 3.63313 0
M  V30 10895 H 1033.8 3.54626 3.86446 0
M  V30 10896 H 1035.27 2.28851 5.02326 0
M  V30 10897 H 1035.75 0.740823 4.32907 0
M  V30 10898 H 1036.35 2.25007 3.60904 0
M  V30 10899 N 1034.67 -1.14067 1.0875 0
M  V30 10900 C 1035.92 -1.84819 0.817698 0
M  V30 10901 C 1036.24 -1.83545 -0.658488 0
M  V30 10902 O 1035.51 -1.28633 -1.47751 0
M  V30 10903 H 1034.09 -0.68433 0.299502 0
M  V30 10904 H 1036.75 -1.38208 1.37421 0
M  V30 10905 H 1035.85 -2.89541 1.16501 0
M  V30 10906 N 1036.15 -0.873678 -1.31166 0
M  V30 10907 C 1037.39 -0.496513 -1.97247 0
M  V30 10908 C 1037.75 0.941605 -1.67784 0
M  V30 10909 O 1037.04 1.65469 -0.965947 0
M  V30 10910 C 1037.24 -0.69462 -3.50585 0
M  V30 10911 C 1037.07 -2.15044 -3.94951 0
M  V30 10912 C 1035.84 -2.79278 -4.21108 0
M  V30 10913 C 1038.03 -3.1231 -4.08616 0
M  V30 10914 N 1036.02 -4.15574 -4.51853 0
M  V30 10915 C 1037.39 -4.33646 -4.43115 0
M  V30 10916 C 1039.44 -3.08251 -3.91006 0
M  V30 10917 C 1038.14 -5.51447 -4.61842 0
M  V30 10918 C 1040.17 -4.25314 -4.10929 0
M  V30 10919 C 1039.53 -5.45413 -4.45763 0
M  V30 10920 H 1035.63 -0.230797 -0.747166 0
M  V30 10921 H 1038.22 -1.12905 -1.58621 0
M  V30 10922 H 1036.39 -0.0916484 -3.88292 0
M  V30 10923 H 1038.12 -0.285475 -4.03692 0
M  V30 10924 H 1034.87 -2.30207 -4.13886 0
M  V30 10925 H 1035.3 -4.85932 -4.7138 0
M  V30 10926 H 1039.94 -2.16505 -3.6316 0
M  V30 10927 H 1037.66 -6.43707 -4.88535 0
M  V30 10928 H 1041.24 -4.2363 -3.98785 0
M  V30 10929 H 1040.12 -6.34487 -4.60865 0
M  V30 10930 N 1037.63 1.44308 -0.633487 0
M  V30 10931 C 1039.04 1.56768 -0.29931 0
M  V30 10932 C 1039.24 1.62061 1.19743 0
M  V30 10933 O 1038.3 1.56492 1.98158 0
M  V30 10934 C 1039.61 2.8382 -0.993307 0
M  V30 10935 C 1041.16 2.97536 -0.971674 0
M  V30 10936 C 1041.63 4.27393 -1.64618 0
M  V30 10937 N 1043.13 4.34212 -1.61288 0
M  V30 10938 C 1043.86 5.33415 -2.1037 0
M  V30 10939 N 1043.36 6.3901 -2.67653 0
M  V30 10940 N 1045.15 5.24939 -2.00985 0
M  V30 10941 H 1037.3 1.39115 -1.60501 0
M  V30 10942 H 1039.56 0.666804 -0.673852 0
M  V30 10943 H 1039.27 2.85902 -2.04823 0
M  V30 10944 H 1039.14 3.73422 -0.532537 0
M  V30 10945 H 1041.53 2.95005 0.0747854 0
M  V30 10946 H 1041.61 2.09276 -1.47096 0
M  V30 10947 H 1041.26 4.30683 -2.6921 0
M  V30 10948 H 1041.19 5.14515 -1.12171 0
M  V30 10949 H 1043.68 3.58519 -1.19468 0
M  V30 10950 H 1043.99 7.10994 -3.02831 0
M  V30 10951 H 1042.33 6.39689 -2.71705 0
M  V30 10952 H 1045.53 4.41357 -1.55953 0
M  V30 10953 H 1045.7 6.02097 -2.39547 0
M  V30 10954 N 1039.1 0.374177 1.53094 0
M  V30 10955 C 1040.07 -0.455999 2.24618 0
M  V30 10956 C 1041.07 -1.00269 1.25709 0
M  V30 10957 O 1042.26 -0.887077 1.49922 0
M  V30 10958 C 1039.39 -1.63822 2.98957 0
M  V30 10959 H 1040.58 0.169986 2.99418 0
M  V30 10960 H 1038.14 0.126015 1.55791 0
M  V30 10961 H 1038.87 -2.30205 2.28421 0
M  V30 10962 H 1038.66 -1.25308 3.71538 0
M  V30 10963 H 1040.15 -2.22633 3.53305 0
M  V30 10964 N 1040.58 -1.57259 0.103575 0
M  V30 10965 C 1041.83 -1.94272 -0.557024 0
M  V30 10966 C 1042.15 -0.986739 -1.68192 0
M  V30 10967 O 1041.42 -0.0402818 -1.95859 0
M  V30 10968 H 1040 -0.717237 -0.208757 0
M  V30 10969 H 1042.66 -1.94167 0.168898 0
M  V30 10970 H 1041.76 -2.96914 -0.961691 0
M  V30 10971 N 1042.06 0.170153 -1.56679 0
M  V30 10972 C 1043.48 0.521966 -1.50823 0
M  V30 10973 C 1043.68 1.84589 -0.808037 0
M  V30 10974 O 1042.73 2.49791 -0.368891 0
M  V30 10975 C 1044.05 0.553648 -2.95559 0
M  V30 10976 C 1045.59 0.640769 -3.06371 0
M  V30 10977 C 1046.07 0.703332 -4.52567 0
M  V30 10978 N 1047.56 0.76619 -4.56819 0
M  V30 10979 C 1048.29 0.835192 -5.67285 0
M  V30 10980 N 1047.79 0.864957 -6.87379 0
M  V30 10981 N 1049.58 0.874302 -5.55259 0
M  V30 10982 H 1041.73 -0.697952 -2.00605 0
M  V30 10983 H 1044 -0.251787 -0.913952 0
M  V30 10984 H 1043.7 -0.350498 -3.49949 0
M  V30 10985 H 1043.58 1.39973 -3.50268 0
M  V30 10986 H 1045.96 1.53534 -2.52015 0
M  V30 10987 H 1046.05 -0.232008 -2.54746 0
M  V30 10988 H 1045.69 -0.186986 -5.07556 0
M  V30 10989 H 1045.62 1.59227 -5.0195 0
M  V30 10990 H 1048.11 0.751424 -3.70354 0
M  V30 10991 H 1048.42 0.918814 -7.67318 0
M  V30 10992 H 1046.77 0.833215 -6.89987 0
M  V30 10993 H 1049.96 0.848057 -4.60354 0
M  V30 10994 H 1050.13 0.924615 -6.4137 0
M  V30 10995 N 1043.54 1.5137 0.438746 0
M  V30 10996 C 1044.82 1.54508 1.19944 0
M  V30 10997 C 1045.2 0.308525 2.08833 0
M  V30 10998 O 1044.54 -0.706461 2.17305 0
M  V30 10999 C 1044.75 2.85833 2.00251 0
M  V30 11000 C 1046.1 3.37729 2.5734 0
M  V30 11001 O 1047.13 2.87374 2.10463 0
M  V30 11002 O 1045.98 4.25589 3.42836 0
M  V30 11003 H 1043.08 0.621132 0.546007 0
M  V30 11004 H 1045.62 1.63682 0.447931 0
M  V30 11005 H 1044.4 3.67291 1.34955 0
M  V30 11006 H 1044.02 2.79815 2.8247 0
M  V30 11007 N 1045.02 -0.694098 1.41492 0
M  V30 11008 C 1045.95 -1.82042 1.46229 0
M  V30 11009 C 1046.93 -1.67047 0.320803 0
M  V30 11010 O 1048.11 -1.86758 0.53245 0
M  V30 11011 C 1045.24 -3.2019 1.34519 0
M  V30 11012 C 1044.2 -3.49892 2.46495 0
M  V30 11013 C 1043.52 -4.87411 2.1985 0
M  V30 11014 C 1044.82 -3.4872 3.88834 0
M  V30 11015 H 1046.52 -1.78335 2.40493 0
M  V30 11016 H 1044.06 -0.856566 1.15754 0
M  V30 11017 H 1046.02 -3.98699 1.36445 0
M  V30 11018 H 1044.74 -3.24527 0.367406 0
M  V30 11019 H 1043.4 -2.73734 2.43854 0
M  V30 11020 H 1043.05 -4.88375 1.20411 0
M  V30 11021 H 1042.75 -5.08248 2.94885 0
M  V30 11022 H 1044.27 -5.68228 2.23494 0
M  V30 11023 H 1045.68 -4.1723 3.93182 0
M  V30 11024 H 1044.08 -3.81089 4.63564 0
M  V30 11025 H 1045.15 -2.47665 4.16881 0
M  V30 11026 N 1046.49 -1.27344 -0.928501 0
M  V30 11027 C 1047.43 -1.05797 -2.03322 0
M  V30 11028 C 1048.44 -0.0143086 -1.62794 0
M  V30 11029 O 1049.63 -0.25578 -1.76658 0
M  V30 11030 C 1046.73 -0.582673 -3.33853 0
M  V30 11031 C 1045.9 -1.69844 -4.03078 0
M  V30 11032 C 1044.96 -1.21902 -5.11885 0
M  V30 11033 O 1043.99 -1.91853 -5.35893 0
M  V30 11034 N 1045.19 -0.0742392 -5.80453 0
M  V30 11035 H 1047.95 -2.00928 -2.22369 0
M  V30 11036 H 1045.51 -1.189 -1.09883 0
M  V30 11037 H 1047.51 -0.245862 -4.03952 0
M  V30 11038 H 1046.08 0.27539 -3.11385 0
M  V30 11039 H 1045.3 -2.20557 -3.26723 0
M  V30 11040 H 1046.58 -2.4473 -4.46077 0
M  V30 11041 H 1045.98 0.509631 -5.634 0
M  V30 11042 H 1044.54 0.203399 -6.51483 0
M  V30 11043 N 1047.97 1.13488 -1.09353 0
M  V30 11044 C 1049.39 1.36739 -0.823086 0
M  V30 11045 C 1049.59 1.93476 0.562963 0
M  V30 11046 O 1048.64 2.15374 1.31796 0
M  V30 11047 C 1049.96 2.31943 -1.91371 0
M  V30 11048 C 1051.51 2.4556 -1.94085 0
M  V30 11049 C 1051.98 3.44072 -3.02289 0
M  V30 11050 N 1053.47 3.51622 -3.01524 0
M  V30 11051 C 1054.21 4.27724 -3.8189 0
M  V30 11052 N 1053.7 5.06987 -4.72161 0
M  V30 11053 N 1055.5 4.23018 -3.70152 0
M  V30 11054 H 1047.65 0.75012 -1.98713 0
M  V30 11055 H 1049.91 0.392564 -0.862901 0
M  V30 11056 H 1049.62 1.97408 -2.91072 0
M  V30 11057 H 1049.49 3.31952 -1.79131 0
M  V30 11058 H 1051.88 2.79382 -0.950234 0
M  V30 11059 H 1051.96 1.45479 -2.10403 0
M  V30 11060 H 1051.6 3.10981 -4.01564 0
M  V30 11061 H 1051.53 4.43956 -2.83214 0
M  V30 11062 H 1054.02 2.95066 -2.36103 0
M  V30 11063 H 1054.34 5.6236 -5.30067 0
M  V30 11064 H 1052.68 5.06222 -4.76197 0
M  V30 11065 H 1055.87 3.60171 -2.98989 0
M  V30 11066 H 1056.04 4.82075 -4.33022 0
M  V30 11067 N 1049.45 0.880621 1.30701 0
M  V30 11068 C 1050.87 0.574015 1.4892 0
M  V30 11069 C 1051.07 -0.889312 1.80813 0
M  V30 11070 O 1050.12 -1.67082 1.89314 0
M  V30 11071 C 1051.44 1.48341 2.61563 0
M  V30 11072 C 1052.98 1.48658 2.75445 0
M  V30 11073 C 1053.46 2.3818 3.91196 0
M  V30 11074 N 1054.95 2.36119 3.985 0
M  V30 11075 C 1055.69 3.02101 4.87363 0
M  V30 11076 N 1055.18 3.77293 5.81052 0
M  V30 11077 N 1056.97 2.91356 4.80696 0
M  V30 11078 H 1049.13 1.82732 1.08271 0
M  V30 11079 H 1051.39 0.781939 0.535981 0
M  V30 11080 H 1051.09 2.52515 2.44804 0
M  V30 11081 H 1050.97 1.18977 3.57944 0
M  V30 11082 H 1053.36 0.452374 2.91612 0
M  V30 11083 H 1053.44 1.8205 1.79698 0
M  V30 11084 H 1053.08 3.41683 3.75786 0
M  V30 11085 H 1053.01 2.02106 4.86272 0
M  V30 11086 H 1055.5 1.81474 3.31475 0
M  V30 11087 H 1055.81 4.24742 6.45612 0
M  V30 11088 H 1054.16 3.81401 5.80998 0
M  V30 11089 H 1057.35 2.32143 4.06481 0
M  V30 11090 H 1057.52 3.43056 5.49742 0
M  V30 11091 N 1050.93 -1.4397 0.641131 0
M  V30 11092 C 1052.21 -1.95436 0.0800918 0
M  V30 11093 C 1052.59 -1.58282 -1.39678 0
M  V30 11094 O 1051.93 -0.861867 -2.11623 0
M  V30 11095 C 1052.14 -3.47589 0.313531 0
M  V30 11096 C 1053.49 -4.2407 0.212034 0
M  V30 11097 O 1054.52 -3.55353 0.245434 0
M  V30 11098 O 1053.38 -5.46356 0.125455 0
M  V30 11099 H 1050.47 -0.826834 -0.0165735 0
M  V30 11100 H 1053.02 -1.5397 0.71353 0
M  V30 11101 H 1051.79 -3.67716 1.33793 0
M  V30 11102 H 1051.41 -3.96025 -0.353563 0
M  V30 11103 N 1052.41 -0.382291 -1.52893 0
M  V30 11104 C 1053.66 0.203342 -2.00672 0
M  V30 11105 C 1053.97 1.48487 -1.27322 0
M  V30 11106 O 1055.18 2.15013 -1.65776 0
M  V30 11107 C 1053.63 0.412922 -3.57523 0
M  V30 11108 C 1053.24 -0.854949 -4.39767 0
M  V30 11109 C 1054.98 0.955301 -4.13611 0
M  V30 11110 C 1052.89 -0.614033 -5.88204 0
M  V30 11111 H 1051.82 0.0797635 -0.749769 0
M  V30 11112 H 1054.47 -0.50361 -1.76454 0
M  V30 11113 H 1052.85 1.18155 -3.77962 0
M  V30 11114 H 1054.03 -1.62765 -4.31096 0
M  V30 11115 H 1052.34 -1.32176 -3.94865 0
M  V30 11116 H 1054.94 1.15114 -5.22162 0
M  V30 11117 H 1055.28 1.92233 -3.69259 0
M  V30 11118 H 1055.82 0.24642 -3.97036 0
M  V30 11119 H 1052.55 -1.55187 -6.36865 0
M  V30 11120 H 1052.07 0.119865 -5.9968 0
M  V30 11121 H 1053.75 -0.245895 -6.46533 0
M  V30 11122 N 1053.89 1.57202 -0.111913 0
M  V30 11123 C 1055.13 1.94565 0.546713 0
M  V30 11124 C 1055.45 0.995644 1.67666 0
M  V30 11125 O 1054.72 0.0506681 1.95834 0
M  V30 11126 H 1053.3 0.718334 0.204951 0
M  V30 11127 H 1055.97 1.94074 -0.179193 0
M  V30 11128 H 1055.06 2.9742 0.945931 0
M  V30 11129 N 1055.36 -0.161842 1.56767 0
M  V30 11130 C 1056.61 -0.875192 1.82167 0
M  V30 11131 C 1056.93 -1.82367 0.690444 0
M  V30 11132 O 1056.2 -1.93756 -0.289023 0
M  V30 11133 H 1054.78 -0.326178 0.672024 0
M  V30 11134 H 1057.44 -0.159392 1.94247 0
M  V30 11135 H 1056.54 -1.44639 2.76561 0
M  V30 11136 N 1056.84 -1.516 -0.430713 0
M  V30 11137 C 1057.79 -1.73392 -1.52328 0
M  V30 11138 C 1058.76 -0.575758 -1.55802 0
M  V30 11139 O 1059.94 -0.810931 -1.72709 0
M  V30 11140 C 1057.08 -1.87092 -2.89984 0
M  V30 11141 C 1056.2 -3.14668 -2.95987 0
M  V30 11142 C 1055.33 -3.18923 -4.24807 0
M  V30 11143 C 1054.37 -4.40787 -4.24703 0
M  V30 11144 N 1053.51 -4.42556 -5.45059 0
M  V30 11145 H 1058.35 -2.6665 -1.33048 0
M  V30 11146 H 1055.88 -1.32146 -0.646207 0
M  V30 11147 H 1057.84 -1.93017 -3.69865 0
M  V30 11148 H 1056.47 -0.972363 -3.07807 0
M  V30 11149 H 1055.52 -3.1802 -2.08728 0
M  V30 11150 H 1056.84 -4.04562 -2.91772 0
M  V30 11151 H 1055.99 -3.23801 -5.13067 0
M  V30 11152 H 1054.73 -2.2693 -4.31688 0
M  V30 11153 H 1053.73 -4.36079 -3.34836 0
M  V30 11154 H 1054.96 -5.34053 -4.19481 0
M  V30 11155 H 1052.91 -3.53435 -5.52648 0
M  V30 11156 H 1052.82 -5.26267 -5.42751 0
M  V30 11157 H 1054.09 -4.51634 -6.35332 0
M  V30 11158 N 1058.32 0.686584 -1.41858 0
M  V30 11159 C 1059.55 1.47519 -1.45072 0
M  V30 11160 C 1059.96 1.88709 -0.0585868 0
M  V30 11161 O 1059.32 1.57373 0.924116 0
M  V30 11162 C 1059.37 2.73195 -2.36742 0
M  V30 11163 O 1059.09 2.33736 -3.70539 0
M  V30 11164 C 1060.59 3.66861 -2.48854 0
M  V30 11165 H 1057.81 0.454307 -0.493808 0
M  V30 11166 H 1060.36 0.844612 -1.86243 0
M  V30 11167 H 1058.51 3.32468 -1.98856 0
M  V30 11168 H 1058.93 3.14809 -4.19518 0
M  V30 11169 H 1060.4 4.51801 -3.17143 0
M  V30 11170 H 1060.88 4.11961 -1.52265 0
M  V30 11171 H 1061.48 3.13486 -2.87414 0
M  V30 11172 N 1059.8 1.27835 0.921735 0
M  V30 11173 C 1061.05 1.14296 1.66676 0
M  V30 11174 C 1061.37 -0.310493 1.92512 0
M  V30 11175 O 1060.64 -1.21637 1.53562 0
M  V30 11176 H 1059.22 0.419994 0.617749 0
M  V30 11177 H 1061.88 1.60449 1.10644 0
M  V30 11178 H 1060.97 1.67654 2.63246 0
M  V30 11179 N 1061.28 -1.12907 1.09954 0
M  V30 11180 C 1062.5 -1.88138 0.860905 0
M  V30 11181 C 1062.92 -1.79402 -0.588256 0
M  V30 11182 O 1062.28 -1.16442 -1.40526 0
M  V30 11183 C 1062.33 -3.37537 1.29425 0
M  V30 11184 O 1062.05 -3.46056 2.68658 0
M  V30 11185 C 1063.55 -4.29721 1.08879 0
M  V30 11186 H 1060.77 -0.595437 0.309347 0
M  V30 11187 H 1063.31 -1.42894 1.46292 0
M  V30 11188 H 1061.47 -3.80344 0.736009 0
M  V30 11189 H 1061.88 -4.38969 2.87065 0
M  V30 11190 H 1063.36 -5.32854 1.4412 0
M  V30 11191 H 1063.83 -4.39192 0.0270053 0
M  V30 11192 H 1064.44 -3.9269 1.63325 0
M  V30 11193 N 1062.75 -0.88754 -1.30232 0
M  V30 11194 C 1063.98 -0.522306 -2.00199 0
M  V30 11195 C 1064.4 0.889866 -1.66514 0
M  V30 11196 O 1063.75 1.58558 -0.903639 0
M  V30 11197 C 1063.8 -0.690551 -3.54843 0
M  V30 11198 O 1063.53 -2.04713 -3.8733 0
M  V30 11199 C 1065.03 -0.328649 -4.4208 0
M  V30 11200 H 1062.25 -0.201628 -0.63999 0
M  V30 11201 H 1064.79 -1.19355 -1.66056 0
M  V30 11202 H 1062.95 -0.0666493 -3.87343 0
M  V30 11203 H 1063.36 -2.06762 -4.82027 0
M  V30 11204 H 1064.83 -0.497257 -5.49756 0
M  V30 11205 H 1065.31 0.733502 -4.33032 0
M  V30 11206 H 1065.92 -0.928982 -4.1503 0
M  V30 11207 N 1064.23 1.43628 -0.648757 0
M  V30 11208 C 1065.18 2.32529 0.057536 0
M  V30 11209 C 1066.17 1.48358 0.817699 0
M  V30 11210 O 1067.38 1.64595 0.728605 0
M  V30 11211 H 1063.76 0.75107 0.037388 0
M  V30 11212 H 1065.73 2.89829 -0.710062 0
M  V30 11213 C 1064.48 3.32605 1.01336 0
M  V30 11214 H 1063.8 3.97395 0.437855 0
M  V30 11215 H 1065.24 3.97453 1.47672 0
M  V30 11216 C 1063.7 2.62865 2.10722 0
M  V30 11217 O 1064.23 2.4408 3.19042 0
M  V30 11218 N 1062.43 2.22312 1.87152 0
M  V30 11219 H 1061.98 2.3779 0.990644 0
M  V30 11220 H 1061.94 1.75979 2.60536 0
M  V30 11221 N 1065.71 0.390394 1.52688 0
M  V30 11222 C 1066.94 -0.194013 2.06491 0
M  V30 11223 C 1067.36 -1.3965 1.26014 0
M  V30 11224 O 1066.72 -1.79038 0.285468 0
M  V30 11225 C 1066.77 -0.541306 3.56514 0
M  V30 11226 O 1065.87 -1.63509 3.78601 0
M  V30 11227 H 1065.21 -0.0223608 0.663623 0
M  V30 11228 H 1067.74 0.558179 1.96839 0
M  V30 11229 H 1067.75 -0.805301 3.99974 0
M  V30 11230 H 1066.43 0.337828 4.14526 0
M  V30 11231 H 1065 -1.36473 3.4703 0
M  V30 11232 N 1067.19 -1.57141 0.120249 0
M  V30 11233 C 1068.41 -2.00017 -0.548454 0
M  V30 11234 C 1068.84 -0.999433 -1.59352 0
M  V30 11235 O 1068.2 0.0286978 -1.81277 0
M  V30 11236 C 1068.24 -3.41766 -1.15015 0
M  V30 11237 O 1067.35 -3.44589 -2.26566 0
M  V30 11238 H 1066.69 -0.649739 -0.136875 0
M  V30 11239 H 1069.22 -2.03529 0.209092 0
M  V30 11240 H 1069.23 -3.80001 -1.48537 0
M  V30 11241 H 1067.9 -4.14117 -0.384681 0
M  V30 11242 H 1066.48 -3.18174 -1.94473 0
M  V30 11243 N 1068.67 0.153526 -1.5685 0
M  V30 11244 C 1069.61 1.18973 -1.97773 0
M  V30 11245 C 1070.58 1.43041 -0.844311 0
M  V30 11246 O 1071.77 1.55484 -1.10586 0
M  V30 11247 C 1068.91 2.51981 -2.35795 0
M  V30 11248 C 1068.02 2.35143 -3.62397 0
M  V30 11249 C 1067.16 3.61141 -3.89552 0
M  V30 11250 C 1066.2 3.39311 -5.09445 0
M  V30 11251 N 1065.33 4.57423 -5.32643 0
M  V30 11252 H 1070.17 0.833758 -2.86099 0
M  V30 11253 H 1067.71 0.400252 -1.4155 0
M  V30 11254 H 1069.67 3.29527 -2.55867 0
M  V30 11255 H 1068.3 2.85539 -1.50557 0
M  V30 11256 H 1067.35 1.48684 -3.50139 0
M  V30 11257 H 1068.66 2.14969 -4.501 0
M  V30 11258 H 1067.82 4.47117 -4.10087 0
M  V30 11259 H 1066.55 3.84312 -3.00259 0
M  V30 11260 H 1065.56 2.51723 -4.8879 0
M  V30 11261 H 1066.78 3.17545 -6.00285 0
M  V30 11262 H 1064.73 4.8078 -4.46303 0
M  V30 11263 H 1064.65 4.40228 -6.14602 0
M  V30 11264 H 1065.92 5.44632 -5.57671 0
M  V30 11265 N 1070.14 1.51827 0.422667 0
M  V30 11266 C 1071.42 1.55772 1.18299 0
M  V30 11267 C 1071.8 0.330657 2.08494 0
M  V30 11268 O 1071.15 -0.683373 2.18042 0
M  V30 11269 C 1071.36 2.87941 1.97208 0
M  V30 11270 C 1072.71 3.4044 2.53744 0
M  V30 11271 O 1073.73 2.8959 2.07403 0
M  V30 11272 O 1072.59 4.29201 3.38303 0
M  V30 11273 H 1069.68 0.626889 0.539388 0
M  V30 11274 H 1072.23 1.64147 0.430545 0
M  V30 11275 H 1071 3.68702 1.31052 0
M  V30 11276 H 1070.63 2.82795 2.79486 0
M  V30 11277 N 1071.62 -0.679052 1.4222 0
M  V30 11278 C 1072.59 -1.77448 1.45069 0
M  V30 11279 C 1073.59 -1.57189 0.338882 0
M  V30 11280 O 1074.78 -1.63559 0.599519 0
M  V30 11281 C 1071.91 -3.1603 1.27819 0
M  V30 11282 H 1073.1 -1.7631 2.426 0
M  V30 11283 H 1070.65 -0.888277 1.28605 0
M  V30 11284 H 1071.39 -3.22796 0.311946 0
M  V30 11285 H 1071.17 -3.32138 2.08391 0
M  V30 11286 H 1072.66 -3.9596 1.32686 0
M  V30 11287 N 1073.1 -1.28322 -0.914942 0
M  V30 11288 C 1074.35 -1.16587 -1.6667 0
M  V30 11289 C 1074.7 0.282961 -1.90308 0
M  V30 11290 O 1073.99 1.20269 -1.49151 0
M  V30 11291 C 1074.19 -1.89663 -3.02924 0
M  V30 11292 C 1074.02 -3.41504 -2.92584 0
M  V30 11293 C 1072.79 -4.10841 -2.94173 0
M  V30 11294 C 1074.99 -4.37266 -2.70745 0
M  V30 11295 N 1072.97 -5.49157 -2.74409 0
M  V30 11296 C 1074.34 -5.62937 -2.59812 0
M  V30 11297 C 1076.39 -4.27207 -2.55732 0
M  V30 11298 C 1075.1 -6.79692 -2.35397 0
M  V30 11299 C 1077.12 -5.43697 -2.32697 0
M  V30 11300 C 1076.48 -6.6833 -2.22517 0
M  V30 11301 H 1072.58 -0.481552 -0.616142 0
M  V30 11302 H 1075.17 -1.61957 -1.08065 0
M  V30 11303 H 1073.34 -1.46729 -3.59618 0
M  V30 11304 H 1075.07 -1.70323 -3.67113 0
M  V30 11305 H 1071.83 -3.62412 -3.04884 0
M  V30 11306 H 1072.25 -6.21858 -2.67622 0
M  V30 11307 H 1076.89 -3.31557 -2.62354 0
M  V30 11308 H 1074.61 -7.75412 -2.27514 0
M  V30 11309 H 1078.2 -5.37802 -2.21947 0
M  V30 11310 H 1077.08 -7.56949 -2.04936 0
M  V30 11311 N 1074.58 1.12322 -1.10551 0
M  V30 11312 C 1075.83 1.83858 -0.848674 0
M  V30 11313 C 1076.15 1.84159 0.62575 0
M  V30 11314 O 1075.41 1.28341 1.4774 0
M  V30 11315 C 1075.71 3.31177 -1.34375 0
M  V30 11316 C 1075.37 3.51046 -2.8298 0
M  V30 11317 C 1074.04 3.56177 -3.23561 0
M  V30 11318 C 1076.39 3.58061 -3.78737 0
M  V30 11319 C 1073.72 3.65868 -4.58647 0
M  V30 11320 C 1076.07 3.69283 -5.13627 0
M  V30 11321 C 1074.73 3.7267 -5.53781 0
M  V30 11322 H 1074 0.672784 -0.310552 0
M  V30 11323 H 1076.65 1.3253 -1.38232 0
M  V30 11324 H 1074.95 3.84937 -0.730144 0
M  V30 11325 H 1076.65 3.84998 -1.12148 0
M  V30 11326 H 1073.24 3.47716 -2.50582 0
M  V30 11327 H 1077.42 3.53366 -3.48491 0
M  V30 11328 H 1072.68 3.66763 -4.89178 0
M  V30 11329 H 1076.85 3.73654 -5.8767 0
M  V30 11330 H 1074.48 3.79932 -6.58449 0
M  V30 11331 N 1076.06 0.894434 1.2976 0
M  V30 11332 C 1077.28 0.5322 2.00455 0
M  V30 11333 C 1077.71 -0.874427 1.66539 0
M  V30 11334 O 1077.06 -1.58113 0.887129 0
M  V30 11335 C 1077.11 0.725264 3.53231 0
M  V30 11336 O 1076.22 -0.224612 4.11788 0
M  V30 11337 H 1075.56 0.208562 0.630395 0
M  V30 11338 H 1078.09 1.20458 1.65382 0
M  V30 11339 H 1078.1 0.627889 4.0314 0
M  V30 11340 H 1076.77 1.75079 3.77253 0
M  V30 11341 H 1075.35 -0.0801361 3.72814 0
M  V30 11342 N 1077.53 -1.43282 0.656365 0
M  V30 11343 C 1078.78 -2.01378 0.170702 0
M  V30 11344 C 1079.1 -1.52063 -1.22073 0
M  V30 11345 O 1078.37 -0.73456 -1.81607 0
M  V30 11346 H 1076.95 -0.744577 0.0601168 0
M  V30 11347 H 1079.62 -1.75449 0.848739 0
M  V30 11348 H 1078.71 -3.11701 0.157745 0
M  V30 11349 N 1079.01 -0.398486 -1.52479 0
M  V30 11350 C 1080.24 0.180295 -2.05812 0
M  V30 11351 C 1080.65 1.40301 -1.26934 0
M  V30 11352 O 1079.99 1.81039 -0.311544 0
M  V30 11353 C 1080.06 0.60601 -3.54355 0
M  V30 11354 C 1079.72 -0.504508 -4.54207 0
M  V30 11355 C 1080.72 -1.36478 -5.01667 0
M  V30 11356 C 1078.4 -0.674161 -4.97755 0
M  V30 11357 C 1080.4 -2.37975 -5.91309 0
M  V30 11358 C 1078.08 -1.69246 -5.87196 0
M  V30 11359 C 1079.08 -2.54367 -6.33866 0
M  V30 11360 O 1078.77 -3.54454 -7.21538 0
M  V30 11361 H 1078.5 0.0286396 -0.675393 0
M  V30 11362 H 1081.06 -0.564912 -1.97479 0
M  V30 11363 H 1079.29 1.40334 -3.60338 0
M  V30 11364 H 1080.97 1.1115 -3.90385 0
M  V30 11365 H 1081.74 -1.24506 -4.68746 0
M  V30 11366 H 1077.62 -0.0213029 -4.60995 0
M  V30 11367 H 1081.16 -3.0445 -6.27659 0
M  V30 11368 H 1077.06 -1.81252 -6.1953 0
M  V30 11369 H 1077.83 -3.50571 -7.39623 0
M  V30 11370 N 1080.49 1.57075 -0.12858 0
M  V30 11371 C 1081.74 1.95134 0.526046 0
M  V30 11372 C 1082.06 1.01337 1.66601 0
M  V30 11373 O 1081.33 0.0714361 1.9577 0
M  V30 11374 H 1079.91 0.720468 0.19732 0
M  V30 11375 H 1082.57 1.93874 -0.199767 0
M  V30 11376 H 1081.67 2.98406 0.914332 0
M  V30 11377 N 1081.97 -0.145205 1.5693 0
M  V30 11378 C 1083.38 -0.705089 1.72874 0
M  V30 11379 C 1083.73 -1.81577 0.743261 0
M  V30 11380 O 1082.86 -2.16214 -0.0897153 0
M  V30 11381 C 1083.45 -1.28578 3.13454 0
M  V30 11382 C 1082.01 -1.79221 3.30994 0
M  V30 11383 C 1081.16 -0.681392 2.68798 0
M  V30 11384 H 1084.11 0.0804798 1.58496 0
M  V30 11385 H 1084.13 -2.15558 3.13552 0
M  V30 11386 H 1083.64 -0.477186 3.85155 0
M  V30 11387 H 1081.74 -2.62642 2.64292 0
M  V30 11388 H 1081.86 -1.91969 4.38959 0
M  V30 11389 H 1080.22 -1.10847 2.29314 0
M  V30 11390 H 1081 0.115786 3.43105 0
M  V30 11391 N 1083.45 -1.52049 -0.414609 0
M  V30 11392 C 1084.7 -1.65511 -1.15977 0
M  V30 11393 C 1085.02 -0.384703 -1.91168 0
M  V30 11394 O 1084.29 0.600247 -1.86477 0
M  V30 11395 H 1082.87 -0.610039 -0.431116 0
M  V30 11396 H 1085.53 -1.8907 -0.473139 0
M  V30 11397 H 1084.62 -2.4936 -1.87686 0
M  V30 11398 N 1084.93 0.6715 -1.42579 0
M  V30 11399 C 1086.17 1.43366 -1.43436 0
M  V30 11400 C 1086.5 1.94131 -0.0517339 0
M  V30 11401 O 1085.78 1.71121 0.924548 0
M  V30 11402 C 1086.06 2.62832 -2.46154 0
M  V30 11403 C 1085.92 2.17677 -3.9362 0
M  V30 11404 C 1087.23 3.65049 -2.4582 0
M  V30 11405 H 1084.35 0.519967 -0.522306 0
M  V30 11406 H 1087 0.762849 -1.74013 0
M  V30 11407 H 1085.15 3.20062 -2.2021 0
M  V30 11408 H 1086.82 1.65588 -4.30556 0
M  V30 11409 H 1085.06 1.49219 -4.07328 0
M  V30 11410 H 1085.73 3.03503 -4.61075 0
M  V30 11411 H 1088.21 3.17541 -2.68899 0
M  V30 11412 H 1087.08 4.46213 -3.19664 0
M  V30 11413 H 1087.34 4.16401 -1.48536 0
M  V30 11414 N 1086.4 1.28806 0.908124 0
M  V30 11415 C 1087.65 1.1646 1.66027 0
M  V30 11416 C 1087.98 -0.285025 1.92097 0
M  V30 11417 O 1087.26 -1.20675 1.52538 0
M  V30 11418 C 1087.54 1.96951 3.01467 0
M  V30 11419 C 1087.39 3.50007 2.82515 0
M  V30 11420 C 1088.71 1.78932 4.02084 0
M  V30 11421 H 1085.83 0.424435 0.602515 0
M  V30 11422 H 1088.47 1.58185 1.0525 0
M  V30 11423 H 1086.62 1.61495 3.53344 0
M  V30 11424 H 1088.3 3.95401 2.37605 0
M  V30 11425 H 1086.54 3.75356 2.17463 0
M  V30 11426 H 1087.21 4.01591 3.7872 0
M  V30 11427 H 1089.69 2.09885 3.59287 0
M  V30 11428 H 1088.56 2.37615 4.94803 0
M  V30 11429 H 1088.82 0.742286 4.35824 0
M  V30 11430 N 1087.88 -1.11734 1.11145 0
M  V30 11431 C 1089.11 -1.87215 0.880811 0
M  V30 11432 C 1089.52 -1.80016 -0.569195 0
M  V30 11433 O 1088.88 -1.17926 -1.39283 0
M  V30 11434 C 1088.93 -3.36146 1.32998 0
M  V30 11435 O 1088.65 -3.43187 2.72313 0
M  V30 11436 C 1090.15 -4.28542 1.1343 0
M  V30 11437 H 1087.37 -0.592123 0.315645 0
M  V30 11438 H 1089.92 -1.41335 1.478 0
M  V30 11439 H 1088.07 -3.79542 0.776308 0
M  V30 11440 H 1088.49 -4.359 2.91705 0
M  V30 11441 H 1089.96 -5.31295 1.49764 0
M  V30 11442 H 1090.44 -4.39138 0.0735859 0
M  V30 11443 H 1091.04 -3.90935 1.67481 0
M  V30 11444 N 1089.36 -0.901303 -1.29284 0
M  V30 11445 C 1090.58 -0.542823 -2.0017 0
M  V30 11446 C 1091.01 0.865583 -1.67001 0
M  V30 11447 O 1090.37 1.5764 -0.895502 0
M  V30 11448 C 1090.42 -0.743987 -3.52842 0
M  V30 11449 O 1089.52 0.202771 -4.11901 0
M  V30 11450 H 1088.86 -0.211903 -0.62928 0
M  V30 11451 H 1091.39 -1.21333 -1.64741 0
M  V30 11452 H 1091.4 -0.64926 -4.02801 0
M  V30 11453 H 1090.08 -1.77077 -3.7632 0
M  V30 11454 H 1088.65 0.0603637 -3.72851 0
M  V30 11455 N 1090.84 1.42931 -0.663954 0
M  V30 11456 C 1092.08 2.01982 -0.182007 0
M  V30 11457 C 1092.42 1.52323 1.20463 0
M  V30 11458 O 1091.69 0.720834 1.80649 0
M  V30 11459 C 1091.97 3.59518 -0.204671 0
M  V30 11460 C 1091.83 4.19382 -1.62599 0
M  V30 11461 C 1093.15 4.37762 0.45308 0
M  V30 11462 H 1090.27 0.733892 -0.0676115 0
M  V30 11463 H 1092.91 1.70092 -0.84668 0
M  V30 11464 H 1091.06 3.86816 0.361295 0
M  V30 11465 H 1092.73 4.03076 -2.24337 0
M  V30 11466 H 1090.97 3.75623 -2.17001 0
M  V30 11467 H 1091.64 5.28496 -1.59362 0
M  V30 11468 H 1094.12 4.1609 -0.0285774 0
M  V30 11469 H 1093 5.47392 0.406538 0
M  V30 11470 H 1093.26 4.1482 1.52895 0
M  V30 11471 N 1092.32 0.406567 1.52266 0
M  V30 11472 C 1093.56 -0.1627 2.02748 0
M  V30 11473 C 1093.92 -1.43022 1.28695 0
M  V30 11474 O 1093.21 -1.87715 0.383881 0
M  V30 11475 C 1093.4 -0.467124 3.54334 0
M  V30 11476 C 1093.23 0.76934 4.4307 0
M  V30 11477 C 1092 1.29377 4.88456 0
M  V30 11478 C 1094.2 1.64671 4.87225 0
M  V30 11479 N 1092.18 2.48599 5.61313 0
M  V30 11480 C 1093.55 2.68519 5.58836 0
M  V30 11481 C 1095.61 1.66477 4.69244 0
M  V30 11482 C 1094.31 3.74081 6.14374 0
M  V30 11483 C 1096.34 2.70956 5.25677 0
M  V30 11484 C 1095.7 3.73525 5.97209 0
M  V30 11485 H 1091.8 -0.0211706 0.781713 0
M  V30 11486 H 1094.38 0.560338 1.86463 0
M  V30 11487 H 1092.55 -1.15921 3.70698 0
M  V30 11488 H 1094.29 -1.02505 3.91503 0
M  V30 11489 H 1091.04 0.85219 4.6587 0
M  V30 11490 H 1091.46 3.0897 6.02384 0
M  V30 11491 H 1096.11 0.88519 4.1343 0
M  V30 11492 H 1093.82 4.52896 6.69261 0
M  V30 11493 H 1097.41 2.73258 5.13635 0
M  V30 11494 H 1096.29 4.53043 6.40095 0
M  V30 11495 N 1093.79 -1.57004 0.136909 0
M  V30 11496 C 1095.04 -1.94972 -0.51662 0
M  V30 11497 C 1095.36 -1.02367 -1.66674 0
M  V30 11498 O 1096.56 -1.29873 -2.38423 0
M  V30 11499 C 1095.02 -3.4657 -0.970435 0
M  V30 11500 C 1094.63 -4.47741 0.152204 0
M  V30 11501 C 1096.37 -3.93423 -1.59432 0
M  V30 11502 C 1094.28 -5.90537 -0.319315 0
M  V30 11503 H 1093.21 -0.727873 -0.196766 0
M  V30 11504 H 1095.86 -1.82181 0.219637 0
M  V30 11505 H 1094.24 -3.54657 -1.76165 0
M  V30 11506 H 1095.41 -4.5134 0.928925 0
M  V30 11507 H 1093.73 -4.10746 0.683867 0
M  V30 11508 H 1096.33 -4.97539 -1.95856 0
M  V30 11509 H 1096.67 -3.34404 -2.47951 0
M  V30 11510 H 1097.2 -3.8821 -0.868193 0
M  V30 11511 H 1093.94 -6.53352 0.530248 0
M  V30 11512 H 1093.46 -5.90321 -1.06213 0
M  V30 11513 H 1095.14 -6.42346 -0.774662 0
M  V30 11514 N 1095.27 0.136881 -1.57004 0
M  V30 11515 C 1096.52 0.8461 -1.83536 0
M  V30 11516 C 1096.84 1.81246 -0.71937 0
M  V30 11517 O 1096.11 1.94191 0.258161 0
M  V30 11518 H 1094.69 0.315446 -0.677128 0
M  V30 11519 H 1097.35 0.128469 -1.94476 0
M  V30 11520 H 1096.45 1.40221 -2.78827 0
M  V30 11521 N 1096.75 1.52266 0.40654 0
M  V30 11522 C 1098 1.66452 1.15325 0
M  V30 11523 C 1098.33 0.395728 1.90432 0
M  V30 11524 O 1097.58 -0.621382 1.85573 0
M  V30 11525 C 1097.88 2.8389 2.1712 0
M  V30 11526 C 1097.55 4.22011 1.58801 0
M  V30 11527 C 1096.21 4.59579 1.42621 0
M  V30 11528 C 1098.56 5.08074 1.16236 0
M  V30 11529 C 1095.89 5.80885 0.823967 0
M  V30 11530 C 1098.24 6.29988 0.574284 0
M  V30 11531 C 1096.9 6.66303 0.399638 0
M  V30 11532 H 1096.17 0.609092 0.422005 0
M  V30 11533 H 1098.82 1.86374 0.440131 0
M  V30 11534 H 1097.13 2.58314 2.94586 0
M  V30 11535 H 1098.82 2.92063 2.74774 0
M  V30 11536 H 1095.41 3.92408 1.72378 0
M  V30 11537 H 1099.6 4.79631 1.27544 0
M  V30 11538 H 1094.85 6.07644 0.676694 0
M  V30 11539 H 1099.03 6.96 0.236081 0
M  V30 11540 H 1096.65 7.60169 -0.0691262 0
M  V30 11541 N 1098.23 -0.663929 1.42933 0
M  V30 11542 C 1099.51 -1.42054 1.34462 0
M  V30 11543 C 1099.89 -2.11096 -0.0127801 0
M  V30 11544 O 1099.23 -2.04027 -1.02884 0
M  V30 11545 C 1099.44 -2.41406 2.5204 0
M  V30 11546 C 1100.79 -3.05726 2.94647 0
M  V30 11547 O 1101.82 -2.51733 2.52009 0
M  V30 11548 O 1100.67 -4.03593 3.68477 0
M  V30 11549 H 1097.77 -0.634149 0.530834 0
M  V30 11550 H 1100.31 -0.691738 1.54962 0
M  V30 11551 H 1099.09 -1.89263 3.42484 0
M  V30 11552 H 1098.71 -3.21752 2.33584 0
M  V30 11553 N 1099.71 -1.29285 -0.901281 0
M  V30 11554 C 1100.98 -1.07847 -1.63182 0
M  V30 11555 C 1101.36 0.377927 -2.07689 0
M  V30 11556 O 1100.71 1.36642 -1.83143 0
M  V30 11557 C 1100.92 -2.06457 -2.81383 0
M  V30 11558 C 1102.27 -2.37289 -3.52107 0
M  V30 11559 O 1103.29 -2.0464 -2.91549 0
M  V30 11560 O 1102.15 -2.93067 -4.61274 0
M  V30 11561 H 1099.25 -0.413073 -0.71645 0
M  V30 11562 H 1101.79 -1.40651 -0.949488 0
M  V30 11563 H 1100.56 -3.04561 -2.4568 0
M  V30 11564 H 1100.19 -1.74374 -3.57323 0
M  V30 11565 N 1101.18 1.11143 -1.11736 0
M  V30 11566 C 1102.13 2.15396 -0.747566 0
M  V30 11567 C 1103.12 1.58948 0.249894 0
M  V30 11568 O 1104.31 1.7691 0.0565267 0
M  V30 11569 C 1101.44 3.42741 -0.195776 0
M  V30 11570 C 1100.53 4.06141 -1.22109 0
M  V30 11571 N 1100.92 4.44351 -2.41631 0
M  V30 11572 C 1099.21 4.33104 -1.06474 0
M  V30 11573 C 1099.92 4.94062 -3.07046 0
M  V30 11574 N 1098.89 4.90411 -2.34516 0
M  V30 11575 H 1102.69 2.42722 -1.6572 0
M  V30 11576 H 1100.21 1.28189 -0.997059 0
M  V30 11577 H 1102.2 4.16809 0.0872984 0
M  V30 11578 H 1100.86 3.16878 0.708406 0
M  V30 11579 H 1101.88 4.36283 -2.79065 0
M  V30 11580 H 1098.55 4.16934 -0.217246 0
M  V30 11581 H 1099.94 5.33234 -4.08792 0
M  V30 11582 N 1102.66 0.908147 1.28804 0
M  V30 11583 C 1104.08 0.605474 1.47669 0
M  V30 11584 C 1104.28 -0.850759 1.82659 0
M  V30 11585 O 1103.33 -1.63029 1.92816 0
M  V30 11586 C 1104.65 1.53856 2.58358 0
M  V30 11587 C 1106.2 1.54467 2.7223 0
M  V30 11588 C 1106.67 2.46424 3.86056 0
M  V30 11589 N 1108.16 2.44519 3.93402 0
M  V30 11590 C 1108.9 3.12371 4.80845 0
M  V30 11591 N 1108.39 3.89533 5.72919 0
M  V30 11592 N 1110.19 3.01486 4.74407 0
M  V30 11593 H 1102.34 1.84988 1.04371 0
M  V30 11594 H 1104.6 0.793132 0.519274 0
M  V30 11595 H 1104.31 2.57651 2.39393 0
M  V30 11596 H 1104.18 1.26543 3.5534 0
M  V30 11597 H 1106.57 0.514127 2.90587 0
M  V30 11598 H 1106.65 1.85821 1.75796 0
M  V30 11599 H 1106.29 3.49577 3.68454 0
M  V30 11600 H 1106.22 2.12375 4.81876 0
M  V30 11601 H 1108.71 1.88464 3.27551 0
M  V30 11602 H 1109.03 4.3834 6.36457 0
M  V30 11603 H 1107.37 3.93639 5.72777 0
M  V30 11604 H 1110.56 2.40713 4.01466 0
M  V30 11605 H 1110.73 3.5464 5.42342 0
M  V30 11606 N 1104.14 -1.42577 0.671525 0
M  V30 11607 C 1105.56 -1.5592 0.340769 0
M  V30 11608 C 1105.76 -1.65179 -1.15405 0
M  V30 11609 O 1104.81 -1.61691 -1.93939 0
M  V30 11610 C 1106.13 -2.81087 1.06821 0
M  V30 11611 C 1107.67 -2.94855 1.05022 0
M  V30 11612 C 1108.15 -4.22878 1.75892 0
M  V30 11613 N 1109.64 -4.29783 1.72744 0
M  V30 11614 C 1110.37 -5.2765 2.24439 0
M  V30 11615 N 1109.87 -6.31689 2.84501 0
M  V30 11616 N 1111.66 -5.19426 2.14832 0
M  V30 11617 H 1103.81 -1.34811 1.64133 0
M  V30 11618 H 1106.08 -0.648704 0.691294 0
M  V30 11619 H 1105.78 -2.80371 2.12332 0
M  V30 11620 H 1105.66 -3.71879 0.631356 0
M  V30 11621 H 1108.04 -2.951 0.00345633 0
M  V30 11622 H 1108.13 -2.05303 1.52592 0
M  V30 11623 H 1107.77 -4.23394 2.80535 0
M  V30 11624 H 1107.7 -5.1136 1.25773 0
M  V30 11625 H 1110.19 -3.55225 1.28932 0
M  V30 11626 H 1110.5 -7.02715 3.21575 0
M  V30 11627 H 1108.85 -6.3226 2.88569 0
M  V30 11628 H 1112.04 -4.37067 1.676 0
M  V30 11629 H 1112.21 -5.95535 2.55426 0
M  V30 11630 N 1105.62 -0.414636 -1.52048 0
M  V30 11631 C 1106.57 0.422766 -2.28726 0
M  V30 11632 C 1107.56 1.04099 -1.3364 0
M  V30 11633 O 1108.77 0.978559 -1.51077 0
M  V30 11634 H 1105.14 0.155123 -0.735827 0
M  V30 11635 H 1107.11 -0.245091 -2.97392 0
M  V30 11636 C 1105.86 1.52418 -3.12513 0
M  V30 11637 H 1105.18 1.05781 -3.85552 0
M  V30 11638 H 1106.62 2.08382 -3.6926 0
M  V30 11639 C 1105.08 2.49465 -2.26426 0
M  V30 11640 O 1105.61 3.53479 -1.90829 0
M  V30 11641 N 1103.82 2.19806 -1.90088 0
M  V30 11642 H 1103.37 1.35253 -2.19236 0
M  V30 11643 H 1103.32 2.84984 -1.32783 0
M  V30 11644 N 1107.1 1.56929 -0.145233 0
M  V30 11645 C 1108.03 2.19685 0.791263 0
M  V30 11646 C 1109.01 1.14455 1.25833 0
M  V30 11647 O 1110.19 1.42791 1.31622 0
M  V30 11648 C 1107.32 2.81705 2.03124 0
M  V30 11649 C 1106.28 3.92746 1.70101 0
M  V30 11650 C 1105.6 4.41694 3.01347 0
M  V30 11651 C 1106.9 5.13606 0.949025 0
M  V30 11652 H 1108.6 2.98196 0.26825 0
M  V30 11653 H 1106.14 1.43434 0.127584 0
M  V30 11654 H 1108.1 3.24273 2.69119 0
M  V30 11655 H 1106.82 2.00523 2.57795 0
M  V30 11656 H 1105.48 3.50794 1.06486 0
M  V30 11657 H 1105.13 3.57336 3.54006 0
M  V30 11658 H 1104.83 5.1659 2.80016 0
M  V30 11659 H 1106.35 4.86931 3.68416 0
M  V30 11660 H 1107.76 5.53029 1.51102 0
M  V30 11661 H 1106.16 5.94252 0.835711 0
M  V30 11662 H 1107.23 4.84863 -0.0595631 0
M  V30 11663 N 1108.58 -0.128553 1.57075 0
M  V30 11664 C 1109.82 -0.836355 1.83982 0
M  V30 11665 C 1110.14 -1.80862 0.728971 0
M  V30 11666 O 1109.41 -1.94326 -0.247859 0
M  V30 11667 H 1107.99 -0.31185 0.678792 0
M  V30 11668 H 1110.66 -0.118153 1.94542 0
M  V30 11669 H 1109.75 -1.38741 2.79567 0
M  V30 11670 N 1110.05 -1.5248 -0.398459 0
M  V30 11671 C 1111 -1.72965 -1.4855 0
M  V30 11672 C 1111.99 -0.583628 -1.49942 0
M  V30 11673 O 1113.18 -0.841106 -1.55738 0
M  V30 11674 C 1110.31 -1.89339 -2.86366 0
M  V30 11675 C 1109.39 -3.09845 -2.8958 0
M  V30 11676 N 1109.79 -4.32365 -2.62477 0
M  V30 11677 C 1108.08 -3.09897 -3.20749 0
M  V30 11678 C 1108.78 -5.13908 -2.72532 0
M  V30 11679 N 1107.76 -4.49387 -3.05864 0
M  V30 11680 H 1111.56 -2.65327 -1.26406 0
M  V30 11681 H 1109.08 -1.50658 -0.606299 0
M  V30 11682 H 1111.07 -2.02134 -3.64619 0
M  V30 11683 H 1109.73 -0.981841 -3.095 0
M  V30 11684 H 1110.74 -4.60659 -2.36673 0
M  V30 11685 H 1107.42 -2.28518 -3.49408 0
M  V30 11686 H 1108.81 -6.21548 -2.55202 0
M  V30 11687 N 1111.53 0.65634 -1.43283 0
M  V30 11688 C 1112.76 1.44408 -1.48168 0
M  V30 11689 C 1113.17 1.88542 -0.0986016 0
M  V30 11690 O 1112.53 1.59298 0.890527 0
M  V30 11691 C 1112.58 2.68111 -2.42484 0
M  V30 11692 O 1112.3 2.25824 -3.75413 0
M  V30 11693 C 1113.8 3.61499 -2.56579 0
M  V30 11694 H 1111.02 0.443731 -0.503333 0
M  V30 11695 H 1113.57 0.804917 -1.87993 0
M  V30 11696 H 1111.72 3.28175 -2.05863 0
M  V30 11697 H 1112.14 3.05839 -4.26102 0
M  V30 11698 H 1113.61 4.44972 -3.26655 0
M  V30 11699 H 1114.09 4.08639 -1.60969 0
M  V30 11700 H 1114.69 3.07319 -2.93998 0
M  V30 11701 N 1113.01 1.29761 0.894412 0
M  V30 11702 C 1114.24 1.2094 1.67872 0
M  V30 11703 C 1114.65 -0.229192 1.87404 0
M  V30 11704 O 1114.01 -1.15278 1.41482 0
M  V30 11705 C 1114.06 1.92424 3.06032 0
M  V30 11706 O 1113.78 3.30665 2.87388 0
M  V30 11707 C 1115.28 1.90144 4.0045 0
M  V30 11708 H 1112.5 0.418942 0.524145 0
M  V30 11709 H 1115.05 1.71226 1.11813 0
M  V30 11710 H 1113.2 1.4596 3.58851 0
M  V30 11711 H 1113.62 3.66741 3.74969 0
M  V30 11712 H 1115.09 2.44716 4.94791 0
M  V30 11713 H 1115.57 0.878175 4.30331 0
M  V30 11714 H 1116.17 2.36375 3.53563 0
M  V30 11715 N 1114.49 -1.10549 1.12324 0
M  V30 11716 C 1115.45 -2.15039 0.793156 0
M  V30 11717 C 1116.45 -1.59651 -0.19192 0
M  V30 11718 O 1117.64 -1.74167 0.0337262 0
M  V30 11719 C 1114.77 -3.40433 0.17842 0
M  V30 11720 H 1115.97 -2.4575 1.71892 0
M  V30 11721 H 1113.52 -1.25892 0.926333 0
M  V30 11722 H 1114.25 -3.15338 -0.757122 0
M  V30 11723 H 1114.04 -3.81921 0.887645 0
M  V30 11724 H 1115.53 -4.17584 -0.0360724 0
M  V30 11725 N 1115.97 -0.914965 -1.28321 0
M  V30 11726 C 1117.19 -0.564023 -1.99583 0
M  V30 11727 C 1117.62 0.847821 -1.6791 0
M  V30 11728 O 1116.97 1.56682 -0.912171 0
M  V30 11729 C 1117.02 -0.781368 -3.52033 0
M  V30 11730 O 1116.13 0.159072 -4.12093 0
M  V30 11731 H 1115.47 -0.218565 -0.626997 0
M  V30 11732 H 1118 -1.23074 -1.63444 0
M  V30 11733 H 1118.01 -0.691946 -4.0209 0
M  V30 11734 H 1116.68 -1.81059 -3.7442 0
M  V30 11735 H 1115.26 0.0208145 -3.72894 0
M  V30 11736 N 1117.44 1.42219 -0.679077 0
M  V30 11737 C 1118.69 2.01081 -0.202718 0
M  V30 11738 C 1119.01 1.53986 1.19639 0
M  V30 11739 O 1118.28 0.763359 1.80415 0
M  V30 11740 H 1116.86 0.743526 -0.0719547 0
M  V30 11741 H 1119.52 1.74077 -0.876544 0
M  V30 11742 H 1118.62 3.11411 -0.207314 0
M  V30 11743 N 1118.92 0.422693 1.51826 0
M  V30 11744 C 1119.88 -0.384307 2.25955 0
M  V30 11745 C 1120.88 -0.962184 1.28836 0
M  V30 11746 O 1122.07 -0.838931 1.52668 0
M  V30 11747 C 1119.21 -1.54228 3.04018 0
M  V30 11748 H 1120.4 0.265157 2.98726 0
M  V30 11749 H 1117.95 0.175515 1.55311 0
M  V30 11750 H 1118.69 -2.22822 2.35629 0
M  V30 11751 H 1118.47 -1.13425 3.75336 0
M  V30 11752 H 1119.96 -2.1128 3.60209 0
M  V30 11753 N 1120.4 -1.5685 0.153553 0
M  V30 11754 C 1121.65 -1.95509 -0.495911 0
M  V30 11755 C 1121.96 -1.04129 -1.65579 0
M  V30 11756 O 1123.17 -1.32394 -2.37032 0
M  V30 11757 C 1121.62 -3.47579 -0.933622 0
M  V30 11758 C 1121.23 -4.47555 0.199684 0
M  V30 11759 C 1122.98 -3.95092 -1.55251 0
M  V30 11760 C 1120.88 -5.90843 -0.256663 0
M  V30 11761 H 1119.81 -0.729919 -0.189035 0
M  V30 11762 H 1122.46 -1.81938 0.238947 0
M  V30 11763 H 1120.85 -3.56506 -1.72394 0
M  V30 11764 H 1122.02 -4.50329 0.976744 0
M  V30 11765 H 1120.33 -4.09997 0.727394 0
M  V30 11766 H 1122.93 -4.99588 -1.90567 0
M  V30 11767 H 1123.27 -3.37015 -2.4439 0
M  V30 11768 H 1123.81 -3.89109 -0.826969 0
M  V30 11769 H 1120.55 -6.52753 0.599515 0
M  V30 11770 H 1120.07 -5.91414 -0.999458 0
M  V30 11771 H 1121.75 -6.43131 -0.70649 0
M  V30 11772 N 1121.88 0.120221 -1.57141 0
M  V30 11773 C 1122.82 1.14751 -2.00252 0
M  V30 11774 C 1123.79 1.41217 -0.874462 0
M  V30 11775 O 1124.98 1.53104 -1.13859 0
M  V30 11776 C 1122.12 2.46923 -2.41087 0
M  V30 11777 C 1121.23 2.27403 -3.67303 0
M  V30 11778 C 1120.37 3.52797 -3.97125 0
M  V30 11779 C 1119.41 3.28429 -5.16528 0
M  V30 11780 N 1118.54 4.46022 -5.42226 0
M  V30 11781 H 1123.38 0.772884 -2.87803 0
M  V30 11782 H 1120.92 0.370137 -1.42367 0
M  V30 11783 H 1122.88 3.24025 -2.62799 0
M  V30 11784 H 1121.51 2.82281 -1.5658 0
M  V30 11785 H 1120.56 1.41224 -3.53214 0
M  V30 11786 H 1121.87 2.05373 -4.54558 0
M  V30 11787 H 1121.03 4.38318 -4.19479 0
M  V30 11788 H 1119.77 3.77857 -3.08343 0
M  V30 11789 H 1118.77 2.41299 -4.94019 0
M  V30 11790 H 1120 3.0474 -6.06886 0
M  V30 11791 H 1117.94 4.71205 -4.56401 0
M  V30 11792 H 1117.86 4.27092 -6.23802 0
M  V30 11793 H 1119.13 5.3268 -5.69098 0
M  V30 11794 N 1123.36 1.52689 0.390367 0
M  V30 11795 C 1124.63 1.58246 1.14968 0
M  V30 11796 C 1125.01 0.374808 2.07746 0
M  V30 11797 O 1124.36 -0.636969 2.19442 0
M  V30 11798 C 1124.57 2.92059 1.91056 0
M  V30 11799 C 1125.92 3.45745 2.46466 0
M  V30 11800 O 1126.94 2.93924 2.01214 0
M  V30 11801 O 1125.8 4.3628 3.29122 0
M  V30 11802 H 1122.9 0.638189 0.52597 0
M  V30 11803 H 1125.44 1.65024 0.39563 0
M  V30 11804 H 1124.21 3.71399 1.23201 0
M  V30 11805 H 1123.84 2.8866 2.73425 0
M  V30 11806 N 1124.83 -0.648732 1.43629 0
M  V30 11807 C 1125.77 -1.77417 1.45107 0
M  V30 11808 C 1126.78 -1.59067 0.346618 0
M  V30 11809 O 1127.97 -1.67705 0.611322 0
M  V30 11810 C 1125.07 -3.14906 1.25249 0
M  V30 11811 C 1124.24 -3.59874 2.48616 0
M  V30 11812 C 1123.3 -4.76181 2.23916 0
M  V30 11813 O 1122.33 -4.8539 2.97296 0
M  V30 11814 N 1123.53 -5.66691 1.25862 0
M  V30 11815 H 1126.29 -1.76626 2.42123 0
M  V30 11816 H 1123.85 -0.832725 1.38843 0
M  V30 11817 H 1125.85 -3.90408 1.06601 0
M  V30 11818 H 1124.42 -3.10443 0.366623 0
M  V30 11819 H 1123.64 -2.74768 2.82659 0
M  V30 11820 H 1124.92 -3.86665 3.30708 0
M  V30 11821 H 1124.32 -5.61927 0.652227 0
M  V30 11822 H 1122.88 -6.41895 1.13196 0
M  V30 11823 N 1126.31 -1.30234 -0.887518 0
M  V30 11824 C 1127.56 -1.18277 -1.63381 0
M  V30 11825 C 1127.87 0.262079 -1.93836 0
M  V30 11826 O 1129.08 0.503127 -2.66797 0
M  V30 11827 C 1127.54 -2.06944 -2.94452 0
M  V30 11828 C 1127.14 -3.56323 -2.71547 0
M  V30 11829 C 1128.89 -2.03743 -3.7241 0
M  V30 11830 C 1126.8 -4.37054 -3.98419 0
M  V30 11831 H 1125.73 -0.439087 -0.612959 0
M  V30 11832 H 1128.38 -1.54964 -0.982779 0
M  V30 11833 H 1126.76 -1.63138 -3.60835 0
M  V30 11834 H 1127.93 -4.08261 -2.13681 0
M  V30 11835 H 1126.25 -3.61321 -2.06969 0
M  V30 11836 H 1128.84 -2.61312 -4.66497 0
M  V30 11837 H 1129.19 -1.02029 -4.03603 0
M  V30 11838 H 1129.72 -2.45657 -3.12886 0
M  V30 11839 H 1126.46 -5.39453 -3.72385 0
M  V30 11840 H 1125.98 -3.89881 -4.55799 0
M  V30 11841 H 1127.66 -4.48356 -4.66462 0
M  V30 11842 N 1127.79 1.09952 -1.12909 0
M  V30 11843 C 1129.02 1.8633 -0.910821 0
M  V30 11844 C 1129.44 1.80335 0.534874 0
M  V30 11845 O 1128.8 1.1769 1.37908 0
M  V30 11846 C 1128.85 3.32462 -1.39648 0
M  V30 11847 O 1127.95 4.08327 -0.578192 0
M  V30 11848 H 1127.29 0.577984 -0.32685 0
M  V30 11849 H 1129.82 1.38883 -1.50242 0
M  V30 11850 H 1129.83 3.83311 -1.39774 0
M  V30 11851 H 1128.51 3.36141 -2.44913 0
M  V30 11852 H 1127.08 3.67291 -0.644347 0
M  V30 11853 N 1129.27 0.921757 1.27833 0
M  V30 11854 C 1130.52 0.557974 1.94245 0
M  V30 11855 C 1130.84 -0.90268 1.72849 0
M  V30 11856 O 1130.11 -1.63915 1.07279 0
M  V30 11857 H 1128.69 0.203364 0.718785 0
M  V30 11858 H 1131.35 1.17286 1.5566 0
M  V30 11859 H 1130.45 0.759202 3.02725 0
M  V30 11860 N 1130.75 -1.41857 0.686609 0
M  V30 11861 C 1131.98 -2.05401 0.222238 0
M  V30 11862 C 1132.38 -1.51731 -1.13023 0
M  V30 11863 O 1131.73 -0.656701 -1.71561 0
M  V30 11864 C 1131.79 -3.59381 0.0926608 0
M  V30 11865 C 1131.45 -4.35801 1.37573 0
M  V30 11866 C 1132.45 -4.65678 2.31171 0
M  V30 11867 C 1130.14 -4.75233 1.62661 0
M  V30 11868 C 1132.13 -5.33936 3.48125 0
M  V30 11869 C 1129.82 -5.43229 2.79902 0
M  V30 11870 C 1130.81 -5.72507 3.72458 0
M  V30 11871 O 1130.5 -6.39106 4.87646 0
M  V30 11872 H 1130.23 -0.668126 0.102876 0
M  V30 11873 H 1132.79 -1.82775 0.93714 0
M  V30 11874 H 1131.02 -3.80711 -0.67793 0
M  V30 11875 H 1132.71 -4.04529 -0.333364 0
M  V30 11876 H 1133.47 -4.35704 2.13042 0
M  V30 11877 H 1129.35 -4.51831 0.914862 0
M  V30 11878 H 1132.9 -5.56706 4.20386 0
M  V30 11879 H 1128.79 -5.72621 2.97951 0
M  V30 11880 H 1129.56 -6.576 4.87344 0
M  V30 11881 N 1132.22 -0.430739 -1.51599 0
M  V30 11882 C 1133.13 0.390347 -2.3133 0
M  V30 11883 C 1134.15 1.03376 -1.39962 0
M  V30 11884 O 1135.33 1.03057 -1.73035 0
M  V30 11885 C 1132.39 1.48039 -3.13505 0
M  V30 11886 C 1131.45 0.857792 -4.20643 0
M  V30 11887 C 1130.69 1.89589 -4.9889 0
M  V30 11888 O 1130.91 3.11717 -4.77691 0
M  V30 11889 O 1129.84 1.49009 -5.83164 0
M  V30 11890 H 1133.67 -0.260358 -3.02582 0
M  V30 11891 H 1131.25 -0.193428 -1.48143 0
M  V30 11892 H 1133.14 2.11272 -3.64612 0
M  V30 11893 H 1131.81 2.1153 -2.45024 0
M  V30 11894 H 1130.72 0.187592 -3.73629 0
M  V30 11895 H 1132.05 0.266474 -4.91478 0
M  V30 11896 N 1133.7 1.56767 -0.161869 0
M  V30 11897 C 1134.95 1.96206 0.484537 0
M  V30 11898 C 1135.27 1.04848 1.64414 0
M  V30 11899 O 1134.54 0.112946 1.95574 0
M  V30 11900 H 1133.12 0.724491 0.181994 0
M  V30 11901 H 1135.78 1.93406 -0.240845 0
M  V30 11902 H 1134.88 3.00279 0.85083 0
M  V30 11903 N 1135.18 -0.111886 1.57202 0
M  V30 11904 C 1136.43 -0.816794 1.84859 0
M  V30 11905 C 1136.75 -1.80079 0.748113 0
M  V30 11906 O 1136.02 -1.94578 -0.227235 0
M  V30 11907 H 1134.6 -0.304633 0.682061 0
M  V30 11908 H 1137.26 -0.097513 1.94656 0
M  V30 11909 H 1136.36 -1.35768 2.81022 0
M  V30 11910 N 1136.66 -1.52894 -0.382264 0
M  V30 11911 C 1137.62 -1.77497 -1.45008 0
M  V30 11912 C 1138.62 -0.64509 -1.47293 0
M  V30 11913 O 1139.81 -0.913192 -1.48346 0
M  V30 11914 C 1136.94 -1.88188 -2.8425 0
M  V30 11915 H 1138.14 -2.72849 -1.24473 0
M  V30 11916 H 1135.69 -1.43717 -0.61441 0
M  V30 11917 H 1136.42 -0.948451 -3.10121 0
M  V30 11918 H 1136.21 -2.70353 -2.83992 0
M  V30 11919 H 1137.7 -2.08873 -3.6161 0
M  V30 11920 N 1138.14 0.641106 -1.43971 0
M  V30 11921 C 1139.08 1.75352 -1.50068 0
M  V30 11922 C 1140.05 1.62386 -0.349266 0
M  V30 11923 O 1141.24 1.82455 -0.558118 0
M  V30 11924 C 1138.38 3.13561 -1.4413 0
M  V30 11925 C 1137.49 3.37574 -2.6957 0
M  V30 11926 C 1136.63 4.65698 -2.55535 0
M  V30 11927 C 1135.67 4.82857 -3.76186 0
M  V30 11928 N 1134.8 6.02249 -3.60888 0
M  V30 11929 H 1139.64 1.69477 -2.45116 0
M  V30 11930 H 1137.18 0.826871 -1.2166 0
M  V30 11931 H 1139.14 3.93476 -1.38681 0
M  V30 11932 H 1137.77 3.18476 -0.526563 0
M  V30 11933 H 1136.82 2.5167 -2.85248 0
M  V30 11934 H 1138.13 3.46135 -3.59154 0
M  V30 11935 H 1137.29 5.53759 -2.47862 0
M  V30 11936 H 1136.03 4.59479 -1.63495 0
M  V30 11937 H 1135.03 3.93229 -3.84254 0
M  V30 11938 H 1136.26 4.90898 -4.6925 0
M  V30 11939 H 1134.2 5.97138 -2.71591 0
M  V30 11940 H 1134.12 6.11822 -4.44083 0
M  V30 11941 H 1135.39 6.92898 -3.57088 0
M  V30 11942 N 1139.62 1.30703 0.880598 0
M  V30 11943 C 1140.84 1.22843 1.67106 0
M  V30 11944 C 1141.27 -0.204788 1.86982 0
M  V30 11945 O 1140.62 -1.14716 1.40392 0
M  V30 11946 C 1140.67 1.96685 3.02237 0
M  V30 11947 O 1139.78 1.29693 3.91476 0
M  V30 11948 H 1139.12 0.424661 0.51045 0
M  V30 11949 H 1141.65 1.72596 1.09871 0
M  V30 11950 H 1141.66 2.05874 3.52249 0
M  V30 11951 H 1140.33 3.00919 2.8709 0
M  V30 11952 H 1138.91 1.28886 3.49918 0
M  V30 11953 N 1141.09 -1.09351 1.1349 0
M  V30 11954 C 1142.06 -2.14185 0.815919 0
M  V30 11955 C 1143.06 -1.59845 -0.174976 0
M  V30 11956 O 1144.25 -1.74122 0.0521971 0
M  V30 11957 C 1141.38 -3.40224 0.214517 0
M  V30 11958 H 1142.57 -2.43913 1.74489 0
M  V30 11959 H 1140.12 -1.24902 0.939634 0
M  V30 11960 H 1140.86 -3.16123 -0.723634 0
M  V30 11961 H 1140.64 -3.80958 0.928102 0
M  V30 11962 H 1142.13 -4.17599 0.00821999 0
M  V30 11963 N 1142.57 -0.928524 -1.27343 0
M  V30 11964 C 1143.5 -0.385563 -2.25934 0
M  V30 11965 C 1144.52 0.484178 -1.55433 0
M  V30 11966 O 1145.71 0.296668 -1.76017 0
M  V30 11967 C 1142.81 0.466116 -3.35679 0
M  V30 11968 C 1141.98 -0.384523 -4.35707 0
M  V30 11969 C 1141.04 0.404644 -5.24642 0
M  V30 11970 O 1140.06 -0.187943 -5.6889 0
M  V30 11971 N 1141.27 1.70426 -5.54919 0
M  V30 11972 H 1144.03 -1.23306 -2.73159 0
M  V30 11973 H 1141.59 -0.796039 -1.40978 0
M  V30 11974 H 1143.58 1.00115 -3.92121 0
M  V30 11975 H 1142.15 1.21437 -2.88048 0
M  V30 11976 H 1141.37 -1.10085 -3.78517 0
M  V30 11977 H 1142.66 -0.966033 -4.99545 0
M  V30 11978 H 1142.06 2.20802 -5.20829 0
M  V30 11979 H 1140.62 2.1858 -6.14057 0
M  V30 11980 N 1144.05 1.41491 -0.694123 0
M  V30 11981 C 1145.46 1.84283 -0.299439 0
M  V30 11982 C 1145.81 1.58081 1.16211 0
M  V30 11983 O 1144.94 1.05051 1.89191 0
M  V30 11984 C 1145.53 3.34522 -0.536696 0
M  V30 11985 C 1144.09 3.7589 -0.195944 0
M  V30 11986 C 1143.24 2.64908 -0.819692 0
M  V30 11987 H 1146.19 1.31063 -0.894884 0
M  V30 11988 H 1146.21 3.79947 0.205062 0
M  V30 11989 H 1145.72 3.53561 -1.6005 0
M  V30 11990 H 1143.82 3.62452 0.863655 0
M  V30 11991 H 1143.94 4.74671 -0.649954 0
M  V30 11992 H 1142.3 2.53476 -0.249412 0
M  V30 11993 H 1143.08 2.86765 -1.88734 0
M  V30 11994 N 1145.53 0.438773 1.51369 0
M  V30 11995 C 1146.49 -0.36032 2.2635 0
M  V30 11996 C 1147.49 -0.948465 1.29849 0
M  V30 11997 O 1148.68 -0.822692 1.53549 0
M  V30 11998 C 1145.81 -1.50994 3.05636 0
M  V30 11999 H 1147.01 0.296826 2.98427 0
M  V30 12000 H 1144.56 0.191978 1.55117 0
M  V30 12001 H 1145.29 -2.2031 2.37979 0
M  V30 12002 H 1145.08 -1.09437 3.76518 0
M  V30 12003 H 1146.57 -2.07447 3.6243 0
M  V30 12004 N 1147.01 -1.56678 0.170181 0
M  V30 12005 C 1148.25 -1.97913 -0.469262 0
M  V30 12006 C 1148.61 -1.05438 -1.60936 0
M  V30 12007 O 1147.9 -0.0938273 -1.9137 0
M  V30 12008 C 1148.09 -3.43103 -1.00076 0
M  V30 12009 C 1147.92 -4.49617 0.0863088 0
M  V30 12010 C 1146.69 -5.02454 0.535589 0
M  V30 12011 C 1148.89 -5.06606 0.886289 0
M  V30 12012 N 1146.87 -5.926 1.60308 0
M  V30 12013 C 1148.24 -5.93182 1.80374 0
M  V30 12014 C 1150.3 -4.89109 0.931495 0
M  V30 12015 C 1149 -6.64134 2.76257 0
M  V30 12016 C 1151.03 -5.60781 1.87827 0
M  V30 12017 C 1150.39 -6.47084 2.78319 0
M  V30 12018 H 1146.49 -0.769393 -0.139852 0
M  V30 12019 H 1149.07 -1.92817 0.270136 0
M  V30 12020 H 1147.24 -3.48747 -1.70968 0
M  V30 12021 H 1148.98 -3.71351 -1.60874 0
M  V30 12022 H 1145.73 -4.73412 0.133508 0
M  V30 12023 H 1146.15 -6.42378 2.13729 0
M  V30 12024 H 1150.8 -4.22084 0.245904 0
M  V30 12025 H 1148.51 -7.30373 3.45805 0
M  V30 12026 H 1152.1 -5.49229 1.91934 0
M  V30 12027 H 1150.98 -7.01569 3.50386 0
M  V30 12028 N 1148.48 0.103547 -1.57259 0
M  V30 12029 C 1149.76 0.839768 -1.76656 0
M  V30 12030 C 1150.14 1.9734 -0.749666 0
M  V30 12031 O 1149.49 2.27405 0.223466 0
M  V30 12032 C 1149.7 1.34218 -3.22159 0
M  V30 12033 C 1151.05 1.78835 -3.85102 0
M  V30 12034 O 1152.07 1.43861 -3.25857 0
M  V30 12035 O 1150.93 2.43474 -4.89267 0
M  V30 12036 H 1148.02 0.399928 -0.723869 0
M  V30 12037 H 1150.57 0.0860857 -1.69482 0
M  V30 12038 H 1149.34 0.52956 -3.877 0
M  V30 12039 H 1148.96 2.15811 -3.33933 0
M  V30 12040 N 1149.96 1.53094 0.37415 0
M  V30 12041 C 1150.92 1.78264 1.44065 0
M  V30 12042 C 1151.92 0.652892 1.46949 0
M  V30 12043 O 1153.11 0.921046 1.47859 0
M  V30 12044 C 1150.25 1.89693 2.83248 0
M  V30 12045 H 1151.44 2.73505 1.23025 0
M  V30 12046 H 1148.99 1.44041 0.60678 0
M  V30 12047 H 1149.73 0.964884 3.09613 0
M  V30 12048 H 1149.51 2.71855 2.82554 0
M  V30 12049 H 1151 2.10787 3.60498 0
M  V30 12050 N 1151.44 -0.633461 1.44309 0
M  V30 12051 C 1152.67 -1.41827 1.50229 0
M  V30 12052 C 1153.08 -1.88786 0.125082 0
M  V30 12053 O 1152.42 -1.61314 -0.878836 0
M  V30 12054 C 1152.48 -2.67372 2.40317 0
M  V30 12055 C 1152.15 -2.42224 3.87526 0
M  V30 12056 C 1153.14 -2.04199 4.7812 0
M  V30 12057 C 1150.83 -2.55936 4.32206 0
M  V30 12058 C 1152.82 -1.80211 6.11394 0
M  V30 12059 C 1150.51 -2.31563 5.65528 0
M  V30 12060 C 1151.51 -1.93758 6.5494 0
M  V30 12061 O 1151.2 -1.69654 7.85794 0
M  V30 12062 H 1150.93 -0.441478 0.51193 0
M  V30 12063 H 1153.48 -0.782118 1.89927 0
M  V30 12064 H 1151.71 -3.33616 1.95543 0
M  V30 12065 H 1153.4 -3.2937 2.37214 0
M  V30 12066 H 1154.17 -1.93164 4.44874 0
M  V30 12067 H 1150.05 -2.84333 3.62872 0
M  V30 12068 H 1153.59 -1.50628 6.81144 0
M  V30 12069 H 1149.49 -2.42206 5.98336 0
M  V30 12070 H 1150.25 -1.83919 7.97569 0
M  V30 12071 N 1152.92 -1.31168 -0.873655 0
M  V30 12072 C 1153.85 -1.12836 -1.98351 0
M  V30 12073 C 1154.83 -0.0328679 -1.62567 0
M  V30 12074 O 1156.01 -0.18859 -1.87554 0
M  V30 12075 C 1153.14 -0.72332 -3.30886 0
M  V30 12076 C 1152.19 -1.82132 -3.85656 0
M  V30 12077 S 1153.02 -3.42604 -4.11562 0
M  V30 12078 C 1154.18 -3.04028 -5.471 0
M  V30 12079 H 1154.41 -2.06793 -2.13597 0
M  V30 12080 H 1151.94 -1.15611 -1.0234 0
M  V30 12081 H 1153.9 -0.496371 -4.07488 0
M  V30 12082 H 1152.56 0.197077 -3.13481 0
M  V30 12083 H 1151.75 -1.49046 -4.81458 0
M  V30 12084 H 1151.36 -2.00314 -3.15833 0
M  V30 12085 H 1153.65 -2.52692 -6.28612 0
M  V30 12086 H 1154.59 -3.9878 -5.85133 0
M  V30 12087 H 1155 -2.41574 -5.10198 0
M  V30 12088 N 1154.4 1.08748 -1.14068 0
M  V30 12089 C 1155.34 2.15573 -0.824425 0
M  V30 12090 C 1156.31 1.64683 0.216522 0
M  V30 12091 O 1157.5 1.90601 0.0872193 0
M  V30 12092 C 1154.64 3.43756 -0.30423 0
M  V30 12093 C 1153.75 4.08512 -1.40506 0
M  V30 12094 C 1152.89 5.24477 -0.842479 0
M  V30 12095 C 1151.93 5.81167 -1.92123 0
M  V30 12096 N 1151.06 6.88483 -1.37608 0
M  V30 12097 H 1155.9 2.41968 -1.73941 0
M  V30 12098 H 1153.44 1.18751 -0.868143 0
M  V30 12099 H 1155.4 4.17197 0.0155546 0
M  V30 12100 H 1154.03 3.17658 0.573868 0
M  V30 12101 H 1153.08 3.32866 -1.84131 0
M  V30 12102 H 1154.39 4.46669 -2.2201 0
M  V30 12103 H 1153.55 6.04842 -0.474389 0
M  V30 12104 H 1152.28 4.877 0.00355212 0
M  V30 12105 H 1151.29 4.99458 -2.29831 0
M  V30 12106 H 1152.51 6.20003 -2.77079 0
M  V30 12107 H 1150.46 6.53672 -0.552168 0
M  V30 12108 H 1150.38 7.25446 -2.12752 0
M  V30 12109 H 1151.65 7.72588 -1.03578 0
M  V30 12110 N 1155.87 0.935264 1.26849 0
M  V30 12111 C 1156.84 0.44485 2.24842 0
M  V30 12112 C 1157.84 -0.440781 1.54641 0
M  V30 12113 O 1159.03 -0.240793 1.72528 0
M  V30 12114 C 1156.16 -0.359566 3.38998 0
M  V30 12115 H 1157.35 1.31074 2.6974 0
M  V30 12116 H 1154.91 0.716665 1.38901 0
M  V30 12117 H 1155.64 -1.24396 2.99493 0
M  V30 12118 H 1155.43 0.275529 3.91131 0
M  V30 12119 H 1156.92 -0.692804 4.11813 0
M  V30 12120 N 1157.35 -1.41121 0.701616 0
M  V30 12121 C 1158.6 -2.01428 0.235495 0
M  V30 12122 C 1158.93 -1.55463 -1.16382 0
M  V30 12123 O 1158.21 -0.768477 -1.78675 0
M  V30 12124 C 1158.49 -3.58849 0.299919 0
M  V30 12125 C 1158.34 -4.14924 1.73661 0
M  V30 12126 C 1159.66 -4.38809 -0.336856 0
M  V30 12127 H 1156.78 -0.731842 0.0870456 0
M  V30 12128 H 1159.42 -1.67787 0.891479 0
M  V30 12129 H 1157.57 -3.87638 -0.258611 0
M  V30 12130 H 1159.24 -3.96987 2.34945 0
M  V30 12131 H 1157.49 -3.69738 2.26884 0
M  V30 12132 H 1158.16 -5.24085 1.73318 0
M  V30 12133 H 1160.63 -4.15868 0.138886 0
M  V30 12134 H 1159.51 -5.48278 -0.261264 0
M  V30 12135 H 1159.77 -4.18728 -1.41843 0
M  V30 12136 N 1158.83 -0.446794 -1.51134 0
M  V30 12137 C 1159.76 0.350229 -2.30858 0
M  V30 12138 C 1160.74 1.0125 -1.36684 0
M  V30 12139 O 1161.93 1.01433 -1.65605 0
M  V30 12140 C 1159.06 1.4464 -3.15748 0
M  V30 12141 C 1158.01 0.907102 -4.18277 0
M  V30 12142 C 1157.34 2.09974 -4.91747 0
M  V30 12143 C 1158.64 -0.0649758 -5.2226 0
M  V30 12144 H 1160.33 -0.315105 -2.97737 0
M  V30 12145 H 1157.88 -0.152985 -1.43185 0
M  V30 12146 H 1159.83 2.01127 -3.70305 0
M  V30 12147 H 1158.55 2.14016 -2.46708 0
M  V30 12148 H 1157.21 0.364382 -3.64785 0
M  V30 12149 H 1156.86 2.77991 -4.19202 0
M  V30 12150 H 1156.56 1.74523 -5.61084 0
M  V30 12151 H 1158.08 2.66996 -5.49131 0
M  V30 12152 H 1159.5 0.4099 -5.71833 0
M  V30 12153 H 1157.9 -0.332529 -5.99178 0
M  V30 12154 H 1158.97 -0.998681 -4.74504 0
M  V30 12155 N 1160.31 1.56586 -0.178487 0
M  V30 12156 C 1161.22 2.21903 0.761321 0
M  V30 12157 C 1162.23 1.21289 1.2476 0
M  V30 12158 O 1163.41 1.53974 1.29823 0
M  V30 12159 C 1160.48 2.85259 1.97048 0
M  V30 12160 C 1159.54 4.01095 1.53039 0
M  V30 12161 C 1158.77 4.61421 2.68191 0
M  V30 12162 O 1158.99 4.20644 3.85247 0
M  V30 12163 O 1157.93 5.51171 2.41855 0
M  V30 12164 H 1161.75 3.02788 0.235141 0
M  V30 12165 H 1159.34 1.49316 0.0500442 0
M  V30 12166 H 1161.22 3.25404 2.6775 0
M  V30 12167 H 1159.89 2.07366 2.48558 0
M  V30 12168 H 1158.8 3.65606 0.792661 0
M  V30 12169 H 1160.13 4.80603 1.06213 0
M  V30 12170 N 1161.79 -0.095206 1.57312 0
M  V30 12171 C 1163.03 -0.797142 1.85715 0
M  V30 12172 C 1163.36 -1.79275 0.767171 0
M  V30 12173 O 1162.63 -1.94808 -0.206584 0
M  V30 12174 H 1161.21 -0.297382 0.685254 0
M  V30 12175 H 1163.87 -0.0768617 1.94748 0
M  V30 12176 H 1162.96 -1.32779 2.82447 0
M  V30 12177 N 1163.26 -1.53291 -0.366026 0
M  V30 12178 C 1164.51 -1.69702 -1.11036 0
M  V30 12179 C 1164.84 -0.44728 -1.88979 0
M  V30 12180 O 1164.12 0.55542 -1.86401 0
M  V30 12181 C 1164.4 -2.94661 -2.06995 0
M  V30 12182 C 1164.25 -4.29791 -1.32663 0
M  V30 12183 C 1165.57 -3.15219 -3.07123 0
M  V30 12184 H 1162.69 -0.617525 -0.402284 0
M  V30 12185 H 1165.33 -1.85929 -0.391223 0
M  V30 12186 H 1163.48 -2.80958 -2.68318 0
M  V30 12187 H 1165.16 -4.55305 -0.741266 0
M  V30 12188 H 1163.4 -4.29223 -0.628484 0
M  V30 12189 H 1164.07 -5.13359 -2.02896 0
M  V30 12190 H 1166.55 -3.28105 -2.55903 0
M  V30 12191 H 1165.42 -4.04088 -3.71489 0
M  V30 12192 H 1165.68 -2.30479 -3.77269 0
M  V30 12193 N 1164.74 0.6258 -1.44643 0
M  V30 12194 C 1166.15 1.20751 -1.42394 0
M  V30 12195 C 1166.5 1.95685 -0.142047 0
M  V30 12196 O 1165.63 2.02715 0.757332 0
M  V30 12197 C 1166.22 2.1964 -2.57961 0
M  V30 12198 C 1164.78 2.73227 -2.5889 0
M  V30 12199 C 1163.93 1.48315 -2.34303 0
M  V30 12200 H 1166.88 0.416162 -1.53146 0
M  V30 12201 H 1166.9 3.02342 -2.31019 0
M  V30 12202 H 1166.41 1.65073 -3.51244 0
M  V30 12203 H 1164.52 3.31782 -1.69563 0
M  V30 12204 H 1164.63 3.18902 -3.57545 0
M  V30 12205 H 1162.99 1.76634 -1.83501 0
M  V30 12206 H 1163.78 0.956427 -3.29708 0
M  V30 12207 N 1166.22 1.31629 0.866686 0
M  V30 12208 C 1167.13 1.21524 2.00671 0
M  V30 12209 C 1168.15 0.131277 1.73504 0
M  V30 12210 O 1169.32 0.349699 1.98341 0
M  V30 12211 C 1166.39 0.926491 3.34091 0
M  V30 12212 C 1165.45 2.09769 3.7456 0
M  V30 12213 C 1164.68 1.82262 5.01614 0
M  V30 12214 O 1164.9 0.759329 5.65323 0
M  V30 12215 O 1163.84 2.68031 5.38928 0
M  V30 12216 H 1167.66 2.17335 2.1213 0
M  V30 12217 H 1165.25 1.11401 0.995499 0
M  V30 12218 H 1167.13 0.78144 4.14091 0
M  V30 12219 H 1165.81 -0.00155829 3.237 0
M  V30 12220 H 1164.71 2.29816 2.95187 0
M  V30 12221 H 1166.05 3.0081 3.89582 0
M  V30 12222 N 1167.7 -1.08142 1.14644 0
M  V30 12223 C 1168.63 -2.15022 0.793614 0
M  V30 12224 C 1169.64 -1.61679 -0.190729 0
M  V30 12225 O 1170.83 -1.78472 0.0313696 0
M  V30 12226 C 1167.93 -3.38532 0.157785 0
M  V30 12227 C 1167.11 -4.21252 1.17753 0
M  V30 12228 C 1166.17 -5.23158 0.564968 0
M  V30 12229 O 1165.19 -5.5578 1.22869 0
M  V30 12230 N 1166.39 -5.7677 -0.657022 0
M  V30 12231 H 1169.16 -2.45893 1.71338 0
M  V30 12232 H 1166.72 -1.23976 1.04122 0
M  V30 12233 H 1168.71 -4.03834 -0.264586 0
M  V30 12234 H 1167.28 -3.05441 -0.665168 0
M  V30 12235 H 1166.5 -3.51888 1.77675 0
M  V30 12236 H 1167.79 -4.73335 1.86632 0
M  V30 12237 H 1167.19 -5.52503 -1.21478 0
M  V30 12238 H 1165.74 -6.4374 -1.02186 0
M  V30 12239 N 1169.18 -0.941978 -1.26351 0
M  V30 12240 C 1170.59 -0.632522 -1.75659 0
M  V30 12241 C 1170.94 0.852287 -1.76722 0
M  V30 12242 O 1170.06 1.66701 -1.37985 0
M  V30 12243 C 1170.66 -1.14145 -3.18993 0
M  V30 12244 C 1169.22 -0.882391 -3.65911 0
M  V30 12245 C 1168.37 -1.29189 -2.45368 0
M  V30 12246 H 1171.32 -1.12019 -1.12416 0
M  V30 12247 H 1171.34 -0.495639 -3.77258 0
M  V30 12248 H 1170.85 -2.22213 -3.18187 0
M  V30 12249 H 1168.95 0.183873 -3.72146 0
M  V30 12250 H 1169.06 -1.50996 -4.54683 0
M  V30 12251 H 1167.43 -0.710316 -2.44595 0
M  V30 12252 H 1168.21 -2.38152 -2.47262 0
M  V30 12253 N 1170.66 1.40747 -0.709091 0
M  V30 12254 C 1171.59 2.33404 -0.0669763 0
M  V30 12255 C 1172.57 1.52546 0.752582 0
M  V30 12256 O 1173.75 1.81036 0.702823 0
M  V30 12257 C 1170.88 3.36476 0.860285 0
M  V30 12258 C 1169.84 4.27748 0.146828 0
M  V30 12259 C 1169.16 5.21304 1.18937 0
M  V30 12260 C 1170.46 5.12734 -0.995064 0
M  V30 12261 H 1172.16 2.87349 -0.840888 0
M  V30 12262 H 1169.7 1.38163 -0.405817 0
M  V30 12263 H 1171.65 4.00231 1.31883 0
M  V30 12264 H 1170.38 2.80912 1.66602 0
M  V30 12265 H 1169.04 3.65437 -0.291826 0
M  V30 12266 H 1168.69 4.62048 1.98798 0
M  V30 12267 H 1168.39 5.8321 0.716917 0
M  V30 12268 H 1169.91 5.87936 1.64815 0
M  V30 12269 H 1171.32 5.69979 -0.61618 0
M  V30 12270 H 1169.72 5.83649 -1.39547 0
M  V30 12271 H 1170.79 4.49097 -1.82867 0
M  V30 12272 N 1172.13 0.454803 1.50895 0
M  V30 12273 C 1173.36 -0.103936 2.06639 0
M  V30 12274 C 1173.78 -1.34943 1.32044 0
M  V30 12275 O 1173.13 -1.78393 0.384972 0
M  V30 12276 C 1173.18 -0.408546 3.59184 0
M  V30 12277 O 1172.91 0.787535 4.30963 0
M  V30 12278 C 1174.41 -1.01605 4.31499 0
M  V30 12279 H 1171.63 -0.000171839 0.671 0
M  V30 12280 H 1174.17 0.638907 1.94263 0
M  V30 12281 H 1172.33 -1.1013 3.71416 0
M  V30 12282 H 1172.74 0.52229 5.21893 0
M  V30 12283 H 1174.21 -1.17906 5.39261 0
M  V30 12284 H 1174.69 -2.00182 3.90927 0
M  V30 12285 H 1175.3 -0.362155 4.23755 0
M  V30 12286 N 1173.61 -1.56489 0.186789 0
M  V30 12287 C 1175.02 -1.83809 -0.327265 0
M  V30 12288 C 1175.37 -1.10718 -1.61976 0
M  V30 12289 O 1174.5 -0.36525 -2.13295 0
M  V30 12290 C 1175.09 -3.33435 -0.600551 0
M  V30 12291 C 1173.65 -3.61195 -1.059 0
M  V30 12292 C 1172.8 -2.77108 -0.103131 0
M  V30 12293 H 1175.75 -1.53292 0.410747 0
M  V30 12294 H 1175.77 -3.51754 -1.45084 0
M  V30 12295 H 1175.28 -3.86605 0.340315 0
M  V30 12296 H 1173.38 -3.13451 -2.01443 0
M  V30 12297 H 1173.5 -4.69435 -0.957458 0
M  V30 12298 H 1171.86 -2.47448 -0.603449 0
M  V30 12299 H 1172.64 -3.33065 0.832031 0
M  V30 12300 N 1175.09 0.086862 -1.5736 0
M  V30 12301 C 1176.5 0.640442 -1.75372 0
M  V30 12302 C 1176.85 1.78693 -0.81014 0
M  V30 12303 O 1175.98 2.16398 0.00940712 0
M  V30 12304 C 1176.57 1.16856 -3.1801 0
M  V30 12305 C 1175.13 1.66813 -3.37417 0
M  V30 12306 C 1174.28 0.58116 -2.71142 0
M  V30 12307 H 1177.23 -0.139249 -1.58088 0
M  V30 12308 H 1177.25 2.03772 -3.21337 0
M  V30 12309 H 1176.76 0.333909 -3.86661 0
M  V30 12310 H 1174.86 2.52652 -2.73858 0
M  V30 12311 H 1174.98 1.75545 -4.45781 0
M  V30 12312 H 1173.34 1.0226 -2.3327 0
M  V30 12313 H 1174.12 -0.243047 -3.42439 0
M  V30 12314 N 1176.57 1.53483 0.357892 0
M  V30 12315 C 1177.98 1.61641 0.934289 0
M  V30 12316 C 1178.33 0.488655 1.90017 0
M  V30 12317 O 1177.45 -0.38378 2.1297 0
M  V30 12318 C 1178.05 2.92987 1.7013 0
M  V30 12319 C 1176.61 3.03456 2.22692 0
M  V30 12320 C 1175.76 2.56992 1.04165 0
M  V30 12321 H 1178.71 1.58112 0.136452 0
M  V30 12322 H 1178.73 2.81221 2.5631 0
M  V30 12323 H 1178.24 3.75047 0.998056 0
M  V30 12324 H 1176.34 2.25999 2.96235 0
M  V30 12325 H 1176.45 4.08673 2.50046 0
M  V30 12326 H 1174.82 2.12052 1.41088 0
M  V30 12327 H 1175.6 3.41477 0.353272 0
M  V30 12328 N 1178.05 -0.61812 1.44973 0
M  V30 12329 C 1179.29 -1.37468 1.48145 0
M  V30 12330 C 1179.61 -1.94628 0.120366 0
M  V30 12331 O 1178.88 -1.76548 -0.848982 0
M  V30 12332 H 1177.46 -0.510293 0.545536 0
M  V30 12333 H 1180.13 -0.726598 1.8085 0
M  V30 12334 H 1179.22 -2.19944 2.2143 0
M  V30 12335 N 1179.52 -1.32087 -0.859693 0
M  V30 12336 C 1180.77 -1.21716 -1.60836 0
M  V30 12337 C 1181.09 0.220904 -1.94349 0
M  V30 12338 O 1182.29 0.446422 -2.67805 0
M  V30 12339 C 1180.75 -2.13143 -2.89997 0
M  V30 12340 C 1180.36 -3.62003 -2.63928 0
M  V30 12341 C 1182.1 -2.11596 -3.68004 0
M  V30 12342 C 1180.01 -4.45407 -3.89059 0
M  V30 12343 H 1178.94 -0.45199 -0.603507 0
M  V30 12344 H 1181.59 -1.57013 -0.949687 0
M  V30 12345 H 1179.97 -1.70755 -3.57294 0
M  V30 12346 H 1181.14 -4.12701 -2.04974 0
M  V30 12347 H 1179.46 -3.6563 -1.99258 0
M  V30 12348 H 1182.06 -2.71149 -4.6085 0
M  V30 12349 H 1182.4 -1.10568 -4.01348 0
M  V30 12350 H 1182.93 -2.52238 -3.07605 0
M  V30 12351 H 1179.67 -5.4723 -3.60859 0
M  V30 12352 H 1179.19 -3.99462 -4.47427 0
M  V30 12353 H 1180.87 -4.58149 -4.56846 0
M  V30 12354 N 1181 1.07532 -1.15215 0
M  V30 12355 C 1182.25 1.8036 -0.927263 0
M  V30 12356 C 1182.58 1.86414 0.544371 0
M  V30 12357 O 1181.86 1.34653 1.40353 0
M  V30 12358 C 1182.14 3.25512 -1.53992 0
M  V30 12359 C 1181.99 3.27614 -3.08203 0
M  V30 12360 C 1183.31 4.22731 -1.22418 0
M  V30 12361 H 1180.43 0.654775 -0.338289 0
M  V30 12362 H 1183.07 1.25842 -1.42351 0
M  V30 12363 H 1181.22 3.72068 -1.11791 0
M  V30 12364 H 1182.89 2.89315 -3.59297 0
M  V30 12365 H 1181.14 2.66627 -3.42188 0
M  V30 12366 H 1181.81 4.29956 -3.46182 0
M  V30 12367 H 1184.28 3.84557 -1.58919 0
M  V30 12368 H 1183.16 5.22589 -1.67906 0
M  V30 12369 H 1183.42 4.41875 -0.14091 0
M  V30 12370 N 1182.48 0.948665 1.2585 0
M  V30 12371 C 1183.71 0.617229 1.97479 0
M  V30 12372 C 1184.12 -0.809406 1.7057 0
M  V30 12373 O 1183.48 -1.54066 0.97826 0
M  V30 12374 C 1183.53 0.859065 3.51144 0
M  V30 12375 O 1183.25 2.2296 3.77121 0
M  V30 12376 C 1184.75 0.539197 4.40009 0
M  V30 12377 H 1181.97 0.231933 0.629641 0
M  V30 12378 H 1184.52 1.27141 1.60173 0
M  V30 12379 H 1182.67 0.25138 3.86584 0
M  V30 12380 H 1183.09 2.29524 4.71613 0
M  V30 12381 H 1184.56 0.758986 5.46757 0
M  V30 12382 H 1185.04 -0.526062 4.36038 0
M  V30 12383 H 1185.64 1.12594 4.10125 0
M  V30 12384 N 1183.96 -1.40369 0.716545 0
M  V30 12385 C 1185.2 -2.01167 0.256846 0
M  V30 12386 C 1185.54 -1.56689 -1.14727 0
M  V30 12387 O 1184.81 -0.787384 -1.7785 0
M  V30 12388 C 1185.1 -3.58511 0.337963 0
M  V30 12389 C 1184.95 -4.13059 1.78052 0
M  V30 12390 C 1186.27 -4.39142 -0.290295 0
M  V30 12391 H 1183.39 -0.730877 0.0948028 0
M  V30 12392 H 1186.03 -1.66833 0.909225 0
M  V30 12393 H 1184.18 -3.87891 -0.217482 0
M  V30 12394 H 1185.85 -3.94472 2.39143 0
M  V30 12395 H 1184.09 -3.67311 2.30793 0
M  V30 12396 H 1184.76 -5.22217 1.78867 0
M  V30 12397 H 1187.24 -4.15697 0.182987 0
M  V30 12398 H 1186.12 -5.48524 -0.203097 0
M  V30 12399 H 1186.38 -4.20209 -1.37394 0
M  V30 12400 N 1185.44 -0.462799 -1.50652 0
M  V30 12401 C 1186.38 0.349784 -2.29955 0
M  V30 12402 C 1187.38 0.997947 -1.36885 0
M  V30 12403 O 1188.58 0.93 -1.54114 0
M  V30 12404 H 1184.96 0.131635 -0.740389 0
M  V30 12405 H 1186.93 -0.33958 -2.96461 0
M  V30 12406 C 1185.68 1.42398 -3.17204 0
M  V30 12407 H 1185 0.934611 -3.88722 0
M  V30 12408 H 1186.44 1.96528 -3.75703 0
M  V30 12409 C 1184.9 2.42135 -2.34248 0
M  V30 12410 O 1185.43 3.47229 -2.01978 0
M  V30 12411 N 1183.64 2.13647 -1.96985 0
M  V30 12412 H 1183.18 1.28209 -2.23428 0
M  V30 12413 H 1183.14 2.80615 -1.41783 0
M  V30 12414 N 1186.91 1.56388 -0.195085 0
M  V30 12415 C 1188.16 1.96755 0.443901 0
M  V30 12416 C 1188.48 1.08483 1.6276 0
M  V30 12417 O 1189.68 1.38632 2.33438 0
M  V30 12418 C 1188.14 3.49933 0.841139 0
M  V30 12419 C 1187.75 4.46868 -0.318275 0
M  V30 12420 C 1189.49 3.99069 1.44721 0
M  V30 12421 C 1187.4 5.91316 0.0999211 0
M  V30 12422 H 1186.33 0.734674 0.169616 0
M  V30 12423 H 1188.98 1.8124 -0.287101 0
M  V30 12424 H 1187.36 3.60951 1.62881 0
M  V30 12425 H 1188.53 4.47581 -1.0958 0
M  V30 12426 H 1186.85 4.07925 -0.835842 0
M  V30 12427 H 1189.45 5.04465 1.77255 0
M  V30 12428 H 1189.79 3.43376 2.35369 0
M  V30 12429 H 1190.32 3.91165 0.723513 0
M  V30 12430 H 1187.06 6.50934 -0.77237 0
M  V30 12431 H 1186.58 5.93856 0.842304 0
M  V30 12432 H 1188.26 6.44778 0.535726 0
M  V30 12433 N 1188.39 -0.0785156 1.57404 0
M  V30 12434 C 1189.67 -0.811557 1.77969 0
M  V30 12435 C 1190.05 -1.96123 0.780966 0
M  V30 12436 O 1189.4 -2.27731 -0.18726 0
M  V30 12437 C 1189.61 -1.29075 3.24254 0
M  V30 12438 C 1190.96 -1.72685 3.87898 0
M  V30 12439 O 1191.98 -1.38658 3.28104 0
M  V30 12440 O 1190.84 -2.3566 4.93079 0
M  V30 12441 H 1187.93 -0.388361 0.73014 0
M  V30 12442 H 1190.48 -0.0591118 1.69597 0
M  V30 12443 H 1189.25 -0.467813 3.88494 0
M  V30 12444 H 1188.87 -2.10472 3.37324 0
M  V30 12445 N 1189.87 -1.5367 -0.349747 0
M  V30 12446 C 1191.29 -1.43796 -0.692457 0
M  V30 12447 C 1191.49 -0.58972 -1.92677 0
M  V30 12448 O 1190.54 -0.078294 -2.52379 0
M  V30 12449 C 1191.86 -2.872 -0.890881 0
M  V30 12450 C 1193.4 -2.96935 -0.989892 0
M  V30 12451 C 1193.88 -4.41433 -1.22068 0
M  V30 12452 N 1195.37 -4.44932 -1.28802 0
M  V30 12453 C 1196.1 -5.53864 -1.48398 0
M  V30 12454 N 1195.6 -6.72814 -1.65208 0
M  V30 12455 N 1197.39 -5.41467 -1.50896 0
M  V30 12456 H 1189.54 -2.07317 0.461895 0
M  V30 12457 H 1191.81 -0.936895 0.144681 0
M  V30 12458 H 1191.51 -3.51656 -0.0555095 0
M  V30 12459 H 1191.39 -3.31784 -1.79442 0
M  V30 12460 H 1193.77 -2.32622 -1.81579 0
M  V30 12461 H 1193.86 -2.55721 -0.0633906 0
M  V30 12462 H 1193.5 -5.06325 -0.399729 0
M  V30 12463 H 1193.43 -4.80233 -2.16064 0
M  V30 12464 H 1195.92 -3.59214 -1.17361 0
M  V30 12465 H 1196.23 -7.51598 -1.79779 0
M  V30 12466 H 1194.58 -6.7577 -1.62356 0
M  V30 12467 H 1197.77 -4.47498 -1.37342 0
M  V30 12468 H 1197.94 -6.26423 -1.65826 0
M  V30 12469 N 1191.35 0.610423 -1.45298 0
M  V30 12470 C 1192.57 1.40112 -1.52917 0
M  V30 12471 C 1193 1.87404 -0.161696 0
M  V30 12472 O 1192.36 1.59973 0.853135 0
M  V30 12473 C 1192.4 2.58359 -2.51561 0
M  V30 12474 O 1191.51 3.58895 -2.03146 0
M  V30 12475 H 1190.85 0.41841 -0.515586 0
M  V30 12476 H 1193.38 0.743159 -1.90626 0
M  V30 12477 H 1193.39 3.0564 -2.70275 0
M  V30 12478 H 1192.06 2.23286 -3.50879 0
M  V30 12479 H 1190.64 3.18282 -1.94296 0
M  V30 12480 N 1192.83 1.32541 0.852676 0
M  V30 12481 C 1194.05 1.2622 1.6394 0
M  V30 12482 C 1194.47 -0.169455 1.88038 0
M  V30 12483 O 1193.83 -1.10719 1.45078 0
M  V30 12484 C 1193.88 2.02062 2.99755 0
M  V30 12485 O 1193.6 3.39641 2.76723 0
M  V30 12486 C 1195.1 2.02787 3.94198 0
M  V30 12487 H 1192.32 0.435405 0.510552 0
M  V30 12488 H 1194.86 1.74696 1.06309 0
M  V30 12489 H 1193.02 1.57303 3.54026 0
M  V30 12490 H 1193.43 3.78484 3.63111 0
M  V30 12491 H 1194.91 2.60333 4.86755 0
M  V30 12492 H 1195.38 1.01464 4.27319 0
M  V30 12493 H 1195.99 2.47504 3.45864 0
M  V30 12494 N 1194.3 -1.0692 1.15784 0
M  V30 12495 C 1195.55 -1.79245 0.933581 0
M  V30 12496 C 1195.87 -1.87362 -0.540427 0
M  V30 12497 O 1195.14 -1.37769 -1.39271 0
M  V30 12498 H 1193.72 -0.663898 0.342416 0
M  V30 12499 H 1196.39 -1.29189 1.45932 0
M  V30 12500 H 1195.48 -2.81546 1.34679 0
M  V30 12501 N 1195.78 -0.955326 -1.25345 0
M  V30 12502 C 1196.71 -0.4334 -2.25065 0
M  V30 12503 C 1197.73 0.451099 -1.56425 0
M  V30 12504 O 1198.92 0.259265 -1.76607 0
M  V30 12505 C 1196.02 0.394809 -3.36592 0
M  V30 12506 C 1195.19 -0.476856 -4.34793 0
M  V30 12507 C 1194.25 0.293269 -5.25382 0
M  V30 12508 O 1193.27 -0.30857 -5.68363 0
M  V30 12509 N 1194.48 1.58617 -5.58409 0
M  V30 12510 H 1197.24 -1.29073 -2.70482 0
M  V30 12511 H 1194.8 -0.825764 -1.39258 0
M  V30 12512 H 1196.79 0.917747 -3.94157 0
M  V30 12513 H 1195.36 1.153 -2.90559 0
M  V30 12514 H 1194.58 -1.18089 -3.76097 0
M  V30 12515 H 1195.87 -1.07178 -4.97384 0
M  V30 12516 H 1195.27 2.09705 -5.25395 0
M  V30 12517 H 1193.83 2.05506 -6.18555 0
M  V30 12518 N 1197.26 1.39987 -0.723979 0
M  V30 12519 C 1198.19 2.3332 -0.0917282 0
M  V30 12520 C 1199.17 1.53335 0.736361 0
M  V30 12521 O 1200.36 1.81771 0.683582 0
M  V30 12522 C 1197.49 3.3737 0.824549 0
M  V30 12523 C 1196.44 4.2788 0.101452 0
M  V30 12524 C 1195.77 5.22536 1.13401 0
M  V30 12525 C 1197.07 5.11649 -1.04939 0
M  V30 12526 H 1198.76 2.86441 -0.871318 0
M  V30 12527 H 1196.31 1.37725 -0.420448 0
M  V30 12528 H 1198.26 4.01607 1.27631 0
M  V30 12529 H 1196.98 2.82663 1.63613 0
M  V30 12530 H 1195.64 3.65107 -0.330569 0
M  V30 12531 H 1195.29 4.64131 1.93886 0
M  V30 12532 H 1194.99 5.83938 0.65502 0
M  V30 12533 H 1196.52 5.89651 1.58569 0
M  V30 12534 H 1197.93 5.69293 -0.6766 0
M  V30 12535 H 1196.33 5.82137 -1.45729 0
M  V30 12536 H 1197.4 4.47132 -1.8762 0
M  V30 12537 N 1198.74 0.470782 1.50404 0
M  V30 12538 C 1199.7 -0.312227 2.27063 0
M  V30 12539 C 1200.7 -0.920709 1.31832 0
M  V30 12540 O 1201.89 -0.789937 1.5526 0
M  V30 12541 C 1199.02 -1.44477 3.0877 0
M  V30 12542 H 1200.22 0.36006 2.97731 0
M  V30 12543 H 1197.77 0.224837 1.54674 0
M  V30 12544 H 1198.51 -2.15212 2.42599 0
M  V30 12545 H 1198.29 -1.01426 3.78755 0
M  V30 12546 H 1199.78 -1.99713 3.66749 0
M  V30 12547 N 1200.22 -1.56282 0.203376 0
M  V30 12548 C 1201.17 -2.20822 -0.730784 0
M  V30 12549 C 1202.16 -1.18193 -1.21354 0
M  V30 12550 O 1203.37 -1.36318 -1.17547 0
M  V30 12551 H 1199.74 -0.707792 -0.254036 0
M  V30 12552 H 1201.71 -2.97955 -0.162825 0
M  V30 12553 C 1200.46 -2.88803 -1.93618 0
M  V30 12554 H 1199.78 -3.67521 -1.57379 0
M  V30 12555 H 1201.22 -3.37387 -2.56799 0
M  V30 12556 C 1199.68 -1.90285 -2.78017 0
M  V30 12557 O 1200.21 -1.40833 -3.76203 0
M  V30 12558 N 1198.42 -1.58332 -2.43679 0
M  V30 12559 H 1197.97 -1.9874 -1.63891 0
M  V30 12560 H 1197.92 -0.926722 -3.00432 0
M  V30 12561 N 1201.7 0.070167 -1.57444 0
M  V30 12562 C 1202.94 0.767495 -1.8696 0
M  V30 12563 C 1203.26 1.78032 -0.795595 0
M  V30 12564 O 1202.53 1.95112 0.175566 0
M  V30 12565 H 1201.11 0.286443 -0.689898 0
M  V30 12566 H 1203.78 0.0458692 -1.94846 0
M  V30 12567 H 1202.87 1.28269 -2.84523 0
M  V30 12568 N 1203.17 1.53854 0.341593 0
M  V30 12569 C 1204.42 1.70856 1.07948 0
M  V30 12570 C 1204.74 0.475474 1.89114 0
M  V30 12571 O 1204.01 -0.510592 1.89129 0
M  V30 12572 H 1202.59 0.629914 0.401519 0
M  V30 12573 H 1205.25 1.91112 0.382393 0
M  V30 12574 H 1204.35 2.5803 1.75575 0
M  V30 12575 N 1204.65 -0.602709 1.4562 0
M  V30 12576 C 1205.6 -1.73425 1.55005 0
M  V30 12577 C 1206.59 -1.64118 0.419713 0
M  V30 12578 O 1207.8 -1.69853 0.595815 0
M  V30 12579 H 1204.17 -0.573038 0.486962 0
M  V30 12580 H 1206.15 -1.62637 2.50184 0
M  V30 12581 C 1204.89 -3.11808 1.53853 0
M  V30 12582 H 1204.22 -3.19631 2.40158 0
M  V30 12583 H 1205.66 -3.90798 1.64477 0
M  V30 12584 C 1204.12 -3.35866 0.263765 0
M  V30 12585 O 1204.65 -3.96334 -0.654364 0
M  V30 12586 N 1202.85 -2.90171 0.157927 0
M  V30 12587 H 1202.4 -2.41144 0.905944 0
M  V30 12588 H 1202.36 -3.06641 -0.694175 0
M  V30 12589 N 1206.13 -1.32992 -0.845635 0
M  V30 12590 C 1207.35 -1.27231 -1.6379 0
M  V30 12591 C 1207.78 0.155141 -1.87459 0
M  V30 12592 O 1207.14 1.10953 -1.43384 0
M  V30 12593 C 1207.19 -2.04629 -2.96916 0
M  V30 12594 O 1206.29 -1.40027 -3.879 0
M  V30 12595 H 1205.63 -0.438045 -0.499011 0
M  V30 12596 H 1208.16 -1.75448 -1.05257 0
M  V30 12597 H 1208.17 -2.15141 -3.46667 0
M  V30 12598 H 1206.85 -3.08425 -2.79011 0
M  V30 12599 H 1205.42 -1.38118 -3.46378 0
M  V30 12600 N 1207.61 1.06304 -1.1635 0
M  V30 12601 C 1209.02 1.31227 -0.90838 0
M  V30 12602 C 1209.22 1.96665 0.438779 0
M  V30 12603 O 1208.28 2.2332 1.17833 0
M  V30 12604 C 1209.59 2.19303 -2.05734 0
M  V30 12605 C 1211.14 2.3272 -2.09309 0
M  V30 12606 C 1211.62 3.24151 -3.23559 0
M  V30 12607 N 1213.11 3.31734 -3.23275 0
M  V30 12608 C 1213.84 4.02572 -4.08318 0
M  V30 12609 N 1213.34 4.75933 -5.03448 0
M  V30 12610 N 1215.13 3.98621 -3.96305 0
M  V30 12611 H 1207.28 0.622228 -2.03081 0
M  V30 12612 H 1209.54 0.336892 -0.886119 0
M  V30 12613 H 1209.25 1.78497 -3.03037 0
M  V30 12614 H 1209.12 3.19888 -1.99879 0
M  V30 12615 H 1211.51 2.72774 -1.12599 0
M  V30 12616 H 1211.59 1.31804 -2.19229 0
M  V30 12617 H 1211.24 2.84813 -4.20528 0
M  V30 12618 H 1211.17 4.25046 -3.10875 0
M  V30 12619 H 1213.66 2.79453 -2.5439 0
M  V30 12620 H 1213.97 5.27512 -5.64758 0
M  V30 12621 H 1212.32 4.74913 -5.07427 0
M  V30 12622 H 1215.51 3.40427 -3.21289 0
M  V30 12623 H 1215.68 4.5356 -4.62804 0
M  V30 12624 N 1209.09 0.96196 1.24836 0
M  V30 12625 C 1210 0.494876 2.29321 0
M  V30 12626 C 1211.01 -0.441363 1.68309 0
M  V30 12627 O 1212.19 -0.315814 1.98908 0
M  V30 12628 C 1209.25 -0.212944 3.46045 0
M  V30 12629 C 1208.31 0.762411 4.22476 0
M  V30 12630 C 1207.55 0.0882756 5.33627 0
M  V30 12631 O 1207.77 -1.12459 5.59204 0
M  V30 12632 O 1206.7 0.777529 5.96857 0
M  V30 12633 H 1210.53 1.36333 2.7138 0
M  V30 12634 H 1208.11 0.728738 1.30421 0
M  V30 12635 H 1210 -0.610805 4.1695 0
M  V30 12636 H 1208.67 -1.05645 3.05975 0
M  V30 12637 H 1207.58 1.21062 3.5397 0
M  V30 12638 H 1208.91 1.57416 4.66349 0
M  V30 12639 N 1210.56 -1.39601 0.731392 0
M  V30 12640 C 1211.47 -2.34425 0.090527 0
M  V30 12641 C 1212.49 -1.58131 -0.725992 0
M  V30 12642 O 1213.67 -1.90441 -0.655294 0
M  V30 12643 C 1210.73 -3.37138 -0.808624 0
M  V30 12644 C 1209.79 -4.29295 0.0197365 0
M  V30 12645 C 1209.02 -5.27102 -0.836593 0
M  V30 12646 O 1209.25 -5.31302 -2.07543 0
M  V30 12647 O 1208.18 -6.01307 -0.267172 0
M  V30 12648 H 1212.01 -2.9088 0.873084 0
M  V30 12649 H 1209.59 -1.41066 0.492024 0
M  V30 12650 H 1211.47 -4.00087 -1.32319 0
M  V30 12651 H 1210.15 -2.83074 -1.57006 0
M  V30 12652 H 1209.06 -3.69581 0.579744 0
M  V30 12653 H 1210.39 -4.86555 0.743308 0
M  V30 12654 N 1212.04 -0.478751 -1.50152 0
M  V30 12655 C 1213.27 0.0709455 -2.06478 0
M  V30 12656 C 1213.68 1.33376 -1.34192 0
M  V30 12657 O 1213.02 1.79133 -0.40707 0
M  V30 12658 C 1213.09 0.417322 -3.5707 0
M  V30 12659 C 1212.75 -0.744563 -4.50894 0
M  V30 12660 C 1213.75 -1.62879 -4.93727 0
M  V30 12661 C 1211.43 -0.937062 -4.93482 0
M  V30 12662 C 1213.43 -2.68985 -5.77863 0
M  V30 12663 C 1211.11 -2.00134 -5.77399 0
M  V30 12664 C 1212.11 -2.87609 -6.19492 0
M  V30 12665 O 1211.8 -3.92203 -7.01735 0
M  V30 12666 H 1211.53 -0.00720177 -0.675962 0
M  V30 12667 H 1214.08 -0.668797 -1.94207 0
M  V30 12668 H 1212.31 1.21036 -3.6727 0
M  V30 12669 H 1214 0.903002 -3.95728 0
M  V30 12670 H 1214.77 -1.49179 -4.61488 0
M  V30 12671 H 1210.65 -0.265636 -4.60234 0
M  V30 12672 H 1214.19 -3.37293 -6.10639 0
M  V30 12673 H 1210.09 -2.13837 -6.09052 0
M  V30 12674 H 1210.86 -3.89284 -7.2 0
M  V30 12675 N 1213.52 1.56172 -0.211661 0
M  V30 12676 C 1214.77 1.98039 0.422706 0
M  V30 12677 C 1215.1 1.09904 1.60472 0
M  V30 12678 O 1214.35 0.141771 1.95186 0
M  V30 12679 C 1214.65 3.45636 0.909442 0
M  V30 12680 C 1214.32 4.50613 -0.160982 0
M  V30 12681 C 1212.98 4.79043 -0.455064 0
M  V30 12682 C 1215.33 5.13624 -0.885426 0
M  V30 12683 C 1212.66 5.67771 -1.47828 0
M  V30 12684 C 1215.01 6.03459 -1.8979 0
M  V30 12685 C 1213.67 6.30238 -2.19901 0
M  V30 12686 H 1212.94 0.724676 0.154679 0
M  V30 12687 H 1215.59 1.8894 -0.312106 0
M  V30 12688 H 1213.9 3.51889 1.72283 0
M  V30 12689 H 1215.59 3.75395 1.40995 0
M  V30 12690 H 1212.18 4.28528 0.0783864 0
M  V30 12691 H 1216.37 4.91737 -0.671463 0
M  V30 12692 H 1211.62 5.86787 -1.7173 0
M  V30 12693 H 1215.8 6.51338 -2.46438 0
M  V30 12694 H 1213.42 6.98788 -2.9933 0
M  V30 12695 N 1215 -0.0618163 1.57479 0
M  V30 12696 C 1216.25 -0.75794 1.86918 0
M  V30 12697 C 1216.56 -1.78234 0.80572 0
M  V30 12698 O 1217.77 -2.52874 0.98827 0
M  V30 12699 C 1216.22 -1.39898 3.31597 0
M  V30 12700 C 1215.83 -0.412621 4.46096 0
M  V30 12701 C 1217.57 -2.07688 3.70224 0
M  V30 12702 C 1215.48 -1.06014 5.8182 0
M  V30 12703 H 1214.41 -0.286825 0.697314 0
M  V30 12704 H 1217.06 -0.0114386 1.83496 0
M  V30 12705 H 1215.44 -2.19408 3.29661 0
M  V30 12706 H 1216.62 0.353392 4.59443 0
M  V30 12707 H 1214.93 0.161383 4.16087 0
M  V30 12708 H 1217.53 -2.56928 4.68927 0
M  V30 12709 H 1217.87 -2.88073 3.00532 0
M  V30 12710 H 1218.41 -1.34996 3.74194 0
M  V30 12711 H 1215.15 -0.296405 6.5483 0
M  V30 12712 H 1214.67 -1.79677 5.72255 0
M  V30 12713 H 1216.34 -1.57708 6.27485 0
M  V30 12714 N 1216.48 -1.54033 -0.333429 0
M  V30 12715 C 1217.39 -1.85737 -1.43314 0
M  V30 12716 C 1218.4 -0.748398 -1.57083 0
M  V30 12717 O 1219.58 -1.04171 -1.72367 0
M  V30 12718 C 1216.64 -2.06942 -2.78165 0
M  V30 12719 C 1215.7 -3.30774 -2.73655 0
M  V30 12720 C 1214.94 -3.50957 -4.02075 0
M  V30 12721 O 1215.16 -2.74774 -4.99855 0
M  V30 12722 O 1214.09 -4.44412 -4.05933 0
M  V30 12723 H 1217.92 -2.7923 -1.19434 0
M  V30 12724 H 1215.51 -1.39814 -0.526546 0
M  V30 12725 H 1217.39 -2.22276 -3.58011 0
M  V30 12726 H 1216.06 -1.16638 -3.01956 0
M  V30 12727 H 1214.97 -3.20835 -1.92395 0
M  V30 12728 H 1216.3 -4.21103 -2.54819 0
M  V30 12729 N 1217.95 0.594978 -1.45938 0
M  V30 12730 C 1219.2 1.35093 -1.50314 0
M  V30 12731 C 1219.52 1.94412 -0.151315 0
M  V30 12732 O 1218.79 1.77876 0.820787 0
M  V30 12733 H 1217.37 0.501549 -0.553586 0
M  V30 12734 H 1220.04 0.697735 -1.81983 0
M  V30 12735 H 1219.13 2.16393 -2.24901 0
M  V30 12736 N 1219.43 1.33438 0.838571 0
M  V30 12737 C 1220.66 1.27951 1.62592 0
M  V30 12738 C 1221.08 -0.149502 1.88207 0
M  V30 12739 O 1220.43 -1.09174 1.46244 0
M  V30 12740 C 1220.48 2.0523 2.97595 0
M  V30 12741 O 1220.2 3.42557 2.73105 0
M  V30 12742 C 1221.71 2.06957 3.92025 0
M  V30 12743 H 1218.93 0.440796 0.505905 0
M  V30 12744 H 1221.47 1.75814 1.0445 0
M  V30 12745 H 1219.62 1.61049 3.52338 0
M  V30 12746 H 1220.04 3.82314 3.59076 0
M  V30 12747 H 1221.51 2.65481 4.83967 0
M  V30 12748 H 1221.99 1.0599 4.26219 0
M  V30 12749 H 1222.6 2.51158 3.4322 0
M  V30 12750 N 1220.91 -1.05686 1.16912 0
M  V30 12751 C 1221.84 -2.1329 0.839044 0
M  V30 12752 C 1222.86 -1.62047 -0.156392 0
M  V30 12753 O 1224.04 -1.78366 0.0692192 0
M  V30 12754 C 1221.14 -3.38122 0.229558 0
M  V30 12755 C 1220.32 -4.18659 1.26662 0
M  V30 12756 C 1219.38 -5.21842 0.675811 0
M  V30 12757 O 1218.4 -5.53049 1.3463 0
M  V30 12758 N 1219.6 -5.78034 -0.534532 0
M  V30 12759 H 1222.37 -2.42203 1.76515 0
M  V30 12760 H 1219.93 -1.2174 1.06729 0
M  V30 12761 H 1221.92 -4.04305 -0.178868 0
M  V30 12762 H 1220.49 -3.06783 -0.60023 0
M  V30 12763 H 1219.71 -3.4804 1.85099 0
M  V30 12764 H 1221 -4.6927 1.9663 0
M  V30 12765 H 1220.4 -5.54955 -1.09731 0
M  V30 12766 H 1218.96 -6.45763 -0.885087 0
M  V30 12767 N 1222.39 -0.968567 -1.24324 0
M  V30 12768 C 1223.8 -0.66964 -1.74278 0
M  V30 12769 C 1224.15 0.81461 -1.7849 0
M  V30 12770 O 1223.28 1.63736 -1.4149 0
M  V30 12771 C 1223.87 -1.20885 -3.165 0
M  V30 12772 C 1222.43 -0.959808 -3.63957 0
M  V30 12773 C 1221.58 -1.34365 -2.42573 0
M  V30 12774 H 1224.53 -1.14379 -1.10015 0
M  V30 12775 H 1224.55 -0.57555 -3.76122 0
M  V30 12776 H 1224.06 -2.28912 -3.13402 0
M  V30 12777 H 1222.16 0.104894 -3.72452 0
M  V30 12778 H 1222.27 -1.60606 -4.51378 0
M  V30 12779 H 1220.64 -0.762039 -2.43033 0
M  V30 12780 H 1221.42 -2.43343 -2.42155 0
M  V30 12781 N 1223.87 1.39211 -0.738786 0
M  V30 12782 C 1225.09 2.04732 -0.298751 0
M  V30 12783 C 1225.51 1.55706 1.06776 0
M  V30 12784 O 1224.87 0.723605 1.67542 0
M  V30 12785 C 1224.92 3.60288 -0.29574 0
M  V30 12786 O 1224.64 4.07511 -1.60831 0
M  V30 12787 C 1226.14 4.43011 0.159994 0
M  V30 12788 H 1223.36 0.658296 -0.129952 0
M  V30 12789 H 1225.9 1.78186 -1.0035 0
M  V30 12790 H 1224.06 3.85722 0.360146 0
M  V30 12791 H 1224.47 5.01858 -1.52443 0
M  V30 12792 H 1225.95 5.51889 0.110941 0
M  V30 12793 H 1226.42 4.22325 1.20573 0
M  V30 12794 H 1227.03 4.22734 -0.466467 0
M  V30 12795 N 1225.34 0.486708 1.49896 0
M  V30 12796 C 1226.28 -0.335809 2.26727 0
M  V30 12797 C 1227.29 -0.94333 1.32684 0
M  V30 12798 O 1228.48 -0.82909 1.58077 0
M  V30 12799 C 1225.58 -1.48642 3.04563 0
M  V30 12800 C 1224.75 -0.988837 4.26076 0
M  V30 12801 C 1223.81 -2.01535 4.86076 0
M  V30 12802 O 1222.84 -1.58966 5.46552 0
M  V30 12803 N 1224.04 -3.34471 4.74457 0
M  V30 12804 H 1226.8 0.322919 2.97955 0
M  V30 12805 H 1224.36 0.318403 1.58738 0
M  V30 12806 H 1226.36 -2.17039 3.41579 0
M  V30 12807 H 1224.93 -2.04956 2.36033 0
M  V30 12808 H 1224.15 -0.130232 3.93985 0
M  V30 12809 H 1225.43 -0.634562 5.04827 0
M  V30 12810 H 1224.83 -3.71755 4.26398 0
M  V30 12811 H 1223.39 -3.98621 5.15698 0
M  V30 12812 N 1226.82 -1.56058 0.219941 0
M  V30 12813 C 1227.76 -2.17494 -0.723133 0
M  V30 12814 C 1228.77 -1.14356 -1.15873 0
M  V30 12815 O 1229.96 -1.41343 -1.09016 0
M  V30 12816 C 1227.06 -2.74242 -1.99109 0
M  V30 12817 C 1226.23 -4.02533 -1.71132 0
M  V30 12818 C 1225.29 -4.43862 -2.82618 0
M  V30 12819 O 1224.32 -5.10792 -2.51157 0
M  V30 12820 N 1225.52 -4.09412 -4.11537 0
M  V30 12821 H 1228.28 -2.99048 -0.197619 0
M  V30 12822 H 1225.84 -1.61853 0.0388738 0
M  V30 12823 H 1227.84 -2.98862 -2.7288 0
M  V30 12824 H 1226.41 -1.97 -2.42713 0
M  V30 12825 H 1225.63 -3.85786 -0.810128 0
M  V30 12826 H 1226.91 -4.86227 -1.49868 0
M  V30 12827 H 1226.31 -3.55624 -4.39941 0
M  V30 12828 H 1224.87 -4.38928 -4.81857 0
M  V30 12829 N 1228.3 0.053464 -1.57509 0
M  V30 12830 C 1229.26 1.04604 -2.03938 0
M  V30 12831 C 1230.26 1.30509 -0.939357 0
M  V30 12832 O 1231.45 1.25922 -1.20371 0
M  V30 12833 C 1228.59 2.38516 -2.43563 0
M  V30 12834 H 1229.78 0.645484 -2.92871 0
M  V30 12835 H 1227.33 0.299683 -1.534 0
M  V30 12836 H 1228.07 2.83368 -1.57712 0
M  V30 12837 H 1227.85 2.2105 -3.23851 0
M  V30 12838 H 1229.34 3.09826 -2.79996 0
M  V30 12839 N 1229.78 1.54207 0.325255 0
M  V30 12840 C 1231.03 1.72587 1.06497 0
M  V30 12841 C 1231.36 0.497228 1.87727 0
M  V30 12842 O 1230.63 -0.505804 1.87808 0
M  V30 12843 C 1230.92 3.00046 1.99109 0
M  V30 12844 C 1230.77 4.33158 1.21221 0
M  V30 12845 C 1232.09 3.23251 2.98658 0
M  V30 12846 H 1229.21 0.627974 0.38577 0
M  V30 12847 H 1231.85 1.869 0.34179 0
M  V30 12848 H 1230 2.87973 2.60775 0
M  V30 12849 H 1231.67 4.57111 0.620289 0
M  V30 12850 H 1229.91 4.30739 0.514462 0
M  V30 12851 H 1230.59 5.18558 1.89214 0
M  V30 12852 H 1233.06 3.34774 2.47114 0
M  V30 12853 H 1231.94 4.13796 3.60645 0
M  V30 12854 H 1232.2 2.40401 3.71026 0
M  V30 12855 N 1231.26 -0.58723 1.46251 0
M  V30 12856 C 1232.21 -1.69141 1.5289 0
M  V30 12857 C 1233.19 -1.56096 0.39024 0
M  V30 12858 O 1234.38 -1.65087 0.638373 0
M  V30 12859 C 1231.51 -3.07922 1.51785 0
M  V30 12860 C 1230.6 -3.2628 2.70928 0
M  V30 12861 N 1230.99 -3.14815 3.95885 0
M  V30 12862 C 1229.29 -3.57207 2.67056 0
M  V30 12863 C 1229.99 -3.35055 4.75514 0
M  V30 12864 N 1228.96 -3.59999 4.0731 0
M  V30 12865 H 1232.77 -1.588 2.47305 0
M  V30 12866 H 1230.28 -0.791124 1.41827 0
M  V30 12867 H 1232.28 -3.87164 1.54628 0
M  V30 12868 H 1230.94 -3.19397 0.584435 0
M  V30 12869 H 1231.95 -2.92778 4.27202 0
M  V30 12870 H 1228.63 -3.75394 1.82717 0
M  V30 12871 H 1230.02 -3.31412 5.84479 0
M  V30 12872 N 1232.74 -1.33881 -0.831482 0
M  V30 12873 C 1233.65 -1.26802 -1.97379 0
M  V30 12874 C 1234.66 -0.177233 -1.73095 0
M  V30 12875 O 1235.84 -0.402163 -1.97344 0
M  V30 12876 C 1232.9 -1.01474 -3.31517 0
M  V30 12877 C 1231.96 -2.19626 -3.68867 0
M  V30 12878 C 1231.2 -1.95497 -4.96605 0
M  V30 12879 O 1231.42 -0.908948 -5.63111 0
M  V30 12880 O 1230.35 -2.82226 -5.31632 0
M  V30 12881 H 1234.18 -2.22883 -2.06293 0
M  V30 12882 H 1231.76 -1.14001 -0.965613 0
M  V30 12883 H 1233.65 -0.890954 -4.11874 0
M  V30 12884 H 1232.32 -0.0842656 -3.2359 0
M  V30 12885 H 1231.23 -2.37561 -2.88991 0
M  V30 12886 H 1232.56 -3.11034 -3.81469 0
M  V30 12887 N 1234.21 1.05064 -1.1747 0
M  V30 12888 C 1235.46 1.78352 -0.965311 0
M  V30 12889 C 1235.79 1.87527 0.504707 0
M  V30 12890 O 1235.07 1.376 1.37465 0
M  V30 12891 C 1235.35 3.22173 -1.60862 0
M  V30 12892 C 1235.2 3.21003 -3.15083 0
M  V30 12893 C 1236.52 4.2004 -1.31358 0
M  V30 12894 H 1233.64 0.647452 -0.352101 0
M  V30 12895 H 1236.28 1.22794 -1.44988 0
M  V30 12896 H 1234.43 3.69613 -1.19658 0
M  V30 12897 H 1236.11 2.81629 -3.65353 0
M  V30 12898 H 1234.35 2.59309 -3.47766 0
M  V30 12899 H 1235.02 4.22516 -3.55224 0
M  V30 12900 H 1237.5 3.81099 -1.6704 0
M  V30 12901 H 1236.37 5.1891 -1.78953 0
M  V30 12902 H 1236.63 4.41477 -0.234606 0
M  V30 12903 N 1235.69 0.975146 1.23809 0
M  V30 12904 C 1236.94 0.639858 1.91704 0
M  V30 12905 C 1237.26 -0.828557 1.76522 0
M  V30 12906 O 1236.53 -1.59217 1.14135 0
M  V30 12907 H 1235.11 0.233667 0.709513 0
M  V30 12908 H 1237.77 1.23782 1.50545 0
M  V30 12909 H 1236.87 0.886915 2.99233 0
M  V30 12910 N 1237.17 -1.38817 0.746158 0
M  V30 12911 C 1238.4 -2.0457 0.309605 0
M  V30 12912 C 1238.81 -1.5627 -1.05948 0
M  V30 12913 O 1238.17 -0.73248 -1.67156 0
M  V30 12914 C 1238.22 -3.60126 0.314843 0
M  V30 12915 O 1237.94 -4.06652 1.6299 0
M  V30 12916 C 1239.44 -4.4309 -0.136497 0
M  V30 12917 H 1236.66 -0.657597 0.133441 0
M  V30 12918 H 1239.21 -1.77651 1.01293 0
M  V30 12919 H 1237.36 -3.85908 -0.339685 0
M  V30 12920 H 1237.78 -5.01042 1.55103 0
M  V30 12921 H 1239.25 -5.5194 -0.0816714 0
M  V30 12922 H 1239.73 -4.22959 -1.18332 0
M  V30 12923 H 1240.33 -4.22481 0.488879 0
M  V30 12924 N 1238.65 -0.49465 -1.49636 0
M  V30 12925 C 1239.88 0.0491129 -2.06842 0
M  V30 12926 C 1240.29 1.31395 -1.35576 0
M  V30 12927 O 1239.65 1.7731 -0.432135 0
M  V30 12928 C 1239.7 0.313171 -3.60141 0
M  V30 12929 O 1239.42 -0.90152 -4.28724 0
M  V30 12930 C 1240.92 0.901284 -4.34041 0
M  V30 12931 H 1238.14 -0.0176186 -0.670769 0
M  V30 12932 H 1240.68 -0.690188 -1.92501 0
M  V30 12933 H 1238.84 1.00244 -3.74206 0
M  V30 12934 H 1239.25 -0.660477 -5.20325 0
M  V30 12935 H 1240.73 1.03567 -5.42197 0
M  V30 12936 H 1241.2 1.89746 -3.96097 0
M  V30 12937 H 1241.81 0.249677 -4.24566 0
M  V30 12938 N 1240.13 1.55939 -0.228214 0
M  V30 12939 C 1241.37 1.97652 0.402067 0
M  V30 12940 C 1241.69 1.11911 1.60422 0
M  V30 12941 O 1242.89 1.43552 2.30445 0
M  V30 12942 C 1241.35 3.51638 0.766724 0
M  V30 12943 C 1240.96 4.46092 -0.412991 0
M  V30 12944 C 1242.7 4.02049 1.36224 0
M  V30 12945 C 1240.61 5.91394 -0.0255281 0
M  V30 12946 H 1239.54 0.738107 0.153994 0
M  V30 12947 H 1242.19 1.8059 -0.32548 0
M  V30 12948 H 1240.57 3.64325 1.55188 0
M  V30 12949 H 1241.75 4.45156 -1.19049 0
M  V30 12950 H 1240.06 4.0606 -0.92218 0
M  V30 12951 H 1242.66 5.08111 1.66514 0
M  V30 12952 H 1243 3.48292 2.28032 0
M  V30 12953 H 1243.53 3.92612 0.640378 0
M  V30 12954 H 1240.27 6.49149 -0.910269 0
M  V30 12955 H 1239.79 5.95509 0.716149 0
M  V30 12956 H 1241.47 6.4577 0.398839 0
M  V30 12957 N 1241.6 -0.0451101 1.57535 0
M  V30 12958 C 1242.85 -0.738072 1.87711 0
M  V30 12959 C 1243.17 -1.7737 0.824579 0
M  V30 12960 O 1244.37 -2.51812 1.01503 0
M  V30 12961 C 1242.83 -1.36373 3.33062 0
M  V30 12962 C 1242.44 -0.365283 4.46508 0
M  V30 12963 C 1244.18 -2.0375 3.72406 0
M  V30 12964 C 1242.09 -0.998371 5.82912 0
M  V30 12965 H 1241.02 -0.279413 0.700317 0
M  V30 12966 H 1243.67 0.00802425 1.83498 0
M  V30 12967 H 1242.05 -2.15899 3.31969 0
M  V30 12968 H 1243.22 0.402102 4.59042 0
M  V30 12969 H 1241.54 0.205505 4.15893 0
M  V30 12970 H 1244.14 -2.51939 4.71625 0
M  V30 12971 H 1244.48 -2.84869 3.03571 0
M  V30 12972 H 1245.01 -1.3102 3.75604 0
M  V30 12973 H 1241.75 -0.226935 6.55107 0
M  V30 12974 H 1241.27 -1.73598 5.74129 0
M  V30 12975 H 1242.95 -1.51044 6.29122 0
M  V30 12976 N 1243.08 -1.54377 -0.317073 0
M  V30 12977 C 1244.36 -1.63551 -1.07287 0
M  V30 12978 C 1244.74 -0.473499 -2.05721 0
M  V30 12979 O 1244.09 0.531545 -2.22232 0
M  V30 12980 C 1244.3 -3.00842 -1.76904 0
M  V30 12981 C 1245.65 -3.57111 -2.29689 0
M  V30 12982 O 1246.67 -3.0319 -1.86961 0
M  V30 12983 O 1245.53 -4.51486 -3.07932 0
M  V30 12984 H 1242.62 -0.662557 -0.494922 0
M  V30 12985 H 1245.17 -1.66723 -0.316444 0
M  V30 12986 H 1243.94 -3.76854 -1.05341 0
M  V30 12987 H 1243.56 -3.01377 -2.59341 0
M  V30 12988 N 1244.56 0.579466 -1.4656 0
M  V30 12989 C 1245.51 1.70937 -1.57744 0
M  V30 12990 C 1246.5 1.6343 -0.44577 0
M  V30 12991 O 1247.71 1.68884 -0.622762 0
M  V30 12992 H 1244.08 0.565218 -0.496017 0
M  V30 12993 H 1246.05 1.58636 -2.52739 0
M  V30 12994 C 1244.8 3.09321 -1.58794 0
M  V30 12995 H 1244.13 3.1577 -2.45213 0
M  V30 12996 H 1245.57 3.88132 -1.70674 0
M  V30 12997 C 1244.03 3.35404 -0.317165 0
M  V30 12998 O 1244.56 3.97325 0.591228 0
M  V30 12999 N 1242.76 2.89883 -0.204071 0
M  V30 13000 H 1242.31 2.39672 -0.944194 0
M  V30 13001 H 1242.27 3.07706 0.645303 0
M  V30 13002 N 1246.04 1.3432 0.824371 0
M  V30 13003 C 1247.29 1.26345 1.57738 0
M  V30 13004 C 1247.61 -0.166836 1.94285 0
M  V30 13005 O 1246.88 -1.09911 1.62162 0
M  V30 13006 H 1245.46 0.46466 0.584893 0
M  V30 13007 H 1248.12 1.68214 0.984373 0
M  V30 13008 H 1247.22 1.8672 2.50084 0
M  V30 13009 N 1247.52 -1.0444 1.18026 0
M  V30 13010 C 1248.43 -2.15862 0.918747 0
M  V30 13011 C 1249.44 -1.73614 -0.115808 0
M  V30 13012 O 1250.62 -2.01294 0.0652312 0
M  V30 13013 C 1247.68 -3.43846 0.443922 0
M  V30 13014 C 1246.74 -4.00497 1.54599 0
M  V30 13015 C 1245.98 -5.22373 1.09372 0
M  V30 13016 O 1246.2 -5.70379 -0.049085 0
M  V30 13017 O 1245.13 -5.71459 1.88992 0
M  V30 13018 H 1248.96 -2.40776 1.85097 0
M  V30 13019 H 1246.55 -1.14326 0.961769 0
M  V30 13020 H 1248.43 -4.20985 0.187017 0
M  V30 13021 H 1247.1 -3.20414 -0.460051 0
M  V30 13022 H 1246.01 -3.24764 1.85686 0
M  V30 13023 H 1247.34 -4.28262 2.42595 0
M  V30 13024 N 1248.99 -0.981699 -1.2329 0
M  V30 13025 C 1249.96 -0.527992 -2.23036 0
M  V30 13026 C 1250.96 0.383083 -1.5617 0
M  V30 13027 O 1252.15 0.176595 -1.73303 0
M  V30 13028 C 1249.28 0.233501 -3.40099 0
M  V30 13029 H 1250.47 -1.40995 -2.64689 0
M  V30 13030 H 1248.03 -0.767724 -1.36146 0
M  V30 13031 H 1248.76 1.13194 -3.03904 0
M  V30 13032 H 1248.55 -0.420505 -3.89839 0
M  V30 13033 H 1250.04 0.539485 -4.14101 0
M  V30 13034 N 1250.47 1.3842 -0.753509 0
M  V30 13035 C 1251.4 2.29039 -0.0859463 0
M  V30 13036 C 1252.42 1.47742 0.68383 0
M  V30 13037 O 1253.61 1.70607 0.524933 0
M  V30 13038 C 1250.71 3.26668 0.902296 0
M  V30 13039 C 1249.88 4.36986 0.190178 0
M  V30 13040 C 1248.94 5.14805 1.08916 0
M  V30 13041 O 1247.96 5.66441 0.559715 0
M  V30 13042 N 1249.17 5.27777 2.41726 0
M  V30 13043 H 1251.93 2.8697 -0.864196 0
M  V30 13044 H 1249.49 1.502 -0.604288 0
M  V30 13045 H 1251.48 3.75606 1.50672 0
M  V30 13046 H 1250.05 2.69636 1.58163 0
M  V30 13047 H 1249.27 3.89684 -0.594959 0
M  V30 13048 H 1250.56 5.07899 -0.302594 0
M  V30 13049 H 1249.96 4.87376 2.87196 0
M  V30 13050 H 1248.52 5.8009 2.97219 0
M  V30 13051 N 1251.95 0.502579 1.49372 0
M  V30 13052 C 1252.86 -0.279532 2.32929 0
M  V30 13053 C 1253.88 -0.965806 1.44735 0
M  V30 13054 O 1255.05 -0.946839 1.77755 0
M  V30 13055 C 1252.12 -1.32913 3.20211 0
M  V30 13056 C 1251.18 -0.656121 4.24256 0
M  V30 13057 C 1250.41 -1.65571 5.07368 0
M  V30 13058 O 1250.63 -2.88571 4.92019 0
M  V30 13059 O 1249.57 -1.21016 5.89609 0
M  V30 13060 H 1253.39 0.404427 3.00995 0
M  V30 13061 H 1250.98 0.263888 1.47051 0
M  V30 13062 H 1252.86 -1.93635 3.74277 0
M  V30 13063 H 1251.54 -1.99598 2.54837 0
M  V30 13064 H 1250.44 -0.00911489 3.74099 0
M  V30 13065 H 1251.78 -0.0316802 4.9219 0
M  V30 13066 N 1253.43 -1.55816 0.23648 0
M  V30 13067 C 1254.36 -2.23924 -0.661834 0
M  V30 13068 C 1255.34 -1.21597 -1.18946 0
M  V30 13069 O 1256.52 -1.50222 -1.23073 0
M  V30 13070 C 1253.65 -2.93069 -1.86355 0
M  V30 13071 C 1252.61 -4.01996 -1.46913 0
M  V30 13072 C 1251.93 -4.58512 -2.75083 0
M  V30 13073 C 1253.23 -5.18265 -0.647964 0
M  V30 13074 H 1254.93 -2.99253 -0.0939368 0
M  V30 13075 H 1252.47 -1.43934 -0.0437407 0
M  V30 13076 H 1254.43 -3.39412 -2.49755 0
M  V30 13077 H 1253.15 -2.15212 -2.45665 0
M  V30 13078 H 1251.81 -3.56406 -0.858522 0
M  V30 13079 H 1251.46 -3.77368 -3.3257 0
M  V30 13080 H 1251.16 -5.32037 -2.49421 0
M  V30 13081 H 1252.68 -5.07583 -3.39399 0
M  V30 13082 H 1254.1 -5.60898 -1.18602 0
M  V30 13083 H 1252.49 -5.98114 -0.487823 0
M  V30 13084 H 1253.56 -4.83691 0.342151 0
M  V30 13085 N 1254.91 0.036755 -1.57557 0
M  V30 13086 C 1256.15 0.729106 -1.88919 0
M  V30 13087 C 1256.48 1.75769 -0.832801 0
M  V30 13088 O 1255.74 1.94985 0.167173 0
M  V30 13089 C 1256.04 1.44206 -3.27016 0
M  V30 13090 C 1255.7 0.550184 -4.47531 0
M  V30 13091 C 1254.36 0.304511 -4.80236 0
M  V30 13092 C 1256.72 -0.0660664 -5.21158 0
M  V30 13093 C 1254.04 -0.566316 -5.8396 0
M  V30 13094 C 1256.4 -0.92455 -6.25807 0
M  V30 13095 C 1255.06 -1.17976 -6.56992 0
M  V30 13096 H 1254.33 0.266799 -0.691303 0
M  V30 13097 H 1256.98 -0.0108698 -1.91497 0
M  V30 13098 H 1255.28 2.25516 -3.2039 0
M  V30 13099 H 1256.98 1.98317 -3.48527 0
M  V30 13100 H 1253.57 0.751814 -4.21955 0
M  V30 13101 H 1257.75 0.110784 -4.96176 0
M  V30 13102 H 1253.01 -0.772428 -6.06501 0
M  V30 13103 H 1257.18 -1.40861 -6.82005 0
M  V30 13104 H 1254.81 -1.85627 -7.37188 0
M  V30 13105 O 1256.42 1.60497 0.179744 0
M  V30 13106 H 1257.11 1.75618 0.817198 0
M  V30 END ATOM
M  V30 BEGIN BOND
M  V30 END BOND
M  V30 END CTAB
M  END
$$$$
