drugbank_target|Q01718 Adrenocorticotropic hormone receptor (DB01284; DB01285; DB09334; DB11653)
 OpenBabel12092119413D

  0  0  0     0  0            999 V3000
M  V30 BEGIN CTAB
M  V30 COUNTS 4856 4916 0 0 0
M  V30 BEGIN ATOM
M  V30 1 H -0.908 1.98254 -0.117106 0
M  V30 2 N 0 1.576 0 0
M  V30 3 C 0.933 2.03868 1.02534 0
M  V30 4 C 1.911 0.928543 1.3348 0
M  V30 5 O 3.095 1.19667 1.45644 0
M  V30 6 C 0.222 2.43627 2.35294 0
M  V30 7 C -0.732 3.65373 2.2001 0
M  V30 8 S 0.101 5.13292 1.52614 0
M  V30 9 C 1.257 5.56322 2.86805 0
M  V30 10 H 1.49 2.90518 0.631377 0
M  V30 11 H -0.977 1.52953 0.210867 0
M  V30 12 H 0.981 2.67203 3.11629 0
M  V30 13 H -0.358 1.57376 2.7183 0
M  V30 14 H -1.165 3.90944 3.18086 0
M  V30 15 H -1.563 3.418 1.51819 0
M  V30 16 H 0.729 5.58782 3.83104 0
M  V30 17 H 1.672 6.56266 2.65933 0
M  V30 18 H 2.08 4.83886 2.90714 0
M  V30 19 N 1.4781 -0.272755 1.55222 0
M  V30 20 C 2.4251 -1.33716 1.88119 0
M  V30 21 C 3.3951 -1.49066 0.73271 0
M  V30 22 O 4.5801 -1.63469 0.984002 0
M  V30 23 C 1.7201 -2.69238 2.15882 0
M  V30 24 C 0.8331 -2.62108 3.43399 0
M  V30 25 C -0.0319 -3.89811 3.60861 0
M  V30 26 C -0.9929 -3.77193 4.8207 0
M  V30 27 N -1.8559 -4.9673 4.96189 0
M  V30 28 H 2.9841 -1.04962 2.78903 0
M  V30 29 H 0.5211 -0.507088 1.38083 0
M  V30 30 H 2.4791 -3.48089 2.29978 0
M  V30 31 H 1.1091 -2.96194 1.28331 0
M  V30 32 H 0.1611 -1.74967 3.37773 0
M  V30 33 H 1.4731 -2.48685 4.32386 0
M  V30 34 H 0.6271 -4.77103 3.74777 0
M  V30 35 H -0.6339 -4.06102 2.7006 0
M  V30 36 H -1.6289 -2.88284 4.68159 0
M  V30 37 H -0.4039 -3.62421 5.74307 0
M  V30 38 H -2.4579 -5.13431 4.08319 0
M  V30 39 H -2.5409 -4.85839 5.79221 0
M  V30 40 H -1.2729 -5.85594 5.1449 0
M  V30 41 N 2.9562 -1.48159 -0.537278 0
M  V30 42 C 3.9062 -1.5854 -1.63857 0
M  V30 43 C 4.8902 -0.442969 -1.54682 0
M  V30 44 O 6.0822 -0.69401 -1.62827 0
M  V30 45 C 3.2112 -1.62144 -3.02596 0
M  V30 46 C 2.2972 -2.81841 -3.16901 0
M  V30 47 N 2.6882 -4.06337 -3.01204 0
M  V30 48 C 0.9862 -2.79021 -3.47942 0
M  V30 49 C 1.6872 -4.86606 -3.18731 0
M  V30 50 N 0.6632 -4.19288 -3.45974 0
M  V30 51 H 4.4652 -2.5255 -1.50319 0
M  V30 52 H 1.9792 -1.4443 -0.742555 0
M  V30 53 H 3.9762 -1.67674 -3.81695 0
M  V30 54 H 2.6362 -0.69245 -3.17231 0
M  V30 55 H 3.6472 -4.36888 -2.78117 0
M  V30 56 H 0.3242 -1.95347 -3.6898 0
M  V30 57 H 1.7142 -5.95385 -3.11394 0
M  V30 58 N 4.4343 0.785586 -1.36625 0
M  V30 59 C 5.6833 1.53883 -1.30396 0
M  V30 60 C 5.9963 1.95271 0.113452 0
M  V30 61 O 7.2023 2.69858 0.298142 0
M  V30 62 C 5.6583 2.77808 -2.28802 0
M  V30 63 C 5.2663 2.43574 -3.75999 0
M  V30 64 C 7.0103 3.55783 -2.31558 0
M  V30 65 C 4.9173 3.63919 -4.66173 0
M  V30 66 H 3.8473 0.577678 -0.484566 0
M  V30 67 H 6.4983 0.861705 -1.62009 0
M  V30 68 H 4.8803 3.47339 -1.90188 0
M  V30 69 H 6.0543 1.81916 -4.23371 0
M  V30 70 H 4.3693 1.78803 -3.76056 0
M  V30 71 H 6.9663 4.45205 -2.96137 0
M  V30 72 H 7.3093 3.94644 -1.3252 0
M  V30 73 H 7.8423 2.93235 -2.68809 0
M  V30 74 H 4.5813 3.3015 -5.66287 0
M  V30 75 H 4.1013 4.2473 -4.23515 0
M  V30 76 H 5.7803 4.30901 -4.82632 0
M  V30 77 N 5.9124 1.20967 1.01018 0
M  V30 78 C 7.1614 1.01796 1.74128 0
M  V30 79 C 7.4744 -0.449691 1.90361 0
M  V30 80 O 8.6804 -0.76068 2.60626 0
M  V30 81 C 7.1364 1.7727 3.13215 0
M  V30 82 C 6.7444 3.28171 3.04972 0
M  V30 83 C 8.4884 1.66489 3.90489 0
M  V30 84 C 6.3954 3.96156 4.39107 0
M  V30 85 H 5.3254 0.377276 0.652824 0
M  V30 86 H 7.9764 1.44651 1.12909 0
M  V30 87 H 6.3584 1.27205 3.75013 0
M  V30 88 H 7.5324 3.85499 2.52443 0
M  V30 89 H 5.8474 3.39437 2.41188 0
M  V30 90 H 8.4444 2.14617 4.89738 0
M  V30 91 H 8.7874 0.6222 4.11624 0
M  V30 92 H 9.3204 2.14003 3.35332 0
M  V30 93 H 6.0594 5.00604 4.23174 0
M  V30 94 H 5.5794 3.43617 4.91617 0
M  V30 95 H 7.2584 4.00774 5.07926 0
M  V30 96 N 7.3905 -1.2043 1.01659 0
M  V30 97 C 8.3385 -2.25249 0.580143 0
M  V30 98 C 9.3325 -1.65057 -0.381115 0
M  V30 99 O 10.5385 -1.78241 -0.251039 0
M  V30 100 H 6.9135 -0.732695 0.169299 0
M  V30 101 H 8.8845 -2.59389 1.47512 0
M  V30 102 C 7.6335 -3.47638 -0.065788 0
M  V30 103 H 6.9565 -3.94233 0.664874 0
M  V30 104 H 8.3965 -4.2268 -0.334282 0
M  V30 105 C 6.8555 -3.10447 -1.3086 0
M  V30 106 O 7.3855 -3.21981 -2.4019 0
M  V30 107 N 5.5915 -2.64996 -1.1927 0
M  V30 108 H 5.1385 -2.55811 -0.303064 0
M  V30 109 H 5.0965 -2.40482 -2.02523 0
M  V30 110 N 8.8686 -0.792821 -1.36206 0
M  V30 111 C 10.0936 -0.377701 -2.03932 0
M  V30 112 C 10.5186 0.998947 -1.59382 0
M  V30 113 O 9.8766 1.64421 -0.763903 0
M  V30 114 C 9.9246 -0.453635 -3.57735 0
M  V30 115 O 9.0286 0.538151 -4.08874 0
M  V30 116 H 8.3696 -0.159855 -0.644471 0
M  V30 117 H 10.8996 -1.07488 -1.7409 0
M  V30 118 H 10.9096 -0.318464 -4.06755 0
M  V30 119 H 9.5846 -1.45784 -3.89512 0
M  V30 120 H 8.1616 0.364359 -3.71116 0
M  V30 121 N 10.3467 1.47872 -0.545128 0
M  V30 122 C 11.5767 2.06589 -0.0210534 0
M  V30 123 C 11.9847 1.39997 1.27269 0
M  V30 124 O 11.3277 0.486421 1.77143 0
M  V30 125 C 11.3897 3.58574 0.257933 0
M  V30 126 C 11.0537 4.47132 -0.944573 0
M  V30 127 C 12.0507 4.85986 -1.84699 0
M  V30 128 C 9.7357 4.88821 -1.15584 0
M  V30 129 C 11.7297 5.65314 -2.94446 0
M  V30 130 C 9.4167 5.67916 -2.25642 0
M  V30 131 C 10.4147 6.06073 -3.14905 0
M  V30 132 O 10.1027 6.83578 -4.23057 0
M  V30 133 H 9.8347 0.674971 -0.0372899 0
M  V30 134 H 12.3887 1.91037 -0.754599 0
M  V30 135 H 10.6187 3.72295 1.04564 0
M  V30 136 H 12.3077 3.99356 0.72592 0
M  V30 137 H 13.0737 4.54388 -1.69577 0
M  V30 138 H 8.9527 4.58595 -0.470279 0
M  V30 139 H 12.4967 5.95016 -3.64145 0
M  V30 140 H 8.3937 5.98927 -2.40742 0
M  V30 141 H 9.1617 7.01954 -4.20954 0
M  V30 142 N 11.8248 0.280983 1.55075 0
M  V30 143 C 12.7348 -0.61388 2.26426 0
M  V30 144 C 13.7508 -1.16521 1.29224 0
M  V30 145 O 14.9268 -1.19426 1.62171 0
M  V30 146 C 11.9918 -1.7788 2.9759 0
M  V30 147 C 11.0528 -1.26355 4.10284 0
M  V30 148 C 10.2858 -2.37295 4.78045 0
M  V30 149 O 10.5088 -3.56777 4.45047 0
M  V30 150 O 9.4428 -2.05119 5.65871 0
M  V30 151 H 13.2688 -0.0356932 3.03679 0
M  V30 152 H 10.8538 0.0481686 1.49322 0
M  V30 153 H 12.7358 -2.45791 3.42293 0
M  V30 154 H 11.4108 -2.34397 2.23249 0
M  V30 155 H 10.3178 -0.550735 3.70024 0
M  V30 156 H 11.6508 -0.744065 4.86543 0
M  V30 157 N 13.3029 -1.57598 0.00835791 0
M  V30 158 C 14.2509 -2.10078 -0.998508 0
M  V30 159 C 15.2449 -1.02262 -1.35051 0
M  V30 160 O 16.4509 -1.20719 -1.33518 0
M  V30 161 H 12.8259 -0.670903 -0.339696 0
M  V30 162 H 14.7969 -2.93648 -0.530398 0
M  V30 163 C 13.5459 -2.62615 -2.27879 0
M  V30 164 H 12.8689 -3.45213 -2.01662 0
M  V30 165 H 14.3089 -3.03004 -2.96588 0
M  V30 166 C 12.7679 -1.54407 -2.99433 0
M  V30 167 O 13.2979 -0.931812 -3.90743 0
M  V30 168 N 11.5039 -1.2695 -2.61404 0
M  V30 169 H 11.0509 -1.76924 -1.87232 0
M  V30 170 H 11.0089 -0.547704 -3.09593 0
M  V30 171 N 14.781 0.264519 -1.55364 0
M  V30 172 C 16.03 0.992812 -1.75574 0
M  V30 173 C 16.343 1.87142 -0.568979 0
M  V30 174 O 17.549 2.63513 -0.653682 0
M  V30 175 C 16.005 1.81519 -3.10771 0
M  V30 176 C 15.613 0.984839 -4.37041 0
M  V30 177 C 17.357 2.53727 -3.40327 0
M  V30 178 C 15.264 1.80209 -5.63275 0
M  V30 179 H 14.194 0.374412 -0.65447 0
M  V30 180 H 16.845 0.248138 -1.81815 0
M  V30 181 H 15.227 2.60115 -2.98591 0
M  V30 182 H 16.401 0.242455 -4.60162 0
M  V30 183 H 14.716 0.37691 -4.14691 0
M  V30 184 H 17.313 3.15292 -4.3185 0
M  V30 185 H 17.656 3.24447 -2.60845 0
M  V30 186 H 18.189 1.82156 -3.53644 0
M  V30 187 H 14.928 1.13896 -6.45529 0
M  V30 188 H 14.448 2.52022 -5.44284 0
M  V30 189 H 16.127 2.37364 -6.01887 0
M  V30 190 N 16.2591 1.48442 0.529413 0
M  V30 191 C 17.2071 1.63452 1.65487 0
M  V30 192 C 18.2011 0.500955 1.61823 0
M  V30 193 O 19.4071 0.679695 1.66674 0
M  V30 194 H 15.7821 0.514905 0.548066 0
M  V30 195 H 17.7531 2.57975 1.49971 0
M  V30 196 C 16.5021 1.69196 3.03756 0
M  V30 197 H 15.8251 2.55784 3.07269 0
M  V30 198 H 17.2651 1.83743 3.82119 0
M  V30 199 C 15.7241 0.430765 3.34135 0
M  V30 200 O 16.2541 -0.4561 3.99102 0
M  V30 201 N 14.4601 0.302293 2.89023 0
M  V30 202 H 14.0071 1.02496 2.36331 0
M  V30 203 H 13.9651 -0.540546 3.09718 0
M  V30 204 N 17.7372 -0.778329 1.37039 0
M  V30 205 C 18.6852 -1.91278 1.32345 0
M  V30 206 C 19.6792 -1.68051 0.213331 0
M  V30 207 O 20.8852 -1.75922 0.38098 0
M  V30 208 H 17.2602 -0.628909 0.412283 0
M  V30 209 H 19.2312 -1.92355 2.28127 0
M  V30 210 C 17.9802 -3.28455 1.14073 0
M  V30 211 H 17.3032 -3.46901 1.98746 0
M  V30 212 H 18.7432 -4.08152 1.14837 0
M  V30 213 C 17.2022 -3.36548 -0.154015 0
M  V30 214 O 17.7322 -3.85186 -1.13993 0
M  V30 215 N 15.9382 -2.89894 -0.202475 0
M  V30 216 H 15.4852 -2.50504 0.600476 0
M  V30 217 H 15.4432 -2.9569 -1.06841 0
M  V30 218 N 19.2153 -1.21501 -1.00376 0
M  V30 219 C 20.4433 -1.059 -1.77744 0
M  V30 220 C 20.8583 0.391125 -1.84704 0
M  V30 221 O 20.2153 1.27133 -1.30933 0
M  V30 222 C 20.2663 -1.65111 -3.21591 0
M  V30 223 O 19.9873 -3.0445 -3.15027 0
M  V30 224 C 21.4883 -1.54637 -4.15454 0
M  V30 225 H 18.7083 -0.371825 -0.558558 0
M  V30 226 H 21.2523 -1.60865 -1.26264 0
M  V30 227 H 19.4073 -1.14235 -3.70175 0
M  V30 228 H 19.8213 -3.3278 -4.0541 0
M  V30 229 H 21.2953 -2.00808 -5.14179 0
M  V30 230 H 21.7723 -0.501022 -4.36333 0
M  V30 231 H 22.3783 -2.04767 -3.72761 0
M  V30 232 N 20.6934 1.19889 -1.02296 0
M  V30 233 C 21.6564 2.21116 -0.603351 0
M  V30 234 C 22.6564 1.5738 0.329884 0
M  V30 235 O 23.8464 1.73802 0.117702 0
M  V30 236 C 20.9784 3.40696 0.117992 0
M  V30 237 H 22.1714 2.59754 -1.49893 0
M  V30 238 H 19.7244 1.33463 -0.813468 0
M  V30 239 H 20.4594 3.07569 1.0282 0
M  V30 240 H 20.2444 3.88188 -0.552511 0
M  V30 241 H 21.7344 4.15692 0.398696 0
M  V30 242 N 22.1715 0.800033 1.35784 0
M  V30 243 C 23.5875 0.482977 1.52117 0
M  V30 244 C 23.7875 -0.996948 1.75109 0
M  V30 245 O 22.8435 -1.78216 1.78872 0
M  V30 246 C 24.1565 1.32264 2.70049 0
M  V30 247 C 25.7045 1.31742 2.83924 0
M  V30 248 C 26.1795 2.14106 4.04874 0
M  V30 249 N 27.6705 2.11607 4.12039 0
M  V30 250 C 28.4055 2.72099 5.04727 0
M  V30 251 N 27.9015 3.41492 6.02789 0
M  V30 252 N 29.6945 2.61776 4.97423 0
M  V30 253 H 21.8455 1.75856 1.19115 0
M  V30 254 H 24.1085 0.748122 0.582252 0
M  V30 255 H 23.8145 2.37261 2.59616 0
M  V30 256 H 23.6885 0.971303 3.6448 0
M  V30 257 H 26.0755 0.275333 2.93813 0
M  V30 258 H 26.1565 1.70859 1.9037 0
M  V30 259 H 25.8005 3.18351 3.95746 0
M  V30 260 H 25.7305 1.72353 4.97596 0
M  V30 261 H 28.2215 1.61112 3.41835 0
M  V30 262 H 28.5345 3.84953 6.70098 0
M  V30 263 H 26.8795 3.45596 6.02983 0
M  V30 264 H 30.0705 2.07157 4.19766 0
M  V30 265 H 30.2435 3.0921 5.69468 0
M  V30 266 N 23.6496 -1.47581 0.552962 0
M  V30 267 C 24.5976 -2.31648 -0.21023 0
M  V30 268 C 25.5916 -1.42663 -0.913432 0
M  V30 269 O 26.7976 -1.5945 -0.835201 0
M  V30 270 H 23.1726 -0.746989 -0.0866676 0
M  V30 271 H 25.1436 -2.93869 0.518051 0
M  V30 272 C 23.8926 -3.25226 -1.22976 0
M  V30 273 H 23.2156 -3.93658 -0.698077 0
M  V30 274 H 24.6556 -3.86889 -1.73473 0
M  V30 275 C 23.1146 -2.48448 -2.27542 0
M  V30 276 O 23.6446 -2.22585 -3.34393 0
M  V30 277 N 21.8506 -2.09532 -2.01357 0
M  V30 278 H 21.3976 -2.30765 -1.14478 0
M  V30 279 H 21.3556 -1.58476 -2.71538 0
M  V30 280 N 25.1277 -0.289203 -1.54924 0
M  V30 281 C 26.0757 0.607966 -2.24514 0
M  V30 282 C 27.0697 1.14655 -1.24702 0
M  V30 283 O 28.2757 1.09856 -1.4259 0
M  V30 284 H 24.6507 0.21464 -0.720718 0
M  V30 285 H 26.6217 -0.00164182 -2.984 0
M  V30 286 C 25.3707 1.77406 -2.99036 0
M  V30 287 H 24.6937 1.36884 -3.75637 0
M  V30 288 H 26.1337 2.37814 -3.51028 0
M  V30 289 C 24.5927 2.67107 -2.05318 0
M  V30 290 O 25.1227 3.6787 -1.61353 0
M  V30 291 N 23.3287 2.34582 -1.71521 0
M  V30 292 H 22.8757 1.52688 -2.07471 0
M  V30 293 H 22.8337 2.94867 -1.0909 0
M  V30 294 N 26.6058 1.57591 -0.0167156 0
M  V30 295 C 27.8308 1.9598 0.67872 0
M  V30 296 C 28.2558 0.892546 1.65575 0
M  V30 297 O 27.6138 -0.147772 1.80697 0
M  V30 298 C 27.6618 3.33468 1.37227 0
M  V30 299 O 26.7658 3.28954 2.48722 0
M  V30 300 H 26.1068 0.639339 0.17928 0
M  V30 301 H 28.6368 2.04463 -0.0748802 0
M  V30 302 H 28.6468 3.69417 1.7319 0
M  V30 303 H 27.3218 4.10694 0.656007 0
M  V30 304 H 25.8988 3.04705 2.14963 0
M  V30 305 N 28.0839 -0.256276 1.55502 0
M  V30 306 C 29.3609 -1.00789 1.67633 0
M  V30 307 C 29.7409 -2.03706 0.553826 0
M  V30 308 O 29.0889 -2.24145 -0.443969 0
M  V30 309 C 29.2989 -1.64968 3.07549 0
M  V30 310 C 30.6469 -2.15505 3.65845 0
M  V30 311 O 31.6709 -1.74925 3.1029 0
M  V30 312 O 30.5299 -2.89986 4.63217 0
M  V30 313 H 27.6239 -0.468553 0.681459 0
M  V30 314 H 30.1699 -0.250806 1.67836 0
M  V30 315 H 28.9419 -0.904785 3.80696 0
M  V30 316 H 28.5649 -2.47321 3.11317 0
M  V30 317 N 29.562 -1.4872 -0.521534 0
M  V30 318 C 30.802 -1.58771 -1.28729 0
M  V30 319 C 31.166 -0.259394 -1.9024 0
M  V30 320 O 32.367 -0.234942 -2.67771 0
M  V30 321 C 30.638 -2.70039 -2.34124 0
M  V30 322 S 32.197 -2.9991 -3.20312 0
M  V30 323 H 29.015 -0.560251 -0.437767 0
M  V30 324 H 31.617 -1.86283 -0.593188 0
M  V30 325 H 30.321 -3.65101 -1.87429 0
M  V30 326 H 29.852 -2.44455 -3.08229 0
M  V30 327 H 31.867 -2.39855 -4.34378 0
M  V30 328 N 31.0401 0.771051 -1.3745 0
M  V30 329 C 32.4511 1.34737 -1.29239 0
M  V30 330 C 32.8021 1.96109 0.0596908 0
M  V30 331 O 31.9271 1.93865 0.961534 0
M  V30 332 C 32.5221 2.44973 -2.34037 0
M  V30 333 C 31.0811 2.98372 -2.29458 0
M  V30 334 C 30.2281 1.71595 -2.17831 0
M  V30 335 H 33.1791 0.571256 -1.48062 0
M  V30 336 H 33.2001 3.24471 -1.98744 0
M  V30 337 H 32.7121 2.00276 -3.32432 0
M  V30 338 H 30.8131 3.47443 -1.34589 0
M  V30 339 H 30.9261 3.53939 -3.229 0
M  V30 340 H 29.2901 1.94547 -1.64388 0
M  V30 341 H 30.0731 1.29001 -3.18141 0
M  V30 342 N 32.5182 1.22032 0.997298 0
M  V30 343 C 33.9342 0.979326 1.26021 0
M  V30 344 C 34.1342 -0.32972 1.98784 0
M  V30 345 O 33.1902 -1.05345 2.29475 0
M  V30 346 C 34.5032 2.17509 2.07631 0
M  V30 347 C 36.0512 2.21817 2.2083 0
M  V30 348 C 36.5262 3.40933 3.05825 0
M  V30 349 N 38.0172 3.41067 3.13412 0
M  V30 350 C 38.7522 4.29885 3.79455 0
M  V30 351 N 38.2482 5.28914 4.47462 0
M  V30 352 N 40.0412 4.17673 3.76173 0
M  V30 353 H 32.1922 2.06202 0.509352 0
M  V30 354 H 34.4552 0.90334 0.287541 0
M  V30 355 H 34.1612 3.12415 1.61524 0
M  V30 356 H 34.0352 2.17206 3.08385 0
M  V30 357 H 36.4222 1.27462 2.66153 0
M  V30 358 H 36.5032 2.2616 1.1952 0
M  V30 359 H 36.1472 4.35586 2.61203 0
M  V30 360 H 36.0772 3.33829 4.07266 0
M  V30 361 H 38.5682 2.69406 2.65007 0
M  V30 362 H 38.8812 5.92973 4.95583 0
M  V30 363 H 37.2262 5.32831 4.46224 0
M  V30 364 H 40.4172 3.39564 3.22202 0
M  V30 365 H 40.5902 4.87098 4.27363 0
M  V30 366 N 33.9963 -1.19345 1.0293 0
M  V30 367 C 35.2423 -1.89318 0.727083 0
M  V30 368 C 35.5753 -1.79446 -0.742483 0
M  V30 369 O 34.8503 -1.1871 -1.54072 0
M  V30 370 C 35.1333 -3.40238 1.17942 0
M  V30 371 C 34.9863 -3.58979 2.71024 0
M  V30 372 C 36.3053 -4.33479 0.760548 0
M  V30 373 H 33.4243 -0.687475 0.265606 0
M  V30 374 H 36.0663 -1.40477 1.2793 0
M  V30 375 H 34.2163 -3.81964 0.709608 0
M  V30 376 H 35.8883 -3.26421 3.25955 0
M  V30 377 H 34.1313 -3.02018 3.11396 0
M  V30 378 H 34.8023 -4.64823 2.9773 0
M  V30 379 H 37.2783 -3.99469 1.16464 0
M  V30 380 H 36.1543 -5.37664 1.10493 0
M  V30 381 H 36.4153 -4.40813 -0.337063 0
M  V30 382 N 35.4744 -0.807222 -1.35358 0
M  V30 383 C 36.7204 -0.388463 -1.99045 0
M  V30 384 C 37.0534 1.04184 -1.63888 0
M  V30 385 O 36.3284 1.72292 -0.902535 0
M  V30 386 C 36.6114 -0.572783 -3.55515 0
M  V30 387 C 36.4644 -2.04807 -4.00468 0
M  V30 388 C 37.7834 0.00114064 -4.401 0
M  V30 389 H 34.9024 -0.142619 -0.723069 0
M  V30 390 H 37.5444 -1.01687 -1.60498 0
M  V30 391 H 35.6944 -0.0378425 -3.88482 0
M  V30 392 H 37.3664 -2.64544 -3.77908 0
M  V30 393 H 35.6094 -2.54427 -3.51353 0
M  V30 394 H 36.2804 -2.12792 -5.09337 0
M  V30 395 H 38.7564 -0.455716 -4.13597 0
M  V30 396 H 37.6324 -0.157737 -5.48673 0
M  V30 397 H 37.8934 1.09488 -4.28328 0
M  V30 398 N 36.9525 1.47285 -0.560781 0
M  V30 399 C 37.8825 2.32857 0.173105 0
M  V30 400 C 38.8635 1.44009 0.905281 0
M  V30 401 O 40.0485 1.7286 0.885046 0
M  V30 402 C 37.1785 3.25861 1.20133 0
M  V30 403 C 36.1325 4.23978 0.585388 0
M  V30 404 C 35.4585 5.06332 1.7185 0
M  V30 405 C 36.7585 5.20242 -0.463178 0
M  V30 406 H 38.4525 2.94466 -0.541307 0
M  V30 407 H 35.9985 1.41601 -0.261764 0
M  V30 408 H 37.9515 3.84569 1.72293 0
M  V30 409 H 36.6755 2.62315 1.94573 0
M  V30 410 H 35.3345 3.66501 0.085054 0
M  V30 411 H 34.9825 4.39186 2.45203 0
M  V30 412 H 34.6825 5.72762 1.31213 0
M  V30 413 H 36.2065 5.67899 2.24329 0
M  V30 414 H 37.6205 5.73293 -0.027502 0
M  V30 415 H 36.0175 5.94896 -0.788627 0
M  V30 416 H 37.0875 4.65504 -1.35773 0
M  V30 417 N 38.4306 0.297415 1.54768 0
M  V30 418 C 39.8416 -0.195947 1.85669 0
M  V30 419 C 40.1926 -1.53707 1.21937 0
M  V30 420 O 39.3176 -2.10164 0.515754 0
M  V30 421 C 39.9126 -0.362318 3.36857 0
M  V30 422 C 38.4716 -0.799901 3.67802 0
M  V30 423 C 37.6186 0.0938578 2.77141 0
M  V30 424 H 40.5696 0.518538 1.4999 0
M  V30 425 H 40.5906 -1.19745 3.61167 0
M  V30 426 H 40.1026 0.613921 3.83214 0
M  V30 427 H 38.2036 -1.78682 3.26961 0
M  V30 428 H 38.3166 -0.621773 4.75048 0
M  V30 429 H 36.6806 -0.426254 2.51108 0
M  V30 430 H 37.4636 1.06639 3.26318 0
M  V30 431 N 39.9087 -1.5758 0.0250728 0
M  V30 432 C 40.8187 -2.1343 -0.973905 0
M  V30 433 C 41.8347 -1.08556 -1.35984 0
M  V30 434 O 43.0107 -1.40592 -1.44207 0
M  V30 435 C 40.0757 -2.64703 -2.23904 0
M  V30 436 C 39.1367 -3.84276 -1.91391 0
M  V30 437 C 38.3697 -4.33095 -3.11873 0
M  V30 438 O 38.5927 -3.81107 -4.24398 0
M  V30 439 O 37.5267 -5.24984 -2.94406 0
M  V30 440 H 41.3527 -2.99057 -0.529036 0
M  V30 441 H 38.9377 -1.48118 -0.195288 0
M  V30 442 H 40.8197 -2.97769 -2.98181 0
M  V30 443 H 39.4947 -1.82161 -2.6758 0
M  V30 444 H 38.4017 -3.56143 -1.14511 0
M  V30 445 H 39.7347 -4.67968 -1.52534 0
M  V30 446 N 41.3868 0.248026 -1.55636 0
M  V30 447 C 42.2968 1.32859 -1.93354 0
M  V30 448 C 43.3128 1.52719 -0.833838 0
M  V30 449 O 44.4888 1.66363 -1.13513 0
M  V30 450 C 41.5538 2.66337 -2.21958 0
M  V30 451 C 40.6148 2.55008 -3.45354 0
M  V30 452 C 39.8478 3.82121 -3.72584 0
M  V30 453 O 40.0708 4.83951 -3.01907 0
M  V30 454 O 39.0048 3.80822 -4.6611 0
M  V30 455 H 42.8308 1.03862 -2.85388 0
M  V30 456 H 40.4158 0.448686 -1.42503 0
M  V30 457 H 42.2978 3.45216 -2.4167 0
M  V30 458 H 40.9728 2.95068 -1.33103 0
M  V30 459 H 39.8798 1.7442 -3.30951 0
M  V30 460 H 41.2128 2.31222 -4.34508 0
M  V30 461 N 42.8649 1.48995 0.513639 0
M  V30 462 C 44.1139 1.57093 1.2651 0
M  V30 463 C 44.4269 0.257091 1.93903 0
M  V30 464 O 45.6329 0.216478 2.70636 0
M  V30 465 C 44.0889 2.77118 2.29638 0
M  V30 466 C 43.6969 4.15209 1.68241 0
M  V30 467 C 45.4409 2.94538 3.05692 0
M  V30 468 C 43.3479 5.26474 2.69406 0
M  V30 469 H 42.2779 0.584876 0.475854 0
M  V30 470 H 44.9289 1.7536 0.540487 0
M  V30 471 H 43.3109 2.52319 3.05207 0
M  V30 472 H 44.4849 4.50094 0.987505 0
M  V30 473 H 42.7999 4.03042 1.04623 0
M  V30 474 H 45.3969 3.74832 3.8132 0
M  V30 475 H 45.7399 2.04614 3.62545 0
M  V30 476 H 46.2729 3.19316 2.37238 0
M  V30 477 H 43.0119 6.18417 2.17351 0
M  V30 478 H 42.5319 4.96058 3.37175 0
M  V30 479 H 44.2109 5.55277 3.32078 0
M  V30 480 N 44.343 -0.763751 1.37857 0
M  V30 481 C 45.59 -1.52257 1.33506 0
M  V30 482 C 45.918 -1.94343 -0.078022 0
M  V30 483 O 45.173 -1.64958 -1.05297 0
M  V30 484 C 45.472 -2.79499 2.22745 0
M  V30 485 C 45.138 -2.56426 3.70886 0
M  V30 486 C 43.8 -2.49842 4.11257 0
M  V30 487 C 46.152 -2.36008 4.64704 0
M  V30 488 C 43.48 -2.20841 5.43549 0
M  V30 489 C 45.832 -2.0853 5.97242 0
M  V30 490 C 44.496 -2.00396 6.36709 0
M  V30 491 H 43.766 -0.557149 0.488534 0
M  V30 492 H 46.413 -0.879073 1.70131 0
M  V30 493 H 44.718 -3.48447 1.79142 0
M  V30 494 H 46.415 -3.37413 2.16688 0
M  V30 495 H 43.005 -2.62416 3.38874 0
M  V30 496 H 47.189 -2.40079 4.34368 0
M  V30 497 H 42.445 -2.13045 5.73081 0
M  V30 498 H 46.619 -1.91732 6.69486 0
M  V30 499 H 44.246 -1.77688 7.39142 0
M  V30 500 N 45.8211 -1.22559 -0.990812 0
M  V30 501 C 47.0681 -1.05141 -1.73065 0
M  V30 502 C 47.3961 0.413191 -1.9006 0
M  V30 503 O 46.6511 1.32257 -1.44245 0
M  V30 504 C 46.9501 -1.71011 -3.13831 0
M  V30 505 C 46.6161 -3.20911 -3.16745 0
M  V30 506 C 45.2781 -3.61812 -3.17247 0
M  V30 507 C 47.6301 -4.16846 -3.12872 0
M  V30 508 C 44.9581 -4.97127 -3.1158 0
M  V30 509 C 47.3101 -5.5214 -3.08746 0
M  V30 510 C 45.9741 -5.92419 -3.07565 0
M  V30 511 H 45.2441 -0.384738 -0.633291 0
M  V30 512 H 47.8911 -1.5235 -1.16025 0
M  V30 513 H 46.1961 -1.16133 -3.74193 0
M  V30 514 H 47.8931 -1.55023 -3.69823 0
M  V30 515 H 44.4831 -2.88344 -3.17105 0
M  V30 516 H 48.6671 -3.86263 -3.11632 0
M  V30 517 H 43.9231 -5.27562 -3.09012 0
M  V30 518 H 48.0971 -6.26201 -3.04705 0
M  V30 519 H 45.7241 -6.97236 -3.02929 0
M  V30 520 N 47.2992 1.18797 -1.03562 0
M  V30 521 C 48.5272 1.92599 -0.755869 0
M  V30 522 C 48.9422 1.75886 0.686271 0
M  V30 523 O 48.2992 1.08517 1.46732 0
M  V30 524 C 48.3502 3.44159 -1.10619 0
M  V30 525 O 48.0712 3.60341 -2.4917 0
M  V30 526 C 49.5722 4.3507 -0.850214 0
M  V30 527 H 46.7922 0.611587 -0.276048 0
M  V30 528 H 49.3362 1.50742 -1.38192 0
M  V30 529 H 47.4912 3.83823 -0.525194 0
M  V30 530 H 47.9052 4.54128 -2.62427 0
M  V30 531 H 49.3792 5.39989 -1.14523 0
M  V30 532 H 49.8562 4.38673 0.215176 0
M  V30 533 H 50.4622 4.01097 -1.41426 0
M  V30 534 N 48.7773 0.814389 1.34928 0
M  V30 535 C 50.0263 0.394871 1.97797 0
M  V30 536 C 50.3393 -1.04555 1.65311 0
M  V30 537 O 51.5453 -1.56856 2.21604 0
M  V30 538 C 50.0013 0.655103 3.53888 0
M  V30 539 C 49.6093 2.10858 3.95276 0
M  V30 540 C 51.3533 0.301329 4.23429 0
M  V30 541 C 49.2603 2.31415 5.44244 0
M  V30 542 H 48.1903 0.143913 0.740139 0
M  V30 543 H 50.8413 0.999544 1.53888 0
M  V30 544 H 49.2233 -0.0196253 3.95995 0
M  V30 545 H 50.3973 2.82176 3.64298 0
M  V30 546 H 48.7123 2.42297 3.38646 0
M  V30 547 H 51.3093 0.432869 5.32945 0
M  V30 548 H 51.6523 -0.75331 4.09428 0
M  V30 549 H 52.1853 0.930288 3.86769 0
M  V30 550 H 48.9243 3.35353 5.63222 0
M  V30 551 H 48.4443 1.6463 5.76764 0
M  V30 552 H 50.1233 2.13352 6.10811 0
M  V30 553 N 50.2554 -1.46986 0.568584 0
M  V30 554 C 51.4804 -2.07335 0.0520528 0
M  V30 555 C 51.9054 -1.41675 -1.23733 0
M  V30 556 O 51.2634 -0.495623 -1.74394 0
M  V30 557 C 51.3114 -3.60417 -0.11501 0
M  V30 558 O 50.4154 -3.95309 -1.17492 0
M  V30 559 H 49.7564 -0.661597 0.0564385 0
M  V30 560 H 52.2864 -1.88837 0.787507 0
M  V30 561 H 52.2964 -4.06698 -0.325644 0
M  V30 562 H 50.9714 -4.07601 0.826675 0
M  V30 563 H 49.5484 -3.60757 -0.943869 0
M  V30 564 N 51.7335 -0.305618 -1.54608 0
M  V30 565 C 52.9825 0.303098 -1.9941 0
M  V30 566 C 53.2955 1.54648 -1.19764 0
M  V30 567 O 54.5015 2.23007 -1.54855 0
M  V30 568 C 52.9575 0.590588 -3.55021 0
M  V30 569 C 52.5655 -0.634719 -4.43481 0
M  V30 570 C 54.3095 1.16025 -4.08336 0
M  V30 571 C 52.2165 -0.320126 -5.90533 0
M  V30 572 H 51.1465 0.117031 -0.744862 0
M  V30 573 H 53.7975 -0.415045 -1.78745 0
M  V30 574 H 52.1795 1.36845 -3.71604 0
M  V30 575 H 53.3535 -1.41079 -4.38672 0
M  V30 576 H 51.6685 -1.12333 -4.00962 0
M  V30 577 H 54.2655 1.40994 -5.15776 0
M  V30 578 H 54.6085 2.10397 -3.5922 0
M  V30 579 H 55.1415 0.443985 -3.95315 0
M  V30 580 H 51.8805 -1.23254 -6.43808 0
M  V30 581 H 51.4005 0.418579 -5.98338 0
M  V30 582 H 53.0795 0.0766241 -6.46955 0
M  V30 583 N 53.2116 1.57565 -0.0334293 0
M  V30 584 C 54.4576 1.92262 0.645226 0
M  V30 585 C 54.7906 0.910543 1.71531 0
M  V30 586 O 54.0656 -0.066099 1.94388 0
M  V30 587 C 54.3486 3.37422 1.2577 0
M  V30 588 C 54.2016 4.49369 0.196891 0
M  V30 589 C 55.5206 3.82628 2.17449 0
M  V30 590 H 52.6396 0.699171 0.233085 0
M  V30 591 H 55.2816 1.89779 -0.0915694 0
M  V30 592 H 53.4316 3.39669 1.88566 0
M  V30 593 H 55.1036 4.59254 -0.433962 0
M  V30 594 H 53.3466 4.31168 -0.477137 0
M  V30 595 H 54.0176 5.47978 0.665124 0
M  V30 596 H 56.4936 3.82145 1.64634 0
M  V30 597 H 55.3696 4.84883 2.57254 0
M  V30 598 H 55.6306 3.18376 3.0674 0
M  V30 599 N 54.6897 -0.239769 1.55765 0
M  V30 600 C 55.9377 -0.964892 1.77579 0
M  V30 601 C 56.2587 -1.85582 0.598699 0
M  V30 602 O 55.5287 -1.92075 -0.385226 0
M  V30 603 H 54.1087 -0.359265 0.654933 0
M  V30 604 H 56.7707 -0.256001 1.93211 0
M  V30 605 H 55.8667 -1.58243 2.69009 0
M  V30 606 N 56.1678 -1.49265 -0.50573 0
M  V30 607 C 57.4138 -1.58748 -1.26202 0
M  V30 608 C 57.7468 -0.271227 -1.92297 0
M  V30 609 O 57.0218 0.724831 -1.80489 0
M  V30 610 C 57.3048 -2.74332 -2.33268 0
M  V30 611 C 57.1578 -4.15737 -1.71705 0
M  V30 612 C 58.4768 -2.85576 -3.34865 0
M  V30 613 H 55.5958 -0.577826 -0.457478 0
M  V30 614 H 58.2378 -1.81532 -0.560897 0
M  V30 615 H 56.3878 -2.55036 -2.93068 0
M  V30 616 H 58.0598 -4.46537 -1.15769 0
M  V30 617 H 56.3028 -4.21605 -1.02135 0
M  V30 618 H 56.9738 -4.92477 -2.49341 0
M  V30 619 H 59.4498 -3.03127 -2.8505 0
M  V30 620 H 58.3258 -3.68135 -4.07146 0
M  V30 621 H 58.5868 -1.94732 -3.96903 0
M  V30 622 N 57.6459 0.756429 -1.3826 0
M  V30 623 C 58.5759 1.88374 -1.37976 0
M  V30 624 C 59.5569 1.68311 -0.246082 0
M  V30 625 O 60.7419 1.88944 -0.44874 0
M  V30 626 C 57.8719 3.25864 -1.20125 0
M  V30 627 C 56.8259 3.60523 -2.30666 0
M  V30 628 C 56.1519 4.9672 -1.97923 0
M  V30 629 C 57.4519 3.65692 -3.72916 0
M  V30 630 H 59.1459 1.88869 -2.32312 0
M  V30 631 H 56.6919 0.907272 -1.11824 0
M  V30 632 H 58.6449 4.0438 -1.18552 0
M  V30 633 H 57.3689 3.25841 -0.222498 0
M  V30 634 H 56.0279 2.84324 -2.3142 0
M  V30 635 H 55.6759 4.93253 -0.985393 0
M  V30 636 H 55.3759 5.20878 -2.71955 0
M  V30 637 H 56.8999 5.77618 -1.97964 0
M  V30 638 H 58.3139 4.34328 -3.74208 0
M  V30 639 H 56.7109 4.01358 -4.4613 0
M  V30 640 H 57.7809 2.65987 -4.05436 0
M  V30 641 N 59.124 1.23083 0.984299 0
M  V30 642 C 60.034 1.02515 2.11016 0
M  V30 643 C 61.05 -0.0291702 1.73976 0
M  V30 644 O 62.226 0.165434 2.00719 0
M  V30 645 C 59.291 0.614673 3.41208 0
M  V30 646 C 58.352 1.74359 3.92297 0
M  V30 647 C 57.585 1.35261 5.16275 0
M  V30 648 O 57.808 0.235136 5.69915 0
M  V30 649 O 56.742 2.17227 5.61334 0
M  V30 650 H 60.568 1.96862 2.31255 0
M  V30 651 H 58.153 1.01753 1.09392 0
M  V30 652 H 60.035 0.396518 4.1953 0
M  V30 653 H 58.71 -0.299851 3.22308 0
M  V30 654 H 57.617 2.01635 3.1511 0
M  V30 655 H 58.95 2.63629 4.15645 0
M  V30 656 N 60.6021 -1.18246 1.0419 0
M  V30 657 C 61.5501 -2.23968 0.627792 0
M  V30 658 C 62.5441 -1.65828 -0.346019 0
M  V30 659 O 63.7501 -1.78733 -0.213175 0
M  V30 660 H 60.1251 -0.728939 0.184802 0
M  V30 661 H 62.0961 -2.56202 1.52981 0
M  V30 662 C 60.8451 -3.47699 0.00796591 0
M  V30 663 H 60.1681 -3.92734 0.748347 0
M  V30 664 H 61.6081 -4.23294 -0.24455 0
M  V30 665 C 60.0671 -3.13153 -1.24246 0
M  V30 666 O 60.5971 -3.27003 -2.33307 0
M  V30 667 N 58.8031 -2.67467 -1.13622 0
M  V30 668 H 58.3501 -2.56396 -0.248734 0
M  V30 669 H 58.3081 -2.44724 -1.97377 0
M  V30 670 N 62.0802 -0.821533 -1.34494 0
M  V30 671 C 63.0102 -0.257138 -2.3208 0
M  V30 672 C 63.9912 0.625645 -1.58176 0
M  V30 673 O 65.1762 0.552811 -1.86166 0
M  V30 674 C 62.3062 0.582958 -3.42372 0
M  V30 675 C 61.2602 -0.202571 -4.2752 0
M  V30 676 C 60.5862 0.760179 -5.29269 0
M  V30 677 C 61.8862 -1.40998 -5.02908 0
M  V30 678 H 63.5802 -1.07247 -2.79532 0
M  V30 679 H 61.1262 -0.517163 -1.34393 0
M  V30 680 H 63.0792 0.987972 -4.09655 0
M  V30 681 H 61.8032 1.43133 -2.93565 0
M  V30 682 H 60.4622 -0.588936 -3.61838 0
M  V30 683 H 60.1102 1.60447 -4.76724 0
M  V30 684 H 59.8102 0.238809 -5.87115 0
M  V30 685 H 61.3342 1.16308 -5.9942 0
M  V30 686 H 62.7482 -1.07905 -5.63054 0
M  V30 687 H 61.1452 -1.86689 -5.70322 0
M  V30 688 H 62.2152 -2.1889 -4.32684 0
M  V30 689 N 63.5583 1.46682 -0.576371 0
M  V30 690 C 64.8073 2.01619 -0.0572825 0
M  V30 691 C 65.1203 1.45417 1.30818 0
M  V30 692 O 66.3263 1.92133 1.91825 0
M  V30 693 C 64.7823 3.59863 -0.0518371 0
M  V30 694 C 64.3903 4.25059 -1.41523 0
M  V30 695 C 66.1343 4.2248 0.413639 0
M  V30 696 C 64.0413 5.75364 -1.36785 0
M  V30 697 H 62.9713 0.753794 -0.0176448 0
M  V30 698 H 65.6223 1.68481 -0.727076 0
M  V30 699 H 64.0043 3.90048 0.683994 0
M  V30 700 H 65.1783 4.06491 -2.17029 0
M  V30 701 H 63.4933 3.7451 -1.8202 0
M  V30 702 H 66.0903 5.3265 0.467779 0
M  V30 703 H 66.4333 3.90976 1.42982 0
M  V30 704 H 66.9663 3.96897 -0.267929 0
M  V30 705 H 63.7053 6.11518 -2.36063 0
M  V30 706 H 63.2253 5.96214 -0.654895 0
M  V30 707 H 64.9043 6.37955 -1.07805 0
M  V30 708 N 65.0364 0.313813 1.54444 0
M  V30 709 C 66.2824 -0.292108 2.00685 0
M  V30 710 C 66.6154 -1.52548 1.20177 0
M  V30 711 O 65.8904 -1.92452 0.281531 0
M  V30 712 C 66.1734 -0.635968 3.5444 0
M  V30 713 C 66.0264 0.607437 4.4568 0
M  V30 714 C 67.3454 -1.45747 4.15266 0
M  V30 715 H 64.4644 -0.104697 0.729526 0
M  V30 716 H 67.1064 0.428457 1.85106 0
M  V30 717 H 65.2564 -1.24986 3.67846 0
M  V30 718 H 66.9284 1.24581 4.44159 0
M  V30 719 H 65.1714 1.23822 4.15753 0
M  V30 720 H 65.8424 0.322515 5.51057 0
M  V30 721 H 68.3184 -0.938645 4.05375 0
M  V30 722 H 67.1944 -1.66683 5.2298 0
M  V30 723 H 67.4554 -2.45063 3.67963 0
M  V30 724 N 66.5145 -1.57545 0.0417849 0
M  V30 725 C 67.4445 -2.14009 -0.933929 0
M  V30 726 C 68.4255 -1.05938 -1.33083 0
M  V30 727 O 69.6105 -1.33833 -1.40721 0
M  V30 728 C 66.7405 -2.67747 -2.21199 0
M  V30 729 C 65.6945 -3.80718 -1.95544 0
M  V30 730 C 65.0205 -4.20935 -3.29724 0
M  V30 731 C 66.3205 -5.06258 -1.28452 0
M  V30 732 H 68.0145 -2.95788 -0.463645 0
M  V30 733 H 65.5605 -1.42285 -0.221573 0
M  V30 734 H 67.5135 -3.05886 -2.89848 0
M  V30 735 H 66.2375 -1.83147 -2.70416 0
M  V30 736 H 64.8965 -3.43037 -1.2931 0
M  V30 737 H 64.5445 -3.33298 -3.76724 0
M  V30 738 H 64.2445 -4.9707 -3.13361 0
M  V30 739 H 65.7685 -4.61666 -3.9962 0
M  V30 740 H 67.1825 -5.41903 -1.8712 0
M  V30 741 H 65.5795 -5.87475 -1.22445 0
M  V30 742 H 66.6495 -4.84207 -0.259219 0
M  V30 743 N 67.9926 0.231505 -1.5589 0
M  V30 744 C 68.9226 1.29022 -1.94617 0
M  V30 745 C 69.9036 1.4941 -0.813067 0
M  V30 746 O 71.0886 1.6176 -1.07459 0
M  V30 747 C 68.2186 2.64199 -2.25424 0
M  V30 748 C 67.1726 2.58484 -3.41131 0
M  V30 749 C 66.4986 3.97599 -3.57518 0
M  V30 750 C 67.7986 2.1413 -4.76388 0
M  V30 751 H 69.4926 0.968563 -2.83301 0
M  V30 752 H 67.0386 0.464479 -1.36303 0
M  V30 753 H 68.9916 3.38413 -2.51107 0
M  V30 754 H 67.7156 2.98032 -1.33583 0
M  V30 755 H 66.3746 1.86727 -3.15481 0
M  V30 756 H 66.0226 4.28723 -2.6307 0
M  V30 757 H 65.7226 3.94659 -4.35337 0
M  V30 758 H 67.2466 4.7349 -3.85538 0
M  V30 759 H 68.6606 2.78083 -5.01341 0
M  V30 760 H 67.0576 2.2227 -5.57419 0
M  V30 761 H 68.1276 1.09331 -4.72414 0
M  V30 762 N 69.4707 1.49531 0.497807 0
M  V30 763 C 70.4337 1.65916 1.58128 0
M  V30 764 C 71.4337 0.530825 1.51786 0
M  V30 765 O 72.6237 0.797342 1.54881 0
M  V30 766 C 69.7557 1.65951 2.9778 0
M  V30 767 H 70.9487 2.62556 1.44929 0
M  V30 768 H 68.5017 1.38611 0.722275 0
M  V30 769 H 69.2367 0.709065 3.16453 0
M  V30 770 H 69.0217 2.47897 3.03792 0
M  V30 771 H 70.5117 1.80673 3.76493 0
M  V30 772 N 70.9488 -0.749086 1.3866 0
M  V30 773 C 72.1948 -1.51056 1.35314 0
M  V30 774 C 72.5278 -1.94121 -0.0553751 0
M  V30 775 O 71.8028 -1.65763 -1.01749 0
M  V30 776 C 72.0858 -2.76003 2.31288 0
M  V30 777 C 71.9388 -2.39047 3.8102 0
M  V30 778 C 73.2578 -3.78046 2.2532 0
M  V30 779 H 70.3768 -0.547972 0.492844 0
M  V30 780 H 73.0188 -0.857628 1.69543 0
M  V30 781 H 71.1688 -3.31716 2.02229 0
M  V30 782 H 72.8408 -1.89074 4.20771 0
M  V30 783 H 71.0838 -1.71449 3.98482 0
M  V30 784 H 71.7548 -3.28462 4.4364 0
M  V30 785 H 74.2308 -3.31884 2.50983 0
M  V30 786 H 73.1068 -4.63159 2.94576 0
M  V30 787 H 73.3678 -4.23957 1.25352 0
M  V30 788 N 72.4269 -1.23603 -0.977757 0
M  V30 789 C 73.6739 -1.06971 -1.71941 0
M  V30 790 C 74.0019 0.393009 -1.90488 0
M  V30 791 O 73.2569 1.30719 -1.4564 0
M  V30 792 C 73.5559 -1.7433 -3.11999 0
M  V30 793 C 73.2219 -3.24252 -3.13323 0
M  V30 794 C 71.8839 -3.65156 -3.13392 0
M  V30 795 C 74.2359 -4.20141 -3.08433 0
M  V30 796 C 71.5639 -5.00403 -3.0629 0
M  V30 797 C 73.9159 -5.55384 -3.02873 0
M  V30 798 C 72.5799 -5.95647 -3.01265 0
M  V30 799 H 71.8499 -0.391433 -0.629175 0
M  V30 800 H 74.4969 -1.53572 -1.14403 0
M  V30 801 H 72.8019 -1.20096 -3.7294 0
M  V30 802 H 74.4989 -1.58936 -3.68158 0
M  V30 803 H 71.0889 -2.91692 -3.14029 0
M  V30 804 H 75.2729 -3.89547 -3.07517 0
M  V30 805 H 70.5289 -5.3081 -3.03399 0
M  V30 806 H 74.7029 -6.29398 -2.98046 0
M  V30 807 H 72.3299 -7.0041 -2.95516 0
M  V30 808 N 73.905 1.17692 -1.04816 0
M  V30 809 C 74.852 2.21581 -0.645797 0
M  V30 810 C 75.822 1.62367 0.350159 0
M  V30 811 O 77.007 1.89254 0.242433 0
M  V30 812 C 74.147 3.45092 -0.0227568 0
M  V30 813 C 73.26 4.18613 -1.06709 0
M  V30 814 C 72.395 5.29602 -0.411767 0
M  V30 815 C 71.434 5.94904 -1.44067 0
M  V30 816 N 70.571 6.97414 -0.809781 0
M  V30 817 H 75.411 2.55353 -1.5362 0
M  V30 818 H 72.948 1.25438 -0.768364 0
M  V30 819 H 74.906 4.15679 0.35588 0
M  V30 820 H 73.536 3.11917 0.831122 0
M  V30 821 H 72.588 3.46779 -1.5636 0
M  V30 822 H 73.9 4.63293 -1.84827 0
M  V30 823 H 73.054 6.06696 0.0206623 0
M  V30 824 H 71.793 4.86045 0.401438 0
M  V30 825 H 70.798 5.16544 -1.88316 0
M  V30 826 H 72.023 6.40542 -2.25571 0
M  V30 827 H 69.969 6.55998 -0.0170186 0
M  V30 828 H 69.886 7.40386 -1.52856 0
M  V30 829 H 71.154 7.78463 -0.401999 0
M  V30 830 N 75.3831 0.828654 1.34056 0
M  V30 831 C 76.3311 0.242973 2.31327 0
M  V30 832 C 77.3251 -0.61944 1.57668 0
M  V30 833 O 78.5311 -0.51014 1.7262 0
M  V30 834 H 74.9061 0.059834 0.749616 0
M  V30 835 H 76.8771 1.07809 2.78244 0
M  V30 836 C 75.6261 -0.575733 3.429 0
M  V30 837 H 74.9491 0.0785582 3.99723 0
M  V30 838 H 76.3891 -0.951547 4.13185 0
M  V30 839 C 74.8481 -1.75044 2.87856 0
M  V30 840 O 75.3781 -2.84882 2.83205 0
M  V30 841 N 73.5841 -1.56903 2.44602 0
M  V30 842 H 73.1311 -0.675547 2.48584 0
M  V30 843 H 73.0891 -2.35652 2.08124 0
M  V30 844 N 76.8612 -1.46375 0.584142 0
M  V30 845 C 77.8082 -2.30323 -0.148286 0
M  V30 846 C 78.7782 -1.40703 -0.882713 0
M  V30 847 O 79.9632 -1.69651 -0.873099 0
M  V30 848 C 77.1032 -3.25196 -1.15507 0
M  V30 849 C 76.2162 -4.29915 -0.423943 0
M  V30 850 C 75.3512 -5.11914 -1.41838 0
M  V30 851 C 74.3902 -6.08381 -0.673736 0
M  V30 852 N 73.5272 -6.83242 -1.6163 0
M  V30 853 H 78.3672 -2.92427 0.573644 0
M  V30 854 H 75.9042 -1.44118 0.294703 0
M  V30 855 H 77.8622 -3.78646 -1.75166 0
M  V30 856 H 76.4922 -2.64898 -1.8447 0
M  V30 857 H 75.5442 -3.7931 0.287714 0
M  V30 858 H 76.8562 -4.98549 0.158128 0
M  V30 859 H 76.0102 -5.69648 -2.08773 0
M  V30 860 H 74.7492 -4.43243 -2.03438 0
M  V30 861 H 73.7542 -5.49799 0.00938483 0
M  V30 862 H 74.9792 -6.79071 -0.0631082 0
M  V30 863 H 72.9252 -6.1728 -2.22038 0
M  V30 864 H 72.8422 -7.48144 -1.08707 0
M  V30 865 H 74.1102 -7.45534 -2.27596 0
M  V30 866 N 78.3393 -0.321999 -1.54275 0
M  V30 867 C 79.2873 0.560206 -2.25753 0
M  V30 868 C 80.2813 1.11984 -1.27106 0
M  V30 869 O 81.4873 1.06806 -1.44888 0
M  V30 870 H 77.8623 0.199304 -0.725108 0
M  V30 871 H 79.8333 -0.0649365 -2.98329 0
M  V30 872 C 78.5823 1.71023 -3.02731 0
M  V30 873 H 77.9053 1.28885 -3.78456 0
M  V30 874 H 79.3453 2.30314 -3.55993 0
M  V30 875 C 77.8043 2.62692 -2.10938 0
M  V30 876 O 78.3343 3.64364 -1.6912 0
M  V30 877 N 76.5403 2.30891 -1.76459 0
M  V30 878 H 76.0873 1.48253 -2.10663 0
M  V30 879 H 76.0453 2.92487 -1.1532 0
M  V30 880 N 79.8174 1.5752 -0.0501392 0
M  V30 881 C 80.7474 2.14502 0.922566 0
M  V30 882 C 81.7284 1.06642 1.3252 0
M  V30 883 O 82.9134 1.34577 1.4001 0
M  V30 884 C 80.0434 2.68916 2.19776 0
M  V30 885 C 78.9974 3.8175 1.93523 0
M  V30 886 C 78.3234 4.22677 3.27487 0
M  V30 887 C 79.6234 5.06932 1.25765 0
M  V30 888 H 81.3174 2.9603 0.447952 0
M  V30 889 H 78.8634 1.42401 0.214024 0
M  V30 890 H 80.8164 3.07419 2.88222 0
M  V30 891 H 79.5404 1.84578 2.69441 0
M  V30 892 H 78.1994 3.43718 1.27489 0
M  V30 893 H 77.8474 3.35291 3.74952 0
M  V30 894 H 77.5474 4.98725 3.1072 0
M  V30 895 H 79.0714 4.63779 3.97166 0
M  V30 896 H 80.4854 5.42888 1.84244 0
M  V30 897 H 78.8824 5.88116 1.19328 0
M  V30 898 H 79.9524 4.84337 0.233536 0
M  V30 899 N 81.2955 -0.223234 1.56011 0
M  V30 900 C 82.2275 -1.30006 1.88762 0
M  V30 901 C 83.2405 -1.43129 0.775746 0
M  V30 902 O 84.4295 -1.44057 1.05403 0
M  V30 903 C 81.5295 -2.67589 2.07965 0
M  V30 904 C 80.7025 -2.76434 3.38973 0
M  V30 905 C 79.7615 -3.95019 3.47629 0
M  V30 906 O 78.7875 -3.83436 4.20672 0
M  V30 907 N 79.9895 -5.09249 2.78649 0
M  V30 908 H 82.7545 -1.02238 2.81722 0
M  V30 909 H 80.3155 -0.413278 1.56536 0
M  V30 910 H 82.3075 -3.45297 2.11073 0
M  V30 911 H 80.8775 -2.87964 1.21638 0
M  V30 912 H 80.0975 -1.85216 3.47978 0
M  V30 913 H 81.3855 -2.79313 4.25278 0
M  V30 914 H 80.7835 -5.21556 2.19081 0
M  V30 915 H 79.3405 -5.85007 2.8742 0
M  V30 916 N 82.7736 -1.49793 -0.48987 0
M  V30 917 C 83.7366 -1.66752 -1.57246 0
M  V30 918 C 84.7366 -0.538867 -1.51502 0
M  V30 919 O 85.9266 -0.805545 -1.54456 0
M  V30 920 C 83.0586 -1.67528 -2.96896 0
M  V30 921 H 84.2516 -2.63321 -1.43534 0
M  V30 922 H 81.8046 -1.38992 -0.714914 0
M  V30 923 H 82.5396 -0.725837 -3.16073 0
M  V30 924 H 82.3246 -2.49504 -3.02473 0
M  V30 925 H 83.8146 -1.82667 -3.7553 0
M  V30 926 N 84.2517 0.741722 -1.39055 0
M  V30 927 C 85.6627 1.31966 -1.32068 0
M  V30 928 C 86.0137 1.96192 0.0180797 0
M  V30 929 O 85.1387 1.95861 0.920196 0
M  V30 930 C 85.7337 2.39954 -2.39181 0
M  V30 931 C 84.2927 2.93438 -2.35735 0
M  V30 932 C 83.4397 1.66936 -2.21422 0
M  V30 933 H 86.3907 0.539721 -1.4924 0
M  V30 934 H 86.4117 3.20182 -2.05581 0
M  V30 935 H 85.9237 1.9318 -3.36605 0
M  V30 936 H 84.0247 3.4451 -1.41929 0
M  V30 937 H 84.1377 3.4701 -3.30335 0
M  V30 938 H 82.5017 1.91016 -1.68478 0
M  V30 939 H 83.2847 1.22224 -3.20806 0
M  V30 940 N 85.7298 1.2412 0.971189 0
M  V30 941 C 86.6628 0.97373 2.06382 0
M  V30 942 C 87.6408 -0.0912662 1.62344 0
M  V30 943 O 88.8248 0.0449365 1.88446 0
M  V30 944 C 85.9518 0.468746 3.35441 0
M  V30 945 C 84.9978 1.52176 3.98428 0
M  V30 946 S 85.8308 3.10203 4.36503 0
M  V30 947 C 86.9868 2.61398 5.68702 0
M  V30 948 H 87.2198 1.89893 2.28753 0
M  V30 949 H 84.7528 1.07466 1.10862 0
M  V30 950 H 86.7108 0.184012 4.10087 0
M  V30 951 H 85.3718 -0.435688 3.11064 0
M  V30 952 H 84.5648 1.11876 4.91426 0
M  V30 953 H 84.1668 1.75632 3.30196 0
M  V30 954 H 86.4588 2.03992 6.4606 0
M  V30 955 H 87.4018 3.52972 6.13854 0
M  V30 956 H 87.8098 2.01941 5.27143 0
M  V30 957 N 87.2079 -1.17134 1.05439 0
M  V30 958 C 88.4379 -1.91094 0.785274 0
M  V30 959 C 88.8459 -1.77198 -0.663142 0
M  V30 960 O 88.1889 -1.10835 -1.46497 0
M  V30 961 C 88.2509 -3.42594 1.08949 0
M  V30 962 C 87.9149 -3.80274 2.53458 0
M  V30 963 C 88.9119 -3.82912 3.51673 0
M  V30 964 C 86.5969 -4.11162 2.88532 0
M  V30 965 C 88.5909 -4.15913 4.83006 0
M  V30 966 C 86.2779 -4.43831 4.20068 0
M  V30 967 C 87.2759 -4.46185 5.17115 0
M  V30 968 O 86.9639 -4.78083 6.46291 0
M  V30 969 H 86.6959 -0.613073 0.284811 0
M  V30 970 H 89.2499 -1.49461 1.40893 0
M  V30 971 H 87.4799 -3.84534 0.408741 0
M  V30 972 H 89.1689 -3.97817 0.805991 0
M  V30 973 H 89.9349 -3.5917 3.25917 0
M  V30 974 H 85.8139 -4.085 2.13656 0
M  V30 975 H 89.3579 -4.17665 5.5875 0
M  V30 976 H 85.2549 -4.67037 4.45586 0
M  V30 977 H 86.0229 -4.9593 6.51149 0
M  V30 978 N 88.686 -0.835752 -1.33615 0
M  V30 979 C 89.933 -0.429959 -1.97883 0
M  V30 980 C 90.261 1.01006 -1.66217 0
M  V30 981 O 89.516 1.72047 -0.93265 0
M  V30 982 C 89.815 -0.593925 -3.52431 0
M  V30 983 C 89.481 -2.00158 -4.04039 0
M  V30 984 C 88.143 -2.38662 -4.17844 0
M  V30 985 C 90.495 -2.92117 -4.31644 0
M  V30 986 C 87.823 -3.68435 -4.56588 0
M  V30 987 C 90.175 -4.21368 -4.71838 0
M  V30 988 C 88.839 -4.59833 -4.83849 0
M  V30 989 H 88.109 -0.157333 -0.724104 0
M  V30 990 H 90.756 -1.06217 -1.59343 0
M  V30 991 H 89.061 0.121619 -3.91611 0
M  V30 992 H 90.758 -0.260282 -4.00154 0
M  V30 993 H 87.348 -1.69252 -3.93766 0
M  V30 994 H 91.532 -2.63608 -4.20505 0
M  V30 995 H 86.788 -3.98046 -4.64079 0
M  V30 996 H 90.962 -4.92703 -4.92155 0
M  V30 997 H 88.589 -5.60438 -5.13627 0
M  V30 998 N 90.1641 1.46063 -0.591896 0
M  V30 999 C 91.4111 2.02338 -0.0809991 0
M  V30 1000 C 91.7391 1.46228 1.28249 0
M  V30 1001 O 90.9941 0.620818 1.85592 0
M  V30 1002 C 91.2931 3.57391 0.0249813 0
M  V30 1003 C 90.9591 4.32583 -1.27211 0
M  V30 1004 C 89.6211 4.52844 -1.62745 0
M  V30 1005 C 91.9731 4.75687 -2.13005 0
M  V30 1006 C 89.3011 5.13462 -2.83855 0
M  V30 1007 C 91.6531 5.37644 -3.3335 0
M  V30 1008 C 90.3171 5.5613 -3.69155 0
M  V30 1009 H 89.5871 0.740407 -0.0296397 0
M  V30 1010 H 92.2341 1.75321 -0.770374 0
M  V30 1011 H 90.5391 3.83597 0.797537 0
M  V30 1012 H 92.2361 3.98621 0.436184 0
M  V30 1013 H 88.8261 4.17116 -0.985499 0
M  V30 1014 H 93.0101 4.59782 -1.86855 0
M  V30 1015 H 88.2661 5.25965 -3.11722 0
M  V30 1016 H 92.4401 5.7 -4.00092 0
M  V30 1017 H 90.0671 6.0287 -4.63089 0
M  V30 1018 N 91.6422 0.330177 1.54103 0
M  V30 1019 C 92.8912 -0.271336 1.99867 0
M  V30 1020 C 93.2042 -1.52723 1.22209 0
M  V30 1021 O 94.4102 -2.20515 1.58383 0
M  V30 1022 C 92.8662 -0.534032 3.55916 0
M  V30 1023 C 92.4742 0.705193 4.42415 0
M  V30 1024 C 94.2182 -1.09514 4.1013 0
M  V30 1025 C 92.1252 0.414035 5.89949 0
M  V30 1026 H 91.0552 -0.105166 0.74663 0
M  V30 1027 H 93.7062 0.443429 1.78062 0
M  V30 1028 H 92.0882 -1.30915 3.73734 0
M  V30 1029 H 93.2622 1.4804 4.36372 0
M  V30 1030 H 91.5772 1.18698 3.99124 0
M  V30 1031 H 94.1742 -1.3277 5.17954 0
M  V30 1032 H 94.5172 -2.04656 3.62521 0
M  V30 1033 H 95.0502 -0.381038 3.95971 0
M  V30 1034 H 91.7892 1.33481 6.41766 0
M  V30 1035 H 91.3092 -0.323336 5.98928 0
M  V30 1036 H 92.9882 0.0263105 6.46995 0
M  V30 1037 N 93.1203 -1.57491 0.0584922 0
M  V30 1038 C 94.3603 -1.94851 -0.617458 0
M  V30 1039 C 94.7243 -0.937165 -1.67575 0
M  V30 1040 O 95.9253 -1.19795 -2.40629 0
M  V30 1041 C 94.1963 -3.36955 -1.19147 0
M  V30 1042 S 95.7553 -3.96277 -1.8844 0
M  V30 1043 H 92.5733 -0.681539 -0.202547 0
M  V30 1044 H 95.1753 -1.95073 0.129176 0
M  V30 1045 H 93.8793 -4.08355 -0.409215 0
M  V30 1046 H 93.4103 -3.40245 -1.97476 0
M  V30 1047 H 95.4253 -3.82099 -3.16568 0
M  V30 1048 N 94.5984 0.214957 -1.56127 0
M  V30 1049 C 95.8234 0.95924 -1.83884 0
M  V30 1050 C 96.2484 1.7689 -0.639644 0
M  V30 1051 O 95.6064 1.76566 0.411601 0
M  V30 1052 C 95.6544 1.84723 -3.09693 0
M  V30 1053 O 94.7584 2.94346 -2.8885 0
M  V30 1054 H 94.0994 0.27125 -0.606069 0
M  V30 1055 H 96.6294 0.226276 -2.03345 0
M  V30 1056 H 96.6394 2.25576 -3.39969 0
M  V30 1057 H 95.3144 1.25218 -3.96602 0
M  V30 1058 H 93.8914 2.57391 -2.69823 0
M  V30 1059 N 96.0765 1.50051 0.48192 0
M  V30 1060 C 97.0065 1.71046 1.58951 0
M  V30 1061 C 97.9875 0.559288 1.60642 0
M  V30 1062 O 99.1725 0.797243 1.77081 0
M  V30 1063 C 96.3025 1.79462 2.97339 0
M  V30 1064 C 95.2565 2.94558 3.10515 0
M  V30 1065 C 94.5825 2.88105 4.50444 0
M  V30 1066 C 95.8825 4.35227 2.88747 0
M  V30 1067 H 97.5765 2.6378 1.41635 0
M  V30 1068 H 95.1225 1.26936 0.679942 0
M  V30 1069 H 97.0755 1.92734 3.74742 0
M  V30 1070 H 95.7995 0.833412 3.15788 0
M  V30 1071 H 94.4585 2.80918 2.35543 0
M  V30 1072 H 94.1065 1.89853 4.65795 0
M  V30 1073 H 93.8065 3.65366 4.60197 0
M  V30 1074 H 95.3305 3.03412 5.29881 0
M  V30 1075 H 96.7445 4.49449 3.55905 0
M  V30 1076 H 95.1415 5.13856 3.09955 0
M  V30 1077 H 96.2115 4.48347 1.84696 0
M  V30 1078 N 97.5546 -0.734337 1.39446 0
M  V30 1079 C 98.5176 -1.83004 1.37994 0
M  V30 1080 C 99.5176 -1.58397 0.276938 0
M  V30 1081 O 100.708 -1.65785 0.534875 0
M  V30 1082 C 97.8396 -3.20802 1.1532 0
M  V30 1083 H 99.0326 -1.85694 2.35494 0
M  V30 1084 H 96.5856 -0.938059 1.25021 0
M  V30 1085 H 97.3206 -3.23772 0.185036 0
M  V30 1086 H 97.1056 -3.4006 1.95197 0
M  V30 1087 H 98.5956 -4.00862 1.17046 0
M  V30 1088 N 99.0327 -1.24633 -0.964593 0
M  V30 1089 C 100.282 -1.08188 -1.7023 0
M  V30 1090 C 100.595 0.37873 -1.91898 0
M  V30 1091 O 101.801 0.663427 -2.6327 0
M  V30 1092 C 100.257 -1.88773 -3.06419 0
M  V30 1093 C 99.8647 -3.39263 -2.92582 0
M  V30 1094 C 101.609 -1.80867 -3.84041 0
M  V30 1095 C 99.5157 -4.1218 -4.24101 0
M  V30 1096 H 98.4457 -0.401245 -0.638372 0
M  V30 1097 H 101.097 -1.48742 -1.07462 0
M  V30 1098 H 99.4787 -1.41035 -3.70034 0
M  V30 1099 H 100.653 -3.94603 -2.37961 0
M  V30 1100 H 98.9677 -3.48154 -2.28424 0
M  V30 1101 H 101.565 -2.32646 -4.81435 0
M  V30 1102 H 101.908 -0.774543 -4.09031 0
M  V30 1103 H 102.441 -2.26301 -3.27159 0
M  V30 1104 H 99.1797 -5.15965 -4.04303 0
M  V30 1105 H 98.6997 -3.61626 -4.78526 0
M  V30 1106 H 100.379 -4.19349 -4.92702 0
M  V30 1107 N 100.511 1.16574 -1.06058 0
M  V30 1108 C 101.736 1.91493 -0.796562 0
M  V30 1109 C 102.161 1.76773 0.642868 0
M  V30 1110 O 101.519 1.09142 1.44768 0
M  V30 1111 C 101.567 3.40293 -1.19303 0
M  V30 1112 O 100.671 4.11074 -0.330394 0
M  V30 1113 H 100.012 0.596678 -0.291326 0
M  V30 1114 H 102.542 1.47708 -1.41575 0
M  V30 1115 H 102.552 3.91057 -1.16356 0
M  V30 1116 H 101.227 3.50326 -2.24153 0
M  V30 1117 H 99.8038 3.70513 -0.421225 0
M  V30 1118 N 101.989 0.842826 1.3317 0
M  V30 1119 C 103.266 0.362216 1.92217 0
M  V30 1120 C 103.646 -1.15289 1.76838 0
M  V30 1121 O 102.994 -1.96914 1.15919 0
M  V30 1122 C 103.204 0.813495 3.39387 0
M  V30 1123 C 104.552 0.823804 4.16532 0
M  V30 1124 O 105.576 0.757358 3.48055 0
M  V30 1125 O 104.435 0.915193 5.38782 0
M  V30 1126 H 101.529 0.103317 0.820521 0
M  V30 1127 H 104.075 0.928942 1.42017 0
M  V30 1128 H 102.847 1.85624 3.4447 0
M  V30 1129 H 102.47 0.223561 3.96971 0
M  V30 1130 N 103.467 -1.45747 0.599634 0
M  V30 1131 C 104.4 -2.27547 -0.172552 0
M  V30 1132 C 105.378 -1.36657 -0.881116 0
M  V30 1133 O 106.562 -1.66081 -0.891595 0
M  V30 1134 C 103.689 -3.14829 -1.24903 0
M  V30 1135 C 102.735 -4.21603 -0.644465 0
M  V30 1136 S 103.568 -5.32754 0.541606 0
M  V30 1137 C 104.724 -6.23604 -0.535656 0
M  V30 1138 H 104.957 -2.92691 0.521468 0
M  V30 1139 H 102.49 -1.49473 0.386947 0
M  V30 1140 H 104.448 -3.65675 -1.86527 0
M  V30 1141 H 103.109 -2.48965 -1.91508 0
M  V30 1142 H 102.302 -4.82566 -1.45417 0
M  V30 1143 H 101.904 -3.73857 -0.103534 0
M  V30 1144 H 104.196 -6.62519 -1.41686 0
M  V30 1145 H 105.139 -7.0809 0.0376246 0
M  V30 1146 H 105.547 -5.58103 -0.84741 0
M  V30 1147 N 104.945 -0.338344 -1.53925 0
M  V30 1148 C 105.875 0.51328 -2.27789 0
M  V30 1149 C 106.856 1.107 -1.29149 0
M  V30 1150 O 108.041 1.12937 -1.57984 0
M  V30 1151 C 105.171 1.66697 -3.04679 0
M  V30 1152 C 104.125 1.20183 -4.1078 0
M  V30 1153 C 103.451 2.44363 -4.75595 0
M  V30 1154 C 104.751 0.30605 -5.21403 0
M  V30 1155 H 106.445 -0.102883 -2.99223 0
M  V30 1156 H 103.991 -0.0509219 -1.4391 0
M  V30 1157 H 105.944 2.26915 -3.55088 0
M  V30 1158 H 104.668 2.30995 -2.30887 0
M  V30 1159 H 103.327 0.622499 -3.61276 0
M  V30 1160 H 102.975 3.07057 -3.98403 0
M  V30 1161 H 102.675 2.13925 -5.47275 0
M  V30 1162 H 104.199 3.05317 -5.28786 0
M  V30 1163 H 105.613 0.814929 -5.67478 0
M  V30 1164 H 104.01 0.0937929 -6.00027 0
M  V30 1165 H 105.08 -0.65921 -4.80398 0
M  V30 1166 N 106.423 1.57458 -0.0668435 0
M  V30 1167 C 107.671 1.92919 0.602214 0
M  V30 1168 C 107.992 0.947215 1.70449 0
M  V30 1169 O 107.262 -0.00544117 1.95899 0
M  V30 1170 H 105.842 0.71217 0.22544 0
M  V30 1171 H 108.504 1.94508 -0.123535 0
M  V30 1172 H 107.6 2.94589 1.03073 0
M  V30 1173 N 107.901 -0.206675 1.56239 0
M  V30 1174 C 109.126 -0.949474 1.8439 0
M  V30 1175 C 109.551 -1.76549 0.649016 0
M  V30 1176 O 108.909 -1.76782 -0.402231 0
M  V30 1177 C 108.957 -1.83078 3.10668 0
M  V30 1178 O 108.061 -2.9281 2.90407 0
M  V30 1179 H 107.402 -0.268033 0.607499 0
M  V30 1180 H 109.932 -0.215488 2.03462 0
M  V30 1181 H 109.942 -2.2377 3.41161 0
M  V30 1182 H 108.617 -1.23112 3.97261 0
M  V30 1183 H 107.194 -2.55956 2.71184 0
M  V30 1184 N 109.379 -1.50304 -0.473955 0
M  V30 1185 C 110.309 -1.71886 -1.58042 0
M  V30 1186 C 111.29 -0.567799 -1.60344 0
M  V30 1187 O 112.475 -0.806623 -1.76656 0
M  V30 1188 C 109.605 -1.81036 -2.96384 0
M  V30 1189 C 108.559 -2.962 -3.08949 0
M  V30 1190 C 107.885 -2.9049 -4.48909 0
M  V30 1191 C 109.185 -4.36752 -2.86434 0
M  V30 1192 H 110.879 -2.64527 -1.40234 0
M  V30 1193 H 108.425 -1.27295 -0.673201 0
M  V30 1194 H 110.378 -1.94719 -3.73714 0
M  V30 1195 H 109.102 -0.850147 -3.15341 0
M  V30 1196 H 107.761 -2.82164 -2.3405 0
M  V30 1197 H 107.409 -1.92321 -4.64781 0
M  V30 1198 H 107.109 -3.67802 -4.58253 0
M  V30 1199 H 108.633 -3.06218 -5.28264 0
M  V30 1200 H 110.047 -4.5133 -3.53517 0
M  V30 1201 H 108.444 -5.15493 -3.07225 0
M  V30 1202 H 109.514 -4.49321 -1.82316 0
M  V30 1203 N 110.857 0.726932 -1.39834 0
M  V30 1204 C 112.087 1.51393 -1.40583 0
M  V30 1205 C 112.495 1.892 -0.000740625 0
M  V30 1206 O 111.838 1.55189 0.982951 0
M  V30 1207 C 111.9 2.82588 -2.22226 0
M  V30 1208 C 111.564 2.67169 -3.70769 0
M  V30 1209 C 112.561 2.3518 -4.63666 0
M  V30 1210 C 110.246 2.83788 -4.14451 0
M  V30 1211 C 112.24 2.20002 -5.98229 0
M  V30 1212 C 109.927 2.68229 -5.49087 0
M  V30 1213 C 110.925 2.36382 -6.4079 0
M  V30 1214 O 110.613 2.2093 -7.72946 0
M  V30 1215 H 110.345 0.474168 -0.48181 0
M  V30 1216 H 112.899 0.905247 -1.84376 0
M  V30 1217 H 111.129 3.45746 -1.73195 0
M  V30 1218 H 112.818 3.44247 -2.15055 0
M  V30 1219 H 113.584 2.21984 -4.31217 0
M  V30 1220 H 109.463 3.07566 -3.43401 0
M  V30 1221 H 113.007 1.95067 -6.69772 0
M  V30 1222 H 108.904 2.81006 -5.81125 0
M  V30 1223 H 109.672 2.35937 -7.83757 0
M  V30 1224 N 112.336 1.25143 0.95797 0
M  V30 1225 C 113.283 1.05235 2.05412 0
M  V30 1226 C 114.253 -0.0374561 1.66058 0
M  V30 1227 O 115.438 0.119073 1.90428 0
M  V30 1228 C 112.578 0.673589 3.38462 0
M  V30 1229 C 111.691 1.8379 3.90954 0
M  V30 1230 C 110.826 1.40381 5.12315 0
M  V30 1231 C 109.865 2.53746 5.57027 0
M  V30 1232 N 109.002 2.11136 6.69601 0
M  V30 1233 H 113.842 1.99048 2.21774 0
M  V30 1234 H 111.379 0.991277 1.08683 0
M  V30 1235 H 113.337 0.434964 4.14926 0
M  V30 1236 H 111.967 -0.227554 3.21997 0
M  V30 1237 H 111.019 2.18992 3.11041 0
M  V30 1238 H 112.331 2.68937 4.20089 0
M  V30 1239 H 111.485 1.12464 5.96185 0
M  V30 1240 H 110.224 0.523015 4.84887 0
M  V30 1241 H 109.229 2.82412 4.71724 0
M  V30 1242 H 110.454 3.42398 5.86464 0
M  V30 1243 H 108.4 1.25468 6.4389 0
M  V30 1244 H 108.317 2.89832 6.98236 0
M  V30 1245 H 109.585 1.86385 7.56889 0
M  V30 1246 N 113.814 -1.1601 1.06675 0
M  V30 1247 C 115.063 -1.85973 0.780818 0
M  V30 1248 C 115.376 -1.82819 -0.695444 0
M  V30 1249 O 116.582 -2.484 -1.09589 0
M  V30 1250 C 115.038 -3.33757 1.34665 0
M  V30 1251 C 114.646 -3.45374 2.85343 0
M  V30 1252 C 116.39 -4.0895 1.13843 0
M  V30 1253 C 114.297 -4.87266 3.35151 0
M  V30 1254 H 113.227 -0.696661 0.288407 0
M  V30 1255 H 115.878 -1.30903 1.28595 0
M  V30 1256 H 114.26 -3.88456 0.769274 0
M  V30 1257 H 115.434 -3.00816 3.49065 0
M  V30 1258 H 113.749 -2.83619 3.04876 0
M  V30 1259 H 116.346 -5.13654 1.4854 0
M  V30 1260 H 116.689 -4.16229 0.0770282 0
M  V30 1261 H 117.222 -3.605 1.68179 0
M  V30 1262 H 113.961 -4.85168 4.40786 0
M  V30 1263 H 113.481 -5.32433 2.76179 0
M  V30 1264 H 115.16 -5.56097 3.30704 0
M  V30 1265 N 115.292 -0.849877 -1.32721 0
M  V30 1266 C 116.222 -0.306308 -2.31482 0
M  V30 1267 C 117.203 0.591952 -1.59468 0
M  V30 1268 O 118.388 0.513199 -1.87296 0
M  V30 1269 C 115.518 0.510204 -3.43532 0
M  V30 1270 C 114.472 -0.293209 -4.26994 0
M  V30 1271 C 113.798 0.647743 -5.30762 0
M  V30 1272 C 115.098 -1.51634 -4.99804 0
M  V30 1273 H 116.792 -1.13153 -2.77195 0
M  V30 1274 H 114.338 -0.545553 -1.33266 0
M  V30 1275 H 116.291 0.900856 -4.11658 0
M  V30 1276 H 115.015 1.36874 -2.96535 0
M  V30 1277 H 113.674 -0.665555 -3.60508 0
M  V30 1278 H 113.322 1.50299 -4.8002 0
M  V30 1279 H 113.022 0.11422 -5.87489 0
M  V30 1280 H 114.546 1.03567 -6.01753 0
M  V30 1281 H 115.96 -1.19824 -5.60638 0
M  V30 1282 H 114.357 -1.98745 -5.66234 0
M  V30 1283 H 115.427 -2.28018 -4.27943 0
M  V30 1284 N 116.77 1.45427 -0.607355 0
M  V30 1285 C 117.68 2.34325 0.113463 0
M  V30 1286 C 118.696 1.51226 0.860617 0
M  V30 1287 O 119.872 1.84029 0.818255 0
M  V30 1288 C 116.937 3.28839 1.09844 0
M  V30 1289 C 115.998 4.27844 0.353271 0
M  V30 1290 C 115.231 5.17842 1.29133 0
M  V30 1291 O 115.454 5.11264 2.52913 0
M  V30 1292 O 114.388 5.96713 0.788523 0
M  V30 1293 H 118.214 2.97364 -0.617094 0
M  V30 1294 H 115.799 1.44807 -0.367619 0
M  V30 1295 H 117.681 3.8708 1.66575 0
M  V30 1296 H 116.356 2.68365 1.81003 0
M  V30 1297 H 115.263 3.7322 -0.256494 0
M  V30 1298 H 116.596 4.91173 -0.317822 0
M  V30 1299 N 118.248 0.346503 1.53744 0
M  V30 1300 C 119.196 -0.52422 2.26616 0
M  V30 1301 C 120.19 -1.09948 1.28871 0
M  V30 1302 O 121.396 -1.04488 1.46568 0
M  V30 1303 H 117.771 -0.187743 0.728187 0
M  V30 1304 H 119.742 0.11239 2.98188 0
M  V30 1305 C 118.491 -1.66186 3.05414 0
M  V30 1306 H 117.814 -1.22848 3.80458 0
M  V30 1307 H 119.254 -2.24622 3.59612 0
M  V30 1308 C 117.713 -2.59302 2.1509 0
M  V30 1309 O 118.243 -3.61628 1.74895 0
M  V30 1310 N 116.449 -2.28055 1.8011 0
M  V30 1311 H 115.996 -1.44883 2.12994 0
M  V30 1312 H 115.954 -2.90615 1.19958 0
M  V30 1313 N 119.726 -1.57421 0.075193 0
M  V30 1314 C 120.975 -1.92794 -0.592731 0
M  V30 1315 C 121.288 -0.957478 -1.70563 0
M  V30 1316 O 122.494 -1.20417 -2.43335 0
M  V30 1317 C 120.95 -3.42495 -1.10569 0
M  V30 1318 C 120.558 -4.47994 -0.0236121 0
M  V30 1319 C 122.302 -3.86864 -1.74748 0
M  V30 1320 C 120.209 -5.88829 -0.550803 0
M  V30 1321 H 119.139 -0.719591 -0.225177 0
M  V30 1322 H 121.79 -1.82902 0.147978 0
M  V30 1323 H 120.172 -3.47471 -1.89947 0
M  V30 1324 H 121.346 -4.54637 0.751099 0
M  V30 1325 H 119.661 -4.13113 0.522159 0
M  V30 1326 H 122.258 -4.8947 -2.15229 0
M  V30 1327 H 122.601 -3.24417 -2.60882 0
M  V30 1328 H 123.134 -3.84504 -1.01986 0
M  V30 1329 H 119.873 -6.54929 0.273457 0
M  V30 1330 H 119.393 -5.85698 -1.29296 0
M  V30 1331 H 121.072 -6.38811 -1.02613 0
M  V30 1332 N 121.204 0.198386 -1.56346 0
M  V30 1333 C 122.134 1.24865 -1.9731 0
M  V30 1334 C 123.115 1.47651 -0.844576 0
M  V30 1335 O 124.3 1.59444 -1.10866 0
M  V30 1336 C 121.43 2.59358 -2.30977 0
M  V30 1337 C 120.384 2.5119 -3.46537 0
M  V30 1338 C 119.71 3.89926 -3.65871 0
M  V30 1339 C 121.01 2.03977 -4.80823 0
M  V30 1340 H 122.704 0.908252 -2.85291 0
M  V30 1341 H 120.25 0.435462 -1.37258 0
M  V30 1342 H 122.203 3.33011 -2.58228 0
M  V30 1343 H 120.927 2.95132 -1.39874 0
M  V30 1344 H 119.586 1.79993 -3.19371 0
M  V30 1345 H 119.234 4.23046 -2.72105 0
M  V30 1346 H 118.934 3.85336 -4.4361 0
M  V30 1347 H 120.458 4.65205 -3.95495 0
M  V30 1348 H 121.872 2.67386 -5.07127 0
M  V30 1349 H 120.269 2.10397 -5.62008 0
M  V30 1350 H 121.339 0.992861 -4.74626 0
M  V30 1351 N 122.682 1.50554 0.465978 0
M  V30 1352 C 123.931 1.61038 1.21448 0
M  V30 1353 C 124.244 0.31865 1.92987 0
M  V30 1354 O 125.45 0.302469 2.6981 0
M  V30 1355 C 123.906 2.84283 2.20706 0
M  V30 1356 C 123.514 4.20352 1.54946 0
M  V30 1357 C 125.258 3.04115 2.96166 0
M  V30 1358 C 123.165 5.34778 2.5252 0
M  V30 1359 H 122.095 0.599718 0.457005 0
M  V30 1360 H 124.746 1.7699 0.484424 0
M  V30 1361 H 123.128 2.61901 2.97025 0
M  V30 1362 H 124.302 4.53008 0.843811 0
M  V30 1363 H 122.617 4.06167 0.917475 0
M  V30 1364 H 125.214 3.86774 3.69202 0
M  V30 1365 H 125.557 2.16045 3.55852 0
M  V30 1366 H 126.09 3.26702 2.26959 0
M  V30 1367 H 122.829 6.25018 1.97566 0
M  V30 1368 H 122.349 5.06534 3.21222 0
M  V30 1369 H 124.028 5.65561 3.14245 0
M  V30 1370 N 124.16 -0.719506 1.40217 0
M  V30 1371 C 125.409 -1.47486 1.37589 0
M  V30 1372 C 125.722 -1.9559 -0.0201568 0
M  V30 1373 O 126.928 -2.70973 -0.169049 0
M  V30 1374 C 125.384 -2.66575 2.41796 0
M  V30 1375 C 124.992 -2.25358 3.87192 0
M  V30 1376 C 126.736 -3.4433 2.48269 0
M  V30 1377 C 124.643 -3.41262 4.83005 0
M  V30 1378 H 123.573 -0.553901 0.511576 0
M  V30 1379 H 126.224 -0.783427 1.65936 0
M  V30 1380 H 124.606 -3.3787 2.06543 0
M  V30 1381 H 125.78 -1.61509 4.31569 0
M  V30 1382 H 124.095 -1.60657 3.84159 0
M  V30 1383 H 126.692 -4.30569 3.17041 0
M  V30 1384 H 127.035 -3.87872 1.51198 0
M  V30 1385 H 127.568 -2.80076 2.82493 0
M  V30 1386 H 124.307 -3.02755 5.81394 0
M  V30 1387 H 123.827 -4.0404 4.43297 0
M  V30 1388 H 125.506 -4.07383 5.02641 0
M  V30 1389 N 125.638 -1.25649 -0.95132 0
M  V30 1390 C 126.568 -1.08808 -2.06599 0
M  V30 1391 C 127.549 0.00382547 -1.701 0
M  V30 1392 O 128.734 -0.166325 -1.93486 0
M  V30 1393 C 125.864 -0.709542 -3.39975 0
M  V30 1394 C 124.818 -1.75206 -3.90496 0
M  V30 1395 C 124.144 -1.22811 -5.20405 0
M  V30 1396 C 125.444 -3.15153 -4.16504 0
M  V30 1397 H 127.138 -2.02048 -2.20946 0
M  V30 1398 H 124.684 -0.972835 -1.06169 0
M  V30 1399 H 126.637 -0.578649 -4.17408 0
M  V30 1400 H 125.361 0.258556 -3.25575 0
M  V30 1401 H 124.02 -1.87145 -3.15234 0
M  V30 1402 H 123.668 -0.250145 -5.02378 0
M  V30 1403 H 123.368 -1.92492 -5.55176 0
M  V30 1404 H 124.892 -1.10968 -6.00432 0
M  V30 1405 H 126.306 -3.06349 -4.84586 0
M  V30 1406 H 124.703 -3.82333 -4.62538 0
M  V30 1407 H 125.773 -3.61966 -3.22658 0
M  V30 1408 N 127.117 1.15442 -1.07289 0
M  V30 1409 C 128.533 1.38201 -0.798288 0
M  V30 1410 C 128.733 1.92429 0.597769 0
M  V30 1411 O 127.789 2.12962 1.3566 0
M  V30 1412 C 129.102 2.35357 -1.87156 0
M  V30 1413 C 130.65 2.49021 -1.89624 0
M  V30 1414 C 131.125 3.49468 -2.96034 0
M  V30 1415 N 132.616 3.57003 -2.95132 0
M  V30 1416 C 133.351 4.34543 -3.74112 0
M  V30 1417 N 132.847 5.15421 -4.6294 0
M  V30 1418 N 134.64 4.29625 -3.62462 0
M  V30 1419 H 126.791 0.78584 -1.97328 0
M  V30 1420 H 129.054 0.408065 -0.855679 0
M  V30 1421 H 128.76 2.02626 -2.87464 0
M  V30 1422 H 128.634 3.35129 -1.73114 0
M  V30 1423 H 131.021 2.81051 -0.899687 0
M  V30 1424 H 131.102 1.4925 -2.07745 0
M  V30 1425 H 130.746 3.18173 -3.95889 0
M  V30 1426 H 130.676 4.48992 -2.75161 0
M  V30 1427 H 133.167 2.99276 -2.30743 0
M  V30 1428 H 133.48 5.7183 -5.19837 0
M  V30 1429 H 131.825 5.14729 -4.66989 0
M  V30 1430 H 135.016 3.65505 -2.92444 0
M  V30 1431 H 135.189 4.89807 -4.24256 0
M  V30 1432 N 128.595 0.856903 1.32268 0
M  V30 1433 C 129.543 0.291987 2.3076 0
M  V30 1434 C 130.537 -0.585857 1.58947 0
M  V30 1435 O 131.743 -0.47341 1.73663 0
M  V30 1436 H 128.118 0.075721 0.748178 0
M  V30 1437 H 130.089 1.13687 2.75895 0
M  V30 1438 C 128.838 -0.502869 3.44044 0
M  V30 1439 H 128.161 0.163328 3.99466 0
M  V30 1440 H 129.601 -0.863691 4.1511 0
M  V30 1441 C 128.06 -1.68898 2.91505 0
M  V30 1442 O 128.59 -2.78811 2.89184 0
M  V30 1443 N 126.796 -1.51679 2.47875 0
M  V30 1444 H 126.343 -0.622666 2.49961 0
M  V30 1445 H 126.301 -2.31184 2.13076 0
M  V30 1446 N 130.073 -1.45103 0.615059 0
M  V30 1447 C 131.006 -2.27717 -0.148408 0
M  V30 1448 C 131.984 -1.37584 -0.866572 0
M  V30 1449 O 133.168 -1.67017 -0.87393 0
M  V30 1450 C 130.295 -3.16136 -1.21557 0
M  V30 1451 C 129.341 -4.22263 -0.599712 0
M  V30 1452 S 130.174 -5.3215 0.598081 0
M  V30 1453 C 131.33 -6.24137 -0.469484 0
M  V30 1454 H 131.563 -2.92121 0.552483 0
M  V30 1455 H 129.096 -1.49054 0.402778 0
M  V30 1456 H 131.054 -3.67633 -1.82638 0
M  V30 1457 H 129.715 -2.50982 -1.88857 0
M  V30 1458 H 128.908 -4.84081 -1.4029 0
M  V30 1459 H 128.51 -3.73945 -0.063876 0
M  V30 1460 H 130.802 -6.63984 -1.34652 0
M  V30 1461 H 131.745 -7.0801 0.112725 0
M  V30 1462 H 132.153 -5.58971 -0.788168 0
M  V30 1463 N 131.551 -0.354651 -1.53558 0
M  V30 1464 C 132.799 0.237972 -2.00694 0
M  V30 1465 C 133.12 1.50173 -1.24391 0
M  V30 1466 O 132.39 1.92673 -0.354135 0
M  V30 1467 H 130.97 0.0909256 -0.741446 0
M  V30 1468 H 133.632 -0.478368 -1.88938 0
M  V30 1469 H 132.728 0.47264 -3.085 0
M  V30 1470 N 133.029 1.57378 -0.0835403 0
M  V30 1471 C 134.259 1.97975 0.590713 0
M  V30 1472 C 134.667 0.961083 1.62972 0
M  V30 1473 O 134.01 -0.0590879 1.83605 0
M  V30 1474 C 134.072 3.34915 1.3066 0
M  V30 1475 C 133.736 4.55069 0.419698 0
M  V30 1476 C 134.733 5.18868 -0.32749 0
M  V30 1477 C 132.418 5.0114 0.341137 0
M  V30 1478 C 134.412 6.27098 -1.14134 0
M  V30 1479 C 132.099 6.0924 -0.476374 0
M  V30 1480 C 133.097 6.72083 -1.21627 0
M  V30 1481 O 132.785 7.781 -2.02028 0
M  V30 1482 H 132.517 0.655818 0.163947 0
M  V30 1483 H 135.071 2.04807 -0.156021 0
M  V30 1484 H 133.301 3.24733 2.09966 0
M  V30 1485 H 134.99 3.60037 1.87424 0
M  V30 1486 H 135.756 4.84211 -0.276459 0
M  V30 1487 H 131.635 4.51996 0.90668 0
M  V30 1488 H 135.179 6.7608 -1.71935 0
M  V30 1489 H 131.076 6.43329 -0.528927 0
M  V30 1490 H 131.844 7.95034 -1.94586 0
M  V30 1491 N 134.507 -0.190092 1.56449 0
M  V30 1492 C 135.437 -1.23816 1.97969 0
M  V30 1493 C 136.418 -1.47201 0.852395 0
M  V30 1494 O 137.603 -1.58854 1.1171 0
M  V30 1495 C 134.733 -2.5813 2.3235 0
M  V30 1496 C 133.687 -2.49348 3.47864 0
M  V30 1497 C 133.013 -3.8798 3.67934 0
M  V30 1498 C 134.313 -2.01424 4.81898 0
M  V30 1499 H 136.007 -0.89311 2.85769 0
M  V30 1500 H 133.553 -0.428177 1.37487 0
M  V30 1501 H 135.506 -3.31637 2.59991 0
M  V30 1502 H 134.23 -2.94386 1.41438 0
M  V30 1503 H 132.889 -1.78297 3.20321 0
M  V30 1504 H 132.537 -4.21597 2.74344 0
M  V30 1505 H 132.237 -3.82978 4.45648 0
M  V30 1506 H 133.761 -4.63101 3.97957 0
M  V30 1507 H 135.175 -2.64693 5.08538 0
M  V30 1508 H 133.572 -2.07413 5.63116 0
M  V30 1509 H 134.642 -0.967677 4.75146 0
M  V30 1510 N 135.985 -1.50799 -0.457987 0
M  V30 1511 C 136.932 -1.70617 -1.5543 0
M  V30 1512 C 137.902 -0.547562 -1.56815 0
M  V30 1513 O 139.087 -0.779647 -1.74144 0
M  V30 1514 C 136.227 -1.81831 -2.93311 0
M  V30 1515 C 135.34 -3.09278 -3.01615 0
M  V30 1516 C 134.475 -3.11209 -4.30491 0
M  V30 1517 C 133.514 -4.33055 -4.32585 0
M  V30 1518 N 132.651 -4.32652 -5.52952 0
M  V30 1519 H 137.491 -2.64207 -1.37836 0
M  V30 1520 H 135.028 -1.30959 -0.669937 0
M  V30 1521 H 136.986 -1.86314 -3.73287 0
M  V30 1522 H 135.616 -0.916685 -3.0951 0
M  V30 1523 H 134.668 -3.14203 -2.1443 0
M  V30 1524 H 135.98 -3.99233 -2.99022 0
M  V30 1525 H 135.134 -3.14494 -5.18824 0
M  V30 1526 H 133.873 -2.19106 -4.35711 0
M  V30 1527 H 132.878 -4.29969 -3.42647 0
M  V30 1528 H 134.103 -5.264 -4.29046 0
M  V30 1529 H 132.049 -3.43409 -5.58933 0
M  V30 1530 H 131.966 -5.16392 -5.52155 0
M  V30 1531 H 133.234 -4.40101 -6.43375 0
M  V30 1532 N 137.463 0.71206 -1.40597 0
M  V30 1533 C 138.874 1.29135 -1.34837 0
M  V30 1534 C 139.225 1.96186 -0.0235395 0
M  V30 1535 O 138.35 1.97768 0.878444 0
M  V30 1536 C 138.945 2.34827 -2.44217 0
M  V30 1537 C 137.504 2.88371 -2.41907 0
M  V30 1538 C 136.651 1.62202 -2.24913 0
M  V30 1539 H 139.602 0.507944 -1.50352 0
M  V30 1540 H 139.623 3.15749 -2.12327 0
M  V30 1541 H 139.135 1.85996 -3.40627 0
M  V30 1542 H 137.236 3.41422 -1.49204 0
M  V30 1543 H 137.349 3.39925 -3.37621 0
M  V30 1544 H 135.713 1.874 -1.72492 0
M  V30 1545 H 136.496 1.15391 -3.23326 0
M  V30 1546 N 138.941 1.26152 0.944643 0
M  V30 1547 C 140.357 1.03189 1.21754 0
M  V30 1548 C 140.557 -0.245112 2.00004 0
M  V30 1549 O 139.613 -0.955176 2.33736 0
M  V30 1550 C 140.926 2.26119 1.98219 0
M  V30 1551 C 142.474 2.30984 2.11224 0
M  V30 1552 C 142.949 3.53597 2.91089 0
M  V30 1553 N 144.44 3.54053 2.98664 0
M  V30 1554 C 145.175 4.45593 3.60881 0
M  V30 1555 N 144.671 5.47416 4.24626 0
M  V30 1556 N 146.464 4.33252 3.58119 0
M  V30 1557 H 138.615 2.08177 0.421437 0
M  V30 1558 H 140.878 0.914723 0.248969 0
M  V30 1559 H 140.584 3.18984 1.48128 0
M  V30 1560 H 140.458 2.3009 2.98895 0
M  V30 1561 H 142.845 1.38635 2.60508 0
M  V30 1562 H 142.926 2.31026 1.09821 0
M  V30 1563 H 142.57 4.46273 2.42493 0
M  V30 1564 H 142.5 3.50802 3.92741 0
M  V30 1565 H 144.991 2.80403 2.53343 0
M  V30 1566 H 145.304 6.13459 4.69987 0
M  V30 1567 H 143.649 5.51278 4.23223 0
M  V30 1568 H 146.84 3.52924 3.0751 0
M  V30 1569 H 147.013 5.04786 4.06319 0
M  V30 1570 N 140.419 -1.14872 1.07899 0
M  V30 1571 C 141.667 -1.85422 0.803941 0
M  V30 1572 C 141.988 -1.83051 -0.67211 0
M  V30 1573 O 141.258 -1.27532 -1.48703 0
M  V30 1574 H 139.838 -0.686537 0.294408 0
M  V30 1575 H 142.5 -1.39226 1.3639 0
M  V30 1576 H 141.596 -2.90399 1.14346 0
M  V30 1577 N 141.898 -0.863906 -1.31812 0
M  V30 1578 C 143.123 -0.48527 -2.01643 0
M  V30 1579 C 143.548 0.913058 -1.64453 0
M  V30 1580 O 142.906 1.6014 -0.849985 0
M  V30 1581 C 142.954 -0.642625 -3.54828 0
M  V30 1582 O 142.058 0.320659 -4.11151 0
M  V30 1583 H 141.399 -0.193793 -0.635091 0
M  V30 1584 H 143.929 -1.16565 -1.68148 0
M  V30 1585 H 143.939 -0.533628 -4.04495 0
M  V30 1586 H 142.614 -1.66227 -3.81237 0
M  V30 1587 H 141.191 0.167126 -3.72525 0
M  V30 1588 N 143.376 1.44774 -0.622745 0
M  V30 1589 C 144.623 2.02121 -0.1239 0
M  V30 1590 C 144.951 1.48915 1.25118 0
M  V30 1591 O 144.206 0.660045 1.84233 0
M  V30 1592 C 144.505 3.57364 -0.0508323 0
M  V30 1593 C 144.171 4.29787 -1.36358 0
M  V30 1594 C 142.833 4.4929 -1.72314 0
M  V30 1595 C 145.185 4.71062 -2.23048 0
M  V30 1596 C 142.513 5.07325 -2.94682 0
M  V30 1597 C 144.865 5.30452 -3.44679 0
M  V30 1598 C 143.529 5.48175 -3.80868 0
M  V30 1599 H 142.799 0.739612 -0.0453381 0
M  V30 1600 H 145.446 1.73648 -0.807389 0
M  V30 1601 H 143.751 3.85202 0.715991 0
M  V30 1602 H 145.448 3.99456 0.351533 0
M  V30 1603 H 142.038 4.14932 -1.07375 0
M  V30 1604 H 146.222 4.55715 -1.96565 0
M  V30 1605 H 141.478 5.19235 -3.22809 0
M  V30 1606 H 145.652 5.61385 -4.12092 0
M  V30 1607 H 143.279 5.92912 -4.75773 0
M  V30 1608 N 144.854 0.36279 1.53368 0
M  V30 1609 C 145.764 -0.492994 2.29362 0
M  V30 1610 C 146.78 -1.09507 1.35219 0
M  V30 1611 O 147.956 -1.10662 1.68273 0
M  V30 1612 C 145.021 -1.61855 3.066 0
M  V30 1613 C 144.082 -1.04429 4.16405 0
M  V30 1614 C 143.315 -2.11621 4.89951 0
M  V30 1615 O 143.538 -3.32684 4.63333 0
M  V30 1616 O 142.472 -1.74835 5.75948 0
M  V30 1617 H 146.298 0.125331 3.03441 0
M  V30 1618 H 143.883 0.127253 1.48857 0
M  V30 1619 H 145.765 -2.27302 3.54841 0
M  V30 1620 H 144.44 -2.22233 2.3536 0
M  V30 1621 H 143.347 -0.353819 3.72423 0
M  V30 1622 H 144.68 -0.485113 4.89804 0
M  V30 1623 N 146.332 -1.57332 0.0918853 0
M  V30 1624 C 147.56 -1.98574 -0.581048 0
M  V30 1625 C 147.975 -0.970903 -1.61923 0
M  V30 1626 O 147.332 0.0399054 -1.82456 0
M  V30 1627 C 147.383 -3.39872 -1.23164 0
M  V30 1628 O 147.104 -4.37469 -0.234989 0
M  V30 1629 C 148.605 -3.96099 -1.99049 0
M  V30 1630 H 145.825 -0.65261 -0.156018 0
M  V30 1631 H 148.369 -2.0379 0.170225 0
M  V30 1632 H 146.524 -3.35679 -1.93386 0
M  V30 1633 H 146.938 -5.19751 -0.70418 0
M  V30 1634 H 148.412 -4.97127 -2.39934 0
M  V30 1635 H 148.889 -3.3374 -2.85507 0
M  V30 1636 H 149.495 -4.03755 -1.3365 0
M  V30 1637 N 147.81 0.181792 -1.56548 0
M  V30 1638 C 149.038 0.915947 -1.85521 0
M  V30 1639 C 149.453 1.76282 -0.676016 0
M  V30 1640 O 148.81 1.79012 0.355077 0
M  V30 1641 C 148.861 1.80126 -3.13427 0
M  V30 1642 O 148.582 0.988562 -4.26801 0
M  V30 1643 C 150.083 2.64597 -3.55673 0
M  V30 1644 H 147.303 0.26661 -0.61576 0
M  V30 1645 H 149.847 0.185039 -2.03661 0
M  V30 1646 H 148.002 2.48563 -2.97145 0
M  V30 1647 H 148.416 1.59308 -4.99721 0
M  V30 1648 H 149.89 3.2235 -4.48101 0
M  V30 1649 H 150.367 3.38958 -2.79292 0
M  V30 1650 H 150.973 2.0151 -3.74532 0
M  V30 1651 N 149.288 1.51039 0.449983 0
M  V30 1652 C 150.251 1.70863 1.5277 0
M  V30 1653 C 151.251 0.578846 1.5002 0
M  V30 1654 O 152.441 0.846213 1.52266 0
M  V30 1655 C 149.573 1.75341 2.9235 0
M  V30 1656 H 150.766 2.67034 1.36502 0
M  V30 1657 H 148.319 1.40838 0.677812 0
M  V30 1658 H 149.054 0.809383 3.14037 0
M  V30 1659 H 148.839 2.57436 2.95752 0
M  V30 1660 H 150.329 1.92559 3.70555 0
M  V30 1661 N 150.766 -0.704594 1.40972 0
M  V30 1662 C 152.043 -1.45847 1.30338 0
M  V30 1663 C 152.423 -2.10973 -0.0732344 0
M  V30 1664 O 151.771 -2.00997 -1.08685 0
M  V30 1665 C 151.981 -2.48525 2.45023 0
M  V30 1666 C 153.329 -3.1404 2.8577 0
M  V30 1667 O 154.353 -2.58848 2.44696 0
M  V30 1668 O 153.212 -4.13981 3.56766 0
M  V30 1669 H 150.306 -0.649092 0.512454 0
M  V30 1670 H 152.852 -0.735836 1.52917 0
M  V30 1671 H 151.624 -1.98994 3.36923 0
M  V30 1672 H 151.247 -3.2831 2.24272 0
M  V30 1673 N 152.244 -1.26651 -0.937939 0
M  V30 1674 C 153.521 -1.0313 -1.66204 0
M  V30 1675 C 153.901 0.437256 -2.06522 0
M  V30 1676 O 153.249 1.41831 -1.79154 0
M  V30 1677 C 153.459 -1.98314 -2.87181 0
M  V30 1678 C 154.807 -2.27107 -3.58758 0
M  V30 1679 O 155.831 -1.96205 -2.97291 0
M  V30 1680 O 154.69 -2.79736 -4.69479 0
M  V30 1681 H 151.784 -0.392384 -0.727986 0
M  V30 1682 H 154.33 -1.37874 -0.989382 0
M  V30 1683 H 153.102 -2.97399 -2.54302 0
M  V30 1684 H 152.725 -1.64068 -3.6217 0
M  V30 1685 N 153.722 1.14298 -1.08507 0
M  V30 1686 C 154.971 1.84708 -0.810305 0
M  V30 1687 C 155.284 1.83903 0.666271 0
M  V30 1688 O 156.49 2.50112 1.05624 0
M  V30 1689 C 154.946 3.31572 -1.39957 0
M  V30 1690 C 154.554 3.40791 -2.90801 0
M  V30 1691 C 156.298 4.07087 -1.20334 0
M  V30 1692 C 154.205 4.81872 -3.4286 0
M  V30 1693 H 153.135 0.691985 -0.299454 0
M  V30 1694 H 155.786 1.28841 -1.30661 0
M  V30 1695 H 154.168 3.87183 -0.830976 0
M  V30 1696 H 155.342 2.95225 -3.53806 0
M  V30 1697 H 153.657 2.78732 -3.0935 0
M  V30 1698 H 156.254 5.11225 -1.56693 0
M  V30 1699 H 156.597 4.16054 -0.143237 0
M  V30 1700 H 157.13 3.57779 -1.73893 0
M  V30 1701 H 153.869 4.78094 -4.48449 0
M  V30 1702 H 153.389 5.27972 -2.84615 0
M  V30 1703 H 155.068 5.50765 -3.39509 0
M  V30 1704 N 155.201 0.870884 1.31352 0
M  V30 1705 C 156.45 0.478408 1.95944 0
M  V30 1706 C 156.763 -0.974493 1.69597 0
M  V30 1707 O 157.969 -1.47316 2.28058 0
M  V30 1708 C 156.425 0.804609 3.50791 0
M  V30 1709 C 156.033 2.27433 3.85977 0
M  V30 1710 C 157.777 0.480648 4.2177 0
M  V30 1711 C 155.684 2.5429 5.33939 0
M  V30 1712 H 154.614 0.175175 0.733369 0
M  V30 1713 H 157.265 1.06391 1.4951 0
M  V30 1714 H 155.647 0.148347 3.95722 0
M  V30 1715 H 156.821 2.97373 3.52002 0
M  V30 1716 H 155.136 2.56442 3.28065 0
M  V30 1717 H 157.733 0.658519 5.30629 0
M  V30 1718 H 158.076 -0.578979 4.12254 0
M  V30 1719 H 158.609 1.09349 3.82476 0
M  V30 1720 H 155.348 3.58939 5.48491 0
M  V30 1721 H 154.868 1.88945 5.69263 0
M  V30 1722 H 156.547 2.39066 6.01212 0
M  V30 1723 N 156.679 -1.44442 0.630414 0
M  V30 1724 C 157.956 -1.9549 0.0655657 0
M  V30 1725 C 158.336 -1.5724 -1.40851 0
M  V30 1726 O 157.684 -0.846116 -2.12257 0
M  V30 1727 C 157.894 -3.47812 0.287691 0
M  V30 1728 C 159.242 -4.24216 0.180513 0
M  V30 1729 O 160.266 -3.55526 0.219019 0
M  V30 1730 O 159.125 -5.46434 0.0848493 0
M  V30 1731 H 156.219 -0.826688 -0.0227177 0
M  V30 1732 H 158.765 -1.54496 0.702068 0
M  V30 1733 H 157.537 -3.687 1.31056 0
M  V30 1734 H 157.16 -3.95751 -0.382984 0
M  V30 1735 N 158.157 -0.370918 -1.53173 0
M  V30 1736 C 159.382 0.220293 -2.06227 0
M  V30 1737 C 159.807 1.41243 -1.24225 0
M  V30 1738 O 159.165 1.79387 -0.262645 0
M  V30 1739 C 159.213 0.586663 -3.55796 0
M  V30 1740 O 158.317 1.68317 -3.76488 0
M  V30 1741 H 157.658 0.0308099 -0.663285 0
M  V30 1742 H 160.188 -0.533068 -1.97534 0
M  V30 1743 H 160.198 0.85617 -3.98916 0
M  V30 1744 H 158.873 -0.285013 -4.14922 0
M  V30 1745 H 157.45 1.40881 -3.45264 0
M  V30 1746 N 159.635 1.57281 -0.100228 0
M  V30 1747 C 160.565 2.17328 0.853857 0
M  V30 1748 C 161.546 1.10804 1.2906 0
M  V30 1749 O 162.731 1.38963 1.35657 0
M  V30 1750 C 159.861 2.75772 2.11109 0
M  V30 1751 C 158.815 3.87713 1.81279 0
M  V30 1752 C 158.141 4.32882 3.13874 0
M  V30 1753 C 159.441 5.10677 1.09574 0
M  V30 1754 H 161.135 2.97305 0.353545 0
M  V30 1755 H 158.681 1.43009 0.168612 0
M  V30 1756 H 160.634 3.16433 2.78296 0
M  V30 1757 H 159.358 1.93057 2.63432 0
M  V30 1758 H 158.017 3.476 1.16489 0
M  V30 1759 H 157.665 3.47051 3.64095 0
M  V30 1760 H 157.365 5.08358 2.94696 0
M  V30 1761 H 158.889 4.7618 3.82211 0
M  V30 1762 H 160.303 5.48474 1.66879 0
M  V30 1763 H 158.7 5.91615 1.00557 0
M  V30 1764 H 159.77 4.84835 0.0793299 0
M  V30 1765 N 161.113 -0.173488 1.56642 0
M  V30 1766 C 162.36 -0.890465 1.81871 0
M  V30 1767 C 162.688 -1.82339 0.67696 0
M  V30 1768 O 161.943 -1.92795 -0.335926 0
M  V30 1769 C 162.242 -1.72069 3.13252 0
M  V30 1770 C 161.908 -0.936878 4.41059 0
M  V30 1771 C 160.57 -0.720545 4.75775 0
M  V30 1772 C 162.922 -0.386919 5.19762 0
M  V30 1773 C 160.25 0.0568829 5.86672 0
M  V30 1774 C 162.602 0.37741 6.31473 0
M  V30 1775 C 161.266 0.604563 6.64757 0
M  V30 1776 H 160.536 -0.325844 0.665512 0
M  V30 1777 H 163.183 -0.155527 1.90867 0
M  V30 1778 H 161.488 -2.52496 2.99588 0
M  V30 1779 H 163.185 -2.27844 3.29982 0
M  V30 1780 H 159.775 -1.11553 4.13828 0
M  V30 1781 H 163.959 -0.541398 4.93338 0
M  V30 1782 H 159.215 0.242635 6.10918 0
M  V30 1783 H 163.389 0.810825 6.91664 0
M  V30 1784 H 161.016 1.20885 7.50527 0
M  V30 1785 N 162.591 -1.51276 -0.441967 0
M  V30 1786 C 163.837 -1.63958 -1.19355 0
M  V30 1787 C 164.17 -0.352543 -1.90973 0
M  V30 1788 O 163.445 0.647627 -1.83401 0
M  V30 1789 C 163.728 -2.83979 -2.21422 0
M  V30 1790 C 163.581 -4.22646 -1.53918 0
M  V30 1791 C 164.9 -2.99521 -3.22451 0
M  V30 1792 H 162.019 -0.596709 -0.432559 0
M  V30 1793 H 164.661 -1.83748 -0.483398 0
M  V30 1794 H 162.811 -2.67237 -2.81987 0
M  V30 1795 H 164.483 -4.51045 -0.967256 0
M  V30 1796 H 162.726 -4.25558 -0.841615 0
M  V30 1797 H 163.397 -5.02609 -2.28229 0
M  V30 1798 H 165.873 -3.14944 -2.71937 0
M  V30 1799 H 164.749 -3.85072 -3.91166 0
M  V30 1800 H 165.01 -2.11391 -3.88287 0
M  V30 1801 N 164.069 0.697108 -1.41344 0
M  V30 1802 C 164.999 1.82353 -1.45841 0
M  V30 1803 C 165.98 1.67115 -0.317247 0
M  V30 1804 O 167.165 1.86871 -0.528474 0
M  V30 1805 C 164.295 3.20476 -1.33838 0
M  V30 1806 C 163.249 3.50415 -2.4575 0
M  V30 1807 C 162.575 4.87878 -2.18813 0
M  V30 1808 C 163.875 3.49546 -3.88091 0
M  V30 1809 H 165.569 1.78846 -2.40113 0
M  V30 1810 H 163.115 0.859028 -1.15571 0
M  V30 1811 H 165.068 3.98988 -1.35596 0
M  V30 1812 H 163.792 3.24604 -0.360498 0
M  V30 1813 H 162.451 2.74253 -2.43271 0
M  V30 1814 H 162.099 4.8863 -1.19371 0
M  V30 1815 H 161.799 5.08875 -2.93803 0
M  V30 1816 H 163.323 5.68702 -2.22284 0
M  V30 1817 H 164.737 4.18066 -3.92293 0
M  V30 1818 H 163.134 3.82075 -4.62751 0
M  V30 1819 H 164.204 2.48552 -4.16353 0
M  V30 1820 N 165.547 1.27147 0.931209 0
M  V30 1821 C 166.772 1.16191 1.71797 0
M  V30 1822 C 167.197 -0.278004 1.86034 0
M  V30 1823 O 166.555 -1.20137 1.35782 0
M  V30 1824 C 166.603 1.84673 3.09723 0
M  V30 1825 O 165.707 1.14231 3.96264 0
M  V30 1826 H 165.048 0.404303 0.526721 0
M  V30 1827 H 167.578 1.68152 1.1656 0
M  V30 1828 H 167.588 1.91893 3.60057 0
M  V30 1829 H 166.263 2.89421 2.98677 0
M  V30 1830 H 164.84 1.15056 3.54706 0
M  V30 1831 N 167.025 -1.13721 1.09112 0
M  V30 1832 C 167.955 -2.21148 0.749385 0
M  V30 1833 C 168.936 -1.6792 -0.271475 0
M  V30 1834 O 170.121 -1.93693 -0.140251 0
M  V30 1835 C 167.251 -3.46905 0.165659 0
M  V30 1836 C 166.205 -4.13203 1.11567 0
M  V30 1837 C 165.531 -5.33248 0.393809 0
M  V30 1838 C 166.831 -4.60912 2.45678 0
M  V30 1839 H 168.525 -2.4999 1.64758 0
M  V30 1840 H 166.071 -1.20156 0.793626 0
M  V30 1841 H 168.024 -4.21313 -0.085466 0
M  V30 1842 H 166.748 -3.17449 -0.767714 0
M  V30 1843 H 165.407 -3.40758 1.35202 0
M  V30 1844 H 165.055 -5.00054 -0.543599 0
M  V30 1845 H 164.755 -5.78552 1.02721 0
M  V30 1846 H 166.279 -6.10413 0.150908 0
M  V30 1847 H 167.693 -5.26759 2.26269 0
M  V30 1848 H 166.09 -5.16944 3.04776 0
M  V30 1849 H 167.16 -3.75603 3.06677 0
M  V30 1850 N 168.503 -0.877838 -1.30888 0
M  V30 1851 C 169.433 -0.35534 -2.3078 0
M  V30 1852 C 170.414 0.557994 -1.60687 0
M  V30 1853 O 171.599 0.473355 -1.88343 0
M  V30 1854 C 168.729 0.437221 -3.44537 0
M  V30 1855 C 167.683 -0.383715 -4.26276 0
M  V30 1856 C 167.009 0.535014 -5.32017 0
M  V30 1857 C 168.309 -1.62201 -4.96476 0
M  V30 1858 H 170.003 -1.19007 -2.74732 0
M  V30 1859 H 167.549 -0.573698 -1.32078 0
M  V30 1860 H 169.502 0.813334 -4.13477 0
M  V30 1861 H 168.226 1.30553 -2.99372 0
M  V30 1862 H 166.885 -0.741874 -3.59015 0
M  V30 1863 H 166.533 1.40083 -4.831 0
M  V30 1864 H 166.233 -0.0104211 -5.87599 0
M  V30 1865 H 167.757 0.907799 -6.03814 0
M  V30 1866 H 169.171 -1.31689 -5.5797 0
M  V30 1867 H 167.568 -2.10711 -5.61891 0
M  V30 1868 H 168.638 -2.37044 -4.23011 0
M  V30 1869 N 169.982 1.44106 -0.638065 0
M  V30 1870 C 171.23 2.01579 -0.145043 0
M  V30 1871 C 171.551 1.50496 1.24 0
M  V30 1872 O 170.821 0.711374 1.82527 0
M  V30 1873 H 169.401 0.745282 -0.05063 0
M  V30 1874 H 172.063 1.76516 -0.826327 0
M  V30 1875 H 171.159 3.11877 -0.118039 0
M  V30 1876 N 171.46 0.379036 1.52974 0
M  V30 1877 C 172.685 -0.209353 2.06341 0
M  V30 1878 C 173.11 -1.40583 1.24972 0
M  V30 1879 O 172.468 -1.79246 0.272155 0
M  V30 1880 C 172.516 -0.567786 3.56102 0
M  V30 1881 O 171.62 -1.66318 3.77375 0
M  V30 1882 H 170.961 -0.0272919 0.663439 0
M  V30 1883 H 173.491 0.543536 1.97248 0
M  V30 1884 H 173.501 -0.835003 3.99364 0
M  V30 1885 H 172.176 0.307013 4.14765 0
M  V30 1886 H 170.753 -1.39048 3.46006 0
M  V30 1887 N 172.938 -1.57226 0.108567 0
M  V30 1888 C 174.187 -1.94008 -0.551703 0
M  V30 1889 C 174.5 -0.993442 -1.68494 0
M  V30 1890 O 175.706 -1.25551 -2.40726 0
M  V30 1891 C 174.162 -3.44763 -1.03279 0
M  V30 1892 C 173.77 -4.47943 0.0714193 0
M  V30 1893 C 175.514 -3.90483 -1.66503 0
M  V30 1894 C 173.421 -5.89865 -0.425779 0
M  V30 1895 H 172.351 -0.724206 -0.209863 0
M  V30 1896 H 175.002 -1.82547 0.186741 0
M  V30 1897 H 173.384 -3.51422 -1.82533 0
M  V30 1898 H 174.558 -4.52942 0.847365 0
M  V30 1899 H 172.873 -4.11913 0.609669 0
M  V30 1900 H 175.47 -4.93925 -2.04798 0
M  V30 1901 H 175.813 -3.29877 -2.53942 0
M  V30 1902 H 176.346 -3.86581 -0.938074 0
M  V30 1903 H 173.085 -6.54202 0.412316 0
M  V30 1904 H 172.605 -5.88309 -1.16843 0
M  V30 1905 H 174.284 -6.40844 -0.890397 0
M  V30 1906 N 174.416 0.165178 -1.56732 0
M  V30 1907 C 175.663 0.880807 -1.8234 0
M  V30 1908 C 175.991 1.81977 -0.686621 0
M  V30 1909 O 175.246 1.92971 0.325697 0
M  V30 1910 C 175.545 1.70405 -3.1416 0
M  V30 1911 C 175.211 0.913475 -4.4155 0
M  V30 1912 C 173.873 0.695303 -4.7615 0
M  V30 1913 C 176.225 0.359349 -5.1996 0
M  V30 1914 C 173.553 -0.0879947 -5.86634 0
M  V30 1915 C 175.905 -0.410893 -6.31264 0
M  V30 1916 C 174.569 -0.639808 -6.64427 0
M  V30 1917 H 173.839 0.32231 -0.667231 0
M  V30 1918 H 176.486 0.145402 -1.90947 0
M  V30 1919 H 174.791 2.50903 -3.00923 0
M  V30 1920 H 176.488 2.26091 -3.31186 0
M  V30 1921 H 173.078 1.09357 -4.14414 0
M  V30 1922 H 177.262 0.515228 -4.93618 0
M  V30 1923 H 172.518 -0.27503 -6.10781 0
M  V30 1924 H 176.692 -0.847494 -6.91224 0
M  V30 1925 H 174.319 -1.24864 -7.49875 0
M  V30 1926 N 175.894 1.51508 0.433938 0
M  V30 1927 C 177.119 1.68443 1.21003 0
M  V30 1928 C 177.544 0.382636 1.84167 0
M  V30 1929 O 176.902 -0.65755 1.68956 0
M  V30 1930 C 176.95 2.80405 2.26727 0
M  V30 1931 O 176.054 2.44245 3.32292 0
M  V30 1932 H 175.395 0.561536 0.354363 0
M  V30 1933 H 177.925 1.9809 0.512024 0
M  V30 1934 H 177.935 3.0459 2.71457 0
M  V30 1935 H 176.61 3.74867 1.80132 0
M  V30 1936 H 175.187 2.30644 2.93015 0
M  V30 1937 N 177.372 -0.689602 1.41712 0
M  V30 1938 C 178.302 -1.81577 1.46806 0
M  V30 1939 C 179.283 -1.66945 0.326105 0
M  V30 1940 O 180.468 -1.86588 0.538377 0
M  V30 1941 C 177.598 -3.19762 1.35535 0
M  V30 1942 C 176.552 -3.49107 2.47605 0
M  V30 1943 C 175.878 -4.86711 2.21397 0
M  V30 1944 C 177.178 -3.47483 3.89939 0
M  V30 1945 H 178.872 -1.7757 2.41058 0
M  V30 1946 H 176.418 -0.852887 1.16025 0
M  V30 1947 H 178.371 -3.98263 1.3771 0
M  V30 1948 H 177.095 -3.24409 0.377708 0
M  V30 1949 H 175.754 -2.72959 2.44722 0
M  V30 1950 H 175.402 -4.8799 1.21961 0
M  V30 1951 H 175.102 -5.0731 2.96497 0
M  V30 1952 H 176.626 -5.67515 2.25297 0
M  V30 1953 H 178.04 -4.1598 3.94505 0
M  V30 1954 H 176.437 -3.79615 4.64771 0
M  V30 1955 H 177.507 -2.46341 4.17665 0
M  V30 1956 N 178.85 -1.27639 -0.924453 0
M  V30 1957 C 180.075 -1.17101 -1.71179 0
M  V30 1958 C 180.5 0.268134 -1.86179 0
M  V30 1959 O 179.858 1.19415 -1.36418 0
M  V30 1960 C 179.906 -1.86313 -3.08739 0
M  V30 1961 O 179.01 -1.16331 -3.95652 0
M  V30 1962 H 178.351 -0.407091 -0.524569 0
M  V30 1963 H 180.881 -1.68767 -1.15666 0
M  V30 1964 H 180.891 -1.938 -3.59034 0
M  V30 1965 H 179.566 -2.91001 -2.97138 0
M  V30 1966 H 178.143 -1.16935 -3.54091 0
M  V30 1967 N 180.328 1.1314 -1.09713 0
M  V30 1968 C 181.574 1.84757 -0.836224 0
M  V30 1969 C 181.907 1.8347 0.636598 0
M  V30 1970 O 181.182 1.27491 1.46889 0
M  V30 1971 C 181.465 3.32782 -1.37578 0
M  V30 1972 C 181.318 3.42567 -2.91493 0
M  V30 1973 C 182.637 4.28307 -1.01198 0
M  V30 1974 H 179.756 0.67082 -0.305236 0
M  V30 1975 H 182.398 1.3278 -1.35903 0
M  V30 1976 H 180.548 3.77177 -0.931097 0
M  V30 1977 H 182.22 3.06862 -3.44432 0
M  V30 1978 H 180.463 2.83349 -3.28475 0
M  V30 1979 H 181.134 4.46674 -3.24324 0
M  V30 1980 H 183.61 3.91999 -1.39556 0
M  V30 1981 H 182.486 5.30307 -1.41653 0
M  V30 1982 H 182.747 4.42029 0.0794833 0
M  V30 1983 N 181.806 0.884767 1.30421 0
M  V30 1984 C 183.055 0.499164 1.95426 0
M  V30 1985 C 183.368 -0.95645 1.70621 0
M  V30 1986 O 184.574 -1.44889 2.29607 0
M  V30 1987 C 183.03 0.84177 3.49917 0
M  V30 1988 C 182.638 2.31514 3.83543 0
M  V30 1989 C 184.382 0.525355 4.21237 0
M  V30 1990 C 182.289 2.59939 5.31212 0
M  V30 1991 H 181.219 0.182944 0.73147 0
M  V30 1992 H 183.87 1.07971 1.48373 0
M  V30 1993 H 182.252 0.190311 3.95542 0
M  V30 1994 H 183.426 3.0109 3.48829 0
M  V30 1995 H 181.741 2.59907 3.25326 0
M  V30 1996 H 184.338 0.714762 5.29901 0
M  V30 1997 H 184.681 -0.535222 4.12845 0
M  V30 1998 H 185.214 1.134 3.81294 0
M  V30 1999 H 181.953 3.64736 5.44654 0
M  V30 2000 H 181.473 1.94972 5.67227 0
M  V30 2001 H 183.152 2.45429 5.98643 0
M  V30 2002 N 183.284 -1.43765 0.645699 0
M  V30 2003 C 184.247 -2.29163 -0.0409488 0
M  V30 2004 C 185.247 -1.41813 -0.757996 0
M  V30 2005 O 186.437 -1.63527 -0.600382 0
M  V30 2006 C 183.569 -3.23716 -1.06869 0
M  V30 2007 H 184.762 -2.91366 0.710345 0
M  V30 2008 H 182.315 -1.5092 0.406547 0
M  V30 2009 H 183.05 -2.66393 -1.84947 0
M  V30 2010 H 182.835 -3.88105 -0.558277 0
M  V30 2011 H 184.325 -3.87831 -1.54845 0
M  V30 2012 N 184.763 -0.387143 -1.52771 0
M  V30 2013 C 185.726 0.436939 -2.24997 0
M  V30 2014 C 186.726 0.991991 -1.26555 0
M  V30 2015 O 187.916 0.874335 -1.50669 0
M  V30 2016 C 185.048 1.61281 -3.00335 0
M  V30 2017 H 186.241 -0.195365 -2.99263 0
M  V30 2018 H 183.794 -0.139218 -1.55679 0
M  V30 2019 H 184.529 2.2826 -2.30364 0
M  V30 2020 H 184.314 1.22154 -3.72587 0
M  V30 2021 H 185.804 2.19629 -3.5518 0
M  V30 2022 N 186.241 1.57166 -0.116904 0
M  V30 2023 C 187.518 1.86645 0.585049 0
M  V30 2024 C 187.898 1.0177 1.84949 0
M  V30 2025 O 187.246 0.0960379 2.28298 0
M  V30 2026 C 187.456 3.37736 0.879507 0
M  V30 2027 C 188.804 4.06289 1.23348 0
M  V30 2028 O 189.828 3.42743 0.969836 0
M  V30 2029 O 188.687 5.18455 1.7282 0
M  V30 2030 H 185.781 0.772593 0.295007 0
M  V30 2031 H 188.327 1.69025 -0.151249 0
M  V30 2032 H 187.099 3.91296 -0.0166136 0
M  V30 2033 H 186.722 3.6078 1.67103 0
M  V30 2034 N 187.719 -0.156864 1.56817 0
M  V30 2035 C 189.135 -0.50916 1.5126 0
M  V30 2036 C 189.335 -1.83897 0.823658 0
M  V30 2037 O 188.391 -2.49469 0.390055 0
M  V30 2038 C 189.704 -0.52857 2.96018 0
M  V30 2039 C 191.252 -0.614771 3.06903 0
M  V30 2040 C 191.727 -0.664938 4.53147 0
M  V30 2041 N 193.218 -0.727433 4.57452 0
M  V30 2042 C 193.953 -0.787067 5.67973 0
M  V30 2043 N 193.449 -0.806649 6.88088 0
M  V30 2044 N 195.242 -0.827195 5.5598 0
M  V30 2045 H 187.393 0.714935 2.00006 0
M  V30 2046 H 189.656 0.259526 0.911784 0
M  V30 2047 H 189.362 0.380154 3.49639 0
M  V30 2048 H 189.236 -1.36998 3.51442 0
M  V30 2049 H 191.623 -1.51392 2.53307 0
M  V30 2050 H 191.704 0.253597 2.5454 0
M  V30 2051 H 191.348 0.230011 5.07379 0
M  V30 2052 H 191.278 -1.54966 5.03282 0
M  V30 2053 H 193.769 -0.719998 3.70978 0
M  V30 2054 H 194.082 -0.853727 7.6807 0
M  V30 2055 H 192.427 -0.774687 6.90669 0
M  V30 2056 H 195.618 -0.808998 4.61056 0
M  V30 2057 H 195.791 -0.870206 6.4213 0
M  V30 2058 N 189.197 -1.51736 -0.425897 0
M  V30 2059 C 190.427 -1.68549 -1.19476 0
M  V30 2060 C 190.835 -0.387288 -1.85194 0
M  V30 2061 O 190.178 0.645142 -1.71999 0
M  V30 2062 C 190.24 -2.75275 -2.31223 0
M  V30 2063 C 189.904 -4.17534 -1.8578 0
M  V30 2064 C 190.901 -5.01936 -1.35485 0
M  V30 2065 C 188.586 -4.6369 -1.93123 0
M  V30 2066 C 190.58 -6.30559 -0.931347 0
M  V30 2067 C 188.267 -5.92307 -1.50384 0
M  V30 2068 C 189.265 -6.75569 -1.00473 0
M  V30 2069 O 188.953 -8.0178 -0.583452 0
M  V30 2070 H 188.685 -0.568525 -0.365725 0
M  V30 2071 H 191.239 -1.98982 -0.509444 0
M  V30 2072 H 189.469 -2.40182 -3.03067 0
M  V30 2073 H 191.158 -2.80853 -2.93047 0
M  V30 2074 H 191.924 -4.67475 -1.29197 0
M  V30 2075 H 187.803 -3.98997 -2.30916 0
M  V30 2076 H 191.347 -6.95498 -0.541084 0
M  V30 2077 H 187.244 -6.2628 -1.56346 0
M  V30 2078 H 188.012 -8.1543 -0.708275 0
M  V30 2079 N 190.675 0.682077 -1.42076 0
M  V30 2080 C 191.924 1.43786 -1.41451 0
M  V30 2081 C 192.237 1.95574 -0.0317074 0
M  V30 2082 O 193.443 2.71326 0.0971462 0
M  V30 2083 C 191.899 2.60071 -2.48779 0
M  V30 2084 C 191.507 2.15013 -3.93031 0
M  V30 2085 C 193.251 3.37626 -2.57311 0
M  V30 2086 C 191.158 3.28336 -4.91883 0
M  V30 2087 H 190.088 0.540143 -0.526082 0
M  V30 2088 H 192.739 0.739157 -1.67955 0
M  V30 2089 H 191.121 3.32275 -2.15429 0
M  V30 2090 H 192.295 1.5001 -4.35699 0
M  V30 2091 H 190.61 1.50416 -3.88284 0
M  V30 2092 H 193.207 4.22012 -3.28345 0
M  V30 2093 H 193.55 3.83727 -1.61429 0
M  V30 2094 H 194.083 2.72488 -2.89819 0
M  V30 2095 H 190.822 2.87234 -5.89217 0
M  V30 2096 H 190.342 3.92145 -4.53853 0
M  V30 2097 H 192.021 3.93913 -5.13265 0
M  V30 2098 N 192.153 1.28127 0.917671 0
M  V30 2099 C 193.381 1.17892 1.70026 0
M  V30 2100 C 193.796 -0.262958 1.8696 0
M  V30 2101 O 193.153 -1.17811 1.3938 0
M  V30 2102 C 193.204 1.86872 3.09453 0
M  V30 2103 O 192.925 3.25428 2.93306 0
M  V30 2104 C 194.426 1.8289 4.03815 0
M  V30 2105 H 191.646 0.40942 0.531617 0
M  V30 2106 H 194.19 1.69181 1.14883 0
M  V30 2107 H 192.345 1.39464 3.61426 0
M  V30 2108 H 192.759 3.59918 3.81523 0
M  V30 2109 H 194.233 2.35751 4.99125 0
M  V30 2110 H 194.71 0.800412 4.31845 0
M  V30 2111 H 195.316 2.29959 3.57769 0
M  V30 2112 N 193.631 -1.12557 1.10312 0
M  V30 2113 C 194.88 -1.83395 0.839588 0
M  V30 2114 C 195.193 -1.84939 -0.636929 0
M  V30 2115 O 196.399 -2.51761 -1.01631 0
M  V30 2116 C 194.855 -3.29303 1.45215 0
M  V30 2117 C 194.463 -3.36122 2.96186 0
M  V30 2118 C 196.207 -4.05121 1.26796 0
M  V30 2119 C 194.114 -4.76357 3.50483 0
M  V30 2120 H 193.044 -0.687133 0.310425 0
M  V30 2121 H 195.695 -1.26746 1.32694 0
M  V30 2122 H 194.077 -3.85812 0.892469 0
M  V30 2123 H 195.251 -2.89559 3.58458 0
M  V30 2124 H 193.566 -2.73776 3.13745 0
M  V30 2125 H 196.163 -5.08668 1.64806 0
M  V30 2126 H 196.506 -4.15773 0.209409 0
M  V30 2127 H 197.039 -3.54967 1.79563 0
M  V30 2128 H 193.778 -4.70899 4.55998 0
M  V30 2129 H 193.298 -5.23377 2.92978 0
M  V30 2130 H 194.977 -5.45294 3.48228 0
M  V30 2131 N 195.109 -0.891671 -1.2995 0
M  V30 2132 C 196.356 -0.513501 -1.95881 0
M  V30 2133 C 196.684 0.938655 -1.70351 0
M  V30 2134 O 195.939 1.67936 -1.00478 0
M  V30 2135 C 196.238 -0.742868 -3.49594 0
M  V30 2136 C 195.904 -2.17114 -3.95186 0
M  V30 2137 C 194.566 -2.56169 -4.07346 0
M  V30 2138 C 196.918 -3.10162 -4.18866 0
M  V30 2139 C 194.246 -3.87469 -4.4055 0
M  V30 2140 C 196.598 -4.41001 -4.53542 0
M  V30 2141 C 195.262 -4.79941 -4.63911 0
M  V30 2142 H 194.532 -0.187903 -0.71678 0
M  V30 2143 H 197.179 -1.1288 -1.54694 0
M  V30 2144 H 195.484 -0.044586 -3.91775 0
M  V30 2145 H 197.181 -0.429767 -3.9869 0
M  V30 2146 H 193.771 -1.85801 -3.86233 0
M  V30 2147 H 197.955 -2.81206 -4.08946 0
M  V30 2148 H 193.211 -4.17371 -4.46779 0
M  V30 2149 H 197.385 -5.13133 -4.70815 0
M  V30 2150 H 195.012 -5.81719 -4.89395 0
M  V30 2151 N 196.587 1.43421 -0.653314 0
M  V30 2152 C 197.537 2.2792 0.060558 0
M  V30 2153 C 198.521 1.39906 0.794677 0
M  V30 2154 O 199.713 1.63536 0.677128 0
M  V30 2155 C 196.842 3.27603 1.0262 0
M  V30 2156 C 195.928 4.23104 0.290551 0
M  V30 2157 N 196.319 5.01031 -0.692967 0
M  V30 2158 C 194.617 4.42816 0.531984 0
M  V30 2159 C 195.318 5.70626 -1.12963 0
M  V30 2160 N 194.294 5.41617 -0.463867 0
M  V30 2161 H 198.096 2.85585 -0.694143 0
M  V30 2162 H 195.61 1.55126 -0.480602 0
M  V30 2163 H 197.607 3.86918 1.55242 0
M  V30 2164 H 196.267 2.71499 1.78096 0
M  V30 2165 H 197.278 5.0669 -1.07169 0
M  V30 2166 H 193.955 3.97782 1.26791 0
M  V30 2167 H 195.345 6.4318 -1.94343 0
M  V30 2168 N 198.065 0.39524 1.52563 0
M  V30 2169 C 199.028 -0.425001 2.25225 0
M  V30 2170 C 200.028 -0.985266 1.27079 0
M  V30 2171 O 201.218 -0.866332 1.5113 0
M  V30 2172 C 198.35 -1.59686 3.01186 0
M  V30 2173 H 199.543 0.211233 2.99155 0
M  V30 2174 H 197.096 0.147472 1.55603 0
M  V30 2175 H 197.831 -2.27035 2.31572 0
M  V30 2176 H 197.616 -1.20176 3.73229 0
M  V30 2177 H 199.106 -2.17743 3.5634 0
M  V30 2178 N 199.544 -1.57102 0.125237 0
M  V30 2179 C 200.474 -2.18659 -0.819174 0
M  V30 2180 C 201.455 -1.12843 -1.27281 0
M  V30 2181 O 202.64 -1.41104 -1.33429 0
M  V30 2182 C 199.77 -2.79096 -2.06695 0
M  V30 2183 C 198.724 -3.90548 -1.75088 0
M  V30 2184 C 198.05 -4.37821 -3.06948 0
M  V30 2185 C 199.35 -5.12356 -1.01435 0
M  V30 2186 H 201.044 -2.9783 -0.306202 0
M  V30 2187 H 198.59 -1.4326 -0.145839 0
M  V30 2188 H 200.543 -3.2082 -2.73226 0
M  V30 2189 H 199.267 -1.97223 -2.60328 0
M  V30 2190 H 197.926 -3.49409 -1.10944 0
M  V30 2191 H 197.574 -3.52799 -3.58527 0
M  V30 2192 H 197.274 -5.12982 -2.86571 0
M  V30 2193 H 198.798 -4.822 -3.74587 0
M  V30 2194 H 200.212 -5.5106 -1.58132 0
M  V30 2195 H 198.609 -5.9314 -0.911319 0
M  V30 2196 H 199.679 -4.849 -0.00218681 0
M  V30 2197 N 201.022 0.148545 -1.56898 0
M  V30 2198 C 202.438 0.501131 -1.51528 0
M  V30 2199 C 202.638 1.83458 -0.833399 0
M  V30 2200 O 201.694 2.49259 -0.40328 0
M  V30 2201 C 203.007 0.512864 -2.96294 0
M  V30 2202 C 204.555 0.598487 -3.07225 0
M  V30 2203 C 205.03 0.640897 -4.53494 0
M  V30 2204 N 206.521 0.703163 -4.57832 0
M  V30 2205 C 207.256 0.756935 -5.68382 0
M  V30 2206 N 206.752 0.770147 -6.88506 0
M  V30 2207 N 208.545 0.797698 -5.56411 0
M  V30 2208 H 200.696 -0.725532 -1.99624 0
M  V30 2209 H 202.959 -0.264358 -0.910395 0
M  V30 2210 H 202.665 -0.398691 -3.49433 0
M  V30 2211 H 202.539 1.35133 -3.52163 0
M  V30 2212 H 204.926 1.50046 -2.54106 0
M  V30 2213 H 205.007 -0.267093 -2.54402 0
M  V30 2214 H 204.651 -0.256915 -5.0725 0
M  V30 2215 H 204.581 1.52295 -5.04097 0
M  V30 2216 H 207.072 0.700314 -3.71354 0
M  V30 2217 H 207.385 0.812983 -7.68512 0
M  V30 2218 H 205.73 0.738049 -6.9107 0
M  V30 2219 H 208.921 0.784535 -4.61479 0
M  V30 2220 H 209.094 0.83614 -6.42583 0
M  V30 2221 N 202.5 1.5196 0.417844 0
M  V30 2222 C 203.73 1.69181 1.18581 0
M  V30 2223 C 204.138 0.397104 1.84986 0
M  V30 2224 O 203.481 -0.636011 1.72339 0
M  V30 2225 C 203.543 2.76497 2.29759 0
M  V30 2226 C 203.207 4.18514 1.83563 0
M  V30 2227 C 204.204 5.02648 1.32821 0
M  V30 2228 C 201.889 4.64708 1.90661 0
M  V30 2229 C 203.883 6.31044 0.897894 0
M  V30 2230 C 201.57 5.93096 1.47241 0
M  V30 2231 C 202.568 6.76093 0.968891 0
M  V30 2232 O 202.256 8.02078 0.540924 0
M  V30 2233 H 201.988 0.570457 0.362705 0
M  V30 2234 H 204.542 1.99249 0.498885 0
M  V30 2235 H 202.772 2.41786 3.01789 0
M  V30 2236 H 204.461 2.82403 2.91553 0
M  V30 2237 H 205.227 4.68154 1.26716 0
M  V30 2238 H 201.106 4.00216 2.28797 0
M  V30 2239 H 204.65 6.95776 0.504192 0
M  V30 2240 H 200.547 6.271 1.53022 0
M  V30 2241 H 201.315 8.15794 0.66502 0
M  V30 2242 N 203.978 -0.674533 1.42435 0
M  V30 2243 C 204.928 -1.7807 1.4239 0
M  V30 2244 C 205.912 -1.58169 0.295202 0
M  V30 2245 O 207.104 -1.68643 0.537449 0
M  V30 2246 C 204.233 -3.16532 1.32901 0
M  V30 2247 C 203.319 -3.42055 2.50717 0
M  V30 2248 N 203.71 -3.38162 3.76139 0
M  V30 2249 C 202.008 -3.72692 2.44983 0
M  V30 2250 C 202.709 -3.63177 4.54398 0
M  V30 2251 N 201.685 -3.83954 3.84812 0
M  V30 2252 H 205.487 -1.73454 2.37257 0
M  V30 2253 H 203.001 -0.875381 1.36788 0
M  V30 2254 H 204.998 -3.958 1.30951 0
M  V30 2255 H 203.658 -3.22345 0.390363 0
M  V30 2256 H 204.669 -3.18057 4.0873 0
M  V30 2257 H 201.346 -3.85749 1.59699 0
M  V30 2258 H 202.736 -3.66125 5.63384 0
M  V30 2259 N 205.456 -1.28612 -0.910864 0
M  V30 2260 C 206.681 -1.1891 -1.69927 0
M  V30 2261 C 207.106 0.248372 -1.86453 0
M  V30 2262 O 206.464 1.17961 -1.37676 0
M  V30 2263 C 206.512 -1.89578 -3.06745 0
M  V30 2264 O 205.616 -1.20521 -3.94396 0
M  V30 2265 H 204.957 -0.412632 -0.520222 0
M  V30 2266 H 207.487 -1.69985 -1.1387 0
M  V30 2267 H 207.497 -1.97597 -3.56958 0
M  V30 2268 H 206.172 -2.94136 -2.94035 0
M  V30 2269 H 204.749 -1.20684 -3.52831 0
M  V30 2270 N 206.934 1.1197 -1.10907 0
M  V30 2271 C 208.183 1.82947 -0.849302 0
M  V30 2272 C 208.496 1.85275 0.627112 0
M  V30 2273 O 209.702 2.52296 1.00295 0
M  V30 2274 C 208.158 3.28529 -1.46959 0
M  V30 2275 C 207.766 3.34546 -2.97965 0
M  V30 2276 C 209.51 4.04443 -1.28942 0
M  V30 2277 C 207.417 4.74491 -3.53004 0
M  V30 2278 H 206.347 0.685477 -0.314065 0
M  V30 2279 H 208.998 1.2604 -1.33365 0
M  V30 2280 H 207.38 3.85333 -0.912917 0
M  V30 2281 H 208.554 2.87654 -3.59989 0
M  V30 2282 H 206.869 2.72108 -3.15192 0
M  V30 2283 H 209.466 5.07787 -1.67502 0
M  V30 2284 H 209.809 4.15656 -0.231456 0
M  V30 2285 H 210.342 3.5401 -1.81443 0
M  V30 2286 H 207.081 4.68474 -4.58489 0
M  V30 2287 H 206.601 5.21816 -2.9575 0
M  V30 2288 H 208.28 5.4344 -3.51115 0
M  V30 2289 N 208.412 0.89855 1.29475 0
M  V30 2290 C 209.658 0.524658 1.95896 0
M  V30 2291 C 209.991 -0.926468 1.70676 0
M  V30 2292 O 209.266 -1.65665 1.01908 0
M  V30 2293 C 209.549 0.81633 3.50725 0
M  V30 2294 C 209.402 2.31907 3.85408 0
M  V30 2295 C 210.721 0.302038 4.39062 0
M  V30 2296 H 207.84 0.19209 0.711527 0
M  V30 2297 H 210.482 1.12502 1.53112 0
M  V30 2298 H 208.632 0.305369 3.87298 0
M  V30 2299 H 210.304 2.89949 3.58786 0
M  V30 2300 H 208.547 2.78027 3.32992 0
M  V30 2301 H 209.218 2.47373 4.93468 0
M  V30 2302 H 211.694 0.739551 4.09475 0
M  V30 2303 H 210.57 0.535331 5.46283 0
M  V30 2304 H 210.831 -0.797216 4.34853 0
M  V30 2305 N 209.89 -1.43072 0.660911 0
M  V30 2306 C 211.118 -2.06067 0.185422 0
M  V30 2307 C 211.533 -1.49582 -1.15198 0
M  V30 2308 O 210.89 -0.630134 -1.71276 0
M  V30 2309 C 210.941 -3.61371 0.0966523 0
M  V30 2310 O 210.662 -4.15758 1.38119 0
M  V30 2311 C 212.163 -4.41455 -0.403996 0
M  V30 2312 H 209.383 -0.664459 0.0934604 0
M  V30 2313 H 211.927 -1.83447 0.90373 0
M  V30 2314 H 210.082 -3.8315 -0.572259 0
M  V30 2315 H 210.496 -5.09499 1.24542 0
M  V30 2316 H 211.97 -5.50437 -0.415045 0
M  V30 2317 H 212.447 -4.15036 -1.43674 0
M  V30 2318 H 213.053 -4.24663 0.232691 0
M  V30 2319 N 211.368 -0.403325 -1.52352 0
M  V30 2320 C 212.301 0.469463 -2.23319 0
M  V30 2321 C 213.279 1.05272 -1.23922 0
M  V30 2322 O 214.463 1.10169 -1.52954 0
M  V30 2323 C 211.59 1.6511 -2.9573 0
M  V30 2324 C 210.636 1.19178 -4.0951 0
M  V30 2325 S 211.469 0.161718 -5.35256 0
M  V30 2326 C 212.625 1.34882 -6.11194 0
M  V30 2327 H 212.858 -0.133134 -2.97002 0
M  V30 2328 H 210.391 -0.187588 -1.53256 0
M  V30 2329 H 212.349 2.3287 -3.38056 0
M  V30 2330 H 211.01 2.22503 -2.21701 0
M  V30 2331 H 210.203 2.07444 -4.59329 0
M  V30 2332 H 209.805 0.592911 -3.6927 0
M  V30 2333 H 212.097 2.27345 -6.38217 0
M  V30 2334 H 213.04 0.89128 -7.02468 0
M  V30 2335 H 213.448 1.57198 -5.42171 0
M  V30 2336 N 212.846 1.57033 -0.133567 0
M  V30 2337 C 214.262 1.58035 0.222944 0
M  V30 2338 C 214.462 1.14713 1.6566 0
M  V30 2339 O 213.518 0.841218 2.38075 0
M  V30 2340 C 214.831 3.00691 -0.0236116 0
M  V30 2341 C 216.379 3.12973 0.0411512 0
M  V30 2342 C 216.854 4.57654 -0.177899 0
M  V30 2343 N 218.345 4.63033 -0.124365 0
M  V30 2344 C 219.08 5.72771 -0.268553 0
M  V30 2345 N 218.576 6.91206 -0.46972 0
M  V30 2346 N 220.369 5.61718 -0.2071 0
M  V30 2347 H 212.52 1.8349 -1.06981 0
M  V30 2348 H 214.783 0.848677 -0.422436 0
M  V30 2349 H 214.489 3.36726 -1.0153 0
M  V30 2350 H 214.363 3.70614 0.701808 0
M  V30 2351 H 216.75 2.76787 1.02338 0
M  V30 2352 H 216.831 2.45564 -0.716383 0
M  V30 2353 H 216.475 4.94542 -1.15717 0
M  V30 2354 H 216.405 5.23173 0.599797 0
M  V30 2355 H 218.896 3.7789 0.027011 0
M  V30 2356 H 219.209 7.70693 -0.570212 0
M  V30 2357 H 217.554 6.93156 -0.505876 0
M  V30 2358 H 220.745 4.68072 -0.0507986 0
M  V30 2359 H 220.918 6.47195 -0.322909 0
M  V30 2360 N 214.325 -0.140222 1.56975 0
M  V30 2361 C 215.741 -0.493088 1.51792 0
M  V30 2362 C 215.941 -1.83013 0.843116 0
M  V30 2363 O 214.997 -2.49041 0.416493 0
M  V30 2364 C 216.31 -0.497144 2.96562 0
M  V30 2365 C 217.858 -0.582186 3.07538 0
M  V30 2366 C 218.333 -0.616838 4.53827 0
M  V30 2367 N 219.824 -0.678873 4.58198 0
M  V30 2368 C 220.559 -0.726782 5.68775 0
M  V30 2369 N 220.055 -0.733623 6.88905 0
M  V30 2370 N 221.848 -0.768179 5.56826 0
M  V30 2371 H 213.999 0.736108 1.99237 0
M  V30 2372 H 216.262 0.269182 0.90898 0
M  V30 2373 H 215.968 0.417217 3.49217 0
M  V30 2374 H 215.842 -1.33263 3.52875 0
M  V30 2375 H 218.229 -1.48697 2.54899 0
M  V30 2376 H 218.31 0.280581 2.54257 0
M  V30 2377 H 217.954 0.283812 5.07106 0
M  V30 2378 H 217.884 -1.49619 5.04898 0
M  V30 2379 H 220.375 -0.68061 3.7172 0
M  V30 2380 H 220.688 -0.772215 7.68932 0
M  V30 2381 H 219.033 -0.701389 6.91452 0
M  V30 2382 H 222.224 -0.760051 4.61888 0
M  V30 2383 H 222.397 -0.80205 6.43017 0
M  V30 2384 N 215.803 -1.52179 -0.40978 0
M  V30 2385 C 217.031 -1.70054 -1.17853 0
M  V30 2386 C 217.446 -0.409735 -1.843 0
M  V30 2387 O 216.803 0.614183 -1.71855 0
M  V30 2388 C 216.854 -2.83568 -2.24213 0
M  V30 2389 O 216.575 -4.0765 -1.60478 0
M  V30 2390 C 218.076 -3.12947 -3.13973 0
M  V30 2391 H 215.296 -0.569917 -0.354169 0
M  V30 2392 H 217.84 -1.98734 -0.482198 0
M  V30 2393 H 215.995 -2.57409 -2.89516 0
M  V30 2394 H 216.409 -4.70899 -2.30986 0
M  V30 2395 H 217.883 -3.95889 -3.84677 0
M  V30 2396 H 218.36 -2.26472 -3.76307 0
M  V30 2397 H 218.966 -3.40868 -2.5434 0
M  V30 2398 N 217.281 0.66697 -1.42791 0
M  V30 2399 C 218.527 1.4291 -1.43891 0
M  V30 2400 C 218.86 1.94114 -0.0578972 0
M  V30 2401 O 218.135 1.71414 0.91911 0
M  V30 2402 C 218.418 2.62049 -2.46987 0
M  V30 2403 C 218.271 2.16426 -3.94309 0
M  V30 2404 C 219.59 3.64266 -2.46978 0
M  V30 2405 H 216.709 0.518306 -0.523954 0
M  V30 2406 H 219.351 0.757321 -1.74255 0
M  V30 2407 H 217.501 3.19361 -2.21225 0
M  V30 2408 H 219.173 1.64221 -4.31079 0
M  V30 2409 H 217.416 1.47925 -4.078 0
M  V30 2410 H 218.087 3.02038 -4.62036 0
M  V30 2411 H 220.563 3.16686 -2.69906 0
M  V30 2412 H 219.439 4.45196 -3.21079 0
M  V30 2413 H 219.7 4.15927 -1.49857 0
M  V30 2414 N 218.759 1.29093 0.90403 0
M  V30 2415 C 220.005 1.16986 1.65656 0
M  V30 2416 C 220.338 -0.278925 1.92186 0
M  V30 2417 O 219.613 -1.2019 1.5292 0
M  V30 2418 C 219.896 1.97908 3.0084 0
M  V30 2419 C 219.749 3.50903 2.81403 0
M  V30 2420 C 221.068 1.80208 4.01513 0
M  V30 2421 H 218.187 0.426346 0.601164 0
M  V30 2422 H 220.829 1.58518 1.04747 0
M  V30 2423 H 218.979 1.62616 3.52829 0
M  V30 2424 H 220.651 3.96153 2.36348 0
M  V30 2425 H 218.894 3.76045 2.1627 0
M  V30 2426 H 219.565 4.02791 3.77443 0
M  V30 2427 H 222.041 2.11025 3.58619 0
M  V30 2428 H 220.917 2.39184 4.94047 0
M  V30 2429 H 221.178 0.756119 4.35586 0
M  V30 2430 N 220.237 -1.11381 1.11499 0
M  V30 2431 C 221.483 -1.83403 0.865512 0
M  V30 2432 C 221.816 -1.84459 -0.607329 0
M  V30 2433 O 221.091 -1.29811 -1.44842 0
M  V30 2434 C 221.374 -3.30552 1.42855 0
M  V30 2435 C 221.227 -3.37886 2.96906 0
M  V30 2436 C 222.546 -4.26643 1.08 0
M  V30 2437 H 219.665 -0.665879 0.31587 0
M  V30 2438 H 222.307 -1.30601 1.37998 0
M  V30 2439 H 220.457 -3.75648 0.990985 0
M  V30 2440 H 222.129 -3.01343 3.49271 0
M  V30 2441 H 220.372 -2.78088 3.32941 0
M  V30 2442 H 221.043 -4.41458 3.31389 0
M  V30 2443 H 223.519 -3.89729 1.45775 0
M  V30 2444 H 222.395 -5.27986 1.50072 0
M  V30 2445 H 222.656 -4.42099 -0.00915037 0
M  V30 2446 N 221.715 -0.905404 -1.28997 0
M  V30 2447 C 222.645 -0.404212 -2.29975 0
M  V30 2448 C 223.626 0.523784 -1.61835 0
M  V30 2449 O 224.811 0.433298 -1.89304 0
M  V30 2450 C 221.941 0.364042 -3.45387 0
M  V30 2451 C 220.895 -0.474048 -4.25367 0
M  V30 2452 C 220.221 0.422045 -5.33032 0
M  V30 2453 C 221.521 -1.72696 -4.92923 0
M  V30 2454 H 223.215 -1.24807 -2.72146 0
M  V30 2455 H 220.761 -0.601585 -1.30832 0
M  V30 2456 H 222.714 0.725447 -4.15109 0
M  V30 2457 H 221.438 1.24174 -3.02074 0
M  V30 2458 H 220.097 -0.81786 -3.57361 0
M  V30 2459 H 219.745 1.29804 -4.85963 0
M  V30 2460 H 219.445 -0.135057 -5.87445 0
M  V30 2461 H 220.969 0.779517 -6.05604 0
M  V30 2462 H 222.383 -1.43495 -5.55051 0
M  V30 2463 H 220.78 -2.22582 -5.57295 0
M  V30 2464 H 221.85 -2.45964 -4.17887 0
M  V30 2465 N 223.193 1.4272 -0.668489 0
M  V30 2466 C 224.421 2.05966 -0.196348 0
M  V30 2467 C 224.836 1.50191 1.14403 0
M  V30 2468 O 224.193 0.639208 1.7094 0
M  V30 2469 C 224.244 3.61314 -0.115815 0
M  V30 2470 O 223.965 4.1502 -1.40322 0
M  V30 2471 C 225.466 4.41663 0.380579 0
M  V30 2472 H 222.686 0.663954 -0.0969829 0
M  V30 2473 H 225.23 1.82966 -0.913446 0
M  V30 2474 H 223.385 3.83448 0.551931 0
M  V30 2475 H 223.799 5.08832 -1.27243 0
M  V30 2476 H 225.273 5.5065 0.385848 0
M  V30 2477 H 225.75 4.15792 1.41471 0
M  V30 2478 H 226.356 4.24534 -0.255209 0
M  V30 2479 N 224.671 0.411399 1.52136 0
M  V30 2480 C 225.917 -0.163888 2.02137 0
M  V30 2481 C 226.25 -1.44597 1.29636 0
M  V30 2482 O 225.525 -1.90272 0.403353 0
M  V30 2483 C 225.808 -0.40927 3.57767 0
M  V30 2484 C 225.661 0.889643 4.40914 0
M  V30 2485 C 226.98 -1.19042 4.23694 0
M  V30 2486 H 224.099 -0.0580896 0.734707 0
M  V30 2487 H 226.741 0.54531 1.82007 0
M  V30 2488 H 224.891 -1.0134 3.7505 0
M  V30 2489 H 226.563 1.52575 4.35337 0
M  V30 2490 H 224.806 1.50011 4.07037 0
M  V30 2491 H 225.477 0.672314 5.4789 0
M  V30 2492 H 227.953 -0.678942 4.10524 0
M  V30 2493 H 226.829 -1.33086 5.32522 0
M  V30 2494 H 227.09 -2.21166 3.82803 0
M  V30 2495 N 226.149 -1.5696 0.141893 0
M  V30 2496 C 227.398 -1.95135 -0.510427 0
M  V30 2497 C 227.711 -1.02896 -1.66348 0
M  V30 2498 O 228.917 -1.30629 -2.38009 0
M  V30 2499 C 227.373 -3.46876 -0.959427 0
M  V30 2500 C 226.981 -4.47691 0.166419 0
M  V30 2501 C 228.725 -3.93927 -1.58183 0
M  V30 2502 C 226.632 -5.90636 -0.300565 0
M  V30 2503 H 225.562 -0.728494 -0.194454 0
M  V30 2504 H 228.213 -1.8211 0.22542 0
M  V30 2505 H 226.595 -3.55215 -1.75038 0
M  V30 2506 H 227.769 -4.51043 0.94325 0
M  V30 2507 H 226.084 -4.10527 0.696905 0
M  V30 2508 H 228.681 -4.98158 -1.94275 0
M  V30 2509 H 229.024 -3.3519 -2.46888 0
M  V30 2510 H 229.557 -3.88484 -0.855863 0
M  V30 2511 H 226.296 -6.5318 0.550989 0
M  V30 2512 H 225.816 -5.90655 -1.04338 0
M  V30 2513 H 227.495 -6.42588 -0.754265 0
M  V30 2514 N 227.627 0.131896 -1.57047 0
M  V30 2515 C 228.873 0.838268 -1.85323 0
M  V30 2516 C 229.228 1.78098 -0.727937 0
M  V30 2517 O 228.521 1.89645 0.27304 0
M  V30 2518 C 228.715 1.63703 -3.17704 0
M  V30 2519 C 228.544 0.773167 -4.43004 0
M  V30 2520 C 227.314 0.432956 -5.03442 0
M  V30 2521 C 229.512 0.0966216 -5.14209 0
M  V30 2522 N 227.494 -0.442924 -6.123 0
M  V30 2523 C 228.865 -0.638778 -6.16701 0
M  V30 2524 C 230.92 0.018861 -4.97896 0
M  V30 2525 C 229.623 -1.44462 -7.04644 0
M  V30 2526 C 231.649 -0.773762 -5.86316 0
M  V30 2527 C 231.011 -1.4974 -6.883 0
M  V30 2528 H 227.11 0.284086 -0.728573 0
M  V30 2529 H 229.694 0.102731 -1.94429 0
M  V30 2530 H 227.865 2.3437 -3.09718 0
M  V30 2531 H 229.597 2.28774 -3.33833 0
M  V30 2532 H 226.352 0.772237 -4.67262 0
M  V30 2533 H 226.776 -0.872332 -6.71356 0
M  V30 2534 H 231.418 0.56397 -4.19022 0
M  V30 2535 H 229.136 -2.00093 -7.82936 0
M  V30 2536 H 232.722 -0.83612 -5.75761 0
M  V30 2537 H 231.602 -2.10087 -7.55535 0
M  V30 2538 N 229.106 1.52395 0.401703 0
M  V30 2539 C 230.334 1.70676 1.16949 0
M  V30 2540 C 230.749 0.419503 1.8408 0
M  V30 2541 O 230.106 -0.605061 1.72178 0
M  V30 2542 C 230.157 2.84753 2.22706 0
M  V30 2543 O 229.878 4.08495 1.58314 0
M  V30 2544 C 231.379 3.14608 3.12309 0
M  V30 2545 H 228.599 0.571787 0.351142 0
M  V30 2546 H 231.143 1.98987 0.471652 0
M  V30 2547 H 229.298 2.58941 2.88147 0
M  V30 2548 H 229.712 4.72117 2.28485 0
M  V30 2549 H 231.186 3.97923 3.82572 0
M  V30 2550 H 231.663 2.28464 3.75101 0
M  V30 2551 H 232.269 3.42212 2.52529 0
M  V30 2552 N 230.584 -0.659388 1.43143 0
M  V30 2553 C 231.831 -1.41935 1.44433 0
M  V30 2554 C 232.159 -1.94387 0.0663522 0
M  V30 2555 O 231.414 -1.72314 -0.927706 0
M  V30 2556 C 231.713 -2.62206 2.42864 0
M  V30 2557 C 231.379 -2.28208 3.88886 0
M  V30 2558 C 230.041 -2.18647 4.28657 0
M  V30 2559 C 232.393 -2.00887 4.8093 0
M  V30 2560 C 229.721 -1.79914 5.58433 0
M  V30 2561 C 232.073 -1.63653 6.11065 0
M  V30 2562 C 230.737 -1.52614 6.49819 0
M  V30 2563 H 230.007 -0.519376 0.528517 0
M  V30 2564 H 232.654 -0.750453 1.76183 0
M  V30 2565 H 230.959 -3.34199 2.04495 0
M  V30 2566 H 232.656 -3.2041 2.41119 0
M  V30 2567 H 229.246 -2.36557 3.57406 0
M  V30 2568 H 233.43 -2.07198 4.5098 0
M  V30 2569 H 228.686 -1.69948 5.87305 0
M  V30 2570 H 232.86 -1.41543 6.81864 0
M  V30 2571 H 230.487 -1.22371 7.50286 0
M  V30 2572 N 232.062 -1.29571 -0.897171 0
M  V30 2573 C 233.302 -1.18959 -1.66217 0
M  V30 2574 C 233.666 0.254271 -1.90309 0
M  V30 2575 O 234.867 0.483407 -2.64417 0
M  V30 2576 C 233.138 -1.98302 -2.9734 0
M  V30 2577 S 234.697 -2.04253 -3.88364 0
M  V30 2578 H 231.515 -0.424137 -0.570639 0
M  V30 2579 H 234.117 -1.6389 -1.06585 0
M  V30 2580 H 232.821 -3.02342 -2.77521 0
M  V30 2581 H 232.352 -1.53986 -3.62011 0
M  V30 2582 H 234.367 -1.16105 -4.82425 0
M  V30 2583 N 233.54 1.10788 -1.12088 0
M  V30 2584 C 234.768 1.86461 -0.896651 0
M  V30 2585 C 235.183 1.80492 0.553912 0
M  V30 2586 O 234.54 1.19102 1.38278 0
M  V30 2587 C 234.591 3.35006 -1.35843 0
M  V30 2588 O 234.312 3.40866 -2.75213 0
M  V30 2589 C 235.813 4.27565 -1.1706 0
M  V30 2590 H 233.033 0.589425 -0.320654 0
M  V30 2591 H 235.577 1.40076 -1.48993 0
M  V30 2592 H 233.732 3.7887 -0.808458 0
M  V30 2593 H 234.146 4.33411 -2.9539 0
M  V30 2594 H 235.62 5.30007 -1.54263 0
M  V30 2595 H 236.097 4.3906 -0.110814 0
M  V30 2596 H 236.703 3.89501 -1.70789 0
M  V30 2597 N 235.018 0.912232 1.28515 0
M  V30 2598 C 236.266 0.543523 1.94654 0
M  V30 2599 C 236.587 -0.9155 1.72173 0
M  V30 2600 O 235.857 -1.64708 1.06058 0
M  V30 2601 H 234.437 0.198017 0.720277 0
M  V30 2602 H 237.099 1.16126 1.56527 0
M  V30 2603 H 236.195 0.736684 3.03281 0
M  V30 2604 N 236.496 -1.42363 0.676048 0
M  V30 2605 C 237.724 -2.05859 0.207268 0
M  V30 2606 C 238.139 -1.50796 -1.13605 0
M  V30 2607 O 237.496 -0.648265 -1.70598 0
M  V30 2608 C 237.547 -3.61248 0.134975 0
M  V30 2609 O 237.268 -4.1427 1.42521 0
M  V30 2610 C 238.769 -4.41859 -0.357151 0
M  V30 2611 H 235.989 -0.663431 0.100503 0
M  V30 2612 H 238.533 -1.82479 0.923136 0
M  V30 2613 H 236.688 -3.83735 -0.531588 0
M  V30 2614 H 237.102 -5.0815 1.29939 0
M  V30 2615 H 238.576 -5.50847 -0.356641 0
M  V30 2616 H 239.053 -4.16536 -1.39264 0
M  V30 2617 H 239.659 -4.24392 0.27772 0
M  V30 2618 N 237.974 -0.419461 -1.51915 0
M  V30 2619 C 239.222 0.152637 -2.01523 0
M  V30 2620 C 239.543 1.44762 -1.30649 0
M  V30 2621 O 238.813 1.90997 -0.435535 0
M  V30 2622 H 237.393 0.0593966 -0.744635 0
M  V30 2623 H 240.055 -0.558073 -1.86739 0
M  V30 2624 H 239.151 0.341369 -3.10227 0
M  V30 2625 N 239.452 1.56882 -0.150215 0
M  V30 2626 C 240.701 1.95403 0.500071 0
M  V30 2627 C 241.014 1.03777 1.658 0
M  V30 2628 O 242.22 1.31889 2.37313 0
M  V30 2629 C 240.676 3.4738 0.941018 0
M  V30 2630 C 240.284 4.47596 -0.190158 0
M  V30 2631 C 242.028 3.9476 1.56091 0
M  V30 2632 C 239.935 5.90787 0.269237 0
M  V30 2633 H 238.865 0.729515 0.190588 0
M  V30 2634 H 241.516 1.81988 -0.235074 0
M  V30 2635 H 239.898 3.56138 1.73152 0
M  V30 2636 H 241.072 4.50536 -0.967157 0
M  V30 2637 H 239.387 4.10151 -0.718666 0
M  V30 2638 H 241.984 4.99181 1.9163 0
M  V30 2639 H 242.327 3.36494 2.45107 0
M  V30 2640 H 242.86 3.88932 0.835249 0
M  V30 2641 H 239.599 6.52879 -0.585621 0
M  V30 2642 H 239.119 5.912 1.01204 0
M  V30 2643 H 240.798 6.42979 0.720176 0
M  V30 2644 N 240.93 -0.123565 1.57115 0
M  V30 2645 C 242.158 -0.846461 1.88793 0
M  V30 2646 C 242.573 -1.73652 0.740976 0
M  V30 2647 O 241.93 -1.80207 -0.288393 0
M  V30 2648 C 241.981 -1.6837 3.19897 0
M  V30 2649 O 241.702 -0.829477 4.30176 0
M  V30 2650 C 243.203 -2.51214 3.65248 0
M  V30 2651 H 240.423 -0.243573 0.625231 0
M  V30 2652 H 242.967 -0.109324 2.04208 0
M  V30 2653 H 241.122 -2.37364 3.06165 0
M  V30 2654 H 241.536 -1.40651 5.0529 0
M  V30 2655 H 243.01 -3.05497 4.59756 0
M  V30 2656 H 243.487 -3.28359 2.9168 0
M  V30 2657 H 244.093 -1.8747 3.81752 0
M  V30 2658 N 242.408 -1.52605 -0.393616 0
M  V30 2659 C 243.341 -1.71798 -1.50202 0
M  V30 2660 C 244.319 -0.565743 -1.52441 0
M  V30 2661 O 245.503 -0.794987 -1.70916 0
M  V30 2662 C 242.63 -1.7714 -2.88685 0
M  V30 2663 C 241.676 -2.98845 -3.04292 0
M  V30 2664 S 242.509 -4.58909 -2.75976 0
M  V30 2665 C 243.665 -4.6706 -4.1666 0
M  V30 2666 H 243.898 -2.65542 -1.33696 0
M  V30 2667 H 241.431 -1.42839 -0.586195 0
M  V30 2668 H 243.389 -1.80903 -3.68489 0
M  V30 2669 H 242.05 -0.844969 -3.02521 0
M  V30 2670 H 241.243 -2.99111 -4.05646 0
M  V30 2671 H 240.845 -2.9305 -2.32374 0
M  V30 2672 H 243.137 -4.45391 -5.10523 0
M  V30 2673 H 244.08 -5.6905 -4.21412 0
M  V30 2674 H 244.488 -3.95944 -4.02354 0
M  V30 2675 N 243.887 0.651787 -1.4349 0
M  V30 2676 C 245.133 1.41376 -1.45398 0
M  V30 2677 C 245.466 1.94041 -0.0784823 0
M  V30 2678 O 244.741 1.72379 0.900878 0
M  V30 2679 C 245.024 2.59414 -2.49752 0
M  V30 2680 C 244.877 2.12232 -3.96582 0
M  V30 2681 C 246.196 3.61626 -2.50827 0
M  V30 2682 H 243.315 0.512719 -0.529422 0
M  V30 2683 H 245.957 0.738796 -1.75048 0
M  V30 2684 H 244.107 3.16997 -2.246 0
M  V30 2685 H 245.779 1.59639 -4.32797 0
M  V30 2686 H 244.022 1.43592 -4.09346 0
M  V30 2687 H 244.693 2.9712 -4.65214 0
M  V30 2688 H 247.169 3.13805 -2.7325 0
M  V30 2689 H 246.045 4.41766 -3.25783 0
M  V30 2690 H 246.306 4.14314 -1.5426 0
M  V30 2691 N 245.365 1.30045 0.890287 0
M  V30 2692 C 246.614 1.17929 1.63633 0
M  V30 2693 C 246.927 -0.266204 1.9378 0
M  V30 2694 O 248.133 -0.508804 2.6669 0
M  V30 2695 C 246.589 2.06317 2.94892 0
M  V30 2696 C 246.197 3.55745 2.72305 0
M  V30 2697 C 247.941 2.0295 3.72843 0
M  V30 2698 C 245.848 4.36205 3.99348 0
M  V30 2699 H 244.778 0.437782 0.613892 0
M  V30 2700 H 247.429 1.54754 0.986075 0
M  V30 2701 H 245.811 1.6237 3.61182 0
M  V30 2702 H 246.985 4.07805 2.1455 0
M  V30 2703 H 245.3 3.6088 2.07737 0
M  V30 2704 H 247.897 2.60319 4.67053 0
M  V30 2705 H 248.24 1.0117 4.0382 0
M  V30 2706 H 248.773 2.4499 3.13408 0
M  V30 2707 H 245.512 5.38659 3.73533 0
M  V30 2708 H 245.032 3.8891 4.56628 0
M  V30 2709 H 246.711 4.47362 4.67415 0
M  V30 2710 N 246.843 -1.10192 1.12674 0
M  V30 2711 C 248.09 -1.82205 0.883606 0
M  V30 2712 C 248.418 -1.8532 -0.590492 0
M  V30 2713 O 247.673 -1.31137 -1.45264 0
M  V30 2714 C 247.972 -3.28552 1.4067 0
M  V30 2715 C 247.638 -3.45582 2.89627 0
M  V30 2716 C 246.3 -3.49937 3.30299 0
M  V30 2717 C 248.652 -3.50768 3.85501 0
M  V30 2718 C 245.98 -3.57049 4.65546 0
M  V30 2719 C 248.332 -3.59414 5.20581 0
M  V30 2720 C 246.996 -3.62034 5.60792 0
M  V30 2721 H 246.266 -0.666735 0.323334 0
M  V30 2722 H 248.913 -1.29868 1.40736 0
M  V30 2723 H 247.218 -3.83473 0.80347 0
M  V30 2724 H 248.915 -3.82788 1.19475 0
M  V30 2725 H 245.505 -3.42871 2.57172 0
M  V30 2726 H 249.689 -3.46651 3.55171 0
M  V30 2727 H 244.945 -3.57361 4.96088 0
M  V30 2728 H 249.119 -3.62371 5.94693 0
M  V30 2729 H 246.746 -3.67298 6.6558 0
M  V30 2730 N 248.321 -0.919034 -1.28029 0
M  V30 2731 C 249.546 -0.570357 -1.99403 0
M  V30 2732 C 249.971 0.842486 -1.68178 0
M  V30 2733 O 249.329 1.56391 -0.917141 0
M  V30 2734 C 249.377 -0.792541 -3.51783 0
M  V30 2735 O 248.481 0.145988 -4.12142 0
M  V30 2736 H 247.822 -0.220555 -0.6263 0
M  V30 2737 H 250.352 -1.23592 -1.63053 0
M  V30 2738 H 250.362 -0.704708 -4.01868 0
M  V30 2739 H 249.037 -1.82247 -3.73844 0
M  V30 2740 H 247.614 0.00897528 -3.72899 0
M  V30 2741 N 249.799 1.42003 -0.683588 0
M  V30 2742 C 250.749 2.27997 0.0121992 0
M  V30 2743 C 251.733 1.4156 0.764822 0
M  V30 2744 O 252.925 1.64935 0.642287 0
M  V30 2745 C 250.054 3.29706 0.956482 0
M  V30 2746 C 249.14 4.23625 0.200739 0
M  V30 2747 N 249.531 4.99448 -0.799087 0
M  V30 2748 C 247.829 4.43845 0.437937 0
M  V30 2749 C 248.53 5.68102 -1.25041 0
M  V30 2750 N 247.506 5.40511 -0.578648 0
M  V30 2751 H 251.308 2.84048 -0.754564 0
M  V30 2752 H 248.822 1.54071 -0.513398 0
M  V30 2753 H 250.819 3.90124 1.47 0
M  V30 2754 H 249.479 2.75216 1.72297 0
M  V30 2755 H 250.49 5.04303 -1.17893 0
M  V30 2756 H 247.167 4.00382 1.18325 0
M  V30 2757 H 248.557 6.38913 -2.07942 0
M  V30 2758 N 251.277 0.427512 1.51691 0
M  V30 2759 C 252.227 -0.406604 2.24345 0
M  V30 2760 C 253.211 -0.998276 1.26187 0
M  V30 2761 O 254.403 -0.918045 1.51331 0
M  V30 2762 C 251.532 -1.51266 3.08177 0
M  V30 2763 C 250.618 -0.930868 4.13758 0
M  V30 2764 N 251.009 -0.0773552 5.05741 0
M  V30 2765 C 249.307 -1.19948 4.29568 0
M  V30 2766 C 250.008 0.248344 5.8117 0
M  V30 2767 N 248.984 -0.365535 5.4237 0
M  V30 2768 H 252.786 0.251581 2.92821 0
M  V30 2769 H 250.3 0.239003 1.60632 0
M  V30 2770 H 252.297 -2.123 3.58796 0
M  V30 2771 H 250.957 -2.17328 2.41244 0
M  V30 2772 H 251.968 0.288351 5.17097 0
M  V30 2773 H 248.645 -1.85832 3.73862 0
M  V30 2774 H 250.035 0.942286 6.6526 0
M  V30 2775 N 252.755 -1.56801 0.158532 0
M  V30 2776 C 254.001 -1.96781 -0.490405 0
M  V30 2777 C 254.334 -1.04397 -1.63753 0
M  V30 2778 O 253.609 -0.0885805 -1.94298 0
M  V30 2779 C 253.892 -3.4635 -0.985594 0
M  V30 2780 C 253.745 -4.49512 0.160824 0
M  V30 2781 C 255.064 -3.98697 -1.86355 0
M  V30 2782 H 252.183 -0.715482 -0.176788 0
M  V30 2783 H 254.825 -1.88451 0.242088 0
M  V30 2784 H 252.975 -3.53579 -1.60978 0
M  V30 2785 H 254.647 -4.54353 0.797537 0
M  V30 2786 H 252.89 -4.26013 0.818256 0
M  V30 2787 H 253.561 -5.51531 -0.227569 0
M  V30 2788 H 256.037 -3.94019 -1.33746 0
M  V30 2789 H 254.913 -5.03792 -2.17909 0
M  V30 2790 H 255.174 -3.41744 -2.8047 0
M  V30 2791 N 254.233 0.115231 -1.57178 0
M  V30 2792 C 255.644 0.67197 -1.74188 0
M  V30 2793 C 255.995 1.80125 -0.777777 0
M  V30 2794 O 255.12 2.16346 0.0484376 0
M  V30 2795 C 255.715 1.22573 -3.1585 0
M  V30 2796 C 254.274 1.72872 -3.34353 0
M  V30 2797 C 253.421 0.629972 -2.70049 0
M  V30 2798 H 256.372 -0.110712 -1.58313 0
M  V30 2799 H 256.393 2.09535 -3.17609 0
M  V30 2800 H 255.905 0.403598 -3.85996 0
M  V30 2801 H 254.006 2.5755 -2.69256 0
M  V30 2802 H 254.119 1.83557 -4.42542 0
M  V30 2803 H 252.483 1.0645 -2.31388 0
M  V30 2804 H 253.266 -0.181241 -3.42821 0
M  V30 2805 N 255.711 1.52812 0.385517 0
M  V30 2806 C 256.939 1.71907 1.15133 0
M  V30 2807 C 257.354 0.439004 1.83625 0
M  V30 2808 O 256.711 -0.586765 1.7281 0
M  V30 2809 C 256.762 2.87099 2.19673 0
M  V30 2810 O 256.483 4.10151 1.53973 0
M  V30 2811 C 257.984 3.17902 3.08955 0
M  V30 2812 H 255.204 0.575479 0.345057 0
M  V30 2813 H 257.748 1.99476 0.45052 0
M  V30 2814 H 255.903 2.61982 2.85384 0
M  V30 2815 H 256.317 4.74514 2.23465 0
M  V30 2816 H 257.791 4.01959 3.7833 0
M  V30 2817 H 258.268 2.3243 3.72657 0
M  V30 2818 H 258.874 3.44871 2.48885 0
M  V30 2819 N 257.189 -0.644168 1.43834 0
M  V30 2820 C 258.435 -1.40603 1.46146 0
M  V30 2821 C 258.768 -1.93997 0.0887717 0
M  V30 2822 O 258.043 -1.72854 -0.891724 0
M  V30 2823 C 258.326 -2.58086 2.51124 0
M  V30 2824 C 258.179 -2.10126 3.97702 0
M  V30 2825 C 259.498 -3.60291 2.52742 0
M  V30 2826 H 256.617 -0.509905 0.532134 0
M  V30 2827 H 259.259 -0.729502 1.75437 0
M  V30 2828 H 257.409 -3.15801 2.26278 0
M  V30 2829 H 259.081 -1.57342 4.33637 0
M  V30 2830 H 257.324 -1.41419 4.10101 0
M  V30 2831 H 257.995 -2.94649 4.66783 0
M  V30 2832 H 260.471 -3.12352 2.7491 0
M  V30 2833 H 259.347 -4.40032 3.28121 0
M  V30 2834 H 259.608 -4.1349 1.56455 0
M  V30 2835 N 258.668 -1.30515 -0.883378 0
M  V30 2836 C 259.917 -1.18795 -1.63005 0
M  V30 2837 C 260.23 0.255923 -1.93919 0
M  V30 2838 O 261.436 0.494654 -2.66956 0
M  V30 2839 C 259.892 -2.07878 -2.93794 0
M  V30 2840 C 259.5 -3.57184 -2.70414 0
M  V30 2841 C 261.244 -2.04924 -3.71761 0
M  V30 2842 C 259.151 -4.38317 -3.97029 0
M  V30 2843 H 258.081 -0.441031 -0.611562 0
M  V30 2844 H 260.732 -1.55275 -0.977854 0
M  V30 2845 H 259.114 -1.64283 -3.60315 0
M  V30 2846 H 260.288 -4.08937 -2.12384 0
M  V30 2847 H 258.603 -3.61976 -2.0582 0
M  V30 2848 H 261.2 -2.62792 -4.65665 0
M  V30 2849 H 261.543 -1.0331 -4.03277 0
M  V30 2850 H 262.076 -2.46649 -3.12104 0
M  V30 2851 H 258.815 -5.40632 -3.70671 0
M  V30 2852 H 258.335 -3.91326 -4.54559 0
M  V30 2853 H 260.014 -4.49834 -4.65036 0
M  V30 2854 N 260.146 1.09593 -1.13257 0
M  V30 2855 C 261.374 1.855 -0.916378 0
M  V30 2856 C 261.789 1.81069 0.534738 0
M  V30 2857 O 261.146 1.20562 1.37007 0
M  V30 2858 C 261.197 3.33546 -1.39388 0
M  V30 2859 O 260.918 3.37927 -2.78813 0
M  V30 2860 C 262.419 4.26299 -1.21588 0
M  V30 2861 H 259.639 0.585991 -0.326887 0
M  V30 2862 H 262.183 1.38488 -1.5047 0
M  V30 2863 H 260.338 3.77992 -0.848597 0
M  V30 2864 H 260.752 4.30254 -2.9997 0
M  V30 2865 H 262.226 5.28341 -1.59876 0
M  V30 2866 H 262.703 4.38918 -0.157376 0
M  V30 2867 H 263.309 3.87668 -1.7491 0
M  V30 2868 N 261.624 0.925811 1.2754 0
M  V30 2869 C 262.871 0.565255 1.94451 0
M  V30 2870 C 263.199 -0.89316 1.7278 0
M  V30 2871 O 262.454 -1.65213 1.04895 0
M  V30 2872 C 262.753 0.835296 3.47502 0
M  V30 2873 C 262.419 2.27515 3.89291 0
M  V30 2874 C 261.081 2.66879 4.00411 0
M  V30 2875 C 263.433 3.21158 4.10496 0
M  V30 2876 C 260.761 3.99014 4.30122 0
M  V30 2877 C 263.113 4.52871 4.4169 0
M  V30 2878 C 261.777 4.92072 4.51023 0
M  V30 2879 H 261.047 0.206841 0.711546 0
M  V30 2880 H 263.694 1.16942 1.51647 0
M  V30 2881 H 261.999 0.148442 3.91519 0
M  V30 2882 H 263.696 0.535322 3.97411 0
M  V30 2883 H 260.286 1.95976 3.81171 0
M  V30 2884 H 264.47 2.9195 4.01346 0
M  V30 2885 H 259.726 4.2907 4.35556 0
M  V30 2886 H 263.9 5.25436 4.57045 0
M  V30 2887 H 261.527 5.9449 4.738 0
M  V30 2888 N 263.102 -1.41638 0.69111 0
M  V30 2889 C 264.33 -2.05628 0.22909 0
M  V30 2890 C 264.745 -1.51992 -1.11999 0
M  V30 2891 O 264.102 -0.666322 -1.69901 0
M  V30 2892 C 264.153 -3.61084 0.173283 0
M  V30 2893 O 263.874 -4.12735 1.46907 0
M  V30 2894 C 265.375 -4.42213 -0.310266 0
M  V30 2895 H 262.595 -0.662327 0.107534 0
M  V30 2896 H 265.139 -1.81489 0.942438 0
M  V30 2897 H 263.294 -3.84278 -0.490858 0
M  V30 2898 H 263.708 -5.06743 1.35322 0
M  V30 2899 H 265.182 -5.51194 -0.298196 0
M  V30 2900 H 265.659 -4.1799 -1.34838 0
M  V30 2901 H 266.265 -4.24074 0.322716 0
M  V30 2902 N 264.58 -0.43555 -1.51462 0
M  V30 2903 C 265.805 0.132627 -2.06976 0
M  V30 2904 C 266.23 1.35848 -1.30104 0
M  V30 2905 O 265.588 1.78112 -0.338493 0
M  V30 2906 C 265.636 0.43523 -3.57964 0
M  V30 2907 O 264.74 1.52198 -3.83288 0
M  V30 2908 H 264.081 0.00265 -0.663995 0
M  V30 2909 H 266.611 -0.616369 -1.95095 0
M  V30 2910 H 266.621 0.686206 -4.02188 0
M  V30 2911 H 265.296 -0.460739 -4.1334 0
M  V30 2912 H 263.873 1.2611 -3.50928 0
M  V30 2913 N 266.058 1.56714 -0.166846 0
M  V30 2914 C 266.988 2.20754 0.760913 0
M  V30 2915 C 267.969 1.16178 1.24244 0
M  V30 2916 O 269.154 1.44592 1.29641 0
M  V30 2917 C 266.284 2.84478 1.99223 0
M  V30 2918 C 265.238 3.95053 1.64672 0
M  V30 2919 C 264.564 4.45805 2.95232 0
M  V30 2920 C 265.864 5.14865 0.878155 0
M  V30 2921 H 267.558 2.98537 0.22713 0
M  V30 2922 H 265.104 1.43596 0.107805 0
M  V30 2923 H 267.057 3.27951 2.64624 0
M  V30 2924 H 265.781 2.04056 2.55007 0
M  V30 2925 H 264.44 3.52228 1.01641 0
M  V30 2926 H 264.088 3.62181 3.49047 0
M  V30 2927 H 263.788 5.204 2.7287 0
M  V30 2928 H 265.312 4.91962 3.6167 0
M  V30 2929 H 266.726 5.55059 1.43466 0
M  V30 2930 H 265.123 5.95348 0.753738 0
M  V30 2931 H 266.193 4.84735 -0.126377 0
M  V30 2932 N 267.536 -0.106894 1.57237 0
M  V30 2933 C 268.783 -0.812526 1.85484 0
M  V30 2934 C 269.111 -1.79304 0.753687 0
M  V30 2935 O 268.366 -1.94047 -0.253853 0
M  V30 2936 C 268.665 -1.58628 3.20268 0
M  V30 2937 C 268.331 -0.748967 4.44636 0
M  V30 2938 C 266.993 -0.518104 4.78403 0
M  V30 2939 C 269.345 -0.166122 5.20935 0
M  V30 2940 C 266.673 0.305659 5.85903 0
M  V30 2941 C 269.025 0.644899 6.29304 0
M  V30 2942 C 267.689 0.885965 6.61594 0
M  V30 2943 H 266.959 -0.297324 0.678734 0
M  V30 2944 H 269.606 -0.0744332 1.91355 0
M  V30 2945 H 267.911 -2.39562 3.10028 0
M  V30 2946 H 269.608 -2.13643 3.39349 0
M  V30 2947 H 266.198 -0.939006 4.18187 0
M  V30 2948 H 270.382 -0.33167 4.95191 0
M  V30 2949 H 265.638 0.501528 6.0934 0
M  V30 2950 H 269.812 1.10345 6.87602 0
M  V30 2951 H 267.439 1.52609 7.44725 0
M  V30 2952 N 269.014 -1.53014 -0.377408 0
M  V30 2953 C 270.425 -1.60438 -0.954798 0
M  V30 2954 C 270.776 -0.464418 -1.90624 0
M  V30 2955 O 269.901 0.41087 -2.12464 0
M  V30 2956 C 270.496 -2.90797 -1.73847 0
M  V30 2957 C 269.055 -3.00595 -2.26538 0
M  V30 2958 C 268.202 -2.55645 -1.07429 0
M  V30 2959 H 271.153 -1.57926 -0.156575 0
M  V30 2960 H 271.174 -2.77935 -2.5987 0
M  V30 2961 H 270.686 -3.73746 -1.04574 0
M  V30 2962 H 268.787 -2.22208 -2.99089 0
M  V30 2963 H 268.9 -4.05456 -2.5523 0
M  V30 2964 H 267.264 -2.10239 -1.43777 0
M  V30 2965 H 268.047 -3.41 -0.396728 0
M  V30 2966 N 270.492 0.636531 -1.44174 0
M  V30 2967 C 271.422 1.76003 -1.53444 0
M  V30 2968 C 272.403 1.65619 -0.387841 0
M  V30 2969 O 273.588 1.84461 -0.607257 0
M  V30 2970 C 270.718 3.14511 -1.4731 0
M  V30 2971 C 269.672 3.39677 -2.60391 0
M  V30 2972 C 268.998 4.78159 -2.39308 0
M  V30 2973 C 270.298 3.32772 -4.02567 0
M  V30 2974 H 271.992 1.68501 -2.47483 0
M  V30 2975 H 269.538 0.809237 -1.19111 0
M  V30 2976 H 271.491 3.92878 -1.52397 0
M  V30 2977 H 270.215 3.22783 -0.49785 0
M  V30 2978 H 268.874 2.63688 -2.54684 0
M  V30 2979 H 268.522 4.83128 -1.39988 0
M  V30 2980 H 268.222 4.95956 -3.15122 0
M  V30 2981 H 269.746 5.58762 -2.46205 0
M  V30 2982 H 271.16 4.01051 -4.09672 0
M  V30 2983 H 269.557 3.62104 -4.7854 0
M  V30 2984 H 270.627 2.30669 -4.2652 0
M  V30 2985 N 271.97 1.30982 0.876444 0
M  V30 2986 C 272.903 1.12414 1.98591 0
M  V30 2987 C 273.881 0.0294078 1.62573 0
M  V30 2988 O 275.065 0.184598 1.87594 0
M  V30 2989 C 272.192 0.716276 3.3104 0
M  V30 2990 C 271.238 1.81311 3.86042 0
M  V30 2991 S 272.071 3.41727 4.1229 0
M  V30 2992 C 273.227 3.02863 5.47745 0
M  V30 2993 H 273.46 2.06338 2.14037 0
M  V30 2994 H 270.993 1.15393 1.02586 0
M  V30 2995 H 272.951 0.487697 4.07593 0
M  V30 2996 H 271.612 -0.203749 3.13438 0
M  V30 2997 H 270.805 1.48021 4.81774 0
M  V30 2998 H 270.407 1.99641 3.16259 0
M  V30 2999 H 272.699 2.51353 6.29148 0
M  V30 3000 H 273.642 3.97533 5.8598 0
M  V30 3001 H 274.05 2.40487 5.10711 0
M  V30 3002 N 273.449 -1.08991 1.13837 0
M  V30 3003 C 274.379 -2.17771 0.842507 0
M  V30 3004 C 275.36 -1.6892 -0.20001 0
M  V30 3005 O 276.545 -1.94113 -0.0579731 0
M  V30 3006 C 273.675 -3.4589 0.312644 0
M  V30 3007 C 272.629 -4.08099 1.28992 0
M  V30 3008 C 271.955 -5.31098 0.619623 0
M  V30 3009 C 273.255 -4.50077 2.65005 0
M  V30 3010 H 274.949 -2.42777 1.75213 0
M  V30 3011 H 272.495 -1.16682 0.843875 0
M  V30 3012 H 274.448 -4.21297 0.0933043 0
M  V30 3013 H 273.172 -3.20419 -0.632382 0
M  V30 3014 H 271.831 -3.34717 1.49533 0
M  V30 3015 H 271.479 -5.0191 -0.33102 0
M  V30 3016 H 271.179 -5.73674 1.27167 0
M  V30 3017 H 272.703 -6.09224 0.409669 0
M  V30 3018 H 274.117 -5.16688 2.48407 0
M  V30 3019 H 272.514 -5.03553 3.26427 0
M  V30 3020 H 273.584 -3.62257 3.22332 0
M  V30 3021 N 274.927 -0.932562 -1.27047 0
M  V30 3022 C 276.173 -0.576412 -1.94436 0
M  V30 3023 C 276.506 0.880891 -1.73072 0
M  V30 3024 O 275.781 1.62905 -1.06264 0
M  V30 3025 C 276.064 -0.909031 -3.48437 0
M  V30 3026 C 275.917 -2.42044 -3.79123 0
M  V30 3027 C 277.236 -0.418341 -4.38107 0
M  V30 3028 H 274.355 -0.210888 -0.706184 0
M  V30 3029 H 276.997 -1.16522 -1.50075 0
M  V30 3030 H 275.147 -0.407947 -3.86352 0
M  V30 3031 H 276.819 -2.99359 -3.50973 0
M  V30 3032 H 275.062 -2.86758 -3.25503 0
M  V30 3033 H 275.733 -2.6037 -4.86736 0
M  V30 3034 H 278.209 -0.847856 -4.0737 0
M  V30 3035 H 277.085 -0.679981 -5.44672 0
M  V30 3036 H 277.346 0.681642 -4.36814 0
M  V30 3037 N 276.405 1.4127 -0.698611 0
M  V30 3038 C 277.652 2.0118 -0.230865 0
M  V30 3039 C 277.98 1.55338 1.17049 0
M  V30 3040 O 277.235 0.756775 1.80475 0
M  V30 3041 C 277.534 3.56592 -0.240192 0
M  V30 3042 C 277.2 4.21955 -1.58948 0
M  V30 3043 C 275.862 4.39524 -1.95887 0
M  V30 3044 C 278.214 4.58576 -2.47704 0
M  V30 3045 C 275.542 4.90992 -3.2116 0
M  V30 3046 C 277.894 5.11435 -3.72313 0
M  V30 3047 C 276.558 5.27215 -4.0939 0
M  V30 3048 H 275.828 0.736169 -0.0844796 0
M  V30 3049 H 278.475 1.69124 -0.8983 0
M  V30 3050 H 276.78 3.88456 0.510797 0
M  V30 3051 H 278.477 4.00758 0.139296 0
M  V30 3052 H 275.067 4.08657 -1.29219 0
M  V30 3053 H 279.251 4.44654 -2.20445 0
M  V30 3054 H 274.507 5.01393 -3.49878 0
M  V30 3055 H 278.681 5.38752 -4.4127 0
M  V30 3056 H 276.308 5.66859 -5.06533 0
M  V30 3057 N 277.883 0.443576 1.51229 0
M  V30 3058 C 279.132 -0.122332 2.01329 0
M  V30 3059 C 279.445 -1.43237 1.33201 0
M  V30 3060 O 280.651 -2.0816 1.74304 0
M  V30 3061 C 279.107 -0.268551 3.58897 0
M  V30 3062 C 278.715 1.03142 4.35965 0
M  V30 3063 C 280.459 -0.787894 4.17124 0
M  V30 3064 C 278.366 0.850504 5.85252 0
M  V30 3065 H 277.296 -0.0494929 0.752374 0
M  V30 3066 H 279.947 0.574289 1.74282 0
M  V30 3067 H 278.329 -1.02832 3.82415 0
M  V30 3068 H 279.503 1.80001 4.24189 0
M  V30 3069 H 277.818 1.47977 3.89219 0
M  V30 3070 H 280.415 -0.939841 5.26375 0
M  V30 3071 H 280.758 -1.77201 3.76703 0
M  V30 3072 H 281.291 -0.0862669 3.97706 0
M  V30 3073 H 278.03 1.80718 6.30096 0
M  V30 3074 H 277.55 0.121825 5.99676 0
M  V30 3075 H 279.229 0.506163 6.45017 0
M  V30 3076 N 279.361 -1.56624 0.175154 0
M  V30 3077 C 280.291 -2.21155 -0.749195 0
M  V30 3078 C 281.272 -1.16836 -1.23626 0
M  V30 3079 O 282.457 -1.45277 -1.28873 0
M  V30 3080 C 279.587 -2.8553 -1.97711 0
M  V30 3081 C 278.541 -3.95921 -1.62575 0
M  V30 3082 C 277.867 -4.47365 -2.92864 0
M  V30 3083 C 279.167 -5.15323 -0.850838 0
M  V30 3084 H 280.861 -2.98653 -0.211295 0
M  V30 3085 H 278.407 -1.43651 -0.100188 0
M  V30 3086 H 280.36 -3.2935 -2.62881 0
M  V30 3087 H 279.084 -2.05406 -2.53921 0
M  V30 3088 H 277.743 -3.52762 -0.997719 0
M  V30 3089 H 277.391 -3.64027 -3.47122 0
M  V30 3090 H 277.091 -5.21839 -2.70106 0
M  V30 3091 H 278.615 -4.93873 -3.59056 0
M  V30 3092 H 280.029 -5.55812 -1.40521 0
M  V30 3093 H 278.426 -5.95739 -0.722154 0
M  V30 3094 H 279.496 -4.84661 0.152082 0
M  V30 3095 N 280.839 0.0985539 -1.57292 0
M  V30 3096 C 282.079 0.808332 -1.87737 0
M  V30 3097 C 282.443 1.7607 -0.76572 0
M  V30 3098 O 283.644 2.51358 -0.952499 0
M  V30 3099 C 281.915 1.52093 -3.23423 0
M  V30 3100 S 283.474 2.26947 -3.75554 0
M  V30 3101 H 280.292 0.269377 -0.657995 0
M  V30 3102 H 282.894 0.0656269 -1.9539 0
M  V30 3103 H 281.598 0.81363 -4.02254 0
M  V30 3104 H 281.129 2.30361 -3.189 0
M  V30 3105 H 283.144 3.53027 -3.48692 0
M  V30 3106 N 282.317 1.53212 0.369288 0
M  V30 3107 C 283.247 1.82365 1.45826 0
M  V30 3108 C 284.228 0.676907 1.56051 0
M  V30 3109 O 285.413 0.926401 1.70679 0
M  V30 3110 C 282.543 2.01023 2.83208 0
M  V30 3111 C 281.497 3.1678 2.8781 0
M  V30 3112 C 280.823 3.20724 4.27832 0
M  V30 3113 C 282.123 4.55447 2.55667 0
M  V30 3114 H 283.817 2.73559 1.21678 0
M  V30 3115 H 281.363 1.3163 0.583911 0
M  V30 3116 H 283.316 2.20001 3.59413 0
M  V30 3117 H 282.04 1.06536 3.08736 0
M  V30 3118 H 280.699 2.97616 2.14056 0
M  V30 3119 H 280.347 2.23882 4.50429 0
M  V30 3120 H 280.047 3.98496 4.31827 0
M  V30 3121 H 281.571 3.41881 5.05915 0
M  V30 3122 H 282.985 4.74611 3.21586 0
M  V30 3123 H 281.382 5.35432 2.70984 0
M  V30 3124 H 282.452 4.60812 1.5093 0
M  V30 3125 N 283.795 -0.628877 1.44509 0
M  V30 3126 C 285.025 -1.41349 1.50678 0
M  V30 3127 C 285.433 -1.88745 0.131075 0
M  V30 3128 O 284.776 -1.61592 -0.87371 0
M  V30 3129 C 284.838 -2.66608 2.41165 0
M  V30 3130 C 284.502 -2.40993 3.88293 0
M  V30 3131 C 285.499 -2.0268 4.78766 0
M  V30 3132 C 283.184 -2.54563 4.33016 0
M  V30 3133 C 285.178 -1.78269 6.11963 0
M  V30 3134 C 282.865 -2.29766 5.6626 0
M  V30 3135 C 283.863 -1.91678 6.55552 0
M  V30 3136 O 283.551 -1.67158 7.86329 0
M  V30 3137 H 283.283 -0.439851 0.51333 0
M  V30 3138 H 285.837 -0.776084 1.90174 0
M  V30 3139 H 284.067 -3.32994 1.96601 0
M  V30 3140 H 285.756 -3.28615 2.38259 0
M  V30 3141 H 286.522 -1.91751 4.45485 0
M  V30 3142 H 282.401 -2.83179 3.63773 0
M  V30 3143 H 285.945 -1.48465 6.81619 0
M  V30 3144 H 281.842 -2.40306 5.99102 0
M  V30 3145 H 282.61 -1.81386 7.98149 0
M  V30 3146 N 285.273 -1.31445 -0.869486 0
M  V30 3147 C 286.519 -1.21337 -1.62496 0
M  V30 3148 C 286.852 0.227872 -1.92858 0
M  V30 3149 O 286.127 1.16094 -1.56053 0
M  V30 3150 C 286.41 -2.05814 -2.95487 0
M  V30 3151 C 286.263 -3.5824 -2.72 0
M  V30 3152 C 287.582 -1.9079 -3.96594 0
M  V30 3153 H 284.701 -0.442135 -0.589649 0
M  V30 3154 H 287.343 -1.6124 -1.00507 0
M  V30 3155 H 285.493 -1.71913 -3.48394 0
M  V30 3156 H 287.165 -4.0228 -2.25762 0
M  V30 3157 H 285.408 -3.81647 -2.06224 0
M  V30 3158 H 286.079 -4.12657 -3.66631 0
M  V30 3159 H 288.555 -2.20459 -3.52898 0
M  V30 3160 H 287.431 -2.52199 -4.87531 0
M  V30 3161 H 287.692 -0.871341 -4.33428 0
M  V30 3162 N 286.751 1.08385 -1.14413 0
M  V30 3163 C 287.701 2.13509 -0.79987 0
M  V30 3164 C 288.685 1.5951 0.211059 0
M  V30 3165 O 289.877 1.76995 0.0133694 0
M  V30 3166 C 287.006 3.42162 -0.279297 0
M  V30 3167 C 286.092 4.03042 -1.31976 0
M  V30 3168 N 286.483 4.38327 -2.52395 0
M  V30 3169 C 284.781 4.30379 -1.17004 0
M  V30 3170 C 285.482 4.86428 -3.19003 0
M  V30 3171 N 284.458 4.84547 -2.46405 0
M  V30 3172 H 288.26 2.38609 -1.7159 0
M  V30 3173 H 285.774 1.2572 -1.02802 0
M  V30 3174 H 287.771 4.16898 -0.0143688 0
M  V30 3175 H 286.431 3.18511 0.630923 0
M  V30 3176 H 287.442 4.29349 -2.89621 0
M  V30 3177 H 284.119 4.16281 -0.318854 0
M  V30 3178 H 285.509 5.23107 -4.21674 0
M  V30 3179 N 288.23 0.939286 1.26551 0
M  V30 3180 C 289.163 0.391702 2.24813 0
M  V30 3181 C 290.141 -0.518421 1.54114 0
M  V30 3182 O 291.325 -0.456299 1.82894 0
M  V30 3183 C 288.452 -0.437382 3.35864 0
M  V30 3184 C 287.498 0.410946 4.24516 0
M  V30 3185 S 288.331 1.83372 5.03125 0
M  V30 3186 C 289.487 1.01264 6.17654 0
M  V30 3187 H 289.72 1.22448 2.70913 0
M  V30 3188 H 287.253 0.742269 1.35387 0
M  V30 3189 H 289.211 -0.909837 4.0029 0
M  V30 3190 H 287.872 -1.24482 2.8838 0
M  V30 3191 H 287.065 -0.224191 5.03501 0
M  V30 3192 H 286.667 0.818014 3.64945 0
M  V30 3193 H 288.959 0.254023 6.77024 0
M  V30 3194 H 289.902 1.77589 6.85469 0
M  V30 3195 H 290.31 0.549532 5.61819 0
M  V30 3196 N 289.708 -1.40897 0.706093 0
M  V30 3197 C 290.955 -2.01054 0.241531 0
M  V30 3198 C 291.283 -1.55956 -1.16223 0
M  V30 3199 O 290.538 -0.766336 -1.80072 0
M  V30 3200 C 290.837 -3.5646 0.259099 0
M  V30 3201 C 290.503 -4.21106 1.61184 0
M  V30 3202 C 289.165 -4.38479 1.98216 0
M  V30 3203 C 291.517 -4.57256 2.50132 0
M  V30 3204 C 288.845 -4.89282 3.2376 0
M  V30 3205 C 291.197 -5.09454 3.7502 0
M  V30 3206 C 289.861 -5.25037 4.12181 0
M  V30 3207 H 289.131 -0.73571 0.0883825 0
M  V30 3208 H 291.778 -1.68645 0.907257 0
M  V30 3209 H 290.083 -3.88721 -0.490189 0
M  V30 3210 H 291.78 -4.00826 -0.11804 0
M  V30 3211 H 288.37 -4.07966 1.31384 0
M  V30 3212 H 292.554 -4.43479 2.228 0
M  V30 3213 H 287.81 -4.99531 3.52532 0
M  V30 3214 H 291.984 -5.36404 4.44121 0
M  V30 3215 H 289.611 -5.64164 5.09532 0
M  V30 3216 N 291.186 -0.45159 -1.50991 0
M  V30 3217 C 292.116 0.342898 -2.30969 0
M  V30 3218 C 293.097 1.00815 -1.37005 0
M  V30 3219 O 294.282 1.00907 -1.65926 0
M  V30 3220 C 291.412 1.43637 -3.16205 0
M  V30 3221 C 290.366 0.893818 -4.18563 0
M  V30 3222 C 289.692 2.08411 -4.92411 0
M  V30 3223 C 290.992 -0.0815568 -5.22236 0
M  V30 3224 H 292.686 -0.324556 -2.97636 0
M  V30 3225 H 290.232 -0.157531 -1.43136 0
M  V30 3226 H 292.185 1.9995 -3.70942 0
M  V30 3227 H 290.909 2.13232 -2.47386 0
M  V30 3228 H 289.568 0.352798 -3.64898 0
M  V30 3229 H 289.216 2.76658 -4.20082 0
M  V30 3230 H 288.916 1.72741 -5.61636 0
M  V30 3231 H 290.44 2.65251 -5.49976 0
M  V30 3232 H 291.854 0.391742 -5.7196 0
M  V30 3233 H 290.251 -0.351551 -5.99069 0
M  V30 3234 H 291.321 -1.01374 -4.74185 0
M  V30 3235 N 292.664 1.56529 -0.183458 0
M  V30 3236 C 293.594 2.21549 0.737456 0
M  V30 3237 C 294.575 1.17489 1.23005 0
M  V30 3238 O 295.76 1.45959 1.281 0
M  V30 3239 C 292.89 2.86575 1.96194 0
M  V30 3240 C 291.844 3.96778 1.60473 0
M  V30 3241 C 291.17 4.48911 2.90487 0
M  V30 3242 C 292.47 5.15767 0.823497 0
M  V30 3243 H 294.164 2.98761 0.195453 0
M  V30 3244 H 291.71 1.43702 0.0925686 0
M  V30 3245 H 293.663 3.30739 2.61131 0
M  V30 3246 H 292.387 2.06749 2.52828 0
M  V30 3247 H 291.046 3.53286 0.978997 0
M  V30 3248 H 290.694 3.65862 3.45186 0
M  V30 3249 H 290.394 5.23265 2.67335 0
M  V30 3250 H 291.918 4.95771 3.56432 0
M  V30 3251 H 293.332 5.56549 1.37571 0
M  V30 3252 H 291.729 5.96114 0.690551 0
M  V30 3253 H 292.799 4.84574 -0.177782 0
M  V30 3254 N 294.142 -0.090211 1.57342 0
M  V30 3255 C 295.105 -1.09335 2.01441 0
M  V30 3256 C 296.105 -1.32666 0.908641 0
M  V30 3257 O 297.295 -1.28697 1.174 0
M  V30 3258 C 294.427 -2.44136 2.3793 0
M  V30 3259 H 295.62 -0.713662 2.91285 0
M  V30 3260 H 293.173 -0.335404 1.52659 0
M  V30 3261 H 293.908 -2.86972 1.51055 0
M  V30 3262 H 293.693 -2.28548 3.18603 0
M  V30 3263 H 295.183 -3.16277 2.72688 0
M  V30 3264 N 295.62 -1.53406 -0.361157 0
M  V30 3265 C 297.036 -1.43277 -0.703124 0
M  V30 3266 C 297.236 -0.575384 -1.9311 0
M  V30 3267 O 296.292 -0.0595362 -2.5243 0
M  V30 3268 C 297.605 -2.8653 -0.9122 0
M  V30 3269 C 299.153 -2.96191 -1.01193 0
M  V30 3270 C 299.628 -4.40514 -1.25345 0
M  V30 3271 N 301.119 -4.43962 -1.32105 0
M  V30 3272 C 301.854 -5.52746 -1.5251 0
M  V30 3273 N 301.35 -6.71567 -1.70203 0
M  V30 3274 N 303.143 -5.40331 -1.54916 0
M  V30 3275 H 295.294 -2.07654 0.446475 0
M  V30 3276 H 297.557 -0.937944 0.137715 0
M  V30 3277 H 297.263 -3.51605 -0.0816414 0
M  V30 3278 H 297.137 -3.30441 -1.81903 0
M  V30 3279 H 299.524 -2.31266 -1.83303 0
M  V30 3280 H 299.605 -2.55667 -0.0823929 0
M  V30 3281 H 299.249 -5.06014 -0.437346 0
M  V30 3282 H 299.179 -4.78614 -2.19627 0
M  V30 3283 H 301.67 -3.58332 -1.20028 0
M  V30 3284 H 301.983 -7.50241 -1.85359 0
M  V30 3285 H 300.328 -6.74545 -1.67373 0
M  V30 3286 H 303.519 -4.46465 -1.40663 0
M  V30 3287 H 303.692 -6.25173 -1.70477 0
M  V30 3288 N 297.098 0.621204 -1.44841 0
M  V30 3289 C 298.323 1.41244 -1.51871 0
M  V30 3290 C 298.748 1.87519 -0.147764 0
M  V30 3291 O 298.106 1.59334 0.865 0
M  V30 3292 C 298.154 2.60221 -2.49634 0
M  V30 3293 O 297.258 3.60395 -2.00473 0
M  V30 3294 H 296.599 0.42223 -0.512463 0
M  V30 3295 H 299.129 0.757305 -1.90069 0
M  V30 3296 H 299.139 3.0764 -2.67996 0
M  V30 3297 H 297.814 2.25887 -3.4921 0
M  V30 3298 H 296.391 3.19717 -1.91925 0
M  V30 3299 N 298.576 1.31904 0.862503 0
M  V30 3300 C 299.526 1.16772 1.95827 0
M  V30 3301 C 300.51 0.0767098 1.60717 0
M  V30 3302 O 301.702 0.302407 1.74398 0
M  V30 3303 C 298.831 0.884858 3.317 0
M  V30 3304 C 297.917 2.0172 3.73055 0
M  V30 3305 N 298.308 3.265 3.86305 0
M  V30 3306 C 296.606 1.91861 4.02623 0
M  V30 3307 C 297.307 4.00616 4.2176 0
M  V30 3308 N 296.283 3.28847 4.32852 0
M  V30 3309 H 300.085 2.11382 2.04193 0
M  V30 3310 H 297.599 1.2357 1.05377 0
M  V30 3311 H 299.596 0.757419 4.09962 0
M  V30 3312 H 298.256 -0.0529448 3.24657 0
M  V30 3313 H 299.267 3.61529 3.70833 0
M  V30 3314 H 295.944 1.05593 4.03926 0
M  V30 3315 H 297.334 5.08182 4.39546 0
M  V30 3316 N 300.054 -1.07777 1.14986 0
M  V30 3317 C 301.282 -1.84018 0.945773 0
M  V30 3318 C 301.697 -1.81897 -0.505863 0
M  V30 3319 O 301.054 -1.22726 -1.35072 0
M  V30 3320 C 301.105 -3.31287 1.44677 0
M  V30 3321 O 300.826 -3.33449 2.84154 0
M  V30 3322 C 302.327 -4.24311 1.28355 0
M  V30 3323 H 299.547 -0.580716 0.336169 0
M  V30 3324 H 302.091 -1.36077 1.52654 0
M  V30 3325 H 300.246 -3.76594 0.908625 0
M  V30 3326 H 300.66 -4.25427 3.06777 0
M  V30 3327 H 302.134 -5.2573 1.68261 0
M  V30 3328 H 302.611 -4.38612 0.227184 0
M  V30 3329 H 303.217 -3.84836 1.81056 0
M  V30 3330 N 301.532 -0.945985 -1.26051 0
M  V30 3331 C 302.948 -0.649045 -1.45807 0
M  V30 3332 C 303.148 0.796158 -1.85104 0
M  V30 3333 O 302.204 1.57233 -1.97571 0
M  V30 3334 C 303.517 -1.61458 -2.53677 0
M  V30 3335 C 305.065 -1.62481 -2.67524 0
M  V30 3336 C 305.54 -2.57776 -3.7857 0
M  V30 3337 N 307.031 -2.5609 -3.85969 0
M  V30 3338 C 307.766 -3.26508 -4.7136 0
M  V30 3339 N 307.262 -4.0637 -5.61102 0
M  V30 3340 N 309.055 -3.15437 -4.65248 0
M  V30 3341 H 301.206 -1.88005 -0.988328 0
M  V30 3342 H 303.469 -0.808198 -0.4955 0
M  V30 3343 H 303.175 -2.64644 -2.31638 0
M  V30 3344 H 303.049 -1.37036 -3.51427 0
M  V30 3345 H 305.436 -0.600167 -2.88933 0
M  V30 3346 H 305.517 -1.90958 -1.70202 0
M  V30 3347 H 305.161 -3.60361 -3.57913 0
M  V30 3348 H 305.091 -2.26587 -4.75359 0
M  V30 3349 H 307.582 -1.98105 -3.21812 0
M  V30 3350 H 307.895 -4.57042 -6.23164 0
M  V30 3351 H 306.24 -4.10469 -5.60839 0
M  V30 3352 H 309.431 -2.52525 -3.94143 0
M  V30 3353 H 309.604 -3.70584 -5.31575 0
M  V30 3354 N 303.011 1.40521 -0.713556 0
M  V30 3355 C 303.958 2.30723 -0.059684 0
M  V30 3356 C 304.928 1.48079 0.752448 0
M  V30 3357 O 306.113 1.76823 0.71681 0
M  V30 3358 C 303.253 3.34274 0.857594 0
M  V30 3359 C 302.366 4.31986 0.0351536 0
M  V30 3360 C 301.501 5.22605 0.951724 0
M  V30 3361 C 300.54 6.11976 0.123253 0
M  V30 3362 N 299.677 6.9502 0.99459 0
M  V30 3363 H 304.517 2.86074 -0.834596 0
M  V30 3364 H 302.054 1.40879 -0.42326 0
M  V30 3365 H 304.012 3.92879 1.40364 0
M  V30 3366 H 302.642 2.8043 1.59871 0
M  V30 3367 H 301.694 3.7518 -0.628052 0
M  V30 3368 H 303.006 4.95101 -0.606347 0
M  V30 3369 H 302.16 5.86131 1.56638 0
M  V30 3370 H 300.899 4.59759 1.62705 0
M  V30 3371 H 299.904 5.47482 -0.50435 0
M  V30 3372 H 301.129 6.76881 -0.548539 0
M  V30 3373 H 299.075 6.34764 1.6556 0
M  V30 3374 H 298.992 7.54892 0.40908 0
M  V30 3375 H 300.26 7.62997 1.59549 0
M  V30 3376 N 304.489 0.459591 1.5075 0
M  V30 3377 C 305.738 -0.100971 2.01447 0
M  V30 3378 C 306.051 -1.41816 1.34713 0
M  V30 3379 O 307.257 -2.06299 1.76502 0
M  V30 3380 C 305.713 -0.23047 3.59161 0
M  V30 3381 C 305.321 1.0776 4.34847 0
M  V30 3382 C 307.065 -0.743608 4.17936 0
M  V30 3383 C 304.972 0.91253 5.84317 0
M  V30 3384 H 303.902 -0.0415102 0.752856 0
M  V30 3385 H 306.553 0.592742 1.73663 0
M  V30 3386 H 304.935 -0.987703 3.83485 0
M  V30 3387 H 306.109 1.8449 4.22256 0
M  V30 3388 H 304.424 1.52097 3.87628 0
M  V30 3389 H 307.021 -0.883959 5.27343 0
M  V30 3390 H 307.364 -1.73196 3.78562 0
M  V30 3391 H 307.897 -0.04408 3.97776 0
M  V30 3392 H 304.636 1.87391 6.28144 0
M  V30 3393 H 304.156 0.185422 5.99513 0
M  V30 3394 H 305.835 0.574547 6.44444 0
M  V30 3395 N 305.967 -1.56429 0.191757 0
M  V30 3396 C 307.192 -2.02309 -0.456706 0
M  V30 3397 C 307.617 -1.07103 -1.5463 0
M  V30 3398 O 306.975 -0.0539677 -1.8122 0
M  V30 3399 C 307.023 -3.46654 -0.993159 0
M  V30 3400 O 306.127 -3.54559 -2.10622 0
M  V30 3401 H 305.468 -0.655303 -0.107114 0
M  V30 3402 H 307.998 -2.02364 0.301653 0
M  V30 3403 H 308.008 -3.86377 -1.31061 0
M  V30 3404 H 306.683 -4.1544 -0.195504 0
M  V30 3405 H 305.26 -3.26708 -1.79767 0
M  V30 3406 N 307.445 0.0818655 -1.57387 0
M  V30 3407 C 308.673 0.796108 -1.9097 0
M  V30 3408 C 309.088 1.71626 -0.786757 0
M  V30 3409 O 308.445 1.80908 0.240513 0
M  V30 3410 C 308.496 1.59829 -3.24248 0
M  V30 3411 O 308.217 0.715131 -4.32224 0
M  V30 3412 C 309.718 2.41442 -3.7178 0
M  V30 3413 H 306.938 0.22691 -0.631469 0
M  V30 3414 H 309.482 0.0551439 -2.04426 0
M  V30 3415 H 307.637 2.29163 -3.12351 0
M  V30 3416 H 308.051 1.27205 -5.08841 0
M  V30 3417 H 309.525 2.932 -4.67694 0
M  V30 3418 H 310.002 3.2051 -3.00283 0
M  V30 3419 H 310.608 1.77283 -3.86589 0
M  V30 3420 N 308.923 1.53595 0.353017 0
M  V30 3421 C 309.853 1.83902 1.43883 0
M  V30 3422 C 310.834 0.693421 1.55324 0
M  V30 3423 O 312.019 0.944452 1.69687 0
M  V30 3424 C 309.149 2.04016 2.8106 0
M  V30 3425 C 308.103 3.19814 2.84434 0
M  V30 3426 C 307.429 3.25244 4.24406 0
M  V30 3427 C 308.729 4.58133 2.50822 0
M  V30 3428 H 310.423 2.74835 1.1877 0
M  V30 3429 H 307.969 1.32242 0.569917 0
M  V30 3430 H 309.922 2.238 3.57059 0
M  V30 3431 H 308.646 1.09804 3.07588 0
M  V30 3432 H 307.305 2.9987 2.10887 0
M  V30 3433 H 306.953 2.28646 4.48029 0
M  V30 3434 H 306.653 4.03054 4.27576 0
M  V30 3435 H 308.177 3.47228 5.0226 0
M  V30 3436 H 309.591 4.77995 3.16534 0
M  V30 3437 H 307.988 5.38276 2.6529 0
M  V30 3438 H 309.058 4.62387 1.46034 0
M  V30 3439 N 310.401 -0.613514 1.45168 0
M  V30 3440 C 311.812 -1.19539 1.43413 0
M  V30 3441 C 312.163 -1.95558 0.158632 0
M  V30 3442 O 311.288 -2.0335 -0.740119 0
M  V30 3443 C 311.883 -2.17445 2.59813 0
M  V30 3444 C 310.442 -2.71022 2.61197 0
M  V30 3445 C 309.589 -1.46323 2.35552 0
M  V30 3446 H 312.54 -0.403163 1.53494 0
M  V30 3447 H 312.561 -3.00373 2.33574 0
M  V30 3448 H 312.073 -1.62089 3.52631 0
M  V30 3449 H 310.174 -3.30332 1.7237 0
M  V30 3450 H 310.287 -3.15859 3.60236 0
M  V30 3451 H 308.651 -1.75072 1.84992 0
M  V30 3452 H 309.434 -0.92844 3.30507 0
M  V30 3453 N 311.879 -1.3236 -0.855495 0
M  V30 3454 C 313.295 -1.11332 -1.14356 0
M  V30 3455 C 313.495 0.106751 -2.01217 0
M  V30 3456 O 312.551 0.791891 -2.39761 0
M  V30 3457 C 313.864 -2.39237 -1.82171 0
M  V30 3458 C 315.412 -2.44986 -1.9481 0
M  V30 3459 C 315.887 -3.7281 -2.66039 0
M  V30 3460 N 317.378 -3.73787 -2.73565 0
M  V30 3461 C 318.113 -4.69394 -3.29327 0
M  V30 3462 N 317.609 -5.75367 -3.85907 0
M  V30 3463 N 319.402 -4.56893 -3.27423 0
M  V30 3464 H 311.553 -2.10586 -0.277027 0
M  V30 3465 H 313.816 -0.929701 -0.185364 0
M  V30 3466 H 313.522 -3.28431 -1.25802 0
M  V30 3467 H 313.396 -2.50134 -2.82335 0
M  V30 3468 H 315.783 -1.56252 -2.50338 0
M  V30 3469 H 315.864 -2.38043 -0.936448 0
M  V30 3470 H 315.508 -4.61918 -2.11174 0
M  V30 3471 H 315.438 -3.77024 -3.67642 0
M  V30 3472 H 317.929 -2.97189 -2.33424 0
M  V30 3473 H 318.242 -6.44378 -4.26611 0
M  V30 3474 H 316.587 -5.79123 -3.84242 0
M  V30 3475 H 319.778 -3.73269 -2.82467 0
M  V30 3476 H 319.951 -5.31577 -3.7058 0
M  V30 3477 N 313.357 1.07166 -1.15556 0
M  V30 3478 C 314.32 2.12589 -0.856644 0
M  V30 3479 C 315.32 1.6015 0.14444 0
M  V30 3480 O 316.51 1.7399 -0.0854163 0
M  V30 3481 C 313.642 3.39753 -0.279405 0
M  V30 3482 H 314.835 2.40539 -1.79112 0
M  V30 3483 H 312.388 1.23086 -0.963298 0
M  V30 3484 H 313.123 3.17447 0.663174 0
M  V30 3485 H 312.908 3.79117 -1.00063 0
M  V30 3486 H 314.398 4.17507 -0.0879113 0
M  V30 3487 N 314.835 0.952656 1.25548 0
M  V30 3488 C 315.783 0.462354 2.27958 0
M  V30 3489 C 316.777 -0.46634 1.62855 0
M  V30 3490 O 317.983 -0.343287 1.76696 0
M  V30 3491 H 314.358 0.13101 0.7405 0
M  V30 3492 H 316.329 1.33839 2.66702 0
M  V30 3493 C 315.078 -0.24628 3.46827 0
M  V30 3494 H 314.401 0.459192 3.97154 0
M  V30 3495 H 315.841 -0.553393 4.20373 0
M  V30 3496 C 314.3 -1.4681 3.0323 0
M  V30 3497 O 314.83 -2.56591 3.09069 0
M  V30 3498 N 313.036 -1.32874 2.58443 0
M  V30 3499 H 312.583 -0.435536 2.53891 0
M  V30 3500 H 312.541 -2.14742 2.29637 0
M  V30 3501 N 316.313 -1.40141 0.720998 0
M  V30 3502 C 317.246 -2.2819 0.020916 0
M  V30 3503 C 318.224 -1.43633 -0.762129 0
M  V30 3504 O 319.408 -1.7304 -0.747633 0
M  V30 3505 C 316.535 -3.24281 -0.977715 0
M  V30 3506 C 315.581 -4.25548 -0.284836 0
M  V30 3507 S 316.414 -5.26247 0.991169 0
M  V30 3508 C 317.57 -6.259 -0.0052214 0
M  V30 3509 H 317.803 -2.87218 0.767649 0
M  V30 3510 H 315.336 -1.45656 0.512233 0
M  V30 3511 H 317.294 -3.80167 -1.54865 0
M  V30 3512 H 315.955 -2.643 -1.69719 0
M  V30 3513 H 315.148 -4.93154 -1.03996 0
M  V30 3514 H 314.75 -3.73389 0.213684 0
M  V30 3515 H 317.042 -6.72143 -0.850279 0
M  V30 3516 H 317.985 -7.05224 0.637599 0
M  V30 3517 H 318.393 -5.63277 -0.371366 0
M  V30 3518 N 317.792 -0.46758 -1.50504 0
M  V30 3519 C 318.739 0.328413 -2.28452 0
M  V30 3520 C 319.709 0.990313 -1.33349 0
M  V30 3521 O 320.894 1.00343 -1.62284 0
M  V30 3522 C 318.034 1.40648 -3.15138 0
M  V30 3523 C 317.147 0.759709 -4.25267 0
M  V30 3524 C 316.282 1.81537 -4.99217 0
M  V30 3525 C 315.321 1.14866 -6.01226 0
M  V30 3526 N 314.458 2.14702 -6.68467 0
M  V30 3527 H 319.298 -0.342603 -2.96024 0
M  V30 3528 H 316.835 -0.180801 -1.45985 0
M  V30 3529 H 318.793 2.04315 -3.63746 0
M  V30 3530 H 317.423 2.04671 -2.49619 0
M  V30 3531 H 316.475 0.0105671 -3.80399 0
M  V30 3532 H 317.787 0.233243 -4.98254 0
M  V30 3533 H 316.941 2.52793 -5.51526 0
M  V30 3534 H 315.68 2.37564 -4.25928 0
M  V30 3535 H 314.685 0.42171 -5.4818 0
M  V30 3536 H 315.91 0.595334 -6.76485 0
M  V30 3537 H 313.856 2.69752 -5.97972 0
M  V30 3538 H 313.773 1.6703 -7.37317 0
M  V30 3539 H 315.041 2.85348 -7.25394 0
M  V30 3540 N 319.27 1.56325 -0.20005 0
M  V30 3541 C 320.518 1.97329 0.436547 0
M  V30 3542 C 320.839 1.08826 1.61808 0
M  V30 3543 O 320.109 0.160604 1.95241 0
M  V30 3544 H 318.689 0.728714 0.164272 0
M  V30 3545 H 321.351 1.92761 -0.287937 0
M  V30 3546 H 320.447 3.02264 0.777353 0
M  V30 3547 N 320.748 -0.0735177 1.57428 0
M  V30 3548 C 321.711 -1.07192 2.02589 0
M  V30 3549 C 322.711 -1.31695 0.922661 0
M  V30 3550 O 323.901 -1.27445 1.18758 0
M  V30 3551 C 321.033 -2.41599 2.40506 0
M  V30 3552 H 322.226 -0.682727 2.92025 0
M  V30 3553 H 319.779 -0.319193 1.53006 0
M  V30 3554 H 320.514 -2.85354 1.5409 0
M  V30 3555 H 320.299 -2.25156 3.21009 0
M  V30 3556 H 321.789 -3.13367 2.76027 0
M  V30 3557 N 322.226 -1.5378 -0.344866 0
M  V30 3558 C 323.475 -1.7018 -1.08267 0
M  V30 3559 C 323.788 -0.471 -1.89845 0
M  V30 3560 O 324.994 -0.515917 -2.66553 0
M  V30 3561 C 323.45 -3.00923 -1.97417 0
M  V30 3562 C 323.058 -4.31335 -1.21053 0
M  V30 3563 C 324.802 -3.26688 -2.71063 0
M  V30 3564 C 322.709 -5.53153 -2.09225 0
M  V30 3565 H 321.639 -0.634138 -0.407903 0
M  V30 3566 H 324.29 -1.8028 -0.342246 0
M  V30 3567 H 322.672 -2.84676 -2.75274 0
M  V30 3568 H 323.846 -4.58281 -0.481159 0
M  V30 3569 H 322.161 -4.12173 -0.591813 0
M  V30 3570 H 324.758 -4.1489 -3.37299 0
M  V30 3571 H 325.101 -2.43639 -3.37558 0
M  V30 3572 H 325.634 -3.43705 -2.0028 0
M  V30 3573 H 322.373 -6.38741 -1.47274 0
M  V30 3574 H 321.893 -5.30458 -2.79955 0
M  V30 3575 H 323.572 -5.88744 -2.68308 0
M  V30 3576 N 323.704 0.605807 -1.45491 0
M  V30 3577 C 324.932 1.39136 -1.5313 0
M  V30 3578 C 325.347 1.88082 -0.164507 0
M  V30 3579 O 324.704 1.62316 0.834247 0
M  V30 3580 C 324.755 2.59463 -2.51716 0
M  V30 3581 O 324.476 2.12551 -3.83084 0
M  V30 3582 C 325.977 3.52301 -2.6907 0
M  V30 3583 H 323.197 0.425849 -0.51855 0
M  V30 3584 H 325.741 0.73865 -1.90694 0
M  V30 3585 H 323.896 3.20772 -2.17219 0
M  V30 3586 H 324.31 2.90744 -4.36541 0
M  V30 3587 H 325.784 4.33271 -3.42024 0
M  V30 3588 H 326.261 4.02757 -1.75167 0
M  V30 3589 H 326.867 2.96845 -3.04571 0
M  V30 3590 N 325.182 1.32811 0.848464 0
M  V30 3591 C 326.112 1.24882 1.97299 0
M  V30 3592 C 327.093 0.131357 1.69592 0
M  V30 3593 O 328.278 0.319553 1.91553 0
M  V30 3594 C 325.408 0.97746 3.33261 0
M  V30 3595 C 324.362 2.05682 3.75338 0
M  V30 3596 C 323.688 1.63777 5.09 0
M  V30 3597 C 324.988 3.47254 3.90144 0
M  V30 3598 H 326.682 2.18966 2.04191 0
M  V30 3599 H 324.228 1.05413 0.981029 0
M  V30 3600 H 326.181 0.908513 4.1149 0
M  V30 3601 H 324.905 0.000980011 3.266 0
M  V30 3602 H 323.564 2.11603 2.99366 0
M  V30 3603 H 323.212 0.648569 4.98801 0
M  V30 3604 H 322.912 2.36 5.38124 0
M  V30 3605 H 324.436 1.5833 5.89715 0
M  V30 3606 H 325.85 3.43888 4.58709 0
M  V30 3607 H 324.247 4.1788 4.30693 0
M  V30 3608 H 325.317 3.86462 2.92874 0
M  V30 3609 N 326.66 -1.06551 1.16123 0
M  V30 3610 C 327.888 -1.83005 0.965237 0
M  V30 3611 C 328.303 -1.82423 -0.486542 0
M  V30 3612 O 327.66 -1.24152 -1.33763 0
M  V30 3613 C 327.711 -3.29733 1.48183 0
M  V30 3614 O 327.432 -3.30416 2.87674 0
M  V30 3615 C 328.933 -4.22926 1.32848 0
M  V30 3616 H 326.153 -0.577118 0.342309 0
M  V30 3617 H 328.697 -1.3445 1.54089 0
M  V30 3618 H 326.852 -3.75609 0.948517 0
M  V30 3619 H 327.266 -4.22149 3.11272 0
M  V30 3620 H 328.74 -5.23916 1.73827 0
M  V30 3621 H 329.217 -4.38346 0.273692 0
M  V30 3622 H 329.823 -3.82894 1.85127 0
M  V30 3623 N 328.138 -0.959301 -1.25041 0
M  V30 3624 C 329.387 -0.612254 -1.92183 0
M  V30 3625 C 329.7 0.855347 -1.75907 0
M  V30 3626 O 330.906 1.31256 -2.37664 0
M  V30 3627 C 329.362 -1.04435 -3.44414 0
M  V30 3628 C 328.97 -2.53482 -3.69393 0
M  V30 3629 C 330.714 -0.770055 -4.17457 0
M  V30 3630 C 328.621 -2.90468 -5.15153 0
M  V30 3631 H 327.551 -0.225279 -0.719559 0
M  V30 3632 H 330.202 -1.16438 -1.41825 0
M  V30 3633 H 328.584 -0.4206 -3.9376 0
M  V30 3634 H 329.758 -3.20916 -3.30681 0
M  V30 3635 H 328.073 -2.78432 -3.0962 0
M  V30 3636 H 330.67 -1.02249 -5.24832 0
M  V30 3637 H 331.013 0.293611 -4.15263 0
M  V30 3638 H 331.546 -1.35437 -3.74034 0
M  V30 3639 H 328.285 -3.95871 -5.22462 0
M  V30 3640 H 327.805 -2.27711 -5.54894 0
M  V30 3641 H 329.484 -2.79914 -5.83315 0
M  V30 3642 N 329.616 1.39756 -0.72842 0
M  V30 3643 C 330.546 2.33289 -0.0991354 0
M  V30 3644 C 331.527 1.53568 0.731489 0
M  V30 3645 O 332.712 1.81987 0.677807 0
M  V30 3646 C 329.842 3.3763 0.813834 0
M  V30 3647 C 328.796 4.2791 0.0878663 0
M  V30 3648 C 328.122 5.22894 1.11741 0
M  V30 3649 C 329.422 5.11314 -1.06563 0
M  V30 3650 H 331.116 2.86163 -0.880408 0
M  V30 3651 H 328.662 1.37591 -0.424819 0
M  V30 3652 H 330.615 4.0201 1.26355 0
M  V30 3653 H 329.339 2.83181 1.62715 0
M  V30 3654 H 327.998 3.65 -0.342159 0
M  V30 3655 H 327.646 4.64744 1.92412 0
M  V30 3656 H 327.346 5.84143 0.636477 0
M  V30 3657 H 328.87 5.90151 1.56697 0
M  V30 3658 H 330.284 5.69076 -0.694671 0
M  V30 3659 H 328.681 5.81671 -1.47577 0
M  V30 3660 H 329.751 4.46534 -1.89038 0
M  V30 3661 N 331.094 0.475555 1.50254 0
M  V30 3662 C 332.024 -0.30611 2.31485 0
M  V30 3663 C 333.005 -0.986228 1.38591 0
M  V30 3664 O 334.19 -0.982541 1.67511 0
M  V30 3665 C 331.32 -1.38588 3.1845 0
M  V30 3666 C 330.274 -0.827115 4.19932 0
M  V30 3667 C 329.6 -2.00551 4.95665 0
M  V30 3668 C 330.9 0.16463 5.2204 0
M  V30 3669 H 332.594 0.371866 2.97082 0
M  V30 3670 H 330.14 0.180282 1.42867 0
M  V30 3671 H 332.093 -1.94023 3.74076 0
M  V30 3672 H 330.817 -2.09269 2.50747 0
M  V30 3673 H 329.476 -0.294702 3.65414 0
M  V30 3674 H 329.124 -2.6994 4.2443 0
M  V30 3675 H 328.824 -1.63784 5.64313 0
M  V30 3676 H 330.348 -2.56468 5.54127 0
M  V30 3677 H 331.762 -0.300699 5.72511 0
M  V30 3678 H 330.159 0.446813 5.98434 0
M  V30 3679 H 331.229 1.08905 4.72512 0
M  V30 3680 N 332.573 -1.56217 0.208337 0
M  V30 3681 C 333.821 -1.97558 -0.426076 0
M  V30 3682 C 334.142 -1.09683 -1.61229 0
M  V30 3683 O 333.412 -0.170956 -1.95153 0
M  V30 3684 H 331.992 -0.729575 -0.160405 0
M  V30 3685 H 334.654 -1.92606 0.298155 0
M  V30 3686 H 333.75 -3.02672 -0.761312 0
M  V30 3687 N 334.051 0.0651679 -1.57465 0
M  V30 3688 C 335.297 0.764193 -1.87851 0
M  V30 3689 C 335.63 1.76889 -0.801495 0
M  V30 3690 O 334.905 1.93594 0.187528 0
M  V30 3691 C 335.188 1.46625 -3.28897 0
M  V30 3692 C 335.041 0.477515 -4.47258 0
M  V30 3693 C 336.36 2.4095 -3.68281 0
M  V30 3694 H 333.479 0.276351 -0.683227 0
M  V30 3695 H 336.121 0.0272868 -1.8998 0
M  V30 3696 H 334.271 2.09438 -3.27212 0
M  V30 3697 H 335.943 -0.145922 -4.61069 0
M  V30 3698 H 334.186 -0.206576 -4.33308 0
M  V30 3699 H 334.857 1.0065 -5.42746 0
M  V30 3700 H 337.333 1.88209 -3.71102 0
M  V30 3701 H 336.209 2.87072 -4.67847 0
M  V30 3702 H 336.47 3.26049 -2.98571 0
M  V30 3703 N 335.529 1.53961 0.336706 0
M  V30 3704 C 336.776 1.71536 1.07618 0
M  V30 3705 C 337.104 0.482125 1.8843 0
M  V30 3706 O 336.359 -0.536142 1.88213 0
M  V30 3707 C 336.658 2.93493 2.03953 0
M  V30 3708 C 336.324 4.28811 1.39399 0
M  V30 3709 C 334.986 4.65602 1.21523 0
M  V30 3710 C 337.338 5.12844 0.929541 0
M  V30 3711 C 334.666 5.84037 0.558312 0
M  V30 3712 C 337.018 6.31951 0.286505 0
M  V30 3713 C 335.682 6.67432 0.0954869 0
M  V30 3714 H 334.952 0.627696 0.393801 0
M  V30 3715 H 337.599 1.88186 0.354715 0
M  V30 3716 H 335.904 2.71475 2.82504 0
M  V30 3717 H 337.601 3.04285 2.61174 0
M  V30 3718 H 334.191 3.99858 1.54311 0
M  V30 3719 H 338.375 4.84947 1.05548 0
M  V30 3720 H 333.631 6.10097 0.398995 0
M  V30 3721 H 337.805 6.96352 -0.0814376 0
M  V30 3722 H 335.432 7.59063 -0.415579 0
M  V30 3723 N 337.007 -0.598083 1.45811 0
M  V30 3724 C 338.256 -1.35295 1.49594 0
M  V30 3725 C 338.569 -1.95057 0.145679 0
M  V30 3726 O 339.775 -2.71431 0.0612099 0
M  V30 3727 C 338.231 -2.45124 2.63519 0
M  V30 3728 C 337.839 -1.91732 4.04899 0
M  V30 3729 C 339.583 -3.2205 2.76558 0
M  V30 3730 C 337.49 -2.991 5.1019 0
M  V30 3731 H 336.42 -0.508552 0.556679 0
M  V30 3732 H 339.071 -0.639977 1.71978 0
M  V30 3733 H 337.453 -3.19149 2.34435 0
M  V30 3734 H 338.627 -1.24352 4.43704 0
M  V30 3735 H 336.942 -1.27522 3.96393 0
M  V30 3736 H 339.539 -4.0215 3.52391 0
M  V30 3737 H 339.882 -3.73663 1.83526 0
M  V30 3738 H 340.415 -2.55127 3.05213 0
M  V30 3739 H 337.154 -2.52393 6.04961 0
M  V30 3740 H 336.674 -3.65017 4.75944 0
M  V30 3741 H 338.353 -3.63318 5.35359 0
M  V30 3742 N 338.485 -1.33259 -0.841409 0
M  V30 3743 C 339.732 -1.24572 -1.5965 0
M  V30 3744 C 340.06 0.189137 -1.93578 0
M  V30 3745 O 339.315 1.14566 -1.5866 0
M  V30 3746 C 339.614 -2.06381 -2.9179 0
M  V30 3747 C 339.28 -3.556 -2.77235 0
M  V30 3748 C 337.942 -3.96282 -2.72973 0
M  V30 3749 C 340.294 -4.50433 -2.62221 0
M  V30 3750 C 337.622 -5.30017 -2.51592 0
M  V30 3751 C 339.974 -5.84327 -2.42374 0
M  V30 3752 C 338.638 -6.24194 -2.36512 0
M  V30 3753 H 337.908 -0.455842 -0.5842 0
M  V30 3754 H 340.555 -1.6482 -0.975016 0
M  V30 3755 H 338.86 -1.58903 -3.5813 0
M  V30 3756 H 340.557 -1.97019 -3.49263 0
M  V30 3757 H 337.147 -3.23298 -2.81384 0
M  V30 3758 H 341.331 -4.19914 -2.64549 0
M  V30 3759 H 336.587 -5.59947 -2.45499 0
M  V30 3760 H 340.761 -6.57414 -2.29739 0
M  V30 3761 H 338.388 -7.27759 -2.19706 0
M  V30 3762 N 339.963 1.05934 -1.16686 0
M  V30 3763 C 341.203 1.80382 -0.961345 0
M  V30 3764 C 341.567 1.85331 0.501643 0
M  V30 3765 O 342.768 2.55795 0.825986 0
M  V30 3766 C 341.039 3.20777 -1.57596 0
M  V30 3767 S 342.598 4.11795 -1.51559 0
M  V30 3768 H 339.416 0.621332 -0.345641 0
M  V30 3769 H 342.018 1.27157 -1.48497 0
M  V30 3770 H 340.722 3.14773 -2.63337 0
M  V30 3771 H 340.253 3.79078 -1.05182 0
M  V30 3772 H 342.268 4.93485 -0.518374 0
M  V30 3773 N 341.441 0.965919 1.2453 0
M  V30 3774 C 342.687 0.637349 1.93156 0
M  V30 3775 C 343.042 -0.818261 1.74133 0
M  V30 3776 O 342.335 -1.58079 1.08266 0
M  V30 3777 C 342.529 0.945428 3.44669 0
M  V30 3778 C 342.358 2.42944 3.78429 0
M  V30 3779 C 341.128 3.08895 3.9989 0
M  V30 3780 C 343.326 3.40941 3.8505 0
M  V30 3781 N 341.308 4.47052 4.20735 0
M  V30 3782 C 342.679 4.64448 4.10717 0
M  V30 3783 C 344.734 3.35624 3.67779 0
M  V30 3784 C 343.437 5.83292 4.20907 0
M  V30 3785 C 345.463 4.53818 3.79214 0
M  V30 3786 C 344.825 5.76114 4.05304 0
M  V30 3787 H 340.924 0.284034 0.728594 0
M  V30 3788 H 343.508 1.24041 1.50073 0
M  V30 3789 H 341.679 0.371193 3.86622 0
M  V30 3790 H 343.411 0.575613 4.00586 0
M  V30 3791 H 340.166 2.59432 3.96222 0
M  V30 3792 H 340.59 5.18634 4.35141 0
M  V30 3793 H 345.232 2.4211 3.46616 0
M  V30 3794 H 342.95 6.77236 4.40883 0
M  V30 3795 H 346.536 4.51263 3.67224 0
M  V30 3796 H 345.416 6.66045 4.13949 0
M  V30 3797 N 342.919 -1.39368 0.735821 0
M  V30 3798 C 343.882 -2.2896 0.104874 0
M  V30 3799 C 344.882 -1.46347 -0.666274 0
M  V30 3800 O 346.072 -1.67014 -0.49517 0
M  V30 3801 C 343.204 -3.29857 -0.860656 0
M  V30 3802 H 344.397 -2.86259 0.894205 0
M  V30 3803 H 341.95 -1.48029 0.501704 0
M  V30 3804 H 342.685 -2.77615 -1.67631 0
M  V30 3805 H 342.47 -3.9087 -0.310327 0
M  V30 3806 H 343.96 -3.96893 -1.29867 0
M  V30 3807 N 344.397 -0.483516 -1.5 0
M  V30 3808 C 345.808 -0.0314176 -1.86674 0
M  V30 3809 C 346.159 1.37728 -1.39733 0
M  V30 3810 O 345.284 2.02327 -0.767635 0
M  V30 3811 C 345.879 -0.0502376 -3.38763 0
M  V30 3812 C 344.438 0.346442 -3.74802 0
M  V30 3813 C 343.585 -0.430366 -2.7394 0
M  V30 3814 H 346.536 -0.697182 -1.42566 0
M  V30 3815 H 346.557 0.749116 -3.73053 0
M  V30 3816 H 346.069 -1.07563 -3.72897 0
M  V30 3817 H 344.17 1.37572 -3.46273 0
M  V30 3818 H 344.283 0.0391486 -4.79084 0
M  V30 3819 H 342.647 0.117557 -2.54429 0
M  V30 3820 H 343.43 -1.4555 -3.10918 0
M  V30 3821 N 345.875 1.56104 -0.216619 0
M  V30 3822 C 347.122 1.98172 0.416416 0
M  V30 3823 C 347.45 1.10413 1.60122 0
M  V30 3824 O 346.705 0.147967 1.9514 0
M  V30 3825 C 347.004 3.45923 0.898464 0
M  V30 3826 C 346.67 4.50559 -0.175288 0
M  V30 3827 C 345.332 4.78897 -0.470271 0
M  V30 3828 C 347.684 5.1334 -0.901728 0
M  V30 3829 C 345.012 5.67299 -1.4963 0
M  V30 3830 C 347.364 6.02853 -1.91705 0
M  V30 3831 C 346.028 6.29537 -2.21901 0
M  V30 3832 H 345.298 0.725164 0.152377 0
M  V30 3833 H 347.945 1.88839 -0.318103 0
M  V30 3834 H 346.25 3.52434 1.71165 0
M  V30 3835 H 347.947 3.75841 1.39803 0
M  V30 3836 H 344.537 4.28551 0.0647806 0
M  V30 3837 H 348.721 4.91521 -0.687072 0
M  V30 3838 H 343.977 5.86239 -1.73592 0
M  V30 3839 H 348.151 6.50552 -2.48505 0
M  V30 3840 H 345.778 6.97835 -3.01548 0
M  V30 3841 N 347.353 -0.0568162 1.57498 0
M  V30 3842 C 348.599 -0.75422 1.88253 0
M  V30 3843 C 348.932 -1.76461 0.810865 0
M  V30 3844 O 348.207 -1.93691 -0.177259 0
M  V30 3845 C 348.49 -1.44878 3.2967 0
M  V30 3846 C 348.343 -0.453789 4.47505 0
M  V30 3847 C 349.662 -2.38994 3.69554 0
M  V30 3848 H 346.781 -0.272724 0.684683 0
M  V30 3849 H 349.423 -0.0172113 1.89992 0
M  V30 3850 H 347.573 -2.077 3.28318 0
M  V30 3851 H 349.245 0.170371 4.60985 0
M  V30 3852 H 347.488 0.229552 4.33192 0
M  V30 3853 H 348.159 -0.977699 5.43273 0
M  V30 3854 H 350.635 -1.86239 3.72095 0
M  V30 3855 H 349.511 -2.84587 4.69363 0
M  V30 3856 H 349.772 -3.24461 3.00296 0
M  V30 3857 N 348.832 -1.54138 -0.328536 0
M  V30 3858 C 349.762 -1.86167 -1.40939 0
M  V30 3859 C 350.743 -0.718044 -1.54202 0
M  V30 3860 O 351.928 -0.971328 -1.68163 0
M  V30 3861 C 349.058 -2.08461 -2.77779 0
M  V30 3862 C 348.012 -3.24299 -2.7931 0
M  V30 3863 C 347.338 -3.31955 -4.19178 0
M  V30 3864 C 348.638 -4.62065 -2.43502 0
M  V30 3865 H 350.332 -2.76689 -1.14383 0
M  V30 3866 H 347.878 -1.33132 -0.548806 0
M  V30 3867 H 349.831 -2.29453 -3.53454 0
M  V30 3868 H 348.555 -1.14684 -3.05802 0
M  V30 3869 H 347.214 -3.03187 -2.0609 0
M  V30 3870 H 346.862 -2.35745 -4.44335 0
M  V30 3871 H 346.562 -4.09805 -4.2111 0
M  V30 3872 H 348.086 -3.55175 -4.96672 0
M  V30 3873 H 349.5 -4.8297 -3.08889 0
M  V30 3874 H 347.897 -5.42429 -2.56693 0
M  V30 3875 H 348.967 -4.64652 -1.38659 0
M  V30 3876 N 350.31 0.590341 -1.46126 0
M  V30 3877 C 351.26 1.69466 -1.5253 0
M  V30 3878 C 352.244 1.56179 -0.386917 0
M  V30 3879 O 353.436 1.65223 -0.634858 0
M  V30 3880 C 350.565 3.08245 -1.5113 0
M  V30 3881 C 349.651 3.26856 -2.70233 0
M  V30 3882 N 350.042 3.15657 -3.95214 0
M  V30 3883 C 348.34 3.57775 -2.66296 0
M  V30 3884 C 349.041 3.36066 -4.74799 0
M  V30 3885 N 348.017 3.60865 -4.06543 0
M  V30 3886 H 351.819 1.59326 -2.46966 0
M  V30 3887 H 349.333 0.79414 -1.41659 0
M  V30 3888 H 351.33 3.87492 -1.53804 0
M  V30 3889 H 349.99 3.19521 -0.577636 0
M  V30 3890 H 351.001 2.93686 -4.26578 0
M  V30 3891 H 347.678 3.75782 -1.81918 0
M  V30 3892 H 349.068 3.32655 -5.83772 0
M  V30 3893 N 351.788 1.33704 0.83433 0
M  V30 3894 C 353.034 1.25603 1.59222 0
M  V30 3895 C 353.367 -0.176659 1.93395 0
M  V30 3896 O 352.642 -1.11915 1.59076 0
M  V30 3897 C 352.925 2.13576 2.89926 0
M  V30 3898 C 352.778 3.65326 2.62406 0
M  V30 3899 C 354.097 2.01238 3.91397 0
M  V30 3900 H 351.216 0.457613 0.577719 0
M  V30 3901 H 353.858 1.63848 0.961972 0
M  V30 3902 H 352.008 1.8109 3.43713 0
M  V30 3903 H 353.68 4.08124 2.15017 0
M  V30 3904 H 351.923 3.8698 1.96033 0
M  V30 3905 H 352.594 4.22232 3.55562 0
M  V30 3906 H 355.07 2.29738 3.46929 0
M  V30 3907 H 353.946 2.65036 4.80673 0
M  V30 3908 H 354.207 0.985951 4.30966 0
M  V30 3909 N 353.266 -1.05314 1.17247 0
M  V30 3910 C 354.196 -2.1498 0.911362 0
M  V30 3911 C 355.177 -1.69471 -0.146169 0
M  V30 3912 O 356.362 -1.942 0.003812 0
M  V30 3913 C 353.492 -3.4472 0.422528 0
M  V30 3914 C 352.446 -4.03789 1.4191 0
M  V30 3915 C 351.772 -5.28858 0.788274 0
M  V30 3916 C 353.072 -4.41418 2.7919 0
M  V30 3917 H 354.766 -2.3708 1.82848 0
M  V30 3918 H 352.312 -1.13938 0.880569 0
M  V30 3919 H 354.265 -4.20787 0.227289 0
M  V30 3920 H 352.989 -3.22269 -0.530123 0
M  V30 3921 H 351.648 -3.2979 1.60106 0
M  V30 3922 H 351.296 -5.02709 -0.171173 0
M  V30 3923 H 350.996 -5.69338 1.45353 0
M  V30 3924 H 352.52 -6.07612 0.603282 0
M  V30 3925 H 353.934 -5.08524 2.64719 0
M  V30 3926 H 352.331 -4.92913 3.42282 0
M  V30 3927 H 353.401 -3.51819 3.33693 0
M  V30 3928 N 354.744 -0.972509 -1.24016 0
M  V30 3929 C 355.674 -0.525548 -2.27509 0
M  V30 3930 C 356.655 0.437262 -1.64384 0
M  V30 3931 O 357.84 0.332343 -1.91335 0
M  V30 3932 C 354.97 0.180448 -3.46831 0
M  V30 3933 C 353.924 -0.698859 -4.22256 0
M  V30 3934 C 353.25 0.138903 -5.3452 0
M  V30 3935 C 354.55 -1.98582 -4.83076 0
M  V30 3936 H 356.244 -1.39058 -2.65148 0
M  V30 3937 H 353.79 -0.67009 -1.27459 0
M  V30 3938 H 355.743 0.504387 -4.18371 0
M  V30 3939 H 354.467 1.07987 -3.08231 0
M  V30 3940 H 353.126 -1.00614 -3.52523 0
M  V30 3941 H 352.774 1.03862 -4.9216 0
M  V30 3942 H 352.474 -0.446259 -5.85903 0
M  V30 3943 H 353.998 0.457404 -6.08884 0
M  V30 3944 H 355.412 -1.72715 -5.46665 0
M  V30 3945 H 353.809 -2.5181 -5.44713 0
M  V30 3946 H 354.879 -2.67769 -4.04262 0
M  V30 3947 N 356.222 1.38976 -0.743202 0
M  V30 3948 C 357.155 2.28128 -0.0572165 0
M  V30 3949 C 358.133 1.44827 0.739182 0
M  V30 3950 O 359.317 1.74207 0.720009 0
M  V30 3951 C 356.444 3.25796 0.926001 0
M  V30 3952 C 355.49 4.25947 0.217099 0
M  V30 3953 S 356.323 5.24604 -1.07477 0
M  V30 3954 C 357.479 6.25829 -0.0943545 0
M  V30 3955 H 357.712 2.85961 -0.813246 0
M  V30 3956 H 355.245 1.44822 -0.535341 0
M  V30 3957 H 357.203 3.82583 1.48797 0
M  V30 3958 H 355.864 2.66966 1.65493 0
M  V30 3959 H 355.057 4.94746 0.961372 0
M  V30 3960 H 354.659 3.73002 -0.273059 0
M  V30 3961 H 356.951 6.73411 0.743239 0
M  V30 3962 H 357.894 7.0412 -0.749713 0
M  V30 3963 H 358.302 5.63797 0.281706 0
M  V30 3964 N 357.7 0.491464 1.49741 0
M  V30 3965 C 358.928 -0.0535151 2.06831 0
M  V30 3966 C 359.343 -1.31683 1.35296 0
M  V30 3967 O 358.7 -1.77402 0.42836 0
M  V30 3968 C 358.751 -0.320835 3.60073 0
M  V30 3969 O 358.472 0.892394 4.28915 0
M  V30 3970 C 359.973 -0.910519 4.33848 0
M  V30 3971 H 357.193 0.0161909 0.670805 0
M  V30 3972 H 359.737 0.68609 1.92647 0
M  V30 3973 H 357.892 -1.0104 3.73991 0
M  V30 3974 H 358.306 0.649401 5.20464 0
M  V30 3975 H 359.78 -1.04721 5.41976 0
M  V30 3976 H 360.257 -1.90589 3.95692 0
M  V30 3977 H 360.863 -0.258712 4.24512 0
M  V30 3978 N 359.178 -1.55987 0.224894 0
M  V30 3979 C 360.425 -1.9839 -0.4059 0
M  V30 3980 C 360.753 -1.11261 -1.59535 0
M  V30 3981 O 360.008 -0.158314 -1.95059 0
M  V30 3982 C 360.307 -3.46394 -0.880106 0
M  V30 3983 C 359.973 -4.5046 0.19918 0
M  V30 3984 C 358.635 -4.7864 0.495661 0
M  V30 3985 C 360.987 -5.12855 0.928939 0
M  V30 3986 C 358.315 -5.66497 1.52636 0
M  V30 3987 C 360.667 -6.01828 1.949 0
M  V30 3988 C 359.331 -6.28351 2.25236 0
M  V30 3989 H 358.601 -0.725961 -0.148529 0
M  V30 3990 H 361.248 -1.88668 0.328113 0
M  V30 3991 H 359.553 -3.53337 -1.69294 0
M  V30 3992 H 361.25 -3.76577 -1.37808 0
M  V30 3993 H 357.84 -4.28579 -0.0420526 0
M  V30 3994 H 362.024 -4.9115 0.713129 0
M  V30 3995 H 357.28 -5.8531 1.76698 0
M  V30 3996 H 361.454 -6.49225 2.51951 0
M  V30 3997 H 359.081 -6.96226 3.05244 0
M  V30 3998 N 360.656 0.0484629 -1.57525 0
M  V30 3999 C 361.896 0.748196 -1.90214 0
M  V30 4000 C 362.26 1.73545 -0.821347 0
M  V30 4001 O 363.461 2.48201 -1.03198 0
M  V30 4002 C 361.732 1.41727 -3.28098 0
M  V30 4003 S 363.291 2.14884 -3.82584 0
M  V30 4004 H 360.109 0.248307 -0.666232 0
M  V30 4005 H 362.711 0.00343188 -1.955 0
M  V30 4006 H 361.415 0.685244 -4.04639 0
M  V30 4007 H 360.946 2.20099 -3.26068 0
M  V30 4008 H 362.961 3.41755 -3.59747 0
M  V30 4009 N 362.134 1.5431 0.320358 0
M  V30 4010 C 363.545 1.63872 0.894594 0
M  V30 4011 C 363.896 0.534847 1.88769 0
M  V30 4012 O 363.021 -0.331732 2.13842 0
M  V30 4013 C 363.616 2.97049 1.62934 0
M  V30 4014 C 362.175 3.08796 2.15226 0
M  V30 4015 C 361.322 2.59456 0.978671 0
M  V30 4016 H 364.273 1.58398 0.0978544 0
M  V30 4017 H 364.294 2.87388 2.49376 0
M  V30 4018 H 363.806 3.7737 0.906302 0
M  V30 4019 H 361.907 2.33156 2.90636 0
M  V30 4020 H 362.02 4.14649 2.40006 0
M  V30 4021 H 360.384 2.1543 1.35875 0
M  V30 4022 H 361.167 3.42237 0.269895 0
M  V30 4023 N 363.613 -0.582584 1.46437 0
M  V30 4024 C 364.838 -1.37168 1.55563 0
M  V30 4025 C 365.263 -1.87061 0.19743 0
M  V30 4026 O 364.621 -1.61572 -0.822451 0
M  V30 4027 C 364.669 -2.53511 2.56446 0
M  V30 4028 O 363.773 -3.54953 2.09958 0
M  V30 4029 H 363.114 -0.408494 0.523477 0
M  V30 4030 H 365.644 -0.706646 1.9201 0
M  V30 4031 H 365.654 -3.00426 2.76058 0
M  V30 4032 H 364.329 -2.16549 3.55076 0
M  V30 4033 H 362.906 -3.14516 2.00334 0
M  V30 4034 N 365.091 -1.34144 -0.827227 0
M  V30 4035 C 366.039 -1.25364 -1.95925 0
M  V30 4036 C 367.033 -0.152608 -1.68711 0
M  V30 4037 O 368.239 -0.317311 -1.77181 0
M  V30 4038 H 364.614 -0.389342 -0.643364 0
M  V30 4039 H 366.585 -2.21045 -2.00454 0
M  V30 4040 C 365.334 -1.02158 -3.32354 0
M  V30 4041 H 364.657 -1.86111 -3.5384 0
M  V30 4042 H 366.097 -1.00048 -4.12027 0
M  V30 4043 C 364.556 0.275244 -3.35774 0
M  V30 4044 O 365.086 1.27806 -3.80826 0
M  V30 4045 N 363.292 0.306853 -2.88975 0
M  V30 4046 H 362.839 -0.509777 -2.52506 0
M  V30 4047 H 362.797 1.17432 -2.91646 0
M  V30 4048 N 366.569 1.04691 -1.17803 0
M  V30 4049 C 367.98 1.59238 -0.974689 0
M  V30 4050 C 368.331 1.90306 0.477292 0
M  V30 4051 O 367.456 1.68846 1.35352 0
M  V30 4052 C 368.051 2.89318 -1.76296 0
M  V30 4053 C 366.61 3.40506 -1.60414 0
M  V30 4054 C 365.757 2.14172 -1.76141 0
M  V30 4055 H 368.708 0.874395 -1.32439 0
M  V30 4056 H 368.729 3.5944 -1.24833 0
M  V30 4057 H 368.241 2.66675 -2.81968 0
M  V30 4058 H 366.342 3.68175 -0.572519 0
M  V30 4059 H 366.455 4.14753 -2.39827 0
M  V30 4060 H 364.819 2.25176 -1.19028 0
M  V30 4061 H 365.602 1.93992 -2.83235 0
M  V30 4062 N 368.047 0.979072 1.23499 0
M  V30 4063 C 369.277 0.664237 1.95631 0
M  V30 4064 C 369.685 -0.772653 1.72704 0
M  V30 4065 O 369.028 -1.53141 1.01457 0
M  V30 4066 C 369.09 0.873115 3.48736 0
M  V30 4067 C 368.754 2.29182 3.95379 0
M  V30 4068 C 369.751 3.2704 4.04155 0
M  V30 4069 C 367.436 2.62256 4.28401 0
M  V30 4070 C 369.43 4.56052 4.45304 0
M  V30 4071 C 367.117 3.91491 4.69231 0
M  V30 4072 C 368.115 4.88201 4.77649 0
M  V30 4073 O 367.803 6.15129 5.17563 0
M  V30 4074 H 367.535 0.245915 0.629684 0
M  V30 4075 H 370.089 1.3127 1.57979 0
M  V30 4076 H 368.319 0.167476 3.86337 0
M  V30 4077 H 370.008 0.555642 4.02079 0
M  V30 4078 H 370.774 3.02819 3.78848 0
M  V30 4079 H 366.653 1.87692 4.21061 0
M  V30 4080 H 370.197 5.31538 4.51789 0
M  V30 4081 H 366.094 4.15508 4.93987 0
M  V30 4082 H 366.862 6.18862 5.35679 0
M  V30 4083 N 369.525 -1.3858 0.750561 0
M  V30 4084 C 370.765 -2.02032 0.310258 0
M  V30 4085 C 371.129 -1.58288 -1.08668 0
M  V30 4086 O 372.33 -2.14049 -1.62593 0
M  V30 4087 C 370.601 -3.54856 0.425647 0
M  V30 4088 S 372.16 -4.38748 0.0674797 0
M  V30 4089 H 368.978 -0.700705 0.120554 0
M  V30 4090 H 371.58 -1.69134 0.980512 0
M  V30 4091 H 370.284 -3.84182 1.44335 0
M  V30 4092 H 369.815 -3.92527 -0.261894 0
M  V30 4093 H 371.83 -4.82835 -1.14388 0
M  V30 4094 N 371.003 -0.499398 -1.49478 0
M  V30 4095 C 371.966 0.268838 -2.27618 0
M  V30 4096 C 372.966 0.895383 -1.33565 0
M  V30 4097 O 374.156 0.760164 -1.56739 0
M  V30 4098 C 371.288 1.38559 -3.11471 0
M  V30 4099 H 372.481 -0.416812 -2.96989 0
M  V30 4100 H 370.034 -0.254313 -1.54217 0
M  V30 4101 H 370.769 2.10544 -2.46661 0
M  V30 4102 H 370.554 0.941797 -3.80621 0
M  V30 4103 H 372.044 1.92678 -3.70493 0
M  V30 4104 N 372.481 1.55866 -0.233164 0
M  V30 4105 C 373.721 2.00506 0.397078 0
M  V30 4106 C 374.085 1.1176 1.56121 0
M  V30 4107 O 375.286 1.45796 2.25825 0
M  V30 4108 C 373.557 3.4811 0.809601 0
M  V30 4109 S 375.116 4.14765 1.43231 0
M  V30 4110 H 371.934 0.699828 0.125547 0
M  V30 4111 H 374.536 1.92429 -0.345177 0
M  V30 4112 H 373.24 4.10373 -0.0471601 0
M  V30 4113 H 372.771 3.60085 1.58438 0
M  V30 4114 H 374.786 4.14914 2.7214 0
M  V30 4115 N 373.959 -0.0401083 1.57549 0
M  V30 4116 C 375.189 -0.744115 1.92734 0
M  V30 4117 C 375.597 -1.70005 0.830348 0
M  V30 4118 O 374.94 -1.82576 -0.20286 0
M  V30 4119 C 375.002 -1.56516 3.2364 0
M  V30 4120 C 374.666 -0.7752 4.50377 0
M  V30 4121 C 375.663 -0.0803326 5.19838 0
M  V30 4122 C 373.348 -0.733002 4.96923 0
M  V30 4123 C 375.342 0.646154 6.34116 0
M  V30 4124 C 373.029 -0.00276321 6.111 0
M  V30 4125 C 374.027 0.685585 6.7955 0
M  V30 4126 O 373.715 1.40399 7.91545 0
M  V30 4127 H 373.447 -0.214861 0.640945 0
M  V30 4128 H 376.001 -0.00503675 2.05399 0
M  V30 4129 H 374.231 -2.3478 3.07271 0
M  V30 4130 H 375.92 -2.15076 3.44234 0
M  V30 4131 H 376.686 -0.104035 4.84888 0
M  V30 4132 H 372.565 -1.25827 4.43496 0
M  V30 4133 H 376.109 1.18398 6.87479 0
M  V30 4134 H 372.006 0.0229012 6.45496 0
M  V30 4135 H 372.774 1.31653 8.07843 0
M  V30 4136 N 375.437 -1.54477 -0.31217 0
M  V30 4137 C 376.37 -1.79519 -1.40884 0
M  V30 4138 C 377.348 -0.645753 -1.49227 0
M  V30 4139 O 378.532 -0.884468 -1.66461 0
M  V30 4140 C 375.659 -1.92194 -2.78889 0
M  V30 4141 C 374.705 -3.14555 -2.88023 0
M  V30 4142 S 375.538 -4.72893 -2.51262 0
M  V30 4143 C 376.694 -4.8849 -3.91317 0
M  V30 4144 H 376.927 -2.72256 -1.19432 0
M  V30 4145 H 374.46 -1.45746 -0.509654 0
M  V30 4146 H 376.418 -2.00182 -3.58382 0
M  V30 4147 H 375.079 -1.00414 -2.97617 0
M  V30 4148 H 374.272 -3.20193 -3.89221 0
M  V30 4149 H 373.874 -3.04955 -2.16514 0
M  V30 4150 H 376.166 -4.71826 -4.86196 0
M  V30 4151 H 377.109 -5.90588 -3.90656 0
M  V30 4152 H 377.517 -4.16715 -3.80801 0
M  V30 4153 N 376.915 0.57481 -1.46744 0
M  V30 4154 C 378.14 1.36341 -1.56288 0
M  V30 4155 C 378.565 1.86954 -0.207347 0
M  V30 4156 O 377.923 1.62006 0.813871 0
M  V30 4157 C 377.971 2.52147 -2.57787 0
M  V30 4158 O 377.075 3.53834 -2.11838 0
M  V30 4159 H 376.416 0.405713 -0.525636 0
M  V30 4160 H 378.946 0.696453 -1.92382 0
M  V30 4161 H 378.956 2.98958 -2.77648 0
M  V30 4162 H 377.631 2.14663 -3.5622 0
M  V30 4163 H 376.208 3.1345 -2.01999 0
M  V30 4164 N 378.394 1.34581 0.820102 0
M  V30 4165 C 379.324 1.29038 1.94606 0
M  V30 4166 C 380.305 0.1673 1.69275 0
M  V30 4167 O 381.49 0.360112 1.90832 0
M  V30 4168 C 378.62 1.04793 3.31113 0
M  V30 4169 C 377.574 2.13597 3.70891 0
M  V30 4170 C 376.9 1.74537 5.05412 0
M  V30 4171 C 378.2 3.55451 3.8269 0
M  V30 4172 H 379.894 2.23248 1.99501 0
M  V30 4173 H 377.44 1.0747 0.958449 0
M  V30 4174 H 379.393 0.995592 4.0947 0
M  V30 4175 H 378.117 0.0702565 3.26524 0
M  V30 4176 H 376.776 2.17905 2.9481 0
M  V30 4177 H 376.424 0.754226 4.97313 0
M  V30 4178 H 376.124 2.47361 5.32997 0
M  V30 4179 H 377.648 1.70803 5.86224 0
M  V30 4180 H 379.062 3.5354 4.51312 0
M  V30 4181 H 377.459 4.26922 4.21732 0
M  V30 4182 H 378.529 3.92587 2.84611 0
M  V30 4183 N 379.872 -1.04064 1.18357 0
M  V30 4184 C 381.119 -1.77265 0.978947 0
M  V30 4185 C 381.447 -1.88189 -0.491428 0
M  V30 4186 O 380.702 -1.38653 -1.38108 0
M  V30 4187 C 381.001 -3.20634 1.57888 0
M  V30 4188 C 380.667 -3.29743 3.07539 0
M  V30 4189 C 379.329 -3.31937 3.48384 0
M  V30 4190 C 381.681 -3.29841 4.03552 0
M  V30 4191 C 379.009 -3.3187 4.83818 0
M  V30 4192 C 381.361 -3.31313 5.38901 0
M  V30 4193 C 380.025 -3.31799 5.79194 0
M  V30 4194 H 379.295 -0.648659 0.358222 0
M  V30 4195 H 381.942 -1.22225 1.47422 0
M  V30 4196 H 380.247 -3.78675 1.00561 0
M  V30 4197 H 381.944 -3.75917 1.39598 0
M  V30 4198 H 378.534 -3.28757 2.74986 0
M  V30 4199 H 382.718 -3.27337 3.73047 0
M  V30 4200 H 377.974 -3.30562 5.14333 0
M  V30 4201 H 382.148 -3.30338 6.13066 0
M  V30 4202 H 379.775 -3.315 6.84114 0
M  V30 4203 N 381.35 -0.985608 -1.22978 0
M  V30 4204 C 382.282 -0.488154 -2.23941 0
M  V30 4205 C 383.295 0.41282 -1.57479 0
M  V30 4206 O 384.484 0.216121 -1.77187 0
M  V30 4207 C 381.584 0.312611 -3.37455 0
M  V30 4208 C 380.757 -0.582741 -4.33501 0
M  V30 4209 C 379.816 0.165064 -5.25941 0
M  V30 4210 O 378.842 -0.447077 -5.67442 0
M  V30 4211 N 380.044 1.44953 -5.62111 0
M  V30 4212 H 382.809 -1.3563 -2.67254 0
M  V30 4213 H 380.37 -0.859477 -1.37203 0
M  V30 4214 H 382.362 0.821357 -3.96277 0
M  V30 4215 H 380.932 1.0818 -2.93285 0
M  V30 4216 H 380.152 -1.27225 -3.73105 0
M  V30 4217 H 381.44 -1.19275 -4.94622 0
M  V30 4218 H 380.838 1.9683 -5.30353 0
M  V30 4219 H 379.395 1.90361 -6.23383 0
M  V30 4220 N 382.828 1.3818 -0.7579 0
M  V30 4221 C 384.074 2.00316 -0.316453 0
M  V30 4222 C 384.407 1.60026 1.10025 0
M  V30 4223 O 383.682 0.839835 1.75434 0
M  V30 4224 C 383.965 3.57349 -0.444245 0
M  V30 4225 C 383.818 4.07591 -1.90236 0
M  V30 4226 C 385.137 4.3981 0.1598 0
M  V30 4227 H 382.256 0.727741 -0.116459 0
M  V30 4228 H 384.898 1.6406 -0.958352 0
M  V30 4229 H 383.048 3.88365 0.102233 0
M  V30 4230 H 384.72 3.87199 -2.50748 0
M  V30 4231 H 382.963 3.60297 -2.41595 0
M  V30 4232 H 383.634 5.16677 -1.94291 0
M  V30 4233 H 386.11 4.14971 -0.306314 0
M  V30 4234 H 384.986 5.48885 0.0401675 0
M  V30 4235 H 385.247 4.24102 1.24859 0
M  V30 4236 N 384.306 0.507319 1.49211 0
M  V30 4237 C 385.254 -0.281364 2.30892 0
M  V30 4238 C 386.248 -0.95687 1.39787 0
M  V30 4239 O 387.454 -0.883838 1.56807 0
M  V30 4240 H 383.829 -0.109597 0.743971 0
M  V30 4241 H 385.8 0.42744 2.95323 0
M  V30 4242 C 384.549 -1.32918 3.21291 0
M  V30 4243 H 383.872 -0.818799 3.91326 0
M  V30 4244 H 385.312 -1.85288 3.81372 0
M  V30 4245 C 383.771 -2.35074 2.41333 0
M  V30 4246 O 384.301 -3.4108 2.12197 0
M  V30 4247 N 382.507 -2.07705 2.03241 0
M  V30 4248 H 382.054 -1.2152 2.27136 0
M  V30 4249 H 382.012 -2.76283 1.50051 0
M  V30 4250 N 385.784 -1.5574 0.241426 0
M  V30 4251 C 387.032 -1.98417 -0.384075 0
M  V30 4252 C 387.353 -1.13078 -1.58866 0
M  V30 4253 O 386.623 -0.212312 -1.94746 0
M  V30 4254 H 385.203 -0.732813 -0.144894 0
M  V30 4255 H 387.865 -1.9193 0.338943 0
M  V30 4256 H 386.961 -3.04219 -0.696939 0
M  V30 4257 N 387.262 0.0317525 -1.57568 0
M  V30 4258 C 388.195 1.06621 -2.0176 0
M  V30 4259 C 389.173 1.35323 -0.901462 0
M  V30 4260 O 390.357 1.48025 -1.16708 0
M  V30 4261 C 387.484 2.40155 -2.38837 0
M  V30 4262 C 386.53 2.27327 -3.60867 0
M  V30 4263 S 387.363 1.62925 -5.10113 0
M  V30 4264 C 388.519 2.97955 -5.5043 0
M  V30 4265 H 388.752 0.689781 -2.89187 0
M  V30 4266 H 386.285 0.24164 -1.52497 0
M  V30 4267 H 388.243 3.1695 -2.6087 0
M  V30 4268 H 386.904 2.74946 -1.51867 0
M  V30 4269 H 386.097 3.25898 -3.84456 0
M  V30 4270 H 385.699 1.58675 -3.38671 0
M  V30 4271 H 387.991 3.94285 -5.5095 0
M  V30 4272 H 388.934 2.79102 -6.50775 0
M  V30 4273 H 389.342 3.00404 -4.77931 0
M  V30 4274 N 388.74 1.54641 0.303973 0
M  V30 4275 C 389.67 1.88386 1.3796 0
M  V30 4276 C 390.651 0.742485 1.5304 0
M  V30 4277 O 391.836 0.997959 1.66597 0
M  V30 4278 C 388.966 2.12854 2.74427 0
M  V30 4279 C 387.92 3.28702 2.74115 0
M  V30 4280 C 387.246 3.38582 4.13844 0
M  V30 4281 C 388.546 4.65881 2.3612 0
M  V30 4282 H 390.24 2.78474 1.09966 0
M  V30 4283 H 387.786 1.33988 0.527556 0
M  V30 4284 H 389.739 2.35047 3.49758 0
M  V30 4285 H 388.463 1.19535 3.03939 0
M  V30 4286 H 387.122 3.06428 2.0124 0
M  V30 4287 H 386.77 2.42784 4.40528 0
M  V30 4288 H 386.47 4.16453 4.14537 0
M  V30 4289 H 387.994 3.63031 4.90959 0
M  V30 4290 H 389.408 4.87823 3.01167 0
M  V30 4291 H 387.805 5.46444 2.48031 0
M  V30 4292 H 388.875 4.66799 1.3125 0
M  V30 4293 N 390.218 -0.567019 1.47046 0
M  V30 4294 C 391.467 -1.32091 1.5243 0
M  V30 4295 C 391.78 -1.94704 0.187021 0
M  V30 4296 O 392.986 -2.7124 0.118771 0
M  V30 4297 C 391.442 -2.39479 2.68659 0
M  V30 4298 C 391.05 -1.831 4.08874 0
M  V30 4299 C 392.794 -3.16111 2.83327 0
M  V30 4300 C 390.701 -2.8821 5.16419 0
M  V30 4301 H 389.631 -0.496629 0.56734 0
M  V30 4302 H 392.282 -0.603354 1.73297 0
M  V30 4303 H 390.664 -3.14105 2.41152 0
M  V30 4304 H 391.838 -1.14913 4.46242 0
M  V30 4305 H 390.153 -1.19085 3.99008 0
M  V30 4306 H 392.75 -3.94585 3.60842 0
M  V30 4307 H 393.093 -3.69686 1.91411 0
M  V30 4308 H 393.626 -2.48595 3.10556 0
M  V30 4309 H 390.365 -2.39504 6.10179 0
M  V30 4310 H 389.885 -3.54839 4.8358 0
M  V30 4311 H 391.564 -3.51881 5.42945 0
M  V30 4312 N 391.696 -1.35014 -0.812953 0
M  V30 4313 C 392.629 -1.21761 -1.93001 0
M  V30 4314 C 393.607 -0.10694 -1.62248 0
M  V30 4315 O 394.791 -0.273891 -1.865 0
M  V30 4316 C 391.918 -0.873404 -3.27245 0
M  V30 4317 C 390.964 -1.99523 -3.76952 0
M  V30 4318 S 391.797 -3.61009 -3.95516 0
M  V30 4319 C 392.953 -3.28651 -5.32672 0
M  V30 4320 H 393.186 -2.16315 -2.03948 0
M  V30 4321 H 390.719 -1.20156 -0.969631 0
M  V30 4322 H 392.677 -0.68161 -4.04802 0
M  V30 4323 H 391.338 0.053971 -3.14054 0
M  V30 4324 H 390.531 -1.70838 -4.74163 0
M  V30 4325 H 390.133 -2.14503 -3.06373 0
M  V30 4326 H 392.425 -2.81085 -6.1644 0
M  V30 4327 H 393.368 -4.25039 -5.66346 0
M  V30 4328 H 393.776 -2.6458 -4.98656 0
M  V30 4329 N 393.175 1.03435 -1.18907 0
M  V30 4330 C 394.415 1.78302 -0.999391 0
M  V30 4331 C 394.779 1.86353 0.462219 0
M  V30 4332 O 395.98 2.57489 0.771543 0
M  V30 4333 C 394.251 3.17362 -1.64365 0
M  V30 4334 S 395.81 4.08488 -1.6026 0
M  V30 4335 H 392.628 0.613861 -0.358742 0
M  V30 4336 H 395.23 1.23979 -1.51161 0
M  V30 4337 H 393.934 3.09116 -2.69955 0
M  V30 4338 H 393.465 3.76762 -1.13199 0
M  V30 4339 H 395.48 4.92274 -0.622932 0
M  V30 4340 N 394.653 0.992116 1.22453 0
M  V30 4341 C 395.601 0.534644 2.26372 0
M  V30 4342 C 396.595 -0.414293 1.64256 0
M  V30 4343 O 397.801 -0.286899 1.77699 0
M  V30 4344 H 394.176 0.154502 0.735957 0
M  V30 4345 H 396.147 1.42256 2.62309 0
M  V30 4346 C 394.896 -0.135815 3.47435 0
M  V30 4347 H 394.219 0.585311 3.95492 0
M  V30 4348 H 395.659 -0.419374 4.21921 0
M  V30 4349 C 394.118 -1.37089 3.07747 0
M  V30 4350 O 394.648 -2.46629 3.17076 0
M  V30 4351 N 392.854 -1.24585 2.62539 0
M  V30 4352 H 392.401 -0.354542 2.55149 0
M  V30 4353 H 392.359 -2.07327 2.36353 0
M  V30 4354 N 396.131 -1.37776 0.765217 0
M  V30 4355 C 397.094 -2.28686 0.153416 0
M  V30 4356 C 398.094 -1.47727 -0.635081 0
M  V30 4357 O 399.284 -1.68027 -0.459632 0
M  V30 4358 C 396.416 -3.31608 -0.790495 0
M  V30 4359 H 397.609 -2.84297 0.954723 0
M  V30 4360 H 395.162 -1.46932 0.53299 0
M  V30 4361 H 395.897 -2.81109 -1.61705 0
M  V30 4362 H 395.682 -3.9144 -0.227348 0
M  V30 4363 H 397.172 -3.99559 -1.21419 0
M  V30 4364 N 397.609 -0.515225 -1.4894 0
M  V30 4365 C 398.855 0.0242508 -2.02785 0
M  V30 4366 C 399.188 1.35323 -1.39289 0
M  V30 4367 O 398.463 1.87041 -0.533469 0
M  V30 4368 C 398.746 0.16184 -3.59736 0
M  V30 4369 C 398.599 -1.19127 -4.33738 0
M  V30 4370 C 399.918 0.895719 -4.30888 0
M  V30 4371 H 397.037 0.00733914 -0.736963 0
M  V30 4372 H 399.679 -0.669395 -1.77818 0
M  V30 4373 H 397.829 0.752624 -3.8114 0
M  V30 4374 H 399.501 -1.82202 -4.23792 0
M  V30 4375 H 397.744 -1.77695 -3.95736 0
M  V30 4376 H 398.415 -1.04815 -5.41957 0
M  V30 4377 H 400.891 0.394528 -4.14225 0
M  V30 4378 H 399.767 0.960859 -5.40425 0
M  V30 4379 H 400.028 1.9427 -3.97129 0
M  V30 4380 N 399.087 1.5561 -0.249682 0
M  V30 4381 C 400.336 1.98187 0.37479 0
M  V30 4382 C 400.649 1.14111 1.58865 0
M  V30 4383 O 401.855 1.46714 2.28445 0
M  V30 4384 C 400.311 3.52661 0.718192 0
M  V30 4385 C 399.919 4.45481 -0.474428 0
M  V30 4386 C 401.663 4.03888 1.3067 0
M  V30 4387 C 399.57 5.91303 -0.107026 0
M  V30 4388 H 398.5 0.740159 0.143808 0
M  V30 4389 H 401.151 1.80125 -0.350336 0
M  V30 4390 H 399.533 3.66429 1.50152 0
M  V30 4391 H 400.707 4.43473 -1.25172 0
M  V30 4392 H 399.022 4.04751 -0.978052 0
M  V30 4393 H 401.619 5.10358 1.59496 0
M  V30 4394 H 401.962 3.51401 2.23211 0
M  V30 4395 H 402.495 3.93457 0.586211 0
M  V30 4396 H 399.234 6.47833 -0.999642 0
M  V30 4397 H 398.754 5.9644 0.634013 0
M  V30 4398 H 400.433 6.46258 0.309807 0
M  V30 4399 N 400.565 -0.0233959 1.57583 0
M  V30 4400 C 401.842 -0.748794 1.807 0
M  V30 4401 C 402.222 -1.9327 0.849106 0
M  V30 4402 O 401.57 -2.28247 -0.107468 0
M  V30 4403 C 401.78 -1.17651 3.28571 0
M  V30 4404 C 403.128 -1.59008 3.93702 0
M  V30 4405 O 404.152 -1.27094 3.32755 0
M  V30 4406 O 403.011 -2.18264 5.01022 0
M  V30 4407 H 400.105 -0.362578 0.743281 0
M  V30 4408 H 402.651 0.000261958 1.697 0
M  V30 4409 H 401.423 -0.331603 3.89892 0
M  V30 4410 H 401.046 -1.98541 3.44481 0
M  V30 4411 N 402.043 -1.548 -0.295768 0
M  V30 4412 C 403.454 -1.65274 -0.868411 0
M  V30 4413 C 403.805 -0.56481 -1.87894 0
M  V30 4414 O 402.93 0.29767 -2.14343 0
M  V30 4415 C 403.525 -2.99603 -1.58188 0
M  V30 4416 C 402.084 -3.12181 -2.10286 0
M  V30 4417 C 401.231 -2.6098 -0.93727 0
M  V30 4418 H 404.182 -1.58534 -0.0726422 0
M  V30 4419 H 404.203 -2.91319 -2.44772 0
M  V30 4420 H 403.715 -3.78764 -0.846151 0
M  V30 4421 H 401.816 -2.3775 -2.8689 0
M  V30 4422 H 401.929 -4.18415 -2.33379 0
M  V30 4423 H 400.293 -2.17564 -1.32431 0
M  V30 4424 H 401.076 -3.42623 -0.215414 0
M  V30 4425 N 403.521 0.559213 -1.47345 0
M  V30 4426 C 404.768 1.31648 -1.53867 0
M  V30 4427 C 405.096 1.93468 -0.200104 0
M  V30 4428 O 404.351 1.78295 0.806799 0
M  V30 4429 C 404.65 2.44853 -2.6035 0
M  V30 4430 C 404.316 2.00876 -4.03683 0
M  V30 4431 C 402.978 1.88599 -4.42701 0
M  V30 4432 C 405.33 1.67279 -4.93626 0
M  V30 4433 C 402.658 1.41017 -5.69501 0
M  V30 4434 C 405.01 1.21169 -6.20887 0
M  V30 4435 C 403.674 1.07487 -6.58789 0
M  V30 4436 H 402.944 0.481734 -0.56304 0
M  V30 4437 H 405.591 0.627301 -1.80934 0
M  V30 4438 H 403.896 3.19318 -2.27032 0
M  V30 4439 H 405.593 3.03039 -2.62619 0
M  V30 4440 H 402.183 2.11374 -3.72853 0
M  V30 4441 H 406.367 1.75638 -4.64182 0
M  V30 4442 H 401.623 1.29086 -5.97618 0
M  V30 4443 H 405.797 0.942345 -6.89995 0
M  V30 4444 H 403.424 0.703946 -7.56934 0
M  V30 4445 N 404.999 1.35443 0.805782 0
M  V30 4446 C 406.248 1.28097 1.55801 0
M  V30 4447 C 406.561 -0.142428 1.95081 0
M  V30 4448 O 407.767 -0.33817 2.69386 0
M  V30 4449 C 406.223 2.24653 2.81174 0
M  V30 4450 C 405.831 3.72342 2.49129 0
M  V30 4451 C 407.575 2.2625 3.59181 0
M  V30 4452 C 405.482 4.60719 3.70799 0
M  V30 4453 H 404.412 0.475937 0.584808 0
M  V30 4454 H 407.063 1.60712 0.885661 0
M  V30 4455 H 405.445 1.85011 3.50124 0
M  V30 4456 H 406.619 4.20624 1.88181 0
M  V30 4457 H 404.934 3.73361 1.84366 0
M  V30 4458 H 407.531 2.89495 4.49552 0
M  V30 4459 H 407.874 1.26647 3.96568 0
M  V30 4460 H 408.407 2.64426 2.97193 0
M  V30 4461 H 405.146 5.61324 3.3852 0
M  V30 4462 H 404.666 4.17163 4.3097 0
M  V30 4463 H 406.345 4.76182 4.38018 0
M  V30 4464 N 406.477 -1.02803 1.19454 0
M  V30 4465 C 407.707 -1.79581 1.02149 0
M  V30 4466 C 408.115 -1.84182 -0.432851 0
M  V30 4467 O 407.458 -1.28534 -1.31243 0
M  V30 4468 C 407.52 -3.25993 1.51554 0
M  V30 4469 C 407.184 -3.45025 2.99678 0
M  V30 4470 C 408.181 -3.35175 3.97434 0
M  V30 4471 C 405.866 -3.71212 3.38389 0
M  V30 4472 C 407.86 -3.51238 5.31893 0
M  V30 4473 C 405.547 -3.8692 4.73008 0
M  V30 4474 C 406.545 -3.76936 5.69569 0
M  V30 4475 O 406.233 -3.92179 7.01748 0
M  V30 4476 H 405.965 -0.571962 0.360327 0
M  V30 4477 H 408.519 -1.30367 1.58725 0
M  V30 4478 H 406.749 -3.76235 0.893543 0
M  V30 4479 H 408.438 -3.84368 1.30444 0
M  V30 4480 H 409.204 -3.14895 3.68872 0
M  V30 4481 H 405.083 -3.78075 2.6378 0
M  V30 4482 H 408.627 -3.43362 6.07247 0
M  V30 4483 H 404.524 -4.06699 5.01265 0
M  V30 4484 H 405.292 -4.09265 7.08833 0
M  V30 4485 N 407.956 -0.998596 -1.21925 0
M  V30 4486 C 408.919 -0.558679 -2.22287 0
M  V30 4487 C 409.919 0.361525 -1.56683 0
M  V30 4488 O 411.109 0.152695 -1.73529 0
M  V30 4489 C 408.241 0.18661 -3.40389 0
M  V30 4490 H 409.434 -1.4463 -2.62721 0
M  V30 4491 H 406.987 -0.786413 -1.35075 0
M  V30 4492 H 407.722 1.08996 -3.05435 0
M  V30 4493 H 407.507 -0.474188 -3.89222 0
M  V30 4494 H 408.997 0.482367 -4.14805 0
M  V30 4495 N 409.434 1.37368 -0.772513 0
M  V30 4496 C 410.681 1.99673 -0.337182 0
M  V30 4497 C 411.009 1.61324 1.0865 0
M  V30 4498 O 410.264 0.851377 1.7621 0
M  V30 4499 C 410.563 3.54817 -0.428876 0
M  V30 4500 C 410.229 4.12936 -1.81092 0
M  V30 4501 C 408.891 4.28523 -2.1891 0
M  V30 4502 C 411.243 4.44801 -2.71664 0
M  V30 4503 C 408.571 4.73277 -3.46735 0
M  V30 4504 C 410.923 4.90981 -3.98899 0
M  V30 4505 C 409.587 5.04773 -4.36761 0
M  V30 4506 H 408.857 0.730656 -0.123384 0
M  V30 4507 H 411.504 1.64124 -0.986686 0
M  V30 4508 H 409.809 3.90618 0.304167 0
M  V30 4509 H 411.506 4.00933 -0.0733334 0
M  V30 4510 H 408.096 4.01233 -1.50699 0
M  V30 4511 H 412.28 4.32344 -2.43706 0
M  V30 4512 H 407.536 4.82142 -3.75964 0
M  V30 4513 H 411.71 5.14603 -4.69208 0
M  V30 4514 H 409.337 5.39211 -5.35868 0
M  V30 4515 N 410.912 0.523116 1.48665 0
M  V30 4516 C 412.328 0.180511 1.58576 0
M  V30 4517 C 412.528 -1.31597 1.52592 0
M  V30 4518 O 411.584 -2.0937 1.4114 0
M  V30 4519 C 412.897 0.776949 2.90489 0
M  V30 4520 C 414.445 0.745058 3.04003 0
M  V30 4521 C 414.92 1.31995 4.38567 0
M  V30 4522 N 416.411 1.28162 4.45117 0
M  V30 4523 C 417.146 1.6964 5.47731 0
M  V30 4524 N 416.642 2.18816 6.57337 0
M  V30 4525 N 418.435 1.6092 5.38573 0
M  V30 4526 H 410.586 1.4958 1.50797 0
M  V30 4527 H 412.849 0.621772 0.715614 0
M  V30 4528 H 412.555 1.82732 3.00503 0
M  V30 4529 H 412.429 0.25007 3.7637 0
M  V30 4530 H 414.816 -0.296532 2.93606 0
M  V30 4531 H 414.897 1.30933 2.1975 0
M  V30 4532 H 414.541 2.36043 4.49718 0
M  V30 4533 H 414.471 0.731418 5.21496 0
M  V30 4534 H 416.962 0.92155 3.66491 0
M  V30 4535 H 417.275 2.48478 7.31764 0
M  V30 4536 H 415.62 2.22805 6.58318 0
M  V30 4537 H 418.811 1.22304 4.5184 0
M  V30 4538 H 418.984 1.93567 6.18414 0
M  V30 4539 N 412.39 -1.55475 0.257931 0
M  V30 4540 C 413.615 -2.04064 -0.370488 0
M  V30 4541 C 414.04 -1.13565 -1.49948 0
M  V30 4542 O 413.398 -0.130781 -1.80828 0
M  V30 4543 C 413.446 -3.50554 -0.845237 0
M  V30 4544 O 412.55 -3.63173 -1.95394 0
M  V30 4545 H 411.891 -0.659257 -0.0792243 0
M  V30 4546 H 414.421 -2.00903 0.387212 0
M  V30 4547 H 414.431 -3.91588 -1.14555 0
M  V30 4548 H 413.106 -4.15896 -0.0191259 0
M  V30 4549 H 411.683 -3.34039 -1.65748 0
M  V30 4550 N 413.868 0.0150385 -1.57593 0
M  V30 4551 C 415.279 0.559832 -1.78109 0
M  V30 4552 C 415.63 1.74814 -0.890756 0
M  V30 4553 O 414.755 2.16216 -0.0892482 0
M  V30 4554 C 415.35 1.02238 -3.23006 0
M  V30 4555 C 413.909 1.51258 -3.44671 0
M  V30 4556 C 413.056 0.456955 -2.73509 0
M  V30 4557 H 416.007 -0.211169 -1.57289 0
M  V30 4558 H 416.028 1.88912 -3.30292 0
M  V30 4559 H 415.54 0.157302 -3.87781 0
M  V30 4560 H 413.641 2.39905 -2.8509 0
M  V30 4561 H 413.754 1.55042 -4.5332 0
M  V30 4562 H 412.118 0.915196 -2.37689 0
M  V30 4563 H 412.901 -0.398896 -3.40975 0
M  V30 4564 N 415.346 1.54954 0.287554 0
M  V30 4565 C 416.256 1.8991 1.37736 0
M  V30 4566 C 417.272 0.794701 1.54792 0
M  V30 4567 O 418.448 1.09243 1.69198 0
M  V30 4568 C 415.513 2.15108 2.71899 0
M  V30 4569 C 414.574 3.38752 2.63715 0
M  V30 4570 C 413.807 3.62739 3.91479 0
M  V30 4571 O 414.03 2.89492 4.91478 0
M  V30 4572 O 412.964 4.56267 3.92561 0
M  V30 4573 H 416.79 2.82652 1.11092 0
M  V30 4574 H 414.375 1.41315 0.484807 0
M  V30 4575 H 416.257 2.32806 3.51254 0
M  V30 4576 H 414.932 1.25551 2.9836 0
M  V30 4577 H 413.839 3.26405 1.82786 0
M  V30 4578 H 415.172 4.28483 2.42205 0
M  V30 4579 N 416.824 -0.551391 1.4764 0
M  V30 4580 C 417.754 -1.66757 1.63445 0
M  V30 4581 C 418.735 -1.63077 0.483742 0
M  V30 4582 O 419.92 -1.80607 0.71377 0
M  V30 4583 C 417.05 -3.05387 1.65396 0
M  V30 4584 C 416.004 -3.23918 2.79752 0
M  V30 4585 C 415.33 -4.63393 2.66779 0
M  V30 4586 C 416.63 -3.08735 4.21284 0
M  V30 4587 H 418.324 -1.53786 2.56886 0
M  V30 4588 H 415.87 -0.738415 1.23626 0
M  V30 4589 H 417.823 -3.83325 1.75043 0
M  V30 4590 H 416.547 -3.19332 0.685195 0
M  V30 4591 H 415.206 -2.48391 2.69625 0
M  V30 4592 H 414.854 -4.74144 1.67918 0
M  V30 4593 H 414.554 -4.7674 3.43501 0
M  V30 4594 H 416.078 -5.43458 2.78364 0
M  V30 4595 H 417.492 -3.76484 4.32357 0
M  V30 4596 H 415.889 -3.33588 4.98838 0
M  V30 4597 H 416.959 -2.0541 4.39243 0
M  V30 4598 N 418.302 -1.35869 -0.798587 0
M  V30 4599 C 419.718 -1.16082 -1.09532 0
M  V30 4600 C 419.918 0.0213124 -2.01489 0
M  V30 4601 O 418.974 0.689488 -2.42904 0
M  V30 4602 C 420.287 -2.46748 -1.7186 0
M  V30 4603 C 421.835 -2.53028 -1.84244 0
M  V30 4604 C 422.31 -3.83758 -2.49988 0
M  V30 4605 N 423.801 -3.85053 -2.57465 0
M  V30 4606 C 424.536 -4.8294 -3.09122 0
M  V30 4607 N 424.032 -5.91217 -3.61157 0
M  V30 4608 N 425.825 -4.70369 -3.0775 0
M  V30 4609 H 417.976 -2.11571 -0.187461 0
M  V30 4610 H 420.239 -0.936726 -0.145765 0
M  V30 4611 H 419.945 -3.33471 -1.11759 0
M  V30 4612 H 419.819 -2.61883 -2.71472 0
M  V30 4613 H 422.206 -1.66729 -2.43486 0
M  V30 4614 H 422.287 -2.418 -0.834643 0
M  V30 4615 H 421.931 -4.70459 -1.91393 0
M  V30 4616 H 421.861 -3.92278 -3.5132 0
M  V30 4617 H 424.352 -3.06822 -2.20609 0
M  V30 4618 H 424.665 -6.61892 -3.98896 0
M  V30 4619 H 423.01 -5.94899 -3.59333 0
M  V30 4620 H 426.201 -3.84914 -2.66381 0
M  V30 4621 H 426.374 -5.46816 -3.47701 0
M  V30 4622 N 419.78 1.02168 -1.19998 0
M  V30 4623 C 421.057 1.72816 -0.916191 0
M  V30 4624 C 421.437 2.03081 0.576325 0
M  V30 4625 O 420.785 1.69122 1.53656 0
M  V30 4626 C 420.995 2.9997 -1.78378 0
M  V30 4627 C 422.343 3.73336 -2.02251 0
M  V30 4628 O 423.367 3.09914 -1.75589 0
M  V30 4629 O 422.226 4.87371 -2.47249 0
M  V30 4630 H 419.32 0.752924 -0.342103 0
M  V30 4631 H 421.866 1.08062 -1.30846 0
M  V30 4632 H 420.638 2.73888 -2.79466 0
M  V30 4633 H 420.261 3.72464 -1.39126 0
M  V30 4634 N 421.258 1.00505 1.21394 0
M  V30 4635 C 422.221 0.570459 2.21987 0
M  V30 4636 C 423.221 -0.353211 1.56873 0
M  V30 4637 O 424.411 -0.14349 1.73608 0
M  V30 4638 C 421.543 -0.168555 3.40483 0
M  V30 4639 H 422.736 1.46021 2.6195 0
M  V30 4640 H 420.289 0.793565 1.34656 0
M  V30 4641 H 421.024 -1.07374 3.06009 0
M  V30 4642 H 420.809 0.494823 3.88965 0
M  V30 4643 H 422.299 -0.460362 4.15055 0
M  V30 4644 N 422.737 -1.36956 0.779787 0
M  V30 4645 C 423.984 -1.99491 0.347766 0
M  V30 4646 C 424.312 -1.61898 -1.07793 0
M  V30 4647 O 423.567 -0.86071 -1.75756 0
M  V30 4648 C 423.866 -3.54585 0.447686 0
M  V30 4649 C 423.532 -4.1197 1.83279 0
M  V30 4650 C 422.194 -4.27356 2.2118 0
M  V30 4651 C 424.546 -4.43354 2.74019 0
M  V30 4652 C 421.874 -4.71432 3.4924 0
M  V30 4653 C 424.226 -4.88858 4.01497 0
M  V30 4654 C 422.89 -5.0245 4.39432 0
M  V30 4655 H 422.16 -0.729991 0.127257 0
M  V30 4656 H 424.807 -1.63599 0.995376 0
M  V30 4657 H 423.112 -3.90773 -0.283447 0
M  V30 4658 H 424.809 -4.00888 0.0945948 0
M  V30 4659 H 421.399 -4.00428 1.52825 0
M  V30 4660 H 425.583 -4.31045 2.45995 0
M  V30 4661 H 420.839 -4.80141 3.78516 0
M  V30 4662 H 425.013 -5.12108 4.71931 0
M  V30 4663 H 422.64 -5.36362 5.38721 0
M  V30 4664 N 424.215 -0.530993 -1.48385 0
M  V30 4665 C 425.162 0.231223 -2.29639 0
M  V30 4666 C 426.132 0.932864 -1.37429 0
M  V30 4667 O 427.317 0.933692 -1.66394 0
M  V30 4668 C 424.457 1.27155 -3.2082 0
M  V30 4669 C 423.57 0.578655 -4.28107 0
M  V30 4670 C 422.705 1.602 -5.06467 0
M  V30 4671 C 421.744 0.892625 -6.05556 0
M  V30 4672 N 420.881 1.86157 -6.76971 0
M  V30 4673 H 425.721 -0.467848 -2.94305 0
M  V30 4674 H 423.258 -0.242556 -1.45086 0
M  V30 4675 H 425.216 1.88703 -3.72085 0
M  V30 4676 H 423.846 1.939 -2.58075 0
M  V30 4677 H 422.898 -0.150782 -3.80101 0
M  V30 4678 H 424.21 0.0217065 -4.98795 0
M  V30 4679 H 423.364 2.29173 -5.61751 0
M  V30 4680 H 422.103 2.19285 -4.35621 0
M  V30 4681 H 421.108 0.188829 -5.49476 0
M  V30 4682 H 422.333 0.307878 -6.78402 0
M  V30 4683 H 420.279 2.44147 -6.08875 0
M  V30 4684 H 420.196 1.35608 -7.43738 0
M  V30 4685 H 421.464 2.54325 -7.36844 0
M  V30 4686 N 425.693 1.55336 -0.266172 0
M  V30 4687 C 426.64 2.22172 0.625165 0
M  V30 4688 C 427.61 1.19211 1.15663 0
M  V30 4689 O 428.795 1.47723 1.20758 0
M  V30 4690 C 425.935 2.93972 1.8076 0
M  V30 4691 C 425.048 4.11632 1.31084 0
M  V30 4692 C 424.183 4.71099 2.45436 0
M  V30 4693 C 423.222 5.8097 1.92718 0
M  V30 4694 N 422.359 6.34538 3.00509 0
M  V30 4695 H 427.199 2.9796 0.0485582 0
M  V30 4696 H 424.736 1.47095 0.0122024 0
M  V30 4697 H 426.694 3.33811 2.50251 0
M  V30 4698 H 425.324 2.20623 2.35638 0
M  V30 4699 H 424.376 3.76975 0.509326 0
M  V30 4700 H 425.688 4.90893 0.884633 0
M  V30 4701 H 424.842 5.13612 3.22936 0
M  V30 4702 H 423.581 3.91096 2.91368 0
M  V30 4703 H 422.586 5.37916 1.13695 0
M  V30 4704 H 423.811 6.62836 1.47733 0
M  V30 4705 H 421.757 5.57433 3.45839 0
M  V30 4706 H 421.674 7.09046 2.62279 0
M  V30 4707 H 422.942 6.81709 3.78011 0
M  V30 4708 N 427.171 -0.0066808 1.57599 0
M  V30 4709 C 428.104 -1.03397 2.03431 0
M  V30 4710 C 429.082 -1.33872 0.922877 0
M  V30 4711 O 430.266 -1.4615 1.19048 0
M  V30 4712 C 427.393 -2.36325 2.42628 0
M  V30 4713 C 426.439 -2.21557 3.64438 0
M  V30 4714 S 427.272 -1.54789 5.12641 0
M  V30 4715 C 428.428 -2.8916 5.55101 0
M  V30 4716 H 428.661 -0.643687 2.90248 0
M  V30 4717 H 426.194 -0.217349 1.52863 0
M  V30 4718 H 428.152 -3.12759 2.65879 0
M  V30 4719 H 426.813 -2.72495 1.56222 0
M  V30 4720 H 426.006 -3.1974 3.89592 0
M  V30 4721 H 425.608 -1.53267 3.41153 0
M  V30 4722 H 427.9 -3.8547 5.57153 0
M  V30 4723 H 428.843 -2.68713 6.55133 0
M  V30 4724 H 429.251 -2.92762 4.82649 0
M  V30 4725 N 428.649 -1.55105 -0.279332 0
M  V30 4726 C 429.898 -1.74618 -1.00952 0
M  V30 4727 C 430.211 -0.551096 -1.87676 0
M  V30 4728 O 431.417 -0.628507 -2.64125 0
M  V30 4729 C 429.873 -3.09025 -1.84476 0
M  V30 4730 C 429.481 -4.36081 -1.0265 0
M  V30 4731 C 431.225 -3.37891 -2.56963 0
M  V30 4732 C 429.132 -5.6153 -1.85576 0
M  V30 4733 H 428.062 -0.650868 -0.38064 0
M  V30 4734 H 430.713 -1.81569 -0.265475 0
M  V30 4735 H 429.095 -2.96095 -2.62952 0
M  V30 4736 H 430.269 -4.59909 -0.286354 0
M  V30 4737 H 428.584 -4.14312 -0.416464 0
M  V30 4738 H 431.181 -4.28822 -3.19399 0
M  V30 4739 H 431.524 -2.57737 -3.26921 0
M  V30 4740 H 432.057 -3.5189 -1.85522 0
M  V30 4741 H 428.796 -6.44413 -1.2005 0
M  V30 4742 H 428.316 -5.41854 -2.57204 0
M  V30 4743 H 429.995 -5.99594 -2.43096 0
M  V30 4744 N 430.127 0.543554 -1.4793 0
M  V30 4745 C 431.374 1.30008 -1.55255 0
M  V30 4746 C 431.702 1.93245 -0.220612 0
M  V30 4747 O 430.957 1.79141 0.787843 0
M  V30 4748 C 431.256 2.42078 -2.62932 0
M  V30 4749 C 430.922 1.96583 -4.0579 0
M  V30 4750 C 429.584 1.83893 -4.44676 0
M  V30 4751 C 431.936 1.62034 -4.95373 0
M  V30 4752 C 429.264 1.34969 -5.70964 0
M  V30 4753 C 431.616 1.14577 -6.22137 0
M  V30 4754 C 430.28 1.00493 -6.59892 0
M  V30 4755 H 429.55 0.475735 -0.568117 0
M  V30 4756 H 432.197 0.608075 -1.81589 0
M  V30 4757 H 430.502 3.16892 -2.30406 0
M  V30 4758 H 432.199 3.00236 -2.65818 0
M  V30 4759 H 428.789 2.07407 -3.75074 0
M  V30 4760 H 432.973 1.70705 -4.66019 0
M  V30 4761 H 428.229 1.2274 -5.98953 0
M  V30 4762 H 432.403 0.869109 -6.90955 0
M  V30 4763 H 430.03 0.623624 -7.57638 0
M  V30 4764 N 431.605 1.3629 0.791371 0
M  V30 4765 C 432.845 1.31792 1.56238 0
M  V30 4766 C 433.209 -0.102237 1.91728 0
M  V30 4767 O 434.41 -0.271759 2.67423 0
M  V30 4768 C 432.681 2.21303 2.80642 0
M  V30 4769 S 434.24 2.34468 3.70904 0
M  V30 4770 H 431.058 0.468141 0.535131 0
M  V30 4771 H 433.66 1.71841 0.932246 0
M  V30 4772 H 432.364 3.23439 2.52617 0
M  V30 4773 H 431.895 1.82266 3.4863 0
M  V30 4774 H 433.91 1.54074 4.71673 0
M  V30 4775 N 433.083 -1.0153 1.20538 0
M  V30 4776 C 434.308 -1.79283 1.04271 0
M  V30 4777 C 434.733 -1.8372 -0.403544 0
M  V30 4778 O 434.091 -1.27321 -1.2907 0
M  V30 4779 C 434.139 -3.21535 1.63241 0
M  V30 4780 O 433.243 -4.03099 0.870908 0
M  V30 4781 H 432.584 -0.55293 0.367647 0
M  V30 4782 H 435.114 -1.27696 1.59859 0
M  V30 4783 H 435.124 -3.72243 1.6703 0
M  V30 4784 H 433.799 -3.1762 2.68497 0
M  V30 4785 H 432.376 -3.61693 0.907323 0
M  V30 4786 N 434.561 -1.01147 -1.20859 0
M  V30 4787 C 435.977 -0.725422 -1.42161 0
M  V30 4788 C 436.177 0.696919 -1.89064 0
M  V30 4789 O 435.233 1.46539 -2.05627 0
M  V30 4790 C 436.546 -1.74678 -2.44761 0
M  V30 4791 C 438.094 -1.76433 -2.58535 0
M  V30 4792 C 438.569 -2.77481 -3.64374 0
M  V30 4793 N 440.06 -2.76189 -3.71852 0
M  V30 4794 C 440.795 -3.51035 -4.53389 0
M  V30 4795 N 440.291 -4.35541 -5.38773 0
M  V30 4796 N 442.084 -3.39655 -4.47873 0
M  V30 4797 H 434.235 -1.92979 -0.887282 0
M  V30 4798 H 436.498 -0.833327 -0.451962 0
M  V30 4799 H 436.204 -2.76551 -2.17285 0
M  V30 4800 H 436.078 -1.55472 -3.43669 0
M  V30 4801 H 438.465 -0.75248 -2.85345 0
M  V30 4802 H 438.546 -1.99712 -1.5984 0
M  V30 4803 H 438.19 -3.78827 -3.38308 0
M  V30 4804 H 438.12 -2.51466 -4.6268 0
M  V30 4805 H 440.611 -2.14885 -3.10858 0
M  V30 4806 H 440.924 -4.89432 -5.98061 0
M  V30 4807 H 439.269 -4.39621 -5.38292 0
M  V30 4808 H 442.46 -2.73063 -3.80203 0
M  V30 4809 H 442.633 -3.9824 -5.11184 0
M  V30 4810 N 436.039 1.36541 -0.78704 0
M  V30 4811 C 437.269 2.03266 -0.369662 0
M  V30 4812 C 437.677 1.59481 1.01796 0
M  V30 4813 O 437.02 0.778612 1.66383 0
M  V30 4814 C 437.082 3.57779 -0.351371 0
M  V30 4815 C 436.746 4.24756 -1.68617 0
M  V30 4816 C 437.743 4.47811 -2.64124 0
M  V30 4817 C 435.428 4.62277 -1.96481 0
M  V30 4818 C 437.422 5.07464 -3.85693 0
M  V30 4819 C 435.109 5.21649 -3.18317 0
M  V30 4820 C 436.107 5.44182 -4.12741 0
M  V30 4821 O 435.795 6.02307 -5.32429 0
M  V30 4822 H 435.527 0.658977 -0.150751 0
M  V30 4823 H 438.081 1.75548 -1.0664 0
M  V30 4824 H 436.311 3.84606 0.401847 0
M  V30 4825 H 438 4.05879 0.0410147 0
M  V30 4826 H 438.766 4.19221 -2.43883 0
M  V30 4827 H 434.645 4.44065 -1.23805 0
M  V30 4828 H 438.189 5.24968 -4.59407 0
M  V30 4829 H 434.086 5.49664 -3.38437 0
M  V30 4830 H 434.854 6.20775 -5.33461 0
M  V30 4831 N 437.518 0.538854 1.48102 0
M  V30 4832 C 438.764 0.0161732 2.03394 0
M  V30 4833 C 439.119 -1.31154 1.40771 0
M  V30 4834 O 438.412 -1.83613 0.547421 0
M  V30 4835 C 438.606 -0.153808 3.57069 0
M  V30 4836 C 438.435 1.15588 4.34591 0
M  V30 4837 C 437.205 1.71818 4.75191 0
M  V30 4838 C 439.403 2.06867 4.70861 0
M  V30 4839 N 437.385 2.96983 5.37284 0
M  V30 4840 C 438.756 3.16609 5.33066 0
M  V30 4841 C 440.811 2.07085 4.52791 0
M  V30 4842 C 439.514 4.26645 5.79109 0
M  V30 4843 C 441.54 3.16121 4.99821 0
M  V30 4844 C 440.902 4.24582 5.62058 0
M  V30 4845 H 437.001 0.0476346 0.780548 0
M  V30 4846 H 439.585 0.722094 1.80815 0
M  V30 4847 H 437.756 -0.828825 3.79454 0
M  V30 4848 H 439.488 -0.676896 3.98999 0
M  V30 4849 H 436.243 1.25845 4.56574 0
M  V30 4850 H 436.667 3.60732 5.72889 0
M  V30 4851 H 441.309 1.24522 4.04047 0
M  V30 4852 H 439.027 5.0998 6.26854 0
M  V30 4853 H 442.613 3.17355 4.87624 0
M  V30 4854 H 441.493 5.07562 5.97788 0
M  V30 4855 O 439.035 -1.56041 0.416352 0
M  V30 4856 H 439.726 -1.93313 -0.122438 0
M  V30 END ATOM
M  V30 BEGIN BOND
M  V30 END BOND
M  V30 END CTAB
M  END
$$$$
