drugbank_target|P9WPB5 Cyclopropane mycolic acid synthase 2 (DB01752; DB04221)
 OpenBabel12092119503D

  0  0  0     0  0            999 V3000
M  V30 BEGIN CTAB
M  V30 COUNTS 4793 4855 0 0 0
M  V30 BEGIN ATOM
M  V30 1 H -0.908 1.98254 -0.117106 0
M  V30 2 N 0 1.576 0 0
M  V30 3 C 0.933 2.03868 1.02534 0
M  V30 4 C 1.911 0.928543 1.3348 0
M  V30 5 O 3.095 1.19667 1.45644 0
M  V30 6 C 0.222 2.43627 2.35294 0
M  V30 7 C -0.732 3.65373 2.2001 0
M  V30 8 S 0.101 5.13292 1.52614 0
M  V30 9 C 1.257 5.56322 2.86805 0
M  V30 10 H 1.49 2.90518 0.631377 0
M  V30 11 H -0.977 1.52953 0.210867 0
M  V30 12 H 0.981 2.67203 3.11629 0
M  V30 13 H -0.358 1.57376 2.7183 0
M  V30 14 H -1.165 3.90944 3.18086 0
M  V30 15 H -1.563 3.418 1.51819 0
M  V30 16 H 0.729 5.58782 3.83104 0
M  V30 17 H 1.672 6.56266 2.65933 0
M  V30 18 H 2.08 4.83886 2.90714 0
M  V30 19 N 1.4781 -0.272755 1.55222 0
M  V30 20 C 2.7061 -1.02255 1.79865 0
M  V30 21 C 3.1211 -1.79924 0.572088 0
M  V30 22 O 2.4781 -1.76638 -0.458842 0
M  V30 23 C 2.5291 -1.98094 3.02392 0
M  V30 24 O 2.2501 -1.23572 4.20311 0
M  V30 25 C 3.7511 -2.84884 3.39641 0
M  V30 26 H 0.9711 -0.302057 0.599168 0
M  V30 27 H 3.5151 -0.303465 2.02236 0
M  V30 28 H 1.6701 -2.65465 2.82147 0
M  V30 29 H 2.0841 -1.88172 4.89583 0
M  V30 30 H 3.5581 -3.47927 4.28545 0
M  V30 31 H 4.0351 -3.54665 2.59055 0
M  V30 32 H 4.6411 -2.23003 3.62146 0
M  V30 33 N 2.9562 -1.48159 -0.537278 0
M  V30 34 C 4.1812 -1.59707 -1.32319 0
M  V30 35 C 4.6062 -0.254859 -1.86365 0
M  V30 36 O 3.9642 0.772378 -1.64024 0
M  V30 37 C 4.0122 -2.6412 -2.45505 0
M  V30 38 O 3.1162 -2.20774 -3.48328 0
M  V30 39 H 2.4572 -0.535791 -0.392204 0
M  V30 40 H 4.9872 -1.94092 -0.647268 0
M  V30 41 H 4.9972 -2.85166 -2.91795 0
M  V30 42 H 3.6722 -3.61567 -2.05528 0
M  V30 43 H 2.2492 -2.09911 -3.08207 0
M  V30 44 N 4.4343 0.785586 -1.36625 0
M  V30 45 C 5.3663 1.90711 -1.2713 0
M  V30 46 C 6.3793 1.61688 -0.189986 0
M  V30 47 O 7.5683 1.72864 -0.445014 0
M  V30 48 C 4.6683 3.25611 -0.939713 0
M  V30 49 C 3.8413 3.82385 -2.12369 0
M  V30 50 C 2.9003 4.95732 -1.76456 0
M  V30 51 O 1.9263 5.12047 -2.48589 0
M  V30 52 N 3.1283 5.76258 -0.700492 0
M  V30 53 H 5.8933 1.99376 -2.23762 0
M  V30 54 H 3.4543 0.964041 -1.30069 0
M  V30 55 H 5.4463 3.98937 -0.680554 0
M  V30 56 H 4.0163 3.12538 -0.0624074 0
M  V30 57 H 3.2363 3.01001 -2.54543 0
M  V30 58 H 4.5243 4.17047 -2.9146 0
M  V30 59 H 3.9223 5.65609 -0.101624 0
M  V30 60 H 2.4793 6.4987 -0.501165 0
M  V30 61 N 5.9124 1.20967 1.01018 0
M  V30 62 C 7.1604 1.02172 1.74371 0
M  V30 63 C 7.4814 -0.446414 1.89821 0
M  V30 64 O 6.7514 -1.32234 1.44537 0
M  V30 65 H 5.3314 0.375066 0.646014 0
M  V30 66 H 7.9934 1.52187 1.21758 0
M  V30 67 H 7.0894 1.48538 2.74487 0
M  V30 68 N 7.3905 -1.2043 1.01659 0
M  V30 69 C 8.6675 -1.8548 0.621004 0
M  V30 70 C 9.0475 -1.9091 -0.900919 0
M  V30 71 O 8.3955 -1.41694 -1.79263 0
M  V30 72 C 8.6055 -3.25119 1.2688 0
M  V30 73 C 9.9535 -4.01403 1.38423 0
M  V30 74 O 10.9775 -3.34473 1.22501 0
M  V30 75 O 9.8365 -5.21265 1.64151 0
M  V30 76 H 6.9305 -0.798761 0.214266 0
M  V30 77 H 9.4765 -1.28019 1.11396 0
M  V30 78 H 8.2485 -3.15932 2.30873 0
M  V30 79 H 7.8715 -3.90212 0.762917 0
M  V30 80 N 8.8686 -0.792821 -1.36206 0
M  V30 81 C 10.0966 -0.378825 -2.03402 0
M  V30 82 C 10.5116 1.00586 -1.59774 0
M  V30 83 O 9.8686 1.64574 -0.788764 0
M  V30 84 C 9.9196 -0.43683 -3.58851 0
M  V30 85 O 9.6406 -1.76691 -4.00889 0
M  V30 86 C 11.1416 -0.0138943 -4.43298 0
M  V30 87 H 8.3616 -0.155673 -0.652692 0
M  V30 88 H 10.9056 -1.07261 -1.74113 0
M  V30 89 H 9.0606 0.208575 -3.86838 0
M  V30 90 H 9.4746 -1.72011 -4.95492 0
M  V30 91 H 10.9486 -0.105615 -5.51899 0
M  V30 92 H 11.4256 1.03915 -4.2673 0
M  V30 93 H 12.0316 -0.63192 -4.20579 0
M  V30 94 N 10.3467 1.47872 -0.545128 0
M  V30 95 C 11.5747 2.06889 -0.021084 0
M  V30 96 C 11.9897 1.39955 1.2672 0
M  V30 97 O 11.3467 0.492036 1.75742 0
M  V30 98 C 11.3977 3.60996 0.190817 0
M  V30 99 O 11.1187 4.25419 -1.04644 0
M  V30 100 C 12.6197 4.36849 0.753521 0
M  V30 101 H 9.8397 0.669785 -0.0403635 0
M  V30 102 H 12.3837 1.90049 -0.755095 0
M  V30 103 H 10.5387 3.77391 0.87492 0
M  V30 104 H 10.9527 5.17785 -0.836611 0
M  V30 105 H 12.4267 5.45399 0.851139 0
M  V30 106 H 12.9037 4.02306 1.762 0
M  V30 107 H 13.5097 4.25169 0.105503 0
M  V30 108 N 11.8248 0.280983 1.55075 0
M  V30 109 C 13.0498 -0.340154 2.04592 0
M  V30 110 C 13.4748 -1.48246 1.15779 0
M  V30 111 O 12.8328 -1.80614 0.15761 0
M  V30 112 C 12.8808 -0.793104 3.5177 0
M  V30 113 O 11.9848 -1.89981 3.66034 0
M  V30 114 H 11.3258 -0.0694289 0.66036 0
M  V30 115 H 13.8558 0.416993 2.00306 0
M  V30 116 H 13.8658 -1.08729 3.93245 0
M  V30 117 H 12.5408 0.0426163 4.15878 0
M  V30 118 H 11.1178 -1.60771 3.36463 0
M  V30 119 N 13.3029 -1.57598 0.00835791 0
M  V30 120 C 14.5509 -1.90551 -0.6734 0
M  V30 121 C 14.8719 -0.883301 -1.73847 0
M  V30 122 O 14.1419 0.0781442 -1.95744 0
M  V30 123 H 12.7219 -0.703312 -0.251717 0
M  V30 124 H 15.3839 -1.94833 0.0512592 0
M  V30 125 H 14.4799 -2.9056 -1.13935 0
M  V30 126 N 14.781 0.264519 -1.55364 0
M  V30 127 C 16.009 1.013 -1.80405 0
M  V30 128 C 16.424 1.79618 -0.581622 0
M  V30 129 O 15.781 1.76879 0.449468 0
M  V30 130 C 15.832 1.96487 -3.03439 0
M  V30 131 O 15.553 1.21341 -4.20961 0
M  V30 132 C 17.054 2.83079 -3.41147 0
M  V30 133 H 14.274 0.298875 -0.600762 0
M  V30 134 H 16.818 0.292736 -2.02394 0
M  V30 135 H 14.973 2.63965 -2.83551 0
M  V30 136 H 15.387 1.85573 -4.90574 0
M  V30 137 H 16.861 3.4565 -4.30384 0
M  V30 138 H 17.338 3.53286 -2.60932 0
M  V30 139 H 17.944 2.2108 -3.63323 0
M  V30 140 N 16.2591 1.48442 0.529413 0
M  V30 141 C 17.1911 1.59095 1.64989 0
M  V30 142 C 18.2041 0.475212 1.5571 0
M  V30 143 O 19.3931 0.746081 1.6216 0
M  V30 144 C 16.4931 1.50518 3.0364 0
M  V30 145 C 15.6661 2.77142 3.38395 0
M  V30 146 C 14.7251 2.62012 4.56329 0
M  V30 147 O 13.7511 3.35898 4.59522 0
M  V30 148 N 14.9531 1.71667 5.54536 0
M  V30 149 H 17.7181 2.55723 1.56287 0
M  V30 150 H 15.2791 1.45173 0.716697 0
M  V30 151 H 17.2711 1.38091 3.80412 0
M  V30 152 H 15.8411 0.618627 3.06418 0
M  V30 153 H 15.0611 3.0413 2.50796 0
M  V30 154 H 16.3491 3.61146 3.58401 0
M  V30 155 H 15.7471 1.10841 5.54735 0
M  V30 156 H 14.3041 1.65178 6.30523 0
M  V30 157 N 17.7372 -0.778329 1.37039 0
M  V30 158 C 18.6672 -1.90546 1.34962 0
M  V30 159 C 19.6482 -1.68681 0.219274 0
M  V30 160 O 20.8332 -1.89634 0.418624 0
M  V30 161 C 17.9632 -3.27734 1.14925 0
M  V30 162 C 16.9172 -3.64147 2.24902 0
M  V30 163 C 16.2432 -4.99806 1.89996 0
M  V30 164 C 17.5432 -3.71579 3.67051 0
M  V30 165 H 19.2372 -1.92541 2.29277 0
M  V30 166 H 16.7832 -0.924948 1.10366 0
M  V30 167 H 18.7362 -4.06215 1.12104 0
M  V30 168 H 17.4602 -3.26154 0.170631 0
M  V30 169 H 16.1192 -2.8797 2.26868 0
M  V30 170 H 15.7672 -4.94759 0.906796 0
M  V30 171 H 15.4672 -5.25139 2.63634 0
M  V30 172 H 16.9912 -5.80694 1.88749 0
M  V30 173 H 18.4052 -4.40227 3.67251 0
M  V30 174 H 16.8022 -4.08405 4.39688 0
M  V30 175 H 17.8722 -2.72404 4.01154 0
M  V30 176 N 19.2153 -1.21501 -1.00376 0
M  V30 177 C 20.1623 -0.975387 -2.09177 0
M  V30 178 C 21.1323 0.0990615 -1.65804 0
M  V30 179 O 22.3173 -0.0483147 -1.90739 0
M  V30 180 C 19.4573 -0.547507 -3.40729 0
M  V30 181 C 18.5703 -1.69153 -3.97506 0
M  V30 182 C 17.7053 -1.2127 -5.17172 0
M  V30 183 C 16.7443 -2.32897 -5.66061 0
M  V30 184 N 15.8813 -1.86138 -6.76976 0
M  V30 185 H 20.7213 -1.9068 -2.29009 0
M  V30 186 H 18.2583 -0.950257 -1.12288 0
M  V30 187 H 20.2163 -0.280667 -4.16255 0
M  V30 188 H 18.8463 0.346904 -3.20931 0
M  V30 189 H 17.8983 -2.07298 -3.18954 0
M  V30 190 H 19.2103 -2.5316 -4.29781 0
M  V30 191 H 18.3643 -0.902591 -5.99948 0
M  V30 192 H 17.1033 -0.342692 -4.86495 0
M  V30 193 H 16.1083 -2.64709 -4.81881 0
M  V30 194 H 17.3333 -3.20396 -5.98768 0
M  V30 195 H 15.2793 -1.01484 -6.48103 0
M  V30 196 H 15.1963 -2.63717 -7.08512 0
M  V30 197 H 16.4643 -1.58165 -7.63285 0
M  V30 198 N 20.6934 1.19889 -1.02296 0
M  V30 199 C 22.1044 1.71124 -0.746568 0
M  V30 200 C 22.4554 1.81939 0.734335 0
M  V30 201 O 21.5804 1.48639 1.57275 0
M  V30 202 C 22.1754 3.10804 -1.34857 0
M  V30 203 C 20.7344 3.59323 -1.1209 0
M  V30 204 C 19.8814 2.3635 -1.45031 0
M  V30 205 H 22.8324 1.04813 -1.19163 0
M  V30 206 H 22.8534 3.73186 -0.742437 0
M  V30 207 H 22.3654 3.029 -2.42638 0
M  V30 208 H 20.4664 3.7255 -0.0610337 0
M  V30 209 H 20.5794 4.4378 -1.80544 0
M  V30 210 H 18.9434 2.39399 -0.869487 0
M  V30 211 H 19.7264 2.31081 -2.53883 0
M  V30 212 N 22.1715 0.800033 1.35784 0
M  V30 213 C 23.5825 0.439142 1.81462 0
M  V30 214 C 23.9335 -1.03813 1.66485 0
M  V30 215 O 23.0585 -1.80626 1.19177 0
M  V30 216 C 23.6535 0.790314 3.29453 0
M  V30 217 C 22.2125 0.482111 3.733 0
M  V30 218 C 21.3595 1.01938 2.57883 0
M  V30 219 H 24.3105 0.992254 1.23855 0
M  V30 220 H 24.3315 0.0853677 3.80404 0
M  V30 221 H 23.8435 1.86554 3.40322 0
M  V30 222 H 21.9445 -0.584652 3.67984 0
M  V30 223 H 22.0575 1.01015 4.6833 0
M  V30 224 H 20.4215 0.442043 2.50835 0
M  V30 225 H 21.2045 2.10059 2.71533 0
M  V30 226 N 23.6496 -1.47581 0.552962 0
M  V30 227 C 24.8956 -2.02782 0.0273648 0
M  V30 228 C 25.2286 -1.42687 -1.31734 0
M  V30 229 O 24.5036 -0.580897 -1.85623 0
M  V30 230 C 24.7866 -3.60031 -0.0702371 0
M  V30 231 C 24.6396 -4.30566 1.30126 0
M  V30 232 C 25.9586 -4.33028 -0.785771 0
M  V30 233 H 23.0776 -0.736912 0.0114185 0
M  V30 234 H 25.7196 -1.76056 0.714432 0
M  V30 235 H 23.8696 -3.82932 -0.655382 0
M  V30 236 H 25.5416 -4.19018 1.92929 0
M  V30 237 H 23.7846 -3.91086 1.87709 0
M  V30 238 H 24.4556 -5.39114 1.18573 0
M  V30 239 H 26.9316 -4.15095 -0.288982 0
M  V30 240 H 25.8076 -5.42695 -0.823013 0
M  V30 241 H 26.0686 -4.01945 -1.841 0
M  V30 242 N 25.1277 -0.289203 -1.54924 0
M  V30 243 C 26.0377 0.601863 -2.26748 0
M  V30 244 C 27.0537 1.15834 -1.2984 0
M  V30 245 O 28.2297 1.18564 -1.62802 0
M  V30 246 C 25.2947 1.76299 -2.98529 0
M  V30 247 C 24.3557 1.24178 -4.10948 0
M  V30 248 C 23.5887 2.34757 -4.79296 0
M  V30 249 O 23.8117 3.54411 -4.46933 0
M  V30 250 O 22.7457 2.02115 -5.66951 0
M  V30 251 H 26.5717 0.0195879 -3.03694 0
M  V30 252 H 24.1567 -0.0560868 -1.49295 0
M  V30 253 H 26.0387 2.43973 -3.43592 0
M  V30 254 H 24.7137 2.33209 -2.24488 0
M  V30 255 H 23.6207 0.531104 -3.70311 0
M  V30 256 H 24.9537 0.718252 -4.86931 0
M  V30 257 N 26.6058 1.57591 -0.0167156 0
M  V30 258 C 27.5688 2.08393 0.954204 0
M  V30 259 C 28.5688 0.996531 1.26198 0
M  V30 260 O 29.7588 1.25858 1.20438 0
M  V30 261 C 26.8908 2.5394 2.27436 0
M  V30 262 H 28.0838 2.95455 0.514451 0
M  V30 263 H 25.6368 1.54582 0.231089 0
M  V30 264 H 26.3718 1.70171 2.76066 0
M  V30 265 H 26.1568 3.33371 2.06412 0
M  V30 266 H 27.6468 2.93512 2.97053 0
M  V30 267 N 28.0839 -0.256276 1.55502 0
M  V30 268 C 29.3299 -0.987079 1.77157 0
M  V30 269 C 29.6629 -1.85327 0.580315 0
M  V30 270 O 28.9379 -1.89874 -0.421686 0
M  V30 271 C 29.2209 -1.85553 3.08613 0
M  V30 272 C 29.0739 -1.01816 4.38125 0
M  V30 273 C 30.3929 -2.8397 3.36228 0
M  V30 274 H 27.5119 -0.357428 0.644526 0
M  V30 275 H 30.1539 -0.258239 1.88237 0
M  V30 276 H 28.3039 -2.47695 2.99298 0
M  V30 277 H 29.9759 -0.416159 4.59419 0
M  V30 278 H 28.2189 -0.322178 4.32602 0
M  V30 279 H 28.8899 -1.65939 5.26468 0
M  V30 280 H 31.3659 -2.31964 3.45445 0
M  V30 281 H 30.2419 -3.41864 4.29442 0
M  V30 282 H 30.5029 -3.59955 2.56681 0
M  V30 283 N 29.562 -1.4872 -0.521534 0
M  V30 284 C 30.978 -1.35028 -0.850855 0
M  V30 285 C 31.178 -0.367712 -1.98116 0
M  V30 286 O 30.234 0.208037 -2.51642 0
M  V30 287 C 31.547 -2.75263 -1.21041 0
M  V30 288 C 33.095 -2.83813 -1.31981 0
M  V30 289 C 33.57 -4.24769 -1.71276 0
M  V30 290 N 35.061 -4.27482 -1.78363 0
M  V30 291 C 35.796 -5.33494 -2.1017 0
M  V30 292 N 35.292 -6.49775 -2.40343 0
M  V30 293 N 37.085 -5.20894 -2.11248 0
M  V30 294 H 29.236 -2.11214 0.22413 0
M  V30 295 H 31.499 -0.947252 0.0376439 0
M  V30 296 H 31.205 -3.48765 -0.453415 0
M  V30 297 H 31.079 -3.09327 -2.15863 0
M  V30 298 H 33.466 -2.10561 -2.06756 0
M  V30 299 H 33.547 -2.53358 -0.352596 0
M  V30 300 H 33.191 -4.9854 -0.970588 0
M  V30 301 H 33.121 -4.52673 -2.69062 0
M  V30 302 H 35.612 -3.43611 -1.57288 0
M  V30 303 H 35.925 -7.26402 -2.63743 0
M  V30 304 H 34.27 -6.53035 -2.37844 0
M  V30 305 H 37.461 -4.29065 -1.87139 0
M  V30 306 H 37.634 -6.03612 -2.35704 0
M  V30 307 N 31.0401 0.771051 -1.3745 0
M  V30 308 C 32.2651 1.56529 -1.36065 0
M  V30 309 C 32.6901 1.88029 0.0515859 0
M  V30 310 O 32.0481 1.49282 1.02882 0
M  V30 311 C 32.0961 2.85187 -2.20683 0
M  V30 312 O 31.2001 3.79593 -1.61193 0
M  V30 313 H 30.5411 0.47411 -0.464883 0
M  V30 314 H 33.0711 0.954269 -1.80983 0
M  V30 315 H 33.0811 3.34283 -2.33921 0
M  V30 316 H 31.7561 2.61588 -3.23334 0
M  V30 317 H 30.3331 3.38239 -1.56999 0
M  V30 318 N 32.5182 1.22032 0.997298 0
M  V30 319 C 33.4682 0.953838 2.07089 0
M  V30 320 C 34.4522 -0.0938669 1.60626 0
M  V30 321 O 35.6442 0.116078 1.76619 0
M  V30 322 C 32.7732 0.528726 3.39204 0
M  V30 323 C 31.8592 1.61092 3.92314 0
M  V30 324 N 32.2502 2.83768 4.18699 0
M  V30 325 C 30.5482 1.48158 4.20672 0
M  V30 326 C 31.2492 3.53715 4.61802 0
M  V30 327 N 30.2252 2.81174 4.65233 0
M  V30 328 H 34.0272 1.88577 2.25424 0
M  V30 329 H 31.5412 1.11719 1.17867 0
M  V30 330 H 33.5382 0.31915 4.15677 0
M  V30 331 H 32.1982 -0.39635 3.22272 0
M  V30 332 H 33.2092 3.20238 4.07023 0
M  V30 333 H 29.8862 0.622369 4.12835 0
M  V30 334 H 31.2762 4.58793 4.90875 0
M  V30 335 N 33.9963 -1.19345 1.0293 0
M  V30 336 C 35.2263 -1.92717 0.744563 0
M  V30 337 C 35.6343 -1.75751 -0.700579 0
M  V30 338 O 34.9773 -1.07703 -1.48815 0
M  V30 339 C 35.0393 -3.44828 1.01657 0
M  V30 340 C 34.7033 -3.85564 2.45335 0
M  V30 341 C 35.7003 -3.90286 3.43472 0
M  V30 342 C 33.3853 -4.1719 2.79746 0
M  V30 343 C 35.3793 -4.26065 4.74075 0
M  V30 344 C 33.0663 -4.52642 4.10559 0
M  V30 345 C 34.0643 -4.57054 5.07534 0
M  V30 346 O 33.7523 -4.91685 6.36004 0
M  V30 347 H 33.4843 -0.618977 0.271742 0
M  V30 348 H 36.0383 -1.52415 1.37691 0
M  V30 349 H 34.2683 -3.85314 0.327084 0
M  V30 350 H 35.9573 -3.99437 0.721427 0
M  V30 351 H 36.7233 -3.66002 3.18225 0
M  V30 352 H 32.6023 -4.1294 2.04943 0
M  V30 353 H 36.1463 -4.29423 5.49765 0
M  V30 354 H 32.0433 -4.76383 4.35579 0
M  V30 355 H 32.8113 -5.09631 6.40483 0
M  V30 356 N 35.4744 -0.807222 -1.35358 0
M  V30 357 C 36.7514 -0.311126 -1.9311 0
M  V30 358 C 37.1314 1.19937 -1.73719 0
M  V30 359 O 36.4794 1.99918 -1.10657 0
M  V30 360 C 36.6894 -0.723226 -3.41424 0
M  V30 361 C 38.0374 -0.713078 -4.18569 0
M  V30 362 O 39.0614 -0.664811 -3.49941 0
M  V30 363 O 37.9204 -0.772022 -5.41019 0
M  V30 364 H 35.0144 -0.081526 -0.822972 0
M  V30 365 H 37.5604 -0.890962 -1.4443 0
M  V30 366 H 36.3324 -1.76426 -3.4927 0
M  V30 367 H 35.9554 -0.118232 -3.97424 0
M  V30 368 N 36.9525 1.47285 -0.560781 0
M  V30 369 C 37.8995 2.30058 0.18491 0
M  V30 370 C 38.8695 1.39281 0.904986 0
M  V30 371 O 40.0545 1.68241 0.899979 0
M  V30 372 C 37.1945 3.23317 1.20666 0
M  V30 373 C 36.3075 4.29186 0.492285 0
M  V30 374 C 35.4425 5.09592 1.49964 0
M  V30 375 C 34.4815 6.07232 0.770439 0
M  V30 376 N 33.6185 6.80584 1.72479 0
M  V30 377 H 38.4585 2.93302 -0.527048 0
M  V30 378 H 35.9955 1.44568 -0.271738 0
M  V30 379 H 37.9535 3.75811 1.81168 0
M  V30 380 H 36.5835 2.61929 1.88661 0
M  V30 381 H 35.6355 3.7972 -0.227333 0
M  V30 382 H 36.9475 4.98738 -0.0787929 0
M  V30 383 H 36.1015 5.66254 2.17809 0
M  V30 384 H 34.8405 4.3995 2.10464 0
M  V30 385 H 33.8455 5.49745 0.0780846 0
M  V30 386 H 35.0705 6.78884 0.171134 0
M  V30 387 H 33.0165 6.1367 2.3183 0
M  V30 388 H 32.9335 7.46319 1.20596 0
M  V30 389 H 34.2015 7.41818 2.39428 0
M  V30 390 N 38.4306 0.297415 1.54768 0
M  V30 391 C 39.6556 -0.318435 2.04941 0
M  V30 392 C 40.0806 -1.4701 1.17345 0
M  V30 393 O 39.4386 -1.80436 0.176758 0
M  V30 394 C 39.4866 -0.755749 3.52592 0
M  V30 395 O 38.5906 -1.86088 3.68028 0
M  V30 396 H 37.9316 -0.062421 0.661059 0
M  V30 397 H 40.4616 0.438215 1.99852 0
M  V30 398 H 40.4716 -1.04552 3.94376 0
M  V30 399 H 39.1466 0.0867233 4.1581 0
M  V30 400 H 37.7236 -1.57193 3.38149 0
M  V30 401 N 39.9087 -1.5758 0.0250728 0
M  V30 402 C 40.8567 -2.11125 -0.97617 0
M  V30 403 C 41.8507 -1.03689 -1.33959 0
M  V30 404 O 43.0567 -1.22128 -1.3223 0
M  V30 405 H 39.4317 -0.674468 -0.332561 0
M  V30 406 H 41.4027 -2.94194 -0.499223 0
M  V30 407 C 40.1517 -2.65017 -2.2508 0
M  V30 408 H 39.4747 -3.47333 -1.9799 0
M  V30 409 H 40.9147 -3.06133 -2.93357 0
M  V30 410 C 39.3737 -1.57574 -2.97779 0
M  V30 411 O 39.9037 -0.973203 -3.89733 0
M  V30 412 N 38.1097 -1.29716 -2.60043 0
M  V30 413 H 37.6567 -1.789 -1.85345 0
M  V30 414 H 37.6147 -0.58051 -3.08994 0
M  V30 415 N 41.3868 0.248026 -1.55636 0
M  V30 416 C 42.2968 1.32859 -1.93354 0
M  V30 417 C 43.3128 1.52719 -0.833838 0
M  V30 418 O 44.4888 1.66363 -1.13513 0
M  V30 419 C 41.5538 2.66337 -2.21958 0
M  V30 420 C 40.6148 2.55008 -3.45354 0
M  V30 421 C 39.8478 3.82121 -3.72584 0
M  V30 422 O 40.0708 4.83951 -3.01907 0
M  V30 423 O 39.0048 3.80822 -4.6611 0
M  V30 424 H 42.8308 1.03862 -2.85388 0
M  V30 425 H 40.4158 0.448686 -1.42503 0
M  V30 426 H 42.2978 3.45216 -2.4167 0
M  V30 427 H 40.9728 2.95068 -1.33103 0
M  V30 428 H 39.8798 1.7442 -3.30951 0
M  V30 429 H 41.2128 2.31222 -4.34508 0
M  V30 430 N 42.8649 1.48995 0.513639 0
M  V30 431 C 44.1119 1.57843 1.26854 0
M  V30 432 C 44.4399 0.259501 1.92761 0
M  V30 433 O 43.6949 -0.75159 1.80692 0
M  V30 434 C 43.9939 2.67756 2.36731 0
M  V30 435 C 43.6599 4.09669 1.88368 0
M  V30 436 C 42.3219 4.48291 1.74896 0
M  V30 437 C 44.6739 4.98537 1.52021 0
M  V30 438 C 42.0019 5.73568 1.23438 0
M  V30 439 C 44.3539 6.24319 1.0202 0
M  V30 440 C 43.0179 6.61783 0.871778 0
M  V30 441 H 42.2879 0.577587 0.464192 0
M  V30 442 H 44.9349 1.82778 0.571366 0
M  V30 443 H 43.2399 2.36743 3.12185 0
M  V30 444 H 44.9369 2.71813 2.9482 0
M  V30 445 H 41.5269 3.79176 1.99808 0
M  V30 446 H 45.7109 4.69363 1.61281 0
M  V30 447 H 40.9669 6.01304 1.10648 0
M  V30 448 H 45.1409 6.92566 0.729722 0
M  V30 449 H 42.7679 7.5874 0.470852 0
M  V30 450 N 44.343 -0.763751 1.37857 0
M  V30 451 C 45.59 -1.52257 1.33506 0
M  V30 452 C 45.918 -1.94343 -0.078022 0
M  V30 453 O 45.173 -1.64958 -1.05297 0
M  V30 454 C 45.472 -2.79499 2.22745 0
M  V30 455 C 45.138 -2.56426 3.70886 0
M  V30 456 C 43.8 -2.49842 4.11257 0
M  V30 457 C 46.152 -2.36008 4.64704 0
M  V30 458 C 43.48 -2.20841 5.43549 0
M  V30 459 C 45.832 -2.0853 5.97242 0
M  V30 460 C 44.496 -2.00396 6.36709 0
M  V30 461 H 43.766 -0.557149 0.488534 0
M  V30 462 H 46.413 -0.879073 1.70131 0
M  V30 463 H 44.718 -3.48447 1.79142 0
M  V30 464 H 46.415 -3.37413 2.16688 0
M  V30 465 H 43.005 -2.62416 3.38874 0
M  V30 466 H 47.189 -2.40079 4.34368 0
M  V30 467 H 42.445 -2.13045 5.73081 0
M  V30 468 H 46.619 -1.91732 6.69486 0
M  V30 469 H 44.246 -1.77688 7.39142 0
M  V30 470 N 45.8211 -1.22559 -0.990812 0
M  V30 471 C 46.7681 -0.997519 -2.0813 0
M  V30 472 C 47.7381 0.0814702 -1.659 0
M  V30 473 O 48.9231 -0.0685424 -1.90677 0
M  V30 474 C 46.0631 -0.583615 -3.40129 0
M  V30 475 C 45.1761 -1.7336 -3.9569 0
M  V30 476 C 44.3111 -1.26748 -5.15857 0
M  V30 477 C 43.3501 -2.38888 -5.63559 0
M  V30 478 N 42.4871 -1.93308 -6.74964 0
M  V30 479 H 47.3271 -1.93099 -2.26973 0
M  V30 480 H 44.8641 -0.962114 -1.11273 0
M  V30 481 H 46.8221 -0.324801 -4.15934 0
M  V30 482 H 45.4521 0.312845 -3.2128 0
M  V30 483 H 44.5041 -2.10669 -3.16738 0
M  V30 484 H 45.8161 -2.57704 -4.27071 0
M  V30 485 H 44.9701 -0.966173 -5.98957 0
M  V30 486 H 43.7091 -0.394272 -4.86104 0
M  V30 487 H 42.7141 -2.69805 -4.79046 0
M  V30 488 H 43.9391 -3.26728 -5.95336 0
M  V30 489 H 41.8851 -1.08352 -6.4699 0
M  V30 490 H 41.8021 -2.71217 -7.05675 0
M  V30 491 H 43.0701 -1.66252 -7.61564 0
M  V30 492 N 47.2992 1.18797 -1.03562 0
M  V30 493 C 48.2292 2.24472 -0.643019 0
M  V30 494 C 49.2102 1.66433 0.351283 0
M  V30 495 O 50.3952 1.92803 0.232505 0
M  V30 496 C 47.5252 3.473 4.24935e-05 0
M  V30 497 C 46.4792 4.18055 -0.917257 0
M  V30 498 C 45.8052 5.34519 -0.138941 0
M  V30 499 C 47.1052 4.72109 -2.23407 0
M  V30 500 H 48.7992 2.57566 -1.52643 0
M  V30 501 H 46.3452 1.23806 -0.735394 0
M  V30 502 H 48.2982 4.20426 0.286383 0
M  V30 503 H 47.0222 3.13424 0.918299 0
M  V30 504 H 45.6812 3.46821 -1.1879 0
M  V30 505 H 45.3292 4.96891 0.781562 0
M  V30 506 H 45.0292 5.82794 -0.750005 0
M  V30 507 H 46.5532 6.10438 0.1405 0
M  V30 508 H 47.9672 5.36955 -2.00879 0
M  V30 509 H 46.3642 5.30897 -2.79765 0
M  V30 510 H 47.4342 3.89807 -2.88407 0
M  V30 511 N 48.7773 0.814389 1.34928 0
M  V30 512 C 50.0233 0.408167 1.99263 0
M  V30 513 C 50.3783 -1.0154 1.63424 0
M  V30 514 O 49.6713 -1.69607 0.891289 0
M  V30 515 C 49.8653 0.537781 3.53331 0
M  V30 516 C 49.6943 1.9724 4.04137 0
M  V30 517 C 48.4643 2.60245 4.33129 0
M  V30 518 C 50.6623 2.93801 4.2212 0
M  V30 519 N 48.6443 3.95036 4.69914 0
M  V30 520 C 50.0153 4.1348 4.6199 0
M  V30 521 C 52.0703 2.9053 4.04348 0
M  V30 522 C 50.7733 5.3033 4.85945 0
M  V30 523 C 52.7993 4.06589 4.29464 0
M  V30 524 C 52.1613 5.25017 4.69613 0
M  V30 525 H 48.2603 0.197289 0.756704 0
M  V30 526 H 50.8443 1.05728 1.63492 0
M  V30 527 H 49.0153 -0.0813868 3.88315 0
M  V30 528 H 50.7473 0.105389 4.04563 0
M  V30 529 H 47.5023 2.11545 4.23728 0
M  V30 530 H 47.9263 4.64455 4.92555 0
M  V30 531 H 52.5683 2.00115 3.72443 0
M  V30 532 H 50.2863 6.21309 5.16721 0
M  V30 533 H 53.8723 4.05447 4.17257 0
M  V30 534 H 52.7523 6.1333 4.88667 0
M  V30 535 N 50.2554 -1.46986 0.568584 0
M  V30 536 C 51.1854 -2.32946 -0.160753 0
M  V30 537 C 52.1664 -1.44487 -0.897631 0
M  V30 538 O 53.3514 -1.73327 -0.875867 0
M  V30 539 C 50.4814 -3.26494 -1.18403 0
M  V30 540 C 49.4354 -4.24282 -0.562895 0
M  V30 541 C 48.7614 -5.07236 -1.69163 0
M  V30 542 C 50.0614 -5.19989 0.490761 0
M  V30 543 H 51.7554 -2.94175 0.556916 0
M  V30 544 H 49.3014 -1.4146 0.26927 0
M  V30 545 H 51.2544 -3.85477 -1.70251 0
M  V30 546 H 49.9784 -2.63343 -1.93179 0
M  V30 547 H 48.6374 -3.66541 -0.0656164 0
M  V30 548 H 48.2854 -4.4048 -2.42871 0
M  V30 549 H 47.9854 -5.7345 -1.28174 0
M  V30 550 H 49.5094 -5.6908 -2.21314 0
M  V30 551 H 50.9234 -5.73271 0.0579047 0
M  V30 552 H 49.3204 -5.94469 0.820165 0
M  V30 553 H 50.3904 -4.64777 1.3824 0
M  V30 554 N 51.7335 -0.305618 -1.54608 0
M  V30 555 C 53.0105 0.355652 -1.92339 0
M  V30 556 C 53.3905 1.71324 -1.23335 0
M  V30 557 O 52.7385 2.25473 -0.370702 0
M  V30 558 C 52.9485 0.46572 -3.45879 0
M  V30 559 C 54.2965 0.734426 -4.182 0
M  V30 560 O 55.3205 0.54935 -3.51938 0
M  V30 561 O 54.1795 1.09024 -5.35515 0
M  V30 562 H 51.2735 0.199666 -0.802535 0
M  V30 563 H 53.8195 -0.354017 -1.65966 0
M  V30 564 H 52.5915 -0.488461 -3.88239 0
M  V30 565 H 52.2145 1.22367 -3.78301 0
M  V30 566 N 53.2116 1.57565 -0.0334293 0
M  V30 567 C 54.6226 1.79746 0.504798 0
M  V30 568 C 54.9736 0.944091 1.71992 0
M  V30 569 O 54.0986 0.155694 2.15839 0
M  V30 570 C 54.6936 3.25997 0.922567 0
M  V30 571 C 53.2526 3.49159 1.40588 0
M  V30 572 C 52.3996 2.74785 0.372633 0
M  V30 573 H 55.3506 1.56565 -0.259436 0
M  V30 574 H 55.3716 3.35945 1.78666 0
M  V30 575 H 54.8836 3.88081 0.0379825 0
M  V30 576 H 52.9846 2.92332 2.31025 0
M  V30 577 H 53.0976 4.57873 1.41028 0
M  V30 578 H 51.4616 2.40391 0.841672 0
M  V30 579 H 52.2446 3.39587 -0.503559 0
M  V30 580 N 54.6897 -0.239769 1.55765 0
M  V30 581 C 55.9147 -0.988373 1.82335 0
M  V30 582 C 56.3397 -1.77886 0.611421 0
M  V30 583 O 55.6977 -1.75889 -0.439639 0
M  V30 584 C 55.7457 -1.89627 3.06715 0
M  V30 585 O 54.8497 -2.98904 2.84131 0
M  V30 586 H 54.1907 -0.280858 0.601677 0
M  V30 587 H 56.7207 -0.258597 2.02959 0
M  V30 588 H 56.7307 -2.30957 3.36338 0
M  V30 589 H 55.4057 -1.31511 3.9456 0
M  V30 590 H 53.9827 -2.61651 2.65694 0
M  V30 591 N 56.1678 -1.49265 -0.50573 0
M  V30 592 C 57.1008 -1.60183 -1.62532 0
M  V30 593 C 58.0788 -0.451107 -1.56217 0
M  V30 594 O 59.2628 -0.666016 -1.76342 0
M  V30 595 C 56.3898 -1.55238 -3.01029 0
M  V30 596 C 55.4358 -2.7545 -3.25621 0
M  V30 597 S 56.2688 -4.37174 -3.09256 0
M  V30 598 C 57.4248 -4.34866 -4.50158 0
M  V30 599 H 57.6578 -2.54894 -1.53025 0
M  V30 600 H 55.1908 -1.38098 -0.690535 0
M  V30 601 H 57.1488 -1.53071 -3.80893 0
M  V30 602 H 55.8098 -0.618238 -3.07956 0
M  V30 603 H 55.0028 -2.68197 -4.26716 0
M  V30 604 H 54.6048 -2.75005 -2.53472 0
M  V30 605 H 56.8968 -4.06295 -5.42154 0
M  V30 606 H 57.8398 -5.36223 -4.62462 0
M  V30 607 H 58.2478 -3.65007 -4.30616 0
M  V30 608 N 57.6459 0.756429 -1.3826 0
M  V30 609 C 58.8739 1.54565 -1.3754 0
M  V30 610 C 59.2889 1.88767 0.0355331 0
M  V30 611 O 58.6459 1.52572 1.0014 0
M  V30 612 C 58.6969 2.84654 -2.22833 0
M  V30 613 O 58.4179 2.51912 -3.5843 0
M  V30 614 C 59.9189 3.78807 -2.30261 0
M  V30 615 H 57.1389 0.478353 -0.470553 0
M  V30 616 H 59.6829 0.936381 -1.81803 0
M  V30 617 H 57.8379 3.41965 -1.8204 0
M  V30 618 H 58.2519 3.35325 -4.03308 0
M  V30 619 H 59.7259 4.67045 -2.94233 0
M  V30 620 H 60.2029 4.19038 -1.31545 0
M  V30 621 H 60.8089 3.2742 -2.71433 0
M  V30 622 N 59.124 1.23083 0.984299 0
M  V30 623 C 60.354 1.08556 1.75781 0
M  V30 624 C 60.762 -0.366171 1.85623 0
M  V30 625 O 60.105 -1.26524 1.33182 0
M  V30 626 C 60.167 1.63208 3.20318 0
M  V30 627 C 59.831 3.11922 3.33997 0
M  V30 628 C 60.828 4.09259 3.2063 0
M  V30 629 C 58.513 3.51552 3.58771 0
M  V30 630 C 60.507 5.4421 3.31835 0
M  V30 631 C 58.194 4.86649 3.69616 0
M  V30 632 C 59.192 5.82787 3.56157 0
M  V30 633 O 58.88 7.15431 3.66626 0
M  V30 634 H 58.612 0.380713 0.5586 0
M  V30 635 H 61.166 1.63321 1.2456 0
M  V30 636 H 59.396 1.0286 3.72769 0
M  V30 637 H 61.085 1.44216 3.79416 0
M  V30 638 H 61.851 3.79984 3.01392 0
M  V30 639 H 57.73 2.77239 3.6832 0
M  V30 640 H 61.274 6.1923 3.21247 0
M  V30 641 H 57.171 5.15601 3.88363 0
M  V30 642 H 57.939 7.23127 3.83445 0
M  V30 643 N 60.6021 -1.18246 1.0419 0
M  V30 644 C 61.8271 -1.92736 0.765996 0
M  V30 645 C 62.2521 -1.75728 -0.67091 0
M  V30 646 O 61.6101 -1.06825 -1.46486 0
M  V30 647 C 61.6581 -3.42148 1.13875 0
M  V30 648 O 60.7621 -4.11548 0.264954 0
M  V30 649 H 60.1031 -0.601238 0.281797 0
M  V30 650 H 62.6331 -1.49942 1.39207 0
M  V30 651 H 62.6431 -3.92858 1.1012 0
M  V30 652 H 61.3181 -3.53848 2.18551 0
M  V30 653 H 59.8951 -3.71137 0.362226 0
M  V30 654 N 62.0802 -0.821533 -1.34494 0
M  V30 655 C 63.3202 -0.414785 -2.00147 0
M  V30 656 C 63.6842 1.00299 -1.6372 0
M  V30 657 O 64.8852 1.51255 -2.22206 0
M  V30 658 C 63.1562 -0.609403 -3.52166 0
M  V30 659 S 64.7152 -0.295297 -4.37805 0
M  V30 660 H 61.5332 -0.15679 -0.693497 0
M  V30 661 H 64.1352 -1.06705 -1.63812 0
M  V30 662 H 62.8392 -1.64096 -3.76166 0
M  V30 663 H 62.3702 0.0576414 -3.93358 0
M  V30 664 H 64.3852 0.891531 -4.88125 0
M  V30 665 N 63.5583 1.46682 -0.576371 0
M  V30 666 C 64.5213 2.28707 0.150239 0
M  V30 667 C 65.5213 1.38035 0.824794 0
M  V30 668 O 66.7113 1.60476 0.677719 0
M  V30 669 C 63.8433 3.18248 1.22192 0
M  V30 670 H 65.0363 2.94423 -0.570521 0
M  V30 671 H 62.5893 1.52688 -0.334078 0
M  V30 672 H 63.3243 2.57265 1.97447 0
M  V30 673 H 63.1093 3.85 0.742812 0
M  V30 674 H 64.5993 3.80001 1.73172 0
M  V30 675 N 65.0364 0.313813 1.54444 0
M  V30 676 C 66.2664 -0.293491 2.04505 0
M  V30 677 C 66.6744 -1.47086 1.19005 0
M  V30 678 O 66.0174 -1.82481 0.211257 0
M  V30 679 C 66.0794 -0.800455 3.50475 0
M  V30 680 C 65.7434 0.253322 4.56297 0
M  V30 681 C 66.7404 1.08612 5.08428 0
M  V30 682 C 64.4254 0.398708 5.00715 0
M  V30 683 C 66.4194 2.05013 6.0353 0
M  V30 684 C 64.1064 1.36614 5.95634 0
M  V30 685 C 65.1044 2.19033 6.46926 0
M  V30 686 O 64.7924 3.14134 7.39983 0
M  V30 687 H 64.5244 -0.0658325 0.672787 0
M  V30 688 H 67.0784 0.455177 2.00293 0
M  V30 689 H 65.3084 -1.59987 3.52053 0
M  V30 690 H 66.9974 -1.32504 3.83663 0
M  V30 691 H 67.7634 0.984736 4.74898 0
M  V30 692 H 63.6424 -0.23289 4.60411 0
M  V30 693 H 67.1864 2.69382 6.4349 0
M  V30 694 H 63.0834 1.4682 6.28581 0
M  V30 695 H 63.8514 3.0926 7.57826 0
M  V30 696 N 66.5145 -1.57545 0.0417849 0
M  V30 697 C 67.7615 -1.92317 -0.634082 0
M  V30 698 C 68.0895 -0.919334 -1.71402 0
M  V30 699 O 67.3445 0.0698253 -1.95575 0
M  V30 700 C 67.6435 -3.33794 -1.27735 0
M  V30 701 C 67.3095 -4.49716 -0.326543 0
M  V30 702 C 65.9715 -4.81156 -0.0648814 0
M  V30 703 C 68.3235 -5.20182 0.325623 0
M  V30 704 C 65.6515 -5.80414 0.856539 0
M  V30 705 C 68.0035 -6.20424 1.23518 0
M  V30 706 C 66.6675 -6.50298 1.5056 0
M  V30 707 H 65.9375 -0.703736 -0.232027 0
M  V30 708 H 68.5845 -1.91205 0.106259 0
M  V30 709 H 66.8895 -3.31228 -2.09274 0
M  V30 710 H 68.5865 -3.57975 -1.80707 0
M  V30 711 H 65.1765 -4.25176 -0.540665 0
M  V30 712 H 69.3605 -4.96112 0.136546 0
M  V30 713 H 64.6165 -6.019 1.07363 0
M  V30 714 H 68.7905 -6.74141 1.74664 0
M  V30 715 H 66.4175 -7.27025 2.22123 0
M  V30 716 N 67.9926 0.231505 -1.5589 0
M  V30 717 C 68.9026 1.308 -1.94752 0
M  V30 718 C 69.9186 1.51826 -0.849989 0
M  V30 719 O 71.0946 1.6515 -1.15271 0
M  V30 720 C 68.1596 2.63968 -2.24771 0
M  V30 721 C 67.2206 2.51331 -3.48039 0
M  V30 722 C 66.4536 3.78148 -3.76616 0
M  V30 723 O 66.6766 4.80722 -3.07022 0
M  V30 724 O 65.6106 3.75857 -4.70123 0
M  V30 725 H 69.4366 1.0083 -2.86474 0
M  V30 726 H 67.0216 0.433547 -1.42971 0
M  V30 727 H 68.9036 3.42633 -2.45318 0
M  V30 728 H 67.5786 2.9364 -1.36225 0
M  V30 729 H 66.4856 1.709 -3.32782 0
M  V30 730 H 67.8186 2.26601 -4.36936 0
M  V30 731 N 69.4707 1.49531 0.497807 0
M  V30 732 C 70.8867 1.36365 0.829266 0
M  V30 733 C 71.0867 0.399184 1.97506 0
M  V30 734 O 70.1427 -0.167977 2.51941 0
M  V30 735 C 71.4557 2.77153 1.16647 0
M  V30 736 C 73.0037 2.85877 1.27449 0
M  V30 737 C 73.4787 4.2744 1.64497 0
M  V30 738 N 74.9697 4.30265 1.7154 0
M  V30 739 C 75.7047 5.3677 2.01656 0
M  V30 740 N 75.2007 6.53516 2.29976 0
M  V30 741 N 76.9937 5.24189 2.02934 0
M  V30 742 H 69.1447 2.10831 -0.257703 0
M  V30 743 H 71.4077 0.946534 -0.0527091 0
M  V30 744 H 71.1137 3.49442 0.397872 0
M  V30 745 H 70.9877 3.12722 2.10915 0
M  V30 746 H 73.3747 2.13824 2.0338 0
M  V30 747 H 73.4557 2.53887 0.312244 0
M  V30 748 H 73.0997 5.00021 0.891151 0
M  V30 749 H 73.0297 4.56896 2.61827 0
M  V30 750 H 75.5207 3.4607 1.51802 0
M  V30 751 H 75.8337 7.30506 2.52153 0
M  V30 752 H 74.1787 6.56737 2.27425 0
M  V30 753 H 77.3697 4.31988 1.80289 0
M  V30 754 H 77.5427 6.07286 2.26071 0
M  V30 755 N 70.9488 -0.749086 1.3866 0
M  V30 756 C 72.3598 -1.32664 1.31366 0
M  V30 757 C 72.7108 -1.96179 -0.028484 0
M  V30 758 O 71.8358 -1.9537 -0.93057 0
M  V30 759 C 72.4308 -2.41219 2.37905 0
M  V30 760 C 70.9898 -2.94684 2.34176 0
M  V30 761 C 70.1368 -1.68108 2.20533 0
M  V30 762 H 73.0878 -0.547628 1.48952 0
M  V30 763 H 73.1088 -3.21268 2.0388 0
M  V30 764 H 72.6208 -1.94962 3.35576 0
M  V30 765 H 70.7218 -3.45258 1.401 0
M  V30 766 H 70.8348 -3.48757 3.2849 0
M  V30 767 H 69.1988 -1.91907 1.67463 0
M  V30 768 H 69.9818 -1.23923 3.20153 0
M  V30 769 N 72.4269 -1.23603 -0.977757 0
M  V30 770 C 73.7039 -0.977897 -1.69401 0
M  V30 771 C 74.0839 0.502738 -2.05026 0
M  V30 772 O 73.4319 1.47459 -1.74551 0
M  V30 773 C 73.6419 -1.89077 -2.93345 0
M  V30 774 C 74.9899 -2.15579 -3.65802 0
M  V30 775 O 76.0139 -1.86648 -3.03383 0
M  V30 776 O 74.8729 -2.64658 -4.78141 0
M  V30 777 H 71.9669 -0.369025 -0.740101 0
M  V30 778 H 74.5129 -1.34657 -1.03274 0
M  V30 779 H 73.2849 -2.89158 -2.63634 0
M  V30 780 H 72.9079 -1.52463 -3.67207 0
M  V30 781 N 73.905 1.17692 -1.04816 0
M  V30 782 C 74.838 2.20436 -0.590173 0
M  V30 783 C 75.816 1.58115 0.379244 0
M  V30 784 O 77 1.86228 0.291762 0
M  V30 785 C 74.127 3.38424 0.136817 0
M  V30 786 C 73.173 4.19176 -0.787023 0
M  V30 787 S 74.006 4.84815 -2.27409 0
M  V30 788 C 75.162 6.06195 -1.55817 0
M  V30 789 H 75.395 2.58944 -1.46067 0
M  V30 790 H 72.928 1.28246 -0.859784 0
M  V30 791 H 74.886 4.06798 0.550076 0
M  V30 792 H 73.547 2.98312 0.983299 0
M  V30 793 H 72.74 5.03499 -0.224681 0
M  V30 794 H 72.342 3.56219 -1.13947 0
M  V30 795 H 74.634 6.72078 -0.855387 0
M  V30 796 H 75.577 6.6695 -2.37873 0
M  V30 797 H 75.985 5.54701 -1.04722 0
M  V30 798 N 75.3831 0.828654 1.34056 0
M  V30 799 C 76.6111 0.43262 2.02326 0
M  V30 800 C 77.0261 -0.963147 1.62385 0
M  V30 801 O 76.3831 -1.62425 0.832121 0
M  V30 802 C 76.4341 0.53182 3.57567 0
M  V30 803 O 76.1551 1.87258 3.96063 0
M  V30 804 C 77.6561 0.131422 4.43105 0
M  V30 805 H 74.8761 0.172923 0.648335 0
M  V30 806 H 77.4201 1.1184 1.71208 0
M  V30 807 H 75.5751 -0.105938 3.87255 0
M  V30 808 H 75.9891 1.85087 4.90758 0
M  V30 809 H 77.4631 0.251904 5.51425 0
M  V30 810 H 77.9401 -0.925645 4.29335 0
M  V30 811 H 78.5461 0.743207 4.18756 0
M  V30 812 N 76.8612 -1.46375 0.584142 0
M  V30 813 C 77.7912 -2.33103 -0.136037 0
M  V30 814 C 78.7722 -1.45431 -0.882255 0
M  V30 815 O 79.9572 -1.74246 -0.857434 0
M  V30 816 C 77.0872 -3.27731 -1.14933 0
M  V30 817 C 76.0412 -4.24855 -0.517862 0
M  V30 818 C 75.3672 -5.09001 -1.63773 0
M  V30 819 C 76.6672 -5.19439 0.545886 0
M  V30 820 H 78.3612 -2.93568 0.588086 0
M  V30 821 H 75.9072 -1.41166 0.284259 0
M  V30 822 H 77.8602 -3.87261 -1.66153 0
M  V30 823 H 76.5842 -2.65377 -1.90375 0
M  V30 824 H 75.2432 -3.6659 -0.0267361 0
M  V30 825 H 74.8912 -4.43031 -2.38185 0
M  V30 826 H 74.5912 -5.74777 -1.22085 0
M  V30 827 H 76.1152 -5.71396 -2.15266 0
M  V30 828 H 77.5292 -5.73177 0.118704 0
M  V30 829 H 75.9262 -5.93566 0.88317 0
M  V30 830 H 76.9962 -4.63285 1.43162 0
M  V30 831 N 78.3393 -0.321999 -1.54275 0
M  V30 832 C 79.2493 0.553631 -2.27974 0
M  V30 833 C 80.2653 1.13054 -1.32268 0
M  V30 834 O 81.4413 1.15084 -1.6528 0
M  V30 835 C 78.5063 1.69927 -3.02201 0
M  V30 836 C 77.5673 1.15433 -4.1349 0
M  V30 837 C 76.8003 2.24537 -4.84168 0
M  V30 838 O 77.0233 3.44852 -4.5435 0
M  V30 839 O 75.9573 1.90044 -5.7111 0
M  V30 840 H 79.7833 -0.0448345 -3.03667 0
M  V30 841 H 77.3683 -0.0877418 -1.49142 0
M  V30 842 H 79.2503 2.3663 -3.48689 0
M  V30 843 H 77.9253 2.28395 -2.29385 0
M  V30 844 H 76.8323 0.452436 -3.71354 0
M  V30 845 H 78.1653 0.614805 -4.88345 0
M  V30 846 N 79.8174 1.5752 -0.0501392 0
M  V30 847 C 80.7274 2.14952 0.939827 0
M  V30 848 C 81.7434 1.10706 1.34239 0
M  V30 849 O 82.9194 1.42869 1.41952 0
M  V30 850 C 79.9844 2.68232 2.19665 0
M  V30 851 C 79.0454 3.87272 1.85253 0
M  V30 852 C 78.2784 4.38002 3.04943 0
M  V30 853 O 78.5014 3.87811 4.18281 0
M  V30 854 O 77.4354 5.29602 2.86017 0
M  V30 855 H 81.2614 2.9986 0.481392 0
M  V30 856 H 78.8464 1.4841 0.171699 0
M  V30 857 H 80.7284 3.02475 2.93406 0
M  V30 858 H 79.4034 1.86395 2.64648 0
M  V30 859 H 78.3104 3.5792 1.0883 0
M  V30 860 H 79.6434 4.70336 1.4507 0
M  V30 861 N 81.2955 -0.223234 1.56011 0
M  V30 862 C 82.2585 -1.26014 1.9145 0
M  V30 863 C 83.2585 -1.3989 0.792937 0
M  V30 864 O 84.4485 -1.38184 1.0607 0
M  V30 865 C 81.5805 -2.63422 2.16383 0
M  V30 866 H 82.7735 -0.95796 2.84189 0
M  V30 867 H 80.3265 -0.463576 1.49267 0
M  V30 868 H 81.0615 -2.98741 1.2619 0
M  V30 869 H 80.8465 -2.54728 2.98088 0
M  V30 870 H 82.3365 -3.38249 2.44903 0
M  V30 871 N 82.7736 -1.49793 -0.48987 0
M  V30 872 C 83.7056 -1.63413 -1.60713 0
M  V30 873 C 84.7186 -0.516329 -1.54395 0
M  V30 874 O 85.9076 -0.788812 -1.60125 0
M  V30 875 C 83.0076 -1.58516 -2.99543 0
M  V30 876 C 82.1806 -2.86016 -3.30928 0
M  V30 877 C 81.2396 -2.74018 -4.49222 0
M  V30 878 O 80.2656 -3.47964 -4.50455 0
M  V30 879 N 81.4676 -1.86309 -5.4979 0
M  V30 880 H 84.2326 -2.59777 -1.49452 0
M  V30 881 H 81.7936 -1.47022 -0.677955 0
M  V30 882 H 83.7856 -1.48128 -3.76617 0
M  V30 883 H 82.3556 -0.69965 -3.0467 0
M  V30 884 H 81.5756 -3.10672 -2.42645 0
M  V30 885 H 82.8636 -3.70521 -3.487 0
M  V30 886 H 82.2616 -1.2551 -5.51601 0
M  V30 887 H 80.8186 -1.81837 -6.25922 0
M  V30 888 N 84.2517 0.741722 -1.39055 0
M  V30 889 C 85.4817 1.52876 -1.3897 0
M  V30 890 C 85.8897 1.8919 0.0193266 0
M  V30 891 O 85.2327 1.54138 0.999356 0
M  V30 892 C 85.2947 2.84929 -2.19216 0
M  V30 893 C 84.9587 2.71086 -3.67915 0
M  V30 894 C 85.9557 2.40084 -4.61146 0
M  V30 895 C 83.6407 2.88168 -4.11418 0
M  V30 896 C 85.6347 2.26335 -5.95862 0
M  V30 897 C 83.3217 2.74037 -5.46211 0
M  V30 898 C 84.3197 2.43166 -6.38247 0
M  V30 899 O 84.0077 2.29115 -7.70559 0
M  V30 900 H 83.7397 0.479252 -0.476753 0
M  V30 901 H 86.2937 0.924751 -1.83405 0
M  V30 902 H 84.5237 3.47564 -1.69518 0
M  V30 903 H 86.2127 3.46509 -2.11392 0
M  V30 904 H 86.9787 2.26545 -4.28838 0
M  V30 905 H 82.8577 3.11191 -3.40119 0
M  V30 906 H 86.4017 2.0216 -6.67665 0
M  V30 907 H 82.2987 2.87153 -5.78112 0
M  V30 908 H 83.0667 2.44237 -7.81211 0
M  V30 909 N 85.7298 1.2412 0.971189 0
M  V30 910 C 86.6928 1.03156 2.04674 0
M  V30 911 C 87.6928 -0.00990322 1.60797 0
M  V30 912 O 88.8828 0.230729 1.72665 0
M  V30 913 C 86.0148 0.562765 3.36223 0
M  V30 914 H 87.2078 1.98614 2.24705 0
M  V30 915 H 84.7608 1.06293 1.14593 0
M  V30 916 H 85.4958 -0.395176 3.21883 0
M  V30 917 H 85.2808 1.31441 3.69413 0
M  V30 918 H 86.7708 0.437015 4.15307 0
M  V30 919 N 87.2079 -1.17134 1.05439 0
M  V30 920 C 88.1549 -2.21235 0.657539 0
M  V30 921 C 89.1249 -1.62551 -0.341543 0
M  V30 922 O 90.3099 -1.89379 -0.232393 0
M  V30 923 C 87.4499 -3.45076 0.0410575 0
M  V30 924 C 86.5629 -4.18042 1.08927 0
M  V30 925 C 85.6979 -5.29376 0.439848 0
M  V30 926 C 84.7369 -5.94132 1.4722 0
M  V30 927 N 83.8739 -6.96975 0.846756 0
M  V30 928 H 88.7139 -2.54534 1.54972 0
M  V30 929 H 86.2509 -1.25028 0.775006 0
M  V30 930 H 88.2089 -4.15862 -0.33383 0
M  V30 931 H 86.8389 -3.12353 -0.814568 0
M  V30 932 H 85.8909 -3.45945 1.58196 0
M  V30 933 H 87.2029 -4.62306 1.87282 0
M  V30 934 H 86.3569 -6.06699 0.0115125 0
M  V30 935 H 85.0959 -4.86251 -0.375656 0
M  V30 936 H 84.1009 -5.15538 1.91052 0
M  V30 937 H 85.3259 -6.39337 2.28965 0
M  V30 938 H 83.2719 -6.5598 0.0518075 0
M  V30 939 H 83.1889 -7.39565 1.5678 0
M  V30 940 H 84.4569 -7.78239 0.443277 0
M  V30 941 N 88.686 -0.835752 -1.33615 0
M  V30 942 C 90.102 -0.523139 -1.50783 0
M  V30 943 C 90.302 0.950171 -1.77691 0
M  V30 944 O 89.358 1.73411 -1.83534 0
M  V30 945 C 90.671 -1.39378 -2.66448 0
M  V30 946 C 92.219 -1.39223 -2.80332 0
M  V30 947 C 92.694 -2.24765 -3.99055 0
M  V30 948 N 94.185 -2.22458 -4.06284 0
M  V30 949 C 94.92 -2.85386 -4.97336 0
M  V30 950 N 94.416 -3.57354 -5.93523 0
M  V30 951 N 96.209 -2.74872 -4.90308 0
M  V30 952 H 88.36 -1.78952 -1.14411 0
M  V30 953 H 90.623 -0.763297 -0.562212 0
M  V30 954 H 90.329 -2.44061 -2.53234 0
M  V30 955 H 90.203 -1.0676 -3.61776 0
M  V30 956 H 92.59 -0.353136 -2.92979 0
M  V30 957 H 92.671 -1.75846 -1.85773 0
M  V30 958 H 92.315 -3.28732 -3.87167 0
M  V30 959 H 92.245 -1.85485 -4.92852 0
M  V30 960 H 94.736 -1.70119 -3.37443 0
M  V30 961 H 95.049 -4.02584 -6.59656 0
M  V30 962 H 93.394 -3.61461 -5.93608 0
M  V30 963 H 96.585 -2.18213 -4.14126 0
M  V30 964 H 96.758 -3.24199 -5.61069 0
M  V30 965 N 90.1641 1.46063 -0.591896 0
M  V30 966 C 91.1111 2.30399 0.136069 0
M  V30 967 C 92.0811 1.41169 0.875238 0
M  V30 968 O 93.2661 1.70112 0.86409 0
M  V30 969 C 90.4061 3.25804 1.13781 0
M  V30 970 C 89.5191 4.30134 0.401137 0
M  V30 971 C 88.6541 5.12659 1.39121 0
M  V30 972 C 87.6931 6.0873 0.641462 0
M  V30 973 N 86.8301 6.8409 1.58004 0
M  V30 974 H 91.6701 2.92118 -0.589144 0
M  V30 975 H 89.2071 1.43959 -0.302342 0
M  V30 976 H 91.1651 3.79569 1.73156 0
M  V30 977 H 89.7951 2.65872 1.83062 0
M  V30 978 H 88.8471 3.79152 -0.307826 0
M  V30 979 H 90.1591 4.98458 -0.184565 0
M  V30 980 H 89.3131 5.70747 2.05749 0
M  V30 981 H 88.0521 4.44316 2.01084 0
M  V30 982 H 87.0571 5.49786 -0.0385419 0
M  V30 983 H 88.2821 6.79095 0.0270945 0
M  V30 984 H 86.2281 6.18449 2.18761 0
M  V30 985 H 86.1451 7.48709 1.04738 0
M  V30 986 H 87.4131 7.4673 2.23639 0
M  V30 987 N 91.6422 0.330177 1.54103 0
M  V30 988 C 92.5722 -0.525353 2.27513 0
M  V30 989 C 93.5532 -1.11383 1.2856 0
M  V30 990 O 94.7382 -1.13773 1.57383 0
M  V30 991 C 91.8682 -1.6831 3.03791 0
M  V30 992 C 90.8222 -1.2236 4.10137 0
M  V30 993 C 90.1482 -2.46882 4.74293 0
M  V30 994 C 91.4482 -0.333697 5.21233 0
M  V30 995 H 93.1422 0.087013 2.99274 0
M  V30 996 H 90.6882 0.0432893 1.43935 0
M  V30 997 H 92.6412 -2.28795 3.5388 0
M  V30 998 H 91.3652 -2.32216 2.29659 0
M  V30 999 H 90.0242 -0.64165 3.60941 0
M  V30 1000 H 89.6722 -3.09165 3.96769 0
M  V30 1001 H 89.3722 -2.16825 5.46133 0
M  V30 1002 H 90.8962 -3.08117 5.27159 0
M  V30 1003 H 92.3102 -0.845013 5.67038 0
M  V30 1004 H 90.7072 -0.125612 5.99969 0
M  V30 1005 H 91.7772 0.633724 4.80741 0
M  V30 1006 N 93.1203 -1.57491 0.0584922 0
M  V30 1007 C 94.0833 -2.1085 -0.898617 0
M  V30 1008 C 95.0833 -1.02964 -1.23511 0
M  V30 1009 O 96.2733 -1.29007 -1.17059 0
M  V30 1010 C 93.4053 -2.59881 -2.20623 0
M  V30 1011 H 94.5983 -2.96715 -0.435936 0
M  V30 1012 H 92.1513 -1.55141 -0.190023 0
M  V30 1013 H 92.8863 -1.77431 -2.71457 0
M  V30 1014 H 92.6713 -3.38727 -1.97501 0
M  V30 1015 H 94.1613 -3.01285 -2.89166 0
M  V30 1016 N 94.5984 0.214957 -1.56127 0
M  V30 1017 C 95.5284 1.2695 -1.95974 0
M  V30 1018 C 96.5094 1.48539 -0.828868 0
M  V30 1019 O 97.6944 1.60611 -1.09168 0
M  V30 1020 C 94.8244 2.61794 -2.28214 0
M  V30 1021 C 93.7784 2.54851 -3.43853 0
M  V30 1022 C 93.1044 3.93785 -3.61715 0
M  V30 1023 C 94.4044 2.09065 -4.78632 0
M  V30 1024 H 96.0984 0.93846 -2.84312 0
M  V30 1025 H 93.6444 0.449996 -1.36788 0
M  V30 1026 H 95.5974 3.35731 -2.54682 0
M  V30 1027 H 94.3214 2.96599 -1.36736 0
M  V30 1028 H 92.9804 1.8337 -3.17444 0
M  V30 1029 H 92.6284 4.25908 -2.67602 0
M  V30 1030 H 92.3284 3.90019 -4.39498 0
M  V30 1031 H 93.8524 4.69374 -3.90539 0
M  V30 1032 H 95.2664 2.7275 -5.04262 0
M  V30 1033 H 93.6634 2.16346 -5.59745 0
M  V30 1034 H 94.7334 1.04315 -4.73547 0
M  V30 1035 N 96.0765 1.50051 0.48192 0
M  V30 1036 C 97.3535 1.51009 1.2432 0
M  V30 1037 C 97.7335 0.248587 2.09631 0
M  V30 1038 O 97.0815 -0.768409 2.15192 0
M  V30 1039 C 97.2915 2.79981 2.08355 0
M  V30 1040 C 98.6395 3.3022 2.66908 0
M  V30 1041 O 99.6635 2.81228 2.18607 0
M  V30 1042 O 98.5225 4.15595 3.54884 0
M  V30 1043 H 95.6165 0.605239 0.563573 0
M  V30 1044 H 98.1625 1.62332 0.494627 0
M  V30 1045 H 96.9345 3.63275 1.45419 0
M  V30 1046 H 96.5575 2.7161 2.90368 0
M  V30 1047 N 97.5546 -0.734337 1.39446 0
M  V30 1048 C 98.5016 -1.84835 1.38219 0
M  V30 1049 C 99.4716 -1.64331 0.24179 0
M  V30 1050 O 100.657 -1.85728 0.437002 0
M  V30 1051 C 97.7966 -3.22355 1.23212 0
M  V30 1052 C 96.9096 -3.5456 2.46801 0
M  V30 1053 C 96.0446 -4.81485 2.24377 0
M  V30 1054 C 95.0836 -5.06536 3.43639 0
M  V30 1055 N 94.2206 -6.24665 3.20528 0
M  V30 1056 H 99.0606 -1.85219 2.33448 0
M  V30 1057 H 96.5976 -0.905039 1.15963 0
M  V30 1058 H 98.5556 -4.0174 1.12522 0
M  V30 1059 H 97.1856 -3.21248 0.316121 0
M  V30 1060 H 96.2376 -2.69872 2.68092 0
M  V30 1061 H 97.5496 -3.6899 3.3563 0
M  V30 1062 H 96.7036 -5.68852 2.10933 0
M  V30 1063 H 95.4426 -4.6923 1.32944 0
M  V30 1064 H 94.4476 -4.17632 3.5758 0
M  V30 1065 H 95.6726 -5.20676 4.35974 0
M  V30 1066 H 93.6186 -6.13696 2.3176 0
M  V30 1067 H 93.5356 -6.39685 4.02913 0
M  V30 1068 H 94.8036 -7.14868 3.10779 0
M  V30 1069 N 99.0327 -1.24633 -0.964593 0
M  V30 1070 C 99.9627 -1.06611 -2.07741 0
M  V30 1071 C 100.944 0.0218666 -1.70086 0
M  V30 1072 O 102.129 -0.145793 -1.93652 0
M  V30 1073 C 99.2587 -0.673444 -3.40708 0
M  V30 1074 C 98.2127 -1.71054 -3.92332 0
M  V30 1075 C 97.5387 -1.17285 -5.21678 0
M  V30 1076 C 98.8387 -3.10718 -4.19824 0
M  V30 1077 H 100.533 -1.99693 -2.23076 0
M  V30 1078 H 98.0787 -0.96152 -1.07195 0
M  V30 1079 H 100.032 -0.534345 -4.17998 0
M  V30 1080 H 98.7557 0.293073 -3.25282 0
M  V30 1081 H 97.4147 -1.83791 -3.17201 0
M  V30 1082 H 97.0627 -0.196847 -5.02615 0
M  V30 1083 H 96.7627 -1.86592 -5.57187 0
M  V30 1084 H 98.2867 -1.04593 -6.01575 0
M  V30 1085 H 99.7007 -3.01192 -4.87808 0
M  V30 1086 H 98.0977 -3.77406 -4.66567 0
M  V30 1087 H 99.1677 -3.58524 -3.26479 0
M  V30 1088 N 100.511 1.16574 -1.06058 0
M  V30 1089 C 101.459 2.22941 -0.663343 0
M  V30 1090 C 102.453 1.66358 0.319593 0
M  V30 1091 O 103.659 1.7905 0.184713 0
M  V30 1092 H 100.034 0.725907 -0.196376 0
M  V30 1093 H 102.005 2.53736 -1.57037 0
M  V30 1094 C 100.754 3.47642 -0.0632808 0
M  V30 1095 H 100.077 3.91493 -0.810733 0
M  V30 1096 H 101.517 4.2363 0.177177 0
M  V30 1097 C 99.9758 3.1509 1.19248 0
M  V30 1098 O 100.506 3.30673 2.28075 0
M  V30 1099 N 98.7118 2.6924 1.09353 0
M  V30 1100 H 98.2588 2.5676 0.207912 0
M  V30 1101 H 98.2168 2.47833 1.93458 0
M  V30 1102 N 101.989 0.842826 1.3317 0
M  V30 1103 C 102.919 0.294028 2.31641 0
M  V30 1104 C 103.9 -0.600401 1.59151 0
M  V30 1105 O 105.085 -0.523124 1.87022 0
M  V30 1106 C 102.215 -0.528416 3.43257 0
M  V30 1107 C 101.169 0.27056 4.27144 0
M  V30 1108 C 100.495 -0.675881 5.30411 0
M  V30 1109 C 101.795 1.48981 5.00602 0
M  V30 1110 H 103.489 1.11681 2.77791 0
M  V30 1111 H 101.035 0.538478 1.33553 0
M  V30 1112 H 102.988 -0.922674 4.11175 0
M  V30 1113 H 101.712 -1.38445 2.95805 0
M  V30 1114 H 100.371 0.646427 3.60856 0
M  V30 1115 H 100.019 -1.52842 4.79216 0
M  V30 1116 H 99.7189 -0.145374 5.8742 0
M  V30 1117 H 101.243 -1.06757 6.01195 0
M  V30 1118 H 102.657 1.16849 5.61266 0
M  V30 1119 H 101.054 1.95739 5.6728 0
M  V30 1120 H 102.124 2.25746 4.29147 0
M  V30 1121 N 103.467 -1.45747 0.599634 0
M  V30 1122 C 104.377 -2.34262 -0.125888 0
M  V30 1123 C 105.393 -1.50768 -0.868625 0
M  V30 1124 O 106.569 -1.83592 -0.828003 0
M  V30 1125 C 103.634 -3.28252 -1.11587 0
M  V30 1126 C 102.695 -4.27651 -0.375956 0
M  V30 1127 C 101.928 -5.1715 -1.31877 0
M  V30 1128 O 102.151 -5.09916 -2.55621 0
M  V30 1129 O 101.085 -5.96286 -0.820157 0
M  V30 1130 H 104.911 -2.97688 0.601315 0
M  V30 1131 H 102.496 -1.44999 0.359934 0
M  V30 1132 H 104.378 -3.86191 -1.68626 0
M  V30 1133 H 103.053 -2.67401 -1.82424 0
M  V30 1134 H 101.96 -3.7335 0.236698 0
M  V30 1135 H 103.293 -4.91334 0.29177 0
M  V30 1136 N 104.945 -0.338344 -1.53925 0
M  V30 1137 C 106.356 0.146651 -1.86123 0
M  V30 1138 C 106.707 1.5042 -1.2597 0
M  V30 1139 O 105.832 2.08723 -0.571294 0
M  V30 1140 C 106.427 0.272879 -3.37699 0
M  V30 1141 C 104.986 0.702103 -3.69794 0
M  V30 1142 C 104.133 -0.167304 -2.76795 0
M  V30 1143 H 107.084 -0.558123 -1.48562 0
M  V30 1144 H 107.105 1.10128 -3.64214 0
M  V30 1145 H 106.617 -0.715307 -3.81451 0
M  V30 1146 H 104.718 1.6995 -3.31584 0
M  V30 1147 H 104.831 0.495604 -4.7653 0
M  V30 1148 H 103.195 0.359527 -2.5215 0
M  V30 1149 H 103.978 -1.15253 -3.23375 0
M  V30 1150 N 106.423 1.57458 -0.0668435 0
M  V30 1151 C 107.671 1.92919 0.602214 0
M  V30 1152 C 107.992 0.947215 1.70449 0
M  V30 1153 O 107.262 -0.00544117 1.95899 0
M  V30 1154 H 105.842 0.71217 0.22544 0
M  V30 1155 H 108.504 1.94508 -0.123535 0
M  V30 1156 H 107.6 2.94589 1.03073 0
M  V30 1157 N 107.901 -0.206675 1.56239 0
M  V30 1158 C 108.834 -1.28383 1.88661 0
M  V30 1159 C 109.812 -1.44504 0.745481 0
M  V30 1160 O 110.996 -1.60079 0.995336 0
M  V30 1161 C 108.123 -2.65211 2.10667 0
M  V30 1162 C 107.169 -2.66025 3.33366 0
M  V30 1163 S 108.002 -2.18609 4.88846 0
M  V30 1164 C 109.158 -3.57283 5.13906 0
M  V30 1165 H 109.391 -1.00691 2.7973 0
M  V30 1166 H 106.924 -0.409627 1.48867 0
M  V30 1167 H 108.882 -3.43979 2.24029 0
M  V30 1168 H 107.543 -2.90121 1.20369 0
M  V30 1169 H 106.736 -3.66607 3.45855 0
M  V30 1170 H 106.338 -1.95331 3.18938 0
M  V30 1171 H 108.63 -4.53074 5.03717 0
M  V30 1172 H 109.573 -3.49699 6.15724 0
M  V30 1173 H 109.981 -3.51659 4.41583 0
M  V30 1174 N 109.379 -1.50304 -0.473955 0
M  V30 1175 C 110.607 -1.64902 -1.24959 0
M  V30 1176 C 111.022 -0.331198 -1.85872 0
M  V30 1177 O 110.379 0.68652 -1.69095 0
M  V30 1178 C 110.43 -2.73803 -2.36038 0
M  V30 1179 O 110.151 -4.00477 -1.77624 0
M  V30 1180 C 111.652 -2.99349 -3.26964 0
M  V30 1181 H 108.872 -0.554383 -0.378022 0
M  V30 1182 H 111.416 -1.9651 -0.566054 0
M  V30 1183 H 109.571 -2.44898 -3.00173 0
M  V30 1184 H 109.985 -4.60678 -2.5075 0
M  V30 1185 H 111.459 -3.79217 -4.01121 0
M  V30 1186 H 111.936 -2.10307 -3.85574 0
M  V30 1187 H 112.542 -3.29774 -2.68569 0
M  V30 1188 N 110.857 0.726932 -1.39834 0
M  V30 1189 C 111.787 1.85405 -1.41941 0
M  V30 1190 C 112.768 1.67751 -0.281728 0
M  V30 1191 O 113.953 1.8795 -0.488717 0
M  V30 1192 C 111.083 3.23243 -1.2701 0
M  V30 1193 C 110.037 3.55549 -2.38262 0
M  V30 1194 C 109.363 4.9241 -2.08415 0
M  V30 1195 C 110.663 3.577 -3.80589 0
M  V30 1196 H 112.357 1.83899 -2.36266 0
M  V30 1197 H 109.903 0.883349 -1.13723 0
M  V30 1198 H 111.856 4.01775 -1.27103 0
M  V30 1199 H 110.58 3.25296 -0.291564 0
M  V30 1200 H 109.239 2.79351 -2.37399 0
M  V30 1201 H 108.887 4.91052 -1.0898 0
M  V30 1202 H 108.587 5.14992 -2.82943 0
M  V30 1203 H 110.111 5.73289 -2.10171 0
M  V30 1204 H 111.525 4.26293 -3.83337 0
M  V30 1205 H 109.922 3.91804 -4.54543 0
M  V30 1206 H 110.992 2.57328 -4.10987 0
M  V30 1207 N 112.336 1.25143 0.95797 0
M  V30 1208 C 113.266 1.07711 2.07173 0
M  V30 1209 C 114.247 -0.0128462 1.70095 0
M  V30 1210 O 115.432 0.156061 1.93572 0
M  V30 1211 C 112.562 0.691503 3.40346 0
M  V30 1212 C 111.516 1.73132 3.9142 0
M  V30 1213 C 110.842 1.20049 5.21049 0
M  V30 1214 C 112.142 3.1294 4.1817 0
M  V30 1215 H 113.836 2.00873 2.22014 0
M  V30 1216 H 111.382 0.967191 1.06684 0
M  V30 1217 H 113.335 0.556505 4.17709 0
M  V30 1218 H 112.059 -0.275819 3.25433 0
M  V30 1219 H 110.718 1.8547 3.16222 0
M  V30 1220 H 110.366 0.223499 5.02503 0
M  V30 1221 H 110.066 1.89545 5.56189 0
M  V30 1222 H 111.59 1.07782 6.01012 0
M  V30 1223 H 113.004 3.03775 4.86203 0
M  V30 1224 H 111.401 3.79875 4.64559 0
M  V30 1225 H 112.471 3.6025 3.24573 0
M  V30 1226 N 113.814 -1.1601 1.06675 0
M  V30 1227 C 115.091 -1.82679 0.699114 0
M  V30 1228 C 115.471 -1.94559 -0.819137 0
M  V30 1229 O 114.819 -1.49169 -1.73092 0
M  V30 1230 C 115.029 -3.19445 1.40555 0
M  V30 1231 C 116.377 -3.95171 1.55323 0
M  V30 1232 O 117.401 -3.28976 1.36577 0
M  V30 1233 O 116.26 -5.13833 1.86112 0
M  V30 1234 H 113.354 -0.788954 0.247951 0
M  V30 1235 H 115.9 -1.23179 1.16726 0
M  V30 1236 H 114.672 -3.05856 2.44065 0
M  V30 1237 H 114.295 -3.86625 0.927733 0
M  V30 1238 N 115.292 -0.849877 -1.32721 0
M  V30 1239 C 116.541 -0.447175 -1.96681 0
M  V30 1240 C 116.854 1.00135 -1.68025 0
M  V30 1241 O 118.06 1.50926 -2.25685 0
M  V30 1242 C 116.516 -0.7487 -3.52026 0
M  V30 1243 C 116.124 -2.21264 -3.89546 0
M  V30 1244 C 117.868 -0.413487 -4.22481 0
M  V30 1245 C 115.775 -2.45763 -5.37917 0
M  V30 1246 H 114.705 -0.163486 -0.736063 0
M  V30 1247 H 117.356 -1.03999 -1.51183 0
M  V30 1248 H 115.738 -0.0853727 -3.95908 0
M  V30 1249 H 116.912 -2.91736 -3.56689 0
M  V30 1250 H 115.227 -2.5119 -3.32103 0
M  V30 1251 H 117.824 -0.574017 -5.3161 0
M  V30 1252 H 118.167 0.644492 -4.11281 0
M  V30 1253 H 118.7 -1.03251 -3.84167 0
M  V30 1254 H 115.439 -3.50168 -5.54132 0
M  V30 1255 H 114.959 -1.79864 -5.72197 0
M  V30 1256 H 116.638 -2.29471 -6.0494 0
M  V30 1257 N 116.77 1.45427 -0.607355 0
M  V30 1258 C 118.018 2.01841 -0.102253 0
M  V30 1259 C 118.339 1.47832 1.27164 0
M  V30 1260 O 117.609 0.672497 1.83995 0
M  V30 1261 H 116.189 0.746188 -0.0348101 0
M  V30 1262 H 118.851 1.78229 -0.7887 0
M  V30 1263 H 117.947 3.12057 -0.0518585 0
M  V30 1264 N 118.248 0.346503 1.53744 0
M  V30 1265 C 119.488 -0.249413 2.02873 0
M  V30 1266 C 119.852 -1.47532 1.22876 0
M  V30 1267 O 121.053 -2.1456 1.61918 0
M  V30 1268 C 119.324 -0.552909 3.53097 0
M  V30 1269 S 120.883 -1.12521 4.24128 0
M  V30 1270 H 117.701 -0.074042 0.707134 0
M  V30 1271 H 120.303 0.48495 1.8939 0
M  V30 1272 H 119.007 0.347083 4.0893 0
M  V30 1273 H 118.538 -1.31686 3.70705 0
M  V30 1274 H 120.553 -2.41075 4.33702 0
M  V30 1275 N 119.726 -1.57421 0.075193 0
M  V30 1276 C 120.974 -1.93236 -0.591974 0
M  V30 1277 C 121.295 -0.956241 -1.69944 0
M  V30 1278 O 120.565 -0.00494792 -1.95899 0
M  V30 1279 H 119.145 -0.713355 -0.22166 0
M  V30 1280 H 121.807 -1.9444 0.133848 0
M  V30 1281 H 120.903 -2.95131 -1.01509 0
M  V30 1282 N 121.204 0.198386 -1.56346 0
M  V30 1283 C 122.45 0.916115 -1.81601 0
M  V30 1284 C 122.805 1.81025 -0.651744 0
M  V30 1285 O 122.098 1.88316 0.353229 0
M  V30 1286 C 122.292 1.77031 -3.10475 0
M  V30 1287 C 122.121 0.960365 -4.39326 0
M  V30 1288 C 120.891 0.646093 -5.01152 0
M  V30 1289 C 123.089 0.314628 -5.13337 0
M  V30 1290 N 121.071 -0.182828 -6.13628 0
M  V30 1291 C 122.442 -0.37664 -6.18855 0
M  V30 1292 C 124.497 0.230019 -4.97368 0
M  V30 1293 C 123.2 -1.14445 -7.10137 0
M  V30 1294 C 125.226 -0.524389 -5.89071 0
M  V30 1295 C 124.588 -1.20412 -6.94032 0
M  V30 1296 H 120.687 0.314732 -0.715868 0
M  V30 1297 H 123.271 0.185102 -1.93818 0
M  V30 1298 H 121.442 2.47295 -2.99499 0
M  V30 1299 H 123.174 2.42727 -3.2383 0
M  V30 1300 H 119.929 0.969724 -4.63566 0
M  V30 1301 H 120.353 -0.586802 -6.74452 0
M  V30 1302 H 124.995 0.741184 -4.16253 0
M  V30 1303 H 122.713 -1.66706 -7.90718 0
M  V30 1304 H 126.299 -0.591167 -5.78789 0
M  V30 1305 H 125.179 -1.77853 -7.63766 0
M  V30 1306 N 122.682 1.50554 0.465978 0
M  V30 1307 C 123.93 1.61479 1.21528 0
M  V30 1308 C 124.251 0.319596 1.92363 0
M  V30 1309 O 123.521 -0.663194 1.84333 0
M  V30 1310 H 122.101 0.595055 0.451573 0
M  V30 1311 H 124.763 1.87355 0.53704 0
M  V30 1312 H 123.859 2.42846 1.96042 0
M  V30 1313 N 124.16 -0.719506 1.40217 0
M  V30 1314 C 125.385 -1.51371 1.4178 0
M  V30 1315 C 125.81 -1.88091 0.0182355 0
M  V30 1316 O 125.168 -1.52997 -0.972707 0
M  V30 1317 C 125.216 -2.768 2.31115 0
M  V30 1318 O 124.32 -3.73349 1.7517 0
M  V30 1319 H 123.661 -0.456529 0.482159 0
M  V30 1320 H 126.191 -0.88644 1.844 0
M  V30 1321 H 126.201 -3.25371 2.46167 0
M  V30 1322 H 124.876 -2.49407 3.3282 0
M  V30 1323 H 123.453 -3.32179 1.69444 0
M  V30 1324 N 125.638 -1.25649 -0.95132 0
M  V30 1325 C 126.866 -1.13343 -1.73092 0
M  V30 1326 C 127.281 0.312434 -1.86197 0
M  V30 1327 O 126.638 1.21465 -1.36207 0
M  V30 1328 C 126.689 -1.78602 -3.14299 0
M  V30 1329 O 126.41 -3.17537 -3.01831 0
M  V30 1330 C 127.911 -1.72119 -4.08522 0
M  V30 1331 H 125.131 -0.395181 -0.542285 0
M  V30 1332 H 127.675 -1.66076 -1.19328 0
M  V30 1333 H 125.83 -1.29832 -3.64996 0
M  V30 1334 H 126.244 -3.49676 -3.90931 0
M  V30 1335 H 127.718 -2.22435 -5.052 0
M  V30 1336 H 128.195 -0.685635 -4.33815 0
M  V30 1337 H 128.801 -2.20393 -3.63741 0
M  V30 1338 N 127.117 1.15442 -1.07289 0
M  V30 1339 C 128.05 2.19135 -0.636798 0
M  V30 1340 C 129.028 1.58884 0.34562 0
M  V30 1341 O 130.212 1.86805 0.252195 0
M  V30 1342 C 127.339 3.38638 0.0650014 0
M  V30 1343 C 126.385 4.17412 -0.87576 0
M  V30 1344 S 127.218 4.79882 -2.37642 0
M  V30 1345 C 128.374 6.02753 -1.6864 0
M  V30 1346 H 128.607 2.55787 -1.51526 0
M  V30 1347 H 126.14 1.26394 -0.886793 0
M  V30 1348 H 128.098 4.07873 0.463664 0
M  V30 1349 H 126.759 3.00331 0.919801 0
M  V30 1350 H 125.952 5.02909 -0.33143 0
M  V30 1351 H 125.554 3.53722 -1.21478 0
M  V30 1352 H 127.846 6.70113 -0.997753 0
M  V30 1353 H 128.789 6.61754 -2.51967 0
M  V30 1354 H 129.197 5.52355 -1.16465 0
M  V30 1355 N 128.595 0.856903 1.32268 0
M  V30 1356 C 130.011 0.547061 1.49931 0
M  V30 1357 C 130.211 -0.921781 1.7918 0
M  V30 1358 O 129.267 -1.70469 1.8627 0
M  V30 1359 C 130.58 1.43599 2.64196 0
M  V30 1360 C 132.128 1.43665 2.78081 0
M  V30 1361 C 132.603 2.31085 3.95428 0
M  V30 1362 N 134.094 2.28893 4.02694 0
M  V30 1363 C 134.829 2.93262 4.92732 0
M  V30 1364 N 134.325 3.66751 5.87763 0
M  V30 1365 N 136.118 2.82638 4.85873 0
M  V30 1366 H 128.269 1.8075 1.11549 0
M  V30 1367 H 130.532 0.772144 0.549997 0
M  V30 1368 H 130.238 2.48058 2.49319 0
M  V30 1369 H 130.112 1.12502 3.60032 0
M  V30 1370 H 132.499 0.399701 2.92381 0
M  V30 1371 H 132.58 1.7878 1.82952 0
M  V30 1372 H 132.224 3.34849 3.81888 0
M  V30 1373 H 132.154 1.93302 4.89839 0
M  V30 1374 H 134.645 1.75466 3.34694 0
M  V30 1375 H 134.958 4.13027 6.53168 0
M  V30 1376 H 133.303 3.70859 5.87783 0
M  V30 1377 H 136.494 2.24774 4.10602 0
M  V30 1378 H 136.667 3.33084 5.55841 0
M  V30 1379 N 130.073 -1.45103 0.615059 0
M  V30 1380 C 131.023 -2.27679 -0.120966 0
M  V30 1381 C 132.007 -1.3775 -0.831491 0
M  V30 1382 O 133.199 -1.61683 -0.720249 0
M  V30 1383 C 130.328 -3.24767 -1.1127 0
M  V30 1384 C 129.414 -4.22184 -0.402627 0
M  V30 1385 N 129.805 -5.02692 0.559884 0
M  V30 1386 C 128.103 -4.4125 -0.649202 0
M  V30 1387 C 128.804 -5.73421 0.977942 0
M  V30 1388 N 127.78 -5.42657 0.320104 0
M  V30 1389 H 131.582 -2.87325 0.618181 0
M  V30 1390 H 129.096 -1.56345 0.439304 0
M  V30 1391 H 131.093 -3.82666 -1.65446 0
M  V30 1392 H 129.753 -2.66682 -1.85232 0
M  V30 1393 H 130.764 -5.09354 0.936976 0
M  V30 1394 H 127.441 -3.9428 -1.37293 0
M  V30 1395 H 128.831 -6.48107 1.77222 0
M  V30 1396 N 131.551 -0.354651 -1.53558 0
M  V30 1397 C 132.514 0.484566 -2.24019 0
M  V30 1398 C 133.514 1.01861 -1.24422 0
M  V30 1399 O 134.704 0.906097 -1.4878 0
M  V30 1400 C 131.836 1.67615 -2.96847 0
M  V30 1401 H 133.029 -0.131843 -2.9961 0
M  V30 1402 H 130.582 -0.106165 -1.55939 0
M  V30 1403 H 131.317 2.33095 -2.25471 0
M  V30 1404 H 131.102 1.30029 -3.69912 0
M  V30 1405 H 132.592 2.27114 -3.50441 0
M  V30 1406 N 133.029 1.57378 -0.0835403 0
M  V30 1407 C 134.275 1.94217 0.583733 0
M  V30 1408 C 134.608 0.964653 1.68547 0
M  V30 1409 O 133.883 -0.00422258 1.945 0
M  V30 1410 C 134.166 3.41253 1.14972 0
M  V30 1411 C 134.019 4.49768 0.0538277 0
M  V30 1412 C 135.338 3.89352 2.05166 0
M  V30 1413 H 132.457 0.706233 0.210724 0
M  V30 1414 H 135.099 1.89392 -0.1519 0
M  V30 1415 H 133.249 3.45496 1.77665 0
M  V30 1416 H 134.921 4.57641 -0.579851 0
M  V30 1417 H 133.164 4.29432 -0.614068 0
M  V30 1418 H 133.835 5.49817 0.490452 0
M  V30 1419 H 136.311 3.87189 1.52393 0
M  V30 1420 H 135.187 4.92822 2.41698 0
M  V30 1421 H 135.448 3.27973 2.96456 0
M  V30 1422 N 134.507 -0.190092 1.56449 0
M  V30 1423 C 135.47 -1.21925 1.9408 0
M  V30 1424 C 136.47 -1.38176 0.822431 0
M  V30 1425 O 137.66 -1.35903 1.08977 0
M  V30 1426 C 134.792 -2.58773 2.21922 0
M  V30 1427 H 135.985 -0.897464 2.86157 0
M  V30 1428 H 133.538 -0.43181 1.50217 0
M  V30 1429 H 134.273 -2.95998 1.32499 0
M  V30 1430 H 134.058 -2.48348 3.03424 0
M  V30 1431 H 135.548 -3.32978 2.52022 0
M  V30 1432 N 135.985 -1.50799 -0.457987 0
M  V30 1433 C 136.895 -1.73426 -1.57989 0
M  V30 1434 C 137.911 -0.617745 -1.62665 0
M  V30 1435 O 139.087 -0.897614 -1.80291 0
M  V30 1436 C 136.152 -1.83557 -2.94122 0
M  V30 1437 C 135.213 -3.07345 -2.99729 0
M  V30 1438 C 134.446 -3.16983 -4.29368 0
M  V30 1439 O 134.669 -2.33077 -5.20607 0
M  V30 1440 O 133.603 -4.09812 -4.40837 0
M  V30 1441 H 137.429 -2.68555 -1.41817 0
M  V30 1442 H 135.014 -1.35052 -0.638859 0
M  V30 1443 H 136.896 -1.92326 -3.74952 0
M  V30 1444 H 135.571 -0.916137 -3.10465 0
M  V30 1445 H 134.478 -3.04068 -2.1793 0
M  V30 1446 H 135.811 -3.9891 -2.88326 0
M  V30 1447 N 137.463 0.71206 -1.40597 0
M  V30 1448 C 138.693 1.49894 -1.42181 0
M  V30 1449 C 139.101 1.89189 -0.0208078 0
M  V30 1450 O 138.444 1.56223 0.966436 0
M  V30 1451 C 138.506 2.80215 -2.25211 0
M  V30 1452 C 138.17 2.63221 -3.73582 0
M  V30 1453 C 139.167 2.30249 -4.66135 0
M  V30 1454 C 136.852 2.79376 -4.17438 0
M  V30 1455 C 138.846 2.13645 -6.00529 0
M  V30 1456 C 136.533 2.6239 -5.51901 0
M  V30 1457 C 137.531 2.29573 -6.43262 0
M  V30 1458 O 137.219 2.12719 -7.75246 0
M  V30 1459 H 136.951 0.469031 -0.486812 0
M  V30 1460 H 139.505 0.88564 -1.85326 0
M  V30 1461 H 137.735 3.4389 -1.76852 0
M  V30 1462 H 139.424 3.41947 -2.18694 0
M  V30 1463 H 140.19 2.17398 -4.33547 0
M  V30 1464 H 136.069 3.03906 -3.46644 0
M  V30 1465 H 139.613 1.87953 -6.71803 0
M  V30 1466 H 135.51 2.74826 -5.84073 0
M  V30 1467 H 136.278 2.27611 -7.86216 0
M  V30 1468 N 138.941 1.26152 0.944643 0
M  V30 1469 C 140.218 1.02247 1.66748 0
M  V30 1470 C 140.598 -0.448202 2.06287 0
M  V30 1471 O 139.946 -1.42779 1.78399 0
M  V30 1472 C 140.156 1.96788 2.88228 0
M  V30 1473 C 141.504 2.25201 3.59958 0
M  V30 1474 O 142.528 1.94626 2.98327 0
M  V30 1475 O 141.387 2.77242 4.70956 0
M  V30 1476 H 138.481 0.388517 0.730057 0
M  V30 1477 H 141.027 1.37348 0.99668 0
M  V30 1478 H 139.799 2.96047 2.55875 0
M  V30 1479 H 139.422 1.62145 3.63035 0
M  V30 1480 N 140.419 -1.14872 1.07899 0
M  V30 1481 C 141.665 -1.86064 0.806725 0
M  V30 1482 C 141.998 -1.82434 -0.665706 0
M  V30 1483 O 141.273 -1.25138 -1.48899 0
M  V30 1484 C 141.556 -3.34929 1.32267 0
M  V30 1485 C 141.409 -3.47161 2.86006 0
M  V30 1486 C 142.728 -4.29863 0.943717 0
M  V30 1487 H 139.847 -0.675591 0.294526 0
M  V30 1488 H 142.489 -1.34925 1.33773 0
M  V30 1489 H 140.639 -3.78611 0.870974 0
M  V30 1490 H 142.311 -3.12302 3.39507 0
M  V30 1491 H 140.554 -2.88539 3.23925 0
M  V30 1492 H 141.225 -4.51777 3.17177 0
M  V30 1493 H 143.701 -3.9417 1.33302 0
M  V30 1494 H 142.577 -5.32494 1.33198 0
M  V30 1495 H 142.838 -4.41846 -0.149796 0
M  V30 1496 N 141.898 -0.863906 -1.31812 0
M  V30 1497 C 142.846 -0.30422 -2.30602 0
M  V30 1498 C 143.84 0.577419 -1.59255 0
M  V30 1499 O 145.046 0.464194 -1.73912 0
M  V30 1500 H 141.421 -0.0796877 -0.747766 0
M  V30 1501 H 143.392 -1.15148 -2.75288 0
M  V30 1502 C 142.141 0.484617 -3.44306 0
M  V30 1503 H 141.464 -0.18451 -3.99374 0
M  V30 1504 H 142.904 0.841664 -4.15562 0
M  V30 1505 C 141.363 1.6735 -2.92396 0
M  V30 1506 O 141.893 2.77273 -2.90659 0
M  V30 1507 N 140.099 1.50362 -2.48676 0
M  V30 1508 H 139.646 0.609402 -2.50288 0
M  V30 1509 H 139.604 2.30051 -2.14299 0
M  V30 1510 N 143.376 1.44774 -0.622745 0
M  V30 1511 C 144.622 2.0242 -0.124083 0
M  V30 1512 C 144.955 1.4881 1.24777 0
M  V30 1513 O 144.23 0.668799 1.8264 0
M  V30 1514 C 144.513 3.59957 -0.101619 0
M  V30 1515 C 144.366 4.23867 -1.50521 0
M  V30 1516 C 145.685 4.36284 0.578272 0
M  V30 1517 H 142.804 0.735528 -0.0465645 0
M  V30 1518 H 145.446 1.72447 -0.797617 0
M  V30 1519 H 143.596 3.85623 0.471934 0
M  V30 1520 H 145.268 4.09336 -2.12701 0
M  V30 1521 H 143.511 3.81684 -2.06154 0
M  V30 1522 H 144.182 5.32843 -1.4416 0
M  V30 1523 H 146.658 4.16001 0.0906057 0
M  V30 1524 H 145.534 5.46004 0.563149 0
M  V30 1525 H 145.795 4.10271 1.64713 0
M  V30 1526 N 144.854 0.36279 1.53368 0
M  V30 1527 C 146.103 -0.22888 2.00397 0
M  V30 1528 C 146.416 -1.50096 1.25421 0
M  V30 1529 O 147.622 -2.17106 1.63025 0
M  V30 1530 C 146.078 -0.458417 3.56969 0
M  V30 1531 C 145.686 0.798877 4.4082 0
M  V30 1532 C 147.43 -1.00789 4.12361 0
M  V30 1533 C 145.337 0.539078 5.88938 0
M  V30 1534 H 144.267 -0.089305 0.748693 0
M  V30 1535 H 146.918 0.481099 1.77081 0
M  V30 1536 H 145.3 -1.22959 3.76427 0
M  V30 1537 H 146.474 1.57262 4.33134 0
M  V30 1538 H 144.789 1.27137 3.96516 0
M  V30 1539 H 147.386 -1.21754 5.20653 0
M  V30 1540 H 147.729 -1.9692 3.66781 0
M  V30 1541 H 148.262 -0.296961 3.9669 0
M  V30 1542 H 145.001 1.47064 6.3879 0
M  V30 1543 H 144.521 -0.196222 5.99479 0
M  V30 1544 H 146.2 0.163542 6.46793 0
M  V30 1545 N 146.332 -1.57332 0.0918853 0
M  V30 1546 C 147.58 -1.93853 -0.571446 0
M  V30 1547 C 147.901 -0.974212 -1.6892 0
M  V30 1548 O 147.171 -0.0257254 -1.95883 0
M  V30 1549 H 145.751 -0.715666 -0.214082 0
M  V30 1550 H 148.413 -1.94287 0.154464 0
M  V30 1551 H 147.509 -2.96191 -0.983729 0
M  V30 1552 N 147.81 0.181792 -1.56548 0
M  V30 1553 C 148.74 1.22765 -1.98623 0
M  V30 1554 C 149.721 1.46747 -0.860189 0
M  V30 1555 O 150.906 1.58259 -1.12551 0
M  V30 1556 C 148.036 2.56894 -2.33715 0
M  V30 1557 C 146.99 2.475 -3.49182 0
M  V30 1558 C 146.316 3.86023 -3.69986 0
M  V30 1559 C 147.616 1.98866 -4.82959 0
M  V30 1560 H 149.31 0.877942 -2.86239 0
M  V30 1561 H 146.856 0.42088 -1.37712 0
M  V30 1562 H 148.809 3.30253 -2.61746 0
M  V30 1563 H 147.533 2.93632 -1.42997 0
M  V30 1564 H 146.192 1.76596 -3.21262 0
M  V30 1565 H 145.84 4.20136 -2.76576 0
M  V30 1566 H 145.54 3.80609 -4.47672 0
M  V30 1567 H 147.064 4.60984 -4.00407 0
M  V30 1568 H 148.478 2.61992 -5.09934 0
M  V30 1569 H 146.875 2.04424 -5.64208 0
M  V30 1570 H 147.945 0.942465 -4.75653 0
M  V30 1571 N 149.288 1.51039 0.449983 0
M  V30 1572 C 150.516 1.66869 1.2232 0
M  V30 1573 C 150.931 0.360727 1.85322 0
M  V30 1574 O 150.288 -0.659531 1.70166 0
M  V30 1575 C 150.339 2.77524 2.31652 0
M  V30 1576 O 150.06 4.03252 1.7123 0
M  V30 1577 C 151.561 3.04512 3.2216 0
M  V30 1578 H 148.781 0.560326 0.369155 0
M  V30 1579 H 151.325 1.97385 0.534719 0
M  V30 1580 H 149.48 2.49642 2.96239 0
M  V30 1581 H 149.894 4.64609 2.43389 0
M  V30 1582 H 151.368 3.85551 3.95038 0
M  V30 1583 H 151.845 2.16415 3.8218 0
M  V30 1584 H 152.451 3.34005 2.63288 0
M  V30 1585 N 150.766 -0.704594 1.40972 0
M  V30 1586 C 151.696 -1.83124 1.44872 0
M  V30 1587 C 152.677 -1.67281 0.30838 0
M  V30 1588 O 153.862 -1.87149 0.518556 0
M  V30 1589 C 150.992 -3.21181 1.32136 0
M  V30 1590 C 149.946 -3.51714 2.43888 0
M  V30 1591 C 149.272 -4.89032 2.16222 0
M  V30 1592 C 150.572 -3.516 3.86232 0
M  V30 1593 H 152.266 -1.80117 2.39161 0
M  V30 1594 H 149.812 -0.865145 1.15114 0
M  V30 1595 H 151.765 -3.99702 1.33479 0
M  V30 1596 H 150.489 -3.24791 0.343279 0
M  V30 1597 H 149.148 -2.75539 2.41813 0
M  V30 1598 H 148.796 -4.89256 1.16778 0
M  V30 1599 H 148.496 -5.10426 2.911 0
M  V30 1600 H 150.02 -5.69873 2.19265 0
M  V30 1601 H 151.434 -4.2014 3.9007 0
M  V30 1602 H 149.831 -3.84523 4.60719 0
M  V30 1603 H 150.901 -2.50757 4.15029 0
M  V30 1604 N 152.244 -1.26651 -0.937939 0
M  V30 1605 C 153.469 -1.15279 -1.72411 0
M  V30 1606 C 153.894 0.287866 -1.85884 0
M  V30 1607 O 153.252 1.20855 -1.35143 0
M  V30 1608 C 153.3 -1.83028 -3.10698 0
M  V30 1609 O 152.404 -1.12128 -3.96864 0
M  V30 1610 H 151.745 -0.401504 -0.528858 0
M  V30 1611 H 154.275 -1.67531 -1.1745 0
M  V30 1612 H 154.285 -1.89981 -3.6107 0
M  V30 1613 H 152.96 -2.87833 -3.00208 0
M  V30 1614 H 151.537 -1.13173 -3.55312 0
M  V30 1615 N 153.722 1.14298 -1.08507 0
M  V30 1616 C 154.632 2.23027 -0.727753 0
M  V30 1617 C 155.648 1.71952 0.26619 0
M  V30 1618 O 156.824 2.011 0.109882 0
M  V30 1619 C 153.889 3.46403 -0.143541 0
M  V30 1620 C 152.95 4.12413 -1.19223 0
M  V30 1621 C 152.183 5.29899 -0.635798 0
M  V30 1622 O 152.406 5.67796 0.544393 0
M  V30 1623 O 151.34 5.85717 -1.38634 0
M  V30 1624 H 155.166 2.55945 -1.63481 0
M  V30 1625 H 152.751 1.22248 -0.858817 0
M  V30 1626 H 154.633 4.21018 0.179404 0
M  V30 1627 H 153.308 3.15206 0.736659 0
M  V30 1628 H 152.215 3.39667 -1.56772 0
M  V30 1629 H 153.548 4.47718 -2.04474 0
M  V30 1630 N 155.201 0.870884 1.31352 0
M  V30 1631 C 156.149 0.316445 2.30437 0
M  V30 1632 C 157.143 -0.568965 1.59559 0
M  V30 1633 O 158.349 -0.454964 1.74155 0
M  V30 1634 H 154.724 0.0836521 0.747333 0
M  V30 1635 H 156.695 1.16606 2.74673 0
M  V30 1636 C 155.444 -0.46635 3.44558 0
M  V30 1637 H 154.767 0.205687 3.99271 0
M  V30 1638 H 156.207 -0.819614 4.16003 0
M  V30 1639 C 154.666 -1.65797 2.9328 0
M  V30 1640 O 155.196 -2.75728 2.92125 0
M  V30 1641 N 153.402 -1.49041 2.4947 0
M  V30 1642 H 152.949 -0.59612 2.50608 0
M  V30 1643 H 152.907 -2.28911 2.15516 0
M  V30 1644 N 156.679 -1.44442 0.630414 0
M  V30 1645 C 157.611 -2.2892 -0.113347 0
M  V30 1646 C 158.624 -1.41243 -0.80959 0
M  V30 1647 O 159.813 -1.65402 -0.671156 0
M  V30 1648 C 156.913 -3.17594 -1.18266 0
M  V30 1649 C 156.086 -4.33682 -0.569073 0
M  V30 1650 C 155.145 -5.03397 -1.53226 0
M  V30 1651 O 154.171 -5.59438 -1.04967 0
M  V30 1652 N 155.373 -5.04783 -2.86661 0
M  V30 1653 H 158.138 -2.93392 0.611636 0
M  V30 1654 H 155.699 -1.54881 0.471523 0
M  V30 1655 H 157.691 -3.61097 -1.82732 0
M  V30 1656 H 156.261 -2.54876 -1.80988 0
M  V30 1657 H 155.481 -3.9338 0.254187 0
M  V30 1658 H 156.769 -5.08608 -0.139767 0
M  V30 1659 H 156.167 -4.60584 -3.28449 0
M  V30 1660 H 154.724 -5.52077 -3.46489 0
M  V30 1661 N 158.157 -0.370918 -1.53173 0
M  V30 1662 C 159.387 0.217389 -2.05453 0
M  V30 1663 C 159.795 1.42568 -1.24382 0
M  V30 1664 O 159.138 1.81571 -0.278839 0
M  V30 1665 C 159.2 0.669827 -3.53205 0
M  V30 1666 C 158.864 -0.4225 -4.55043 0
M  V30 1667 C 159.861 -1.27407 -5.04047 0
M  V30 1668 C 157.546 -0.58427 -4.9889 0
M  V30 1669 C 159.54 -2.27271 -5.95505 0
M  V30 1670 C 157.227 -1.58627 -5.90153 0
M  V30 1671 C 158.225 -2.42892 -6.38351 0
M  V30 1672 O 157.913 -3.41382 -7.27814 0
M  V30 1673 H 157.645 0.0408171 -0.674767 0
M  V30 1674 H 160.199 -0.5292 -1.98466 0
M  V30 1675 H 158.429 1.4681 -3.57748 0
M  V30 1676 H 160.118 1.18173 -3.88317 0
M  V30 1677 H 160.884 -1.16031 -4.70916 0
M  V30 1678 H 156.763 0.061851 -4.60959 0
M  V30 1679 H 160.307 -2.93079 -6.33049 0
M  V30 1680 H 156.204 -1.70048 -6.22699 0
M  V30 1681 H 156.972 -3.37173 -7.45826 0
M  V30 1682 N 159.635 1.57281 -0.100228 0
M  V30 1683 C 160.598 2.13158 0.842398 0
M  V30 1684 C 161.598 1.06202 1.20738 0
M  V30 1685 O 162.788 1.32066 1.13597 0
M  V30 1686 C 159.92 2.65639 2.13655 0
M  V30 1687 H 161.113 2.97766 0.357114 0
M  V30 1688 H 158.666 1.5559 0.148823 0
M  V30 1689 H 159.401 1.84566 2.66657 0
M  V30 1690 H 159.186 3.43844 1.88451 0
M  V30 1691 H 160.676 3.08846 2.81077 0
M  V30 1692 N 161.113 -0.173488 1.56642 0
M  V30 1693 C 162.063 -1.21941 1.92651 0
M  V30 1694 C 163.047 -1.39912 0.794577 0
M  V30 1695 O 164.239 -1.41919 1.05773 0
M  V30 1696 C 161.368 -2.55935 2.28806 0
M  V30 1697 C 160.454 -2.41667 3.48508 0
M  V30 1698 N 160.845 -1.9711 4.65813 0
M  V30 1699 C 159.143 -2.72499 3.53072 0
M  V30 1700 C 159.844 -1.95253 5.47952 0
M  V30 1701 N 158.82 -2.37575 4.88937 0
M  V30 1702 H 162.622 -0.866581 2.80834 0
M  V30 1703 H 160.136 -0.381776 1.57849 0
M  V30 1704 H 162.133 -3.31511 2.52797 0
M  V30 1705 H 160.793 -2.92022 1.41961 0
M  V30 1706 H 161.804 -1.67481 4.90072 0
M  V30 1707 H 158.481 -3.12639 2.767 0
M  V30 1708 H 159.871 -1.6252 6.51948 0
M  V30 1709 N 162.591 -1.51276 -0.441967 0
M  V30 1710 C 163.868 -1.54252 -1.20273 0
M  V30 1711 C 164.248 -0.30408 -2.08898 0
M  V30 1712 O 163.596 0.711084 -2.17154 0
M  V30 1713 C 163.806 -2.85406 -2.00859 0
M  V30 1714 C 165.154 -3.37181 -2.58059 0
M  V30 1715 O 166.178 -2.86925 -2.11074 0
M  V30 1716 O 165.037 -4.24858 -3.43741 0
M  V30 1717 H 162.131 -0.619969 -0.547328 0
M  V30 1718 H 164.677 -1.63586 -0.451413 0
M  V30 1719 H 163.449 -3.67003 -1.35736 0
M  V30 1720 H 163.072 -2.79213 -2.83065 0
M  V30 1721 N 164.069 0.697108 -1.41344 0
M  V30 1722 C 165.016 1.81106 -1.43071 0
M  V30 1723 C 165.986 1.63632 -0.285275 0
M  V30 1724 O 167.171 1.84504 -0.486091 0
M  V30 1725 C 164.311 3.18975 -1.31715 0
M  V30 1726 C 163.424 3.47892 -2.56115 0
M  V30 1727 C 162.559 4.75367 -2.37064 0
M  V30 1728 C 161.598 4.97247 -3.56948 0
M  V30 1729 N 160.735 6.15947 -3.36977 0
M  V30 1730 H 165.575 1.78965 -2.38276 0
M  V30 1731 H 163.112 0.873975 -1.18322 0
M  V30 1732 H 165.07 3.98615 -1.23133 0
M  V30 1733 H 163.7 3.20297 -0.401183 0
M  V30 1734 H 162.752 2.62669 -2.75153 0
M  V30 1735 H 164.064 3.59962 -3.45295 0
M  V30 1736 H 163.218 5.63059 -2.25941 0
M  V30 1737 H 161.957 4.65541 -1.45338 0
M  V30 1738 H 160.962 4.08004 -3.68527 0
M  V30 1739 H 162.187 5.08934 -4.49626 0
M  V30 1740 H 160.133 6.07336 -2.47949 0
M  V30 1741 H 160.05 6.28777 -4.19732 0
M  V30 1742 H 161.318 7.06377 -3.29623 0
M  V30 1743 N 165.547 1.27147 0.931209 0
M  V30 1744 C 166.51 1.09615 2.01289 0
M  V30 1745 C 167.51 0.0412581 1.60747 0
M  V30 1746 O 168.7 0.285545 1.71844 0
M  V30 1747 C 165.832 0.669447 3.34262 0
M  V30 1748 H 167.025 2.05662 2.18273 0
M  V30 1749 H 164.578 1.09885 1.11153 0
M  V30 1750 H 165.313 -0.292572 3.22978 0
M  V30 1751 H 165.098 1.43127 3.65044 0
M  V30 1752 H 166.588 0.568921 4.13706 0
M  V30 1753 N 167.025 -1.13721 1.09112 0
M  V30 1754 C 167.958 -2.18094 0.67158 0
M  V30 1755 C 168.936 -1.59414 -0.320299 0
M  V30 1756 O 170.12 -1.87183 -0.222444 0
M  V30 1757 C 167.247 -3.38698 -0.0111189 0
M  V30 1758 C 166.293 -4.15966 0.942055 0
M  V30 1759 S 167.126 -4.7604 2.45246 0
M  V30 1760 C 168.282 -5.99994 1.78208 0
M  V30 1761 H 168.515 -2.53344 1.55577 0
M  V30 1762 H 166.048 -1.24967 0.906789 0
M  V30 1763 H 168.006 -4.08559 -0.398716 0
M  V30 1764 H 166.667 -3.01756 -0.871905 0
M  V30 1765 H 165.86 -5.02318 0.411396 0
M  V30 1766 H 165.462 -3.51745 1.2709 0
M  V30 1767 H 167.754 -6.68441 1.10424 0
M  V30 1768 H 168.697 -6.57662 2.62463 0
M  V30 1769 H 169.105 -5.50432 1.25238 0
M  V30 1770 N 168.503 -0.877838 -1.30888 0
M  V30 1771 C 169.75 -0.492696 -1.96415 0
M  V30 1772 C 170.078 0.956671 -1.69346 0
M  V30 1773 O 169.333 1.68993 -0.986913 0
M  V30 1774 C 169.632 -0.705748 -3.50363 0
M  V30 1775 C 169.298 -2.1291 -3.97467 0
M  V30 1776 C 167.96 -2.51834 -4.1004 0
M  V30 1777 C 170.312 -3.05702 -4.22132 0
M  V30 1778 C 167.64 -3.82775 -4.44635 0
M  V30 1779 C 169.992 -4.36166 -4.58194 0
M  V30 1780 C 168.656 -4.74993 -4.68975 0
M  V30 1781 H 167.926 -0.18029 -0.718733 0
M  V30 1782 H 170.573 -1.11233 -1.55883 0
M  V30 1783 H 168.878 -0.00303058 -3.918 0
M  V30 1784 H 170.575 -0.387456 -3.99124 0
M  V30 1785 H 167.165 -1.81694 -3.88182 0
M  V30 1786 H 171.349 -2.76853 -4.11906 0
M  V30 1787 H 166.605 -4.12609 -4.51181 0
M  V30 1788 H 170.779 -5.08111 -4.76231 0
M  V30 1789 H 168.406 -5.76495 -4.95537 0
M  V30 1790 N 169.982 1.44106 -0.638065 0
M  V30 1791 C 171.259 1.95453 -0.0759321 0
M  V30 1792 C 171.639 1.57984 1.40015 0
M  V30 1793 O 170.987 0.857361 2.11806 0
M  V30 1794 C 171.197 3.47655 -0.306132 0
M  V30 1795 C 172.545 4.24114 -0.203008 0
M  V30 1796 O 173.569 3.55405 -0.237871 0
M  V30 1797 O 172.428 5.46381 -0.113827 0
M  V30 1798 H 169.522 0.826797 0.0183332 0
M  V30 1799 H 172.068 1.54122 -0.710251 0
M  V30 1800 H 170.84 3.68 -1.3301 0
M  V30 1801 H 170.463 3.95949 0.361991 0
M  V30 1802 N 171.46 0.379036 1.52974 0
M  V30 1803 C 172.37 -0.468639 2.29872 0
M  V30 1804 C 173.386 -1.08067 1.36373 0
M  V30 1805 O 174.562 -1.08871 1.69438 0
M  V30 1806 C 171.627 -1.58594 3.083 0
M  V30 1807 C 170.688 -1.00007 4.17489 0
M  V30 1808 C 169.921 -2.06413 4.92168 0
M  V30 1809 O 170.144 -3.27751 4.66835 0
M  V30 1810 O 169.078 -1.68717 5.7777 0
M  V30 1811 H 172.904 0.157508 3.03291 0
M  V30 1812 H 170.489 0.143035 1.48714 0
M  V30 1813 H 172.371 -2.23525 3.57232 0
M  V30 1814 H 171.046 -2.19724 2.37703 0
M  V30 1815 H 169.953 -0.314299 3.72777 0
M  V30 1816 H 171.286 -0.433135 4.90291 0
M  V30 1817 N 172.938 -1.57226 0.108567 0
M  V30 1818 C 174.184 -1.95121 -0.552761 0
M  V30 1819 C 174.517 -0.991345 -1.66991 0
M  V30 1820 O 173.792 -0.0267211 -1.94482 0
M  V30 1821 C 174.075 -3.43039 -1.09528 0
M  V30 1822 C 173.928 -4.49797 0.0177332 0
M  V30 1823 C 175.247 -3.92567 -1.98945 0
M  V30 1824 H 172.366 -0.709496 -0.199461 0
M  V30 1825 H 175.008 -1.89126 0.182011 0
M  V30 1826 H 173.158 -3.48279 -1.72146 0
M  V30 1827 H 174.83 -4.56661 0.652584 0
M  V30 1828 H 173.073 -4.284 0.682309 0
M  V30 1829 H 173.744 -5.50528 -0.402919 0
M  V30 1830 H 176.22 -3.89565 -1.46214 0
M  V30 1831 H 175.096 -4.96605 -2.33827 0
M  V30 1832 H 175.357 -3.32648 -2.91201 0
M  V30 1833 N 174.416 0.165178 -1.56732 0
M  V30 1834 C 175.693 0.908443 -1.73224 0
M  V30 1835 C 176.073 2.0013 -0.67165 0
M  V30 1836 O 175.421 2.26353 0.31253 0
M  V30 1837 C 175.631 1.46756 -3.16644 0
M  V30 1838 C 176.979 1.93809 -3.77787 0
M  V30 1839 O 178.003 1.56537 -3.1996 0
M  V30 1840 O 176.862 2.62486 -4.79336 0
M  V30 1841 H 173.956 0.428025 -0.707618 0
M  V30 1842 H 176.502 0.152526 -1.69013 0
M  V30 1843 H 175.274 0.68129 -3.85323 0
M  V30 1844 H 174.897 2.28749 -3.25207 0
M  V30 1845 N 175.894 1.51508 0.433938 0
M  V30 1846 C 177.119 1.68443 1.21003 0
M  V30 1847 C 177.544 0.382636 1.84167 0
M  V30 1848 O 176.902 -0.65755 1.68956 0
M  V30 1849 C 176.95 2.80405 2.26727 0
M  V30 1850 O 176.054 2.44245 3.32292 0
M  V30 1851 H 175.395 0.561536 0.354363 0
M  V30 1852 H 177.925 1.9809 0.512024 0
M  V30 1853 H 177.935 3.0459 2.71457 0
M  V30 1854 H 176.61 3.74867 1.80132 0
M  V30 1855 H 175.187 2.30644 2.93015 0
M  V30 1856 N 177.372 -0.689602 1.41712 0
M  V30 1857 C 178.783 -1.26973 1.36875 0
M  V30 1858 C 179.134 -1.96124 0.054748 0
M  V30 1859 O 178.259 -1.99141 -0.84687 0
M  V30 1860 C 178.854 -2.30912 2.47922 0
M  V30 1861 C 177.413 -2.84486 2.46464 0
M  V30 1862 C 176.56 -1.58603 2.27465 0
M  V30 1863 H 179.511 -0.48396 1.51141 0
M  V30 1864 H 179.532 -3.12331 2.17323 0
M  V30 1865 H 179.044 -1.80554 3.43543 0
M  V30 1866 H 177.145 -3.39005 1.54617 0
M  V30 1867 H 177.258 -3.34511 3.42986 0
M  V30 1868 H 175.622 -1.84632 1.75451 0
M  V30 1869 H 176.405 -1.10233 3.25121 0
M  V30 1870 N 178.85 -1.27639 -0.924453 0
M  V30 1871 C 180.266 -1.05113 -1.20097 0
M  V30 1872 C 180.466 0.213262 -2.00368 0
M  V30 1873 O 179.522 0.91787 -2.35226 0
M  V30 1874 C 180.835 -2.29244 -1.94596 0
M  V30 1875 C 182.383 -2.34315 -2.07522 0
M  V30 1876 C 182.858 -3.58183 -2.85427 0
M  V30 1877 N 184.349 -3.5876 -2.92994 0
M  V30 1878 C 185.084 -4.51277 -3.53746 0
M  V30 1879 N 184.58 -5.54102 -4.15863 0
M  V30 1880 N 186.373 -4.38894 -3.51181 0
M  V30 1881 H 178.524 -2.08821 -0.388264 0
M  V30 1882 H 180.787 -0.918568 -0.234385 0
M  V30 1883 H 180.493 -3.21301 -1.43034 0
M  V30 1884 H 180.367 -2.34816 -2.95197 0
M  V30 1885 H 182.754 -1.42762 -2.58269 0
M  V30 1886 H 182.835 -2.32744 -1.06131 0
M  V30 1887 H 182.479 -4.50074 -2.35363 0
M  V30 1888 H 182.409 -3.57006 -3.8711 0
M  V30 1889 H 184.9 -2.84398 -2.4885 0
M  V30 1890 H 185.213 -6.20859 -4.60168 0
M  V30 1891 H 183.558 -5.57941 -4.144 0
M  V30 1892 H 186.749 -3.57772 -3.01856 0
M  V30 1893 H 186.922 -5.11186 -3.98237 0
M  V30 1894 N 180.328 1.1314 -1.09713 0
M  V30 1895 C 181.744 1.36477 -0.827423 0
M  V30 1896 C 181.944 1.93654 0.556817 0
M  V30 1897 O 181 2.15791 1.31112 0
M  V30 1898 C 182.313 2.31334 -1.92106 0
M  V30 1899 C 183.861 2.44943 -1.94864 0
M  V30 1900 C 184.336 3.4311 -3.0338 0
M  V30 1901 N 185.827 3.50662 -3.02639 0
M  V30 1902 C 186.562 4.2651 -3.83246 0
M  V30 1903 N 186.058 5.05485 -4.73768 0
M  V30 1904 N 187.851 4.2184 -3.71493 0
M  V30 1905 H 180.002 0.743807 -1.9895 0
M  V30 1906 H 182.265 0.389823 -0.864143 0
M  V30 1907 H 181.971 1.96483 -2.91698 0
M  V30 1908 H 181.845 3.31381 -1.80184 0
M  V30 1909 H 184.232 2.79079 -0.959099 0
M  V30 1910 H 184.313 1.4481 -2.10864 0
M  V30 1911 H 183.957 3.09704 -4.02549 0
M  V30 1912 H 183.887 4.43055 -2.84622 0
M  V30 1913 H 186.378 2.94315 -2.37039 0
M  V30 1914 H 186.691 5.60675 -5.3185 0
M  V30 1915 H 185.036 5.04708 -4.77802 0
M  V30 1916 H 188.227 3.5922 -3.00131 0
M  V30 1917 H 188.4 4.80697 -4.3455 0
M  V30 1918 N 181.806 0.884767 1.30421 0
M  V30 1919 C 182.753 0.349642 2.28136 0
M  V30 1920 C 183.723 -0.560061 1.56373 0
M  V30 1921 O 184.908 -0.488524 1.8444 0
M  V30 1922 C 182.048 -0.42999 3.42411 0
M  V30 1923 C 181.161 0.508907 4.28992 0
M  V30 1924 C 180.296 -0.286301 5.30428 0
M  V30 1925 C 179.335 0.648079 6.08659 0
M  V30 1926 N 178.472 -0.111792 7.02011 0
M  V30 1927 H 183.312 1.18807 2.73293 0
M  V30 1928 H 180.849 0.597231 1.3443 0
M  V30 1929 H 182.807 -0.897923 4.07423 0
M  V30 1930 H 181.437 -1.23299 2.98324 0
M  V30 1931 H 180.489 1.09533 3.64289 0
M  V30 1932 H 181.801 1.22475 4.8353 0
M  V30 1933 H 180.955 -0.816098 6.01186 0
M  V30 1934 H 179.694 -1.03536 4.76583 0
M  V30 1935 H 178.699 1.18951 5.36778 0
M  V30 1936 H 179.924 1.39623 6.64592 0
M  V30 1937 H 177.87 -0.843395 6.50556 0
M  V30 1938 H 177.787 0.544429 7.54037 0
M  V30 1939 H 179.055 -0.622339 7.77012 0
M  V30 1940 N 183.284 -1.43765 0.645699 0
M  V30 1941 C 184.194 -2.34544 -0.0512957 0
M  V30 1942 C 185.21 -1.53455 -0.82022 0
M  V30 1943 O 186.386 -1.86133 -0.769176 0
M  V30 1944 C 183.451 -3.31636 -1.01087 0
M  V30 1945 C 182.512 -4.2863 -0.239712 0
M  V30 1946 C 181.745 -5.21084 -1.15358 0
M  V30 1947 O 181.968 -5.1779 -2.39269 0
M  V30 1948 O 180.902 -5.98593 -0.630038 0
M  V30 1949 H 184.728 -2.95624 0.695718 0
M  V30 1950 H 182.313 -1.43781 0.405882 0
M  V30 1951 H 184.195 -3.9136 -1.56254 0
M  V30 1952 H 182.87 -2.73069 -1.73824 0
M  V30 1953 H 181.777 -3.72408 0.355356 0
M  V30 1954 H 183.11 -4.90157 0.447936 0
M  V30 1955 N 184.763 -0.387143 -1.52771 0
M  V30 1956 C 186.009 0.196025 -2.0185 0
M  V30 1957 C 186.342 1.46641 -1.27319 0
M  V30 1958 O 185.617 1.90889 -0.373032 0
M  V30 1959 C 185.9 0.466136 -3.5707 0
M  V30 1960 C 185.753 -0.819385 -4.42274 0
M  V30 1961 C 187.072 1.25768 -4.21747 0
M  V30 1962 H 184.191 0.0697708 -0.73369 0
M  V30 1963 H 186.833 -0.516286 -1.82851 0
M  V30 1964 H 184.983 1.07293 -3.7339 0
M  V30 1965 H 186.655 -1.4563 -4.37709 0
M  V30 1966 H 184.898 -1.43517 -4.09372 0
M  V30 1967 H 185.569 -0.585065 -5.48891 0
M  V30 1968 H 188.045 0.744167 -4.09391 0
M  V30 1969 H 186.921 1.41541 -5.30337 0
M  V30 1970 H 187.182 2.27228 -3.79236 0
M  V30 1971 N 186.241 1.57166 -0.116904 0
M  V30 1972 C 187.657 1.5779 0.239693 0
M  V30 1973 C 187.857 1.1295 1.66867 0
M  V30 1974 O 186.913 0.81592 2.38954 0
M  V30 1975 C 188.226 3.00699 0.00828202 0
M  V30 1976 C 189.774 3.12912 0.0743438 0
M  V30 1977 C 190.249 4.57817 -0.129348 0
M  V30 1978 N 191.74 4.63139 -0.075247 0
M  V30 1979 C 192.475 5.73023 -0.207788 0
M  V30 1980 N 191.971 6.91665 -0.396382 0
M  V30 1981 N 193.764 5.61906 -0.14751 0
M  V30 1982 H 185.915 1.84615 -1.05029 0
M  V30 1983 H 188.178 0.85311 -0.41341 0
M  V30 1984 H 187.884 3.37784 -0.979531 0
M  V30 1985 H 187.758 3.69848 0.741077 0
M  V30 1986 H 190.145 2.75686 1.05268 0
M  V30 1987 H 190.226 2.4631 -0.690297 0
M  V30 1988 H 189.87 4.95742 -1.10465 0
M  V30 1989 H 189.8 5.22507 0.655253 0
M  V30 1990 H 192.291 3.7784 0.0670898 0
M  V30 1991 H 192.604 7.71255 -0.488437 0
M  V30 1992 H 190.949 6.93654 -0.432329 0
M  V30 1993 H 194.14 4.681 -0.00115036 0
M  V30 1994 H 194.313 6.47501 -0.254247 0
M  V30 1995 N 187.719 -0.156864 1.56817 0
M  V30 1996 C 188.968 -0.869504 1.81996 0
M  V30 1997 C 189.281 -1.82777 0.696545 0
M  V30 1998 O 190.487 -2.58384 0.833658 0
M  V30 1999 C 188.943 -1.59679 3.22538 0
M  V30 2000 C 188.551 -0.681431 4.42787 0
M  V30 2001 C 190.295 -2.2968 3.56997 0
M  V30 2002 C 188.202 -1.40978 5.74351 0
M  V30 2003 H 187.132 -0.328438 0.678708 0
M  V30 2004 H 189.783 -0.1223 1.83092 0
M  V30 2005 H 188.165 -2.38927 3.158 0
M  V30 2006 H 189.339 0.0751166 4.60739 0
M  V30 2007 H 187.654 -0.0903431 4.16302 0
M  V30 2008 H 190.251 -2.84794 4.52544 0
M  V30 2009 H 190.594 -3.05707 2.82576 0
M  V30 2010 H 191.127 -1.57361 3.65352 0
M  V30 2011 H 187.866 -0.691561 6.51842 0
M  V30 2012 H 187.386 -2.13929 5.60352 0
M  V30 2013 H 189.065 -1.95337 6.16808 0
M  V30 2014 N 189.197 -1.51736 -0.425897 0
M  V30 2015 C 190.129 -1.70083 -1.53638 0
M  V30 2016 C 191.142 -0.581349 -1.52066 0
M  V30 2017 O 192.331 -0.856017 -1.56635 0
M  V30 2018 C 189.431 -1.71078 -2.9255 0
M  V30 2019 C 188.604 -2.99795 -3.185 0
M  V30 2020 C 187.663 -2.92825 -4.37196 0
M  V30 2021 O 186.689 -3.66756 -4.35291 0
M  V30 2022 N 187.891 -2.0946 -5.41393 0
M  V30 2023 H 190.656 -2.65882 -1.383 0
M  V30 2024 H 188.217 -1.49765 -0.614988 0
M  V30 2025 H 190.209 -1.63969 -3.69995 0
M  V30 2026 H 188.779 -0.828242 -3.01428 0
M  V30 2027 H 187.999 -3.20684 -2.2925 0
M  V30 2028 H 189.287 -3.84977 -3.32671 0
M  V30 2029 H 188.685 -1.48792 -5.45781 0
M  V30 2030 H 187.242 -2.08221 -6.17647 0
M  V30 2031 N 190.675 0.682077 -1.42076 0
M  V30 2032 C 191.923 1.4393 -1.41876 0
M  V30 2033 C 192.244 1.94971 -0.0335599 0
M  V30 2034 O 191.514 1.72591 0.926773 0
M  V30 2035 H 190.094 0.534085 -0.522267 0
M  V30 2036 H 192.756 0.806427 -1.77434 0
M  V30 2037 H 191.852 2.29588 -2.11414 0
M  V30 2038 N 192.153 1.28127 0.917671 0
M  V30 2039 C 193.399 1.16232 1.66918 0
M  V30 2040 C 193.754 -0.28701 1.90247 0
M  V30 2041 O 193.047 -1.20586 1.48895 0
M  V30 2042 C 193.241 1.89018 3.03327 0
M  V30 2043 C 193.07 3.4088 2.9331 0
M  V30 2044 C 191.84 4.10214 2.95047 0
M  V30 2045 C 194.038 4.36689 2.71675 0
M  V30 2046 N 192.02 5.48571 2.75577 0
M  V30 2047 C 193.391 5.62382 2.6101 0
M  V30 2048 C 195.446 4.26661 2.56641 0
M  V30 2049 C 194.149 6.79189 2.36843 0
M  V30 2050 C 196.175 5.432 2.33853 0
M  V30 2051 C 195.537 6.67855 2.23939 0
M  V30 2052 H 191.636 0.48024 0.617166 0
M  V30 2053 H 194.22 1.61727 1.08409 0
M  V30 2054 H 192.391 1.45963 3.59929 0
M  V30 2055 H 194.123 1.69541 3.67475 0
M  V30 2056 H 190.878 3.61762 3.05655 0
M  V30 2057 H 191.302 6.21287 2.68945 0
M  V30 2058 H 195.944 3.30998 2.63059 0
M  V30 2059 H 193.662 7.74926 2.29164 0
M  V30 2060 H 197.248 5.37328 2.23091 0
M  V30 2061 H 196.128 7.56511 2.06546 0
M  V30 2062 N 193.631 -1.12557 1.10312 0
M  V30 2063 C 194.541 -2.21841 0.763142 0
M  V30 2064 C 195.557 -1.72354 -0.238801 0
M  V30 2065 O 196.733 -2.01249 -0.0778746 0
M  V30 2066 C 193.798 -3.46131 0.198632 0
M  V30 2067 C 192.859 -4.10464 1.25769 0
M  V30 2068 C 192.092 -5.28821 0.72002 0
M  V30 2069 O 192.315 -5.6859 -0.453993 0
M  V30 2070 O 191.249 -5.83437 1.47935 0
M  V30 2071 H 195.075 -2.53312 1.67532 0
M  V30 2072 H 192.66 -1.20867 0.878157 0
M  V30 2073 H 194.542 -4.2125 -0.112401 0
M  V30 2074 H 193.217 -3.16338 -0.686419 0
M  V30 2075 H 192.124 -3.3713 1.62156 0
M  V30 2076 H 193.457 -4.44408 2.11571 0
M  V30 2077 N 195.109 -0.891671 -1.2995 0
M  V30 2078 C 196.019 -0.367691 -2.31701 0
M  V30 2079 C 197.035 0.533486 -1.6562 0
M  V30 2080 O 198.211 0.424997 -1.96865 0
M  V30 2081 C 195.276 0.403406 -3.44345 0
M  V30 2082 C 194.337 -0.528328 -4.26037 0
M  V30 2083 C 193.57 0.206063 -5.33302 0
M  V30 2084 O 193.793 1.43119 -5.52153 0
M  V30 2085 O 192.727 -0.447281 -6.00236 0
M  V30 2086 H 196.553 -1.21163 -2.78484 0
M  V30 2087 H 194.138 -0.655725 -1.34241 0
M  V30 2088 H 196.02 0.839753 -4.12948 0
M  V30 2089 H 194.695 1.22354 -2.99685 0
M  V30 2090 H 193.602 -1.01362 -3.60106 0
M  V30 2091 H 194.935 -1.31465 -4.74318 0
M  V30 2092 N 196.587 1.43421 -0.653314 0
M  V30 2093 C 197.834 2.01812 -0.166745 0
M  V30 2094 C 198.162 1.51535 1.21931 0
M  V30 2095 O 197.417 0.698975 1.82792 0
M  V30 2096 C 197.716 3.57176 -0.126623 0
M  V30 2097 C 197.382 4.26798 -1.45444 0
M  V30 2098 C 196.044 4.45534 -1.81805 0
M  V30 2099 C 198.396 4.66225 -2.32989 0
M  V30 2100 C 195.724 5.00961 -3.05377 0
M  V30 2101 C 198.076 5.23021 -3.55853 0
M  V30 2102 C 196.74 5.39973 -3.9241 0
M  V30 2103 H 196.01 0.738484 -0.0610162 0
M  V30 2104 H 198.657 1.71896 -0.84404 0
M  V30 2105 H 196.962 3.86634 0.634123 0
M  V30 2106 H 198.659 4.00112 0.266723 0
M  V30 2107 H 195.249 4.12561 -1.16153 0
M  V30 2108 H 199.433 4.51443 -2.06187 0
M  V30 2109 H 194.689 5.12271 -3.3375 0
M  V30 2110 H 198.863 5.52518 -4.23907 0
M  V30 2111 H 196.49 5.82687 -4.88242 0
M  V30 2112 N 198.065 0.39524 1.52563 0
M  V30 2113 C 199.342 -0.242908 1.94086 0
M  V30 2114 C 199.722 -1.63841 1.33114 0
M  V30 2115 O 199.07 -2.22928 0.501529 0
M  V30 2116 C 199.28 -0.26327 3.48006 0
M  V30 2117 C 200.628 -0.489354 4.21771 0
M  V30 2118 O 201.652 -0.343226 3.54543 0
M  V30 2119 O 200.511 -0.776169 5.4096 0
M  V30 2120 H 197.605 -0.152536 0.812811 0
M  V30 2121 H 200.151 0.450178 1.6362 0
M  V30 2122 H 198.923 0.713985 3.84731 0
M  V30 2123 H 198.546 -1.00103 3.84792 0
M  V30 2124 N 199.544 -1.57102 0.125237 0
M  V30 2125 C 200.454 -2.19191 -0.8362 0
M  V30 2126 C 201.47 -1.16985 -1.28805 0
M  V30 2127 O 202.646 -1.49479 -1.34974 0
M  V30 2128 C 199.711 -2.78407 -2.06617 0
M  V30 2129 C 198.772 -3.9567 -1.66565 0
M  V30 2130 C 198.005 -4.52052 -2.83698 0
M  V30 2131 O 198.228 -4.07326 -3.99302 0
M  V30 2132 O 197.162 -5.42645 -2.60423 0
M  V30 2133 H 200.988 -3.01816 -0.337776 0
M  V30 2134 H 198.573 -1.4906 -0.100695 0
M  V30 2135 H 200.455 -3.16129 -2.7864 0
M  V30 2136 H 199.13 -1.9881 -2.55453 0
M  V30 2137 H 198.037 -3.62705 -0.916296 0
M  V30 2138 H 199.37 -4.76722 -1.22464 0
M  V30 2139 N 201.022 0.148545 -1.56898 0
M  V30 2140 C 202.433 0.708766 -1.72723 0
M  V30 2141 C 202.784 1.81734 -0.739395 0
M  V30 2142 O 201.909 2.16194 0.0943169 0
M  V30 2143 C 202.504 1.29245 -3.13179 0
M  V30 2144 C 201.063 1.79925 -3.30611 0
M  V30 2145 C 200.21 0.687111 -2.68652 0
M  V30 2146 H 203.161 -0.0771063 -1.58513 0
M  V30 2147 H 203.182 2.16224 -3.13093 0
M  V30 2148 H 202.694 0.485382 -3.85053 0
M  V30 2149 H 200.795 2.63203 -2.63732 0
M  V30 2150 H 200.908 1.92903 -4.38549 0
M  V30 2151 H 199.272 1.11335 -2.29078 0
M  V30 2152 H 200.055 -0.108483 -3.43129 0
M  V30 2153 N 202.5 1.5196 0.417844 0
M  V30 2154 C 203.746 1.65836 1.16732 0
M  V30 2155 C 204.079 0.382881 1.90388 0
M  V30 2156 O 203.354 -0.618368 1.84408 0
M  V30 2157 C 203.637 2.87466 2.16876 0
M  V30 2158 C 203.49 4.25041 1.47174 0
M  V30 2159 C 204.809 3.04613 3.17646 0
M  V30 2160 H 201.928 0.603515 0.423011 0
M  V30 2161 H 204.57 1.84494 0.454105 0
M  V30 2162 H 202.72 2.71689 2.777 0
M  V30 2163 H 204.392 4.52527 0.895376 0
M  V30 2164 H 202.635 4.26843 0.773806 0
M  V30 2165 H 203.306 5.06176 2.20204 0
M  V30 2166 H 205.782 3.1923 2.66892 0
M  V30 2167 H 204.658 3.91247 3.8499 0
M  V30 2168 H 204.919 2.17541 3.84874 0
M  V30 2169 N 203.978 -0.674533 1.42435 0
M  V30 2170 C 205.255 -1.4305 1.33402 0
M  V30 2171 C 205.635 -2.11081 -0.0284674 0
M  V30 2172 O 204.983 -2.03257 -1.04397 0
M  V30 2173 C 205.193 -2.43272 2.50239 0
M  V30 2174 C 206.541 -3.07907 2.92367 0
M  V30 2175 O 207.565 -2.53599 2.50132 0
M  V30 2176 O 206.424 -4.0632 3.65467 0
M  V30 2177 H 203.518 -0.638076 0.526106 0
M  V30 2178 H 206.064 -0.703235 1.54443 0
M  V30 2179 H 204.836 -1.91803 3.41068 0
M  V30 2180 H 204.459 -3.23479 2.31186 0
M  V30 2181 N 205.456 -1.28612 -0.910864 0
M  V30 2182 C 206.872 -1.06381 -1.18976 0
M  V30 2183 C 207.072 0.191998 -2.00583 0
M  V30 2184 O 206.128 0.892869 -2.36187 0
M  V30 2185 C 207.441 -2.31295 -1.92154 0
M  V30 2186 C 208.989 -2.36503 -2.05025 0
M  V30 2187 C 209.464 -3.61191 -2.81612 0
M  V30 2188 N 210.955 -3.61847 -2.89172 0
M  V30 2189 C 211.69 -4.55004 -3.4894 0
M  V30 2190 N 211.186 -5.58482 -4.09963 0
M  V30 2191 N 212.979 -4.42594 -3.46506 0
M  V30 2192 H 205.13 -2.09221 -0.366094 0
M  V30 2193 H 207.393 -0.921003 -0.224629 0
M  V30 2194 H 207.099 -3.228 -1.39618 0
M  V30 2195 H 206.973 -2.37934 -2.9269 0
M  V30 2196 H 209.36 -1.45494 -2.5674 0
M  V30 2197 H 209.441 -2.33857 -1.03657 0
M  V30 2198 H 209.085 -4.52545 -2.30576 0
M  V30 2199 H 209.015 -3.61092 -3.83302 0
M  V30 2200 H 211.506 -2.87022 -2.45819 0
M  V30 2201 H 211.819 -6.25704 -4.53557 0
M  V30 2202 H 210.164 -5.62305 -4.08459 0
M  V30 2203 H 213.355 -3.60953 -2.98045 0
M  V30 2204 H 213.528 -5.15381 -3.92793 0
M  V30 2205 N 206.934 1.1197 -1.10907 0
M  V30 2206 C 208.183 1.82947 -0.849302 0
M  V30 2207 C 208.496 1.85275 0.627112 0
M  V30 2208 O 209.702 2.52296 1.00295 0
M  V30 2209 C 208.158 3.28529 -1.46959 0
M  V30 2210 C 207.766 3.34546 -2.97965 0
M  V30 2211 C 209.51 4.04443 -1.28942 0
M  V30 2212 C 207.417 4.74491 -3.53004 0
M  V30 2213 H 206.347 0.685477 -0.314065 0
M  V30 2214 H 208.998 1.2604 -1.33365 0
M  V30 2215 H 207.38 3.85333 -0.912917 0
M  V30 2216 H 208.554 2.87654 -3.59989 0
M  V30 2217 H 206.869 2.72108 -3.15192 0
M  V30 2218 H 209.466 5.07787 -1.67502 0
M  V30 2219 H 209.809 4.15656 -0.231456 0
M  V30 2220 H 210.342 3.5401 -1.81443 0
M  V30 2221 H 207.081 4.68474 -4.58489 0
M  V30 2222 H 206.601 5.21816 -2.9575 0
M  V30 2223 H 208.28 5.4344 -3.51115 0
M  V30 2224 N 208.412 0.89855 1.29475 0
M  V30 2225 C 209.658 0.524658 1.95896 0
M  V30 2226 C 209.991 -0.926468 1.70676 0
M  V30 2227 O 209.266 -1.65665 1.01908 0
M  V30 2228 C 209.549 0.81633 3.50725 0
M  V30 2229 C 209.402 2.31907 3.85408 0
M  V30 2230 C 210.721 0.302038 4.39062 0
M  V30 2231 H 207.84 0.19209 0.711527 0
M  V30 2232 H 210.482 1.12502 1.53112 0
M  V30 2233 H 208.632 0.305369 3.87298 0
M  V30 2234 H 210.304 2.89949 3.58786 0
M  V30 2235 H 208.547 2.78027 3.32992 0
M  V30 2236 H 209.218 2.47373 4.93468 0
M  V30 2237 H 211.694 0.739551 4.09475 0
M  V30 2238 H 210.57 0.535331 5.46283 0
M  V30 2239 H 210.831 -0.797216 4.34853 0
M  V30 2240 N 209.89 -1.43072 0.660911 0
M  V30 2241 C 211.115 -2.06584 0.183805 0
M  V30 2242 C 211.54 -1.49257 -1.14472 0
M  V30 2243 O 210.898 -0.605528 -1.70889 0
M  V30 2244 C 210.946 -3.60418 0.114434 0
M  V30 2245 O 210.05 -4.01981 -0.921137 0
M  V30 2246 H 209.391 -0.656669 0.0983994 0
M  V30 2247 H 211.921 -1.83447 0.906006 0
M  V30 2248 H 211.931 -4.07946 -0.0663394 0
M  V30 2249 H 210.606 -4.01519 1.08422 0
M  V30 2250 H 209.183 -3.66029 -0.71253 0
M  V30 2251 N 211.368 -0.403325 -1.52352 0
M  V30 2252 C 212.298 0.416205 -2.29761 0
M  V30 2253 C 213.279 1.05123 -1.33728 0
M  V30 2254 O 214.464 1.06134 -1.62632 0
M  V30 2255 C 211.594 1.53624 -3.11475 0
M  V30 2256 C 210.548 1.02653 -4.15507 0
M  V30 2257 C 209.874 2.23971 -4.85532 0
M  V30 2258 C 211.174 0.08463 -5.22231 0
M  V30 2259 H 212.868 -0.229701 -2.98518 0
M  V30 2260 H 210.414 -0.111913 -1.43564 0
M  V30 2261 H 212.367 2.1165 -3.64393 0
M  V30 2262 H 211.091 2.20994 -2.40477 0
M  V30 2263 H 209.75 0.46871 -3.63591 0
M  V30 2264 H 209.398 2.89883 -4.11068 0
M  V30 2265 H 209.098 1.90521 -5.55856 0
M  V30 2266 H 210.622 2.82614 -5.41259 0
M  V30 2267 H 212.036 0.573509 -5.70424 0
M  V30 2268 H 210.433 -0.160783 -5.99885 0
M  V30 2269 H 211.503 -0.86237 -4.7717 0
M  V30 2270 N 212.846 1.57033 -0.133567 0
M  V30 2271 C 214.094 1.953 0.519848 0
M  V30 2272 C 214.415 1.01866 1.66278 0
M  V30 2273 O 213.685 0.0776513 1.95746 0
M  V30 2274 H 212.265 0.721091 0.195032 0
M  V30 2275 H 214.927 1.93809 -0.205921 0
M  V30 2276 H 214.023 2.98695 0.904854 0
M  V30 2277 N 214.325 -0.140222 1.56975 0
M  V30 2278 C 215.288 -1.15689 1.97861 0
M  V30 2279 C 216.288 -1.3549 0.865974 0
M  V30 2280 O 217.478 -1.32367 1.13246 0
M  V30 2281 C 214.61 -2.51582 2.30042 0
M  V30 2282 H 215.803 -0.805971 2.88867 0
M  V30 2283 H 213.356 -0.383801 1.51515 0
M  V30 2284 H 214.091 -2.91632 1.41849 0
M  V30 2285 H 213.876 -2.38569 3.11171 0
M  V30 2286 H 215.366 -3.24792 2.62488 0
M  V30 2287 N 215.803 -1.52179 -0.40978 0
M  V30 2288 C 217.05 -1.66206 -1.15679 0
M  V30 2289 C 217.378 -0.391674 -1.90516 0
M  V30 2290 O 216.633 0.62533 -1.8544 0
M  V30 2291 C 216.932 -2.83428 -2.17723 0
M  V30 2292 C 216.598 -4.21672 -1.59699 0
M  V30 2293 C 215.26 -4.59274 -1.43599 0
M  V30 2294 C 217.612 -5.07825 -1.17317 0
M  V30 2295 C 214.94 -5.80709 -0.836328 0
M  V30 2296 C 217.292 -6.29864 -0.587691 0
M  V30 2297 C 215.956 -6.66216 -0.413818 0
M  V30 2298 H 215.226 -0.608192 -0.423301 0
M  V30 2299 H 217.873 -1.86279 -0.444097 0
M  V30 2300 H 216.178 -2.57687 -2.95135 0
M  V30 2301 H 217.875 -2.91477 -2.75394 0
M  V30 2302 H 214.465 -3.9204 -1.73213 0
M  V30 2303 H 218.649 -4.79359 -1.28565 0
M  V30 2304 H 213.905 -6.07498 -0.689626 0
M  V30 2305 H 218.079 -6.95948 -0.250894 0
M  V30 2306 H 215.706 -7.60182 0.0529471 0
M  V30 2307 N 217.281 0.66697 -1.42791 0
M  V30 2308 C 218.191 1.80962 -1.49299 0
M  V30 2309 C 219.207 1.69775 -0.381108 0
M  V30 2310 O 220.383 1.91188 -0.633188 0
M  V30 2311 C 217.448 3.17156 -1.40045 0
M  V30 2312 C 216.509 3.40242 -2.6179 0
M  V30 2313 C 215.742 4.69939 -2.52969 0
M  V30 2314 O 215.965 5.48372 -1.56985 0
M  V30 2315 O 214.899 4.94441 -3.43237 0
M  V30 2316 H 218.725 1.78427 -2.45759 0
M  V30 2317 H 216.31 0.823713 -1.24641 0
M  V30 2318 H 218.192 3.98413 -1.37276 0
M  V30 2319 H 216.867 3.20312 -0.467138 0
M  V30 2320 H 215.774 2.58802 -2.70134 0
M  V30 2321 H 217.107 3.41923 -3.54047 0
M  V30 2322 N 218.759 1.29093 0.90403 0
M  V30 2323 C 219.709 1.10482 1.99443 0
M  V30 2324 C 220.693 0.0255401 1.6088 0
M  V30 2325 O 221.885 0.24677 1.75271 0
M  V30 2326 C 219.014 0.778882 3.34348 0
M  V30 2327 C 218.1 1.89749 3.79284 0
M  V30 2328 N 218.491 3.14045 3.96497 0
M  V30 2329 C 216.789 1.78955 4.08523 0
M  V30 2330 C 217.49 3.86996 4.34292 0
M  V30 2331 N 216.466 3.14909 4.43095 0
M  V30 2332 H 220.268 2.04778 2.10815 0
M  V30 2333 H 217.782 1.20155 1.09255 0
M  V30 2334 H 219.779 0.62661 4.12164 0
M  V30 2335 H 218.439 -0.156205 3.24324 0
M  V30 2336 H 219.45 3.49548 3.82148 0
M  V30 2337 H 216.127 0.926886 4.07081 0
M  V30 2338 H 217.517 4.93941 4.55491 0
M  V30 2339 N 220.237 -1.11381 1.11499 0
M  V30 2340 C 221.484 -1.83132 0.864231 0
M  V30 2341 C 221.812 -1.84683 -0.610114 0
M  V30 2342 O 221.067 -1.29589 -1.46646 0
M  V30 2343 C 221.366 -3.30026 1.37177 0
M  V30 2344 C 221.032 -3.48634 2.85946 0
M  V30 2345 C 219.694 -3.53421 3.26569 0
M  V30 2346 C 222.046 -3.54837 3.81759 0
M  V30 2347 C 219.374 -3.61967 4.61733 0
M  V30 2348 C 221.726 -3.64915 5.1674 0
M  V30 2349 C 220.39 -3.67962 5.5692 0
M  V30 2350 H 219.66 -0.670127 0.316245 0
M  V30 2351 H 222.307 -1.31354 1.3935 0
M  V30 2352 H 220.612 -3.84304 0.762753 0
M  V30 2353 H 222.309 -3.84034 1.15408 0
M  V30 2354 H 218.899 -3.45579 2.53521 0
M  V30 2355 H 223.083 -3.50399 3.51474 0
M  V30 2356 H 218.339 -3.62603 4.92269 0
M  V30 2357 H 222.513 -3.68658 5.90816 0
M  V30 2358 H 220.14 -3.74336 6.61647 0
M  V30 2359 N 221.715 -0.905404 -1.28997 0
M  V30 2360 C 222.678 -0.392253 -2.25819 0
M  V30 2361 C 223.678 0.476753 -1.5357 0
M  V30 2362 O 224.868 0.280994 -1.71919 0
M  V30 2363 C 222 0.438588 -3.38067 0
M  V30 2364 H 223.193 -1.24743 -2.72725 0
M  V30 2365 H 220.746 -0.684051 -1.40536 0
M  V30 2366 H 221.481 1.31352 -2.96508 0
M  V30 2367 H 221.266 -0.184167 -3.91667 0
M  V30 2368 H 222.756 0.78873 -4.10084 0
M  V30 2369 N 223.193 1.4272 -0.668489 0
M  V30 2370 C 224.47 1.95248 -0.117373 0
M  V30 2371 C 224.85 1.60919 1.36632 0
M  V30 2372 O 224.198 0.902095 2.09939 0
M  V30 2373 C 224.408 3.46927 -0.379806 0
M  V30 2374 C 225.756 4.23588 -0.292923 0
M  V30 2375 O 226.78 3.5482 -0.313204 0
M  V30 2376 O 225.639 5.46017 -0.229697 0
M  V30 2377 H 222.733 0.827 0.00079152 0
M  V30 2378 H 225.279 1.52581 -0.742783 0
M  V30 2379 H 224.051 3.65096 -1.40786 0
M  V30 2380 H 223.674 3.96627 0.277923 0
M  V30 2381 N 224.671 0.411399 1.52136 0
M  V30 2382 C 225.919 -0.163322 2.01439 0
M  V30 2383 C 226.24 -1.45453 1.29879 0
M  V30 2384 O 225.51 -1.91225 0.4254 0
M  V30 2385 H 224.09 -0.0633447 0.744309 0
M  V30 2386 H 226.752 0.548161 1.87033 0
M  V30 2387 H 225.848 -0.357817 3.10042 0
M  V30 2388 N 226.149 -1.5696 0.141893 0
M  V30 2389 C 227.112 -2.15316 -0.785587 0
M  V30 2390 C 228.112 -1.09366 -1.1788 0
M  V30 2391 O 229.302 -1.35031 -1.10056 0
M  V30 2392 C 226.434 -2.71211 -2.06537 0
M  V30 2393 H 227.627 -2.98608 -0.278041 0
M  V30 2394 H 225.18 -1.5593 -0.107519 0
M  V30 2395 H 225.915 -1.91571 -2.6167 0
M  V30 2396 H 225.7 -3.4872 -1.79268 0
M  V30 2397 H 227.19 -3.16189 -2.72789 0
M  V30 2398 N 227.627 0.131896 -1.57047 0
M  V30 2399 C 228.875 0.840269 -1.83804 0
M  V30 2400 C 229.196 1.81017 -0.72512 0
M  V30 2401 O 228.466 1.94272 0.251995 0
M  V30 2402 H 227.046 0.313294 -0.678127 0
M  V30 2403 H 229.708 0.122294 -1.94516 0
M  V30 2404 H 228.804 1.39335 -2.79271 0
M  V30 2405 N 229.106 1.52395 0.401703 0
M  V30 2406 C 230.383 1.57387 1.16141 0
M  V30 2407 C 230.763 0.359359 2.08019 0
M  V30 2408 O 230.111 -0.65326 2.18963 0
M  V30 2409 C 230.321 2.90631 1.93221 0
M  V30 2410 C 231.669 3.43904 2.49028 0
M  V30 2411 O 232.693 2.92421 2.03393 0
M  V30 2412 O 231.552 4.33823 3.32356 0
M  V30 2413 H 228.646 0.634262 0.530698 0
M  V30 2414 H 231.192 1.64725 0.407883 0
M  V30 2415 H 229.964 3.70473 1.25958 0
M  V30 2416 H 229.587 2.8662 2.75563 0
M  V30 2417 N 230.584 -0.659388 1.43143 0
M  V30 2418 C 231.547 -1.75432 1.47501 0
M  V30 2419 C 232.547 -1.56707 0.360512 0
M  V30 2420 O 233.737 -1.62717 0.622002 0
M  V30 2421 C 230.869 -3.14239 1.32162 0
M  V30 2422 H 232.062 -1.7295 2.45006 0
M  V30 2423 H 229.615 -0.870469 1.29817 0
M  V30 2424 H 230.35 -3.22336 0.356401 0
M  V30 2425 H 230.135 -3.29235 2.12948 0
M  V30 2426 H 231.625 -3.94094 1.3813 0
M  V30 2427 N 232.062 -1.29571 -0.897171 0
M  V30 2428 C 233.31 -1.17456 -1.64464 0
M  V30 2429 C 233.631 0.273698 -1.9307 0
M  V30 2430 O 232.901 1.18684 -1.55855 0
M  V30 2431 H 231.481 -0.431706 -0.609622 0
M  V30 2432 H 234.143 -1.62531 -1.07562 0
M  V30 2433 H 233.239 -1.72648 -2.59998 0
M  V30 2434 N 233.54 1.10788 -1.12088 0
M  V30 2435 C 234.787 1.82671 -0.873931 0
M  V30 2436 C 235.115 1.85004 0.600311 0
M  V30 2437 O 234.37 1.30365 1.45957 0
M  V30 2438 C 234.669 3.29294 -1.38926 0
M  V30 2439 C 234.335 3.47113 -2.87791 0
M  V30 2440 C 232.997 3.51684 -3.28439 0
M  V30 2441 C 235.349 3.52808 -3.83635 0
M  V30 2442 C 232.677 3.59513 -4.63646 0
M  V30 2443 C 235.029 3.62169 -5.18668 0
M  V30 2444 C 233.693 3.65003 -5.58864 0
M  V30 2445 H 232.963 0.668441 -0.319794 0
M  V30 2446 H 235.61 1.30613 -1.40045 0
M  V30 2447 H 233.915 3.83894 -0.783122 0
M  V30 2448 H 235.612 3.83416 -1.17443 0
M  V30 2449 H 232.202 3.4423 -2.5535 0
M  V30 2450 H 236.386 3.4853 -3.53328 0
M  V30 2451 H 231.642 3.59987 -4.94185 0
M  V30 2452 H 235.816 3.6552 -5.92763 0
M  V30 2453 H 233.443 3.70822 -6.63623 0
M  V30 2454 N 235.018 0.912232 1.28515 0
M  V30 2455 C 235.928 0.404506 2.31086 0
M  V30 2456 C 236.944 -0.50707 1.66448 0
M  V30 2457 O 238.12 -0.393624 1.97516 0
M  V30 2458 C 235.185 -0.348572 3.44943 0
M  V30 2459 C 234.246 0.59604 4.25142 0
M  V30 2460 C 233.479 -0.121194 5.33562 0
M  V30 2461 O 233.702 -1.34317 5.5436 0
M  V30 2462 O 232.636 0.542716 5.99448 0
M  V30 2463 H 236.462 1.25579 2.76521 0
M  V30 2464 H 234.047 0.676998 1.33181 0
M  V30 2465 H 235.929 -0.77395 4.14232 0
M  V30 2466 H 234.604 -1.17571 3.01594 0
M  V30 2467 H 233.511 1.07079 3.58448 0
M  V30 2468 H 234.844 1.38995 4.72167 0
M  V30 2469 N 236.496 -1.42363 0.676048 0
M  V30 2470 C 237.912 -1.55811 0.345718 0
M  V30 2471 C 238.112 -1.65544 -1.14879 0
M  V30 2472 O 237.168 -1.62306 -1.93424 0
M  V30 2473 C 238.481 -2.80746 1.07713 0
M  V30 2474 C 240.029 -2.9452 1.05958 0
M  V30 2475 C 240.504 -4.22318 1.77233 0
M  V30 2476 N 241.995 -4.29233 1.74108 0
M  V30 2477 C 242.73 -5.26935 2.26113 0
M  V30 2478 N 242.226 -6.30783 2.86505 0
M  V30 2479 N 244.019 -5.18741 2.1648 0
M  V30 2480 H 236.17 -1.34289 1.6456 0
M  V30 2481 H 238.433 -0.646506 0.69335 0
M  V30 2482 H 238.139 -2.79696 2.13221 0
M  V30 2483 H 238.013 -3.71676 0.64316 0
M  V30 2484 H 240.4 -2.95097 0.0128255 0
M  V30 2485 H 240.481 -2.04817 1.53244 0
M  V30 2486 H 240.125 -4.22502 2.81877 0
M  V30 2487 H 240.055 -5.10958 1.27396 0
M  V30 2488 H 242.546 -3.54814 1.30059 0
M  V30 2489 H 242.859 -7.01691 3.23805 0
M  V30 2490 H 241.204 -6.31341 2.90575 0
M  V30 2491 H 244.395 -4.36533 1.68987 0
M  V30 2492 H 244.568 -5.94721 2.57316 0
M  V30 2493 N 237.974 -0.419461 -1.51915 0
M  V30 2494 C 239.204 0.151915 -2.06041 0
M  V30 2495 C 239.612 1.38539 -1.28855 0
M  V30 2496 O 238.955 1.80592 -0.336463 0
M  V30 2497 C 239.017 0.557119 -3.55157 0
M  V30 2498 C 238.681 -0.567054 -4.53468 0
M  V30 2499 C 239.678 -1.43379 -4.99738 0
M  V30 2500 C 237.363 -0.742693 -4.96779 0
M  V30 2501 C 239.357 -2.46102 -5.87973 0
M  V30 2502 C 237.044 -1.77322 -5.84808 0
M  V30 2503 C 238.042 -2.63078 -6.30301 0
M  V30 2504 O 237.73 -3.64364 -7.16585 0
M  V30 2505 H 237.462 0.0193293 -0.675724 0
M  V30 2506 H 240.016 -0.592073 -1.96682 0
M  V30 2507 H 238.246 1.35355 -3.62238 0
M  V30 2508 H 239.935 1.05759 -3.9188 0
M  V30 2509 H 240.701 -1.30954 -4.66986 0
M  V30 2510 H 236.58 -0.0848307 -4.60922 0
M  V30 2511 H 240.124 -3.13071 -6.23404 0
M  V30 2512 H 236.021 -1.89773 -6.16974 0
M  V30 2513 H 236.789 -3.60731 -7.34721 0
M  V30 2514 N 239.452 1.56882 -0.150215 0
M  V30 2515 C 240.729 1.87844 0.545327 0
M  V30 2516 C 241.109 1.0567 1.82749 0
M  V30 2517 O 240.457 0.144442 2.28043 0
M  V30 2518 C 240.667 3.39526 0.80767 0
M  V30 2519 C 242.015 4.08814 1.14703 0
M  V30 2520 O 243.039 3.44723 0.896917 0
M  V30 2521 O 241.898 5.22004 1.61784 0
M  V30 2522 H 238.992 0.778677 0.278553 0
M  V30 2523 H 241.538 1.68666 -0.187068 0
M  V30 2524 H 240.31 3.91173 -0.0996096 0
M  V30 2525 H 239.933 3.64243 1.59413 0
M  V30 2526 N 240.93 -0.123565 1.57115 0
M  V30 2527 C 242.158 -0.846461 1.88793 0
M  V30 2528 C 242.573 -1.73652 0.740976 0
M  V30 2529 O 241.93 -1.80207 -0.288393 0
M  V30 2530 C 241.981 -1.6837 3.19897 0
M  V30 2531 O 241.702 -0.829477 4.30176 0
M  V30 2532 C 243.203 -2.51214 3.65248 0
M  V30 2533 H 240.423 -0.243573 0.625231 0
M  V30 2534 H 242.967 -0.109324 2.04208 0
M  V30 2535 H 241.122 -2.37364 3.06165 0
M  V30 2536 H 241.536 -1.40651 5.0529 0
M  V30 2537 H 243.01 -3.05497 4.59756 0
M  V30 2538 H 243.487 -3.28359 2.9168 0
M  V30 2539 H 244.093 -1.8747 3.81752 0
M  V30 2540 N 242.408 -1.52605 -0.393616 0
M  V30 2541 C 243.655 -1.67424 -1.1391 0
M  V30 2542 C 243.983 -0.411859 -1.90089 0
M  V30 2543 O 243.238 0.605626 -1.86093 0
M  V30 2544 C 243.537 -2.85721 -2.14705 0
M  V30 2545 C 243.203 -4.23342 -1.55218 0
M  V30 2546 C 241.865 -4.60771 -1.3872 0
M  V30 2547 C 244.217 -5.09041 -1.11924 0
M  V30 2548 C 241.545 -5.81563 -0.774689 0
M  V30 2549 C 243.897 -6.30452 -0.520853 0
M  V30 2550 C 242.561 -6.66617 -0.343134 0
M  V30 2551 H 241.831 -0.612648 -0.416826 0
M  V30 2552 H 244.478 -1.8674 -0.424315 0
M  V30 2553 H 242.783 -2.60803 -2.92385 0
M  V30 2554 H 244.48 -2.94382 -2.72288 0
M  V30 2555 H 241.07 -3.93855 -1.69045 0
M  V30 2556 H 245.254 -4.80695 -1.23473 0
M  V30 2557 H 240.51 -6.08196 -0.625154 0
M  V30 2558 H 244.684 -6.96175 -0.177065 0
M  V30 2559 H 242.311 -7.60083 0.133571 0
M  V30 2560 N 243.887 0.651787 -1.4349 0
M  V30 2561 C 245.134 1.41167 -1.45183 0
M  V30 2562 C 245.462 1.94349 -0.0766601 0
M  V30 2563 O 244.717 1.72804 0.918555 0
M  V30 2564 C 245.016 2.60914 -2.44251 0
M  V30 2565 C 244.682 2.26142 -3.9009 0
M  V30 2566 C 243.344 2.16371 -4.2981 0
M  V30 2567 C 245.696 1.98334 -4.81989 0
M  V30 2568 C 243.024 1.7695 -5.5938 0
M  V30 2569 C 245.376 1.6041 -6.11924 0
M  V30 2570 C 244.04 1.49166 -6.5062 0
M  V30 2571 H 243.31 0.516566 -0.531263 0
M  V30 2572 H 245.957 0.741099 -1.76579 0
M  V30 2573 H 244.262 3.3311 -2.06265 0
M  V30 2574 H 245.959 3.19127 -2.42815 0
M  V30 2575 H 242.549 2.34658 -3.58655 0
M  V30 2576 H 246.733 2.04803 -4.52072 0
M  V30 2577 H 241.989 1.66831 -5.88198 0
M  V30 2578 H 246.163 1.37925 -6.82605 0
M  V30 2579 H 243.79 1.1839 -7.50925 0
M  V30 2580 N 245.365 1.30045 0.890287 0
M  V30 2581 C 246.312 1.15976 1.99545 0
M  V30 2582 C 247.282 0.0506202 1.66023 0
M  V30 2583 O 248.467 0.219847 1.89529 0
M  V30 2584 C 245.607 0.852054 3.34416 0
M  V30 2585 C 244.72 2.04255 3.80662 0
M  V30 2586 C 243.855 1.6734 5.04154 0
M  V30 2587 C 242.894 2.82916 5.42794 0
M  V30 2588 N 242.031 2.46333 6.57468 0
M  V30 2589 H 246.871 2.10524 2.10911 0
M  V30 2590 H 244.408 1.04749 1.03276 0
M  V30 2591 H 246.366 0.654296 4.12037 0
M  V30 2592 H 244.996 -0.0565502 3.2275 0
M  V30 2593 H 244.048 2.35172 2.98995 0
M  V30 2594 H 245.36 2.90826 4.05242 0
M  V30 2595 H 244.514 1.43908 5.89386 0
M  V30 2596 H 243.253 0.779308 4.81433 0
M  V30 2597 H 242.258 3.0702 4.56091 0
M  V30 2598 H 243.483 3.73004 5.6749 0
M  V30 2599 H 241.429 1.59423 6.36334 0
M  V30 2600 H 241.346 3.26436 6.81891 0
M  V30 2601 H 242.614 2.26244 7.45945 0
M  V30 2602 N 246.843 -1.10192 1.12674 0
M  V30 2603 C 247.79 -2.16606 0.796906 0
M  V30 2604 C 248.76 -1.64394 -0.237476 0
M  V30 2605 O 249.945 -1.90474 -0.111484 0
M  V30 2606 C 247.085 -3.44116 0.26043 0
M  V30 2607 C 246.198 -4.10268 1.35293 0
M  V30 2608 C 245.333 -5.25507 0.775621 0
M  V30 2609 C 244.372 -5.83567 1.84706 0
M  V30 2610 N 243.509 -6.90179 1.28829 0
M  V30 2611 H 248.349 -2.44163 1.70846 0
M  V30 2612 H 245.886 -1.19846 0.85295 0
M  V30 2613 H 247.844 -4.17143 -0.0686814 0
M  V30 2614 H 246.474 -3.16901 -0.614274 0
M  V30 2615 H 245.526 -3.35184 1.79877 0
M  V30 2616 H 246.838 -4.4946 2.16303 0
M  V30 2617 H 245.992 -6.05398 0.397327 0
M  V30 2618 H 244.731 -4.87656 -0.0656581 0
M  V30 2619 H 243.736 -5.02344 2.23452 0
M  V30 2620 H 244.961 -6.23482 2.69161 0
M  V30 2621 H 242.907 -6.54322 0.468881 0
M  V30 2622 H 242.824 -7.28097 2.03497 0
M  V30 2623 H 244.092 -7.73844 0.937311 0
M  V30 2624 N 248.321 -0.919034 -1.28029 0
M  V30 2625 C 249.568 -0.554934 -1.94748 0
M  V30 2626 C 249.896 0.90231 -1.72304 0
M  V30 2627 O 249.151 1.65767 -1.04018 0
M  V30 2628 C 249.45 -0.816855 -3.4794 0
M  V30 2629 C 249.116 -2.25448 -3.90492 0
M  V30 2630 C 247.778 -2.64752 -4.01821 0
M  V30 2631 C 250.13 -3.18977 -4.12193 0
M  V30 2632 C 247.458 -3.96727 -4.32232 0
M  V30 2633 C 249.81 -4.50523 -4.44086 0
M  V30 2634 C 248.474 -4.89673 -4.53626 0
M  V30 2635 H 247.744 -0.203065 -0.712633 0
M  V30 2636 H 250.391 -1.16136 -1.52265 0
M  V30 2637 H 248.696 -0.127677 -3.91592 0
M  V30 2638 H 250.393 -0.514238 -3.97689 0
M  V30 2639 H 246.983 -1.93952 -3.82205 0
M  V30 2640 H 251.167 -2.89817 -4.02889 0
M  V30 2641 H 246.423 -4.26754 -4.37825 0
M  V30 2642 H 250.597 -5.23005 -4.59825 0
M  V30 2643 H 248.224 -5.91969 -4.76946 0
M  V30 2644 N 249.799 1.42003 -0.683588 0
M  V30 2645 C 251.029 2.05448 -0.217866 0
M  V30 2646 C 251.437 1.51491 1.13346 0
M  V30 2647 O 250.78 0.653048 1.717 0
M  V30 2648 C 250.842 3.59399 -0.0850118 0
M  V30 2649 C 250.506 4.36093 -1.36645 0
M  V30 2650 C 251.503 4.66169 -2.30179 0
M  V30 2651 C 249.188 4.75578 -1.61649 0
M  V30 2652 C 251.182 5.34676 -3.46988 0
M  V30 2653 C 248.869 5.43824 -2.78745 0
M  V30 2654 C 249.867 5.73299 -3.71238 0
M  V30 2655 O 249.555 6.40142 -4.86285 0
M  V30 2656 H 249.287 0.668344 -0.101454 0
M  V30 2657 H 251.841 1.82974 -0.933248 0
M  V30 2658 H 250.071 3.80566 0.686031 0
M  V30 2659 H 251.76 4.04457 0.341973 0
M  V30 2660 H 252.526 4.36156 -2.12115 0
M  V30 2661 H 248.405 4.52025 -0.905243 0
M  V30 2662 H 251.949 5.57599 -4.19201 0
M  V30 2663 H 247.846 5.73254 -2.96732 0
M  V30 2664 H 248.614 6.58636 -4.85944 0
M  V30 2665 N 251.277 0.427512 1.51691 0
M  V30 2666 C 252.225 -0.403359 2.29076 0
M  V30 2667 C 253.219 -1.02962 1.34518 0
M  V30 2668 O 254.425 -0.965715 1.51901 0
M  V30 2669 H 250.8 -0.148879 0.737115 0
M  V30 2670 H 252.771 0.270295 2.97173 0
M  V30 2671 C 251.52 -1.49763 3.13794 0
M  V30 2672 H 250.843 -1.02508 3.86435 0
M  V30 2673 H 252.283 -2.05244 3.71014 0
M  V30 2674 C 250.742 -2.47536 2.28533 0
M  V30 2675 O 251.272 -3.51848 1.93819 0
M  V30 2676 N 249.478 -2.18187 1.91945 0
M  V30 2677 H 249.025 -1.33389 2.20375 0
M  V30 2678 H 248.983 -2.83848 1.35195 0
M  V30 2679 N 252.755 -1.56801 0.158532 0
M  V30 2680 C 253.685 -2.20347 -0.772609 0
M  V30 2681 C 254.666 -1.15518 -1.24859 0
M  V30 2682 O 255.851 -1.43902 -1.30406 0
M  V30 2683 C 252.981 -2.83417 -2.00729 0
M  V30 2684 C 251.935 -3.94174 -1.66765 0
M  V30 2685 C 251.261 -4.44233 -2.97592 0
M  V30 2686 C 252.561 -5.14392 -0.905447 0
M  V30 2687 H 254.255 -2.98413 -0.242959 0
M  V30 2688 H 251.801 -1.43537 -0.115419 0
M  V30 2689 H 253.754 -3.26543 -2.6636 0
M  V30 2690 H 252.478 -2.02701 -2.56086 0
M  V30 2691 H 251.137 -3.51684 -1.03508 0
M  V30 2692 H 250.785 -3.60325 -3.50963 0
M  V30 2693 H 250.485 -5.18945 -2.75626 0
M  V30 2694 H 252.009 -4.90037 -3.64274 0
M  V30 2695 H 253.423 -5.5429 -1.46408 0
M  V30 2696 H 251.82 -5.9494 -0.7853 0
M  V30 2697 H 252.89 -4.84795 0.100668 0
M  V30 2698 N 254.233 0.115231 -1.57178 0
M  V30 2699 C 255.461 0.836437 -1.89239 0
M  V30 2700 C 255.876 1.73256 -0.750175 0
M  V30 2701 O 255.233 1.80357 0.278832 0
M  V30 2702 C 255.284 1.66671 -3.20785 0
M  V30 2703 O 255.005 0.806652 -4.3061 0
M  V30 2704 C 256.506 2.49274 -3.66575 0
M  V30 2705 H 253.726 0.240253 -0.626514 0
M  V30 2706 H 256.27 0.0984932 -2.04263 0
M  V30 2707 H 254.425 2.35737 -3.0742 0
M  V30 2708 H 254.839 1.37969 -5.06028 0
M  V30 2709 H 256.313 3.03055 -4.6137 0
M  V30 2710 H 256.79 3.26807 -2.93417 0
M  V30 2711 H 257.396 1.85443 -3.82741 0
M  V30 2712 N 255.711 1.52812 0.385517 0
M  V30 2713 C 257.122 1.5993 0.963293 0
M  V30 2714 C 257.473 0.454302 1.90868 0
M  V30 2715 O 256.598 -0.422132 2.12243 0
M  V30 2716 C 257.193 2.89871 1.75387 0
M  V30 2717 C 255.752 2.99389 2.28129 0
M  V30 2718 C 254.899 2.55071 1.08783 0
M  V30 2719 H 257.85 1.5784 0.164948 0
M  V30 2720 H 257.871 2.76553 2.61341 0
M  V30 2721 H 257.383 3.73186 1.06554 0
M  V30 2722 H 255.484 2.20619 3.00263 0
M  V30 2723 H 255.597 4.04096 2.57377 0
M  V30 2724 H 253.961 2.09473 1.4489 0
M  V30 2725 H 254.744 3.40785 0.414807 0
M  V30 2726 N 257.189 -0.644168 1.43834 0
M  V30 2727 C 258.466 -1.40188 1.36406 0
M  V30 2728 C 258.846 -2.11094 0.0163124 0
M  V30 2729 O 258.194 -2.05426 -1.00062 0
M  V30 2730 C 258.404 -2.3791 2.55343 0
M  V30 2731 C 259.752 -3.01637 2.98832 0
M  V30 2732 O 260.776 -2.48237 2.55455 0
M  V30 2733 O 259.635 -3.98477 3.74003 0
M  V30 2734 H 256.729 -0.626773 0.539523 0
M  V30 2735 H 259.275 -0.670317 1.559 0
M  V30 2736 H 258.047 -1.84525 3.4506 0
M  V30 2737 H 257.67 -3.18503 2.37995 0
M  V30 2738 N 258.668 -1.30515 -0.883378 0
M  V30 2739 C 259.945 -1.10086 -1.6168 0
M  V30 2740 C 260.325 0.349269 -2.08191 0
M  V30 2741 O 259.673 1.34105 -1.85008 0
M  V30 2742 C 259.883 -2.10315 -2.78511 0
M  V30 2743 C 261.231 -2.42119 -3.48803 0
M  V30 2744 O 262.255 -2.08638 -2.88702 0
M  V30 2745 O 261.114 -2.99396 -4.57192 0
M  V30 2746 H 258.208 -0.422907 -0.710689 0
M  V30 2747 H 260.754 -1.41947 -0.930015 0
M  V30 2748 H 259.526 -3.07917 -2.41459 0
M  V30 2749 H 259.149 -1.79282 -3.54886 0
M  V30 2750 N 260.146 1.09593 -1.13257 0
M  V30 2751 C 261.394 1.81375 -0.891492 0
M  V30 2752 C 261.715 1.86049 0.584009 0
M  V30 2753 O 260.985 1.34481 1.42449 0
M  V30 2754 H 259.565 0.671708 -0.326828 0
M  V30 2755 H 262.227 1.3256 -1.42877 0
M  V30 2756 H 261.323 2.84612 -1.28071 0
M  V30 2757 N 261.624 0.925811 1.2754 0
M  V30 2758 C 263.04 0.625767 1.46821 0
M  V30 2759 C 263.24 -0.825506 1.83814 0
M  V30 2760 O 262.296 -1.60356 1.95044 0
M  V30 2761 C 263.609 1.57402 2.56213 0
M  V30 2762 C 265.157 1.58204 2.70075 0
M  V30 2763 C 265.632 2.51721 3.82623 0
M  V30 2764 N 267.123 2.49917 3.89994 0
M  V30 2765 C 267.858 3.18968 4.76494 0
M  V30 2766 N 267.354 3.97391 5.67496 0
M  V30 2767 N 269.147 3.07996 4.70208 0
M  V30 2768 H 261.298 1.86409 1.01811 0
M  V30 2769 H 263.561 0.800213 0.508295 0
M  V30 2770 H 263.267 2.60925 2.35819 0
M  V30 2771 H 263.141 1.31428 3.53563 0
M  V30 2772 H 265.528 0.554124 2.89851 0
M  V30 2773 H 265.609 1.88226 1.73218 0
M  V30 2774 H 265.253 3.54622 3.63601 0
M  V30 2775 H 265.183 2.18996 4.78903 0
M  V30 2776 H 267.674 1.9296 3.24923 0
M  V30 2777 H 267.987 4.4707 6.30356 0
M  V30 2778 H 266.332 4.01495 5.67298 0
M  V30 2779 H 269.523 2.46223 3.9811 0
M  V30 2780 H 269.696 3.6208 5.37403 0
M  V30 2781 N 263.102 -1.41638 0.69111 0
M  V30 2782 C 264.035 -2.28183 -0.0274913 0
M  V30 2783 C 265.013 -1.41984 -0.792424 0
M  V30 2784 O 266.197 -1.71415 -0.784169 0
M  V30 2785 C 263.324 -3.22135 -1.04628 0
M  V30 2786 C 262.37 -4.24848 -0.375037 0
M  V30 2787 S 263.203 -5.28231 0.879321 0
M  V30 2788 C 264.359 -6.25748 -0.137983 0
M  V30 2789 H 264.592 -2.88782 0.706553 0
M  V30 2790 H 262.125 -1.46709 0.481222 0
M  V30 2791 H 264.083 -3.76797 -1.62894 0
M  V30 2792 H 262.744 -2.6064 -1.75287 0
M  V30 2793 H 261.937 -4.90837 -1.14433 0
M  V30 2794 H 261.539 -3.73758 0.134434 0
M  V30 2795 H 263.831 -6.70188 -0.992659 0
M  V30 2796 H 264.774 -7.06417 0.487867 0
M  V30 2797 H 265.182 -5.62363 -0.490762 0
M  V30 2798 N 264.58 -0.43555 -1.51462 0
M  V30 2799 C 265.51 0.367376 -2.30592 0
M  V30 2800 C 266.491 1.02263 -1.35928 0
M  V30 2801 O 267.676 1.02661 -1.64847 0
M  V30 2802 C 264.806 1.46983 -3.14664 0
M  V30 2803 C 263.76 0.938161 -4.17591 0
M  V30 2804 C 263.086 2.13622 -4.90173 0
M  V30 2805 C 264.386 -0.0261621 -5.22293 0
M  V30 2806 H 266.08 -0.292969 -2.97963 0
M  V30 2807 H 263.626 -0.14234 -1.43295 0
M  V30 2808 H 265.579 2.03873 -3.688 0
M  V30 2809 H 264.303 2.15843 -2.4511 0
M  V30 2810 H 262.962 0.391481 -3.64504 0
M  V30 2811 H 262.61 2.81098 -4.17124 0
M  V30 2812 H 262.31 1.78688 -5.59772 0
M  V30 2813 H 263.834 2.7107 -5.47132 0
M  V30 2814 H 265.248 0.452384 -5.71512 0
M  V30 2815 H 263.645 -0.287992 -5.99409 0
M  V30 2816 H 264.715 -0.963391 -4.75233 0
M  V30 2817 N 266.058 1.56714 -0.166846 0
M  V30 2818 C 266.988 2.20754 0.760913 0
M  V30 2819 C 267.969 1.16178 1.24244 0
M  V30 2820 O 269.154 1.44592 1.29641 0
M  V30 2821 C 266.284 2.84478 1.99223 0
M  V30 2822 C 265.238 3.95053 1.64672 0
M  V30 2823 C 264.564 4.45805 2.95232 0
M  V30 2824 C 265.864 5.14865 0.878155 0
M  V30 2825 H 267.558 2.98537 0.22713 0
M  V30 2826 H 265.104 1.43596 0.107805 0
M  V30 2827 H 267.057 3.27951 2.64624 0
M  V30 2828 H 265.781 2.04056 2.55007 0
M  V30 2829 H 264.44 3.52228 1.01641 0
M  V30 2830 H 264.088 3.62181 3.49047 0
M  V30 2831 H 263.788 5.204 2.7287 0
M  V30 2832 H 265.312 4.91962 3.6167 0
M  V30 2833 H 266.726 5.55059 1.43466 0
M  V30 2834 H 265.123 5.95348 0.753738 0
M  V30 2835 H 266.193 4.84735 -0.126377 0
M  V30 2836 N 267.536 -0.106894 1.57237 0
M  V30 2837 C 268.486 -1.1366 1.9765 0
M  V30 2838 C 269.47 -1.36416 0.853203 0
M  V30 2839 O 270.662 -1.37305 1.11697 0
M  V30 2840 C 267.791 -2.46 2.39455 0
M  V30 2841 C 266.877 -2.26668 3.58445 0
M  V30 2842 N 267.268 -1.77176 4.73754 0
M  V30 2843 C 265.566 -2.57279 3.64312 0
M  V30 2844 C 266.267 -1.71836 5.5574 0
M  V30 2845 N 265.243 -2.16623 4.98573 0
M  V30 2846 H 269.045 -0.74669 2.84256 0
M  V30 2847 H 266.559 -0.314483 1.59326 0
M  V30 2848 H 268.556 -3.2049 2.6663 0
M  V30 2849 H 267.216 -2.85738 1.54219 0
M  V30 2850 H 268.227 -1.46545 4.96734 0
M  V30 2851 H 264.904 -3.00622 2.89711 0
M  V30 2852 H 266.294 -1.34723 6.58255 0
M  V30 2853 N 269.014 -1.53014 -0.377408 0
M  V30 2854 C 270.242 -1.72515 -1.14219 0
M  V30 2855 C 270.657 -0.448735 -1.8339 0
M  V30 2856 O 270.014 0.577592 -1.73119 0
M  V30 2857 C 270.065 -2.8826 -2.18148 0
M  V30 2858 O 269.786 -4.10962 -1.51795 0
M  V30 2859 C 271.287 -3.19536 -3.07264 0
M  V30 2860 H 268.507 -0.577301 -0.342001 0
M  V30 2861 H 271.051 -1.99712 -0.439935 0
M  V30 2862 H 269.206 -2.63492 -2.83991 0
M  V30 2863 H 269.62 -4.75693 -2.20945 0
M  V30 2864 H 271.094 -4.03959 -3.76193 0
M  V30 2865 H 271.571 -2.34403 -3.71419 0
M  V30 2866 H 272.177 -3.46186 -2.47053 0
M  V30 2867 N 270.492 0.636531 -1.44174 0
M  V30 2868 C 271.741 1.39213 -1.45954 0
M  V30 2869 C 272.054 1.95374 -0.0939119 0
M  V30 2870 O 273.26 2.71498 0.0107767 0
M  V30 2871 C 271.716 2.52025 -2.56927 0
M  V30 2872 C 271.324 2.024 -3.99673 0
M  V30 2873 C 273.068 3.29269 -2.67922 0
M  V30 2874 C 270.975 3.12521 -5.0208 0
M  V30 2875 H 269.905 0.523132 -0.542999 0
M  V30 2876 H 272.556 0.685349 -1.70221 0
M  V30 2877 H 270.938 3.25253 -2.25891 0
M  V30 2878 H 272.112 1.36073 -4.40251 0
M  V30 2879 H 270.427 1.37987 -3.92872 0
M  V30 2880 H 273.024 4.11352 -3.41605 0
M  V30 2881 H 273.367 3.78397 -1.73555 0
M  V30 2882 H 273.9 2.63129 -2.98342 0
M  V30 2883 H 270.639 2.68343 -5.98057 0
M  V30 2884 H 270.159 3.77507 -4.66099 0
M  V30 2885 H 271.838 3.77385 -5.25538 0
M  V30 2886 N 271.97 1.30982 0.876444 0
M  V30 2887 C 273.198 1.23242 1.6619 0
M  V30 2888 C 273.613 -0.203345 1.87702 0
M  V30 2889 O 272.97 -1.13317 1.43057 0
M  V30 2890 C 273.021 1.96623 3.03351 0
M  V30 2891 O 272.742 3.34594 2.82804 0
M  V30 2892 C 274.243 1.95644 3.97792 0
M  V30 2893 H 271.463 0.426126 0.518322 0
M  V30 2894 H 274.007 1.7275 1.09442 0
M  V30 2895 H 272.162 1.50892 3.56806 0
M  V30 2896 H 272.576 3.71873 3.69879 0
M  V30 2897 H 274.05 2.51511 4.91372 0
M  V30 2898 H 274.527 0.937395 4.2908 0
M  V30 2899 H 275.133 2.41225 3.50272 0
M  V30 2900 N 273.449 -1.08991 1.13837 0
M  V30 2901 C 274.698 -1.80631 0.897509 0
M  V30 2902 C 275.011 -1.86872 -0.57777 0
M  V30 2903 O 276.217 -2.54866 -0.935701 0
M  V30 2904 C 274.673 -3.24517 1.55618 0
M  V30 2905 C 274.281 -3.26529 3.0673 0
M  V30 2906 C 276.025 -4.00882 1.3962 0
M  V30 2907 C 273.932 -4.64965 3.65461 0
M  V30 2908 H 272.862 -0.67691 0.332129 0
M  V30 2909 H 275.513 -1.2246 1.3666 0
M  V30 2910 H 273.895 -3.82778 1.01476 0
M  V30 2911 H 275.069 -2.78008 3.67489 0
M  V30 2912 H 273.384 -2.63656 3.22296 0
M  V30 2913 H 275.981 -5.03167 1.80906 0
M  V30 2914 H 276.324 -4.14896 0.341578 0
M  V30 2915 H 276.857 -3.49075 1.90766 0
M  V30 2916 H 273.596 -4.56153 4.70749 0
M  V30 2917 H 273.116 -5.13792 3.09481 0
M  V30 2918 H 274.795 -5.3394 3.654 0
M  V30 2919 N 274.927 -0.932562 -1.27047 0
M  V30 2920 C 276.338 -0.619451 -1.76124 0
M  V30 2921 C 276.689 0.865397 -1.76083 0
M  V30 2922 O 275.814 1.67722 -1.36742 0
M  V30 2923 C 276.409 -1.11771 -3.19832 0
M  V30 2924 C 274.968 -0.855174 -3.66557 0
M  V30 2925 C 274.115 -1.27362 -2.46321 0
M  V30 2926 H 277.066 -1.11181 -1.13245 0
M  V30 2927 H 277.087 -0.46759 -3.77616 0
M  V30 2928 H 276.599 -2.19842 -3.1983 0
M  V30 2929 H 274.7 0.211524 -3.71999 0
M  V30 2930 H 274.813 -1.47613 -4.55793 0
M  V30 2931 H 273.177 -0.692119 -2.45116 0
M  V30 2932 H 273.96 -2.36307 -2.49025 0
M  V30 2933 N 276.405 1.4127 -0.698611 0
M  V30 2934 C 277.682 1.94955 -0.158762 0
M  V30 2935 C 278.062 1.63781 1.33188 0
M  V30 2936 O 277.41 0.946423 2.07979 0
M  V30 2937 C 277.62 3.46044 -0.453309 0
M  V30 2938 C 278.968 4.22872 -0.382707 0
M  V30 2939 O 279.992 3.54076 -0.388396 0
M  V30 2940 O 278.851 5.45407 -0.345463 0
M  V30 2941 H 275.945 0.82683 -0.0167505 0
M  V30 2942 H 278.491 1.50971 -0.77498 0
M  V30 2943 H 277.263 3.62028 -1.48498 0
M  V30 2944 H 276.886 3.97128 0.19373 0
M  V30 2945 N 277.883 0.443576 1.51229 0
M  V30 2946 C 278.83 -0.364716 2.279 0
M  V30 2947 C 279.8 -1.0114 1.31757 0
M  V30 2948 O 280.985 -1.02912 1.60667 0
M  V30 2949 C 278.125 -1.45644 3.12861 0
M  V30 2950 C 277.238 -0.827269 4.24005 0
M  V30 2951 C 276.373 -1.89456 4.96266 0
M  V30 2952 C 275.412 -1.24416 5.99322 0
M  V30 2953 N 274.549 -2.25309 6.64966 0
M  V30 2954 H 279.389 0.295464 2.96532 0
M  V30 2955 H 276.926 0.157554 1.46254 0
M  V30 2956 H 278.884 -2.10076 3.6045 0
M  V30 2957 H 277.514 -2.08616 2.46331 0
M  V30 2958 H 276.566 -0.0710839 3.80334 0
M  V30 2959 H 277.878 -0.312481 4.9782 0
M  V30 2960 H 277.032 -2.61535 5.47434 0
M  V30 2961 H 275.771 -2.4431 4.22095 0
M  V30 2962 H 274.776 -0.508868 5.4744 0
M  V30 2963 H 276.001 -0.702882 6.75453 0
M  V30 2964 H 273.947 -2.79231 5.93604 0
M  V30 2965 H 273.864 -1.78739 7.34567 0
M  V30 2966 H 275.132 -2.96853 7.20763 0
M  V30 2967 N 279.361 -1.56624 0.175154 0
M  V30 2968 C 280.271 -2.21741 -0.766042 0
M  V30 2969 C 281.287 -1.21023 -1.25018 0
M  V30 2970 O 282.463 -1.53697 -1.3015 0
M  V30 2971 C 279.528 -2.84839 -1.97655 0
M  V30 2972 C 278.589 -4.00769 -1.53892 0
M  V30 2973 C 277.822 -4.60849 -2.69173 0
M  V30 2974 O 278.045 -4.19823 -3.86141 0
M  V30 2975 O 276.979 -5.50655 -2.43028 0
M  V30 2976 H 280.805 -3.02738 -0.241585 0
M  V30 2977 H 278.39 -1.49305 -0.053222 0
M  V30 2978 H 280.272 -3.24834 -2.68442 0
M  V30 2979 H 278.947 -2.06836 -2.48999 0
M  V30 2980 H 277.854 -3.65436 -0.80044 0
M  V30 2981 H 279.187 -4.80376 -1.07236 0
M  V30 2982 N 280.839 0.0985539 -1.57292 0
M  V30 2983 C 281.749 1.13824 -2.05137 0
M  V30 2984 C 282.765 1.44076 -0.975604 0
M  V30 2985 O 283.941 1.54786 -1.28853 0
M  V30 2986 C 281.006 2.43969 -2.46333 0
M  V30 2987 C 280.067 2.2093 -3.68087 0
M  V30 2988 C 279.3 3.44869 -4.0731 0
M  V30 2989 O 279.523 4.52972 -3.46659 0
M  V30 2990 O 278.457 3.34661 -5.00285 0
M  V30 2991 H 282.283 0.761881 -2.93988 0
M  V30 2992 H 279.868 0.310818 -1.46131 0
M  V30 2993 H 281.75 3.20609 -2.73473 0
M  V30 2994 H 280.425 2.81038 -1.60621 0
M  V30 2995 H 279.332 1.42081 -3.46069 0
M  V30 2996 H 280.665 1.88755 -4.54568 0
M  V30 2997 N 282.317 1.53212 0.369288 0
M  V30 2998 C 283.28 1.7872 1.43498 0
M  V30 2999 C 284.28 0.657554 1.46741 0
M  V30 3000 O 285.47 0.925736 1.47566 0
M  V30 3001 C 282.602 1.90591 2.82645 0
M  V30 3002 H 283.795 2.73894 1.22156 0
M  V30 3003 H 281.348 1.44233 0.602203 0
M  V30 3004 H 282.083 0.974709 3.09306 0
M  V30 3005 H 281.868 2.72751 2.8169 0
M  V30 3006 H 283.358 2.11931 3.59826 0
M  V30 3007 N 283.795 -0.628877 1.44509 0
M  V30 3008 C 284.727 -1.754 1.47538 0
M  V30 3009 C 285.74 -1.58575 0.368506 0
M  V30 3010 O 286.929 -1.66847 0.634376 0
M  V30 3011 C 284.029 -3.1315 1.29577 0
M  V30 3012 C 283.202 -3.56413 2.53551 0
M  V30 3013 C 282.261 -4.7305 2.30457 0
M  V30 3014 O 281.287 -4.81247 3.03957 0
M  V30 3015 N 282.489 -5.64903 1.3366 0
M  V30 3016 H 285.254 -1.73272 2.44534 0
M  V30 3017 H 282.815 -0.813512 1.39977 0
M  V30 3018 H 284.807 -3.88902 1.11971 0
M  V30 3019 H 283.377 -3.09908 0.409371 0
M  V30 3020 H 282.597 -2.70847 2.86419 0
M  V30 3021 H 283.885 -3.82071 3.36005 0
M  V30 3022 H 283.283 -5.60975 0.729604 0
M  V30 3023 H 281.84 -6.40275 1.22032 0
M  V30 3024 N 285.273 -1.31445 -0.869486 0
M  V30 3025 C 286.183 -1.21097 -2.0093 0
M  V30 3026 C 287.199 -0.127584 -1.73532 0
M  V30 3027 O 288.375 -0.345477 -1.98415 0
M  V30 3028 C 285.44 -0.919378 -3.34288 0
M  V30 3029 C 284.501 -2.08971 -3.75006 0
M  V30 3030 C 283.734 -1.81194 -5.02001 0
M  V30 3031 O 283.957 -0.747296 -5.65484 0
M  V30 3032 O 282.891 -2.66883 -5.39497 0
M  V30 3033 H 286.717 -2.16883 -2.12592 0
M  V30 3034 H 284.302 -1.11189 -0.997868 0
M  V30 3035 H 286.184 -0.772625 -4.14257 0
M  V30 3036 H 284.859 0.00844772 -3.23699 0
M  V30 3037 H 283.766 -2.29187 -2.95676 0
M  V30 3038 H 285.099 -2.9998 -3.90221 0
M  V30 3039 N 286.751 1.08385 -1.14413 0
M  V30 3040 C 287.681 2.17321 -0.854044 0
M  V30 3041 C 288.662 1.69024 0.191049 0
M  V30 3042 O 289.847 1.94141 0.0476779 0
M  V30 3043 C 286.977 3.45719 -0.330983 0
M  V30 3044 C 285.931 4.07409 -1.31155 0
M  V30 3045 C 285.257 5.30762 -0.64778 0
M  V30 3046 C 286.557 4.48665 -2.67388 0
M  V30 3047 H 288.251 2.41845 -1.76498 0
M  V30 3048 H 285.797 1.16233 -0.850051 0
M  V30 3049 H 287.75 4.21241 -0.115645 0
M  V30 3050 H 286.474 3.2075 0.615381 0
M  V30 3051 H 285.133 3.33919 -1.51306 0
M  V30 3052 H 284.781 5.02078 0.304398 0
M  V30 3053 H 284.481 5.72992 -1.30207 0
M  V30 3054 H 286.005 6.08998 -0.441972 0
M  V30 3055 H 287.419 5.15364 -2.51143 0
M  V30 3056 H 285.816 5.01814 -3.29093 0
M  V30 3057 H 286.886 3.60543 -3.24248 0
M  V30 3058 N 288.23 0.939286 1.26551 0
M  V30 3059 C 289.478 0.58469 1.93457 0
M  V30 3060 C 289.799 -0.878774 1.74076 0
M  V30 3061 O 289.069 -1.62421 1.09528 0
M  V30 3062 H 287.649 0.21325 0.715914 0
M  V30 3063 H 290.311 1.1942 1.54029 0
M  V30 3064 H 289.407 0.800849 3.0165 0
M  V30 3065 N 289.708 -1.40897 0.706093 0
M  V30 3066 C 290.638 -2.33418 0.0620085 0
M  V30 3067 C 291.619 -1.52385 -0.755827 0
M  V30 3068 O 292.804 -1.80886 -0.706674 0
M  V30 3069 C 289.934 -3.36293 -0.867445 0
M  V30 3070 C 288.888 -4.27716 -0.155932 0
M  V30 3071 C 288.214 -5.2105 -1.20046 0
M  V30 3072 C 289.514 -5.12944 0.984149 0
M  V30 3073 H 291.208 -2.87527 0.83477 0
M  V30 3074 H 288.754 -1.38249 0.402875 0
M  V30 3075 H 290.707 -3.99949 -1.32735 0
M  V30 3076 H 289.431 -2.80556 -1.67199 0
M  V30 3077 H 288.09 -3.65498 0.284047 0
M  V30 3078 H 287.738 -4.61624 -1.99781 0
M  V30 3079 H 287.438 -5.83056 -0.729328 0
M  V30 3080 H 288.962 -5.87584 -1.66066 0
M  V30 3081 H 290.376 -5.70109 0.604048 0
M  V30 3082 H 288.773 -5.83945 1.38304 0
M  V30 3083 H 289.843 -4.49485 1.81911 0
M  V30 3084 N 291.186 -0.45159 -1.50991 0
M  V30 3085 C 292.414 0.108334 -2.06616 0
M  V30 3086 C 292.829 1.35224 -1.31757 0
M  V30 3087 O 292.186 1.78475 -0.381174 0
M  V30 3088 C 292.237 0.41619 -3.59096 0
M  V30 3089 O 291.958 -0.778361 -4.3113 0
M  V30 3090 C 293.459 1.02523 -4.31282 0
M  V30 3091 H 290.679 0.00159995 -0.670998 0
M  V30 3092 H 293.223 -0.634771 -1.94399 0
M  V30 3093 H 291.378 1.10921 -3.71181 0
M  V30 3094 H 291.792 -0.511181 -5.22003 0
M  V30 3095 H 293.266 1.19053 -5.39009 0
M  V30 3096 H 293.743 2.01013 -3.905 0
M  V30 3097 H 294.349 0.371173 -4.23677 0
M  V30 3098 N 292.664 1.56529 -0.183458 0
M  V30 3099 C 293.889 2.02064 0.467428 0
M  V30 3100 C 294.314 1.06282 1.55196 0
M  V30 3101 O 293.672 0.0443565 1.81246 0
M  V30 3102 C 293.72 3.46122 1.01153 0
M  V30 3103 O 292.824 3.53437 2.12499 0
M  V30 3104 H 292.165 0.654726 0.110588 0
M  V30 3105 H 294.695 2.02521 -0.290917 0
M  V30 3106 H 294.705 3.85676 1.33108 0
M  V30 3107 H 293.38 4.15331 0.217533 0
M  V30 3108 H 291.957 3.2575 1.81497 0
M  V30 3109 N 294.142 -0.090211 1.57342 0
M  V30 3110 C 295.553 -0.644173 1.75235 0
M  V30 3111 C 295.904 -1.78865 0.806335 0
M  V30 3112 O 295.029 -2.16395 -0.0140128 0
M  V30 3113 C 295.624 -1.17532 3.1776 0
M  V30 3114 C 294.183 -1.67531 3.37061 0
M  V30 3115 C 293.33 -0.58693 2.71017 0
M  V30 3116 H 296.281 0.135884 1.58117 0
M  V30 3117 H 296.302 -2.04455 3.20902 0
M  V30 3118 H 295.814 -0.342138 3.86589 0
M  V30 3119 H 293.915 -2.53234 2.73319 0
M  V30 3120 H 294.028 -1.76493 4.45406 0
M  V30 3121 H 292.392 -1.02756 2.33052 0
M  V30 3122 H 293.175 0.235758 3.4249 0
M  V30 3123 N 295.62 -1.53406 -0.361157 0
M  V30 3124 C 296.553 -1.74946 -1.46524 0
M  V30 3125 C 297.531 -0.59795 -1.51206 0
M  V30 3126 O 298.715 -0.831062 -1.69191 0
M  V30 3127 C 295.842 -1.83224 -2.84863 0
M  V30 3128 C 294.888 -3.05233 -2.97885 0
M  V30 3129 S 295.721 -4.6466 -2.66179 0
M  V30 3130 C 296.877 -4.75793 -4.06659 0
M  V30 3131 H 297.11 -2.68319 -1.28033 0
M  V30 3132 H 294.643 -1.44051 -0.555764 0
M  V30 3133 H 296.601 -1.88679 -3.64569 0
M  V30 3134 H 295.262 -0.908948 -3.00661 0
M  V30 3135 H 294.455 -3.07648 -3.9921 0
M  V30 3136 H 294.057 -2.97913 -2.26106 0
M  V30 3137 H 296.349 -4.5612 -5.0096 0
M  V30 3138 H 297.292 -5.7786 -4.09247 0
M  V30 3139 H 297.7 -4.04389 -3.93865 0
M  V30 3140 N 297.098 0.621204 -1.44841 0
M  V30 3141 C 298.323 1.41244 -1.51871 0
M  V30 3142 C 298.748 1.87519 -0.147764 0
M  V30 3143 O 298.106 1.59334 0.865 0
M  V30 3144 C 298.154 2.60221 -2.49634 0
M  V30 3145 O 297.258 3.60395 -2.00473 0
M  V30 3146 H 296.599 0.42223 -0.512463 0
M  V30 3147 H 299.129 0.757305 -1.90069 0
M  V30 3148 H 299.139 3.0764 -2.67996 0
M  V30 3149 H 297.814 2.25887 -3.4921 0
M  V30 3150 H 296.391 3.19717 -1.91925 0
M  V30 3151 N 298.576 1.31904 0.862503 0
M  V30 3152 C 299.506 1.22782 1.98612 0
M  V30 3153 C 300.487 0.113362 1.69722 0
M  V30 3154 O 301.672 0.299218 1.91881 0
M  V30 3155 C 298.802 0.942058 3.34279 0
M  V30 3156 C 297.756 2.0169 3.77499 0
M  V30 3157 C 297.082 1.58369 5.10709 0
M  V30 3158 C 298.382 3.43096 3.93805 0
M  V30 3159 H 300.076 2.16788 2.06502 0
M  V30 3160 H 297.622 1.04366 0.992154 0
M  V30 3161 H 299.575 0.864818 4.1243 0
M  V30 3162 H 298.299 -0.0336603 3.26583 0
M  V30 3163 H 296.958 2.08416 3.01593 0
M  V30 3164 H 296.606 0.595628 4.99461 0
M  V30 3165 H 296.306 2.30279 5.40597 0
M  V30 3166 H 297.83 1.52067 5.91361 0
M  V30 3167 H 299.244 3.39003 4.62331 0
M  V30 3168 H 297.641 4.13288 4.35101 0
M  V30 3169 H 298.711 3.83334 2.96957 0
M  V30 3170 N 300.054 -1.07777 1.14986 0
M  V30 3171 C 300.984 -2.16865 0.865557 0
M  V30 3172 C 301.965 -1.69123 -0.182083 0
M  V30 3173 O 303.15 -1.94164 -0.0373815 0
M  V30 3174 C 300.28 -3.45539 0.349313 0
M  V30 3175 C 299.234 -4.06708 1.33313 0
M  V30 3176 C 298.56 -5.30411 0.675918 0
M  V30 3177 C 299.86 -4.47241 2.69764 0
M  V30 3178 H 301.554 -2.40905 1.77778 0
M  V30 3179 H 299.1 -1.15781 0.856203 0
M  V30 3180 H 301.053 -4.21174 0.137983 0
M  V30 3181 H 299.777 -3.21072 -0.598362 0
M  V30 3182 H 298.436 -3.33112 1.53075 0
M  V30 3183 H 298.084 -5.02232 -0.277767 0
M  V30 3184 H 297.784 -5.72293 1.33244 0
M  V30 3185 H 299.308 -6.08755 0.474262 0
M  V30 3186 H 300.722 -5.14025 2.53873 0
M  V30 3187 H 299.119 -5.00062 3.3175 0
M  V30 3188 H 300.189 -3.58818 3.26156 0
M  V30 3189 N 301.532 -0.945985 -1.26051 0
M  V30 3190 C 302.948 -0.649045 -1.45807 0
M  V30 3191 C 303.148 0.796158 -1.85104 0
M  V30 3192 O 302.204 1.57233 -1.97571 0
M  V30 3193 C 303.517 -1.61458 -2.53677 0
M  V30 3194 C 305.065 -1.62481 -2.67524 0
M  V30 3195 C 305.54 -2.57776 -3.7857 0
M  V30 3196 N 307.031 -2.5609 -3.85969 0
M  V30 3197 C 307.766 -3.26508 -4.7136 0
M  V30 3198 N 307.262 -4.0637 -5.61102 0
M  V30 3199 N 309.055 -3.15437 -4.65248 0
M  V30 3200 H 301.206 -1.88005 -0.988328 0
M  V30 3201 H 303.469 -0.808198 -0.4955 0
M  V30 3202 H 303.175 -2.64644 -2.31638 0
M  V30 3203 H 303.049 -1.37036 -3.51427 0
M  V30 3204 H 305.436 -0.600167 -2.88933 0
M  V30 3205 H 305.517 -1.90958 -1.70202 0
M  V30 3206 H 305.161 -3.60361 -3.57913 0
M  V30 3207 H 305.091 -2.26587 -4.75359 0
M  V30 3208 H 307.582 -1.98105 -3.21812 0
M  V30 3209 H 307.895 -4.57042 -6.23164 0
M  V30 3210 H 306.24 -4.10469 -5.60839 0
M  V30 3211 H 309.431 -2.52525 -3.94143 0
M  V30 3212 H 309.604 -3.70584 -5.31575 0
M  V30 3213 N 303.011 1.40521 -0.713556 0
M  V30 3214 C 304.258 2.00923 -0.25219 0
M  V30 3215 C 304.586 1.56571 1.15395 0
M  V30 3216 O 303.841 0.775874 1.79663 0
M  V30 3217 C 304.14 3.56317 -0.278 0
M  V30 3218 C 303.806 4.20246 -1.63415 0
M  V30 3219 C 302.468 4.37422 -2.00538 0
M  V30 3220 C 304.82 4.55923 -2.52554 0
M  V30 3221 C 302.148 4.87558 -3.2635 0
M  V30 3222 C 304.5 5.07458 -3.77716 0
M  V30 3223 C 303.164 5.22843 -4.14959 0
M  V30 3224 H 302.434 0.735231 -0.0922829 0
M  V30 3225 H 305.081 1.68161 -0.916188 0
M  V30 3226 H 303.386 3.88976 0.469567 0
M  V30 3227 H 305.083 4.00883 0.0967819 0
M  V30 3228 H 301.673 4.07263 -1.33546 0
M  V30 3229 H 305.857 4.42291 -2.25149 0
M  V30 3230 H 301.113 4.97654 -3.55176 0
M  V30 3231 H 305.287 5.34041 -4.4696 0
M  V30 3232 H 302.914 5.61454 -5.12516 0
M  V30 3233 N 304.489 0.459591 1.5075 0
M  V30 3234 C 305.738 -0.100971 2.01447 0
M  V30 3235 C 306.051 -1.41816 1.34713 0
M  V30 3236 O 307.257 -2.06299 1.76502 0
M  V30 3237 C 305.713 -0.23047 3.59161 0
M  V30 3238 C 305.321 1.0776 4.34847 0
M  V30 3239 C 307.065 -0.743608 4.17936 0
M  V30 3240 C 304.972 0.91253 5.84317 0
M  V30 3241 H 303.902 -0.0415102 0.752856 0
M  V30 3242 H 306.553 0.592742 1.73663 0
M  V30 3243 H 304.935 -0.987703 3.83485 0
M  V30 3244 H 306.109 1.8449 4.22256 0
M  V30 3245 H 304.424 1.52097 3.87628 0
M  V30 3246 H 307.021 -0.883959 5.27343 0
M  V30 3247 H 307.364 -1.73196 3.78562 0
M  V30 3248 H 307.897 -0.04408 3.97776 0
M  V30 3249 H 304.636 1.87391 6.28144 0
M  V30 3250 H 304.156 0.185422 5.99513 0
M  V30 3251 H 305.835 0.574547 6.44444 0
M  V30 3252 N 305.967 -1.56429 0.191757 0
M  V30 3253 C 306.914 -2.18936 -0.730454 0
M  V30 3254 C 307.884 -1.13557 -1.21219 0
M  V30 3255 O 309.069 -1.41794 -1.27668 0
M  V30 3256 C 306.209 -2.85013 -1.9458 0
M  V30 3257 C 305.322 -4.04909 -1.50574 0
M  V30 3258 C 304.457 -4.58853 -2.67634 0
M  V30 3259 C 303.496 -5.71114 -2.20217 0
M  V30 3260 N 302.633 -6.19478 -3.30442 0
M  V30 3261 H 307.473 -2.97389 -0.190664 0
M  V30 3262 H 305.01 -1.46869 -0.0823694 0
M  V30 3263 H 306.968 -3.21492 -2.65893 0
M  V30 3264 H 305.598 -2.09129 -2.45896 0
M  V30 3265 H 304.65 -3.74115 -0.688605 0
M  V30 3266 H 305.962 -4.86113 -1.11784 0
M  V30 3267 H 305.116 -4.97619 -3.47074 0
M  V30 3268 H 303.855 -3.76749 -3.09696 0
M  V30 3269 H 302.86 -5.31879 -1.3923 0
M  V30 3270 H 304.085 -6.55033 -1.79189 0
M  V30 3271 H 302.031 -5.40297 -3.72041 0
M  V30 3272 H 301.948 -6.95725 -2.9581 0
M  V30 3273 H 303.216 -6.62898 -4.10106 0
M  V30 3274 N 307.445 0.0818655 -1.57387 0
M  V30 3275 C 308.692 0.782914 -1.86753 0
M  V30 3276 C 309.02 1.78082 -0.782118 0
M  V30 3277 O 308.275 1.94426 0.22295 0
M  V30 3278 C 308.574 1.53513 -3.22752 0
M  V30 3279 C 308.24 0.678134 -4.45771 0
M  V30 3280 C 306.902 0.441929 -4.79166 0
M  V30 3281 C 309.254 0.0832243 -5.21134 0
M  V30 3282 C 306.582 -0.398833 -5.85343 0
M  V30 3283 C 308.934 -0.744935 -6.28199 0
M  V30 3284 C 307.598 -0.991107 -6.60101 0
M  V30 3285 H 306.868 0.286489 -0.683378 0
M  V30 3286 H 309.515 0.0439808 -1.91449 0
M  V30 3287 H 307.82 2.34599 -3.138 0
M  V30 3288 H 309.517 2.08218 -3.42705 0
M  V30 3289 H 306.107 0.872357 -4.19628 0
M  V30 3290 H 310.291 0.252847 -4.95655 0
M  V30 3291 H 305.547 -0.598405 -6.08465 0
M  V30 3292 H 309.721 -1.21271 -6.8576 0
M  V30 3293 H 307.348 -1.64437 -7.42202 0
M  V30 3294 N 308.923 1.53595 0.353017 0
M  V30 3295 C 310.172 1.69603 1.09168 0
M  V30 3296 C 310.485 0.460925 1.90092 0
M  V30 3297 O 311.691 0.501774 2.66823 0
M  V30 3298 C 310.147 2.99872 1.9901 0
M  V30 3299 C 309.755 4.30687 1.23339 0
M  V30 3300 C 311.499 3.25246 2.72792 0
M  V30 3301 C 309.406 5.52036 2.12156 0
M  V30 3302 H 308.336 0.631966 0.411261 0
M  V30 3303 H 310.987 1.80096 0.351802 0
M  V30 3304 H 309.369 2.83212 2.7678 0
M  V30 3305 H 310.543 4.58019 0.505456 0
M  V30 3306 H 308.858 4.11853 0.613663 0
M  V30 3307 H 311.455 4.13095 3.39495 0
M  V30 3308 H 311.798 2.41846 3.38846 0
M  V30 3309 H 312.331 3.42638 2.021 0
M  V30 3310 H 309.07 6.37951 1.50659 0
M  V30 3311 H 308.59 5.28966 2.82764 0
M  V30 3312 H 310.269 5.87313 2.71427 0
M  V30 3313 N 310.401 -0.613514 1.45168 0
M  V30 3314 C 311.331 -1.7354 1.56225 0
M  V30 3315 C 312.312 -1.64981 0.41414 0
M  V30 3316 O 313.497 -1.83472 0.636526 0
M  V30 3317 C 310.627 -3.12128 1.52295 0
M  V30 3318 C 309.581 -3.35491 2.65762 0
M  V30 3319 C 308.907 -4.74291 2.46885 0
M  V30 3320 C 310.207 -3.26325 4.0781 0
M  V30 3321 H 311.901 -1.64543 2.50132 0
M  V30 3322 H 309.447 -0.790185 1.20383 0
M  V30 3323 H 311.4 -3.90404 1.58628 0
M  V30 3324 H 310.124 -3.2195 0.549139 0
M  V30 3325 H 308.783 -2.59603 2.58847 0
M  V30 3326 H 308.431 -4.80839 1.47657 0
M  V30 3327 H 308.131 -4.9088 3.22972 0
M  V30 3328 H 309.655 -5.54775 2.55063 0
M  V30 3329 H 311.069 -3.94483 4.16 0
M  V30 3330 H 309.466 -3.54445 4.8424 0
M  V30 3331 H 310.536 -2.23855 4.30136 0
M  V30 3332 N 311.879 -1.3236 -0.855495 0
M  V30 3333 C 313.107 -1.2587 -1.64208 0
M  V30 3334 C 313.522 0.173457 -1.88002 0
M  V30 3335 O 312.879 1.11027 -1.44842 0
M  V30 3336 C 312.93 -2.01424 -3.00184 0
M  V30 3337 O 312.651 -3.39051 -2.77445 0
M  V30 3338 C 314.152 -2.01948 -3.94629 0
M  V30 3339 H 311.372 -0.434318 -0.511477 0
M  V30 3340 H 313.916 -1.74469 -1.0668 0
M  V30 3341 H 312.071 -1.56549 -3.5436 0
M  V30 3342 H 312.485 -3.77711 -3.63916 0
M  V30 3343 H 313.959 -2.59297 -4.87308 0
M  V30 3344 H 314.436 -1.00554 -4.27534 0
M  V30 3345 H 315.042 -2.46767 -3.4639 0
M  V30 3346 N 313.357 1.07166 -1.15556 0
M  V30 3347 C 314.267 2.17947 -0.868116 0
M  V30 3348 C 315.283 1.73297 0.156297 0
M  V30 3349 O 316.459 2.01392 -0.0182327 0
M  V30 3350 C 313.524 3.44789 -0.36355 0
M  V30 3351 C 312.585 4.03996 -1.45209 0
M  V30 3352 C 311.818 5.24783 -0.971508 0
M  V30 3353 O 312.041 5.70109 0.182194 0
M  V30 3354 O 310.975 5.75715 -1.75603 0
M  V30 3355 H 314.801 2.4503 -1.79427 0
M  V30 3356 H 312.386 1.16539 -0.934824 0
M  V30 3357 H 314.268 4.21307 -0.0887113 0
M  V30 3358 H 312.943 3.19253 0.534708 0
M  V30 3359 H 311.85 3.29009 -1.78056 0
M  V30 3360 H 313.183 4.33808 -2.32533 0
M  V30 3361 N 314.835 0.952656 1.25548 0
M  V30 3362 C 316.084 0.602053 1.92505 0
M  V30 3363 C 316.397 -0.864663 1.75451 0
M  V30 3364 O 317.603 -1.32514 2.36965 0
M  V30 3365 C 316.059 1.02607 3.44963 0
M  V30 3366 C 315.667 2.51519 3.70732 0
M  V30 3367 C 317.411 0.747905 4.1786 0
M  V30 3368 C 315.318 2.87732 5.16686 0
M  V30 3369 H 314.248 0.22146 0.720744 0
M  V30 3370 H 316.899 1.15684 1.42441 0
M  V30 3371 H 315.281 0.399712 3.93978 0
M  V30 3372 H 316.455 3.19157 3.32378 0
M  V30 3373 H 314.77 2.76786 3.11092 0
M  V30 3374 H 317.367 0.994647 5.25367 0
M  V30 3375 H 317.71 -0.315629 4.15102 0
M  V30 3376 H 318.243 1.33452 3.74747 0
M  V30 3377 H 314.982 3.93095 5.24554 0
M  V30 3378 H 314.502 2.24765 5.56094 0
M  V30 3379 H 316.181 2.76817 5.84792 0
M  V30 3380 N 316.313 -1.40141 0.720998 0
M  V30 3381 C 317.56 -2.00787 0.262842 0
M  V30 3382 C 317.888 -1.5718 -1.14563 0
M  V30 3383 O 317.143 -0.785391 -1.79249 0
M  V30 3384 C 317.442 -3.56165 0.296892 0
M  V30 3385 C 317.108 -4.19373 1.65641 0
M  V30 3386 C 315.77 -4.36352 2.02855 0
M  V30 3387 C 318.122 -4.54578 2.54968 0
M  V30 3388 C 315.45 -4.8582 3.28931 0
M  V30 3389 C 317.802 -5.05447 3.80402 0
M  V30 3390 C 316.466 -5.20635 4.17726 0
M  V30 3391 H 315.736 -0.734731 0.0961807 0
M  V30 3392 H 318.383 -1.67673 0.925093 0
M  V30 3393 H 316.688 -3.8922 -0.448932 0
M  V30 3394 H 318.385 -4.00929 -0.0755208 0
M  V30 3395 H 314.975 -4.06549 1.35704 0
M  V30 3396 H 319.159 -4.41091 2.27491 0
M  V30 3397 H 314.415 -4.95764 3.57811 0
M  V30 3398 H 318.589 -5.31663 4.49786 0
M  V30 3399 H 316.216 -5.58728 5.15487 0
M  V30 3400 N 317.792 -0.46758 -1.50504 0
M  V30 3401 C 319.203 -0.0116166 -1.86696 0
M  V30 3402 C 319.554 1.39202 -1.38265 0
M  V30 3403 O 318.679 2.0313 -0.746132 0
M  V30 3404 C 319.274 -0.0143044 -3.38797 0
M  V30 3405 C 317.833 0.386175 -3.74414 0
M  V30 3406 C 316.98 -0.401287 -2.74381 0
M  V30 3407 H 319.931 -0.682022 -1.43297 0
M  V30 3408 H 319.952 0.788641 -3.72237 0
M  V30 3409 H 319.464 -1.03602 -3.74016 0
M  V30 3410 H 317.565 1.41237 -3.44794 0
M  V30 3411 H 317.678 0.0899596 -4.79016 0
M  V30 3412 H 316.042 0.144536 -2.5429 0
M  V30 3413 H 316.825 -1.42244 -3.12444 0
M  V30 3414 N 319.27 1.56325 -0.20005 0
M  V30 3415 C 320.518 1.97329 0.436547 0
M  V30 3416 C 320.839 1.08826 1.61808 0
M  V30 3417 O 320.109 0.160604 1.95241 0
M  V30 3418 H 318.689 0.728714 0.164272 0
M  V30 3419 H 321.351 1.92761 -0.287937 0
M  V30 3420 H 320.447 3.02264 0.777353 0
M  V30 3421 N 320.748 -0.0735177 1.57428 0
M  V30 3422 C 321.996 -0.771472 1.86796 0
M  V30 3423 C 322.317 -1.78201 0.791804 0
M  V30 3424 O 321.587 -1.95074 -0.179718 0
M  V30 3425 H 320.167 -0.28791 0.689287 0
M  V30 3426 H 322.829 -0.0500161 1.94836 0
M  V30 3427 H 321.925 -1.28874 2.8425 0
M  V30 3428 N 322.226 -1.5378 -0.344866 0
M  V30 3429 C 323.642 -1.44015 -0.687888 0
M  V30 3430 C 323.842 -0.595834 -1.92489 0
M  V30 3431 O 322.898 -0.0863064 -2.52352 0
M  V30 3432 C 324.211 -2.87481 -0.881758 0
M  V30 3433 C 325.759 -2.97247 -0.980459 0
M  V30 3434 C 326.234 -4.41819 -1.20665 0
M  V30 3435 N 327.725 -4.45339 -1.27389 0
M  V30 3436 C 328.46 -5.54333 -1.46639 0
M  V30 3437 N 327.956 -6.73335 -1.63071 0
M  V30 3438 N 329.749 -5.41944 -1.49176 0
M  V30 3439 H 321.9 -2.07169 0.468475 0
M  V30 3440 H 324.163 -0.93643 0.147655 0
M  V30 3441 H 323.869 -3.51672 -0.0443444 0
M  V30 3442 H 323.743 -3.32352 -1.78388 0
M  V30 3443 H 326.13 -2.33197 -1.8084 0
M  V30 3444 H 326.211 -2.5574 -0.0552713 0
M  V30 3445 H 325.855 -5.06449 -0.383652 0
M  V30 3446 H 325.785 -4.80917 -2.14539 0
M  V30 3447 H 328.276 -3.59585 -1.1622 0
M  V30 3448 H 328.589 -7.52165 -1.77391 0
M  V30 3449 H 326.934 -6.76282 -1.60209 0
M  V30 3450 H 330.125 -4.47932 -1.3592 0
M  V30 3451 H 330.298 -6.26946 -1.63837 0
M  V30 3452 N 323.704 0.605807 -1.45491 0
M  V30 3453 C 324.634 1.72709 -1.57143 0
M  V30 3454 C 325.615 1.6476 -0.422884 0
M  V30 3455 O 326.8 1.83132 -0.646247 0
M  V30 3456 C 323.93 3.11316 -1.53948 0
M  V30 3457 C 322.884 3.34077 -2.67537 0
M  V30 3458 C 322.21 4.72975 -2.49397 0
M  V30 3459 C 323.51 3.24158 -4.09535 0
M  V30 3460 H 325.204 1.63214 -2.51001 0
M  V30 3461 H 322.75 0.78379 -1.208 0
M  V30 3462 H 324.703 3.89557 -1.60696 0
M  V30 3463 H 323.427 3.21655 -0.566205 0
M  V30 3464 H 322.086 2.58227 -2.6022 0
M  V30 3465 H 321.734 4.8005 -1.50205 0
M  V30 3466 H 321.434 4.8916 -3.25571 0
M  V30 3467 H 322.958 5.53414 -2.58002 0
M  V30 3468 H 324.372 3.92271 -4.18086 0
M  V30 3469 H 322.769 3.51872 -4.86113 0
M  V30 3470 H 323.839 2.2157 -4.31317 0
M  V30 3471 N 325.182 1.32811 0.848464 0
M  V30 3472 C 326.593 1.21315 1.41914 0
M  V30 3473 C 326.944 -0.171847 1.95446 0
M  V30 3474 O 326.069 -1.07093 1.88043 0
M  V30 3475 C 326.664 2.19631 2.57968 0
M  V30 3476 C 325.223 2.12003 3.11017 0
M  V30 3477 C 324.37 2.07651 1.83783 0
M  V30 3478 H 327.321 1.44549 0.655071 0
M  V30 3479 H 327.342 1.79845 3.35315 0
M  V30 3480 H 326.854 3.20423 2.18976 0
M  V30 3481 H 324.955 1.14481 3.54577 0
M  V30 3482 H 325.068 3.02111 3.71841 0
M  V30 3483 H 323.432 1.52983 2.03638 0
M  V30 3484 H 324.215 3.10235 1.47 0
M  V30 3485 N 326.66 -1.06551 1.16123 0
M  V30 3486 C 328.076 -1.3142 0.905585 0
M  V30 3487 C 328.276 -1.96571 -0.442964 0
M  V30 3488 O 327.332 -2.23068 -1.18308 0
M  V30 3489 C 328.645 -2.19741 2.05267 0
M  V30 3490 C 330.193 -2.33165 2.08813 0
M  V30 3491 C 330.668 -3.24838 3.22868 0
M  V30 3492 N 332.159 -3.32421 3.22568 0
M  V30 3493 C 332.894 -4.0344 4.0746 0
M  V30 3494 N 332.39 -4.77003 5.02434 0
M  V30 3495 N 334.183 -3.99464 3.95456 0
M  V30 3496 H 326.334 -0.626548 2.02949 0
M  V30 3497 H 328.597 -0.338777 0.8854 0
M  V30 3498 H 328.303 -1.79142 3.02657 0
M  V30 3499 H 328.177 -3.20313 1.99198 0
M  V30 3500 H 330.564 -2.73013 1.12018 0
M  V30 3501 H 330.645 -1.3227 2.18948 0
M  V30 3502 H 330.289 -2.85708 4.19921 0
M  V30 3503 H 330.219 -4.25707 3.0997 0
M  V30 3504 H 332.71 -2.79994 2.53795 0
M  V30 3505 H 333.023 -5.28712 5.63634 0
M  V30 3506 H 331.368 -4.75992 5.06415 0
M  V30 3507 H 334.559 -3.4111 3.20564 0
M  V30 3508 H 334.732 -4.54544 4.61837 0
M  V30 3509 N 328.138 -0.959301 -1.25041 0
M  V30 3510 C 329.387 -0.612254 -1.92183 0
M  V30 3511 C 329.7 0.855347 -1.75907 0
M  V30 3512 O 330.906 1.31256 -2.37664 0
M  V30 3513 C 329.362 -1.04435 -3.44414 0
M  V30 3514 C 328.97 -2.53482 -3.69393 0
M  V30 3515 C 330.714 -0.770055 -4.17457 0
M  V30 3516 C 328.621 -2.90468 -5.15153 0
M  V30 3517 H 327.551 -0.225279 -0.719559 0
M  V30 3518 H 330.202 -1.16438 -1.41825 0
M  V30 3519 H 328.584 -0.4206 -3.9376 0
M  V30 3520 H 329.758 -3.20916 -3.30681 0
M  V30 3521 H 328.073 -2.78432 -3.0962 0
M  V30 3522 H 330.67 -1.02249 -5.24832 0
M  V30 3523 H 331.013 0.293611 -4.15263 0
M  V30 3524 H 331.546 -1.35437 -3.74034 0
M  V30 3525 H 328.285 -3.95871 -5.22462 0
M  V30 3526 H 327.805 -2.27711 -5.54894 0
M  V30 3527 H 329.484 -2.79914 -5.83315 0
M  V30 3528 N 329.616 1.39756 -0.72842 0
M  V30 3529 C 330.841 2.05472 -0.282159 0
M  V30 3530 C 331.266 1.54549 1.07221 0
M  V30 3531 O 330.624 0.686372 1.67805 0
M  V30 3532 C 330.672 3.59462 -0.286264 0
M  V30 3533 O 329.776 4.05918 0.728298 0
M  V30 3534 H 329.117 0.651226 -0.129618 0
M  V30 3535 H 331.647 1.78915 -0.992499 0
M  V30 3536 H 331.657 4.07798 -0.128373 0
M  V30 3537 H 330.332 3.95889 -1.27456 0
M  V30 3538 H 328.909 3.69012 0.537081 0
M  V30 3539 N 331.094 0.475555 1.50254 0
M  V30 3540 C 332.026 -0.352649 2.26471 0
M  V30 3541 C 333.039 -0.953165 1.3198 0
M  V30 3542 O 334.228 -0.840815 1.57457 0
M  V30 3543 C 331.328 -1.50902 3.0345 0
M  V30 3544 C 330.501 -1.02047 4.25329 0
M  V30 3545 C 329.56 -2.05142 4.84565 0
M  V30 3546 O 328.586 -1.63023 5.45355 0
M  V30 3547 N 329.788 -3.37987 4.71959 0
M  V30 3548 H 332.553 0.300767 2.98187 0
M  V30 3549 H 330.114 0.306598 1.5897 0
M  V30 3550 H 332.106 -2.19572 3.39956 0
M  V30 3551 H 330.676 -2.06705 2.34504 0
M  V30 3552 H 329.896 -0.159507 3.93877 0
M  V30 3553 H 331.184 -0.672061 5.04342 0
M  V30 3554 H 330.582 -3.74913 4.23623 0
M  V30 3555 H 329.139 -4.02443 5.12721 0
M  V30 3556 N 332.573 -1.56217 0.208337 0
M  V30 3557 C 333.819 -1.98242 -0.427552 0
M  V30 3558 C 334.152 -1.09554 -1.60348 0
M  V30 3559 O 333.427 -0.15035 -1.93918 0
M  V30 3560 C 333.71 -3.4931 -0.874907 0
M  V30 3561 C 333.563 -4.48773 0.303751 0
M  V30 3562 C 334.882 -4.04424 -1.73577 0
M  V30 3563 H 332.001 -0.720744 -0.153936 0
M  V30 3564 H 334.643 -1.87586 0.30192 0
M  V30 3565 H 332.793 -3.58522 -1.49648 0
M  V30 3566 H 334.465 -4.51586 0.941682 0
M  V30 3567 H 332.708 -4.23194 0.953375 0
M  V30 3568 H 333.379 -5.51976 -0.0519883 0
M  V30 3569 H 335.855 -3.98075 -1.21143 0
M  V30 3570 H 334.731 -5.1047 -2.01771 0
M  V30 3571 H 334.992 -3.50494 -2.69456 0
M  V30 3572 N 334.051 0.0651679 -1.57465 0
M  V30 3573 C 335.328 0.79644 -1.78651 0
M  V30 3574 C 335.708 1.95454 -0.797566 0
M  V30 3575 O 335.056 2.27882 0.167946 0
M  V30 3576 C 335.266 1.26322 -3.25337 0
M  V30 3577 C 336.614 1.6939 -3.89348 0
M  V30 3578 O 337.638 1.35872 -3.29268 0
M  V30 3579 O 336.497 2.31471 -4.95059 0
M  V30 3580 H 333.591 0.382157 -0.733407 0
M  V30 3581 H 336.137 0.0447311 -1.69641 0
M  V30 3582 H 334.909 0.434859 -3.88876 0
M  V30 3583 H 334.532 2.07604 -3.39096 0
M  V30 3584 N 335.529 1.53961 0.336706 0
M  V30 3585 C 336.759 1.75229 1.09446 0
M  V30 3586 C 337.167 0.494602 1.82621 0
M  V30 3587 O 336.51 -0.543764 1.75468 0
M  V30 3588 C 336.572 2.88288 2.1478 0
M  V30 3589 C 336.236 4.27656 1.6112 0
M  V30 3590 C 337.233 5.08981 1.0599 0
M  V30 3591 C 334.918 4.74161 1.6576 0
M  V30 3592 C 336.912 6.34916 0.562129 0
M  V30 3593 C 334.599 6.00067 1.15595 0
M  V30 3594 C 335.597 6.80278 0.609147 0
M  V30 3595 O 335.285 8.03818 0.114999 0
M  V30 3596 H 335.017 0.588881 0.331956 0
M  V30 3597 H 337.571 2.01614 0.392566 0
M  V30 3598 H 335.801 2.57443 2.88548 0
M  V30 3599 H 337.49 2.97461 2.76174 0
M  V30 3600 H 338.256 4.74213 1.01722 0
M  V30 3601 H 334.135 4.11781 2.07261 0
M  V30 3602 H 337.679 6.9747 0.134668 0
M  V30 3603 H 333.576 6.3433 1.19566 0
M  V30 3604 H 334.344 8.18172 0.231651 0
M  V30 3605 N 337.007 -0.598083 1.45811 0
M  V30 3606 C 338.237 -1.38121 1.53643 0
M  V30 3607 C 338.645 -1.88425 0.171081 0
M  V30 3608 O 337.988 -1.63409 -0.839237 0
M  V30 3609 C 338.05 -2.61432 2.46766 0
M  V30 3610 C 337.714 -2.32702 3.93318 0
M  V30 3611 C 338.711 -1.92479 4.82957 0
M  V30 3612 C 336.396 -2.45321 4.38318 0
M  V30 3613 C 338.39 -1.65248 6.15607 0
M  V30 3614 C 336.077 -2.17703 5.71007 0
M  V30 3615 C 337.075 -1.7773 6.5947 0
M  V30 3616 O 336.763 -1.50441 7.89698 0
M  V30 3617 H 336.495 -0.428863 0.522544 0
M  V30 3618 H 339.049 -0.73557 1.91777 0
M  V30 3619 H 337.279 -3.28749 2.0362 0
M  V30 3620 H 338.968 -3.23487 2.45175 0
M  V30 3621 H 339.734 -1.82258 4.49452 0
M  V30 3622 H 335.613 -2.75399 3.69697 0
M  V30 3623 H 339.157 -1.33973 6.84614 0
M  V30 3624 H 335.054 -2.27544 6.04065 0
M  V30 3625 H 335.822 -1.64415 8.01817 0
M  V30 3626 N 338.485 -1.33259 -0.841409 0
M  V30 3627 C 339.71 -1.2775 -1.63385 0
M  V30 3628 C 340.135 0.149188 -1.87507 0
M  V30 3629 O 339.493 1.10498 -1.43736 0
M  V30 3630 C 339.541 -2.05571 -2.96265 0
M  V30 3631 O 338.645 -1.41257 -3.87453 0
M  V30 3632 H 337.986 -0.439627 -0.497618 0
M  V30 3633 H 340.516 -1.75782 -1.04699 0
M  V30 3634 H 340.526 -2.16241 -3.45982 0
M  V30 3635 H 339.201 -3.09309 -2.7803 0
M  V30 3636 H 337.778 -1.39217 -3.45938 0
M  V30 3637 N 339.963 1.05934 -1.16686 0
M  V30 3638 C 341.188 1.83029 -0.975455 0
M  V30 3639 C 341.613 1.82096 0.471452 0
M  V30 3640 O 340.971 1.22443 1.33706 0
M  V30 3641 C 341.019 3.27372 -1.51195 0
M  V30 3642 O 340.123 4.06054 -0.720701 0
M  V30 3643 H 339.464 0.566194 -0.346872 0
M  V30 3644 H 341.994 1.33541 -1.55009 0
M  V30 3645 H 342.004 3.78186 -1.53099 0
M  V30 3646 H 340.679 3.27366 -2.56523 0
M  V30 3647 H 339.256 3.64812 -0.772458 0
M  V30 3648 N 341.441 0.965919 1.2453 0
M  V30 3649 C 342.389 0.486506 2.27455 0
M  V30 3650 C 343.383 -0.449041 1.6334 0
M  V30 3651 O 344.589 -0.324527 1.7705 0
M  V30 3652 H 340.964 0.138857 0.739069 0
M  V30 3653 H 342.935 1.3666 2.65267 0
M  V30 3654 C 341.684 -0.209481 3.47068 0
M  V30 3655 H 341.007 0.50129 3.96645 0
M  V30 3656 H 342.447 -0.508775 4.20936 0
M  V30 3657 C 340.906 -1.43586 3.0477 0
M  V30 3658 O 341.436 -2.53299 3.11773 0
M  V30 3659 N 339.642 -1.30126 2.59838 0
M  V30 3660 H 339.189 -0.408583 2.54339 0
M  V30 3661 H 339.147 -2.12294 2.31902 0
M  V30 3662 N 342.919 -1.39368 0.735821 0
M  V30 3663 C 343.882 -2.2896 0.104874 0
M  V30 3664 C 344.882 -1.46347 -0.666274 0
M  V30 3665 O 346.072 -1.67014 -0.49517 0
M  V30 3666 C 343.204 -3.29857 -0.860656 0
M  V30 3667 H 344.397 -2.86259 0.894205 0
M  V30 3668 H 341.95 -1.48029 0.501704 0
M  V30 3669 H 342.685 -2.77615 -1.67631 0
M  V30 3670 H 342.47 -3.9087 -0.310327 0
M  V30 3671 H 343.96 -3.96893 -1.29867 0
M  V30 3672 N 344.397 -0.483516 -1.5 0
M  V30 3673 C 345.645 0.067027 -2.01989 0
M  V30 3674 C 345.966 1.3909 -1.36671 0
M  V30 3675 O 345.236 1.88978 -0.516152 0
M  V30 3676 H 343.816 0.0277606 -0.746484 0
M  V30 3677 H 346.478 -0.636773 -1.84204 0
M  V30 3678 H 345.574 0.209484 -3.11396 0
M  V30 3679 N 345.875 1.56104 -0.216619 0
M  V30 3680 C 347.121 1.99219 0.410301 0
M  V30 3681 C 347.476 1.10169 1.57735 0
M  V30 3682 O 346.769 0.150598 1.91007 0
M  V30 3683 C 346.963 3.45923 0.898464 0
M  V30 3684 C 346.792 4.49163 -0.219748 0
M  V30 3685 C 345.562 5.00642 -0.684516 0
M  V30 3686 C 347.76 5.03751 -1.03629 0
M  V30 3687 N 345.742 5.87579 -1.7783 0
M  V30 3688 C 347.113 5.87566 -1.97904 0
M  V30 3689 C 349.168 4.86128 -1.07629 0
M  V30 3690 C 347.871 6.5564 -2.95851 0
M  V30 3691 C 349.897 5.54958 -2.04392 0
M  V30 3692 C 349.259 6.38536 -2.97407 0
M  V30 3693 H 345.358 0.773206 0.11695 0
M  V30 3694 H 347.942 1.9193 -0.327258 0
M  V30 3695 H 346.113 3.53669 1.6054 0
M  V30 3696 H 347.845 3.75963 1.49779 0
M  V30 3697 H 344.6 4.72807 -0.27399 0
M  V30 3698 H 345.024 6.3575 -2.32705 0
M  V30 3699 H 349.666 4.21168 -0.371099 0
M  V30 3700 H 347.384 7.19785 -3.67335 0
M  V30 3701 H 350.97 5.43289 -2.08154 0
M  V30 3702 H 349.85 6.90858 -3.71059 0
M  V30 3703 N 347.353 -0.0568162 1.57498 0
M  V30 3704 C 348.3 -1.06591 2.04712 0
M  V30 3705 C 349.27 -1.3758 0.930644 0
M  V30 3706 O 350.455 -1.48392 1.19935 0
M  V30 3707 C 347.595 -2.3701 2.50839 0
M  V30 3708 C 346.708 -2.12421 3.76167 0
M  V30 3709 C 345.843 -3.36511 4.11015 0
M  V30 3710 C 344.882 -3.07353 5.2934 0
M  V30 3711 N 344.019 -4.23816 5.59754 0
M  V30 3712 H 348.859 -0.65631 2.90683 0
M  V30 3713 H 346.396 -0.312481 1.43743 0
M  V30 3714 H 348.354 -3.13175 2.7564 0
M  V30 3715 H 346.984 -2.75744 1.67825 0
M  V30 3716 H 346.036 -1.2688 3.58616 0
M  V30 3717 H 347.348 -1.86894 4.62463 0
M  V30 3718 H 346.502 -4.21062 4.36797 0
M  V30 3719 H 345.241 -3.65128 3.23315 0
M  V30 3720 H 344.246 -2.212 5.03339 0
M  V30 3721 H 345.471 -2.80043 6.1867 0
M  V30 3722 H 343.417 -4.52436 4.75014 0
M  V30 3723 H 343.334 -4.01614 6.40501 0
M  V30 3724 H 344.602 -5.0932 5.90096 0
M  V30 3725 N 348.832 -1.54138 -0.328536 0
M  V30 3726 C 350.078 -1.7236 -1.06865 0
M  V30 3727 C 350.411 -0.493231 -1.87832 0
M  V30 3728 O 349.686 0.5098 -1.877 0
M  V30 3729 C 349.969 -2.99621 -1.99747 0
M  V30 3730 C 349.822 -4.32899 -1.22143 0
M  V30 3731 C 351.141 -3.22615 -2.99345 0
M  V30 3732 H 348.26 -0.627151 -0.387105 0
M  V30 3733 H 350.902 -1.86827 -0.345767 0
M  V30 3734 H 349.052 -2.87418 -2.61387 0
M  V30 3735 H 350.724 -4.56978 -0.630017 0
M  V30 3736 H 348.967 -4.30628 -0.523628 0
M  V30 3737 H 349.638 -5.18154 -1.90318 0
M  V30 3738 H 352.114 -3.34248 -2.47826 0
M  V30 3739 H 350.99 -4.13027 -3.61524 0
M  V30 3740 H 351.251 -2.3961 -3.71536 0
M  V30 3741 N 350.31 0.590341 -1.46126 0
M  V30 3742 C 351.22 1.72793 -1.58681 0
M  V30 3743 C 352.236 1.67516 -0.470566 0
M  V30 3744 O 353.412 1.87562 -0.733642 0
M  V30 3745 C 350.477 3.09287 -1.5666 0
M  V30 3746 C 349.538 3.25886 -2.79458 0
M  V30 3747 C 348.771 4.55869 -2.77524 0
M  V30 3748 O 348.994 5.3928 -1.85832 0
M  V30 3749 O 347.928 4.75552 -3.68964 0
M  V30 3750 H 351.754 1.65149 -2.54872 0
M  V30 3751 H 349.339 0.756486 -1.28832 0
M  V30 3752 H 351.221 3.90577 -1.58202 0
M  V30 3753 H 349.896 3.17385 -0.636271 0
M  V30 3754 H 348.803 2.44119 -2.83472 0
M  V30 3755 H 350.136 3.22675 -3.71674 0
M  V30 3756 N 351.788 1.33704 0.83433 0
M  V30 3757 C 353.204 1.13137 1.12571 0
M  V30 3758 C 353.404 -0.0747261 2.01361 0
M  V30 3759 O 352.46 -0.753647 2.4099 0
M  V30 3760 C 353.773 2.42105 1.78342 0
M  V30 3761 C 355.321 2.48054 1.90888 0
M  V30 3762 C 355.796 3.76995 2.60075 0
M  V30 3763 N 357.287 3.78092 2.67584 0
M  V30 3764 C 358.022 4.74574 3.21818 0
M  V30 3765 N 357.518 5.81434 3.76705 0
M  V30 3766 N 359.311 4.62044 3.20112 0
M  V30 3767 H 351.462 2.11 0.243489 0
M  V30 3768 H 353.725 0.932532 0.17055 0
M  V30 3769 H 353.431 3.30391 1.20561 0
M  V30 3770 H 353.305 2.54594 2.7832 0
M  V30 3771 H 355.692 1.60215 2.47821 0
M  V30 3772 H 355.773 2.39502 0.898459 0
M  V30 3773 H 355.417 4.65219 2.03799 0
M  V30 3774 H 355.347 3.82825 3.61597 0
M  V30 3775 H 357.838 3.00865 2.28667 0
M  V30 3776 H 358.151 6.51084 4.16305 0
M  V30 3777 H 356.496 5.85163 3.7498 0
M  V30 3778 H 359.687 3.77716 2.76493 0
M  V30 3779 H 359.86 5.37406 3.62076 0
M  V30 3780 N 353.266 -1.05314 1.17247 0
M  V30 3781 C 354.496 -1.81707 0.983166 0
M  V30 3782 C 354.904 -1.83222 -0.471822 0
M  V30 3783 O 354.247 -1.25721 -1.3394 0
M  V30 3784 C 354.309 -3.29134 1.44606 0
M  V30 3785 C 353.973 -3.51304 2.92292 0
M  V30 3786 C 354.97 -3.4353 3.90235 0
M  V30 3787 C 352.655 -3.78306 3.30439 0
M  V30 3788 C 354.649 -3.62442 5.24323 0
M  V30 3789 C 352.336 -3.96866 4.64694 0
M  V30 3790 C 353.334 -3.88933 5.61445 0
M  V30 3791 O 353.022 -4.06976 6.93272 0
M  V30 3792 H 352.754 -0.579476 0.348114 0
M  V30 3793 H 355.308 -1.33705 1.55924 0
M  V30 3794 H 353.538 -3.78046 0.813537 0
M  V30 3795 H 355.227 -3.87049 1.22262 0
M  V30 3796 H 355.993 -3.22648 3.62109 0
M  V30 3797 H 351.872 -3.83585 2.55702 0
M  V30 3798 H 355.416 -3.56165 5.99827 0
M  V30 3799 H 351.313 -4.1724 4.92525 0
M  V30 3800 H 352.081 -4.24209 6.99992 0
M  V30 3801 N 354.744 -0.972509 -1.24016 0
M  V30 3802 C 355.694 -0.477561 -2.22942 0
M  V30 3803 C 356.678 0.44308 -1.54679 0
M  V30 3804 O 357.87 0.273219 -1.74879 0
M  V30 3805 C 354.999 0.226348 -3.42553 0
M  V30 3806 C 354.085 -0.713403 -4.18057 0
M  V30 3807 N 354.476 -1.8527 -4.70647 0
M  V30 3808 C 352.774 -0.525145 -4.42898 0
M  V30 3809 C 353.475 -2.44089 -5.28011 0
M  V30 3810 N 352.451 -1.72556 -5.15486 0
M  V30 3811 H 356.253 -1.34678 -2.61226 0
M  V30 3812 H 353.767 -0.832196 -1.39457 0
M  V30 3813 H 355.764 0.598184 -4.12586 0
M  V30 3814 H 354.424 1.09195 -3.05788 0
M  V30 3815 H 355.435 -2.2341 -4.67235 0
M  V30 3816 H 352.112 0.296096 -4.16449 0
M  V30 3817 H 353.502 -3.40259 -5.79374 0
M  V30 3818 N 356.222 1.38976 -0.743202 0
M  V30 3819 C 357.638 1.53984 -0.419664 0
M  V30 3820 C 357.838 1.70837 1.0685 0
M  V30 3821 O 356.894 1.7135 1.8546 0
M  V30 3822 C 358.207 2.75287 -1.20985 0
M  V30 3823 C 359.755 2.89129 -1.19889 0
M  V30 3824 C 360.23 4.13381 -1.97181 0
M  V30 3825 N 361.721 4.20437 -1.94389 0
M  V30 3826 C 362.456 5.15547 -2.50996 0
M  V30 3827 N 361.952 6.16395 -3.16274 0
M  V30 3828 N 363.745 5.07822 -2.40984 0
M  V30 3829 H 355.896 1.26285 -1.7078 0
M  V30 3830 H 358.159 0.612689 -0.723406 0
M  V30 3831 H 357.865 2.69204 -2.26323 0
M  V30 3832 H 357.739 3.68184 -0.819759 0
M  V30 3833 H 360.126 2.947 -0.153606 0
M  V30 3834 H 360.207 1.97272 -1.62841 0
M  V30 3835 H 359.851 4.08572 -3.01714 0
M  V30 3836 H 359.781 5.04298 -1.51629 0
M  V30 3837 H 362.272 3.48205 -1.46839 0
M  V30 3838 H 362.585 6.85443 -3.56915 0
M  V30 3839 H 360.93 6.16758 -3.20367 0
M  V30 3840 H 364.121 4.27973 -1.89622 0
M  V30 3841 H 364.294 5.81767 -2.85397 0
M  V30 3842 N 357.7 0.491464 1.49741 0
M  V30 3843 C 358.949 -0.0582189 2.01616 0
M  V30 3844 C 359.262 -1.38927 1.3769 0
M  V30 3845 O 360.468 -2.02509 1.80838 0
M  V30 3846 C 358.924 -0.154235 3.59569 0
M  V30 3847 C 358.532 1.1696 4.32463 0
M  V30 3848 C 360.276 -0.65479 4.1942 0
M  V30 3849 C 358.183 1.03627 5.8225 0
M  V30 3850 H 357.113 -0.0255317 0.753568 0
M  V30 3851 H 359.764 0.629445 1.72367 0
M  V30 3852 H 358.146 -0.906138 3.85493 0
M  V30 3853 H 359.32 1.93405 4.18248 0
M  V30 3854 H 357.635 1.60285 3.84315 0
M  V30 3855 H 360.232 -0.771903 5.29099 0
M  V30 3856 H 360.575 -1.65127 3.8215 0
M  V30 3857 H 361.108 0.040304 3.9778 0
M  V30 3858 H 357.847 2.00672 6.24028 0
M  V30 3859 H 357.367 0.312546 5.98985 0
M  V30 3860 H 359.046 0.711114 6.4308 0
M  V30 3861 N 359.178 -1.55987 0.224894 0
M  V30 3862 C 360.426 -1.97998 -0.405099 0
M  V30 3863 C 360.747 -1.11387 -1.60056 0
M  V30 3864 O 360.017 -0.191645 -1.9496 0
M  V30 3865 H 358.597 -0.731235 -0.152658 0
M  V30 3866 H 361.259 -1.92279 0.318567 0
M  V30 3867 H 360.355 -3.03463 -0.729167 0
M  V30 3868 N 360.656 0.0484629 -1.57525 0
M  V30 3869 C 361.619 1.03956 -2.04269 0
M  V30 3870 C 362.619 1.30211 -0.943496 0
M  V30 3871 O 363.809 1.25539 -1.20771 0
M  V30 3872 C 360.941 2.37742 -2.44319 0
M  V30 3873 H 362.134 0.636182 -2.93075 0
M  V30 3874 H 359.687 0.294811 -1.53494 0
M  V30 3875 H 360.422 2.82866 -1.5861 0
M  V30 3876 H 360.207 2.20021 -3.24551 0
M  V30 3877 H 361.697 3.08936 -2.80978 0
M  V30 3878 N 362.134 1.5431 0.320358 0
M  V30 3879 C 363.082 1.84647 1.4145 0
M  V30 3880 C 364.076 0.718624 1.53402 0
M  V30 3881 O 365.282 0.902335 1.5575 0
M  V30 3882 H 361.657 0.585349 0.472091 0
M  V30 3883 H 363.628 2.7614 1.13089 0
M  V30 3884 C 362.377 2.09341 2.77617 0
M  V30 3885 H 361.7 2.9559 2.69196 0
M  V30 3886 H 363.14 2.3452 3.53237 0
M  V30 3887 C 361.599 0.885939 3.25043 0
M  V30 3888 O 362.129 0.0967891 4.01583 0
M  V30 3889 N 360.335 0.696682 2.82125 0
M  V30 3890 H 359.882 1.34006 2.2 0
M  V30 3891 H 359.84 -0.109712 3.14209 0
M  V30 3892 N 363.613 -0.582584 1.46437 0
M  V30 3893 C 364.843 -1.36484 1.55099 0
M  V30 3894 C 365.251 -1.88233 0.191056 0
M  V30 3895 O 364.594 -1.6429 -0.821858 0
M  V30 3896 C 364.656 -2.588 2.49525 0
M  V30 3897 C 364.32 -2.28517 3.95764 0
M  V30 3898 C 365.317 -1.87346 4.84972 0
M  V30 3899 C 363.002 -2.40658 4.40896 0
M  V30 3900 C 364.996 -1.5871 6.17325 0
M  V30 3901 C 362.683 -2.11635 5.73284 0
M  V30 3902 C 363.681 -1.70725 6.61318 0
M  V30 3903 O 363.369 -1.42057 7.91249 0
M  V30 3904 H 363.101 -0.423297 0.527063 0
M  V30 3905 H 365.655 -0.715188 1.92547 0
M  V30 3906 H 363.885 -3.26571 2.07095 0
M  V30 3907 H 365.574 -3.20868 2.48593 0
M  V30 3908 H 366.34 -1.77481 4.5136 0
M  V30 3909 H 362.219 -2.71463 3.72598 0
M  V30 3910 H 365.763 -1.26704 6.85997 0
M  V30 3911 H 361.66 -2.21124 6.06444 0
M  V30 3912 H 362.428 -1.55901 8.03515 0
M  V30 3913 N 365.091 -1.34144 -0.827227 0
M  V30 3914 C 366.337 -1.26446 -1.58554 0
M  V30 3915 C 366.67 0.1664 -1.93486 0
M  V30 3916 O 365.945 1.1107 -1.59667 0
M  V30 3917 C 366.228 -2.15111 -2.8879 0
M  V30 3918 C 366.081 -3.66712 -2.60465 0
M  V30 3919 C 367.4 -2.03311 -3.90324 0
M  V30 3920 H 364.519 -0.46067 -0.575284 0
M  V30 3921 H 367.161 -1.64356 -0.953269 0
M  V30 3922 H 365.311 -1.8291 -3.42748 0
M  V30 3923 H 366.983 -4.09259 -2.1285 0
M  V30 3924 H 365.226 -3.88014 -1.93978 0
M  V30 3925 H 365.897 -4.24112 -3.53317 0
M  V30 3926 H 368.373 -2.31574 -3.45706 0
M  V30 3927 H 367.249 -2.67582 -4.79261 0
M  V30 3928 H 367.51 -1.00879 -4.30437 0
M  V30 3929 N 366.569 1.04691 -1.17803 0
M  V30 3930 C 367.98 1.59238 -0.974689 0
M  V30 3931 C 368.331 1.90306 0.477292 0
M  V30 3932 O 367.456 1.68846 1.35352 0
M  V30 3933 C 368.051 2.89318 -1.76296 0
M  V30 3934 C 366.61 3.40506 -1.60414 0
M  V30 3935 C 365.757 2.14172 -1.76141 0
M  V30 3936 H 368.708 0.874395 -1.32439 0
M  V30 3937 H 368.729 3.5944 -1.24833 0
M  V30 3938 H 368.241 2.66675 -2.81968 0
M  V30 3939 H 366.342 3.68175 -0.572519 0
M  V30 3940 H 366.455 4.14753 -2.39827 0
M  V30 3941 H 364.819 2.25176 -1.19028 0
M  V30 3942 H 365.602 1.93992 -2.83235 0
M  V30 3943 N 368.047 0.979072 1.23499 0
M  V30 3944 C 369.275 0.665202 1.95915 0
M  V30 3945 C 369.69 -0.767571 1.72493 0
M  V30 3946 O 369.047 -1.51635 1.01554 0
M  V30 3947 C 369.098 0.944438 3.48945 0
M  V30 3948 O 368.819 2.3209 3.71572 0
M  V30 3949 C 370.32 0.646336 4.38563 0
M  V30 3950 H 367.54 0.247218 0.623798 0
M  V30 3951 H 370.084 1.31009 1.57025 0
M  V30 3952 H 368.239 0.345575 3.85856 0
M  V30 3953 H 368.653 2.40957 4.65876 0
M  V30 3954 H 370.127 0.892091 5.44744 0
M  V30 3955 H 370.604 -0.419575 4.37191 0
M  V30 3956 H 371.21 1.22562 4.07258 0
M  V30 3957 N 369.525 -1.3858 0.750561 0
M  V30 3958 C 370.455 -2.33102 0.136237 0
M  V30 3959 C 371.436 -1.54713 -0.706965 0
M  V30 3960 O 372.621 -1.83043 -0.648769 0
M  V30 3961 C 369.751 -3.38882 -0.760017 0
M  V30 3962 C 368.705 -4.27995 -0.0197785 0
M  V30 3963 C 368.031 -5.24605 -1.03408 0
M  V30 3964 C 369.331 -5.09554 1.14684 0
M  V30 3965 H 371.025 -2.84726 0.925822 0
M  V30 3966 H 368.571 -1.36898 0.446654 0
M  V30 3967 H 370.524 -4.0397 -1.19943 0
M  V30 3968 H 369.248 -2.85734 -1.58189 0
M  V30 3969 H 367.907 -3.64409 0.400184 0
M  V30 3970 H 367.555 -4.67746 -1.84994 0
M  V30 3971 H 367.255 -5.85081 -0.543464 0
M  V30 3972 H 368.779 -5.9257 -1.47288 0
M  V30 3973 H 370.193 -5.67899 0.785118 0
M  V30 3974 H 368.59 -5.7925 1.56812 0
M  V30 3975 H 369.66 -4.4347 1.96118 0
M  V30 3976 N 371.003 -0.499398 -1.49478 0
M  V30 3977 C 371.951 0.293604 -2.3074 0
M  V30 3978 C 372.945 0.96427 -1.39277 0
M  V30 3979 O 374.151 0.892141 -1.56336 0
M  V30 3980 H 370.526 0.113541 -0.743379 0
M  V30 3981 H 372.497 -0.411772 -2.95545 0
M  V30 3982 C 371.246 1.3462 -3.20582 0
M  V30 3983 H 370.569 0.83954 -3.90886 0
M  V30 3984 H 372.009 1.87308 -3.80384 0
M  V30 3985 C 370.468 2.36351 -2.40083 0
M  V30 3986 O 370.998 3.422 -2.10385 0
M  V30 3987 N 369.204 2.0878 -2.02137 0
M  V30 3988 H 368.751 1.22723 -2.26488 0
M  V30 3989 H 368.709 2.77075 -1.48583 0
M  V30 3990 N 372.481 1.55866 -0.233164 0
M  V30 3991 C 373.444 2.1953 0.658715 0
M  V30 3992 C 374.444 1.16053 1.11303 0
M  V30 3993 O 375.634 1.41218 1.01996 0
M  V30 3994 C 372.766 2.82791 1.90373 0
M  V30 3995 H 373.959 2.99721 0.10347 0
M  V30 3996 H 371.512 1.56291 0.0164245 0
M  V30 3997 H 372.247 2.06501 2.50056 0
M  V30 3998 H 372.032 3.58578 1.58632 0
M  V30 3999 H 373.522 3.31556 2.53891 0
M  V30 4000 N 373.959 -0.0401083 1.57549 0
M  V30 4001 C 375.205 -0.728793 1.89895 0
M  V30 4002 C 375.56 -1.73551 0.830535 0
M  V30 4003 O 374.853 -1.90914 -0.162007 0
M  V30 4004 C 375.047 -1.44902 3.26708 0
M  V30 4005 C 374.876 -0.513568 4.46758 0
M  V30 4006 C 373.646 -0.138698 5.0511 0
M  V30 4007 C 375.844 0.203341 5.13898 0
M  V30 4008 N 373.826 0.799159 6.08676 0
M  V30 4009 C 375.197 0.997246 6.11927 0
M  V30 4010 C 377.252 0.271459 4.97159 0
M  V30 4011 C 375.955 1.85299 6.95023 0
M  V30 4012 C 377.981 1.11429 5.80808 0
M  V30 4013 C 377.343 1.89615 6.78399 0
M  V30 4014 H 373.442 -0.241125 0.743897 0
M  V30 4015 H 376.026 0.0108016 1.94697 0
M  V30 4016 H 374.197 -2.15914 3.22856 0
M  V30 4017 H 375.929 -2.08921 3.46603 0
M  V30 4018 H 372.684 -0.498496 4.70969 0
M  V30 4019 H 373.108 1.26227 6.65128 0
M  V30 4020 H 377.75 -0.318709 4.21597 0
M  V30 4021 H 375.468 2.454 7.69938 0
M  V30 4022 H 379.054 1.17038 5.69906 0
M  V30 4023 H 377.934 2.53779 7.42001 0
M  V30 4024 N 375.437 -1.54477 -0.31217 0
M  V30 4025 C 376.4 -1.83923 -1.36766 0
M  V30 4026 C 377.4 -0.711563 -1.44199 0
M  V30 4027 O 378.59 -0.979866 -1.44029 0
M  V30 4028 C 375.722 -2.0095 -2.75376 0
M  V30 4029 H 376.915 -2.78239 -1.11906 0
M  V30 4030 H 374.468 -1.46369 -0.548257 0
M  V30 4031 H 375.203 -1.08883 -3.05475 0
M  V30 4032 H 374.988 -2.83018 -2.71373 0
M  V30 4033 H 376.478 -2.2514 -3.51713 0
M  V30 4034 N 376.915 0.57481 -1.46744 0
M  V30 4035 C 378.192 1.3352 -1.4294 0
M  V30 4036 C 378.572 2.10775 -0.117009 0
M  V30 4037 O 377.92 2.09966 0.901474 0
M  V30 4038 C 378.13 2.25456 -2.66403 0
M  V30 4039 C 379.478 2.87035 -3.12883 0
M  V30 4040 O 380.502 2.35766 -2.67007 0
M  V30 4041 O 379.361 3.80179 -3.92589 0
M  V30 4042 H 376.455 0.600318 -0.568812 0
M  V30 4043 H 379.001 0.595171 -1.58921 0
M  V30 4044 H 377.773 1.67851 -3.53471 0
M  V30 4045 H 377.396 3.06785 -2.52921 0
M  V30 4046 N 378.394 1.34581 0.820102 0
M  V30 4047 C 379.357 1.2628 1.91275 0
M  V30 4048 C 380.357 0.177344 1.59819 0
M  V30 4049 O 381.547 0.430156 1.68806 0
M  V30 4050 C 378.679 0.950327 3.27386 0
M  V30 4051 H 379.872 2.23421 2.00057 0
M  V30 4052 H 377.425 1.1891 1.0144 0
M  V30 4053 H 378.16 -0.0177938 3.24295 0
M  V30 4054 H 377.945 1.73549 3.51601 0
M  V30 4055 H 379.435 0.917492 4.07396 0
M  V30 4056 N 379.872 -1.04064 1.18357 0
M  V30 4057 C 380.802 -2.14001 0.934113 0
M  V30 4058 C 381.783 -1.69616 -0.128186 0
M  V30 4059 O 382.968 -1.94185 0.0244093 0
M  V30 4060 C 380.098 -3.44253 0.459066 0
M  V30 4061 C 379.052 -4.02261 1.46185 0
M  V30 4062 C 378.378 -5.27992 0.844322 0
M  V30 4063 C 379.678 -4.38432 2.83856 0
M  V30 4064 H 381.372 -2.35127 1.85352 0
M  V30 4065 H 378.918 -1.12998 0.892604 0
M  V30 4066 H 380.871 -4.20522 0.271907 0
M  V30 4067 H 379.595 -3.22813 -0.495912 0
M  V30 4068 H 378.254 -3.28074 1.63595 0
M  V30 4069 H 377.902 -5.02862 -0.117845 0
M  V30 4070 H 377.602 -5.67765 1.51384 0
M  V30 4071 H 379.126 -6.06938 0.667693 0
M  V30 4072 H 380.54 -5.05688 2.70098 0
M  V30 4073 H 378.937 -4.89254 3.47491 0
M  V30 4074 H 380.007 -3.4826 3.37406 0
M  V30 4075 N 381.35 -0.985608 -1.22978 0
M  V30 4076 C 382.282 -0.488154 -2.23941 0
M  V30 4077 C 383.295 0.41282 -1.57479 0
M  V30 4078 O 384.484 0.216121 -1.77187 0
M  V30 4079 C 381.584 0.312611 -3.37455 0
M  V30 4080 C 380.757 -0.582741 -4.33501 0
M  V30 4081 C 379.816 0.165064 -5.25941 0
M  V30 4082 O 378.842 -0.447077 -5.67442 0
M  V30 4083 N 380.044 1.44953 -5.62111 0
M  V30 4084 H 382.809 -1.3563 -2.67254 0
M  V30 4085 H 380.37 -0.859477 -1.37203 0
M  V30 4086 H 382.362 0.821357 -3.96277 0
M  V30 4087 H 380.932 1.0818 -2.93285 0
M  V30 4088 H 380.152 -1.27225 -3.73105 0
M  V30 4089 H 381.44 -1.19275 -4.94622 0
M  V30 4090 H 380.838 1.9683 -5.30353 0
M  V30 4091 H 379.395 1.90361 -6.23383 0
M  V30 4092 N 382.828 1.3818 -0.7579 0
M  V30 4093 C 383.791 2.28764 -0.141286 0
M  V30 4094 C 384.791 1.47388 0.642907 0
M  V30 4095 O 385.981 1.67781 0.468536 0
M  V30 4096 C 383.113 3.31184 0.808069 0
M  V30 4097 H 384.306 2.848 -0.939633 0
M  V30 4098 H 381.859 1.47212 -0.525191 0
M  V30 4099 H 382.594 2.80247 1.63193 0
M  V30 4100 H 382.379 3.91314 0.248104 0
M  V30 4101 H 383.869 3.98909 1.23536 0
M  V30 4102 N 384.306 0.507319 1.49211 0
M  V30 4103 C 385.256 -0.287112 2.26185 0
M  V30 4104 C 386.24 -0.929983 1.31302 0
M  V30 4105 O 387.432 -0.836538 1.55984 0
M  V30 4106 C 384.561 -1.34718 3.15763 0
M  V30 4107 C 383.647 -0.710235 4.18111 0
M  V30 4108 N 384.038 0.190836 5.0544 0
M  V30 4109 C 382.336 -0.97009 4.35322 0
M  V30 4110 C 383.037 0.55606 5.79036 0
M  V30 4111 N 382.013 -0.0775232 5.43545 0
M  V30 4112 H 385.815 0.406445 2.91076 0
M  V30 4113 H 383.329 0.323814 1.59139 0
M  V30 4114 H 385.326 -1.92982 3.69545 0
M  V30 4115 H 383.986 -2.04235 2.52424 0
M  V30 4116 H 384.997 0.562047 5.14841 0
M  V30 4117 H 381.674 -1.65753 3.83187 0
M  V30 4118 H 383.064 1.2936 6.5933 0
M  V30 4119 N 385.784 -1.5574 0.241426 0
M  V30 4120 C 386.731 -2.21149 -0.660432 0
M  V30 4121 C 387.701 -1.17356 -1.17545 0
M  V30 4122 O 388.886 -1.45784 -1.23093 0
M  V30 4123 C 386.026 -2.91059 -1.85414 0
M  V30 4124 C 385.139 -4.09495 -1.37616 0
M  V30 4125 C 384.274 -4.67135 -2.529 0
M  V30 4126 C 383.313 -5.77831 -2.01936 0
M  V30 4127 N 382.45 -6.29677 -3.10566 0
M  V30 4128 H 387.29 -2.97845 -0.095955 0
M  V30 4129 H 384.827 -1.47057 -0.0356024 0
M  V30 4130 H 386.785 -3.29788 -2.5553 0
M  V30 4131 H 385.415 -2.16846 -2.39118 0
M  V30 4132 H 384.467 -3.76117 -0.569235 0
M  V30 4133 H 385.779 -4.89423 -0.962618 0
M  V30 4134 H 384.933 -5.08409 -3.31067 0
M  V30 4135 H 383.672 -3.86411 -2.97553 0
M  V30 4136 H 382.677 -5.36039 -1.22238 0
M  V30 4137 H 383.902 -6.60402 -1.58259 0
M  V30 4138 H 381.848 -5.5186 -3.54664 0
M  V30 4139 H 381.765 -7.04783 -2.73526 0
M  V30 4140 H 383.033 -6.75609 -3.88809 0
M  V30 4141 N 387.262 0.0317525 -1.57568 0
M  V30 4142 C 388.539 0.758366 -1.803 0
M  V30 4143 C 388.919 1.93718 -0.838845 0
M  V30 4144 O 388.267 2.28187 0.119571 0
M  V30 4145 C 388.477 1.19392 -3.27943 0
M  V30 4146 C 389.825 1.61094 -3.92854 0
M  V30 4147 O 390.849 1.28857 -3.32076 0
M  V30 4148 O 389.708 2.20918 -4.99858 0
M  V30 4149 H 386.802 0.366514 -0.741348 0
M  V30 4150 H 389.348 0.00873765 -1.69698 0
M  V30 4151 H 388.12 0.352275 -3.89711 0
M  V30 4152 H 387.743 2.00365 -3.43424 0
M  V30 4153 N 388.74 1.54641 0.303973 0
M  V30 4154 C 389.65 1.88439 1.39743 0
M  V30 4155 C 390.666 0.778239 1.55626 0
M  V30 4156 O 391.842 1.07442 1.70347 0
M  V30 4157 C 388.907 2.12212 2.74166 0
M  V30 4158 C 387.968 3.35936 2.67293 0
M  V30 4159 C 387.201 3.58566 3.95305 0
M  V30 4160 O 387.424 2.84263 4.9452 0
M  V30 4161 O 386.358 4.52078 3.97378 0
M  V30 4162 H 390.184 2.81458 1.14083 0
M  V30 4163 H 387.769 1.40793 0.499768 0
M  V30 4164 H 389.651 2.29067 3.53704 0
M  V30 4165 H 388.326 1.22379 2.99675 0
M  V30 4166 H 387.233 3.24448 1.86237 0
M  V30 4167 H 388.566 4.2589 2.46736 0
M  V30 4168 N 390.218 -0.567019 1.47046 0
M  V30 4169 C 391.181 -1.65696 1.58359 0
M  V30 4170 C 392.181 -1.54097 0.459441 0
M  V30 4171 O 393.371 -1.58432 0.724225 0
M  V30 4172 C 390.503 -3.05197 1.51879 0
M  V30 4173 H 391.696 -1.57019 2.5551 0
M  V30 4174 H 389.249 -0.786148 1.3509 0
M  V30 4175 H 389.984 -3.19417 0.560673 0
M  V30 4176 H 389.769 -3.15025 2.33455 0
M  V30 4177 H 391.259 -3.84511 1.62913 0
M  V30 4178 N 391.696 -1.35014 -0.812953 0
M  V30 4179 C 392.945 -1.27269 -1.56479 0
M  V30 4180 C 393.258 0.152771 -1.95002 0
M  V30 4181 O 394.464 0.352451 -2.69203 0
M  V30 4182 C 392.92 -2.23159 -2.82362 0
M  V30 4183 C 392.528 -3.71016 -2.511 0
M  V30 4184 C 394.272 -2.24342 -3.60376 0
M  V30 4185 C 392.179 -4.58746 -3.73237 0
M  V30 4186 H 391.109 -0.472829 -0.587324 0
M  V30 4187 H 393.76 -1.6024 -0.894171 0
M  V30 4188 H 392.142 -1.83151 -3.51101 0
M  V30 4189 H 393.316 -4.1962 -1.90409 0
M  V30 4190 H 391.631 -3.72378 -1.86343 0
M  V30 4191 H 394.228 -2.87107 -4.51081 0
M  V30 4192 H 394.571 -1.24542 -3.97234 0
M  V30 4193 H 395.104 -2.62846 -2.98591 0
M  V30 4194 H 391.843 -5.59521 -3.41492 0
M  V30 4195 H 391.363 -4.14871 -4.33176 0
M  V30 4196 H 393.042 -4.73852 -4.40537 0
M  V30 4197 N 393.175 1.03435 -1.18907 0
M  V30 4198 C 394.138 2.09756 -0.923844 0
M  V30 4199 C 395.138 1.60528 0.093416 0
M  V30 4200 O 396.328 1.73631 -0.140727 0
M  V30 4201 C 393.46 3.38692 -0.387354 0
M  V30 4202 H 394.653 2.34719 -1.86674 0
M  V30 4203 H 392.206 1.19959 -1.00197 0
M  V30 4204 H 392.941 3.19396 0.561845 0
M  V30 4205 H 392.726 3.75742 -1.12074 0
M  V30 4206 H 394.216 4.17016 -0.220694 0
M  V30 4207 N 394.653 0.992116 1.22453 0
M  V30 4208 C 395.583 0.561677 2.26644 0
M  V30 4209 C 396.564 -0.411055 1.65059 0
M  V30 4210 O 397.749 -0.301861 1.9184 0
M  V30 4211 C 394.879 -0.125247 3.47074 0
M  V30 4212 C 393.833 0.765948 4.21091 0
M  V30 4213 C 393.159 -0.0538484 5.34673 0
M  V30 4214 C 394.459 2.06242 4.79856 0
M  V30 4215 H 396.153 1.43259 2.62902 0
M  V30 4216 H 393.699 0.690283 1.26377 0
M  V30 4217 H 395.652 -0.437764 4.1912 0
M  V30 4218 H 394.376 -1.03069 3.0991 0
M  V30 4219 H 393.035 1.0621 3.50878 0
M  V30 4220 H 392.683 -0.960188 4.9375 0
M  V30 4221 H 392.383 0.539415 5.85119 0
M  V30 4222 H 393.907 -0.360477 6.09535 0
M  V30 4223 H 395.321 1.8139 5.43848 0
M  V30 4224 H 393.718 2.60444 5.40638 0
M  V30 4225 H 394.788 2.74167 3.99951 0
M  V30 4226 N 396.131 -1.37776 0.765217 0
M  V30 4227 C 397.078 -2.30342 0.145274 0
M  V30 4228 C 398.048 -1.5077 -0.696971 0
M  V30 4229 O 399.233 -1.79362 -0.650689 0
M  V30 4230 C 396.373 -3.37227 -0.732939 0
M  V30 4231 C 395.486 -4.31819 0.125199 0
M  V30 4232 C 394.621 -5.25777 -0.757107 0
M  V30 4233 C 393.66 -6.12012 0.103963 0
M  V30 4234 N 392.797 -6.98232 -0.735953 0
M  V30 4235 H 397.637 -2.8278 0.940195 0
M  V30 4236 H 395.174 -1.39211 0.475255 0
M  V30 4237 H 397.132 -3.97818 -1.25686 0
M  V30 4238 H 395.762 -2.86171 -1.49353 0
M  V30 4239 H 394.814 -3.7259 0.766865 0
M  V30 4240 H 396.126 -4.92509 0.789683 0
M  V30 4241 H 395.28 -5.91541 -1.34776 0
M  V30 4242 H 394.019 -4.65481 -1.45529 0
M  V30 4243 H 393.024 -5.45233 0.707197 0
M  V30 4244 H 394.249 -6.74379 0.799381 0
M  V30 4245 H 392.195 -6.40472 -1.41887 0
M  V30 4246 H 392.112 -7.55891 -0.128624 0
M  V30 4247 H 393.38 -7.68393 -1.31121 0
M  V30 4248 N 397.609 -0.515225 -1.4894 0
M  V30 4249 C 398.857 0.0241671 -2.02086 0
M  V30 4250 C 399.178 1.3616 -1.3959 0
M  V30 4251 O 398.448 1.87841 -0.556121 0
M  V30 4252 H 397.028 0.0119203 -0.746905 0
M  V30 4253 H 399.69 -0.675702 -1.82812 0
M  V30 4254 H 398.786 0.143385 -3.1177 0
M  V30 4255 N 399.087 1.5561 -0.249682 0
M  V30 4256 C 400.019 2.18834 0.681496 0
M  V30 4257 C 401.032 1.16546 1.1367 0
M  V30 4258 O 402.221 1.43397 1.06299 0
M  V30 4259 C 399.321 2.77992 1.9384 0
M  V30 4260 C 398.494 4.05725 1.63419 0
M  V30 4261 C 397.553 4.49174 2.74096 0
M  V30 4262 O 396.579 5.15492 2.41364 0
M  V30 4263 N 397.781 4.17191 4.03649 0
M  V30 4264 H 400.546 2.9937 0.140514 0
M  V30 4265 H 398.107 1.6175 -0.0697541 0
M  V30 4266 H 400.099 3.04015 2.67127 0
M  V30 4267 H 398.669 2.01596 2.38909 0
M  V30 4268 H 397.889 3.87261 0.736358 0
M  V30 4269 H 399.177 4.88999 1.40562 0
M  V30 4270 H 398.575 3.63955 4.33074 0
M  V30 4271 H 397.132 4.48043 4.73393 0
M  V30 4272 N 400.565 -0.0233959 1.57583 0
M  V30 4273 C 401.475 -1.03907 2.10334 0
M  V30 4274 C 402.491 -1.39257 1.04323 0
M  V30 4275 O 403.667 -1.48462 1.36091 0
M  V30 4276 C 400.732 -2.31938 2.57693 0
M  V30 4277 C 399.793 -2.03117 3.78209 0
M  V30 4278 C 399.026 -3.25043 4.233 0
M  V30 4279 O 399.249 -4.35916 3.67876 0
M  V30 4280 O 398.183 -3.10411 5.15683 0
M  V30 4281 H 402.009 -0.620748 2.97288 0
M  V30 4282 H 399.594 -0.240743 1.47448 0
M  V30 4283 H 401.476 -3.07196 2.88458 0
M  V30 4284 H 400.151 -2.73055 1.73847 0
M  V30 4285 H 399.058 -1.25408 3.52454 0
M  V30 4286 H 400.391 -1.66852 4.63056 0
M  V30 4287 N 402.043 -1.548 -0.295768 0
M  V30 4288 C 403.271 -1.78327 -1.04914 0
M  V30 4289 C 403.686 -0.545316 -1.80753 0
M  V30 4290 O 403.043 0.485013 -1.75937 0
M  V30 4291 C 403.094 -2.99418 -2.02561 0
M  V30 4292 O 402.815 -4.18431 -1.29798 0
M  V30 4293 C 404.316 -3.35375 -2.89895 0
M  V30 4294 H 401.536 -0.594618 -0.310918 0
M  V30 4295 H 404.08 -2.01763 -0.333454 0
M  V30 4296 H 402.235 -2.78175 -2.69624 0
M  V30 4297 H 402.649 -4.86736 -1.95419 0
M  V30 4298 H 404.123 -4.23332 -3.54251 0
M  V30 4299 H 404.6 -2.53761 -3.58472 0
M  V30 4300 H 405.206 -3.58796 -2.28355 0
M  V30 4301 N 403.521 0.559213 -1.47345 0
M  V30 4302 C 404.751 1.33999 -1.57251 0
M  V30 4303 C 405.159 1.87905 -0.220978 0
M  V30 4304 O 404.502 1.65577 0.795617 0
M  V30 4305 C 404.564 2.54798 -2.53611 0
M  V30 4306 C 404.228 2.22192 -3.99349 0
M  V30 4307 C 405.225 1.79607 -4.87891 0
M  V30 4308 C 402.91 2.33613 -4.44669 0
M  V30 4309 C 404.904 1.48868 -6.19772 0
M  V30 4310 C 402.591 2.02487 -5.76578 0
M  V30 4311 C 403.589 1.60183 -6.63951 0
M  V30 4312 O 403.277 1.29451 -7.93409 0
M  V30 4313 H 403.009 0.414858 -0.533731 0
M  V30 4314 H 405.563 0.684465 -1.9366 0
M  V30 4315 H 403.793 3.23235 -2.12265 0
M  V30 4316 H 405.482 3.16873 -2.53666 0
M  V30 4317 H 406.248 1.70278 -4.54126 0
M  V30 4318 H 402.127 2.65501 -3.76869 0
M  V30 4319 H 405.671 1.15775 -6.87926 0
M  V30 4320 H 401.568 2.11448 -6.09885 0
M  V30 4321 H 402.336 1.43098 -8.05894 0
M  V30 4322 N 404.999 1.35443 0.805782 0
M  V30 4323 C 406.276 1.19325 1.54987 0
M  V30 4324 C 406.656 -0.227294 2.09873 0
M  V30 4325 O 406.004 -1.2309 1.92512 0
M  V30 4326 C 406.214 2.26196 2.65775 0
M  V30 4327 C 407.562 2.62043 3.34094 0
M  V30 4328 O 408.586 2.25115 2.76046 0
M  V30 4329 O 407.445 3.25542 4.38958 0
M  V30 4330 H 404.539 0.463623 0.684823 0
M  V30 4331 H 407.085 1.47127 0.845674 0
M  V30 4332 H 405.857 3.21471 2.23096 0
M  V30 4333 H 405.48 1.99667 3.43829 0
M  V30 4334 N 406.477 -1.02803 1.19454 0
M  V30 4335 C 407.726 -1.7562 0.991996 0
M  V30 4336 C 408.039 -1.89672 -0.477901 0
M  V30 4337 O 409.245 -2.59468 -0.799287 0
M  V30 4338 C 407.701 -3.15812 1.72601 0
M  V30 4339 C 407.309 -3.0981 3.23607 0
M  V30 4340 C 409.053 -3.92918 1.60674 0
M  V30 4341 C 406.96 -4.44939 3.89594 0
M  V30 4342 H 405.89 -0.658352 0.367543 0
M  V30 4343 H 408.541 -1.15044 1.42959 0
M  V30 4344 H 406.923 -3.7686 1.21624 0
M  V30 4345 H 408.097 -2.58138 3.81709 0
M  V30 4346 H 406.412 -2.46201 3.35819 0
M  V30 4347 H 409.009 -4.9287 2.07323 0
M  V30 4348 H 409.352 -4.12502 0.561025 0
M  V30 4349 H 409.885 -3.38472 2.09001 0
M  V30 4350 H 406.624 -4.30559 4.94267 0
M  V30 4351 H 406.144 -4.96664 3.36281 0
M  V30 4352 H 407.823 -5.1382 3.93189 0
M  V30 4353 N 407.956 -0.998596 -1.21925 0
M  V30 4354 C 409.186 -0.695276 -1.94549 0
M  V30 4355 C 409.594 0.745079 -1.73911 0
M  V30 4356 O 408.937 1.51507 -1.03881 0
M  V30 4357 C 408.999 -0.928485 -3.47303 0
M  V30 4358 C 408.663 -2.35443 -3.91683 0
M  V30 4359 C 409.66 -3.33428 -3.98901 0
M  V30 4360 C 407.345 -2.69038 -4.24174 0
M  V30 4361 C 409.339 -4.63079 -4.37992 0
M  V30 4362 C 407.026 -3.98906 -4.62944 0
M  V30 4363 C 408.024 -4.95738 -4.69822 0
M  V30 4364 O 407.712 -6.23285 -5.07711 0
M  V30 4365 H 407.444 -0.255902 -0.625692 0
M  V30 4366 H 409.998 -1.33767 -1.5587 0
M  V30 4367 H 408.228 -0.228917 -3.86022 0
M  V30 4368 H 409.917 -0.619539 -4.01144 0
M  V30 4369 H 410.683 -3.08807 -3.73983 0
M  V30 4370 H 406.562 -1.94367 -4.18022 0
M  V30 4371 H 410.106 -5.38658 -4.43275 0
M  V30 4372 H 406.003 -4.23314 -4.87314 0
M  V30 4373 H 406.771 -6.27306 -5.25766 0
M  V30 4374 N 409.434 1.37368 -0.772513 0
M  V30 4375 C 410.367 2.27956 -0.105593 0
M  V30 4376 C 411.345 1.46362 0.708295 0
M  V30 4377 O 412.529 1.75695 0.682895 0
M  V30 4378 C 409.656 3.27687 0.856686 0
M  V30 4379 C 408.702 4.26312 0.1267 0
M  V30 4380 S 409.535 5.22206 -1.1858 0
M  V30 4381 C 410.691 6.25488 -0.227081 0
M  V30 4382 H 410.924 2.84171 -0.87372 0
M  V30 4383 H 408.457 1.43654 -0.565939 0
M  V30 4384 H 410.415 3.85653 1.40648 0
M  V30 4385 H 409.076 2.70417 1.59793 0
M  V30 4386 H 408.269 4.96674 0.856212 0
M  V30 4387 H 407.871 3.72339 -0.352117 0
M  V30 4388 H 410.163 6.74836 0.600231 0
M  V30 4389 H 411.106 7.02371 -0.898899 0
M  V30 4390 H 411.514 5.64267 0.162053 0
M  V30 4391 N 410.912 0.523116 1.48665 0
M  V30 4392 C 411.862 -0.263106 2.26477 0
M  V30 4393 C 412.846 -0.916005 1.32281 0
M  V30 4394 O 414.038 -0.819946 1.56863 0
M  V30 4395 C 411.167 -1.31361 3.17174 0
M  V30 4396 C 410.253 -0.665849 4.1884 0
M  V30 4397 N 410.644 0.244434 5.05209 0
M  V30 4398 C 408.942 -0.923863 4.36326 0
M  V30 4399 C 409.643 0.617443 5.78414 0
M  V30 4400 N 408.619 -0.0198686 5.43596 0
M  V30 4401 H 412.421 0.437295 2.90629 0
M  V30 4402 H 409.935 0.340675 1.58787 0
M  V30 4403 H 411.932 -1.89052 3.71571 0
M  V30 4404 H 410.592 -2.01546 2.54576 0
M  V30 4405 H 411.603 0.616621 5.14216 0
M  V30 4406 H 408.28 -1.6168 3.84923 0
M  V30 4407 H 409.67 1.36346 6.57921 0
M  V30 4408 N 412.39 -1.55475 0.257931 0
M  V30 4409 C 413.62 -2.03314 -0.367026 0
M  V30 4410 C 414.028 -1.13625 -1.51281 0
M  V30 4411 O 413.371 -0.145334 -1.83124 0
M  V30 4412 C 413.433 -3.47362 -0.926284 0
M  V30 4413 C 413.097 -4.56914 0.0886584 0
M  V30 4414 C 414.094 -5.12013 0.902123 0
M  V30 4415 C 411.779 -5.01827 0.217936 0
M  V30 4416 C 413.773 -6.10529 1.83122 0
M  V30 4417 C 411.46 -6.00172 1.15052 0
M  V30 4418 C 412.458 -6.54402 1.95568 0
M  V30 4419 O 412.146 -7.50827 2.87253 0
M  V30 4420 H 411.878 -0.669976 -0.0900443 0
M  V30 4421 H 414.432 -2.01804 0.382673 0
M  V30 4422 H 412.662 -3.46056 -1.72575 0
M  V30 4423 H 414.351 -3.78637 -1.46249 0
M  V30 4424 H 415.117 -4.78139 0.812891 0
M  V30 4425 H 410.996 -4.59272 -0.398721 0
M  V30 4426 H 414.54 -6.52783 2.46008 0
M  V30 4427 H 410.437 -6.33465 1.24064 0
M  V30 4428 H 411.205 -7.68483 2.81739 0
M  V30 4429 N 413.868 0.0150385 -1.57593 0
M  V30 4430 C 414.798 1.01047 -2.10503 0
M  V30 4431 C 415.779 1.36816 -1.01071 0
M  V30 4432 O 416.964 1.45455 -1.28672 0
M  V30 4433 C 414.094 2.30708 -2.59598 0
M  V30 4434 C 413.048 2.09142 -3.73421 0
M  V30 4435 C 412.374 3.44685 -4.08774 0
M  V30 4436 C 413.674 1.46619 -5.01298 0
M  V30 4437 H 415.368 0.569978 -2.93925 0
M  V30 4438 H 412.914 0.272724 -1.41394 0
M  V30 4439 H 414.867 3.00687 -2.95238 0
M  V30 4440 H 413.591 2.76843 -1.73279 0
M  V30 4441 H 412.25 1.41592 -3.38153 0
M  V30 4442 H 411.898 3.88495 -3.195 0
M  V30 4443 H 411.598 3.31077 -4.8545 0
M  V30 4444 H 413.122 4.16004 -4.4696 0
M  V30 4445 H 414.536 2.06535 -5.34805 0
M  V30 4446 H 412.933 1.43544 -5.82679 0
M  V30 4447 H 414.003 0.433611 -4.82957 0
M  V30 4448 N 415.346 1.54954 0.287554 0
M  V30 4449 C 416.762 1.46469 0.633964 0
M  V30 4450 C 416.962 0.666865 1.90145 0
M  V30 4451 O 416.018 0.179906 2.51858 0
M  V30 4452 C 417.331 2.90556 0.774454 0
M  V30 4453 C 418.879 3.00681 0.869462 0
M  V30 4454 C 419.354 4.45993 1.04184 0
M  V30 4455 N 420.845 4.4976 1.10772 0
M  V30 4456 C 421.58 5.59393 1.25964 0
M  V30 4457 N 421.076 6.78923 1.37968 0
M  V30 4458 N 422.869 5.47107 1.28959 0
M  V30 4459 H 415.02 2.05288 -0.545041 0
M  V30 4460 H 417.283 0.930305 -0.182308 0
M  V30 4461 H 416.989 3.51594 -0.086207 0
M  V30 4462 H 416.863 3.38743 1.6593 0
M  V30 4463 H 419.25 2.39749 1.7206 0
M  V30 4464 H 419.331 2.55769 -0.0396831 0
M  V30 4465 H 418.975 5.07524 0.195422 0
M  V30 4466 H 418.905 4.88548 1.96542 0
M  V30 4467 H 421.396 3.63651 1.02794 0
M  V30 4468 H 421.709 7.58231 1.49353 0
M  V30 4469 H 420.054 6.81763 1.34999 0
M  V30 4470 H 423.245 4.52668 1.19202 0
M  V30 4471 H 423.418 6.32595 1.40455 0
M  V30 4472 N 416.824 -0.551391 1.4764 0
M  V30 4473 C 418.072 -1.30572 1.54258 0
M  V30 4474 C 418.393 -1.93877 0.208963 0
M  V30 4475 O 417.663 -1.80234 -0.767619 0
M  V30 4476 H 416.243 -0.484894 0.568231 0
M  V30 4477 H 418.905 -0.643402 1.83974 0
M  V30 4478 H 418.001 -2.09621 2.31226 0
M  V30 4479 N 418.302 -1.35869 -0.798587 0
M  V30 4480 C 419.542 -1.30961 -1.56935 0
M  V30 4481 C 419.906 0.112404 -1.91671 0
M  V30 4482 O 421.107 0.285937 -2.67275 0
M  V30 4483 C 419.378 -2.19811 -2.81811 0
M  V30 4484 S 420.937 -2.32498 -3.72143 0
M  V30 4485 H 417.755 -0.465297 -0.537606 0
M  V30 4486 H 420.357 -1.71344 -0.941346 0
M  V30 4487 H 419.061 -3.22095 -2.54329 0
M  V30 4488 H 418.592 -1.80415 -3.49591 0
M  V30 4489 H 420.607 -1.5157 -4.72484 0
M  V30 4490 N 419.78 1.02168 -1.19998 0
M  V30 4491 C 421.005 1.79833 -1.03319 0
M  V30 4492 C 421.43 1.83504 0.413281 0
M  V30 4493 O 420.788 1.26635 1.29743 0
M  V30 4494 C 420.836 3.22396 -1.61533 0
M  V30 4495 O 419.94 4.03555 -0.849519 0
M  V30 4496 H 419.281 0.554872 -0.364709 0
M  V30 4497 H 421.811 1.28542 -1.59179 0
M  V30 4498 H 421.821 3.73124 -1.65054 0
M  V30 4499 H 420.496 3.19039 -2.66809 0
M  V30 4500 H 419.073 3.62169 -0.888129 0
M  V30 4501 N 421.258 1.00505 1.21394 0
M  V30 4502 C 422.535 0.603277 1.86064 0
M  V30 4503 C 422.915 -0.919095 1.90042 0
M  V30 4504 O 422.263 -1.80607 1.39977 0
M  V30 4505 C 422.473 1.23772 3.26315 0
M  V30 4506 C 423.821 1.34586 4.02705 0
M  V30 4507 O 424.845 1.19304 3.35626 0
M  V30 4508 O 423.704 1.59169 5.22807 0
M  V30 4509 H 420.798 0.206634 0.800769 0
M  V30 4510 H 423.344 1.1017 1.29076 0
M  V30 4511 H 422.116 2.27848 3.18121 0
M  V30 4512 H 421.739 0.725648 3.90922 0
M  V30 4513 N 422.737 -1.36956 0.779787 0
M  V30 4514 C 423.667 -2.32761 0.185651 0
M  V30 4515 C 424.648 -1.56177 -0.673989 0
M  V30 4516 O 425.833 -1.84378 -0.609797 0
M  V30 4517 C 422.963 -3.40418 -0.687964 0
M  V30 4518 C 421.917 -4.27941 0.0710102 0
M  V30 4519 C 421.243 -5.26681 -0.922573 0
M  V30 4520 C 422.543 -5.07006 1.25467 0
M  V30 4521 H 424.237 -2.82698 0.986008 0
M  V30 4522 H 421.783 -1.3592 0.475592 0
M  V30 4523 H 423.736 -4.06423 -1.11348 0
M  V30 4524 H 422.46 -2.89025 -1.52093 0
M  V30 4525 H 421.119 -3.63478 0.47739 0
M  V30 4526 H 420.767 -4.71565 -1.7503 0
M  V30 4527 H 420.467 -5.86103 -0.419237 0
M  V30 4528 H 421.991 -5.9556 -1.34686 0
M  V30 4529 H 423.405 -5.66105 0.905401 0
M  V30 4530 H 421.802 -5.75793 1.69063 0
M  V30 4531 H 422.872 -4.3921 2.05481 0
M  V30 4532 N 424.215 -0.530993 -1.48385 0
M  V30 4533 C 425.462 0.0027373 -2.025 0
M  V30 4534 C 425.79 1.34186 -1.40799 0
M  V30 4535 O 425.045 1.88 -0.543544 0
M  V30 4536 C 425.344 0.172742 -3.56982 0
M  V30 4537 C 425.01 -1.09215 -4.37473 0
M  V30 4538 C 423.672 -1.43881 -4.59186 0
M  V30 4539 C 426.024 -1.93153 -4.84088 0
M  V30 4540 C 423.352 -2.62381 -5.2476 0
M  V30 4541 C 425.704 -3.10833 -5.50968 0
M  V30 4542 C 424.368 -3.45843 -5.70919 0
M  V30 4543 H 423.638 0.00100165 -0.740999 0
M  V30 4544 H 426.285 -0.697219 -1.78357 0
M  V30 4545 H 424.59 0.955473 -3.79971 0
M  V30 4546 H 426.287 0.600642 -3.96476 0
M  V30 4547 H 422.877 -0.812177 -4.20834 0
M  V30 4548 H 427.061 -1.67683 -4.67115 0
M  V30 4549 H 422.317 -2.89707 -5.38405 0
M  V30 4550 H 426.491 -3.7618 -5.86056 0
M  V30 4551 H 424.118 -4.37764 -6.21503 0
M  V30 4552 N 425.693 1.55336 -0.266172 0
M  V30 4553 C 427.109 1.59356 0.0882065 0
M  V30 4554 C 427.309 1.2834 1.55342 0
M  V30 4555 O 426.365 1.03996 2.30089 0
M  V30 4556 C 427.678 2.99409 -0.278364 0
M  V30 4557 C 429.226 3.12196 -0.224243 0
M  V30 4558 C 429.701 4.545 -0.565123 0
M  V30 4559 N 431.192 4.60313 -0.51634 0
M  V30 4560 C 431.927 5.68434 -0.753013 0
M  V30 4561 N 431.423 6.84738 -1.05383 0
M  V30 4562 N 433.216 5.57942 -0.682414 0
M  V30 4563 H 425.367 1.73764 -1.22147 0
M  V30 4564 H 427.63 0.809822 -0.492841 0
M  V30 4565 H 427.336 3.2691 -1.29703 0
M  V30 4566 H 427.21 3.75228 0.385186 0
M  V30 4567 H 429.597 2.84464 0.78512 0
M  V30 4568 H 429.678 2.38609 -0.921922 0
M  V30 4569 H 429.322 4.82956 -1.57213 0
M  V30 4570 H 429.252 5.26374 0.154248 0
M  V30 4571 H 431.743 3.7676 -0.29335 0
M  V30 4572 H 432.056 7.63088 -1.22133 0
M  V30 4573 H 430.401 6.86375 -1.09151 0
M  V30 4574 H 433.592 4.65958 -0.44731 0
M  V30 4575 H 433.765 6.4213 -0.870248 0
M  V30 4576 N 427.171 -0.0066808 1.57599 0
M  V30 4577 C 428.448 -0.729586 1.81484 0
M  V30 4578 C 428.828 -1.92359 0.869558 0
M  V30 4579 O 428.176 -2.28348 -0.0832533 0
M  V30 4580 C 428.386 -1.1416 3.29801 0
M  V30 4581 C 429.734 -1.54823 3.95367 0
M  V30 4582 O 430.758 -1.23558 3.34084 0
M  V30 4583 O 429.617 -2.12937 5.03309 0
M  V30 4584 H 426.711 -0.354674 0.747085 0
M  V30 4585 H 429.257 0.0182609 1.6969 0
M  V30 4586 H 428.029 -0.290231 3.90222 0
M  V30 4587 H 427.652 -1.94876 3.46568 0
M  V30 4588 N 428.649 -1.55105 -0.279332 0
M  V30 4589 C 429.596 -1.8755 -1.34513 0
M  V30 4590 C 430.566 -0.726384 -1.49375 0
M  V30 4591 O 431.751 -0.977063 -1.63884 0
M  V30 4592 C 428.891 -2.14738 -2.70151 0
M  V30 4593 C 428.004 -3.42285 -2.63562 0
M  V30 4594 C 427.139 -3.59206 -3.91337 0
M  V30 4595 C 426.178 -4.80467 -3.79233 0
M  V30 4596 N 425.315 -4.94079 -4.98829 0
M  V30 4597 H 430.155 -2.78456 -1.06143 0
M  V30 4598 H 427.692 -1.37867 -0.512936 0
M  V30 4599 H 429.65 -2.28501 -3.49061 0
M  V30 4600 H 428.28 -1.27075 -2.96735 0
M  V30 4601 H 427.332 -3.37029 -1.76397 0
M  V30 4602 H 428.644 -4.31328 -2.50515 0
M  V30 4603 H 427.798 -3.72751 -4.78687 0
M  V30 4604 H 426.537 -2.68337 -4.07243 0
M  V30 4605 H 425.542 -4.66932 -2.90266 0
M  V30 4606 H 426.767 -5.72765 -3.64852 0
M  V30 4607 H 424.713 -4.06139 -5.15158 0
M  V30 4608 H 424.63 -5.77156 -4.8829 0
M  V30 4609 H 425.898 -5.12003 -5.8777 0
M  V30 4610 N 430.127 0.543554 -1.4793 0
M  V30 4611 C 431.357 1.32324 -1.58663 0
M  V30 4612 C 431.765 1.8766 -0.240896 0
M  V30 4613 O 431.108 1.66411 0.778011 0
M  V30 4614 C 431.17 2.52094 -2.56299 0
M  V30 4615 C 430.834 2.17944 -4.01683 0
M  V30 4616 C 431.831 1.74422 -4.89768 0
M  V30 4617 C 429.516 2.28884 -4.47121 0
M  V30 4618 C 431.51 1.42287 -6.21316 0
M  V30 4619 C 429.197 1.96361 -5.78693 0
M  V30 4620 C 430.195 1.53132 -6.65612 0
M  V30 4621 O 429.883 1.21029 -7.94737 0
M  V30 4622 H 429.615 0.409174 -0.538101 0
M  V30 4623 H 432.169 0.663887 -1.94375 0
M  V30 4624 H 430.399 3.20965 -2.15681 0
M  V30 4625 H 432.088 3.14165 -2.57012 0
M  V30 4626 H 432.854 1.65452 -4.55907 0
M  V30 4627 H 428.733 2.61488 -3.79664 0
M  V30 4628 H 432.277 1.08472 -6.89115 0
M  V30 4629 H 428.174 2.04967 -6.12094 0
M  V30 4630 H 428.942 1.34543 -8.07366 0
M  V30 4631 N 431.605 1.3629 0.791371 0
M  V30 4632 C 432.833 1.33562 1.58016 0
M  V30 4633 C 433.248 -0.0835616 1.88615 0
M  V30 4634 O 432.605 -1.0399 1.49974 0
M  V30 4635 C 432.656 2.15517 2.90232 0
M  V30 4636 O 432.377 3.51902 2.60953 0
M  V30 4637 C 433.878 2.20546 3.84544 0
M  V30 4638 H 431.098 0.458226 0.490173 0
M  V30 4639 H 433.642 1.79361 0.982345 0
M  V30 4640 H 431.797 1.73278 3.46487 0
M  V30 4641 H 432.211 3.94644 3.4548 0
M  V30 4642 H 433.685 2.82252 4.74382 0
M  V30 4643 H 434.162 1.20838 4.2225 0
M  V30 4644 H 434.768 2.63013 3.34222 0
M  V30 4645 N 433.083 -1.0153 1.20538 0
M  V30 4646 C 434.36 -1.72327 0.925343 0
M  V30 4647 C 434.74 -2.03383 -0.565547 0
M  V30 4648 O 434.088 -1.69934 -1.52757 0
M  V30 4649 C 434.298 -2.9902 1.79967 0
M  V30 4650 C 435.646 -3.72258 2.04228 0
M  V30 4651 O 436.67 -3.08979 1.77231 0
M  V30 4652 O 435.529 -4.86053 2.4983 0
M  V30 4653 H 432.623 -0.751099 0.346092 0
M  V30 4654 H 435.169 -1.07366 1.31417 0
M  V30 4655 H 433.941 -2.72402 2.80915 0
M  V30 4656 H 433.564 -3.71721 1.41099 0
M  V30 4657 N 434.561 -1.01147 -1.20859 0
M  V30 4658 C 435.807 -0.698899 -1.90377 0
M  V30 4659 C 436.14 0.76904 -1.78324 0
M  V30 4660 O 435.415 1.55817 -1.16409 0
M  V30 4661 C 435.698 -1.12878 -3.41951 0
M  V30 4662 C 435.551 -2.65665 -3.62963 0
M  V30 4663 C 436.87 -0.696114 -4.3456 0
M  V30 4664 H 433.989 -0.255372 -0.691342 0
M  V30 4665 H 436.631 -1.25831 -1.42361 0
M  V30 4666 H 434.781 -0.652827 -3.82976 0
M  V30 4667 H 436.453 -3.21074 -3.31224 0
M  V30 4668 H 434.696 -3.06878 -3.06608 0
M  V30 4669 H 435.367 -2.90797 -4.69192 0
M  V30 4670 H 437.843 -1.10521 -4.01154 0
M  V30 4671 H 436.719 -1.025 -5.39245 0
M  V30 4672 H 436.98 0.402465 -4.40264 0
M  V30 4673 N 436.039 1.36541 -0.78704 0
M  V30 4674 C 437.279 2.01138 -0.363714 0
M  V30 4675 C 437.643 1.61114 1.04433 0
M  V30 4676 O 438.844 2.18285 1.56861 0
M  V30 4677 C 437.115 3.53603 -0.519582 0
M  V30 4678 S 438.674 4.38415 -0.183782 0
M  V30 4679 H 435.492 0.697263 -0.13909 0
M  V30 4680 H 438.094 1.66475 -1.02501 0
M  V30 4681 H 436.798 3.8022 -1.5447 0
M  V30 4682 H 436.329 3.93084 0.15773 0
M  V30 4683 H 438.344 4.85698 1.01547 0
M  V30 4684 N 437.518 0.538854 1.48102 0
M  V30 4685 C 438.45 -0.256278 2.27763 0
M  V30 4686 C 439.463 -0.89633 1.35904 0
M  V30 4687 O 440.652 -0.773275 1.60881 0
M  V30 4688 C 437.752 -1.37896 3.09577 0
M  V30 4689 C 436.925 -0.839159 4.29275 0
M  V30 4690 C 435.984 -1.84405 4.9283 0
M  V30 4691 O 435.01 -1.39746 5.51779 0
M  V30 4692 N 436.212 -3.17666 4.85869 0
M  V30 4693 H 438.977 0.426968 2.96643 0
M  V30 4694 H 436.538 0.373747 1.57527 0
M  V30 4695 H 438.53 -2.04955 3.48963 0
M  V30 4696 H 437.1 -1.96572 2.4306 0
M  V30 4697 H 436.32 0.00769287 3.94199 0
M  V30 4698 H 437.608 -0.457548 5.06739 0
M  V30 4699 H 437.006 -3.56609 4.39143 0
M  V30 4700 H 435.563 -3.80334 5.29329 0
M  V30 4701 N 438.996 -1.55193 0.274407 0
M  V30 4702 C 440.243 -1.99581 -0.342579 0
M  V30 4703 C 440.571 -1.1628 -1.55914 0
M  V30 4704 O 439.826 -0.22029 -1.94456 0
M  V30 4705 C 440.125 -3.49019 -0.769458 0
M  V30 4706 C 439.791 -4.49598 0.342389 0
M  V30 4707 C 438.453 -4.76821 0.647686 0
M  V30 4708 C 440.805 -5.0964 1.09163 0
M  V30 4709 C 438.133 -5.61354 1.70581 0
M  V30 4710 C 440.485 -5.95323 2.13948 0
M  V30 4711 C 439.149 -6.20867 2.45113 0
M  V30 4712 H 438.419 -0.730319 -0.125358 0
M  V30 4713 H 441.066 -1.87529 0.387971 0
M  V30 4714 H 439.371 -3.58544 -1.57967 0
M  V30 4715 H 441.068 -3.8077 -1.25757 0
M  V30 4716 H 437.658 -4.28496 0.094318 0
M  V30 4717 H 441.842 -4.88632 0.869024 0
M  V30 4718 H 437.098 -5.79392 1.9523 0
M  V30 4719 H 441.272 -6.40881 2.72478 0
M  V30 4720 H 438.899 -6.86162 3.27239 0
M  V30 4721 N 440.474 -0.00167713 -1.576 0
M  V30 4722 C 441.702 0.693759 -1.94922 0
M  V30 4723 C 442.117 1.67215 -0.876626 0
M  V30 4724 O 441.474 1.81929 0.144279 0
M  V30 4725 C 441.525 1.42416 -3.32265 0
M  V30 4726 O 441.246 0.485014 -4.35407 0
M  V30 4727 C 442.747 2.21395 -3.84056 0
M  V30 4728 H 439.967 0.193118 -0.642609 0
M  V30 4729 H 442.511 -0.0532952 -2.04431 0
M  V30 4730 H 440.666 2.12284 -3.24059 0
M  V30 4731 H 441.08 1.00053 -5.14868 0
M  V30 4732 H 442.554 2.67996 -4.82578 0
M  V30 4733 H 443.031 3.04142 -3.16851 0
M  V30 4734 H 443.637 1.56542 -3.95443 0
M  V30 4735 N 441.952 1.55251 0.271103 0
M  V30 4736 C 442.882 1.9127 1.33933 0
M  V30 4737 C 443.863 0.77478 1.5143 0
M  V30 4738 O 445.048 1.03307 1.64442 0
M  V30 4739 C 442.178 2.18627 2.69851 0
M  V30 4740 C 441.132 3.34442 2.67081 0
M  V30 4741 C 440.458 3.47284 4.06569 0
M  V30 4742 C 441.758 4.70784 2.26185 0
M  V30 4743 H 443.452 2.80744 1.04035 0
M  V30 4744 H 440.998 1.35077 0.499017 0
M  V30 4745 H 442.951 2.42413 3.44694 0
M  V30 4746 H 441.675 1.25955 3.01335 0
M  V30 4747 H 440.334 3.10627 1.94695 0
M  V30 4748 H 439.982 2.52074 4.35279 0
M  V30 4749 H 439.682 4.25152 4.0561 0
M  V30 4750 H 441.206 3.73363 4.83148 0
M  V30 4751 H 442.62 4.94102 2.90751 0
M  V30 4752 H 441.017 5.51582 2.36384 0
M  V30 4753 H 442.087 4.69478 1.21319 0
M  V30 4754 N 443.43 -0.535701 1.48216 0
M  V30 4755 C 444.676 -1.29375 1.56173 0
M  V30 4756 C 445.009 -1.92804 0.232429 0
M  V30 4757 O 444.284 -1.78992 -0.761048 0
M  V30 4758 C 444.567 -2.38747 2.69577 0
M  V30 4759 C 444.42 -1.80046 4.12193 0
M  V30 4760 C 445.739 -3.40551 2.78771 0
M  V30 4761 H 442.858 -0.469027 0.568491 0
M  V30 4762 H 445.5 -0.597358 1.80365 0
M  V30 4763 H 443.65 -2.98147 2.4908 0
M  V30 4764 H 445.322 -1.24742 4.44114 0
M  V30 4765 H 443.565 -1.10609 4.19462 0
M  V30 4766 H 444.236 -2.59212 4.87353 0
M  V30 4767 H 446.712 -2.91099 2.97322 0
M  V30 4768 H 445.588 -4.1448 3.59857 0
M  V30 4769 H 445.849 -4.00746 1.86696 0
M  V30 4770 N 444.908 -1.36708 -0.784132 0
M  V30 4771 C 445.855 -1.31466 -1.89698 0
M  V30 4772 C 446.825 -0.18239 -1.65096 0
M  V30 4773 O 448.01 -0.369762 -1.87183 0
M  V30 4774 C 445.15 -1.1151 -3.26588 0
M  V30 4775 C 444.263 -2.33859 -3.63227 0
M  V30 4776 C 443.398 -2.06873 -4.89262 0
M  V30 4777 C 442.437 -3.25154 -5.18595 0
M  V30 4778 N 441.574 -2.978 -6.35814 0
M  V30 4779 H 446.414 -2.26619 -1.93515 0
M  V30 4780 H 443.951 -1.12625 -0.946256 0
M  V30 4781 H 445.909 -0.979653 -4.05535 0
M  V30 4782 H 444.539 -0.200103 -3.22179 0
M  V30 4783 H 443.591 -2.58188 -2.79362 0
M  V30 4784 H 444.903 -3.22109 -3.8085 0
M  V30 4785 H 444.057 -1.90289 -5.76086 0
M  V30 4786 H 442.796 -1.15942 -4.73718 0
M  V30 4787 H 441.801 -3.42292 -4.30251 0
M  V30 4788 H 443.026 -4.1692 -5.36055 0
M  V30 4789 H 440.972 -2.09485 -6.21653 0
M  V30 4790 H 440.889 -3.7959 -6.53794 0
M  V30 4791 H 442.157 -2.84805 -7.25607 0
M  V30 4792 O 446.425 0.923818 -1.32468 0
M  V30 4793 H 447.116 1.55617 -1.15339 0
M  V30 END ATOM
M  V30 BEGIN BOND
M  V30 END BOND
M  V30 END CTAB
M  END
$$$$
