drugbank_drug|DB01279 Galsulfase
 OpenBabel12092119123D

  0  0  0     0  0            999 V3000
M  V30 BEGIN CTAB
M  V30 COUNTS 7811 7939 0 0 0
M  V30 BEGIN ATOM
M  V30 1 H -0.908 1.98254 -0.117106 0
M  V30 2 N 0 1.576 0 0
M  V30 3 C 1.225 1.95249 0.699468 0
M  V30 4 C 1.65 0.874934 1.66513 0
M  V30 5 O 1.008 -0.166929 1.8053 0
M  V30 6 C 1.056 3.31994 1.40756 0
M  V30 7 O 0.16 3.26298 2.52197 0
M  V30 8 H -0.499 0.637402 0.186051 0
M  V30 9 H 2.031 2.04531 -0.05319 0
M  V30 10 H 2.041 3.6756 1.77098 0
M  V30 11 H 0.716 4.09975 0.69953 0
M  V30 12 H -0.707 3.02408 2.18183 0
M  V30 13 N 1.4781 -0.272755 1.55222 0
M  V30 14 C 2.7261 -1.00234 1.75492 0
M  V30 15 C 3.0471 -1.8681 0.5592 0
M  V30 16 O 2.3171 -1.91215 -0.425882 0
M  V30 17 H 0.8971 -0.373076 0.647166 0
M  V30 18 H 3.5591 -0.296926 1.92625 0
M  V30 19 H 2.6551 -1.63913 2.65592 0
M  V30 20 N 2.9562 -1.48159 -0.537278 0
M  V30 21 C 3.9192 -1.61665 -1.62472 0
M  V30 22 C 4.9192 -0.490395 -1.5314 0
M  V30 23 O 6.1092 -0.755998 -1.5694 0
M  V30 24 C 3.2412 -1.57997 -3.02076 0
M  V30 25 H 4.4342 -2.58621 -1.51839 0
M  V30 26 H 1.9872 -1.36647 -0.758771 0
M  V30 27 H 2.7222 -0.624913 -3.18222 0
M  V30 28 H 2.5072 -2.39755 -3.10258 0
M  V30 29 H 3.9972 -1.70627 -3.81151 0
M  V30 30 N 4.4343 0.785586 -1.36625 0
M  V30 31 C 5.6823 1.54057 -1.30808 0
M  V30 32 C 6.0033 1.94683 0.111157 0
M  V30 33 O 5.2733 1.65241 1.05224 0
M  V30 34 H 3.8533 0.571354 -0.481211 0
M  V30 35 H 6.5153 0.935821 -1.70963 0
M  V30 36 H 5.6113 2.44637 -1.93801 0
M  V30 37 N 5.9124 1.20967 1.01018 0
M  V30 38 C 6.8754 0.965918 2.07853 0
M  V30 39 C 7.8754 -0.0610545 1.60684 0
M  V30 40 O 9.0654 0.175681 1.73312 0
M  V30 41 C 6.1974 0.455513 3.37843 0
M  V30 42 H 7.3904 1.91365 2.3091 0
M  V30 43 H 4.9434 1.02594 1.17916 0
M  V30 44 H 5.6784 -0.497381 3.20463 0
M  V30 45 H 5.4634 1.19622 3.73407 0
M  V30 46 H 6.9534 0.304667 4.16487 0
M  V30 47 N 7.3905 -1.2043 1.01659 0
M  V30 48 C 8.6155 -1.94318 0.724942 0
M  V30 49 C 9.0405 -1.74266 -0.708034 0
M  V30 50 O 8.3985 -1.03694 -1.48719 0
M  V30 51 C 8.4465 -3.44486 1.06591 0
M  V30 52 O 7.5505 -4.12017 0.177599 0
M  V30 53 H 6.8915 -0.60708 0.26898 0
M  V30 54 H 9.4215 -1.52861 1.35995 0
M  V30 55 H 9.4315 -3.95106 1.01762 0
M  V30 56 H 8.1065 -3.58404 2.10997 0
M  V30 57 H 6.6835 -3.71821 0.283421 0
M  V30 58 N 8.8686 -0.792821 -1.36206 0
M  V30 59 C 10.2846 -0.474903 -1.52371 0
M  V30 60 C 10.4846 1.00622 -1.74578 0
M  V30 61 O 9.5406 1.79162 -1.77924 0
M  V30 62 C 10.8536 -1.3083 -2.70747 0
M  V30 63 C 12.4016 -1.30234 -2.84619 0
M  V30 64 C 12.8766 -2.11956 -4.06004 0
M  V30 65 N 14.3676 -2.09419 -4.13156 0
M  V30 66 C 15.1026 -2.69419 -5.06163 0
M  V30 67 N 14.5986 -3.3829 -6.04592 0
M  V30 68 N 16.3916 -2.59134 -4.98804 0
M  V30 69 H 8.5426 -1.75222 -1.20046 0
M  V30 70 H 10.8056 -0.745024 -0.586211 0
M  V30 71 H 10.5116 -2.35881 -2.6087 0
M  V30 72 H 10.3856 -0.95196 -3.6499 0
M  V30 73 H 12.7726 -0.259748 -2.93955 0
M  V30 74 H 12.8536 -1.69847 -1.91274 0
M  V30 75 H 12.4976 -3.16248 -3.97429 0
M  V30 76 H 12.4276 -1.69711 -4.98503 0
M  V30 77 H 14.9186 -1.59297 -3.42685 0
M  V30 78 H 15.2316 -3.81394 -6.7213 0
M  V30 79 H 13.5766 -3.42393 -6.04807 0
M  V30 80 H 16.7676 -2.04927 -4.20859 0
M  V30 81 H 16.9406 -3.06185 -5.711 0
M  V30 82 N 10.3467 1.47872 -0.545128 0
M  V30 83 C 11.7577 1.86384 -0.108581 0
M  V30 84 C 12.1087 1.45309 1.31832 0
M  V30 85 O 11.2337 0.850641 1.9898 0
M  V30 86 C 11.8287 3.38265 -0.190274 0
M  V30 87 C 10.3877 3.75914 0.191164 0
M  V30 88 C 9.5347 2.71926 -0.543273 0
M  V30 89 H 12.4857 1.39561 -0.755537 0
M  V30 90 H 12.5067 3.75831 0.594217 0
M  V30 91 H 12.0187 3.6813 -1.2289 0
M  V30 92 H 10.1197 3.51665 1.23136 0
M  V30 93 H 10.2327 4.78836 -0.158987 0
M  V30 94 H 8.5967 2.54697 0.0122495 0
M  V30 95 H 9.3797 3.04634 -1.58282 0
M  V30 96 N 11.8248 0.280983 1.55075 0
M  V30 97 C 13.2358 -0.215629 1.85451 0
M  V30 98 C 13.5868 -1.54991 1.203 0
M  V30 99 O 12.7118 -2.10699 0.493435 0
M  V30 100 C 13.3068 -0.398026 3.36454 0
M  V30 101 C 11.8658 -0.838866 3.66933 0
M  V30 102 C 11.0128 0.064458 2.77225 0
M  V30 103 H 13.9638 0.502601 1.50531 0
M  V30 104 H 13.9848 -1.23569 3.59876 0
M  V30 105 H 13.4968 0.573241 3.83843 0
M  V30 106 H 11.5978 -1.8214 3.25048 0
M  V30 107 H 11.7108 -0.672123 4.74362 0
M  V30 108 H 10.0748 -0.452863 2.50642 0
M  V30 109 H 10.8578 1.03172 3.2743 0
M  V30 110 N 13.3029 -1.57598 0.00835791 0
M  V30 111 C 14.2529 -2.05431 -0.989045 0
M  V30 112 C 15.2369 -0.950662 -1.29812 0
M  V30 113 O 16.4289 -1.21438 -1.28771 0
M  V30 114 C 13.5579 -2.56801 -2.27833 0
M  V30 115 C 12.6439 -3.74058 -1.99853 0
M  V30 116 N 13.0349 -4.8544 -1.42062 0
M  V30 117 C 11.3329 -3.82148 -2.29953 0
M  V30 118 C 12.0339 -5.66817 -1.30743 0
M  V30 119 N 11.0099 -5.13077 -1.7959 0
M  V30 120 H 14.8119 -2.88955 -0.536853 0
M  V30 121 H 12.3259 -1.61199 -0.197148 0
M  V30 122 H 14.3229 -2.89349 -3.00137 0
M  V30 123 H 12.9829 -1.74699 -2.73698 0
M  V30 124 H 13.9939 -5.0612 -1.09833 0
M  V30 125 H 10.6709 -3.10916 -2.78635 0
M  V30 126 H 12.0609 -6.66343 -0.862328 0
M  V30 127 N 14.781 0.264519 -1.55364 0
M  V30 128 C 15.711 1.33121 -1.91836 0
M  V30 129 C 16.692 1.51101 -0.781192 0
M  V30 130 O 17.877 1.64003 -1.04003 0
M  V30 131 C 15.007 2.68921 -2.19769 0
M  V30 132 C 13.961 2.65661 -3.35571 0
M  V30 133 C 13.287 4.05093 -3.49004 0
M  V30 134 C 14.587 2.24187 -4.71739 0
M  V30 135 H 16.281 1.02844 -2.81182 0
M  V30 136 H 13.827 0.493286 -1.35287 0
M  V30 137 H 15.78 3.43663 -2.43872 0
M  V30 138 H 14.504 3.00799 -1.27231 0
M  V30 139 H 13.163 1.93377 -3.1145 0
M  V30 140 H 12.811 4.34206 -2.53917 0
M  V30 141 H 12.511 4.03804 -4.26868 0
M  V30 142 H 14.035 4.81561 -3.75408 0
M  V30 143 H 15.449 2.88654 -4.9533 0
M  V30 144 H 13.846 2.34044 -5.52579 0
M  V30 145 H 14.916 1.19327 -4.69988 0
M  V30 146 N 16.2591 1.48442 0.529413 0
M  V30 147 C 17.5051 1.5672 1.28711 0
M  V30 148 C 17.8381 0.2406 1.92704 0
M  V30 149 O 17.1131 -0.753454 1.79313 0
M  V30 150 C 17.3961 2.70587 2.37603 0
M  V30 151 C 17.2491 4.12953 1.78297 0
M  V30 152 C 18.5681 2.80212 3.39366 0
M  V30 153 H 15.6871 0.570474 0.466613 0
M  V30 154 H 18.3291 1.80617 0.589706 0
M  V30 155 H 16.4791 2.50342 2.97088 0
M  V30 156 H 18.1511 4.44639 1.22858 0
M  V30 157 H 16.3941 4.19927 1.0883 0
M  V30 158 H 17.0651 4.88448 2.57144 0
M  V30 159 H 19.5411 2.98553 2.89836 0
M  V30 160 H 18.4171 3.61611 4.12951 0
M  V30 161 H 18.6781 1.88393 3.99951 0
M  V30 162 N 17.7372 -0.778329 1.37039 0
M  V30 163 C 18.9842 -1.53665 1.31884 0
M  V30 164 C 19.3122 -1.9425 -0.0986303 0
M  V30 165 O 18.5672 -1.63832 -1.07041 0
M  V30 166 C 18.8662 -2.81845 2.19768 0
M  V30 167 C 18.5322 -2.60345 3.68146 0
M  V30 168 C 17.1942 -2.5419 4.08584 0
M  V30 169 C 19.5462 -2.40923 4.62175 0
M  V30 170 C 16.8742 -2.26594 5.41177 0
M  V30 171 C 19.2262 -2.14852 5.94997 0
M  V30 172 C 17.8902 -2.07137 6.34547 0
M  V30 173 H 17.1602 -0.562299 0.482598 0
M  V30 174 H 19.8072 -0.897069 1.69189 0
M  V30 175 H 18.1122 -3.50328 1.75436 0
M  V30 176 H 19.8092 -3.39692 2.13097 0
M  V30 177 H 16.3992 -2.65996 3.36072 0
M  V30 178 H 20.5832 -2.44673 4.31797 0
M  V30 179 H 15.8392 -2.19111 5.70789 0
M  V30 180 H 20.0132 -1.98822 6.67415 0
M  V30 181 H 17.6402 -1.85518 7.37216 0
M  V30 182 N 19.2153 -1.21501 -1.00376 0
M  V30 183 C 20.1453 -0.999478 -2.11028 0
M  V30 184 C 21.1263 0.0759671 -1.6993 0
M  V30 185 O 22.3113 -0.0841106 -1.94018 0
M  V30 186 C 19.4413 -0.564709 -3.42678 0
M  V30 187 C 18.3953 -1.58486 -3.97576 0
M  V30 188 C 17.7213 -1.00628 -5.25146 0
M  V30 189 C 19.0213 -2.97204 -4.29496 0
M  V30 190 H 20.7153 -1.92495 -2.29317 0
M  V30 191 H 18.2613 -0.92693 -1.102 0
M  V30 192 H 20.2143 -0.401091 -4.19487 0
M  V30 193 H 18.9383 0.396411 -3.24185 0
M  V30 194 H 17.5973 -1.73606 -3.22888 0
M  V30 195 H 17.2453 -0.0368439 -5.02987 0
M  V30 196 H 16.9453 -1.68771 -5.62841 0
M  V30 197 H 18.4693 -0.854015 -6.04598 0
M  V30 198 H 19.8833 -2.8552 -4.97143 0
M  V30 199 H 18.2803 -3.62372 -4.78338 0
M  V30 200 H 19.3503 -3.47956 -3.3772 0
M  V30 201 N 20.6934 1.19889 -1.02296 0
M  V30 202 C 21.6234 2.25141 -0.619174 0
M  V30 203 C 22.6044 1.66051 0.368915 0
M  V30 204 O 23.7894 1.92546 0.252941 0
M  V30 205 C 20.9194 3.4728 0.0368783 0
M  V30 206 C 19.8734 4.19005 -0.872865 0
M  V30 207 C 19.1994 5.34637 -0.0822402 0
M  V30 208 C 20.4994 4.74452 -2.18387 0
M  V30 209 H 22.1934 2.59171 -1.49903 0
M  V30 210 H 19.7394 1.24579 -0.722222 0
M  V30 211 H 21.6924 4.20098 0.330958 0
M  V30 212 H 20.4164 3.12433 0.95149 0
M  V30 213 H 19.0754 3.48061 -1.15105 0
M  V30 214 H 18.7234 4.96034 0.83422 0
M  V30 215 H 18.4234 5.83557 -0.688149 0
M  V30 216 H 19.9474 6.10255 0.205238 0
M  V30 217 H 21.3614 5.39055 -1.95172 0
M  V30 218 H 19.7584 5.33834 -2.74119 0
M  V30 219 H 20.8284 3.92844 -2.84257 0
M  V30 220 N 22.1715 0.800033 1.35784 0
M  V30 221 C 23.1345 0.211565 2.28221 0
M  V30 222 C 24.1345 -0.59728 1.49296 0
M  V30 223 O 25.3245 -0.416721 1.69142 0
M  V30 224 C 22.4565 -0.705846 3.33513 0
M  V30 225 H 23.6495 1.02677 2.81776 0
M  V30 226 H 21.2025 0.570211 1.45528 0
M  V30 227 H 21.9375 -1.54498 2.85133 0
M  V30 228 H 21.7225 -0.127655 3.91892 0
M  V30 229 H 23.2125 -1.11211 4.02519 0
M  V30 230 N 23.6496 -1.47581 0.552962 0
M  V30 231 C 24.9266 -1.95563 -0.0381515 0
M  V30 232 C 25.3066 -1.49552 -1.48988 0
M  V30 233 O 24.6546 -0.732414 -2.16444 0
M  V30 234 C 24.8646 -3.48848 0.102919 0
M  V30 235 C 26.2126 -4.24577 -0.0446082 0
M  V30 236 O 27.2366 -3.56187 0.0302548 0
M  V30 237 O 26.0956 -5.46116 -0.204923 0
M  V30 238 H 23.1896 -0.824321 -0.0665067 0
M  V30 239 H 25.7356 -1.58001 0.619186 0
M  V30 240 H 24.5076 -3.75129 1.11328 0
M  V30 241 H 24.1306 -3.93165 -0.592224 0
M  V30 242 N 25.1277 -0.289203 -1.54924 0
M  V30 243 C 26.4047 0.376032 -1.91951 0
M  V30 244 C 26.7847 1.72622 -1.21511 0
M  V30 245 O 26.1327 2.25853 -0.346767 0
M  V30 246 C 26.3427 0.502378 -3.45365 0
M  V30 247 C 27.6907 0.778741 -4.17398 0
M  V30 248 O 28.7147 0.586647 -3.51336 0
M  V30 249 O 27.5737 1.14698 -5.34328 0
M  V30 250 H 24.6677 0.208167 -0.800372 0
M  V30 251 H 27.2137 -0.336394 -1.66332 0
M  V30 252 H 25.9857 -0.447255 -3.88736 0
M  V30 253 H 25.6087 1.26373 -3.76982 0
M  V30 254 N 26.6058 1.57591 -0.0167156 0
M  V30 255 C 27.5358 2.12496 0.967858 0
M  V30 256 C 28.5168 1.03807 1.34752 0
M  V30 257 O 29.7018 1.31577 1.42833 0
M  V30 258 C 26.8318 2.64194 2.25431 0
M  V30 259 C 25.7858 3.77559 2.01576 0
M  V30 260 C 25.1118 4.15636 3.36379 0
M  V30 261 C 26.4118 5.04151 1.36489 0
M  V30 262 H 28.1058 2.95013 0.510643 0
M  V30 263 H 25.6518 1.41915 0.244181 0
M  V30 264 H 27.6048 3.01236 2.94678 0
M  V30 265 H 26.3288 1.78821 2.73296 0
M  V30 266 H 24.9878 3.40937 1.34751 0
M  V30 267 H 24.6358 3.27263 3.81979 0
M  V30 268 H 24.3358 4.92022 3.21229 0
M  V30 269 H 25.8598 4.5525 4.06915 0
M  V30 270 H 27.2738 5.38857 1.95718 0
M  V30 271 H 25.6708 5.85453 1.31776 0
M  V30 272 H 26.7408 4.83733 0.336219 0
M  V30 273 N 28.0839 -0.256276 1.55502 0
M  V30 274 C 29.3319 -0.983672 1.76545 0
M  V30 275 C 29.6529 -1.86206 0.578982 0
M  V30 276 O 28.9229 -1.91656 -0.405577 0
M  V30 277 H 27.5029 -0.366191 0.651086 0
M  V30 278 H 30.1649 -0.276479 1.92929 0
M  V30 279 H 29.2609 -1.61087 2.67315 0
M  V30 280 N 29.562 -1.4872 -0.521534 0
M  V30 281 C 30.808 -1.58378 -1.27624 0
M  V30 282 C 31.163 -0.258028 -1.90662 0
M  V30 283 O 30.456 0.739917 -1.76736 0
M  V30 284 C 30.65 -2.66497 -2.38148 0
M  V30 285 C 30.479 -4.09456 -1.85945 0
M  V30 286 C 29.249 -4.76495 -1.68168 0
M  V30 287 C 31.447 -4.95353 -1.3831 0
M  V30 288 N 29.429 -6.0384 -1.1068 0
M  V30 289 C 30.8 -6.13012 -0.928238 0
M  V30 290 C 32.855 -4.81512 -1.26692 0
M  V30 291 C 31.558 -7.18354 -0.368701 0
M  V30 292 C 33.584 -5.86984 -0.721368 0
M  V30 293 C 32.946 -7.03857 -0.276623 0
M  V30 294 H 29.045 -0.634045 -0.457724 0
M  V30 295 H 31.629 -1.85639 -0.587049 0
M  V30 296 H 29.8 -2.41043 -3.04553 0
M  V30 297 H 31.532 -2.65791 -3.05184 0
M  V30 298 H 28.287 -4.32962 -1.91939 0
M  V30 299 H 28.711 -6.71778 -0.839217 0
M  V30 300 H 33.353 -3.91487 -1.5968 0
M  V30 301 H 31.071 -8.08096 -0.0265122 0
M  V30 302 H 34.657 -5.78329 -0.634531 0
M  V30 303 H 33.537 -7.84077 0.138947 0
M  V30 304 N 31.0401 0.771051 -1.3745 0
M  V30 305 C 31.9881 1.90574 -1.33358 0
M  V30 306 C 32.9821 1.67936 -0.22224 0
M  V30 307 O 34.1881 1.75717 -0.390304 0
M  V30 308 H 30.5631 0.626714 -0.415612 0
M  V30 309 H 32.5341 1.91142 -2.29144 0
M  V30 310 C 31.2831 3.27845 -1.15813 0
M  V30 311 H 30.6061 3.45842 -2.00583 0
M  V30 312 H 32.0461 4.07538 -1.17 0
M  V30 313 C 30.5051 3.36625 0.136165 0
M  V30 314 O 31.0351 3.85785 1.11949 0
M  V30 315 N 29.2411 2.89997 0.187099 0
M  V30 316 H 28.7881 2.50182 -0.613753 0
M  V30 317 H 28.7461 2.96252 1.05272 0
M  V30 318 N 32.5182 1.22032 0.997298 0
M  V30 319 C 33.7952 0.950823 1.70935 0
M  V30 320 C 34.1752 -0.535292 2.042 0
M  V30 321 O 33.5232 -1.50217 1.72183 0
M  V30 322 C 33.7332 1.84386 2.96315 0
M  V30 323 C 35.0812 2.09732 3.69185 0
M  V30 324 O 36.1052 1.81798 3.06314 0
M  V30 325 O 34.9642 2.57018 4.82291 0
M  V30 326 H 32.0582 0.357204 0.745878 0
M  V30 327 H 34.6042 1.32997 1.05404 0
M  V30 328 H 33.3762 2.84928 2.68201 0
M  V30 329 H 32.9992 1.46602 3.69586 0
M  V30 330 N 33.9963 -1.19345 1.0293 0
M  V30 331 C 35.2423 -1.89318 0.727083 0
M  V30 332 C 35.5753 -1.79446 -0.742483 0
M  V30 333 O 34.8503 -1.1871 -1.54072 0
M  V30 334 C 35.1333 -3.40238 1.17942 0
M  V30 335 C 34.9863 -3.58979 2.71024 0
M  V30 336 C 36.3053 -4.33479 0.760548 0
M  V30 337 H 33.4243 -0.687475 0.265606 0
M  V30 338 H 36.0663 -1.40477 1.2793 0
M  V30 339 H 34.2163 -3.81964 0.709608 0
M  V30 340 H 35.8883 -3.26421 3.25955 0
M  V30 341 H 34.1313 -3.02018 3.11396 0
M  V30 342 H 34.8023 -4.64823 2.9773 0
M  V30 343 H 37.2783 -3.99469 1.16464 0
M  V30 344 H 36.1543 -5.37664 1.10493 0
M  V30 345 H 36.4153 -4.40813 -0.337063 0
M  V30 346 N 35.4744 -0.807222 -1.35358 0
M  V30 347 C 36.7224 -0.387122 -1.98358 0
M  V30 348 C 37.0434 1.04942 -1.64354 0
M  V30 349 O 36.3134 1.72615 -0.926339 0
M  V30 350 H 34.8934 -0.140154 -0.733734 0
M  V30 351 H 37.5554 -1.0332 -1.6526 0
M  V30 352 H 36.6514 -0.493352 -3.08176 0
M  V30 353 N 36.9525 1.47285 -0.560781 0
M  V30 354 C 38.1995 2.02464 -0.038062 0
M  V30 355 C 38.5275 1.43474 1.31322 0
M  V30 356 O 37.7825 0.581311 1.86867 0
M  V30 357 C 38.0815 3.57258 0.100784 0
M  V30 358 C 37.7475 4.35184 -1.18007 0
M  V30 359 C 36.4095 4.56194 -1.53103 0
M  V30 360 C 38.7615 4.80098 -2.02867 0
M  V30 361 C 36.0895 5.19367 -2.729 0
M  V30 362 C 38.4415 5.44593 -3.21871 0
M  V30 363 C 37.1055 5.63835 -3.57276 0
M  V30 364 H 36.3755 0.740869 -0.0139279 0
M  V30 365 H 39.0225 1.76916 -0.733012 0
M  V30 366 H 37.3275 3.81819 0.878724 0
M  V30 367 H 39.0245 3.97606 0.520639 0
M  V30 368 H 35.6145 4.19113 -0.8968 0
M  V30 369 H 39.7985 4.63642 -1.7706 0
M  V30 370 H 35.0545 5.32459 -3.00496 0
M  V30 371 H 39.2285 5.78358 -3.87911 0
M  V30 372 H 36.8555 6.12557 -4.50197 0
M  V30 373 N 38.4306 0.297415 1.54768 0
M  V30 374 C 39.3806 -0.595275 2.20092 0
M  V30 375 C 40.3646 -1.10163 1.17273 0
M  V30 376 O 41.5566 -1.043 1.43006 0
M  V30 377 C 38.6856 -1.7684 2.94249 0
M  V30 378 C 37.7716 -1.27818 4.0438 0
M  V30 379 N 38.1626 -0.505695 5.03266 0
M  V30 380 C 36.4606 -1.55923 4.17857 0
M  V30 381 C 37.1616 -0.245094 5.81183 0
M  V30 382 N 36.1376 -0.823881 5.3732 0
M  V30 383 H 39.9396 0.00250837 2.939 0
M  V30 384 H 37.4536 0.102007 1.62079 0
M  V30 385 H 39.4506 -2.41944 3.39513 0
M  V30 386 H 38.1106 -2.36992 2.21957 0
M  V30 387 H 39.1216 -0.150928 5.1768 0
M  V30 388 H 35.7986 -2.16849 3.56767 0
M  V30 389 H 37.1886 0.375084 6.70852 0
M  V30 390 N 39.9087 -1.5758 0.0250728 0
M  V30 391 C 41.1567 -1.91255 -0.653151 0
M  V30 392 C 41.4777 -0.901691 -1.729 0
M  V30 393 O 40.7477 0.0573785 -1.95816 0
M  V30 394 H 39.3277 -0.705942 -0.244243 0
M  V30 395 H 41.9897 -1.94767 0.0719209 0
M  V30 396 H 41.0857 -2.91752 -1.10847 0
M  V30 397 N 41.3868 0.248026 -1.55636 0
M  V30 398 C 42.6118 0.998028 -1.81808 0
M  V30 399 C 43.0368 1.78207 -0.601979 0
M  V30 400 O 42.3948 1.75653 0.448961 0
M  V30 401 C 42.4428 1.9125 -3.05705 0
M  V30 402 O 41.5468 3.00406 -2.82542 0
M  V30 403 H 40.8878 0.284045 -0.600179 0
M  V30 404 H 43.4178 0.269357 -2.02819 0
M  V30 405 H 43.4278 2.32737 -3.35108 0
M  V30 406 H 42.1028 1.33602 -3.93857 0
M  V30 407 H 40.6798 2.63056 -2.64303 0
M  V30 408 N 42.8649 1.48995 0.513639 0
M  V30 409 C 44.2809 1.35478 0.843682 0
M  V30 410 C 44.4809 0.378213 1.97919 0
M  V30 411 O 43.5369 -0.194689 2.51748 0
M  V30 412 C 44.8499 2.75901 1.1958 0
M  V30 413 C 46.3979 2.84509 1.30474 0
M  V30 414 C 46.8729 4.25671 1.69021 0
M  V30 415 N 48.3639 4.28422 1.76094 0
M  V30 416 C 49.0989 5.34601 2.07338 0
M  V30 417 N 48.5949 6.5104 2.36894 0
M  V30 418 N 50.3879 5.22007 2.08483 0
M  V30 419 H 42.5389 2.11092 -0.235328 0
M  V30 420 H 44.8019 0.947039 -0.0426669 0
M  V30 421 H 44.5079 3.49001 0.434913 0
M  V30 422 H 44.3819 3.10467 2.1422 0
M  V30 423 H 46.7689 2.11655 2.05637 0
M  V30 424 H 46.8499 2.53542 0.339155 0
M  V30 425 H 46.4939 4.99048 0.944135 0
M  V30 426 H 46.4239 4.54094 2.66658 0
M  V30 427 H 48.9149 3.44441 1.55464 0
M  V30 428 H 49.2279 7.2779 2.59887 0
M  V30 429 H 47.5729 6.54287 2.34378 0
M  V30 430 H 50.7639 4.30051 1.84861 0
M  V30 431 H 50.9369 6.04854 2.325 0
M  V30 432 N 44.343 -0.763751 1.37857 0
M  V30 433 C 45.592 -1.51789 1.32827 0
M  V30 434 C 45.905 -1.95426 -0.0823719 0
M  V30 435 O 47.111 -2.70298 -0.255172 0
M  V30 436 C 45.567 -2.74133 2.33193 0
M  V30 437 C 45.175 -2.37562 3.79827 0
M  V30 438 C 46.919 -3.52054 2.37188 0
M  V30 439 C 44.826 -3.56456 4.71904 0
M  V30 440 H 43.756 -0.569896 0.493695 0
M  V30 441 H 46.407 -0.835822 1.63359 0
M  V30 442 H 44.789 -3.4427 1.9569 0
M  V30 443 H 45.963 -1.75157 4.26212 0
M  V30 444 H 44.278 -1.72798 3.78853 0
M  V30 445 H 46.875 -4.40437 3.03182 0
M  V30 446 H 47.218 -3.92486 1.38782 0
M  V30 447 H 47.751 -2.88921 2.7344 0
M  V30 448 H 44.49 -3.21099 5.71468 0
M  V30 449 H 44.01 -4.17938 4.30218 0
M  V30 450 H 45.689 -4.23168 4.89426 0
M  V30 451 N 45.8211 -1.22559 -0.990812 0
M  V30 452 C 47.2371 -0.985996 -1.255 0
M  V30 453 C 47.4371 0.319173 -1.98956 0
M  V30 454 O 46.4931 1.04127 -2.3003 0
M  V30 455 C 47.8061 -2.18607 -2.06474 0
M  V30 456 C 49.3541 -2.22985 -2.19651 0
M  V30 457 C 49.8291 -3.4255 -3.04012 0
M  V30 458 N 51.3201 -3.42725 -3.11599 0
M  V30 459 C 52.0551 -4.31892 -3.7717 0
M  V30 460 N 51.5511 -5.31279 -4.44651 0
M  V30 461 N 53.3441 -4.19662 -3.73952 0
M  V30 462 H 45.4951 -2.06469 -0.49841 0
M  V30 463 H 47.7581 -0.904853 -0.282747 0
M  V30 464 H 47.4641 -3.13267 -1.59865 0
M  V30 465 H 47.3381 -2.18838 -3.07229 0
M  V30 466 H 49.7251 -1.28871 -2.65474 0
M  V30 467 H 49.8061 -2.26791 -1.18319 0
M  V30 468 H 49.4501 -4.36965 -2.58889 0
M  V30 469 H 49.3801 -3.35984 -4.0549 0
M  V30 470 H 51.8711 -2.70807 -2.63575 0
M  V30 471 H 52.1841 -5.95593 -4.92431 0
M  V30 472 H 50.5291 -5.3519 -4.43392 0
M  V30 473 H 53.7201 -3.41268 -3.20396 0
M  V30 474 H 53.8931 -4.89358 -4.24774 0
M  V30 475 N 47.2992 1.18797 -1.03562 0
M  V30 476 C 48.5272 1.92599 -0.755869 0
M  V30 477 C 48.9422 1.75886 0.686271 0
M  V30 478 O 48.2992 1.08517 1.46732 0
M  V30 479 C 48.3502 3.44159 -1.10619 0
M  V30 480 O 48.0712 3.60341 -2.4917 0
M  V30 481 C 49.5722 4.3507 -0.850214 0
M  V30 482 H 46.7922 0.611587 -0.276048 0
M  V30 483 H 49.3362 1.50742 -1.38192 0
M  V30 484 H 47.4912 3.83823 -0.525194 0
M  V30 485 H 47.9052 4.54128 -2.62427 0
M  V30 486 H 49.3792 5.39989 -1.14523 0
M  V30 487 H 49.8562 4.38673 0.215176 0
M  V30 488 H 50.4622 4.01097 -1.41426 0
M  V30 489 N 48.7773 0.814389 1.34928 0
M  V30 490 C 50.1883 0.458364 1.80986 0
M  V30 491 C 50.5393 -1.02042 1.67577 0
M  V30 492 O 49.6643 -1.79352 1.21086 0
M  V30 493 C 50.2593 0.825212 3.28597 0
M  V30 494 C 48.8183 0.521677 3.72767 0
M  V30 495 C 47.9653 1.04668 2.56788 0
M  V30 496 H 50.9163 1.00533 1.22795 0
M  V30 497 H 50.9373 0.12571 3.80292 0
M  V30 498 H 50.4493 1.90154 3.38324 0
M  V30 499 H 48.5503 -0.545589 3.68584 0
M  V30 500 H 48.6633 1.05977 4.67232 0
M  V30 501 H 47.0273 0.468622 2.50352 0
M  V30 502 H 47.8103 2.12927 2.6929 0
M  V30 503 N 50.2554 -1.46986 0.568584 0
M  V30 504 C 51.2054 -2.27179 -0.193339 0
M  V30 505 C 52.1894 -1.35035 -0.874895 0
M  V30 506 O 53.3814 -1.5931 -0.771322 0
M  V30 507 C 50.5104 -3.21063 -1.21546 0
M  V30 508 C 49.5964 -4.2069 -0.536738 0
M  V30 509 N 49.9874 -5.04218 0.399673 0
M  V30 510 C 48.2854 -4.38961 -0.789254 0
M  V30 511 C 48.9864 -5.76242 0.795017 0
M  V30 512 N 47.9624 -5.434 0.1473 0
M  V30 513 H 51.7644 -2.89146 0.526458 0
M  V30 514 H 49.2784 -1.57664 0.389342 0
M  V30 515 H 51.2754 -3.77209 -1.77536 0
M  V30 516 H 49.9354 -2.60654 -1.93623 0
M  V30 517 H 50.9464 -5.12077 0.774454 0
M  V30 518 H 47.6234 -3.89713 -1.49767 0
M  V30 519 H 49.0134 -6.53417 1.56513 0
M  V30 520 N 51.7335 -0.305618 -1.54608 0
M  V30 521 C 52.6635 0.561482 -2.26649 0
M  V30 522 C 53.6445 1.13415 -1.26772 0
M  V30 523 O 54.8295 1.16262 -1.55553 0
M  V30 524 C 51.9595 1.73122 -3.01075 0
M  V30 525 C 50.9135 1.2887 -4.08138 0
M  V30 526 C 50.2395 2.54396 -4.70305 0
M  V30 527 C 51.5395 0.416578 -5.20636 0
M  V30 528 H 53.2335 -0.0393902 -2.99374 0
M  V30 529 H 50.7795 -0.020385 -1.43986 0
M  V30 530 H 52.7325 2.34396 -3.50195 0
M  V30 531 H 51.4565 2.3584 -2.25936 0
M  V30 532 H 50.1155 0.698991 -3.59875 0
M  V30 533 H 49.7635 3.15439 -3.918 0
M  V30 534 H 49.4635 2.25486 -5.42614 0
M  V30 535 H 50.9875 3.16464 -5.2219 0
M  V30 536 H 52.4015 0.935116 -5.65622 0
M  V30 537 H 50.7985 0.221046 -5.99693 0
M  V30 538 H 51.8685 -0.557162 -4.81688 0
M  V30 539 N 53.2116 1.57565 -0.0334293 0
M  V30 540 C 54.4886 1.83282 0.683163 0
M  V30 541 C 54.8686 0.91823 1.90084 0
M  V30 542 O 54.2166 -0.025113 2.28486 0
M  V30 543 C 54.4266 3.32599 1.0573 0
M  V30 544 C 55.7746 3.99179 1.44711 0
M  V30 545 O 56.7986 3.3712 1.15015 0
M  V30 546 O 55.6576 5.08565 2.0006 0
M  V30 547 H 52.7516 0.755869 0.335546 0
M  V30 548 H 55.2976 1.69589 -0.0614402 0
M  V30 549 H 54.0696 3.90834 0.190828 0
M  V30 550 H 53.6926 3.51415 1.85993 0
M  V30 551 N 54.6897 -0.239769 1.55765 0
M  V30 552 C 55.6527 -1.28038 1.90103 0
M  V30 553 C 56.6527 -1.40723 0.778055 0
M  V30 554 O 57.8427 -1.39301 1.04599 0
M  V30 555 C 54.9747 -2.65702 2.13577 0
M  V30 556 H 56.1677 -0.988048 2.83157 0
M  V30 557 H 53.7207 -0.479382 1.48767 0
M  V30 558 H 54.4557 -3.00063 1.23015 0
M  V30 559 H 54.2407 -2.57875 2.95369 0
M  V30 560 H 55.7307 -3.40828 2.41301 0
M  V30 561 N 56.1678 -1.49265 -0.50573 0
M  V30 562 C 57.0978 -1.68495 -1.61653 0
M  V30 563 C 58.0788 -0.53366 -1.61512 0
M  V30 564 O 59.2638 -0.76897 -1.78327 0
M  V30 565 C 56.3938 -1.74709 -3.00157 0
M  V30 566 C 55.3478 -2.89581 -3.15162 0
M  V30 567 C 54.6738 -2.80903 -4.5497 0
M  V30 568 C 55.9738 -4.30578 -2.95634 0
M  V30 569 H 57.6678 -2.61493 -1.45814 0
M  V30 570 H 55.2138 -1.25838 -0.70005 0
M  V30 571 H 57.1668 -1.86748 -3.77761 0
M  V30 572 H 55.8908 -0.783067 -3.17074 0
M  V30 573 H 54.5498 -2.77136 -2.39982 0
M  V30 574 H 54.1978 -1.82419 -4.68756 0
M  V30 575 H 53.8978 -3.57999 -4.65951 0
M  V30 576 H 55.4218 -2.94944 -5.34641 0
M  V30 577 H 56.8358 -4.4373 -3.63011 0
M  V30 578 H 55.2328 -5.0886 -3.18091 0
M  V30 579 H 56.3028 -4.45352 -1.91806 0
M  V30 580 N 57.6459 0.756429 -1.3826 0
M  V30 581 C 58.6089 1.85176 -1.35065 0
M  V30 582 C 59.6089 1.58818 -0.251703 0
M  V30 583 O 60.7989 1.66615 -0.508433 0
M  V30 584 C 57.9309 3.22596 -1.10201 0
M  V30 585 H 59.1239 1.89417 -2.3251 0
M  V30 586 H 56.6769 0.95783 -1.23512 0
M  V30 587 H 57.4119 3.24025 -0.133504 0
M  V30 588 H 57.1969 3.43122 -1.89762 0
M  V30 589 H 58.6869 4.02673 -1.10654 0
M  V30 590 N 59.124 1.23083 0.984299 0
M  V30 591 C 60.087 1.00979 2.05757 0
M  V30 592 C 61.087 -0.0269573 1.60777 0
M  V30 593 O 62.277 0.212403 1.729 0
M  V30 594 C 59.409 0.527072 3.36801 0
M  V30 595 H 60.602 1.9622 2.26799 0
M  V30 596 H 58.155 1.05072 1.15714 0
M  V30 597 H 58.89 -0.429294 3.21446 0
M  V30 598 H 58.675 1.27515 3.70786 0
M  V30 599 H 60.165 0.392942 4.15747 0
M  V30 600 N 60.6021 -1.18246 1.0419 0
M  V30 601 C 61.8501 -1.87886 0.744543 0
M  V30 602 C 62.1711 -1.8082 -0.730006 0
M  V30 603 O 61.4411 -1.22736 -1.52685 0
M  V30 604 H 60.0211 -0.695556 0.272417 0
M  V30 605 H 62.6831 -1.43494 1.31892 0
M  V30 606 H 61.7791 -2.9389 1.05049 0
M  V30 607 N 62.0802 -0.821533 -1.34494 0
M  V30 608 C 63.3282 -0.408139 -1.97936 0
M  V30 609 C 63.6492 1.03193 -1.65457 0
M  V30 610 O 62.9192 1.71622 -0.944595 0
M  V30 611 H 61.4992 -0.147928 -0.732206 0
M  V30 612 H 64.1612 -1.05067 -1.64155 0
M  V30 613 H 63.2572 -0.52601 -3.07635 0
M  V30 614 N 63.5583 1.46682 -0.576371 0
M  V30 615 C 64.8043 2.02712 -0.0596221 0
M  V30 616 C 65.1373 1.44765 1.29448 0
M  V30 617 O 64.4123 0.610355 1.84675 0
M  V30 618 C 64.6953 3.60098 0.0129503 0
M  V30 619 C 64.5483 4.28441 -1.3696 0
M  V30 620 C 65.8673 4.34224 0.71678 0
M  V30 621 H 62.9863 0.736637 -0.0231407 0
M  V30 622 H 65.6283 1.74898 -0.742351 0
M  V30 623 H 63.7783 3.83926 0.594378 0
M  V30 624 H 65.4503 4.15896 -1.9957 0
M  V30 625 H 63.6933 3.8805 -1.93907 0
M  V30 626 H 64.3643 5.3716 -1.27135 0
M  V30 627 H 66.8403 4.15503 0.222908 0
M  V30 628 H 65.7163 5.43936 0.73657 0
M  V30 629 H 65.9773 4.04823 1.77682 0
M  V30 630 N 65.0364 0.313813 1.54444 0
M  V30 631 C 65.9664 -0.549454 2.26943 0
M  V30 632 C 66.9474 -1.12741 1.27372 0
M  V30 633 O 68.1324 -1.15436 1.56167 0
M  V30 634 C 65.2624 -1.71523 3.01989 0
M  V30 635 C 64.2164 -1.26703 4.08816 0
M  V30 636 C 63.5424 -2.51898 4.71647 0
M  V30 637 C 64.8424 -0.388962 5.2085 0
M  V30 638 H 66.5364 0.0552661 2.99349 0
M  V30 639 H 64.0824 0.0280207 1.43973 0
M  V30 640 H 66.0354 -2.32535 3.51433 0
M  V30 641 H 64.7594 -2.34639 2.27183 0
M  V30 642 H 63.4184 -0.679896 3.6024 0
M  V30 643 H 63.0664 -3.13356 3.93468 0
M  V30 644 H 62.7664 -2.22605 5.43802 0
M  V30 645 H 64.2904 -3.1369 5.23861 0
M  V30 646 H 65.7044 -0.905107 5.6611 0
M  V30 647 H 64.1014 -0.18924 5.99802 0
M  V30 648 H 65.1714 0.582699 4.81386 0
M  V30 649 N 66.5145 -1.57545 0.0417849 0
M  V30 650 C 67.4445 -2.14009 -0.933929 0
M  V30 651 C 68.4255 -1.05938 -1.33083 0
M  V30 652 O 69.6105 -1.33833 -1.40721 0
M  V30 653 C 66.7405 -2.67747 -2.21199 0
M  V30 654 C 65.6945 -3.80718 -1.95544 0
M  V30 655 C 65.0205 -4.20935 -3.29724 0
M  V30 656 C 66.3205 -5.06258 -1.28452 0
M  V30 657 H 68.0145 -2.95788 -0.463645 0
M  V30 658 H 65.5605 -1.42285 -0.221573 0
M  V30 659 H 67.5135 -3.05886 -2.89848 0
M  V30 660 H 66.2375 -1.83147 -2.70416 0
M  V30 661 H 64.8965 -3.43037 -1.2931 0
M  V30 662 H 64.5445 -3.33298 -3.76724 0
M  V30 663 H 64.2445 -4.9707 -3.13361 0
M  V30 664 H 65.7685 -4.61666 -3.9962 0
M  V30 665 H 67.1825 -5.41903 -1.8712 0
M  V30 666 H 65.5795 -5.87475 -1.22445 0
M  V30 667 H 66.6495 -4.84207 -0.259219 0
M  V30 668 N 67.9926 0.231505 -1.5589 0
M  V30 669 C 69.2696 0.981096 -1.69215 0
M  V30 670 C 69.6496 2.02799 -0.586164 0
M  V30 671 O 68.9976 2.24823 0.408253 0
M  V30 672 C 69.2076 1.60054 -3.10135 0
M  V30 673 C 70.5556 2.09658 -3.69227 0
M  V30 674 O 71.5796 1.69967 -3.13033 0
M  V30 675 O 70.4386 2.8258 -4.67772 0
M  V30 676 H 67.5326 0.457653 -0.688827 0
M  V30 677 H 70.0786 0.224073 -1.68214 0
M  V30 678 H 68.8506 0.844105 -3.82087 0
M  V30 679 H 68.4736 2.42336 -3.15212 0
M  V30 680 N 69.4707 1.49531 0.497807 0
M  V30 681 C 70.4187 1.66926 1.61983 0
M  V30 682 C 71.4127 0.535167 1.60724 0
M  V30 683 O 72.6187 0.714896 1.65195 0
M  V30 684 H 68.9937 0.526415 0.537021 0
M  V30 685 H 70.9647 2.61098 1.44465 0
M  V30 686 C 69.7137 1.75602 3.00099 0
M  V30 687 H 69.0367 2.62244 3.01775 0
M  V30 688 H 70.4767 1.91807 3.78135 0
M  V30 689 C 68.9357 0.501543 3.33146 0
M  V30 690 O 69.4657 -0.371342 3.9998 0
M  V30 691 N 67.6717 0.363531 2.88317 0
M  V30 692 H 67.2187 1.07485 2.34104 0
M  V30 693 H 67.1767 -0.474728 3.10795 0
M  V30 694 N 70.9488 -0.749086 1.3866 0
M  V30 695 C 72.1788 -1.53611 1.38157 0
M  V30 696 C 72.5868 -1.89177 -0.0293595 0
M  V30 697 O 71.9298 -1.53606 -1.00752 0
M  V30 698 C 71.9918 -2.86087 2.17702 0
M  V30 699 C 71.6558 -2.73034 3.66472 0
M  V30 700 C 72.6528 -2.42526 4.59866 0
M  V30 701 C 70.3378 -2.90345 4.09884 0
M  V30 702 C 72.3318 -2.29492 5.94653 0
M  V30 703 C 70.0188 -2.7693 5.4475 0
M  V30 704 C 71.0168 -2.46547 6.36949 0
M  V30 705 O 70.7048 -2.33199 7.69333 0
M  V30 706 H 70.4368 -0.481773 0.474205 0
M  V30 707 H 72.9908 -0.934465 1.82912 0
M  V30 708 H 71.2208 -3.48458 1.67672 0
M  V30 709 H 72.9098 -3.47625 2.09551 0
M  V30 710 H 73.6758 -2.28816 4.27631 0
M  V30 711 H 69.5548 -3.1299 3.38464 0
M  V30 712 H 73.0988 -2.05698 6.66584 0
M  V30 713 H 68.9958 -2.90215 5.76581 0
M  V30 714 H 69.7638 -2.48376 7.79905 0
M  V30 715 N 72.4269 -1.23603 -0.977757 0
M  V30 716 C 73.6569 -1.09487 -1.75203 0
M  V30 717 C 74.0649 0.356321 -1.85814 0
M  V30 718 O 73.4079 1.25816 -1.33851 0
M  V30 719 C 73.4699 -1.64905 -3.19447 0
M  V30 720 C 73.1339 -3.13688 -3.32338 0
M  V30 721 C 74.1309 -4.10953 -3.18455 0
M  V30 722 C 71.8159 -3.53449 -3.56902 0
M  V30 723 C 73.8099 -5.45962 -3.28944 0
M  V30 724 C 71.4969 -4.88602 -3.6703 0
M  V30 725 C 72.4949 -5.84668 -3.53062 0
M  V30 726 O 72.1829 -7.17365 -3.62826 0
M  V30 727 H 71.9149 -0.38367 -0.556573 0
M  V30 728 H 74.4689 -1.6398 -1.23693 0
M  V30 729 H 72.6989 -1.04835 -3.72218 0
M  V30 730 H 74.3879 -1.46226 -3.78646 0
M  V30 731 H 75.1539 -3.81577 -2.99372 0
M  V30 732 H 71.0329 -2.79188 -3.66844 0
M  V30 733 H 74.5769 -6.20925 -3.17958 0
M  V30 734 H 70.4739 -5.17653 -3.85623 0
M  V30 735 H 71.2419 -7.2515 -3.79605 0
M  V30 736 N 73.905 1.17692 -1.04816 0
M  V30 737 C 75.133 1.91786 -0.776254 0
M  V30 738 C 75.548 1.76604 0.667577 0
M  V30 739 O 74.905 1.10067 1.45573 0
M  V30 740 C 74.956 3.42967 -1.14263 0
M  V30 741 O 74.677 3.57678 -2.52978 0
M  V30 742 C 76.178 4.34144 -0.896311 0
M  V30 743 H 73.398 0.608624 -0.282519 0
M  V30 744 H 75.942 1.49268 -1.39783 0
M  V30 745 H 74.097 3.83245 -0.565874 0
M  V30 746 H 74.511 4.51319 -2.67229 0
M  V30 747 H 75.985 5.38744 -1.20244 0
M  V30 748 H 76.462 4.38876 0.168636 0
M  V30 749 H 77.068 3.99574 -1.45672 0
M  V30 750 N 75.3831 0.828654 1.34056 0
M  V30 751 C 76.3151 0.212052 2.28217 0
M  V30 752 C 77.3281 -0.601362 1.51286 0
M  V30 753 O 78.5171 -0.430104 1.73241 0
M  V30 754 C 75.6171 -0.72088 3.31144 0
M  V30 755 C 74.7901 0.0509587 4.3737 0
M  V30 756 C 73.8491 -0.803766 5.20025 0
M  V30 757 O 72.8751 -0.246667 5.68665 0
M  V30 758 N 74.0771 -2.1227 5.40298 0
M  V30 759 H 76.8421 1.02105 2.81771 0
M  V30 760 H 74.4031 0.686153 1.46641 0
M  V30 761 H 76.3951 -1.29742 3.8334 0
M  V30 762 H 74.9651 -1.43061 2.77943 0
M  V30 763 H 74.1851 0.808831 3.85813 0
M  V30 764 H 75.4731 0.582065 5.0546 0
M  V30 765 H 74.8711 -2.59898 5.02464 0
M  V30 766 H 73.4281 -2.64796 5.95589 0
M  V30 767 N 76.8612 -1.46375 0.584142 0
M  V30 768 C 78.2722 -1.86031 0.157959 0
M  V30 769 C 78.6232 -1.48753 -1.27933 0
M  V30 770 O 77.7482 -0.903098 -1.96655 0
M  V30 771 C 78.3432 -3.37642 0.279892 0
M  V30 772 C 76.9022 -3.76289 -0.09143 0
M  V30 773 C 76.0492 -2.7039 0.615178 0
M  V30 774 H 79.0002 -1.37509 0.792274 0
M  V30 775 H 79.0212 -3.77275 -0.494364 0
M  V30 776 H 78.5332 -3.64742 1.32607 0
M  V30 777 H 76.6342 -3.54806 -1.13769 0
M  V30 778 H 76.7472 -4.78246 0.285886 0
M  V30 779 H 75.1112 -2.5464 0.0552833 0
M  V30 780 H 75.8942 -3.0033 1.66303 0
M  V30 781 N 78.3393 -0.321999 -1.54275 0
M  V30 782 C 79.2693 0.537411 -2.27231 0
M  V30 783 C 80.2503 1.12064 -1.27968 0
M  V30 784 O 81.4353 1.14606 -1.56777 0
M  V30 785 C 78.5653 1.69919 -3.02894 0
M  V30 786 C 77.5193 1.24534 -4.09482 0
M  V30 787 C 76.8453 2.49394 -4.72977 0
M  V30 788 C 78.1453 0.361335 -5.21049 0
M  V30 789 H 79.8393 -0.0711406 -2.99315 0
M  V30 790 H 77.3853 -0.0356555 -1.43956 0
M  V30 791 H 79.3383 2.30668 -3.52662 0
M  V30 792 H 78.0623 2.33431 -2.28424 0
M  V30 793 H 76.7213 0.660782 -3.60596 0
M  V30 794 H 76.3693 3.11265 -3.95124 0
M  V30 795 H 76.0693 2.19718 -5.44975 0
M  V30 796 H 77.5933 3.10908 -5.25517 0
M  V30 797 H 79.0073 0.875072 -5.66582 0
M  V30 798 H 77.4043 0.157428 -5.99893 0
M  V30 799 H 78.4743 -0.60822 -4.8107 0
M  V30 800 N 79.8174 1.5752 -0.0501392 0
M  V30 801 C 81.0574 1.94521 0.627783 0
M  V30 802 C 81.4214 0.928265 1.68069 0
M  V30 803 O 82.6224 1.18517 2.41261 0
M  V30 804 C 80.8934 3.36319 1.20932 0
M  V30 805 S 82.4524 3.95272 1.90539 0
M  V30 806 H 79.2704 0.680456 0.206158 0
M  V30 807 H 81.8724 1.95139 -0.118829 0
M  V30 808 H 80.5764 4.08132 0.430865 0
M  V30 809 H 80.1074 3.39193 1.99277 0
M  V30 810 H 82.1224 3.80415 3.18589 0
M  V30 811 N 81.2955 -0.223234 1.56011 0
M  V30 812 C 82.5235 -0.964812 1.83027 0
M  V30 813 C 82.9385 -1.78013 0.62904 0
M  V30 814 O 82.2955 -1.78008 -0.402414 0
M  V30 815 C 82.3465 -1.88373 3.08542 0
M  V30 816 O 82.0675 -1.10137 4.2403 0
M  V30 817 C 83.5685 -2.73934 3.48533 0
M  V30 818 H 80.7885 -0.282842 0.608475 0
M  V30 819 H 83.3325 -0.238971 2.03099 0
M  V30 820 H 81.4875 -2.56354 2.9045 0
M  V30 821 H 81.9015 -1.72501 4.95322 0
M  V30 822 H 83.3755 -3.34117 4.39397 0
M  V30 823 H 83.8525 -3.46244 2.70207 0
M  V30 824 H 84.4585 -2.11369 3.69057 0
M  V30 825 N 82.7736 -1.49793 -0.48987 0
M  V30 826 C 84.1846 -1.52914 -1.07118 0
M  V30 827 C 84.5356 -0.321738 -1.93544 0
M  V30 828 O 83.6606 0.567338 -2.08831 0
M  V30 829 C 84.2556 -2.771 -1.94938 0
M  V30 830 C 82.8146 -2.82963 -2.48212 0
M  V30 831 C 81.9616 -2.46972 -1.26096 0
M  V30 832 H 84.9126 -1.56329 -0.273289 0
M  V30 833 H 84.9336 -2.57892 -2.79771 0
M  V30 834 H 84.4456 -3.64959 -1.32009 0
M  V30 835 H 82.5466 -1.99411 -3.14748 0
M  V30 836 H 82.6596 -3.85406 -2.84603 0
M  V30 837 H 81.0236 -1.98994 -1.58976 0
M  V30 838 H 81.8066 -3.37118 -0.648581 0
M  V30 839 N 84.2517 0.741722 -1.39055 0
M  V30 840 C 85.4767 1.53607 -1.39354 0
M  V30 841 C 85.9017 1.88096 0.0116905 0
M  V30 842 O 85.2597 1.5143 0.996924 0
M  V30 843 C 85.3077 2.80441 -2.26682 0
M  V30 844 O 84.4117 3.76088 -1.69208 0
M  V30 845 H 83.7527 0.464142 -0.474835 0
M  V30 846 H 86.2827 0.915665 -1.82967 0
M  V30 847 H 86.2927 3.29246 -2.40959 0
M  V30 848 H 84.9677 2.5467 -3.2881 0
M  V30 849 H 83.5447 3.34833 -1.64138 0
M  V30 850 N 85.7298 1.2412 0.971189 0
M  V30 851 C 87.1458 1.00584 1.23916 0
M  V30 852 C 87.3458 -0.287481 1.99439 0
M  V30 853 O 86.4018 -1.00454 2.31658 0
M  V30 854 C 87.7148 2.21864 2.0297 0
M  V30 855 C 89.2628 2.26452 2.16076 0
M  V30 856 C 89.7378 3.47343 2.98524 0
M  V30 857 N 91.2288 3.47639 3.06107 0
M  V30 858 C 91.9638 4.37837 3.70251 0
M  V30 859 N 91.4598 5.38286 4.36142 0
M  V30 860 N 93.2528 4.25558 3.67228 0
M  V30 861 H 85.4038 2.07236 0.465499 0
M  V30 862 H 87.6668 0.909236 0.268315 0
M  V30 863 H 87.3728 3.15771 1.54861 0
M  V30 864 H 87.2468 2.23698 3.03709 0
M  V30 865 H 89.6338 1.33078 2.6339 0
M  V30 866 H 89.7148 2.28645 1.14696 0
M  V30 867 H 89.3588 4.41029 2.51905 0
M  V30 868 H 89.2888 3.42393 4.00093 0
M  V30 869 H 91.7798 2.74966 2.59233 0
M  V30 870 H 92.0928 6.03352 4.82894 0
M  V30 871 H 90.4378 5.42176 4.34822 0
M  V30 872 H 93.6288 3.46322 3.14927 0
M  V30 873 H 93.8018 4.96054 4.16935 0
M  V30 874 N 87.2079 -1.17134 1.05439 0
M  V30 875 C 88.4329 -1.91913 0.786396 0
M  V30 876 C 88.8579 -1.7643 -0.652234 0
M  V30 877 O 88.2159 -1.08372 -1.45345 0
M  V30 878 C 88.2639 -3.40921 1.17497 0
M  V30 879 O 87.3679 -4.11244 0.308589 0
M  V30 880 H 86.7089 -0.598215 0.288158 0
M  V30 881 H 89.2389 -1.48457 1.4079 0
M  V30 882 H 89.2489 -3.91668 1.14281 0
M  V30 883 H 87.9239 -3.5151 2.22292 0
M  V30 884 H 86.5009 -3.70731 0.40157 0
M  V30 885 N 88.686 -0.835752 -1.33615 0
M  V30 886 C 89.618 -0.224151 -2.28101 0
M  V30 887 C 90.631 0.593331 -1.51603 0
M  V30 888 O 91.82 0.420911 -1.73466 0
M  V30 889 C 88.92 0.703309 -3.31522 0
M  V30 890 C 88.093 -0.0741528 -4.37337 0
M  V30 891 C 87.152 0.776176 -5.20444 0
M  V30 892 O 86.178 0.216506 -5.68788 0
M  V30 893 N 87.38 2.09401 -5.41416 0
M  V30 894 H 90.145 -1.03598 -2.81225 0
M  V30 895 H 87.706 -0.69392 -1.46275 0
M  V30 896 H 89.698 1.27707 -3.84022 0
M  V30 897 H 88.268 1.41585 -2.78698 0
M  V30 898 H 87.488 -0.82928 -3.85378 0
M  V30 899 H 88.776 -0.608863 -5.05144 0
M  V30 900 H 88.174 2.57229 -5.03835 0
M  V30 901 H 86.731 2.61633 -5.96985 0
M  V30 902 N 90.1641 1.46063 -0.591896 0
M  V30 903 C 91.0941 2.33172 0.123673 0
M  V30 904 C 92.0751 1.45897 0.87453 0
M  V30 905 O 93.2601 1.74698 0.848181 0
M  V30 906 C 90.3901 3.28336 1.13194 0
M  V30 907 C 89.3441 4.25124 0.495324 0
M  V30 908 C 88.6701 5.09863 1.61071 0
M  V30 909 C 89.9701 5.19143 -0.573425 0
M  V30 910 H 91.6641 2.93252 -0.603646 0
M  V30 911 H 89.2101 1.41014 -0.291741 0
M  V30 912 H 91.1631 3.88137 1.64097 0
M  V30 913 H 89.8871 2.66383 1.88965 0
M  V30 914 H 88.5461 3.66599 0.00729452 0
M  V30 915 H 88.1941 4.44288 2.35832 0
M  V30 916 H 87.8941 5.75417 1.19035 0
M  V30 917 H 89.4181 5.72529 2.12233 0
M  V30 918 H 90.8321 5.73106 -0.1491 0
M  V30 919 H 89.2291 5.93089 -0.914636 0
M  V30 920 H 90.2991 4.62519 -1.45617 0
M  V30 921 N 91.6422 0.330177 1.54103 0
M  V30 922 C 92.5722 -0.525353 2.27513 0
M  V30 923 C 93.5532 -1.11383 1.2856 0
M  V30 924 O 94.7382 -1.13773 1.57383 0
M  V30 925 C 91.8682 -1.6831 3.03791 0
M  V30 926 C 90.8222 -1.2236 4.10137 0
M  V30 927 C 90.1482 -2.46882 4.74293 0
M  V30 928 C 91.4482 -0.333697 5.21233 0
M  V30 929 H 93.1422 0.087013 2.99274 0
M  V30 930 H 90.6882 0.0432893 1.43935 0
M  V30 931 H 92.6412 -2.28795 3.5388 0
M  V30 932 H 91.3652 -2.32216 2.29659 0
M  V30 933 H 90.0242 -0.64165 3.60941 0
M  V30 934 H 89.6722 -3.09165 3.96769 0
M  V30 935 H 89.3722 -2.16825 5.46133 0
M  V30 936 H 90.8962 -3.08117 5.27159 0
M  V30 937 H 92.3102 -0.845013 5.67038 0
M  V30 938 H 90.7072 -0.125612 5.99969 0
M  V30 939 H 91.7772 0.633724 4.80741 0
M  V30 940 N 93.1203 -1.57491 0.0584922 0
M  V30 941 C 94.3483 -1.97296 -0.623037 0
M  V30 942 C 94.7633 -0.936338 -1.63946 0
M  V30 943 O 94.1203 0.0785981 -1.82331 0
M  V30 944 C 94.1713 -3.37183 -1.30345 0
M  V30 945 O 93.8923 -4.36872 -0.32773 0
M  V30 946 C 95.3933 -3.91788 -2.07406 0
M  V30 947 H 92.6133 -0.649153 -0.169826 0
M  V30 948 H 95.1573 -2.04106 0.12696 0
M  V30 949 H 93.3123 -3.31502 -2.00463 0
M  V30 950 H 93.7263 -5.18141 -0.814269 0
M  V30 951 H 95.2003 -4.91926 -2.50425 0
M  V30 952 H 95.6773 -3.27609 -2.92521 0
M  V30 953 H 96.2833 -4.00829 -1.42184 0
M  V30 954 N 94.5984 0.214957 -1.56127 0
M  V30 955 C 95.8464 0.936518 -1.79091 0
M  V30 956 C 96.1674 1.84606 -0.628148 0
M  V30 957 O 95.4374 1.92664 0.35462 0
M  V30 958 H 94.0174 0.3488 -0.660566 0
M  V30 959 H 96.6794 0.22523 -1.93594 0
M  V30 960 H 95.7754 1.53943 -2.71492 0
M  V30 961 N 96.0765 1.50051 0.48192 0
M  V30 962 C 97.4925 1.37237 0.814756 0
M  V30 963 C 97.6925 0.420109 1.97072 0
M  V30 964 O 96.7485 -0.141246 2.52105 0
M  V30 965 C 98.0615 2.78375 1.13701 0
M  V30 966 C 99.6095 2.87213 1.2441 0
M  V30 967 C 100.084 4.29161 1.59954 0
M  V30 968 N 101.575 4.32061 1.66967 0
M  V30 969 C 102.31 5.38879 1.95952 0
M  V30 970 N 101.806 6.55918 2.23031 0
M  V30 971 N 103.599 5.26312 1.97363 0
M  V30 972 H 95.7505 2.10546 -0.28005 0
M  V30 973 H 98.0135 0.945921 -0.0627454 0
M  V30 974 H 97.7195 3.49845 0.360787 0
M  V30 975 H 97.5935 3.14941 2.07586 0
M  V30 976 H 99.9805 2.15969 2.01101 0
M  V30 977 H 100.061 2.54204 0.285299 0
M  V30 978 H 99.7055 5.00938 0.838067 0
M  V30 979 H 99.6355 4.59648 2.56966 0
M  V30 980 H 102.126 3.47661 1.48123 0
M  V30 981 H 102.439 7.33139 2.44391 0
M  V30 982 H 100.784 6.59112 2.20447 0
M  V30 983 H 103.975 4.33876 1.75697 0
M  V30 984 H 104.148 6.09649 2.19618 0
M  V30 985 N 97.5546 -0.734337 1.39446 0
M  V30 986 C 98.7846 -1.52137 1.39778 0
M  V30 987 C 99.1926 -1.89198 -0.00929312 0
M  V30 988 O 98.5356 -1.54666 -0.991168 0
M  V30 989 C 98.5976 -2.83762 2.20724 0
M  V30 990 C 98.2616 -2.69131 3.69347 0
M  V30 991 C 99.2586 -2.37635 4.62413 0
M  V30 992 C 96.9436 -2.85982 4.1294 0
M  V30 993 C 98.9376 -2.23172 5.97054 0
M  V30 994 C 96.6246 -2.71137 5.47657 0
M  V30 995 C 97.6226 -2.39777 6.39528 0
M  V30 996 O 97.3106 -2.25026 7.71763 0
M  V30 997 H 97.0426 -0.476717 0.479288 0
M  V30 998 H 99.5966 -0.915012 1.83893 0
M  V30 999 H 97.8266 -3.4666 1.71359 0
M  V30 1000 H 99.5156 -3.45383 2.13226 0
M  V30 1001 H 100.282 -2.24267 4.30034 0
M  V30 1002 H 96.1606 -3.09383 3.41765 0
M  V30 1003 H 99.7046 -1.98617 6.68728 0
M  V30 1004 H 95.6016 -2.84083 5.79626 0
M  V30 1005 H 96.3696 -2.40091 7.82495 0
M  V30 1006 N 99.0327 -1.24633 -0.964593 0
M  V30 1007 C 99.9647 -0.999302 -2.06268 0
M  V30 1008 C 100.978 0.0323226 -1.62768 0
M  V30 1009 O 102.167 -0.205079 -1.77318 0
M  V30 1010 C 99.2667 -0.486816 -3.35385 0
M  V30 1011 C 98.4397 -1.5823 -4.07777 0
M  V30 1012 C 97.4987 -1.07191 -5.15166 0
M  V30 1013 O 96.5247 -1.76426 -5.41168 0
M  V30 1014 N 97.7267 0.0920373 -5.80427 0
M  V30 1015 H 100.492 -1.94477 -2.28033 0
M  V30 1016 H 98.0527 -1.15704 -1.13244 0
M  V30 1017 H 100.045 -0.130066 -4.04491 0
M  V30 1018 H 98.6147 0.364459 -3.10468 0
M  V30 1019 H 97.8347 -2.11109 -3.32906 0
M  V30 1020 H 99.1227 -2.31854 -4.52903 0
M  V30 1021 H 98.5207 0.670784 -5.61709 0
M  V30 1022 H 97.0777 0.389905 -6.50633 0
M  V30 1023 N 100.511 1.16574 -1.06058 0
M  V30 1024 C 101.76 1.86385 -0.770944 0
M  V30 1025 C 102.073 1.82448 0.705129 0
M  V30 1026 O 103.279 2.47815 1.10905 0
M  V30 1027 C 101.735 3.34466 -1.32893 0
M  V30 1028 C 101.343 3.46883 -2.83507 0
M  V30 1029 C 103.087 4.09548 -1.11672 0
M  V30 1030 C 100.994 4.89036 -3.32562 0
M  V30 1031 H 99.9238 0.698181 -0.284709 0
M  V30 1032 H 102.575 1.31583 -1.27899 0
M  V30 1033 H 100.957 3.88859 -0.748662 0
M  V30 1034 H 102.131 3.02663 -3.47465 0
M  V30 1035 H 100.446 2.85232 -3.03368 0
M  V30 1036 H 103.043 5.14434 -1.45814 0
M  V30 1037 H 103.386 4.16264 -0.0549535 0
M  V30 1038 H 103.919 3.61387 -1.66265 0
M  V30 1039 H 100.658 4.87499 -4.38207 0
M  V30 1040 H 100.178 5.3389 -2.73351 0
M  V30 1041 H 101.857 5.57843 -3.2775 0
M  V30 1042 N 101.989 0.842826 1.3317 0
M  V30 1043 C 103.405 0.531128 1.50503 0
M  V30 1044 C 103.605 -0.940734 1.78192 0
M  V30 1045 O 102.661 -1.72436 1.84451 0
M  V30 1046 C 103.974 1.40789 2.65705 0
M  V30 1047 C 105.522 1.40708 2.79589 0
M  V30 1048 C 105.997 2.26878 3.97857 0
M  V30 1049 N 107.488 2.24609 4.05099 0
M  V30 1050 C 108.223 2.88019 4.95815 0
M  V30 1051 N 107.719 3.60496 5.9162 0
M  V30 1052 N 109.512 2.77469 4.88843 0
M  V30 1053 H 101.663 1.79557 1.1346 0
M  V30 1054 H 103.926 0.766267 0.558156 0
M  V30 1055 H 103.632 2.454 2.51936 0
M  V30 1056 H 103.506 1.08677 3.61205 0
M  V30 1057 H 105.893 0.368668 2.92788 0
M  V30 1058 H 105.974 1.76829 1.84838 0
M  V30 1059 H 105.618 3.3078 3.85418 0
M  V30 1060 H 105.548 1.88096 4.91861 0
M  V30 1061 H 108.039 1.71906 3.36536 0
M  V30 1062 H 108.352 4.06076 6.57512 0
M  V30 1063 H 106.697 3.64604 5.91683 0
M  V30 1064 H 109.888 2.20406 4.12963 0
M  V30 1065 H 110.061 3.2717 5.59342 0
M  V30 1066 N 103.467 -1.45747 0.599634 0
M  V30 1067 C 104.695 -2.06668 0.0978551 0
M  V30 1068 C 105.11 -1.44562 -1.21439 0
M  V30 1069 O 104.467 -0.556923 -1.73795 0
M  V30 1070 C 104.518 -3.61456 -0.0567044 0
M  V30 1071 O 104.239 -4.21242 1.20361 0
M  V30 1072 C 105.74 -4.39345 -0.590869 0
M  V30 1073 H 102.96 -0.667825 0.0651943 0
M  V30 1074 H 105.504 -1.87115 0.82511 0
M  V30 1075 H 103.659 -3.80378 -0.734251 0
M  V30 1076 H 104.073 -5.14323 1.02821 0
M  V30 1077 H 105.547 -5.48182 -0.648131 0
M  V30 1078 H 106.024 -4.08568 -1.61147 0
M  V30 1079 H 106.63 -4.25268 0.0523679 0
M  V30 1080 N 104.945 -0.338344 -1.53925 0
M  V30 1081 C 106.193 0.259245 -2.0043 0
M  V30 1082 C 106.514 1.51484 -1.22791 0
M  V30 1083 O 105.784 1.93037 -0.33368 0
M  V30 1084 H 104.364 0.0987845 -0.740439 0
M  V30 1085 H 107.026 -0.458302 -1.89435 0
M  V30 1086 H 106.122 0.505334 -3.07982 0
M  V30 1087 N 106.423 1.57458 -0.0668435 0
M  V30 1088 C 107.353 2.15468 0.899764 0
M  V30 1089 C 108.334 1.08042 1.31381 0
M  V30 1090 O 109.519 1.36054 1.38574 0
M  V30 1091 C 106.649 2.71232 2.16911 0
M  V30 1092 C 105.603 3.83781 1.89463 0
M  V30 1093 C 104.929 4.26127 3.22986 0
M  V30 1094 C 106.229 5.08238 1.20381 0
M  V30 1095 H 107.923 2.96488 0.416529 0
M  V30 1096 H 105.469 1.4262 0.198908 0
M  V30 1097 H 107.422 3.10458 2.84945 0
M  V30 1098 H 106.146 1.87426 2.67468 0
M  V30 1099 H 104.805 3.45051 1.23836 0
M  V30 1100 H 104.453 3.39249 3.71374 0
M  V30 1101 H 104.153 5.01993 3.05413 0
M  V30 1102 H 105.677 4.67966 3.92225 0
M  V30 1103 H 107.091 5.44811 1.78475 0
M  V30 1104 H 105.488 5.89349 1.13083 0
M  V30 1105 H 106.558 4.84558 0.182153 0
M  V30 1106 N 107.901 -0.206675 1.56239 0
M  V30 1107 C 108.833 -1.27997 1.9013 0
M  V30 1108 C 109.846 -1.42299 0.790883 0
M  V30 1109 O 111.035 -1.42931 1.06925 0
M  V30 1110 C 108.135 -2.65368 2.10792 0
M  V30 1111 C 107.308 -2.72824 3.41886 0
M  V30 1112 C 106.367 -3.9131 3.51799 0
M  V30 1113 O 105.393 -3.78953 4.24716 0
M  V30 1114 N 106.595 -5.06265 2.84035 0
M  V30 1115 H 109.36 -0.992444 2.82791 0
M  V30 1116 H 106.921 -0.396652 1.56966 0
M  V30 1117 H 108.913 -3.43039 2.14724 0
M  V30 1118 H 107.483 -2.86657 1.24685 0
M  V30 1119 H 106.703 -1.81515 3.49923 0
M  V30 1120 H 107.991 -2.74786 4.28217 0
M  V30 1121 H 107.389 -5.19203 2.246 0
M  V30 1122 H 105.946 -5.81925 2.93609 0
M  V30 1123 N 109.379 -1.50304 -0.473955 0
M  V30 1124 C 110.329 -1.65347 -1.56985 0
M  V30 1125 C 111.313 -0.508176 -1.52664 0
M  V30 1126 O 112.505 -0.762446 -1.59737 0
M  V30 1127 C 109.634 -1.74832 -2.95447 0
M  V30 1128 C 108.72 -2.95028 -3.04662 0
M  V30 1129 N 109.111 -4.18747 -2.83698 0
M  V30 1130 C 107.409 -2.93527 -3.35795 0
M  V30 1131 C 108.11 -4.99687 -2.97805 0
M  V30 1132 N 107.086 -4.33585 -3.2788 0
M  V30 1133 H 110.888 -2.58698 -1.39472 0
M  V30 1134 H 108.402 -1.47449 -0.680629 0
M  V30 1135 H 110.399 -1.83712 -3.7424 0
M  V30 1136 H 109.059 -0.826376 -3.14008 0
M  V30 1137 H 110.07 -4.48291 -2.59337 0
M  V30 1138 H 106.747 -2.10821 -3.60362 0
M  V30 1139 H 108.137 -6.08057 -2.85861 0
M  V30 1140 N 110.857 0.726932 -1.39834 0
M  V30 1141 C 111.789 1.85147 -1.35104 0
M  V30 1142 C 112.802 1.60736 -0.258392 0
M  V30 1143 O 113.991 1.70821 -0.517931 0
M  V30 1144 C 111.091 3.21332 -1.07697 0
M  V30 1145 C 110.264 3.73033 -2.28396 0
M  V30 1146 C 109.323 4.87802 -1.97322 0
M  V30 1147 O 108.349 5.01043 -2.70083 0
M  V30 1148 N 109.551 5.72768 -0.944273 0
M  V30 1149 H 112.316 1.89706 -2.32017 0
M  V30 1150 H 109.877 0.908006 -1.3404 0
M  V30 1151 H 111.869 3.95691 -0.849144 0
M  V30 1152 H 110.439 3.11992 -0.194909 0
M  V30 1153 H 109.659 2.89934 -2.6708 0
M  V30 1154 H 110.947 4.0431 -3.08887 0
M  V30 1155 H 110.345 5.64669 -0.341427 0
M  V30 1156 H 108.902 6.4716 -0.776346 0
M  V30 1157 N 112.336 1.25143 0.95797 0
M  V30 1158 C 113.585 1.0909 1.69654 0
M  V30 1159 C 113.898 -0.368548 1.92097 0
M  V30 1160 O 115.104 -0.649455 2.63618 0
M  V30 1161 C 113.56 1.90395 3.05414 0
M  V30 1162 C 113.168 3.4081 2.90779 0
M  V30 1163 C 114.912 1.82901 3.83076 0
M  V30 1164 C 112.819 4.14423 4.21909 0
M  V30 1165 H 111.749 0.404625 0.636235 0
M  V30 1166 H 114.4 1.4931 1.06672 0
M  V30 1167 H 112.782 1.42996 3.69281 0
M  V30 1168 H 113.956 3.95859 2.35865 0
M  V30 1169 H 112.271 3.49361 2.26575 0
M  V30 1170 H 114.868 2.35196 4.80195 0
M  V30 1171 H 115.211 0.796224 4.08615 0
M  V30 1172 H 115.744 2.28033 3.25954 0
M  V30 1173 H 112.483 5.18102 4.01561 0
M  V30 1174 H 112.003 3.64159 4.76601 0
M  V30 1175 H 113.682 4.21956 4.90471 0
M  V30 1176 N 113.814 -1.1601 1.06675 0
M  V30 1177 C 115.063 -1.85973 0.780818 0
M  V30 1178 C 115.376 -1.82819 -0.695444 0
M  V30 1179 O 116.582 -2.484 -1.09589 0
M  V30 1180 C 115.038 -3.33757 1.34665 0
M  V30 1181 C 114.646 -3.45374 2.85343 0
M  V30 1182 C 116.39 -4.0895 1.13843 0
M  V30 1183 C 114.297 -4.87266 3.35151 0
M  V30 1184 H 113.227 -0.696661 0.288407 0
M  V30 1185 H 115.878 -1.30903 1.28595 0
M  V30 1186 H 114.26 -3.88456 0.769274 0
M  V30 1187 H 115.434 -3.00816 3.49065 0
M  V30 1188 H 113.749 -2.83619 3.04876 0
M  V30 1189 H 116.346 -5.13654 1.4854 0
M  V30 1190 H 116.689 -4.16229 0.0770282 0
M  V30 1191 H 117.222 -3.605 1.68179 0
M  V30 1192 H 113.961 -4.85168 4.40786 0
M  V30 1193 H 113.481 -5.32433 2.76179 0
M  V30 1194 H 115.16 -5.56097 3.30704 0
M  V30 1195 N 115.292 -0.849877 -1.32721 0
M  V30 1196 C 116.538 -0.460855 -1.9811 0
M  V30 1197 C 116.893 0.971716 -1.66059 0
M  V30 1198 O 116.186 1.67184 -0.935944 0
M  V30 1199 C 116.38 -0.631272 -3.51781 0
M  V30 1200 C 116.209 -2.07886 -3.98765 0
M  V30 1201 C 114.979 -2.71637 -4.26077 0
M  V30 1202 C 117.177 -3.04889 -4.14182 0
M  V30 1203 N 115.159 -4.07356 -4.59276 0
M  V30 1204 C 116.53 -4.25583 -4.50865 0
M  V30 1205 C 118.585 -3.01148 -3.96503 0
M  V30 1206 C 117.288 -5.43027 -4.71714 0
M  V30 1207 C 119.314 -4.17832 -4.18533 0
M  V30 1208 C 118.676 -5.37284 -4.55528 0
M  V30 1209 H 114.775 -0.217283 -0.751207 0
M  V30 1210 H 117.359 -1.10026 -1.60631 0
M  V30 1211 H 115.53 -0.0215966 -3.88394 0
M  V30 1212 H 117.262 -0.212614 -4.04141 0
M  V30 1213 H 114.017 -2.22705 -4.17971 0
M  V30 1214 H 114.441 -4.77351 -4.80068 0
M  V30 1215 H 119.083 -2.0992 -3.67006 0
M  V30 1216 H 116.801 -6.34791 -5.00066 0
M  V30 1217 H 120.387 -4.16368 -4.06361 0
M  V30 1218 H 119.267 -6.26071 -4.72234 0
M  V30 1219 N 116.77 1.45427 -0.607355 0
M  V30 1220 C 118.181 1.85756 -0.187535 0
M  V30 1221 C 118.532 1.5077 1.25551 0
M  V30 1222 O 117.657 0.93427 1.95193 0
M  V30 1223 C 118.252 3.37154 -0.333572 0
M  V30 1224 C 116.811 3.76387 0.0315542 0
M  V30 1225 C 115.958 2.69377 -0.658117 0
M  V30 1226 H 118.909 1.36231 -0.81405 0
M  V30 1227 H 118.93 3.78014 0.43428 0
M  V30 1228 H 118.442 3.62586 -1.38393 0
M  V30 1229 H 116.543 3.56571 1.0811 0
M  V30 1230 H 116.656 4.77731 -0.361935 0
M  V30 1231 H 115.02 2.5452 -0.0957873 0
M  V30 1232 H 115.803 2.97646 -1.7106 0
M  V30 1233 N 118.248 0.346503 1.53744 0
M  V30 1234 C 119.488 -0.249413 2.02873 0
M  V30 1235 C 119.852 -1.47532 1.22876 0
M  V30 1236 O 121.053 -2.1456 1.61918 0
M  V30 1237 C 119.324 -0.552909 3.53097 0
M  V30 1238 S 120.883 -1.12521 4.24128 0
M  V30 1239 H 117.701 -0.074042 0.707134 0
M  V30 1240 H 120.303 0.48495 1.8939 0
M  V30 1241 H 119.007 0.347083 4.0893 0
M  V30 1242 H 118.538 -1.31686 3.70705 0
M  V30 1243 H 120.553 -2.41075 4.33702 0
M  V30 1244 N 119.726 -1.57421 0.075193 0
M  V30 1245 C 120.658 -2.09904 -0.920483 0
M  V30 1246 C 121.671 -1.03191 -1.25918 0
M  V30 1247 O 122.86 -1.30695 -1.21577 0
M  V30 1248 C 119.96 -2.54726 -2.23534 0
M  V30 1249 C 119.133 -3.8505 -2.07498 0
M  V30 1250 C 118.192 -4.15929 -3.22319 0
M  V30 1251 O 117.218 -4.85474 -2.9716 0
M  V30 1252 N 118.42 -3.69745 -4.47514 0
M  V30 1253 H 121.185 -2.95954 -0.472359 0
M  V30 1254 H 118.746 -1.61523 -0.110444 0
M  V30 1255 H 120.738 -2.72443 -2.9926 0
M  V30 1256 H 119.308 -1.73795 -2.59835 0
M  V30 1257 H 118.528 -3.76679 -1.16219 0
M  V30 1258 H 119.816 -4.70348 -1.94038 0
M  V30 1259 H 119.214 -3.13569 -4.7084 0
M  V30 1260 H 117.771 -3.92655 -5.20255 0
M  V30 1261 N 121.204 0.198386 -1.56346 0
M  V30 1262 C 122.615 0.763358 -1.70381 0
M  V30 1263 C 122.966 1.83995 -0.681203 0
M  V30 1264 O 122.091 2.15785 0.16305 0
M  V30 1265 C 122.686 1.39143 -3.08909 0
M  V30 1266 C 121.245 1.90352 -3.2472 0
M  V30 1267 C 120.392 0.772233 -2.6633 0
M  V30 1268 H 123.343 -0.0266377 -1.58678 0
M  V30 1269 H 123.364 2.26076 -3.06055 0
M  V30 1270 H 122.876 0.607638 -3.83314 0
M  V30 1271 H 120.977 2.71461 -2.55225 0
M  V30 1272 H 121.09 2.06757 -4.3219 0
M  V30 1273 H 119.454 1.18566 -2.2542 0
M  V30 1274 H 120.237 0.00073556 -3.433 0
M  V30 1275 N 122.682 1.50554 0.465978 0
M  V30 1276 C 123.907 1.65838 1.24549 0
M  V30 1277 C 124.332 0.343486 1.84937 0
M  V30 1278 O 123.69 -0.69324 1.67523 0
M  V30 1279 C 123.738 2.75533 2.32624 0
M  V30 1280 O 122.842 2.37142 3.37398 0
M  V30 1281 H 122.183 0.553893 0.366194 0
M  V30 1282 H 124.713 1.96959 0.553927 0
M  V30 1283 H 124.723 2.98763 2.77857 0
M  V30 1284 H 123.398 3.70962 1.88043 0
M  V30 1285 H 121.975 2.24377 2.97841 0
M  V30 1286 N 124.16 -0.719506 1.40217 0
M  V30 1287 C 125.4 -1.49181 1.39729 0
M  V30 1288 C 125.764 -1.92 -0.00250614 0
M  V30 1289 O 126.965 -2.68473 -0.132479 0
M  V30 1290 C 125.236 -2.68767 2.35582 0
M  V30 1291 S 126.795 -3.58224 2.53418 0
M  V30 1292 H 123.613 -0.510091 0.495307 0
M  V30 1293 H 126.215 -0.841724 1.76452 0
M  V30 1294 H 124.919 -2.35475 3.36124 0
M  V30 1295 H 124.45 -3.38691 2.0013 0
M  V30 1296 H 126.465 -4.63033 1.78367 0
M  V30 1297 N 125.638 -1.25649 -0.95132 0
M  V30 1298 C 126.884 -1.10757 -1.69884 0
M  V30 1299 C 127.217 0.350061 -1.91019 0
M  V30 1300 O 126.492 1.25783 -1.48354 0
M  V30 1301 C 126.775 -1.86606 -3.07978 0
M  V30 1302 C 126.628 -3.40217 -2.94232 0
M  V30 1303 C 127.947 -1.65182 -4.07925 0
M  V30 1304 H 125.066 -0.40374 -0.616574 0
M  V30 1305 H 127.708 -1.54521 -1.10558 0
M  V30 1306 H 125.858 -1.49409 -3.58621 0
M  V30 1307 H 127.53 -3.87108 -2.50889 0
M  V30 1308 H 125.773 -3.67759 -2.30078 0
M  V30 1309 H 126.444 -3.88505 -3.92133 0
M  V30 1310 H 128.92 -1.9757 -3.66204 0
M  V30 1311 H 127.796 -2.20683 -5.02583 0
M  V30 1312 H 128.057 -0.593933 -4.38092 0
M  V30 1313 N 127.117 1.15442 -1.07289 0
M  V30 1314 C 128.528 1.67803 -0.818475 0
M  V30 1315 C 128.879 1.8489 0.656507 0
M  V30 1316 O 128.004 1.55176 1.50829 0
M  V30 1317 C 128.599 3.04805 -1.47917 0
M  V30 1318 C 127.158 3.54245 -1.27229 0
M  V30 1319 C 126.305 2.29986 -1.54925 0
M  V30 1320 H 129.256 0.996646 -1.23502 0
M  V30 1321 H 129.277 3.69702 -0.90005 0
M  V30 1322 H 128.789 2.92336 -2.55267 0
M  V30 1323 H 126.89 3.71956 -0.21899 0
M  V30 1324 H 127.003 4.35723 -1.99203 0
M  V30 1325 H 125.367 2.35496 -0.970242 0
M  V30 1326 H 126.15 2.20105 -2.63455 0
M  V30 1327 N 128.595 0.856903 1.32268 0
M  V30 1328 C 129.525 0.31858 2.31316 0
M  V30 1329 C 130.506 -0.583487 1.59779 0
M  V30 1330 O 131.691 -0.503259 1.87566 0
M  V30 1331 C 128.821 -0.491979 3.43798 0
M  V30 1332 C 127.775 0.315849 4.26833 0
M  V30 1333 C 127.101 -0.619586 5.31098 0
M  V30 1334 C 128.401 1.54282 4.98993 0
M  V30 1335 H 130.095 1.14621 2.76591 0
M  V30 1336 H 127.641 0.552613 1.32974 0
M  V30 1337 H 129.594 -0.879012 4.1213 0
M  V30 1338 H 128.318 -1.35299 2.97257 0
M  V30 1339 H 126.977 0.684664 3.6015 0
M  V30 1340 H 126.625 -1.47751 4.8081 0
M  V30 1341 H 126.325 -0.0830621 5.87541 0
M  V30 1342 H 127.849 -1.00375 6.02293 0
M  V30 1343 H 129.263 1.22796 5.59995 0
M  V30 1344 H 127.66 2.01745 5.65172 0
M  V30 1345 H 128.73 2.30285 4.26728 0
M  V30 1346 N 130.073 -1.45103 0.615059 0
M  V30 1347 C 131.35 -1.95549 0.0448276 0
M  V30 1348 C 131.73 -1.55737 -1.4251 0
M  V30 1349 O 131.078 -0.823556 -2.13143 0
M  V30 1350 C 131.288 -3.48098 0.250785 0
M  V30 1351 C 132.636 -4.24384 0.135509 0
M  V30 1352 O 133.66 -3.55738 0.181299 0
M  V30 1353 O 132.519 -5.46493 0.0268878 0
M  V30 1354 H 129.613 -0.8264 -0.0314845 0
M  V30 1355 H 132.159 -1.55232 0.685642 0
M  V30 1356 H 130.931 -3.7007 1.27139 0
M  V30 1357 H 130.554 -3.95323 -0.424937 0
M  V30 1358 N 131.551 -0.354651 -1.53558 0
M  V30 1359 C 132.461 0.50515 -2.29097 0
M  V30 1360 C 133.477 1.10223 -1.34636 0
M  V30 1361 O 134.653 1.11553 -1.67684 0
M  V30 1362 C 131.718 1.63479 -3.05738 0
M  V30 1363 C 130.779 1.06636 -4.15845 0
M  V30 1364 C 130.012 2.14217 -4.88822 0
M  V30 1365 O 130.235 3.35137 -4.61562 0
M  V30 1366 O 129.169 1.77887 -5.75013 0
M  V30 1367 H 132.995 -0.109237 -3.03503 0
M  V30 1368 H 130.58 -0.119357 -1.48922 0
M  V30 1369 H 132.462 2.2918 -3.5363 0
M  V30 1370 H 131.137 2.23478 -2.34178 0
M  V30 1371 H 130.044 0.373565 -3.7223 0
M  V30 1372 H 131.377 0.511081 -4.89539 0
M  V30 1373 N 133.029 1.57378 -0.0835403 0
M  V30 1374 C 133.976 2.13384 0.879539 0
M  V30 1375 C 134.946 1.04936 1.28754 0
M  V30 1376 O 136.131 1.32662 1.37133 0
M  V30 1377 C 133.271 2.70932 2.13752 0
M  V30 1378 C 132.384 3.93575 1.7811 0
M  V30 1379 C 131.519 4.39326 2.98607 0
M  V30 1380 C 130.558 5.54587 2.59037 0
M  V30 1381 N 129.695 5.95243 3.72331 0
M  V30 1382 H 134.535 2.9537 0.395076 0
M  V30 1383 H 132.072 1.45953 0.183349 0
M  V30 1384 H 134.03 3.02411 2.87408 0
M  V30 1385 H 132.66 1.91693 2.59718 0
M  V30 1386 H 131.712 3.68483 0.94469 0
M  V30 1387 H 133.024 4.77258 1.45005 0
M  V30 1388 H 132.178 4.72528 3.80529 0
M  V30 1389 H 130.917 3.5452 3.34913 0
M  V30 1390 H 129.922 5.21024 1.75539 0
M  V30 1391 H 131.147 6.41133 2.23887 0
M  V30 1392 H 129.093 5.13385 4.08378 0
M  V30 1393 H 129.01 6.73694 3.43034 0
M  V30 1394 H 130.278 6.33072 4.54797 0
M  V30 1395 N 134.507 -0.190092 1.56449 0
M  V30 1396 C 135.437 -1.23816 1.97969 0
M  V30 1397 C 136.418 -1.47201 0.852395 0
M  V30 1398 O 137.603 -1.58854 1.1171 0
M  V30 1399 C 134.733 -2.5813 2.3235 0
M  V30 1400 C 133.687 -2.49348 3.47864 0
M  V30 1401 C 133.013 -3.8798 3.67934 0
M  V30 1402 C 134.313 -2.01424 4.81898 0
M  V30 1403 H 136.007 -0.89311 2.85769 0
M  V30 1404 H 133.553 -0.428177 1.37487 0
M  V30 1405 H 135.506 -3.31637 2.59991 0
M  V30 1406 H 134.23 -2.94386 1.41438 0
M  V30 1407 H 132.889 -1.78297 3.20321 0
M  V30 1408 H 132.537 -4.21597 2.74344 0
M  V30 1409 H 132.237 -3.82978 4.45648 0
M  V30 1410 H 133.761 -4.63101 3.97957 0
M  V30 1411 H 135.175 -2.64693 5.08538 0
M  V30 1412 H 133.572 -2.07413 5.63116 0
M  V30 1413 H 134.642 -0.967677 4.75146 0
M  V30 1414 N 135.985 -1.50799 -0.457987 0
M  V30 1415 C 136.915 -1.73553 -1.5621 0
M  V30 1416 C 137.896 -0.584774 -1.59732 0
M  V30 1417 O 139.081 -0.825314 -1.7579 0
M  V30 1418 C 136.211 -1.84169 -2.94447 0
M  V30 1419 C 135.165 -2.99461 -3.0579 0
M  V30 1420 C 134.491 -2.95235 -4.45803 0
M  V30 1421 C 135.791 -4.39766 -2.81786 0
M  V30 1422 H 137.485 -2.66 -1.37421 0
M  V30 1423 H 135.031 -1.28002 -0.659662 0
M  V30 1424 H 136.984 -1.98672 -3.71628 0
M  V30 1425 H 135.708 -0.883545 -3.14422 0
M  V30 1426 H 134.367 -2.8463 -2.31044 0
M  V30 1427 H 134.015 -1.97239 -4.62715 0
M  V30 1428 H 133.715 -3.72642 -4.54326 0
M  V30 1429 H 135.239 -3.11803 -5.24987 0
M  V30 1430 H 136.653 -4.55054 -3.4871 0
M  V30 1431 H 135.05 -5.18722 -3.0174 0
M  V30 1432 H 136.12 -4.51229 -1.7754 0
M  V30 1433 N 137.463 0.71206 -1.40597 0
M  V30 1434 C 138.874 1.29135 -1.34837 0
M  V30 1435 C 139.225 1.96186 -0.0235395 0
M  V30 1436 O 138.35 1.97768 0.878444 0
M  V30 1437 C 138.945 2.34827 -2.44217 0
M  V30 1438 C 137.504 2.88371 -2.41907 0
M  V30 1439 C 136.651 1.62202 -2.24913 0
M  V30 1440 H 139.602 0.507944 -1.50352 0
M  V30 1441 H 139.623 3.15749 -2.12327 0
M  V30 1442 H 139.135 1.85996 -3.40627 0
M  V30 1443 H 137.236 3.41422 -1.49204 0
M  V30 1444 H 137.349 3.39925 -3.37621 0
M  V30 1445 H 135.713 1.874 -1.72492 0
M  V30 1446 H 136.496 1.15391 -3.23326 0
M  V30 1447 N 138.941 1.26152 0.944643 0
M  V30 1448 C 139.873 1.03199 2.04652 0
M  V30 1449 C 140.886 -0.00642356 1.62799 0
M  V30 1450 O 142.075 0.233263 1.76969 0
M  V30 1451 C 139.175 0.540111 3.34568 0
M  V30 1452 C 138.348 1.64697 4.05208 0
M  V30 1453 C 137.407 1.15374 5.13396 0
M  V30 1454 O 136.433 1.85013 5.38293 0
M  V30 1455 N 137.635 0.00031529 5.805 0
M  V30 1456 H 140.4 1.9808 2.2491 0
M  V30 1457 H 137.961 1.17491 1.11389 0
M  V30 1458 H 139.953 0.194401 4.04233 0
M  V30 1459 H 138.523 -0.315021 3.11009 0
M  V30 1460 H 137.743 2.16379 3.29506 0
M  V30 1461 H 139.031 2.3903 4.49157 0
M  V30 1462 H 138.429 -0.581336 5.62705 0
M  V30 1463 H 136.986 -0.286346 6.51171 0
M  V30 1464 N 140.419 -1.14872 1.07899 0
M  V30 1465 C 141.349 -2.2193 0.725887 0
M  V30 1466 C 142.33 -1.67622 -0.28927 0
M  V30 1467 O 143.515 -1.93533 -0.160787 0
M  V30 1468 C 140.645 -3.47061 0.128856 0
M  V30 1469 C 139.599 -4.14363 1.07178 0
M  V30 1470 C 138.925 -5.33636 0.337229 0
M  V30 1471 C 140.225 -4.63492 2.40775 0
M  V30 1472 H 141.919 -2.51724 1.62097 0
M  V30 1473 H 139.465 -1.20991 0.780838 0
M  V30 1474 H 141.418 -4.21199 -0.130147 0
M  V30 1475 H 140.142 -3.16617 -0.80134 0
M  V30 1476 H 138.801 -3.42173 1.3158 0
M  V30 1477 H 138.449 -4.99449 -0.596606 0
M  V30 1478 H 138.149 -5.79609 0.965788 0
M  V30 1479 H 139.673 -6.10539 0.0861567 0
M  V30 1480 H 141.087 -5.2913 2.20669 0
M  V30 1481 H 139.484 -5.20148 2.99276 0
M  V30 1482 H 140.554 -3.78834 3.02676 0
M  V30 1483 N 141.898 -0.863906 -1.31812 0
M  V30 1484 C 142.828 -0.330843 -2.31144 0
M  V30 1485 C 143.809 0.575005 -1.60087 0
M  V30 1486 O 144.994 0.493304 -1.8783 0
M  V30 1487 C 142.124 0.47374 -3.44054 0
M  V30 1488 C 141.078 -0.338481 -4.26659 0
M  V30 1489 C 140.404 0.591412 -5.31419 0
M  V30 1490 C 141.704 -1.56926 -4.98168 0
M  V30 1491 H 143.398 -1.16086 -2.75979 0
M  V30 1492 H 140.944 -0.559657 -1.32679 0
M  V30 1493 H 142.897 0.857143 -4.12591 0
M  V30 1494 H 141.621 1.33721 -2.9797 0
M  V30 1495 H 140.28 -0.703754 -3.59782 0
M  V30 1496 H 139.928 1.45199 -4.81587 0
M  V30 1497 H 139.628 0.0519022 -5.87577 0
M  V30 1498 H 141.152 0.97179 -6.02817 0
M  V30 1499 H 142.566 -1.25764 -5.59336 0
M  V30 1500 H 140.963 -2.04739 -5.64094 0
M  V30 1501 H 142.033 -2.32544 -4.25501 0
M  V30 1502 N 143.376 1.44774 -0.622745 0
M  V30 1503 C 144.323 2.30635 0.0871679 0
M  V30 1504 C 145.293 1.42994 0.845097 0
M  V30 1505 O 146.478 1.71907 0.827812 0
M  V30 1506 C 143.618 3.28144 1.06844 0
M  V30 1507 C 142.731 4.30888 0.309809 0
M  V30 1508 C 141.866 5.15494 1.28215 0
M  V30 1509 C 140.905 6.09953 0.512198 0
M  V30 1510 N 140.042 6.87287 1.43458 0
M  V30 1511 H 144.882 2.90803 -0.650974 0
M  V30 1512 H 142.419 1.43286 -0.33281 0
M  V30 1513 H 144.377 3.83157 1.65066 0
M  V30 1514 H 143.007 2.69695 1.77382 0
M  V30 1515 H 142.059 3.78414 -0.388181 0
M  V30 1516 H 143.371 4.97955 -0.290254 0
M  V30 1517 H 142.525 5.74983 1.93596 0
M  V30 1518 H 141.264 4.48481 1.91614 0
M  V30 1519 H 140.269 5.49581 -0.155151 0
M  V30 1520 H 141.494 6.78999 -0.116958 0
M  V30 1521 H 139.44 6.2295 2.05594 0
M  V30 1522 H 139.357 7.50763 0.888335 0
M  V30 1523 H 140.625 7.51306 2.07749 0
M  V30 1524 N 144.854 0.36279 1.53368 0
M  V30 1525 C 145.764 -0.492994 2.29362 0
M  V30 1526 C 146.78 -1.09507 1.35219 0
M  V30 1527 O 147.956 -1.10662 1.68273 0
M  V30 1528 C 145.021 -1.61855 3.066 0
M  V30 1529 C 144.082 -1.04429 4.16405 0
M  V30 1530 C 143.315 -2.11621 4.89951 0
M  V30 1531 O 143.538 -3.32684 4.63333 0
M  V30 1532 O 142.472 -1.74835 5.75948 0
M  V30 1533 H 146.298 0.125331 3.03441 0
M  V30 1534 H 143.883 0.127253 1.48857 0
M  V30 1535 H 145.765 -2.27302 3.54841 0
M  V30 1536 H 144.44 -2.22233 2.3536 0
M  V30 1537 H 143.347 -0.353819 3.72423 0
M  V30 1538 H 144.68 -0.485113 4.89804 0
M  V30 1539 N 146.332 -1.57332 0.0918853 0
M  V30 1540 C 147.295 -2.12708 -0.85369 0
M  V30 1541 C 148.295 -1.05561 -1.213 0
M  V30 1542 O 149.485 -1.31461 -1.14296 0
M  V30 1543 C 146.617 -2.64503 -2.15061 0
M  V30 1544 H 147.81 -2.97573 -0.3729 0
M  V30 1545 H 145.363 -1.55509 -0.157072 0
M  V30 1546 H 146.098 -1.83149 -2.67632 0
M  V30 1547 H 145.883 -3.4284 -1.90272 0
M  V30 1548 H 147.373 -3.07351 -2.82711 0
M  V30 1549 N 147.81 0.181792 -1.56548 0
M  V30 1550 C 149.058 0.89832 -1.81038 0
M  V30 1551 C 149.379 1.83232 -0.667164 0
M  V30 1552 O 148.649 1.93372 0.313673 0
M  V30 1553 H 147.229 0.33471 -0.667816 0
M  V30 1554 H 149.891 0.184116 -1.94028 0
M  V30 1555 H 148.987 1.4815 -2.74696 0
M  V30 1556 N 149.288 1.51039 0.449983 0
M  V30 1557 C 150.518 1.66627 1.22143 0
M  V30 1558 C 150.926 0.357776 1.85786 0
M  V30 1559 O 150.269 -0.672424 1.70951 0
M  V30 1560 C 150.331 2.71562 2.35573 0
M  V30 1561 C 149.995 4.14526 1.92399 0
M  V30 1562 C 150.992 4.99717 1.43453 0
M  V30 1563 C 148.677 4.60559 2.00475 0
M  V30 1564 C 150.671 6.28998 1.03155 0
M  V30 1565 C 148.358 5.8984 1.59788 0
M  V30 1566 C 149.356 6.73886 1.11208 0
M  V30 1567 O 149.044 8.0075 0.710935 0
M  V30 1568 H 148.776 0.562635 0.374724 0
M  V30 1569 H 151.33 1.98146 0.541036 0
M  V30 1570 H 149.56 2.3533 3.06849 0
M  V30 1571 H 151.249 2.76156 2.97478 0
M  V30 1572 H 152.015 4.65361 1.36618 0
M  V30 1573 H 147.894 3.95273 2.37235 0
M  V30 1574 H 151.438 6.9455 0.651663 0
M  V30 1575 H 147.335 6.23713 1.66289 0
M  V30 1576 H 148.103 8.142 0.837913 0
M  V30 1577 N 150.766 -0.704594 1.40972 0
M  V30 1578 C 151.994 -1.49354 1.43182 0
M  V30 1579 C 152.409 -1.88768 0.0345508 0
M  V30 1580 O 151.766 -1.56184 -0.944081 0
M  V30 1581 C 151.817 -2.76187 2.33244 0
M  V30 1582 O 151.538 -2.38436 3.67532 0
M  V30 1583 C 153.039 -3.7 2.44162 0
M  V30 1584 H 150.259 -0.460559 0.487982 0
M  V30 1585 H 152.803 -0.868261 1.85153 0
M  V30 1586 H 150.958 -3.34974 1.94606 0
M  V30 1587 H 151.372 -3.20126 4.15475 0
M  V30 1588 H 152.846 -4.55803 3.11364 0
M  V30 1589 H 153.323 -4.13867 1.47006 0
M  V30 1590 H 153.929 -3.17121 2.83398 0
M  V30 1591 N 152.244 -1.26651 -0.937939 0
M  V30 1592 C 153.472 -1.15173 -1.7188 0
M  V30 1593 C 153.887 0.292668 -1.86518 0
M  V30 1594 O 153.244 1.20014 -1.37488 0
M  V30 1595 C 153.295 -1.81925 -3.12387 0
M  V30 1596 O 153.016 -3.2072 -2.98446 0
M  V30 1597 C 154.517 -1.76442 -4.06673 0
M  V30 1598 H 151.737 -0.400911 -0.538063 0
M  V30 1599 H 154.281 -1.67332 -1.1756 0
M  V30 1600 H 152.436 -1.33696 -3.63599 0
M  V30 1601 H 152.85 -3.53802 -3.872 0
M  V30 1602 H 154.324 -2.27781 -5.02812 0
M  V30 1603 H 154.801 -0.731608 -4.33064 0
M  V30 1604 H 155.407 -2.24238 -3.61382 0
M  V30 1605 N 153.722 1.14298 -1.08507 0
M  V30 1606 C 154.672 2.17449 -0.685569 0
M  V30 1607 C 155.656 1.58167 0.295315 0
M  V30 1608 O 156.848 1.76675 0.107172 0
M  V30 1609 C 153.977 3.43161 -0.0975318 0
M  V30 1610 C 153.063 4.09471 -1.10426 0
M  V30 1611 N 153.454 4.51089 -2.28806 0
M  V30 1612 C 151.752 4.35976 -0.940258 0
M  V30 1613 C 152.453 5.02654 -2.9277 0
M  V30 1614 N 151.429 4.96927 -2.20374 0
M  V30 1615 H 155.231 2.47369 -1.587 0
M  V30 1616 H 152.745 1.30992 -0.959936 0
M  V30 1617 H 154.742 4.16388 0.20664 0
M  V30 1618 H 153.402 3.14719 0.798872 0
M  V30 1619 H 154.413 4.44097 -2.66455 0
M  V30 1620 H 151.09 4.17386 -0.0977441 0
M  V30 1621 H 152.48 5.44723 -3.93352 0
M  V30 1622 N 155.201 0.870884 1.31352 0
M  V30 1623 C 156.134 0.271983 2.26573 0
M  V30 1624 C 157.112 -0.599385 1.51149 0
M  V30 1625 O 158.296 -0.552605 1.80218 0
M  V30 1626 C 155.423 -0.614801 3.33073 0
M  V30 1627 C 154.469 0.185342 4.26097 0
M  V30 1628 S 155.302 1.56444 5.12138 0
M  V30 1629 C 156.458 0.683807 6.22153 0
M  V30 1630 H 156.691 1.07916 2.77023 0
M  V30 1631 H 154.224 0.669459 1.39132 0
M  V30 1632 H 156.182 -1.12074 3.94905 0
M  V30 1633 H 154.843 -1.39593 2.81376 0
M  V30 1634 H 154.036 -0.490771 5.01605 0
M  V30 1635 H 153.638 0.623415 3.68768 0
M  V30 1636 H 155.93 -0.10521 6.77418 0
M  V30 1637 H 156.873 1.41004 6.93919 0
M  V30 1638 H 157.281 0.250952 5.63942 0
M  V30 1639 N 156.679 -1.44442 0.630414 0
M  V30 1640 C 157.925 -2.02351 0.134816 0
M  V30 1641 C 158.258 -1.4947 -1.23986 0
M  V30 1642 O 157.533 -0.678475 -1.82283 0
M  V30 1643 C 157.816 -3.59898 0.120707 0
M  V30 1644 C 157.669 -4.23063 1.52767 0
M  V30 1645 C 158.988 -4.36585 -0.555127 0
M  V30 1646 H 156.107 -0.73527 0.0504646 0
M  V30 1647 H 158.749 -1.72022 0.806751 0
M  V30 1648 H 156.899 -3.85868 -0.451477 0
M  V30 1649 H 158.571 -4.08202 2.14869 0
M  V30 1650 H 156.814 -3.80586 2.08175 0
M  V30 1651 H 157.485 -5.32071 1.46984 0
M  V30 1652 H 159.961 -4.16044 -0.0685429 0
M  V30 1653 H 158.837 -5.46294 -0.534185 0
M  V30 1654 H 159.098 -4.11138 -1.62535 0
M  V30 1655 N 158.157 -0.370918 -1.53173 0
M  V30 1656 C 159.405 0.216673 -2.00935 0
M  V30 1657 C 159.726 1.48845 -1.25977 0
M  V30 1658 O 158.996 1.92286 -0.374551 0
M  V30 1659 H 157.576 0.0830565 -0.742368 0
M  V30 1660 H 160.238 -0.49838 -1.8842 0
M  V30 1661 H 159.334 0.439893 -3.08984 0
M  V30 1662 N 159.635 1.57281 -0.100228 0
M  V30 1663 C 160.582 2.14305 0.856858 0
M  V30 1664 C 161.552 1.06296 1.27634 0
M  V30 1665 O 162.737 1.34109 1.35718 0
M  V30 1666 C 159.877 2.73184 2.10866 0
M  V30 1667 C 158.99 3.95442 1.73925 0
M  V30 1668 C 158.125 4.42468 2.93931 0
M  V30 1669 C 157.164 5.57303 2.5314 0
M  V30 1670 N 156.301 5.99158 3.65997 0
M  V30 1671 H 161.141 2.95772 0.363726 0
M  V30 1672 H 158.678 1.46139 0.167858 0
M  V30 1673 H 160.636 3.05442 2.84185 0
M  V30 1674 H 159.266 1.94437 2.57671 0
M  V30 1675 H 158.318 3.69464 0.905554 0
M  V30 1676 H 159.63 4.78769 1.39935 0
M  V30 1677 H 158.784 4.76537 3.75496 0
M  V30 1678 H 157.523 3.58052 3.31134 0
M  V30 1679 H 156.528 5.22857 1.70003 0
M  V30 1680 H 157.753 6.43471 2.17075 0
M  V30 1681 H 155.699 5.17687 4.02909 0
M  V30 1682 H 155.616 6.77295 3.35869 0
M  V30 1683 H 156.884 6.3786 4.48057 0
M  V30 1684 N 161.113 -0.173488 1.56642 0
M  V30 1685 C 162.359 -0.887108 1.83035 0
M  V30 1686 C 162.714 -1.79965 0.680461 0
M  V30 1687 O 162.007 -1.88854 -0.323225 0
M  V30 1688 C 162.201 -1.72069 3.13252 0
M  V30 1689 C 162.03 -0.89035 4.40798 0
M  V30 1690 C 160.8 -0.566282 5.02117 0
M  V30 1691 C 162.998 -0.232921 5.13772 0
M  V30 1692 N 160.98 0.280427 6.13259 0
M  V30 1693 C 162.351 0.475046 6.18177 0
M  V30 1694 C 164.406 -0.150863 4.97671 0
M  V30 1695 C 163.109 1.25729 7.08227 0
M  V30 1696 C 165.135 0.618039 5.88162 0
M  V30 1697 C 164.497 1.31438 6.92029 0
M  V30 1698 H 160.596 -0.303303 0.720785 0
M  V30 1699 H 163.18 -0.154244 1.94088 0
M  V30 1700 H 161.351 -2.42499 3.03395 0
M  V30 1701 H 163.083 -2.37545 3.2765 0
M  V30 1702 H 159.838 -0.895852 4.6505 0
M  V30 1703 H 160.262 0.694027 6.73433 0
M  V30 1704 H 164.904 -0.674868 4.17379 0
M  V30 1705 H 162.622 1.79265 7.87966 0
M  V30 1706 H 166.208 0.683173 5.77775 0
M  V30 1707 H 165.088 1.89981 7.6084 0
M  V30 1708 N 162.591 -1.51276 -0.441967 0
M  V30 1709 C 163.541 -1.6864 -1.53442 0
M  V30 1710 C 164.525 -0.540444 -1.51552 0
M  V30 1711 O 165.717 -0.796157 -1.58083 0
M  V30 1712 C 162.846 -1.8106 -2.91672 0
M  V30 1713 C 161.932 -3.01424 -2.98336 0
M  V30 1714 N 162.323 -4.2467 -2.74752 0
M  V30 1715 C 160.621 -3.00584 -3.29493 0
M  V30 1716 C 161.322 -5.05891 -2.87139 0
M  V30 1717 N 160.298 -4.40442 -3.18609 0
M  V30 1718 H 164.1 -2.61598 -1.33954 0
M  V30 1719 H 161.614 -1.4886 -0.6492 0
M  V30 1720 H 163.611 -1.91609 -3.70259 0
M  V30 1721 H 162.271 -0.892795 -3.12185 0
M  V30 1722 H 163.282 -4.53691 -2.49769 0
M  V30 1723 H 159.959 -2.18417 -3.55809 0
M  V30 1724 H 161.349 -6.13983 -2.72899 0
M  V30 1725 N 164.069 0.697108 -1.41344 0
M  V30 1726 C 164.999 1.82353 -1.45841 0
M  V30 1727 C 165.98 1.67115 -0.317247 0
M  V30 1728 O 167.165 1.86871 -0.528474 0
M  V30 1729 C 164.295 3.20476 -1.33838 0
M  V30 1730 C 163.249 3.50415 -2.4575 0
M  V30 1731 C 162.575 4.87878 -2.18813 0
M  V30 1732 C 163.875 3.49546 -3.88091 0
M  V30 1733 H 165.569 1.78846 -2.40113 0
M  V30 1734 H 163.115 0.859028 -1.15571 0
M  V30 1735 H 165.068 3.98988 -1.35596 0
M  V30 1736 H 163.792 3.24604 -0.360498 0
M  V30 1737 H 162.451 2.74253 -2.43271 0
M  V30 1738 H 162.099 4.8863 -1.19371 0
M  V30 1739 H 161.799 5.08875 -2.93803 0
M  V30 1740 H 163.323 5.68702 -2.22284 0
M  V30 1741 H 164.737 4.18066 -3.92293 0
M  V30 1742 H 163.134 3.82075 -4.62751 0
M  V30 1743 H 164.204 2.48552 -4.16353 0
M  V30 1744 N 165.547 1.27147 0.931209 0
M  V30 1745 C 166.795 1.13055 1.6752 0
M  V30 1746 C 167.116 -0.324791 1.92276 0
M  V30 1747 O 166.386 -1.22775 1.52654 0
M  V30 1748 H 164.966 0.415391 0.620854 0
M  V30 1749 H 167.628 1.59623 1.11833 0
M  V30 1750 H 166.724 1.65694 2.64485 0
M  V30 1751 N 167.025 -1.13721 1.09112 0
M  V30 1752 C 167.958 -2.18094 0.67158 0
M  V30 1753 C 168.936 -1.59414 -0.320299 0
M  V30 1754 O 170.12 -1.87183 -0.222444 0
M  V30 1755 C 167.247 -3.38698 -0.0111189 0
M  V30 1756 C 166.293 -4.15966 0.942055 0
M  V30 1757 S 167.126 -4.7604 2.45246 0
M  V30 1758 C 168.282 -5.99994 1.78208 0
M  V30 1759 H 168.515 -2.53344 1.55577 0
M  V30 1760 H 166.048 -1.24967 0.906789 0
M  V30 1761 H 168.006 -4.08559 -0.398716 0
M  V30 1762 H 166.667 -3.01756 -0.871905 0
M  V30 1763 H 165.86 -5.02318 0.411396 0
M  V30 1764 H 165.462 -3.51745 1.2709 0
M  V30 1765 H 167.754 -6.68441 1.10424 0
M  V30 1766 H 168.697 -6.57662 2.62463 0
M  V30 1767 H 169.105 -5.50432 1.25238 0
M  V30 1768 N 168.503 -0.877838 -1.30888 0
M  V30 1769 C 169.733 -0.506678 -2.00291 0
M  V30 1770 C 170.141 0.907449 -1.66018 0
M  V30 1771 O 169.484 1.60719 -0.88967 0
M  V30 1772 C 169.546 -0.59323 -3.54572 0
M  V30 1773 C 169.21 -1.97038 -4.12341 0
M  V30 1774 C 170.207 -2.93889 -4.28865 0
M  V30 1775 C 167.892 -2.27383 -4.47886 0
M  V30 1776 C 169.886 -4.19224 -4.80136 0
M  V30 1777 C 167.573 -3.52965 -4.98857 0
M  V30 1778 C 168.571 -4.48701 -5.14934 0
M  V30 1779 O 168.259 -5.72056 -5.64808 0
M  V30 1780 H 167.991 -0.1951 -0.647234 0
M  V30 1781 H 170.545 -1.18301 -1.6791 0
M  V30 1782 H 168.775 0.140057 -3.86446 0
M  V30 1783 H 170.464 -0.234372 -4.05223 0
M  V30 1784 H 171.23 -2.71756 -4.01714 0
M  V30 1785 H 167.109 -1.53639 -4.34645 0
M  V30 1786 H 170.653 -4.93956 -4.92599 0
M  V30 1787 H 166.55 -3.74939 -5.25443 0
M  V30 1788 H 167.318 -5.74337 -5.83163 0
M  V30 1789 N 169.982 1.44106 -0.638065 0
M  V30 1790 C 171.398 1.56672 -0.304286 0
M  V30 1791 C 171.598 1.6244 1.19228 0
M  V30 1792 O 170.654 1.57121 1.9766 0
M  V30 1793 C 171.967 2.83503 -1.00231 0
M  V30 1794 C 173.515 2.97226 -0.981116 0
M  V30 1795 C 173.99 4.26868 -1.65974 0
M  V30 1796 N 175.481 4.33698 -1.62666 0
M  V30 1797 C 176.216 5.32745 -2.12063 0
M  V30 1798 N 175.712 6.38157 -2.6968 0
M  V30 1799 N 177.505 5.24299 -2.02651 0
M  V30 1800 H 169.656 1.38605 -1.60942 0
M  V30 1801 H 171.919 0.664661 -0.675965 0
M  V30 1802 H 171.625 2.85251 -2.0573 0
M  V30 1803 H 171.499 3.73251 -0.54439 0
M  V30 1804 H 173.886 2.95027 0.0654188 0
M  V30 1805 H 173.967 2.08808 -1.47759 0
M  V30 1806 H 173.611 4.29826 -2.70576 0
M  V30 1807 H 173.541 5.14156 -1.13804 0
M  V30 1808 H 176.032 3.58138 -1.20606 0
M  V30 1809 H 176.345 7.10029 -3.05087 0
M  V30 1810 H 174.69 6.38823 -2.73734 0
M  V30 1811 H 177.881 4.4086 -1.57353 0
M  V30 1812 H 178.054 6.01334 -2.41457 0
M  V30 1813 N 171.46 0.379036 1.52974 0
M  V30 1814 C 172.407 -0.461048 2.26148 0
M  V30 1815 C 173.377 -1.06637 1.27349 0
M  V30 1816 O 174.562 -1.09633 1.56157 0
M  V30 1817 C 171.702 -1.58782 3.06402 0
M  V30 1818 C 170.815 -1.00636 4.20115 0
M  V30 1819 C 169.95 -2.10334 4.87784 0
M  V30 1820 C 168.989 -1.49724 5.93506 0
M  V30 1821 N 168.126 -2.5331 6.54812 0
M  V30 1822 H 172.966 0.169429 2.97518 0
M  V30 1823 H 170.503 0.0953806 1.4679 0
M  V30 1824 H 172.461 -2.25174 3.51215 0
M  V30 1825 H 171.091 -2.18876 2.37261 0
M  V30 1826 H 170.143 -0.232332 3.7969 0
M  V30 1827 H 171.455 -0.523343 4.96047 0
M  V30 1828 H 170.609 -2.84519 5.35849 0
M  V30 1829 H 169.348 -2.61992 4.11353 0
M  V30 1830 H 168.353 -0.740598 5.44789 0
M  V30 1831 H 169.578 -0.988732 6.71864 0
M  V30 1832 H 167.524 -3.04156 5.81227 0
M  V30 1833 H 167.441 -2.09734 7.26325 0
M  V30 1834 H 168.709 -3.27155 7.07524 0
M  V30 1835 N 172.938 -1.57226 0.108567 0
M  V30 1836 C 173.848 -2.18292 -0.859401 0
M  V30 1837 C 174.864 -1.15612 -1.30038 0
M  V30 1838 O 176.04 -1.48039 -1.36552 0
M  V30 1839 C 173.105 -2.762 -2.09558 0
M  V30 1840 C 172.166 -3.93881 -1.70752 0
M  V30 1841 C 171.399 -4.49018 -2.88477 0
M  V30 1842 O 171.622 -4.03068 -4.036 0
M  V30 1843 O 170.556 -5.39852 -2.66164 0
M  V30 1844 H 174.382 -3.01441 -0.369769 0
M  V30 1845 H 171.967 -1.48945 -0.1165 0
M  V30 1846 H 173.849 -3.13156 -2.81978 0
M  V30 1847 H 172.524 -1.96089 -2.57548 0
M  V30 1848 H 171.431 -3.61713 -0.954714 0
M  V30 1849 H 172.764 -4.75396 -1.27513 0
M  V30 1850 N 174.416 0.165178 -1.56732 0
M  V30 1851 C 175.656 0.887231 -1.8414 0
M  V30 1852 C 176.02 1.79159 -0.690353 0
M  V30 1853 O 177.221 2.55172 -0.845032 0
M  V30 1854 C 175.492 1.65674 -3.16681 0
M  V30 1855 S 177.051 2.42671 -3.6559 0
M  V30 1856 H 173.869 0.297042 -0.645978 0
M  V30 1857 H 176.471 0.148439 -1.94936 0
M  V30 1858 H 175.175 0.983507 -3.98441 0
M  V30 1859 H 174.706 2.43679 -3.08843 0
M  V30 1860 H 176.721 3.67499 -3.33406 0
M  V30 1861 N 175.894 1.51508 0.433938 0
M  V30 1862 C 176.824 1.76016 1.53429 0
M  V30 1863 C 177.805 0.610112 1.58782 0
M  V30 1864 O 178.99 0.853177 1.74455 0
M  V30 1865 C 176.12 1.88831 2.9148 0
M  V30 1866 C 175.074 3.04288 3.00987 0
M  V30 1867 C 174.4 3.0229 4.4105 0
M  V30 1868 C 175.7 4.44193 2.74754 0
M  V30 1869 H 177.394 2.68152 1.33171 0
M  V30 1870 H 174.94 1.29035 0.639214 0
M  V30 1871 H 176.893 2.04559 3.6842 0
M  V30 1872 H 175.617 0.933455 3.12976 0
M  V30 1873 H 174.276 2.8827 2.26486 0
M  V30 1874 H 173.924 2.04576 4.59519 0
M  V30 1875 H 173.624 3.79822 4.4834 0
M  V30 1876 H 175.148 3.20116 5.1996 0
M  V30 1877 H 176.562 4.60544 3.41426 0
M  V30 1878 H 174.959 5.23457 2.9345 0
M  V30 1879 H 176.029 4.53996 1.70339 0
M  V30 1880 N 177.372 -0.689602 1.41712 0
M  V30 1881 C 178.783 -1.26973 1.36875 0
M  V30 1882 C 179.134 -1.96124 0.054748 0
M  V30 1883 O 178.259 -1.99141 -0.84687 0
M  V30 1884 C 178.854 -2.30912 2.47922 0
M  V30 1885 C 177.413 -2.84486 2.46464 0
M  V30 1886 C 176.56 -1.58603 2.27465 0
M  V30 1887 H 179.511 -0.48396 1.51141 0
M  V30 1888 H 179.532 -3.12331 2.17323 0
M  V30 1889 H 179.044 -1.80554 3.43543 0
M  V30 1890 H 177.145 -3.39005 1.54617 0
M  V30 1891 H 177.258 -3.34511 3.42986 0
M  V30 1892 H 175.622 -1.84632 1.75451 0
M  V30 1893 H 176.405 -1.10233 3.25121 0
M  V30 1894 N 178.85 -1.27639 -0.924453 0
M  V30 1895 C 180.078 -1.16989 -1.70649 0
M  V30 1896 C 180.493 0.272869 -1.86818 0
M  V30 1897 O 179.85 1.18549 -1.38753 0
M  V30 1898 C 179.901 -1.85229 -3.10439 0
M  V30 1899 O 179.622 -3.23868 -2.95028 0
M  V30 1900 C 181.123 -1.80746 -4.04779 0
M  V30 1901 H 178.343 -0.406595 -0.53378 0
M  V30 1902 H 180.887 -1.68569 -1.15778 0
M  V30 1903 H 179.042 -1.37545 -3.6216 0
M  V30 1904 H 179.456 -3.57889 -3.83426 0
M  V30 1905 H 180.93 -2.33101 -5.00368 0
M  V30 1906 H 181.407 -0.777499 -4.32263 0
M  V30 1907 H 182.013 -2.28059 -3.58984 0
M  V30 1908 N 180.328 1.1314 -1.09713 0
M  V30 1909 C 181.744 1.36477 -0.827423 0
M  V30 1910 C 181.944 1.93654 0.556817 0
M  V30 1911 O 181 2.15791 1.31112 0
M  V30 1912 C 182.313 2.31334 -1.92106 0
M  V30 1913 C 183.861 2.44943 -1.94864 0
M  V30 1914 C 184.336 3.4311 -3.0338 0
M  V30 1915 N 185.827 3.50662 -3.02639 0
M  V30 1916 C 186.562 4.2651 -3.83246 0
M  V30 1917 N 186.058 5.05485 -4.73768 0
M  V30 1918 N 187.851 4.2184 -3.71493 0
M  V30 1919 H 180.002 0.743807 -1.9895 0
M  V30 1920 H 182.265 0.389823 -0.864143 0
M  V30 1921 H 181.971 1.96483 -2.91698 0
M  V30 1922 H 181.845 3.31381 -1.80184 0
M  V30 1923 H 184.232 2.79079 -0.959099 0
M  V30 1924 H 184.313 1.4481 -2.10864 0
M  V30 1925 H 183.957 3.09704 -4.02549 0
M  V30 1926 H 183.887 4.43055 -2.84622 0
M  V30 1927 H 186.378 2.94315 -2.37039 0
M  V30 1928 H 186.691 5.60675 -5.3185 0
M  V30 1929 H 185.036 5.04708 -4.77802 0
M  V30 1930 H 188.227 3.5922 -3.00131 0
M  V30 1931 H 188.4 4.80697 -4.3455 0
M  V30 1932 N 181.806 0.884767 1.30421 0
M  V30 1933 C 183.222 0.57874 1.48737 0
M  V30 1934 C 183.422 -0.883567 1.81095 0
M  V30 1935 O 182.478 -1.6648 1.89844 0
M  V30 1936 C 183.791 1.49171 2.61091 0
M  V30 1937 C 185.339 1.49532 2.74971 0
M  V30 1938 C 185.814 2.39421 3.90438 0
M  V30 1939 N 187.305 2.37383 3.97748 0
M  V30 1940 C 188.04 3.03647 4.86401 0
M  V30 1941 N 187.536 3.79136 5.79852 0
M  V30 1942 N 189.329 2.9288 4.79768 0
M  V30 1943 H 181.48 1.83075 1.0769 0
M  V30 1944 H 183.743 0.783637 0.533495 0
M  V30 1945 H 183.449 2.53291 2.44001 0
M  V30 1946 H 183.323 1.20113 3.57565 0
M  V30 1947 H 185.71 0.46163 2.91467 0
M  V30 1948 H 185.791 1.8262 1.79119 0
M  V30 1949 H 185.435 3.42874 3.74699 0
M  V30 1950 H 185.365 2.03649 4.85628 0
M  V30 1951 H 187.856 1.82525 3.30897 0
M  V30 1952 H 188.169 4.26789 6.4426 0
M  V30 1953 H 186.514 3.83243 5.79784 0
M  V30 1954 H 189.705 2.33433 4.05742 0
M  V30 1955 H 189.878 3.448 5.4865 0
M  V30 1956 N 183.284 -1.43765 0.645699 0
M  V30 1957 C 184.532 -2.01499 0.155731 0
M  V30 1958 C 184.853 -1.51151 -1.232 0
M  V30 1959 O 184.123 -0.721044 -1.82148 0
M  V30 1960 H 182.703 -0.745003 0.0545817 0
M  V30 1961 H 185.365 -1.76075 0.835677 0
M  V30 1962 H 184.461 -3.1181 0.134577 0
M  V30 1963 N 184.763 -0.387143 -1.52771 0
M  V30 1964 C 186.01 0.195735 -2.01552 0
M  V30 1965 C 186.338 1.46995 -1.27369 0
M  V30 1966 O 185.593 1.92325 -0.361879 0
M  V30 1967 C 185.892 0.512209 -3.53711 0
M  V30 1968 C 185.558 -0.670202 -4.45891 0
M  V30 1969 C 184.22 -0.994586 -4.70809 0
M  V30 1970 C 186.572 -1.46134 -5.00294 0
M  V30 1971 C 183.9 -2.11169 -5.4738 0
M  V30 1972 C 186.252 -2.56903 -5.78086 0
M  V30 1973 C 184.916 -2.89852 -6.01284 0
M  V30 1974 H 184.186 0.0716246 -0.73753 0
M  V30 1975 H 186.833 -0.524046 -1.8419 0
M  V30 1976 H 185.138 1.31329 -3.69134 0
M  V30 1977 H 186.835 0.975804 -3.88946 0
M  V30 1978 H 183.425 -0.407366 -4.2666 0
M  V30 1979 H 187.609 -1.22397 -4.80971 0
M  V30 1980 H 182.865 -2.3707 -5.63567 0
M  V30 1981 H 187.039 -3.18608 -6.19243 0
M  V30 1982 H 184.666 -3.76533 -6.60399 0
M  V30 1983 N 186.241 1.57166 -0.116904 0
M  V30 1984 C 187.518 1.86645 0.585049 0
M  V30 1985 C 187.898 1.0177 1.84949 0
M  V30 1986 O 187.246 0.0960379 2.28298 0
M  V30 1987 C 187.456 3.37736 0.879507 0
M  V30 1988 C 188.804 4.06289 1.23348 0
M  V30 1989 O 189.828 3.42743 0.969836 0
M  V30 1990 O 188.687 5.18455 1.7282 0
M  V30 1991 H 185.781 0.772593 0.295007 0
M  V30 1992 H 188.327 1.69025 -0.151249 0
M  V30 1993 H 187.099 3.91296 -0.0166136 0
M  V30 1994 H 186.722 3.6078 1.67103 0
M  V30 1995 N 187.719 -0.156864 1.56817 0
M  V30 1996 C 188.947 -0.886316 1.86955 0
M  V30 1997 C 189.362 -1.75185 0.703975 0
M  V30 1998 O 188.719 -1.79555 -0.326552 0
M  V30 1999 C 188.77 -1.75117 3.16253 0
M  V30 2000 O 188.491 -0.920537 4.2832 0
M  V30 2001 C 189.992 -2.58905 3.59837 0
M  V30 2002 H 187.212 -0.25678 0.619923 0
M  V30 2003 H 189.756 -0.152615 2.0393 0
M  V30 2004 H 187.911 -2.43805 3.01062 0
M  V30 2005 H 188.325 -1.51337 5.02192 0
M  V30 2006 H 189.799 -3.1518 4.53172 0
M  V30 2007 H 190.276 -3.34472 2.84649 0
M  V30 2008 H 190.882 -1.95526 3.7769 0
M  V30 2009 N 189.197 -1.51736 -0.425897 0
M  V30 2010 C 190.427 -1.68549 -1.19476 0
M  V30 2011 C 190.835 -0.387288 -1.85194 0
M  V30 2012 O 190.178 0.645142 -1.71999 0
M  V30 2013 C 190.24 -2.75275 -2.31223 0
M  V30 2014 C 189.904 -4.17534 -1.8578 0
M  V30 2015 C 190.901 -5.01936 -1.35485 0
M  V30 2016 C 188.586 -4.6369 -1.93123 0
M  V30 2017 C 190.58 -6.30559 -0.931347 0
M  V30 2018 C 188.267 -5.92307 -1.50384 0
M  V30 2019 C 189.265 -6.75569 -1.00473 0
M  V30 2020 O 188.953 -8.0178 -0.583452 0
M  V30 2021 H 188.685 -0.568525 -0.365725 0
M  V30 2022 H 191.239 -1.98982 -0.509444 0
M  V30 2023 H 189.469 -2.40182 -3.03067 0
M  V30 2024 H 191.158 -2.80853 -2.93047 0
M  V30 2025 H 191.924 -4.67475 -1.29197 0
M  V30 2026 H 187.803 -3.98997 -2.30916 0
M  V30 2027 H 191.347 -6.95498 -0.541084 0
M  V30 2028 H 187.244 -6.2628 -1.56346 0
M  V30 2029 H 188.012 -8.1543 -0.708275 0
M  V30 2030 N 190.675 0.682077 -1.42076 0
M  V30 2031 C 191.922 1.44215 -1.42156 0
M  V30 2032 C 192.25 1.94468 -0.0354186 0
M  V30 2033 O 191.505 1.70816 0.955002 0
M  V30 2034 C 191.804 2.66036 -2.38662 0
M  V30 2035 C 191.47 2.34366 -3.85206 0
M  V30 2036 C 190.132 2.25439 -4.25124 0
M  V30 2037 C 192.484 2.08513 -4.77673 0
M  V30 2038 C 189.812 1.88775 -5.55501 0
M  V30 2039 C 192.164 1.73354 -6.08384 0
M  V30 2040 C 190.828 1.62933 -6.47309 0
M  V30 2041 H 190.098 0.527718 -0.520187 0
M  V30 2042 H 192.745 0.778387 -1.74967 0
M  V30 2043 H 191.05 3.3741 -1.99152 0
M  V30 2044 H 192.747 3.24205 -2.35991 0
M  V30 2045 H 189.337 2.42213 -3.53597 0
M  V30 2046 H 193.521 2.14346 -4.47626 0
M  V30 2047 H 188.777 1.7927 -5.84527 0
M  V30 2048 H 192.951 1.52373 -6.79526 0
M  V30 2049 H 190.578 1.34292 -7.48244 0
M  V30 2050 N 192.153 1.28127 0.917671 0
M  V30 2051 C 193.401 1.14825 1.66312 0
M  V30 2052 C 193.722 -0.304379 1.9261 0
M  V30 2053 O 192.992 -1.21149 1.53947 0
M  V30 2054 H 191.572 0.421953 0.616413 0
M  V30 2055 H 194.234 1.608 1.10134 0
M  V30 2056 H 193.33 1.68489 2.62712 0
M  V30 2057 N 193.631 -1.12557 1.10312 0
M  V30 2058 C 194.861 -1.87592 0.865617 0
M  V30 2059 C 195.269 -1.79851 -0.587389 0
M  V30 2060 O 194.612 -1.16949 -1.41664 0
M  V30 2061 C 194.674 -3.37665 1.23381 0
M  V30 2062 C 194.338 -3.69181 2.69359 0
M  V30 2063 C 195.335 -3.67652 3.67597 0
M  V30 2064 C 193.02 -3.98555 3.05711 0
M  V30 2065 C 195.014 -3.95053 5.00212 0
M  V30 2066 C 192.701 -4.25616 4.38514 0
M  V30 2067 C 193.699 -4.23851 5.35574 0
M  V30 2068 O 193.387 -4.50242 6.65986 0
M  V30 2069 H 193.119 -0.600442 0.310557 0
M  V30 2070 H 195.673 -1.4335 1.47105 0
M  V30 2071 H 193.903 -3.82454 0.571467 0
M  V30 2072 H 195.592 -3.94041 0.973994 0
M  V30 2073 H 196.358 -3.45024 3.40857 0
M  V30 2074 H 192.237 -3.99071 2.30789 0
M  V30 2075 H 195.781 -3.93591 5.75962 0
M  V30 2076 H 191.678 -4.47718 4.64994 0
M  V30 2077 H 192.446 -4.67867 6.71597 0
M  V30 2078 N 195.109 -0.891671 -1.2995 0
M  V30 2079 C 196.039 -0.379797 -2.30391 0
M  V30 2080 C 197.02 0.540919 -1.6127 0
M  V30 2081 O 198.205 0.453352 -1.88834 0
M  V30 2082 C 195.335 0.400654 -3.44981 0
M  V30 2083 C 194.289 -0.428905 -4.25846 0
M  V30 2084 C 193.615 0.478557 -5.32554 0
M  V30 2085 C 194.915 -1.67458 -4.94727 0
M  V30 2086 H 196.609 -1.21914 -2.73454 0
M  V30 2087 H 194.155 -0.587675 -1.31462 0
M  V30 2088 H 196.108 0.769434 -4.14316 0
M  V30 2089 H 194.832 1.27371 -3.0074 0
M  V30 2090 H 193.491 -0.779911 -3.58208 0
M  V30 2091 H 193.139 1.34951 -4.84559 0
M  V30 2092 H 192.839 -0.0727433 -5.87555 0
M  V30 2093 H 194.363 0.843705 -6.04743 0
M  V30 2094 H 195.777 -1.376 -5.56542 0
M  V30 2095 H 194.174 -2.16659 -5.59624 0
M  V30 2096 H 195.244 -2.41518 -4.20473 0
M  V30 2097 N 196.587 1.43421 -0.653314 0
M  V30 2098 C 197.517 2.33487 0.0246656 0
M  V30 2099 C 198.498 1.49475 0.811863 0
M  V30 2100 O 199.683 1.78139 0.773322 0
M  V30 2101 C 196.813 3.32841 0.99166 0
M  V30 2102 C 195.767 4.26842 0.314568 0
M  V30 2103 C 195.093 5.16236 1.39302 0
M  V30 2104 C 196.393 5.16243 -0.793095 0
M  V30 2105 H 198.087 2.90427 -0.727481 0
M  V30 2106 H 195.633 1.39649 -0.351287 0
M  V30 2107 H 197.586 3.94747 1.47487 0
M  V30 2108 H 196.31 2.74158 1.77497 0
M  V30 2109 H 194.969 3.663 -0.148199 0
M  V30 2110 H 194.617 4.53891 2.16776 0
M  V30 2111 H 194.317 5.79948 0.945223 0
M  V30 2112 H 195.841 5.81015 1.87759 0
M  V30 2113 H 197.255 5.71958 -0.392039 0
M  V30 2114 H 195.652 5.88676 -1.16536 0
M  V30 2115 H 196.722 4.55927 -1.65103 0
M  V30 2116 N 198.065 0.39524 1.52563 0
M  V30 2117 C 199.313 -0.184678 2.01254 0
M  V30 2118 C 199.634 -1.46822 1.28329 0
M  V30 2119 O 198.904 -1.91666 0.405094 0
M  V30 2120 H 197.484 -0.0712355 0.743596 0
M  V30 2121 H 200.146 0.528293 1.87603 0
M  V30 2122 H 199.242 -0.390681 3.09645 0
M  V30 2123 N 199.544 -1.57102 0.125237 0
M  V30 2124 C 200.769 -2.0019 -0.542101 0
M  V30 2125 C 201.194 -1.00449 -1.59034 0
M  V30 2126 O 200.552 0.0229423 -1.81285 0
M  V30 2127 C 200.6 -3.42129 -1.13929 0
M  V30 2128 O 199.704 -3.45307 -2.2547 0
M  V30 2129 H 199.045 -0.650171 -0.134812 0
M  V30 2130 H 201.575 -2.03461 0.215553 0
M  V30 2131 H 201.585 -3.80471 -1.4733 0
M  V30 2132 H 200.26 -4.14237 -0.371531 0
M  V30 2133 H 198.837 -3.1879 -1.93462 0
M  V30 2134 N 201.022 0.148545 -1.56898 0
M  V30 2135 C 201.932 1.20293 -2.01412 0
M  V30 2136 C 202.948 1.47107 -0.929273 0
M  V30 2137 O 204.124 1.58807 -1.23863 0
M  V30 2138 C 201.189 2.51682 -2.38447 0
M  V30 2139 C 200.25 2.32529 -3.60872 0
M  V30 2140 C 199.483 3.57653 -3.96132 0
M  V30 2141 O 199.706 4.63771 -3.32073 0
M  V30 2142 O 198.64 3.50408 -4.89385 0
M  V30 2143 H 202.466 0.855025 -2.91416 0
M  V30 2144 H 200.051 0.357151 -1.45068 0
M  V30 2145 H 201.933 3.29147 -2.63135 0
M  V30 2146 H 200.608 2.86006 -1.51599 0
M  V30 2147 H 199.515 1.53019 -3.41373 0
M  V30 2148 H 200.848 2.03121 -4.48333 0
M  V30 2149 N 202.5 1.5196 0.417844 0
M  V30 2150 C 203.777 1.56146 1.17803 0
M  V30 2151 C 204.157 0.337275 2.08388 0
M  V30 2152 O 203.505 -0.676447 2.18258 0
M  V30 2153 C 203.715 2.88566 1.96293 0
M  V30 2154 C 205.063 3.41244 2.52662 0
M  V30 2155 O 206.087 2.90247 2.06483 0
M  V30 2156 O 204.946 4.30273 3.36938 0
M  V30 2157 H 202.04 0.628598 0.537395 0
M  V30 2158 H 204.586 1.64283 0.425331 0
M  V30 2159 H 203.358 3.69116 1.2988 0
M  V30 2160 H 202.981 2.83681 2.78587 0
M  V30 2161 N 203.978 -0.674533 1.42435 0
M  V30 2162 C 205.208 -1.46071 1.46105 0
M  V30 2163 C 205.616 -1.89067 0.0709605 0
M  V30 2164 O 204.959 -1.58731 -0.924677 0
M  V30 2165 C 205.021 -2.74145 2.32561 0
M  V30 2166 C 204.685 -2.53224 3.8043 0
M  V30 2167 C 205.682 -2.17809 4.72075 0
M  V30 2168 C 203.367 -2.6821 4.24698 0
M  V30 2169 C 205.361 -1.97648 6.05982 0
M  V30 2170 C 203.048 -2.47665 5.58664 0
M  V30 2171 C 204.046 -2.12437 6.49122 0
M  V30 2172 O 203.734 -1.9209 7.80613 0
M  V30 2173 H 203.466 -0.455959 0.499076 0
M  V30 2174 H 206.02 -0.836193 1.87609 0
M  V30 2175 H 204.25 -3.3908 1.85908 0
M  V30 2176 H 205.939 -3.36028 2.27683 0
M  V30 2177 H 206.705 -2.05826 4.39159 0
M  V30 2178 H 202.584 -2.94609 3.54579 0
M  V30 2179 H 206.128 -1.70075 6.7655 0
M  V30 2180 H 202.025 -2.59244 5.91154 0
M  V30 2181 H 202.793 -2.06686 7.91974 0
M  V30 2182 N 205.456 -1.28612 -0.910864 0
M  V30 2183 C 206.686 -1.1862 -1.69153 0
M  V30 2184 C 207.094 0.257324 -1.87442 0
M  V30 2185 O 206.437 1.18543 -1.40332 0
M  V30 2186 C 206.499 -1.81606 -3.10257 0
M  V30 2187 C 206.163 -3.30864 -3.15243 0
M  V30 2188 C 207.16 -4.27256 -2.96223 0
M  V30 2189 C 204.845 -3.71871 -3.37664 0
M  V30 2190 C 206.839 -5.62631 -2.99541 0
M  V30 2191 C 204.526 -5.07371 -3.40614 0
M  V30 2192 C 205.524 -6.02561 -3.21573 0
M  V30 2193 O 205.212 -7.35589 -3.2429 0
M  V30 2194 H 204.944 -0.412633 -0.535453 0
M  V30 2195 H 207.498 -1.70306 -1.14827 0
M  V30 2196 H 205.728 -1.24418 -3.66138 0
M  V30 2197 H 207.417 -1.66092 -3.70362 0
M  V30 2198 H 208.183 -3.9691 -2.78725 0
M  V30 2199 H 204.062 -2.98241 -3.5153 0
M  V30 2200 H 207.606 -6.36907 -2.84597 0
M  V30 2201 H 203.503 -5.37366 -3.57642 0
M  V30 2202 H 204.271 -7.44252 -3.40633 0
M  V30 2203 N 206.934 1.1197 -1.10907 0
M  V30 2204 C 208.159 1.87942 -0.877064 0
M  V30 2205 C 208.584 1.79341 0.567314 0
M  V30 2206 O 207.942 1.15184 1.40009 0
M  V30 2207 C 207.99 3.34926 -1.33629 0
M  V30 2208 O 207.094 4.09303 -0.504447 0
M  V30 2209 H 206.435 0.583785 -0.316371 0
M  V30 2210 H 208.965 1.4157 -1.47712 0
M  V30 2211 H 208.975 3.8577 -1.32837 0
M  V30 2212 H 207.65 3.40504 -2.3881 0
M  V30 2213 H 206.227 3.68393 -0.577993 0
M  V30 2214 N 208.412 0.89855 1.29475 0
M  V30 2215 C 209.362 0.346767 2.25348 0
M  V30 2216 C 210.346 -0.532509 1.51833 0
M  V30 2217 O 211.538 -0.374714 1.72988 0
M  V30 2218 C 208.667 -0.425681 3.40651 0
M  V30 2219 C 207.753 0.46845 4.21505 0
M  V30 2220 N 208.144 1.57514 4.80648 0
M  V30 2221 C 206.442 0.26603 4.45206 0
M  V30 2222 C 207.143 2.12889 5.41344 0
M  V30 2223 N 206.119 1.42208 5.24669 0
M  V30 2224 H 209.921 1.19219 2.68634 0
M  V30 2225 H 207.435 0.749473 1.44072 0
M  V30 2226 H 209.432 -0.837716 4.08397 0
M  V30 2227 H 208.092 -1.26838 2.98902 0
M  V30 2228 H 209.103 1.95789 4.79465 0
M  V30 2229 H 205.78 -0.538394 4.14014 0
M  V30 2230 H 207.17 3.05901 5.98226 0
M  V30 2231 N 209.89 -1.43072 0.660911 0
M  V30 2232 C 210.8 -2.34585 -0.0264163 0
M  V30 2233 C 211.816 -1.54316 -0.803898 0
M  V30 2234 O 212.992 -1.86939 -0.749391 0
M  V30 2235 C 210.057 -3.32689 -0.975639 0
M  V30 2236 C 209.118 -4.2886 -0.194236 0
M  V30 2237 C 208.351 -5.22278 -1.09825 0
M  V30 2238 O 208.574 -5.20299 -2.33763 0
M  V30 2239 O 207.508 -5.99228 -0.566513 0
M  V30 2240 H 211.334 -2.94869 0.727034 0
M  V30 2241 H 208.919 -1.43342 0.42111 0
M  V30 2242 H 210.801 -3.92995 -1.52094 0
M  V30 2243 H 209.476 -2.74898 -1.70918 0
M  V30 2244 H 208.383 -3.72011 0.394835 0
M  V30 2245 H 209.716 -4.89655 0.499899 0
M  V30 2246 N 211.368 -0.403325 -1.52352 0
M  V30 2247 C 212.784 -0.0539281 -1.59509 0
M  V30 2248 C 212.984 1.43307 -1.41652 0
M  V30 2249 O 212.04 2.19924 -1.24056 0
M  V30 2250 C 213.353 -0.543654 -2.95745 0
M  V30 2251 C 214.901 -0.501125 -3.08962 0
M  V30 2252 C 215.376 -0.967267 -4.47669 0
M  V30 2253 N 216.867 -0.923849 -4.53893 0
M  V30 2254 C 217.602 -1.25578 -5.5948 0
M  V30 2255 N 217.098 -1.65889 -6.72646 0
M  V30 2256 N 218.891 -1.17613 -5.49658 0
M  V30 2257 H 211.042 -1.37123 -1.62206 0
M  V30 2258 H 213.305 -0.56294 -0.76276 0
M  V30 2259 H 213.011 -1.58275 -3.14073 0
M  V30 2260 H 212.885 0.0498042 -3.77167 0
M  V30 2261 H 215.272 0.528909 -2.90321 0
M  V30 2262 H 215.353 -1.13056 -2.2946 0
M  V30 2263 H 214.997 -1.9956 -4.67053 0
M  V30 2264 H 214.927 -0.314698 -5.25659 0
M  V30 2265 H 217.418 -0.627403 -3.72655 0
M  V30 2266 H 217.731 -1.89543 -7.49195 0
M  V30 2267 H 216.076 -1.69787 -6.73942 0
M  V30 2268 H 219.267 -0.860115 -4.6013 0
M  V30 2269 H 219.44 -1.43812 -6.3184 0
M  V30 2270 N 212.846 1.57033 -0.133567 0
M  V30 2271 C 214.086 1.97575 0.523789 0
M  V30 2272 C 214.45 1.01605 1.62912 0
M  V30 2273 O 215.651 1.3114 2.3464 0
M  V30 2274 C 213.922 3.42256 1.02935 0
M  V30 2275 S 215.481 4.04817 1.69319 0
M  V30 2276 H 212.299 0.690427 0.169799 0
M  V30 2277 H 214.901 1.94234 -0.222101 0
M  V30 2278 H 213.605 4.09842 0.213917 0
M  V30 2279 H 213.136 3.4928 1.81017 0
M  V30 2280 H 215.151 3.96767 2.97977 0
M  V30 2281 N 214.325 -0.140222 1.56975 0
M  V30 2282 C 215.553 -0.866437 1.87884 0
M  V30 2283 C 215.968 -1.74428 0.722517 0
M  V30 2284 O 215.325 -1.79891 -0.30749 0
M  V30 2285 C 215.376 -1.71753 3.18093 0
M  V30 2286 O 215.097 -0.875056 4.29272 0
M  V30 2287 C 216.598 -2.55074 3.62563 0
M  V30 2288 H 213.818 -0.25019 0.622612 0
M  V30 2289 H 216.362 -0.130977 2.0408 0
M  V30 2290 H 214.517 -2.40598 3.03631 0
M  V30 2291 H 214.931 -1.46002 5.03769 0
M  V30 2292 H 216.405 -3.10356 4.5649 0
M  V30 2293 H 216.882 -3.31434 2.88181 0
M  V30 2294 H 217.488 -1.91509 3.79743 0
M  V30 2295 N 215.803 -1.52179 -0.40978 0
M  V30 2296 C 216.733 -1.78435 -1.5061 0
M  V30 2297 C 217.714 -0.635295 -1.57791 0
M  V30 2298 O 218.899 -0.880823 -1.73076 0
M  V30 2299 C 216.029 -1.93444 -2.88439 0
M  V30 2300 C 214.983 -3.09038 -2.96108 0
M  V30 2301 C 214.309 -3.09268 -4.36185 0
M  V30 2302 C 215.609 -4.48508 -2.67652 0
M  V30 2303 H 217.303 -2.70237 -1.28889 0
M  V30 2304 H 214.849 -1.30036 -0.618605 0
M  V30 2305 H 216.802 -2.10394 -3.65119 0
M  V30 2306 H 215.526 -0.983129 -3.11452 0
M  V30 2307 H 214.185 -2.91837 -2.21872 0
M  V30 2308 H 213.833 -2.11861 -4.56206 0
M  V30 2309 H 213.533 -3.86907 -4.42241 0
M  V30 2310 H 215.057 -3.28348 -5.14801 0
M  V30 2311 H 216.471 -4.65918 -3.34056 0
M  V30 2312 H 214.868 -5.28059 -2.85085 0
M  V30 2313 H 215.938 -4.56649 -1.63095 0
M  V30 2314 N 217.281 0.66697 -1.42791 0
M  V30 2315 C 218.53 1.42278 -1.42968 0
M  V30 2316 C 218.843 1.9553 -0.0524489 0
M  V30 2317 O 220.049 2.71414 0.068363 0
M  V30 2318 C 218.505 2.57418 -2.51524 0
M  V30 2319 C 218.113 2.10832 -3.9529 0
M  V30 2320 C 219.857 3.34878 -2.60877 0
M  V30 2321 C 217.764 3.23101 -4.95338 0
M  V30 2322 H 216.694 0.534533 -0.531781 0
M  V30 2323 H 219.345 0.721302 -1.68729 0
M  V30 2324 H 217.727 3.29971 -2.18941 0
M  V30 2325 H 218.901 1.4538 -4.37266 0
M  V30 2326 H 217.216 1.46289 -3.89857 0
M  V30 2327 H 219.813 4.18505 -3.32802 0
M  V30 2328 H 220.156 3.81993 -1.6549 0
M  V30 2329 H 220.689 2.69398 -2.92693 0
M  V30 2330 H 217.428 2.80969 -5.9223 0
M  V30 2331 H 216.948 3.87309 -4.57987 0
M  V30 2332 H 218.627 3.88447 -5.17415 0
M  V30 2333 N 218.759 1.29093 0.90403 0
M  V30 2334 C 220.036 1.075 1.63411 0
M  V30 2335 C 220.416 -0.382346 2.07609 0
M  V30 2336 O 219.764 -1.37031 1.82851 0
M  V30 2337 C 219.974 2.05858 2.81822 0
M  V30 2338 C 221.322 2.36539 3.52611 0
M  V30 2339 O 222.346 2.04019 2.91984 0
M  V30 2340 O 221.205 2.92085 4.61897 0
M  V30 2341 H 218.299 0.411547 0.717327 0
M  V30 2342 H 220.845 1.40449 0.952479 0
M  V30 2343 H 219.617 3.04037 2.46327 0
M  V30 2344 H 219.24 1.73613 3.57693 0
M  V30 2345 N 220.237 -1.11381 1.11499 0
M  V30 2346 C 221.2 -2.15622 0.777153 0
M  V30 2347 C 222.2 -1.59504 -0.203779 0
M  V30 2348 O 223.39 -1.74188 0.020782 0
M  V30 2349 C 220.522 -3.40556 0.153116 0
M  V30 2350 H 221.715 -2.47021 1.70061 0
M  V30 2351 H 219.268 -1.26577 0.916952 0
M  V30 2352 H 220.003 -3.14767 -0.780536 0
M  V30 2353 H 219.788 -3.8257 0.859238 0
M  V30 2354 H 221.278 -4.17546 -0.0671044 0
M  V30 2355 N 221.715 -0.905404 -1.28997 0
M  V30 2356 C 222.645 -0.404212 -2.29975 0
M  V30 2357 C 223.626 0.523784 -1.61835 0
M  V30 2358 O 224.811 0.433298 -1.89304 0
M  V30 2359 C 221.941 0.364042 -3.45387 0
M  V30 2360 C 220.895 -0.474048 -4.25367 0
M  V30 2361 C 220.221 0.422045 -5.33032 0
M  V30 2362 C 221.521 -1.72696 -4.92923 0
M  V30 2363 H 223.215 -1.24807 -2.72146 0
M  V30 2364 H 220.761 -0.601585 -1.30832 0
M  V30 2365 H 222.714 0.725447 -4.15109 0
M  V30 2366 H 221.438 1.24174 -3.02074 0
M  V30 2367 H 220.097 -0.81786 -3.57361 0
M  V30 2368 H 219.745 1.29804 -4.85963 0
M  V30 2369 H 219.445 -0.135057 -5.87445 0
M  V30 2370 H 220.969 0.779517 -6.05604 0
M  V30 2371 H 222.383 -1.43495 -5.55051 0
M  V30 2372 H 220.78 -2.22582 -5.57295 0
M  V30 2373 H 221.85 -2.45964 -4.17887 0
M  V30 2374 N 223.193 1.4272 -0.668489 0
M  V30 2375 C 224.141 2.32586 0.0254857 0
M  V30 2376 C 225.135 1.49471 0.797176 0
M  V30 2377 O 226.341 1.65583 0.705853 0
M  V30 2378 H 222.716 0.751514 0.0270339 0
M  V30 2379 H 224.687 2.88823 -0.749936 0
M  V30 2380 C 223.436 3.3397 0.967427 0
M  V30 2381 H 222.759 3.97961 0.383048 0
M  V30 2382 H 224.199 3.9945 1.42181 0
M  V30 2383 C 222.658 2.65744 2.0708 0
M  V30 2384 O 223.188 2.48454 3.15648 0
M  V30 2385 N 221.394 2.2487 1.8407 0
M  V30 2386 H 220.941 2.39132 0.95778 0
M  V30 2387 H 220.899 1.79552 2.58086 0
M  V30 2388 N 224.671 0.411399 1.52136 0
M  V30 2389 C 225.917 -0.163888 2.02137 0
M  V30 2390 C 226.25 -1.44597 1.29636 0
M  V30 2391 O 225.525 -1.90272 0.403353 0
M  V30 2392 C 225.808 -0.40927 3.57767 0
M  V30 2393 C 225.661 0.889643 4.40914 0
M  V30 2394 C 226.98 -1.19042 4.23694 0
M  V30 2395 H 224.099 -0.0580896 0.734707 0
M  V30 2396 H 226.741 0.54531 1.82007 0
M  V30 2397 H 224.891 -1.0134 3.7505 0
M  V30 2398 H 226.563 1.52575 4.35337 0
M  V30 2399 H 224.806 1.50011 4.07037 0
M  V30 2400 H 225.477 0.672314 5.4789 0
M  V30 2401 H 227.953 -0.678942 4.10524 0
M  V30 2402 H 226.829 -1.33086 5.32522 0
M  V30 2403 H 227.09 -2.21166 3.82803 0
M  V30 2404 N 226.149 -1.5696 0.141893 0
M  V30 2405 C 227.377 -2.00322 -0.517579 0
M  V30 2406 C 227.792 -1.02193 -1.58752 0
M  V30 2407 O 227.149 -0.0181619 -1.82491 0
M  V30 2408 C 227.2 -3.43618 -1.12289 0
M  V30 2409 O 226.921 -4.37995 -0.0956929 0
M  V30 2410 C 228.422 -4.02231 -1.86347 0
M  V30 2411 H 225.642 -0.657243 -0.135177 0
M  V30 2412 H 228.186 -2.03146 0.234973 0
M  V30 2413 H 226.341 -3.41662 -1.82609 0
M  V30 2414 H 226.755 -5.21729 -0.538469 0
M  V30 2415 H 228.229 -5.04509 -2.23997 0
M  V30 2416 H 228.706 -3.42655 -2.74744 0
M  V30 2417 H 229.312 -4.07802 -1.20737 0
M  V30 2418 N 227.627 0.131896 -1.57047 0
M  V30 2419 C 229.043 0.485031 -1.52051 0
M  V30 2420 C 229.243 1.82563 -0.85281 0
M  V30 2421 O 228.299 2.48817 -0.429694 0
M  V30 2422 C 229.612 0.481409 -2.96821 0
M  V30 2423 C 231.16 0.565868 -3.07842 0
M  V30 2424 C 231.635 0.592762 -4.54148 0
M  V30 2425 N 233.126 0.654564 -4.58552 0
M  V30 2426 C 233.861 0.696608 -5.69153 0
M  V30 2427 N 233.357 0.697078 -6.89284 0
M  V30 2428 N 235.15 0.738639 -5.57226 0
M  V30 2429 H 227.301 -0.746664 -1.98843 0
M  V30 2430 H 229.564 -0.273999 -0.90754 0
M  V30 2431 H 229.27 -0.435731 -3.4899 0
M  V30 2432 H 229.144 1.3139 -3.53577 0
M  V30 2433 H 231.531 1.47343 -2.55684 0
M  V30 2434 H 231.612 -0.29406 -2.54104 0
M  V30 2435 H 231.256 -0.310701 -5.06949 0
M  V30 2436 H 231.186 1.46939 -5.05684 0
M  V30 2437 H 233.677 0.660887 -3.72076 0
M  V30 2438 H 233.99 0.731426 -7.69331 0
M  V30 2439 H 232.335 0.66471 -6.91814 0
M  V30 2440 H 235.526 0.735545 -4.62285 0
M  V30 2441 H 235.699 0.767938 -6.43434 0
M  V30 2442 N 229.106 1.52395 0.401703 0
M  V30 2443 C 230.346 1.68498 1.15705 0
M  V30 2444 C 230.71 0.409748 1.87577 0
M  V30 2445 O 231.911 0.446983 2.65058 0
M  V30 2446 C 230.182 2.87789 2.11924 0
M  V30 2447 S 231.741 3.24415 2.95466 0
M  V30 2448 H 228.559 0.593267 0.391862 0
M  V30 2449 H 231.161 1.90408 0.443282 0
M  V30 2450 H 229.865 3.7884 1.57824 0
M  V30 2451 H 229.396 2.68175 2.87829 0
M  V30 2452 H 231.411 2.73614 4.13944 0
M  V30 2453 N 230.584 -0.659388 1.43143 0
M  V30 2454 C 231.547 -1.75432 1.47501 0
M  V30 2455 C 232.547 -1.56707 0.360512 0
M  V30 2456 O 233.737 -1.62717 0.622002 0
M  V30 2457 C 230.869 -3.14239 1.32162 0
M  V30 2458 H 232.062 -1.7295 2.45006 0
M  V30 2459 H 229.615 -0.870469 1.29817 0
M  V30 2460 H 230.35 -3.22336 0.356401 0
M  V30 2461 H 230.135 -3.29235 2.12948 0
M  V30 2462 H 231.625 -3.94094 1.3813 0
M  V30 2463 N 232.062 -1.29571 -0.897171 0
M  V30 2464 C 232.992 -1.17473 -2.01798 0
M  V30 2465 C 233.973 -0.068323 -1.69963 0
M  V30 2466 O 235.158 -0.248239 -1.92607 0
M  V30 2467 C 232.288 -0.853099 -3.36659 0
M  V30 2468 C 231.242 -1.9161 -3.82713 0
M  V30 2469 C 230.568 -1.44773 -5.14728 0
M  V30 2470 C 231.868 -3.32535 -4.02763 0
M  V30 2471 H 233.562 -2.11237 -2.12177 0
M  V30 2472 H 231.108 -1.01699 -1.01948 0
M  V30 2473 H 233.061 -0.755165 -4.14578 0
M  V30 2474 H 231.785 0.120236 -3.26379 0
M  V30 2475 H 230.444 -2.00346 -3.07013 0
M  V30 2476 H 230.092 -0.462995 -5.00865 0
M  V30 2477 H 229.792 -2.15865 -5.46513 0
M  V30 2478 H 231.316 -1.36334 -5.95185 0
M  V30 2479 H 232.73 -3.26626 -4.71156 0
M  V30 2480 H 231.127 -4.01607 -4.45905 0
M  V30 2481 H 232.197 -3.75326 -3.07016 0
M  V30 2482 N 233.54 1.10788 -1.12088 0
M  V30 2483 C 234.817 1.79136 -0.785476 0
M  V30 2484 C 235.197 1.98246 0.725377 0
M  V30 2485 O 234.545 1.57258 1.65778 0
M  V30 2486 C 234.755 3.12375 -1.55636 0
M  V30 2487 C 236.103 3.8731 -1.74001 0
M  V30 2488 O 237.127 3.22085 -1.52117 0
M  V30 2489 O 235.986 5.04369 -2.10415 0
M  V30 2490 H 233.08 0.776226 -0.285311 0
M  V30 2491 H 235.626 1.1747 -1.2247 0
M  V30 2492 H 234.398 2.93863 -2.5838 0
M  V30 2493 H 234.021 3.81758 -1.11114 0
M  V30 2494 N 235.018 0.912232 1.28515 0
M  V30 2495 C 236.265 0.544599 1.95039 0
M  V30 2496 C 236.593 -0.911435 1.71823 0
M  V30 2497 O 235.848 -1.66317 1.03137 0
M  V30 2498 C 236.147 0.798392 3.48368 0
M  V30 2499 C 235.813 2.23374 3.91682 0
M  V30 2500 C 234.475 2.62617 4.03219 0
M  V30 2501 C 236.827 3.16786 4.13879 0
M  V30 2502 C 234.155 3.94429 4.3433 0
M  V30 2503 C 236.507 4.48161 4.46469 0
M  V30 2504 C 235.171 4.8726 4.56217 0
M  V30 2505 H 234.441 0.199283 0.7137 0
M  V30 2506 H 237.088 1.15327 1.52879 0
M  V30 2507 H 235.393 0.106908 3.91654 0
M  V30 2508 H 237.09 0.493141 3.97956 0
M  V30 2509 H 233.68 1.91922 3.83228 0
M  V30 2510 H 237.864 2.87677 4.0442 0
M  V30 2511 H 233.12 4.24426 4.40082 0
M  V30 2512 H 237.294 5.20559 4.62592 0
M  V30 2513 H 234.921 5.89431 4.80078 0
M  V30 2514 N 236.496 -1.42363 0.676048 0
M  V30 2515 C 237.912 -1.55811 0.345718 0
M  V30 2516 C 238.112 -1.65544 -1.14879 0
M  V30 2517 O 237.168 -1.62306 -1.93424 0
M  V30 2518 C 238.481 -2.80746 1.07713 0
M  V30 2519 C 240.029 -2.9452 1.05958 0
M  V30 2520 C 240.504 -4.22318 1.77233 0
M  V30 2521 N 241.995 -4.29233 1.74108 0
M  V30 2522 C 242.73 -5.26935 2.26113 0
M  V30 2523 N 242.226 -6.30783 2.86505 0
M  V30 2524 N 244.019 -5.18741 2.1648 0
M  V30 2525 H 236.17 -1.34289 1.6456 0
M  V30 2526 H 238.433 -0.646506 0.69335 0
M  V30 2527 H 238.139 -2.79696 2.13221 0
M  V30 2528 H 238.013 -3.71676 0.64316 0
M  V30 2529 H 240.4 -2.95097 0.0128255 0
M  V30 2530 H 240.481 -2.04817 1.53244 0
M  V30 2531 H 240.125 -4.22502 2.81877 0
M  V30 2532 H 240.055 -5.10958 1.27396 0
M  V30 2533 H 242.546 -3.54814 1.30059 0
M  V30 2534 H 242.859 -7.01691 3.23805 0
M  V30 2535 H 241.204 -6.31341 2.90575 0
M  V30 2536 H 244.395 -4.36533 1.68987 0
M  V30 2537 H 244.568 -5.94721 2.57316 0
M  V30 2538 N 237.974 -0.419461 -1.51915 0
M  V30 2539 C 239.251 0.211999 -1.94448 0
M  V30 2540 C 239.631 1.61703 -1.35703 0
M  V30 2541 O 238.979 2.22102 -0.536931 0
M  V30 2542 C 239.189 0.207872 -3.4838 0
M  V30 2543 C 240.537 0.422192 -4.22496 0
M  V30 2544 O 241.561 0.286778 -3.55044 0
M  V30 2545 O 240.42 0.690009 -5.42126 0
M  V30 2546 H 237.514 0.139586 -0.815135 0
M  V30 2547 H 240.06 -0.476151 -1.62883 0
M  V30 2548 H 238.832 -0.775102 -3.83546 0
M  V30 2549 H 238.455 0.939688 -3.86336 0
M  V30 2550 N 239.452 1.56882 -0.150215 0
M  V30 2551 C 240.7 1.9584 0.499105 0
M  V30 2552 C 241.021 1.03623 1.65188 0
M  V30 2553 O 240.291 0.0984084 1.95653 0
M  V30 2554 H 238.871 0.723119 0.187373 0
M  V30 2555 H 241.533 1.9358 -0.226466 0
M  V30 2556 H 240.629 2.99638 0.873122 0
M  V30 2557 N 240.93 -0.123565 1.57115 0
M  V30 2558 C 241.84 -1.17074 2.033 0
M  V30 2559 C 242.856 -1.4561 0.952559 0
M  V30 2560 O 244.032 -1.56817 1.26374 0
M  V30 2561 C 241.097 -2.47857 2.42421 0
M  V30 2562 C 240.158 -2.26758 3.64526 0
M  V30 2563 C 239.391 -3.51305 4.01771 0
M  V30 2564 O 239.614 -4.5843 3.39409 0
M  V30 2565 O 238.548 -3.42578 4.94898 0
M  V30 2566 H 242.374 -0.808555 2.92739 0
M  V30 2567 H 239.959 -0.334027 1.45618 0
M  V30 2568 H 241.841 -3.2492 2.68338 0
M  V30 2569 H 240.516 -2.83558 1.5613 0
M  V30 2570 H 239.423 -1.47569 3.43765 0
M  V30 2571 H 240.756 -1.95963 4.51508 0
M  V30 2572 N 242.408 -1.52605 -0.393616 0
M  V30 2573 C 243.318 -1.79971 -1.50492 0
M  V30 2574 C 244.334 -0.686181 -1.59899 0
M  V30 2575 O 245.51 -0.973274 -1.76322 0
M  V30 2576 C 242.575 -1.95867 -2.86072 0
M  V30 2577 C 241.636 -3.19781 -2.86424 0
M  V30 2578 C 240.869 -3.34909 -4.15538 0
M  V30 2579 O 241.092 -2.54948 -5.10253 0
M  V30 2580 O 240.026 -4.28141 -4.23059 0
M  V30 2581 H 243.852 -2.74328 -1.30299 0
M  V30 2582 H 241.437 -1.3764 -0.581005 0
M  V30 2583 H 243.319 -2.08056 -3.66457 0
M  V30 2584 H 241.994 -1.04699 -3.063 0
M  V30 2585 H 240.901 -3.13038 -2.04837 0
M  V30 2586 H 242.234 -4.1078 -2.71147 0
M  V30 2587 N 243.887 0.651787 -1.4349 0
M  V30 2588 C 245.133 1.41376 -1.45398 0
M  V30 2589 C 245.466 1.94041 -0.0784823 0
M  V30 2590 O 244.741 1.72379 0.900878 0
M  V30 2591 C 245.024 2.59414 -2.49752 0
M  V30 2592 C 244.877 2.12232 -3.96582 0
M  V30 2593 C 246.196 3.61626 -2.50827 0
M  V30 2594 H 243.315 0.512719 -0.529422 0
M  V30 2595 H 245.957 0.738796 -1.75048 0
M  V30 2596 H 244.107 3.16997 -2.246 0
M  V30 2597 H 245.779 1.59639 -4.32797 0
M  V30 2598 H 244.022 1.43592 -4.09346 0
M  V30 2599 H 244.693 2.9712 -4.65214 0
M  V30 2600 H 247.169 3.13805 -2.7325 0
M  V30 2601 H 246.045 4.41766 -3.25783 0
M  V30 2602 H 246.306 4.14314 -1.5426 0
M  V30 2603 N 245.365 1.30045 0.890287 0
M  V30 2604 C 246.328 1.15963 1.977 0
M  V30 2605 C 247.328 0.0923777 1.60534 0
M  V30 2606 O 248.518 0.340071 1.70848 0
M  V30 2607 C 245.65 0.775451 3.31963 0
M  V30 2608 H 246.843 2.12502 2.11619 0
M  V30 2609 H 244.396 1.13366 1.07601 0
M  V30 2610 H 245.131 -0.189671 3.23745 0
M  V30 2611 H 244.916 1.54668 3.60306 0
M  V30 2612 H 246.406 0.700251 4.11687 0
M  V30 2613 N 246.843 -1.10192 1.12674 0
M  V30 2614 C 248.071 -1.85983 0.906527 0
M  V30 2615 C 248.486 -1.80783 -0.544333 0
M  V30 2616 O 247.843 -1.19834 -1.37645 0
M  V30 2617 C 247.894 -3.34281 1.37618 0
M  V30 2618 O 247.615 -3.39401 2.77017 0
M  V30 2619 C 249.116 -4.26938 1.19325 0
M  V30 2620 H 246.336 -0.587716 0.323775 0
M  V30 2621 H 248.88 -1.39284 1.49734 0
M  V30 2622 H 247.035 -3.78436 0.828539 0
M  V30 2623 H 247.449 -4.31838 2.97684 0
M  V30 2624 H 248.923 -5.29181 1.57071 0
M  V30 2625 H 249.4 -4.38995 0.134097 0
M  V30 2626 H 250.006 -3.8859 1.72852 0
M  V30 2627 N 248.321 -0.919034 -1.28029 0
M  V30 2628 C 249.569 -0.553838 -1.94363 0
M  V30 2629 C 249.89 0.906357 -1.72656 0
M  V30 2630 O 249.16 1.64143 -1.0693 0
M  V30 2631 H 247.74 -0.201834 -0.719216 0
M  V30 2632 H 250.402 -1.16954 -1.55909 0
M  V30 2633 H 249.498 -0.752758 -3.02886 0
M  V30 2634 N 249.799 1.42003 -0.683588 0
M  V30 2635 C 251.029 2.05448 -0.217866 0
M  V30 2636 C 251.437 1.51491 1.13346 0
M  V30 2637 O 250.78 0.653048 1.717 0
M  V30 2638 C 250.842 3.59399 -0.0850118 0
M  V30 2639 C 250.506 4.36093 -1.36645 0
M  V30 2640 C 251.503 4.66169 -2.30179 0
M  V30 2641 C 249.188 4.75578 -1.61649 0
M  V30 2642 C 251.182 5.34676 -3.46988 0
M  V30 2643 C 248.869 5.43824 -2.78745 0
M  V30 2644 C 249.867 5.73299 -3.71238 0
M  V30 2645 O 249.555 6.40142 -4.86285 0
M  V30 2646 H 249.287 0.668344 -0.101454 0
M  V30 2647 H 251.841 1.82974 -0.933248 0
M  V30 2648 H 250.071 3.80566 0.686031 0
M  V30 2649 H 251.76 4.04457 0.341973 0
M  V30 2650 H 252.526 4.36156 -2.12115 0
M  V30 2651 H 248.405 4.52025 -0.905243 0
M  V30 2652 H 251.949 5.57599 -4.19201 0
M  V30 2653 H 247.846 5.73254 -2.96732 0
M  V30 2654 H 248.614 6.58636 -4.85944 0
M  V30 2655 N 251.277 0.427512 1.51691 0
M  V30 2656 C 252.224 -0.388867 2.275 0
M  V30 2657 C 253.194 -1.02532 1.30677 0
M  V30 2658 O 254.379 -1.0461 1.59566 0
M  V30 2659 C 251.519 -1.48954 3.11298 0
M  V30 2660 C 250.632 -0.872194 4.23104 0
M  V30 2661 C 249.767 -1.94709 4.94228 0
M  V30 2662 C 248.806 -1.30766 5.97969 0
M  V30 2663 N 247.943 -2.32349 6.62539 0
M  V30 2664 H 252.783 0.263997 2.96828 0
M  V30 2665 H 250.32 0.142033 1.46413 0
M  V30 2666 H 252.278 -2.13887 3.58201 0
M  V30 2667 H 250.908 -2.11217 2.44105 0
M  V30 2668 H 249.96 -0.111419 3.80237 0
M  V30 2669 H 251.272 -0.365264 4.97461 0
M  V30 2670 H 250.426 -2.67327 5.44629 0
M  V30 2671 H 249.165 -2.48773 4.1948 0
M  V30 2672 H 248.17 -0.566902 5.4687 0
M  V30 2673 H 249.395 -0.774483 6.74669 0
M  V30 2674 H 247.341 -2.85511 5.90609 0
M  V30 2675 H 247.258 -1.8652 7.3263 0
M  V30 2676 H 248.526 -3.04481 7.17574 0
M  V30 2677 N 252.755 -1.56801 0.158532 0
M  V30 2678 C 253.703 -2.18638 -0.793729 0
M  V30 2679 C 254.697 -1.14669 -1.24689 0
M  V30 2680 O 255.903 -1.32895 -1.21403 0
M  V30 2681 H 252.278 -0.700226 -0.274204 0
M  V30 2682 H 254.249 -2.97367 -0.248095 0
M  V30 2683 C 252.998 -2.83139 -2.0181 0
M  V30 2684 H 252.321 -3.62863 -1.67841 0
M  V30 2685 H 253.761 -3.29894 -2.66357 0
M  V30 2686 C 252.22 -1.82244 -2.83353 0
M  V30 2687 O 252.75 -1.3 -3.80083 0
M  V30 2688 N 250.956 -1.51288 -2.48114 0
M  V30 2689 H 250.503 -1.93964 -1.69516 0
M  V30 2690 H 250.461 -0.840296 -3.02963 0
M  V30 2691 N 254.233 0.115231 -1.57178 0
M  V30 2692 C 255.166 1.17166 -1.95825 0
M  V30 2693 C 256.144 1.39912 -0.828463 0
M  V30 2694 O 257.328 1.54004 -1.08697 0
M  V30 2695 C 254.455 2.52478 -2.25771 0
M  V30 2696 C 253.501 2.46136 -3.48309 0
M  V30 2697 S 254.334 1.89736 -5.0076 0
M  V30 2698 C 255.49 3.26713 -5.33863 0
M  V30 2699 H 255.723 0.842103 -2.85124 0
M  V30 2700 H 253.256 0.322136 -1.51002 0
M  V30 2701 H 255.214 3.30332 -2.43702 0
M  V30 2702 H 253.875 2.82609 -1.37079 0
M  V30 2703 H 253.068 3.45819 -3.66641 0
M  V30 2704 H 252.67 1.76404 -3.29784 0
M  V30 2705 H 254.962 4.22935 -5.29275 0
M  V30 2706 H 255.905 3.13205 -6.35065 0
M  V30 2707 H 256.313 3.25316 -4.61335 0
M  V30 2708 N 255.711 1.52812 0.385517 0
M  V30 2709 C 256.941 1.71658 1.14966 0
M  V30 2710 C 257.349 0.436253 1.84102 0
M  V30 2711 O 256.692 -0.599313 1.73649 0
M  V30 2712 C 256.754 2.81309 2.23843 0
M  V30 2713 C 256.418 4.22313 1.74644 0
M  V30 2714 C 257.415 5.05352 1.22129 0
M  V30 2715 C 255.1 4.68648 1.80761 0
M  V30 2716 C 257.094 6.32807 0.763838 0
M  V30 2717 C 254.781 5.96086 1.34627 0
M  V30 2718 C 255.779 6.77996 0.825264 0
M  V30 2719 O 255.467 8.03045 0.370669 0
M  V30 2720 H 255.199 0.578022 0.350523 0
M  V30 2721 H 257.753 2.00263 0.456509 0
M  V30 2722 H 255.983 2.48133 2.96592 0
M  V30 2723 H 257.672 2.88524 2.85497 0
M  V30 2724 H 258.438 4.70736 1.16758 0
M  V30 2725 H 254.317 4.04979 2.20256 0
M  V30 2726 H 257.861 6.96689 0.356494 0
M  V30 2727 H 253.758 6.30205 1.39686 0
M  V30 2728 H 254.526 8.17021 0.491829 0
M  V30 2729 N 257.189 -0.644168 1.43834 0
M  V30 2730 C 258.414 -1.43642 1.49605 0
M  V30 2731 C 258.839 -1.8773 0.117913 0
M  V30 2732 O 258.197 -1.57938 -0.890239 0
M  V30 2733 C 258.245 -2.6416 2.45463 0
M  V30 2734 O 257.349 -3.63538 1.94714 0
M  V30 2735 H 256.69 -0.430329 0.50568 0
M  V30 2736 H 259.22 -0.787448 1.8884 0
M  V30 2737 H 259.23 -3.11864 2.63068 0
M  V30 2738 H 257.905 -2.31414 3.45572 0
M  V30 2739 H 256.482 -3.2273 1.86814 0
M  V30 2740 N 258.668 -1.30515 -0.883378 0
M  V30 2741 C 259.896 -1.22359 -1.66841 0
M  V30 2742 C 260.311 0.213296 -1.87591 0
M  V30 2743 O 259.668 1.14075 -1.42454 0
M  V30 2744 C 259.719 -1.95011 -3.04389 0
M  V30 2745 O 259.44 -3.3309 -2.84575 0
M  V30 2746 C 260.941 -1.93532 -3.98824 0
M  V30 2747 H 258.161 -0.423371 -0.520575 0
M  V30 2748 H 260.705 -1.72167 -1.10357 0
M  V30 2749 H 258.86 -1.48997 -3.57601 0
M  V30 2750 H 259.274 -3.69907 -3.71846 0
M  V30 2751 H 260.748 -2.48902 -4.92699 0
M  V30 2752 H 261.225 -0.914627 -4.29571 0
M  V30 2753 H 261.831 -2.39364 -3.51547 0
M  V30 2754 N 260.146 1.09593 -1.13257 0
M  V30 2755 C 261.094 2.18271 -0.803783 0
M  V30 2756 C 262.088 1.68054 0.213148 0
M  V30 2757 O 263.294 1.79862 0.0704699 0
M  V30 2758 H 259.669 0.711949 -0.242143 0
M  V30 2759 H 261.64 2.43235 -1.72856 0
M  V30 2760 C 260.389 3.46536 -0.28424 0
M  V30 2761 H 259.712 3.85545 -1.05807 0
M  V30 2762 H 261.152 4.23899 -0.0925945 0
M  V30 2763 C 259.611 3.22036 0.989684 0
M  V30 2764 O 260.141 3.44509 2.06584 0
M  V30 2765 N 258.347 2.7565 0.920086 0
M  V30 2766 H 257.894 2.57562 0.0442019 0
M  V30 2767 H 257.852 2.59635 1.77306 0
M  V30 2768 N 261.624 0.925811 1.2754 0
M  V30 2769 C 262.873 0.561084 1.93739 0
M  V30 2770 C 263.186 -0.901685 1.73577 0
M  V30 2771 O 264.392 -1.37511 2.34101 0
M  V30 2772 C 262.848 0.952668 3.47062 0
M  V30 2773 C 262.456 2.43599 3.75983 0
M  V30 2774 C 264.2 0.659103 4.19352 0
M  V30 2775 C 262.107 2.76707 5.22673 0
M  V30 2776 H 261.037 0.206122 0.725279 0
M  V30 2777 H 263.688 1.12637 1.44863 0
M  V30 2778 H 262.07 0.316053 3.94737 0
M  V30 2779 H 263.244 3.12035 3.39073 0
M  V30 2780 H 261.559 2.70125 3.16893 0
M  V30 2781 H 264.156 0.882985 5.27359 0
M  V30 2782 H 264.499 -0.403607 4.14339 0
M  V30 2783 H 265.032 1.25473 3.77494 0
M  V30 2784 H 261.771 3.8188 5.32774 0
M  V30 2785 H 261.291 2.12919 5.60737 0
M  V30 2786 H 262.97 2.6435 5.90532 0
M  V30 2787 N 263.102 -1.41638 0.69111 0
M  V30 2788 C 264.349 -2.01299 0.220193 0
M  V30 2789 C 264.677 -1.54715 -1.17871 0
M  V30 2790 O 263.932 -0.747193 -1.80874 0
M  V30 2791 C 264.231 -3.56714 0.221277 0
M  V30 2792 C 263.897 -4.22792 1.56709 0
M  V30 2793 C 262.559 -4.40557 1.93554 0
M  V30 2794 C 264.911 -4.59883 2.45268 0
M  V30 2795 C 262.239 -4.92688 3.18552 0
M  V30 2796 C 264.591 -5.13403 3.69595 0
M  V30 2797 C 263.255 -5.29379 4.06589 0
M  V30 2798 H 262.525 -0.736606 0.0805743 0
M  V30 2799 H 265.172 -1.69598 0.889319 0
M  V30 2800 H 263.477 -3.8818 -0.531391 0
M  V30 2801 H 265.174 -4.00678 -0.160547 0
M  V30 2802 H 261.764 -4.09336 1.2705 0
M  V30 2803 H 265.948 -4.45817 2.18084 0
M  V30 2804 H 261.204 -5.03242 3.47214 0
M  V30 2805 H 265.378 -5.41084 4.38407 0
M  V30 2806 H 263.005 -5.69537 5.03519 0
M  V30 2807 N 264.58 -0.43555 -1.51462 0
M  V30 2808 C 265.808 0.130242 -2.0649 0
M  V30 2809 C 266.223 1.36614 -1.30315 0
M  V30 2810 O 265.58 1.78869 -0.362223 0
M  V30 2811 C 265.631 0.454253 -3.58635 0
M  V30 2812 O 265.352 -0.73259 -4.31931 0
M  V30 2813 C 266.853 1.07091 -4.3017 0
M  V30 2814 H 264.073 0.00871669 -0.670943 0
M  V30 2815 H 266.617 -0.614117 -1.95061 0
M  V30 2816 H 264.772 1.14851 -3.69984 0
M  V30 2817 H 265.186 -0.455787 -5.22516 0
M  V30 2818 H 266.66 1.24764 -5.37716 0
M  V30 2819 H 267.137 2.05144 -3.88346 0
M  V30 2820 H 267.743 0.416089 -4.2326 0
M  V30 2821 N 266.058 1.56714 -0.166846 0
M  V30 2822 C 267.005 2.17746 0.765193 0
M  V30 2823 C 267.975 1.11614 1.23011 0
M  V30 2824 O 269.16 1.39745 1.29908 0
M  V30 2825 C 266.3 2.81882 1.9909 0
M  V30 2826 C 265.413 4.02462 1.56997 0
M  V30 2827 C 264.548 4.54537 2.749 0
M  V30 2828 C 263.587 5.67538 2.29275 0
M  V30 2829 N 262.724 6.14142 3.40255 0
M  V30 2830 H 267.564 2.97048 0.237952 0
M  V30 2831 H 265.101 1.4672 0.105725 0
M  V30 2832 H 267.059 3.17221 2.70974 0
M  V30 2833 H 265.689 2.05191 2.49192 0
M  V30 2834 H 264.741 3.72973 0.748037 0
M  V30 2835 H 266.053 4.84273 1.19503 0
M  V30 2836 H 265.207 4.92035 3.54946 0
M  V30 2837 H 263.946 3.71774 3.1565 0
M  V30 2838 H 262.951 5.29597 1.47674 0
M  V30 2839 H 264.176 6.52099 1.89588 0
M  V30 2840 H 262.122 5.3431 3.8059 0
M  V30 2841 H 262.039 6.9093 3.06841 0
M  V30 2842 H 263.307 6.56289 4.206 0
M  V30 2843 N 267.536 -0.106894 1.57237 0
M  V30 2844 C 268.952 -0.46078 1.52804 0
M  V30 2845 C 269.152 -1.81184 0.881746 0
M  V30 2846 O 268.208 -2.48102 0.469224 0
M  V30 2847 C 269.521 -0.434127 2.9755 0
M  V30 2848 C 271.069 -0.516821 3.08704 0
M  V30 2849 C 271.544 -0.520436 4.55033 0
M  V30 2850 N 273.035 -0.58153 4.59535 0
M  V30 2851 C 273.77 -0.605973 5.70189 0
M  V30 2852 N 273.266 -0.587331 6.90306 0
M  V30 2853 N 275.059 -0.649895 5.5833 0
M  V30 2854 H 267.21 0.778203 1.9763 0
M  V30 2855 H 269.473 0.288403 0.903066 0
M  V30 2856 H 269.179 0.491197 3.48253 0
M  V30 2857 H 269.053 -1.25748 3.55622 0
M  V30 2858 H 271.44 -1.43256 2.57995 0
M  V30 2859 H 271.521 0.334449 2.53604 0
M  V30 2860 H 271.165 0.391313 5.0639 0
M  V30 2861 H 271.095 -1.38876 5.07958 0
M  V30 2862 H 273.586 -0.60161 3.73081 0
M  V30 2863 H 273.899 -0.60894 7.70397 0
M  V30 2864 H 272.244 -0.554564 6.92784 0
M  V30 2865 H 275.435 -0.661907 4.63397 0
M  V30 2866 H 275.608 -0.665476 6.44574 0
M  V30 2867 N 269.014 -1.53014 -0.377408 0
M  V30 2868 C 269.977 -1.77957 -1.44444 0
M  V30 2869 C 270.977 -0.649763 -1.47087 0
M  V30 2870 O 272.167 -0.917897 -1.48055 0
M  V30 2871 C 269.299 -1.89089 -2.83651 0
M  V30 2872 H 270.492 -2.73243 -1.23606 0
M  V30 2873 H 268.045 -1.43912 -0.609844 0
M  V30 2874 H 268.78 -0.958293 -3.09818 0
M  V30 2875 H 268.565 -2.71254 -2.83132 0
M  V30 2876 H 270.055 -2.1002 -3.60945 0
M  V30 2877 N 270.492 0.636531 -1.44174 0
M  V30 2878 C 271.741 1.39213 -1.45954 0
M  V30 2879 C 272.054 1.95374 -0.0939119 0
M  V30 2880 O 273.26 2.71498 0.0107767 0
M  V30 2881 C 271.716 2.52025 -2.56927 0
M  V30 2882 C 271.324 2.024 -3.99673 0
M  V30 2883 C 273.068 3.29269 -2.67922 0
M  V30 2884 C 270.975 3.12521 -5.0208 0
M  V30 2885 H 269.905 0.523132 -0.542999 0
M  V30 2886 H 272.556 0.685349 -1.70221 0
M  V30 2887 H 270.938 3.25253 -2.25891 0
M  V30 2888 H 272.112 1.36073 -4.40251 0
M  V30 2889 H 270.427 1.37987 -3.92872 0
M  V30 2890 H 273.024 4.11352 -3.41605 0
M  V30 2891 H 273.367 3.78397 -1.73555 0
M  V30 2892 H 273.9 2.63129 -2.98342 0
M  V30 2893 H 270.639 2.68343 -5.98057 0
M  V30 2894 H 270.159 3.77507 -4.66099 0
M  V30 2895 H 271.838 3.77385 -5.25538 0
M  V30 2896 N 271.97 1.30982 0.876444 0
M  V30 2897 C 272.933 1.18054 1.96459 0
M  V30 2898 C 273.933 0.109399 1.60427 0
M  V30 2899 O 275.123 0.358173 1.70478 0
M  V30 2900 C 272.255 0.810616 3.31122 0
M  V30 2901 H 273.448 2.14735 2.09354 0
M  V30 2902 H 271.001 1.145 1.06392 0
M  V30 2903 H 271.736 -0.155322 3.23928 0
M  V30 2904 H 271.521 1.58481 3.58645 0
M  V30 2905 H 273.011 0.743876 4.10921 0
M  V30 2906 N 273.449 -1.08991 1.13837 0
M  V30 2907 C 274.379 -2.17771 0.842507 0
M  V30 2908 C 275.36 -1.6892 -0.20001 0
M  V30 2909 O 276.545 -1.94113 -0.0579731 0
M  V30 2910 C 273.675 -3.4589 0.312644 0
M  V30 2911 C 272.629 -4.08099 1.28992 0
M  V30 2912 C 271.955 -5.31098 0.619623 0
M  V30 2913 C 273.255 -4.50077 2.65005 0
M  V30 2914 H 274.949 -2.42777 1.75213 0
M  V30 2915 H 272.495 -1.16682 0.843875 0
M  V30 2916 H 274.448 -4.21297 0.0933043 0
M  V30 2917 H 273.172 -3.20419 -0.632382 0
M  V30 2918 H 271.831 -3.34717 1.49533 0
M  V30 2919 H 271.479 -5.0191 -0.33102 0
M  V30 2920 H 271.179 -5.73674 1.27167 0
M  V30 2921 H 272.703 -6.09224 0.409669 0
M  V30 2922 H 274.117 -5.16688 2.48407 0
M  V30 2923 H 272.514 -5.03553 3.26427 0
M  V30 2924 H 273.584 -3.62257 3.22332 0
M  V30 2925 N 274.927 -0.932562 -1.27047 0
M  V30 2926 C 276.176 -0.571351 -1.93439 0
M  V30 2927 C 276.489 0.892467 -1.74053 0
M  V30 2928 O 277.695 1.36267 -2.34826 0
M  V30 2929 C 276.151 -0.97106 -3.46552 0
M  V30 2930 C 275.759 -2.4559 -3.74686 0
M  V30 2931 C 277.503 -0.681333 -4.18997 0
M  V30 2932 C 275.41 -2.79475 -5.21198 0
M  V30 2933 H 274.34 -0.209966 -0.724176 0
M  V30 2934 H 276.991 -1.13403 -1.44263 0
M  V30 2935 H 275.373 -0.336983 -3.94564 0
M  V30 2936 H 276.547 -3.13829 -3.37414 0
M  V30 2937 H 274.862 -2.71802 -3.15456 0
M  V30 2938 H 277.459 -0.910939 -5.26883 0
M  V30 2939 H 277.802 0.381628 -4.14547 0
M  V30 2940 H 278.335 -1.27473 -3.76823 0
M  V30 2941 H 275.074 -3.847 -5.30741 0
M  V30 2942 H 274.594 -2.1589 -5.596 0
M  V30 2943 H 276.273 -2.67478 -5.89122 0
M  V30 2944 N 276.405 1.4127 -0.698611 0
M  V30 2945 C 277.633 2.05503 -0.239992 0
M  V30 2946 C 278.048 1.52584 1.11191 0
M  V30 2947 O 277.405 0.675323 1.69545 0
M  V30 2948 C 277.456 3.60987 -0.192429 0
M  V30 2949 O 277.177 4.1195 -1.49094 0
M  V30 2950 C 278.678 4.42371 0.28681 0
M  V30 2951 H 275.898 0.661748 -0.111045 0
M  V30 2952 H 278.442 1.80987 -0.95205 0
M  V30 2953 H 276.597 3.84533 0.470472 0
M  V30 2954 H 277.011 5.06018 -1.38007 0
M  V30 2955 H 278.485 5.51344 0.26896 0
M  V30 2956 H 278.962 4.18699 1.32619 0
M  V30 2957 H 279.568 4.23897 -0.345201 0
M  V30 2958 N 277.883 0.443576 1.51229 0
M  V30 2959 C 278.831 -0.37904 2.29491 0
M  V30 2960 C 279.825 -1.0153 1.35603 0
M  V30 2961 O 281.031 -0.94955 1.52917 0
M  V30 2962 H 277.406 -0.141053 0.738653 0
M  V30 2963 H 279.377 0.301799 2.9687 0
M  V30 2964 C 278.126 -1.46426 3.15364 0
M  V30 2965 H 277.449 -0.984037 3.87501 0
M  V30 2966 H 278.889 -2.01297 3.7317 0
M  V30 2967 C 277.348 -2.45099 2.31146 0
M  V30 2968 O 277.878 -3.49773 1.9754 0
M  V30 2969 N 276.084 -2.16139 1.94249 0
M  V30 2970 H 275.631 -1.31044 2.21777 0
M  V30 2971 H 275.589 -2.82398 1.38198 0
M  V30 2972 N 279.361 -1.56624 0.175154 0
M  V30 2973 C 280.311 -2.14747 -0.766004 0
M  V30 2974 C 281.295 -1.08275 -1.19018 0
M  V30 2975 O 282.487 -1.34388 -1.15191 0
M  V30 2976 C 279.616 -2.79478 -1.99366 0
M  V30 2977 C 278.702 -3.93114 -1.5913 0
M  V30 2978 N 279.093 -4.97752 -0.89872 0
M  V30 2979 C 277.391 -4.04345 -1.88204 0
M  V30 2980 C 278.092 -5.77473 -0.700012 0
M  V30 2981 N 277.068 -5.29207 -1.24263 0
M  V30 2982 H 280.87 -2.93015 -0.22793 0
M  V30 2983 H 278.384 -1.6238 -0.0253843 0
M  V30 2984 H 280.381 -3.19498 -2.67818 0
M  V30 2985 H 279.041 -2.02692 -2.53665 0
M  V30 2986 H 280.052 -5.14903 -0.556347 0
M  V30 2987 H 276.729 -3.38667 -2.44153 0
M  V30 2988 H 278.119 -6.71728 -0.152047 0
M  V30 2989 N 280.839 0.0985539 -1.57292 0
M  V30 2990 C 282.25 0.653457 -1.74891 0
M  V30 2991 C 282.601 1.7929 -0.796838 0
M  V30 2992 O 281.726 2.16385 0.0254886 0
M  V30 2993 C 282.321 1.19216 -3.17133 0
M  V30 2994 C 280.88 1.69316 -3.36168 0
M  V30 2995 C 280.027 0.601294 -2.70702 0
M  V30 2996 H 282.978 -0.127497 -1.58187 0
M  V30 2997 H 282.999 2.06154 -3.19814 0
M  V30 2998 H 282.511 0.362635 -3.86402 0
M  V30 2999 H 280.612 2.5468 -2.71972 0
M  V30 3000 H 280.725 1.78853 -4.44464 0
M  V30 3001 H 279.089 1.0399 -2.32504 0
M  V30 3002 H 279.872 -0.217592 -3.4261 0
M  V30 3003 N 282.317 1.53212 0.369288 0
M  V30 3004 C 283.728 1.60943 0.946276 0
M  V30 3005 C 284.079 0.47452 1.90375 0
M  V30 3006 O 283.204 -0.399597 2.12679 0
M  V30 3007 C 283.799 2.91715 1.72302 0
M  V30 3008 C 282.358 3.01792 2.24941 0
M  V30 3009 C 281.505 2.56211 1.06072 0
M  V30 3010 H 284.456 1.58007 0.148198 0
M  V30 3011 H 284.477 2.79309 2.58393 0
M  V30 3012 H 283.989 3.74295 1.0259 0
M  V30 3013 H 282.09 2.23791 2.97906 0
M  V30 3014 H 282.203 4.06803 2.53077 0
M  V30 3015 H 280.567 2.10998 1.4266 0
M  V30 3016 H 281.35 3.41206 0.378639 0
M  V30 3017 N 283.795 -0.628877 1.44509 0
M  V30 3018 C 284.705 -1.7694 1.54044 0
M  V30 3019 C 285.721 -1.68705 0.425987 0
M  V30 3020 O 286.897 -1.89442 0.683656 0
M  V30 3021 C 283.962 -3.13332 1.48405 0
M  V30 3022 C 283.023 -3.33181 2.70719 0
M  V30 3023 C 282.256 -4.63067 2.6534 0
M  V30 3024 O 282.479 -5.44017 1.71469 0
M  V30 3025 O 281.413 -4.85167 3.56226 0
M  V30 3026 H 285.239 -1.71848 2.50403 0
M  V30 3027 H 282.824 -0.790378 1.26781 0
M  V30 3028 H 284.706 -3.94634 1.47791 0
M  V30 3029 H 283.381 -3.1896 0.551898 0
M  V30 3030 H 282.288 -2.51549 2.769 0
M  V30 3031 H 283.621 -3.32416 3.62988 0
M  V30 3032 N 285.273 -1.31445 -0.869486 0
M  V30 3033 C 286.22 -1.19135 -1.97675 0
M  V30 3034 C 287.19 -0.0770266 -1.65921 0
M  V30 3035 O 288.375 -0.249972 -1.89155 0
M  V30 3036 C 285.515 -0.905149 -3.33018 0
M  V30 3037 C 284.628 -2.10285 -3.77365 0
M  V30 3038 C 283.763 -1.75339 -5.01427 0
M  V30 3039 C 282.802 -2.91515 -5.38224 0
M  V30 3040 N 281.939 -2.56762 -6.53466 0
M  V30 3041 H 286.779 -2.13853 -2.07535 0
M  V30 3042 H 284.316 -1.06379 -1.01597 0
M  V30 3043 H 286.274 -0.719765 -4.10944 0
M  V30 3044 H 284.904 0.00519624 -3.228 0
M  V30 3045 H 283.956 -2.39899 -2.95216 0
M  V30 3046 H 285.268 -2.97237 -4.00564 0
M  V30 3047 H 284.422 -1.53266 -5.87022 0
M  V30 3048 H 283.161 -0.855801 -4.80133 0
M  V30 3049 H 282.166 -3.14237 -4.51149 0
M  V30 3050 H 283.391 -3.81985 -5.61484 0
M  V30 3051 H 281.337 -1.69526 -6.33717 0
M  V30 3052 H 281.254 -3.37243 -6.76612 0
M  V30 3053 H 282.522 -2.38083 -7.42251 0
M  V30 3054 N 286.751 1.08385 -1.14413 0
M  V30 3055 C 288.162 1.62258 -0.923535 0
M  V30 3056 C 288.513 1.88691 0.537595 0
M  V30 3057 O 287.638 1.64454 1.40655 0
M  V30 3058 C 288.233 2.94781 -1.67002 0
M  V30 3059 C 286.792 3.45437 -1.495 0
M  V30 3060 C 285.939 2.19668 -1.69238 0
M  V30 3061 H 288.89 0.916086 -1.2959 0
M  V30 3062 H 288.911 3.63229 -1.13334 0
M  V30 3063 H 288.423 2.7551 -2.73342 0
M  V30 3064 H 286.524 3.6981 -0.455097 0
M  V30 3065 H 286.637 4.22173 -2.2651 0
M  V30 3066 H 285.001 2.28849 -1.11804 0
M  V30 3067 H 285.784 2.02905 -2.7692 0
M  V30 3068 N 288.23 0.939286 1.26551 0
M  V30 3069 C 289.16 0.465044 2.28822 0
M  V30 3070 C 290.141 -0.480692 1.63167 0
M  V30 3071 O 291.326 -0.382955 1.90387 0
M  V30 3072 C 288.456 -0.27234 3.46231 0
M  V30 3073 C 287.41 0.58666 4.2396 0
M  V30 3074 C 286.736 -0.280573 5.33963 0
M  V30 3075 C 288.036 1.85704 4.88171 0
M  V30 3076 H 289.73 1.31979 2.68741 0
M  V30 3077 H 287.276 0.636061 1.29191 0
M  V30 3078 H 289.229 -0.615133 4.16886 0
M  V30 3079 H 287.953 -1.16121 3.0526 0
M  V30 3080 H 286.612 0.91232 3.55067 0
M  V30 3081 H 286.26 -1.16874 4.89234 0
M  V30 3082 H 285.96 0.29076 5.8688 0
M  V30 3083 H 287.484 -0.618678 6.07458 0
M  V30 3084 H 288.898 1.58161 5.51052 0
M  V30 3085 H 287.295 2.37279 5.51197 0
M  V30 3086 H 288.365 2.56957 4.11219 0
M  V30 3087 N 289.708 -1.40897 0.706093 0
M  V30 3088 C 290.955 -2.01054 0.241531 0
M  V30 3089 C 291.283 -1.55956 -1.16223 0
M  V30 3090 O 290.538 -0.766336 -1.80072 0
M  V30 3091 C 290.837 -3.5646 0.259099 0
M  V30 3092 C 290.503 -4.21106 1.61184 0
M  V30 3093 C 289.165 -4.38479 1.98216 0
M  V30 3094 C 291.517 -4.57256 2.50132 0
M  V30 3095 C 288.845 -4.89282 3.2376 0
M  V30 3096 C 291.197 -5.09454 3.7502 0
M  V30 3097 C 289.861 -5.25037 4.12181 0
M  V30 3098 H 289.131 -0.73571 0.0883825 0
M  V30 3099 H 291.778 -1.68645 0.907257 0
M  V30 3100 H 290.083 -3.88721 -0.490189 0
M  V30 3101 H 291.78 -4.00826 -0.11804 0
M  V30 3102 H 288.37 -4.07966 1.31384 0
M  V30 3103 H 292.554 -4.43479 2.228 0
M  V30 3104 H 287.81 -4.99531 3.52532 0
M  V30 3105 H 291.984 -5.36404 4.44121 0
M  V30 3106 H 289.611 -5.64164 5.09532 0
M  V30 3107 N 291.186 -0.45159 -1.50991 0
M  V30 3108 C 292.116 0.342898 -2.30969 0
M  V30 3109 C 293.097 1.00815 -1.37005 0
M  V30 3110 O 294.282 1.00907 -1.65926 0
M  V30 3111 C 291.412 1.43637 -3.16205 0
M  V30 3112 C 290.366 0.893818 -4.18563 0
M  V30 3113 C 289.692 2.08411 -4.92411 0
M  V30 3114 C 290.992 -0.0815568 -5.22236 0
M  V30 3115 H 292.686 -0.324556 -2.97636 0
M  V30 3116 H 290.232 -0.157531 -1.43136 0
M  V30 3117 H 292.185 1.9995 -3.70942 0
M  V30 3118 H 290.909 2.13232 -2.47386 0
M  V30 3119 H 289.568 0.352798 -3.64898 0
M  V30 3120 H 289.216 2.76658 -4.20082 0
M  V30 3121 H 288.916 1.72741 -5.61636 0
M  V30 3122 H 290.44 2.65251 -5.49976 0
M  V30 3123 H 291.854 0.391742 -5.7196 0
M  V30 3124 H 290.251 -0.351551 -5.99069 0
M  V30 3125 H 291.321 -1.01374 -4.74185 0
M  V30 3126 N 292.664 1.56529 -0.183458 0
M  V30 3127 C 293.894 2.01331 0.463612 0
M  V30 3128 C 294.302 1.06278 1.5653 0
M  V30 3129 O 293.645 0.0577976 1.83609 0
M  V30 3130 C 293.707 3.42547 1.09096 0
M  V30 3131 C 293.371 4.56817 0.129442 0
M  V30 3132 C 294.368 5.15734 -0.656807 0
M  V30 3133 C 292.053 5.02295 0.02174 0
M  V30 3134 C 294.047 6.1857 -1.53784 0
M  V30 3135 C 291.734 6.04978 -0.862864 0
M  V30 3136 C 292.732 6.62988 -1.64123 0
M  V30 3137 O 292.42 7.63677 -2.51103 0
M  V30 3138 H 292.152 0.664917 0.121907 0
M  V30 3139 H 294.706 2.034 -0.285954 0
M  V30 3140 H 292.936 3.37428 1.88889 0
M  V30 3141 H 294.625 3.71228 1.64148 0
M  V30 3142 H 295.391 4.81473 -0.583839 0
M  V30 3143 H 291.27 4.56847 0.617392 0
M  V30 3144 H 294.814 6.63777 -2.14583 0
M  V30 3145 H 290.711 6.38663 -0.93699 0
M  V30 3146 H 291.479 7.81049 -2.44753 0
M  V30 3147 N 294.142 -0.090211 1.57342 0
M  V30 3148 C 295.072 -1.10976 2.05443 0
M  V30 3149 C 296.053 -1.41482 0.944284 0
M  V30 3150 O 297.238 -1.51428 1.21586 0
M  V30 3151 C 294.368 -2.42831 2.48295 0
M  V30 3152 C 293.322 -2.26721 3.63018 0
M  V30 3153 C 292.648 -3.63796 3.91863 0
M  V30 3154 C 293.948 -1.7037 4.93732 0
M  V30 3155 H 295.642 -0.709564 2.9087 0
M  V30 3156 H 293.188 -0.339874 1.39932 0
M  V30 3157 H 295.141 -3.14431 2.80555 0
M  V30 3158 H 293.865 -2.84795 1.59873 0
M  V30 3159 H 292.524 -1.57565 3.31012 0
M  V30 3160 H 292.172 -4.03297 3.00601 0
M  V30 3161 H 291.872 -3.53861 4.69101 0
M  V30 3162 H 293.396 -4.36855 4.26603 0
M  V30 3163 H 294.81 -2.31816 5.24342 0
M  V30 3164 H 293.207 -1.71181 5.75167 0
M  V30 3165 H 294.277 -0.663542 4.80339 0
M  V30 3166 N 295.62 -1.53406 -0.361157 0
M  V30 3167 C 296.583 -1.79479 -1.42548 0
M  V30 3168 C 297.583 -0.665327 -1.4639 0
M  V30 3169 O 298.773 -0.933549 -1.47073 0
M  V30 3170 C 295.905 -1.92087 -2.8163 0
M  V30 3171 H 297.098 -2.74538 -1.20701 0
M  V30 3172 H 294.651 -1.4455 -0.594546 0
M  V30 3173 H 295.386 -0.991099 -3.08784 0
M  V30 3174 H 295.171 -2.74241 -2.80239 0
M  V30 3175 H 296.661 -2.13836 -3.58697 0
M  V30 3176 N 297.098 0.621204 -1.44841 0
M  V30 3177 C 298.028 1.74366 -1.55303 0
M  V30 3178 C 299.009 1.65199 -0.405385 0
M  V30 3179 O 300.194 1.83807 -0.626787 0
M  V30 3180 C 297.324 3.12931 -1.50637 0
M  V30 3181 C 296.278 3.36896 -2.63979 0
M  V30 3182 C 295.604 4.75594 -2.44366 0
M  V30 3183 C 296.904 3.28483 -4.06074 0
M  V30 3184 H 298.598 1.65867 -2.49256 0
M  V30 3185 H 296.144 0.796558 -1.19962 0
M  V30 3186 H 298.097 3.9124 -1.56555 0
M  V30 3187 H 296.821 3.22237 -0.532057 0
M  V30 3188 H 295.48 2.60972 -2.57467 0
M  V30 3189 H 295.128 4.81616 -1.45105 0
M  V30 3190 H 294.828 4.92586 -3.20364 0
M  V30 3191 H 296.352 5.5612 -2.52117 0
M  V30 3192 H 297.766 3.96684 -4.13902 0
M  V30 3193 H 296.163 3.57008 -4.82354 0
M  V30 3194 H 297.233 2.26133 -4.28943 0
M  V30 3195 N 298.576 1.31904 0.862503 0
M  V30 3196 C 299.508 1.16005 1.97675 0
M  V30 3197 C 300.521 0.0971234 1.6251 0
M  V30 3198 O 301.71 0.345337 1.75128 0
M  V30 3199 C 298.81 0.751791 3.30456 0
M  V30 3200 C 297.983 1.90133 3.93914 0
M  V30 3201 C 297.042 1.4779 5.05019 0
M  V30 3202 O 296.068 2.18872 5.25437 0
M  V30 3203 N 297.27 0.369491 5.79323 0
M  V30 3204 H 300.035 2.11982 2.11857 0
M  V30 3205 H 297.596 1.24337 1.03691 0
M  V30 3206 H 299.588 0.451084 4.02178 0
M  V30 3207 H 298.158 -0.116593 3.12382 0
M  V30 3208 H 297.378 2.36896 3.15078 0
M  V30 3209 H 298.666 2.67111 4.33047 0
M  V30 3210 H 298.064 -0.222299 5.65263 0
M  V30 3211 H 296.621 0.128354 6.51674 0
M  V30 3212 N 300.054 -1.07777 1.14986 0
M  V30 3213 C 301.279 -1.84558 0.946213 0
M  V30 3214 C 301.704 -1.81323 -0.500362 0
M  V30 3215 O 301.062 -1.20301 -1.35637 0
M  V30 3216 C 301.11 -3.29736 1.45968 0
M  V30 3217 O 300.214 -4.07149 0.65601 0
M  V30 3218 H 299.555 -0.571641 0.33782 0
M  V30 3219 H 302.085 -1.35991 1.52865 0
M  V30 3220 H 302.095 -3.80574 1.47063 0
M  V30 3221 H 300.77 -3.31406 2.51283 0
M  V30 3222 H 299.347 -3.65994 0.714322 0
M  V30 3223 N 301.532 -0.945985 -1.26051 0
M  V30 3224 C 302.778 -0.597002 -1.93814 0
M  V30 3225 C 303.111 0.862484 -1.73997 0
M  V30 3226 O 302.386 1.61769 -1.07986 0
M  V30 3227 C 302.669 -0.945937 -3.47454 0
M  V30 3228 C 302.522 -2.46052 -3.76535 0
M  V30 3229 C 303.841 -0.464785 -4.37639 0
M  V30 3230 H 300.96 -0.218366 -0.703907 0
M  V30 3231 H 303.602 -1.18107 -1.48831 0
M  V30 3232 H 301.752 -0.448902 -3.85898 0
M  V30 3233 H 303.424 -3.03065 -3.47778 0
M  V30 3234 H 301.667 -2.90194 -3.22444 0
M  V30 3235 H 302.338 -2.65517 -4.83947 0
M  V30 3236 H 304.814 -0.891016 -4.06448 0
M  V30 3237 H 303.69 -0.737712 -5.4392 0
M  V30 3238 H 303.951 0.635274 -4.37512 0
M  V30 3239 N 303.011 1.40521 -0.713556 0
M  V30 3240 C 303.961 2.27971 -0.036165 0
M  V30 3241 C 304.945 1.43151 0.734623 0
M  V30 3242 O 306.137 1.66261 0.607158 0
M  V30 3243 C 303.266 3.31661 0.886331 0
M  V30 3244 C 302.352 4.23955 0.110836 0
M  V30 3245 N 302.743 4.97641 -0.904847 0
M  V30 3246 C 301.041 4.44674 0.343692 0
M  V30 3247 C 301.742 5.65322 -1.37064 0
M  V30 3248 N 300.718 5.39162 -0.693168 0
M  V30 3249 H 304.52 2.82384 -0.814645 0
M  V30 3250 H 302.034 1.52948 -0.545963 0
M  V30 3251 H 304.031 3.93154 1.38692 0
M  V30 3252 H 302.691 2.78808 1.66421 0
M  V30 3253 H 303.702 5.01689 -1.28563 0
M  V30 3254 H 300.379 4.02801 1.09805 0
M  V30 3255 H 301.769 6.34359 -2.21447 0
M  V30 3256 N 304.489 0.459591 1.5075 0
M  V30 3257 C 305.399 -0.34613 2.32033 0
M  V30 3258 C 306.415 -1.00686 1.41909 0
M  V30 3259 O 307.591 -0.997361 1.7497 0
M  V30 3260 C 304.656 -1.42029 3.16273 0
M  V30 3261 C 303.717 -0.777362 4.22203 0
M  V30 3262 C 302.95 -1.80034 5.02418 0
M  V30 3263 O 303.173 -3.02544 4.83553 0
M  V30 3264 O 302.107 -1.37853 5.85901 0
M  V30 3265 H 305.933 0.318054 3.0203 0
M  V30 3266 H 303.518 0.221663 1.47746 0
M  V30 3267 H 305.4 -2.04275 3.68578 0
M  V30 3268 H 304.075 -2.06815 2.49016 0
M  V30 3269 H 302.982 -0.116256 3.73919 0
M  V30 3270 H 304.315 -0.172634 4.91897 0
M  V30 3271 N 305.967 -1.56429 0.191757 0
M  V30 3272 C 307.378 -1.83912 -0.321428 0
M  V30 3273 C 307.729 -1.11231 -1.61623 0
M  V30 3274 O 306.854 -0.37202 -2.13178 0
M  V30 3275 C 307.449 -3.33624 -0.589961 0
M  V30 3276 C 306.008 -3.6153 -1.04753 0
M  V30 3277 C 305.155 -2.7714 -0.0943327 0
M  V30 3278 H 308.106 -1.53161 0.415612 0
M  V30 3279 H 308.127 -3.52213 -1.43966 0
M  V30 3280 H 307.639 -3.86495 0.352588 0
M  V30 3281 H 305.74 -3.14089 -2.00447 0
M  V30 3282 H 305.853 -4.69737 -0.942549 0
M  V30 3283 H 304.217 -2.47638 -0.595589 0
M  V30 3284 H 305 -3.32799 0.842601 0
M  V30 3285 N 307.445 0.0818655 -1.57387 0
M  V30 3286 C 308.375 1.09885 -2.06028 0
M  V30 3287 C 309.356 1.4098 -0.951774 0
M  V30 3288 O 310.541 1.50781 -1.22387 0
M  V30 3289 C 307.671 2.4151 -2.4958 0
M  V30 3290 C 306.625 2.24792 -3.64215 0
M  V30 3291 C 305.951 3.61712 -3.93787 0
M  V30 3292 C 307.251 1.67749 -4.94629 0
M  V30 3293 H 308.945 0.694128 -2.91243 0
M  V30 3294 H 306.491 0.332448 -1.4011 0
M  V30 3295 H 308.444 3.12939 -2.82219 0
M  V30 3296 H 307.168 2.83943 -1.61381 0
M  V30 3297 H 305.827 1.55807 -3.31843 0
M  V30 3298 H 305.475 4.01697 -3.02735 0
M  V30 3299 H 305.175 3.51368 -4.70971 0
M  V30 3300 H 306.699 4.34587 -4.28913 0
M  V30 3301 H 308.113 2.29032 -5.25564 0
M  V30 3302 H 306.51 1.68128 -5.76067 0
M  V30 3303 H 307.58 0.638059 -4.80684 0
M  V30 3304 N 308.923 1.53595 0.353017 0
M  V30 3305 C 309.855 1.77219 1.45348 0
M  V30 3306 C 310.868 0.65324 1.49119 0
M  V30 3307 O 312.057 0.929775 1.52373 0
M  V30 3308 C 309.157 1.84841 2.84055 0
M  V30 3309 C 308.33 3.14649 3.03833 0
M  V30 3310 C 307.389 3.13351 4.22727 0
M  V30 3311 O 306.415 3.87107 4.17297 0
M  V30 3312 N 307.617 2.35052 5.30783 0
M  V30 3313 H 310.382 2.72178 1.25457 0
M  V30 3314 H 307.943 1.52528 0.542833 0
M  V30 3315 H 309.935 1.81435 3.61751 0
M  V30 3316 H 308.505 0.971114 2.97133 0
M  V30 3317 H 307.725 3.31256 2.13689 0
M  V30 3318 H 309.013 4.00411 3.13925 0
M  V30 3319 H 308.411 1.74663 5.38061 0
M  V30 3320 H 306.968 2.37453 6.07009 0
M  V30 3321 N 310.401 -0.613514 1.45168 0
M  V30 3322 C 311.647 -1.37471 1.49096 0
M  V30 3323 C 311.98 -1.93765 0.129901 0
M  V30 3324 O 311.255 -1.74707 -0.854858 0
M  V30 3325 C 311.538 -2.52701 2.56542 0
M  V30 3326 C 311.391 -2.01643 4.0207 0
M  V30 3327 C 312.71 -3.54849 2.60327 0
M  V30 3328 H 309.829 -0.498502 0.54283 0
M  V30 3329 H 312.471 -0.692125 1.76945 0
M  V30 3330 H 310.621 -3.10931 2.32926 0
M  V30 3331 H 312.293 -1.48108 4.36877 0
M  V30 3332 H 310.536 -1.32688 4.13009 0
M  V30 3333 H 311.207 -2.84681 4.72928 0
M  V30 3334 H 313.683 -3.0645 2.81474 0
M  V30 3335 H 312.559 -4.32973 3.37381 0
M  V30 3336 H 312.82 -4.10079 1.6519 0
M  V30 3337 N 311.879 -1.3236 -0.855495 0
M  V30 3338 C 313.29 -1.2056 -1.42556 0
M  V30 3339 C 313.641 0.182209 -1.95352 0
M  V30 3340 O 312.766 1.08088 -1.87472 0
M  V30 3341 C 313.361 -2.1826 -2.59129 0
M  V30 3342 C 311.92 -2.10351 -3.12137 0
M  V30 3343 C 311.067 -2.06674 -1.84882 0
M  V30 3344 H 314.018 -1.442 -0.662727 0
M  V30 3345 H 314.039 -1.78064 -3.36264 0
M  V30 3346 H 313.551 -3.19257 -2.20673 0
M  V30 3347 H 311.652 -1.12599 -3.55179 0
M  V30 3348 H 311.765 -3.00135 -3.73438 0
M  V30 3349 H 310.129 -1.51901 -2.04446 0
M  V30 3350 H 310.912 -3.09451 -1.48643 0
M  V30 3351 N 313.357 1.07166 -1.15556 0
M  V30 3352 C 314.267 2.17947 -0.868116 0
M  V30 3353 C 315.283 1.73297 0.156297 0
M  V30 3354 O 316.459 2.01392 -0.0182327 0
M  V30 3355 C 313.524 3.44789 -0.36355 0
M  V30 3356 C 312.585 4.03996 -1.45209 0
M  V30 3357 C 311.818 5.24783 -0.971508 0
M  V30 3358 O 312.041 5.70109 0.182194 0
M  V30 3359 O 310.975 5.75715 -1.75603 0
M  V30 3360 H 314.801 2.4503 -1.79427 0
M  V30 3361 H 312.386 1.16539 -0.934824 0
M  V30 3362 H 314.268 4.21307 -0.0887113 0
M  V30 3363 H 312.943 3.19253 0.534708 0
M  V30 3364 H 311.85 3.29009 -1.78056 0
M  V30 3365 H 313.183 4.33808 -2.32533 0
M  V30 3366 N 314.835 0.952656 1.25548 0
M  V30 3367 C 315.745 0.47782 2.29682 0
M  V30 3368 C 316.761 -0.453859 1.67977 0
M  V30 3369 O 317.937 -0.330587 1.98668 0
M  V30 3370 C 315.002 -0.238655 3.45878 0
M  V30 3371 C 314.063 0.730994 4.23031 0
M  V30 3372 C 313.296 0.0486165 5.33678 0
M  V30 3373 O 313.519 -1.16612 5.58353 0
M  V30 3374 O 312.453 0.733152 5.97418 0
M  V30 3375 H 316.279 1.34312 2.72386 0
M  V30 3376 H 313.864 0.719026 1.30959 0
M  V30 3377 H 315.746 -0.641774 4.16484 0
M  V30 3378 H 314.421 -1.07916 3.05181 0
M  V30 3379 H 313.328 1.18428 3.5486 0
M  V30 3380 H 314.661 1.53946 4.67506 0
M  V30 3381 N 316.313 -1.40141 0.720998 0
M  V30 3382 C 317.543 -2.04798 0.27226 0
M  V30 3383 C 317.951 -1.54442 -1.09289 0
M  V30 3384 O 317.294 -0.698342 -1.69908 0
M  V30 3385 C 317.356 -3.59048 0.18027 0
M  V30 3386 C 317.02 -4.32317 1.48159 0
M  V30 3387 C 318.017 -4.59902 2.42458 0
M  V30 3388 C 315.702 -4.71125 1.74202 0
M  V30 3389 C 317.696 -5.25288 3.61042 0
M  V30 3390 C 315.383 -5.36242 2.93066 0
M  V30 3391 C 316.381 -5.63254 3.86308 0
M  V30 3392 O 316.069 -6.27024 5.03086 0
M  V30 3393 H 315.801 -0.665419 0.119139 0
M  V30 3394 H 318.355 -1.80436 0.981432 0
M  V30 3395 H 316.585 -3.82251 -0.58489 0
M  V30 3396 H 318.274 -4.05221 -0.234618 0
M  V30 3397 H 319.04 -4.30379 2.23604 0
M  V30 3398 H 314.919 -4.49466 1.02477 0
M  V30 3399 H 318.463 -5.46289 4.33837 0
M  V30 3400 H 314.36 -5.65185 3.11826 0
M  V30 3401 H 315.128 -6.4552 5.03235 0
M  V30 3402 N 317.792 -0.46758 -1.50504 0
M  V30 3403 C 318.722 0.318381 -2.31319 0
M  V30 3404 C 319.703 0.993564 -1.38066 0
M  V30 3405 O 320.888 0.991411 -1.66987 0
M  V30 3406 C 318.018 1.40275 -3.17711 0
M  V30 3407 C 316.972 0.849373 -4.19487 0
M  V30 3408 C 316.298 2.03177 -4.94594 0
M  V30 3409 C 317.598 -0.136942 -5.2212 0
M  V30 3410 H 319.292 -0.356106 -2.97275 0
M  V30 3411 H 316.838 -0.172703 -1.42961 0
M  V30 3412 H 318.791 1.96004 -3.73042 0
M  V30 3413 H 317.515 2.10596 -2.49634 0
M  V30 3414 H 316.174 0.314076 -3.65252 0
M  V30 3415 H 315.822 2.72187 -4.22993 0
M  V30 3416 H 315.522 1.66774 -5.63436 0
M  V30 3417 H 317.046 2.59403 -5.52759 0
M  V30 3418 H 318.46 0.331056 -5.72343 0
M  V30 3419 H 316.857 -0.41507 -5.98663 0
M  V30 3420 H 317.927 -1.06398 -4.73083 0
M  V30 3421 N 319.27 1.56325 -0.20005 0
M  V30 3422 C 320.217 2.1932 0.718833 0
M  V30 3423 C 321.187 1.14198 1.20615 0
M  V30 3424 O 322.372 1.42469 1.26914 0
M  V30 3425 C 319.512 2.86041 1.93066 0
M  V30 3426 C 318.625 4.05702 1.48425 0
M  V30 3427 C 317.76 4.60266 2.65196 0
M  V30 3428 C 316.799 5.72273 2.17185 0
M  V30 3429 N 315.936 6.21221 3.27152 0
M  V30 3430 H 320.776 2.97486 0.17489 0
M  V30 3431 H 318.313 1.46911 0.0745794 0
M  V30 3432 H 320.271 3.22897 2.64184 0
M  V30 3433 H 318.901 2.1043 2.44783 0
M  V30 3434 H 317.953 3.74475 0.668755 0
M  V30 3435 H 319.265 4.86699 1.09204 0
M  V30 3436 H 318.419 4.99453 3.4443 0
M  V30 3437 H 317.158 3.78386 3.07693 0
M  V30 3438 H 316.163 5.3261 1.36407 0
M  V30 3439 H 317.388 6.55974 1.75713 0
M  V30 3440 H 315.334 5.42263 3.69171 0
M  V30 3441 H 315.251 6.97284 2.92116 0
M  V30 3442 H 316.519 6.65063 4.06585 0
M  V30 3443 N 320.748 -0.0735177 1.57428 0
M  V30 3444 C 322.159 -0.625551 1.75908 0
M  V30 3445 C 322.51 -1.78 0.825261 0
M  V30 3446 O 321.635 -2.16398 0.00893964 0
M  V30 3447 C 322.23 -1.14155 3.18989 0
M  V30 3448 C 320.789 -1.63946 3.38819 0
M  V30 3449 C 319.936 -0.558151 2.71625 0
M  V30 3450 H 322.887 0.152647 1.57964 0
M  V30 3451 H 322.908 -2.0104 3.23053 0
M  V30 3452 H 322.42 -0.301116 3.8693 0
M  V30 3453 H 320.521 -2.50321 2.7599 0
M  V30 3454 H 320.634 -1.71759 4.47253 0
M  V30 3455 H 318.998 -1.00278 2.34129 0
M  V30 3456 H 319.781 0.272071 3.4222 0
M  V30 3457 N 322.226 -1.5378 -0.344866 0
M  V30 3458 C 323.456 -1.74646 -1.10374 0
M  V30 3459 C 323.864 -0.48491 -1.8288 0
M  V30 3460 O 323.207 0.553062 -1.75177 0
M  V30 3461 C 323.269 -2.87145 -2.16306 0
M  V30 3462 C 322.933 -4.26795 -1.63386 0
M  V30 3463 C 323.93 -5.08412 -1.08688 0
M  V30 3464 C 321.615 -4.73276 -1.68272 0
M  V30 3465 C 323.609 -6.34609 -0.595792 0
M  V30 3466 C 321.296 -5.99446 -1.18776 0
M  V30 3467 C 322.294 -6.79946 -0.645215 0
M  V30 3468 O 321.982 -8.03745 -0.157626 0
M  V30 3469 H 321.714 -0.587112 -0.335075 0
M  V30 3470 H 324.268 -2.01403 -0.403252 0
M  V30 3471 H 322.498 -2.55909 -2.89909 0
M  V30 3472 H 324.187 -2.95992 -2.77747 0
M  V30 3473 H 324.953 -4.73666 -1.04236 0
M  V30 3474 H 320.832 -4.10677 -2.09442 0
M  V30 3475 H 324.376 -6.97389 -0.171654 0
M  V30 3476 H 320.273 -6.33687 -1.22928 0
M  V30 3477 H 321.041 -8.18038 -0.275037 0
M  V30 3478 N 323.704 0.605807 -1.45491 0
M  V30 3479 C 324.981 1.36522 -1.40075 0
M  V30 3480 C 325.361 2.10976 -0.0722744 0
M  V30 3481 O 324.709 2.08007 0.945808 0
M  V30 3482 C 324.919 2.31056 -2.61561 0
M  V30 3483 C 326.267 2.93608 -3.06724 0
M  V30 3484 O 327.291 2.41376 -2.61946 0
M  V30 3485 O 326.15 3.88421 -3.84437 0
M  V30 3486 H 323.244 0.612248 -0.555951 0
M  V30 3487 H 325.79 0.628747 -1.57623 0
M  V30 3488 H 324.562 1.75311 -3.49831 0
M  V30 3489 H 324.185 3.12081 -2.46356 0
M  V30 3490 N 325.182 1.32811 0.848464 0
M  V30 3491 C 326.429 1.23724 1.60308 0
M  V30 3492 C 326.757 -0.1994 1.93475 0
M  V30 3493 O 326.012 -1.15406 1.5805 0
M  V30 3494 C 326.311 2.04831 2.92881 0
M  V30 3495 C 325.977 3.54125 2.79117 0
M  V30 3496 C 324.639 3.94829 2.7507 0
M  V30 3497 C 326.991 4.49036 2.64606 0
M  V30 3498 C 324.319 5.28675 2.544 0
M  V30 3499 C 326.671 5.83033 2.4547 0
M  V30 3500 C 325.335 6.22931 2.39819 0
M  V30 3501 H 324.605 0.452737 0.586609 0
M  V30 3502 H 327.252 1.64301 0.983743 0
M  V30 3503 H 325.557 1.57001 3.58968 0
M  V30 3504 H 327.254 1.95164 3.50303 0
M  V30 3505 H 323.844 3.21801 2.83094 0
M  V30 3506 H 328.028 4.18505 2.66772 0
M  V30 3507 H 323.284 5.58637 2.48465 0
M  V30 3508 H 327.458 6.56186 2.33222 0
M  V30 3509 H 325.085 7.26584 2.23562 0
M  V30 3510 N 326.66 -1.06551 1.16123 0
M  V30 3511 C 327.909 -1.78687 0.935622 0
M  V30 3512 C 328.222 -1.88056 -0.538001 0
M  V30 3513 O 329.428 -2.56794 -0.88143 0
M  V30 3514 C 327.884 -3.21143 1.62466 0
M  V30 3515 C 327.492 -3.19949 3.13587 0
M  V30 3516 C 329.236 -3.9783 1.48092 0
M  V30 3517 C 327.143 -4.57108 3.75241 0
M  V30 3518 H 326.073 -0.669712 0.346412 0
M  V30 3519 H 328.724 -1.19534 1.39226 0
M  V30 3520 H 327.106 -3.80539 1.09572 0
M  V30 3521 H 328.28 -2.70151 3.73303 0
M  V30 3522 H 326.595 -2.5676 3.27816 0
M  V30 3523 H 329.192 -4.99217 1.91538 0
M  V30 3524 H 329.535 -4.14078 0.429507 0
M  V30 3525 H 330.068 -3.4495 1.98127 0
M  V30 3526 H 326.807 -4.46065 4.80319 0
M  V30 3527 H 326.327 -5.07111 3.20309 0
M  V30 3528 H 328.006 -5.26069 3.76644 0
M  V30 3529 N 328.138 -0.959301 -1.25041 0
M  V30 3530 C 329.07 -0.440543 -2.24926 0
M  V30 3531 C 330.083 0.446131 -1.56568 0
M  V30 3532 O 331.272 0.253657 -1.76689 0
M  V30 3533 C 328.372 0.38412 -3.36716 0
M  V30 3534 C 327.545 -0.490658 -4.34639 0
M  V30 3535 C 326.604 0.276587 -5.25473 0
M  V30 3536 O 325.63 -0.326614 -5.68262 0
M  V30 3537 N 326.832 1.56844 -5.5891 0
M  V30 3538 H 329.597 -1.29931 -2.70071 0
M  V30 3539 H 327.158 -0.830181 -1.38995 0
M  V30 3540 H 329.15 0.905228 -3.94446 0
M  V30 3541 H 327.72 1.14377 -2.90924 0
M  V30 3542 H 326.94 -1.19282 -3.7572 0
M  V30 3543 H 328.228 -1.08756 -4.97041 0
M  V30 3544 H 327.626 2.08036 -5.26059 0
M  V30 3545 H 326.183 2.03541 -6.19205 0
M  V30 3546 N 329.616 1.39756 -0.72842 0
M  V30 3547 C 330.893 1.94574 -0.200079 0
M  V30 3548 C 331.273 1.66569 1.29684 0
M  V30 3549 O 330.621 0.990326 2.05924 0
M  V30 3550 C 330.831 3.45004 -0.526608 0
M  V30 3551 C 332.179 4.21965 -0.472318 0
M  V30 3552 O 333.203 3.53173 -0.463413 0
M  V30 3553 O 332.062 5.44552 -0.461075 0
M  V30 3554 H 329.156 0.826289 -0.0342851 0
M  V30 3555 H 331.702 1.49293 -0.806829 0
M  V30 3556 H 330.474 3.58796 -1.56144 0
M  V30 3557 H 330.097 3.97449 0.109449 0
M  V30 3558 N 331.094 0.475555 1.50254 0
M  V30 3559 C 332.041 -0.316293 2.28622 0
M  V30 3560 C 333.011 -0.983227 1.33873 0
M  V30 3561 O 334.196 -0.994805 1.62814 0
M  V30 3562 C 331.336 -1.38975 3.1588 0
M  V30 3563 C 330.449 -0.737146 4.25664 0
M  V30 3564 C 329.584 -1.78887 5.00173 0
M  V30 3565 C 328.623 -1.11676 6.01826 0
M  V30 3566 N 327.76 -2.11154 6.69596 0
M  V30 3567 H 332.6 0.358297 2.95838 0
M  V30 3568 H 330.137 0.188541 1.45887 0
M  V30 3569 H 332.095 -2.02383 3.64825 0
M  V30 3570 H 330.725 -2.03344 2.50701 0
M  V30 3571 H 329.777 0.0096065 3.80399 0
M  V30 3572 H 331.089 -0.206816 4.98371 0
M  V30 3573 H 330.243 -2.49865 5.52859 0
M  V30 3574 H 328.982 -2.35302 4.27182 0
M  V30 3575 H 327.987 -0.392633 5.48396 0
M  V30 3576 H 329.212 -0.55945 6.76792 0
M  V30 3577 H 327.158 -2.66577 5.99394 0
M  V30 3578 H 327.075 -1.63118 7.38193 0
M  V30 3579 H 328.343 -2.81497 7.26897 0
M  V30 3580 N 332.573 -1.56217 0.208337 0
M  V30 3581 C 333.521 -2.21053 -0.723769 0
M  V30 3582 C 334.515 -1.18578 -1.20978 0
M  V30 3583 O 335.721 -1.36691 -1.17114 0
M  V30 3584 H 332.096 -0.708595 -0.251788 0
M  V30 3585 H 334.067 -2.98006 -0.153365 0
M  V30 3586 C 332.816 -2.89417 -1.927 0
M  V30 3587 H 332.139 -3.68019 -1.56212 0
M  V30 3588 H 333.579 -3.38201 -2.55727 0
M  V30 3589 C 332.038 -1.91166 -2.77411 0
M  V30 3590 O 332.568 -1.42026 -3.75754 0
M  V30 3591 N 330.774 -1.59105 -2.43175 0
M  V30 3592 H 330.321 -1.99259 -1.63259 0
M  V30 3593 H 330.279 -0.936255 -3.00136 0
M  V30 3594 N 334.051 0.0651679 -1.57465 0
M  V30 3595 C 335.467 0.420105 -1.53972 0
M  V30 3596 C 335.667 1.78782 -0.929474 0
M  V30 3597 O 334.723 2.46771 -0.534839 0
M  V30 3598 C 336.036 0.355084 -2.98596 0
M  V30 3599 C 337.584 0.434792 -3.09965 0
M  V30 3600 C 338.059 0.399609 -4.56253 0
M  V30 3601 N 339.55 0.459488 -4.60915 0
M  V30 3602 C 340.285 0.454584 -5.71595 0
M  V30 3603 N 339.781 0.404102 -6.9162 0
M  V30 3604 N 341.574 0.501635 -5.59857 0
M  V30 3605 H 333.725 -0.830328 -1.95498 0
M  V30 3606 H 335.988 -0.312244 -0.895102 0
M  V30 3607 H 335.694 -0.583357 -3.46828 0
M  V30 3608 H 335.568 1.16275 -3.58831 0
M  V30 3609 H 337.955 1.36366 -2.61703 0
M  V30 3610 H 338.036 -0.40157 -2.52628 0
M  V30 3611 H 337.68 -0.525436 -5.05175 0
M  V30 3612 H 337.61 1.25359 -5.11461 0
M  V30 3613 H 340.101 0.502482 -3.74544 0
M  V30 3614 H 340.414 0.404468 -7.71741 0
M  V30 3615 H 338.759 0.37069 -6.94011 0
M  V30 3616 H 341.95 0.538812 -4.64989 0
M  V30 3617 H 342.123 0.494345 -6.46112 0
M  V30 3618 N 335.529 1.53961 0.336706 0
M  V30 3619 C 336.479 1.7881 1.41461 0
M  V30 3620 C 337.463 0.643561 1.47469 0
M  V30 3621 O 338.655 0.903166 1.52223 0
M  V30 3622 C 335.784 2.00722 2.78506 0
M  V30 3623 C 334.87 3.2126 2.76862 0
M  V30 3624 N 335.261 4.42588 2.44845 0
M  V30 3625 C 333.559 3.22568 3.08004 0
M  V30 3626 C 334.26 5.2447 2.51607 0
M  V30 3627 N 333.236 4.61344 2.87511 0
M  V30 3628 H 337.038 2.70205 1.15615 0
M  V30 3629 H 334.552 1.52978 0.545112 0
M  V30 3630 H 336.549 2.1666 3.5618 0
M  V30 3631 H 335.209 1.10573 3.05293 0
M  V30 3632 H 336.22 4.69819 2.17922 0
M  V30 3633 H 332.897 2.42409 3.39918 0
M  V30 3634 H 334.287 6.31324 2.29955 0
M  V30 3635 N 337.007 -0.598083 1.45811 0
M  V30 3636 C 337.957 -1.70272 1.51629 0
M  V30 3637 C 338.941 -1.56382 0.378629 0
M  V30 3638 O 340.133 -1.65557 0.626087 0
M  V30 3639 C 337.262 -3.09042 1.49493 0
M  V30 3640 C 336.348 -3.28284 2.68496 0
M  V30 3641 N 336.739 -3.17748 3.93535 0
M  V30 3642 C 335.037 -3.59182 2.64394 0
M  V30 3643 C 335.738 -3.38579 4.7301 0
M  V30 3644 N 334.714 -3.63016 4.04624 0
M  V30 3645 H 338.516 -1.60634 2.46118 0
M  V30 3646 H 336.03 -0.801642 1.41235 0
M  V30 3647 H 338.027 -3.88302 1.51747 0
M  V30 3648 H 336.687 -3.19823 0.560683 0
M  V30 3649 H 337.698 -2.95944 4.25014 0
M  V30 3650 H 334.375 -3.76742 1.79922 0
M  V30 3651 H 335.765 -3.35747 5.82 0
M  V30 3652 N 338.485 -1.33259 -0.841409 0
M  V30 3653 C 339.715 -1.2742 -1.62628 0
M  V30 3654 C 340.123 0.157604 -1.88542 0
M  V30 3655 O 339.466 1.10938 -1.46419 0
M  V30 3656 C 339.528 -1.97797 -3.00194 0
M  V30 3657 C 339.192 -3.47109 -2.97261 0
M  V30 3658 C 340.189 -4.42358 -2.73159 0
M  V30 3659 C 337.874 -3.89247 -3.17478 0
M  V30 3660 C 339.868 -5.77718 -2.69296 0
M  V30 3661 C 337.555 -5.24713 -3.13241 0
M  V30 3662 C 338.553 -6.1876 -2.89181 0
M  V30 3663 O 338.241 -7.51745 -2.84843 0
M  V30 3664 H 337.973 -0.440436 -0.512827 0
M  V30 3665 H 340.527 -1.76153 -1.05638 0
M  V30 3666 H 338.757 -1.43652 -3.59028 0
M  V30 3667 H 340.446 -1.8549 -3.61038 0
M  V30 3668 H 341.212 -4.11127 -2.57294 0
M  V30 3669 H 337.091 -3.16456 -3.35226 0
M  V30 3670 H 340.635 -6.51097 -2.50436 0
M  V30 3671 H 336.532 -5.55569 -3.28654 0
M  V30 3672 H 337.3 -7.61262 -3.00702 0
M  V30 3673 N 339.963 1.05934 -1.16686 0
M  V30 3674 C 340.926 2.11669 -0.879144 0
M  V30 3675 C 341.926 1.60294 0.127445 0
M  V30 3676 O 343.116 1.7389 -0.103865 0
M  V30 3677 C 340.248 3.39438 -0.315425 0
M  V30 3678 H 341.441 2.38626 -1.81653 0
M  V30 3679 H 338.994 1.22058 -0.976299 0
M  V30 3680 H 339.729 3.18132 0.629468 0
M  V30 3681 H 339.514 3.78034 -1.04079 0
M  V30 3682 H 341.004 4.17391 -0.132189 0
M  V30 3683 N 341.441 0.965919 1.2453 0
M  V30 3684 C 342.689 0.625593 1.92174 0
M  V30 3685 C 343.01 -0.841652 1.75901 0
M  V30 3686 O 342.28 -1.60061 1.12948 0
M  V30 3687 H 340.86 0.228388 0.71123 0
M  V30 3688 H 343.522 1.2266 1.51461 0
M  V30 3689 H 342.618 0.864653 2.99884 0
M  V30 3690 N 342.919 -1.39368 0.735821 0
M  V30 3691 C 343.852 -2.28155 0.0451175 0
M  V30 3692 C 344.83 -1.44433 -0.746852 0
M  V30 3693 O 346.014 -1.73823 -0.729237 0
M  V30 3694 C 343.141 -3.253 -0.943266 0
M  V30 3695 C 342.187 -4.25826 -0.239685 0
M  V30 3696 S 343.02 -5.25166 1.04693 0
M  V30 3697 C 344.176 -6.2587 0.0611639 0
M  V30 3698 H 344.409 -2.86388 0.79807 0
M  V30 3699 H 341.942 -1.45104 0.527653 0
M  V30 3700 H 343.9 -3.81789 -1.50824 0
M  V30 3701 H 342.561 -2.66085 -1.66906 0
M  V30 3702 H 341.754 -4.94229 -0.987596 0
M  V30 3703 H 341.356 -3.73141 0.253274 0
M  V30 3704 H 343.648 -6.73007 -0.778941 0
M  V30 3705 H 344.591 -7.04508 0.712362 0
M  V30 3706 H 344.999 -5.63639 -0.311602 0
M  V30 3707 N 344.397 -0.483516 -1.5 0
M  V30 3708 C 345.643 0.0672592 -2.02688 0
M  V30 3709 C 345.976 1.38247 -1.36387 0
M  V30 3710 O 345.251 1.88131 -0.493675 0
M  V30 3711 C 345.534 0.238109 -3.59312 0
M  V30 3712 C 345.387 -1.099 -4.36168 0
M  V30 3713 C 346.706 0.986916 -4.28892 0
M  V30 3714 H 343.825 0.0229696 -0.736642 0
M  V30 3715 H 346.467 -0.631527 -1.79197 0
M  V30 3716 H 344.617 0.8333 -3.79458 0
M  V30 3717 H 346.289 -1.73172 -4.27562 0
M  V30 3718 H 344.532 -1.69261 -3.99416 0
M  V30 3719 H 345.203 -0.932954 -5.44059 0
M  V30 3720 H 347.679 0.482302 -4.13295 0
M  V30 3721 H 346.555 1.07527 -5.38265 0
M  V30 3722 H 346.816 2.0265 -3.92919 0
M  V30 3723 N 345.875 1.56104 -0.216619 0
M  V30 3724 C 347.1 2.0301 0.424462 0
M  V30 3725 C 347.525 1.0955 1.52907 0
M  V30 3726 O 346.883 0.0827914 1.81111 0
M  V30 3727 C 346.931 3.4819 0.937883 0
M  V30 3728 O 346.035 3.57865 2.04955 0
M  V30 3729 H 345.376 0.656925 0.0966755 0
M  V30 3730 H 347.906 2.01859 -0.33381 0
M  V30 3731 H 347.916 3.88413 1.24897 0
M  V30 3732 H 346.591 4.15699 0.129387 0
M  V30 3733 H 345.168 3.29527 1.74546 0
M  V30 3734 N 347.353 -0.0568162 1.57498 0
M  V30 3735 C 348.283 -1.06593 2.0775 0
M  V30 3736 C 349.264 -1.39448 0.974082 0
M  V30 3737 O 350.449 -1.48815 1.24771 0
M  V30 3738 C 347.579 -2.37509 2.5339 0
M  V30 3739 C 346.533 -2.1897 3.67745 0
M  V30 3740 C 345.859 -3.55402 3.99492 0
M  V30 3741 C 347.159 -1.59859 4.97235 0
M  V30 3742 H 348.853 -0.647706 2.9231 0
M  V30 3743 H 346.399 -0.310116 1.40621 0
M  V30 3744 H 348.352 -3.08409 2.87162 0
M  V30 3745 H 347.076 -2.8134 1.65878 0
M  V30 3746 H 345.735 -1.50508 3.3428 0
M  V30 3747 H 345.383 -3.9683 3.09088 0
M  V30 3748 H 345.083 -3.43831 4.76502 0
M  V30 3749 H 346.607 -4.27708 4.35773 0
M  V30 3750 H 348.021 -2.20642 5.29141 0
M  V30 3751 H 346.418 -1.58942 5.78669 0
M  V30 3752 H 347.488 -0.561506 4.81638 0
M  V30 3753 N 348.832 -1.54138 -0.328536 0
M  V30 3754 C 349.765 -1.78014 -1.4278 0
M  V30 3755 C 350.743 -0.629889 -1.49904 0
M  V30 3756 O 351.927 -0.866763 -1.6739 0
M  V30 3757 C 349.054 -1.89225 -2.80912 0
M  V30 3758 C 348.1 -3.11483 -2.91343 0
M  V30 3759 S 348.933 -4.70201 -2.56263 0
M  V30 3760 C 350.089 -4.84312 -3.96476 0
M  V30 3761 H 350.322 -2.70974 -1.22313 0
M  V30 3762 H 347.855 -1.45197 -0.525084 0
M  V30 3763 H 349.813 -1.9637 -3.60485 0
M  V30 3764 H 348.474 -0.972518 -2.98665 0
M  V30 3765 H 347.667 -3.16046 -3.92595 0
M  V30 3766 H 347.269 -3.02642 -2.19736 0
M  V30 3767 H 349.561 -4.66643 -4.91173 0
M  V30 3768 H 350.504 -5.86411 -3.96898 0
M  V30 3769 H 350.912 -4.12652 -3.85199 0
M  V30 3770 N 350.31 0.590341 -1.46126 0
M  V30 3771 C 351.587 1.35029 -1.41515 0
M  V30 3772 C 351.967 2.10888 -0.0946472 0
M  V30 3773 O 351.315 2.08998 0.923693 0
M  V30 3774 C 351.525 2.28269 -2.63997 0
M  V30 3775 C 352.873 2.90338 -3.09821 0
M  V30 3776 O 353.897 2.38585 -2.64492 0
M  V30 3777 O 352.756 3.84321 -3.88535 0
M  V30 3778 H 349.85 0.606317 -0.562413 0
M  V30 3779 H 352.396 0.611994 -1.58281 0
M  V30 3780 H 351.168 1.71591 -3.51671 0
M  V30 3781 H 350.791 3.0945 -2.49652 0
M  V30 3782 N 351.788 1.33704 0.83433 0
M  V30 3783 C 352.698 1.26382 1.97648 0
M  V30 3784 C 353.714 0.173548 1.73132 0
M  V30 3785 O 354.89 0.397962 1.97429 0
M  V30 3786 C 351.955 1.00769 3.31733 0
M  V30 3787 C 351.016 2.1884 3.69334 0
M  V30 3788 C 350.249 1.9444 4.9702 0
M  V30 3789 O 350.472 0.896961 5.63303 0
M  V30 3790 O 349.406 2.81093 5.32231 0
M  V30 3791 H 353.232 2.22444 2.06767 0
M  V30 3792 H 350.817 1.13795 0.968037 0
M  V30 3793 H 352.699 0.882186 4.12062 0
M  V30 3794 H 351.374 0.0773783 3.23608 0
M  V30 3795 H 350.281 2.36946 2.89495 0
M  V30 3796 H 351.614 3.10221 3.82131 0
M  V30 3797 N 353.266 -1.05314 1.17247 0
M  V30 3798 C 354.229 -2.112 0.890357 0
M  V30 3799 C 355.229 -1.60359 -0.118943 0
M  V30 3800 O 356.419 -1.73833 0.113086 0
M  V30 3801 C 353.551 -3.39266 0.333422 0
M  V30 3802 H 354.744 -2.37659 1.82916 0
M  V30 3803 H 352.297 -1.21538 0.982758 0
M  V30 3804 H 353.032 -3.18462 -0.612587 0
M  V30 3805 H 352.817 -3.77477 1.06082 0
M  V30 3806 H 354.307 -4.17315 0.154322 0
M  V30 3807 N 354.744 -0.972509 -1.24016 0
M  V30 3808 C 355.99 -0.637978 -1.92504 0
M  V30 3809 C 356.323 0.825383 -1.75787 0
M  V30 3810 O 355.598 1.59442 -1.11393 0
M  V30 3811 C 355.881 -1.01942 -3.45369 0
M  V30 3812 C 355.734 -2.53983 -3.71231 0
M  V30 3813 C 357.053 -0.55751 -4.36555 0
M  V30 3814 H 354.172 -0.233248 -0.699117 0
M  V30 3815 H 356.814 -1.21238 -1.46292 0
M  V30 3816 H 354.964 -0.530656 -3.84859 0
M  V30 3817 H 356.636 -3.10374 -3.41271 0
M  V30 3818 H 354.879 -2.96968 -3.16216 0
M  V30 3819 H 355.55 -2.75723 -4.78206 0
M  V30 3820 H 358.026 -0.977029 -4.04467 0
M  V30 3821 H 356.902 -0.85292 -5.42233 0
M  V30 3822 H 357.163 0.542328 -4.38761 0
M  V30 3823 N 356.222 1.38976 -0.743202 0
M  V30 3824 C 357.47 1.99948 -0.29417 0
M  V30 3825 C 357.791 1.59279 1.12495 0
M  V30 3826 O 357.061 0.844808 1.76748 0
M  V30 3827 H 355.641 0.739473 -0.105774 0
M  V30 3828 H 358.303 1.699 -0.954986 0
M  V30 3829 H 357.399 3.10142 -0.349056 0
M  V30 3830 N 357.7 0.491464 1.49741 0
M  V30 3831 C 358.648 -0.305837 2.30581 0
M  V30 3832 C 359.642 -0.971642 1.38764 0
M  V30 3833 O 360.848 -0.90042 1.5586 0
M  V30 3834 H 357.223 -0.117482 0.742767 0
M  V30 3835 H 359.194 0.396093 2.95759 0
M  V30 3836 C 357.943 -1.36319 3.19863 0
M  V30 3837 H 357.266 -0.860258 3.90435 0
M  V30 3838 H 358.706 -1.89323 3.79385 0
M  V30 3839 C 357.165 -2.37621 2.38826 0
M  V30 3840 O 357.695 -3.43311 2.08567 0
M  V30 3841 N 355.901 -2.09849 2.01026 0
M  V30 3842 H 355.448 -1.23922 2.25834 0
M  V30 3843 H 355.406 -2.77859 1.47112 0
M  V30 3844 N 359.178 -1.55987 0.224894 0
M  V30 3845 C 360.424 -1.98684 -0.406502 0
M  V30 3846 C 360.757 -1.11248 -1.59177 0
M  V30 3847 O 360.032 -0.170909 -1.93748 0
M  V30 3848 C 360.315 -3.50218 -0.837808 0
M  V30 3849 C 360.168 -4.48426 0.351332 0
M  V30 3850 C 361.487 -4.06243 -1.69278 0
M  V30 3851 H 358.606 -0.722337 -0.146283 0
M  V30 3852 H 361.248 -1.87255 0.321799 0
M  V30 3853 H 359.398 -3.60089 -1.45837 0
M  V30 3854 H 361.07 -4.50562 0.989526 0
M  V30 3855 H 359.313 -4.22159 0.998207 0
M  V30 3856 H 359.984 -5.52 0.00655905 0
M  V30 3857 H 362.46 -3.99337 -1.16914 0
M  V30 3858 H 361.336 -5.12581 -1.96346 0
M  V30 3859 H 361.597 -3.53332 -2.65723 0
M  V30 3860 N 360.656 0.0484629 -1.57525 0
M  V30 3861 C 361.884 0.755421 -1.92616 0
M  V30 3862 C 362.299 1.69919 -0.822984 0
M  V30 3863 O 361.656 1.81378 0.202085 0
M  V30 3864 C 361.707 1.52915 -3.27566 0
M  V30 3865 O 361.428 0.62329 -4.33644 0
M  V30 3866 C 362.929 2.33502 -3.76818 0
M  V30 3867 H 360.149 0.213465 -0.63614 0
M  V30 3868 H 362.693 0.0117698 -2.04497 0
M  V30 3869 H 360.848 2.22486 -3.17142 0
M  V30 3870 H 361.262 1.16383 -5.11425 0
M  V30 3871 H 362.736 2.83214 -4.73808 0
M  V30 3872 H 363.213 3.14068 -3.07014 0
M  V30 3873 H 363.819 1.69043 -3.90262 0
M  V30 3874 N 362.134 1.5431 0.320358 0
M  V30 3875 C 363.097 1.83195 1.3774 0
M  V30 3876 C 364.097 0.703906 1.44575 0
M  V30 3877 O 365.287 0.972214 1.44546 0
M  V30 3878 C 362.419 1.99487 2.76438 0
M  V30 3879 H 363.612 2.77642 1.1338 0
M  V30 3880 H 361.165 1.46076 0.556012 0
M  V30 3881 H 361.9 1.07262 3.06048 0
M  V30 3882 H 361.685 2.81575 2.7287 0
M  V30 3883 H 363.175 2.23271 3.52902 0
M  V30 3884 N 363.613 -0.582584 1.46437 0
M  V30 3885 C 364.576 -1.67366 1.56592 0
M  V30 3886 C 365.576 -1.54575 0.443072 0
M  V30 3887 O 366.766 -1.59191 0.707381 0
M  V30 3888 C 363.898 -3.06791 1.48634 0
M  V30 3889 H 365.091 -1.5972 2.5383 0
M  V30 3890 H 362.644 -0.800432 1.34249 0
M  V30 3891 H 363.379 -3.19993 0.526763 0
M  V30 3892 H 363.164 -3.17484 2.30101 0
M  V30 3893 H 364.654 -3.86218 1.58826 0
M  V30 3894 N 365.091 -1.34144 -0.827227 0
M  V30 3895 C 366.021 -1.28005 -1.95287 0
M  V30 3896 C 367.002 -0.158321 -1.69362 0
M  V30 3897 O 368.187 -0.349987 -1.9102 0
M  V30 3898 C 365.317 -1.03036 -3.31664 0
M  V30 3899 C 364.271 -2.11628 -3.72019 0
M  V30 3900 C 363.597 -1.71854 -5.0633 0
M  V30 3901 C 364.897 -3.53417 -3.8457 0
M  V30 3902 H 366.591 -2.22187 -2.00682 0
M  V30 3903 H 364.137 -1.0696 -0.964135 0
M  V30 3904 H 366.09 -0.973863 -4.09993 0
M  V30 3905 H 364.814 -0.0529391 -3.26557 0
M  V30 3906 H 363.473 -2.16339 -2.95961 0
M  V30 3907 H 363.121 -0.727841 -4.97706 0
M  V30 3908 H 362.821 -2.44531 -5.34302 0
M  V30 3909 H 364.345 -1.67692 -5.87122 0
M  V30 3910 H 365.759 -3.51142 -4.5318 0
M  V30 3911 H 364.156 -4.24679 -4.2399 0
M  V30 3912 H 365.226 -3.91072 -2.86689 0
M  V30 3913 N 366.569 1.04691 -1.17803 0
M  V30 3914 C 367.516 2.12557 -0.899343 0
M  V30 3915 C 368.486 1.65339 0.158771 0
M  V30 3916 O 369.671 1.90789 0.0204797 0
M  V30 3917 C 366.811 3.42481 -0.424315 0
M  V30 3918 C 365.924 4.03346 -1.54713 0
M  V30 3919 C 365.059 5.21208 -1.02546 0
M  V30 3920 C 364.098 5.74089 -2.12339 0
M  V30 3921 N 363.235 6.83247 -1.61612 0
M  V30 3922 H 368.075 2.35734 -1.823 0
M  V30 3923 H 365.612 1.1564 -0.909159 0
M  V30 3924 H 367.57 4.16996 -0.130421 0
M  V30 3925 H 366.2 3.19471 0.462377 0
M  V30 3926 H 365.252 3.2622 -1.95664 0
M  V30 3927 H 366.564 4.38628 -2.37501 0
M  V30 3928 H 365.718 6.02812 -0.685718 0
M  V30 3929 H 364.457 4.87414 -0.167084 0
M  V30 3930 H 363.462 4.91111 -2.47165 0
M  V30 3931 H 364.687 6.0993 -2.98601 0
M  V30 3932 H 362.633 6.5134 -0.780533 0
M  V30 3933 H 362.55 7.17559 -2.38003 0
M  V30 3934 H 363.818 7.68491 -1.30545 0
M  V30 3935 N 368.047 0.979072 1.23499 0
M  V30 3936 C 369.272 0.664845 1.96455 0
M  V30 3937 C 369.697 -0.761287 1.72006 0
M  V30 3938 O 369.055 -1.51837 0.990713 0
M  V30 3939 C 369.103 0.959479 3.47601 0
M  V30 3940 O 368.207 0.0508168 4.12369 0
M  V30 3941 H 367.548 0.250185 0.615064 0
M  V30 3942 H 370.078 1.31231 1.5697 0
M  V30 3943 H 370.088 0.895642 3.98048 0
M  V30 3944 H 368.763 1.99876 3.64723 0
M  V30 3945 H 367.34 0.16895 3.72517 0
M  V30 3946 N 369.525 -1.3858 0.750561 0
M  V30 3947 C 370.75 -2.04997 0.314812 0
M  V30 3948 C 371.175 -1.56235 -1.04749 0
M  V30 3949 O 370.533 -0.712981 -1.66692 0
M  V30 3950 C 370.581 -3.58961 0.343415 0
M  V30 3951 O 369.685 -4.07025 -0.663628 0
M  V30 3952 H 369.026 -0.649081 0.139962 0
M  V30 3953 H 371.556 -1.77313 1.02084 0
M  V30 3954 H 371.566 -4.07542 0.193233 0
M  V30 3955 H 370.241 -3.93811 1.33738 0
M  V30 3956 H 368.818 -3.6982 -0.478307 0
M  V30 3957 N 371.003 -0.499398 -1.49478 0
M  V30 3958 C 372.251 0.0455996 -2.02049 0
M  V30 3959 C 372.572 1.37633 -1.38138 0
M  V30 3960 O 371.842 1.8842 -0.536166 0
M  V30 3961 H 370.422 0.0198416 -0.746736 0
M  V30 3962 H 373.084 -0.656274 -1.83519 0
M  V30 3963 H 372.18 0.176445 -3.11601 0
M  V30 3964 N 372.481 1.55866 -0.233164 0
M  V30 3965 C 373.411 2.23783 0.666599 0
M  V30 3966 C 374.392 1.21343 1.19205 0
M  V30 3967 O 375.577 1.4996 1.23392 0
M  V30 3968 C 372.707 2.92671 1.86978 0
M  V30 3969 C 371.661 4.01682 1.47768 0
M  V30 3970 C 370.987 4.57926 2.76058 0
M  V30 3971 C 372.287 5.18126 0.658993 0
M  V30 3972 H 373.981 2.99232 0.100306 0
M  V30 3973 H 371.527 1.43924 0.046804 0
M  V30 3974 H 373.48 3.3888 2.50476 0
M  V30 3975 H 372.204 2.14688 2.46123 0
M  V30 3976 H 370.863 3.56222 0.866106 0
M  V30 3977 H 370.511 3.76659 3.33372 0
M  V30 3978 H 370.211 5.31505 2.50552 0
M  V30 3979 H 371.735 5.06859 3.40479 0
M  V30 3980 H 373.149 5.60644 1.19795 0
M  V30 3981 H 371.546 5.98009 0.500552 0
M  V30 3982 H 372.616 4.83763 -0.331856 0
M  V30 3983 N 373.959 -0.0401083 1.57549 0
M  V30 3984 C 375.205 -0.728793 1.89895 0
M  V30 3985 C 375.56 -1.73551 0.830535 0
M  V30 3986 O 374.853 -1.90914 -0.162007 0
M  V30 3987 C 375.047 -1.44902 3.26708 0
M  V30 3988 C 374.876 -0.513568 4.46758 0
M  V30 3989 C 373.646 -0.138698 5.0511 0
M  V30 3990 C 375.844 0.203341 5.13898 0
M  V30 3991 N 373.826 0.799159 6.08676 0
M  V30 3992 C 375.197 0.997246 6.11927 0
M  V30 3993 C 377.252 0.271459 4.97159 0
M  V30 3994 C 375.955 1.85299 6.95023 0
M  V30 3995 C 377.981 1.11429 5.80808 0
M  V30 3996 C 377.343 1.89615 6.78399 0
M  V30 3997 H 373.442 -0.241125 0.743897 0
M  V30 3998 H 376.026 0.0108016 1.94697 0
M  V30 3999 H 374.197 -2.15914 3.22856 0
M  V30 4000 H 375.929 -2.08921 3.46603 0
M  V30 4001 H 372.684 -0.498496 4.70969 0
M  V30 4002 H 373.108 1.26227 6.65128 0
M  V30 4003 H 377.75 -0.318709 4.21597 0
M  V30 4004 H 375.468 2.454 7.69938 0
M  V30 4005 H 379.054 1.17038 5.69906 0
M  V30 4006 H 377.934 2.53779 7.42001 0
M  V30 4007 N 375.437 -1.54477 -0.31217 0
M  V30 4008 C 376.385 -1.85395 -1.40469 0
M  V30 4009 C 377.379 -0.726749 -1.53019 0
M  V30 4010 O 378.585 -0.910582 -1.55269 0
M  V30 4011 H 374.96 -0.587845 -0.46898 0
M  V30 4012 H 376.931 -2.76736 -1.11623 0
M  V30 4013 C 375.68 -2.10811 -2.76503 0
M  V30 4014 H 375.003 -2.97014 -2.67625 0
M  V30 4015 H 376.443 -2.3639 -3.51988 0
M  V30 4016 C 374.902 -0.903165 -3.24568 0
M  V30 4017 O 375.432 -0.118085 -4.01526 0
M  V30 4018 N 373.638 -0.711634 -2.81752 0
M  V30 4019 H 373.185 -1.35171 -2.19286 0
M  V30 4020 H 373.143 0.0930473 -3.14262 0
M  V30 4021 N 376.915 0.57481 -1.46744 0
M  V30 4022 C 377.863 1.70435 -1.58286 0
M  V30 4023 C 378.857 1.63287 -0.450956 0
M  V30 4024 O 380.063 1.68685 -0.628121 0
M  V30 4025 H 376.438 0.56364 -0.497809 0
M  V30 4026 H 378.409 1.57833 -2.53242 0
M  V30 4027 C 377.158 3.08815 -1.59776 0
M  V30 4028 H 376.481 3.1499 -2.46214 0
M  V30 4029 H 377.921 3.87588 -1.71905 0
M  V30 4030 C 376.38 3.35301 -0.327812 0
M  V30 4031 O 376.91 3.97511 0.57861 0
M  V30 4032 N 375.116 2.89816 -0.213274 0
M  V30 4033 H 374.663 2.39371 -0.951798 0
M  V30 4034 H 374.621 3.0791 0.63553 0
M  V30 4035 N 378.394 1.34581 0.820102 0
M  V30 4036 C 379.622 1.3018 1.60813 0
M  V30 4037 C 380.037 -0.123551 1.88395 0
M  V30 4038 O 379.394 -1.07148 1.47735 0
M  V30 4039 C 379.445 2.09312 2.94739 0
M  V30 4040 O 379.166 3.46288 2.68358 0
M  V30 4041 C 380.667 2.1234 3.89136 0
M  V30 4042 H 377.887 0.447726 0.499782 0
M  V30 4043 H 380.431 1.77237 1.02017 0
M  V30 4044 H 378.586 1.65889 3.50085 0
M  V30 4045 H 379 3.87227 3.53774 0
M  V30 4046 H 380.474 2.72126 4.80262 0
M  V30 4047 H 380.951 1.11854 4.24718 0
M  V30 4048 H 381.557 2.55864 3.39726 0
M  V30 4049 N 379.872 -1.04064 1.18357 0
M  V30 4050 C 381.118 -1.77528 0.980397 0
M  V30 4051 C 381.451 -1.87948 -0.48879 0
M  V30 4052 O 380.726 -1.3876 -1.36293 0
M  V30 4053 C 381.009 -3.20797 1.63588 0
M  V30 4054 C 380.862 -3.1832 3.17793 0
M  V30 4055 C 382.181 -4.18911 1.34914 0
M  V30 4056 H 379.3 -0.644443 0.357578 0
M  V30 4057 H 381.942 -1.2156 1.46024 0
M  V30 4058 H 380.092 -3.68586 1.22788 0
M  V30 4059 H 381.764 -2.78521 3.67728 0
M  V30 4060 H 380.007 -2.56351 3.49952 0
M  V30 4061 H 380.678 -4.19489 3.58794 0
M  V30 4062 H 383.154 -3.7967 1.70265 0
M  V30 4063 H 382.03 -5.17374 1.83346 0
M  V30 4064 H 382.291 -4.41262 0.272027 0
M  V30 4065 N 381.35 -0.985608 -1.22978 0
M  V30 4066 C 382.597 -0.657386 -1.91532 0
M  V30 4067 C 382.925 0.809707 -1.76845 0
M  V30 4068 O 382.18 1.60021 -1.12658 0
M  V30 4069 C 382.479 -1.00014 -3.43121 0
M  V30 4070 C 382.145 -2.4583 -3.77993 0
M  V30 4071 C 380.807 -2.85679 -3.87222 0
M  V30 4072 C 383.159 -3.40378 -3.94705 0
M  V30 4073 C 380.487 -4.19081 -4.10595 0
M  V30 4074 C 382.839 -4.73429 -4.1958 0
M  V30 4075 C 381.503 -5.1303 -4.27032 0
M  V30 4076 H 380.773 -0.240555 -0.700867 0
M  V30 4077 H 383.42 -1.24044 -1.45895 0
M  V30 4078 H 381.725 -0.335072 -3.90365 0
M  V30 4079 H 383.422 -0.724322 -3.94404 0
M  V30 4080 H 380.012 -2.13939 -3.71387 0
M  V30 4081 H 384.196 -3.10766 -3.8696 0
M  V30 4082 H 379.452 -4.49362 -4.14589 0
M  V30 4083 H 383.626 -5.46644 -4.31455 0
M  V30 4084 H 381.253 -6.16418 -4.44896 0
M  V30 4085 N 382.828 1.3818 -0.7579 0
M  V30 4086 C 384.077 1.99261 -0.312744 0
M  V30 4087 C 384.39 1.60846 1.11301 0
M  V30 4088 O 385.596 2.14929 1.65885 0
M  V30 4089 C 384.052 3.56294 -0.50821 0
M  V30 4090 C 383.66 4.03657 -1.94333 0
M  V30 4091 C 385.404 4.24313 -0.125982 0
M  V30 4092 C 383.311 5.53347 -2.08712 0
M  V30 4093 H 382.241 0.745456 -0.113185 0
M  V30 4094 H 384.892 1.57889 -0.935056 0
M  V30 4095 H 383.274 3.95575 0.183353 0
M  V30 4096 H 384.448 3.75655 -2.66871 0
M  V30 4097 H 382.763 3.48376 -2.28086 0
M  V30 4098 H 385.36 5.34279 -0.212125 0
M  V30 4099 H 385.703 4.05962 0.921964 0
M  V30 4100 H 386.236 3.90285 -0.769563 0
M  V30 4101 H 382.975 5.76607 -3.11777 0
M  V30 4102 H 382.495 5.83078 -1.4064 0
M  V30 4103 H 384.174 6.19111 -1.87912 0
M  V30 4104 N 384.306 0.507319 1.49211 0
M  V30 4105 C 385.553 -0.0349529 2.0247 0
M  V30 4106 C 385.881 -1.36409 1.38647 0
M  V30 4107 O 385.136 -1.88841 0.513566 0
M  V30 4108 C 385.435 -0.229513 3.56662 0
M  V30 4109 C 385.101 1.02241 4.39156 0
M  V30 4110 C 383.763 1.36557 4.61417 0
M  V30 4111 C 386.115 1.85428 4.871 0
M  V30 4112 C 383.443 2.53999 5.28868 0
M  V30 4113 C 385.795 3.02028 5.55843 0
M  V30 4114 C 384.459 3.36717 5.76349 0
M  V30 4115 H 383.729 -0.0127902 0.74089 0
M  V30 4116 H 386.376 0.668756 1.79443 0
M  V30 4117 H 384.681 -1.0158 3.78403 0
M  V30 4118 H 386.378 -0.663641 3.9547 0
M  V30 4119 H 382.968 0.745124 4.22073 0
M  V30 4120 H 387.152 1.6023 4.69723 0
M  V30 4121 H 382.408 2.81105 5.42946 0
M  V30 4122 H 386.582 3.66808 5.91967 0
M  V30 4123 H 384.209 4.27821 6.28389 0
M  V30 4124 N 385.784 -1.5574 0.241426 0
M  V30 4125 C 387.009 -2.0366 -0.392111 0
M  V30 4126 C 387.434 -1.11969 -1.51144 0
M  V30 4127 O 386.792 -0.111594 -1.80956 0
M  V30 4128 C 386.84 -3.49638 -0.882371 0
M  V30 4129 O 385.944 -3.6108 -1.99235 0
M  V30 4130 H 385.285 -0.658379 -0.0862122 0
M  V30 4131 H 387.815 -2.01302 0.365881 0
M  V30 4132 H 387.825 -3.90351 -1.18702 0
M  V30 4133 H 386.5 -4.15852 -0.0632361 0
M  V30 4134 H 385.077 -3.32262 -1.69282 0
M  V30 4135 N 387.262 0.0317525 -1.57568 0
M  V30 4136 C 388.49 0.734949 -1.93407 0
M  V30 4137 C 388.905 1.69036 -0.84096 0
M  V30 4138 O 388.262 1.81582 0.182836 0
M  V30 4139 C 388.313 1.49432 -3.29169 0
M  V30 4140 O 388.034 0.577261 -4.3428 0
M  V30 4141 C 389.535 2.29492 -3.79273 0
M  V30 4142 H 386.755 0.206706 -0.638368 0
M  V30 4143 H 389.299 -0.00992046 -2.04498 0
M  V30 4144 H 387.454 2.1911 -3.19483 0
M  V30 4145 H 387.868 1.10952 -5.1263 0
M  V30 4146 H 389.342 2.78172 -4.76785 0
M  V30 4147 H 389.819 3.10794 -3.10328 0
M  V30 4148 H 390.425 1.64894 -3.92033 0
M  V30 4149 N 388.74 1.54641 0.303973 0
M  V30 4150 C 390.017 1.64455 1.05896 0
M  V30 4151 C 390.397 0.490923 2.05312 0
M  V30 4152 O 389.745 -0.512685 2.22674 0
M  V30 4153 C 389.955 3.02331 1.74347 0
M  V30 4154 C 391.303 3.59045 2.26653 0
M  V30 4155 O 392.327 3.04764 1.84384 0
M  V30 4156 O 391.186 4.54081 3.04093 0
M  V30 4157 H 388.28 0.666729 0.489287 0
M  V30 4158 H 390.826 1.66986 0.302298 0
M  V30 4159 H 389.598 3.77734 1.02142 0
M  V30 4160 H 389.221 3.03565 2.56777 0
M  V30 4161 N 390.218 -0.567019 1.47046 0
M  V30 4162 C 391.166 -1.69593 1.59188 0
M  V30 4163 C 392.16 -1.63046 0.459609 0
M  V30 4164 O 393.366 -1.6835 0.637058 0
M  V30 4165 H 389.741 -0.560993 0.500791 0
M  V30 4166 H 391.712 -1.56488 2.54075 0
M  V30 4167 C 390.461 -3.07964 1.61411 0
M  V30 4168 H 389.784 -3.13679 2.47881 0
M  V30 4169 H 391.224 -3.86671 1.73958 0
M  V30 4170 C 389.683 -3.35123 0.34559 0
M  V30 4171 O 390.213 -3.97812 -0.557521 0
M  V30 4172 N 388.419 -2.89699 0.22864 0
M  V30 4173 H 387.966 -2.38863 0.964479 0
M  V30 4174 H 387.924 -3.08242 -0.619192 0
M  V30 4175 N 391.696 -1.35014 -0.812953 0
M  V30 4176 C 392.944 -1.27678 -1.56661 0
M  V30 4177 C 393.265 0.150359 -1.94419 0
M  V30 4178 O 392.535 1.08532 -1.63088 0
M  V30 4179 H 391.115 -0.469602 -0.580933 0
M  V30 4180 H 393.777 -1.69043 -0.970076 0
M  V30 4181 H 392.873 -1.88833 -2.48492 0
M  V30 4182 N 393.175 1.03435 -1.18907 0
M  V30 4183 C 394.423 1.76394 -0.986382 0
M  V30 4184 C 394.744 1.88883 0.484567 0
M  V30 4185 O 394.014 1.41843 1.3512 0
M  V30 4186 H 392.594 0.65344 -0.361975 0
M  V30 4187 H 395.256 1.248 -1.49703 0
M  V30 4188 H 394.352 2.77424 -1.42978 0
M  V30 4189 N 394.653 0.992116 1.22453 0
M  V30 4190 C 395.585 0.500024 2.23679 0
M  V30 4191 C 396.598 -0.404463 1.57696 0
M  V30 4192 O 397.787 -0.206722 1.77299 0
M  V30 4193 C 394.887 -0.294711 3.37616 0
M  V30 4194 C 394.06 0.605723 4.33186 0
M  V30 4195 C 393.119 -0.13717 5.26021 0
M  V30 4196 O 392.145 0.477164 5.67196 0
M  V30 4197 N 393.347 -1.4197 5.62872 0
M  V30 4198 H 396.112 1.37045 2.66531 0
M  V30 4199 H 393.673 0.866741 1.36745 0
M  V30 4200 H 395.665 -0.800329 3.96707 0
M  V30 4201 H 394.235 -1.06623 2.93854 0
M  V30 4202 H 393.455 1.29202 3.72425 0
M  V30 4203 H 394.743 1.21896 4.93983 0
M  V30 4204 H 394.141 -1.94015 5.31389 0
M  V30 4205 H 392.698 -1.87052 6.24383 0
M  V30 4206 N 396.131 -1.37776 0.765217 0
M  V30 4207 C 397.359 -2.04124 0.337767 0
M  V30 4208 C 397.774 -1.57715 -1.03785 0
M  V30 4209 O 397.131 -0.755447 -1.6613 0
M  V30 4210 C 397.182 -3.59658 0.364442 0
M  V30 4211 O 396.903 -4.04367 1.68579 0
M  V30 4212 C 398.404 -4.43236 -0.0754221 0
M  V30 4213 H 395.624 -0.655696 0.142491 0
M  V30 4214 H 398.168 -1.76238 1.03732 0
M  V30 4215 H 396.323 -3.86339 -0.286471 0
M  V30 4216 H 396.737 -4.98857 1.61993 0
M  V30 4217 H 398.211 -5.52 -0.00560067 0
M  V30 4218 H 398.688 -4.2455 -1.12491 0
M  V30 4219 H 399.294 -4.21767 0.547055 0
M  V30 4220 N 397.609 -0.515225 -1.4894 0
M  V30 4221 C 398.539 0.244628 -2.32215 0
M  V30 4222 C 399.52 0.949136 -1.41157 0
M  V30 4223 O 400.705 0.937783 -1.70057 0
M  V30 4224 C 397.835 1.30096 -3.22013 0
M  V30 4225 C 396.789 0.715486 -4.21977 0
M  V30 4226 C 396.115 1.87339 -5.00808 0
M  V30 4227 C 397.415 -0.302982 -5.2142 0
M  V30 4228 H 399.109 -0.450501 -2.95991 0
M  V30 4229 H 396.655 -0.218098 -1.42339 0
M  V30 4230 H 398.608 1.84037 -3.79089 0
M  V30 4231 H 397.332 2.02547 -2.56207 0
M  V30 4232 H 395.991 0.197715 -3.66066 0
M  V30 4233 H 395.639 2.58592 -4.31438 0
M  V30 4234 H 395.339 1.48764 -5.68457 0
M  V30 4235 H 396.863 2.41686 -5.60732 0
M  V30 4236 H 398.277 0.148802 -5.73107 0
M  V30 4237 H 396.674 -0.60532 -5.97039 0
M  V30 4238 H 397.744 -1.21395 -4.69459 0
M  V30 4239 N 399.087 1.5561 -0.249682 0
M  V30 4240 C 400.05 2.20217 0.635394 0
M  V30 4241 C 401.05 1.17227 1.10066 0
M  V30 4242 O 402.24 1.42292 1.00492 0
M  V30 4243 C 399.372 2.84794 1.87363 0
M  V30 4244 H 400.565 2.99814 0.0716752 0
M  V30 4245 H 398.118 1.563 -0.000153234 0
M  V30 4246 H 398.853 2.09142 2.47851 0
M  V30 4247 H 398.638 3.60241 1.5482 0
M  V30 4248 H 400.128 3.3423 2.5036 0
M  V30 4249 N 400.565 -0.0233959 1.57583 0
M  V30 4250 C 401.813 -0.711654 1.89156 0
M  V30 4251 C 402.134 -1.75591 0.848096 0
M  V30 4252 O 401.404 -1.95547 -0.117566 0
M  V30 4253 H 399.984 -0.265835 0.698098 0
M  V30 4254 H 402.646 0.0119948 1.94896 0
M  V30 4255 H 401.742 -1.19766 2.88206 0
M  V30 4256 N 402.043 -1.548 -0.295768 0
M  V30 4257 C 403.291 -1.73985 -1.02828 0
M  V30 4258 C 403.612 -0.531406 -1.87619 0
M  V30 4259 O 402.882 0.454221 -1.90561 0
M  V30 4260 H 401.462 -0.641556 -0.382642 0
M  V30 4261 H 404.124 -1.92163 -0.325489 0
M  V30 4262 H 403.22 -2.63129 -1.67838 0
M  V30 4263 N 403.521 0.559213 -1.47345 0
M  V30 4264 C 404.469 1.68747 -1.60085 0
M  V30 4265 C 405.463 1.628 -0.46825 0
M  V30 4266 O 406.669 1.68009 -0.645977 0
M  V30 4267 H 403.044 0.558329 -0.503759 0
M  V30 4268 H 405.015 1.55138 -2.54902 0
M  V30 4269 C 403.764 3.07103 -1.63042 0
M  V30 4270 H 403.087 3.12361 -2.49541 0
M  V30 4271 H 404.527 3.85743 -1.76006 0
M  V30 4272 C 402.986 3.34935 -0.363357 0
M  V30 4273 O 403.516 3.98102 0.536416 0
M  V30 4274 N 401.722 2.89574 -0.244 0
M  V30 4275 H 401.269 2.38348 -0.977133 0
M  V30 4276 H 401.227 3.08566 0.602836 0
M  V30 4277 N 404.999 1.35443 0.805782 0
M  V30 4278 C 405.947 1.28465 1.93906 0
M  V30 4279 C 406.941 0.17943 1.68447 0
M  V30 4280 O 408.147 0.345459 1.76654 0
M  V30 4281 H 404.522 0.399528 0.637088 0
M  V30 4282 H 406.493 2.24206 1.96912 0
M  V30 4283 C 405.242 1.07432 3.30687 0
M  V30 4284 H 404.565 1.91716 3.50835 0
M  V30 4285 H 406.005 1.06591 4.10383 0
M  V30 4286 C 404.464 -0.22179 3.36169 0
M  V30 4287 O 404.994 -1.21731 3.82811 0
M  V30 4288 N 403.2 -0.260841 2.89427 0
M  V30 4289 H 402.747 0.549884 2.51663 0
M  V30 4290 H 402.705 -1.12777 2.93477 0
M  V30 4291 N 406.477 -1.02803 1.19454 0
M  V30 4292 C 407.723 -1.76598 1.0092 0
M  V30 4293 C 408.078 -1.86939 -0.455142 0
M  V30 4294 O 407.371 -1.37575 -1.33355 0
M  V30 4295 C 407.565 -3.18941 1.6128 0
M  V30 4296 C 407.394 -3.22476 3.13431 0
M  V30 4297 C 406.164 -3.30375 3.82336 0
M  V30 4298 C 408.362 -3.09451 4.10785 0
M  V30 4299 N 406.344 -3.23292 5.21877 0
M  V30 4300 C 407.715 -3.10012 5.36929 0
M  V30 4301 C 409.77 -2.93585 4.02135 0
M  V30 4302 C 408.473 -2.96334 6.55423 0
M  V30 4303 C 410.499 -2.81256 5.20239 0
M  V30 4304 C 409.861 -2.82472 6.45282 0
M  V30 4305 H 405.96 -0.657447 0.423424 0
M  V30 4306 H 408.544 -1.22369 1.5144 0
M  V30 4307 H 406.715 -3.71489 1.1336 0
M  V30 4308 H 408.447 -3.81102 1.36173 0
M  V30 4309 H 405.202 -3.3663 3.33132 0
M  V30 4310 H 405.626 -3.23156 5.94894 0
M  V30 4311 H 410.268 -2.91466 3.0628 0
M  V30 4312 H 407.986 -2.97203 7.51463 0
M  V30 4313 H 411.572 -2.70014 5.15348 0
M  V30 4314 H 410.452 -2.73036 7.35133 0
M  V30 4315 N 407.956 -0.998596 -1.21925 0
M  V30 4316 C 409.367 -0.711939 -1.72593 0
M  V30 4317 C 409.718 0.770842 -1.80423 0
M  V30 4318 O 408.843 1.60237 -1.4544 0
M  V30 4319 C 409.438 -1.28567 -3.13458 0
M  V30 4320 C 407.997 -1.04828 -3.61508 0
M  V30 4321 C 407.144 -1.4024 -2.39224 0
M  V30 4322 H 410.095 -1.17027 -1.07193 0
M  V30 4323 H 410.116 -0.667098 -3.74607 0
M  V30 4324 H 409.628 -2.36486 -3.07727 0
M  V30 4325 H 407.729 0.0140383 -3.72597 0
M  V30 4326 H 407.842 -1.71566 -4.47328 0
M  V30 4327 H 406.206 -0.821077 -2.41103 0
M  V30 4328 H 406.989 -2.49176 -2.36149 0
M  V30 4329 N 409.434 1.37368 -0.772513 0
M  V30 4330 C 410.364 2.32856 -0.173304 0
M  V30 4331 C 411.345 1.55818 0.682262 0
M  V30 4332 O 412.53 1.84052 0.619566 0
M  V30 4333 C 409.66 3.40048 0.706007 0
M  V30 4334 C 408.614 4.27973 -0.0483144 0
M  V30 4335 C 407.94 5.26184 0.950491 0
M  V30 4336 C 409.24 5.07665 -1.22776 0
M  V30 4337 H 410.934 2.83217 -0.971002 0
M  V30 4338 H 408.48 1.3617 -0.468377 0
M  V30 4339 H 410.433 4.05827 1.13501 0
M  V30 4340 H 409.157 2.88214 1.53623 0
M  V30 4341 H 407.816 3.63726 -0.458107 0
M  V30 4342 H 407.464 4.7063 1.77529 0
M  V30 4343 H 407.164 5.85872 0.450314 0
M  V30 4344 H 408.688 5.94838 1.37842 0
M  V30 4345 H 410.102 5.66578 -0.875366 0
M  V30 4346 H 408.499 5.76681 -1.66007 0
M  V30 4347 H 409.569 4.40294 -2.03149 0
M  V30 4348 N 410.912 0.523116 1.48665 0
M  V30 4349 C 412.328 0.180511 1.58576 0
M  V30 4350 C 412.528 -1.31597 1.52592 0
M  V30 4351 O 411.584 -2.0937 1.4114 0
M  V30 4352 C 412.897 0.776949 2.90489 0
M  V30 4353 C 414.445 0.745058 3.04003 0
M  V30 4354 C 414.92 1.31995 4.38567 0
M  V30 4355 N 416.411 1.28162 4.45117 0
M  V30 4356 C 417.146 1.6964 5.47731 0
M  V30 4357 N 416.642 2.18816 6.57337 0
M  V30 4358 N 418.435 1.6092 5.38573 0
M  V30 4359 H 410.586 1.4958 1.50797 0
M  V30 4360 H 412.849 0.621772 0.715614 0
M  V30 4361 H 412.555 1.82732 3.00503 0
M  V30 4362 H 412.429 0.25007 3.7637 0
M  V30 4363 H 414.816 -0.296532 2.93606 0
M  V30 4364 H 414.897 1.30933 2.1975 0
M  V30 4365 H 414.541 2.36043 4.49718 0
M  V30 4366 H 414.471 0.731418 5.21496 0
M  V30 4367 H 416.962 0.92155 3.66491 0
M  V30 4368 H 417.275 2.48478 7.31764 0
M  V30 4369 H 415.62 2.22805 6.58318 0
M  V30 4370 H 418.811 1.22304 4.5184 0
M  V30 4371 H 418.984 1.93567 6.18414 0
M  V30 4372 N 412.39 -1.55475 0.257931 0
M  V30 4373 C 413.638 -1.98813 -0.363009 0
M  V30 4374 C 413.959 -1.14757 -1.57657 0
M  V30 4375 O 413.229 -0.232956 -1.9451 0
M  V30 4376 H 411.809 -0.734308 -0.137113 0
M  V30 4377 H 414.471 -1.9156 0.359281 0
M  V30 4378 H 413.567 -3.04941 -0.664634 0
M  V30 4379 N 413.868 0.0150385 -1.57593 0
M  V30 4380 C 415.284 0.370907 -1.5523 0
M  V30 4381 C 415.484 1.75735 -0.985882 0
M  V30 4382 O 414.54 2.44944 -0.613077 0
M  V30 4383 C 415.853 0.259908 -2.99575 0
M  V30 4384 C 417.401 0.335959 -3.11192 0
M  V30 4385 C 417.876 0.254253 -4.57294 0
M  V30 4386 N 419.367 0.312618 -4.62144 0
M  V30 4387 C 420.102 0.272505 -5.72752 0
M  V30 4388 N 419.598 0.183864 -6.92556 0
M  V30 4389 N 421.391 0.323267 -5.6117 0
M  V30 4390 H 413.542 -0.892104 -1.92757 0
M  V30 4391 H 415.805 -0.340563 -0.884715 0
M  V30 4392 H 415.511 -0.693403 -3.44797 0
M  V30 4393 H 415.385 1.048 -3.62349 0
M  V30 4394 H 417.772 1.27971 -2.65909 0
M  V30 4395 H 417.853 -0.481739 -2.51223 0
M  V30 4396 H 417.497 -0.685887 -5.03247 0
M  V30 4397 H 417.427 1.09024 -5.15191 0
M  V30 4398 H 419.918 0.38307 -3.75953 0
M  V30 4399 H 420.231 0.15874 -7.72637 0
M  V30 4400 H 418.576 0.149708 -6.94839 0
M  V30 4401 H 421.767 0.390607 -4.66467 0
M  V30 4402 H 421.94 0.288539 -6.47357 0
M  V30 4403 N 415.346 1.54954 0.287554 0
M  V30 4404 C 416.293 1.86834 1.35505 0
M  V30 4405 C 417.263 0.718452 1.49758 0
M  V30 4406 O 418.448 0.968358 1.644 0
M  V30 4407 C 415.588 2.13303 2.71286 0
M  V30 4408 C 414.701 3.40883 2.65373 0
M  V30 4409 C 413.836 3.57125 3.93236 0
M  V30 4410 C 412.875 4.78449 3.81776 0
M  V30 4411 N 412.012 4.91426 5.01443 0
M  V30 4412 H 416.852 2.77889 1.07619 0
M  V30 4413 H 414.389 1.37593 0.520241 0
M  V30 4414 H 416.347 2.26646 3.50267 0
M  V30 4415 H 414.977 1.25499 2.97405 0
M  V30 4416 H 414.029 3.36088 1.78182 0
M  V30 4417 H 415.341 4.29993 2.52799 0
M  V30 4418 H 414.495 3.70207 4.80658 0
M  V30 4419 H 413.234 2.66173 4.0866 0
M  V30 4420 H 412.239 4.65386 2.92738 0
M  V30 4421 H 413.464 5.70822 3.67884 0
M  V30 4422 H 411.41 4.03401 5.17304 0
M  V30 4423 H 411.327 5.74559 4.91343 0
M  V30 4424 H 412.595 5.08879 5.90477 0
M  V30 4425 N 416.824 -0.551391 1.4764 0
M  V30 4426 C 418.07 -1.30789 1.55774 0
M  V30 4427 C 418.425 -1.91143 0.219562 0
M  V30 4428 O 417.718 -1.7521 -0.775375 0
M  V30 4429 C 417.912 -2.43469 2.61644 0
M  V30 4430 C 417.741 -1.94157 4.05627 0
M  V30 4431 C 416.511 -1.77734 4.7301 0
M  V30 4432 C 418.709 -1.48262 4.92466 0
M  V30 4433 N 416.691 -1.22823 6.01488 0
M  V30 4434 C 418.062 -1.05156 6.11017 0
M  V30 4435 C 420.117 -1.36367 4.78862 0
M  V30 4436 C 418.82 -0.513357 7.17466 0
M  V30 4437 C 420.846 -0.839484 5.85411 0
M  V30 4438 C 420.208 -0.418377 7.03156 0
M  V30 4439 H 416.307 -0.470406 0.624694 0
M  V30 4440 H 418.891 -0.624331 1.84419 0
M  V30 4441 H 417.062 -3.09348 2.34859 0
M  V30 4442 H 418.794 -3.10477 2.59589 0
M  V30 4443 H 415.549 -2.00623 4.29007 0
M  V30 4444 H 415.973 -0.974393 6.69951 0
M  V30 4445 H 420.615 -1.67535 3.88191 0
M  V30 4446 H 418.333 -0.189318 8.07878 0
M  V30 4447 H 421.919 -0.750921 5.76934 0
M  V30 4448 H 420.799 -0.0190538 7.84198 0
M  V30 4449 N 418.302 -1.35869 -0.798587 0
M  V30 4450 C 419.527 -1.32883 -1.59238 0
M  V30 4451 C 419.952 0.0894587 -1.87887 0
M  V30 4452 O 419.31 1.05869 -1.47178 0
M  V30 4453 C 419.358 -2.14892 -2.89575 0
M  V30 4454 O 418.462 -1.53512 -3.82763 0
M  V30 4455 H 417.803 -0.455236 -0.48338 0
M  V30 4456 H 420.333 -1.79024 -0.990539 0
M  V30 4457 H 420.343 -2.27139 -3.38928 0
M  V30 4458 H 419.018 -3.17998 -2.68049 0
M  V30 4459 H 417.595 -1.50153 -3.41334 0
M  V30 4460 N 419.78 1.02168 -1.19998 0
M  V30 4461 C 420.71 2.12488 -0.96804 0
M  V30 4462 C 421.691 1.69799 0.101185 0
M  V30 4463 O 422.876 1.94121 -0.0552993 0
M  V30 4464 C 420.006 3.43479 -0.513776 0
M  V30 4465 C 418.96 3.99884 -1.52566 0
M  V30 4466 C 418.286 5.26582 -0.928214 0
M  V30 4467 C 419.586 4.33861 -2.90795 0
M  V30 4468 H 421.28 2.32149 -1.89069 0
M  V30 4469 H 418.826 1.11564 -0.910468 0
M  V30 4470 H 420.779 4.20036 -0.338774 0
M  V30 4471 H 419.503 3.23561 0.444493 0
M  V30 4472 H 418.162 3.25429 -1.68794 0
M  V30 4473 H 417.81 5.02986 0.0378289 0
M  V30 4474 H 417.51 5.65284 -1.60397 0
M  V30 4475 H 419.034 6.05799 -0.764167 0
M  V30 4476 H 420.448 5.01327 -2.78109 0
M  V30 4477 H 418.845 4.83664 -3.55231 0
M  V30 4478 H 419.915 3.42848 -3.42904 0
M  V30 4479 N 421.258 1.00505 1.21394 0
M  V30 4480 C 422.504 0.698477 1.91031 0
M  V30 4481 C 422.859 -0.762448 1.76648 0
M  V30 4482 O 422.152 -1.54554 1.13241 0
M  V30 4483 C 422.346 1.0546 3.41486 0
M  V30 4484 C 422.175 2.5486 3.70508 0
M  V30 4485 C 420.945 3.21461 3.8986 0
M  V30 4486 C 423.143 3.53019 3.74008 0
M  V30 4487 N 421.125 4.60211 4.06299 0
M  V30 4488 C 422.496 4.77279 3.95733 0
M  V30 4489 C 424.551 3.47154 3.56915 0
M  V30 4490 C 423.254 5.96388 4.02137 0
M  V30 4491 C 425.28 4.65652 3.64585 0
M  V30 4492 C 424.642 5.88717 3.86771 0
M  V30 4493 H 420.741 0.30707 0.719189 0
M  V30 4494 H 423.325 1.28753 1.46051 0
M  V30 4495 H 421.496 0.494007 3.85246 0
M  V30 4496 H 423.228 0.702765 3.98552 0
M  V30 4497 H 419.983 2.71906 3.87768 0
M  V30 4498 H 420.407 5.32216 4.1842 0
M  V30 4499 H 425.049 2.53015 3.38738 0
M  V30 4500 H 422.767 6.90919 4.19114 0
M  V30 4501 H 426.353 4.62717 3.52681 0
M  V30 4502 H 425.233 6.78877 3.92549 0
M  V30 4503 N 422.737 -1.36956 0.779787 0
M  V30 4504 C 423.647 -2.33965 0.172491 0
M  V30 4505 C 424.663 -1.60574 -0.670222 0
M  V30 4506 O 425.839 -1.92617 -0.588263 0
M  V30 4507 C 422.904 -3.39761 -0.690173 0
M  V30 4508 C 421.965 -4.28964 0.169924 0
M  V30 4509 C 421.198 -5.29707 -0.651662 0
M  V30 4510 O 421.421 -5.38238 -1.88827 0
M  V30 4511 O 420.355 -6.01873 -0.0566264 0
M  V30 4512 H 424.181 -2.87647 0.974321 0
M  V30 4513 H 421.766 -1.39258 0.541078 0
M  V30 4514 H 423.648 -4.04471 -1.1824 0
M  V30 4515 H 422.323 -2.88394 -1.47006 0
M  V30 4516 H 421.23 -3.67326 0.708696 0
M  V30 4517 H 422.563 -4.83656 0.913085 0
M  V30 4518 N 424.215 -0.530993 -1.48385 0
M  V30 4519 C 425.463 0.00273189 -2.021 0
M  V30 4520 C 425.784 1.34672 -1.41027 0
M  V30 4521 O 425.054 1.8724 -0.576012 0
M  V30 4522 H 423.634 0.00399774 -0.746989 0
M  V30 4523 H 426.296 -0.695054 -1.82085 0
M  V30 4524 H 425.392 0.11031 -3.11905 0
M  V30 4525 N 425.693 1.55336 -0.266172 0
M  V30 4526 C 426.941 1.99003 0.35246 0
M  V30 4527 C 427.262 1.15591 1.57047 0
M  V30 4528 O 426.532 0.243268 1.94384 0
M  V30 4529 H 425.112 0.735025 0.133217 0
M  V30 4530 H 427.774 1.91367 -0.369434 0
M  V30 4531 H 426.87 3.05289 0.648453 0
M  V30 4532 N 427.171 -0.0066808 1.57599 0
M  V30 4533 C 428.417 -0.693947 1.90558 0
M  V30 4534 C 428.75 -1.73792 0.866594 0
M  V30 4535 O 428.025 -1.94156 -0.115548 0
M  V30 4536 C 428.308 -1.34317 3.34112 0
M  V30 4537 C 428.161 -0.311189 4.48722 0
M  V30 4538 C 429.48 -2.27116 3.7697 0
M  V30 4539 H 426.599 -0.250803 0.693013 0
M  V30 4540 H 429.241 0.043242 1.89951 0
M  V30 4541 H 427.391 -1.9715 3.3476 0
M  V30 4542 H 429.063 0.316944 4.6021 0
M  V30 4543 H 427.306 0.367253 4.32243 0
M  V30 4544 H 427.977 -0.804366 5.46108 0
M  V30 4545 H 430.453 -1.74306 3.77831 0
M  V30 4546 H 429.329 -2.69511 4.78179 0
M  V30 4547 H 429.59 -3.14743 3.10466 0
M  V30 4548 N 428.649 -1.55105 -0.279332 0
M  V30 4549 C 430.065 -1.46803 -0.626187 0
M  V30 4550 C 430.265 -0.676939 -1.89789 0
M  V30 4551 O 429.321 -0.19326 -2.51759 0
M  V30 4552 C 430.634 -2.90962 -0.759034 0
M  V30 4553 C 432.182 -3.01138 -0.853504 0
M  V30 4554 C 432.657 -4.46539 -1.01818 0
M  V30 4555 N 434.148 -4.50341 -1.08386 0
M  V30 4556 C 434.883 -5.60053 -1.22996 0
M  V30 4557 N 434.379 -6.79645 -1.34366 0
M  V30 4558 N 436.172 -5.47783 -1.26056 0
M  V30 4559 H 428.323 -2.04996 0.555921 0
M  V30 4560 H 430.586 -0.929325 0.187239 0
M  V30 4561 H 430.292 -3.51544 0.104852 0
M  V30 4562 H 430.166 -3.39619 -1.64131 0
M  V30 4563 H 432.553 -2.40658 -1.70786 0
M  V30 4564 H 432.634 -2.55745 0.0532466 0
M  V30 4565 H 432.278 -5.0762 -0.168504 0
M  V30 4566 H 432.208 -4.89583 -1.93948 0
M  V30 4567 H 434.699 -3.64191 -1.00864 0
M  V30 4568 H 435.012 -7.59012 -1.4533 0
M  V30 4569 H 433.357 -6.82469 -1.31382 0
M  V30 4570 H 436.548 -4.53294 -1.168 0
M  V30 4571 H 436.721 -6.33331 -1.37098 0
M  V30 4572 N 430.127 0.543554 -1.4793 0
M  V30 4573 C 431.375 1.29752 -1.54948 0
M  V30 4574 C 431.696 1.93764 -0.219242 0
M  V30 4575 O 430.966 1.80639 0.75805 0
M  V30 4576 H 429.546 0.481874 -0.570795 0
M  V30 4577 H 432.208 0.633636 -1.84312 0
M  V30 4578 H 431.304 2.08392 -2.32334 0
M  V30 4579 N 431.605 1.3629 0.791371 0
M  V30 4580 C 432.851 1.30605 1.55146 0
M  V30 4581 C 433.184 -0.115042 1.93859 0
M  V30 4582 O 432.459 -1.06798 1.62556 0
M  V30 4583 C 432.742 2.22692 2.82985 0
M  V30 4584 C 432.595 3.73489 2.50651 0
M  V30 4585 C 433.914 2.13588 3.84796 0
M  V30 4586 H 431.033 0.475761 0.562868 0
M  V30 4587 H 433.675 1.66825 0.909358 0
M  V30 4588 H 431.825 1.91933 3.37778 0
M  V30 4589 H 433.497 4.14758 2.01924 0
M  V30 4590 H 431.74 3.93021 1.83622 0
M  V30 4591 H 432.411 4.3333 3.41949 0
M  V30 4592 H 434.887 2.40659 3.39445 0
M  V30 4593 H 433.763 2.80195 4.71998 0
M  V30 4594 H 434.024 1.12256 4.27611 0
M  V30 4595 N 433.083 -1.0153 1.20538 0
M  V30 4596 C 434.331 -1.74803 1.01432 0
M  V30 4597 C 434.652 -1.8963 -0.454456 0
M  V30 4598 O 433.922 -1.43975 -1.32846 0
M  V30 4599 H 432.502 -0.647598 0.372324 0
M  V30 4600 H 435.164 -1.22402 1.5167 0
M  V30 4601 H 434.26 -2.75114 1.47373 0
M  V30 4602 N 434.561 -1.01147 -1.20859 0
M  V30 4603 C 435.808 -0.697865 -1.90095 0
M  V30 4604 C 436.136 0.772014 -1.78522 0
M  V30 4605 O 435.391 1.57595 -1.16027 0
M  V30 4606 C 435.69 -1.0727 -3.40922 0
M  V30 4607 C 435.356 -2.53792 -3.72693 0
M  V30 4608 C 434.018 -2.93829 -3.81075 0
M  V30 4609 C 436.37 -3.48674 -3.87397 0
M  V30 4610 C 433.698 -4.27696 -4.01613 0
M  V30 4611 C 436.05 -4.82223 -4.09444 0
M  V30 4612 C 434.714 -5.21973 -4.16054 0
M  V30 4613 H 433.984 -0.255367 -0.695607 0
M  V30 4614 H 436.631 -1.27111 -1.43231 0
M  V30 4615 H 434.936 -0.417799 -3.89566 0
M  V30 4616 H 436.633 -0.807818 -3.92779 0
M  V30 4617 H 433.223 -2.21768 -3.66765 0
M  V30 4618 H 437.407 -3.18904 -3.80281 0
M  V30 4619 H 432.663 -4.58055 -4.04964 0
M  V30 4620 H 436.837 -5.55672 -4.19763 0
M  V30 4621 H 434.464 -6.25717 -4.31721 0
M  V30 4622 N 436.039 1.36541 -0.78704 0
M  V30 4623 C 437.285 1.99599 -0.358872 0
M  V30 4624 C 437.618 1.62323 1.06606 0
M  V30 4625 O 436.893 0.876858 1.73613 0
M  V30 4626 C 437.176 3.56327 -0.519944 0
M  V30 4627 C 437.029 4.03464 -1.98839 0
M  V30 4628 C 438.348 4.4005 0.0664737 0
M  V30 4629 H 435.467 0.725107 -0.131869 0
M  V30 4630 H 438.109 1.6199 -0.992936 0
M  V30 4631 H 436.259 3.88495 0.0198321 0
M  V30 4632 H 437.931 3.81793 -2.58905 0
M  V30 4633 H 436.174 3.55092 -2.49183 0
M  V30 4634 H 436.845 5.12439 -2.05207 0
M  V30 4635 H 439.321 4.14228 -0.394267 0
M  V30 4636 H 438.197 5.48847 -0.0762682 0
M  V30 4637 H 438.458 4.26655 1.15835 0
M  V30 4638 N 437.518 0.538854 1.48102 0
M  V30 4639 C 438.481 -0.208395 2.28251 0
M  V30 4640 C 439.481 -0.859656 1.35892 0
M  V30 4641 O 440.671 -0.71834 1.58699 0
M  V30 4642 C 437.803 -1.30252 3.15035 0
M  V30 4643 H 438.996 0.495407 2.9578 0
M  V30 4644 H 436.549 0.295112 1.53489 0
M  V30 4645 H 437.284 -2.0393 2.52157 0
M  V30 4646 H 437.069 -0.840551 3.82985 0
M  V30 4647 H 438.559 -1.82787 3.75471 0
M  V30 4648 N 438.996 -1.55193 0.274407 0
M  V30 4649 C 440.221 -2.04446 -0.348824 0
M  V30 4650 C 440.646 -1.15149 -1.48735 0
M  V30 4651 O 440.004 -0.149952 -1.80679 0
M  V30 4652 C 440.052 -3.51431 -0.808009 0
M  V30 4653 O 439.156 -3.65225 -1.91531 0
M  V30 4654 H 438.497 -0.66006 -0.0722276 0
M  V30 4655 H 441.027 -2.00481 0.408498 0
M  V30 4656 H 441.037 -3.92781 -1.10395 0
M  V30 4657 H 439.712 -4.15892 0.0249865 0
M  V30 4658 H 438.289 -3.35778 -1.62196 0
M  V30 4659 N 440.474 -0.00167713 -1.576 0
M  V30 4660 C 441.885 0.54091 -1.78693 0
M  V30 4661 C 442.236 1.7386 -0.909247 0
M  V30 4662 O 441.361 2.16109 -0.112176 0
M  V30 4663 C 441.956 0.98806 -3.24072 0
M  V30 4664 C 440.515 1.47594 -3.46256 0
M  V30 4665 C 439.662 0.42792 -2.73978 0
M  V30 4666 H 442.613 -0.22784 -1.57056 0
M  V30 4667 H 442.634 1.85398 -3.32277 0
M  V30 4668 H 442.146 0.116164 -3.87926 0
M  V30 4669 H 440.247 2.36868 -2.87618 0
M  V30 4670 H 440.36 1.50225 -4.54939 0
M  V30 4671 H 438.724 0.889934 -2.38647 0
M  V30 4672 H 439.507 -0.435038 -3.40532 0
M  V30 4673 N 441.952 1.55251 0.271103 0
M  V30 4674 C 442.882 1.9127 1.33933 0
M  V30 4675 C 443.863 0.77478 1.5143 0
M  V30 4676 O 445.048 1.03307 1.64442 0
M  V30 4677 C 442.178 2.18627 2.69851 0
M  V30 4678 C 441.132 3.34442 2.67081 0
M  V30 4679 C 440.458 3.47284 4.06569 0
M  V30 4680 C 441.758 4.70784 2.26185 0
M  V30 4681 H 443.452 2.80744 1.04035 0
M  V30 4682 H 440.998 1.35077 0.499017 0
M  V30 4683 H 442.951 2.42413 3.44694 0
M  V30 4684 H 441.675 1.25955 3.01335 0
M  V30 4685 H 440.334 3.10627 1.94695 0
M  V30 4686 H 439.982 2.52074 4.35279 0
M  V30 4687 H 439.682 4.25152 4.0561 0
M  V30 4688 H 441.206 3.73363 4.83148 0
M  V30 4689 H 442.62 4.94102 2.90751 0
M  V30 4690 H 441.017 5.51582 2.36384 0
M  V30 4691 H 442.087 4.69478 1.21319 0
M  V30 4692 N 443.43 -0.535701 1.48216 0
M  V30 4693 C 444.36 -1.65014 1.65204 0
M  V30 4694 C 445.341 -1.62554 0.501011 0
M  V30 4695 O 446.526 -1.7984 0.732886 0
M  V30 4696 C 443.656 -3.03616 1.68626 0
M  V30 4697 C 442.61 -3.20932 2.83172 0
M  V30 4698 C 441.936 -4.60537 2.71679 0
M  V30 4699 C 443.236 -3.04249 4.24535 0
M  V30 4700 H 444.93 -1.51053 2.58502 0
M  V30 4701 H 442.476 -0.725262 1.24402 0
M  V30 4702 H 444.429 -3.81446 1.79099 0
M  V30 4703 H 443.153 -3.18587 0.719026 0
M  V30 4704 H 441.812 -2.45517 2.72244 0
M  V30 4705 H 441.46 -4.72336 1.72937 0
M  V30 4706 H 441.16 -4.73069 3.48538 0
M  V30 4707 H 442.684 -5.40475 2.84112 0
M  V30 4708 H 444.098 -3.71877 4.36326 0
M  V30 4709 H 442.495 -3.28278 5.02348 0
M  V30 4710 H 443.565 -2.00739 4.41397 0
M  V30 4711 N 444.908 -1.36708 -0.784132 0
M  V30 4712 C 445.855 -1.31466 -1.89698 0
M  V30 4713 C 446.825 -0.18239 -1.65096 0
M  V30 4714 O 448.01 -0.369762 -1.87183 0
M  V30 4715 C 445.15 -1.1151 -3.26588 0
M  V30 4716 C 444.263 -2.33859 -3.63227 0
M  V30 4717 C 443.398 -2.06873 -4.89262 0
M  V30 4718 C 442.437 -3.25154 -5.18595 0
M  V30 4719 N 441.574 -2.978 -6.35814 0
M  V30 4720 H 446.414 -2.26619 -1.93515 0
M  V30 4721 H 443.951 -1.12625 -0.946256 0
M  V30 4722 H 445.909 -0.979653 -4.05535 0
M  V30 4723 H 444.539 -0.200103 -3.22179 0
M  V30 4724 H 443.591 -2.58188 -2.79362 0
M  V30 4725 H 444.903 -3.22109 -3.8085 0
M  V30 4726 H 444.057 -1.90289 -5.76086 0
M  V30 4727 H 442.796 -1.15942 -4.73718 0
M  V30 4728 H 441.801 -3.42292 -4.30251 0
M  V30 4729 H 443.026 -4.1692 -5.36055 0
M  V30 4730 H 440.972 -2.09485 -6.21653 0
M  V30 4731 H 440.889 -3.7959 -6.53794 0
M  V30 4732 H 442.157 -2.84805 -7.25607 0
M  V30 4733 N 446.386 1.0089 -1.21074 0
M  V30 4734 C 447.318 2.09737 -0.924291 0
M  V30 4735 C 448.331 1.62546 0.0909809 0
M  V30 4736 O 449.52 1.77942 -0.141021 0
M  V30 4737 C 446.62 3.36922 -0.36559 0
M  V30 4738 C 445.793 4.13216 -1.43426 0
M  V30 4739 C 444.852 5.18696 -0.885496 0
M  V30 4740 O 443.878 5.47176 -1.56801 0
M  V30 4741 N 445.08 5.79718 0.301227 0
M  V30 4742 H 447.845 2.34895 -1.8613 0
M  V30 4743 H 445.406 1.17341 -1.11546 0
M  V30 4744 H 447.398 4.04697 0.0158407 0
M  V30 4745 H 445.968 3.08952 0.476149 0
M  V30 4746 H 445.188 3.40301 -1.9897 0
M  V30 4747 H 446.476 4.60967 -2.15376 0
M  V30 4748 H 445.874 5.58926 0.872849 0
M  V30 4749 H 444.431 6.48804 0.624211 0
M  V30 4750 N 447.864 1.01787 1.20321 0
M  V30 4751 C 448.811 0.589197 2.23153 0
M  V30 4752 C 449.781 -0.391367 1.61423 0
M  V30 4753 O 450.966 -0.290518 1.88575 0
M  V30 4754 C 448.106 -0.0650747 3.45039 0
M  V30 4755 C 447.219 0.960207 4.21194 0
M  V30 4756 C 446.354 0.276854 5.30478 0
M  V30 4757 C 445.393 1.2888 5.98378 0
M  V30 4758 N 444.53 0.632031 6.99249 0
M  V30 4759 H 449.37 1.47071 2.59179 0
M  V30 4760 H 446.907 0.736192 1.27352 0
M  V30 4761 H 448.865 -0.461552 4.14639 0
M  V30 4762 H 447.495 -0.910233 3.09701 0
M  V30 4763 H 446.547 1.47484 3.50646 0
M  V30 4764 H 447.859 1.72977 4.67847 0
M  V30 4765 H 447.013 -0.175056 6.06447 0
M  V30 4766 H 445.752 -0.525004 4.84866 0
M  V30 4767 H 444.757 1.75109 5.21169 0
M  V30 4768 H 445.982 2.09196 6.46076 0
M  V30 4769 H 443.928 -0.149935 6.55829 0
M  V30 4770 H 443.845 1.33964 7.44036 0
M  V30 4771 H 445.113 0.203755 7.79234 0
M  V30 4772 N 449.342 -1.36122 0.79427 0
M  V30 4773 C 450.59 -1.98718 0.368177 0
M  V30 4774 C 450.911 -1.63345 -1.06506 0
M  V30 4775 O 450.181 -0.909825 -1.73491 0
M  V30 4776 H 448.761 -0.735038 0.133146 0
M  V30 4777 H 451.423 -1.66239 1.01739 0
M  V30 4778 H 450.519 -3.08633 0.463923 0
M  V30 4779 N 450.82 -0.546701 -1.47814 0
M  V30 4780 C 452.066 -0.0187684 -2.02791 0
M  V30 4781 C 452.399 1.32338 -1.42128 0
M  V30 4782 O 451.674 1.85867 -0.573023 0
M  V30 4783 C 451.957 0.0854985 -3.59998 0
M  V30 4784 C 451.81 -1.283 -4.31114 0
M  V30 4785 C 453.129 0.80412 -4.32691 0
M  V30 4786 H 450.248 -0.0082946 -0.736953 0
M  V30 4787 H 452.89 -0.706962 -1.76358 0
M  V30 4788 H 451.04 0.671609 -3.82651 0
M  V30 4789 H 452.712 -1.91151 -4.19832 0
M  V30 4790 H 450.955 -1.86049 -3.91878 0
M  V30 4791 H 451.626 -1.16287 -5.39612 0
M  V30 4792 H 454.102 0.306576 -4.14969 0
M  V30 4793 H 452.978 0.846011 -5.42341 0
M  V30 4794 H 453.239 1.85802 -4.01161 0
M  V30 4795 N 452.299 1.55045 -0.282633 0
M  V30 4796 C 453.246 2.22822 0.601566 0
M  V30 4797 C 454.216 1.20431 1.14392 0
M  V30 4798 O 455.401 1.48996 1.19184 0
M  V30 4799 C 452.541 2.95873 1.77632 0
M  V30 4800 C 451.654 4.12999 1.26711 0
M  V30 4801 C 450.789 4.73676 2.40426 0
M  V30 4802 C 449.828 5.82981 1.86545 0
M  V30 4803 N 448.965 6.3769 2.93762 0
M  V30 4804 H 453.805 2.97995 0.0169528 0
M  V30 4805 H 451.342 1.471 -0.00339964 0
M  V30 4806 H 453.3 3.36447 2.46697 0
M  V30 4807 H 451.93 2.2311 2.33285 0
M  V30 4808 H 450.982 3.77494 0.469314 0
M  V30 4809 H 452.294 4.91803 0.832518 0
M  V30 4810 H 451.448 5.17008 3.17471 0
M  V30 4811 H 450.187 3.94164 2.87203 0
M  V30 4812 H 449.192 5.39092 1.07983 0
M  V30 4813 H 450.417 6.64366 1.40694 0
M  V30 4814 H 448.363 5.61069 3.39908 0
M  V30 4815 H 448.28 7.11788 2.54744 0
M  V30 4816 H 449.548 6.8568 3.7076 0
M  V30 4817 N 453.777 0.010035 1.57597 0
M  V30 4818 C 454.725 -0.996272 2.10184 0
M  V30 4819 C 455.719 -1.34942 1.02406 0
M  V30 4820 O 456.925 -1.33389 1.20861 0
M  V30 4821 H 453.3 -0.338982 0.671264 0
M  V30 4822 H 455.271 -0.527272 2.93705 0
M  V30 4823 C 454.02 -2.27599 2.62857 0
M  V30 4824 H 453.343 -2.01295 3.45428 0
M  V30 4825 H 454.783 -2.96265 3.0332 0
M  V30 4826 C 453.242 -2.99269 1.54725 0
M  V30 4827 O 453.772 -3.90644 0.93597 0
M  V30 4828 N 451.978 -2.61269 1.27228 0
M  V30 4829 H 451.525 -1.87043 1.77123 0
M  V30 4830 H 451.483 -3.09534 0.550999 0
M  V30 4831 N 455.255 -1.55392 -0.262866 0
M  V30 4832 C 456.671 -1.47459 -0.610582 0
M  V30 4833 C 456.871 -0.697031 -1.8906 0
M  V30 4834 O 455.927 -0.219952 -2.5154 0
M  V30 4835 C 457.24 -2.91751 -0.728131 0
M  V30 4836 C 458.788 -3.02027 -0.821517 0
M  V30 4837 C 459.263 -4.47594 -0.97076 0
M  V30 4838 N 460.754 -4.51465 -1.03603 0
M  V30 4839 C 461.489 -5.61326 -1.17049 0
M  V30 4840 N 460.985 -6.81032 -1.2715 0
M  V30 4841 N 462.778 -5.49089 -1.20239 0
M  V30 4842 H 454.929 -2.04395 0.577632 0
M  V30 4843 H 457.192 -0.927287 0.197086 0
M  V30 4844 H 456.898 -3.51413 0.142132 0
M  V30 4845 H 456.772 -3.4134 -1.6052 0
M  V30 4846 H 459.159 -2.42456 -1.68224 0
M  V30 4847 H 459.24 -2.55674 0.0803688 0
M  V30 4848 H 458.884 -5.07771 -0.114655 0
M  V30 4849 H 458.814 -4.91613 -1.88745 0
M  V30 4850 H 461.305 -3.6524 -0.96996 0
M  V30 4851 H 461.618 -7.60511 -1.37271 0
M  V30 4852 H 459.963 -6.83824 -1.24136 0
M  V30 4853 H 463.154 -4.54507 -1.11985 0
M  V30 4854 H 463.327 -6.34749 -1.30373 0
M  V30 4855 N 456.733 0.527833 -1.48498 0
M  V30 4856 C 457.643 1.65907 -1.65867 0
M  V30 4857 C 458.659 1.6537 -0.541192 0
M  V30 4858 O 459.835 1.84282 -0.812534 0
M  V30 4859 C 456.9 3.02364 -1.69637 0
M  V30 4860 C 455.961 3.1374 -2.93028 0
M  V30 4861 C 455.194 4.43688 -2.96609 0
M  V30 4862 O 455.417 5.30913 -2.08538 0
M  V30 4863 O 454.351 4.59475 -3.88802 0
M  V30 4864 H 458.177 1.5419 -2.61647 0
M  V30 4865 H 455.762 0.701163 -1.31924 0
M  V30 4866 H 457.644 3.83515 -1.74625 0
M  V30 4867 H 456.319 3.14401 -0.770312 0
M  V30 4868 H 455.226 2.31877 -2.93571 0
M  V30 4869 H 456.559 3.06621 -3.85026 0
M  V30 4870 N 458.211 1.37122 0.776871 0
M  V30 4871 C 459.141 1.35164 1.90402 0
M  V30 4872 C 460.122 0.221069 1.68657 0
M  V30 4873 O 461.307 0.420642 1.8959 0
M  V30 4874 C 458.437 1.15274 3.27611 0
M  V30 4875 C 457.391 2.25289 3.63908 0
M  V30 4876 C 456.717 1.90527 4.99603 0
M  V30 4877 C 458.017 3.67446 3.71188 0
M  V30 4878 H 459.711 2.29482 1.92297 0
M  V30 4879 H 457.257 1.10465 0.923773 0
M  V30 4880 H 459.21 1.12536 4.06096 0
M  V30 4881 H 457.934 0.174102 3.26136 0
M  V30 4882 H 456.593 2.27174 2.87728 0
M  V30 4883 H 456.241 0.91206 4.94662 0
M  V30 4884 H 455.941 2.64193 5.24858 0
M  V30 4885 H 457.465 1.89367 5.80493 0
M  V30 4886 H 458.879 3.67719 4.39836 0
M  V30 4887 H 457.276 4.40123 4.07936 0
M  V30 4888 H 458.346 4.01443 2.71977 0
M  V30 4889 N 459.689 -1.00246 1.21608 0
M  V30 4890 C 460.938 -1.73476 1.02902 0
M  V30 4891 C 461.251 -1.90643 -0.437561 0
M  V30 4892 O 462.457 -2.61105 -0.74407 0
M  V30 4893 C 460.913 -3.12079 1.79261 0
M  V30 4894 C 460.521 -3.02877 3.30106 0
M  V30 4895 C 462.265 -3.89421 1.68972 0
M  V30 4896 C 460.172 -4.36575 3.98944 0
M  V30 4897 H 459.102 -0.650408 0.381425 0
M  V30 4898 H 461.753 -1.11985 1.45367 0
M  V30 4899 H 460.135 -3.74196 1.2959 0
M  V30 4900 H 461.309 -2.49983 3.87098 0
M  V30 4901 H 459.624 -2.39022 3.40965 0
M  V30 4902 H 462.221 -4.88362 2.17731 0
M  V30 4903 H 462.564 -4.1122 0.648397 0
M  V30 4904 H 463.097 -3.33963 2.16133 0
M  V30 4905 H 459.836 -4.19978 5.03288 0
M  V30 4906 H 459.356 -4.8942 3.4674 0
M  V30 4907 H 461.035 -5.05364 4.04 0
M  V30 4908 N 461.167 -1.02423 -1.1978 0
M  V30 4909 C 462.117 -0.571689 -2.20716 0
M  V30 4910 C 463.101 0.377077 -1.56419 0
M  V30 4911 O 464.293 0.198801 -1.7588 0
M  V30 4912 C 461.422 0.0808555 -3.43205 0
M  V30 4913 C 460.508 -0.890073 -4.14655 0
M  V30 4914 N 460.899 -2.05065 -4.62366 0
M  V30 4915 C 459.197 -0.71252 -4.40272 0
M  V30 4916 C 459.898 -2.66264 -5.17183 0
M  V30 4917 N 458.874 -1.94264 -5.07703 0
M  V30 4918 H 462.676 -1.45636 -2.55279 0
M  V30 4919 H 460.19 -0.890596 -1.35802 0
M  V30 4920 H 462.187 0.422654 -4.14752 0
M  V30 4921 H 460.847 0.961274 -3.10144 0
M  V30 4922 H 461.858 -2.43026 -4.57339 0
M  V30 4923 H 458.535 0.119199 -4.1733 0
M  V30 4924 H 459.925 -3.64526 -5.64421 0
M  V30 4925 N 462.645 1.35699 -0.801477 0
M  V30 4926 C 463.894 1.98165 -0.375979 0
M  V30 4927 C 464.207 1.64306 1.06127 0
M  V30 4928 O 465.413 2.20097 1.58964 0
M  V30 4929 C 463.869 3.54497 -0.621305 0
M  V30 4930 C 463.477 3.9727 -2.07076 0
M  V30 4931 C 465.221 4.23697 -0.26091 0
M  V30 4932 C 463.128 5.46427 -2.26211 0
M  V30 4933 H 462.058 0.741478 -0.136844 0
M  V30 4934 H 464.709 1.54834 -0.984814 0
M  V30 4935 H 463.091 3.95958 0.0574112 0
M  V30 4936 H 464.265 3.66974 -2.78687 0
M  V30 4937 H 462.58 3.40943 -2.39054 0
M  V30 4938 H 465.177 5.33334 -0.381994 0
M  V30 4939 H 465.52 4.0869 0.792344 0
M  V30 4940 H 466.053 3.87639 -0.893339 0
M  V30 4941 H 462.792 5.66396 -3.29963 0
M  V30 4942 H 462.312 5.78309 -1.59119 0
M  V30 4943 H 463.991 6.12819 -2.07513 0
M  V30 4944 N 464.123 0.554532 1.47522 0
M  V30 4945 C 465.348 0.0322661 2.07375 0
M  V30 4946 C 465.773 -1.25079 1.40488 0
M  V30 4947 O 465.131 -1.74859 0.47896 0
M  V30 4948 C 465.179 -0.149397 3.6029 0
M  V30 4949 O 464.283 -1.21259 3.9417 0
M  V30 4950 H 463.624 0.0501228 0.662106 0
M  V30 4951 H 466.154 0.769452 1.8958 0
M  V30 4952 H 466.164 -0.364437 4.06369 0
M  V30 4953 H 464.839 0.787743 4.08372 0
M  V30 4954 H 463.416 -0.97825 3.5984 0
M  V30 4955 N 465.601 -1.54893 0.290851 0
M  V30 4956 C 466.878 -1.91991 -0.373989 0
M  V30 4957 C 467.258 -1.21694 -1.72493 0
M  V30 4958 O 466.606 -0.34917 -2.25816 0
M  V30 4959 C 466.816 -3.45419 -0.498703 0
M  V30 4960 C 468.164 -4.1748 -0.774298 0
M  V30 4961 O 469.188 -3.51398 -0.582908 0
M  V30 4962 O 468.047 -5.3445 -1.14129 0
M  V30 4963 H 465.141 -0.800593 -0.207315 0
M  V30 4964 H 467.687 -1.66297 0.338164 0
M  V30 4965 H 466.459 -3.88688 0.451392 0
M  V30 4966 H 466.082 -3.77117 -1.25972 0
M  V30 4967 N 467.08 -0.0183926 -1.57589 0
M  V30 4968 C 468.326 0.657813 -1.92469 0
M  V30 4969 C 468.681 1.70349 -0.894375 0
M  V30 4970 O 467.974 1.91384 0.0910389 0
M  V30 4971 C 468.168 1.32676 -3.31861 0
M  V30 4972 C 467.997 0.347403 -4.48356 0
M  V30 4973 C 466.767 -0.0488653 -5.05276 0
M  V30 4974 C 468.965 -0.393931 -5.12789 0
M  V30 4975 N 466.947 -1.02451 -6.05291 0
M  V30 4976 C 468.318 -1.22367 -6.07804 0
M  V30 4977 C 470.373 -0.455789 -4.95809 0
M  V30 4978 C 469.076 -2.10966 -6.87667 0
M  V30 4979 C 471.102 -1.32908 -5.76272 0
M  V30 4980 C 470.464 -2.14662 -6.70894 0
M  V30 4981 H 466.563 0.21335 -0.752334 0
M  V30 4982 H 469.147 -0.0830547 -1.94523 0
M  V30 4983 H 467.318 2.03782 -3.30647 0
M  V30 4984 H 469.05 1.95913 -3.54119 0
M  V30 4985 H 465.805 0.323356 -4.72495 0
M  V30 4986 H 466.229 -1.50826 -6.59985 0
M  V30 4987 H 470.871 0.162017 -4.22489 0
M  V30 4988 H 468.589 -2.73807 -7.603 0
M  V30 4989 H 472.175 -1.38109 -5.6517 0
M  V30 4990 H 471.055 -2.81143 -7.32071 0
M  V30 4991 N 468.558 1.5553 0.254621 0
M  V30 4992 C 469.488 1.9268 1.31897 0
M  V30 4993 C 470.469 0.790797 1.506 0
M  V30 4994 O 471.654 1.05045 1.63337 0
M  V30 4995 C 468.784 2.21477 2.67517 0
M  V30 4996 C 467.738 3.37256 2.63519 0
M  V30 4997 C 467.064 3.51576 4.02862 0
M  V30 4998 C 468.364 4.73157 2.21179 0
M  V30 4999 H 470.058 2.81832 1.01051 0
M  V30 5000 H 467.604 1.35599 0.484662 0
M  V30 5001 H 469.557 2.46055 3.42104 0
M  V30 5002 H 468.281 1.29144 2.99982 0
M  V30 5003 H 466.94 3.12675 1.9139 0
M  V30 5004 H 466.588 2.56676 4.32581 0
M  V30 5005 H 466.288 4.2943 4.01078 0
M  V30 5006 H 467.812 3.78467 4.79161 0
M  V30 5007 H 469.226 4.97158 2.85494 0
M  V30 5008 H 467.623 5.54058 2.30521 0
M  V30 5009 H 468.693 4.70739 1.16332 0
M  V30 5010 N 470.036 -0.519951 1.48776 0
M  V30 5011 C 471.447 -1.10177 1.50725 0
M  V30 5012 C 471.798 -1.94153 0.282678 0
M  V30 5013 O 470.923 -2.07645 -0.609298 0
M  V30 5014 C 471.518 -2.00482 2.73116 0
M  V30 5015 C 470.077 -2.53862 2.77905 0
M  V30 5016 C 469.224 -1.31047 2.44381 0
M  V30 5017 H 472.175 -0.30473 1.55747 0
M  V30 5018 H 472.196 -2.8491 2.52203 0
M  V30 5019 H 471.708 -1.39335 3.62225 0
M  V30 5020 H 469.809 -3.18702 1.93029 0
M  V30 5021 H 469.922 -2.9231 3.79594 0
M  V30 5022 H 468.286 -1.62953 1.95751 0
M  V30 5023 H 469.069 -0.71637 3.35743 0
M  V30 5024 N 471.514 -1.37532 -0.769588 0
M  V30 5025 C 472.742 -1.36059 -1.55871 0
M  V30 5026 C 473.157 0.053544 -1.88724 0
M  V30 5027 O 472.514 1.01591 -1.5161 0
M  V30 5028 C 472.565 -2.20107 -2.86767 0
M  V30 5029 O 472.286 -3.56009 -2.55321 0
M  V30 5030 C 473.787 -2.26636 -3.80987 0
M  V30 5031 H 471.007 -0.465967 -0.482821 0
M  V30 5032 H 473.551 -1.80901 -0.953686 0
M  V30 5033 H 471.706 -1.78768 -3.43687 0
M  V30 5034 H 472.12 -4.0009 -3.39158 0
M  V30 5035 H 473.594 -2.89763 -4.69831 0
M  V30 5036 H 474.071 -1.2754 -4.20274 0
M  V30 5037 H 474.677 -2.68296 -3.29996 0
M  V30 5038 N 472.992 0.995999 -1.22138 0
M  V30 5039 C 473.922 2.10387 -1.01289 0
M  V30 5040 C 474.903 1.69975 0.0651454 0
M  V30 5041 O 476.088 1.9396 -0.0964628 0
M  V30 5042 C 473.218 3.42312 -0.586517 0
M  V30 5043 C 472.172 3.96558 -1.61014 0
M  V30 5044 C 471.498 5.24494 -1.0397 0
M  V30 5045 C 472.798 4.27595 -2.99933 0
M  V30 5046 H 474.492 2.28086 -1.93951 0
M  V30 5047 H 472.038 1.09607 -0.933928 0
M  V30 5048 H 473.991 4.19223 -0.427793 0
M  V30 5049 H 472.715 3.24431 0.375761 0
M  V30 5050 H 471.374 3.21776 -1.75658 0
M  V30 5051 H 471.022 5.02953 -0.0688703 0
M  V30 5052 H 470.722 5.61755 -1.72352 0
M  V30 5053 H 472.246 6.04042 -0.892494 0
M  V30 5054 H 473.66 4.95315 -2.8868 0
M  V30 5055 H 472.057 4.76021 -3.6541 0
M  V30 5056 H 473.127 3.35498 -3.50099 0
M  V30 5057 N 474.47 1.03057 1.19235 0
M  V30 5058 C 475.716 0.729098 1.89241 0
M  V30 5059 C 476.049 -0.740573 1.79525 0
M  V30 5060 O 475.324 -1.53946 1.18874 0
M  V30 5061 C 475.607 1.18304 3.40112 0
M  V30 5062 C 475.46 2.71406 3.5869 0
M  V30 5063 C 476.779 0.765161 4.33397 0
M  V30 5064 H 473.898 0.266338 0.687192 0
M  V30 5065 H 476.54 1.28079 1.40341 0
M  V30 5066 H 474.69 0.713672 3.81889 0
M  V30 5067 H 476.362 3.26303 3.26074 0
M  V30 5068 H 474.605 3.11717 3.01687 0
M  V30 5069 H 475.276 2.98225 4.64506 0
M  V30 5070 H 477.752 1.16889 3.99345 0
M  V30 5071 H 476.628 1.11065 5.37546 0
M  V30 5072 H 476.889 -0.332372 4.40849 0
M  V30 5073 N 475.948 -1.35272 0.808662 0
M  V30 5074 C 476.895 -2.29764 0.218482 0
M  V30 5075 C 477.865 -1.52911 -0.648652 0
M  V30 5076 O 479.05 -1.81341 -0.593297 0
M  V30 5077 C 476.19 -3.39388 -0.625282 0
M  V30 5078 C 475.303 -4.31202 0.262516 0
M  V30 5079 C 474.438 -5.27919 -0.589451 0
M  V30 5080 C 473.477 -6.11371 0.298617 0
M  V30 5081 N 472.614 -7.0022 -0.513443 0
M  V30 5082 H 477.454 -2.79645 1.02968 0
M  V30 5083 H 474.991 -1.37629 0.519303 0
M  V30 5084 H 476.949 -4.01615 -1.12966 0
M  V30 5085 H 475.579 -2.90777 -1.40173 0
M  V30 5086 H 474.631 -3.69962 0.885013 0
M  V30 5087 H 475.943 -4.89748 0.945971 0
M  V30 5088 H 475.097 -5.95529 -1.15888 0
M  V30 5089 H 473.836 -4.69875 -1.30647 0
M  V30 5090 H 472.841 -5.42707 0.880301 0
M  V30 5091 H 474.066 -6.71494 1.01352 0
M  V30 5092 H 472.012 -6.44662 -1.21439 0
M  V30 5093 H 471.929 -7.55917 0.111922 0
M  V30 5094 H 473.197 -7.72175 -1.06608 0
M  V30 5095 N 477.426 -0.562348 -1.47226 0
M  V30 5096 C 478.356 0.170627 -2.32876 0
M  V30 5097 C 479.337 0.903748 -1.44106 0
M  V30 5098 O 480.522 0.883206 -1.72954 0
M  V30 5099 C 477.652 1.19786 -3.25989 0
M  V30 5100 C 476.606 0.580875 -4.2404 0
M  V30 5101 C 475.932 1.71311 -5.06514 0
M  V30 5102 C 477.232 -0.468714 -5.20193 0
M  V30 5103 H 478.926 -0.544441 -2.94408 0
M  V30 5104 H 476.472 -0.263271 -1.41573 0
M  V30 5105 H 478.425 1.71884 -3.84752 0
M  V30 5106 H 477.149 1.94294 -2.62521 0
M  V30 5107 H 475.808 0.0811538 -3.6651 0
M  V30 5108 H 475.456 2.44736 -4.39447 0
M  V30 5109 H 475.156 1.30604 -5.72902 0
M  V30 5110 H 476.68 2.23725 -5.68137 0
M  V30 5111 H 478.094 -0.0336028 -5.7329 0
M  V30 5112 H 476.491 -0.794957 -5.94811 0
M  V30 5113 H 477.561 -1.36269 -4.65359 0
M  V30 5114 N 478.904 1.54736 -0.299062 0
M  V30 5115 C 479.867 2.22127 0.565012 0
M  V30 5116 C 480.867 1.20669 1.06281 0
M  V30 5117 O 482.057 1.45417 0.959145 0
M  V30 5118 C 479.189 2.90611 1.78208 0
M  V30 5119 H 480.382 2.99891 -0.0237448 0
M  V30 5120 H 477.935 1.5622 -0.0498788 0
M  V30 5121 H 478.67 2.16921 2.41072 0
M  V30 5122 H 478.455 3.64984 1.43281 0
M  V30 5123 H 479.945 3.42026 2.396 0
M  V30 5124 N 480.382 0.0267497 1.57577 0
M  V30 5125 C 481.798 -0.32962 1.56159 0
M  V30 5126 C 481.998 -1.73059 1.03213 0
M  V30 5127 O 481.054 -2.43233 0.677804 0
M  V30 5128 C 482.367 -0.18039 3.00158 0
M  V30 5129 C 483.915 -0.253334 3.11973 0
M  V30 5130 C 484.39 -0.132921 4.57807 0
M  V30 5131 N 485.881 -0.189979 4.6281 0
M  V30 5132 C 486.616 -0.120554 5.73273 0
M  V30 5133 N 486.112 -0.000180315 6.928 0
M  V30 5134 N 487.905 -0.174369 5.61829 0
M  V30 5135 H 480.056 0.942896 1.90324 0
M  V30 5136 H 482.319 0.3639 0.875375 0
M  V30 5137 H 482.025 0.784576 3.42837 0
M  V30 5138 H 481.899 -0.951565 3.65 0
M  V30 5139 H 484.286 -1.20876 2.69208 0
M  V30 5140 H 484.367 0.548177 2.49857 0
M  V30 5141 H 484.011 0.819073 5.01252 0
M  V30 5142 H 483.941 -0.953264 5.179 0
M  V30 5143 H 486.432 -0.283257 3.76837 0
M  V30 5144 H 486.745 0.0461666 7.72786 0
M  V30 5145 H 485.09 0.034569 6.94991 0
M  V30 5146 H 488.281 -0.266794 4.67339 0
M  V30 5147 H 488.454 -0.116802 6.47895 0
M  V30 5148 N 481.861 -1.55662 -0.24637 0
M  V30 5149 C 483.109 -1.77168 -0.972411 0
M  V30 5150 C 483.43 -0.590827 -1.85834 0
M  V30 5151 O 482.7 0.393365 -1.9191 0
M  V30 5152 H 481.28 -0.653405 -0.362038 0
M  V30 5153 H 483.942 -1.93101 -0.264189 0
M  V30 5154 H 483.038 -2.68335 -1.59382 0
M  V30 5155 N 483.339 0.512053 -1.4905 0
M  V30 5156 C 484.289 1.61142 -1.61298 0
M  V30 5157 C 485.273 1.53908 -0.46916 0
M  V30 5158 O 486.465 1.61625 -0.721547 0
M  V30 5159 C 483.594 2.998 -1.67256 0
M  V30 5160 C 482.68 3.12072 -2.87179 0
M  V30 5161 N 483.071 2.94263 -4.11391 0
M  V30 5162 C 481.369 3.43156 -2.84886 0
M  V30 5163 C 482.07 3.10426 -4.91946 0
M  V30 5164 N 481.046 3.38808 -4.251 0
M  V30 5165 H 484.848 1.46011 -2.55065 0
M  V30 5166 H 482.362 0.717934 -1.45669 0
M  V30 5167 H 484.359 3.78794 -1.74128 0
M  V30 5168 H 483.019 3.1601 -0.746195 0
M  V30 5169 H 484.03 2.70661 -4.41546 0
M  V30 5170 H 480.707 3.65611 -2.01581 0
M  V30 5171 H 482.097 3.01243 -6.00585 0
M  V30 5172 N 484.817 1.37938 0.762283 0
M  V30 5173 C 486.045 1.36883 1.55147 0
M  V30 5174 C 486.46 -0.0435348 1.8875 0
M  V30 5175 O 485.817 -1.00786 1.52146 0
M  V30 5176 C 485.868 2.21624 2.85596 0
M  V30 5177 O 485.589 3.57358 2.5343 0
M  V30 5178 C 487.09 2.28653 3.7978 0
M  V30 5179 H 484.31 0.468521 0.480343 0
M  V30 5180 H 486.854 1.81404 0.944079 0
M  V30 5181 H 485.009 1.80588 3.42734 0
M  V30 5182 H 485.423 4.01883 3.37032 0
M  V30 5183 H 486.897 2.9225 4.68288 0
M  V30 5184 H 487.374 1.29767 4.19592 0
M  V30 5185 H 487.98 2.70043 3.28568 0
M  V30 5186 N 486.295 -0.989507 1.22664 0
M  V30 5187 C 487.243 -2.10148 0.997035 0
M  V30 5188 C 488.237 -1.6929 -0.0609783 0
M  V30 5189 O 489.443 -1.79766 0.0917523 0
M  V30 5190 H 485.818 -0.687256 0.305259 0
M  V30 5191 H 487.789 -2.26685 1.94053 0
M  V30 5192 C 486.538 -3.4257 0.595085 0
M  V30 5193 H 485.861 -3.74453 1.40089 0
M  V30 5194 H 487.301 -4.21344 0.473869 0
M  V30 5195 C 485.76 -3.29638 -0.695725 0
M  V30 5196 O 486.29 -3.61709 -1.74727 0
M  V30 5197 N 484.496 -2.82814 -0.668173 0
M  V30 5198 H 484.043 -2.56914 0.18787 0
M  V30 5199 H 484.001 -2.74544 -1.5321 0
M  V30 5200 N 487.773 -1.03688 -1.18687 0
M  V30 5201 C 489.021 -0.736572 -1.88199 0
M  V30 5202 C 489.342 0.737665 -1.80509 0
M  V30 5203 O 488.612 1.53204 -1.22088 0
M  V30 5204 H 487.192 -0.269466 -0.696704 0
M  V30 5205 H 489.854 -1.31282 -1.44052 0
M  V30 5206 H 488.95 -1.03802 -2.94332 0
M  V30 5207 N 489.251 1.34841 -0.815825 0
M  V30 5208 C 490.479 2.0273 -0.413294 0
M  V30 5209 C 490.894 1.61459 0.978599 0
M  V30 5210 O 490.251 0.816584 1.63212 0
M  V30 5211 C 490.302 3.58058 -0.497676 0
M  V30 5212 O 490.023 3.97832 -1.8347 0
M  V30 5213 C 491.524 4.4321 -0.0891339 0
M  V30 5214 H 488.744 0.649956 -0.166728 0
M  V30 5215 H 491.288 1.72267 -1.10201 0
M  V30 5216 H 489.443 3.87136 0.142886 0
M  V30 5217 H 489.857 4.92501 -1.80396 0
M  V30 5218 H 491.331 5.5164 -0.199274 0
M  V30 5219 H 491.808 4.28432 0.966571 0
M  V30 5220 H 492.414 4.19446 -0.703214 0
M  V30 5221 N 490.729 0.570148 1.46925 0
M  V30 5222 C 491.676 -0.170257 2.30171 0
M  V30 5223 C 492.646 -0.896099 1.39855 0
M  V30 5224 O 493.831 -0.889248 1.68811 0
M  V30 5225 C 490.971 -1.18605 3.24079 0
M  V30 5226 C 490.084 -0.464947 4.29491 0
M  V30 5227 C 489.219 -1.46716 5.10537 0
M  V30 5228 C 488.258 -0.731758 6.0771 0
M  V30 5229 N 487.395 -1.68142 6.81669 0
M  V30 5230 H 492.235 0.545713 2.92961 0
M  V30 5231 H 489.772 0.280938 1.44392 0
M  V30 5232 H 491.73 -1.78771 3.76957 0
M  V30 5233 H 490.36 -1.86989 2.63125 0
M  V30 5234 H 489.412 0.251506 3.79568 0
M  V30 5235 H 490.724 0.110548 4.98677 0
M  V30 5236 H 489.878 -2.14199 5.6763 0
M  V30 5237 H 488.617 -2.07658 4.41282 0
M  V30 5238 H 487.622 -0.0430787 5.49783 0
M  V30 5239 H 488.847 -0.127904 6.7898 0
M  V30 5240 H 486.793 -2.27918 6.15134 0
M  V30 5241 H 486.71 -1.15841 7.47072 0
M  V30 5242 H 487.978 -2.347 7.43328 0
M  V30 5243 N 492.207 -1.54576 0.307264 0
M  V30 5244 C 493.618 -1.8579 -0.184121 0
M  V30 5245 C 493.969 -1.22914 -1.52927 0
M  V30 5246 O 493.094 -0.529126 -2.09831 0
M  V30 5247 C 493.689 -3.37081 -0.340862 0
M  V30 5248 C 492.248 -3.68304 -0.776465 0
M  V30 5249 C 491.395 -2.77076 0.111503 0
M  V30 5250 H 494.346 -1.49656 0.528078 0
M  V30 5251 H 494.367 -3.61922 -1.17443 0
M  V30 5252 H 493.879 -3.82815 0.638309 0
M  V30 5253 H 491.98 -3.28092 -1.76596 0
M  V30 5254 H 492.093 -4.75434 -0.591512 0
M  V30 5255 H 490.457 -2.51374 -0.410256 0
M  V30 5256 H 491.24 -3.25632 1.08714 0
M  V30 5257 N 493.685 -0.035106 -1.57561 0
M  V30 5258 C 494.615 0.942993 -2.13612 0
M  V30 5259 C 495.596 1.33531 -1.05373 0
M  V30 5260 O 496.781 1.41287 -1.33235 0
M  V30 5261 C 493.911 2.22332 -2.66807 0
M  V30 5262 C 492.865 1.97156 -3.79886 0
M  V30 5263 C 492.191 3.31506 -4.19533 0
M  V30 5264 C 493.491 1.30596 -5.05709 0
M  V30 5265 H 495.185 0.476179 -2.95589 0
M  V30 5266 H 492.731 0.227602 -1.4219 0
M  V30 5267 H 494.684 2.91142 -3.04654 0
M  V30 5268 H 493.408 2.7119 -1.81999 0
M  V30 5269 H 492.067 1.30763 -3.42486 0
M  V30 5270 H 491.715 3.78134 -3.31698 0
M  V30 5271 H 491.415 3.15465 -4.95738 0
M  V30 5272 H 492.939 4.01574 -4.59968 0
M  V30 5273 H 494.353 1.89416 -5.41105 0
M  V30 5274 H 492.75 1.24934 -5.86951 0
M  V30 5275 H 493.82 0.279742 -4.84092 0
M  V30 5276 N 495.163 1.55791 0.238111 0
M  V30 5277 C 496.44 1.68798 0.98826 0
M  V30 5278 C 496.82 0.577562 2.03045 0
M  V30 5279 O 496.168 -0.41778 2.24648 0
M  V30 5280 C 496.378 3.09454 1.61367 0
M  V30 5281 C 497.726 3.68335 2.11221 0
M  V30 5282 O 498.75 3.1231 1.71292 0
M  V30 5283 O 497.609 4.6657 2.84561 0
M  V30 5284 H 494.703 0.686881 0.460568 0
M  V30 5285 H 497.249 1.68118 0.231202 0
M  V30 5286 H 496.021 3.81726 0.860295 0
M  V30 5287 H 495.644 3.14182 2.4367 0
M  V30 5288 N 496.642 -0.504142 1.49319 0
M  V30 5289 C 497.89 -1.25598 1.58334 0
M  V30 5290 C 498.211 -1.93114 0.270538 0
M  V30 5291 O 497.481 -1.82585 -0.709891 0
M  V30 5292 H 496.061 -0.466571 0.58337 0
M  V30 5293 H 498.723 -0.584547 1.85928 0
M  V30 5294 H 497.819 -2.02159 2.37778 0
M  V30 5295 N 498.12 -1.38341 -0.754957 0
M  V30 5296 C 499.367 -1.34473 -1.51404 0
M  V30 5297 C 499.695 0.0656458 -1.94389 0
M  V30 5298 O 498.95 1.04244 -1.65625 0
M  V30 5299 C 499.249 -2.2452 -2.78075 0
M  V30 5300 C 498.915 -3.72512 -2.54059 0
M  V30 5301 C 497.577 -4.1284 -2.47218 0
M  V30 5302 C 499.929 -4.66197 -2.33044 0
M  V30 5303 C 497.257 -5.44945 -2.17376 0
M  V30 5304 C 499.609 -5.98558 -2.04723 0
M  V30 5305 C 498.273 -6.37972 -1.96337 0
M  V30 5306 H 497.543 -0.492072 -0.554027 0
M  V30 5307 H 500.19 -1.70687 -0.868223 0
M  V30 5308 H 498.495 -1.81357 -3.473 0
M  V30 5309 H 500.192 -2.18832 -3.36026 0
M  V30 5310 H 496.782 -3.40538 -2.60253 0
M  V30 5311 H 500.966 -4.35888 -2.37309 0
M  V30 5312 H 496.222 -5.74426 -2.09391 0
M  V30 5313 H 500.396 -6.70693 -1.87465 0
M  V30 5314 H 498.023 -7.40258 -1.72978 0
M  V30 5315 N 499.598 0.982988 -1.23187 0
M  V30 5316 C 500.875 1.69814 -0.970707 0
M  V30 5317 C 501.255 2.04811 0.511424 0
M  V30 5318 O 500.603 1.73924 1.48198 0
M  V30 5319 C 500.813 2.94143 -1.87831 0
M  V30 5320 C 502.161 3.66712 -2.14026 0
M  V30 5321 O 503.185 3.04171 -1.8536 0
M  V30 5322 O 502.044 4.79258 -2.62629 0
M  V30 5323 H 499.138 0.741659 -0.365884 0
M  V30 5324 H 501.684 1.03844 -1.34218 0
M  V30 5325 H 500.456 2.64858 -2.88038 0
M  V30 5326 H 500.079 3.6785 -1.50905 0
M  V30 5327 N 501.076 1.04316 1.18135 0
M  V30 5328 C 502.322 0.749128 1.88457 0
M  V30 5329 C 502.655 -0.72149 1.803 0
M  V30 5330 O 501.93 -1.52676 1.205 0
M  V30 5331 C 502.213 1.21905 3.38838 0
M  V30 5332 C 502.066 2.75195 3.55792 0
M  V30 5333 C 503.385 0.811085 4.32561 0
M  V30 5334 H 500.504 0.273611 0.684329 0
M  V30 5335 H 503.146 1.29561 1.38975 0
M  V30 5336 H 501.296 0.754137 3.8111 0
M  V30 5337 H 502.968 3.29743 3.22595 0
M  V30 5338 H 501.211 3.14899 2.98364 0
M  V30 5339 H 501.882 3.03135 4.61317 0
M  V30 5340 H 504.358 1.21118 3.98082 0
M  V30 5341 H 503.234 1.16761 5.36338 0
M  V30 5342 H 503.495 -0.285596 4.41177 0
M  V30 5343 N 502.554 -1.34406 0.822964 0
M  V30 5344 C 503.8 -1.98999 0.420847 0
M  V30 5345 C 504.155 -1.64067 -1.00498 0
M  V30 5346 O 503.448 -0.902071 -1.69036 0
M  V30 5347 C 503.642 -3.52981 0.560268 0
M  V30 5348 C 503.471 -4.02873 1.99809 0
M  V30 5349 C 502.241 -4.31463 2.62998 0
M  V30 5350 C 504.439 -4.20241 2.96483 0
M  V30 5351 N 502.421 -4.6739 3.9802 0
M  V30 5352 C 503.792 -4.59348 4.16413 0
M  V30 5353 C 505.847 -4.02489 2.93098 0
M  V30 5354 C 504.55 -4.82559 5.33413 0
M  V30 5355 C 506.576 -4.26866 4.09315 0
M  V30 5356 C 505.938 -4.6626 5.27997 0
M  V30 5357 H 502.037 -0.755432 0.202104 0
M  V30 5358 H 504.621 -1.62815 1.06767 0
M  V30 5359 H 502.792 -3.88359 -0.0566596 0
M  V30 5360 H 504.524 -4.04487 0.131146 0
M  V30 5361 H 501.279 -4.22373 2.14238 0
M  V30 5362 H 501.703 -4.89588 4.67582 0
M  V30 5363 H 506.345 -3.71161 2.02483 0
M  V30 5364 H 504.063 -5.12754 6.24587 0
M  V30 5365 H 507.649 -4.14667 4.08096 0
M  V30 5366 H 506.529 -4.84752 6.16429 0
M  V30 5367 N 504.032 -0.577932 -1.46621 0
M  V30 5368 C 504.979 0.158048 -2.30258 0
M  V30 5369 C 505.949 0.888669 -1.40328 0
M  V30 5370 O 507.134 0.880283 -1.6928 0
M  V30 5371 C 504.274 1.16884 -3.24703 0
M  V30 5372 C 503.387 0.442163 -4.29731 0
M  V30 5373 C 502.522 1.44007 -5.11308 0
M  V30 5374 C 501.561 0.69952 -6.0809 0
M  V30 5375 N 500.698 1.64525 -6.82551 0
M  V30 5376 H 505.538 -0.561242 -2.92667 0
M  V30 5377 H 503.075 -0.288591 -1.44241 0
M  V30 5378 H 505.033 1.7677 -3.779 0
M  V30 5379 H 503.663 1.85591 -2.64113 0
M  V30 5380 H 502.715 -0.271632 -3.79429 0
M  V30 5381 H 504.027 -0.136992 -4.98612 0
M  V30 5382 H 503.181 2.11186 -5.68758 0
M  V30 5383 H 501.92 2.05315 -4.42377 0
M  V30 5384 H 500.925 0.0139217 -5.49798 0
M  V30 5385 H 502.15 0.091894 -6.79038 0
M  V30 5386 H 500.096 2.24653 -6.16334 0
M  V30 5387 H 500.013 1.11878 -7.47676 0
M  V30 5388 H 501.281 2.30754 -7.44562 0
M  V30 5389 N 505.51 1.54411 -0.315457 0
M  V30 5390 C 506.738 2.04833 0.291738 0
M  V30 5391 C 507.153 1.19203 1.46411 0
M  V30 5392 O 506.51 0.220867 1.81159 0
M  V30 5393 C 506.561 3.53969 0.73404 0
M  V30 5394 O 506.282 4.36346 -0.391682 0
M  V30 5395 C 507.783 4.2045 1.40489 0
M  V30 5396 H 505.003 0.668195 0.0612947 0
M  V30 5397 H 507.547 1.99276 -0.45929 0
M  V30 5398 H 505.702 3.5984 1.43506 0
M  V30 5399 H 506.116 5.24481 -0.0447088 0
M  V30 5400 H 507.59 5.26278 1.66539 0
M  V30 5401 H 508.067 3.71067 2.3496 0
M  V30 5402 H 508.673 4.18694 0.746662 0
M  V30 5403 N 506.988 0.0434614 1.5754 0
M  V30 5404 C 508.237 -0.631454 1.91561 0
M  V30 5405 C 508.55 -1.72457 0.92292 0
M  V30 5406 O 509.756 -2.45712 1.15489 0
M  V30 5407 C 508.212 -1.17447 3.40197 0
M  V30 5408 C 507.82 -0.113867 4.47855 0
M  V30 5409 C 509.564 -1.82507 3.83264 0
M  V30 5410 C 507.471 -0.669326 5.876 0
M  V30 5411 H 506.401 -0.239629 0.714908 0
M  V30 5412 H 509.052 0.111097 1.83163 0
M  V30 5413 H 507.434 -1.96909 3.43574 0
M  V30 5414 H 508.608 0.659348 4.56058 0
M  V30 5415 H 506.923 0.438821 4.14081 0
M  V30 5416 H 509.52 -2.25047 4.85034 0
M  V30 5417 H 509.863 -2.67365 3.19095 0
M  V30 5418 H 510.396 -1.09712 3.82372 0
M  V30 5419 H 507.135 0.141449 6.55347 0
M  V30 5420 H 506.655 -1.4107 5.82974 0
M  V30 5421 H 508.334 -1.15463 6.36614 0
M  V30 5422 N 508.466 -1.55915 -0.229846 0
M  V30 5423 C 509.691 -1.8296 -0.976743 0
M  V30 5424 C 510.116 -0.622735 -1.77493 0
M  V30 5425 O 509.474 0.428431 -1.76165 0
M  V30 5426 C 509.522 -3.07916 -1.8767 0
M  V30 5427 O 508.626 -2.86028 -2.97088 0
M  V30 5428 H 507.967 -0.603453 -0.277021 0
M  V30 5429 H 510.497 -2.0312 -0.245669 0
M  V30 5430 H 510.507 -3.37802 -2.2881 0
M  V30 5431 H 509.182 -3.95389 -1.28996 0
M  V30 5432 H 507.759 -2.67355 -2.59954 0
M  V30 5433 N 509.944 0.496216 -1.49584 0
M  V30 5434 C 510.854 1.62352 -1.69349 0
M  V30 5435 C 511.87 1.64184 -0.576147 0
M  V30 5436 O 513.046 1.82517 -0.85144 0
M  V30 5437 C 510.111 2.98698 -1.76013 0
M  V30 5438 C 509.172 3.07454 -2.99617 0
M  V30 5439 C 508.405 4.37296 -3.05953 0
M  V30 5440 O 508.628 5.2637 -2.19752 0
M  V30 5441 O 507.562 4.51124 -3.9846 0
M  V30 5442 H 511.388 1.48606 -2.64859 0
M  V30 5443 H 508.973 0.673022 -1.33382 0
M  V30 5444 H 510.855 3.79725 -1.82721 0
M  V30 5445 H 509.53 3.12696 -0.836828 0
M  V30 5446 H 508.437 2.25597 -2.98424 0
M  V30 5447 H 509.77 2.98385 -3.91443 0
M  V30 5448 N 511.423 1.38739 0.74761 0
M  V30 5449 C 512.671 1.35007 1.50391 0
M  V30 5450 C 512.992 -0.0574274 1.94915 0
M  V30 5451 O 512.262 -1.00628 1.6808 0
M  V30 5452 H 510.842 0.496784 0.557866 0
M  V30 5453 H 513.504 1.73479 0.888319 0
M  V30 5454 H 512.6 2.00474 2.392 0
M  V30 5455 N 512.901 -0.976442 1.23707 0
M  V30 5456 C 514.126 -1.75875 1.09922 0
M  V30 5457 C 514.551 -1.84911 -0.34489 0
M  V30 5458 O 513.909 -1.31363 -1.24954 0
M  V30 5459 C 513.957 -3.16179 1.73388 0
M  V30 5460 O 513.061 -4.00124 0.99871 0
M  V30 5461 H 512.402 -0.540954 0.385052 0
M  V30 5462 H 514.932 -1.22546 1.6384 0
M  V30 5463 H 514.942 -3.66741 1.78788 0
M  V30 5464 H 513.617 -3.08917 2.78466 0
M  V30 5465 H 512.194 -3.58624 1.02193 0
M  V30 5466 N 514.379 -1.04941 -1.1758 0
M  V30 5467 C 515.79 -0.784501 -1.69418 0
M  V30 5468 C 516.141 0.693625 -1.8353 0
M  V30 5469 O 515.266 1.53925 -1.52106 0
M  V30 5470 C 515.861 -1.41746 -3.07723 0
M  V30 5471 C 514.42 -1.20066 -3.56737 0
M  V30 5472 C 513.567 -1.5026 -2.33061 0
M  V30 5473 H 516.518 -1.21469 -1.02133 0
M  V30 5474 H 516.539 -0.825381 -3.7144 0
M  V30 5475 H 516.051 -2.49325 -2.9742 0
M  V30 5476 H 514.152 -0.144006 -3.72322 0
M  V30 5477 H 514.265 -1.90384 -4.39648 0
M  V30 5478 H 512.629 -0.922598 -2.37403 0
M  V30 5479 H 513.412 -2.58967 -2.25368 0
M  V30 5480 N 515.857 1.33968 -0.830081 0
M  V30 5481 C 517.082 2.02813 -0.433796 0
M  V30 5482 C 517.507 1.62076 0.954614 0
M  V30 5483 O 516.865 0.808955 1.62252 0
M  V30 5484 C 516.913 3.56348 -0.552115 0
M  V30 5485 O 516.017 4.10202 0.425191 0
M  V30 5486 H 515.358 0.639817 -0.177567 0
M  V30 5487 H 517.888 1.7106 -1.12248 0
M  V30 5488 H 517.898 4.05722 -0.430513 0
M  V30 5489 H 516.573 3.85344 -1.56471 0
M  V30 5490 H 515.15 3.71979 0.261878 0
M  V30 5491 N 517.335 0.585699 1.46312 0
M  V30 5492 C 518.746 0.159938 1.86014 0
M  V30 5493 C 519.097 -1.27775 1.48889 0
M  V30 5494 O 518.222 -1.96559 0.90519 0
M  V30 5495 C 518.817 0.283485 3.37612 0
M  V30 5496 C 517.376 -0.0874256 3.76298 0
M  V30 5497 C 516.523 0.618055 2.70325 0
M  V30 5498 H 519.474 0.793737 1.37425 0
M  V30 5499 H 519.495 -0.490348 3.77327 0
M  V30 5500 H 519.007 1.32995 3.64601 0
M  V30 5501 H 517.108 -1.13391 3.54927 0
M  V30 5502 H 517.221 0.290975 4.78216 0
M  V30 5503 H 515.585 0.057993 2.54634 0
M  V30 5504 H 516.368 1.66623 3.00153 0
M  V30 5505 N 518.813 -1.54241 0.323641 0
M  V30 5506 C 520.229 -1.59574 -0.0290018 0
M  V30 5507 C 520.429 -1.34017 -1.50472 0
M  V30 5508 O 519.485 -1.12464 -2.26071 0
M  V30 5509 C 520.798 -2.98169 0.389295 0
M  V30 5510 C 522.346 -3.11148 0.339958 0
M  V30 5511 C 522.821 -4.5209 0.733418 0
M  V30 5512 N 524.312 -4.5808 0.686827 0
M  V30 5513 C 525.047 -5.65248 0.963464 0
M  V30 5514 N 524.543 -6.80355 1.30724 0
M  V30 5515 N 526.336 -5.55025 0.88902 0
M  V30 5516 H 518.487 -1.6911 1.28512 0
M  V30 5517 H 520.75 -0.790972 0.522558 0
M  V30 5518 H 520.456 -3.21871 1.41746 0
M  V30 5519 H 520.33 -3.76399 -0.245657 0
M  V30 5520 H 522.717 -2.87182 -0.679002 0
M  V30 5521 H 522.798 -2.35023 1.00985 0
M  V30 5522 H 522.442 -4.76788 1.75029 0
M  V30 5523 H 522.372 -5.26584 0.0412189 0
M  V30 5524 H 524.863 -3.75411 0.43298 0
M  V30 5525 H 525.176 -7.58029 1.5037 0
M  V30 5526 H 523.521 -6.81851 1.3455 0
M  V30 5527 H 526.712 -4.63977 0.619939 0
M  V30 5528 H 526.885 -6.38458 1.10797 0
M  V30 5529 N 520.291 -0.0518155 -1.57515 0
M  V30 5530 C 521.54 0.621286 -1.91893 0
M  V30 5531 C 521.853 1.71966 -0.932052 0
M  V30 5532 O 523.059 2.45096 -1.16791 0
M  V30 5533 C 521.515 1.15641 -3.40816 0
M  V30 5534 C 521.123 0.0901146 -4.47909 0
M  V30 5535 C 522.867 1.80472 -3.84227 0
M  V30 5536 C 520.774 0.638154 -5.87947 0
M  V30 5537 H 519.704 0.235835 -0.716169 0
M  V30 5538 H 522.355 -0.120809 -1.83102 0
M  V30 5539 H 520.737 1.95084 -3.44613 0
M  V30 5540 H 521.911 -0.683525 -4.55702 0
M  V30 5541 H 520.226 -0.460774 -4.13843 0
M  V30 5542 H 522.823 2.22471 -4.86221 0
M  V30 5543 H 523.166 2.65669 -3.20508 0
M  V30 5544 H 523.699 1.07683 -3.82948 0
M  V30 5545 H 520.438 -0.176202 -6.55263 0
M  V30 5546 H 519.958 1.37976 -5.83714 0
M  V30 5547 H 521.637 1.12085 -6.37217 0
M  V30 5548 N 521.769 1.56035 0.221574 0
M  V30 5549 C 522.679 1.95581 1.29558 0
M  V30 5550 C 523.695 0.859639 1.51282 0
M  V30 5551 O 524.871 1.16321 1.64413 0
M  V30 5552 C 521.936 2.26447 2.62531 0
M  V30 5553 C 520.997 3.49632 2.4911 0
M  V30 5554 C 520.23 3.79017 3.75742 0
M  V30 5555 O 520.453 3.10077 4.78757 0
M  V30 5556 O 519.387 4.72507 3.72855 0
M  V30 5557 H 523.213 2.8711 0.990035 0
M  V30 5558 H 520.798 1.43244 0.424434 0
M  V30 5559 H 522.68 2.47494 3.41064 0
M  V30 5560 H 521.355 1.38092 2.92766 0
M  V30 5561 H 520.262 3.33864 1.68777 0
M  V30 5562 H 521.595 4.3837 2.23814 0
M  V30 5563 N 523.247 -0.488276 1.49845 0
M  V30 5564 C 524.177 -1.59675 1.70371 0
M  V30 5565 C 525.158 -1.60878 0.552473 0
M  V30 5566 O 526.343 -1.77417 0.78973 0
M  V30 5567 C 523.473 -2.98098 1.782 0
M  V30 5568 C 522.427 -3.11761 2.93239 0
M  V30 5569 C 521.753 -4.51661 2.86193 0
M  V30 5570 C 523.053 -2.90589 4.33999 0
M  V30 5571 H 524.747 -1.42752 2.63177 0
M  V30 5572 H 522.293 -0.685317 1.26647 0
M  V30 5573 H 524.246 -3.75555 1.91144 0
M  V30 5574 H 522.97 -3.16138 0.820018 0
M  V30 5575 H 521.629 -2.36732 2.79917 0
M  V30 5576 H 521.277 -4.66595 1.87877 0
M  V30 5577 H 520.977 -4.61742 3.63412 0
M  V30 5578 H 522.501 -5.31162 3.01163 0
M  V30 5579 H 523.915 -3.57807 4.47936 0
M  V30 5580 H 522.312 -3.1213 5.12538 0
M  V30 5581 H 523.382 -1.86595 4.4756 0
M  V30 5582 N 524.725 -1.39134 -0.740242 0
M  V30 5583 C 525.655 -1.40165 -1.86751 0
M  V30 5584 C 526.636 -0.265708 -1.68012 0
M  V30 5585 O 527.821 -0.47076 -1.88408 0
M  V30 5586 C 524.951 -1.2392 -3.2444 0
M  V30 5587 C 523.905 -2.34858 -3.57807 0
M  V30 5588 C 523.231 -2.03707 -4.94376 0
M  V30 5589 C 524.531 -3.77159 -3.61315 0
M  V30 5590 H 526.225 -2.345 -1.86145 0
M  V30 5591 H 523.771 -1.12875 -0.89416 0
M  V30 5592 H 525.724 -1.23263 -4.02969 0
M  V30 5593 H 524.448 -0.26051 -3.25559 0
M  V30 5594 H 523.107 -2.34723 -2.81604 0
M  V30 5595 H 522.755 -1.04289 -4.9207 0
M  V30 5596 H 522.455 -2.78016 -5.17669 0
M  V30 5597 H 523.979 -2.04691 -5.75268 0
M  V30 5598 H 525.393 -3.79252 -4.29931 0
M  V30 5599 H 523.79 -4.50784 -3.96124 0
M  V30 5600 H 524.86 -4.08513 -2.61238 0
M  V30 5601 N 526.204 0.969867 -1.24223 0
M  V30 5602 C 527.154 2.04913 -0.999732 0
M  V30 5603 C 528.138 1.60795 0.0580636 0
M  V30 5604 O 529.33 1.76317 -0.155392 0
M  V30 5605 C 526.459 3.37942 -0.604154 0
M  V30 5606 C 525.545 3.88628 -1.69791 0
M  V30 5607 N 525.936 4.12274 -2.93025 0
M  V30 5608 C 524.234 4.17268 -1.57492 0
M  V30 5609 C 524.935 4.53808 -3.63914 0
M  V30 5610 N 523.911 4.58855 -2.91468 0
M  V30 5611 H 527.713 2.21168 -1.93551 0
M  V30 5612 H 525.227 1.15349 -1.14317 0
M  V30 5613 H 527.224 4.14863 -0.411665 0
M  V30 5614 H 525.884 3.23075 0.324465 0
M  V30 5615 H 526.895 3.99789 -3.29225 0
M  V30 5616 H 523.572 4.11346 -0.714175 0
M  V30 5617 H 524.962 4.80534 -4.69614 0
M  V30 5618 N 527.682 1.05563 1.17022 0
M  V30 5619 C 528.63 0.653887 2.2322 0
M  V30 5620 C 529.624 -0.326642 1.66221 0
M  V30 5621 O 530.83 -0.192301 1.7897 0
M  V30 5622 H 527.205 0.193297 0.726733 0
M  V30 5623 H 529.176 1.5596 2.54399 0
M  V30 5624 C 527.925 0.0485434 3.47666 0
M  V30 5625 H 527.248 0.79413 3.91834 0
M  V30 5626 H 528.688 -0.195133 4.23551 0
M  V30 5627 C 527.147 -1.20583 3.14581 0
M  V30 5628 O 527.677 -2.29475 3.29703 0
M  V30 5629 N 525.883 -1.10493 2.68774 0
M  V30 5630 H 525.43 -0.218795 2.56669 0
M  V30 5631 H 525.388 -1.94507 2.47011 0
M  V30 5632 N 529.16 -1.33526 0.837174 0
M  V30 5633 C 530.409 -1.97098 0.428387 0
M  V30 5634 C 530.722 -1.67062 -1.01734 0
M  V30 5635 O 531.928 -2.24235 -1.53072 0
M  V30 5636 C 530.384 -3.52725 0.715075 0
M  V30 5637 C 529.992 -3.9164 2.17537 0
M  V30 5638 C 531.736 -4.22857 0.373154 0
M  V30 5639 C 529.643 -5.40237 2.40619 0
M  V30 5640 H 528.573 -0.737589 0.156455 0
M  V30 5641 H 531.224 -1.52169 1.02552 0
M  V30 5642 H 529.606 -3.95971 0.0475904 0
M  V30 5643 H 530.78 -3.59456 2.88319 0
M  V30 5644 H 529.095 -3.34485 2.4801 0
M  V30 5645 H 531.692 -5.32133 0.523264 0
M  V30 5646 H 532.035 -4.10647 -0.683708 0
M  V30 5647 H 532.568 -3.85135 0.995801 0
M  V30 5648 H 529.307 -5.57449 3.44864 0
M  V30 5649 H 528.827 -5.73887 1.74396 0
M  V30 5650 H 530.506 -6.07102 2.23688 0
M  V30 5651 N 530.638 -0.59345 -1.46 0
M  V30 5652 C 531.915 -0.0157933 -1.95594 0
M  V30 5653 C 532.295 1.44807 -1.53604 0
M  V30 5654 O 531.643 2.14342 -0.791824 0
M  V30 5655 C 531.853 -0.199081 -3.48432 0
M  V30 5656 C 533.201 -0.0724943 -4.24538 0
M  V30 5657 O 534.225 -0.128469 -3.55968 0
M  V30 5658 O 533.084 0.0542426 -5.46473 0
M  V30 5659 H 530.178 0.043749 -0.825842 0
M  V30 5660 H 532.724 -0.662522 -1.56233 0
M  V30 5661 H 531.496 -1.21631 -3.71916 0
M  V30 5662 H 531.119 0.483576 -3.94648 0
M  V30 5663 N 532.116 1.54067 -0.331816 0
M  V30 5664 C 533.527 1.86059 0.15454 0
M  V30 5665 C 533.878 1.25331 1.50952 0
M  V30 5666 O 533.003 0.562441 2.08963 0
M  V30 5667 C 533.598 3.37581 0.287192 0
M  V30 5668 C 532.157 3.69493 0.717773 0
M  V30 5669 C 531.304 2.76863 -0.155569 0
M  V30 5670 H 534.255 1.48797 -0.55182 0
M  V30 5671 H 534.276 3.63744 1.11671 0
M  V30 5672 H 533.788 3.81751 -0.699131 0
M  V30 5673 H 531.889 3.3086 1.71354 0
M  V30 5674 H 532.002 4.76315 0.5158 0
M  V30 5675 H 530.366 2.51995 0.370213 0
M  V30 5676 H 531.149 3.23861 -1.13881 0
M  V30 5677 N 533.594 0.0601682 1.57485 0
M  V30 5678 C 534.542 -0.928899 2.13247 0
M  V30 5679 C 535.536 -1.31616 1.06647 0
M  V30 5680 O 536.742 -1.29476 1.25043 0
M  V30 5681 H 533.117 -0.317455 0.681708 0
M  V30 5682 H 535.088 -0.433566 2.95233 0
M  V30 5683 C 533.837 -2.19121 2.69965 0
M  V30 5684 H 533.16 -1.90204 3.51657 0
M  V30 5685 H 534.6 -2.86465 3.12592 0
M  V30 5686 C 533.059 -2.94195 1.64168 0
M  V30 5687 O 533.589 -3.87468 1.05978 0
M  V30 5688 N 531.795 -2.57089 1.35476 0
M  V30 5689 H 531.342 -1.81314 1.82984 0
M  V30 5690 H 531.3 -3.07624 0.649196 0
M  V30 5691 N 535.072 -1.5615 -0.213296 0
M  V30 5692 C 536.319 -1.79546 -0.936462 0
M  V30 5693 C 536.647 -0.630337 -1.84003 0
M  V30 5694 O 535.902 0.384883 -1.91878 0
M  V30 5695 C 536.201 -3.08772 -1.79985 0
M  V30 5696 C 535.867 -4.38532 -1.04882 0
M  V30 5697 C 534.529 -4.73787 -0.841393 0
M  V30 5698 C 536.881 -5.18609 -0.51907 0
M  V30 5699 C 534.209 -5.86627 -0.0924403 0
M  V30 5700 C 536.561 -6.32229 0.216581 0
M  V30 5701 C 535.225 -6.6608 0.435191 0
M  V30 5702 H 534.495 -0.657004 -0.342676 0
M  V30 5703 H 537.142 -1.9041 -0.204051 0
M  V30 5704 H 535.447 -2.93065 -2.60038 0
M  V30 5705 H 537.144 -3.24077 -2.36168 0
M  V30 5706 H 533.734 -4.10855 -1.22048 0
M  V30 5707 H 537.918 -4.91801 -0.666775 0
M  V30 5708 H 533.174 -6.11338 0.087081 0
M  V30 5709 H 537.348 -6.93503 0.634538 0
M  V30 5710 H 534.975 -7.5336 1.01746 0
M  V30 5711 N 536.55 0.480323 -1.50102 0
M  V30 5712 C 537.796 1.23489 -1.60867 0
M  V30 5713 C 538.129 1.91809 -0.303827 0
M  V30 5714 O 537.404 1.81694 0.694092 0
M  V30 5715 C 537.687 2.28578 -2.78252 0
M  V30 5716 C 537.54 1.64624 -4.18592 0
M  V30 5717 C 538.859 3.2997 -2.91218 0
M  V30 5718 H 535.978 0.447605 -0.585507 0
M  V30 5719 H 538.62 0.530005 -1.82458 0
M  V30 5720 H 536.77 2.88697 -2.59974 0
M  V30 5721 H 538.442 1.08173 -4.48438 0
M  V30 5722 H 536.685 0.949645 -4.23278 0
M  V30 5723 H 537.356 2.40946 -4.96638 0
M  V30 5724 H 539.832 2.79864 -3.07921 0
M  V30 5725 H 538.708 4.00839 -3.74993 0
M  V30 5726 H 538.969 3.93541 -2.0144 0
M  V30 5727 N 538.028 1.39524 0.732853 0
M  V30 5728 C 539.305 1.27373 1.48444 0
M  V30 5729 C 539.685 -0.115725 2.10783 0
M  V30 5730 O 539.033 -1.12713 1.98766 0
M  V30 5731 C 539.243 2.39966 2.53412 0
M  V30 5732 C 540.591 2.79384 3.19733 0
M  V30 5733 O 541.615 2.39431 2.63725 0
M  V30 5734 O 540.474 3.48353 4.21085 0
M  V30 5735 H 537.568 0.499272 0.659285 0
M  V30 5736 H 540.114 1.51403 0.766496 0
M  V30 5737 H 538.886 3.32845 2.05742 0
M  V30 5738 H 538.509 2.17612 3.32762 0
M  V30 5739 N 539.506 -0.963266 1.24736 0
M  V30 5740 C 540.731 -1.74699 1.11781 0
M  V30 5741 C 541.156 -1.85267 -0.325258 0
M  V30 5742 O 540.514 -1.32681 -1.23553 0
M  V30 5743 C 540.562 -3.14322 1.76731 0
M  V30 5744 O 539.666 -3.99043 1.04109 0
M  V30 5745 H 539.007 -0.53684 0.390767 0
M  V30 5746 H 541.537 -1.20801 1.65131 0
M  V30 5747 H 541.547 -3.64824 1.82668 0
M  V30 5748 H 540.222 -3.05946 2.81726 0
M  V30 5749 H 538.799 -3.5752 1.05991 0
M  V30 5750 N 540.985 -1.06182 -1.16461 0
M  V30 5751 C 542.21 -0.798599 -1.91408 0
M  V30 5752 C 542.635 0.640987 -1.76842 0
M  V30 5753 O 541.993 1.44652 -1.09296 0
M  V30 5754 C 542.041 -1.19665 -3.40165 0
M  V30 5755 O 541.145 -0.334768 -4.11039 0
M  V30 5756 H 540.486 -0.291961 -0.596368 0
M  V30 5757 H 543.016 -1.41732 -1.47557 0
M  V30 5758 H 543.026 -1.16772 -3.90933 0
M  V30 5759 H 541.701 -2.24526 -3.50087 0
M  V30 5760 H 540.278 -0.425168 -3.70468 0
M  V30 5761 N 542.463 1.3308 -0.844243 0
M  V30 5762 C 543.874 1.7992 -0.498566 0
M  V30 5763 C 544.225 1.69808 0.982834 0
M  V30 5764 O 543.35 1.25051 1.7661 0
M  V30 5765 C 543.945 3.26677 -0.898204 0
M  V30 5766 C 542.504 3.71513 -0.604583 0
M  V30 5767 C 541.651 2.54393 -1.10362 0
M  V30 5768 H 544.602 1.20526 -1.03244 0
M  V30 5769 H 544.623 3.79918 -0.21039 0
M  V30 5770 H 544.135 3.34004 -1.97643 0
M  V30 5771 H 542.236 3.69708 0.46335 0
M  V30 5772 H 542.349 4.64755 -1.16358 0
M  V30 5773 H 540.713 2.49246 -0.524273 0
M  V30 5774 H 541.496 2.6448 -2.18873 0
M  V30 5775 N 543.941 0.601185 1.45683 0
M  V30 5776 C 545.181 0.0968037 2.04171 0
M  V30 5777 C 545.545 -1.2466 1.46027 0
M  V30 5778 O 546.746 -1.84132 1.95829 0
M  V30 5779 C 545.017 0.051384 3.57363 0
M  V30 5780 S 546.576 -0.392737 4.37039 0
M  V30 5781 H 543.394 0.0464504 0.709481 0
M  V30 5782 H 545.996 0.797846 1.78479 0
M  V30 5783 H 544.7 1.03274 3.97193 0
M  V30 5784 H 544.231 -0.671853 3.87621 0
M  V30 5785 H 546.246 -1.64364 4.68187 0
M  V30 5786 N 545.419 -1.53889 0.339982 0
M  V30 5787 C 546.83 -1.86139 -0.144671 0
M  V30 5788 C 547.181 -1.2613 -1.50285 0
M  V30 5789 O 546.306 -0.573515 -2.08662 0
M  V30 5790 C 546.901 -3.37728 -0.269285 0
M  V30 5791 C 545.46 -3.69868 -0.698168 0
M  V30 5792 C 544.607 -2.76777 0.170249 0
M  V30 5793 H 547.558 -1.48503 0.559704 0
M  V30 5794 H 547.579 -3.64331 -1.0974 0
M  V30 5795 H 547.091 -3.81375 0.719366 0
M  V30 5796 H 545.192 -3.31764 -1.69597 0
M  V30 5797 H 545.305 -4.76582 -0.490533 0
M  V30 5798 H 543.669 -2.52188 -0.356844 0
M  V30 5799 H 544.452 -3.23253 1.15597 0
M  V30 5800 N 546.897 -0.0685191 -1.57451 0
M  V30 5801 C 548.313 0.288101 -1.56978 0
M  V30 5802 C 548.513 1.70262 -1.07765 0
M  V30 5803 O 547.569 2.4135 -0.742054 0
M  V30 5804 C 548.882 0.100745 -3.00531 0
M  V30 5805 C 550.43 0.170531 -3.12535 0
M  V30 5806 C 550.905 0.0114944 -4.57999 0
M  V30 5807 N 552.396 0.0672065 -4.63151 0
M  V30 5808 C 553.131 -0.0314813 -5.73391 0
M  V30 5809 N 552.627 -0.183503 -6.92557 0
M  V30 5810 N 554.42 0.0253489 -5.62094 0
M  V30 5811 H 546.571 -0.993026 -1.87757 0
M  V30 5812 H 548.834 -0.386981 -0.865419 0
M  V30 5813 H 548.54 -0.875197 -3.40636 0
M  V30 5814 H 548.414 0.854457 -3.67395 0
M  V30 5815 H 550.801 1.13696 -2.72318 0
M  V30 5816 H 550.882 -0.614229 -2.48316 0
M  V30 5817 H 550.526 -0.951684 -4.98904 0
M  V30 5818 H 550.456 0.815617 -5.20245 0
M  V30 5819 H 552.947 0.183246 -3.77455 0
M  V30 5820 H 553.26 -0.251041 -7.72392 0
M  V30 5821 H 551.605 -0.218822 -6.94655 0
M  V30 5822 H 554.796 0.142794 -4.67882 0
M  V30 5823 H 554.969 -0.0550166 -6.47977 0
M  V30 5824 N 548.375 1.56261 0.205012 0
M  V30 5825 C 549.323 1.94631 1.27364 0
M  V30 5826 C 550.317 0.830434 1.47649 0
M  V30 5827 O 551.523 1.01538 1.48627 0
M  V30 5828 H 547.898 0.618755 0.427371 0
M  V30 5829 H 549.869 2.83768 0.922941 0
M  V30 5830 C 548.618 2.29358 2.61324 0
M  V30 5831 H 547.941 3.14744 2.46528 0
M  V30 5832 H 549.381 2.60076 3.34868 0
M  V30 5833 C 547.84 1.12461 3.17575 0
M  V30 5834 O 548.37 0.394407 3.99759 0
M  V30 5835 N 546.576 0.904036 2.7618 0
M  V30 5836 H 546.123 1.49956 2.09454 0
M  V30 5837 H 546.081 0.123662 3.14157 0
M  V30 5838 N 549.853 -0.472356 1.50355 0
M  V30 5839 C 551.078 -1.25251 1.65309 0
M  V30 5840 C 551.503 -1.85081 0.335643 0
M  V30 5841 O 550.861 -1.67227 -0.700335 0
M  V30 5842 C 550.909 -2.3379 2.74544 0
M  V30 5843 O 550.013 -3.38401 2.35709 0
M  V30 5844 H 549.354 -0.368539 0.552336 0
M  V30 5845 H 551.884 -0.562271 1.96722 0
M  V30 5846 H 551.894 -2.79121 2.97583 0
M  V30 5847 H 550.569 -1.89614 3.70161 0
M  V30 5848 H 549.146 -2.9879 2.23112 0
M  V30 5849 N 551.331 -1.39911 -0.725443 0
M  V30 5850 C 552.264 -1.33788 -1.84867 0
M  V30 5851 C 553.242 -0.209907 -1.61239 0
M  V30 5852 O 554.426 -0.391943 -1.8438 0
M  V30 5853 C 551.553 -1.07975 -3.21028 0
M  V30 5854 C 550.599 -2.23092 -3.635 0
M  V30 5855 S 551.432 -3.85431 -3.71757 0
M  V30 5856 C 552.588 -3.61862 -5.10692 0
M  V30 5857 H 552.821 -2.28848 -1.89779 0
M  V30 5858 H 550.354 -1.26079 -0.891254 0
M  V30 5859 H 552.312 -0.937669 -3.99647 0
M  V30 5860 H 550.973 -0.145865 -3.13761 0
M  V30 5861 H 550.166 -2.00647 -4.62338 0
M  V30 5862 H 549.768 -2.33553 -2.92112 0
M  V30 5863 H 552.06 -3.19719 -5.97316 0
M  V30 5864 H 553.003 -4.60196 -5.38169 0
M  V30 5865 H 553.411 -2.95757 -4.8082 0
M  V30 5866 N 552.809 0.956637 -1.25245 0
M  V30 5867 C 553.772 2.03457 -1.05537 0
M  V30 5868 C 554.772 1.60798 -0.00886317 0
M  V30 5869 O 555.962 1.72384 -0.250865 0
M  V30 5870 C 553.094 3.35543 -0.601965 0
M  V30 5871 H 554.287 2.22372 -2.01223 0
M  V30 5872 H 551.84 1.13344 -1.07623 0
M  V30 5873 H 552.575 3.22323 0.357584 0
M  V30 5874 H 552.36 3.67854 -1.35743 0
M  V30 5875 H 553.85 4.14769 -0.485454 0
M  V30 5876 N 554.287 1.06798 1.15896 0
M  V30 5877 C 555.698 0.811355 1.68149 0
M  V30 5878 C 556.049 -0.664339 1.8461 0
M  V30 5879 O 555.174 -1.51485 1.54535 0
M  V30 5880 C 555.769 1.46624 3.05429 0
M  V30 5881 C 554.328 1.25726 3.54781 0
M  V30 5882 C 553.475 1.53949 2.3064 0
M  V30 5883 H 556.426 1.23078 1.00187 0
M  V30 5884 H 556.447 0.88437 3.7008 0
M  V30 5885 H 555.959 2.54025 2.93416 0
M  V30 5886 H 554.06 0.20322 3.72045 0
M  V30 5887 H 554.173 1.97354 4.36564 0
M  V30 5888 H 552.537 0.96025 2.35905 0
M  V30 5889 H 553.32 2.6252 2.2122 0
M  V30 5890 N 555.766 -1.3263 0.851289 0
M  V30 5891 C 556.729 -2.27247 0.298541 0
M  V30 5892 C 557.729 -1.51467 -0.539847 0
M  V30 5893 O 558.919 -1.7061 -0.351843 0
M  V30 5894 C 556.051 -3.35964 -0.578004 0
M  V30 5895 H 557.244 -2.7765 1.13359 0
M  V30 5896 H 554.797 -1.43245 0.625354 0
M  V30 5897 H 555.532 -2.90823 -1.435 0
M  V30 5898 H 555.317 -3.92094 0.0220539 0
M  V30 5899 H 556.807 -4.06472 -0.957626 0
M  V30 5900 N 557.244 -0.608902 -1.45362 0
M  V30 5901 C 558.191 0.109172 -2.30542 0
M  V30 5902 C 559.161 0.858704 -1.42181 0
M  V30 5903 O 560.346 0.844178 -1.71109 0
M  V30 5904 C 557.486 1.09971 -3.27109 0
M  V30 5905 C 556.599 0.350911 -4.30572 0
M  V30 5906 C 555.734 1.33129 -5.14247 0
M  V30 5907 C 554.773 0.570377 -6.09437 0
M  V30 5908 N 553.91 1.5001 -6.85887 0
M  V30 5909 H 558.75 -0.623195 -2.91411 0
M  V30 5910 H 556.287 -0.319122 -1.43597 0
M  V30 5911 H 558.245 1.68714 -3.81564 0
M  V30 5912 H 556.875 1.79947 -2.67991 0
M  V30 5913 H 555.927 -0.352054 -3.78767 0
M  V30 5914 H 557.239 -0.242725 -4.98209 0
M  V30 5915 H 556.393 1.99074 -5.73109 0
M  V30 5916 H 555.132 1.95885 -4.46632 0
M  V30 5917 H 554.137 -0.102702 -5.49704 0
M  V30 5918 H 555.362 -0.0521607 -6.7908 0
M  V30 5919 H 553.308 2.11529 -6.2096 0
M  V30 5920 H 553.225 0.959934 -7.49881 0
M  V30 5921 H 554.493 2.14909 -7.49289 0
M  V30 5922 N 558.722 1.53707 -0.348139 0
M  V30 5923 C 559.999 1.93247 0.302475 0
M  V30 5924 C 560.379 1.28012 1.67857 0
M  V30 5925 O 559.727 0.43274 2.24365 0
M  V30 5926 C 559.937 3.47031 0.370159 0
M  V30 5927 C 561.285 4.20066 0.61882 0
M  V30 5928 O 562.309 3.53319 0.452087 0
M  V30 5929 O 561.168 5.38318 0.94215 0
M  V30 5930 H 558.262 0.807736 0.177458 0
M  V30 5931 H 560.808 1.64927 -0.399651 0
M  V30 5932 H 559.58 3.86745 -0.59534 0
M  V30 5933 H 559.203 3.81532 1.11888 0
M  V30 5934 N 560.2 0.0768682 1.57412 0
M  V30 5935 C 561.477 -0.632359 1.85096 0
M  V30 5936 C 561.857 -1.87479 0.9703 0
M  V30 5937 O 561.205 -2.28469 0.0379062 0
M  V30 5938 C 561.415 -0.965174 3.35388 0
M  V30 5939 C 562.763 -1.33648 4.03018 0
M  V30 5940 O 563.787 -1.05675 3.40164 0
M  V30 5941 O 562.646 -1.85959 5.13889 0
M  V30 5942 H 559.74 -0.314574 0.764835 0
M  V30 5943 H 562.286 0.108184 1.69355 0
M  V30 5944 H 561.058 -0.0829745 3.91212 0
M  V30 5945 H 560.681 -1.76231 3.5641 0
M  V30 5946 N 561.678 -1.56367 -0.196722 0
M  V30 5947 C 562.903 -1.84991 -0.937714 0
M  V30 5948 C 563.328 -0.660244 -1.76132 0
M  V30 5949 O 562.686 0.390967 -1.77034 0
M  V30 5950 C 562.734 -3.11828 -1.81096 0
M  V30 5951 O 561.838 -2.92266 -2.90955 0
M  V30 5952 H 561.179 -0.609193 -0.264159 0
M  V30 5953 H 563.709 -2.03595 -0.202529 0
M  V30 5954 H 563.719 -3.42579 -2.21594 0
M  V30 5955 H 562.394 -3.98037 -1.2058 0
M  V30 5956 H 560.971 -2.72809 -2.54224 0
M  V30 5957 N 563.156 0.464375 -1.50603 0
M  V30 5958 C 564.381 1.24372 -1.65971 0
M  V30 5959 C 564.806 1.84901 -0.345453 0
M  V30 5960 O 564.164 1.67596 0.691457 0
M  V30 5961 C 564.212 2.32331 -2.7578 0
M  V30 5962 O 563.316 3.37146 -2.375 0
M  V30 5963 H 562.657 0.365604 -0.554283 0
M  V30 5964 H 565.187 0.55183 -1.97018 0
M  V30 5965 H 565.197 2.77539 -2.99059 0
M  V30 5966 H 563.872 1.87648 -3.71162 0
M  V30 5967 H 562.449 2.97602 -2.24694 0
M  V30 5968 N 564.634 1.40294 0.718013 0
M  V30 5969 C 565.564 1.43118 1.84498 0
M  V30 5970 C 566.545 0.292403 1.67568 0
M  V30 5971 O 567.73 0.500675 1.87635 0
M  V30 5972 C 564.86 1.29065 3.22427 0
M  V30 5973 C 563.814 2.40521 3.54025 0
M  V30 5974 C 563.14 2.11546 4.91073 0
M  V30 5975 C 564.44 3.82859 3.55269 0
M  V30 5976 H 566.134 2.37432 1.82391 0
M  V30 5977 H 563.68 1.14283 0.87609 0
M  V30 5978 H 565.633 1.29658 4.00957 0
M  V30 5979 H 564.357 0.312271 3.25104 0
M  V30 5980 H 563.016 2.39173 2.77834 0
M  V30 5981 H 562.664 1.12104 4.90348 0
M  V30 5982 H 562.364 2.86216 5.1318 0
M  V30 5983 H 563.888 2.13817 5.71939 0
M  V30 5984 H 565.302 3.86044 4.23843 0
M  V30 5985 H 563.699 4.57029 3.88902 0
M  V30 5986 H 564.769 4.12617 2.54706 0
M  V30 5987 N 566.112 -0.949982 1.2575 0
M  V30 5988 C 567.523 -1.50989 1.09815 0
M  V30 5989 C 567.874 -1.93497 -0.324556 0
M  V30 5990 O 566.999 -1.79068 -1.21506 0
M  V30 5991 C 567.594 -2.74394 1.98729 0
M  V30 5992 C 566.153 -3.26682 1.86965 0
M  V30 5993 C 565.3 -1.99498 1.92603 0
M  V30 5994 H 568.251 -0.766387 1.38968 0
M  V30 5995 H 568.272 -3.48383 1.53001 0
M  V30 5996 H 567.784 -2.43425 3.02268 0
M  V30 5997 H 565.885 -3.62461 0.863279 0
M  V30 5998 H 565.998 -3.94383 2.72027 0
M  V30 5999 H 564.362 -2.15005 1.36546 0
M  V30 6000 H 565.145 -1.70871 2.97755 0
M  V30 6001 N 567.59 -1.07411 -1.15328 0
M  V30 6002 C 568.5 -0.706438 -2.23711 0
M  V30 6003 C 569.516 0.282586 -1.7169 0
M  V30 6004 O 570.692 0.129066 -2.00986 0
M  V30 6005 C 567.757 -0.11048 -3.46524 0
M  V30 6006 C 566.818 -1.15282 -4.13532 0
M  V30 6007 C 566.051 -0.585205 -5.30482 0
M  V30 6008 O 566.274 0.598549 -5.67251 0
M  V30 6009 O 565.208 -1.33039 -5.87013 0
M  V30 6010 H 569.034 -1.61031 -2.57493 0
M  V30 6011 H 566.619 -0.847113 -1.23062 0
M  V30 6012 H 568.501 0.21957 -4.20828 0
M  V30 6013 H 567.176 0.766703 -3.14489 0
M  V30 6014 H 566.083 -1.53523 -3.41147 0
M  V30 6015 H 567.416 -2.00192 -4.49649 0
M  V30 6016 N 569.068 1.32177 -0.85831 0
M  V30 6017 C 570.298 2.01021 -0.476889 0
M  V30 6018 C 570.706 1.64653 0.931995 0
M  V30 6019 O 570.049 0.865713 1.62022 0
M  V30 6020 C 570.111 3.55413 -0.540528 0
M  V30 6021 C 569.775 4.1522 -1.90895 0
M  V30 6022 C 570.772 4.3318 -2.87491 0
M  V30 6023 C 568.457 4.51212 -2.20709 0
M  V30 6024 C 570.451 4.86306 -4.1205 0
M  V30 6025 C 568.138 5.04042 -3.45521 0
M  V30 6026 C 569.136 5.21538 -4.41007 0
M  V30 6027 O 568.824 5.73238 -5.63608 0
M  V30 6028 H 568.556 0.650059 -0.18547 0
M  V30 6029 H 571.11 1.69648 -1.15796 0
M  V30 6030 H 569.34 3.86196 0.19741 0
M  V30 6031 H 571.029 4.05526 -0.174191 0
M  V30 6032 H 571.795 4.05704 -2.65762 0
M  V30 6033 H 567.674 4.36878 -1.4717 0
M  V30 6034 H 571.218 4.99877 -4.86589 0
M  V30 6035 H 567.115 5.30952 -3.67098 0
M  V30 6036 H 567.883 5.91625 -5.65617 0
M  V30 6037 N 570.547 0.616602 1.45037 0
M  V30 6038 C 571.772 0.120192 2.07051 0
M  V30 6039 C 572.197 -1.19008 1.45666 0
M  V30 6040 O 571.555 -1.7267 0.552692 0
M  V30 6041 C 571.603 0.00354901 3.606 0
M  V30 6042 O 570.707 -1.04431 3.98958 0
M  V30 6043 H 570.048 0.0781599 0.659384 0
M  V30 6044 H 572.578 0.849167 1.86146 0
M  V30 6045 H 572.588 -0.191754 4.07549 0
M  V30 6046 H 571.263 0.960239 4.04663 0
M  V30 6047 H 569.84 -0.824749 3.63665 0
M  V30 6048 N 572.025 -1.5352 0.356285 0
M  V30 6049 C 572.988 -2.24071 -0.482182 0
M  V30 6050 C 573.988 -1.24531 -1.01729 0
M  V30 6051 O 575.178 -1.48876 -0.904513 0
M  V30 6052 C 572.31 -2.97025 -1.67299 0
M  V30 6053 H 573.503 -2.99596 0.135031 0
M  V30 6054 H 571.056 -1.55928 0.107825 0
M  V30 6055 H 571.791 -2.25719 -2.32855 0
M  V30 6056 H 571.576 -3.7005 -1.29636 0
M  V30 6057 H 573.066 -3.50683 -2.26741 0
M  V30 6058 N 573.503 -0.0852151 -1.57369 0
M  V30 6059 C 574.75 0.580806 -1.93992 0
M  V30 6060 C 575.078 1.68801 -0.966252 0
M  V30 6061 O 574.333 1.95694 0.0158649 0
M  V30 6062 C 574.632 1.18482 -3.3719 0
M  V30 6063 C 574.298 0.2024 -4.50446 0
M  V30 6064 C 572.96 -0.0678318 -4.81152 0
M  V30 6065 C 575.312 -0.46895 -5.19086 0
M  V30 6066 C 572.64 -1.01627 -5.77831 0
M  V30 6067 C 574.992 -1.4058 -6.16782 0
M  V30 6068 C 573.656 -1.68436 -6.45899 0
M  V30 6069 H 572.926 0.212532 -0.709867 0
M  V30 6070 H 575.573 -0.158947 -1.90839 0
M  V30 6071 H 573.878 2.0006 -3.36873 0
M  V30 6072 H 575.575 1.70767 -3.62822 0
M  V30 6073 H 572.165 0.423208 -4.26505 0
M  V30 6074 H 576.349 -0.273307 -4.95547 0
M  V30 6075 H 571.605 -1.2392 -5.9871 0
M  V30 6076 H 575.779 -1.93188 -6.69068 0
M  V30 6077 H 573.406 -2.42088 -7.20623 0
M  V30 6078 N 574.981 1.5647 0.188427 0
M  V30 6079 C 575.929 1.95971 1.25293 0
M  V30 6080 C 576.923 0.846047 1.4676 0
M  V30 6081 O 578.129 1.03109 1.47542 0
M  V30 6082 H 574.504 0.623253 0.420784 0
M  V30 6083 H 576.475 2.84731 0.892792 0
M  V30 6084 C 575.224 2.32116 2.58877 0
M  V30 6085 H 574.547 3.17341 2.43176 0
M  V30 6086 H 575.987 2.63613 3.3209 0
M  V30 6087 C 574.446 1.15823 3.16365 0
M  V30 6088 O 574.976 0.436785 3.99318 0
M  V30 6089 N 573.182 0.933278 2.75206 0
M  V30 6090 H 572.729 1.52169 2.07852 0
M  V30 6091 H 572.687 0.156976 3.14008 0
M  V30 6092 N 576.459 -0.456382 1.50847 0
M  V30 6093 C 577.687 -1.23026 1.66349 0
M  V30 6094 C 578.102 -1.85473 0.352868 0
M  V30 6095 O 577.459 -1.69885 -0.666739 0
M  V30 6096 C 577.51 -2.32827 2.76539 0
M  V30 6097 O 577.231 -1.72938 4.02522 0
M  V30 6098 C 578.732 -3.23448 3.03144 0
M  V30 6099 H 575.952 -0.371527 0.558756 0
M  V30 6100 H 578.496 -0.543082 1.97157 0
M  V30 6101 H 576.651 -2.97294 2.48384 0
M  V30 6102 H 577.065 -2.45357 4.63573 0
M  V30 6103 H 578.539 -3.96669 3.83872 0
M  V30 6104 H 579.016 -3.83094 2.14793 0
M  V30 6105 H 579.622 -2.64702 3.32886 0
M  V30 6106 N 577.937 -1.40673 -0.710563 0
M  V30 6107 C 579.162 -1.42741 -1.50465 0
M  V30 6108 C 579.587 -0.0302116 -1.88076 0
M  V30 6109 O 578.945 0.962945 -1.53613 0
M  V30 6110 C 578.993 -2.32873 -2.75322 0
M  V30 6111 O 578.097 -1.77544 -3.72226 0
M  V30 6112 H 577.438 -0.485056 -0.45345 0
M  V30 6113 H 579.968 -1.84961 -0.874681 0
M  V30 6114 H 579.978 -2.48233 -3.23797 0
M  V30 6115 H 578.653 -3.34401 -2.47283 0
M  V30 6116 H 577.23 -1.71556 -3.31093 0
M  V30 6117 N 579.415 0.9433 -1.26252 0
M  V30 6118 C 580.661 1.69175 -1.11837 0
M  V30 6119 C 580.994 1.91238 0.337891 0
M  V30 6120 O 580.269 1.49152 1.24836 0
M  V30 6121 C 580.552 3.06783 -1.88563 0
M  V30 6122 C 580.405 2.9206 -3.42083 0
M  V30 6123 C 581.724 4.06865 -1.67776 0
M  V30 6124 H 578.843 0.61399 -0.407658 0
M  V30 6125 H 581.485 1.09572 -1.55222 0
M  V30 6126 H 579.635 3.57663 -1.51689 0
M  V30 6127 H 581.307 2.48419 -3.88698 0
M  V30 6128 H 579.55 2.27731 -3.69217 0
M  V30 6129 H 580.221 3.89651 -3.90994 0
M  V30 6130 H 582.697 3.64939 -1.99897 0
M  V30 6131 H 581.573 5.01168 -2.23879 0
M  V30 6132 H 581.834 4.37705 -0.621816 0
M  V30 6133 N 580.893 1.08022 1.14757 0
M  V30 6134 C 581.843 0.676345 2.17737 0
M  V30 6135 C 582.827 -0.302018 1.5804 0
M  V30 6136 O 584.019 -0.11466 1.76628 0
M  V30 6137 C 581.148 0.082984 3.432 0
M  V30 6138 C 580.234 1.0869 4.09936 0
M  V30 6139 N 580.625 2.26891 4.52055 0
M  V30 6140 C 578.923 0.921768 4.36371 0
M  V30 6141 C 579.624 2.90636 5.0389 0
M  V30 6142 N 578.6 2.18266 4.97856 0
M  V30 6143 H 582.402 1.5765 2.4804 0
M  V30 6144 H 579.916 0.954374 1.31398 0
M  V30 6145 H 581.913 -0.224289 4.16296 0
M  V30 6146 H 580.573 -0.812206 3.14378 0
M  V30 6147 H 581.584 2.6457 4.45223 0
M  V30 6148 H 578.261 0.0800499 4.17423 0
M  V30 6149 H 579.651 3.9104 5.46386 0
M  V30 6150 N 582.371 -1.3172 0.865308 0
M  V30 6151 C 583.334 -2.26918 0.322627 0
M  V30 6152 C 584.334 -1.52031 -0.523751 0
M  V30 6153 O 585.524 -1.70973 -0.333727 0
M  V30 6154 C 582.656 -3.36558 -0.542338 0
M  V30 6155 H 583.849 -2.76432 1.16298 0
M  V30 6156 H 581.402 -1.42573 0.640512 0
M  V30 6157 H 582.137 -2.92329 -1.40407 0
M  V30 6158 H 581.922 -3.92048 0.0636395 0
M  V30 6159 H 583.412 -4.07465 -0.91446 0
M  V30 6160 N 583.85 -0.624285 -1.44708 0
M  V30 6161 C 584.812 0.0749638 -2.29077 0
M  V30 6162 C 585.812 0.778965 -1.40673 0
M  V30 6163 O 587.003 0.624591 -1.62618 0
M  V30 6164 C 584.135 1.11663 -3.22094 0
M  V30 6165 H 585.327 -0.667013 -2.92388 0
M  V30 6166 H 582.88 -0.384098 -1.51507 0
M  V30 6167 H 583.615 1.88881 -2.63618 0
M  V30 6168 H 583.401 0.61583 -3.87234 0
M  V30 6169 H 584.891 1.60585 -3.8549 0
M  V30 6170 N 585.328 1.53329 -0.364422 0
M  V30 6171 C 586.577 2.00421 0.226747 0
M  V30 6172 C 586.89 1.25581 1.49963 0
M  V30 6173 O 588.096 1.63256 2.16933 0
M  V30 6174 C 586.552 3.57017 0.454618 0
M  V30 6175 C 586.16 4.40734 -0.803568 0
M  V30 6176 C 587.904 4.12468 1.00351 0
M  V30 6177 C 585.811 5.8888 -0.545345 0
M  V30 6178 H 584.741 0.748787 0.0885082 0
M  V30 6179 H 587.392 1.7703 -0.482983 0
M  V30 6180 H 585.774 3.76558 1.22558 0
M  V30 6181 H 586.948 4.32967 -1.57723 0
M  V30 6182 H 585.263 3.96381 -1.27559 0
M  V30 6183 H 587.86 5.20783 1.212 0
M  V30 6184 H 588.203 3.6699 1.9653 0
M  V30 6185 H 588.736 3.96721 0.29274 0
M  V30 6186 H 585.475 6.38633 -1.47743 0
M  V30 6187 H 584.995 5.99499 0.189842 0
M  V30 6188 H 586.674 6.46776 -0.170425 0
M  V30 6189 N 586.806 0.0935595 1.57322 0
M  V30 6190 C 588.222 -0.263091 1.57417 0
M  V30 6191 C 588.422 -1.68526 1.1046 0
M  V30 6192 O 587.478 -2.40139 0.780357 0
M  V30 6193 C 588.791 -0.0529201 3.00653 0
M  V30 6194 C 590.339 -0.120788 3.12767 0
M  V30 6195 C 590.814 0.0613707 4.57959 0
M  V30 6196 N 592.305 0.00648534 4.632 0
M  V30 6197 C 593.04 0.122699 5.73269 0
M  V30 6198 N 592.536 0.29366 6.92177 0
M  V30 6199 N 594.329 0.0640787 5.62063 0
M  V30 6200 H 586.48 1.02277 1.86154 0
M  V30 6201 H 588.743 0.4007 0.859153 0
M  V30 6202 H 588.449 0.929279 3.39201 0
M  V30 6203 H 588.323 -0.795899 3.68708 0
M  V30 6204 H 590.71 -1.09349 2.74093 0
M  V30 6205 H 590.791 0.653656 2.47307 0
M  V30 6206 H 590.435 1.03093 4.97327 0
M  V30 6207 H 590.365 -0.732748 5.21477 0
M  V30 6208 H 592.856 -0.123173 3.77699 0
M  V30 6209 H 593.169 0.37389 7.71895 0
M  V30 6210 H 591.514 0.329307 6.94219 0
M  V30 6211 H 594.705 -0.0683396 4.6805 0
M  V30 6212 H 594.878 0.158097 6.47807 0
M  V30 6213 N 588.284 -1.56567 -0.180126 0
M  V30 6214 C 589.234 -1.92132 -1.22756 0
M  V30 6215 C 590.218 -0.788639 -1.40247 0
M  V30 6216 O 591.41 -1.05171 -1.42366 0
M  V30 6217 C 588.539 -2.27719 -2.56902 0
M  V30 6218 C 587.625 -3.47481 -2.43142 0
M  V30 6219 N 588.016 -4.64973 -1.99082 0
M  V30 6220 C 586.314 -3.51914 -2.73994 0
M  V30 6221 C 587.015 -5.47119 -1.97574 0
M  V30 6222 N 585.991 -4.87925 -2.39645 0
M  V30 6223 H 589.793 -2.80464 -0.878478 0
M  V30 6224 H 587.307 -1.57686 -0.388463 0
M  V30 6225 H 589.304 -2.51389 -3.32579 0
M  V30 6226 H 587.964 -1.40722 -2.92621 0
M  V30 6227 H 588.975 -4.89358 -1.69557 0
M  V30 6228 H 585.652 -2.75372 -3.13809 0
M  V30 6229 H 587.042 -6.51254 -1.65282 0
M  V30 6230 N 589.762 0.448376 -1.51087 0
M  V30 6231 C 591.01 1.19635 -1.62886 0
M  V30 6232 C 591.331 1.91977 -0.342024 0
M  V30 6233 O 590.601 1.85094 0.641636 0
M  V30 6234 H 589.181 0.444598 -0.600285 0
M  V30 6235 H 591.843 0.515138 -1.87969 0
M  V30 6236 H 590.939 1.93194 -2.45117 0
M  V30 6237 N 591.24 1.41047 0.703093 0
M  V30 6238 C 592.188 1.42494 1.83843 0
M  V30 6239 C 593.182 0.303885 1.66652 0
M  V30 6240 O 594.388 0.475544 1.73605 0
M  V30 6241 H 590.763 0.445685 0.605697 0
M  V30 6242 H 592.734 2.38194 1.79739 0
M  V30 6243 C 591.483 1.31666 3.21807 0
M  V30 6244 H 590.806 2.17212 3.35647 0
M  V30 6245 H 592.246 1.36738 4.01346 0
M  V30 6246 C 590.705 0.0281828 3.36888 0
M  V30 6247 O 591.235 -0.929995 3.90786 0
M  V30 6248 N 589.441 -0.0454322 2.90564 0
M  V30 6249 H 588.988 0.735046 2.4689 0
M  V30 6250 H 588.946 -0.906968 3.01034 0
M  V30 6251 N 592.718 -0.936591 1.26751 0
M  V30 6252 C 593.964 -1.68625 1.13741 0
M  V30 6253 C 594.319 -1.898 -0.315221 0
M  V30 6254 O 593.612 -1.47088 -1.22783 0
M  V30 6255 C 593.806 -3.06099 1.84494 0
M  V30 6256 C 593.635 -2.98338 3.36488 0
M  V30 6257 C 592.405 -3.01104 4.05789 0
M  V30 6258 C 594.603 -2.78128 4.32608 0
M  V30 6259 N 592.585 -2.8369 5.4442 0
M  V30 6260 C 593.956 -2.69329 5.58446 0
M  V30 6261 C 596.011 -2.62946 4.22804 0
M  V30 6262 C 594.714 -2.46899 6.75598 0
M  V30 6263 C 596.74 -2.41892 5.39669 0
M  V30 6264 C 596.102 -2.33829 6.64457 0
M  V30 6265 H 592.201 -0.624227 0.471025 0
M  V30 6266 H 594.785 -1.10798 1.601 0
M  V30 6267 H 592.956 -3.62057 1.40604 0
M  V30 6268 H 594.688 -3.69951 1.64067 0
M  V30 6269 H 591.443 -3.10992 3.57185 0
M  V30 6270 H 591.867 -2.78138 6.17226 0
M  V30 6271 H 596.509 -2.67944 3.27056 0
M  V30 6272 H 594.227 -2.40642 7.71438 0
M  V30 6273 H 597.813 -2.31043 5.33957 0
M  V30 6274 H 596.693 -2.17754 7.53361 0
M  V30 6275 N 594.196 -1.08629 -1.14182 0
M  V30 6276 C 595.143 -0.718299 -2.19338 0
M  V30 6277 C 596.113 0.296587 -1.63431 0
M  V30 6278 O 597.298 0.180079 -1.89948 0
M  V30 6279 C 594.438 -0.136203 -3.44831 0
M  V30 6280 C 593.551 -1.20414 -4.14879 0
M  V30 6281 C 592.686 -0.585666 -5.27962 0
M  V30 6282 C 591.725 -1.63548 -5.89846 0
M  V30 6283 N 590.862 -1.03864 -6.94375 0
M  V30 6284 H 595.702 -1.61932 -2.50164 0
M  V30 6285 H 593.239 -0.80919 -1.22844 0
M  V30 6286 H 595.197 0.219021 -4.16625 0
M  V30 6287 H 593.827 0.728121 -3.14481 0
M  V30 6288 H 592.879 -1.67676 -3.41451 0
M  V30 6289 H 594.191 -1.99959 -4.56966 0
M  V30 6290 H 593.345 -0.178818 -6.06436 0
M  V30 6291 H 592.084 0.24142 -4.87102 0
M  V30 6292 H 591.089 -2.05197 -5.10073 0
M  V30 6293 H 592.314 -2.46509 -6.3278 0
M  V30 6294 H 590.26 -0.232687 -6.55587 0
M  V30 6295 H 590.177 -1.77116 -7.3496 0
M  V30 6296 H 591.445 -0.657724 -7.7672 0
M  V30 6297 N 595.674 1.31259 -0.872281 0
M  V30 6298 C 596.604 2.30929 -0.345554 0
M  V30 6299 C 597.585 1.60449 0.5648 0
M  V30 6300 O 598.77 1.8814 0.481335 0
M  V30 6301 C 595.9 3.44348 0.451823 0
M  V30 6302 C 594.854 4.26435 -0.365641 0
M  V30 6303 C 594.18 5.31785 0.557562 0
M  V30 6304 C 595.48 4.97159 -1.60095 0
M  V30 6305 H 597.174 2.75234 -1.17841 0
M  V30 6306 H 594.72 1.3232 -0.568094 0
M  V30 6307 H 596.673 4.13128 0.830854 0
M  V30 6308 H 595.397 2.98816 1.31821 0
M  V30 6309 H 594.056 3.59326 -0.726649 0
M  V30 6310 H 593.704 4.82502 1.4213 0
M  V30 6311 H 593.404 5.87598 0.0144878 0
M  V30 6312 H 594.928 6.03424 0.933387 0
M  V30 6313 H 596.342 5.58523 -1.29323 0
M  V30 6314 H 594.739 5.62779 -2.08327 0
M  V30 6315 H 595.809 4.24012 -2.35249 0
M  V30 6316 N 597.152 0.631951 1.44375 0
M  V30 6317 C 598.082 -0.0593243 2.33425 0
M  V30 6318 C 599.063 -0.833964 1.48253 0
M  V30 6319 O 600.248 -0.799682 1.76971 0
M  V30 6320 C 597.378 -1.04096 3.31333 0
M  V30 6321 C 596.332 -0.377899 4.26328 0
M  V30 6322 C 595.658 -1.4695 5.14111 0
M  V30 6323 C 596.958 0.716371 5.17364 0
M  V30 6324 H 598.652 0.684287 2.91475 0
M  V30 6325 H 596.198 0.330518 1.40156 0
M  V30 6326 H 598.151 -1.53331 3.92514 0
M  V30 6327 H 596.875 -1.81547 2.71493 0
M  V30 6328 H 595.534 0.0938054 3.6648 0
M  V30 6329 H 595.182 -2.2349 4.50623 0
M  V30 6330 H 594.882 -1.03121 5.78481 0
M  V30 6331 H 596.406 -1.96363 5.78164 0
M  V30 6332 H 597.82 0.307089 5.72477 0
M  V30 6333 H 596.217 1.07784 5.90341 0
M  V30 6334 H 597.287 1.58316 4.58327 0
M  V30 6335 N 598.631 -1.53133 0.372548 0
M  V30 6336 C 599.859 -2.05774 -0.215515 0
M  V30 6337 C 600.274 -1.24555 -1.41886 0
M  V30 6338 O 599.631 -0.287951 -1.80214 0
M  V30 6339 C 599.682 -3.5645 -0.602161 0
M  V30 6340 O 599.403 -4.34591 0.553359 0
M  V30 6341 C 600.904 -4.25374 -1.24787 0
M  V30 6342 H 598.124 -0.670009 -0.0364529 0
M  V30 6343 H 600.668 -1.97434 0.532934 0
M  V30 6344 H 598.823 -3.64918 -1.30052 0
M  V30 6345 H 599.237 -5.23954 0.239336 0
M  V30 6346 H 600.711 -5.32097 -1.46891 0
M  V30 6347 H 601.188 -3.79531 -2.21026 0
M  V30 6348 H 601.794 -4.21177 -0.590752 0
M  V30 6349 N 600.109 -0.101901 -1.5727 0
M  V30 6350 C 601.357 0.559091 -1.94213 0
M  V30 6351 C 601.678 1.68297 -0.984948 0
M  V30 6352 O 600.948 1.95863 -0.0381975 0
M  V30 6353 H 599.528 0.20952 -0.717015 0
M  V30 6354 H 602.19 -0.166831 -1.94185 0
M  V30 6355 H 601.286 0.96485 -2.96811 0
M  V30 6356 N 601.587 1.56661 0.17182 0
M  V30 6357 C 602.817 1.85831 0.902804 0
M  V30 6358 C 603.225 0.685157 1.76358 0
M  V30 6359 O 602.568 -0.354947 1.80238 0
M  V30 6360 C 602.63 3.09406 1.83053 0
M  V30 6361 C 602.294 4.4231 1.1494 0
M  V30 6362 C 603.291 5.17342 0.515104 0
M  V30 6363 C 600.976 4.89045 1.14631 0
M  V30 6364 C 602.97 6.37299 -0.113194 0
M  V30 6365 C 600.657 6.08933 0.514184 0
M  V30 6366 C 601.655 6.82904 -0.114463 0
M  V30 6367 O 601.343 8.00518 -0.736622 0
M  V30 6368 H 601.075 0.620715 0.267748 0
M  V30 6369 H 603.629 2.04637 0.176918 0
M  V30 6370 H 601.859 2.86544 2.59672 0
M  V30 6371 H 603.548 3.25027 2.4313 0
M  V30 6372 H 604.314 4.82317 0.509474 0
M  V30 6373 H 600.193 4.31409 1.62502 0
M  V30 6374 H 603.737 6.94976 -0.604477 0
M  V30 6375 H 599.634 6.43423 0.517395 0
M  V30 6376 H 600.402 8.16027 -0.635822 0
M  V30 6377 N 603.065 -0.440357 1.51323 0
M  V30 6378 C 604.476 -1.02032 1.56353 0
M  V30 6379 C 604.827 -1.92382 0.385197 0
M  V30 6380 O 603.952 -2.10583 -0.498373 0
M  V30 6381 C 604.547 -1.85723 2.83359 0
M  V30 6382 C 603.106 -2.38774 2.90971 0
M  V30 6383 C 602.253 -1.17908 2.50984 0
M  V30 6384 H 605.204 -0.221744 1.57143 0
M  V30 6385 H 605.225 -2.71141 2.66951 0
M  V30 6386 H 604.737 -1.19939 3.69102 0
M  V30 6387 H 602.838 -3.08021 2.09651 0
M  V30 6388 H 602.951 -2.71778 3.94555 0
M  V30 6389 H 601.315 -1.52347 2.04114 0
M  V30 6390 H 602.098 -0.537393 3.39068 0
M  V30 6391 N 604.543 -1.41418 -0.695603 0
M  V30 6392 C 605.791 -1.40496 -1.45277 0
M  V30 6393 C 606.112 -0.0149538 -1.94994 0
M  V30 6394 O 605.382 0.9432 -1.71699 0
M  V30 6395 H 603.962 -0.517147 -0.539044 0
M  V30 6396 H 606.624 -1.76656 -0.823321 0
M  V30 6397 H 605.72 -2.09214 -2.31595 0
M  V30 6398 N 606.021 0.929856 -1.27246 0
M  V30 6399 C 607.261 1.6919 -1.14691 0
M  V30 6400 C 607.625 1.896 0.302621 0
M  V30 6401 O 608.826 2.63102 0.550543 0
M  V30 6402 C 607.097 3.02291 -1.9067 0
M  V30 6403 S 608.656 3.93436 -1.94303 0
M  V30 6404 H 605.474 0.581248 -0.409477 0
M  V30 6405 H 608.076 1.10722 -1.61124 0
M  V30 6406 H 606.78 2.85125 -2.95181 0
M  V30 6407 H 606.311 3.65813 -1.44723 0
M  V30 6408 H 608.326 4.85224 -1.0379 0
M  V30 6409 N 607.499 1.09233 1.13605 0
M  V30 6410 C 608.747 0.825525 1.84471 0
M  V30 6411 C 609.068 -0.650702 1.83823 0
M  V30 6412 O 608.338 -1.47204 1.29259 0
M  V30 6413 H 606.918 0.3024 0.683054 0
M  V30 6414 H 609.58 1.38006 1.37624 0
M  V30 6415 H 608.676 1.17727 2.89045 0
M  V30 6416 N 608.977 -1.30795 0.87923 0
M  V30 6417 C 610.207 -2.00237 0.50881 0
M  V30 6418 C 610.615 -1.66115 -0.905682 0
M  V30 6419 O 609.958 -0.89138 -1.60624 0
M  V30 6420 C 610.02 -3.54508 0.597003 0
M  V30 6421 C 609.684 -4.12131 1.97477 0
M  V30 6422 C 610.681 -4.28552 2.94346 0
M  V30 6423 C 608.366 -4.47644 2.2786 0
M  V30 6424 C 610.36 -4.79689 4.19735 0
M  V30 6425 C 608.047 -4.98481 3.53496 0
M  V30 6426 C 609.045 -5.14456 4.49248 0
M  V30 6427 O 608.733 -5.64199 5.72656 0
M  V30 6428 H 608.465 -0.647026 0.195788 0
M  V30 6429 H 611.019 -1.67785 1.1848 0
M  V30 6430 H 609.249 -3.86461 -0.135945 0
M  V30 6431 H 610.938 -4.05198 0.238684 0
M  V30 6432 H 611.704 -4.01424 2.72183 0
M  V30 6433 H 607.583 -4.34481 1.54102 0
M  V30 6434 H 611.127 -4.92073 4.9448 0
M  V30 6435 H 607.024 -5.25044 3.75498 0
M  V30 6436 H 607.792 -5.82551 5.74957 0
M  V30 6437 N 610.455 -0.639598 -1.44038 0
M  V30 6438 C 611.701 -0.156248 -2.02799 0
M  V30 6439 C 612.056 1.21145 -1.49471 0
M  V30 6440 O 611.349 1.79406 -0.672608 0
M  V30 6441 C 611.543 -0.0925348 -3.5728 0
M  V30 6442 C 611.372 -1.45252 -4.25596 0
M  V30 6443 C 610.142 -2.04145 -4.62226 0
M  V30 6444 C 612.34 -2.38812 -4.55492 0
M  V30 6445 N 610.322 -3.3329 -5.15549 0
M  V30 6446 C 611.693 -3.52578 -5.09989 0
M  V30 6447 C 613.748 -2.37785 -4.3745 0
M  V30 6448 C 612.451 -4.65525 -5.48342 0
M  V30 6449 C 614.477 -3.49802 -4.76857 0
M  V30 6450 C 613.839 -4.62292 -5.31475 0
M  V30 6451 H 609.938 -0.101292 -0.775412 0
M  V30 6452 H 612.522 -0.844938 -1.75411 0
M  V30 6453 H 610.693 0.565459 -3.84262 0
M  V30 6454 H 612.425 0.400426 -4.02714 0
M  V30 6455 H 609.18 -1.56999 -4.4682 0
M  V30 6456 H 609.604 -3.9934 -5.46678 0
M  V30 6457 H 614.246 -1.52061 -3.94509 0
M  V30 6458 H 611.964 -5.51951 -5.90233 0
M  V30 6459 H 615.55 -3.50193 -4.64603 0
M  V30 6460 H 614.43 -5.47536 -5.61403 0
M  V30 6461 N 611.933 1.52934 -0.380664 0
M  V30 6462 C 613.18 2.01467 0.204278 0
M  V30 6463 C 613.508 1.26744 1.47533 0
M  V30 6464 O 612.763 0.353723 1.92477 0
M  V30 6465 C 613.062 3.5349 0.527199 0
M  V30 6466 C 612.728 4.46171 -0.651295 0
M  V30 6467 C 611.39 4.71227 -0.974619 0
M  V30 6468 C 613.742 5.00909 -1.44012 0
M  V30 6469 C 611.07 5.4827 -2.08847 0
M  V30 6470 C 613.422 5.7917 -2.5445 0
M  V30 6471 C 612.086 6.02507 -2.87301 0
M  V30 6472 H 611.356 0.73722 0.0747504 0
M  V30 6473 H 614.003 1.84411 -0.516234 0
M  V30 6474 H 612.308 3.68574 1.32892 0
M  V30 6475 H 614.005 3.88529 0.992283 0
M  V30 6476 H 610.595 4.26829 -0.389276 0
M  V30 6477 H 614.779 4.81485 -1.20357 0
M  V30 6478 H 610.035 5.64567 -2.34679 0
M  V30 6479 H 614.209 6.20588 -3.1598 0
M  V30 6480 H 611.836 6.61989 -3.7373 0
M  V30 6481 N 613.412 0.11024 1.57214 0
M  V30 6482 C 614.823 -0.416527 1.81994 0
M  V30 6483 C 615.174 -1.67183 1.02686 0
M  V30 6484 O 614.299 -2.14823 0.260782 0
M  V30 6485 C 614.894 -0.762466 3.30109 0
M  V30 6486 C 613.453 -1.23391 3.556 0
M  V30 6487 C 612.6 -0.238166 2.76275 0
M  V30 6488 H 615.551 0.335491 1.55113 0
M  V30 6489 H 615.572 -1.62068 3.44259 0
M  V30 6490 H 615.084 0.151346 3.87805 0
M  V30 6491 H 613.185 -2.16492 3.03253 0
M  V30 6492 H 613.298 -1.18528 4.64207 0
M  V30 6493 H 611.662 -0.723421 2.4421 0
M  V30 6494 H 612.445 0.668591 3.36727 0
M  V30 6495 N 614.89 -1.56749 -0.16351 0
M  V30 6496 C 616.301 -1.72039 -0.725216 0
M  V30 6497 C 616.652 -0.72202 -1.82432 0
M  V30 6498 O 615.777 0.114942 -2.16095 0
M  V30 6499 C 616.372 -3.11932 -1.32227 0
M  V30 6500 C 614.931 -3.28879 -1.83072 0
M  V30 6501 C 614.078 -2.67984 -0.712716 0
M  V30 6502 H 617.029 -1.58579 0.0619772 0
M  V30 6503 H 617.05 -3.11015 -2.19202 0
M  V30 6504 H 616.562 -3.84572 -0.522103 0
M  V30 6505 H 614.663 -2.61209 -2.65708 0
M  V30 6506 H 614.776 -4.36688 -1.97079 0
M  V30 6507 H 613.14 -2.28005 -1.13515 0
M  V30 6508 H 613.923 -3.43216 0.0757361 0
M  V30 6509 N 616.368 0.432326 -1.51554 0
M  V30 6510 C 617.779 1.01202 -1.56892 0
M  V30 6511 C 618.13 1.92175 -0.395394 0
M  V30 6512 O 617.255 2.10844 0.487198 0
M  V30 6513 C 617.85 1.84217 -2.8434 0
M  V30 6514 C 616.409 2.37228 -2.92233 0
M  V30 6515 C 615.556 1.16576 -2.51606 0
M  V30 6516 H 618.507 0.213407 -1.57259 0
M  V30 6517 H 618.528 2.69721 -2.68385 0
M  V30 6518 H 618.04 1.17979 -3.69733 0
M  V30 6519 H 616.141 3.06905 -2.11282 0
M  V30 6520 H 616.254 2.69682 -3.95991 0
M  V30 6521 H 614.618 1.51263 -2.04919 0
M  V30 6522 H 615.401 0.519404 -3.39348 0
M  V30 6523 N 617.846 1.41785 0.688094 0
M  V30 6524 C 619.071 1.45117 1.48175 0
M  V30 6525 C 619.496 0.060129 1.88004 0
M  V30 6526 O 618.854 -0.938385 1.55126 0
M  V30 6527 C 618.902 2.37224 2.71583 0
M  V30 6528 O 618.006 1.83443 3.69354 0
M  V30 6529 H 617.347 0.492208 0.445676 0
M  V30 6530 H 619.877 1.86329 0.845145 0
M  V30 6531 H 619.887 2.53353 3.19806 0
M  V30 6532 H 618.562 3.38293 2.41931 0
M  V30 6533 H 617.139 1.76802 3.28322 0
M  V30 6534 N 619.324 -0.923095 1.27737 0
M  V30 6535 C 620.256 -2.02871 1.06658 0
M  V30 6536 C 621.269 -1.62786 0.0212095 0
M  V30 6537 O 622.458 -1.76548 0.263267 0
M  V30 6538 C 619.558 -3.33603 0.59682 0
M  V30 6539 C 618.731 -4.02354 1.71551 0
M  V30 6540 C 617.79 -5.11364 1.24071 0
M  V30 6541 O 616.816 -5.35075 1.94123 0
M  V30 6542 N 618.018 -5.80416 0.0988444 0
M  V30 6543 H 620.783 -2.21515 2.01869 0
M  V30 6544 H 618.344 -1.09378 1.19365 0
M  V30 6545 H 620.336 -4.03845 0.262984 0
M  V30 6546 H 618.906 -3.11499 -0.262187 0
M  V30 6547 H 618.126 -3.25786 2.2194 0
M  V30 6548 H 619.414 -4.45035 2.46619 0
M  V30 6549 H 618.812 -5.63611 -0.485743 0
M  V30 6550 H 617.369 -6.51563 -0.17578 0
M  V30 6551 N 620.802 -1.09834 -1.13024 0
M  V30 6552 C 622.032 -0.857657 -1.87957 0
M  V30 6553 C 622.44 0.595008 -1.796 0
M  V30 6554 O 621.783 1.42158 -1.16347 0
M  V30 6555 C 621.845 -1.21949 -3.38185 0
M  V30 6556 C 621.509 -2.67791 -3.7032 0
M  V30 6557 C 622.506 -3.66036 -3.69207 0
M  V30 6558 C 620.191 -3.04019 -3.99847 0
M  V30 6559 C 622.185 -4.98533 -3.9717 0
M  V30 6560 C 619.872 -4.36706 -4.27471 0
M  V30 6561 C 620.87 -5.33772 -4.26118 0
M  V30 6562 O 620.558 -6.64072 -4.53061 0
M  V30 6563 H 620.29 -0.308009 -0.601753 0
M  V30 6564 H 622.844 -1.46496 -1.43973 0
M  V30 6565 H 621.074 -0.555249 -3.82693 0
M  V30 6566 H 622.763 -0.957281 -3.9445 0
M  V30 6567 H 623.529 -3.39392 -3.46465 0
M  V30 6568 H 619.408 -2.29096 -4.00045 0
M  V30 6569 H 622.952 -5.74288 -3.96029 0
M  V30 6570 H 618.849 -4.63091 -4.49685 0
M  V30 6571 H 619.617 -6.69608 -4.7071 0
M  V30 6572 N 622.28 1.30327 -0.886154 0
M  V30 6573 C 623.228 2.30052 -0.343317 0
M  V30 6574 C 624.222 1.60212 0.550305 0
M  V30 6575 O 625.428 1.74674 0.434609 0
M  V30 6576 H 621.803 0.746306 -0.0923681 0
M  V30 6577 H 623.774 2.73294 -1.19804 0
M  V30 6578 C 622.523 3.45079 0.426107 0
M  V30 6579 H 621.846 3.99003 -0.25227 0
M  V30 6580 H 623.286 4.16931 0.771009 0
M  V30 6581 C 621.745 2.95195 1.62363 0
M  V30 6582 O 622.275 2.95323 2.723 0
M  V30 6583 N 620.481 2.51192 1.4612 0
M  V30 6584 H 620.028 2.51286 0.566832 0
M  V30 6585 H 619.986 2.18173 2.2638 0
M  V30 6586 N 623.758 0.647228 1.43697 0
M  V30 6587 C 625.004 0.158422 2.0218 0
M  V30 6588 C 625.337 -1.22233 1.50907 0
M  V30 6589 O 624.612 -1.81478 0.699702 0
M  V30 6590 C 624.895 0.1627 3.59732 0
M  V30 6591 C 624.748 1.57694 4.21251 0
M  V30 6592 C 626.067 -0.504138 4.37203 0
M  V30 6593 H 623.186 0.059042 0.734631 0
M  V30 6594 H 625.828 0.826772 1.71069 0
M  V30 6595 H 623.978 -0.406414 3.86368 0
M  V30 6596 H 625.65 2.19618 4.05667 0
M  V30 6597 H 623.893 2.12603 3.7813 0
M  V30 6598 H 624.564 1.53183 5.3032 0
M  V30 6599 H 627.04 -0.0199841 4.16095 0
M  V30 6600 H 625.916 -0.470394 5.46881 0
M  V30 6601 H 626.177 -1.57726 4.13007 0
M  V30 6602 N 625.236 -1.5273 0.388769 0
M  V30 6603 C 626.461 -2.0647 -0.19621 0
M  V30 6604 C 626.886 -1.25865 -1.39784 0
M  V30 6605 O 626.244 -0.283562 -1.79069 0
M  V30 6606 C 626.292 -3.56456 -0.5451 0
M  V30 6607 O 625.396 -3.78426 -1.63912 0
M  V30 6608 H 624.737 -0.663599 -0.023067 0
M  V30 6609 H 627.267 -1.96898 0.556084 0
M  V30 6610 H 627.277 -3.99888 -0.809557 0
M  V30 6611 H 625.952 -4.14561 0.333417 0
M  V30 6612 H 624.529 -3.46884 -1.36842 0
M  V30 6613 N 626.714 -0.118576 -1.57153 0
M  V30 6614 C 627.624 0.845484 -2.18835 0
M  V30 6615 C 628.64 1.29299 -1.16438 0
M  V30 6616 O 629.816 1.35607 -1.48905 0
M  V30 6617 C 626.881 2.07795 -2.77529 0
M  V30 6618 C 625.942 1.6824 -3.9496 0
M  V30 6619 C 625.175 2.85612 -4.50845 0
M  V30 6620 O 625.398 4.01025 -4.05629 0
M  V30 6621 O 624.332 2.62721 -5.41536 0
M  V30 6622 H 628.158 0.350568 -3.0167 0
M  V30 6623 H 625.743 0.107013 -1.49016 0
M  V30 6624 H 627.625 2.79978 -3.14945 0
M  V30 6625 H 626.3 2.56294 -1.97725 0
M  V30 6626 H 625.207 0.931663 -3.62313 0
M  V30 6627 H 626.54 1.24484 -4.76198 0
M  V30 6628 N 628.193 1.56834 0.155195 0
M  V30 6629 C 629.442 1.82088 0.867567 0
M  V30 6630 C 629.755 0.69849 1.82703 0
M  V30 6631 O 630.961 0.836407 2.58295 0
M  V30 6632 C 629.417 3.22707 1.59336 0
M  V30 6633 C 629.025 4.42859 0.676719 0
M  V30 6634 C 630.769 3.57242 2.293 0
M  V30 6635 C 628.676 5.74501 1.40367 0
M  V30 6636 H 627.606 0.679057 0.327715 0
M  V30 6637 H 630.257 1.83105 0.120351 0
M  V30 6638 H 628.639 3.16054 2.38591 0
M  V30 6639 H 629.813 4.60731 -0.0800196 0
M  V30 6640 H 628.128 4.16311 0.0859129 0
M  V30 6641 H 630.725 4.52847 2.84312 0
M  V30 6642 H 631.068 2.82901 3.05406 0
M  V30 6643 H 631.601 3.6552 1.56972 0
M  V30 6644 H 628.34 6.51915 0.684623 0
M  V30 6645 H 627.86 5.60579 2.13332 0
M  V30 6646 H 629.539 6.17016 1.94681 0
M  V30 6647 N 629.671 -0.424282 1.51781 0
M  V30 6648 C 631.082 -1.00368 1.57427 0
M  V30 6649 C 631.433 -1.91962 0.40558 0
M  V30 6650 O 630.558 -2.111 -0.47601 0
M  V30 6651 C 631.153 -1.82707 2.85313 0
M  V30 6652 C 629.712 -2.35675 2.93487 0
M  V30 6653 C 628.859 -1.1524 2.5222 0
M  V30 6654 H 631.81 -0.205064 1.5737 0
M  V30 6655 H 631.831 -2.68294 2.69812 0
M  V30 6656 H 631.343 -1.16017 3.70353 0
M  V30 6657 H 629.444 -3.05781 2.12906 0
M  V30 6658 H 629.557 -2.67578 3.97415 0
M  V30 6659 H 627.921 -1.50174 2.05718 0
M  V30 6660 H 628.704 -0.5014 3.39619 0
M  V30 6661 N 631.149 -1.42148 -0.680565 0
M  V30 6662 C 632.374 -1.45901 -1.47403 0
M  V30 6663 C 632.799 -0.0700985 -1.87969 0
M  V30 6664 O 632.157 0.930145 -1.55621 0
M  V30 6665 C 632.205 -2.38661 -2.70321 0
M  V30 6666 O 631.309 -1.85399 -3.68376 0
M  V30 6667 H 630.65 -0.494565 -0.443059 0
M  V30 6668 H 633.18 -1.86774 -0.835251 0
M  V30 6669 H 633.19 -2.55046 -3.18458 0
M  V30 6670 H 631.865 -3.39571 -2.40134 0
M  V30 6671 H 630.442 -1.78541 -3.2738 0
M  V30 6672 N 632.627 0.916307 -1.28225 0
M  V30 6673 C 633.852 1.7043 -1.18188 0
M  V30 6674 C 634.277 1.86346 0.256274 0
M  V30 6675 O 633.635 1.37175 1.18544 0
M  V30 6676 C 633.683 3.07546 -1.88275 0
M  V30 6677 O 632.787 3.94904 -1.18848 0
M  V30 6678 H 632.128 0.521967 -0.410423 0
M  V30 6679 H 634.658 1.14589 -1.69501 0
M  V30 6680 H 634.668 3.57793 -1.96082 0
M  V30 6681 H 633.343 2.95279 -2.92887 0
M  V30 6682 H 631.92 3.53339 -1.19187 0
M  V30 6683 N 634.105 1.10431 1.1244 0
M  V30 6684 C 635.382 0.758797 1.80282 0
M  V30 6685 C 635.762 -0.754727 1.97147 0
M  V30 6686 O 635.11 -1.68094 1.54779 0
M  V30 6687 C 635.32 1.50982 3.14651 0
M  V30 6688 C 636.668 1.68232 3.8985 0
M  V30 6689 O 637.692 1.47319 3.24308 0
M  V30 6690 O 636.551 2.02905 5.07437 0
M  V30 6691 H 633.645 0.273756 0.780376 0
M  V30 6692 H 636.191 1.20713 1.19275 0
M  V30 6693 H 634.963 2.53989 2.97666 0
M  V30 6694 H 634.586 1.05435 3.83366 0
M  V30 6695 N 635.583 -1.29855 0.893053 0
M  V30 6696 C 636.994 -1.77946 0.564998 0
M  V30 6697 C 637.345 -1.73339 -0.919134 0
M  V30 6698 O 636.47 -1.3152 -1.71847 0
M  V30 6699 C 637.065 -3.23118 1.01883 0
M  V30 6700 C 635.624 -3.69013 0.742051 0
M  V30 6701 C 634.771 -2.50121 1.19727 0
M  V30 6702 H 637.722 -1.16611 1.07646 0
M  V30 6703 H 637.743 -3.78875 0.351249 0
M  V30 6704 H 637.255 -3.26439 2.09903 0
M  V30 6705 H 635.356 -3.71173 -0.325816 0
M  V30 6706 H 635.469 -4.60117 1.33527 0
M  V30 6707 H 633.833 -2.47128 0.616418 0
M  V30 6708 H 634.616 -2.56174 2.28538 0
M  V30 6709 N 637.061 -0.65484 -1.43351 0
M  V30 6710 C 638.472 -0.248506 -1.85039 0
M  V30 6711 C 638.823 1.20526 -1.54816 0
M  V30 6712 O 637.948 1.92016 -0.99794 0
M  V30 6713 C 638.543 -0.444241 -3.35875 0
M  V30 6714 C 637.102 -0.0922108 -3.76287 0
M  V30 6715 C 636.249 -0.746327 -2.67068 0
M  V30 6716 H 639.2 -0.8584 -1.33481 0
M  V30 6717 H 639.221 0.309762 -3.79237 0
M  V30 6718 H 638.733 -1.50239 -3.5784 0
M  V30 6719 H 636.834 0.96328 -3.59933 0
M  V30 6720 H 636.947 -0.518807 -4.76283 0
M  V30 6721 H 635.311 -0.179416 -2.54067 0
M  V30 6722 H 636.094 -1.80754 -2.91861 0
M  V30 6723 N 638.539 1.52521 -0.396863 0
M  V30 6724 C 639.767 2.06091 0.18275 0
M  V30 6725 C 640.182 1.26796 1.39886 0
M  V30 6726 O 639.539 0.316585 1.79733 0
M  V30 6727 C 639.59 3.57362 0.545377 0
M  V30 6728 O 639.311 4.33656 -0.622428 0
M  V30 6729 C 640.812 4.27305 1.18004 0
M  V30 6730 H 638.032 0.670504 0.025789 0
M  V30 6731 H 640.576 1.96561 -0.564276 0
M  V30 6732 H 638.731 3.66941 1.2423 0
M  V30 6733 H 639.145 5.23507 -0.322662 0
M  V30 6734 H 640.619 5.34366 1.38408 0
M  V30 6735 H 641.096 3.83 2.1496 0
M  V30 6736 H 641.702 4.22064 0.523671 0
M  V30 6737 N 640.017 0.126909 1.57088 0
M  V30 6738 C 640.964 -0.82036 2.15728 0
M  V30 6739 C 641.934 -1.25811 1.08447 0
M  V30 6740 O 643.119 -1.33422 1.36393 0
M  V30 6741 C 640.259 -2.06199 2.76724 0
M  V30 6742 C 639.372 -1.67188 3.98337 0
M  V30 6743 C 638.507 -2.86378 4.47393 0
M  V30 6744 C 637.546 -2.43644 5.61519 0
M  V30 6745 N 636.683 -3.55775 6.05284 0
M  V30 6746 H 641.523 -0.313472 2.96347 0
M  V30 6747 H 639.06 -0.14303 1.46403 0
M  V30 6748 H 641.018 -2.78959 3.10222 0
M  V30 6749 H 639.648 -2.54333 1.98782 0
M  V30 6750 H 638.7 -0.842714 3.70948 0
M  V30 6751 H 640.012 -1.31789 4.81075 0
M  V30 6752 H 639.166 -3.67353 4.82842 0
M  V30 6753 H 637.905 -3.25009 3.63621 0
M  V30 6754 H 636.91 -1.61104 5.25667 0
M  V30 6755 H 638.135 -2.06122 6.47063 0
M  V30 6756 H 636.081 -3.94065 5.24451 0
M  V30 6757 H 635.998 -3.24325 6.82898 0
M  V30 6758 H 637.266 -4.37166 6.45373 0
M  V30 6759 N 641.495 -1.56914 -0.146875 0
M  V30 6760 C 642.723 -1.87515 -0.874394 0
M  V30 6761 C 643.138 -0.715116 -1.74733 0
M  V30 6762 O 642.495 0.315113 -1.79759 0
M  V30 6763 C 642.546 -3.17362 -1.731 0
M  V30 6764 O 642.267 -4.28897 -0.893245 0
M  V30 6765 C 643.768 -3.61479 -2.56609 0
M  V30 6766 H 640.988 -0.621546 -0.252827 0
M  V30 6767 H 643.532 -2.04023 -0.139627 0
M  V30 6768 H 641.687 -3.02608 -2.41883 0
M  V30 6769 H 642.101 -5.03146 -1.48137 0
M  V30 6770 H 643.575 -4.5517 -3.12289 0
M  V30 6771 H 644.052 -2.86773 -3.32653 0
M  V30 6772 H 644.658 -3.78927 -1.93117 0
M  V30 6773 N 642.974 0.416227 -1.52004 0
M  V30 6774 C 643.904 1.51365 -1.77795 0
M  V30 6775 C 644.885 1.58059 -0.628601 0
M  V30 6776 O 646.07 1.73447 -0.873478 0
M  V30 6777 C 643.2 2.89256 -1.92219 0
M  V30 6778 C 642.154 2.97415 -3.0778 0
M  V30 6779 C 641.48 4.37492 -3.07417 0
M  V30 6780 C 642.78 2.69551 -4.47369 0
M  V30 6781 H 644.474 1.30033 -2.69688 0
M  V30 6782 H 642.02 0.624112 -1.29772 0
M  V30 6783 H 643.973 3.66008 -2.08845 0
M  V30 6784 H 642.697 3.11866 -0.969917 0
M  V30 6785 H 641.356 2.23107 -2.90893 0
M  V30 6786 H 641.004 4.571 -2.09925 0
M  V30 6787 H 640.704 4.43877 -3.85029 0
M  V30 6788 H 642.228 5.16188 -3.26162 0
M  V30 6789 H 643.642 3.36028 -4.64497 0
M  V30 6790 H 642.039 2.87321 -5.26846 0
M  V30 6791 H 643.109 1.65029 -4.55953 0
M  V30 6792 N 644.452 1.42507 0.673017 0
M  V30 6793 C 645.698 1.44282 1.43367 0
M  V30 6794 C 646.053 0.0588239 1.9231 0
M  V30 6795 O 645.346 -0.919288 1.68106 0
M  V30 6796 C 645.54 2.40351 2.64511 0
M  V30 6797 C 645.369 3.87955 2.27423 0
M  V30 6798 C 644.139 4.56476 2.16697 0
M  V30 6799 C 646.337 4.7833 1.88957 0
M  V30 6800 N 644.319 5.89099 1.72731 0
M  V30 6801 C 645.69 6.00073 1.55923 0
M  V30 6802 C 647.745 4.65769 1.75965 0
M  V30 6803 C 646.448 7.10652 1.112 0
M  V30 6804 C 648.474 5.76332 1.32647 0
M  V30 6805 C 647.836 6.97188 1.00538 0
M  V30 6806 H 643.935 0.583134 0.521036 0
M  V30 6807 H 646.519 1.78547 0.776481 0
M  V30 6808 H 644.69 2.08145 3.27918 0
M  V30 6809 H 646.422 2.32694 3.31113 0
M  V30 6810 H 643.177 4.10712 2.35823 0
M  V30 6811 H 643.601 6.59446 1.53166 0
M  V30 6812 H 648.243 3.72808 1.99435 0
M  V30 6813 H 645.961 8.0346 0.864768 0
M  V30 6814 H 649.547 5.68625 1.23112 0
M  V30 6815 H 648.427 7.81287 0.675283 0
M  V30 6816 N 645.93 -0.909495 1.28709 0
M  V30 6817 C 646.86 -2.0291 1.15542 0
M  V30 6818 C 647.841 -1.7002 0.0521017 0
M  V30 6819 O 649.026 -1.92835 0.229849 0
M  V30 6820 C 646.156 -3.37458 0.820935 0
M  V30 6821 C 645.11 -3.84524 1.87949 0
M  V30 6822 C 644.436 -5.16086 1.39854 0
M  V30 6823 C 645.736 -4.05918 3.28676 0
M  V30 6824 H 647.43 -2.14183 2.09203 0
M  V30 6825 H 644.976 -1.02913 1.00722 0
M  V30 6826 H 646.929 -4.1528 0.715571 0
M  V30 6827 H 645.653 -3.26249 -0.151374 0
M  V30 6828 H 644.312 -3.08911 1.97408 0
M  V30 6829 H 643.96 -5.01284 0.41518 0
M  V30 6830 H 643.66 -5.48547 2.1064 0
M  V30 6831 H 645.184 -5.96459 1.30649 0
M  V30 6832 H 646.598 -4.74252 3.22115 0
M  V30 6833 H 644.995 -4.49717 3.97334 0
M  V30 6834 H 646.065 -3.10583 3.72379 0
M  V30 6835 N 647.408 -1.11026 -1.11852 0
M  V30 6836 C 648.655 -0.85646 -1.83497 0
M  V30 6837 C 648.983 0.617938 -1.84423 0
M  V30 6838 O 648.238 1.47194 -1.28966 0
M  V30 6839 C 648.537 -1.35777 -3.30604 0
M  V30 6840 C 648.203 -2.84465 -3.49843 0
M  V30 6841 C 646.865 -3.25068 -3.54802 0
M  V30 6842 C 649.217 -3.80251 -3.56453 0
M  V30 6843 C 646.545 -4.60194 -3.63921 0
M  V30 6844 C 648.897 -5.15188 -3.67102 0
M  V30 6845 C 647.561 -5.55356 -3.70319 0
M  V30 6846 H 646.831 -0.313401 -0.671462 0
M  V30 6847 H 649.478 -1.38792 -1.31943 0
M  V30 6848 H 647.783 -0.746455 -3.84624 0
M  V30 6849 H 649.48 -1.13779 -3.8452 0
M  V30 6850 H 646.07 -2.52054 -3.46651 0
M  V30 6851 H 650.254 -3.49986 -3.51886 0
M  V30 6852 H 645.51 -4.90728 -3.64686 0
M  V30 6853 H 649.684 -5.89248 -3.71159 0
M  V30 6854 H 647.311 -6.60054 -3.77138 0
M  V30 6855 N 648.886 1.2938 -0.899927 0
M  V30 6856 C 650.163 1.9046 -0.445443 0
M  V30 6857 C 650.543 1.81683 1.07492 0
M  V30 6858 O 649.891 1.24371 1.91688 0
M  V30 6859 C 650.101 3.35529 -0.960279 0
M  V30 6860 C 651.449 4.12556 -1.00412 0
M  V30 6861 O 652.473 3.44434 -0.907965 0
M  V30 6862 O 651.332 5.34294 -1.14857 0
M  V30 6863 H 648.426 0.815253 -0.138893 0
M  V30 6864 H 650.972 1.37844 -0.989808 0
M  V30 6865 H 649.744 3.36074 -2.00425 0
M  V30 6866 H 649.367 3.95624 -0.395939 0
M  V30 6867 N 650.364 0.662433 1.43002 0
M  V30 6868 C 651.613 0.176873 2.00923 0
M  V30 6869 C 651.926 -1.21954 1.52927 0
M  V30 6870 O 653.132 -1.80081 2.03182 0
M  V30 6871 C 651.588 0.265379 3.5892 0
M  V30 6872 C 651.196 1.66507 4.15908 0
M  V30 6873 C 652.94 -0.162103 4.2419 0
M  V30 6874 C 650.847 1.707 5.66229 0
M  V30 6875 H 649.777 0.0623627 0.751417 0
M  V30 6876 H 652.428 0.825813 1.63868 0
M  V30 6877 H 650.81 -0.451235 3.93421 0
M  V30 6878 H 651.984 2.40777 3.92891 0
M  V30 6879 H 650.299 2.03932 3.63044 0
M  V30 6880 H 652.896 -0.150745 5.34487 0
M  V30 6881 H 653.239 -1.19519 3.98774 0
M  V30 6882 H 653.772 0.503075 3.94606 0
M  V30 6883 H 650.511 2.7195 5.96426 0
M  V30 6884 H 650.031 1.00768 5.91275 0
M  V30 6885 H 651.71 1.45487 6.3043 0
M  V30 6886 N 651.842 -1.52309 0.404946 0
M  V30 6887 C 653.119 -1.94237 -0.230544 0
M  V30 6888 C 653.499 -1.34154 -1.6299 0
M  V30 6889 O 652.847 -0.515713 -2.22604 0
M  V30 6890 C 653.057 -3.48166 -0.241106 0
M  V30 6891 C 654.405 -4.22074 -0.462488 0
M  V30 6892 O 655.429 -3.54754 -0.320644 0
M  V30 6893 O 654.288 -5.41443 -0.741708 0
M  V30 6894 H 651.382 -0.813766 -0.147358 0
M  V30 6895 H 653.928 -1.6333 0.460587 0
M  V30 6896 H 652.7 -3.84269 0.738467 0
M  V30 6897 H 652.323 -3.85422 -0.97651 0
M  V30 6898 N 653.32 -0.135238 -1.57019 0
M  V30 6899 C 654.736 0.221262 -1.58059 0
M  V30 6900 C 654.936 1.65538 -1.14889 0
M  V30 6901 O 653.992 2.37985 -0.843751 0
M  V30 6902 C 655.305 -0.0268114 -3.00688 0
M  V30 6903 C 656.853 0.0378206 -3.12977 0
M  V30 6904 C 657.328 -0.182769 -4.57635 0
M  V30 6905 N 658.819 -0.129292 -4.6302 0
M  V30 6906 C 659.554 -0.274648 -5.72742 0
M  V30 6907 N 659.05 -0.477075 -6.91155 0
M  V30 6908 N 660.843 -0.213077 -5.61696 0
M  V30 6909 H 652.994 -1.07177 -1.83376 0
M  V30 6910 H 655.257 -0.423338 -0.848227 0
M  V30 6911 H 654.963 -1.01889 -3.36618 0
M  V30 6912 H 654.837 0.697863 -3.70688 0
M  V30 6913 H 657.224 1.02043 -2.76896 0
M  V30 6914 H 657.305 -0.718996 -2.45487 0
M  V30 6915 H 656.949 -1.16243 -4.94419 0
M  V30 6916 H 656.879 0.59423 -5.23237 0
M  V30 6917 H 659.37 0.0229896 -3.77893 0
M  V30 6918 H 659.683 -0.578413 -7.70632 0
M  V30 6919 H 658.028 -0.513252 -6.93102 0
M  V30 6920 H 661.219 -0.0557796 -4.68067 0
M  V30 6921 H 661.392 -0.329796 -6.4716 0
M  V30 6922 N 654.798 1.5699 0.138552 0
M  V30 6923 C 656.075 1.74741 0.87891 0
M  V30 6924 C 656.455 0.705522 1.98961 0
M  V30 6925 O 655.803 -0.274066 2.2685 0
M  V30 6926 C 656.013 3.1909 1.4136 0
M  V30 6927 C 657.361 3.81023 1.87368 0
M  V30 6928 O 658.385 3.22571 1.51084 0
M  V30 6929 O 657.244 4.83722 2.54312 0
M  V30 6930 H 654.338 0.714781 0.415953 0
M  V30 6931 H 656.884 1.69248 0.123817 0
M  V30 6932 H 655.656 3.86424 0.61579 0
M  V30 6933 H 655.279 3.29043 2.23196 0
M  V30 6934 N 656.276 -0.40816 1.52223 0
M  V30 6935 C 657.687 -0.986929 1.58482 0
M  V30 6936 C 658.038 -1.91521 0.425917 0
M  V30 6937 O 657.163 -2.11593 -0.453593 0
M  V30 6938 C 657.758 -1.7967 2.87235 0
M  V30 6939 C 656.317 -2.32549 2.9597 0
M  V30 6940 C 655.464 -1.12558 2.53428 0
M  V30 6941 H 658.415 -0.188362 1.57578 0
M  V30 6942 H 658.436 -2.65417 2.72642 0
M  V30 6943 H 657.948 -1.12082 3.71563 0
M  V30 6944 H 656.049 -3.03505 2.16137 0
M  V30 6945 H 656.162 -2.63348 4.00231 0
M  V30 6946 H 654.526 -1.47984 2.07299 0
M  V30 6947 H 655.309 -0.465351 3.40131 0
M  V30 6948 N 657.755 -1.42862 -0.66545 0
M  V30 6949 C 658.665 -1.49491 -1.80803 0
M  V30 6950 C 659.681 -0.382914 -1.69734 0
M  V30 6951 O 660.857 -0.635223 -1.9112 0
M  V30 6952 C 657.922 -1.40383 -3.17007 0
M  V30 6953 C 656.983 -2.62152 -3.39963 0
M  V30 6954 C 656.216 -2.53469 -4.69669 0
M  V30 6955 O 656.439 -1.57568 -5.48205 0
M  V30 6956 O 655.373 -3.43763 -4.94075 0
M  V30 6957 H 659.199 -2.45949 -1.78165 0
M  V30 6958 H 656.784 -1.24728 -0.822387 0
M  V30 6959 H 658.666 -1.377 -3.98267 0
M  V30 6960 H 657.341 -0.470546 -3.20262 0
M  V30 6961 H 656.248 -2.70409 -2.58515 0
M  V30 6962 H 657.581 -3.54411 -3.41546 0
M  V30 6963 N 659.233 0.902656 -1.29189 0
M  V30 6964 C 660.143 2.03946 -1.15944 0
M  V30 6965 C 661.159 1.738 -0.0833803 0
M  V30 6966 O 662.335 1.9923 -0.29487 0
M  V30 6967 C 659.4 3.36519 -0.834006 0
M  V30 6968 C 658.461 3.80203 -1.9936 0
M  V30 6969 C 657.694 5.06449 -1.68359 0
M  V30 6970 O 657.917 5.67202 -0.603141 0
M  V30 6971 O 656.851 5.46114 -2.53067 0
M  V30 6972 H 660.677 2.18043 -2.11403 0
M  V30 6973 H 658.262 1.02584 -1.08613 0
M  V30 6974 H 660.144 4.16089 -0.666949 0
M  V30 6975 H 658.819 3.23573 0.0908245 0
M  V30 6976 H 657.726 3.01413 -2.21588 0
M  V30 6977 H 659.059 3.97729 -2.89952 0
M  V30 6978 N 660.711 1.11618 1.11262 0
M  V30 6979 C 662.127 0.850468 1.35053 0
M  V30 6980 C 662.327 -0.523868 1.94571 0
M  V30 6981 O 661.383 -1.2743 2.17986 0
M  V30 6982 C 662.696 1.96005 2.28041 0
M  V30 6983 C 664.244 1.98993 2.416 0
M  V30 6984 C 664.719 3.0916 3.37911 0
M  V30 6985 N 666.21 3.08547 3.45475 0
M  V30 6986 C 666.945 3.9043 4.19943 0
M  V30 6987 N 666.441 4.8228 4.97371 0
M  V30 6988 N 668.234 3.786 4.15474 0
M  V30 6989 H 660.385 2.00184 0.709932 0
M  V30 6990 H 662.648 0.870635 0.375099 0
M  V30 6991 H 662.354 2.9499 1.91503 0
M  V30 6992 H 662.228 1.85782 3.28275 0
M  V30 6993 H 664.615 1.00633 2.77411 0
M  V30 6994 H 664.696 2.13292 1.4121 0
M  V30 6995 H 664.34 4.07748 3.02827 0
M  V30 6996 H 664.27 2.92102 4.3816 0
M  V30 6997 H 666.761 2.42 2.90249 0
M  V30 6998 H 667.074 5.41289 5.51567 0
M  V30 6999 H 665.419 4.863 4.96525 0
M  V30 7000 H 668.61 3.06185 3.54074 0
M  V30 7001 H 668.783 4.42647 4.73253 0
M  V30 7002 N 662.189 -1.289 0.906776 0
M  V30 7003 C 663.139 -2.25122 0.361109 0
M  V30 7004 C 664.123 -1.52169 -0.52283 0
M  V30 7005 O 665.315 -1.73223 -0.363691 0
M  V30 7006 C 662.444 -3.40915 -0.403982 0
M  V30 7007 C 661.53 -4.21198 0.495279 0
M  V30 7008 N 661.921 -4.79636 1.60572 0
M  V30 7009 C 660.219 -4.45027 0.294372 0
M  V30 7010 C 660.92 -5.39977 2.16332 0
M  V30 7011 N 659.896 -5.23753 1.45546 0
M  V30 7012 H 663.698 -2.67869 1.20927 0
M  V30 7013 H 661.212 -1.43592 0.758632 0
M  V30 7014 H 663.209 -4.08922 -0.811695 0
M  V30 7015 H 661.869 -2.99703 -1.24932 0
M  V30 7016 H 662.88 -4.78209 1.98838 0
M  V30 7017 H 659.557 -4.14348 -0.512021 0
M  V30 7018 H 660.947 -5.96266 3.09704 0
M  V30 7019 N 663.667 -0.670007 -1.42649 0
M  V30 7020 C 664.944 -0.119451 -1.95235 0
M  V30 7021 C 665.324 1.36461 -1.61064 0
M  V30 7022 O 664.672 2.09843 -0.904329 0
M  V30 7023 C 664.882 -0.383498 -3.46887 0
M  V30 7024 C 666.23 -0.297431 -4.23557 0
M  V30 7025 O 667.254 -0.31698 -3.54787 0
M  V30 7026 O 666.113 -0.235507 -5.45992 0
M  V30 7027 H 663.207 -8.85474e-05 -0.827 0
M  V30 7028 H 665.753 -0.744406 -1.52501 0
M  V30 7029 H 664.525 -1.41174 -3.64946 0
M  V30 7030 H 664.148 0.273702 -3.96657 0
M  V30 7031 N 665.145 1.52092 -0.413018 0
M  V30 7032 C 666.075 2.30021 0.401567 0
M  V30 7033 C 667.056 1.34395 1.04269 0
M  V30 7034 O 668.241 1.63304 1.05097 0
M  V30 7035 C 665.371 3.12447 1.51638 0
M  V30 7036 C 664.325 4.16153 1.00005 0
M  V30 7037 C 663.651 4.86948 2.20875 0
M  V30 7038 C 664.951 5.22275 0.0513757 0
M  V30 7039 H 666.645 2.98365 -0.248704 0
M  V30 7040 H 664.191 1.4349 -0.121052 0
M  V30 7041 H 666.144 3.65733 2.09326 0
M  V30 7042 H 664.868 2.41879 2.19458 0
M  V30 7043 H 663.527 3.63882 0.445549 0
M  V30 7044 H 663.175 4.12905 2.8726 0
M  V30 7045 H 662.875 5.57057 1.86978 0
M  V30 7046 H 664.399 5.43048 2.79162 0
M  V30 7047 H 665.813 5.70778 0.537176 0
M  V30 7048 H 664.21 5.9977 -0.198977 0
M  V30 7049 H 665.28 4.76611 -0.892736 0
M  V30 7050 N 666.623 0.143563 1.56945 0
M  V30 7051 C 667.848 -0.518701 2.00809 0
M  V30 7052 C 668.273 -1.5785 1.02298 0
M  V30 7053 O 667.631 -1.813 -0.0017839 0
M  V30 7054 C 667.679 -1.09929 3.43436 0
M  V30 7055 O 666.783 -2.21425 3.47915 0
M  V30 7056 H 666.124 -0.127215 0.6517 0
M  V30 7057 H 668.654 0.239283 2.03196 0
M  V30 7058 H 668.664 -1.4288 3.82164 0
M  V30 7059 H 667.339 -0.323162 4.14643 0
M  V30 7060 H 665.916 -1.89728 3.21026 0
M  V30 7061 N 668.101 -1.57061 -0.130224 0
M  V30 7062 C 669.517 -1.52103 -0.483413 0
M  V30 7063 C 669.717 -0.854752 -1.82473 0
M  V30 7064 O 668.773 -0.432342 -2.48771 0
M  V30 7065 C 670.086 -2.96872 -0.47825 0
M  V30 7066 C 671.634 -3.07902 -0.562592 0
M  V30 7067 C 672.109 -4.54211 -0.587929 0
M  V30 7068 N 673.6 -4.58621 -0.649684 0
M  V30 7069 C 674.335 -5.69227 -0.690551 0
M  V30 7070 N 673.831 -6.89358 -0.689743 0
M  V30 7071 N 675.624 -5.57304 -0.732708 0
M  V30 7072 H 667.775 -1.98764 0.748779 0
M  V30 7073 H 670.038 -0.907248 0.274965 0
M  V30 7074 H 669.744 -3.48944 0.439444 0
M  V30 7075 H 669.618 -3.53716 -1.31013 0
M  V30 7076 H 672.005 -2.5584 -1.47071 0
M  V30 7077 H 672.086 -2.54073 0.296764 0
M  V30 7078 H 671.73 -5.06915 0.316096 0
M  V30 7079 H 671.66 -5.0584 -1.46401 0
M  V30 7080 H 674.151 -3.72146 -0.656927 0
M  V30 7081 H 674.464 -7.69408 -0.723239 0
M  V30 7082 H 672.809 -6.91884 -0.657347 0
M  V30 7083 H 676 -4.62363 -0.730625 0
M  V30 7084 H 676.173 -6.43515 -0.76109 0
M  V30 7085 N 669.579 0.400081 -1.52437 0
M  V30 7086 C 670.489 1.51253 -1.79331 0
M  V30 7087 C 671.505 1.60188 -0.679396 0
M  V30 7088 O 672.681 1.76733 -0.965791 0
M  V30 7089 C 669.746 2.869 -1.94652 0
M  V30 7090 C 668.807 2.87777 -3.18564 0
M  V30 7091 C 668.04 4.16954 -3.33145 0
M  V30 7092 O 668.263 5.11329 -2.52783 0
M  V30 7093 O 667.197 4.2487 -4.26343 0
M  V30 7094 H 671.023 1.31461 -2.73773 0
M  V30 7095 H 668.608 0.586834 -1.37392 0
M  V30 7096 H 670.49 3.67336 -2.065 0
M  V30 7097 H 669.165 3.06741 -1.034 0
M  V30 7098 H 668.072 2.06162 -3.12167 0
M  V30 7099 H 669.405 2.72886 -4.09627 0
M  V30 7100 N 671.057 1.43213 0.657864 0
M  V30 7101 C 672.287 1.478 1.44356 0
M  V30 7102 C 672.695 0.0930206 1.88971 0
M  V30 7103 O 672.038 -0.906089 1.59799 0
M  V30 7104 C 672.1 2.35745 2.71412 0
M  V30 7105 C 671.764 3.83359 2.48767 0
M  V30 7106 C 672.761 4.74585 2.12285 0
M  V30 7107 C 670.446 4.27799 2.63235 0
M  V30 7108 C 672.44 6.08247 1.90562 0
M  V30 7109 C 670.127 5.61516 2.41128 0
M  V30 7110 C 671.125 6.51557 2.04847 0
M  V30 7111 O 670.813 7.82802 1.82967 0
M  V30 7112 H 670.545 0.504363 0.450104 0
M  V30 7113 H 673.099 1.88572 0.814241 0
M  V30 7114 H 671.329 1.89852 3.36887 0
M  V30 7115 H 673.018 2.31589 3.33348 0
M  V30 7116 H 673.784 4.41531 2.00687 0
M  V30 7117 H 669.663 3.57993 2.90451 0
M  V30 7118 H 673.207 6.78489 1.62168 0
M  V30 7119 H 669.104 5.94139 2.52327 0
M  V30 7120 H 669.872 7.94332 1.97429 0
M  V30 7121 N 672.536 -0.895792 1.29666 0
M  V30 7122 C 673.947 -1.46195 1.1612 0
M  V30 7123 C 674.298 -1.94699 -0.242195 0
M  V30 7124 O 673.423 -1.8406 -1.13802 0
M  V30 7125 C 674.018 -2.65718 2.10189 0
M  V30 7126 C 672.577 -3.18458 2.00653 0
M  V30 7127 C 671.724 -1.91149 2.00891 0
M  V30 7128 H 674.675 -0.706756 1.42094 0
M  V30 7129 H 674.696 -3.4158 1.6764 0
M  V30 7130 H 674.208 -2.30386 3.12321 0
M  V30 7131 H 672.309 -3.58474 1.01623 0
M  V30 7132 H 672.422 -3.82491 2.88509 0
M  V30 7133 H 670.786 -2.09021 1.45542 0
M  V30 7134 H 671.569 -1.58089 3.04734 0
M  V30 7135 N 674.014 -1.12206 -1.10668 0
M  V30 7136 C 674.964 -0.75669 -2.15077 0
M  V30 7137 C 675.948 0.243154 -1.59052 0
M  V30 7138 O 677.14 0.0490268 -1.76932 0
M  V30 7139 C 674.269 -0.210303 -3.42655 0
M  V30 7140 C 673.355 -1.23829 -4.05619 0
M  V30 7141 N 673.746 -2.43513 -4.43323 0
M  V30 7142 C 672.044 -1.08309 -4.32649 0
M  V30 7143 C 672.745 -3.09138 -4.92756 0
M  V30 7144 N 671.721 -2.36593 -4.89413 0
M  V30 7145 H 675.523 -1.66747 -2.42018 0
M  V30 7146 H 673.037 -1.00248 -1.27765 0
M  V30 7147 H 675.034 0.0696287 -4.16842 0
M  V30 7148 H 673.694 0.694967 -3.17176 0
M  V30 7149 H 674.705 -2.80912 -4.35097 0
M  V30 7150 H 671.382 -0.234919 -4.16839 0
M  V30 7151 H 672.772 -4.11049 -5.31496 0
M  V30 7152 N 675.492 1.28418 -0.913599 0
M  V30 7153 C 676.741 1.94265 -0.542572 0
M  V30 7154 C 677.054 1.72709 0.918207 0
M  V30 7155 O 678.26 2.32778 1.39738 0
M  V30 7156 C 676.716 3.47956 -0.919507 0
M  V30 7157 C 676.324 3.78291 -2.4 0
M  V30 7158 C 678.068 4.19962 -0.619057 0
M  V30 7159 C 675.975 5.2529 -2.71707 0
M  V30 7160 H 674.905 0.727213 -0.199192 0
M  V30 7161 H 677.556 1.45931 -1.11249 0
M  V30 7162 H 675.938 3.9502 -0.278372 0
M  V30 7163 H 677.112 3.42035 -3.08786 0
M  V30 7164 H 675.427 3.19456 -2.67089 0
M  V30 7165 H 678.024 5.28178 -0.832623 0
M  V30 7166 H 678.367 4.13935 0.443126 0
M  V30 7167 H 678.9 3.78674 -1.21865 0
M  V30 7168 H 675.639 5.36394 -3.76778 0
M  V30 7169 H 675.159 5.62743 -2.07559 0
M  V30 7170 H 676.838 5.93027 -2.58703 0
M  V30 7171 N 676.97 0.677563 1.42291 0
M  V30 7172 C 678.216 0.201272 2.01799 0
M  V30 7173 C 678.549 -1.19004 1.53465 0
M  V30 7174 O 677.824 -1.79953 0.738039 0
M  V30 7175 C 678.107 0.238968 3.59306 0
M  V30 7176 C 677.96 1.66594 4.17812 0
M  V30 7177 C 679.279 -0.411287 4.38174 0
M  V30 7178 H 676.398 0.0746114 0.733214 0
M  V30 7179 H 679.04 0.862872 1.69276 0
M  V30 7180 H 677.19 -0.324368 3.87144 0
M  V30 7181 H 678.862 2.28173 4.00917 0
M  V30 7182 H 677.105 2.20576 3.73536 0
M  V30 7183 H 677.776 1.64398 5.26951 0
M  V30 7184 H 680.252 0.0682804 4.16044 0
M  V30 7185 H 679.128 -0.354286 5.47755 0
M  V30 7186 H 679.389 -1.4893 4.1626 0
M  V30 7187 N 678.448 -1.51871 0.421078 0
M  V30 7188 C 679.676 -2.06356 -0.14994 0
M  V30 7189 C 680.091 -1.29006 -1.37851 0
M  V30 7190 O 679.448 -0.345139 -1.79207 0
M  V30 7191 C 679.499 -3.58185 -0.488454 0
M  V30 7192 O 679.22 -4.32611 0.691341 0
M  V30 7193 C 680.721 -4.29129 -1.11191 0
M  V30 7194 H 677.941 -0.67083 -0.0151186 0
M  V30 7195 H 680.485 -1.95638 0.595476 0
M  V30 7196 H 678.64 -3.68871 -1.18376 0
M  V30 7197 H 679.054 -5.22927 0.405906 0
M  V30 7198 H 680.528 -5.36501 -1.29889 0
M  V30 7199 H 681.005 -3.86371 -2.0884 0
M  V30 7200 H 681.611 -4.22843 -0.456458 0
M  V30 7201 N 679.926 -0.151884 -1.56866 0
M  V30 7202 C 680.873 0.785936 -2.17006 0
M  V30 7203 C 681.843 1.2407 -1.10435 0
M  V30 7204 O 683.028 1.31235 -1.38499 0
M  V30 7205 C 680.168 2.01771 -2.79969 0
M  V30 7206 C 679.281 1.6083 -4.00946 0
M  V30 7207 C 678.416 2.79224 -4.51893 0
M  V30 7208 C 677.455 2.3468 -5.65324 0
M  V30 7209 N 676.592 3.461 -6.10867 0
M  V30 7210 H 681.432 0.266286 -2.96808 0
M  V30 7211 H 678.969 0.11972 -1.46612 0
M  V30 7212 H 680.927 2.73989 -3.14621 0
M  V30 7213 H 679.557 2.51139 -2.02803 0
M  V30 7214 H 678.609 0.783592 -3.72242 0
M  V30 7215 H 679.921 1.24119 -4.83111 0
M  V30 7216 H 679.075 3.59625 -4.88625 0
M  V30 7217 H 677.814 3.19183 -3.68746 0
M  V30 7218 H 676.819 1.52721 -5.28163 0
M  V30 7219 H 678.044 1.95801 -6.5026 0
M  V30 7220 H 675.99 3.85671 -5.30654 0
M  V30 7221 H 675.907 3.1342 -6.87971 0
M  V30 7222 H 677.175 4.26844 -6.52246 0
M  V30 7223 N 681.404 1.57128 0.121893 0
M  V30 7224 C 682.334 2.03165 1.15092 0
M  V30 7225 C 683.315 0.915587 1.43356 0
M  V30 7226 O 684.5 1.1851 1.53847 0
M  V30 7227 C 681.63 2.43352 2.47784 0
M  V30 7228 C 680.584 3.58376 2.33989 0
M  V30 7229 C 679.91 3.84454 3.71617 0
M  V30 7230 C 681.21 4.90199 1.80283 0
M  V30 7231 H 682.904 2.89382 0.768023 0
M  V30 7232 H 680.45 1.39218 0.367998 0
M  V30 7233 H 682.403 2.74163 3.20019 0
M  V30 7234 H 681.127 1.54103 2.87958 0
M  V30 7235 H 679.786 3.2777 1.64202 0
M  V30 7236 H 679.434 2.92414 4.09271 0
M  V30 7237 H 679.134 4.61877 3.6324 0
M  V30 7238 H 680.658 4.17714 4.45362 0
M  V30 7239 H 682.072 5.19565 2.42333 0
M  V30 7240 H 680.469 5.71601 1.82735 0
M  V30 7241 H 681.539 4.78904 0.760184 0
M  V30 7242 N 682.882 -0.391992 1.52647 0
M  V30 7243 C 683.812 -1.48517 1.8018 0
M  V30 7244 C 684.793 -1.57039 0.653667 0
M  V30 7245 O 685.978 -1.72036 0.900962 0
M  V30 7246 C 683.108 -2.86161 1.96797 0
M  V30 7247 C 682.062 -2.92481 3.12472 0
M  V30 7248 C 681.388 -4.32546 3.14338 0
M  V30 7249 C 682.688 -2.624 4.51601 0
M  V30 7250 H 684.382 -1.25726 2.71723 0
M  V30 7251 H 681.928 -0.603387 1.30749 0
M  V30 7252 H 683.881 -3.62639 2.14641 0
M  V30 7253 H 682.605 -3.10283 1.01941 0
M  V30 7254 H 681.264 -2.18451 2.94406 0
M  V30 7255 H 680.912 -4.53703 2.1717 0
M  V30 7256 H 680.612 -4.37695 3.92042 0
M  V30 7257 H 682.136 -5.10934 3.34333 0
M  V30 7258 H 683.55 -3.28596 4.69785 0
M  V30 7259 H 681.947 -2.78903 5.3135 0
M  V30 7260 H 683.017 -1.57754 4.58521 0
M  V30 7261 N 684.36 -1.4356 -0.65026 0
M  V30 7262 C 685.585 -1.48995 -1.44275 0
M  V30 7263 C 686.01 -0.109954 -1.87778 0
M  V30 7264 O 685.368 0.896926 -1.57559 0
M  V30 7265 C 685.416 -2.44341 -2.65198 0
M  V30 7266 O 684.52 -1.93172 -3.6436 0
M  V30 7267 H 683.861 -0.503852 -0.432469 0
M  V30 7268 H 686.391 -1.88504 -0.795446 0
M  V30 7269 H 686.401 -2.61743 -3.12977 0
M  V30 7270 H 685.076 -3.44588 -2.32877 0
M  V30 7271 H 683.653 -1.85445 -3.23519 0
M  V30 7272 N 685.838 0.888903 -1.30139 0
M  V30 7273 C 687.254 1.17153 -1.08385 0
M  V30 7274 C 687.454 2.0088 0.157925 0
M  V30 7275 O 686.51 2.37668 0.852652 0
M  V30 7276 C 687.823 1.882 -2.34523 0
M  V30 7277 C 689.371 2.00981 -2.39949 0
M  V30 7278 C 689.846 2.75441 -3.65918 0
M  V30 7279 N 691.337 2.82989 -3.66704 0
M  V30 7280 C 692.072 3.41167 -4.60861 0
M  V30 7281 N 691.568 4.00425 -5.6536 0
M  V30 7282 N 693.361 3.38944 -4.48412 0
M  V30 7283 H 685.512 0.33053 -2.09812 0
M  V30 7284 H 687.775 0.208964 -0.924683 0
M  V30 7285 H 687.481 1.34119 -3.25123 0
M  V30 7286 H 687.355 2.88609 -2.42868 0
M  V30 7287 H 689.742 2.54234 -1.4983 0
M  V30 7288 H 689.823 0.996725 -2.35582 0
M  V30 7289 H 689.467 2.22861 -4.56394 0
M  V30 7290 H 689.397 3.77118 -3.67546 0
M  V30 7291 H 691.888 2.40912 -2.91153 0
M  V30 7292 H 692.201 4.42871 -6.33313 0
M  V30 7293 H 690.546 3.98856 -5.69157 0
M  V30 7294 H 693.737 2.91875 -3.6596 0
M  V30 7295 H 693.91 3.83989 -5.21974 0
M  V30 7296 N 687.317 1.12792 1.10072 0
M  V30 7297 C 688.247 0.821688 2.18565 0
M  V30 7298 C 689.228 -0.21612 1.68721 0
M  V30 7299 O 690.413 -0.0764932 1.94049 0
M  V30 7300 C 687.543 0.279624 3.46172 0
M  V30 7301 C 686.497 1.25092 4.09312 0
M  V30 7302 C 685.823 0.568916 5.31665 0
M  V30 7303 C 687.123 2.60699 4.52585 0
M  V30 7304 H 688.817 1.72888 2.44438 0
M  V30 7305 H 686.363 0.832702 1.17482 0
M  V30 7306 H 688.316 0.053099 4.21367 0
M  V30 7307 H 687.04 -0.662929 3.19801 0
M  V30 7308 H 685.699 1.46332 3.36129 0
M  V30 7309 H 685.347 -0.378898 5.01571 0
M  V30 7310 H 685.047 1.21687 5.74862 0
M  V30 7311 H 686.571 0.351517 6.09587 0
M  V30 7312 H 687.985 2.43465 5.19035 0
M  V30 7313 H 686.382 3.21608 5.06644 0
M  V30 7314 H 687.452 3.1886 3.65317 0
M  V30 7315 N 688.795 -1.27931 0.920396 0
M  V30 7316 C 689.727 -2.26175 0.371169 0
M  V30 7317 C 690.74 -1.55122 -0.494065 0
M  V30 7318 O 691.929 -1.75825 -0.30787 0
M  V30 7319 C 689.029 -3.35376 -0.487481 0
M  V30 7320 C 688.202 -4.35943 0.356772 0
M  V30 7321 C 687.261 -5.24374 -0.438042 0
M  V30 7322 O 686.287 -5.68998 0.151715 0
M  V30 7323 N 687.489 -5.53823 -1.73956 0
M  V30 7324 H 690.254 -2.73938 1.21564 0
M  V30 7325 H 687.815 -1.41482 0.787047 0
M  V30 7326 H 689.807 -3.91476 -1.02609 0
M  V30 7327 H 688.377 -2.87269 -1.23269 0
M  V30 7328 H 687.597 -3.7921 1.07672 0
M  V30 7329 H 688.885 -5.0015 0.934206 0
M  V30 7330 H 688.283 -5.19413 -2.24114 0
M  V30 7331 H 686.84 -6.12653 -2.22486 0
M  V30 7332 N 690.273 -0.685099 -1.4193 0
M  V30 7333 C 691.52 -0.211658 -2.01391 0
M  V30 7334 C 691.848 1.18526 -1.54214 0
M  V30 7335 O 691.103 1.81189 -0.739519 0
M  V30 7336 C 691.402 -0.206154 -3.56805 0
M  V30 7337 C 691.068 -1.54915 -4.23453 0
M  V30 7338 C 689.73 -1.91684 -4.41373 0
M  V30 7339 C 692.082 -2.43317 -4.60919 0
M  V30 7340 C 689.41 -3.16461 -4.94034 0
M  V30 7341 C 691.762 -3.67415 -5.14965 0
M  V30 7342 C 690.426 -4.04341 -5.31098 0
M  V30 7343 H 689.696 -0.0774511 -0.736941 0
M  V30 7344 H 692.343 -0.882121 -1.69973 0
M  V30 7345 H 690.648 0.547841 -3.87951 0
M  V30 7346 H 692.345 0.17753 -4.00607 0
M  V30 7347 H 688.935 -1.25314 -4.09871 0
M  V30 7348 H 693.119 -2.16192 -4.46738 0
M  V30 7349 H 688.375 -3.45078 -5.04709 0
M  V30 7350 H 692.549 -4.3611 -5.42938 0
M  V30 7351 H 690.176 -5.01101 -5.71666 0
M  V30 7352 N 691.751 1.51645 -0.429126 0
M  V30 7353 C 692.981 2.06133 0.138793 0
M  V30 7354 C 693.389 1.29735 1.37716 0
M  V30 7355 O 692.732 0.347955 1.80375 0
M  V30 7356 C 692.794 3.55504 0.534493 0
M  V30 7357 C 692.458 4.53098 -0.595917 0
M  V30 7358 C 693.455 4.98815 -1.46558 0
M  V30 7359 C 691.14 4.96296 -0.774309 0
M  V30 7360 C 693.134 5.86394 -2.4984 0
M  V30 7361 C 690.821 5.83667 -1.81042 0
M  V30 7362 C 691.819 6.28613 -2.67086 0
M  V30 7363 O 691.507 7.14251 -3.68919 0
M  V30 7364 H 691.239 0.675833 0.0150263 0
M  V30 7365 H 693.793 1.96301 -0.604584 0
M  V30 7366 H 692.023 3.63092 1.33045 0
M  V30 7367 H 693.712 3.92545 1.03262 0
M  V30 7368 H 694.478 4.66143 -1.33925 0
M  V30 7369 H 690.357 4.60859 -0.114178 0
M  V30 7370 H 693.901 6.21398 -3.17034 0
M  V30 7371 H 689.798 6.15753 -1.93698 0
M  V30 7372 H 690.566 7.3241 -3.65402 0
M  V30 7373 N 693.229 0.160201 1.56784 0
M  V30 7374 C 694.179 -0.786461 2.14007 0
M  V30 7375 C 695.163 -1.20046 1.07134 0
M  V30 7376 O 696.355 -1.16468 1.33283 0
M  V30 7377 C 693.484 -2.02024 2.77563 0
M  V30 7378 C 692.57 -1.62874 3.91578 0
M  V30 7379 N 692.961 -0.946176 4.96871 0
M  V30 7380 C 691.259 -1.92054 4.02531 0
M  V30 7381 C 691.96 -0.755084 5.76778 0
M  V30 7382 N 690.936 -1.29307 5.27997 0
M  V30 7383 H 694.738 -0.255879 2.92784 0
M  V30 7384 H 692.252 -0.0408778 1.62349 0
M  V30 7385 H 694.249 -2.70855 3.16928 0
M  V30 7386 H 692.909 -2.55587 2.00263 0
M  V30 7387 H 693.92 -0.605455 5.14349 0
M  V30 7388 H 690.597 -2.47374 3.36322 0
M  V30 7389 H 691.987 -0.216138 6.71552 0
M  V30 7390 N 694.707 -1.5719 -0.113559 0
M  V30 7391 C 695.654 -2.00736 -1.13901 0
M  V30 7392 C 696.624 -0.88044 -1.40846 0
M  V30 7393 O 697.809 -1.14507 -1.5262 0
M  V30 7394 C 694.949 -2.42132 -2.45899 0
M  V30 7395 C 694.062 -3.68264 -2.25844 0
M  V30 7396 C 693.197 -3.98617 -3.5111 0
M  V30 7397 C 692.236 -5.17915 -3.26236 0
M  V30 7398 N 691.373 -5.44111 -4.4372 0
M  V30 7399 H 696.213 -2.88128 -0.760677 0
M  V30 7400 H 693.75 -1.42523 -0.364099 0
M  V30 7401 H 695.708 -2.6417 -3.22908 0
M  V30 7402 H 694.338 -1.57775 -2.81615 0
M  V30 7403 H 693.39 -3.53809 -1.39726 0
M  V30 7404 H 694.702 -4.55425 -2.03444 0
M  V30 7405 H 693.856 -4.21333 -4.36536 0
M  V30 7406 H 692.595 -3.09942 -3.76546 0
M  V30 7407 H 691.6 -4.95038 -2.39202 0
M  V30 7408 H 692.825 -6.08172 -3.02165 0
M  V30 7409 H 690.771 -4.58394 -4.69266 0
M  V30 7410 H 690.688 -6.25606 -4.24444 0
M  V30 7411 H 691.956 -5.71351 -5.30263 0
M  V30 7412 N 696.185 0.383891 -1.52853 0
M  V30 7413 C 697.135 1.46892 -1.74375 0
M  V30 7414 C 698.119 1.49378 -0.597909 0
M  V30 7415 O 699.311 1.54929 -0.855929 0
M  V30 7416 C 696.44 2.84547 -1.92063 0
M  V30 7417 C 695.526 2.8661 -3.12594 0
M  V30 7418 N 695.917 2.58339 -4.3485 0
M  V30 7419 C 694.215 3.17777 -3.12944 0
M  V30 7420 C 694.916 2.67616 -5.16485 0
M  V30 7421 N 693.892 3.01561 -4.52285 0
M  V30 7422 H 697.694 1.23869 -2.66522 0
M  V30 7423 H 695.208 0.591895 -1.51229 0
M  V30 7424 H 697.205 3.62674 -2.05604 0
M  V30 7425 H 695.865 3.08549 -1.01133 0
M  V30 7426 H 696.876 2.32266 -4.62896 0
M  V30 7427 H 693.553 3.47211 -2.31842 0
M  V30 7428 H 694.943 2.4926 -6.23955 0
M  V30 7429 N 697.663 1.43903 0.642637 0
M  V30 7430 C 698.888 1.49758 1.43483 0
M  V30 7431 C 699.313 0.119911 1.87717 0
M  V30 7432 O 698.671 -0.888558 1.58033 0
M  V30 7433 C 698.719 2.45744 2.63898 0
M  V30 7434 O 697.823 1.95101 3.63331 0
M  V30 7435 H 697.164 0.506138 0.429791 0
M  V30 7436 H 699.694 1.88923 0.785438 0
M  V30 7437 H 699.704 2.63399 3.11584 0
M  V30 7438 H 698.379 3.45818 2.31046 0
M  V30 7439 H 696.956 1.87158 3.22531 0
M  V30 7440 N 699.141 -0.881989 1.30609 0
M  V30 7441 C 700.387 -1.63647 1.19781 0
M  V30 7442 C 700.72 -1.92632 -0.246265 0
M  V30 7443 O 699.995 -1.54938 -1.17577 0
M  V30 7444 C 700.278 -2.97437 2.02985 0
M  V30 7445 C 700.131 -2.75406 3.55628 0
M  V30 7446 C 701.45 -3.98397 1.86997 0
M  V30 7447 H 698.569 -0.593841 0.436488 0
M  V30 7448 H 701.211 -1.02041 1.60273 0
M  V30 7449 H 699.361 -3.50018 1.68581 0
M  V30 7450 H 701.033 -2.2959 4.00107 0
M  V30 7451 H 699.276 -2.09856 3.79662 0
M  V30 7452 H 699.947 -3.70552 4.09139 0
M  V30 7453 H 702.423 -3.54986 2.17081 0
M  V30 7454 H 701.299 -4.89916 2.47536 0
M  V30 7455 H 701.56 -4.3424 0.829943 0
M  V30 7456 N 700.619 -1.13374 -1.09472 0
M  V30 7457 C 702.03 -0.90801 -1.63132 0
M  V30 7458 C 702.381 0.555576 -1.8817 0
M  V30 7459 O 701.506 1.42218 -1.63104 0
M  V30 7460 C 702.101 -1.64182 -2.96361 0
M  V30 7461 C 700.66 -1.46197 -3.46848 0
M  V30 7462 C 699.807 -1.67134 -2.21273 0
M  V30 7463 H 702.758 -1.2871 -0.928411 0
M  V30 7464 H 702.779 -1.09863 -3.64294 0
M  V30 7465 H 702.291 -2.707 -2.78106 0
M  V30 7466 H 700.392 -0.419788 -3.70228 0
M  V30 7467 H 700.505 -2.22472 -4.24315 0
M  V30 7468 H 698.869 -1.09616 -2.29905 0
M  V30 7469 H 699.652 -2.74971 -2.05538 0
M  V30 7470 N 702.098 1.27442 -0.927168 0
M  V30 7471 C 703.344 1.94679 -0.568164 0
M  V30 7472 C 703.677 1.72697 0.888219 0
M  V30 7473 O 702.952 1.05573 1.63354 0
M  V30 7474 C 703.235 3.4882 -0.894253 0
M  V30 7475 C 703.088 3.80146 -2.40435 0
M  V30 7476 C 704.407 4.38281 -0.399766 0
M  V30 7477 H 701.526 0.707071 -0.207892 0
M  V30 7478 H 704.168 1.50568 -1.15885 0
M  V30 7479 H 702.318 3.86522 -0.391566 0
M  V30 7480 H 703.99 3.52238 -2.97869 0
M  V30 7481 H 702.233 3.26716 -2.85375 0
M  V30 7482 H 702.904 4.87835 -2.58304 0
M  V30 7483 H 705.38 4.07726 -0.83058 0
M  V30 7484 H 704.256 5.44955 -0.656885 0
M  V30 7485 H 704.517 4.36521 0.700153 0
M  V30 7486 N 703.576 0.692616 1.41565 0
M  V30 7487 C 704.806 0.230943 2.05305 0
M  V30 7488 C 705.214 -1.12379 1.52209 0
M  V30 7489 O 704.557 -1.71281 0.663968 0
M  V30 7490 C 704.619 0.107894 3.59338 0
M  V30 7491 C 704.283 1.39419 4.35214 0
M  V30 7492 C 705.28 2.33143 4.64694 0
M  V30 7493 C 702.965 1.64674 4.74539 0
M  V30 7494 C 704.959 3.50385 5.32456 0
M  V30 7495 C 702.646 2.82202 5.42038 0
M  V30 7496 C 703.644 3.74881 5.70923 0
M  V30 7497 O 703.332 4.90351 6.37033 0
M  V30 7498 H 703.064 0.105708 0.667684 0
M  V30 7499 H 705.618 0.94488 1.82376 0
M  V30 7500 H 703.848 -0.661785 3.80995 0
M  V30 7501 H 705.537 -0.316213 4.04666 0
M  V30 7502 H 706.303 2.14887 4.34797 0
M  V30 7503 H 702.182 0.934007 4.51439 0
M  V30 7504 H 705.726 4.22743 5.54918 0
M  V30 7505 H 701.623 3.00376 5.71353 0
M  V30 7506 H 702.391 4.90128 6.55528 0
M  V30 7507 N 705.054 -1.51416 0.437162 0
M  V30 7508 C 706.301 -2.02086 -0.129364 0
M  V30 7509 C 706.629 -1.32133 -1.42728 0
M  V30 7510 O 705.884 -0.424916 -1.91031 0
M  V30 7511 C 706.183 -3.55203 -0.39564 0
M  V30 7512 C 705.849 -4.43447 0.81644 0
M  V30 7513 C 704.511 -4.67285 1.14884 0
M  V30 7514 C 706.863 -4.95219 1.62503 0
M  V30 7515 C 704.191 -5.40141 2.29052 0
M  V30 7516 C 706.543 -5.69327 2.7577 0
M  V30 7517 C 705.207 -5.91429 3.09464 0
M  V30 7518 H 704.477 -0.739486 -0.0473375 0
M  V30 7519 H 707.124 -1.82368 0.584321 0
M  V30 7520 H 705.429 -3.73252 -1.19121 0
M  V30 7521 H 707.126 -3.91944 -0.847399 0
M  V30 7522 H 703.716 -4.2509 0.547422 0
M  V30 7523 H 707.9 -4.76686 1.38144 0
M  V30 7524 H 703.156 -5.55468 2.55471 0
M  V30 7525 H 707.33 -6.08433 3.38795 0
M  V30 7526 H 704.957 -6.47662 3.98042 0
M  V30 7527 N 706.532 -0.168513 -1.56696 0
M  V30 7528 C 707.943 0.348694 -1.83415 0
M  V30 7529 C 708.294 1.63257 -1.0882 0
M  V30 7530 O 707.419 2.13707 -0.340333 0
M  V30 7531 C 708.014 0.639423 -3.32711 0
M  V30 7532 C 706.573 1.10108 -3.59935 0
M  V30 7533 C 705.72 0.135464 -2.76969 0
M  V30 7534 H 708.671 -0.392829 -1.53761 0
M  V30 7535 H 708.692 1.49179 -3.50037 0
M  V30 7536 H 708.204 -0.295173 -3.86976 0
M  V30 7537 H 706.305 2.05088 -3.11079 0
M  V30 7538 H 706.418 1.01218 -4.68286 0
M  V30 7539 H 704.782 0.632286 -2.46727 0
M  V30 7540 H 705.565 -0.793104 -3.34013 0
M  V30 7541 N 708.01 1.57248 0.105221 0
M  V30 7542 C 708.973 2.00388 1.11252 0
M  V30 7543 C 709.973 0.89594 1.33527 0
M  V30 7544 O 711.163 1.16166 1.29811 0
M  V30 7545 C 708.295 2.35589 2.46395 0
M  V30 7546 H 709.488 2.90591 0.741424 0
M  V30 7547 H 707.041 1.52332 0.349956 0
M  V30 7548 H 707.776 1.4831 2.884 0
M  V30 7549 H 707.561 3.16408 2.31578 0
M  V30 7550 H 709.051 2.69658 3.18864 0
M  V30 7551 N 709.488 -0.375779 1.53054 0
M  V30 7552 C 710.42 -1.47963 1.75042 0
M  V30 7553 C 711.433 -1.50073 0.631031 0
M  V30 7554 O 712.622 -1.53736 0.907052 0
M  V30 7555 C 709.722 -2.86767 1.80604 0
M  V30 7556 C 708.895 -3.08471 3.10104 0
M  V30 7557 C 707.954 -4.27332 3.07041 0
M  V30 7558 O 706.98 -4.22998 3.80869 0
M  V30 7559 N 708.182 -5.34214 2.27147 0
M  V30 7560 H 710.947 -1.29484 2.70285 0
M  V30 7561 H 708.508 -0.565416 1.51706 0
M  V30 7562 H 710.5 -3.64404 1.76045 0
M  V30 7563 H 709.07 -2.98542 0.926897 0
M  V30 7564 H 708.29 -2.18583 3.28048 0
M  V30 7565 H 709.578 -3.19834 3.95706 0
M  V30 7566 H 708.976 -5.40594 1.66656 0
M  V30 7567 H 707.533 -6.10467 2.28415 0
M  V30 7568 N 710.966 -1.44241 -0.634997 0
M  V30 7569 C 712.243 -1.37296 -1.39317 0
M  V30 7570 C 712.623 -0.0297532 -2.11079 0
M  V30 7571 O 711.971 0.987524 -2.06059 0
M  V30 7572 C 712.181 -2.56853 -2.36279 0
M  V30 7573 C 713.529 -3.00747 -2.99728 0
M  V30 7574 O 714.553 -2.5703 -2.46605 0
M  V30 7575 O 713.412 -3.76533 -3.96087 0
M  V30 7576 H 710.506 -0.543503 -0.623325 0
M  V30 7577 H 713.052 -1.56324 -0.660376 0
M  V30 7578 H 711.824 -3.46228 -1.82324 0
M  V30 7579 H 711.447 -2.40019 -3.16981 0
M  V30 7580 N 712.444 0.87505 -1.31075 0
M  V30 7581 C 713.855 1.4433 -1.18431 0
M  V30 7582 C 714.206 1.9506 0.211189 0
M  V30 7583 O 713.331 1.85847 1.10859 0
M  V30 7584 C 713.926 2.62341 -2.14389 0
M  V30 7585 C 712.485 3.15225 -2.05694 0
M  V30 7586 C 711.632 1.87929 -2.03907 0
M  V30 7587 H 714.583 0.684061 -1.432 0
M  V30 7588 H 714.604 3.3887 -1.73053 0
M  V30 7589 H 714.116 2.25388 -3.15946 0
M  V30 7590 H 712.217 3.56812 -1.07314 0
M  V30 7591 H 712.33 3.77853 -2.94558 0
M  V30 7592 H 710.694 2.06679 -1.48849 0
M  V30 7593 H 711.477 1.53221 -3.07211 0
M  V30 7594 N 713.922 1.13953 1.08869 0
M  V30 7595 C 715.338 0.878924 1.33218 0
M  V30 7596 C 715.538 -0.482478 1.95638 0
M  V30 7597 O 714.594 -1.22778 2.2064 0
M  V30 7598 C 715.907 2.00798 2.23832 0
M  V30 7599 C 717.455 2.04073 2.37325 0
M  V30 7600 C 717.93 3.16258 3.31278 0
M  V30 7601 N 719.421 3.15805 3.38853 0
M  V30 7602 C 720.156 3.99249 4.11567 0
M  V30 7603 N 719.652 4.92721 4.87029 0
M  V30 7604 N 721.445 3.87327 4.0735 0
M  V30 7605 H 713.596 2.01645 0.66731 0
M  V30 7606 H 715.859 0.878395 0.356547 0
M  V30 7607 H 715.565 2.98986 1.85203 0
M  V30 7608 H 715.439 1.92704 3.24261 0
M  V30 7609 H 717.826 1.06495 2.75214 0
M  V30 7610 H 717.907 2.16239 1.36654 0
M  V30 7611 H 717.551 4.14079 2.9411 0
M  V30 7612 H 717.481 3.0133 4.31866 0
M  V30 7613 H 719.972 2.48102 2.8505 0
M  V30 7614 H 720.285 5.52867 5.39961 0
M  V30 7615 H 718.63 4.96723 4.86098 0
M  V30 7616 H 721.821 3.13627 3.475 0
M  V30 7617 H 721.994 4.52585 4.63757 0
M  V30 7618 N 715.4 -1.26948 0.933913 0
M  V30 7619 C 716.64 -1.9585 0.585003 0
M  V30 7620 C 717.004 -1.71722 -0.858802 0
M  V30 7621 O 718.205 -2.34366 -1.31629 0
M  V30 7622 C 716.476 -3.45638 0.909352 0
M  V30 7623 S 718.035 -4.33656 0.669892 0
M  V30 7624 H 714.853 -0.677485 0.215721 0
M  V30 7625 H 717.455 -1.54051 1.20368 0
M  V30 7626 H 716.159 -3.60697 1.9577 0
M  V30 7627 H 715.69 -3.92401 0.280115 0
M  V30 7628 H 717.705 -4.93975 -0.469378 0
M  V30 7629 N 716.879 -0.700114 -1.41195 0
M  V30 7630 C 718.156 -0.160836 -1.94938 0
M  V30 7631 C 718.536 1.33014 -1.63922 0
M  V30 7632 O 717.884 2.07878 -0.948636 0
M  V30 7633 C 718.094 -0.456991 -3.45995 0
M  V30 7634 C 719.442 -0.387207 -4.22831 0
M  V30 7635 O 720.466 -0.392164 -3.54035 0
M  V30 7636 O 719.325 -0.351267 -5.4537 0
M  V30 7637 H 716.419 -0.0176304 -0.826812 0
M  V30 7638 H 718.965 -0.776586 -1.50888 0
M  V30 7639 H 717.737 -1.48884 -3.61869 0
M  V30 7640 H 717.36 0.189503 -3.97148 0
M  V30 7641 N 718.357 1.51182 -0.445186 0
M  V30 7642 C 719.768 1.86693 0.0160999 0
M  V30 7643 C 720.119 1.36183 1.4124 0
M  V30 7644 O 719.244 0.715895 2.04215 0
M  V30 7645 C 719.839 3.38781 0.0359918 0
M  V30 7646 C 718.398 3.73799 0.441715 0
M  V30 7647 C 717.545 2.74947 -0.360511 0
M  V30 7648 H 720.496 1.44294 -0.660674 0
M  V30 7649 H 720.517 3.71026 0.843813 0
M  V30 7650 H 720.029 3.75513 -0.980378 0
M  V30 7651 H 718.13 3.42659 1.4634 0
M  V30 7652 H 718.243 4.78829 0.16106 0
M  V30 7653 H 716.607 2.54047 0.182269 0
M  V30 7654 H 717.39 3.14521 -1.3759 0
M  V30 7655 N 719.835 0.176821 1.56605 0
M  V30 7656 C 720.782 -0.751312 2.18229 0
M  V30 7657 C 721.752 -1.22297 1.12395 0
M  V30 7658 O 722.937 -1.29015 1.40569 0
M  V30 7659 C 720.077 -1.97291 2.83143 0
M  V30 7660 C 719.19 -1.54431 4.03454 0
M  V30 7661 C 718.325 -2.72 4.56278 0
M  V30 7662 C 717.364 -2.25657 5.68986 0
M  V30 7663 N 716.501 -3.36338 6.16296 0
M  V30 7664 H 721.341 -0.219033 2.97194 0
M  V30 7665 H 718.878 -0.0963803 1.46784 0
M  V30 7666 H 720.836 -2.68949 3.1894 0
M  V30 7667 H 719.466 -2.4788 2.06773 0
M  V30 7668 H 718.518 -0.724273 3.73441 0
M  V30 7669 H 719.83 -1.16417 4.85024 0
M  V30 7670 H 718.984 -3.51806 4.94285 0
M  V30 7671 H 717.723 -3.13277 3.73777 0
M  V30 7672 H 716.728 -1.44299 5.30526 0
M  V30 7673 H 717.953 -1.85432 6.53293 0
M  V30 7674 H 715.899 -3.7718 5.36723 0
M  V30 7675 H 715.816 -3.02435 6.9287 0
M  V30 7676 H 717.084 -4.16413 6.58954 0
M  V30 7677 N 721.313 -1.57302 -0.09688 0
M  V30 7678 C 722.276 -2.00976 -1.10188 0
M  V30 7679 C 723.276 -0.903009 -1.3305 0
M  V30 7680 O 724.466 -1.16853 -1.29194 0
M  V30 7681 C 721.598 -2.36893 -2.45142 0
M  V30 7682 H 722.791 -2.9098 -0.726003 0
M  V30 7683 H 720.344 -1.52515 -0.341872 0
M  V30 7684 H 721.079 -1.49837 -2.8761 0
M  V30 7685 H 720.864 -3.17632 -2.29897 0
M  V30 7686 H 722.354 -2.71345 -3.1743 0
M  V30 7687 N 722.791 0.367657 -1.53252 0
M  V30 7688 C 724.019 1.13119 -1.73239 0
M  V30 7689 C 724.434 1.831 -0.460404 0
M  V30 7690 O 723.791 1.73483 0.566557 0
M  V30 7691 C 723.842 2.16308 -2.89643 0
M  V30 7692 O 723.563 1.49175 -4.1192 0
M  V30 7693 C 725.064 3.05224 -3.21486 0
M  V30 7694 H 722.284 0.338318 -0.579467 0
M  V30 7695 H 724.828 0.42721 -1.99988 0
M  V30 7696 H 722.983 2.82307 -2.65295 0
M  V30 7697 H 723.397 2.17912 -4.7709 0
M  V30 7698 H 724.871 3.73613 -4.06346 0
M  V30 7699 H 725.348 3.69919 -2.36763 0
M  V30 7700 H 725.954 2.44843 -3.47753 0
M  V30 7701 N 724.269 1.44576 0.627338 0
M  V30 7702 C 725.517 1.47267 1.38408 0
M  V30 7703 C 725.838 0.107971 1.94701 0
M  V30 7704 O 725.108 -0.860206 1.76004 0
M  V30 7705 H 723.688 0.542276 0.513756 0
M  V30 7706 H 726.35 1.80383 0.738099 0
M  V30 7707 H 725.446 2.20025 2.21349 0
M  V30 7708 N 725.747 -0.868086 1.31537 0
M  V30 7709 C 726.993 -1.62367 1.2151 0
M  V30 7710 C 727.326 -1.92883 -0.225819 0
M  V30 7711 O 726.601 -1.56176 -1.15927 0
M  V30 7712 C 726.884 -2.95268 2.06129 0
M  V30 7713 C 726.737 -2.71619 3.58529 0
M  V30 7714 C 728.056 -3.96391 1.91212 0
M  V30 7715 H 725.175 -0.589178 0.442762 0
M  V30 7716 H 727.817 -1.00336 1.61347 0
M  V30 7717 H 725.967 -3.4821 1.72284 0
M  V30 7718 H 727.639 -2.25334 4.0252 0
M  V30 7719 H 725.882 -2.05817 3.81866 0
M  V30 7720 H 726.553 -3.66192 4.13047 0
M  V30 7721 H 729.029 -3.52663 2.20834 0
M  V30 7722 H 727.905 -4.87263 2.52718 0
M  V30 7723 H 728.166 -4.33335 0.875953 0
M  V30 7724 N 727.225 -1.14528 -1.08264 0
M  V30 7725 C 728.471 -0.925721 -1.81113 0
M  V30 7726 C 728.826 0.54185 -1.84612 0
M  V30 7727 O 728.119 1.39628 -1.31205 0
M  V30 7728 C 728.313 -1.46226 -3.26117 0
M  V30 7729 C 728.142 -2.98047 -3.36746 0
M  V30 7730 C 726.912 -3.66508 -3.4785 0
M  V30 7731 C 729.11 -3.95903 -3.28277 0
M  V30 7732 N 727.092 -5.06227 -3.47285 0
M  V30 7733 C 728.463 -5.21883 -3.34721 0
M  V30 7734 C 730.518 -3.88002 -3.12024 0
M  V30 7735 C 729.221 -6.40886 -3.26585 0
M  V30 7736 C 731.247 -5.06553 -3.05219 0
M  V30 7737 C 730.609 -6.31403 -3.12266 0
M  V30 7738 H 726.708 -0.392294 -0.676483 0
M  V30 7739 H 729.292 -1.45567 -1.293 0
M  V30 7740 H 727.463 -0.959076 -3.76373 0
M  V30 7741 H 729.195 -1.18247 -3.8704 0
M  V30 7742 H 725.95 -3.17067 -3.51804 0
M  V30 7743 H 726.374 -5.79172 -3.50555 0
M  V30 7744 H 731.016 -2.9235 -3.05436 0
M  V30 7745 H 728.734 -7.36781 -3.31934 0
M  V30 7746 H 732.32 -5.02191 -2.93761 0
M  V30 7747 H 731.2 -7.21596 -3.07032 0
M  V30 7748 N 728.703 1.26451 -0.940633 0
M  V30 7749 C 729.951 1.93395 -0.586748 0
M  V30 7750 C 730.272 1.7417 0.876921 0
M  V30 7751 O 729.542 1.097 1.62304 0
M  V30 7752 H 728.122 0.715687 -0.214012 0
M  V30 7753 H 730.784 1.53902 -1.19584 0
M  V30 7754 H 729.88 3.01565 -0.804059 0
M  V30 7755 N 730.181 0.707592 1.40822 0
M  V30 7756 C 731.592 0.317011 1.83989 0
M  V30 7757 C 731.943 -1.14697 1.59182 0
M  V30 7758 O 731.068 -1.8818 1.06852 0
M  V30 7759 C 731.663 0.568593 3.33995 0
M  V30 7760 C 730.222 0.231804 3.75686 0
M  V30 7761 C 729.369 0.844933 2.64114 0
M  V30 7762 H 732.32 0.907349 1.30203 0
M  V30 7763 H 732.341 -0.168798 3.80125 0
M  V30 7764 H 731.853 1.63417 3.52018 0
M  V30 7765 H 729.954 -0.82903 3.6326 0
M  V30 7766 H 730.067 0.695219 4.74029 0
M  V30 7767 H 728.431 0.273588 2.53226 0
M  V30 7768 H 729.214 1.91462 2.84951 0
M  V30 7769 N 731.66 -1.50943 0.453197 0
M  V30 7770 C 732.906 -2.03153 -0.100277 0
M  V30 7771 C 733.261 -1.33032 -1.38997 0
M  V30 7772 O 732.554 -0.441423 -1.86446 0
M  V30 7773 C 732.748 -3.55603 -0.357944 0
M  V30 7774 C 732.577 -4.40495 0.905223 0
M  V30 7775 C 731.347 -4.84247 1.44337 0
M  V30 7776 C 733.545 -4.81931 1.79575 0
M  V30 7777 N 731.527 -5.53403 2.65742 0
M  V30 7778 C 732.898 -5.50314 2.85577 0
M  V30 7779 C 734.953 -4.63903 1.80828 0
M  V30 7780 C 733.656 -6.02581 3.92797 0
M  V30 7781 C 735.682 -5.17097 2.86993 0
M  V30 7782 C 735.044 -5.8544 3.91713 0
M  V30 7783 H 731.143 -0.781995 0.00287755 0
M  V30 7784 H 733.727 -1.84651 0.617411 0
M  V30 7785 H 731.898 -3.74087 -1.04467 0
M  V30 7786 H 733.63 -3.9447 -0.904175 0
M  V30 7787 H 730.385 -4.63029 0.995045 0
M  V30 7788 H 730.809 -5.92598 3.27348 0
M  V30 7789 H 735.451 -4.10512 1.0119 0
M  V30 7790 H 733.169 -6.55018 4.73262 0
M  V30 7791 H 736.755 -5.0499 2.88923 0
M  V30 7792 H 735.635 -6.25861 4.72512 0
M  V30 7793 N 733.138 -0.185124 -1.56509 0
M  V30 7794 C 734.071 0.77877 -2.145 0
M  V30 7795 C 735.049 1.21649 -1.07891 0
M  V30 7796 O 736.233 1.30579 -1.35946 0
M  V30 7797 C 733.36 2.05048 -2.69579 0
M  V30 7798 C 732.406 1.75569 -3.88687 0
M  V30 7799 S 733.239 0.912642 -5.27666 0
M  V30 7800 C 734.395 2.19471 -5.8616 0
M  V30 7801 H 734.628 0.285751 -2.95924 0
M  V30 7802 H 732.161 0.0297417 -1.54371 0
M  V30 7803 H 734.119 2.78085 -3.01958 0
M  V30 7804 H 732.78 2.51462 -1.88216 0
M  V30 7805 H 731.973 2.69962 -4.25601 0
M  V30 7806 H 731.575 1.10619 -3.57267 0
M  V30 7807 H 733.867 3.14815 -5.99915 0
M  V30 7808 H 734.81 1.87005 -6.8296 0
M  V30 7809 H 735.218 2.31862 -5.14685 0
M  V30 7810 O 734.655 1.6143 -0.0476879 0
M  V30 7811 H 735.346 1.85363 0.562176 0
M  V30 END ATOM
M  V30 BEGIN BOND
M  V30 END BOND
M  V30 END CTAB
M  END
$$$$
