drugbank_target|P15169 Carboxypeptidase N catalytic chain (DB01593; DB12271; DB14487; DB14533; DB14548)
 OpenBabel12092120333D

  0  0  0     0  0            999 V3000
M  V30 BEGIN CTAB
M  V30 COUNTS 7284 7386 0 0 0
M  V30 BEGIN ATOM
M  V30 1 H -0.908 1.98254 -0.117106 0
M  V30 2 N 0 1.576 0 0
M  V30 3 C 0.933 2.03868 1.02534 0
M  V30 4 C 1.911 0.928543 1.3348 0
M  V30 5 O 3.095 1.19667 1.45644 0
M  V30 6 C 0.222 2.43627 2.35294 0
M  V30 7 C -0.732 3.65373 2.2001 0
M  V30 8 S 0.101 5.13292 1.52614 0
M  V30 9 C 1.257 5.56322 2.86805 0
M  V30 10 H 1.49 2.90518 0.631377 0
M  V30 11 H -0.977 1.52953 0.210867 0
M  V30 12 H 0.981 2.67203 3.11629 0
M  V30 13 H -0.358 1.57376 2.7183 0
M  V30 14 H -1.165 3.90944 3.18086 0
M  V30 15 H -1.563 3.418 1.51819 0
M  V30 16 H 0.729 5.58782 3.83104 0
M  V30 17 H 1.672 6.56266 2.65933 0
M  V30 18 H 2.08 4.83886 2.90714 0
M  V30 19 N 1.4781 -0.272755 1.55222 0
M  V30 20 C 2.7031 -1.02683 1.80197 0
M  V30 21 C 3.1281 -1.79142 0.573551 0
M  V30 22 O 2.4861 -1.74917 -0.476849 0
M  V30 23 C 2.5341 -1.9609 3.02624 0
M  V30 24 O 1.6381 -3.04863 2.77727 0
M  V30 25 H 0.9791 -0.293557 0.595584 0
M  V30 26 H 3.5091 -0.30159 2.02365 0
M  V30 27 H 3.5191 -2.38039 3.31363 0
M  V30 28 H 2.1941 -1.39851 3.91682 0
M  V30 29 H 0.7711 -2.67228 2.60084 0
M  V30 30 N 2.9562 -1.48159 -0.537278 0
M  V30 31 C 4.2332 -1.46291 -1.29839 0
M  V30 32 C 4.6132 -0.170613 -2.10409 0
M  V30 33 O 3.9612 0.847746 -2.12192 0
M  V30 34 C 4.1712 -2.72055 -2.18603 0
M  V30 35 C 5.5192 -3.20087 -2.7898 0
M  V30 36 O 6.5432 -2.72921 -2.28894 0
M  V30 37 O 5.4022 -4.02138 -3.70064 0
M  V30 38 H 2.4962 -0.583906 -0.585647 0
M  V30 39 H 5.0422 -1.60384 -0.554534 0
M  V30 40 H 3.8142 -3.57628 -1.58801 0
M  V30 41 H 3.4372 -2.60646 -3.00249 0
M  V30 42 N 4.4343 0.785586 -1.36625 0
M  V30 43 C 5.3643 1.91259 -1.33949 0
M  V30 44 C 6.3453 1.68795 -0.210325 0
M  V30 45 O 7.5303 1.89854 -0.408561 0
M  V30 46 C 4.6603 3.28339 -1.13186 0
M  V30 47 C 3.6143 3.65335 -2.22967 0
M  V30 48 C 2.9403 5.00806 -1.87342 0
M  V30 49 C 4.2403 3.7352 -3.65075 0
M  V30 50 H 5.9343 1.93755 -2.28253 0
M  V30 51 H 3.4803 0.930788 -1.09874 0
M  V30 52 H 5.4333 4.06804 -1.09948 0
M  V30 53 H 4.1573 3.2624 -0.153332 0
M  V30 54 H 2.8163 2.89169 -2.25337 0
M  V30 55 H 2.4643 4.95233 -0.880545 0
M  V30 56 H 2.1643 5.26529 -2.60846 0
M  V30 57 H 3.6883 5.81687 -1.85667 0
M  V30 58 H 5.1023 4.42168 -3.64911 0
M  V30 59 H 3.4993 4.10731 -4.37516 0
M  V30 60 H 4.5693 2.74527 -3.99703 0
M  V30 61 N 5.9124 1.20967 1.01018 0
M  V30 62 C 6.8424 0.988272 2.11555 0
M  V30 63 C 7.8234 -0.0849778 1.69888 0
M  V30 64 O 9.0084 0.0738202 1.9406 0
M  V30 65 C 6.1384 0.546528 3.42973 0
M  V30 66 C 5.0924 1.56375 3.9841 0
M  V30 67 C 4.4184 0.97842 5.25672 0
M  V30 68 C 5.7184 2.94922 4.31066 0
M  V30 69 H 7.4124 1.91276 2.30334 0
M  V30 70 H 4.9584 0.921073 1.1069 0
M  V30 71 H 6.9114 0.378839 4.19694 0
M  V30 72 H 5.6354 -0.413598 3.23971 0
M  V30 73 H 4.2944 1.71891 3.23804 0
M  V30 74 H 3.9424 0.0101688 5.02999 0
M  V30 75 H 3.6424 1.65784 5.63728 0
M  V30 76 H 5.1664 0.821939 6.05043 0
M  V30 77 H 6.5804 2.8288 4.9865 0
M  V30 78 H 4.9774 3.5983 4.80253 0
M  V30 79 H 6.0474 3.4616 3.39561 0
M  V30 80 N 7.3905 -1.2043 1.01659 0
M  V30 81 C 8.6155 -1.94318 0.724942 0
M  V30 82 C 9.0405 -1.74266 -0.708034 0
M  V30 83 O 8.3985 -1.03694 -1.48719 0
M  V30 84 C 8.4465 -3.44486 1.06591 0
M  V30 85 O 7.5505 -4.12017 0.177599 0
M  V30 86 H 6.8915 -0.60708 0.26898 0
M  V30 87 H 9.4215 -1.52861 1.35995 0
M  V30 88 H 9.4315 -3.95106 1.01762 0
M  V30 89 H 8.1065 -3.58404 2.10997 0
M  V30 90 H 6.6835 -3.71821 0.283421 0
M  V30 91 N 8.8686 -0.792821 -1.36206 0
M  V30 92 C 10.1146 -0.36733 -1.99446 0
M  V30 93 C 10.4476 1.05917 -1.62774 0
M  V30 94 O 9.7226 1.7324 -0.88421 0
M  V30 95 C 10.0056 -0.535044 -3.56103 0
M  V30 96 C 9.8586 -2.00548 -4.02617 0
M  V30 97 C 11.1776 0.0478191 -4.40074 0
M  V30 98 H 8.2966 -0.134941 -0.724541 0
M  V30 99 H 10.9386 -0.999794 -1.61568 0
M  V30 100 H 9.0886 0.00336329 -3.885 0
M  V30 101 H 10.7606 -2.60521 -3.80692 0
M  V30 102 H 9.0036 -2.50686 -3.54032 0
M  V30 103 H 9.6746 -2.07377 -5.11565 0
M  V30 104 H 12.1506 -0.411822 -4.14057 0
M  V30 105 H 11.0266 -0.0995336 -5.4881 0
M  V30 106 H 11.2876 1.14025 -4.27142 0
M  V30 107 N 10.3467 1.47872 -0.545128 0
M  V30 108 C 11.5937 2.02493 -0.0165858 0
M  V30 109 C 11.9217 1.42073 1.32836 0
M  V30 110 O 11.1767 0.561459 1.87473 0
M  V30 111 C 11.4757 3.57131 0.13867 0
M  V30 112 C 11.1417 4.36411 -1.13384 0
M  V30 113 C 9.8037 4.57792 -1.48256 0
M  V30 114 C 12.1557 4.82223 -1.97764 0
M  V30 115 C 9.4837 5.22233 -2.67376 0
M  V30 116 C 11.8357 5.47977 -3.16076 0
M  V30 117 C 10.4997 5.67593 -3.51275 0
M  V30 118 H 9.7697 0.740975 -0.00606918 0
M  V30 119 H 12.4167 1.77683 -0.714207 0
M  V30 120 H 10.7217 3.80865 0.919172 0
M  V30 121 H 12.4187 3.97031 0.562782 0
M  V30 122 H 9.0087 4.2004 -0.852297 0
M  V30 123 H 13.1927 4.65493 -1.72132 0
M  V30 124 H 8.4487 5.35616 -2.94831 0
M  V30 125 H 12.6227 5.8244 -3.81755 0
M  V30 126 H 10.2497 6.17298 -4.43675 0
M  V30 127 N 11.8248 0.280983 1.55075 0
M  V30 128 C 12.7548 -0.597469 2.25727 0
M  V30 129 C 13.7358 -1.15417 1.24952 0
M  V30 130 O 14.9208 -1.18722 1.53684 0
M  V30 131 C 12.0508 -1.7789 2.98283 0
M  V30 132 C 11.0048 -1.35347 4.06036 0
M  V30 133 C 10.3308 -2.61846 4.66198 0
M  V30 134 C 11.6308 -0.499354 5.19907 0
M  V30 135 H 13.3248 -0.00824265 2.99399 0
M  V30 136 H 10.8708 -0.0025244 1.44 0
M  V30 137 H 12.8238 -2.39937 3.46422 0
M  V30 138 H 11.5478 -2.39405 2.22155 0
M  V30 139 H 10.2068 -0.756156 3.58717 0
M  V30 140 H 9.8548 -3.21632 3.86732 0
M  V30 141 H 9.5548 -2.3409 5.38958 0
M  V30 142 H 11.0788 -3.24732 5.1709 0
M  V30 143 H 12.4928 -1.02498 5.64063 0
M  V30 144 H 10.8898 -0.316424 5.99265 0
M  V30 145 H 11.9598 0.480459 4.82514 0
M  V30 146 N 13.3029 -1.57598 0.00835791 0
M  V30 147 C 14.2529 -2.05431 -0.989045 0
M  V30 148 C 15.2369 -0.950662 -1.29812 0
M  V30 149 O 16.4289 -1.21438 -1.28771 0
M  V30 150 C 13.5579 -2.56801 -2.27833 0
M  V30 151 C 12.6439 -3.74058 -1.99853 0
M  V30 152 N 13.0349 -4.8544 -1.42062 0
M  V30 153 C 11.3329 -3.82148 -2.29953 0
M  V30 154 C 12.0339 -5.66817 -1.30743 0
M  V30 155 N 11.0099 -5.13077 -1.7959 0
M  V30 156 H 14.8119 -2.88955 -0.536853 0
M  V30 157 H 12.3259 -1.61199 -0.197148 0
M  V30 158 H 14.3229 -2.89349 -3.00137 0
M  V30 159 H 12.9829 -1.74699 -2.73698 0
M  V30 160 H 13.9939 -5.0612 -1.09833 0
M  V30 161 H 10.6709 -3.10916 -2.78635 0
M  V30 162 H 12.0609 -6.66343 -0.862328 0
M  V30 163 N 14.781 0.264519 -1.55364 0
M  V30 164 C 15.711 1.33121 -1.91836 0
M  V30 165 C 16.692 1.51101 -0.781192 0
M  V30 166 O 17.877 1.64003 -1.04003 0
M  V30 167 C 15.007 2.68921 -2.19769 0
M  V30 168 C 13.961 2.65661 -3.35571 0
M  V30 169 C 13.287 4.05093 -3.49004 0
M  V30 170 C 14.587 2.24187 -4.71739 0
M  V30 171 H 16.281 1.02844 -2.81182 0
M  V30 172 H 13.827 0.493286 -1.35287 0
M  V30 173 H 15.78 3.43663 -2.43872 0
M  V30 174 H 14.504 3.00799 -1.27231 0
M  V30 175 H 13.163 1.93377 -3.1145 0
M  V30 176 H 12.811 4.34206 -2.53917 0
M  V30 177 H 12.511 4.03804 -4.26868 0
M  V30 178 H 14.035 4.81561 -3.75408 0
M  V30 179 H 15.449 2.88654 -4.9533 0
M  V30 180 H 13.846 2.34044 -5.52579 0
M  V30 181 H 14.916 1.19327 -4.69988 0
M  V30 182 N 16.2591 1.48442 0.529413 0
M  V30 183 C 17.1891 1.65902 1.64313 0
M  V30 184 C 18.1701 0.507897 1.6234 0
M  V30 185 O 19.3551 0.740503 1.79528 0
M  V30 186 C 16.4851 1.69911 3.02898 0
M  V30 187 C 15.4391 2.8453 3.19729 0
M  V30 188 C 14.7651 2.73629 4.59381 0
M  V30 189 C 16.0651 4.25821 3.02447 0
M  V30 190 H 17.7591 2.5914 1.49955 0
M  V30 191 H 15.3051 1.24709 0.719982 0
M  V30 192 H 17.2581 1.80715 3.80684 0
M  V30 193 H 15.9821 0.732524 3.18279 0
M  V30 194 H 14.6411 2.73283 2.44361 0
M  V30 195 H 14.2891 1.74938 4.71599 0
M  V30 196 H 13.9891 3.50541 4.71588 0
M  V30 197 H 15.5131 2.86401 5.39265 0
M  V30 198 H 16.9271 4.37898 3.70024 0
M  V30 199 H 15.3241 5.03735 3.26146 0
M  V30 200 H 16.3941 4.42244 1.98867 0
M  V30 201 N 17.7372 -0.778329 1.37039 0
M  V30 202 C 18.6672 -1.90546 1.34962 0
M  V30 203 C 19.6482 -1.68681 0.219274 0
M  V30 204 O 20.8332 -1.89634 0.418624 0
M  V30 205 C 17.9632 -3.27734 1.14925 0
M  V30 206 C 16.9172 -3.64147 2.24902 0
M  V30 207 C 16.2432 -4.99806 1.89996 0
M  V30 208 C 17.5432 -3.71579 3.67051 0
M  V30 209 H 19.2372 -1.92541 2.29277 0
M  V30 210 H 16.7832 -0.924948 1.10366 0
M  V30 211 H 18.7362 -4.06215 1.12104 0
M  V30 212 H 17.4602 -3.26154 0.170631 0
M  V30 213 H 16.1192 -2.8797 2.26868 0
M  V30 214 H 15.7672 -4.94759 0.906796 0
M  V30 215 H 15.4672 -5.25139 2.63634 0
M  V30 216 H 16.9912 -5.80694 1.88749 0
M  V30 217 H 18.4052 -4.40227 3.67251 0
M  V30 218 H 16.8022 -4.08405 4.39688 0
M  V30 219 H 17.8722 -2.72404 4.01154 0
M  V30 220 N 19.2153 -1.21501 -1.00376 0
M  V30 221 C 20.1453 -0.999478 -2.11028 0
M  V30 222 C 21.1263 0.0759671 -1.6993 0
M  V30 223 O 22.3113 -0.0841106 -1.94018 0
M  V30 224 C 19.4413 -0.564709 -3.42678 0
M  V30 225 C 18.3953 -1.58486 -3.97576 0
M  V30 226 C 17.7213 -1.00628 -5.25146 0
M  V30 227 C 19.0213 -2.97204 -4.29496 0
M  V30 228 H 20.7153 -1.92495 -2.29317 0
M  V30 229 H 18.2613 -0.92693 -1.102 0
M  V30 230 H 20.2143 -0.401091 -4.19487 0
M  V30 231 H 18.9383 0.396411 -3.24185 0
M  V30 232 H 17.5973 -1.73606 -3.22888 0
M  V30 233 H 17.2453 -0.0368439 -5.02987 0
M  V30 234 H 16.9453 -1.68771 -5.62841 0
M  V30 235 H 18.4693 -0.854015 -6.04598 0
M  V30 236 H 19.8833 -2.8552 -4.97143 0
M  V30 237 H 18.2803 -3.62372 -4.78338 0
M  V30 238 H 19.3503 -3.47956 -3.3772 0
M  V30 239 N 20.6934 1.19889 -1.02296 0
M  V30 240 C 21.9404 1.8942 -0.715972 0
M  V30 241 C 22.2684 1.79251 0.754944 0
M  V30 242 O 21.5234 1.17526 1.56481 0
M  V30 243 C 21.8224 3.39883 -1.10518 0
M  V30 244 C 21.4884 3.70254 -2.57337 0
M  V30 245 C 20.1504 3.78254 -2.97452 0
M  V30 246 C 22.5024 3.84052 -3.52354 0
M  V30 247 C 19.8304 3.97514 -4.31509 0
M  V30 248 C 22.1824 4.04824 -4.86108 0
M  V30 249 C 20.8464 4.11054 -5.25919 0
M  V30 250 H 20.1164 0.693138 -0.261993 0
M  V30 251 H 22.7634 1.42012 -1.28472 0
M  V30 252 H 21.0684 3.8915 -0.454953 0
M  V30 253 H 22.7654 3.9199 -0.845261 0
M  V30 254 H 19.3554 3.64632 -2.25258 0
M  V30 255 H 23.5394 3.77221 -3.22518 0
M  V30 256 H 18.7954 4.00574 -4.61898 0
M  V30 257 H 22.9694 4.14442 -5.59653 0
M  V30 258 H 20.5964 4.2573 -6.29808 0
M  V30 259 N 22.1715 0.800033 1.35784 0
M  V30 260 C 23.1185 0.203848 2.29898 0
M  V30 261 C 24.0885 -0.658375 1.52495 0
M  V30 262 O 25.2735 -0.604832 1.8096 0
M  V30 263 C 22.4135 -0.64688 3.38983 0
M  V30 264 C 21.5265 0.235054 4.3136 0
M  V30 265 C 20.6615 -0.623054 5.27533 0
M  V30 266 C 19.7005 0.259682 6.11549 0
M  V30 267 N 18.8375 -0.558019 6.99879 0
M  V30 268 H 23.6775 1.01186 2.80295 0
M  V30 269 H 21.2145 0.51053 1.37957 0
M  V30 270 H 23.1725 -1.15521 4.00887 0
M  V30 271 H 21.8025 -1.42021 2.89879 0
M  V30 272 H 20.8545 0.861438 3.70518 0
M  V30 273 H 22.1665 0.914768 4.9034 0
M  V30 274 H 21.3205 -1.19678 5.94779 0
M  V30 275 H 20.0595 -1.33636 4.69034 0
M  V30 276 H 19.0645 0.845726 5.43256 0
M  V30 277 H 20.2895 0.970748 6.72126 0
M  V30 278 H 18.2355 -1.25542 6.43875 0
M  V30 279 H 18.1525 0.0637872 7.55973 0
M  V30 280 H 19.4205 -1.11523 7.71481 0
M  V30 281 N 23.6496 -1.47581 0.552962 0
M  V30 282 C 24.5796 -2.32762 -0.185451 0
M  V30 283 C 25.5606 -1.43527 -0.912905 0
M  V30 284 O 26.7456 -1.72388 -0.894201 0
M  V30 285 C 23.8756 -3.25219 -1.21859 0
M  V30 286 C 22.8296 -4.23661 -0.607864 0
M  V30 287 C 22.1556 -5.05413 -1.74533 0
M  V30 288 C 23.4556 -5.20481 0.435582 0
M  V30 289 H 25.1496 -2.94749 0.525684 0
M  V30 290 H 22.6956 -1.41738 0.254251 0
M  V30 291 H 24.6486 -3.8365 -1.7433 0
M  V30 292 H 23.3726 -2.61279 -1.95961 0
M  V30 293 H 22.0316 -3.66451 -0.104489 0
M  V30 294 H 21.6796 -4.3788 -2.47529 0
M  V30 295 H 21.3796 -5.72059 -1.34249 0
M  V30 296 H 22.9036 -5.66701 -2.27338 0
M  V30 297 H 24.3176 -5.733 -0.00290157 0
M  V30 298 H 22.7146 -5.95305 0.757067 0
M  V30 299 H 23.7846 -4.66217 1.33303 0
M  V30 300 N 25.1277 -0.289203 -1.54924 0
M  V30 301 C 26.3737 0.323998 -2.00195 0
M  V30 302 C 26.7067 1.54441 -1.17735 0
M  V30 303 O 25.9817 1.92875 -0.250878 0
M  V30 304 C 26.2647 0.692276 -3.53383 0
M  V30 305 C 26.1177 -0.536457 -4.46589 0
M  V30 306 C 27.4367 1.52335 -4.12895 0
M  V30 307 H 24.5557 0.116289 -0.727768 0
M  V30 308 H 27.1977 -0.398954 -1.85764 0
M  V30 309 H 25.3477 1.30822 -3.65811 0
M  V30 310 H 27.0197 -1.17499 -4.46085 0
M  V30 311 H 25.2627 -1.17192 -4.1767 0
M  V30 312 H 25.9337 -0.234806 -5.515 0
M  V30 313 H 28.4097 1.00302 -4.0383 0
M  V30 314 H 27.2857 1.74982 -5.20262 0
M  V30 315 H 27.5467 2.50886 -3.64018 0
M  V30 316 N 26.6058 1.57591 -0.0167156 0
M  V30 317 C 27.5688 2.08393 0.954204 0
M  V30 318 C 28.5688 0.996531 1.26198 0
M  V30 319 O 29.7588 1.25858 1.20438 0
M  V30 320 C 26.8908 2.5394 2.27436 0
M  V30 321 H 28.0838 2.95455 0.514451 0
M  V30 322 H 25.6368 1.54582 0.231089 0
M  V30 323 H 26.3718 1.70171 2.76066 0
M  V30 324 H 26.1568 3.33371 2.06412 0
M  V30 325 H 27.6468 2.93512 2.97053 0
M  V30 326 N 28.0839 -0.256276 1.55502 0
M  V30 327 C 29.4949 -0.826068 1.67431 0
M  V30 328 C 29.8459 -1.86396 0.612446 0
M  V30 329 O 28.9709 -2.15031 -0.243025 0
M  V30 330 C 29.5659 -1.50512 3.03532 0
M  V30 331 C 28.1249 -2.02273 3.17431 0
M  V30 332 C 27.2719 -0.870548 2.63281 0
M  V30 333 H 30.2229 -0.0322728 1.58667 0
M  V30 334 H 30.2439 -2.37279 2.97454 0
M  V30 335 H 29.7559 -0.749484 3.80794 0
M  V30 336 H 27.8569 -2.80746 2.44974 0
M  V30 337 H 27.9699 -2.22655 4.24219 0
M  V30 338 H 26.3339 -1.26851 2.20864 0
M  V30 339 H 27.1169 -0.128149 3.43061 0
M  V30 340 N 29.562 -1.4872 -0.521534 0
M  V30 341 C 30.808 -1.574 -1.27879 0
M  V30 342 C 31.141 -0.250817 -1.92573 0
M  V30 343 O 30.416 0.743934 -1.79711 0
M  V30 344 C 30.699 -2.71843 -2.36164 0
M  V30 345 C 30.552 -4.13893 -1.76105 0
M  V30 346 C 31.871 -2.82008 -3.37875 0
M  V30 347 H 28.99 -0.572941 -0.463581 0
M  V30 348 H 31.632 -1.80927 -0.580119 0
M  V30 349 H 29.782 -2.51914 -2.95756 0
M  V30 350 H 31.454 -4.45284 -1.20499 0
M  V30 351 H 29.697 -4.20498 -1.06601 0
M  V30 352 H 30.368 -4.89804 -2.5455 0
M  V30 353 H 32.844 -3.00086 -2.88249 0
M  V30 354 H 31.72 -3.63796 -4.11028 0
M  V30 355 H 31.981 -1.90511 -3.98946 0
M  V30 356 N 31.0401 0.771051 -1.3745 0
M  V30 357 C 32.2681 1.56015 -1.35893 0
M  V30 358 C 32.6831 1.88718 0.0555523 0
M  V30 359 O 32.0401 1.51502 1.01752 0
M  V30 360 C 32.0911 2.87001 -2.19801 0
M  V30 361 O 31.8121 2.557 -3.55738 0
M  V30 362 C 33.3131 3.81228 -2.26231 0
M  V30 363 H 30.5331 0.483317 -0.465453 0
M  V30 364 H 33.0771 0.955611 -1.80799 0
M  V30 365 H 31.2321 3.43877 -1.78402 0
M  V30 366 H 31.6461 3.39584 -3.99729 0
M  V30 367 H 33.1201 4.70139 -2.89263 0
M  V30 368 H 33.5971 4.20409 -1.27093 0
M  V30 369 H 34.2031 3.30281 -2.67945 0
M  V30 370 N 32.5182 1.22032 0.997298 0
M  V30 371 C 33.7652 1.04222 1.73621 0
M  V30 372 C 34.0932 -0.423264 1.89839 0
M  V30 373 O 33.3482 -1.3302 1.43542 0
M  V30 374 C 33.6472 1.69345 3.14733 0
M  V30 375 C 33.3132 3.19226 3.18442 0
M  V30 376 C 31.9752 3.60124 3.19161 0
M  V30 377 C 34.3272 4.15181 3.15078 0
M  V30 378 C 31.6552 4.95467 3.14212 0
M  V30 379 C 34.0072 5.50495 3.1167 0
M  V30 380 C 32.6712 5.90779 3.10703 0
M  V30 381 H 31.9412 0.381374 0.635323 0
M  V30 382 H 34.5882 1.51732 1.16831 0
M  V30 383 H 32.8932 1.14147 3.74803 0
M  V30 384 H 34.5902 1.53059 3.7064 0
M  V30 385 H 31.1802 2.86659 3.18629 0
M  V30 386 H 35.3642 3.84605 3.13676 0
M  V30 387 H 30.6202 5.25916 3.11805 0
M  V30 388 H 34.7942 6.24576 3.08022 0
M  V30 389 H 32.4212 6.9562 3.06622 0
M  V30 390 N 33.9963 -1.19345 1.0293 0
M  V30 391 C 35.4123 -1.41069 0.746446 0
M  V30 392 C 35.6123 -1.90078 -0.668776 0
M  V30 393 O 34.6683 -2.0778 -1.4347 0
M  V30 394 C 35.9813 -2.42141 1.78292 0
M  V30 395 C 37.5293 -2.55887 1.80252 0
M  V30 396 C 38.0043 -3.60214 2.8286 0
M  V30 397 N 39.4953 -3.67711 2.81679 0
M  V30 398 C 40.2303 -4.48128 3.57727 0
M  V30 399 N 39.7263 -5.32248 4.43491 0
M  V30 400 N 41.5193 -4.42782 3.46267 0
M  V30 401 H 33.6703 -0.858536 1.94275 0
M  V30 402 H 35.9333 -0.439541 0.839945 0
M  V30 403 H 35.6393 -2.13155 2.79746 0
M  V30 404 H 35.5133 -3.41323 1.60557 0
M  V30 405 H 37.9003 -2.84196 0.794757 0
M  V30 406 H 37.9813 -1.56858 2.02062 0
M  V30 407 H 37.6253 -3.32647 3.83807 0
M  V30 408 H 37.5553 -4.58895 2.58307 0
M  V30 409 H 40.0463 -3.07634 2.19476 0
M  V30 410 H 40.3593 -5.90729 4.98256 0
M  V30 411 H 38.7043 -5.31707 4.47564 0
M  V30 412 H 41.8953 -3.76107 2.78677 0
M  V30 413 H 42.0683 -5.05215 4.05785 0
M  V30 414 N 35.4744 -0.807222 -1.35358 0
M  V30 415 C 36.4244 -0.190706 -2.27201 0
M  V30 416 C 37.4084 0.635838 -1.47804 0
M  V30 417 O 38.6004 0.492991 -1.69996 0
M  V30 418 C 35.7294 0.659337 -3.36909 0
M  V30 419 C 34.8154 -0.176971 -4.23731 0
M  V30 420 N 35.2064 -1.24029 -4.90357 0
M  V30 421 C 33.5044 0.0412953 -4.45981 0
M  V30 422 C 34.2054 -1.75092 -5.54723 0
M  V30 423 N 33.1814 -1.05727 -5.33219 0
M  V30 424 H 36.9834 -1.0043 -2.76208 0
M  V30 425 H 34.4974 -0.648445 -1.48892 0
M  V30 426 H 36.4944 1.11706 -4.01656 0
M  V30 427 H 35.1544 1.47127 -2.89454 0
M  V30 428 H 36.1654 -1.62295 -4.91814 0
M  V30 429 H 32.8424 0.82232 -4.09322 0
M  V30 430 H 34.2324 -2.63963 -6.17878 0
M  V30 431 N 36.9525 1.47285 -0.560781 0
M  V30 432 C 37.9025 2.27073 0.205384 0
M  V30 433 C 38.8865 1.34569 0.882044 0
M  V30 434 O 40.0785 1.58899 0.77976 0
M  V30 435 C 37.2075 3.20414 1.23247 0
M  V30 436 C 36.2935 4.20399 0.559041 0
M  V30 437 N 36.6845 5.04423 -0.372927 0
M  V30 438 C 34.9825 4.38536 0.812522 0
M  V30 439 C 35.6835 5.76655 -0.764446 0
M  V30 440 N 34.6595 5.43471 -0.11848 0
M  V30 441 H 38.4615 2.89422 -0.511117 0
M  V30 442 H 35.9755 1.57868 -0.380975 0
M  V30 443 H 37.9725 3.76262 1.79534 0
M  V30 444 H 36.6325 2.59623 1.95002 0
M  V30 445 H 37.6435 5.1248 -0.747287 0
M  V30 446 H 34.3205 3.88913 1.51832 0
M  V30 447 H 35.7105 6.54238 -1.53045 0
M  V30 448 N 38.4306 0.297415 1.54768 0
M  V30 449 C 39.8466 -0.0560823 1.59501 0
M  V30 450 C 40.0466 -1.52725 1.31444 0
M  V30 451 O 39.1026 -2.27947 1.08611 0
M  V30 452 C 40.4156 0.338631 2.98787 0
M  V30 453 C 41.9636 0.287097 3.11681 0
M  V30 454 C 42.4386 0.656579 4.53269 0
M  V30 455 N 43.9296 0.608977 4.59179 0
M  V30 456 C 44.6646 0.867385 5.66802 0
M  V30 457 N 44.1606 1.19157 6.82476 0
M  V30 458 N 45.9536 0.794687 5.56454 0
M  V30 459 H 38.1046 1.25624 1.71267 0
M  V30 460 H 40.3676 0.509057 0.799728 0
M  V30 461 H 40.0736 1.36263 3.2423 0
M  V30 462 H 39.9476 -0.309508 3.75928 0
M  V30 463 H 42.3346 -0.727649 2.85988 0
M  V30 464 H 42.4156 0.969809 2.36703 0
M  V30 465 H 42.0596 1.66912 4.7969 0
M  V30 466 H 41.9896 -0.0481649 5.26578 0
M  V30 467 H 44.4806 0.369198 3.76092 0
M  V30 468 H 44.7936 1.37482 7.60473 0
M  V30 469 H 43.1386 1.22958 6.84037 0
M  V30 470 H 46.3296 0.541098 4.64962 0
M  V30 471 H 46.5026 0.999445 6.40246 0
M  V30 472 N 39.9087 -1.5758 0.0250728 0
M  V30 473 C 41.1387 -1.95646 -0.663783 0
M  V30 474 C 41.5467 -0.899935 -1.66427 0
M  V30 475 O 40.8897 0.127191 -1.83259 0
M  V30 476 C 40.9517 -3.29835 -1.43 0
M  V30 477 C 40.6157 -4.53197 -0.588305 0
M  V30 478 C 41.6127 -5.19726 0.13469 0
M  V30 479 C 39.2977 -4.99529 -0.526897 0
M  V30 480 C 41.2917 -6.30902 0.90781 0
M  V30 481 C 38.9787 -6.10589 0.24993 0
M  V30 482 C 39.9767 -6.76134 0.965994 0
M  V30 483 O 39.6647 -7.85062 1.7301 0
M  V30 484 H 39.3967 -0.649282 -0.188174 0
M  V30 485 H 41.9507 -2.05245 0.0799006 0
M  V30 486 H 40.1807 -3.16716 -2.21873 0
M  V30 487 H 41.8697 -3.52833 -2.00658 0
M  V30 488 H 42.6357 -4.84904 0.0965562 0
M  V30 489 H 38.5147 -4.48319 -1.07381 0
M  V30 490 H 42.0587 -6.81995 1.46724 0
M  V30 491 H 37.9557 -6.44849 0.289795 0
M  V30 492 H 38.7237 -8.01708 1.64944 0
M  V30 493 N 41.3868 0.248026 -1.55636 0
M  V30 494 C 42.6638 0.998988 -1.68165 0
M  V30 495 C 43.0438 2.03409 -0.564621 0
M  V30 496 O 42.3918 2.24378 0.432076 0
M  V30 497 C 42.6018 1.63334 -3.0842 0
M  V30 498 C 43.9498 2.13562 -3.66983 0
M  V30 499 O 44.9738 1.73277 -3.11213 0
M  V30 500 O 43.8328 2.87526 -4.64749 0
M  V30 501 H 40.9268 0.464933 -0.683935 0
M  V30 502 H 43.4728 0.241902 -1.67967 0
M  V30 503 H 42.2448 0.884583 -3.8117 0
M  V30 504 H 41.8678 2.45666 -3.12624 0
M  V30 505 N 42.8649 1.48995 0.513639 0
M  V30 506 C 44.1419 1.48338 1.27495 0
M  V30 507 C 44.5219 0.204065 2.10111 0
M  V30 508 O 43.8699 -0.813881 2.13514 0
M  V30 509 C 44.0799 2.75498 2.14247 0
M  V30 510 C 45.4279 3.24484 2.73852 0
M  V30 511 O 46.4519 2.76528 2.24523 0
M  V30 512 O 45.3109 4.07974 3.6362 0
M  V30 513 H 42.4049 0.593149 0.576284 0
M  V30 514 H 44.9509 1.61246 0.528948 0
M  V30 515 H 43.7229 3.60109 1.53092 0
M  V30 516 H 43.3459 2.6539 2.96064 0
M  V30 517 N 44.343 -0.763751 1.37857 0
M  V30 518 C 45.273 -1.89103 1.36975 0
M  V30 519 C 46.254 -1.68439 0.237152 0
M  V30 520 O 47.439 -1.8918 0.438713 0
M  V30 521 C 44.569 -3.26496 1.18395 0
M  V30 522 C 43.523 -3.61741 2.28751 0
M  V30 523 C 42.849 -4.97762 1.95286 0
M  V30 524 C 44.149 -3.67665 3.70972 0
M  V30 525 H 45.843 -1.90099 2.31307 0
M  V30 526 H 43.389 -0.91319 1.11341 0
M  V30 527 H 45.342 -4.05003 1.16406 0
M  V30 528 H 44.066 -3.25955 0.205215 0
M  V30 529 H 42.725 -2.85547 2.29909 0
M  V30 530 H 42.373 -4.93769 0.959221 0
M  V30 531 H 42.073 -5.22313 2.69189 0
M  V30 532 H 43.597 -5.7866 1.94898 0
M  V30 533 H 45.011 -4.36307 3.719 0
M  V30 534 H 43.408 -4.03718 4.43995 0
M  V30 535 H 44.478 -2.68134 4.0402 0
M  V30 536 N 45.8211 -1.22559 -0.990812 0
M  V30 537 C 47.0671 -1.05297 -1.73322 0
M  V30 538 C 47.4001 0.410655 -1.89808 0
M  V30 539 O 46.6751 1.30439 -1.44277 0
M  V30 540 C 46.9581 -1.76713 -3.13759 0
M  V30 541 C 46.8111 -3.30684 -3.04907 0
M  V30 542 C 48.1301 -1.52121 -4.12974 0
M  V30 543 H 45.2491 -0.38392 -0.629106 0
M  V30 544 H 47.8911 -1.50926 -1.15418 0
M  V30 545 H 46.0411 -1.37924 -3.63193 0
M  V30 546 H 47.7131 -3.7893 -2.63077 0
M  V30 547 H 45.9561 -3.60253 -2.41661 0
M  V30 548 H 46.6271 -3.75833 -4.04294 0
M  V30 549 H 49.1031 -1.85819 -3.72304 0
M  V30 550 H 47.9791 -2.04582 -5.0935 0
M  V30 551 H 48.2401 -0.454257 -4.3976 0
M  V30 552 N 47.2992 1.18797 -1.03562 0
M  V30 553 C 48.7152 1.40671 -0.753917 0
M  V30 554 C 48.9152 1.9043 0.658686 0
M  V30 555 O 47.9712 2.08538 1.42366 0
M  V30 556 C 49.2842 2.41192 -1.79574 0
M  V30 557 C 50.8322 2.54928 -1.81606 0
M  V30 558 C 51.3072 3.58709 -2.84766 0
M  V30 559 N 52.7982 3.66212 -2.83625 0
M  V30 560 C 53.5332 4.46225 -3.60098 0
M  V30 561 N 53.0292 5.29888 -4.46308 0
M  V30 562 N 54.8222 4.40939 -3.4861 0
M  V30 563 H 46.9732 0.848221 -1.94728 0
M  V30 564 H 49.2362 0.435081 -0.842264 0
M  V30 565 H 48.9422 2.11669 -2.80872 0
M  V30 566 H 48.8162 3.40467 -1.62365 0
M  V30 567 H 51.2032 2.83771 -0.809817 0
M  V30 568 H 51.2842 1.55784 -2.02891 0
M  V30 569 H 50.9282 3.30607 -3.85566 0
M  V30 570 H 50.8582 4.57519 -2.60737 0
M  V30 571 H 53.3492 3.06466 -2.21105 0
M  V30 572 H 53.6622 5.88078 -5.01382 0
M  V30 573 H 52.0072 5.29326 -4.50377 0
M  V30 574 H 55.1982 3.74624 -2.80668 0
M  V30 575 H 55.3712 5.03056 -4.08459 0
M  V30 576 N 48.7773 0.814389 1.34928 0
M  V30 577 C 50.0053 0.411136 2.02774 0
M  V30 578 C 50.4203 -0.980316 1.61354 0
M  V30 579 O 49.7773 -1.63299 0.814847 0
M  V30 580 C 49.8283 0.493865 3.58111 0
M  V30 581 O 49.5493 1.83047 3.98027 0
M  V30 582 C 51.0503 0.0844174 4.4322 0
M  V30 583 H 48.2703 0.166037 0.650133 0
M  V30 584 H 50.8143 1.10018 1.72384 0
M  V30 585 H 48.9693 -0.147006 3.87121 0
M  V30 586 H 49.3833 1.79872 4.92693 0
M  V30 587 H 50.8573 0.193404 5.51661 0
M  V30 588 H 51.3343 -0.97113 4.28329 0
M  V30 589 H 51.9403 0.69875 4.19521 0
M  V30 590 N 50.2554 -1.46986 0.568584 0
M  V30 591 C 51.1854 -2.32946 -0.160753 0
M  V30 592 C 52.1664 -1.44487 -0.897631 0
M  V30 593 O 53.3514 -1.73327 -0.875867 0
M  V30 594 C 50.4814 -3.26494 -1.18403 0
M  V30 595 C 49.4354 -4.24282 -0.562895 0
M  V30 596 C 48.7614 -5.07236 -1.69163 0
M  V30 597 C 50.0614 -5.19989 0.490761 0
M  V30 598 H 51.7554 -2.94175 0.556916 0
M  V30 599 H 49.3014 -1.4146 0.26927 0
M  V30 600 H 51.2544 -3.85477 -1.70251 0
M  V30 601 H 49.9784 -2.63343 -1.93179 0
M  V30 602 H 48.6374 -3.66541 -0.0656164 0
M  V30 603 H 48.2854 -4.4048 -2.42871 0
M  V30 604 H 47.9854 -5.7345 -1.28174 0
M  V30 605 H 49.5094 -5.6908 -2.21314 0
M  V30 606 H 50.9234 -5.73271 0.0579047 0
M  V30 607 H 49.3204 -5.94469 0.820165 0
M  V30 608 H 50.3904 -4.64777 1.3824 0
M  V30 609 N 51.7335 -0.305618 -1.54608 0
M  V30 610 C 52.9635 0.304333 -2.04346 0
M  V30 611 C 53.3715 1.47715 -1.18224 0
M  V30 612 O 52.7145 1.82591 -0.201577 0
M  V30 613 C 52.7765 0.819031 -3.50046 0
M  V30 614 C 52.4405 -0.22912 -4.56425 0
M  V30 615 C 53.4375 -1.05914 -5.08997 0
M  V30 616 C 51.1225 -0.372148 -5.0092 0
M  V30 617 C 53.1165 -2.01809 -6.04609 0
M  V30 618 C 50.8035 -1.33454 -5.9635 0
M  V30 619 C 51.8015 -2.15599 -6.48079 0
M  V30 620 O 51.4895 -3.10205 -7.41639 0
M  V30 621 H 51.2215 0.0693996 -0.672428 0
M  V30 622 H 53.7755 -0.444548 -2.00532 0
M  V30 623 H 52.0055 1.61852 -3.51199 0
M  V30 624 H 53.6945 1.34537 -3.82955 0
M  V30 625 H 54.4605 -0.959538 -4.75413 0
M  V30 626 H 50.3395 0.257304 -4.60281 0
M  V30 627 H 53.8835 -2.65966 -6.44909 0
M  V30 628 H 49.7805 -1.43485 -6.29351 0
M  V30 629 H 50.5485 -3.05237 -7.59455 0
M  V30 630 N 53.2116 1.57565 -0.0334293 0
M  V30 631 C 54.1586 2.10478 0.946981 0
M  V30 632 C 55.1286 1.00787 1.32027 0
M  V30 633 O 56.3136 1.28232 1.41284 0
M  V30 634 C 53.4536 2.63994 2.22263 0
M  V30 635 C 52.5666 3.87709 1.90541 0
M  V30 636 C 51.7016 4.29604 3.12433 0
M  V30 637 C 50.7406 5.46065 2.76549 0
M  V30 638 N 49.8776 5.83096 3.9108 0
M  V30 639 H 54.7176 2.93963 0.488846 0
M  V30 640 H 52.2546 1.45296 0.22969 0
M  V30 641 H 54.2126 2.93114 2.96884 0
M  V30 642 H 52.8426 1.83333 2.65685 0
M  V30 643 H 51.8946 3.65291 1.06144 0
M  V30 644 H 53.2066 4.72403 1.60116 0
M  V30 645 H 52.3606 4.60182 3.9537 0
M  V30 646 H 51.0996 3.43685 3.46023 0
M  V30 647 H 50.1046 5.15176 1.92026 0
M  V30 648 H 51.3296 6.33685 2.44171 0
M  V30 649 H 49.2756 5.00132 4.24504 0
M  V30 650 H 49.1926 6.6244 3.64293 0
M  V30 651 H 50.4606 6.18282 4.74708 0
M  V30 652 N 54.6897 -0.239769 1.55765 0
M  V30 653 C 55.9357 -0.968234 1.78194 0
M  V30 654 C 56.2687 -1.84701 0.599938 0
M  V30 655 O 55.5437 -1.9031 -0.401524 0
M  V30 656 C 55.8267 -1.8227 3.10564 0
M  V30 657 C 55.6797 -0.971633 4.3918 0
M  V30 658 C 56.9987 -2.80388 3.39221 0
M  V30 659 H 54.1177 -0.350572 0.648281 0
M  V30 660 H 56.7597 -0.238259 1.885 0
M  V30 661 H 54.9097 -2.44507 3.01908 0
M  V30 662 H 56.5817 -0.367408 4.59835 0
M  V30 663 H 54.8247 -0.276276 4.32919 0
M  V30 664 H 55.4957 -1.60346 5.28198 0
M  V30 665 H 57.9717 -2.28287 3.47885 0
M  V30 666 H 56.8477 -3.3729 4.33044 0
M  V30 667 H 57.1087 -3.57212 2.60484 0
M  V30 668 N 56.1678 -1.49265 -0.50573 0
M  V30 669 C 57.0998 -1.617 -1.62437 0
M  V30 670 C 58.1128 -0.499924 -1.54934 0
M  V30 671 O 59.3018 -0.771785 -1.60953 0
M  V30 672 C 56.4018 -1.5533 -3.01207 0
M  V30 673 C 55.5748 -2.8249 -3.33943 0
M  V30 674 C 54.6338 -2.69238 -4.52103 0
M  V30 675 O 53.6598 -3.43167 -4.5412 0
M  V30 676 N 54.8618 -1.80468 -5.51735 0
M  V30 677 H 57.6268 -2.58177 -1.52199 0
M  V30 678 H 55.1878 -1.46294 -0.693511 0
M  V30 679 H 57.1798 -1.44125 -3.78167 0
M  V30 680 H 55.7498 -0.667297 -3.05395 0
M  V30 681 H 54.9698 -3.08081 -2.45926 0
M  V30 682 H 56.2578 -3.66802 -3.5261 0
M  V30 683 H 55.6558 -1.19653 -5.52901 0
M  V30 684 H 54.2128 -1.75188 -6.27816 0
M  V30 685 N 57.6459 0.756429 -1.3826 0
M  V30 686 C 58.5939 1.89149 -1.35372 0
M  V30 687 C 59.5879 1.67691 -0.24004 0
M  V30 688 O 60.7939 1.75294 -0.408919 0
M  V30 689 H 57.1689 0.622271 -0.422236 0
M  V30 690 H 59.1399 1.88701 -2.31159 0
M  V30 691 C 57.8889 3.26599 -1.19284 0
M  V30 692 H 57.2119 3.43695 -2.0424 0
M  V30 693 H 58.6519 4.06274 -1.21316 0
M  V30 694 C 57.1109 3.3675 0.100454 0
M  V30 695 O 57.6409 3.86951 1.07851 0
M  V30 696 N 55.8469 2.90179 0.15633 0
M  V30 697 H 55.3939 2.49517 -0.640253 0
M  V30 698 H 55.3519 2.97352 1.02123 0
M  V30 699 N 59.124 1.23083 0.984299 0
M  V30 700 C 60.034 1.02515 2.11016 0
M  V30 701 C 61.05 -0.0291702 1.73976 0
M  V30 702 O 62.226 0.165434 2.00719 0
M  V30 703 C 59.291 0.614673 3.41208 0
M  V30 704 C 58.352 1.74359 3.92297 0
M  V30 705 C 57.585 1.35261 5.16275 0
M  V30 706 O 57.808 0.235136 5.69915 0
M  V30 707 O 56.742 2.17227 5.61334 0
M  V30 708 H 60.568 1.96862 2.31255 0
M  V30 709 H 58.153 1.01753 1.09392 0
M  V30 710 H 60.035 0.396518 4.1953 0
M  V30 711 H 58.71 -0.299851 3.22308 0
M  V30 712 H 57.617 2.01635 3.1511 0
M  V30 713 H 58.95 2.63629 4.15645 0
M  V30 714 N 60.6021 -1.18246 1.0419 0
M  V30 715 C 61.8421 -1.89948 0.754916 0
M  V30 716 C 62.2061 -1.78608 -0.70451 0
M  V30 717 O 63.4071 -2.4503 -1.10516 0
M  V30 718 C 61.6781 -3.36305 1.20969 0
M  V30 719 S 63.2371 -4.26088 1.04854 0
M  V30 720 H 60.0551 -0.655897 0.274446 0
M  V30 721 H 62.6571 -1.42873 1.33445 0
M  V30 722 H 61.3611 -3.42089 2.26722 0
M  V30 723 H 60.8921 -3.8842 0.624004 0
M  V30 724 H 62.9071 -4.96189 -0.0332896 0
M  V30 725 N 62.0802 -0.821533 -1.34494 0
M  V30 726 C 63.4912 -0.467956 -1.8074 0
M  V30 727 C 63.8422 1.01151 -1.68116 0
M  V30 728 O 62.9672 1.78707 -1.22036 0
M  V30 729 C 63.5622 -0.842627 -3.28154 0
M  V30 730 C 62.1212 -0.541439 -3.72485 0
M  V30 731 C 61.2682 -1.06028 -2.56229 0
M  V30 732 H 64.2192 -1.01183 -1.22261 0
M  V30 733 H 64.2402 -0.145876 -3.8022 0
M  V30 734 H 63.7522 -1.91945 -3.37311 0
M  V30 735 H 61.8532 0.526034 -3.68868 0
M  V30 736 H 61.9662 -1.08453 -4.66663 0
M  V30 737 H 60.3302 -0.481892 -2.501 0
M  V30 738 H 61.1132 -2.14352 -2.68157 0
M  V30 739 N 63.5583 1.46682 -0.576371 0
M  V30 740 C 64.8063 2.02013 -0.0594163 0
M  V30 741 C 65.1273 1.45101 1.30271 0
M  V30 742 O 64.3973 0.633317 1.8538 0
M  V30 743 H 62.9773 0.746759 -0.0189745 0
M  V30 744 H 65.6393 1.79862 -0.750717 0
M  V30 745 H 64.7353 3.12097 0.014345 0
M  V30 746 N 65.0364 0.313813 1.54444 0
M  V30 747 C 66.2854 -0.292519 1.99568 0
M  V30 748 C 66.5984 -1.54011 1.20582 0
M  V30 749 O 67.8044 -2.22183 1.56035 0
M  V30 750 C 66.2604 -0.571752 3.55329 0
M  V30 751 C 65.8684 0.658229 4.43138 0
M  V30 752 C 67.6124 -1.13857 4.08946 0
M  V30 753 C 65.5194 0.351439 5.90355 0
M  V30 754 H 64.4494 -0.113079 0.745472 0
M  V30 755 H 67.1004 0.424518 1.78522 0
M  V30 756 H 65.4824 -1.34872 3.72325 0
M  V30 757 H 66.6564 1.43403 4.37918 0
M  V30 758 H 64.9714 1.14458 4.0036 0
M  V30 759 H 67.5684 -1.38257 5.16516 0
M  V30 760 H 67.9114 -2.08489 3.6033 0
M  V30 761 H 68.4444 -0.423015 3.95544 0
M  V30 762 H 65.1834 1.26667 6.43145 0
M  V30 763 H 64.7034 -0.386842 5.98551 0
M  V30 764 H 66.3824 -0.0423134 6.46986 0
M  V30 765 N 66.5145 -1.57545 0.0417849 0
M  V30 766 C 67.7425 -1.96624 -0.643928 0
M  V30 767 C 68.1575 -0.918897 -1.64929 0
M  V30 768 O 67.5145 0.0979323 -1.82237 0
M  V30 769 C 67.5655 -3.35781 -1.33914 0
M  V30 770 O 67.2865 -4.365 -0.374048 0
M  V30 771 C 68.7875 -3.89566 -2.1155 0
M  V30 772 H 66.0075 -0.647316 -0.176702 0
M  V30 773 H 68.5515 -2.04229 0.105304 0
M  V30 774 H 66.7065 -3.29357 -2.03968 0
M  V30 775 H 67.1205 -5.17248 -0.869179 0
M  V30 776 H 68.5945 -4.89242 -2.55628 0
M  V30 777 H 69.0715 -3.24488 -2.9598 0
M  V30 778 H 69.6775 -3.99298 -1.46427 0
M  V30 779 N 67.9926 0.231505 -1.5589 0
M  V30 780 C 69.4086 0.580748 -1.48659 0
M  V30 781 C 69.6086 1.87617 -0.73498 0
M  V30 782 O 68.6646 2.51046 -0.270586 0
M  V30 783 C 69.9776 0.669202 -2.93159 0
M  V30 784 C 71.5256 0.760499 -3.03621 0
M  V30 785 C 72.0006 0.880383 -4.49459 0
M  V30 786 N 73.4916 0.944861 -4.53461 0
M  V30 787 C 74.2266 1.05716 -5.63571 0
M  V30 788 N 73.7226 1.13403 -6.83456 0
M  V30 789 N 75.5156 1.09152 -5.514 0
M  V30 790 H 67.6666 -0.618695 -2.03189 0
M  V30 791 H 69.9296 -0.215728 -0.923128 0
M  V30 792 H 69.6356 -0.212904 -3.51055 0
M  V30 793 H 69.5096 1.5361 -3.44505 0
M  V30 794 H 71.8966 1.63305 -2.45796 0
M  V30 795 H 71.9776 -0.131864 -2.5546 0
M  V30 796 H 71.6216 0.0123284 -5.07899 0
M  V30 797 H 71.5516 1.78802 -4.95316 0
M  V30 798 H 74.0426 0.896176 -3.6712 0
M  V30 799 H 74.3556 1.21921 -7.63122 0
M  V30 800 H 72.7006 1.10333 -6.86186 0
M  V30 801 H 75.8916 1.02805 -4.56671 0
M  V30 802 H 76.0646 1.17558 -6.37247 0
M  V30 803 N 69.4707 1.49531 0.497807 0
M  V30 804 C 70.7167 1.59415 1.25358 0
M  V30 805 C 71.0497 0.281422 1.9215 0
M  V30 806 O 70.3247 -0.715249 1.80871 0
M  V30 807 C 70.6077 2.75566 2.3181 0
M  V30 808 C 70.4607 4.16642 1.69498 0
M  V30 809 C 71.7797 2.87347 3.33346 0
M  V30 810 H 68.8987 0.580244 0.454408 0
M  V30 811 H 71.5407 1.81827 0.551262 0
M  V30 812 H 69.6907 2.56587 2.91711 0
M  V30 813 H 71.3627 4.47145 1.13399 0
M  V30 814 H 69.6057 4.22141 0.998978 0
M  V30 815 H 70.2767 4.93792 2.46725 0
M  V30 816 H 72.7527 3.04634 2.83438 0
M  V30 817 H 71.6287 3.70289 4.05188 0
M  V30 818 H 71.8897 1.96834 3.95865 0
M  V30 819 N 70.9488 -0.749086 1.3866 0
M  V30 820 C 72.1788 -1.53611 1.38157 0
M  V30 821 C 72.5868 -1.89177 -0.0293595 0
M  V30 822 O 71.9298 -1.53606 -1.00752 0
M  V30 823 C 71.9918 -2.86087 2.17702 0
M  V30 824 C 71.6558 -2.73034 3.66472 0
M  V30 825 C 72.6528 -2.42526 4.59866 0
M  V30 826 C 70.3378 -2.90345 4.09884 0
M  V30 827 C 72.3318 -2.29492 5.94653 0
M  V30 828 C 70.0188 -2.7693 5.4475 0
M  V30 829 C 71.0168 -2.46547 6.36949 0
M  V30 830 O 70.7048 -2.33199 7.69333 0
M  V30 831 H 70.4368 -0.481773 0.474205 0
M  V30 832 H 72.9908 -0.934465 1.82912 0
M  V30 833 H 71.2208 -3.48458 1.67672 0
M  V30 834 H 72.9098 -3.47625 2.09551 0
M  V30 835 H 73.6758 -2.28816 4.27631 0
M  V30 836 H 69.5548 -3.1299 3.38464 0
M  V30 837 H 73.0988 -2.05698 6.66584 0
M  V30 838 H 68.9958 -2.90215 5.76581 0
M  V30 839 H 69.7638 -2.48376 7.79905 0
M  V30 840 N 72.4269 -1.23603 -0.977757 0
M  V30 841 C 73.6519 -1.09735 -1.75991 0
M  V30 842 C 74.0769 0.346858 -1.84874 0
M  V30 843 O 73.4349 1.25093 -1.3123 0
M  V30 844 C 73.4829 -1.73051 -3.16363 0
M  V30 845 O 72.5869 -0.994452 -4.0023 0
M  V30 846 H 71.9279 -0.384476 -0.541364 0
M  V30 847 H 74.4579 -1.6371 -1.2272 0
M  V30 848 H 74.4679 -1.78398 -3.66931 0
M  V30 849 H 73.1429 -2.78137 -3.09213 0
M  V30 850 H 71.7199 -1.01812 -3.58732 0
M  V30 851 N 73.905 1.17692 -1.04816 0
M  V30 852 C 75.154 1.87192 -0.751132 0
M  V30 853 C 75.467 1.8169 0.724441 0
M  V30 854 O 76.673 2.46625 1.13527 0
M  V30 855 C 75.129 3.35857 -1.29338 0
M  V30 856 C 74.737 3.4987 -2.79812 0
M  V30 857 C 76.481 4.10709 -1.07322 0
M  V30 858 C 74.388 4.92536 -3.27356 0
M  V30 859 H 73.318 0.701162 -0.277288 0
M  V30 860 H 75.969 1.32932 -1.26496 0
M  V30 861 H 74.351 3.89631 -0.707376 0
M  V30 862 H 75.525 3.06332 -3.44235 0
M  V30 863 H 73.84 2.88433 -3.00325 0
M  V30 864 H 76.437 5.15952 -1.4035 0
M  V30 865 H 76.78 4.16299 -0.0108001 0
M  V30 866 H 77.313 3.6313 -1.62423 0
M  V30 867 H 74.052 4.92119 -4.33012 0
M  V30 868 H 73.572 5.3676 -2.67673 0
M  V30 869 H 75.251 5.61288 -3.21815 0
M  V30 870 N 75.3831 0.828654 1.34056 0
M  V30 871 C 76.6311 0.41863 1.97717 0
M  V30 872 C 76.9521 -1.02314 1.66002 0
M  V30 873 O 76.2221 -1.71119 0.953683 0
M  V30 874 H 74.8021 0.151809 0.731412 0
M  V30 875 H 77.4641 1.05936 1.63596 0
M  V30 876 H 76.5601 0.542318 3.07352 0
M  V30 877 N 76.8612 -1.46375 0.584142 0
M  V30 878 C 78.2772 -1.57694 0.245929 0
M  V30 879 C 78.4772 -1.57903 -1.25175 0
M  V30 880 O 77.5332 -1.49676 -2.03355 0
M  V30 881 C 78.8462 -2.87028 0.896402 0
M  V30 882 C 80.3942 -3.00662 0.870127 0
M  V30 883 C 80.8692 -4.32734 1.50017 0
M  V30 884 N 82.3602 -4.39436 1.46458 0
M  V30 885 C 83.0952 -5.40248 1.92144 0
M  V30 886 N 82.5912 -6.47726 2.4581 0
M  V30 887 N 84.3842 -5.31459 1.83052 0
M  V30 888 H 76.5352 -1.44483 1.55687 0
M  V30 889 H 78.7982 -0.689291 0.650831 0
M  V30 890 H 78.5042 -2.9269 1.95002 0
M  V30 891 H 78.3782 -3.75014 0.405486 0
M  V30 892 H 80.7652 -2.94581 -0.174871 0
M  V30 893 H 80.8462 -2.14148 1.39908 0
M  V30 894 H 80.4902 -4.39573 2.54437 0
M  V30 895 H 80.4202 -5.18025 0.946432 0
M  V30 896 H 82.9112 -3.62367 1.07231 0
M  V30 897 H 83.2242 -7.20863 2.78525 0
M  V30 898 H 81.5692 -6.48542 2.49836 0
M  V30 899 H 84.7602 -4.46396 1.40883 0
M  V30 900 H 84.9332 -6.09881 2.18973 0
M  V30 901 N 78.3393 -0.321999 -1.54275 0
M  V30 902 C 79.5643 0.285791 -2.05422 0
M  V30 903 C 79.9893 1.45124 -1.19669 0
M  V30 904 O 79.3473 1.80132 -0.205441 0
M  V30 905 C 79.3953 0.69956 -3.53749 0
M  V30 906 O 78.4993 1.8021 -3.70942 0
M  V30 907 H 77.8403 0.0518962 -0.661969 0
M  V30 908 H 80.3703 -0.469954 -1.9913 0
M  V30 909 H 80.3803 0.982649 -3.9599 0
M  V30 910 H 79.0553 -0.152864 -4.15619 0
M  V30 911 H 77.6323 1.51794 -3.40607 0
M  V30 912 N 79.8174 1.5752 -0.0501392 0
M  V30 913 C 81.0634 1.92936 0.624798 0
M  V30 914 C 81.3964 0.928685 1.70555 0
M  V30 915 O 80.6714 -0.0454779 1.94447 0
M  V30 916 C 80.9544 3.38737 1.22185 0
M  V30 917 C 80.8074 4.49552 0.149218 0
M  V30 918 C 82.1264 3.84913 2.13378 0
M  V30 919 H 79.2454 0.701604 0.225657 0
M  V30 920 H 81.8874 1.89671 -0.111693 0
M  V30 921 H 80.0374 3.4165 1.84953 0
M  V30 922 H 81.7094 4.58768 -0.482648 0
M  V30 923 H 79.9524 4.30638 -0.522841 0
M  V30 924 H 80.6234 5.48653 0.606966 0
M  V30 925 H 83.0994 3.8387 1.60572 0
M  V30 926 H 81.9754 4.87584 2.52097 0
M  V30 927 H 82.2364 3.21611 3.03346 0
M  V30 928 N 81.2955 -0.223234 1.56011 0
M  V30 929 C 82.2055 -1.29766 1.95443 0
M  V30 930 C 83.2215 -1.51373 0.858028 0
M  V30 931 O 84.3975 -1.64536 1.16146 0
M  V30 932 C 81.4625 -2.62772 2.26167 0
M  V30 933 C 80.5235 -2.49482 3.49367 0
M  V30 934 C 79.7565 -3.76145 3.78616 0
M  V30 935 O 79.9795 -4.79087 3.09568 0
M  V30 936 O 78.9135 -3.73358 4.72109 0
M  V30 937 H 82.7395 -0.99309 2.87004 0
M  V30 938 H 80.3245 -0.425958 1.43199 0
M  V30 939 H 82.2065 -3.41327 2.47131 0
M  V30 940 H 80.8815 -2.92913 1.37781 0
M  V30 941 H 79.7885 -1.69133 3.33684 0
M  V30 942 H 81.1215 -2.2428 4.38131 0
M  V30 943 N 82.7736 -1.49793 -0.48987 0
M  V30 944 C 84.0216 -1.59525 -1.24081 0
M  V30 945 C 84.3426 -0.288953 -1.92847 0
M  V30 946 O 83.6126 0.692436 -1.83254 0
M  V30 947 H 82.1926 -0.587796 -0.460983 0
M  V30 948 H 84.8546 -1.86477 -0.566778 0
M  V30 949 H 83.9506 -2.39696 -1.99881 0
M  V30 950 N 84.2517 0.741722 -1.39055 0
M  V30 951 C 85.6677 1.04638 -1.20512 0
M  V30 952 C 85.8677 2.01405 -0.0620218 0
M  V30 953 O 84.9237 2.45547 0.588457 0
M  V30 954 C 86.2367 1.6151 -2.53643 0
M  V30 955 C 87.7847 1.73623 -2.6043 0
M  V30 956 C 88.2597 2.33906 -3.93767 0
M  V30 957 N 89.7507 2.41323 -3.9537 0
M  V30 958 C 90.4857 2.88888 -4.95309 0
M  V30 959 N 89.9817 3.36401 -6.05645 0
M  V30 960 N 91.7747 2.88037 -4.82692 0
M  V30 961 H 83.9257 0.0998155 -2.12165 0
M  V30 962 H 86.1887 0.106907 -0.941953 0
M  V30 963 H 85.8947 0.978739 -3.37807 0
M  V30 964 H 85.7687 2.60411 -2.72885 0
M  V30 965 H 88.1557 2.36384 -1.76655 0
M  V30 966 H 88.2367 0.733945 -2.45045 0
M  V30 967 H 87.8807 1.71776 -4.7797 0
M  V30 968 H 87.8107 3.34799 -4.06469 0
M  V30 969 H 90.3017 2.07734 -3.15682 0
M  V30 970 H 90.6147 3.71186 -6.77821 0
M  V30 971 H 88.9597 3.34427 -6.09248 0
M  V30 972 H 92.1507 2.50237 -3.95599 0
M  V30 973 H 92.3237 3.24792 -5.60726 0
M  V30 974 N 85.7298 1.2412 0.971189 0
M  V30 975 C 86.6798 0.997551 2.05019 0
M  V30 976 C 87.6638 -0.0597747 1.60789 0
M  V30 977 O 88.8558 0.153516 1.76333 0
M  V30 978 C 85.9848 0.600557 3.38006 0
M  V30 979 C 85.0708 1.69377 3.88809 0
M  V30 980 N 85.4618 2.92586 4.12586 0
M  V30 981 C 83.7598 1.57048 4.17435 0
M  V30 982 C 84.4608 3.63431 4.54195 0
M  V30 983 N 83.4368 2.90979 4.59165 0
M  V30 984 H 87.2388 1.93316 2.21374 0
M  V30 985 H 84.7528 1.14194 1.1547 0
M  V30 986 H 86.7498 0.40725 4.14906 0
M  V30 987 H 85.4098 -0.327903 3.2304 0
M  V30 988 H 86.4208 3.288 4.00139 0
M  V30 989 H 83.0978 0.709798 4.11422 0
M  V30 990 H 84.4878 4.69102 4.81033 0
M  V30 991 N 87.2079 -1.17134 1.05439 0
M  V30 992 C 88.1379 -2.2342 0.678649 0
M  V30 993 C 89.1189 -1.66971 -0.32476 0
M  V30 994 O 90.3039 -1.93149 -0.201802 0
M  V30 995 C 87.4339 -3.47256 0.0552099 0
M  V30 996 C 86.3879 -4.16543 0.98365 0
M  V30 997 C 85.7139 -5.34231 0.223961 0
M  V30 998 C 87.0139 -4.68495 2.3089 0
M  V30 999 H 88.7079 -2.55105 1.56722 0
M  V30 1000 H 86.2539 -1.2262 0.754998 0
M  V30 1001 H 88.2069 -4.20828 -0.21946 0
M  V30 1002 H 86.9309 -3.14846 -0.868319 0
M  V30 1003 H 85.5899 -3.44887 1.24293 0
M  V30 1004 H 85.2379 -4.98071 -0.702412 0
M  V30 1005 H 84.9379 -5.81527 0.842627 0
M  V30 1006 H 86.4619 -6.10585 -0.0433671 0
M  V30 1007 H 87.8759 -5.33691 2.09396 0
M  V30 1008 H 86.2729 -5.26379 2.88176 0
M  V30 1009 H 87.3429 -3.85169 2.94572 0
M  V30 1010 N 88.686 -0.835752 -1.33615 0
M  V30 1011 C 89.916 -0.442701 -2.01801 0
M  V30 1012 C 90.324 0.959807 -1.63047 0
M  V30 1013 O 89.667 1.63468 -0.838088 0
M  V30 1014 C 89.729 -0.480125 -3.56279 0
M  V30 1015 C 89.393 -1.8382 -4.18401 0
M  V30 1016 C 90.39 -2.80097 -4.37998 0
M  V30 1017 C 88.075 -2.13019 -4.54894 0
M  V30 1018 C 90.069 -4.03736 -4.9323 0
M  V30 1019 C 87.756 -3.36916 -5.09834 0
M  V30 1020 C 88.754 -4.32091 -5.28948 0
M  V30 1021 O 88.442 -5.53797 -5.82721 0
M  V30 1022 H 88.174 -0.17441 -0.653114 0
M  V30 1023 H 90.728 -1.129 -1.71589 0
M  V30 1024 H 88.958 0.262931 -3.85805 0
M  V30 1025 H 90.647 -0.105335 -4.05763 0
M  V30 1026 H 91.413 -2.58838 -4.10156 0
M  V30 1027 H 87.292 -1.39733 -4.39313 0
M  V30 1028 H 90.836 -4.78034 -5.08064 0
M  V30 1029 H 86.733 -3.58033 -5.37106 0
M  V30 1030 H 87.501 -5.55494 -6.0114 0
M  V30 1031 N 90.1641 1.46063 -0.591896 0
M  V30 1032 C 91.4101 2.02638 -0.0811191 0
M  V30 1033 C 91.7431 1.4613 1.27905 0
M  V30 1034 O 91.0181 0.629908 1.84017 0
M  V30 1035 C 91.3011 3.60091 -0.0252436 0
M  V30 1036 C 91.1541 4.26965 -1.41496 0
M  V30 1037 C 92.4731 4.3496 0.670685 0
M  V30 1038 H 89.5921 0.73635 -0.0309524 0
M  V30 1039 H 92.2341 1.741 -0.760859 0
M  V30 1040 H 90.3841 3.84535 0.553624 0
M  V30 1041 H 92.0561 4.13756 -2.0397 0
M  V30 1042 H 90.2991 3.85971 -1.98011 0
M  V30 1043 H 90.9701 5.35781 -1.32825 0
M  V30 1044 H 93.4461 4.15716 0.178825 0
M  V30 1045 H 92.3221 5.44686 0.678837 0
M  V30 1046 H 92.5831 4.06685 1.73379 0
M  V30 1047 N 91.6422 0.330177 1.54103 0
M  V30 1048 C 92.5722 -0.525353 2.27513 0
M  V30 1049 C 93.5532 -1.11383 1.2856 0
M  V30 1050 O 94.7382 -1.13773 1.57383 0
M  V30 1051 C 91.8682 -1.6831 3.03791 0
M  V30 1052 C 90.8222 -1.2236 4.10137 0
M  V30 1053 C 90.1482 -2.46882 4.74293 0
M  V30 1054 C 91.4482 -0.333697 5.21233 0
M  V30 1055 H 93.1422 0.087013 2.99274 0
M  V30 1056 H 90.6882 0.0432893 1.43935 0
M  V30 1057 H 92.6412 -2.28795 3.5388 0
M  V30 1058 H 91.3652 -2.32216 2.29659 0
M  V30 1059 H 90.0242 -0.64165 3.60941 0
M  V30 1060 H 89.6722 -3.09165 3.96769 0
M  V30 1061 H 89.3722 -2.16825 5.46133 0
M  V30 1062 H 90.8962 -3.08117 5.27159 0
M  V30 1063 H 92.3102 -0.845013 5.67038 0
M  V30 1064 H 90.7072 -0.125612 5.99969 0
M  V30 1065 H 91.7772 0.633724 4.80741 0
M  V30 1066 N 93.1203 -1.57491 0.0584922 0
M  V30 1067 C 94.0303 -2.15448 -0.928414 0
M  V30 1068 C 95.0463 -1.11416 -1.3365 0
M  V30 1069 O 96.2223 -1.4362 -1.41193 0
M  V30 1070 C 93.2873 -2.69393 -2.18239 0
M  V30 1071 C 92.3483 -3.88249 -1.83196 0
M  V30 1072 C 91.5813 -4.39613 -3.02616 0
M  V30 1073 O 91.8043 -3.90023 -4.16219 0
M  V30 1074 O 90.7383 -5.31111 -2.83204 0
M  V30 1075 H 94.5643 -3.00112 -0.465483 0
M  V30 1076 H 92.1493 -1.48499 -0.163826 0
M  V30 1077 H 94.0313 -3.04026 -2.91798 0
M  V30 1078 H 92.7063 -1.87796 -2.63656 0
M  V30 1079 H 91.6133 -3.58492 -1.06931 0
M  V30 1080 H 92.9463 -4.71098 -1.42573 0
M  V30 1081 N 94.5984 0.214957 -1.56127 0
M  V30 1082 C 95.8454 0.938372 -1.79446 0
M  V30 1083 C 96.1734 1.8407 -0.628378 0
M  V30 1084 O 95.4284 1.91837 0.386925 0
M  V30 1085 C 95.7274 1.80314 -3.0858 0
M  V30 1086 C 95.3934 1.05349 -4.3842 0
M  V30 1087 C 94.0554 0.846435 -4.73697 0
M  V30 1088 C 96.4074 0.524588 -5.18553 0
M  V30 1089 C 93.7354 0.098683 -5.86617 0
M  V30 1090 C 96.0874 -0.209853 -6.32252 0
M  V30 1091 C 94.7514 -0.428102 -6.66126 0
M  V30 1092 H 94.0214 0.343375 -0.656639 0
M  V30 1093 H 96.6684 0.206077 -1.90388 0
M  V30 1094 H 94.9734 2.6035 -2.92789 0
M  V30 1095 H 96.6704 2.36513 -3.23825 0
M  V30 1096 H 93.2604 1.22486 -4.10725 0
M  V30 1097 H 97.4444 0.672008 -4.91729 0
M  V30 1098 H 92.7004 -0.0805753 -6.11347 0
M  V30 1099 H 96.8744 -0.627157 -6.9357 0
M  V30 1100 H 94.5014 -1.00944 -7.53468 0
M  V30 1101 N 96.0765 1.50051 0.48192 0
M  V30 1102 C 97.3015 1.64508 1.26301 0
M  V30 1103 C 97.7265 0.323851 1.85291 0
M  V30 1104 O 97.0845 -0.710969 1.66778 0
M  V30 1105 C 97.1325 2.7305 2.35533 0
M  V30 1106 O 96.2365 2.3355 3.39895 0
M  V30 1107 H 95.5775 0.549978 0.372048 0
M  V30 1108 H 98.1075 1.9636 0.574786 0
M  V30 1109 H 98.1175 2.95799 2.8101 0
M  V30 1110 H 96.7925 3.68946 1.91967 0
M  V30 1111 H 95.3695 2.21205 3.00204 0
M  V30 1112 N 97.5546 -0.734337 1.39446 0
M  V30 1113 C 98.8316 -1.48579 1.27215 0
M  V30 1114 C 99.2116 -2.1077 -0.117968 0
M  V30 1115 O 98.5596 -1.98646 -1.12924 0
M  V30 1116 C 98.7696 -2.53667 2.39696 0
M  V30 1117 C 100.118 -3.20031 2.79044 0
M  V30 1118 O 101.142 -2.6398 2.39151 0
M  V30 1119 O 100.001 -4.21455 3.47905 0
M  V30 1120 H 97.0946 -0.659816 0.49857 0
M  V30 1121 H 99.6406 -0.768106 1.51322 0
M  V30 1122 H 98.4126 -2.06096 3.32626 0
M  V30 1123 H 98.0356 -3.32994 2.17258 0
M  V30 1124 N 99.0327 -1.24633 -0.964593 0
M  V30 1125 C 99.9827 -1.00841 -2.04487 0
M  V30 1126 C 100.967 0.0512468 -1.60818 0
M  V30 1127 O 102.159 -0.162865 -1.76249 0
M  V30 1128 C 99.2877 -0.618474 -3.37683 0
M  V30 1129 C 98.3737 -1.71437 -3.87905 0
M  V30 1130 N 98.7647 -2.9477 -4.11029 0
M  V30 1131 C 97.0627 -1.5926 -4.16596 0
M  V30 1132 C 97.7637 -3.65834 -4.52261 0
M  V30 1133 N 96.7397 -2.9341 -4.57615 0
M  V30 1134 H 100.542 -1.94487 -2.20345 0
M  V30 1135 H 98.0557 -1.14805 -1.14863 0
M  V30 1136 H 100.053 -0.429247 -4.14684 0
M  V30 1137 H 98.7127 0.310766 -3.23209 0
M  V30 1138 H 99.7237 -3.30917 -3.9839 0
M  V30 1139 H 96.4007 -0.731606 -4.1104 0
M  V30 1140 H 97.7907 -4.71646 -4.78539 0
M  V30 1141 N 100.511 1.16574 -1.06058 0
M  V30 1142 C 101.922 1.68662 -0.800632 0
M  V30 1143 C 102.273 1.84184 0.67608 0
M  V30 1144 O 101.398 1.53568 1.52466 0
M  V30 1145 C 101.993 3.06356 -1.44676 0
M  V30 1146 C 100.552 3.55575 -1.23465 0
M  V30 1147 C 99.6988 2.31616 -1.52477 0
M  V30 1148 H 102.65 1.00969 -1.22438 0
M  V30 1149 H 102.671 3.70636 -0.860788 0
M  V30 1150 H 102.183 2.95027 -2.52152 0
M  V30 1151 H 100.284 3.72167 -0.179527 0
M  V30 1152 H 100.397 4.37812 -1.94571 0
M  V30 1153 H 98.7608 2.36512 -0.945209 0
M  V30 1154 H 99.5438 2.22887 -2.61106 0
M  V30 1155 N 101.989 0.842826 1.3317 0
M  V30 1156 C 103.237 0.439577 1.97262 0
M  V30 1157 C 103.558 -1.00548 1.67078 0
M  V30 1158 O 102.828 -1.70098 0.971779 0
M  V30 1159 H 101.408 0.159558 0.72976 0
M  V30 1160 H 104.07 1.07665 1.62463 0
M  V30 1161 H 103.166 0.574886 3.0676 0
M  V30 1162 N 103.467 -1.45747 0.599634 0
M  V30 1163 C 104.716 -2.01502 0.0893511 0
M  V30 1164 C 105.029 -1.4748 -1.28488 0
M  V30 1165 O 106.235 -1.95161 -1.88745 0
M  V30 1166 C 104.691 -3.59735 0.109082 0
M  V30 1167 C 104.299 -4.22754 1.48267 0
M  V30 1168 C 106.043 -4.23085 -0.346374 0
M  V30 1169 C 103.95 -5.73115 1.45921 0
M  V30 1170 H 102.88 -0.753417 0.0296347 0
M  V30 1171 H 105.531 -1.67303 0.753788 0
M  V30 1172 H 103.913 -3.91087 -0.621854 0
M  V30 1173 H 105.087 -4.02987 2.23468 0
M  V30 1174 H 103.402 -3.71567 1.87955 0
M  V30 1175 H 105.999 -5.33327 -0.38298 0
M  V30 1176 H 106.342 -3.93201 -1.36743 0
M  V30 1177 H 106.875 -3.9642 0.331038 0
M  V30 1178 H 103.614 -6.07685 2.45762 0
M  V30 1179 H 103.134 -5.95097 0.749665 0
M  V30 1180 H 104.813 -6.3616 1.17941 0
M  V30 1181 N 104.945 -0.338344 -1.53925 0
M  V30 1182 C 105.895 0.536712 -2.21593 0
M  V30 1183 C 106.879 1.07015 -1.20153 0
M  V30 1184 O 108.071 1.00471 -1.45721 0
M  V30 1185 C 105.2 1.68977 -2.98834 0
M  V30 1186 C 104.286 1.17052 -4.07627 0
M  V30 1187 N 104.677 0.372085 -5.0443 0
M  V30 1188 C 102.975 1.44789 -4.21844 0
M  V30 1189 C 103.676 0.0909171 -5.81629 0
M  V30 1190 N 102.652 0.681131 -5.39316 0
M  V30 1191 H 106.454 -0.0804298 -2.9379 0
M  V30 1192 H 103.968 -0.144943 -1.61752 0
M  V30 1193 H 105.965 2.32857 -3.45808 0
M  V30 1194 H 104.625 2.31024 -2.28162 0
M  V30 1195 H 105.636 0.0136217 -5.17898 0
M  V30 1196 H 102.313 2.07313 -3.62391 0
M  V30 1197 H 103.703 -0.552817 -6.69622 0
M  V30 1198 N 106.423 1.57458 -0.0668435 0
M  V30 1199 C 107.333 2.15937 0.916975 0
M  V30 1200 C 108.349 1.12123 1.33058 0
M  V30 1201 O 109.525 1.44366 1.40429 0
M  V30 1202 C 106.59 2.70547 2.16807 0
M  V30 1203 C 105.651 3.89215 1.81135 0
M  V30 1204 C 104.884 4.41211 3.0028 0
M  V30 1205 O 105.107 3.92225 4.14144 0
M  V30 1206 O 104.041 5.32605 2.80384 0
M  V30 1207 H 107.867 3.00354 0.449561 0
M  V30 1208 H 105.452 1.48584 0.155949 0
M  V30 1209 H 107.334 3.0557 2.90181 0
M  V30 1210 H 106.009 1.89192 2.62656 0
M  V30 1211 H 104.916 3.59054 1.05028 0
M  V30 1212 H 106.249 4.71848 1.40073 0
M  V30 1213 N 107.901 -0.206675 1.56239 0
M  V30 1214 C 109.312 -0.772383 1.69974 0
M  V30 1215 C 109.663 -1.84353 0.671436 0
M  V30 1216 O 108.788 -2.15695 -0.174491 0
M  V30 1217 C 109.383 -1.40779 3.08167 0
M  V30 1218 C 107.942 -1.92072 3.23706 0
M  V30 1219 C 107.089 -0.786347 2.65917 0
M  V30 1220 H 110.04 0.0182223 1.5869 0
M  V30 1221 H 110.061 -2.27696 3.04852 0
M  V30 1222 H 109.573 -0.627958 3.82986 0
M  V30 1223 H 107.674 -2.7281 2.53782 0
M  V30 1224 H 107.787 -2.09046 4.31087 0
M  V30 1225 H 106.151 -1.1976 2.24788 0
M  V30 1226 H 106.934 -0.0189416 3.43295 0
M  V30 1227 N 109.379 -1.50304 -0.473955 0
M  V30 1228 C 110.309 -1.71886 -1.58042 0
M  V30 1229 C 111.29 -0.567799 -1.60344 0
M  V30 1230 O 112.475 -0.806623 -1.76656 0
M  V30 1231 C 109.605 -1.81036 -2.96384 0
M  V30 1232 C 108.559 -2.962 -3.08949 0
M  V30 1233 C 107.885 -2.9049 -4.48909 0
M  V30 1234 C 109.185 -4.36752 -2.86434 0
M  V30 1235 H 110.879 -2.64527 -1.40234 0
M  V30 1236 H 108.425 -1.27295 -0.673201 0
M  V30 1237 H 110.378 -1.94719 -3.73714 0
M  V30 1238 H 109.102 -0.850147 -3.15341 0
M  V30 1239 H 107.761 -2.82164 -2.3405 0
M  V30 1240 H 107.409 -1.92321 -4.64781 0
M  V30 1241 H 107.109 -3.67802 -4.58253 0
M  V30 1242 H 108.633 -3.06218 -5.28264 0
M  V30 1243 H 110.047 -4.5133 -3.53517 0
M  V30 1244 H 108.444 -5.15493 -3.07225 0
M  V30 1245 H 109.514 -4.49321 -1.82316 0
M  V30 1246 N 110.857 0.726932 -1.39834 0
M  V30 1247 C 111.767 1.87131 -1.41489 0
M  V30 1248 C 112.783 1.71239 -0.308757 0
M  V30 1249 O 113.959 1.93701 -0.551529 0
M  V30 1250 C 111.024 3.22811 -1.26468 0
M  V30 1251 C 110.085 3.51039 -2.47124 0
M  V30 1252 C 109.318 4.80245 -2.3281 0
M  V30 1253 O 109.541 5.54537 -1.33585 0
M  V30 1254 O 108.475 5.08554 -3.21957 0
M  V30 1255 H 112.301 1.8869 -2.3797 0
M  V30 1256 H 109.886 0.875837 -1.21035 0
M  V30 1257 H 111.768 4.03877 -1.20255 0
M  V30 1258 H 110.443 3.22005 -0.330862 0
M  V30 1259 H 109.35 2.70027 -2.58914 0
M  V30 1260 H 110.683 3.56632 -3.39227 0
M  V30 1261 N 112.336 1.25143 0.95797 0
M  V30 1262 C 113.747 1.08851 1.51685 0
M  V30 1263 C 114.098 -0.33687 1.93286 0
M  V30 1264 O 113.223 -1.22644 1.7829 0
M  V30 1265 C 113.818 1.96978 2.75654 0
M  V30 1266 C 112.377 1.84881 3.27866 0
M  V30 1267 C 111.524 1.91329 2.0072 0
M  V30 1268 H 114.475 1.38478 0.77522 0
M  V30 1269 H 114.496 1.5078 3.4935 0
M  V30 1270 H 114.008 3.00712 2.45345 0
M  V30 1271 H 112.109 0.840182 3.63004 0
M  V30 1272 H 112.222 2.6951 3.96107 0
M  V30 1273 H 110.586 1.35174 2.15871 0
M  V30 1274 H 111.369 2.96661 1.72764 0
M  V30 1275 N 113.814 -1.1601 1.06675 0
M  V30 1276 C 114.724 -2.24156 0.692179 0
M  V30 1277 C 115.74 -1.71507 -0.293513 0
M  V30 1278 O 116.916 -2.009 -0.141861 0
M  V30 1279 C 113.981 -3.46587 0.0884131 0
M  V30 1280 C 113.042 -4.14257 1.12646 0
M  V30 1281 C 112.275 -5.30844 0.551416 0
M  V30 1282 O 112.498 -5.66858 -0.634656 0
M  V30 1283 O 111.432 -5.87848 1.29298 0
M  V30 1284 H 115.258 -2.58513 1.59388 0
M  V30 1285 H 112.843 -1.23599 0.83926 0
M  V30 1286 H 114.725 -4.20679 -0.246361 0
M  V30 1287 H 113.4 -3.13994 -0.786712 0
M  V30 1288 H 112.307 -3.42118 1.51348 0
M  V30 1289 H 113.64 -4.50914 1.97325 0
M  V30 1290 N 115.292 -0.849877 -1.32721 0
M  V30 1291 C 116.538 -0.451591 -1.97708 0
M  V30 1292 C 116.871 0.989175 -1.6712 0
M  V30 1293 O 116.146 1.69334 -0.956891 0
M  V30 1294 C 116.429 -0.685598 -3.53513 0
M  V30 1295 C 116.282 -2.17444 -3.93749 0
M  V30 1296 C 117.601 -0.138874 -4.39881 0
M  V30 1297 H 114.72 -0.16555 -0.718166 0
M  V30 1298 H 117.362 -1.06742 -1.57182 0
M  V30 1299 H 115.512 -0.161416 -3.88165 0
M  V30 1300 H 117.184 -2.76433 -3.693 0
M  V30 1301 H 115.427 -2.65476 -3.43081 0
M  V30 1302 H 116.098 -2.28888 -5.02309 0
M  V30 1303 H 118.574 -0.587068 -4.11938 0
M  V30 1304 H 117.45 -0.332213 -5.47894 0
M  V30 1305 H 117.711 0.95806 -4.31594 0
M  V30 1306 N 116.77 1.45427 -0.607355 0
M  V30 1307 C 117.717 2.3053 0.111625 0
M  V30 1308 C 118.687 1.4209 0.860216 0
M  V30 1309 O 119.872 1.71019 0.845998 0
M  V30 1310 C 117.012 3.26992 1.10319 0
M  V30 1311 C 116.125 4.30535 0.355493 0
M  V30 1312 C 115.26 5.14105 1.33676 0
M  V30 1313 C 114.299 6.09376 0.576862 0
M  V30 1314 N 113.436 6.85727 1.5074 0
M  V30 1315 H 118.276 2.91477 -0.620093 0
M  V30 1316 H 115.813 1.43631 -0.317594 0
M  V30 1317 H 117.771 3.81385 1.6912 0
M  V30 1318 H 116.401 2.67799 1.80232 0
M  V30 1319 H 115.453 3.78805 -0.348023 0
M  V30 1320 H 116.765 4.98235 -0.237423 0
M  V30 1321 H 115.919 5.72897 1.99684 0
M  V30 1322 H 114.658 4.46423 1.9636 0
M  V30 1323 H 113.663 5.49715 -0.0968519 0
M  V30 1324 H 114.888 6.79085 -0.0449341 0
M  V30 1325 H 112.834 6.20735 2.12189 0
M  V30 1326 H 112.751 7.49778 0.967913 0
M  V30 1327 H 114.019 7.4906 2.15706 0
M  V30 1328 N 118.248 0.346503 1.53744 0
M  V30 1329 C 119.478 -0.250047 2.05081 0
M  V30 1330 C 119.886 -1.44529 1.22098 0
M  V30 1331 O 119.229 -1.81992 0.249917 0
M  V30 1332 C 119.291 -0.725934 3.52094 0
M  V30 1333 C 118.955 0.350053 4.55657 0
M  V30 1334 C 119.952 1.19372 5.0601 0
M  V30 1335 C 117.637 0.504827 4.99757 0
M  V30 1336 C 119.631 2.17768 5.99046 0
M  V30 1337 C 117.318 1.49218 5.92602 0
M  V30 1338 C 118.316 2.32706 6.42135 0
M  V30 1339 O 118.004 3.2976 7.33153 0
M  V30 1340 H 117.736 -0.0515469 0.674032 0
M  V30 1341 H 120.29 0.497559 1.99282 0
M  V30 1342 H 118.52 -1.52483 3.55367 0
M  V30 1343 H 120.209 -1.24336 3.86388 0
M  V30 1344 H 120.975 1.08525 4.72702 0
M  V30 1345 H 116.854 -0.135178 4.60802 0
M  V30 1346 H 120.398 2.82971 6.37631 0
M  V30 1347 H 116.295 1.6012 6.25325 0
M  V30 1348 H 117.063 3.25265 7.51096 0
M  V30 1349 N 119.726 -1.57421 0.075193 0
M  V30 1350 C 120.972 -1.93905 -0.594025 0
M  V30 1351 C 121.305 -0.955701 -1.69056 0
M  V30 1352 O 120.58 0.0145373 -1.94495 0
M  V30 1353 C 120.863 -3.40638 -1.1678 0
M  V30 1354 C 120.716 -4.49733 -0.0776792 0
M  V30 1355 C 122.035 -3.88259 -2.07228 0
M  V30 1356 H 119.154 -0.705105 -0.214466 0
M  V30 1357 H 121.796 -1.8947 0.141854 0
M  V30 1358 H 119.946 -3.44549 -1.79494 0
M  V30 1359 H 121.618 -4.57942 0.555573 0
M  V30 1360 H 119.861 -4.29751 0.591286 0
M  V30 1361 H 120.532 -5.49549 -0.519603 0
M  V30 1362 H 123.008 -3.86376 -1.54445 0
M  V30 1363 H 121.884 -4.91533 -2.44308 0
M  V30 1364 H 122.145 -3.26396 -2.98191 0
M  V30 1365 N 121.204 0.198386 -1.56346 0
M  V30 1366 C 122.452 0.91747 -1.80075 0
M  V30 1367 C 122.773 1.83929 -0.647692 0
M  V30 1368 O 122.043 1.93029 0.334166 0
M  V30 1369 H 120.623 0.341774 -0.664228 0
M  V30 1370 H 123.285 0.204684 -1.93822 0
M  V30 1371 H 122.381 1.51055 -2.7311 0
M  V30 1372 N 122.682 1.50554 0.465978 0
M  V30 1373 C 123.63 1.70324 1.58406 0
M  V30 1374 C 124.624 0.569139 1.59553 0
M  V30 1375 O 125.83 0.749776 1.63641 0
M  V30 1376 H 122.205 0.537688 0.525734 0
M  V30 1377 H 124.176 2.64104 1.38894 0
M  V30 1378 C 122.925 1.81928 2.96307 0
M  V30 1379 H 122.248 2.68586 2.96144 0
M  V30 1380 H 123.688 1.99784 3.73982 0
M  V30 1381 C 122.147 0.572095 3.32007 0
M  V30 1382 O 122.677 -0.286416 4.00678 0
M  V30 1383 N 120.883 0.424606 2.87481 0
M  V30 1384 H 120.43 1.12427 2.31771 0
M  V30 1385 H 120.388 -0.408697 3.11732 0
M  V30 1386 N 124.16 -0.719506 1.40217 0
M  V30 1387 C 125.093 -1.84298 1.34571 0
M  V30 1388 C 126.071 -1.61149 0.216741 0
M  V30 1389 O 127.255 -1.84212 0.399756 0
M  V30 1390 C 124.382 -3.20568 1.09335 0
M  V30 1391 C 123.428 -3.62551 2.24631 0
M  V30 1392 S 124.261 -3.7012 3.87004 0
M  V30 1393 C 125.417 -5.09154 3.64024 0
M  V30 1394 H 125.65 -1.88807 2.2965 0
M  V30 1395 H 123.183 -0.885901 1.26456 0
M  V30 1396 H 125.141 -3.99246 0.954602 0
M  V30 1397 H 123.802 -3.13696 0.159164 0
M  V30 1398 H 122.995 -4.61483 2.02606 0
M  V30 1399 H 122.597 -2.91119 2.34789 0
M  V30 1400 H 124.889 -5.95955 3.22248 0
M  V30 1401 H 125.832 -5.36213 4.62473 0
M  V30 1402 H 126.24 -4.79562 2.97793 0
M  V30 1403 N 125.638 -1.25649 -0.95132 0
M  V30 1404 C 126.588 -1.03004 -2.03406 0
M  V30 1405 C 127.572 0.034187 -1.60864 0
M  V30 1406 O 128.764 -0.181549 -1.76066 0
M  V30 1407 C 125.893 -0.654255 -3.37008 0
M  V30 1408 C 124.979 -1.75542 -3.86065 0
M  V30 1409 N 125.37 -2.99113 -4.07879 0
M  V30 1410 C 123.668 -1.63669 -4.14884 0
M  V30 1411 C 124.369 -3.70611 -4.48356 0
M  V30 1412 N 123.345 -2.98247 -4.54477 0
M  V30 1413 H 127.147 -1.96813 -2.1827 0
M  V30 1414 H 124.661 -1.16017 -1.13639 0
M  V30 1415 H 126.658 -0.473206 -4.14206 0
M  V30 1416 H 125.318 0.276468 -3.23521 0
M  V30 1417 H 126.329 -3.35124 -3.94857 0
M  V30 1418 H 123.006 -0.775161 -4.10241 0
M  V30 1419 H 124.396 -4.76695 -4.73509 0
M  V30 1420 N 127.117 1.15442 -1.07289 0
M  V30 1421 C 128.365 1.85845 -0.794096 0
M  V30 1422 C 128.686 1.82692 0.681809 0
M  V30 1423 O 127.956 1.26741 1.49377 0
M  V30 1424 H 126.536 0.688089 -0.290763 0
M  V30 1425 H 129.198 1.39947 -1.3565 0
M  V30 1426 H 128.294 2.91001 -1.12804 0
M  V30 1427 N 128.595 0.856903 1.32268 0
M  V30 1428 C 129.543 0.291987 2.3076 0
M  V30 1429 C 130.537 -0.585857 1.58947 0
M  V30 1430 O 131.743 -0.47341 1.73663 0
M  V30 1431 H 128.118 0.075721 0.748178 0
M  V30 1432 H 130.089 1.13687 2.75895 0
M  V30 1433 C 128.838 -0.502869 3.44044 0
M  V30 1434 H 128.161 0.163328 3.99466 0
M  V30 1435 H 129.601 -0.863691 4.1511 0
M  V30 1436 C 128.06 -1.68898 2.91505 0
M  V30 1437 O 128.59 -2.78811 2.89184 0
M  V30 1438 N 126.796 -1.51679 2.47875 0
M  V30 1439 H 126.343 -0.622666 2.49961 0
M  V30 1440 H 126.301 -2.31184 2.13076 0
M  V30 1441 N 130.073 -1.45103 0.615059 0
M  V30 1442 C 130.983 -2.34382 -0.101034 0
M  V30 1443 C 131.999 -1.51681 -0.852585 0
M  V30 1444 O 133.175 -1.8446 -0.808484 0
M  V30 1445 C 130.24 -3.29417 -1.08099 0
M  V30 1446 C 129.301 -4.28025 -0.330577 0
M  V30 1447 C 128.534 -5.1852 -1.26385 0
M  V30 1448 O 128.757 -5.12598 -2.50198 0
M  V30 1449 O 127.691 -5.97122 -0.756866 0
M  V30 1450 H 131.517 -2.97033 0.632855 0
M  V30 1451 H 129.102 -1.4461 0.375293 0
M  V30 1452 H 130.984 -3.87958 -1.6452 0
M  V30 1453 H 129.659 -2.69321 -1.79577 0
M  V30 1454 H 128.566 -3.73078 0.276283 0
M  V30 1455 H 129.899 -4.90997 0.343866 0
M  V30 1456 N 131.551 -0.354651 -1.53558 0
M  V30 1457 C 132.514 0.484566 -2.24019 0
M  V30 1458 C 133.514 1.01861 -1.24422 0
M  V30 1459 O 134.704 0.906097 -1.4878 0
M  V30 1460 C 131.836 1.67615 -2.96847 0
M  V30 1461 H 133.029 -0.131843 -2.9961 0
M  V30 1462 H 130.582 -0.106165 -1.55939 0
M  V30 1463 H 131.317 2.33095 -2.25471 0
M  V30 1464 H 131.102 1.30029 -3.69912 0
M  V30 1465 H 132.592 2.27114 -3.50441 0
M  V30 1466 N 133.029 1.57378 -0.0835403 0
M  V30 1467 C 133.959 2.1641 0.87686 0
M  V30 1468 C 134.94 1.09429 1.30228 0
M  V30 1469 O 136.125 1.37516 1.37124 0
M  V30 1470 C 133.255 2.73517 2.14022 0
M  V30 1471 C 132.209 3.85769 1.85381 0
M  V30 1472 C 131.535 4.29529 3.18448 0
M  V30 1473 C 132.835 5.09486 1.14984 0
M  V30 1474 H 134.529 2.96914 0.385059 0
M  V30 1475 H 132.075 1.42823 0.18377 0
M  V30 1476 H 134.028 3.13463 2.81636 0
M  V30 1477 H 132.752 1.90252 2.65465 0
M  V30 1478 H 131.411 3.46345 1.20169 0
M  V30 1479 H 131.059 3.43169 3.67755 0
M  V30 1480 H 130.759 5.05204 3.00071 0
M  V30 1481 H 132.283 4.72099 3.8724 0
M  V30 1482 H 133.697 5.46674 1.72687 0
M  V30 1483 H 132.094 5.90515 1.06826 0
M  V30 1484 H 133.164 4.84724 0.130749 0
M  V30 1485 N 134.507 -0.190092 1.56449 0
M  V30 1486 C 135.755 -0.907908 1.80559 0
M  V30 1487 C 136.076 -1.83583 0.657438 0
M  V30 1488 O 135.346 -1.93203 -0.323924 0
M  V30 1489 H 133.926 -0.338247 0.666032 0
M  V30 1490 H 136.588 -0.194403 1.93928 0
M  V30 1491 H 135.684 -1.49604 2.73907 0
M  V30 1492 N 135.985 -1.50799 -0.457987 0
M  V30 1493 C 137.401 -1.38515 -0.792819 0
M  V30 1494 C 137.601 -0.451409 -1.96379 0
M  V30 1495 O 136.657 0.10112 -2.52297 0
M  V30 1496 C 137.97 -2.80149 -1.09258 0
M  V30 1497 C 139.518 -2.89156 -1.19825 0
M  V30 1498 C 139.993 -4.31651 -1.53106 0
M  V30 1499 N 141.484 -4.34662 -1.60072 0
M  V30 1500 C 142.219 -5.41928 -1.87354 0
M  V30 1501 N 141.715 -6.59384 -2.12568 0
M  V30 1502 N 143.508 -5.29385 -1.88965 0
M  V30 1503 H 135.659 -2.10073 0.313511 0
M  V30 1504 H 137.922 -0.944803 0.0777862 0
M  V30 1505 H 137.628 -3.50374 -0.305084 0
M  V30 1506 H 137.502 -3.18204 -2.02549 0
M  V30 1507 H 139.889 -2.19141 -1.97639 0
M  V30 1508 H 139.97 -2.54626 -0.244821 0
M  V30 1509 H 139.614 -5.02208 -0.758266 0
M  V30 1510 H 139.544 -4.63678 -2.49621 0
M  V30 1511 H 142.035 -3.49973 -1.42573 0
M  V30 1512 H 142.348 -7.36934 -2.32696 0
M  V30 1513 H 140.693 -6.62535 -2.09933 0
M  V30 1514 H 143.884 -4.36616 -1.68772 0
M  V30 1515 H 144.057 -6.13066 -2.09891 0
M  V30 1516 N 137.463 0.71206 -1.40597 0
M  V30 1517 C 138.373 1.8562 -1.43466 0
M  V30 1518 C 139.389 1.70902 -0.326902 0
M  V30 1519 O 140.565 1.93105 -0.572043 0
M  V30 1520 C 137.63 3.21451 -1.29884 0
M  V30 1521 C 136.691 3.48398 -2.50833 0
M  V30 1522 C 135.924 4.77749 -2.3789 0
M  V30 1523 O 136.147 5.53089 -1.39459 0
M  V30 1524 O 135.081 5.05111 -3.27333 0
M  V30 1525 H 138.907 1.86155 -2.39958 0
M  V30 1526 H 136.492 0.86295 -1.21957 0
M  V30 1527 H 138.374 4.02579 -1.24531 0
M  V30 1528 H 137.049 3.21636 -0.364997 0
M  V30 1529 H 135.956 2.67265 -2.61763 0
M  V30 1530 H 137.289 3.53014 -3.4299 0
M  V30 1531 N 138.941 1.26152 0.944643 0
M  V30 1532 C 139.871 1.09902 2.06019 0
M  V30 1533 C 140.852 0.00519538 1.70099 0
M  V30 1534 O 142.037 0.176583 1.93396 0
M  V30 1535 C 139.167 0.727562 3.39594 0
M  V30 1536 C 138.121 1.77274 3.89561 0
M  V30 1537 C 137.447 1.25569 5.19747 0
M  V30 1538 C 138.747 3.17357 4.14827 0
M  V30 1539 H 140.441 2.03217 2.19871 0
M  V30 1540 H 137.987 0.978452 1.05652 0
M  V30 1541 H 139.94 0.600777 4.17095 0
M  V30 1542 H 138.664 -0.241287 3.25707 0
M  V30 1543 H 137.323 1.88814 3.14237 0
M  V30 1544 H 136.971 0.276783 5.02238 0
M  V30 1545 H 136.671 1.95433 5.54148 0
M  V30 1546 H 138.195 1.1415 5.99835 0
M  V30 1547 H 139.609 3.08914 4.82954 0
M  V30 1548 H 138.006 3.84781 4.60504 0
M  V30 1549 H 139.076 3.63673 3.20734 0
M  V30 1550 N 140.419 -1.14872 1.07899 0
M  V30 1551 C 141.352 -2.18794 0.64841 0
M  V30 1552 C 142.33 -1.59065 -0.337189 0
M  V30 1553 O 143.514 -1.86936 -0.242284 0
M  V30 1554 C 140.641 -3.38667 -0.0470417 0
M  V30 1555 C 139.687 -4.16942 0.897884 0
M  V30 1556 S 140.52 -4.78615 2.40183 0
M  V30 1557 C 141.676 -6.0185 1.71834 0
M  V30 1558 H 141.909 -2.5498 1.52881 0
M  V30 1559 H 139.442 -1.25922 0.893484 0
M  V30 1560 H 141.4 -4.08113 -0.442027 0
M  V30 1561 H 140.061 -3.00814 -0.903861 0
M  V30 1562 H 139.254 -5.02726 0.358096 0
M  V30 1563 H 138.856 -3.53073 1.23352 0
M  V30 1564 H 141.148 -6.69574 1.03328 0
M  V30 1565 H 142.091 -6.60408 2.55473 0
M  V30 1566 H 142.499 -5.5173 1.19392 0
M  V30 1567 N 141.898 -0.863906 -1.31812 0
M  V30 1568 C 142.828 -0.330843 -2.31144 0
M  V30 1569 C 143.809 0.575005 -1.60087 0
M  V30 1570 O 144.994 0.493304 -1.8783 0
M  V30 1571 C 142.124 0.47374 -3.44054 0
M  V30 1572 C 141.078 -0.338481 -4.26659 0
M  V30 1573 C 140.404 0.591412 -5.31419 0
M  V30 1574 C 141.704 -1.56926 -4.98168 0
M  V30 1575 H 143.398 -1.16086 -2.75979 0
M  V30 1576 H 140.944 -0.559657 -1.32679 0
M  V30 1577 H 142.897 0.857143 -4.12591 0
M  V30 1578 H 141.621 1.33721 -2.9797 0
M  V30 1579 H 140.28 -0.703754 -3.59782 0
M  V30 1580 H 139.928 1.45199 -4.81587 0
M  V30 1581 H 139.628 0.0519022 -5.87577 0
M  V30 1582 H 141.152 0.97179 -6.02817 0
M  V30 1583 H 142.566 -1.25764 -5.59336 0
M  V30 1584 H 140.963 -2.04739 -5.64094 0
M  V30 1585 H 142.033 -2.32544 -4.25501 0
M  V30 1586 N 143.376 1.44774 -0.622745 0
M  V30 1587 C 144.308 2.28856 0.125485 0
M  V30 1588 C 145.321 1.40811 0.817069 0
M  V30 1589 O 146.51 1.65044 0.679918 0
M  V30 1590 C 143.61 3.16963 1.19949 0
M  V30 1591 C 142.783 4.33374 0.592064 0
M  V30 1592 C 141.842 5.02577 1.55893 0
M  V30 1593 O 140.868 5.58873 1.07933 0
M  V30 1594 N 142.07 5.03256 2.89334 0
M  V30 1595 H 144.835 2.93713 -0.596068 0
M  V30 1596 H 142.396 1.55129 -0.463303 0
M  V30 1597 H 144.388 3.60123 1.84644 0
M  V30 1598 H 142.958 2.53913 1.82337 0
M  V30 1599 H 142.178 3.93509 -0.233322 0
M  V30 1600 H 143.466 5.08527 0.166738 0
M  V30 1601 H 142.864 4.58836 3.30887 0
M  V30 1602 H 141.421 5.50232 3.49412 0
M  V30 1603 N 144.854 0.36279 1.53368 0
M  V30 1604 C 145.784 -0.476976 2.28576 0
M  V30 1605 C 146.765 -1.08631 1.30894 0
M  V30 1606 O 147.95 -1.10409 1.59761 0
M  V30 1607 C 145.08 -1.61828 3.07293 0
M  V30 1608 C 144.034 -1.13633 4.1264 0
M  V30 1609 C 143.36 -2.36766 4.79423 0
M  V30 1610 C 144.66 -0.223061 5.21823 0
M  V30 1611 H 146.354 0.150474 2.99022 0
M  V30 1612 H 143.9 0.0738103 1.43811 0
M  V30 1613 H 145.853 -2.21237 3.58653 0
M  V30 1614 H 144.577 -2.27292 2.34533 0
M  V30 1615 H 143.236 -0.564945 3.62221 0
M  V30 1616 H 142.884 -3.0068 4.03238 0
M  V30 1617 H 142.584 -2.05192 5.50609 0
M  V30 1618 H 144.108 -2.96865 5.33576 0
M  V30 1619 H 145.522 -0.724545 5.68703 0
M  V30 1620 H 143.919 0.001678 6.001 0
M  V30 1621 H 144.989 0.735553 4.79289 0
M  V30 1622 N 146.332 -1.57332 0.0918853 0
M  V30 1623 C 147.557 -1.98995 -0.584442 0
M  V30 1624 C 147.982 -0.970528 -1.61128 0
M  V30 1625 O 147.34 0.0613904 -1.81196 0
M  V30 1626 C 147.388 -3.39636 -1.21161 0
M  V30 1627 O 146.492 -3.40447 -2.32744 0
M  V30 1628 H 145.833 -0.647165 -0.148572 0
M  V30 1629 H 148.363 -2.03873 0.172347 0
M  V30 1630 H 148.373 -3.7726 -1.55367 0
M  V30 1631 H 147.048 -4.13356 -0.459313 0
M  V30 1632 H 145.625 -3.14614 -2.0018 0
M  V30 1633 N 147.81 0.181792 -1.56548 0
M  V30 1634 C 148.72 1.24538 -1.98815 0
M  V30 1635 C 149.736 1.49045 -0.897861 0
M  V30 1636 O 150.912 1.61399 -1.20467 0
M  V30 1637 C 147.977 2.56683 -2.33055 0
M  V30 1638 C 147.038 2.40131 -3.55859 0
M  V30 1639 C 146.271 3.65975 -3.88456 0
M  V30 1640 O 146.494 4.70711 -3.22161 0
M  V30 1641 O 145.428 3.6071 -4.81842 0
M  V30 1642 H 149.254 0.916647 -2.89536 0
M  V30 1643 H 146.839 0.387842 -1.44278 0
M  V30 1644 H 148.721 3.34655 -2.56094 0
M  V30 1645 H 147.396 2.89157 -1.45498 0
M  V30 1646 H 146.303 1.60226 -3.38051 0
M  V30 1647 H 147.636 2.12585 -4.43924 0
M  V30 1648 N 149.288 1.51039 0.449983 0
M  V30 1649 C 150.535 1.63081 1.20045 0
M  V30 1650 C 150.863 0.341024 1.91487 0
M  V30 1651 O 150.118 -0.674276 1.83717 0
M  V30 1652 C 150.417 2.77556 2.25161 0
M  V30 1653 C 150.083 4.17289 1.70823 0
M  V30 1654 C 148.745 4.55305 1.55725 0
M  V30 1655 C 151.097 5.04536 1.3074 0
M  V30 1656 C 148.425 5.78287 0.989999 0
M  V30 1657 C 150.777 6.28085 0.754482 0
M  V30 1658 C 149.441 6.64885 0.590308 0
M  V30 1659 H 148.711 0.596755 0.439277 0
M  V30 1660 H 151.358 1.85037 0.49333 0
M  V30 1661 H 149.663 2.49771 3.01863 0
M  V30 1662 H 151.36 2.84073 2.83026 0
M  V30 1663 H 147.95 3.8731 1.83546 0
M  V30 1664 H 152.134 4.75782 1.41229 0
M  V30 1665 H 147.39 6.05456 0.850451 0
M  V30 1666 H 151.564 6.95038 0.435324 0
M  V30 1667 H 149.191 7.60055 0.14862 0
M  V30 1668 N 150.766 -0.704594 1.40972 0
M  V30 1669 C 151.696 -1.83124 1.44872 0
M  V30 1670 C 152.677 -1.67281 0.30838 0
M  V30 1671 O 153.862 -1.87149 0.518556 0
M  V30 1672 C 150.992 -3.21181 1.32136 0
M  V30 1673 C 149.946 -3.51714 2.43888 0
M  V30 1674 C 149.272 -4.89032 2.16222 0
M  V30 1675 C 150.572 -3.516 3.86232 0
M  V30 1676 H 152.266 -1.80117 2.39161 0
M  V30 1677 H 149.812 -0.865145 1.15114 0
M  V30 1678 H 151.765 -3.99702 1.33479 0
M  V30 1679 H 150.489 -3.24791 0.343279 0
M  V30 1680 H 149.148 -2.75539 2.41813 0
M  V30 1681 H 148.796 -4.89256 1.16778 0
M  V30 1682 H 148.496 -5.10426 2.911 0
M  V30 1683 H 150.02 -5.69873 2.19265 0
M  V30 1684 H 151.434 -4.2014 3.9007 0
M  V30 1685 H 149.831 -3.84523 4.60719 0
M  V30 1686 H 150.901 -2.50757 4.15029 0
M  V30 1687 N 152.244 -1.26651 -0.937939 0
M  V30 1688 C 153.484 -1.13611 -1.69917 0
M  V30 1689 C 153.848 0.314687 -1.89404 0
M  V30 1690 O 155.049 0.567285 -2.62746 0
M  V30 1691 C 153.32 -1.88742 -3.03498 0
M  V30 1692 S 154.879 -1.91794 -3.94665 0
M  V30 1693 H 151.697 -0.405767 -0.583844 0
M  V30 1694 H 154.299 -1.60416 -1.11745 0
M  V30 1695 H 153.003 -2.9336 -2.86999 0
M  V30 1696 H 152.534 -1.42391 -3.66727 0
M  V30 1697 H 154.549 -1.00698 -4.85875 0
M  V30 1698 N 153.722 1.14298 -1.08507 0
M  V30 1699 C 154.632 2.23027 -0.727753 0
M  V30 1700 C 155.648 1.71952 0.26619 0
M  V30 1701 O 156.824 2.011 0.109882 0
M  V30 1702 C 153.889 3.46403 -0.143541 0
M  V30 1703 C 152.95 4.12413 -1.19223 0
M  V30 1704 C 152.183 5.29899 -0.635798 0
M  V30 1705 O 152.406 5.67796 0.544393 0
M  V30 1706 O 151.34 5.85717 -1.38634 0
M  V30 1707 H 155.166 2.55945 -1.63481 0
M  V30 1708 H 152.751 1.22248 -0.858817 0
M  V30 1709 H 154.633 4.21018 0.179404 0
M  V30 1710 H 153.308 3.15206 0.736659 0
M  V30 1711 H 152.215 3.39667 -1.56772 0
M  V30 1712 H 153.548 4.47718 -2.04474 0
M  V30 1713 N 155.201 0.870884 1.31352 0
M  V30 1714 C 156.111 0.330783 2.32256 0
M  V30 1715 C 157.127 -0.559767 1.6475 0
M  V30 1716 O 158.303 -0.456263 1.96164 0
M  V30 1717 C 155.368 -0.458137 3.4366 0
M  V30 1718 C 154.429 0.460482 4.26823 0
M  V30 1719 C 153.662 -0.290881 5.32907 0
M  V30 1720 O 153.885 -1.51885 5.49806 0
M  V30 1721 O 152.819 0.351732 6.00871 0
M  V30 1722 H 156.645 1.16718 2.80376 0
M  V30 1723 H 154.23 0.634285 1.35267 0
M  V30 1724 H 156.112 -0.905343 4.1156 0
M  V30 1725 H 154.787 -1.27106 2.97701 0
M  V30 1726 H 153.694 0.956207 3.61673 0
M  V30 1727 H 155.027 1.23903 4.7635 0
M  V30 1728 N 156.679 -1.44442 0.630414 0
M  V30 1729 C 157.926 -2.02052 0.134617 0
M  V30 1730 C 158.254 -1.49576 -1.24327 0
M  V30 1731 O 157.509 -0.669806 -1.83881 0
M  V30 1732 C 157.808 -3.57332 0.0697835 0
M  V30 1733 C 157.474 -4.29058 1.38635 0
M  V30 1734 C 156.136 -4.4837 1.74694 0
M  V30 1735 C 158.488 -4.69872 2.25543 0
M  V30 1736 C 155.816 -5.05756 2.97369 0
M  V30 1737 C 158.168 -5.28616 3.47487 0
M  V30 1738 C 156.832 -5.46147 3.8377 0
M  V30 1739 H 156.102 -0.739361 0.0492598 0
M  V30 1740 H 158.749 -1.73217 0.816586 0
M  V30 1741 H 157.054 -3.85577 -0.695553 0
M  V30 1742 H 158.751 -3.99637 -0.330344 0
M  V30 1743 H 155.341 -4.14357 1.09574 0
M  V30 1744 H 159.525 -4.54666 1.98979 0
M  V30 1745 H 154.781 -5.17515 3.25558 0
M  V30 1746 H 158.955 -5.59192 4.15063 0
M  V30 1747 H 156.582 -5.9038 4.7891 0
M  V30 1748 N 158.157 -0.370918 -1.53173 0
M  V30 1749 C 159.573 -0.0200818 -1.59587 0
M  V30 1750 C 159.773 1.46279 -1.38581 0
M  V30 1751 O 158.829 2.22506 -1.19363 0
M  V30 1752 C 160.142 -0.4808 -2.96831 0
M  V30 1753 C 161.69 -0.435477 -3.09956 0
M  V30 1754 C 162.165 -0.872092 -4.4962 0
M  V30 1755 N 163.656 -0.827364 -4.55751 0
M  V30 1756 C 164.391 -1.13683 -5.62018 0
M  V30 1757 N 163.887 -1.51584 -6.76014 0
M  V30 1758 N 165.68 -1.05927 -5.52029 0
M  V30 1759 H 157.831 -1.33652 -1.65079 0
M  V30 1760 H 160.094 -0.546634 -0.774529 0
M  V30 1761 H 159.8 -1.51577 -3.1736 0
M  V30 1762 H 159.674 0.129796 -3.76977 0
M  V30 1763 H 162.061 0.590371 -2.89134 0
M  V30 1764 H 162.142 -1.08164 -2.31806 0
M  V30 1765 H 161.786 -1.89608 -4.71181 0
M  V30 1766 H 161.716 -0.203127 -5.26208 0
M  V30 1767 H 164.207 -0.548216 -3.73902 0
M  V30 1768 H 164.52 -1.73609 -7.53047 0
M  V30 1769 H 162.865 -1.55454 -6.77391 0
M  V30 1770 H 166.056 -0.762321 -4.61851 0
M  V30 1771 H 166.229 -1.30378 -6.34749 0
M  V30 1772 N 159.635 1.57281 -0.100228 0
M  V30 1773 C 160.583 2.15542 0.874328 0
M  V30 1774 C 161.577 1.09962 1.28859 0
M  V30 1775 O 162.783 1.28298 1.26252 0
M  V30 1776 H 159.158 0.689567 0.300003 0
M  V30 1777 H 161.129 2.96241 0.35829 0
M  V30 1778 C 159.878 2.75454 2.1218 0
M  V30 1779 H 159.201 3.56384 1.81193 0
M  V30 1780 H 160.641 3.19781 2.78417 0
M  V30 1781 C 159.1 1.71602 2.89921 0
M  V30 1782 O 159.63 1.15804 3.84646 0
M  V30 1783 N 157.836 1.41975 2.53558 0
M  V30 1784 H 157.383 1.87539 1.76598 0
M  V30 1785 H 157.341 0.727274 3.05873 0
M  V30 1786 N 161.113 -0.173488 1.56642 0
M  V30 1787 C 162.529 -0.525174 1.50712 0
M  V30 1788 C 162.729 -1.8476 0.804107 0
M  V30 1789 O 161.785 -2.49869 0.363574 0
M  V30 1790 C 163.098 -0.559937 2.95441 0
M  V30 1791 C 164.646 -0.647288 3.06234 0
M  V30 1792 C 165.121 -0.712963 4.52417 0
M  V30 1793 N 166.612 -0.775911 4.56655 0
M  V30 1794 C 167.347 -0.847264 5.67106 0
M  V30 1795 N 166.843 -0.879585 6.87194 0
M  V30 1796 N 168.636 -0.886117 5.55071 0
M  V30 1797 H 160.787 0.693681 2.00753 0
M  V30 1798 H 163.05 0.249841 0.914485 0
M  V30 1799 H 162.756 0.343049 3.50023 0
M  V30 1800 H 162.63 -1.40718 3.49969 0
M  V30 1801 H 165.017 -1.5407 2.51687 0
M  V30 1802 H 165.098 0.226586 2.54794 0
M  V30 1803 H 164.742 0.176183 5.07594 0
M  V30 1804 H 164.672 -1.60295 5.0161 0
M  V30 1805 H 167.163 -0.759304 3.70193 0
M  V30 1806 H 167.476 -0.935144 7.67121 0
M  V30 1807 H 165.821 -0.847898 6.89808 0
M  V30 1808 H 169.012 -0.857853 4.60172 0
M  V30 1809 H 169.185 -0.938263 6.41171 0
M  V30 1810 N 162.591 -1.51276 -0.441967 0
M  V30 1811 C 163.539 -1.72823 -1.55676 0
M  V30 1812 C 164.533 -0.59445 -1.58627 0
M  V30 1813 O 165.739 -0.775715 -1.62427 0
M  V30 1814 H 162.114 -0.545983 -0.517113 0
M  V30 1815 H 164.085 -2.6628 -1.34675 0
M  V30 1816 C 162.834 -1.86619 -2.93375 0
M  V30 1817 H 162.157 -2.73264 -2.91834 0
M  V30 1818 H 163.597 -2.05709 -3.70756 0
M  V30 1819 C 162.056 -0.624842 -3.31055 0
M  V30 1820 O 162.586 0.222636 -4.01083 0
M  V30 1821 N 160.792 -0.470288 -2.86769 0
M  V30 1822 H 160.339 -1.161 -2.29953 0
M  V30 1823 H 160.297 0.359051 -3.12343 0
M  V30 1824 N 164.069 0.697108 -1.41344 0
M  V30 1825 C 165.001 1.8224 -1.39001 0
M  V30 1826 C 166.014 1.60152 -0.292428 0
M  V30 1827 O 167.203 1.69684 -0.554048 0
M  V30 1828 C 164.303 3.18976 -1.14489 0
M  V30 1829 C 163.476 3.68105 -2.36258 0
M  V30 1830 C 162.535 4.83506 -2.07625 0
M  V30 1831 O 161.561 4.95201 -2.8065 0
M  V30 1832 N 162.763 5.70637 -1.06555 0
M  V30 1833 H 165.528 1.84742 -2.35988 0
M  V30 1834 H 163.089 0.87937 -1.35936 0
M  V30 1835 H 165.081 3.93801 -0.932885 0
M  V30 1836 H 163.651 3.11508 -0.261043 0
M  V30 1837 H 162.871 2.84204 -2.7317 0
M  V30 1838 H 164.159 3.97667 -3.17393 0
M  V30 1839 H 163.557 5.63817 -0.461125 0
M  V30 1840 H 162.114 6.45368 -0.913444 0
M  V30 1841 N 165.547 1.27147 0.931209 0
M  V30 1842 C 166.963 1.04475 1.20653 0
M  V30 1843 C 167.163 -0.223885 2.00252 0
M  V30 1844 O 166.219 -0.930332 2.34736 0
M  V30 1845 C 167.532 2.28209 1.95809 0
M  V30 1846 C 169.08 2.33211 2.08762 0
M  V30 1847 C 169.555 3.56665 2.87323 0
M  V30 1848 N 171.046 3.57201 2.94892 0
M  V30 1849 C 171.781 4.49395 3.56134 0
M  V30 1850 N 171.277 5.51889 4.18796 0
M  V30 1851 N 173.07 4.37026 3.53504 0
M  V30 1852 H 165.221 2.08612 0.399333 0
M  V30 1853 H 167.484 0.917312 0.239253 0
M  V30 1854 H 167.19 3.20538 1.44736 0
M  V30 1855 H 167.064 2.33247 2.96438 0
M  V30 1856 H 169.451 1.41391 2.59023 0
M  V30 1857 H 169.532 2.32178 1.07364 0
M  V30 1858 H 169.176 4.4882 2.37746 0
M  V30 1859 H 169.106 3.54948 3.88998 0
M  V30 1860 H 171.597 2.83074 2.50354 0
M  V30 1861 H 171.91 6.18409 4.63454 0
M  V30 1862 H 170.255 5.55735 4.17353 0
M  V30 1863 H 173.446 3.56166 3.03749 0
M  V30 1864 H 173.619 5.09067 4.00942 0
M  V30 1865 N 167.025 -1.13721 1.09112 0
M  V30 1866 C 168.274 -1.84275 0.82009 0
M  V30 1867 C 168.587 -1.84253 -0.656509 0
M  V30 1868 O 169.793 -2.50668 -1.04296 0
M  V30 1869 C 168.249 -3.30825 1.41714 0
M  V30 1870 C 167.857 -3.39244 2.92605 0
M  V30 1871 C 169.601 -4.06443 1.22492 0
M  V30 1872 C 167.508 -4.80047 3.45411 0
M  V30 1873 H 166.438 -0.690387 0.30312 0
M  V30 1874 H 169.089 -1.28146 1.31343 0
M  V30 1875 H 167.471 -3.86737 0.851498 0
M  V30 1876 H 168.645 -2.93344 3.55367 0
M  V30 1877 H 166.96 -2.77088 3.10823 0
M  V30 1878 H 169.557 -5.10387 1.59402 0
M  V30 1879 H 169.9 -4.15972 0.165299 0
M  V30 1880 H 170.433 -3.56852 1.75788 0
M  V30 1881 H 167.172 -4.75709 4.50978 0
M  V30 1882 H 166.692 -5.26455 2.87411 0
M  V30 1883 H 168.371 -5.48957 3.42425 0
M  V30 1884 N 168.503 -0.877838 -1.30888 0
M  V30 1885 C 169.749 -0.493426 -1.96706 0
M  V30 1886 C 170.082 0.953504 -1.6918 0
M  V30 1887 O 169.357 1.67266 -0.992594 0
M  V30 1888 C 169.64 -0.760429 -3.51979 0
M  V30 1889 C 169.493 -2.25747 -3.89048 0
M  V30 1890 C 170.812 -0.232148 -4.39487 0
M  V30 1891 H 167.931 -0.180746 -0.714493 0
M  V30 1892 H 170.573 -1.10052 -1.54882 0
M  V30 1893 H 168.723 -0.243715 -3.87735 0
M  V30 1894 H 170.395 -2.84204 -3.63354 0
M  V30 1895 H 168.638 -2.72694 -3.37373 0
M  V30 1896 H 169.309 -2.39491 -4.97341 0
M  V30 1897 H 171.785 -0.674314 -4.106 0
M  V30 1898 H 170.661 -0.448355 -5.47066 0
M  V30 1899 H 170.922 0.866297 -4.33529 0
M  V30 1900 N 169.982 1.44106 -0.638065 0
M  V30 1901 C 170.914 2.28976 0.101205 0
M  V30 1902 C 171.927 1.4167 0.802088 0
M  V30 1903 O 173.116 1.65755 0.662375 0
M  V30 1904 C 170.216 3.18217 1.16581 0
M  V30 1905 C 169.389 4.33978 0.546066 0
M  V30 1906 C 168.448 5.04202 1.50554 0
M  V30 1907 O 167.474 5.59986 1.01999 0
M  V30 1908 N 168.676 5.06296 2.8398 0
M  V30 1909 H 171.441 2.93064 -0.627186 0
M  V30 1910 H 169.002 1.54629 -0.479731 0
M  V30 1911 H 170.994 3.62061 1.80815 0
M  V30 1912 H 169.564 2.55833 1.79634 0
M  V30 1913 H 168.784 3.93239 -0.275046 0
M  V30 1914 H 170.072 5.08675 0.112793 0
M  V30 1915 H 169.47 4.62319 3.26002 0
M  V30 1916 H 168.027 5.53907 3.43556 0
M  V30 1917 N 171.46 0.379036 1.52974 0
M  V30 1918 C 172.39 -0.452706 2.29069 0
M  V30 1919 C 173.371 -1.07237 1.32039 0
M  V30 1920 O 174.556 -1.08708 1.60923 0
M  V30 1921 C 171.686 -1.5856 3.08992 0
M  V30 1922 C 170.64 -1.0925 4.13822 0
M  V30 1923 C 169.966 -2.31668 4.81907 0
M  V30 1924 C 171.266 -0.167702 5.22031 0
M  V30 1925 H 172.96 0.182181 2.98845 0
M  V30 1926 H 170.506 0.0890592 1.43724 0
M  V30 1927 H 172.459 -2.1742 3.6098 0
M  V30 1928 H 171.183 -2.24792 2.36931 0
M  V30 1929 H 169.842 -0.526494 3.628 0
M  V30 1930 H 169.49 -2.96386 4.06404 0
M  V30 1931 H 169.19 -1.9934 5.52754 0
M  V30 1932 H 170.714 -2.91189 5.36695 0
M  V30 1933 H 172.128 -0.664186 5.6944 0
M  V30 1934 H 170.525 0.0653265 6.00064 0
M  V30 1935 H 171.595 0.786347 4.78482 0
M  V30 1936 N 172.938 -1.57226 0.108567 0
M  V30 1937 C 174.187 -1.94008 -0.551703 0
M  V30 1938 C 174.5 -0.993442 -1.68494 0
M  V30 1939 O 175.706 -1.25551 -2.40726 0
M  V30 1940 C 174.162 -3.44763 -1.03279 0
M  V30 1941 C 173.77 -4.47943 0.0714193 0
M  V30 1942 C 175.514 -3.90483 -1.66503 0
M  V30 1943 C 173.421 -5.89865 -0.425779 0
M  V30 1944 H 172.351 -0.724206 -0.209863 0
M  V30 1945 H 175.002 -1.82547 0.186741 0
M  V30 1946 H 173.384 -3.51422 -1.82533 0
M  V30 1947 H 174.558 -4.52942 0.847365 0
M  V30 1948 H 172.873 -4.11913 0.609669 0
M  V30 1949 H 175.47 -4.93925 -2.04798 0
M  V30 1950 H 175.813 -3.29877 -2.53942 0
M  V30 1951 H 176.346 -3.86581 -0.938074 0
M  V30 1952 H 173.085 -6.54202 0.412316 0
M  V30 1953 H 172.605 -5.88309 -1.16843 0
M  V30 1954 H 174.284 -6.40844 -0.890397 0
M  V30 1955 N 174.416 0.165178 -1.56732 0
M  V30 1956 C 175.348 1.22911 -1.93457 0
M  V30 1957 C 176.361 1.40152 -0.828333 0
M  V30 1958 O 177.55 1.40046 -1.10677 0
M  V30 1959 C 174.65 2.59686 -2.17753 0
M  V30 1960 C 173.823 2.63663 -3.48999 0
M  V30 1961 C 172.882 3.81845 -3.62051 0
M  V30 1962 O 171.908 3.67559 -4.34613 0
M  V30 1963 N 173.11 4.98557 -2.97357 0
M  V30 1964 H 175.875 0.917118 -2.85323 0
M  V30 1965 H 173.436 0.354895 -1.57962 0
M  V30 1966 H 175.428 3.37225 -2.23743 0
M  V30 1967 H 173.998 2.83251 -1.32242 0
M  V30 1968 H 173.218 1.72173 -3.54612 0
M  V30 1969 H 174.506 2.63336 -4.35352 0
M  V30 1970 H 173.904 5.13065 -2.38287 0
M  V30 1971 H 172.461 5.73936 -3.08934 0
M  V30 1972 N 175.894 1.51508 0.433938 0
M  V30 1973 C 177.171 1.54888 1.19453 0
M  V30 1974 C 177.551 0.315154 2.08734 0
M  V30 1975 O 176.899 -0.699558 2.17528 0
M  V30 1976 C 177.109 2.86467 1.99342 0
M  V30 1977 C 178.457 3.38545 2.56267 0
M  V30 1978 O 179.481 2.88041 2.0955 0
M  V30 1979 O 178.34 4.26675 3.41483 0
M  V30 1980 H 175.434 0.622863 0.544032 0
M  V30 1981 H 177.98 1.63823 0.442732 0
M  V30 1982 H 176.752 3.67718 1.33788 0
M  V30 1983 H 176.375 2.8071 2.8158 0
M  V30 1984 N 177.372 -0.689602 1.41712 0
M  V30 1985 C 178.6 -1.47827 1.44758 0
M  V30 1986 C 179.015 -1.88721 0.0545703 0
M  V30 1987 O 178.372 -1.57176 -0.927463 0
M  V30 1988 C 178.423 -2.73698 2.3616 0
M  V30 1989 O 178.144 -2.34524 3.7004 0
M  V30 1990 C 179.645 -3.67389 2.48072 0
M  V30 1991 H 176.865 -0.455357 0.49284 0
M  V30 1992 H 179.409 -0.848574 1.86063 0
M  V30 1993 H 177.564 -3.32891 1.98148 0
M  V30 1994 H 177.978 -3.15701 4.18847 0
M  V30 1995 H 179.452 -4.52475 3.16181 0
M  V30 1996 H 179.929 -4.12284 1.51388 0
M  V30 1997 H 180.535 -3.14097 2.86746 0
M  V30 1998 N 178.85 -1.27639 -0.924453 0
M  V30 1999 C 180.266 -1.05113 -1.20097 0
M  V30 2000 C 180.466 0.213262 -2.00368 0
M  V30 2001 O 179.522 0.91787 -2.35226 0
M  V30 2002 C 180.835 -2.29244 -1.94596 0
M  V30 2003 C 182.383 -2.34315 -2.07522 0
M  V30 2004 C 182.858 -3.58183 -2.85427 0
M  V30 2005 N 184.349 -3.5876 -2.92994 0
M  V30 2006 C 185.084 -4.51277 -3.53746 0
M  V30 2007 N 184.58 -5.54102 -4.15863 0
M  V30 2008 N 186.373 -4.38894 -3.51181 0
M  V30 2009 H 178.524 -2.08821 -0.388264 0
M  V30 2010 H 180.787 -0.918568 -0.234385 0
M  V30 2011 H 180.493 -3.21301 -1.43034 0
M  V30 2012 H 180.367 -2.34816 -2.95197 0
M  V30 2013 H 182.754 -1.42762 -2.58269 0
M  V30 2014 H 182.835 -2.32744 -1.06131 0
M  V30 2015 H 182.479 -4.50074 -2.35363 0
M  V30 2016 H 182.409 -3.57006 -3.8711 0
M  V30 2017 H 184.9 -2.84398 -2.4885 0
M  V30 2018 H 185.213 -6.20859 -4.60168 0
M  V30 2019 H 183.558 -5.57941 -4.144 0
M  V30 2020 H 186.749 -3.57772 -3.01856 0
M  V30 2021 H 186.922 -5.11186 -3.98237 0
M  V30 2022 N 180.328 1.1314 -1.09713 0
M  V30 2023 C 181.577 1.83838 -0.829851 0
M  V30 2024 C 181.89 1.84599 0.646728 0
M  V30 2025 O 183.096 2.51218 1.02965 0
M  V30 2026 C 181.552 3.30069 -1.43466 0
M  V30 2027 C 181.16 3.37688 -2.94399 0
M  V30 2028 C 182.904 4.05788 -1.24645 0
M  V30 2029 C 180.811 4.78209 -3.47952 0
M  V30 2030 H 179.741 0.68877 -0.306777 0
M  V30 2031 H 182.392 1.27448 -1.3202 0
M  V30 2032 H 180.774 3.8628 -0.871996 0
M  V30 2033 H 181.948 2.91456 -3.56918 0
M  V30 2034 H 180.263 2.75436 -3.12289 0
M  V30 2035 H 182.86 5.09535 -1.62107 0
M  V30 2036 H 183.203 4.15878 -0.187357 0
M  V30 2037 H 183.736 3.55915 -1.77678 0
M  V30 2038 H 180.475 4.73311 -4.53495 0
M  V30 2039 H 179.995 5.24924 -2.90198 0
M  V30 2040 H 181.674 5.47133 -3.45332 0
M  V30 2041 N 181.806 0.884767 1.30421 0
M  V30 2042 C 182.756 0.322846 2.25703 0
M  V30 2043 C 183.74 -0.548582 1.51259 0
M  V30 2044 O 184.932 -0.39304 1.72581 0
M  V30 2045 C 182.061 -0.461787 3.4018 0
M  V30 2046 C 181.147 0.423717 4.21978 0
M  V30 2047 N 181.538 1.52408 4.82292 0
M  V30 2048 C 179.836 0.218795 4.45463 0
M  V30 2049 C 180.537 2.07136 5.43571 0
M  V30 2050 N 179.513 1.36635 5.26148 0
M  V30 2051 H 183.315 1.16363 2.69883 0
M  V30 2052 H 180.829 0.73415 1.44859 0
M  V30 2053 H 182.826 -0.880985 4.07485 0
M  V30 2054 H 181.486 -1.30001 2.9754 0
M  V30 2055 H 182.497 1.90693 4.81515 0
M  V30 2056 H 179.174 -0.582275 4.1342 0
M  V30 2057 H 180.564 2.99538 6.01437 0
M  V30 2058 N 183.284 -1.43765 0.645699 0
M  V30 2059 C 184.533 -2.01116 0.153412 0
M  V30 2060 C 184.846 -1.51493 -1.23731 0
M  V30 2061 O 186.052 -2.01067 -1.8244 0
M  V30 2062 C 184.508 -3.59206 0.223473 0
M  V30 2063 C 184.116 -4.17823 1.61642 0
M  V30 2064 C 185.86 -4.23972 -0.211597 0
M  V30 2065 C 183.767 -5.68183 1.64081 0
M  V30 2066 H 182.697 -0.752093 0.0535891 0
M  V30 2067 H 185.348 -1.6482 0.806633 0
M  V30 2068 H 183.73 -3.92867 -0.497118 0
M  V30 2069 H 184.904 -3.95674 2.36176 0
M  V30 2070 H 183.219 -3.65399 1.99681 0
M  V30 2071 H 185.816 -5.34275 -0.213112 0
M  V30 2072 H 186.159 -3.97352 -1.24165 0
M  V30 2073 H 186.692 -3.95166 0.456988 0
M  V30 2074 H 183.431 -5.99559 2.64971 0
M  V30 2075 H 182.951 -5.9241 0.938611 0
M  V30 2076 H 184.63 -6.32085 1.3812 0
M  V30 2077 N 184.763 -0.387143 -1.52771 0
M  V30 2078 C 185.693 0.440551 -2.29306 0
M  V30 2079 C 186.674 1.06535 -1.32606 0
M  V30 2080 O 187.859 1.07853 -1.61497 0
M  V30 2081 C 184.989 1.56919 -3.09829 0
M  V30 2082 C 183.943 1.07054 -4.14395 0
M  V30 2083 C 183.269 2.29109 -4.83129 0
M  V30 2084 C 184.569 0.140015 -5.22112 0
M  V30 2085 H 186.263 -0.198026 -2.98744 0
M  V30 2086 H 183.809 -0.09668 -1.43675 0
M  V30 2087 H 185.762 2.15503 -3.62128 0
M  V30 2088 H 184.486 2.23532 -2.3812 0
M  V30 2089 H 183.145 0.507247 -3.63074 0
M  V30 2090 H 182.793 2.94227 -4.0797 0
M  V30 2091 H 182.493 1.96406 -5.53804 0
M  V30 2092 H 184.017 2.88339 -5.38231 0
M  V30 2093 H 185.431 0.633978 -5.69784 0
M  V30 2094 H 183.828 -0.0971485 -6.00021 0
M  V30 2095 H 184.898 -0.811711 -4.78058 0
M  V30 2096 N 186.241 1.57166 -0.116904 0
M  V30 2097 C 187.652 1.82169 0.408809 0
M  V30 2098 C 188.003 1.03393 1.66746 0
M  V30 2099 O 187.128 0.269886 2.1471 0
M  V30 2100 C 187.723 3.30429 0.748466 0
M  V30 2101 C 186.282 3.5612 1.21882 0
M  V30 2102 C 185.429 2.76374 0.226452 0
M  V30 2103 H 188.38 1.5497 -0.342063 0
M  V30 2104 H 188.401 3.44943 1.60607 0
M  V30 2105 H 187.913 3.87737 -0.167784 0
M  V30 2106 H 186.014 3.04168 2.15204 0
M  V30 2107 H 186.127 4.64705 1.16559 0
M  V30 2108 H 184.491 2.44515 0.713063 0
M  V30 2109 H 185.274 3.3644 -0.682859 0
M  V30 2110 N 187.719 -0.156864 1.56817 0
M  V30 2111 C 188.944 -0.890331 1.87318 0
M  V30 2112 C 189.369 -1.74394 0.704855 0
M  V30 2113 O 188.727 -1.77972 -0.345786 0
M  V30 2114 C 188.775 -1.73102 3.16336 0
M  V30 2115 O 187.879 -2.83422 2.99576 0
M  V30 2116 H 187.22 -0.24857 0.615718 0
M  V30 2117 H 189.75 -0.150649 2.04045 0
M  V30 2118 H 189.76 -2.12803 3.48107 0
M  V30 2119 H 188.435 -1.10412 4.00976 0
M  V30 2120 H 187.012 -2.47199 2.7919 0
M  V30 2121 N 189.197 -1.51736 -0.425897 0
M  V30 2122 C 190.13 -1.68574 -1.53812 0
M  V30 2123 C 191.108 -0.53328 -1.53606 0
M  V30 2124 O 192.292 -0.758555 -1.72564 0
M  V30 2125 C 189.419 -1.70977 -2.92377 0
M  V30 2126 C 188.465 -2.92324 -3.10563 0
M  V30 2127 S 189.298 -4.52952 -2.85648 0
M  V30 2128 C 190.454 -4.58117 -4.26474 0
M  V30 2129 H 190.687 -2.62647 -1.39298 0
M  V30 2130 H 188.22 -1.41564 -0.616361 0
M  V30 2131 H 190.178 -1.73047 -3.72243 0
M  V30 2132 H 188.839 -0.78061 -3.04245 0
M  V30 2133 H 188.032 -2.90439 -4.11899 0
M  V30 2134 H 187.634 -2.88055 -2.38538 0
M  V30 2135 H 189.926 -4.34462 -5.19855 0
M  V30 2136 H 190.869 -5.59983 -4.33388 0
M  V30 2137 H 191.277 -3.8732 -4.10662 0
M  V30 2138 N 190.675 0.682077 -1.42076 0
M  V30 2139 C 191.623 1.81707 -1.45208 0
M  V30 2140 C 192.617 1.66183 -0.328591 0
M  V30 2141 O 193.823 1.7288 -0.501264 0
M  V30 2142 H 190.198 0.599014 -0.454628 0
M  V30 2143 H 192.169 1.76183 -2.40836 0
M  V30 2144 C 190.918 3.19816 -1.36428 0
M  V30 2145 H 190.241 3.32385 -2.22171 0
M  V30 2146 H 191.681 3.99272 -1.42681 0
M  V30 2147 C 190.14 3.36809 -0.078191 0
M  V30 2148 O 190.67 3.92124 0.87188 0
M  V30 2149 N 188.876 2.906 0.00229266 0
M  V30 2150 H 188.423 2.45772 -0.771616 0
M  V30 2151 H 188.381 3.02347 0.862179 0
M  V30 2152 N 192.153 1.28127 0.917671 0
M  V30 2153 C 193.564 1.13622 1.48145 0
M  V30 2154 C 193.915 -0.275207 1.9426 0
M  V30 2155 O 193.04 -1.1691 1.82102 0
M  V30 2156 C 193.635 2.05648 2.69248 0
M  V30 2157 C 192.194 1.95219 3.21818 0
M  V30 2158 C 191.341 1.97618 1.94532 0
M  V30 2159 H 194.292 1.40874 0.730772 0
M  V30 2160 H 194.313 1.61818 3.44377 0
M  V30 2161 H 193.825 3.08365 2.35653 0
M  V30 2162 H 191.926 0.955244 3.60147 0
M  V30 2163 H 192.039 2.81976 3.87333 0
M  V30 2164 H 190.403 1.41973 2.11461 0
M  V30 2165 H 191.186 3.02007 1.63238 0
M  V30 2166 N 193.631 -1.12557 1.10312 0
M  V30 2167 C 194.908 -1.80363 0.756878 0
M  V30 2168 C 195.288 -1.97067 -0.756824 0
M  V30 2169 O 194.636 -1.54601 -1.68259 0
M  V30 2170 C 194.846 -3.14812 1.50647 0
M  V30 2171 C 196.194 -3.90029 1.67817 0
M  V30 2172 O 197.218 -3.24464 1.46974 0
M  V30 2173 O 196.077 -5.07652 2.02365 0
M  V30 2174 H 193.171 -0.780667 0.272926 0
M  V30 2175 H 195.717 -1.19404 1.20586 0
M  V30 2176 H 194.489 -2.97936 2.53672 0
M  V30 2177 H 194.112 -3.83478 1.05026 0
M  V30 2178 N 195.109 -0.891671 -1.2995 0
M  V30 2179 C 196.357 -0.512486 -1.95494 0
M  V30 2180 C 196.678 0.942776 -1.70695 0
M  V30 2181 O 195.948 1.66374 -1.03424 0
M  V30 2182 H 194.528 -0.186533 -0.723336 0
M  V30 2183 H 197.19 -1.13621 -1.58355 0
M  V30 2184 H 196.286 -0.688342 -3.04415 0
M  V30 2185 N 196.587 1.43421 -0.653314 0
M  V30 2186 C 197.817 2.05864 -0.174238 0
M  V30 2187 C 198.225 1.49052 1.16534 0
M  V30 2188 O 197.568 0.616481 1.73047 0
M  V30 2189 C 197.63 3.59499 -0.00875873 0
M  V30 2190 C 197.294 4.38893 -1.27364 0
M  V30 2191 C 198.291 4.70947 -2.20239 0
M  V30 2192 C 195.976 4.789 -1.51525 0
M  V30 2193 C 197.97 5.41916 -3.35568 0
M  V30 2194 C 195.657 5.49614 -2.67147 0
M  V30 2195 C 196.655 5.81044 -3.58994 0
M  V30 2196 O 196.343 6.50313 -4.72597 0
M  V30 2197 H 196.075 0.670345 -0.0872549 0
M  V30 2198 H 198.629 1.84913 -0.894226 0
M  V30 2199 H 196.859 3.79025 0.7666 0
M  V30 2200 H 198.548 4.0364 0.427687 0
M  V30 2201 H 199.314 4.40558 -2.02815 0
M  V30 2202 H 195.193 4.53843 -0.809158 0
M  V30 2203 H 198.737 5.66365 -4.07279 0
M  V30 2204 H 194.634 5.79419 -2.84505 0
M  V30 2205 H 195.402 6.68795 -4.71864 0
M  V30 2206 N 198.065 0.39524 1.52563 0
M  V30 2207 C 198.975 -0.444232 2.30356 0
M  V30 2208 C 199.991 -1.06615 1.37511 0
M  V30 2209 O 201.167 -1.07067 1.70583 0
M  V30 2210 C 198.232 -1.55315 3.09964 0
M  V30 2211 C 197.293 -0.955734 4.18526 0
M  V30 2212 C 196.526 -2.01181 4.9433 0
M  V30 2213 O 196.749 -3.22781 4.70285 0
M  V30 2214 O 195.683 -1.62579 5.79527 0
M  V30 2215 H 199.509 0.189667 3.03107 0
M  V30 2216 H 197.094 0.1588 1.48554 0
M  V30 2217 H 198.976 -2.19724 3.59582 0
M  V30 2218 H 197.651 -2.17191 2.4002 0
M  V30 2219 H 196.558 -0.274743 3.7309 0
M  V30 2220 H 197.891 -0.381109 4.90722 0
M  V30 2221 N 199.544 -1.57102 0.125237 0
M  V30 2222 C 200.79 -1.95697 -0.532035 0
M  V30 2223 C 201.123 -1.009 -1.6593 0
M  V30 2224 O 200.398 -0.047347 -1.94442 0
M  V30 2225 C 200.681 -3.44181 -1.05884 0
M  V30 2226 C 200.534 -4.49752 0.0654392 0
M  V30 2227 C 201.853 -3.94655 -1.9477 0
M  V30 2228 H 198.972 -0.711571 -0.191925 0
M  V30 2229 H 201.614 -1.88923 0.20206 0
M  V30 2230 H 199.764 -3.50085 -1.68442 0
M  V30 2231 H 201.436 -4.55943 0.700982 0
M  V30 2232 H 199.679 -4.27653 0.727709 0
M  V30 2233 H 200.35 -5.50924 -0.344505 0
M  V30 2234 H 202.826 -3.91094 -1.42074 0
M  V30 2235 H 201.702 -4.99057 -2.28546 0
M  V30 2236 H 201.963 -3.35718 -2.87656 0
M  V30 2237 N 201.022 0.148545 -1.56898 0
M  V30 2238 C 201.985 1.16736 -1.97244 0
M  V30 2239 C 202.985 1.35947 -0.858777 0
M  V30 2240 O 204.175 1.32966 -1.12542 0
M  V30 2241 C 201.307 2.52798 -2.28705 0
M  V30 2242 H 202.5 0.821279 -2.88435 0
M  V30 2243 H 200.053 0.391831 -1.51309 0
M  V30 2244 H 200.788 2.92381 -1.403 0
M  V30 2245 H 200.573 2.40216 -3.09901 0
M  V30 2246 H 202.063 3.26179 -2.60762 0
M  V30 2247 N 202.5 1.5196 0.417844 0
M  V30 2248 C 203.463 1.74065 1.49111 0
M  V30 2249 C 204.463 0.610537 1.48758 0
M  V30 2250 O 205.653 0.87832 1.50437 0
M  V30 2251 C 202.785 1.81502 2.88565 0
M  V30 2252 H 203.978 2.69869 1.30807 0
M  V30 2253 H 201.531 1.42244 0.647785 0
M  V30 2254 H 202.266 0.875813 3.1225 0
M  V30 2255 H 202.051 2.63651 2.90225 0
M  V30 2256 H 203.541 2.00376 3.66387 0
M  V30 2257 N 203.978 -0.674533 1.42435 0
M  V30 2258 C 204.941 -1.76986 1.45632 0
M  V30 2259 C 205.941 -1.5708 0.343871 0
M  V30 2260 O 207.131 -1.63367 0.604709 0
M  V30 2261 C 204.263 -3.15623 1.28822 0
M  V30 2262 H 205.456 -1.75539 2.43158 0
M  V30 2263 H 203.009 -0.884189 1.28887 0
M  V30 2264 H 203.744 -3.22696 0.322193 0
M  V30 2265 H 203.529 -3.31475 2.09444 0
M  V30 2266 H 205.019 -3.95537 1.33942 0
M  V30 2267 N 205.456 -1.28612 -0.910864 0
M  V30 2268 C 206.388 -1.08589 -2.01844 0
M  V30 2269 C 207.401 -0.0367419 -1.62759 0
M  V30 2270 O 208.59 -0.280101 -1.76289 0
M  V30 2271 C 205.69 -0.628626 -3.33019 0
M  V30 2272 C 204.863 -1.75382 -4.00699 0
M  V30 2273 C 203.922 -1.28945 -5.10156 0
M  V30 2274 O 202.948 -1.9922 -5.33198 0
M  V30 2275 N 204.15 -0.154224 -5.80295 0
M  V30 2276 H 206.915 -2.03973 -2.19579 0
M  V30 2277 H 204.476 -1.20403 -1.08234 0
M  V30 2278 H 206.468 -0.301508 -4.03575 0
M  V30 2279 H 205.038 0.232451 -3.11735 0
M  V30 2280 H 204.258 -2.25039 -3.23653 0
M  V30 2281 H 205.546 -2.50854 -4.42662 0
M  V30 2282 H 204.944 0.43194 -5.64049 0
M  V30 2283 H 203.501 0.113599 -6.51701 0
M  V30 2284 N 206.934 1.1197 -1.10907 0
M  V30 2285 C 208.182 1.83225 -0.852819 0
M  V30 2286 C 208.503 1.84769 0.623341 0
M  V30 2287 O 207.773 1.3143 1.45269 0
M  V30 2288 H 206.353 0.67849 -0.312507 0
M  V30 2289 H 209.015 1.3556 -1.40033 0
M  V30 2290 H 208.111 2.87265 -1.22005 0
M  V30 2291 N 208.412 0.89855 1.29475 0
M  V30 2292 C 209.823 0.572537 1.77705 0
M  V30 2293 C 210.174 -0.911778 1.73727 0
M  V30 2294 O 209.299 -1.71288 1.32247 0
M  V30 2295 C 209.894 1.03252 3.22683 0
M  V30 2296 C 208.453 0.757687 3.68695 0
M  V30 2297 C 207.6 1.20787 2.49612 0
M  V30 2298 H 210.551 1.08139 1.16153 0
M  V30 2299 H 210.572 0.367307 3.78723 0
M  V30 2300 H 210.084 2.11285 3.25546 0
M  V30 2301 H 208.185 -0.310079 3.71308 0
M  V30 2302 H 208.298 1.35476 4.59547 0
M  V30 2303 H 206.662 0.626888 2.46865 0
M  V30 2304 H 207.445 2.29622 2.55203 0
M  V30 2305 N 209.89 -1.43072 0.660911 0
M  V30 2306 C 210.838 -2.32569 -0.0378199 0
M  V30 2307 C 211.832 -1.49046 -0.805092 0
M  V30 2308 O 213.038 -1.65206 -0.714624 0
M  V30 2309 H 209.413 -0.75136 -0.031019 0
M  V30 2310 H 211.384 -2.89216 0.734609 0
M  V30 2311 C 210.133 -3.33453 -0.985124 0
M  V30 2312 H 209.456 -3.97752 -0.404147 0
M  V30 2313 H 210.896 -3.98691 -1.44297 0
M  V30 2314 C 209.355 -2.64642 -2.08486 0
M  V30 2315 O 209.885 -2.46776 -3.16961 0
M  V30 2316 N 208.091 -2.23891 -1.8526 0
M  V30 2317 H 207.638 -2.38621 -0.970449 0
M  V30 2318 H 207.596 -1.78181 -2.59034 0
M  V30 2319 N 211.368 -0.403325 -1.52352 0
M  V30 2320 C 212.315 0.425011 -2.26853 0
M  V30 2321 C 213.285 1.04598 -1.29029 0
M  V30 2322 O 214.47 1.07135 -1.57882 0
M  V30 2323 C 211.61 1.53888 -3.08889 0
M  V30 2324 C 210.723 0.939396 -4.21663 0
M  V30 2325 C 209.858 2.02547 -4.91068 0
M  V30 2326 C 208.897 1.40263 -5.95813 0
M  V30 2327 N 208.034 2.4286 -6.58759 0
M  V30 2328 H 212.874 -0.21674 -2.97211 0
M  V30 2329 H 210.411 -0.118722 -1.4662 0
M  V30 2330 H 212.369 2.19558 -3.54753 0
M  V30 2331 H 210.999 2.15074 -2.40714 0
M  V30 2332 H 210.051 0.171898 -3.80011 0
M  V30 2333 H 211.363 0.44436 -4.96817 0
M  V30 2334 H 210.517 2.75958 -5.40308 0
M  V30 2335 H 209.256 2.55415 -4.15469 0
M  V30 2336 H 208.261 0.653833 -5.45898 0
M  V30 2337 H 209.486 0.881719 -6.73352 0
M  V30 2338 H 207.432 2.94871 -5.85992 0
M  V30 2339 H 207.349 1.98152 -7.2957 0
M  V30 2340 H 208.617 3.15858 -7.12639 0
M  V30 2341 N 212.846 1.57033 -0.133567 0
M  V30 2342 C 214.257 1.82593 0.389464 0
M  V30 2343 C 214.608 1.05156 1.6564 0
M  V30 2344 O 213.733 0.292644 2.14412 0
M  V30 2345 C 214.328 3.31204 0.713377 0
M  V30 2346 C 212.887 3.57393 1.18098 0
M  V30 2347 C 212.034 2.76598 0.197126 0
M  V30 2348 H 214.985 1.54598 -0.358481 0
M  V30 2349 H 215.006 3.46627 1.56939 0
M  V30 2350 H 214.518 3.87537 -0.2089 0
M  V30 2351 H 212.619 3.06433 2.11966 0
M  V30 2352 H 212.732 4.65915 1.11624 0
M  V30 2353 H 211.096 2.45257 0.687088 0
M  V30 2354 H 211.879 3.35697 -0.718504 0
M  V30 2355 N 214.325 -0.140222 1.56975 0
M  V30 2356 C 215.573 -0.850005 1.83356 0
M  V30 2357 C 215.894 -1.81399 0.71551 0
M  V30 2358 O 215.164 -1.94136 -0.262294 0
M  V30 2359 H 213.744 -0.316886 0.676456 0
M  V30 2360 H 216.406 -0.132608 1.94448 0
M  V30 2361 H 215.502 -1.40814 2.78528 0
M  V30 2362 N 215.803 -1.52179 -0.40978 0
M  V30 2363 C 217.033 -1.69807 -1.17682 0
M  V30 2364 C 217.441 -0.406908 -1.84773 0
M  V30 2365 O 216.784 0.626863 -1.72673 0
M  V30 2366 C 216.846 -2.77712 -2.2829 0
M  V30 2367 C 216.51 -4.19481 -1.81341 0
M  V30 2368 C 217.507 -5.03345 -1.30154 0
M  V30 2369 C 215.192 -4.65713 -1.88194 0
M  V30 2370 C 217.186 -6.31511 -0.864416 0
M  V30 2371 C 214.873 -5.93869 -1.44093 0
M  V30 2372 C 215.871 -6.76597 -0.933023 0
M  V30 2373 O 215.559 -8.02354 -0.49838 0
M  V30 2374 H 215.291 -0.572372 -0.359675 0
M  V30 2375 H 217.845 -1.99511 -0.488311 0
M  V30 2376 H 216.075 -2.43383 -3.00502 0
M  V30 2377 H 217.764 -2.83946 -2.90051 0
M  V30 2378 H 218.53 -4.68819 -1.24232 0
M  V30 2379 H 214.409 -4.01424 -2.26671 0
M  V30 2380 H 217.953 -6.96033 -0.467286 0
M  V30 2381 H 213.85 -6.27903 -1.49694 0
M  V30 2382 H 214.618 -8.16135 -0.621747 0
M  V30 2383 N 217.281 0.66697 -1.42791 0
M  V30 2384 C 218.211 1.79218 -1.49677 0
M  V30 2385 C 219.192 1.66405 -0.352623 0
M  V30 2386 O 220.377 1.85708 -0.567993 0
M  V30 2387 C 217.507 3.17565 -1.40605 0
M  V30 2388 C 216.461 3.45124 -2.53127 0
M  V30 2389 C 215.787 4.83127 -2.29112 0
M  V30 2390 C 217.087 3.41236 -3.95418 0
M  V30 2391 H 218.781 1.73713 -2.43853 0
M  V30 2392 H 216.327 0.83432 -1.17367 0
M  V30 2393 H 218.28 3.96022 -1.44029 0
M  V30 2394 H 217.004 3.23767 -0.429271 0
M  V30 2395 H 215.663 2.69031 -2.49034 0
M  V30 2396 H 215.311 4.85988 -1.29709 0
M  V30 2397 H 215.011 5.02528 -3.04531 0
M  V30 2398 H 216.535 5.63859 -2.34297 0
M  V30 2399 H 217.949 4.09651 -4.01073 0
M  V30 2400 H 216.346 3.72173 -4.70752 0
M  V30 2401 H 217.416 2.39665 -4.21532 0
M  V30 2402 N 218.759 1.29093 0.90403 0
M  V30 2403 C 220.005 1.16986 1.65656 0
M  V30 2404 C 220.338 -0.278925 1.92186 0
M  V30 2405 O 219.613 -1.2019 1.5292 0
M  V30 2406 C 219.896 1.97908 3.0084 0
M  V30 2407 C 219.749 3.50903 2.81403 0
M  V30 2408 C 221.068 1.80208 4.01513 0
M  V30 2409 H 218.187 0.426346 0.601164 0
M  V30 2410 H 220.829 1.58518 1.04747 0
M  V30 2411 H 218.979 1.62616 3.52829 0
M  V30 2412 H 220.651 3.96153 2.36348 0
M  V30 2413 H 218.894 3.76045 2.1627 0
M  V30 2414 H 219.565 4.02791 3.77443 0
M  V30 2415 H 222.041 2.11025 3.58619 0
M  V30 2416 H 220.917 2.39184 4.94047 0
M  V30 2417 H 221.178 0.756119 4.35586 0
M  V30 2418 N 220.237 -1.11381 1.11499 0
M  V30 2419 C 221.485 -1.8277 0.862524 0
M  V30 2420 C 221.806 -1.85097 -0.613534 0
M  V30 2421 O 221.076 -1.32198 -1.4457 0
M  V30 2422 H 219.656 -0.676823 0.316101 0
M  V30 2423 H 222.318 -1.34816 1.4075 0
M  V30 2424 H 221.414 -2.86614 1.23527 0
M  V30 2425 N 221.715 -0.905404 -1.28997 0
M  V30 2426 C 223.131 -0.60233 -1.47798 0
M  V30 2427 C 223.331 0.854645 -1.82478 0
M  V30 2428 O 222.387 1.63439 -1.92468 0
M  V30 2429 C 223.7 -1.53306 -2.58685 0
M  V30 2430 C 225.248 -1.53887 -2.72558 0
M  V30 2431 C 225.723 -2.45602 -3.86579 0
M  V30 2432 N 227.214 -2.43681 -3.93921 0
M  V30 2433 C 227.949 -3.11347 -4.81509 0
M  V30 2434 N 227.445 -3.88313 -5.73746 0
M  V30 2435 N 229.238 -3.00476 -4.75048 0
M  V30 2436 H 221.389 -1.84765 -1.04764 0
M  V30 2437 H 223.652 -0.792025 -0.520961 0
M  V30 2438 H 223.358 -2.57141 -2.39941 0
M  V30 2439 H 223.232 -1.25787 -3.55609 0
M  V30 2440 H 225.619 -0.507941 -2.90696 0
M  V30 2441 H 225.7 -1.85447 -1.76191 0
M  V30 2442 H 225.344 -3.48792 -3.69197 0
M  V30 2443 H 225.274 -2.11349 -4.82327 0
M  V30 2444 H 227.765 -1.87767 -3.27951 0
M  V30 2445 H 228.078 -4.36985 -6.37389 0
M  V30 2446 H 226.423 -3.92419 -5.73614 0
M  V30 2447 H 229.614 -2.39858 -4.01977 0
M  V30 2448 H 229.787 -3.53485 -5.43095 0
M  V30 2449 N 223.193 1.4272 -0.668489 0
M  V30 2450 C 224.141 2.32586 0.0254857 0
M  V30 2451 C 225.135 1.49471 0.797176 0
M  V30 2452 O 226.341 1.65583 0.705853 0
M  V30 2453 H 222.716 0.751514 0.0270339 0
M  V30 2454 H 224.687 2.88823 -0.749936 0
M  V30 2455 C 223.436 3.3397 0.967427 0
M  V30 2456 H 222.759 3.97961 0.383048 0
M  V30 2457 H 224.199 3.9945 1.42181 0
M  V30 2458 C 222.658 2.65744 2.0708 0
M  V30 2459 O 223.188 2.48454 3.15648 0
M  V30 2460 N 221.394 2.2487 1.8407 0
M  V30 2461 H 220.941 2.39132 0.95778 0
M  V30 2462 H 220.899 1.79552 2.58086 0
M  V30 2463 N 224.671 0.411399 1.52136 0
M  V30 2464 C 225.619 -0.427633 2.28635 0
M  V30 2465 C 226.613 -1.04383 1.33419 0
M  V30 2466 O 227.819 -0.981772 1.50868 0
M  V30 2467 H 224.194 -0.156689 0.735495 0
M  V30 2468 H 226.165 0.238761 2.97443 0
M  V30 2469 C 224.914 -1.53082 3.12188 0
M  V30 2470 H 224.237 -1.06601 3.85326 0
M  V30 2471 H 225.677 -2.09167 3.68816 0
M  V30 2472 C 224.136 -2.49946 2.25895 0
M  V30 2473 O 224.666 -3.53884 1.90076 0
M  V30 2474 N 222.872 -2.2021 1.8962 0
M  V30 2475 H 222.419 -1.35719 2.18948 0
M  V30 2476 H 222.377 -2.85266 1.32176 0
M  V30 2477 N 226.149 -1.5696 0.141893 0
M  V30 2478 C 227.112 -2.15316 -0.785587 0
M  V30 2479 C 228.112 -1.09366 -1.1788 0
M  V30 2480 O 229.302 -1.35031 -1.10056 0
M  V30 2481 C 226.434 -2.71211 -2.06537 0
M  V30 2482 H 227.627 -2.98608 -0.278041 0
M  V30 2483 H 225.18 -1.5593 -0.107519 0
M  V30 2484 H 225.915 -1.91571 -2.6167 0
M  V30 2485 H 225.7 -3.4872 -1.79268 0
M  V30 2486 H 227.19 -3.16189 -2.72789 0
M  V30 2487 N 227.627 0.131896 -1.57047 0
M  V30 2488 C 228.575 1.18146 -2.0036 0
M  V30 2489 C 229.569 1.43614 -0.898406 0
M  V30 2490 O 230.775 1.43729 -1.08361 0
M  V30 2491 H 227.15 0.398042 -0.638018 0
M  V30 2492 H 229.121 0.789564 -2.87765 0
M  V30 2493 C 227.87 2.50341 -2.41298 0
M  V30 2494 H 227.193 2.31578 -3.25902 0
M  V30 2495 H 228.633 3.22371 -2.75414 0
M  V30 2496 C 227.092 3.11984 -1.27153 0
M  V30 2497 O 227.622 3.97484 -0.580459 0
M  V30 2498 N 225.828 2.71662 -1.03189 0
M  V30 2499 H 225.375 2.02231 -1.59564 0
M  V30 2500 H 225.333 3.13238 -0.270077 0
M  V30 2501 N 229.106 1.52395 0.401703 0
M  V30 2502 C 230.354 1.66488 1.14569 0
M  V30 2503 C 230.675 0.400897 1.90835 0
M  V30 2504 O 229.945 -0.584415 1.8698 0
M  V30 2505 H 228.525 0.613672 0.425929 0
M  V30 2506 H 231.187 1.89464 0.457093 0
M  V30 2507 H 230.283 2.50942 1.85566 0
M  V30 2508 N 230.584 -0.659388 1.43143 0
M  V30 2509 C 231.83 -1.42145 1.44647 0
M  V30 2510 C 232.163 -1.9408 0.0681907 0
M  V30 2511 O 231.438 -1.71899 -0.910007 0
M  V30 2512 C 231.721 -2.60735 2.48373 0
M  V30 2513 C 231.574 -2.14332 3.95451 0
M  V30 2514 C 232.893 -3.62951 2.48906 0
M  V30 2515 H 230.012 -0.51552 0.526696 0
M  V30 2516 H 232.654 -0.748069 1.74654 0
M  V30 2517 H 230.804 -3.18184 2.22916 0
M  V30 2518 H 232.476 -1.61932 4.31944 0
M  V30 2519 H 230.719 -1.4576 4.08578 0
M  V30 2520 H 231.39 -2.99583 4.63631 0
M  V30 2521 H 233.866 -3.1525 2.71582 0
M  V30 2522 H 232.742 -4.43487 3.23435 0
M  V30 2523 H 233.003 -4.15126 1.52061 0
M  V30 2524 N 232.062 -1.29571 -0.897171 0
M  V30 2525 C 233.339 -1.08365 -1.62839 0
M  V30 2526 C 233.719 0.371331 -2.07808 0
M  V30 2527 O 233.067 1.3606 -1.83576 0
M  V30 2528 C 233.277 -2.0735 -2.80726 0
M  V30 2529 C 234.625 -2.38406 -3.51351 0
M  V30 2530 O 235.649 -2.05564 -2.90898 0
M  V30 2531 O 234.508 -2.9453 -4.60341 0
M  V30 2532 H 231.602 -0.415345 -0.715134 0
M  V30 2533 H 234.148 -1.40952 -0.945018 0
M  V30 2534 H 232.92 -3.05339 -2.44711 0
M  V30 2535 H 232.543 -1.75507 -3.56767 0
M  V30 2536 N 233.54 1.10788 -1.12088 0
M  V30 2537 C 234.47 2.19083 -0.807755 0
M  V30 2538 C 235.451 1.6858 0.226859 0
M  V30 2539 O 236.636 1.93997 0.0888475 0
M  V30 2540 C 233.766 3.46344 -0.257576 0
M  V30 2541 C 232.72 4.101 -1.22483 0
M  V30 2542 C 232.046 5.32016 -0.535052 0
M  V30 2543 C 233.346 4.54236 -2.57811 0
M  V30 2544 H 235.04 2.45534 -1.71328 0
M  V30 2545 H 232.586 1.1801 -0.825205 0
M  V30 2546 H 234.539 4.21392 -0.0262679 0
M  V30 2547 H 233.263 3.19373 0.683278 0
M  V30 2548 H 231.922 3.37054 -1.44189 0
M  V30 2549 H 231.57 5.01319 0.410827 0
M  V30 2550 H 231.27 5.75625 -1.18024 0
M  V30 2551 H 232.794 6.09799 -0.312695 0
M  V30 2552 H 234.208 5.20575 -2.40155 0
M  V30 2553 H 232.605 5.08682 -3.18375 0
M  V30 2554 H 233.675 3.6734 -3.16528 0
M  V30 2555 N 235.018 0.912232 1.28515 0
M  V30 2556 C 235.966 0.389597 2.29314 0
M  V30 2557 C 236.96 -0.517915 1.61289 0
M  V30 2558 O 238.166 -0.399328 1.75515 0
M  V30 2559 H 234.541 0.107386 0.744293 0
M  V30 2560 H 236.512 1.25286 2.70825 0
M  V30 2561 C 235.261 -0.356496 3.45868 0
M  V30 2562 H 234.584 0.332608 3.98414 0
M  V30 2563 H 236.024 -0.686851 4.184 0
M  V30 2564 C 234.483 -1.56383 2.98406 0
M  V30 2565 O 235.013 -2.66294 3.00749 0
M  V30 2566 N 233.219 -1.41029 2.54085 0
M  V30 2567 H 232.766 -0.516089 2.52377 0
M  V30 2568 H 232.724 -2.21939 2.22689 0
M  V30 2569 N 236.496 -1.42363 0.676048 0
M  V30 2570 C 237.912 -1.55811 0.345718 0
M  V30 2571 C 238.112 -1.65544 -1.14879 0
M  V30 2572 O 237.168 -1.62306 -1.93424 0
M  V30 2573 C 238.481 -2.80746 1.07713 0
M  V30 2574 C 240.029 -2.9452 1.05958 0
M  V30 2575 C 240.504 -4.22318 1.77233 0
M  V30 2576 N 241.995 -4.29233 1.74108 0
M  V30 2577 C 242.73 -5.26935 2.26113 0
M  V30 2578 N 242.226 -6.30783 2.86505 0
M  V30 2579 N 244.019 -5.18741 2.1648 0
M  V30 2580 H 236.17 -1.34289 1.6456 0
M  V30 2581 H 238.433 -0.646506 0.69335 0
M  V30 2582 H 238.139 -2.79696 2.13221 0
M  V30 2583 H 238.013 -3.71676 0.64316 0
M  V30 2584 H 240.4 -2.95097 0.0128255 0
M  V30 2585 H 240.481 -2.04817 1.53244 0
M  V30 2586 H 240.125 -4.22502 2.81877 0
M  V30 2587 H 240.055 -5.10958 1.27396 0
M  V30 2588 H 242.546 -3.54814 1.30059 0
M  V30 2589 H 242.859 -7.01691 3.23805 0
M  V30 2590 H 241.204 -6.31341 2.90575 0
M  V30 2591 H 244.395 -4.36533 1.68987 0
M  V30 2592 H 244.568 -5.94721 2.57316 0
M  V30 2593 N 237.974 -0.419461 -1.51915 0
M  V30 2594 C 238.922 0.415502 -2.28859 0
M  V30 2595 C 239.916 1.03674 -1.3397 0
M  V30 2596 O 241.122 0.973757 -1.51387 0
M  V30 2597 H 237.497 0.152786 -0.736315 0
M  V30 2598 H 239.468 -0.254531 -2.97312 0
M  V30 2599 C 238.217 1.51425 -3.12995 0
M  V30 2600 H 237.54 1.04556 -3.85886 0
M  V30 2601 H 238.98 2.07208 -3.6992 0
M  V30 2602 C 237.439 2.48745 -2.27217 0
M  V30 2603 O 237.969 3.52871 -1.9195 0
M  V30 2604 N 236.175 2.19202 -1.90785 0
M  V30 2605 H 235.722 1.34556 -2.19664 0
M  V30 2606 H 235.68 2.84561 -1.33687 0
M  V30 2607 N 239.452 1.56882 -0.150215 0
M  V30 2608 C 240.699 1.96228 0.500093 0
M  V30 2609 C 241.027 1.03522 1.64661 0
M  V30 2610 O 240.282 0.0650683 1.95592 0
M  V30 2611 C 240.581 3.41801 1.04437 0
M  V30 2612 C 240.247 4.50897 0.0159671 0
M  V30 2613 C 238.909 4.8046 -0.266731 0
M  V30 2614 C 241.261 5.16703 -0.683192 0
M  V30 2615 C 238.589 5.73135 -1.25434 0
M  V30 2616 C 240.941 6.10441 -1.65964 0
M  V30 2617 C 239.605 6.38382 -1.95 0
M  V30 2618 H 238.875 0.718048 0.182997 0
M  V30 2619 H 241.522 1.90019 -0.237724 0
M  V30 2620 H 239.827 3.44857 1.85959 0
M  V30 2621 H 241.524 3.69573 1.55618 0
M  V30 2622 H 238.114 4.27891 0.246485 0
M  V30 2623 H 242.298 4.93993 -0.477983 0
M  V30 2624 H 237.554 5.93074 -1.48571 0
M  V30 2625 H 241.728 6.60507 -2.20689 0
M  V30 2626 H 239.355 7.09996 -2.71679 0
M  V30 2627 N 240.93 -0.123565 1.57115 0
M  V30 2628 C 242.341 -0.681198 1.73829 0
M  V30 2629 C 242.692 -1.80535 0.768214 0
M  V30 2630 O 241.817 -2.16317 -0.0599103 0
M  V30 2631 C 242.412 -1.24246 3.15196 0
M  V30 2632 C 240.971 -1.74643 3.33432 0
M  V30 2633 C 240.118 -0.644284 2.69711 0
M  V30 2634 H 243.069 0.102315 1.5837 0
M  V30 2635 H 243.09 -2.11216 3.16493 0
M  V30 2636 H 242.602 -0.424062 3.85776 0
M  V30 2637 H 240.703 -2.58974 2.67886 0
M  V30 2638 H 240.816 -1.85902 4.41562 0
M  V30 2639 H 239.18 -1.07676 2.3082 0
M  V30 2640 H 239.963 0.163058 3.42913 0
M  V30 2641 N 242.408 -1.52605 -0.393616 0
M  V30 2642 C 243.685 -1.58001 -1.15304 0
M  V30 2643 C 244.065 -0.370385 -2.07825 0
M  V30 2644 O 243.413 0.641638 -2.19306 0
M  V30 2645 C 243.623 -2.91652 -1.91677 0
M  V30 2646 C 244.971 -3.4522 -2.47201 0
M  V30 2647 O 245.995 -2.93495 -2.01839 0
M  V30 2648 O 244.854 -4.35579 -3.3005 0
M  V30 2649 H 241.948 -0.637068 -0.527327 0
M  V30 2650 H 244.494 -1.64939 -0.399141 0
M  V30 2651 H 243.266 -3.71136 -1.23992 0
M  V30 2652 H 242.889 -2.88077 -2.74039 0
M  V30 2653 N 243.887 0.651787 -1.4349 0
M  V30 2654 C 244.817 1.77621 -1.51569 0
M  V30 2655 C 245.798 1.66022 -0.370253 0
M  V30 2656 O 246.983 1.85095 -0.587658 0
M  V30 2657 C 244.113 3.16056 -1.43966 0
M  V30 2658 C 243.067 3.4242 -2.56774 0
M  V30 2659 C 242.393 4.8067 -2.34223 0
M  V30 2660 C 243.693 3.37023 -3.99015 0
M  V30 2661 H 245.387 1.71117 -2.45681 0
M  V30 2662 H 242.933 0.821825 -1.18246 0
M  V30 2663 H 244.886 3.94472 -1.48221 0
M  V30 2664 H 243.61 3.23293 -0.463586 0
M  V30 2665 H 242.269 2.66375 -2.51873 0
M  V30 2666 H 241.917 4.84585 -1.34856 0
M  V30 2667 H 241.617 4.9927 -3.09844 0
M  V30 2668 H 243.141 5.61342 -2.40265 0
M  V30 2669 H 244.555 4.05374 -4.05395 0
M  V30 2670 H 242.952 3.67159 -4.74673 0
M  V30 2671 H 244.022 2.3518 -4.2405 0
M  V30 2672 N 245.365 1.30045 0.890287 0
M  V30 2673 C 246.313 1.15873 2.01683 0
M  V30 2674 C 247.307 0.0719403 1.69247 0
M  V30 2675 O 248.513 0.232414 1.78493 0
M  V30 2676 H 244.888 0.358203 0.661207 0
M  V30 2677 H 246.859 2.11229 2.10772 0
M  V30 2678 C 245.608 0.861842 3.36849 0
M  V30 2679 H 244.931 1.69016 3.62317 0
M  V30 2680 H 246.371 0.802762 4.16331 0
M  V30 2681 C 244.83 -0.435132 3.34078 0
M  V30 2682 O 245.36 -1.4583 3.74295 0
M  V30 2683 N 243.566 -0.444377 2.87182 0
M  V30 2684 H 243.113 0.388723 2.5465 0
M  V30 2685 H 243.071 -1.31213 2.85711 0
M  V30 2686 N 246.843 -1.10192 1.12674 0
M  V30 2687 C 248.071 -1.85983 0.906527 0
M  V30 2688 C 248.486 -1.80783 -0.544333 0
M  V30 2689 O 247.843 -1.19834 -1.37645 0
M  V30 2690 C 247.894 -3.34281 1.37618 0
M  V30 2691 O 247.615 -3.39401 2.77017 0
M  V30 2692 C 249.116 -4.26938 1.19325 0
M  V30 2693 H 246.336 -0.587716 0.323775 0
M  V30 2694 H 248.88 -1.39284 1.49734 0
M  V30 2695 H 247.035 -3.78436 0.828539 0
M  V30 2696 H 247.449 -4.31838 2.97684 0
M  V30 2697 H 248.923 -5.29181 1.57071 0
M  V30 2698 H 249.4 -4.38995 0.134097 0
M  V30 2699 H 250.006 -3.8859 1.72852 0
M  V30 2700 N 248.321 -0.919034 -1.28029 0
M  V30 2701 C 249.551 -0.570143 -1.98577 0
M  V30 2702 C 249.959 0.854172 -1.68821 0
M  V30 2703 O 249.302 1.57807 -0.940351 0
M  V30 2704 C 249.364 -0.705734 -3.52505 0
M  V30 2705 C 249.028 -2.10057 -4.05863 0
M  V30 2706 C 250.025 -3.07385 -4.19298 0
M  V30 2707 C 247.71 -2.41517 -4.40426 0
M  V30 2708 C 249.704 -4.34287 -4.66555 0
M  V30 2709 C 247.391 -3.68657 -4.87376 0
M  V30 2710 C 248.389 -4.64856 -5.00398 0
M  V30 2711 O 248.077 -5.89735 -5.46322 0
M  V30 2712 H 247.809 -0.215592 -0.6407 0
M  V30 2713 H 250.363 -1.23583 -1.64062 0
M  V30 2714 H 248.593 0.0170414 -3.86696 0
M  V30 2715 H 250.282 -0.363172 -4.04272 0
M  V30 2716 H 251.048 -2.84398 -3.92865 0
M  V30 2717 H 246.927 -1.67389 -4.29537 0
M  V30 2718 H 250.471 -5.09377 -4.76635 0
M  V30 2719 H 246.368 -3.91466 -5.13249 0
M  V30 2720 H 247.136 -5.92599 -5.64596 0
M  V30 2721 N 249.799 1.42003 -0.683588 0
M  V30 2722 C 251.048 2.00638 -0.206681 0
M  V30 2723 C 251.361 1.5472 1.19671 0
M  V30 2724 O 252.567 2.05833 1.77045 0
M  V30 2725 C 251.023 3.58487 -0.318632 0
M  V30 2726 C 250.631 4.1339 -1.72663 0
M  V30 2727 C 252.375 4.24384 0.0991141 0
M  V30 2728 C 250.282 5.63633 -1.79087 0
M  V30 2729 H 249.212 0.750408 -0.0735107 0
M  V30 2730 H 251.863 1.62624 -0.850048 0
M  V30 2731 H 250.245 3.94047 0.392781 0
M  V30 2732 H 251.419 3.89273 -2.46583 0
M  V30 2733 H 249.734 3.59976 -2.09299 0
M  V30 2734 H 252.331 5.34652 0.0713833 0
M  V30 2735 H 252.674 4.00505 1.13586 0
M  V30 2736 H 253.207 3.93816 -0.561599 0
M  V30 2737 H 249.946 5.92323 -2.80774 0
M  V30 2738 H 249.466 5.89714 -1.09535 0
M  V30 2739 H 251.145 6.28201 -1.5483 0
M  V30 2740 N 251.277 0.427512 1.51691 0
M  V30 2741 C 252.507 -0.140986 2.06118 0
M  V30 2742 C 252.915 -1.37854 1.29588 0
M  V30 2743 O 252.258 -1.80411 0.346036 0
M  V30 2744 C 252.32 -0.538276 3.55447 0
M  V30 2745 C 251.984 0.591095 4.53161 0
M  V30 2746 C 252.981 1.46027 4.98971 0
M  V30 2747 C 250.666 0.769028 4.96378 0
M  V30 2748 C 252.66 2.49216 5.8666 0
M  V30 2749 C 250.347 1.80421 5.83859 0
M  V30 2750 C 251.345 2.66417 6.28897 0
M  V30 2751 O 251.033 3.68159 7.14643 0
M  V30 2752 H 250.765 -0.0157455 0.675817 0
M  V30 2753 H 253.319 0.602495 1.96365 0
M  V30 2754 H 251.549 -1.33432 3.6295 0
M  V30 2755 H 253.238 -1.0368 3.92435 0
M  V30 2756 H 254.004 1.33429 4.66285 0
M  V30 2757 H 249.883 0.109273 4.6087 0
M  V30 2758 H 253.427 3.16372 6.21735 0
M  V30 2759 H 249.324 1.93042 6.15959 0
M  V30 2760 H 250.092 3.64622 7.32798 0
M  V30 2761 N 252.755 -1.56801 0.158532 0
M  V30 2762 C 253.985 -2.00568 -0.495583 0
M  V30 2763 C 254.393 -1.03774 -1.58201 0
M  V30 2764 O 253.736 -0.0285797 -1.83678 0
M  V30 2765 C 253.798 -3.40768 -1.14532 0
M  V30 2766 C 253.462 -4.56553 -0.202101 0
M  V30 2767 C 254.459 -5.16714 0.574675 0
M  V30 2768 C 252.144 -5.02197 -0.101648 0
M  V30 2769 C 254.138 -6.20939 1.43924 0
M  V30 2770 C 251.825 -6.06274 0.766508 0
M  V30 2771 C 252.823 -6.65515 1.53555 0
M  V30 2772 O 252.511 -7.67575 2.38922 0
M  V30 2773 H 252.243 -0.662893 -0.13247 0
M  V30 2774 H 254.797 -2.03829 0.253559 0
M  V30 2775 H 253.027 -3.34381 -1.94233 0
M  V30 2776 H 254.716 -3.6857 -1.70033 0
M  V30 2777 H 255.482 -4.82341 0.507167 0
M  V30 2778 H 251.361 -4.55807 -0.689994 0
M  V30 2779 H 254.905 -6.67107 2.03996 0
M  V30 2780 H 250.802 -6.40073 0.835266 0
M  V30 2781 H 251.57 -7.84844 2.32296 0
M  V30 2782 N 254.233 0.115231 -1.57178 0
M  V30 2783 C 255.181 1.16014 -2.01602 0
M  V30 2784 C 256.175 1.42653 -0.913587 0
M  V30 2785 O 257.381 1.42571 -1.09879 0
M  V30 2786 H 253.756 0.391252 -0.642204 0
M  V30 2787 H 255.727 0.758998 -2.88586 0
M  V30 2788 C 254.476 2.47767 -2.4394 0
M  V30 2789 H 253.799 2.28108 -3.28339 0
M  V30 2790 H 255.239 3.19432 -2.78818 0
M  V30 2791 C 253.698 3.10617 -1.30455 0
M  V30 2792 O 254.228 3.96846 -0.622585 0
M  V30 2793 N 252.434 2.70553 -1.06064 0
M  V30 2794 H 251.981 2.00527 -1.61699 0
M  V30 2795 H 251.939 3.12934 -0.303284 0
M  V30 2796 N 255.711 1.52812 0.385517 0
M  V30 2797 C 256.621 1.80766 1.49535 0
M  V30 2798 C 257.637 0.694651 1.59532 0
M  V30 2799 O 258.813 0.982611 1.75803 0
M  V30 2800 C 255.878 1.97381 2.85029 0
M  V30 2801 C 254.939 3.21295 2.84724 0
M  V30 2802 C 254.172 3.37108 4.13756 0
M  V30 2803 O 254.395 2.5765 5.08893 0
M  V30 2804 O 253.329 4.30378 4.20783 0
M  V30 2805 H 257.155 2.75015 1.28842 0
M  V30 2806 H 254.74 1.37946 0.573697 0
M  V30 2807 H 256.622 2.09996 3.65349 0
M  V30 2808 H 255.297 1.06322 3.05741 0
M  V30 2809 H 254.204 3.1412 2.03174 0
M  V30 2810 H 255.537 4.12212 2.68965 0
M  V30 2811 N 257.189 -0.644168 1.43834 0
M  V30 2812 C 258.136 -1.75671 1.49694 0
M  V30 2813 C 259.106 -1.6246 0.345809 0
M  V30 2814 O 260.291 -1.82573 0.554234 0
M  V30 2815 C 257.431 -3.13867 1.43463 0
M  V30 2816 C 256.544 -3.38147 2.6885 0
M  V30 2817 C 255.679 -4.66241 2.54544 0
M  V30 2818 C 254.718 -4.83657 3.75157 0
M  V30 2819 N 253.855 -6.03016 3.59605 0
M  V30 2820 H 258.695 -1.69998 2.44754 0
M  V30 2821 H 256.232 -0.829458 1.21484 0
M  V30 2822 H 258.19 -3.9377 1.37843 0
M  V30 2823 H 256.82 -3.18588 0.519783 0
M  V30 2824 H 255.872 -2.52276 2.84712 0
M  V30 2825 H 257.184 -3.46899 3.58417 0
M  V30 2826 H 256.338 -5.54285 2.46683 0
M  V30 2827 H 255.077 -4.59826 1.62516 0
M  V30 2828 H 254.082 -3.94046 3.83416 0
M  V30 2829 H 255.307 -4.91896 4.68204 0
M  V30 2830 H 253.253 -5.97715 2.7032 0
M  V30 2831 H 253.17 -6.12766 4.42779 0
M  V30 2832 H 254.438 -6.93657 3.55613 0
M  V30 2833 N 258.668 -1.30515 -0.883378 0
M  V30 2834 C 259.898 -1.22182 -1.66599 0
M  V30 2835 C 260.306 0.217507 -1.87946 0
M  V30 2836 O 259.649 1.1554 -1.42815 0
M  V30 2837 C 259.711 -1.88146 -3.06335 0
M  V30 2838 C 259.375 -3.37476 -3.08154 0
M  V30 2839 C 260.372 -4.33443 -2.87094 0
M  V30 2840 C 258.057 -3.7895 -3.29701 0
M  V30 2841 C 260.051 -5.68858 -2.8754 0
M  V30 2842 C 257.738 -5.14482 -3.29776 0
M  V30 2843 C 258.736 -6.09246 -3.0872 0
M  V30 2844 O 258.424 -7.42302 -3.08615 0
M  V30 2845 H 258.156 -0.423898 -0.52658 0
M  V30 2846 H 260.71 -1.72703 -1.11188 0
M  V30 2847 H 258.94 -1.32157 -3.63416 0
M  V30 2848 H 260.629 -1.7391 -3.66756 0
M  V30 2849 H 261.395 -4.02733 -2.70243 0
M  V30 2850 H 257.274 -3.05631 -3.45124 0
M  V30 2851 H 260.818 -6.428 -2.71024 0
M  V30 2852 H 256.715 -5.44832 -3.46163 0
M  V30 2853 H 257.483 -7.5131 -3.24769 0
M  V30 2854 N 260.146 1.09593 -1.13257 0
M  V30 2855 C 261.394 1.81375 -0.891492 0
M  V30 2856 C 261.715 1.86049 0.584009 0
M  V30 2857 O 260.985 1.34481 1.42449 0
M  V30 2858 H 259.565 0.671708 -0.326828 0
M  V30 2859 H 262.227 1.3256 -1.42877 0
M  V30 2860 H 261.323 2.84612 -1.28071 0
M  V30 2861 N 261.624 0.925811 1.2754 0
M  V30 2862 C 262.872 0.564138 1.94067 0
M  V30 2863 C 263.193 -0.897188 1.73134 0
M  V30 2864 O 262.463 -1.63573 1.07799 0
M  V30 2865 H 261.043 0.205645 0.718136 0
M  V30 2866 H 263.705 1.1778 1.55287 0
M  V30 2867 H 262.801 0.76881 3.02483 0
M  V30 2868 N 263.102 -1.41638 0.69111 0
M  V30 2869 C 264.513 -1.84346 0.295517 0
M  V30 2870 C 264.864 -1.57833 -1.16547 0
M  V30 2871 O 263.989 -1.04648 -1.89414 0
M  V30 2872 C 264.584 -3.34636 0.529575 0
M  V30 2873 C 263.143 -3.7593 0.187944 0
M  V30 2874 C 262.29 -2.65082 0.814052 0
M  V30 2875 H 265.241 -1.31253 0.892092 0
M  V30 2876 H 265.262 -3.79903 -0.213148 0
M  V30 2877 H 264.774 -3.53901 1.59297 0
M  V30 2878 H 262.875 -3.62268 -0.871367 0
M  V30 2879 H 262.988 -4.74808 0.63985 0
M  V30 2880 H 261.352 -2.53528 0.244017 0
M  V30 2881 H 262.135 -2.87167 1.88123 0
M  V30 2882 N 264.58 -0.43555 -1.51462 0
M  V30 2883 C 265.528 0.391205 -2.29287 0
M  V30 2884 C 266.522 1.02247 -1.35062 0
M  V30 2885 O 267.728 0.957646 -1.52411 0
M  V30 2886 H 264.103 0.144968 -0.737895 0
M  V30 2887 H 266.074 -0.286051 -2.97026 0
M  V30 2888 C 264.823 1.48096 -3.14583 0
M  V30 2889 H 264.146 1.00457 -3.86973 0
M  V30 2890 H 265.586 2.03273 -3.72097 0
M  V30 2891 C 264.045 2.46321 -2.29843 0
M  V30 2892 O 264.575 3.50815 -1.95682 0
M  V30 2893 N 262.781 2.17166 -1.931 0
M  V30 2894 H 262.328 1.32218 -2.21079 0
M  V30 2895 H 262.286 2.83127 -1.36698 0
M  V30 2896 N 266.058 1.56714 -0.166846 0
M  V30 2897 C 267.008 2.14338 0.777382 0
M  V30 2898 C 267.992 1.07642 1.19591 0
M  V30 2899 O 269.184 1.33775 1.15902 0
M  V30 2900 C 266.313 2.78417 2.00846 0
M  V30 2901 C 265.399 3.92264 1.61212 0
M  V30 2902 N 265.79 4.97268 0.925104 0
M  V30 2903 C 264.088 4.03342 1.90346 0
M  V30 2904 C 264.789 5.77093 0.730627 0
M  V30 2905 N 263.765 5.2854 1.27067 0
M  V30 2906 H 267.567 2.9289 0.243466 0
M  V30 2907 H 265.081 1.62364 0.0339954 0
M  V30 2908 H 267.078 3.18073 2.69509 0
M  V30 2909 H 265.738 2.01344 2.54736 0
M  V30 2910 H 266.749 5.14601 0.583646 0
M  V30 2911 H 263.426 3.37368 2.45946 0
M  V30 2912 H 264.816 6.71638 0.187668 0
M  V30 2913 N 267.536 -0.106894 1.57237 0
M  V30 2914 C 268.486 -1.1366 1.9765 0
M  V30 2915 C 269.47 -1.36416 0.853203 0
M  V30 2916 O 270.662 -1.37305 1.11697 0
M  V30 2917 C 267.791 -2.46 2.39455 0
M  V30 2918 C 266.877 -2.26668 3.58445 0
M  V30 2919 N 267.268 -1.77176 4.73754 0
M  V30 2920 C 265.566 -2.57279 3.64312 0
M  V30 2921 C 266.267 -1.71836 5.5574 0
M  V30 2922 N 265.243 -2.16623 4.98573 0
M  V30 2923 H 269.045 -0.74669 2.84256 0
M  V30 2924 H 266.559 -0.314483 1.59326 0
M  V30 2925 H 268.556 -3.2049 2.6663 0
M  V30 2926 H 267.216 -2.85738 1.54219 0
M  V30 2927 H 268.227 -1.46545 4.96734 0
M  V30 2928 H 264.904 -3.00622 2.89711 0
M  V30 2929 H 266.294 -1.34723 6.58255 0
M  V30 2930 N 269.014 -1.53014 -0.377408 0
M  V30 2931 C 269.944 -1.81589 -1.46791 0
M  V30 2932 C 270.925 -0.668622 -1.56408 0
M  V30 2933 O 272.11 -0.917337 -1.71168 0
M  V30 2934 C 269.24 -1.99519 -2.8427 0
M  V30 2935 C 268.194 -3.15249 -2.89486 0
M  V30 2936 C 267.52 -3.18451 -4.29527 0
M  V30 2937 C 268.82 -4.54084 -2.58079 0
M  V30 2938 H 270.514 -2.7291 -1.23127 0
M  V30 2939 H 268.06 -1.31319 -0.590883 0
M  V30 2940 H 270.013 -2.18092 -3.60575 0
M  V30 2941 H 268.737 -1.04897 -3.09296 0
M  V30 2942 H 267.396 -2.96477 -2.15631 0
M  V30 2943 H 267.044 -2.2149 -4.5161 0
M  V30 2944 H 266.744 -3.962 -4.33934 0
M  V30 2945 H 268.268 -3.39193 -5.07721 0
M  V30 2946 H 269.682 -4.72899 -3.24098 0
M  V30 2947 H 268.079 -5.33987 -2.7382 0
M  V30 2948 H 269.149 -4.60006 -1.53372 0
M  V30 2949 N 270.492 0.636531 -1.44174 0
M  V30 2950 C 271.903 1.21806 -1.41493 0
M  V30 2951 C 272.254 1.95785 -0.1275 0
M  V30 2952 O 271.379 2.02147 0.772376 0
M  V30 2953 C 271.974 2.21551 -2.56321 0
M  V30 2954 C 270.533 2.75143 -2.56853 0
M  V30 2955 C 269.68 1.50052 -2.33195 0
M  V30 2956 H 272.631 0.427531 -1.52833 0
M  V30 2957 H 272.652 3.0405 -2.28765 0
M  V30 2958 H 272.164 1.67679 -3.50008 0
M  V30 2959 H 270.265 3.33033 -1.67093 0
M  V30 2960 H 270.378 3.2155 -3.55165 0
M  V30 2961 H 268.742 1.77993 -1.82183 0
M  V30 2962 H 269.525 0.980903 -3.28988 0
M  V30 2963 N 271.97 1.30982 0.876444 0
M  V30 2964 C 272.9 1.20668 1.99903 0
M  V30 2965 C 273.881 0.095354 1.69833 0
M  V30 2966 O 275.066 0.27885 1.92188 0
M  V30 2967 C 272.196 0.90655 3.3526 0
M  V30 2968 C 271.15 1.97675 3.79617 0
M  V30 2969 C 270.476 1.52943 5.1236 0
M  V30 2970 C 271.776 3.389 3.97422 0
M  V30 2971 H 273.47 2.14586 2.0879 0
M  V30 2972 H 271.016 1.03308 1.00317 0
M  V30 2973 H 272.969 0.821025 4.13324 0
M  V30 2974 H 271.693 -0.0682969 3.26529 0
M  V30 2975 H 270.352 2.05205 3.03787 0
M  V30 2976 H 270 0.54262 5.00065 0
M  V30 2977 H 269.7 2.24532 5.43009 0
M  V30 2978 H 271.224 1.45786 5.92941 0
M  V30 2979 H 272.638 3.34081 4.659 0
M  V30 2980 H 271.035 4.0865 4.3946 0
M  V30 2981 H 272.105 3.80163 3.01006 0
M  V30 2982 N 273.449 -1.08991 1.13837 0
M  V30 2983 C 274.86 -1.62746 0.914917 0
M  V30 2984 C 275.211 -1.88403 -0.547594 0
M  V30 2985 O 274.336 -1.63706 -1.41525 0
M  V30 2986 C 274.931 -2.95662 1.65437 0
M  V30 2987 C 273.49 -3.46225 1.47666 0
M  V30 2988 C 272.637 -2.20562 1.6807 0
M  V30 2989 H 275.588 -0.922946 1.29102 0
M  V30 2990 H 275.609 -3.63825 1.11407 0
M  V30 2991 H 275.121 -2.76956 2.71877 0
M  V30 2992 H 273.222 -3.70046 0.435478 0
M  V30 2993 H 273.335 -4.23368 2.24268 0
M  V30 2994 H 271.699 -2.29439 1.10589 0
M  V30 2995 H 272.482 -2.0437 2.7584 0
M  V30 2996 N 274.927 -0.932562 -1.27047 0
M  V30 2997 C 276.204 -0.49377 -1.89265 0
M  V30 2998 C 276.584 1.02833 -1.8436 0
M  V30 2999 O 275.932 1.88461 -1.29209 0
M  V30 3000 C 276.142 -1.04536 -3.32976 0
M  V30 3001 C 277.49 -1.10879 -4.09867 0
M  V30 3002 O 278.514 -0.995327 -3.42011 0
M  V30 3003 O 277.373 -1.28417 -5.31198 0
M  V30 3004 H 274.467 -0.159596 -0.811454 0
M  V30 3005 H 277.013 -1.02457 -1.3528 0
M  V30 3006 H 275.785 -2.08913 -3.30864 0
M  V30 3007 H 275.408 -0.496494 -3.94488 0
M  V30 3008 N 276.405 1.4127 -0.698611 0
M  V30 3009 C 277.353 2.32588 -0.023855 0
M  V30 3010 C 278.347 1.51128 0.765292 0
M  V30 3011 O 279.553 1.67043 0.670571 0
M  V30 3012 H 275.928 0.751918 0.0110871 0
M  V30 3013 H 277.899 2.87167 -0.811031 0
M  V30 3014 C 276.648 3.35947 0.896369 0
M  V30 3015 H 275.971 3.98684 0.298548 0
M  V30 3016 H 277.411 4.02376 1.33676 0
M  V30 3017 C 275.87 2.70076 2.01396 0
M  V30 3018 O 276.4 2.55093 3.10307 0
M  V30 3019 N 274.606 2.28724 1.79259 0
M  V30 3020 H 274.153 2.4111 0.906841 0
M  V30 3021 H 274.111 1.84986 2.54219 0
M  V30 3022 N 277.883 0.443576 1.51229 0
M  V30 3023 C 279.129 -0.11321 2.03085 0
M  V30 3024 C 279.484 -1.39841 1.32145 0
M  V30 3025 O 278.777 -1.86723 0.429542 0
M  V30 3026 C 278.971 -0.380579 3.55368 0
M  V30 3027 C 278.8 0.877157 4.41062 0
M  V30 3028 C 277.57 1.4125 4.85156 0
M  V30 3029 C 279.768 1.76503 4.83064 0
M  V30 3030 N 277.75 2.62213 5.55083 0
M  V30 3031 C 279.121 2.82067 5.52122 0
M  V30 3032 C 281.176 1.7787 4.65045 0
M  V30 3033 C 279.879 3.88952 6.05069 0
M  V30 3034 C 281.905 2.83694 5.18914 0
M  V30 3035 C 281.267 3.87978 5.87922 0
M  V30 3036 H 277.366 -0.00210178 0.781997 0
M  V30 3037 H 279.95 0.605641 1.85041 0
M  V30 3038 H 278.121 -1.06847 3.73414 0
M  V30 3039 H 279.853 -0.929274 3.93887 0
M  V30 3040 H 276.608 0.965542 4.63653 0
M  V30 3041 H 277.032 3.23568 5.9467 0
M  V30 3042 H 281.674 0.985744 4.11148 0
M  V30 3043 H 279.392 4.69082 6.58018 0
M  V30 3044 H 282.978 2.85702 5.06819 0
M  V30 3045 H 281.858 4.68517 6.28857 0
M  V30 3046 N 279.361 -1.56624 0.175154 0
M  V30 3047 C 280.308 -2.18149 -0.753634 0
M  V30 3048 C 281.278 -1.12265 -1.22417 0
M  V30 3049 O 282.463 -1.40432 -1.29165 0
M  V30 3050 C 279.603 -2.82933 -1.97592 0
M  V30 3051 C 278.716 -4.03289 -1.5486 0
M  V30 3052 C 277.851 -4.55988 -2.72485 0
M  V30 3053 C 276.89 -5.68746 -2.26262 0
M  V30 3054 N 276.027 -6.15938 -3.36994 0
M  V30 3055 H 280.867 -2.9717 -0.222195 0
M  V30 3056 H 278.404 -1.46774 -0.0979422 0
M  V30 3057 H 280.362 -3.18653 -2.69288 0
M  V30 3058 H 278.992 -2.06509 -2.481 0
M  V30 3059 H 278.044 -3.73364 -0.728246 0
M  V30 3060 H 279.356 -4.849 -1.16933 0
M  V30 3061 H 278.51 -4.9391 -3.52332 0
M  V30 3062 H 277.249 -3.73443 -3.13674 0
M  V30 3063 H 276.254 -5.30372 -1.44863 0
M  V30 3064 H 277.479 -6.53095 -1.86127 0
M  V30 3065 H 275.425 -5.36321 -3.77751 0
M  V30 3066 H 275.342 -6.92548 -3.03172 0
M  V30 3067 H 276.61 -6.58511 -4.17114 0
M  V30 3068 N 280.839 0.0985539 -1.57292 0
M  V30 3069 C 282.064 0.820196 -1.90493 0
M  V30 3070 C 282.489 1.71658 -0.769094 0
M  V30 3071 O 281.847 1.79133 0.279495 0
M  V30 3072 C 281.895 1.61242 -3.22542 0
M  V30 3073 O 280.999 2.72108 -3.09888 0
M  V30 3074 H 280.34 0.225547 -0.62452 0
M  V30 3075 H 282.87 0.0748159 -2.04463 0
M  V30 3076 H 282.88 1.99737 -3.55766 0
M  V30 3077 H 281.555 0.954535 -4.04798 0
M  V30 3078 H 280.132 2.36667 -2.88172 0
M  V30 3079 N 282.317 1.53212 0.369288 0
M  V30 3080 C 283.249 1.75668 1.47219 0
M  V30 3081 C 284.262 0.637387 1.49804 0
M  V30 3082 O 285.451 0.913561 1.5335 0
M  V30 3083 C 282.551 1.81818 2.85999 0
M  V30 3084 C 281.724 3.11409 3.07153 0
M  V30 3085 C 280.783 3.08849 4.26026 0
M  V30 3086 O 279.809 3.82659 4.2138 0
M  V30 3087 N 281.011 2.29409 5.33246 0
M  V30 3088 H 283.776 2.70832 1.28337 0
M  V30 3089 H 281.337 1.51944 0.55898 0
M  V30 3090 H 283.329 1.77588 3.63655 0
M  V30 3091 H 281.899 0.939544 2.98146 0
M  V30 3092 H 281.119 3.28971 2.1719 0
M  V30 3093 H 282.407 3.97059 3.18154 0
M  V30 3094 H 281.805 1.68946 5.39883 0
M  V30 3095 H 280.362 2.31001 6.09493 0
M  V30 3096 N 283.795 -0.628877 1.44509 0
M  V30 3097 C 285.041 -1.39045 1.47629 0
M  V30 3098 C 285.374 -1.93892 0.109343 0
M  V30 3099 O 284.649 -1.7379 -0.87334 0
M  V30 3100 C 284.932 -2.55408 2.53848 0
M  V30 3101 C 284.785 -2.05896 3.99909 0
M  V30 3102 C 286.104 -3.5759 2.56549 0
M  V30 3103 H 283.223 -0.504232 0.537512 0
M  V30 3104 H 285.865 -0.710854 1.76201 0
M  V30 3105 H 284.015 -3.13384 2.29615 0
M  V30 3106 H 285.687 -1.52734 4.35282 0
M  V30 3107 H 283.93 -1.37061 4.11578 0
M  V30 3108 H 284.601 -2.89681 4.69882 0
M  V30 3109 H 287.077 -3.09419 2.78207 0
M  V30 3110 H 285.953 -4.36527 3.32769 0
M  V30 3111 H 286.214 -4.11808 1.60832 0
M  V30 3112 N 285.273 -1.31445 -0.869486 0
M  V30 3113 C 286.183 -1.21097 -2.0093 0
M  V30 3114 C 287.199 -0.127584 -1.73532 0
M  V30 3115 O 288.375 -0.345477 -1.98415 0
M  V30 3116 C 285.44 -0.919378 -3.34288 0
M  V30 3117 C 284.501 -2.08971 -3.75006 0
M  V30 3118 C 283.734 -1.81194 -5.02001 0
M  V30 3119 O 283.957 -0.747296 -5.65484 0
M  V30 3120 O 282.891 -2.66883 -5.39497 0
M  V30 3121 H 286.717 -2.16883 -2.12592 0
M  V30 3122 H 284.302 -1.11189 -0.997868 0
M  V30 3123 H 286.184 -0.772625 -4.14257 0
M  V30 3124 H 284.859 0.00844772 -3.23699 0
M  V30 3125 H 283.766 -2.29187 -2.95676 0
M  V30 3126 H 285.099 -2.9998 -3.90221 0
M  V30 3127 N 286.751 1.08385 -1.14413 0
M  V30 3128 C 288.162 1.62258 -0.923535 0
M  V30 3129 C 288.513 1.88691 0.537595 0
M  V30 3130 O 287.638 1.64454 1.40655 0
M  V30 3131 C 288.233 2.94781 -1.67002 0
M  V30 3132 C 286.792 3.45437 -1.495 0
M  V30 3133 C 285.939 2.19668 -1.69238 0
M  V30 3134 H 288.89 0.916086 -1.2959 0
M  V30 3135 H 288.911 3.63229 -1.13334 0
M  V30 3136 H 288.423 2.7551 -2.73342 0
M  V30 3137 H 286.524 3.6981 -0.455097 0
M  V30 3138 H 286.637 4.22173 -2.2651 0
M  V30 3139 H 285.001 2.28849 -1.11804 0
M  V30 3140 H 285.784 2.02905 -2.7692 0
M  V30 3141 N 288.23 0.939286 1.26551 0
M  V30 3142 C 289.14 0.453432 2.30176 0
M  V30 3143 C 290.156 -0.471649 1.67486 0
M  V30 3144 O 291.332 -0.35164 1.98306 0
M  V30 3145 C 288.397 -0.275326 3.45605 0
M  V30 3146 C 287.458 0.686084 4.23782 0
M  V30 3147 C 286.691 -0.00798994 5.33699 0
M  V30 3148 O 286.914 -1.22528 5.57085 0
M  V30 3149 O 285.848 0.669746 5.98162 0
M  V30 3150 H 289.674 1.31416 2.73795 0
M  V30 3151 H 287.259 0.705095 1.31715 0
M  V30 3152 H 289.141 -0.685911 4.1578 0
M  V30 3153 H 287.816 -1.11147 3.0402 0
M  V30 3154 H 286.723 1.14658 3.56096 0
M  V30 3155 H 288.056 1.48979 4.69112 0
M  V30 3156 N 289.708 -1.40897 0.706093 0
M  V30 3157 C 290.936 -2.05373 0.250887 0
M  V30 3158 C 291.351 -1.53172 -1.10381 0
M  V30 3159 O 290.708 -0.684305 -1.69185 0
M  V30 3160 C 290.759 -3.6088 0.211571 0
M  V30 3161 O 290.48 -4.11153 1.51276 0
M  V30 3162 C 291.981 -4.42517 -0.263346 0
M  V30 3163 H 289.201 -0.66115 0.114552 0
M  V30 3164 H 291.745 -1.80479 0.961635 0
M  V30 3165 H 289.9 -3.84777 -0.450073 0
M  V30 3166 H 290.314 -5.05279 1.40689 0
M  V30 3167 H 291.788 -5.51479 -0.239718 0
M  V30 3168 H 292.265 -4.19396 -1.30397 0
M  V30 3169 H 292.871 -4.23708 0.367677 0
M  V30 3170 N 291.186 -0.45159 -1.50991 0
M  V30 3171 C 292.602 -0.104647 -1.59257 0
M  V30 3172 C 292.802 1.38728 -1.4614 0
M  V30 3173 O 291.858 2.15866 -1.30989 0
M  V30 3174 C 293.171 -0.637468 -2.93865 0
M  V30 3175 C 294.719 -0.599166 -3.07212 0
M  V30 3176 C 295.194 -1.1092 -4.44366 0
M  V30 3177 N 296.685 -1.06778 -4.50725 0
M  V30 3178 C 297.42 -1.43314 -5.55201 0
M  V30 3179 N 296.916 -1.87204 -6.67028 0
M  V30 3180 N 298.709 -1.3504 -5.45638 0
M  V30 3181 H 290.86 -1.42214 -1.57762 0
M  V30 3182 H 293.123 -0.586921 -0.744465 0
M  V30 3183 H 292.829 -1.68187 -3.08879 0
M  V30 3184 H 292.703 -0.0702139 -3.77135 0
M  V30 3185 H 295.09 0.436277 -2.91857 0
M  V30 3186 H 295.171 -1.20299 -2.25747 0
M  V30 3187 H 294.815 -2.14318 -4.60467 0
M  V30 3188 H 294.745 -0.481773 -5.24392 0
M  V30 3189 H 297.236 -0.745643 -3.70471 0
M  V30 3190 H 297.549 -2.13282 -7.42786 0
M  V30 3191 H 295.894 -1.91142 -6.68199 0
M  V30 3192 H 299.085 -1.00607 -4.57161 0
M  V30 3193 H 299.258 -1.63841 -6.26945 0
M  V30 3194 N 292.664 1.56529 -0.183458 0
M  V30 3195 C 293.627 2.17324 0.728223 0
M  V30 3196 C 294.627 1.12453 1.14939 0
M  V30 3197 O 295.817 1.37902 1.06437 0
M  V30 3198 C 292.949 2.76591 1.99274 0
M  V30 3199 H 294.142 2.99241 0.198772 0
M  V30 3200 H 291.695 1.5616 0.0661391 0
M  V30 3201 H 292.43 1.98441 2.56499 0
M  V30 3202 H 292.215 3.5335 1.69959 0
M  V30 3203 H 293.705 3.23311 2.6431 0
M  V30 3204 N 294.142 -0.090211 1.57342 0
M  V30 3205 C 295.388 -0.793982 1.86611 0
M  V30 3206 C 295.721 -1.78142 0.773252 0
M  V30 3207 O 294.996 -1.93271 -0.218304 0
M  V30 3208 C 295.279 -1.51839 3.26523 0
M  V30 3209 C 295.132 -0.548609 4.46442 0
M  V30 3210 C 296.451 -2.46779 3.64401 0
M  V30 3211 H 293.57 -0.287186 0.678744 0
M  V30 3212 H 296.212 -0.0575076 1.89913 0
M  V30 3213 H 294.362 -2.14617 3.23839 0
M  V30 3214 H 296.034 0.0725513 4.61243 0
M  V30 3215 H 294.277 0.137614 4.33582 0
M  V30 3216 H 294.948 -1.09271 5.41076 0
M  V30 3217 H 297.424 -1.94089 3.68061 0
M  V30 3218 H 296.3 -2.94479 4.63221 0
M  V30 3219 H 296.561 -3.30758 2.93346 0
M  V30 3220 N 295.62 -1.53406 -0.361157 0
M  V30 3221 C 296.869 -1.69022 -1.10066 0
M  V30 3222 C 297.182 -0.450838 -1.90333 0
M  V30 3223 O 298.388 -0.487617 -2.67085 0
M  V30 3224 C 296.844 -2.98812 -2.00598 0
M  V30 3225 C 296.452 -4.30027 -1.25621 0
M  V30 3226 C 298.196 -3.23795 -2.74513 0
M  V30 3227 C 296.103 -5.50903 -2.1508 0
M  V30 3228 H 295.033 -0.629776 -0.414606 0
M  V30 3229 H 297.684 -1.79907 -0.361348 0
M  V30 3230 H 296.066 -2.8174 -2.78278 0
M  V30 3231 H 297.24 -4.57745 -0.529739 0
M  V30 3232 H 295.555 -4.11522 -0.635496 0
M  V30 3233 H 298.152 -4.11289 -3.41681 0
M  V30 3234 H 298.495 -2.40045 -3.40123 0
M  V30 3235 H 299.028 -3.41561 -2.03914 0
M  V30 3236 H 295.767 -6.37143 -1.54041 0
M  V30 3237 H 295.287 -5.27459 -2.85565 0
M  V30 3238 H 296.966 -5.85865 -2.74538 0
M  V30 3239 N 297.098 0.621204 -1.44841 0
M  V30 3240 C 298.514 0.94048 -1.28946 0
M  V30 3241 C 298.714 2.00154 -0.23249 0
M  V30 3242 O 297.77 2.49651 0.378237 0
M  V30 3243 C 299.083 1.39433 -2.66419 0
M  V30 3244 C 300.631 1.50927 -2.74208 0
M  V30 3245 C 301.106 1.99692 -4.12174 0
M  V30 3246 N 302.597 2.06947 -4.144 0
M  V30 3247 C 303.332 2.45871 -5.1801 0
M  V30 3248 N 302.828 2.83862 -6.31977 0
M  V30 3249 N 304.621 2.46092 -5.05366 0
M  V30 3250 H 296.772 -0.0803548 -2.12248 0
M  V30 3251 H 299.035 0.0266913 -0.947624 0
M  V30 3252 H 298.741 0.688925 -3.44887 0
M  V30 3253 H 298.615 2.36347 -2.93973 0
M  V30 3254 H 301.002 2.20561 -1.96053 0
M  V30 3255 H 301.083 0.523627 -2.50383 0
M  V30 3256 H 300.727 1.30649 -4.90809 0
M  V30 3257 H 300.657 2.99146 -4.33381 0
M  V30 3258 H 303.148 1.80232 -3.32152 0
M  V30 3259 H 303.461 3.12405 -7.0684 0
M  V30 3260 H 301.806 2.8159 -6.35399 0
M  V30 3261 H 304.997 2.1581 -4.15384 0
M  V30 3262 H 305.17 2.76102 -5.86235 0
M  V30 3263 N 298.576 1.31904 0.862503 0
M  V30 3264 C 299.822 1.23207 1.61838 0
M  V30 3265 C 300.177 -0.206062 1.91293 0
M  V30 3266 O 299.47 -1.14162 1.53875 0
M  V30 3267 C 299.664 2.01713 2.95037 0
M  V30 3268 C 299.493 3.53014 2.78588 0
M  V30 3269 C 298.263 4.22359 2.77382 0
M  V30 3270 C 300.461 4.47819 2.52909 0
M  V30 3271 N 298.443 5.59766 2.52062 0
M  V30 3272 C 299.814 5.72947 2.36922 0
M  V30 3273 C 301.869 4.37162 2.38314 0
M  V30 3274 C 300.572 6.88623 2.07823 0
M  V30 3275 C 302.598 5.5263 2.10604 0
M  V30 3276 C 301.96 6.76752 1.95411 0
M  V30 3277 H 298.059 0.505984 0.596242 0
M  V30 3278 H 300.643 1.66179 1.01452 0
M  V30 3279 H 298.814 1.61098 3.53415 0
M  V30 3280 H 300.546 1.84975 3.59953 0
M  V30 3281 H 297.301 3.74401 2.90036 0
M  V30 3282 H 297.725 6.32135 2.42352 0
M  V30 3283 H 302.367 3.41857 2.48784 0
M  V30 3284 H 300.085 7.83948 1.9609 0
M  V30 3285 H 303.671 5.46307 2.00101 0
M  V30 3286 H 302.551 7.6459 1.74274 0
M  V30 3287 N 300.054 -1.07777 1.14986 0
M  V30 3288 C 300.987 -2.14228 0.786243 0
M  V30 3289 C 301.965 -1.60888 -0.235347 0
M  V30 3290 O 303.149 -1.88099 -0.122909 0
M  V30 3291 C 300.276 -3.38281 0.168433 0
M  V30 3292 C 299.322 -4.10387 1.16123 0
M  V30 3293 S 300.155 -4.62371 2.70135 0
M  V30 3294 C 301.311 -5.89704 2.09762 0
M  V30 3295 H 301.544 -2.44741 1.68787 0
M  V30 3296 H 299.077 -1.19984 0.971756 0
M  V30 3297 H 301.035 -4.10098 -0.181588 0
M  V30 3298 H 299.696 -3.05953 -0.710725 0
M  V30 3299 H 298.889 -4.99431 0.677086 0
M  V30 3300 H 298.491 -3.44513 1.45556 0
M  V30 3301 H 300.783 -6.61648 1.45701 0
M  V30 3302 H 301.726 -6.42824 2.96955 0
M  V30 3303 H 302.134 -5.4302 1.54239 0
M  V30 3304 N 301.532 -0.945985 -1.26051 0
M  V30 3305 C 302.482 -0.430164 -2.23905 0
M  V30 3306 C 303.466 0.47579 -1.53704 0
M  V30 3307 O 304.658 0.310252 -1.7426 0
M  V30 3308 C 301.787 0.298957 -3.41996 0
M  V30 3309 C 300.873 -0.624566 -4.19476 0
M  V30 3310 N 301.264 -1.75245 -4.74471 0
M  V30 3311 C 299.562 -0.431082 -4.43912 0
M  V30 3312 C 300.263 -2.32834 -5.3307 0
M  V30 3313 N 299.239 -1.61583 -5.1903 0
M  V30 3314 H 303.041 -1.29107 -2.64024 0
M  V30 3315 H 300.555 -0.802428 -1.41191 0
M  V30 3316 H 302.552 0.685565 -4.11225 0
M  V30 3317 H 301.212 1.15657 -3.03403 0
M  V30 3318 H 302.223 -2.13449 -4.71868 0
M  V30 3319 H 298.9 0.384364 -4.15727 0
M  V30 3320 H 300.29 -3.27893 -5.86461 0
M  V30 3321 N 303.011 1.40521 -0.713556 0
M  V30 3322 C 304.236 2.05759 -0.26035 0
M  V30 3323 C 304.661 1.53403 1.08854 0
M  V30 3324 O 304.019 0.668535 1.68524 0
M  V30 3325 C 304.067 3.59745 -0.248122 0
M  V30 3326 O 303.171 4.05123 0.77131 0
M  V30 3327 H 302.512 0.652564 -0.122703 0
M  V30 3328 H 305.042 1.79958 -0.973467 0
M  V30 3329 H 305.052 4.07911 -0.0851129 0
M  V30 3330 H 303.727 3.97218 -1.2325 0
M  V30 3331 H 302.304 3.68422 0.57619 0
M  V30 3332 N 304.489 0.459591 1.5075 0
M  V30 3333 C 305.736 -0.0993495 2.02256 0
M  V30 3334 C 306.064 -1.40751 1.34237 0
M  V30 3335 O 305.319 -1.90379 0.453228 0
M  V30 3336 C 305.618 -0.342866 3.55752 0
M  V30 3337 C 305.284 0.88218 4.42186 0
M  V30 3338 C 303.946 1.21808 4.65528 0
M  V30 3339 C 306.298 1.69837 4.92752 0
M  V30 3340 C 303.626 2.37045 5.36681 0
M  V30 3341 C 305.978 2.84192 5.65171 0
M  V30 3342 C 304.642 3.1821 5.8677 0
M  V30 3343 H 303.912 -0.0363545 0.740108 0
M  V30 3344 H 306.559 0.611329 1.8148 0
M  V30 3345 H 304.864 -1.13567 3.7498 0
M  V30 3346 H 306.561 -0.789121 3.93159 0
M  V30 3347 H 303.151 0.610467 4.2423 0
M  V30 3348 H 307.335 1.45205 4.74583 0
M  V30 3349 H 302.591 2.63689 5.51614 0
M  V30 3350 H 306.765 3.4779 6.03337 0
M  V30 3351 H 304.392 4.07613 6.41682 0
M  V30 3352 N 305.967 -1.56429 0.191757 0
M  V30 3353 C 306.915 -2.20273 -0.747174 0
M  V30 3354 C 307.909 -1.17288 -1.22229 0
M  V30 3355 O 309.115 -1.35441 -1.18557 0
M  V30 3356 H 305.49 -0.705885 -0.259289 0
M  V30 3357 H 307.461 -2.97826 -0.184963 0
M  V30 3358 C 306.21 -2.87356 -1.95759 0
M  V30 3359 H 305.533 -3.66341 -1.60106 0
M  V30 3360 H 306.973 -3.3547 -2.59299 0
M  V30 3361 C 305.432 -1.88213 -2.79423 0
M  V30 3362 O 305.962 -1.38033 -3.7724 0
M  V30 3363 N 304.168 -1.56516 -2.44849 0
M  V30 3364 H 303.715 -1.97516 -1.65364 0
M  V30 3365 H 303.673 -0.904369 -3.01112 0
M  V30 3366 N 307.445 0.0818655 -1.57387 0
M  V30 3367 C 308.692 0.782914 -1.86753 0
M  V30 3368 C 309.02 1.78082 -0.782118 0
M  V30 3369 O 308.275 1.94426 0.22295 0
M  V30 3370 C 308.574 1.53513 -3.22752 0
M  V30 3371 C 308.24 0.678134 -4.45771 0
M  V30 3372 C 306.902 0.441929 -4.79166 0
M  V30 3373 C 309.254 0.0832243 -5.21134 0
M  V30 3374 C 306.582 -0.398833 -5.85343 0
M  V30 3375 C 308.934 -0.744935 -6.28199 0
M  V30 3376 C 307.598 -0.991107 -6.60101 0
M  V30 3377 H 306.868 0.286489 -0.683378 0
M  V30 3378 H 309.515 0.0439808 -1.91449 0
M  V30 3379 H 307.82 2.34599 -3.138 0
M  V30 3380 H 309.517 2.08218 -3.42705 0
M  V30 3381 H 306.107 0.872357 -4.19628 0
M  V30 3382 H 310.291 0.252847 -4.95655 0
M  V30 3383 H 305.547 -0.598405 -6.08465 0
M  V30 3384 H 309.721 -1.21271 -6.8576 0
M  V30 3385 H 307.348 -1.64437 -7.42202 0
M  V30 3386 N 308.923 1.53595 0.353017 0
M  V30 3387 C 310.169 1.70638 1.09593 0
M  V30 3388 C 310.502 0.463286 1.88593 0
M  V30 3389 O 309.777 -0.539597 1.86865 0
M  V30 3390 C 310.06 2.96406 2.04489 0
M  V30 3391 C 309.913 4.30901 1.29014 0
M  V30 3392 C 311.232 3.17812 3.0444 0
M  V30 3393 H 308.351 0.620913 0.397034 0
M  V30 3394 H 310.993 1.86254 0.375446 0
M  V30 3395 H 309.143 2.83223 2.65927 0
M  V30 3396 H 310.815 4.55917 0.702638 0
M  V30 3397 H 309.058 4.29741 0.592071 0
M  V30 3398 H 309.729 5.1506 1.98537 0
M  V30 3399 H 312.205 3.30263 2.53112 0
M  V30 3400 H 311.081 4.07223 3.6805 0
M  V30 3401 H 311.342 2.33669 3.75301 0
M  V30 3402 N 310.401 -0.613514 1.45168 0
M  V30 3403 C 311.331 -1.7354 1.56225 0
M  V30 3404 C 312.312 -1.64981 0.41414 0
M  V30 3405 O 313.497 -1.83472 0.636526 0
M  V30 3406 C 310.627 -3.12128 1.52295 0
M  V30 3407 C 309.581 -3.35491 2.65762 0
M  V30 3408 C 308.907 -4.74291 2.46885 0
M  V30 3409 C 310.207 -3.26325 4.0781 0
M  V30 3410 H 311.901 -1.64543 2.50132 0
M  V30 3411 H 309.447 -0.790185 1.20383 0
M  V30 3412 H 311.4 -3.90404 1.58628 0
M  V30 3413 H 310.124 -3.2195 0.549139 0
M  V30 3414 H 308.783 -2.59603 2.58847 0
M  V30 3415 H 308.431 -4.80839 1.47657 0
M  V30 3416 H 308.131 -4.9088 3.22972 0
M  V30 3417 H 309.655 -5.54775 2.55063 0
M  V30 3418 H 311.069 -3.94483 4.16 0
M  V30 3419 H 309.466 -3.54445 4.8424 0
M  V30 3420 H 310.536 -2.23855 4.30136 0
M  V30 3421 N 311.879 -1.3236 -0.855495 0
M  V30 3422 C 313.104 -1.2601 -1.64731 0
M  V30 3423 C 313.529 0.169068 -1.87339 0
M  V30 3424 O 312.887 1.12016 -1.42556 0
M  V30 3425 C 312.935 -2.02417 -2.98429 0
M  V30 3426 O 312.039 -1.3714 -3.8893 0
M  V30 3427 H 311.38 -0.434325 -0.502253 0
M  V30 3428 H 313.91 -1.74661 -1.06558 0
M  V30 3429 H 313.92 -2.12559 -3.48257 0
M  V30 3430 H 312.595 -3.06343 -2.81295 0
M  V30 3431 H 311.172 -1.3554 -3.47395 0
M  V30 3432 N 313.357 1.07166 -1.15556 0
M  V30 3433 C 314.32 2.12589 -0.856644 0
M  V30 3434 C 315.32 1.6015 0.14444 0
M  V30 3435 O 316.51 1.7399 -0.0854163 0
M  V30 3436 C 313.642 3.39753 -0.279405 0
M  V30 3437 H 314.835 2.40539 -1.79112 0
M  V30 3438 H 312.388 1.23086 -0.963298 0
M  V30 3439 H 313.123 3.17447 0.663174 0
M  V30 3440 H 312.908 3.79117 -1.00063 0
M  V30 3441 H 314.398 4.17507 -0.0879113 0
M  V30 3442 N 314.835 0.952656 1.25548 0
M  V30 3443 C 315.783 0.462354 2.27958 0
M  V30 3444 C 316.777 -0.46634 1.62855 0
M  V30 3445 O 317.983 -0.343287 1.76696 0
M  V30 3446 H 314.358 0.13101 0.7405 0
M  V30 3447 H 316.329 1.33839 2.66702 0
M  V30 3448 C 315.078 -0.24628 3.46827 0
M  V30 3449 H 314.401 0.459192 3.97154 0
M  V30 3450 H 315.841 -0.553393 4.20373 0
M  V30 3451 C 314.3 -1.4681 3.0323 0
M  V30 3452 O 314.83 -2.56591 3.09069 0
M  V30 3453 N 313.036 -1.32874 2.58443 0
M  V30 3454 H 312.583 -0.435536 2.53891 0
M  V30 3455 H 312.541 -2.14742 2.29637 0
M  V30 3456 N 316.313 -1.40141 0.720998 0
M  V30 3457 C 317.243 -2.33339 0.0867621 0
M  V30 3458 C 318.224 -1.53178 -0.739622 0
M  V30 3459 O 319.409 -1.81625 -0.687449 0
M  V30 3460 C 316.539 -3.37194 -0.831728 0
M  V30 3461 C 315.493 -4.27857 -0.110558 0
M  V30 3462 C 314.819 -5.22294 -1.14513 0
M  V30 3463 C 316.119 -5.11872 1.0385 0
M  V30 3464 H 317.813 -2.86626 0.865219 0
M  V30 3465 H 315.359 -1.37814 0.417516 0
M  V30 3466 H 317.312 -4.01335 -1.28485 0
M  V30 3467 H 316.036 -2.82314 -1.64214 0
M  V30 3468 H 314.695 -3.65176 0.322797 0
M  V30 3469 H 314.343 -4.63717 -1.94874 0
M  V30 3470 H 314.043 -5.83797 -0.667446 0
M  V30 3471 H 315.567 -5.89312 -1.59824 0
M  V30 3472 H 316.981 -5.69436 0.664482 0
M  V30 3473 H 315.378 -5.82445 1.4449 0
M  V30 3474 H 316.448 -4.4753 1.86668 0
M  V30 3475 N 317.792 -0.46758 -1.50504 0
M  V30 3476 C 318.742 0.34698 -2.25344 0
M  V30 3477 C 319.726 0.964469 -1.2879 0
M  V30 3478 O 320.918 0.8776 -1.53711 0
M  V30 3479 C 318.047 1.43042 -3.1208 0
M  V30 3480 C 317.133 0.82084 -4.16081 0
M  V30 3481 N 317.524 -0.0567602 -5.05768 0
M  V30 3482 C 315.822 1.08517 -4.32597 0
M  V30 3483 C 316.523 -0.402343 -5.80307 0
M  V30 3484 N 315.499 0.221607 -5.43148 0
M  V30 3485 H 319.301 -0.329129 -2.92051 0
M  V30 3486 H 316.815 -0.281508 -1.59942 0
M  V30 3487 H 318.812 2.02712 -3.64299 0
M  V30 3488 H 317.472 2.10856 -2.46921 0
M  V30 3489 H 318.483 -0.425349 -5.1615 0
M  V30 3490 H 315.16 1.75855 -3.78657 0
M  V30 3491 H 316.55 -1.11834 -6.62528 0
M  V30 3492 N 319.27 1.56325 -0.20005 0
M  V30 3493 C 320.518 1.97329 0.436547 0
M  V30 3494 C 320.839 1.08826 1.61808 0
M  V30 3495 O 320.109 0.160604 1.95241 0
M  V30 3496 H 318.689 0.728714 0.164272 0
M  V30 3497 H 321.351 1.92761 -0.287937 0
M  V30 3498 H 320.447 3.02264 0.777353 0
M  V30 3499 N 320.748 -0.0735177 1.57428 0
M  V30 3500 C 321.996 -0.771472 1.86796 0
M  V30 3501 C 322.317 -1.78201 0.791804 0
M  V30 3502 O 321.587 -1.95074 -0.179718 0
M  V30 3503 H 320.167 -0.28791 0.689287 0
M  V30 3504 H 322.829 -0.0500161 1.94836 0
M  V30 3505 H 321.925 -1.28874 2.8425 0
M  V30 3506 N 322.226 -1.5378 -0.344866 0
M  V30 3507 C 323.189 -1.80981 -1.40637 0
M  V30 3508 C 324.189 -0.680816 -1.45676 0
M  V30 3509 O 325.379 -0.949095 -1.46075 0
M  V30 3510 C 322.511 -1.95063 -2.79577 0
M  V30 3511 H 323.704 -2.75803 -1.17783 0
M  V30 3512 H 321.257 -1.45173 -0.579181 0
M  V30 3513 H 321.992 -1.02379 -3.07716 0
M  V30 3514 H 321.777 -2.77198 -2.77315 0
M  V30 3515 H 323.267 -2.17629 -3.56409 0
M  V30 3516 N 323.704 0.605807 -1.45491 0
M  V30 3517 C 324.95 1.36679 -1.49823 0
M  V30 3518 C 325.283 1.93693 -0.140175 0
M  V30 3519 O 324.558 1.75158 0.845581 0
M  V30 3520 C 324.841 2.51337 -2.57879 0
M  V30 3521 C 324.694 1.99508 -4.03134 0
M  V30 3522 C 326.013 3.53463 -2.62205 0
M  V30 3523 H 323.132 0.495617 -0.545466 0
M  V30 3524 H 325.774 0.682732 -1.7731 0
M  V30 3525 H 323.924 3.09691 -2.34571 0
M  V30 3526 H 325.596 1.45789 -4.37656 0
M  V30 3527 H 323.839 1.30496 -4.13707 0
M  V30 3528 H 324.51 2.82169 -4.74431 0
M  V30 3529 H 326.986 3.04953 -2.83095 0
M  V30 3530 H 325.862 4.31178 -3.39672 0
M  V30 3531 H 326.123 4.09197 -1.67363 0
M  V30 3532 N 325.182 1.32811 0.848464 0
M  V30 3533 C 326.428 1.23907 1.60546 0
M  V30 3534 C 326.761 -0.197161 1.93197 0
M  V30 3535 O 326.036 -1.13596 1.5788 0
M  V30 3536 C 326.319 2.10489 2.92175 0
M  V30 3537 C 326.172 3.62522 2.66266 0
M  V30 3538 C 327.491 1.97075 3.93509 0
M  V30 3539 H 324.61 0.451459 0.58254 0
M  V30 3540 H 327.252 1.62818 0.979296 0
M  V30 3541 H 325.402 1.77434 3.45614 0
M  V30 3542 H 327.074 4.05821 2.19334 0
M  V30 3543 H 325.317 3.84879 2.00126 0
M  V30 3544 H 325.988 4.18437 3.6002 0
M  V30 3545 H 328.464 2.26045 3.49346 0
M  V30 3546 H 327.34 2.59923 4.83457 0
M  V30 3547 H 327.601 0.940186 4.31987 0
M  V30 3548 N 326.66 -1.06551 1.16123 0
M  V30 3549 C 327.623 -2.12132 0.867906 0
M  V30 3550 C 328.623 -1.60224 -0.135944 0
M  V30 3551 O 329.813 -1.73943 0.0946422 0
M  V30 3552 C 326.945 -3.396 0.297419 0
M  V30 3553 H 328.138 -2.39586 1.80385 0
M  V30 3554 H 325.691 -1.22574 0.969812 0
M  V30 3555 H 326.426 -3.17794 -0.64633 0
M  V30 3556 H 326.211 -3.78581 1.02073 0
M  V30 3557 H 327.701 -4.17455 0.110052 0
M  V30 3558 N 328.138 -0.959301 -1.25041 0
M  V30 3559 C 329.086 -0.474437 -2.2771 0
M  V30 3560 C 330.08 0.457697 -1.631 0
M  V30 3561 O 331.286 0.333912 -1.76876 0
M  V30 3562 H 327.661 -0.134936 -0.739795 0
M  V30 3563 H 329.632 -1.35251 -2.65988 0
M  V30 3564 C 328.381 0.227884 -3.46952 0
M  V30 3565 H 327.704 -0.480248 -3.96905 0
M  V30 3566 H 329.144 0.531091 -4.20661 0
M  V30 3567 C 327.603 1.452 -3.04004 0
M  V30 3568 O 328.133 2.54949 -3.10426 0
M  V30 3569 N 326.339 1.31502 -2.59144 0
M  V30 3570 H 325.886 0.422065 -2.54119 0
M  V30 3571 H 325.844 2.13521 -2.30773 0
M  V30 3572 N 329.616 1.39756 -0.72842 0
M  V30 3573 C 330.846 2.04651 -0.283117 0
M  V30 3574 C 331.254 1.5502 1.08469 0
M  V30 3575 O 330.597 0.707343 1.69536 0
M  V30 3576 C 330.659 3.58947 -0.199309 0
M  V30 3577 C 330.323 4.31525 -1.5045 0
M  V30 3578 C 331.32 4.5861 -2.44894 0
M  V30 3579 C 329.005 4.70195 -1.76698 0
M  V30 3580 C 330.999 5.23366 -3.63822 0
M  V30 3581 C 328.686 5.3468 -2.95906 0
M  V30 3582 C 329.684 5.61198 -3.89289 0
M  V30 3583 O 329.372 6.24347 -5.06404 0
M  V30 3584 H 329.104 0.664777 -0.122666 0
M  V30 3585 H 331.658 1.79913 -0.990987 0
M  V30 3586 H 329.888 3.82556 0.56461 0
M  V30 3587 H 331.577 4.0534 0.213125 0
M  V30 3588 H 332.343 4.29187 -2.25883 0
M  V30 3589 H 328.222 4.48916 -1.04859 0
M  V30 3590 H 331.766 5.4398 -4.36728 0
M  V30 3591 H 327.663 5.63524 -3.14819 0
M  V30 3592 H 328.431 6.42842 -5.06652 0
M  V30 3593 N 331.094 0.475555 1.50254 0
M  V30 3594 C 332.505 0.0215174 1.86688 0
M  V30 3595 C 332.856 -1.38467 1.39001 0
M  V30 3596 O 331.981 -2.02732 0.756894 0
M  V30 3597 C 332.576 0.0322715 3.38785 0
M  V30 3598 C 331.135 -0.366314 3.74613 0
M  V30 3599 C 330.282 0.415832 2.74164 0
M  V30 3600 H 333.233 0.689612 1.42934 0
M  V30 3601 H 333.254 -0.76889 3.7265 0
M  V30 3602 H 332.766 1.05584 3.73462 0
M  V30 3603 H 330.867 -1.39406 3.45538 0
M  V30 3604 H 330.98 -0.064555 4.79057 0
M  V30 3605 H 329.344 -0.131048 2.54363 0
M  V30 3606 H 330.127 1.43899 3.11686 0
M  V30 3607 N 332.573 -1.56217 0.208337 0
M  V30 3608 C 333.803 -2.02043 -0.431523 0
M  V30 3609 C 334.211 -1.08755 -1.54819 0
M  V30 3610 O 333.554 -0.0870009 -1.83494 0
M  V30 3611 C 333.616 -3.44239 -1.03633 0
M  V30 3612 C 333.28 -4.56965 -0.0567502 0
M  V30 3613 C 334.277 -5.14624 0.738773 0
M  V30 3614 C 331.962 -5.02266 0.0581736 0
M  V30 3615 C 333.956 -6.16045 1.63605 0
M  V30 3616 C 331.643 -6.03528 0.959001 0
M  V30 3617 C 332.641 -6.60293 1.7465 0
M  V30 3618 O 332.329 -7.59586 2.6322 0
M  V30 3619 H 332.061 -0.666772 -0.111313 0
M  V30 3620 H 334.615 -2.02919 0.318277 0
M  V30 3621 H 332.845 -3.40391 -1.83497 0
M  V30 3622 H 334.534 -3.73793 -1.58221 0
M  V30 3623 H 335.3 -4.80483 0.660364 0
M  V30 3624 H 331.179 -4.57771 -0.544633 0
M  V30 3625 H 334.723 -6.60279 2.25116 0
M  V30 3626 H 330.62 -6.37092 1.03848 0
M  V30 3627 H 331.388 -7.77057 2.57148 0
M  V30 3628 N 334.051 0.0651679 -1.57465 0
M  V30 3629 C 335.328 0.79644 -1.78651 0
M  V30 3630 C 335.708 1.95454 -0.797566 0
M  V30 3631 O 335.056 2.27882 0.167946 0
M  V30 3632 C 335.266 1.26322 -3.25337 0
M  V30 3633 C 336.614 1.6939 -3.89348 0
M  V30 3634 O 337.638 1.35872 -3.29268 0
M  V30 3635 O 336.497 2.31471 -4.95059 0
M  V30 3636 H 333.591 0.382157 -0.733407 0
M  V30 3637 H 336.137 0.0447311 -1.69641 0
M  V30 3638 H 334.909 0.434859 -3.88876 0
M  V30 3639 H 334.532 2.07604 -3.39096 0
M  V30 3640 N 335.529 1.53961 0.336706 0
M  V30 3641 C 336.476 1.82428 1.41381 0
M  V30 3642 C 337.446 0.670444 1.51968 0
M  V30 3643 O 338.631 0.915565 1.67398 0
M  V30 3644 C 335.771 2.04564 2.77934 0
M  V30 3645 C 334.884 3.32267 2.76084 0
M  V30 3646 C 334.019 3.44434 4.04399 0
M  V30 3647 C 333.058 4.66061 3.96804 0
M  V30 3648 N 332.195 4.75224 5.16823 0
M  V30 3649 H 337.035 2.74324 1.16405 0
M  V30 3650 H 334.572 1.35869 0.563752 0
M  V30 3651 H 336.53 2.15388 3.57301 0
M  V30 3652 H 335.16 1.15974 3.01247 0
M  V30 3653 H 334.212 3.3025 1.88784 0
M  V30 3654 H 335.524 4.21733 2.66351 0
M  V30 3655 H 334.678 3.54728 4.92192 0
M  V30 3656 H 333.417 2.53037 4.16921 0
M  V30 3657 H 332.422 4.55838 3.07396 0
M  V30 3658 H 333.647 5.58829 3.85858 0
M  V30 3659 H 331.593 3.86739 5.29876 0
M  V30 3660 H 331.51 5.58636 5.09374 0
M  V30 3661 H 332.778 4.89835 6.06367 0
M  V30 3662 N 337.007 -0.598083 1.45811 0
M  V30 3663 C 338.232 -1.3881 1.54099 0
M  V30 3664 C 338.657 -1.8726 0.177578 0
M  V30 3665 O 338.015 -1.6069 -0.839541 0
M  V30 3666 C 338.063 -2.56217 2.53743 0
M  V30 3667 O 337.167 -3.5716 2.06182 0
M  V30 3668 H 336.508 -0.414024 0.519115 0
M  V30 3669 H 339.038 -0.726971 1.91249 0
M  V30 3670 H 339.048 -3.03337 2.72856 0
M  V30 3671 H 337.723 -2.20303 3.5276 0
M  V30 3672 H 336.3 -3.16624 1.96987 0
M  V30 3673 N 338.485 -1.33259 -0.841409 0
M  V30 3674 C 339.732 -1.24572 -1.5965 0
M  V30 3675 C 340.06 0.189137 -1.93578 0
M  V30 3676 O 339.315 1.14566 -1.5866 0
M  V30 3677 C 339.614 -2.06381 -2.9179 0
M  V30 3678 C 339.28 -3.556 -2.77235 0
M  V30 3679 C 337.942 -3.96282 -2.72973 0
M  V30 3680 C 340.294 -4.50433 -2.62221 0
M  V30 3681 C 337.622 -5.30017 -2.51592 0
M  V30 3682 C 339.974 -5.84327 -2.42374 0
M  V30 3683 C 338.638 -6.24194 -2.36512 0
M  V30 3684 H 337.908 -0.455842 -0.5842 0
M  V30 3685 H 340.555 -1.6482 -0.975016 0
M  V30 3686 H 338.86 -1.58903 -3.5813 0
M  V30 3687 H 340.557 -1.97019 -3.49263 0
M  V30 3688 H 337.147 -3.23298 -2.81384 0
M  V30 3689 H 341.331 -4.19914 -2.64549 0
M  V30 3690 H 336.587 -5.59947 -2.45499 0
M  V30 3691 H 340.761 -6.57414 -2.29739 0
M  V30 3692 H 338.388 -7.27759 -2.19706 0
M  V30 3693 N 339.963 1.05934 -1.16686 0
M  V30 3694 C 340.873 2.17014 -0.891183 0
M  V30 3695 C 341.889 1.73453 0.137907 0
M  V30 3696 O 343.065 2.01361 -0.039592 0
M  V30 3697 C 340.13 3.44384 -0.400099 0
M  V30 3698 C 339.191 4.02433 -1.49486 0
M  V30 3699 C 338.424 5.23723 -1.02711 0
M  V30 3700 O 338.647 5.7027 0.121716 0
M  V30 3701 O 337.581 5.7382 -1.81699 0
M  V30 3702 H 341.407 2.43113 -1.82015 0
M  V30 3703 H 338.992 1.15541 -0.947132 0
M  V30 3704 H 340.874 4.21189 -0.133392 0
M  V30 3705 H 339.549 3.19802 0.500817 0
M  V30 3706 H 338.456 3.27102 -1.81535 0
M  V30 3707 H 339.789 4.31317 -2.37121 0
M  V30 3708 N 341.441 0.965919 1.2453 0
M  V30 3709 C 342.391 0.465731 2.23193 0
M  V30 3710 C 343.375 -0.451277 1.54442 0
M  V30 3711 O 344.567 -0.282489 1.74731 0
M  V30 3712 C 341.696 -0.244511 3.42428 0
M  V30 3713 C 340.782 0.691222 4.18429 0
M  V30 3714 N 341.173 1.82771 4.71623 0
M  V30 3715 C 339.471 0.501649 4.4317 0
M  V30 3716 C 340.172 2.41285 5.29298 0
M  V30 3717 N 339.148 1.69819 5.16394 0
M  V30 3718 H 342.95 1.33291 2.61937 0
M  V30 3719 H 340.464 0.824789 1.39896 0
M  V30 3720 H 342.461 -0.620056 4.12263 0
M  V30 3721 H 341.121 -1.10815 3.05205 0
M  V30 3722 H 342.132 2.20929 4.68413 0
M  V30 3723 H 338.809 -0.318177 4.16286 0
M  V30 3724 H 340.199 3.37181 5.8117 0
M  V30 3725 N 342.919 -1.39368 0.735821 0
M  V30 3726 C 344.335 -1.54204 0.411492 0
M  V30 3727 C 344.535 -1.70268 -1.07755 0
M  V30 3728 O 343.591 -1.70364 -1.86366 0
M  V30 3729 C 344.904 -2.75925 1.19523 0
M  V30 3730 C 346.452 -2.89761 1.18354 0
M  V30 3731 C 346.927 -4.14421 1.94986 0
M  V30 3732 N 348.418 -4.21462 1.92156 0
M  V30 3733 C 349.153 -5.16871 2.48258 0
M  V30 3734 N 348.649 -6.18063 3.13001 0
M  V30 3735 N 350.442 -5.09093 2.38287 0
M  V30 3736 H 342.593 -1.27189 1.70108 0
M  V30 3737 H 344.856 -0.616517 0.720147 0
M  V30 3738 H 344.562 -2.70401 2.24892 0
M  V30 3739 H 344.436 -3.68614 0.800222 0
M  V30 3740 H 346.823 -2.94777 0.137975 0
M  V30 3741 H 346.904 -1.98133 1.61793 0
M  V30 3742 H 346.548 -4.10166 2.99543 0
M  V30 3743 H 346.478 -5.05095 1.48953 0
M  V30 3744 H 348.969 -3.48979 1.44991 0
M  V30 3745 H 349.282 -6.87326 3.53275 0
M  V30 3746 H 347.627 -6.18448 3.17091 0
M  V30 3747 H 350.818 -4.28973 1.8735 0
M  V30 3748 H 350.991 -5.83272 2.82308 0
M  V30 3749 N 344.397 -0.483516 -1.5 0
M  V30 3750 C 345.643 0.0672592 -2.02688 0
M  V30 3751 C 345.976 1.38247 -1.36387 0
M  V30 3752 O 345.251 1.88131 -0.493675 0
M  V30 3753 C 345.534 0.238109 -3.59312 0
M  V30 3754 C 345.387 -1.099 -4.36168 0
M  V30 3755 C 346.706 0.986916 -4.28892 0
M  V30 3756 H 343.825 0.0229696 -0.736642 0
M  V30 3757 H 346.467 -0.631527 -1.79197 0
M  V30 3758 H 344.617 0.8333 -3.79458 0
M  V30 3759 H 346.289 -1.73172 -4.27562 0
M  V30 3760 H 344.532 -1.69261 -3.99416 0
M  V30 3761 H 345.203 -0.932954 -5.44059 0
M  V30 3762 H 347.679 0.482302 -4.13295 0
M  V30 3763 H 346.555 1.07527 -5.38265 0
M  V30 3764 H 346.816 2.0265 -3.92919 0
M  V30 3765 N 345.875 1.56104 -0.216619 0
M  V30 3766 C 347.291 1.58995 0.13886 0
M  V30 3767 C 347.491 1.23333 1.59346 0
M  V30 3768 O 346.547 0.966234 2.33281 0
M  V30 3769 C 347.86 3.00143 -0.182968 0
M  V30 3770 C 349.408 3.12751 -0.124807 0
M  V30 3771 C 349.883 4.56068 -0.420241 0
M  V30 3772 N 351.374 4.61723 -0.369634 0
M  V30 3773 C 352.109 5.70542 -0.571789 0
M  V30 3774 N 351.605 6.87744 -0.835453 0
M  V30 3775 N 353.398 5.59831 -0.504563 0
M  V30 3776 H 345.549 1.77562 -1.16557 0
M  V30 3777 H 347.812 0.825091 -0.466828 0
M  V30 3778 H 347.518 3.30871 -1.19237 0
M  V30 3779 H 347.392 3.73813 0.504367 0
M  V30 3780 H 349.779 2.81822 0.875223 0
M  V30 3781 H 349.86 2.41421 -0.845544 0
M  V30 3782 H 349.504 4.87713 -1.41769 0
M  V30 3783 H 349.434 5.25617 0.321631 0
M  V30 3784 H 351.925 3.77502 -0.173338 0
M  V30 3785 H 352.238 7.66587 -0.977938 0
M  V30 3786 H 350.583 6.895 -0.872592 0
M  V30 3787 H 353.774 4.67145 -0.298842 0
M  V30 3788 H 353.947 6.44573 -0.665519 0
M  V30 3789 N 347.353 -0.0568162 1.57498 0
M  V30 3790 C 348.601 -0.751617 1.87604 0
M  V30 3791 C 348.922 -1.77351 0.81066 0
M  V30 3792 O 348.192 -1.95254 -0.159018 0
M  V30 3793 H 346.772 -0.280583 0.692302 0
M  V30 3794 H 349.434 -0.0293483 1.94878 0
M  V30 3795 H 348.53 -1.25852 2.856 0
M  V30 3796 N 348.832 -1.54138 -0.328536 0
M  V30 3797 C 350.078 -1.7236 -1.06865 0
M  V30 3798 C 350.411 -0.493231 -1.87832 0
M  V30 3799 O 349.686 0.5098 -1.877 0
M  V30 3800 C 349.969 -2.99621 -1.99747 0
M  V30 3801 C 349.822 -4.32899 -1.22143 0
M  V30 3802 C 351.141 -3.22615 -2.99345 0
M  V30 3803 H 348.26 -0.627151 -0.387105 0
M  V30 3804 H 350.902 -1.86827 -0.345767 0
M  V30 3805 H 349.052 -2.87418 -2.61387 0
M  V30 3806 H 350.724 -4.56978 -0.630017 0
M  V30 3807 H 348.967 -4.30628 -0.523628 0
M  V30 3808 H 349.638 -5.18154 -1.90318 0
M  V30 3809 H 352.114 -3.34248 -2.47826 0
M  V30 3810 H 350.99 -4.13027 -3.61524 0
M  V30 3811 H 351.251 -2.3961 -3.71536 0
M  V30 3812 N 350.31 0.590341 -1.46126 0
M  V30 3813 C 351.726 0.912917 -1.30912 0
M  V30 3814 C 351.926 1.99616 -0.274893 0
M  V30 3815 O 350.982 2.50397 0.325197 0
M  V30 3816 C 352.295 1.3375 -2.69317 0
M  V30 3817 C 353.843 1.45077 -2.77348 0
M  V30 3818 C 354.318 1.90904 -4.16317 0
M  V30 3819 N 355.809 1.9811 -4.18696 0
M  V30 3820 C 356.544 2.34828 -5.23109 0
M  V30 3821 N 356.04 2.70393 -6.37856 0
M  V30 3822 N 357.833 2.35317 -5.10473 0
M  V30 3823 H 349.984 -0.125358 -2.1203 0
M  V30 3824 H 352.247 0.00658481 -0.947977 0
M  V30 3825 H 351.953 0.615614 -3.4627 0
M  V30 3826 H 351.827 2.30058 -2.9892 0
M  V30 3827 H 354.214 2.16353 -2.00687 0
M  V30 3828 H 354.295 0.4704 -2.51438 0
M  V30 3829 H 353.939 1.20209 -4.9347 0
M  V30 3830 H 353.869 2.89886 -4.39629 0
M  V30 3831 H 356.36 1.73146 -3.359 0
M  V30 3832 H 356.673 2.97341 -7.13308 0
M  V30 3833 H 355.018 2.68048 -6.41229 0
M  V30 3834 H 358.209 2.0695 -4.19868 0
M  V30 3835 H 358.382 2.63605 -5.9196 0
M  V30 3836 N 351.788 1.33704 0.83433 0
M  V30 3837 C 353.204 1.13137 1.12571 0
M  V30 3838 C 353.404 -0.0747261 2.01361 0
M  V30 3839 O 352.46 -0.753647 2.4099 0
M  V30 3840 C 353.773 2.42105 1.78342 0
M  V30 3841 C 355.321 2.48054 1.90888 0
M  V30 3842 C 355.796 3.76995 2.60075 0
M  V30 3843 N 357.287 3.78092 2.67584 0
M  V30 3844 C 358.022 4.74574 3.21818 0
M  V30 3845 N 357.518 5.81434 3.76705 0
M  V30 3846 N 359.311 4.62044 3.20112 0
M  V30 3847 H 351.462 2.11 0.243489 0
M  V30 3848 H 353.725 0.932532 0.17055 0
M  V30 3849 H 353.431 3.30391 1.20561 0
M  V30 3850 H 353.305 2.54594 2.7832 0
M  V30 3851 H 355.692 1.60215 2.47821 0
M  V30 3852 H 355.773 2.39502 0.898459 0
M  V30 3853 H 355.417 4.65219 2.03799 0
M  V30 3854 H 355.347 3.82825 3.61597 0
M  V30 3855 H 357.838 3.00865 2.28667 0
M  V30 3856 H 358.151 6.51084 4.16305 0
M  V30 3857 H 356.496 5.85163 3.7498 0
M  V30 3858 H 359.687 3.77716 2.76493 0
M  V30 3859 H 359.86 5.37406 3.62076 0
M  V30 3860 N 353.266 -1.05314 1.17247 0
M  V30 3861 C 354.494 -1.81971 0.984593 0
M  V30 3862 C 354.909 -1.82929 -0.467166 0
M  V30 3863 O 354.266 -1.25564 -1.32438 0
M  V30 3864 C 354.317 -3.28143 1.51672 0
M  V30 3865 O 354.038 -3.27347 2.91163 0
M  V30 3866 C 355.539 -4.21493 1.37326 0
M  V30 3867 H 352.759 -0.573455 0.348411 0
M  V30 3868 H 355.303 -1.32808 1.55506 0
M  V30 3869 H 353.458 -3.74582 0.988302 0
M  V30 3870 H 353.872 -4.18824 3.15732 0
M  V30 3871 H 355.346 -5.22043 1.79375 0
M  V30 3872 H 355.823 -4.38031 0.320169 0
M  V30 3873 H 356.429 -3.80909 1.89178 0
M  V30 3874 N 354.744 -0.972509 -1.24016 0
M  V30 3875 C 355.707 -0.511403 -2.23422 0
M  V30 3876 C 356.707 0.394679 -1.55881 0
M  V30 3877 O 357.897 0.189469 -1.73167 0
M  V30 3878 C 355.029 0.258769 -3.39916 0
M  V30 3879 H 356.222 -1.39024 -2.6573 0
M  V30 3880 H 353.775 -0.757585 -1.36713 0
M  V30 3881 H 354.51 1.1545 -3.03054 0
M  V30 3882 H 354.295 -0.391522 -3.9014 0
M  V30 3883 H 355.785 0.570244 -4.13688 0
M  V30 3884 N 356.222 1.38976 -0.743202 0
M  V30 3885 C 357.447 2.05161 -0.303936 0
M  V30 3886 C 357.872 1.55677 1.05576 0
M  V30 3887 O 357.23 0.704131 1.67068 0
M  V30 3888 C 357.278 3.59138 -0.324373 0
M  V30 3889 O 356.382 4.06668 0.685204 0
M  V30 3890 H 355.723 0.649815 -0.136518 0
M  V30 3891 H 358.253 1.77852 -1.01142 0
M  V30 3892 H 358.263 4.07639 -0.171618 0
M  V30 3893 H 356.938 3.94515 -1.31647 0
M  V30 3894 H 355.515 3.69561 0.497913 0
M  V30 3895 N 357.7 0.491464 1.49741 0
M  V30 3896 C 358.928 -0.0535151 2.06831 0
M  V30 3897 C 359.343 -1.31683 1.35296 0
M  V30 3898 O 358.7 -1.77402 0.42836 0
M  V30 3899 C 358.751 -0.320835 3.60073 0
M  V30 3900 O 358.472 0.892394 4.28915 0
M  V30 3901 C 359.973 -0.910519 4.33848 0
M  V30 3902 H 357.193 0.0161909 0.670805 0
M  V30 3903 H 359.737 0.68609 1.92647 0
M  V30 3904 H 357.892 -1.0104 3.73991 0
M  V30 3905 H 358.306 0.649401 5.20464 0
M  V30 3906 H 359.78 -1.04721 5.41976 0
M  V30 3907 H 360.257 -1.90589 3.95692 0
M  V30 3908 H 360.863 -0.258712 4.24512 0
M  V30 3909 N 359.178 -1.55987 0.224894 0
M  V30 3910 C 360.589 -1.84553 -0.282345 0
M  V30 3911 C 360.94 -1.14634 -1.59227 0
M  V30 3912 O 360.065 -0.417155 -2.12341 0
M  V30 3913 C 360.66 -3.348 -0.519062 0
M  V30 3914 C 359.219 -3.63671 -0.970604 0
M  V30 3915 C 358.366 -2.77277 -0.0355261 0
M  V30 3916 H 361.317 -1.52245 0.448006 0
M  V30 3917 H 361.338 -3.55187 -1.36463 0
M  V30 3918 H 360.85 -3.8566 0.43449 0
M  V30 3919 H 358.951 -3.1827 -1.9374 0
M  V30 3920 H 359.064 -4.71631 -0.842698 0
M  V30 3921 H 357.428 -2.48846 -0.542927 0
M  V30 3922 H 358.211 -3.30937 0.913003 0
M  V30 3923 N 360.656 0.0484629 -1.57525 0
M  V30 3924 C 361.884 0.755421 -1.92616 0
M  V30 3925 C 362.299 1.69919 -0.822984 0
M  V30 3926 O 361.656 1.81378 0.202085 0
M  V30 3927 C 361.707 1.52915 -3.27566 0
M  V30 3928 O 361.428 0.62329 -4.33644 0
M  V30 3929 C 362.929 2.33502 -3.76818 0
M  V30 3930 H 360.149 0.213465 -0.63614 0
M  V30 3931 H 362.693 0.0117698 -2.04497 0
M  V30 3932 H 360.848 2.22486 -3.17142 0
M  V30 3933 H 361.262 1.16383 -5.11425 0
M  V30 3934 H 362.736 2.83214 -4.73808 0
M  V30 3935 H 363.213 3.14068 -3.07014 0
M  V30 3936 H 363.819 1.69043 -3.90262 0
M  V30 3937 N 362.134 1.5431 0.320358 0
M  V30 3938 C 363.545 1.63872 0.894594 0
M  V30 3939 C 363.896 0.534847 1.88769 0
M  V30 3940 O 363.021 -0.331732 2.13842 0
M  V30 3941 C 363.616 2.97049 1.62934 0
M  V30 3942 C 362.175 3.08796 2.15226 0
M  V30 3943 C 361.322 2.59456 0.978671 0
M  V30 3944 H 364.273 1.58398 0.0978544 0
M  V30 3945 H 364.294 2.87388 2.49376 0
M  V30 3946 H 363.806 3.7737 0.906302 0
M  V30 3947 H 361.907 2.33156 2.90636 0
M  V30 3948 H 362.02 4.14649 2.40006 0
M  V30 3949 H 360.384 2.1543 1.35875 0
M  V30 3950 H 361.167 3.42237 0.269895 0
M  V30 3951 N 363.613 -0.582584 1.46437 0
M  V30 3952 C 364.89 -1.34276 1.4223 0
M  V30 3953 C 365.27 -2.10835 0.10583 0
M  V30 3954 O 364.618 -2.09485 -0.912596 0
M  V30 3955 C 364.828 -2.26865 2.65204 0
M  V30 3956 C 366.176 -2.88691 3.11356 0
M  V30 3957 O 367.2 -2.37178 2.65753 0
M  V30 3958 O 366.059 -3.82255 3.90568 0
M  V30 3959 H 363.153 -0.603326 0.565621 0
M  V30 3960 H 365.699 -0.603591 1.58603 0
M  V30 3961 H 364.471 -1.69724 3.52576 0
M  V30 3962 H 364.094 -3.08122 2.5129 0
M  V30 3963 N 365.091 -1.34144 -0.827227 0
M  V30 3964 C 366.368 -1.16844 -1.56865 0
M  V30 3965 C 366.748 0.260654 -2.09485 0
M  V30 3966 O 366.096 1.26138 -1.9053 0
M  V30 3967 C 366.306 -2.21939 -2.6934 0
M  V30 3968 C 367.654 -2.56695 -3.3822 0
M  V30 3969 O 368.678 -2.20695 -2.79593 0
M  V30 3970 O 367.537 -3.18518 -4.44082 0
M  V30 3971 H 364.631 -0.452669 -0.692112 0
M  V30 3972 H 367.177 -1.45763 -0.868973 0
M  V30 3973 H 365.949 -3.17882 -2.28182 0
M  V30 3974 H 365.572 -1.94172 -3.46962 0
M  V30 3975 N 366.569 1.04691 -1.17803 0
M  V30 3976 C 367.516 2.12557 -0.899343 0
M  V30 3977 C 368.486 1.65339 0.158771 0
M  V30 3978 O 369.671 1.90789 0.0204797 0
M  V30 3979 C 366.811 3.42481 -0.424315 0
M  V30 3980 C 365.924 4.03346 -1.54713 0
M  V30 3981 C 365.059 5.21208 -1.02546 0
M  V30 3982 C 364.098 5.74089 -2.12339 0
M  V30 3983 N 363.235 6.83247 -1.61612 0
M  V30 3984 H 368.075 2.35734 -1.823 0
M  V30 3985 H 365.612 1.1564 -0.909159 0
M  V30 3986 H 367.57 4.16996 -0.130421 0
M  V30 3987 H 366.2 3.19471 0.462377 0
M  V30 3988 H 365.252 3.2622 -1.95664 0
M  V30 3989 H 366.564 4.38628 -2.37501 0
M  V30 3990 H 365.718 6.02812 -0.685718 0
M  V30 3991 H 364.457 4.87414 -0.167084 0
M  V30 3992 H 363.462 4.91111 -2.47165 0
M  V30 3993 H 364.687 6.0993 -2.98601 0
M  V30 3994 H 362.633 6.5134 -0.780533 0
M  V30 3995 H 362.55 7.17559 -2.38003 0
M  V30 3996 H 363.818 7.68491 -1.30545 0
M  V30 3997 N 368.047 0.979072 1.23499 0
M  V30 3998 C 368.977 0.537606 2.27227 0
M  V30 3999 C 369.958 -0.428539 1.64613 0
M  V30 4000 O 371.143 -0.322191 1.91509 0
M  V30 4001 C 368.273 -0.162052 3.46922 0
M  V30 4002 C 367.227 0.721242 4.21879 0
M  V30 4003 C 366.553 -0.110555 5.34586 0
M  V30 4004 C 367.853 2.01141 4.82016 0
M  V30 4005 H 369.547 1.40462 2.64406 0
M  V30 4006 H 367.093 0.67684 1.27102 0
M  V30 4007 H 369.046 -0.482192 4.18632 0
M  V30 4008 H 367.77 -1.06351 3.08799 0
M  V30 4009 H 366.429 1.02482 3.51984 0
M  V30 4010 H 366.077 -1.0125 4.92704 0
M  V30 4011 H 365.777 0.477325 5.85658 0
M  V30 4012 H 367.301 -0.425107 6.09118 0
M  V30 4013 H 368.715 1.75612 5.45741 0
M  V30 4014 H 367.112 2.54695 5.43369 0
M  V30 4015 H 368.182 2.69909 4.02836 0
M  V30 4016 N 369.525 -1.3858 0.750561 0
M  V30 4017 C 370.772 -2.00184 0.305373 0
M  V30 4018 C 371.1 -1.59575 -1.11203 0
M  V30 4019 O 370.355 -0.823236 -1.77542 0
M  V30 4020 C 370.654 -3.55455 0.372373 0
M  V30 4021 C 370.32 -4.15765 1.745 0
M  V30 4022 C 368.982 -4.31951 2.12065 0
M  V30 4023 C 371.334 -4.49067 2.64553 0
M  V30 4024 C 368.662 -4.78734 3.39162 0
M  V30 4025 C 371.014 -4.97265 3.91038 0
M  V30 4026 C 369.678 -5.11658 4.28676 0
M  V30 4027 H 368.948 -0.732526 0.111744 0
M  V30 4028 H 371.595 -1.65673 0.960451 0
M  V30 4029 H 369.9 -3.90084 -0.366272 0
M  V30 4030 H 371.597 -4.00999 0.00953918 0
M  V30 4031 H 368.187 -4.03579 1.44297 0
M  V30 4032 H 372.371 -4.36166 2.36796 0
M  V30 4033 H 367.627 -4.88062 3.68246 0
M  V30 4034 H 371.801 -5.22003 4.60962 0
M  V30 4035 H 369.428 -5.47668 5.27222 0
M  V30 4036 N 371.003 -0.499398 -1.49478 0
M  V30 4037 C 371.935 0.316575 -2.27003 0
M  V30 4038 C 372.948 0.932047 -1.33479 0
M  V30 4039 O 374.137 0.815658 -1.58774 0
M  V30 4040 C 371.237 1.46055 -3.05812 0
M  V30 4041 C 370.41 0.952679 -4.26899 0
M  V30 4042 C 369.469 1.97407 -4.87767 0
M  V30 4043 O 368.495 1.54326 -5.4788 0
M  V30 4044 N 369.697 3.30436 -4.77276 0
M  V30 4045 H 372.462 -0.348168 -2.97671 0
M  V30 4046 H 370.023 -0.33185 -1.58463 0
M  V30 4047 H 372.015 2.14135 -3.43407 0
M  V30 4048 H 370.585 2.02948 -2.37762 0
M  V30 4049 H 369.805 0.0968248 -3.94081 0
M  V30 4050 H 371.093 0.59174 -5.05347 0
M  V30 4051 H 370.491 3.68126 -4.29534 0
M  V30 4052 H 369.048 3.94235 -5.19059 0
M  V30 4053 N 372.481 1.55866 -0.233164 0
M  V30 4054 C 373.428 2.20796 0.67215 0
M  V30 4055 C 374.398 1.16731 1.18166 0
M  V30 4056 O 375.583 1.45129 1.23864 0
M  V30 4057 C 372.723 2.90072 1.86955 0
M  V30 4058 C 371.836 4.08759 1.39786 0
M  V30 4059 C 370.971 4.65787 2.55374 0
M  V30 4060 C 370.01 5.76752 2.04998 0
M  V30 4061 N 369.147 6.28021 3.13901 0
M  V30 4062 H 373.987 2.9779 0.111749 0
M  V30 4063 H 371.524 1.47036 0.0434007 0
M  V30 4064 H 373.482 3.28428 2.57276 0
M  V30 4065 H 372.112 2.15575 2.40265 0
M  V30 4066 H 371.164 3.7581 0.589173 0
M  V30 4067 H 372.476 4.88906 0.98856 0
M  V30 4068 H 371.63 5.06646 3.33758 0
M  V30 4069 H 370.369 3.84828 2.99598 0
M  V30 4070 H 369.374 5.35383 1.25079 0
M  V30 4071 H 370.599 6.59553 1.61759 0
M  V30 4072 H 368.545 5.49971 3.57586 0
M  V30 4073 H 368.462 7.03323 2.7726 0
M  V30 4074 H 369.73 6.73538 3.92386 0
M  V30 4075 N 373.959 -0.0401083 1.57549 0
M  V30 4076 C 374.889 -1.04384 2.08869 0
M  V30 4077 C 375.87 -1.38407 0.988817 0
M  V30 4078 O 377.055 -1.47483 1.26342 0
M  V30 4079 C 374.185 -2.34808 2.55895 0
M  V30 4080 C 373.139 -2.15057 3.70047 0
M  V30 4081 C 372.465 -3.51145 4.03239 0
M  V30 4082 C 373.765 -1.54576 4.98902 0
M  V30 4083 H 375.459 -0.616666 2.92981 0
M  V30 4084 H 373.005 -0.295184 1.40942 0
M  V30 4085 H 374.958 -3.05346 2.90417 0
M  V30 4086 H 373.682 -2.79565 1.68853 0
M  V30 4087 H 372.341 -1.46954 3.35857 0
M  V30 4088 H 371.989 -3.93529 3.13279 0
M  V30 4089 H 371.689 -3.38758 4.80122 0
M  V30 4090 H 373.213 -4.23062 4.40285 0
M  V30 4091 H 374.627 -2.15017 5.31451 0
M  V30 4092 H 373.024 -1.52796 5.80322 0
M  V30 4093 H 374.094 -0.51039 4.82206 0
M  V30 4094 N 375.437 -1.54477 -0.31217 0
M  V30 4095 C 376.4 -1.83923 -1.36766 0
M  V30 4096 C 377.4 -0.711563 -1.44199 0
M  V30 4097 O 378.59 -0.979866 -1.44029 0
M  V30 4098 C 375.722 -2.0095 -2.75376 0
M  V30 4099 H 376.915 -2.78239 -1.11906 0
M  V30 4100 H 374.468 -1.46369 -0.548257 0
M  V30 4101 H 375.203 -1.08883 -3.05475 0
M  V30 4102 H 374.988 -2.83018 -2.71373 0
M  V30 4103 H 376.478 -2.2514 -3.51713 0
M  V30 4104 N 376.915 0.57481 -1.46744 0
M  V30 4105 C 377.862 1.68329 -1.57905 0
M  V30 4106 C 378.832 1.60625 -0.422927 0
M  V30 4107 O 380.017 1.79721 -0.640711 0
M  V30 4108 C 377.157 3.06665 -1.58274 0
M  V30 4109 C 376.27 3.24935 -2.84678 0
M  V30 4110 C 375.405 4.53566 -2.76499 0
M  V30 4111 C 374.444 4.65207 -3.97806 0
M  V30 4112 N 373.581 5.85172 -3.87967 0
M  V30 4113 H 378.421 1.58127 -2.52587 0
M  V30 4114 H 375.958 0.770552 -1.25303 0
M  V30 4115 H 377.916 3.86745 -1.56473 0
M  V30 4116 H 376.546 3.15745 -0.671194 0
M  V30 4117 H 375.598 2.38405 -2.96424 0
M  V30 4118 H 376.91 3.29403 -3.7456 0
M  V30 4119 H 376.064 5.41885 -2.72848 0
M  V30 4120 H 374.803 4.51548 -1.8427 0
M  V30 4121 H 373.808 3.75304 -4.0178 0
M  V30 4122 H 375.033 4.68997 -4.9114 0
M  V30 4123 H 372.979 5.84137 -2.98529 0
M  V30 4124 H 372.896 5.90943 -4.71511 0
M  V30 4125 H 374.164 6.759 -3.88303 0
M  V30 4126 N 378.394 1.34581 0.820102 0
M  V30 4127 C 379.64 1.27285 1.57881 0
M  V30 4128 C 379.973 -0.156137 1.93571 0
M  V30 4129 O 379.248 -1.10222 1.60254 0
M  V30 4130 C 379.531 2.16639 2.87645 0
M  V30 4131 C 379.384 3.68088 2.58517 0
M  V30 4132 C 380.703 2.05378 3.8924 0
M  V30 4133 H 377.822 0.463714 0.572833 0
M  V30 4134 H 380.464 1.64859 0.944539 0
M  V30 4135 H 378.614 1.84725 3.41773 0
M  V30 4136 H 380.286 4.10382 2.10676 0
M  V30 4137 H 378.529 3.89038 1.91917 0
M  V30 4138 H 379.2 4.2598 3.51063 0
M  V30 4139 H 381.676 2.33404 3.44473 0
M  V30 4140 H 380.552 2.7012 4.77835 0
M  V30 4141 H 380.813 1.0316 4.29896 0
M  V30 4142 N 379.872 -1.04064 1.18357 0
M  V30 4143 C 381.102 -1.80654 1.00238 0
M  V30 4144 C 381.51 -1.83713 -0.452362 0
M  V30 4145 O 380.853 -1.27135 -1.32599 0
M  V30 4146 C 380.915 -3.27582 1.48088 0
M  V30 4147 C 380.579 -3.48184 2.96002 0
M  V30 4148 C 381.576 -3.39372 3.93856 0
M  V30 4149 C 379.261 -3.7478 3.34433 0
M  V30 4150 C 381.255 -3.5686 5.28138 0
M  V30 4151 C 378.942 -3.91915 4.68877 0
M  V30 4152 C 379.94 -3.82956 5.65539 0
M  V30 4153 O 379.628 -3.996 6.97549 0
M  V30 4154 H 379.36 -0.575751 0.354241 0
M  V30 4155 H 381.914 -1.32044 1.57333 0
M  V30 4156 H 380.144 -3.77161 0.853588 0
M  V30 4157 H 381.833 -3.8573 1.2636 0
M  V30 4158 H 382.599 -3.18789 3.65511 0
M  V30 4159 H 378.478 -3.80852 2.59756 0
M  V30 4160 H 382.022 -3.49783 6.03571 0
M  V30 4161 H 377.919 -4.11992 4.96923 0
M  V30 4162 H 378.687 -4.1676 7.04452 0
M  V30 4163 N 381.35 -0.985608 -1.22978 0
M  V30 4164 C 382.575 -0.675254 -1.961 0
M  V30 4165 C 383 0.752154 -1.72407 0
M  V30 4166 O 382.358 1.5131 -0.998751 0
M  V30 4167 C 382.406 -0.977899 -3.47087 0
M  V30 4168 O 381.51 -0.072685 -4.12336 0
M  V30 4169 H 380.851 -0.253443 -0.613728 0
M  V30 4170 H 383.381 -1.32061 -1.56272 0
M  V30 4171 H 383.391 -0.916739 -3.97567 0
M  V30 4172 H 382.066 -2.01807 -3.63657 0
M  V30 4173 H 380.643 -0.188703 -3.72422 0
M  V30 4174 N 382.828 1.3818 -0.7579 0
M  V30 4175 C 384.058 2.04004 -0.326463 0
M  V30 4176 C 384.466 1.57286 1.05156 0
M  V30 4177 O 383.809 0.743144 1.67997 0
M  V30 4178 C 383.871 3.58444 -0.275402 0
M  V30 4179 C 383.535 4.28237 -1.59569 0
M  V30 4180 C 384.532 4.53312 -2.54566 0
M  V30 4181 C 382.217 4.66341 -1.86631 0
M  V30 4182 C 384.211 5.15531 -3.74842 0
M  V30 4183 C 381.898 5.28283 -3.0718 0
M  V30 4184 C 382.896 5.52814 -4.01106 0
M  V30 4185 O 382.584 6.13465 -5.19534 0
M  V30 4186 H 382.316 0.662026 -0.136739 0
M  V30 4187 H 384.87 1.7777 -1.02893 0
M  V30 4188 H 383.1 3.83667 0.483337 0
M  V30 4189 H 384.789 4.05701 0.127099 0
M  V30 4190 H 385.555 4.24299 -2.34936 0
M  V30 4191 H 381.434 4.46591 -1.14358 0
M  V30 4192 H 384.978 5.34594 -4.48168 0
M  V30 4193 H 380.875 5.56719 -3.26702 0
M  V30 4194 H 381.643 6.31951 -5.20173 0
M  V30 4195 N 384.306 0.507319 1.49211 0
M  V30 4196 C 385.269 -0.256763 2.27757 0
M  V30 4197 C 386.269 -0.888287 1.34038 0
M  V30 4198 O 387.459 -0.751841 1.5714 0
M  V30 4199 C 384.591 -1.36905 3.12202 0
M  V30 4200 H 385.784 0.432557 2.96764 0
M  V30 4201 H 383.337 0.262488 1.5408 0
M  V30 4202 H 384.072 -2.09233 2.47775 0
M  V30 4203 H 383.857 -0.921599 3.81115 0
M  V30 4204 H 385.347 -1.9071 3.7151 0
M  V30 4205 N 385.784 -1.5574 0.241426 0
M  V30 4206 C 386.734 -2.17803 -0.674233 0
M  V30 4207 C 387.718 -1.13225 -1.14319 0
M  V30 4208 O 388.91 -1.39153 -1.09387 0
M  V30 4209 C 386.039 -2.87682 -1.87333 0
M  V30 4210 C 385.125 -3.99509 -1.42313 0
M  V30 4211 N 385.516 -5.01115 -0.686798 0
M  V30 4212 C 383.814 -4.11964 -1.70885 0
M  V30 4213 C 384.515 -5.79922 -0.454456 0
M  V30 4214 N 383.491 -5.34001 -1.01705 0
M  V30 4215 H 387.293 -2.93718 -0.103447 0
M  V30 4216 H 384.807 -1.62342 0.0435095 0
M  V30 4217 H 386.804 -3.3057 -2.54026 0
M  V30 4218 H 385.464 -2.13269 -2.4484 0
M  V30 4219 H 386.475 -5.16799 -0.337459 0
M  V30 4220 H 383.152 -3.48718 -2.2957 0
M  V30 4221 H 384.542 -6.71768 0.132992 0
M  V30 4222 N 387.262 0.0317525 -1.57568 0
M  V30 4223 C 388.51 0.721676 -1.88776 0
M  V30 4224 C 388.831 1.76039 -0.838772 0
M  V30 4225 O 388.101 1.95482 0.127935 0
M  V30 4226 H 386.681 0.269534 -0.696678 0
M  V30 4227 H 389.343 -0.00165879 -1.949 0
M  V30 4228 H 388.439 1.21293 -2.87566 0
M  V30 4229 N 388.74 1.54641 0.303973 0
M  V30 4230 C 389.986 1.74969 1.03718 0
M  V30 4231 C 390.341 0.527461 1.85029 0
M  V30 4232 O 389.634 -0.480143 1.85486 0
M  V30 4233 C 389.828 2.97753 1.97681 0
M  V30 4234 C 389.657 4.318 1.25613 0
M  V30 4235 C 388.427 4.95616 0.984518 0
M  V30 4236 C 390.625 5.10021 0.662081 0
M  V30 4237 N 388.607 6.13455 0.233794 0
M  V30 4238 C 389.978 6.19984 0.0439736 0
M  V30 4239 C 392.033 4.94663 0.566835 0
M  V30 4240 C 390.736 7.16264 -0.66016 0
M  V30 4241 C 392.762 5.91271 -0.123637 0
M  V30 4242 C 392.124 7.00601 -0.730608 0
M  V30 4243 H 388.223 0.692873 0.362562 0
M  V30 4244 H 390.807 1.92116 0.316135 0
M  V30 4245 H 388.978 2.82036 2.6704 0
M  V30 4246 H 390.71 3.06621 2.64132 0
M  V30 4247 H 387.465 4.55921 1.28191 0
M  V30 4248 H 387.889 6.76879 -0.127996 0
M  V30 4249 H 392.531 4.10267 1.02181 0
M  V30 4250 H 390.249 8.00204 -1.12691 0
M  V30 4251 H 393.835 5.81466 -0.197236 0
M  V30 4252 H 392.715 7.7407 -1.2564 0
M  V30 4253 N 390.218 -0.567019 1.47046 0
M  V30 4254 C 391.151 -1.69016 1.53326 0
M  V30 4255 C 392.129 -1.57949 0.386126 0
M  V30 4256 O 393.313 -1.78945 0.592529 0
M  V30 4257 C 390.44 -3.07191 1.42658 0
M  V30 4258 C 389.486 -3.36733 2.6175 0
M  V30 4259 S 390.319 -3.27069 4.24012 0
M  V30 4260 C 391.475 -4.67755 4.1588 0
M  V30 4261 H 391.708 -1.63434 2.48348 0
M  V30 4262 H 389.241 -0.747048 1.35124 0
M  V30 4263 H 391.199 -3.86897 1.37191 0
M  V30 4264 H 389.86 -3.10249 0.490369 0
M  V30 4265 H 389.053 -4.37441 2.50323 0
M  V30 4266 H 388.655 -2.64627 2.64289 0
M  V30 4267 H 390.947 -5.58491 3.83529 0
M  V30 4268 H 391.89 -4.84239 5.16641 0
M  V30 4269 H 392.298 -4.45341 3.46889 0
M  V30 4270 N 391.696 -1.35014 -0.812953 0
M  V30 4271 C 392.943 -1.27931 -1.56971 0
M  V30 4272 C 393.271 0.148034 -1.93936 0
M  V30 4273 O 392.526 1.11175 -1.61054 0
M  V30 4274 C 392.825 -2.12524 -2.87347 0
M  V30 4275 C 392.491 -3.61401 -2.6963 0
M  V30 4276 C 391.153 -4.01983 -2.64506 0
M  V30 4277 C 393.505 -4.55894 -2.52607 0
M  V30 4278 C 390.833 -5.35235 -2.40293 0
M  V30 4279 C 393.185 -5.89336 -2.29925 0
M  V30 4280 C 391.849 -6.2907 -2.23219 0
M  V30 4281 H 391.119 -0.468131 -0.574399 0
M  V30 4282 H 393.766 -1.66851 -0.939836 0
M  V30 4283 H 392.071 -1.66463 -3.54679 0
M  V30 4284 H 393.768 -2.04383 -3.45005 0
M  V30 4285 H 390.358 -3.29193 -2.74463 0
M  V30 4286 H 394.542 -4.25431 -2.55583 0
M  V30 4287 H 389.798 -5.65028 -2.33566 0
M  V30 4288 H 393.972 -6.62139 -2.15743 0
M  V30 4289 H 391.599 -7.32256 -2.04219 0
M  V30 4290 N 393.175 1.03435 -1.18907 0
M  V30 4291 C 394.107 2.1165 -0.879595 0
M  V30 4292 C 395.12 1.62316 0.125439 0
M  V30 4293 O 396.309 1.78201 -0.103245 0
M  V30 4294 C 393.409 3.37622 -0.294042 0
M  V30 4295 C 392.582 4.16166 -1.34629 0
M  V30 4296 C 391.641 5.20457 -0.775274 0
M  V30 4297 O 390.667 5.50379 -1.4516 0
M  V30 4298 N 391.869 5.78949 0.424126 0
M  V30 4299 H 394.634 2.38791 -1.81105 0
M  V30 4300 H 392.195 1.19681 -1.09032 0
M  V30 4301 H 394.187 4.04572 0.101679 0
M  V30 4302 H 392.757 3.07873 0.541575 0
M  V30 4303 H 391.977 3.44444 -1.91707 0
M  V30 4304 H 393.265 4.65432 -2.05549 0
M  V30 4305 H 392.663 5.56948 0.991209 0
M  V30 4306 H 391.22 6.47334 0.761691 0
M  V30 4307 N 394.653 0.992116 1.22453 0
M  V30 4308 C 395.901 0.666215 1.90804 0
M  V30 4309 C 396.222 -0.804152 1.77647 0
M  V30 4310 O 395.492 -1.57629 1.16318 0
M  V30 4311 H 394.072 0.243423 0.706225 0
M  V30 4312 H 396.734 1.25845 1.48825 0
M  V30 4313 H 395.83 0.928069 2.97982 0
M  V30 4314 N 396.131 -1.37776 0.765217 0
M  V30 4315 C 397.377 -2.00604 0.336066 0
M  V30 4316 C 397.732 -1.59657 -1.07366 0
M  V30 4317 O 397.025 -0.829565 -1.7271 0
M  V30 4318 C 397.219 -3.5504 0.410053 0
M  V30 4319 C 397.048 -4.10985 1.82542 0
M  V30 4320 C 395.818 -4.42229 2.44461 0
M  V30 4321 C 398.016 -4.32438 2.78392 0
M  V30 4322 N 395.998 -4.8385 3.77839 0
M  V30 4323 C 397.369 -4.76596 3.96556 0
M  V30 4324 C 399.424 -4.14559 2.75764 0
M  V30 4325 C 398.127 -5.04748 5.12466 0
M  V30 4326 C 400.153 -4.43843 3.90842 0
M  V30 4327 C 399.515 -4.88235 5.07746 0
M  V30 4328 H 395.614 -0.763325 0.169881 0
M  V30 4329 H 398.198 -1.67197 0.997656 0
M  V30 4330 H 396.369 -3.87769 -0.221325 0
M  V30 4331 H 398.101 -4.0468 -0.0405285 0
M  V30 4332 H 394.856 -4.31079 1.96131 0
M  V30 4333 H 395.28 -5.08979 4.46396 0
M  V30 4334 H 399.922 -3.79415 1.86558 0
M  V30 4335 H 397.64 -5.38783 6.02277 0
M  V30 4336 H 401.226 -4.31603 3.90141 0
M  V30 4337 H 400.106 -5.10461 5.95315 0
M  V30 4338 N 397.609 -0.515225 -1.4894 0
M  V30 4339 C 398.557 0.269115 -2.31038 0
M  V30 4340 C 399.551 0.949443 -1.40292 0
M  V30 4341 O 400.757 0.87551 -1.57273 0
M  V30 4342 H 397.132 0.10565 -0.744542 0
M  V30 4343 H 399.103 -0.443096 -2.95092 0
M  V30 4344 C 397.852 1.31213 -3.21991 0
M  V30 4345 H 397.175 0.798034 -3.91754 0
M  V30 4346 H 398.615 1.83263 -3.82349 0
M  V30 4347 C 397.074 2.33791 -2.42576 0
M  V30 4348 O 397.604 3.3995 -2.14003 0
M  V30 4349 N 395.81 2.06625 -2.0434 0
M  V30 4350 H 395.357 1.20314 -2.27777 0
M  V30 4351 H 395.315 2.75483 -1.51514 0
M  V30 4352 N 399.087 1.5561 -0.249682 0
M  V30 4353 C 400.327 2.00916 0.37579 0
M  V30 4354 C 400.691 1.13409 1.54927 0
M  V30 4355 O 401.892 1.48183 2.24266 0
M  V30 4356 C 400.163 3.48949 0.772633 0
M  V30 4357 S 401.722 4.16261 1.38824 0
M  V30 4358 H 398.54 0.70112 0.118117 0
M  V30 4359 H 401.142 1.92052 -0.365567 0
M  V30 4360 H 399.846 4.103 -0.090683 0
M  V30 4361 H 399.377 3.61745 1.5461 0
M  V30 4362 H 401.392 4.17778 2.67724 0
M  V30 4363 N 400.565 -0.0233959 1.57583 0
M  V30 4364 C 401.813 -0.711654 1.89156 0
M  V30 4365 C 402.134 -1.75591 0.848096 0
M  V30 4366 O 401.404 -1.95547 -0.117566 0
M  V30 4367 H 399.984 -0.265835 0.698098 0
M  V30 4368 H 402.646 0.0119948 1.94896 0
M  V30 4369 H 401.742 -1.19766 2.88206 0
M  V30 4370 N 402.043 -1.548 -0.295768 0
M  V30 4371 C 403.32 -1.65014 -1.05023 0
M  V30 4372 C 403.7 -0.501805 -2.05049 0
M  V30 4373 O 403.048 0.500869 -2.22943 0
M  V30 4374 C 403.258 -3.03252 -1.72741 0
M  V30 4375 C 404.606 -3.60242 -2.24746 0
M  V30 4376 O 405.63 -3.05737 -1.82765 0
M  V30 4377 O 404.489 -4.55687 -3.01681 0
M  V30 4378 H 401.583 -0.669314 -0.485744 0
M  V30 4379 H 404.129 -1.67144 -0.293438 0
M  V30 4380 H 402.901 -3.7827 -1.00138 0
M  V30 4381 H 402.524 -3.04922 -2.55163 0
M  V30 4382 N 403.521 0.559213 -1.47345 0
M  V30 4383 C 404.751 1.33999 -1.57251 0
M  V30 4384 C 405.159 1.87905 -0.220978 0
M  V30 4385 O 404.502 1.65577 0.795617 0
M  V30 4386 C 404.564 2.54798 -2.53611 0
M  V30 4387 C 404.228 2.22192 -3.99349 0
M  V30 4388 C 405.225 1.79607 -4.87891 0
M  V30 4389 C 402.91 2.33613 -4.44669 0
M  V30 4390 C 404.904 1.48868 -6.19772 0
M  V30 4391 C 402.591 2.02487 -5.76578 0
M  V30 4392 C 403.589 1.60183 -6.63951 0
M  V30 4393 O 403.277 1.29451 -7.93409 0
M  V30 4394 H 403.009 0.414858 -0.533731 0
M  V30 4395 H 405.563 0.684465 -1.9366 0
M  V30 4396 H 403.793 3.23235 -2.12265 0
M  V30 4397 H 405.482 3.16873 -2.53666 0
M  V30 4398 H 406.248 1.70278 -4.54126 0
M  V30 4399 H 402.127 2.65501 -3.76869 0
M  V30 4400 H 405.671 1.15775 -6.87926 0
M  V30 4401 H 401.568 2.11448 -6.09885 0
M  V30 4402 H 402.336 1.43098 -8.05894 0
M  V30 4403 N 404.999 1.35443 0.805782 0
M  V30 4404 C 406.246 1.28761 1.56291 0
M  V30 4405 C 406.574 -0.137747 1.94012 0
M  V30 4406 O 405.829 -1.1032 1.61642 0
M  V30 4407 C 406.128 2.14045 2.86216 0
M  V30 4408 C 405.794 3.62826 2.67709 0
M  V30 4409 C 404.456 4.0338 2.6237 0
M  V30 4410 C 406.808 4.57227 2.50186 0
M  V30 4411 C 404.136 5.36501 2.37451 0
M  V30 4412 C 406.488 5.90547 2.26797 0
M  V30 4413 C 405.152 6.30245 2.1988 0
M  V30 4414 H 404.422 0.471171 0.571908 0
M  V30 4415 H 407.069 1.67347 0.930974 0
M  V30 4416 H 405.374 1.68342 3.53791 0
M  V30 4417 H 407.071 2.0621 3.43917 0
M  V30 4418 H 403.661 3.30644 2.72713 0
M  V30 4419 H 407.845 4.2678 2.53323 0
M  V30 4420 H 403.101 5.66259 2.30567 0
M  V30 4421 H 407.275 6.63274 2.12228 0
M  V30 4422 H 404.902 7.33328 2.00333 0
M  V30 4423 N 406.477 -1.02803 1.19454 0
M  V30 4424 C 407.888 -1.57667 0.999899 0
M  V30 4425 C 408.239 -1.91041 -0.446956 0
M  V30 4426 O 407.364 -1.70978 -1.32648 0
M  V30 4427 C 407.959 -2.86477 1.80877 0
M  V30 4428 C 406.518 -3.37911 1.65811 0
M  V30 4429 C 405.665 -2.11343 1.79526 0
M  V30 4430 H 408.616 -0.853214 1.33813 0
M  V30 4431 H 408.637 -3.57408 1.30536 0
M  V30 4432 H 408.149 -2.62155 2.86175 0
M  V30 4433 H 406.25 -3.67218 0.63102 0
M  V30 4434 H 406.363 -4.10885 2.46395 0
M  V30 4435 H 404.727 -2.23254 1.22596 0
M  V30 4436 H 405.51 -1.89461 2.86285 0
M  V30 4437 N 407.956 -0.998596 -1.21925 0
M  V30 4438 C 409.233 -0.593401 -1.86382 0
M  V30 4439 C 409.613 0.92916 -1.89552 0
M  V30 4440 O 408.961 1.81347 -1.39017 0
M  V30 4441 C 409.171 -1.22039 -3.26967 0
M  V30 4442 C 410.519 -1.32449 -4.03413 0
M  V30 4443 O 411.543 -1.17522 -3.36254 0
M  V30 4444 O 410.402 -1.56395 -5.23644 0
M  V30 4445 H 407.496 -0.202385 -0.801854 0
M  V30 4446 H 410.042 -1.09484 -1.29659 0
M  V30 4447 H 408.814 -2.26158 -3.19325 0
M  V30 4448 H 408.437 -0.704906 -3.91301 0
M  V30 4449 N 409.434 1.37368 -0.772513 0
M  V30 4450 C 410.682 1.99279 -0.336516 0
M  V30 4451 C 411.003 1.6163 1.09091 0
M  V30 4452 O 410.273 0.882109 1.74916 0
M  V30 4453 H 408.853 0.737063 -0.121435 0
M  V30 4454 H 411.515 1.67836 -0.990809 0
M  V30 4455 H 410.611 3.09332 -0.414763 0
M  V30 4456 N 410.912 0.523116 1.48665 0
M  V30 4457 C 412.161 -0.01544 2.01694 0
M  V30 4458 C 412.474 -1.35975 1.40606 0
M  V30 4459 O 413.68 -1.98627 1.85093 0
M  V30 4460 C 412.136 -0.0779303 3.59816 0
M  V30 4461 C 411.744 1.26107 4.29885 0
M  V30 4462 C 413.488 -0.565678 4.20714 0
M  V30 4463 C 411.395 1.15954 5.79921 0
M  V30 4464 H 410.325 -0.00954163 0.75394 0
M  V30 4465 H 412.976 0.665865 1.70993 0
M  V30 4466 H 411.358 -0.824165 3.87329 0
M  V30 4467 H 412.532 2.02233 4.14051 0
M  V30 4468 H 410.847 1.68401 3.80828 0
M  V30 4469 H 413.444 -0.6595 5.30617 0
M  V30 4470 H 413.787 -1.56984 3.85567 0
M  V30 4471 H 414.32 0.12467 3.97605 0
M  V30 4472 H 411.059 2.13864 6.19631 0
M  V30 4473 H 410.579 0.439529 5.98187 0
M  V30 4474 H 412.258 0.847361 6.41427 0
M  V30 4475 N 412.39 -1.55475 0.257931 0
M  V30 4476 C 413.618 -2.03609 -0.367559 0
M  V30 4477 C 414.033 -1.13687 -1.50734 0
M  V30 4478 O 413.39 -0.153479 -1.81853 0
M  V30 4479 C 413.441 -3.51001 -0.864908 0
M  V30 4480 O 413.162 -4.37499 0.229465 0
M  V30 4481 C 414.663 -4.14946 -1.55997 0
M  V30 4482 H 411.883 -0.665459 -0.0860521 0
M  V30 4483 H 414.427 -2.00843 0.385014 0
M  V30 4484 H 412.582 -3.54266 -1.56762 0
M  V30 4485 H 412.996 -5.24286 -0.14998 0
M  V30 4486 H 414.47 -5.19735 -1.85956 0
M  V30 4487 H 414.947 -3.6209 -2.4857 0
M  V30 4488 H 415.553 -4.15635 -0.901543 0
M  V30 4489 N 413.868 0.0150385 -1.57593 0
M  V30 4490 C 414.816 1.02958 -2.08572 0
M  V30 4491 C 415.81 1.36554 -1.00246 0
M  V30 4492 O 417.016 1.35295 -1.18724 0
M  V30 4493 H 413.391 0.349619 -0.665786 0
M  V30 4494 H 415.362 0.573932 -2.92829 0
M  V30 4495 C 414.111 2.31752 -2.59203 0
M  V30 4496 H 413.434 2.06765 -3.42182 0
M  V30 4497 H 414.874 3.01053 -2.98568 0
M  V30 4498 C 413.333 3.01692 -1.49945 0
M  V30 4499 O 413.863 3.92083 -0.873704 0
M  V30 4500 N 412.069 2.6326 -1.23056 0
M  V30 4501 H 411.616 1.89838 -1.74125 0
M  V30 4502 H 411.574 3.10372 -0.501685 0
M  V30 4503 N 415.346 1.54954 0.287554 0
M  V30 4504 C 416.594 1.74528 1.01904 0
M  V30 4505 C 416.915 0.541349 1.87335 0
M  V30 4506 O 416.185 -0.444108 1.908 0
M  V30 4507 H 414.765 0.643576 0.379235 0
M  V30 4508 H 417.427 1.92333 0.315294 0
M  V30 4509 H 416.523 2.64015 1.6644 0
M  V30 4510 N 416.824 -0.551391 1.4764 0
M  V30 4511 C 417.787 -1.64007 1.60107 0
M  V30 4512 C 418.787 -1.53601 0.47576 0
M  V30 4513 O 419.977 -1.57655 0.740988 0
M  V30 4514 C 417.109 -3.03569 1.55108 0
M  V30 4515 H 418.302 -1.543 2.57161 0
M  V30 4516 H 415.855 -0.771776 1.35917 0
M  V30 4517 H 416.59 -3.18804 0.594519 0
M  V30 4518 H 416.375 -3.12532 2.36783 0
M  V30 4519 H 417.865 -3.82762 1.66982 0
M  V30 4520 N 418.302 -1.35869 -0.798587 0
M  V30 4521 C 419.527 -1.32883 -1.59238 0
M  V30 4522 C 419.952 0.0894587 -1.87887 0
M  V30 4523 O 419.31 1.05869 -1.47178 0
M  V30 4524 C 419.358 -2.14892 -2.89575 0
M  V30 4525 O 418.462 -1.53512 -3.82763 0
M  V30 4526 H 417.803 -0.455236 -0.48338 0
M  V30 4527 H 420.333 -1.79024 -0.990539 0
M  V30 4528 H 420.343 -2.27139 -3.38928 0
M  V30 4529 H 419.018 -3.17998 -2.68049 0
M  V30 4530 H 417.595 -1.50153 -3.41334 0
M  V30 4531 N 419.78 1.02168 -1.19998 0
M  V30 4532 C 421.026 1.7606 -1.01855 0
M  V30 4533 C 421.381 1.87178 0.445222 0
M  V30 4534 O 420.674 1.3828 1.32624 0
M  V30 4535 C 420.868 3.18081 -1.62969 0
M  V30 4536 C 420.697 3.20809 -3.15137 0
M  V30 4537 C 419.467 3.28342 -3.84083 0
M  V30 4538 C 421.665 3.07268 -4.1242 0
M  V30 4539 N 419.647 3.2052 -5.23584 0
M  V30 4540 C 421.018 3.0716 -5.38566 0
M  V30 4541 C 423.073 2.91448 -4.03686 0
M  V30 4542 C 421.776 2.92853 -6.56985 0
M  V30 4543 C 423.802 2.78494 -5.21723 0
M  V30 4544 C 423.164 2.79046 -6.46771 0
M  V30 4545 H 419.263 0.655192 -0.426905 0
M  V30 4546 H 421.847 1.21564 -1.52087 0
M  V30 4547 H 420.018 3.70882 -1.15329 0
M  V30 4548 H 421.75 3.80375 -1.38192 0
M  V30 4549 H 418.505 3.34859 -3.34913 0
M  V30 4550 H 418.929 3.19997 -5.96599 0
M  V30 4551 H 423.571 2.89838 -3.07821 0
M  V30 4552 H 421.289 2.93213 -7.53028 0
M  V30 4553 H 424.875 2.67278 -5.16773 0
M  V30 4554 H 423.755 2.69134 -7.36571 0
M  V30 4555 N 421.258 1.00505 1.21394 0
M  V30 4556 C 422.488 0.705584 1.94178 0
M  V30 4557 C 422.896 -0.735846 1.74304 0
M  V30 4558 O 422.239 -1.50954 1.04683 0
M  V30 4559 C 422.301 0.94689 3.46806 0
M  V30 4560 C 421.965 2.37517 3.90429 0
M  V30 4561 C 422.962 3.35539 3.97127 0
M  V30 4562 C 420.647 2.71284 4.22742 0
M  V30 4563 C 422.641 4.65395 4.3553 0
M  V30 4564 C 420.328 4.01356 4.60822 0
M  V30 4565 C 421.326 4.98223 4.67186 0
M  V30 4566 O 421.014 6.25969 5.04399 0
M  V30 4567 H 420.746 0.259216 0.624326 0
M  V30 4568 H 423.3 1.34592 1.55159 0
M  V30 4569 H 421.53 0.249386 3.85895 0
M  V30 4570 H 423.219 0.640804 4.0081 0
M  V30 4571 H 423.985 3.10786 3.7234 0
M  V30 4572 H 419.864 1.96581 4.16985 0
M  V30 4573 H 423.408 5.41002 4.40412 0
M  V30 4574 H 419.305 4.25893 4.85063 0
M  V30 4575 H 420.073 6.30085 5.22431 0
M  V30 4576 N 422.737 -1.36956 0.779787 0
M  V30 4577 C 423.962 -2.04283 0.358224 0
M  V30 4578 C 424.387 -1.58422 -1.01411 0
M  V30 4579 O 423.745 -0.748179 -1.65142 0
M  V30 4580 C 423.793 -3.58152 0.419479 0
M  V30 4581 O 422.897 -4.08342 -0.577142 0
M  V30 4582 H 422.238 -0.645967 0.153698 0
M  V30 4583 H 424.768 -1.75108 1.05822 0
M  V30 4584 H 424.778 -4.07041 0.279636 0
M  V30 4585 H 423.453 -3.90886 1.42061 0
M  V30 4586 H 422.03 -3.70751 -0.399755 0
M  V30 4587 N 424.215 -0.530993 -1.48385 0
M  V30 4588 C 425.145 0.219985 -2.32461 0
M  V30 4589 C 426.126 0.934111 -1.42156 0
M  V30 4590 O 427.311 0.919694 -1.71042 0
M  V30 4591 C 424.441 1.26674 -3.23375 0
M  V30 4592 C 423.395 0.67069 -4.22712 0
M  V30 4593 C 422.721 1.82017 -5.02766 0
M  V30 4594 C 424.021 -0.358268 -5.2107 0
M  V30 4595 H 425.715 -0.48187 -2.95497 0
M  V30 4596 H 423.261 -0.233182 -1.42099 0
M  V30 4597 H 425.214 1.80006 -3.81019 0
M  V30 4598 H 423.938 1.99818 -2.58341 0
M  V30 4599 H 422.597 0.158878 -3.66256 0
M  V30 4600 H 422.245 2.54002 -4.34157 0
M  V30 4601 H 421.945 1.42727 -5.70003 0
M  V30 4602 H 423.469 2.35725 -5.63264 0
M  V30 4603 H 424.883 0.0880081 -5.73232 0
M  V30 4604 H 423.28 -0.66861 -5.96364 0
M  V30 4605 H 424.35 -1.26367 -4.68145 0
M  V30 4606 N 425.693 1.55336 -0.266172 0
M  V30 4607 C 426.918 2.04258 0.359661 0
M  V30 4608 C 427.343 1.14359 1.49344 0
M  V30 4609 O 426.701 0.140369 1.80756 0
M  V30 4610 C 426.749 3.50997 0.826635 0
M  V30 4611 O 425.853 3.64204 1.93466 0
M  V30 4612 H 425.194 0.659668 0.075727 0
M  V30 4613 H 427.724 2.00694 -0.39786 0
M  V30 4614 H 427.734 3.9219 1.12477 0
M  V30 4615 H 426.409 4.159 -0.00293032 0
M  V30 4616 H 424.986 3.34913 1.63974 0
M  V30 4617 N 427.171 -0.0066808 1.57599 0
M  V30 4618 C 428.118 -1.00024 2.08 0
M  V30 4619 C 429.088 -1.34549 0.973943 0
M  V30 4620 O 430.273 -1.44502 1.24595 0
M  V30 4621 C 427.413 -2.2891 2.58252 0
M  V30 4622 C 426.526 -2.00346 3.82734 0
M  V30 4623 C 425.661 -3.23265 4.21513 0
M  V30 4624 C 424.7 -2.90357 5.3885 0
M  V30 4625 N 423.837 -4.05793 5.72954 0
M  V30 4626 H 428.677 -0.563499 2.92624 0
M  V30 4627 H 426.214 -0.266592 1.44664 0
M  V30 4628 H 428.172 -3.04247 2.85464 0
M  V30 4629 H 426.802 -2.70265 1.76512 0
M  V30 4630 H 425.854 -1.15406 3.62471 0
M  V30 4631 H 427.166 -1.72086 4.68175 0
M  V30 4632 H 426.32 -4.06953 4.49971 0
M  V30 4633 H 425.059 -3.54657 3.34768 0
M  V30 4634 H 424.064 -2.05075 5.10122 0
M  V30 4635 H 425.289 -2.60219 6.27266 0
M  V30 4636 H 423.235 -4.37094 4.89167 0
M  V30 4637 H 423.152 -3.81034 6.52954 0
M  V30 4638 H 424.42 -4.90289 6.06001 0
M  V30 4639 N 428.649 -1.55105 -0.279332 0
M  V30 4640 C 429.897 -1.75066 -1.00977 0
M  V30 4641 C 430.218 -0.551276 -1.87045 0
M  V30 4642 O 429.488 0.433984 -1.91032 0
M  V30 4643 H 428.068 -0.645578 -0.375816 0
M  V30 4644 H 430.73 -1.92497 -0.305089 0
M  V30 4645 H 429.826 -2.64894 -1.65038 0
M  V30 4646 N 430.127 0.543554 -1.4793 0
M  V30 4647 C 431.06 1.66556 -1.55995 0
M  V30 4648 C 432.038 1.57315 -0.411205 0
M  V30 4649 O 433.222 1.7798 -0.620922 0
M  V30 4650 C 430.349 3.04883 -1.47527 0
M  V30 4651 C 429.395 3.32526 -2.67074 0
M  V30 4652 S 430.228 3.20282 -4.29162 0
M  V30 4653 C 431.384 4.61079 -4.23269 0
M  V30 4654 H 431.617 1.59462 -2.50917 0
M  V30 4655 H 429.15 0.725456 -1.36296 0
M  V30 4656 H 431.108 3.84665 -1.43328 0
M  V30 4657 H 429.769 3.09429 -0.539665 0
M  V30 4658 H 428.962 4.33403 -2.5725 0
M  V30 4659 H 428.564 2.60389 -2.68466 0
M  V30 4660 H 430.856 5.52318 -3.92365 0
M  V30 4661 H 431.799 4.75959 -5.24279 0
M  V30 4662 H 432.207 4.39766 -3.5393 0
M  V30 4663 N 431.605 1.3629 0.791371 0
M  V30 4664 C 432.537 1.26321 1.91248 0
M  V30 4665 C 433.55 0.18313 1.61767 0
M  V30 4666 O 434.739 0.437682 1.73051 0
M  V30 4667 C 431.839 0.925901 3.26007 0
M  V30 4668 C 431.012 2.10746 3.83281 0
M  V30 4669 C 430.071 1.74352 4.96475 0
M  V30 4670 O 429.097 2.46416 5.13096 0
M  V30 4671 N 430.299 0.676058 5.7655 0
M  V30 4672 H 433.064 2.22915 2.00323 0
M  V30 4673 H 430.625 1.29659 0.969546 0
M  V30 4674 H 432.617 0.663636 3.99222 0
M  V30 4675 H 431.187 0.0491581 3.12561 0
M  V30 4676 H 430.407 2.53264 3.02077 0
M  V30 4677 H 431.695 2.8969 4.18279 0
M  V30 4678 H 431.093 0.0776467 5.65647 0
M  V30 4679 H 429.65 0.473612 6.50077 0
M  V30 4680 N 433.083 -1.0153 1.20538 0
M  V30 4681 C 434.36 -1.72327 0.925343 0
M  V30 4682 C 434.74 -2.03383 -0.565547 0
M  V30 4683 O 434.088 -1.69934 -1.52757 0
M  V30 4684 C 434.298 -2.9902 1.79967 0
M  V30 4685 C 435.646 -3.72258 2.04228 0
M  V30 4686 O 436.67 -3.08979 1.77231 0
M  V30 4687 O 435.529 -4.86053 2.4983 0
M  V30 4688 H 432.623 -0.751099 0.346092 0
M  V30 4689 H 435.169 -1.07366 1.31417 0
M  V30 4690 H 433.941 -2.72402 2.80915 0
M  V30 4691 H 433.564 -3.71721 1.41099 0
M  V30 4692 N 434.561 -1.01147 -1.20859 0
M  V30 4693 C 435.808 -0.697865 -1.90095 0
M  V30 4694 C 436.136 0.772014 -1.78522 0
M  V30 4695 O 435.391 1.57595 -1.16027 0
M  V30 4696 C 435.69 -1.0727 -3.40922 0
M  V30 4697 C 435.356 -2.53792 -3.72693 0
M  V30 4698 C 434.018 -2.93829 -3.81075 0
M  V30 4699 C 436.37 -3.48674 -3.87397 0
M  V30 4700 C 433.698 -4.27696 -4.01613 0
M  V30 4701 C 436.05 -4.82223 -4.09444 0
M  V30 4702 C 434.714 -5.21973 -4.16054 0
M  V30 4703 H 433.984 -0.255367 -0.695607 0
M  V30 4704 H 436.631 -1.27111 -1.43231 0
M  V30 4705 H 434.936 -0.417799 -3.89566 0
M  V30 4706 H 436.633 -0.807818 -3.92779 0
M  V30 4707 H 433.223 -2.21768 -3.66765 0
M  V30 4708 H 437.407 -3.18904 -3.80281 0
M  V30 4709 H 432.663 -4.58055 -4.04964 0
M  V30 4710 H 436.837 -5.55672 -4.19763 0
M  V30 4711 H 434.464 -6.25717 -4.31721 0
M  V30 4712 N 436.039 1.36541 -0.78704 0
M  V30 4713 C 436.987 2.31965 -0.171724 0
M  V30 4714 C 437.981 1.55689 0.667631 0
M  V30 4715 O 439.187 1.70969 0.562981 0
M  V30 4716 H 435.562 0.751101 -0.0367545 0
M  V30 4717 H 437.533 2.81428 -0.992017 0
M  V30 4718 C 436.282 3.40968 0.680904 0
M  V30 4719 H 435.605 3.99775 0.0443961 0
M  V30 4720 H 437.045 4.10063 1.07815 0
M  V30 4721 C 435.504 2.82338 1.83813 0
M  V30 4722 O 436.034 2.74311 2.93456 0
M  V30 4723 N 434.24 2.39661 1.6435 0
M  V30 4724 H 433.787 2.46389 0.751668 0
M  V30 4725 H 433.745 2.00779 2.4194 0
M  V30 4726 N 437.518 0.538854 1.48102 0
M  V30 4727 C 438.748 0.0122958 2.06596 0
M  V30 4728 C 439.156 -1.27861 1.39457 0
M  V30 4729 O 438.499 -1.77348 0.478907 0
M  V30 4730 C 438.561 -0.273131 3.58461 0
M  V30 4731 C 438.225 0.92561 4.47528 0
M  V30 4732 C 439.222 1.82637 4.86765 0
M  V30 4733 C 436.907 1.13511 4.89306 0
M  V30 4734 C 438.901 2.92047 5.66558 0
M  V30 4735 C 436.588 2.23233 5.68868 0
M  V30 4736 C 437.586 3.12333 6.07402 0
M  V30 4737 O 437.274 4.20155 6.85365 0
M  V30 4738 H 437.006 0.0344283 0.675123 0
M  V30 4739 H 439.56 0.746494 1.91355 0
M  V30 4740 H 437.79 -1.06141 3.71848 0
M  V30 4741 H 439.479 -0.742842 3.99045 0
M  V30 4742 H 440.245 1.67649 4.55103 0
M  V30 4743 H 436.124 0.450835 4.5879 0
M  V30 4744 H 439.668 3.6162 5.96554 0
M  V30 4745 H 435.565 2.38201 5.99942 0
M  V30 4746 H 436.333 4.17975 7.03732 0
M  V30 4747 N 438.996 -1.55193 0.274407 0
M  V30 4748 C 439.926 -2.25471 -0.607032 0
M  V30 4749 C 440.907 -1.24461 -1.15946 0
M  V30 4750 O 442.092 -1.53179 -1.19373 0
M  V30 4751 C 439.222 -2.97526 -1.79153 0
M  V30 4752 C 438.176 -4.05459 -1.37067 0
M  V30 4753 C 437.502 -4.65084 -2.6382 0
M  V30 4754 C 438.802 -5.19691 -0.521389 0
M  V30 4755 H 440.496 -2.99393 -0.0209343 0
M  V30 4756 H 438.042 -1.43997 -0.00862866 0
M  V30 4757 H 439.995 -3.45402 -2.41404 0
M  V30 4758 H 438.719 -2.21138 -2.40344 0
M  V30 4759 H 437.378 -3.58393 -0.771355 0
M  V30 4760 H 437.026 -3.85365 -3.23268 0
M  V30 4761 H 436.726 -5.37961 -2.36372 0
M  V30 4762 H 438.25 -5.15708 -3.26921 0
M  V30 4763 H 439.664 -5.63623 -1.04889 0
M  V30 4764 H 438.061 -5.99126 -0.341825 0
M  V30 4765 H 439.131 -4.82713 0.46 0
M  V30 4766 N 440.474 -0.00167713 -1.576 0
M  V30 4767 C 441.424 0.997744 -2.0501 0
M  V30 4768 C 442.408 1.30214 -0.94515 0
M  V30 4769 O 443.6 1.29284 -1.20891 0
M  V30 4770 C 440.729 2.2892 -2.55833 0
M  V30 4771 C 439.815 2.01437 -3.73208 0
M  V30 4772 N 440.206 1.44119 -4.84833 0
M  V30 4773 C 438.504 2.31571 -3.8117 0
M  V30 4774 C 439.205 1.33145 -5.66257 0
M  V30 4775 N 438.181 1.81763 -5.12312 0
M  V30 4776 H 441.983 0.549098 -2.88725 0
M  V30 4777 H 439.497 0.20398 -1.61114 0
M  V30 4778 H 441.494 3.01361 -2.88075 0
M  V30 4779 H 440.154 2.74436 -1.73537 0
M  V30 4780 H 441.165 1.11978 -5.0565 0
M  V30 4781 H 437.842 2.7995 -3.09732 0
M  V30 4782 H 439.232 0.890567 -6.65972 0
M  V30 4783 N 441.952 1.55251 0.271103 0
M  V30 4784 C 443.18 1.79974 1.02064 0
M  V30 4785 C 443.595 0.574003 1.79863 0
M  V30 4786 O 442.952 -0.456962 1.76686 0
M  V30 4787 C 443.003 3.02603 1.97772 0
M  V30 4788 O 442.724 4.20443 1.23124 0
M  V30 4789 C 444.225 3.39944 2.84522 0
M  V30 4790 H 441.445 0.599489 0.301419 0
M  V30 4791 H 443.989 2.02268 0.301313 0
M  V30 4792 H 442.144 2.8243 2.65165 0
M  V30 4793 H 442.558 4.89783 1.87651 0
M  V30 4794 H 444.032 4.28915 3.47471 0
M  V30 4795 H 444.509 2.59432 3.54389 0
M  V30 4796 H 445.115 3.62383 2.22618 0
M  V30 4797 N 443.43 -0.535701 1.48216 0
M  V30 4798 C 444.378 -1.66179 1.62749 0
M  V30 4799 C 445.372 -1.62034 0.49409 0
M  V30 4800 O 446.578 -1.6696 0.672624 0
M  V30 4801 H 442.953 -0.550244 0.512578 0
M  V30 4802 H 444.924 -1.51063 2.57337 0
M  V30 4803 C 443.673 -3.04471 1.67907 0
M  V30 4804 H 442.996 -3.08351 2.54479 0
M  V30 4805 H 444.436 -3.82894 1.82121 0
M  V30 4806 C 442.895 -3.34314 0.416596 0
M  V30 4807 O 443.425 -3.98905 -0.473014 0
M  V30 4808 N 441.631 -2.89149 0.290038 0
M  V30 4809 H 441.178 -2.36764 1.01493 0
M  V30 4810 H 441.136 -3.09486 -0.55367 0
M  V30 4811 N 444.908 -1.36708 -0.784132 0
M  V30 4812 C 446.148 -1.32618 -1.55537 0
M  V30 4813 C 446.512 0.0920681 -1.91779 0
M  V30 4814 O 447.713 0.257573 -2.67563 0
M  V30 4815 C 445.984 -2.22788 -2.79464 0
M  V30 4816 S 447.543 -2.36432 -3.69656 0
M  V30 4817 H 444.361 -0.470973 -0.53264 0
M  V30 4818 H 446.963 -1.72333 -0.92312 0
M  V30 4819 H 445.667 -3.24774 -2.50899 0
M  V30 4820 H 445.198 -1.84112 -3.47658 0
M  V30 4821 H 447.213 -1.56573 -4.7085 0
M  V30 4822 N 446.386 1.0089 -1.21074 0
M  V30 4823 C 447.633 1.74607 -1.0256 0
M  V30 4824 C 447.961 1.89426 0.44136 0
M  V30 4825 O 447.216 1.42266 1.34384 0
M  V30 4826 C 447.515 3.16335 -1.66334 0
M  V30 4827 C 447.181 3.21474 -3.16173 0
M  V30 4828 C 445.843 3.22583 -3.57062 0
M  V30 4829 C 448.195 3.19025 -4.12156 0
M  V30 4830 C 445.523 3.18925 -4.92446 0
M  V30 4831 C 447.875 3.16909 -5.47496 0
M  V30 4832 C 446.539 3.16326 -5.87787 0
M  V30 4833 H 445.809 0.638933 -0.375294 0
M  V30 4834 H 448.456 1.18274 -1.50611 0
M  V30 4835 H 446.761 3.75876 -1.10566 0
M  V30 4836 H 448.458 3.72083 -1.49516 0
M  V30 4837 H 445.048 3.2135 -2.83605 0
M  V30 4838 H 449.232 3.17332 -3.81595 0
M  V30 4839 H 444.488 3.16809 -5.22917 0
M  V30 4840 H 448.662 3.13968 -6.21609 0
M  V30 4841 H 446.289 3.13246 -6.92662 0
M  V30 4842 N 447.864 1.01787 1.20321 0
M  V30 4843 C 448.774 0.598898 2.26827 0
M  V30 4844 C 449.79 -0.36418 1.70146 0
M  V30 4845 O 450.966 -0.224812 2.00141 0
M  V30 4846 C 448.031 -0.0549769 3.46656 0
M  V30 4847 C 447.092 0.954205 4.18561 0
M  V30 4848 C 446.325 0.331439 5.3267 0
M  V30 4849 O 446.548 -0.86851 5.63749 0
M  V30 4850 O 445.482 1.0488 5.92692 0
M  V30 4851 H 449.308 1.48562 2.64883 0
M  V30 4852 H 446.893 0.787434 1.26964 0
M  V30 4853 H 448.775 -0.420102 4.19301 0
M  V30 4854 H 447.45 -0.915876 3.10473 0
M  V30 4855 H 446.357 1.37072 3.48083 0
M  V30 4856 H 447.69 1.78511 4.58688 0
M  V30 4857 N 449.342 -1.36122 0.79427 0
M  V30 4858 C 450.591 -1.98361 0.365464 0
M  V30 4859 C 450.904 -1.6374 -1.06997 0
M  V30 4860 O 452.11 -2.19251 -1.60129 0
M  V30 4861 C 450.566 -3.54821 0.602496 0
M  V30 4862 C 450.174 -3.98362 2.04967 0
M  V30 4863 C 451.918 -4.2383 0.238437 0
M  V30 4864 C 449.825 -5.47619 2.2331 0
M  V30 4865 H 448.755 -0.742193 0.13291 0
M  V30 4866 H 451.406 -1.55354 0.976589 0
M  V30 4867 H 449.788 -3.95922 -0.078409 0
M  V30 4868 H 450.962 -3.68447 2.76737 0
M  V30 4869 H 449.277 -3.42206 2.37243 0
M  V30 4870 H 451.874 -5.33529 0.353705 0
M  V30 4871 H 452.217 -4.08264 -0.814006 0
M  V30 4872 H 452.75 -3.88108 0.872769 0
M  V30 4873 H 449.489 -5.68138 3.26955 0
M  V30 4874 H 449.009 -5.79145 1.5605 0
M  V30 4875 H 450.688 -6.13911 2.0426 0
M  V30 4876 N 450.82 -0.546701 -1.47814 0
M  V30 4877 C 452.048 -0.0232857 -2.06887 0
M  V30 4878 C 452.463 1.26571 -1.4009 0
M  V30 4879 O 451.82 1.7569 -0.493906 0
M  V30 4880 C 451.871 0.186975 -3.61016 0
M  V30 4881 O 451.592 -1.05097 -4.25307 0
M  V30 4882 C 453.093 0.748872 -4.36929 0
M  V30 4883 H 450.313 -0.0410763 -0.669742 0
M  V30 4884 H 452.857 -0.757117 -1.89968 0
M  V30 4885 H 451.012 0.870903 -3.77484 0
M  V30 4886 H 451.426 -0.842121 -5.17695 0
M  V30 4887 H 452.9 0.845334 -5.45489 0
M  V30 4888 H 453.377 1.75772 -4.02493 0
M  V30 4889 H 453.983 0.100979 -4.2518 0
M  V30 4890 N 452.299 1.55045 -0.282633 0
M  V30 4891 C 453.229 2.2579 0.595066 0
M  V30 4892 C 454.21 1.25074 1.15284 0
M  V30 4893 O 455.395 1.5381 1.18559 0
M  V30 4894 C 452.525 2.98472 1.77572 0
M  V30 4895 C 451.479 4.0618 1.34914 0
M  V30 4896 C 450.805 4.66477 2.6135 0
M  V30 4897 C 452.105 5.1996 0.493821 0
M  V30 4898 H 453.799 2.994 0.00505653 0
M  V30 4899 H 451.345 1.44 0.000992001 0
M  V30 4900 H 453.298 3.46677 2.39568 0
M  V30 4901 H 452.022 2.2241 2.39168 0
M  V30 4902 H 450.681 3.58797 0.752338 0
M  V30 4903 H 450.329 3.87074 3.2122 0
M  V30 4904 H 450.029 5.39207 2.33516 0
M  V30 4905 H 451.553 5.17435 3.24181 0
M  V30 4906 H 452.967 5.64172 1.01898 0
M  V30 4907 H 451.364 5.99299 0.310047 0
M  V30 4908 H 452.434 4.82462 -0.485593 0
M  V30 4909 N 453.777 0.010035 1.57597 0
M  V30 4910 C 454.687 -0.994226 2.12491 0
M  V30 4911 C 455.703 -1.37013 1.07254 0
M  V30 4912 O 456.879 -1.45542 1.3921 0
M  V30 4913 C 453.944 -2.2642 2.62555 0
M  V30 4914 C 453.005 -1.95049 3.82432 0
M  V30 4915 C 452.238 -3.15991 4.30099 0
M  V30 4916 O 452.461 -4.28015 3.7704 0
M  V30 4917 O 451.395 -2.99403 5.22151 0
M  V30 4918 H 455.221 -0.557549 2.98538 0
M  V30 4919 H 452.806 -0.209413 1.47925 0
M  V30 4920 H 454.688 -3.01009 2.9491 0
M  V30 4921 H 453.363 -2.69306 1.796 0
M  V30 4922 H 452.27 -1.17904 3.55034 0
M  V30 4923 H 453.603 -1.56992 4.66491 0
M  V30 4924 N 455.255 -1.55392 -0.262866 0
M  V30 4925 C 456.185 -1.91978 -1.32917 0
M  V30 4926 C 457.166 -0.7828 -1.51017 0
M  V30 4927 O 458.351 -1.04178 -1.63892 0
M  V30 4928 C 455.481 -2.20055 -2.68687 0
M  V30 4929 C 454.435 -3.35854 -2.65304 0
M  V30 4930 C 453.761 -3.49435 -4.04721 0
M  V30 4931 C 455.061 -4.71977 -2.23685 0
M  V30 4932 H 456.755 -2.81292 -1.02544 0
M  V30 4933 H 454.301 -1.3534 -0.491846 0
M  V30 4934 H 456.254 -2.44237 -3.43404 0
M  V30 4935 H 454.978 -1.27551 -3.00663 0
M  V30 4936 H 453.637 -3.11655 -1.93045 0
M  V30 4937 H 453.285 -2.54379 -4.33936 0
M  V30 4938 H 452.985 -4.27297 -4.0335 0
M  V30 4939 H 454.509 -3.7592 -4.81161 0
M  V30 4940 H 455.923 -4.95637 -2.88127 0
M  V30 4941 H 454.32 -5.52828 -2.33456 0
M  V30 4942 H 455.39 -4.70115 -1.18827 0
M  V30 4943 N 456.733 0.527833 -1.48498 0
M  V30 4944 C 457.958 1.313 -1.60546 0
M  V30 4945 C 458.383 1.86199 -0.26672 0
M  V30 4946 O 457.741 1.64513 0.761918 0
M  V30 4947 C 457.789 2.43818 -2.65678 0
M  V30 4948 O 456.893 3.46916 -2.22987 0
M  V30 4949 H 456.234 0.388784 -0.538277 0
M  V30 4950 H 458.764 0.634896 -1.945 0
M  V30 4951 H 458.774 2.89973 -2.87018 0
M  V30 4952 H 457.449 2.03222 -3.62869 0
M  V30 4953 H 456.026 3.06864 -2.11869 0
M  V30 4954 N 458.211 1.37122 0.776871 0
M  V30 4955 C 459.451 1.33441 1.54831 0
M  V30 4956 C 459.815 -0.0818963 1.91825 0
M  V30 4957 O 461.016 -0.24338 2.67696 0
M  V30 4958 C 459.287 2.24267 2.78279 0
M  V30 4959 S 460.846 2.38389 3.68397 0
M  V30 4960 H 457.664 0.473791 0.530135 0
M  V30 4961 H 460.266 1.7282 0.913968 0
M  V30 4962 H 458.97 3.261 2.49173 0
M  V30 4963 H 458.501 1.85953 3.46677 0
M  V30 4964 H 460.516 1.59068 4.70013 0
M  V30 4965 N 459.689 -1.00246 1.21608 0
M  V30 4966 C 460.966 -1.71336 0.943568 0
M  V30 4967 C 461.346 -2.03972 -0.543943 0
M  V30 4968 O 460.694 -1.71545 -1.50946 0
M  V30 4969 C 460.904 -2.97094 1.83128 0
M  V30 4970 C 462.252 -3.70071 2.08165 0
M  V30 4971 O 463.276 -3.07081 1.80498 0
M  V30 4972 O 462.135 -4.83376 2.54971 0
M  V30 4973 H 459.229 -0.747386 0.354039 0
M  V30 4974 H 461.775 -1.05967 1.32549 0
M  V30 4975 H 460.547 -2.69407 2.83788 0
M  V30 4976 H 460.17 -3.70204 1.45034 0
M  V30 4977 N 461.167 -1.02423 -1.1978 0
M  V30 4978 C 462.114 -0.601023 -2.22837 0
M  V30 4979 C 463.084 0.382801 -1.61629 0
M  V30 4980 O 464.269 0.280514 -1.88727 0
M  V30 4981 C 461.409 0.0467755 -3.45068 0
M  V30 4982 C 460.522 -0.98253 -4.20678 0
M  V30 4983 C 459.657 -0.304982 -5.30324 0
M  V30 4984 C 458.696 -1.32052 -5.97686 0
M  V30 4985 N 457.833 -0.669105 -6.98904 0
M  V30 4986 H 462.673 -1.48444 -2.58396 0
M  V30 4987 H 460.21 -0.742936 -1.2696 0
M  V30 4988 H 462.168 0.439556 -4.14878 0
M  V30 4989 H 460.798 0.893796 -3.10179 0
M  V30 4990 H 459.85 -1.49341 -3.49859 0
M  V30 4991 H 461.162 -1.75455 -4.66923 0
M  V30 4992 H 460.316 0.142893 -6.06532 0
M  V30 4993 H 459.055 0.499283 -4.85138 0
M  V30 4994 H 458.06 -1.7787 -5.20233 0
M  V30 4995 H 459.285 -2.1262 -6.44957 0
M  V30 4996 H 457.231 0.115152 -6.55899 0
M  V30 4997 H 457.148 -1.37908 -7.43315 0
M  V30 4998 H 458.416 -0.245076 -7.79115 0
M  V30 4999 N 462.645 1.35699 -0.801477 0
M  V30 5000 C 463.892 1.98913 -0.379459 0
M  V30 5001 C 464.22 1.63592 1.05204 0
M  V30 5002 O 463.475 0.888563 1.74365 0
M  V30 5003 C 463.774 3.53828 -0.504041 0
M  V30 5004 C 463.44 4.09002 -1.8981 0
M  V30 5005 C 462.102 4.23783 -2.27951 0
M  V30 5006 C 464.454 4.38939 -2.81038 0
M  V30 5007 C 461.782 4.65816 -3.56696 0
M  V30 5008 C 464.134 4.82409 -4.09224 0
M  V30 5009 C 462.798 4.95395 -4.4737 0
M  V30 5010 H 462.068 0.727874 -0.138854 0
M  V30 5011 H 464.715 1.61994 -1.02128 0
M  V30 5012 H 463.02 3.91175 0.221242 0
M  V30 5013 H 464.717 4.00687 -0.158361 0
M  V30 5014 H 461.307 3.97946 -1.59176 0
M  V30 5015 H 465.491 4.27077 -2.52821 0
M  V30 5016 H 460.747 4.74059 -3.86106 0
M  V30 5017 H 464.921 5.04535 -4.80018 0
M  V30 5018 H 462.548 5.27724 -5.47185 0
M  V30 5019 N 464.123 0.554532 1.47522 0
M  V30 5020 C 465.534 0.120446 1.86311 0
M  V30 5021 C 465.885 -1.30904 1.46145 0
M  V30 5022 O 465.01 -1.98434 0.863294 0
M  V30 5023 C 465.605 0.211808 3.38137 0
M  V30 5024 C 464.164 -0.167224 3.76028 0
M  V30 5025 C 463.311 0.560576 2.71575 0
M  V30 5026 H 466.262 0.764408 1.39077 0
M  V30 5027 H 466.283 -0.570275 3.76202 0
M  V30 5028 H 465.795 1.25232 3.6734 0
M  V30 5029 H 463.896 -1.20894 3.52442 0
M  V30 5030 H 464.009 0.189473 4.78725 0
M  V30 5031 H 462.373 0.00396836 2.547 0
M  V30 5032 H 463.156 1.60219 3.0362 0
M  V30 5033 N 465.601 -1.54893 0.290851 0
M  V30 5034 C 467.012 -1.85584 -0.203816 0
M  V30 5035 C 467.363 -1.21285 -1.54222 0
M  V30 5036 O 466.488 -0.506841 -2.10381 0
M  V30 5037 C 467.083 -3.367 -0.376595 0
M  V30 5038 C 465.642 -3.6746 -0.815485 0
M  V30 5039 C 464.789 -2.77178 0.0821087 0
M  V30 5040 H 467.74 -1.50208 0.512175 0
M  V30 5041 H 467.761 -3.60656 -1.21275 0
M  V30 5042 H 467.273 -3.8347 0.59767 0
M  V30 5043 H 465.374 -3.26201 -1.80066 0
M  V30 5044 H 465.487 -4.7478 -0.641905 0
M  V30 5045 H 463.851 -2.50925 -0.436895 0
M  V30 5046 H 464.634 -3.26767 1.05254 0
M  V30 5047 N 467.08 -0.0183926 -1.57589 0
M  V30 5048 C 467.99 0.982943 -2.13015 0
M  V30 5049 C 469.006 1.36443 -1.07979 0
M  V30 5050 O 470.182 1.44802 -1.3998 0
M  V30 5051 C 467.247 2.25024 -2.63752 0
M  V30 5052 C 466.308 1.93018 -3.83461 0
M  V30 5053 C 465.541 3.13706 -4.31769 0
M  V30 5054 O 465.764 4.2601 -3.79305 0
M  V30 5055 O 464.698 2.96629 -5.23732 0
M  V30 5056 H 468.524 0.541709 -2.9883 0
M  V30 5057 H 466.109 0.201565 -1.48034 0
M  V30 5058 H 467.991 2.99441 -2.96502 0
M  V30 5059 H 466.666 2.68349 -1.81026 0
M  V30 5060 H 465.573 1.16019 -3.55655 0
M  V30 5061 H 466.906 1.54516 -4.67317 0
M  V30 5062 N 468.558 1.5553 0.254621 0
M  V30 5063 C 469.468 1.92789 1.33677 0
M  V30 5064 C 470.484 0.827356 1.53071 0
M  V30 5065 O 471.66 1.12807 1.66843 0
M  V30 5066 C 468.725 2.20827 2.67275 0
M  V30 5067 C 467.786 3.4427 2.5647 0
M  V30 5068 C 467.019 3.70961 3.83697 0
M  V30 5069 O 467.242 2.99852 4.85227 0
M  V30 5070 O 466.176 4.64491 3.82794 0
M  V30 5071 H 470.002 2.84945 1.05071 0
M  V30 5072 H 467.587 1.42312 0.454723 0
M  V30 5073 H 469.469 2.40204 3.46237 0
M  V30 5074 H 468.144 1.31851 2.9563 0
M  V30 5075 H 467.051 3.30209 1.75821 0
M  V30 5076 H 468.384 4.33524 2.33062 0
M  V30 5077 N 470.036 -0.519951 1.48776 0
M  V30 5078 C 470.946 -1.65025 1.66745 0
M  V30 5079 C 471.962 -1.6508 0.549954 0
M  V30 5080 O 473.138 -1.83848 0.822295 0
M  V30 5081 C 470.203 -3.0146 1.71238 0
M  V30 5082 C 469.264 -3.12182 2.94688 0
M  V30 5083 C 468.497 -4.42109 2.98958 0
M  V30 5084 O 468.72 -5.29799 2.1135 0
M  V30 5085 O 467.654 -4.57406 3.91233 0
M  V30 5086 H 471.48 -1.52801 2.62461 0
M  V30 5087 H 469.065 -0.694157 1.32294 0
M  V30 5088 H 470.947 -3.82584 1.76657 0
M  V30 5089 H 469.622 -3.13988 0.786975 0
M  V30 5090 H 468.529 -2.30316 2.94797 0
M  V30 5091 H 469.862 -3.04574 3.86646 0
M  V30 5092 N 471.514 -1.37532 -0.769588 0
M  V30 5093 C 472.444 -1.36172 -1.89682 0
M  V30 5094 C 473.425 -0.23001 -1.68538 0
M  V30 5095 O 474.61 -0.43069 -1.89364 0
M  V30 5096 C 471.74 -1.1701 -3.26995 0
M  V30 5097 C 470.694 -2.27216 -3.62708 0
M  V30 5098 C 470.02 -1.93174 -4.98586 0
M  V30 5099 C 471.32 -3.6941 -3.69234 0
M  V30 5100 H 473.014 -2.30499 -1.91078 0
M  V30 5101 H 470.56 -1.10953 -0.917902 0
M  V30 5102 H 472.513 -1.14688 -4.05493 0
M  V30 5103 H 471.237 -0.191395 -3.26039 0
M  V30 5104 H 469.896 -2.28697 -2.86519 0
M  V30 5105 H 469.544 -0.938281 -4.94171 0
M  V30 5106 H 469.244 -2.66973 -5.23449 0
M  V30 5107 H 470.768 -1.92443 -5.79481 0
M  V30 5108 H 472.182 -3.70047 -4.37879 0
M  V30 5109 H 470.579 -4.4228 -4.05597 0
M  V30 5110 H 471.649 -4.0288 -2.69844 0
M  V30 5111 N 472.992 0.995999 -1.22138 0
M  V30 5112 C 473.924 2.08745 -0.946485 0
M  V30 5113 C 474.937 1.62633 0.0737356 0
M  V30 5114 O 476.126 1.77782 -0.159886 0
M  V30 5115 C 473.226 3.36516 -0.401305 0
M  V30 5116 C 472.399 4.11672 -1.47801 0
M  V30 5117 C 471.458 5.17728 -0.940461 0
M  V30 5118 O 470.484 5.45482 -1.62596 0
M  V30 5119 N 471.686 5.80005 0.239723 0
M  V30 5120 H 474.451 2.32908 -1.88611 0
M  V30 5121 H 472.012 1.16152 -1.12785 0
M  V30 5122 H 474.004 4.04691 -0.0270837 0
M  V30 5123 H 472.574 3.0944 0.443354 0
M  V30 5124 H 471.794 3.38171 -2.02568 0
M  V30 5125 H 473.082 4.58657 -2.20253 0
M  V30 5126 H 472.48 5.5982 0.813518 0
M  V30 5127 H 471.037 6.4943 0.555361 0
M  V30 5128 N 474.47 1.03057 1.19235 0
M  V30 5129 C 475.886 0.747947 1.40989 0
M  V30 5130 C 476.086 -0.666752 1.90149 0
M  V30 5131 O 475.142 -1.43249 2.07933 0
M  V30 5132 C 476.455 1.7855 2.41951 0
M  V30 5133 C 478.003 1.80524 2.55695 0
M  V30 5134 C 478.478 2.83243 3.59913 0
M  V30 5135 N 479.969 2.8207 3.67411 0
M  V30 5136 C 480.704 3.58204 4.47747 0
M  V30 5137 N 480.2 4.44057 5.31775 0
M  V30 5138 N 481.993 3.46738 4.42413 0
M  V30 5139 H 474.144 1.94367 0.856468 0
M  V30 5140 H 476.407 0.840412 0.438647 0
M  V30 5141 H 476.113 2.79973 2.12857 0
M  V30 5142 H 475.987 1.6092 3.41152 0
M  V30 5143 H 478.374 0.79778 2.84112 0
M  V30 5144 H 478.455 2.02229 1.56643 0
M  V30 5145 H 478.099 3.84161 3.32239 0
M  V30 5146 H 478.029 2.58795 4.5862 0
M  V30 5147 H 480.52 2.19803 3.074 0
M  V30 5148 H 480.833 4.98884 5.90199 0
M  V30 5149 H 479.178 4.48129 5.3123 0
M  V30 5150 H 482.369 2.79077 3.75811 0
M  V30 5151 H 482.542 4.06322 5.04783 0
M  V30 5152 N 475.948 -1.35272 0.808662 0
M  V30 5153 C 476.858 -2.33546 0.222079 0
M  V30 5154 C 477.874 -1.6196 -0.636011 0
M  V30 5155 O 479.05 -1.93822 -0.547274 0
M  V30 5156 C 476.115 -3.41148 -0.61795 0
M  V30 5157 C 475.176 -4.28507 0.260875 0
M  V30 5158 C 474.409 -5.3097 -0.539156 0
M  V30 5159 O 474.632 -5.42123 -1.77367 0
M  V30 5160 O 473.566 -6.01858 0.0710526 0
M  V30 5161 H 477.392 -2.85515 1.03512 0
M  V30 5162 H 474.977 -1.38079 0.570495 0
M  V30 5163 H 476.859 -4.06889 -1.09634 0
M  V30 5164 H 475.534 -2.91447 -1.40855 0
M  V30 5165 H 474.441 -3.6574 0.786451 0
M  V30 5166 H 475.774 -4.81611 1.01547 0
M  V30 5167 N 477.426 -0.562348 -1.47226 0
M  V30 5168 C 478.672 -0.0485293 -2.03342 0
M  V30 5169 C 479.027 1.28898 -1.42839 0
M  V30 5170 O 478.32 1.82719 -0.576563 0
M  V30 5171 C 478.514 0.0969817 -3.57268 0
M  V30 5172 C 478.343 -1.22487 -4.32697 0
M  V30 5173 C 477.113 -1.79357 -4.72397 0
M  V30 5174 C 479.311 -2.14332 -4.67511 0
M  V30 5175 N 477.293 -3.05493 -5.32491 0
M  V30 5176 C 478.664 -3.25049 -5.27961 0
M  V30 5177 C 480.719 -2.14263 -4.4944 0
M  V30 5178 C 479.422 -4.35804 -5.72248 0
M  V30 5179 C 481.448 -3.24033 -4.94729 0
M  V30 5180 C 480.81 -4.3347 -5.55233 0
M  V30 5181 H 476.909 -0.0600464 -0.779691 0
M  V30 5182 H 479.493 -0.750769 -1.79643 0
M  V30 5183 H 477.664 0.768353 -3.80724 0
M  V30 5184 H 479.396 0.613333 -4.00025 0
M  V30 5185 H 476.151 -1.33093 -4.54514 0
M  V30 5186 H 476.575 -3.698 -5.67077 0
M  V30 5187 H 481.217 -1.30935 -4.02015 0
M  V30 5188 H 478.935 -5.19888 -6.18661 0
M  V30 5189 H 482.521 -3.25073 -4.82513 0
M  V30 5190 H 481.401 -5.17008 -5.89638 0
M  V30 5191 N 478.904 1.54736 -0.299062 0
M  V30 5192 C 479.834 2.26409 0.571085 0
M  V30 5193 C 480.815 1.2629 1.13951 0
M  V30 5194 O 482 1.55059 1.16921 0
M  V30 5195 C 479.13 3.00338 1.74396 0
M  V30 5196 C 478.084 4.07588 1.30599 0
M  V30 5197 C 477.41 4.69222 2.56387 0
M  V30 5198 C 478.71 5.20455 0.438645 0
M  V30 5199 H 480.404 2.99388 -0.0266991 0
M  V30 5200 H 477.95 1.43993 -0.0142812 0
M  V30 5201 H 479.903 3.49198 2.35878 0
M  V30 5202 H 478.627 2.24934 2.36796 0
M  V30 5203 H 477.286 3.59575 0.71424 0
M  V30 5204 H 476.934 3.9046 3.17097 0
M  V30 5205 H 476.634 5.41653 2.27784 0
M  V30 5206 H 478.158 5.20844 3.18675 0
M  V30 5207 H 479.572 5.65221 0.959085 0
M  V30 5208 H 477.969 5.99594 0.246466 0
M  V30 5209 H 479.039 4.8192 -0.536738 0
M  V30 5210 N 480.382 0.0267497 1.57577 0
M  V30 5211 C 481.63 -0.651116 1.91324 0
M  V30 5212 C 481.951 -1.72804 0.90353 0
M  V30 5213 O 481.221 -1.95822 -0.0552946 0
M  V30 5214 H 479.801 -0.243491 0.706202 0
M  V30 5215 H 482.463 0.0739935 1.94759 0
M  V30 5216 H 481.559 -1.10536 2.9187 0
M  V30 5217 N 481.861 -1.55662 -0.24637 0
M  V30 5218 C 482.809 -1.91186 -1.3248 0
M  V30 5219 C 483.803 -0.790996 -1.49799 0
M  V30 5220 O 485.009 -0.975617 -1.51267 0
M  V30 5221 H 481.384 -0.607207 -0.443626 0
M  V30 5222 H 483.355 -2.81221 -0.997853 0
M  V30 5223 C 482.104 -2.22349 -2.67313 0
M  V30 5224 H 481.427 -3.08097 -2.54786 0
M  V30 5225 H 482.867 -2.51107 -3.41645 0
M  V30 5226 C 481.326 -1.04001 -3.20446 0
M  V30 5227 O 481.856 -0.28828 -4.00664 0
M  V30 5228 N 480.062 -0.830494 -2.7848 0
M  V30 5229 H 479.609 -1.4435 -2.13356 0
M  V30 5230 H 479.567 -0.0403258 -3.14374 0
M  V30 5231 N 483.339 0.512053 -1.4905 0
M  V30 5232 C 484.755 0.84224 -1.35567 0
M  V30 5233 C 484.955 1.97878 -0.380319 0
M  V30 5234 O 484.011 2.51769 0.19201 0
M  V30 5235 C 485.324 1.19286 -2.76028 0
M  V30 5236 C 486.872 1.30171 -2.84648 0
M  V30 5237 C 487.347 1.68568 -4.25851 0
M  V30 5238 N 488.838 1.75638 -4.28609 0
M  V30 5239 C 489.573 2.06769 -5.34821 0
M  V30 5240 N 489.069 2.36201 -6.51292 0
M  V30 5241 N 490.862 2.07927 -5.22229 0
M  V30 5242 H 483.013 -0.237574 -2.11067 0
M  V30 5243 H 485.276 -0.0436747 -0.946993 0
M  V30 5244 H 484.982 0.431199 -3.49047 0
M  V30 5245 H 484.856 2.13889 -3.10695 0
M  V30 5246 H 487.243 2.05411 -2.11873 0
M  V30 5247 H 487.324 0.336457 -2.53578 0
M  V30 5248 H 486.968 0.938824 -4.99148 0
M  V30 5249 H 486.898 2.66174 -4.54377 0
M  V30 5250 H 489.389 1.55097 -3.44606 0
M  V30 5251 H 489.702 2.59112 -7.28066 0
M  V30 5252 H 488.047 2.33681 -6.54536 0
M  V30 5253 H 491.238 1.84403 -4.30248 0
M  V30 5254 H 491.411 2.31856 -6.05101 0
M  V30 5255 N 484.817 1.37938 0.762283 0
M  V30 5256 C 485.727 1.36681 1.90671 0
M  V30 5257 C 486.743 0.265078 1.71969 0
M  V30 5258 O 487.919 0.502055 1.95042 0
M  V30 5259 C 484.984 1.18211 3.25925 0
M  V30 5260 C 484.045 2.3811 3.57214 0
M  V30 5261 C 483.278 2.20512 4.86014 0
M  V30 5262 O 483.501 1.19429 5.57757 0
M  V30 5263 O 482.435 3.08911 5.16583 0
M  V30 5264 H 486.261 2.33091 1.94685 0
M  V30 5265 H 483.846 1.18767 0.906356 0
M  V30 5266 H 485.728 1.09937 4.06807 0
M  V30 5267 H 484.403 0.248807 3.22742 0
M  V30 5268 H 483.31 2.51958 2.76529 0
M  V30 5269 H 484.643 3.30041 3.65149 0
M  V30 5270 N 486.295 -0.989507 1.22664 0
M  V30 5271 C 487.258 -2.06183 1.00106 0
M  V30 5272 C 488.258 -1.60765 -0.0337726 0
M  V30 5273 O 489.448 -1.72989 0.205072 0
M  V30 5274 C 486.58 -3.37021 0.51279 0
M  V30 5275 H 487.773 -2.27629 1.95256 0
M  V30 5276 H 485.326 -1.16158 1.0458 0
M  V30 5277 H 486.061 -3.21261 -0.442917 0
M  V30 5278 H 485.846 -3.71323 1.25942 0
M  V30 5279 H 487.336 -4.1591 0.375315 0
M  V30 5280 N 487.773 -1.03688 -1.18687 0
M  V30 5281 C 488.703 -0.645407 -2.24403 0
M  V30 5282 C 489.684 0.349511 -1.66471 0
M  V30 5283 O 490.869 0.230453 -1.92828 0
M  V30 5284 C 487.999 -0.00365337 -3.473 0
M  V30 5285 C 486.953 -0.921705 -4.17958 0
M  V30 5286 C 486.279 -0.144629 -5.34504 0
M  V30 5287 C 487.579 -2.23909 -4.71871 0
M  V30 5288 H 489.273 -1.52917 -2.57404 0
M  V30 5289 H 486.819 -0.736711 -1.23728 0
M  V30 5290 H 488.772 0.281908 -4.20456 0
M  V30 5291 H 487.496 0.914963 -3.13522 0
M  V30 5292 H 486.155 -1.19159 -3.46694 0
M  V30 5293 H 485.803 0.776274 -4.96974 0
M  V30 5294 H 485.503 -0.756206 -5.82714 0
M  V30 5295 H 487.027 0.134004 -6.10453 0
M  V30 5296 H 488.441 -2.0145 -5.36741 0
M  V30 5297 H 486.838 -2.8033 -5.30599 0
M  V30 5298 H 487.908 -2.88822 -3.895 0
M  V30 5299 N 489.251 1.34841 -0.815825 0
M  V30 5300 C 490.5 1.97755 -0.396976 0
M  V30 5301 C 490.813 1.65422 1.04379 0
M  V30 5302 O 492.019 2.21771 1.5662 0
M  V30 5303 C 490.475 3.53818 -0.658869 0
M  V30 5304 C 490.083 3.95051 -2.11278 0
M  V30 5305 C 491.827 4.23397 -0.305834 0
M  V30 5306 C 489.734 5.43997 -2.31994 0
M  V30 5307 H 488.664 0.739985 -0.1447 0
M  V30 5308 H 491.315 1.53781 -1.00118 0
M  V30 5309 H 489.697 3.95997 0.0154112 0
M  V30 5310 H 490.871 3.63998 -2.82564 0
M  V30 5311 H 489.186 3.38388 -2.42657 0
M  V30 5312 H 491.783 5.32899 -0.43854 0
M  V30 5313 H 492.126 4.09508 0.748952 0
M  V30 5314 H 492.659 3.8667 -0.934403 0
M  V30 5315 H 489.398 5.62865 -3.35952 0
M  V30 5316 H 488.918 5.76589 -1.65244 0
M  V30 5317 H 490.597 6.10584 -2.14001 0
M  V30 5318 N 490.729 0.570148 1.46925 0
M  V30 5319 C 491.661 -0.207909 2.28255 0
M  V30 5320 C 492.674 -0.867301 1.37774 0
M  V30 5321 O 493.863 -0.738976 1.62485 0
M  V30 5322 C 490.963 -1.31298 3.12433 0
M  V30 5323 C 490.136 -0.747915 4.30958 0
M  V30 5324 C 489.195 -1.7391 4.9663 0
M  V30 5325 O 488.221 -1.2801 5.54619 0
M  V30 5326 N 489.423 -3.07288 4.92498 0
M  V30 5327 H 492.188 0.489794 2.95671 0
M  V30 5328 H 489.749 0.407076 1.56699 0
M  V30 5329 H 491.741 -1.97507 3.53232 0
M  V30 5330 H 490.311 -1.91373 2.47175 0
M  V30 5331 H 489.531 0.0913066 3.94094 0
M  V30 5332 H 490.819 -0.349958 5.07595 0
M  V30 5333 H 490.217 -3.47213 4.46609 0
M  V30 5334 H 488.774 -3.69021 5.37277 0
M  V30 5335 N 492.207 -1.54576 0.307264 0
M  V30 5336 C 493.454 -2.00263 -0.300167 0
M  V30 5337 C 493.782 -1.19561 -1.53413 0
M  V30 5338 O 493.037 -0.261487 -1.93945 0
M  V30 5339 C 493.336 -3.50572 -0.695253 0
M  V30 5340 C 493.002 -4.48771 0.437679 0
M  V30 5341 C 491.664 -4.7534 0.748681 0
M  V30 5342 C 494.016 -5.0721 1.19949 0
M  V30 5343 C 491.344 -5.5761 1.8245 0
M  V30 5344 C 493.696 -5.90651 2.26527 0
M  V30 5345 C 492.36 -6.15528 2.58227 0
M  V30 5346 H 491.63 -0.732814 -0.109839 0
M  V30 5347 H 494.277 -1.86664 0.427661 0
M  V30 5348 H 492.582 -3.61814 -1.50326 0
M  V30 5349 H 494.279 -3.83352 -1.17653 0
M  V30 5350 H 490.869 -4.282 0.185187 0
M  V30 5351 H 495.053 -4.86679 0.972474 0
M  V30 5352 H 490.309 -5.75121 2.07476 0
M  V30 5353 H 494.483 -6.34957 2.86011 0
M  V30 5354 H 492.11 -6.79066 3.4172 0
M  V30 5355 N 493.685 -0.035106 -1.57561 0
M  V30 5356 C 494.615 0.942993 -2.13612 0
M  V30 5357 C 495.596 1.33531 -1.05373 0
M  V30 5358 O 496.781 1.41287 -1.33235 0
M  V30 5359 C 493.911 2.22332 -2.66807 0
M  V30 5360 C 492.865 1.97156 -3.79886 0
M  V30 5361 C 492.191 3.31506 -4.19533 0
M  V30 5362 C 493.491 1.30596 -5.05709 0
M  V30 5363 H 495.185 0.476179 -2.95589 0
M  V30 5364 H 492.731 0.227602 -1.4219 0
M  V30 5365 H 494.684 2.91142 -3.04654 0
M  V30 5366 H 493.408 2.7119 -1.81999 0
M  V30 5367 H 492.067 1.30763 -3.42486 0
M  V30 5368 H 491.715 3.78134 -3.31698 0
M  V30 5369 H 491.415 3.15465 -4.95738 0
M  V30 5370 H 492.939 4.01574 -4.59968 0
M  V30 5371 H 494.353 1.89416 -5.41105 0
M  V30 5372 H 492.75 1.24934 -5.86951 0
M  V30 5373 H 493.82 0.279742 -4.84092 0
M  V30 5374 N 495.163 1.55791 0.238111 0
M  V30 5375 C 496.073 1.94196 1.31625 0
M  V30 5376 C 497.089 0.843545 1.52185 0
M  V30 5377 O 498.265 1.1457 1.65637 0
M  V30 5378 C 495.33 2.2365 2.64918 0
M  V30 5379 C 494.391 3.46971 2.52804 0
M  V30 5380 C 493.624 3.7501 3.79741 0
M  V30 5381 O 493.847 3.04982 4.82019 0
M  V30 5382 O 492.781 4.68525 3.77846 0
M  V30 5383 H 496.607 2.86044 1.02043 0
M  V30 5384 H 494.192 1.42786 0.439603 0
M  V30 5385 H 496.074 2.43863 3.4367 0
M  V30 5386 H 494.749 1.34979 2.94215 0
M  V30 5387 H 493.656 3.32055 1.72309 0
M  V30 5388 H 494.989 4.35971 2.28451 0
M  V30 5389 N 496.642 -0.504142 1.49319 0
M  V30 5390 C 497.574 -1.62265 1.61872 0
M  V30 5391 C 498.587 -1.54881 0.501573 0
M  V30 5392 O 499.776 -1.6087 0.773497 0
M  V30 5393 C 496.876 -3.01042 1.55651 0
M  V30 5394 C 496.049 -3.33642 2.82845 0
M  V30 5395 C 495.108 -4.51816 2.69719 0
M  V30 5396 O 494.134 -4.53755 3.4365 0
M  V30 5397 N 495.336 -5.51543 1.81055 0
M  V30 5398 H 498.101 -1.51924 2.58339 0
M  V30 5399 H 495.662 -0.691954 1.46368 0
M  V30 5400 H 497.654 -3.78013 1.44528 0
M  V30 5401 H 496.224 -3.05323 0.670546 0
M  V30 5402 H 495.444 -2.45598 3.08343 0
M  V30 5403 H 496.732 -3.5222 3.67177 0
M  V30 5404 H 496.13 -5.52774 1.20241 0
M  V30 5405 H 494.687 -6.27629 1.75856 0
M  V30 5406 N 498.12 -1.38341 -0.754957 0
M  V30 5407 C 499.366 -1.34672 -1.51628 0
M  V30 5408 C 499.699 0.0636036 -1.94096 0
M  V30 5409 O 498.974 1.0245 -1.6533 0
M  V30 5410 C 499.257 -2.30116 -2.76981 0
M  V30 5411 C 499.11 -3.80003 -2.4066 0
M  V30 5412 C 500.429 -2.23715 -3.78998 0
M  V30 5413 H 497.548 -0.490517 -0.550056 0
M  V30 5414 H 500.19 -1.69178 -0.864807 0
M  V30 5415 H 498.34 -2.00821 -3.3257 0
M  V30 5416 H 500.012 -4.19966 -1.90856 0
M  V30 5417 H 498.255 -3.97751 -1.73137 0
M  V30 5418 H 498.926 -4.42244 -3.30339 0
M  V30 5419 H 501.402 -2.49574 -3.32945 0
M  V30 5420 H 500.278 -2.9261 -4.64403 0
M  V30 5421 H 500.539 -1.23554 -4.24484 0
M  V30 5422 N 499.598 0.982988 -1.23187 0
M  V30 5423 C 500.548 2.05962 -0.977942 0
M  V30 5424 C 501.532 1.60725 0.0751148 0
M  V30 5425 O 502.724 1.76471 -0.136683 0
M  V30 5426 C 499.853 3.38564 -0.568276 0
M  V30 5427 C 498.939 3.90407 -1.6566 0
M  V30 5428 N 499.33 4.15359 -2.88635 0
M  V30 5429 C 497.628 4.18915 -1.53058 0
M  V30 5430 C 498.329 4.57642 -3.5908 0
M  V30 5431 N 497.305 4.6192 -2.86584 0
M  V30 5432 H 501.107 2.23208 -1.91195 0
M  V30 5433 H 498.621 1.16555 -1.13087 0
M  V30 5434 H 500.618 4.15276 -0.36764 0
M  V30 5435 H 499.278 3.22712 0.358713 0
M  V30 5436 H 500.289 4.03258 -3.24966 0
M  V30 5437 H 496.966 4.12081 -0.670506 0
M  V30 5438 H 498.356 4.85488 -4.6449 0
M  V30 5439 N 501.076 1.04316 1.18135 0
M  V30 5440 C 502.008 0.594444 2.21357 0
M  V30 5441 C 503.021 -0.337215 1.59269 0
M  V30 5442 O 504.21 -0.131337 1.78016 0
M  V30 5443 C 501.31 -0.151251 3.38562 0
M  V30 5444 C 500.483 0.788907 4.30227 0
M  V30 5445 C 499.542 0.0860572 5.2613 0
M  V30 5446 O 498.568 0.717302 5.64662 0
M  V30 5447 N 499.77 -1.17969 5.68387 0
M  V30 5448 H 502.535 1.48227 2.60478 0
M  V30 5449 H 500.096 0.92396 1.32946 0
M  V30 5450 H 502.088 -0.631352 3.99745 0
M  V30 5451 H 500.658 -0.940639 2.98112 0
M  V30 5452 H 499.878 1.44882 3.6661 0
M  V30 5453 H 501.166 1.42738 4.88368 0
M  V30 5454 H 500.564 -1.71302 5.3914 0
M  V30 5455 H 499.121 -1.60402 6.31755 0
M  V30 5456 N 502.554 -1.34406 0.822964 0
M  V30 5457 C 503.802 -1.97892 0.410245 0
M  V30 5458 C 504.123 -1.65567 -1.03017 0
M  V30 5459 O 503.393 -0.94642 -1.71522 0
M  V30 5460 H 501.973 -0.732049 0.148707 0
M  V30 5461 H 504.635 -1.64043 1.05242 0
M  V30 5462 H 503.731 -3.07579 0.529284 0
M  V30 5463 N 504.032 -0.577932 -1.46621 0
M  V30 5464 C 505.281 -0.0594281 -2.01612 0
M  V30 5465 C 505.594 1.30663 -1.45556 0
M  V30 5466 O 506.8 1.91621 -1.92337 0
M  V30 5467 C 505.256 -0.0556666 -3.59857 0
M  V30 5468 C 504.864 -1.41975 -4.24908 0
M  V30 5469 C 506.608 0.409143 -4.22524 0
M  V30 5470 C 504.515 -1.37397 -5.75218 0
M  V30 5471 H 503.445 -0.0184469 -0.753774 0
M  V30 5472 H 506.096 -0.728869 -1.68404 0
M  V30 5473 H 504.478 0.679843 -3.90121 0
M  V30 5474 H 505.652 -2.17461 -4.0626 0
M  V30 5475 H 503.967 -1.82419 -3.74316 0
M  V30 5476 H 506.564 0.46211 -5.32699 0
M  V30 5477 H 506.907 1.42565 -3.91128 0
M  V30 5478 H 507.44 -0.272152 -3.96868 0
M  V30 5479 H 504.179 -2.36714 -6.11267 0
M  V30 5480 H 503.699 -0.661239 -5.96144 0
M  V30 5481 H 505.378 -1.08484 -6.3784 0
M  V30 5482 N 505.51 1.54411 -0.315457 0
M  V30 5483 C 506.457 2.24048 0.554166 0
M  V30 5484 C 507.427 1.2283 1.11812 0
M  V30 5485 O 508.612 1.51491 1.15997 0
M  V30 5486 C 505.752 2.99574 1.71316 0
M  V30 5487 C 504.865 4.15594 1.17922 0
M  V30 5488 C 504 4.78669 2.30324 0
M  V30 5489 C 503.039 5.86807 1.74137 0
M  V30 5490 N 502.176 6.43777 2.8017 0
M  V30 5491 H 507.016 2.97964 -0.0462602 0
M  V30 5492 H 504.553 1.47059 -0.0346009 0
M  V30 5493 H 506.511 3.41604 2.39505 0
M  V30 5494 H 505.141 2.28008 2.285 0
M  V30 5495 H 504.193 3.78404 0.389136 0
M  V30 5496 H 505.505 4.93459 0.728012 0
M  V30 5497 H 504.659 5.23626 3.06433 0
M  V30 5498 H 503.398 4.00168 2.78778 0
M  V30 5499 H 502.403 5.41261 0.965236 0
M  V30 5500 H 503.628 6.67201 1.2657 0
M  V30 5501 H 501.574 5.68153 3.2793 0
M  V30 5502 H 501.491 7.17031 2.39588 0
M  V30 5503 H 502.759 6.9339 3.56132 0
M  V30 5504 N 506.988 0.0434614 1.5754 0
M  V30 5505 C 508.236 -0.630786 1.92004 0
M  V30 5506 C 508.557 -1.71836 0.921807 0
M  V30 5507 O 507.827 -1.9587 -0.034522 0
M  V30 5508 H 506.407 -0.235988 0.708745 0
M  V30 5509 H 509.069 0.0946462 1.9467 0
M  V30 5510 H 508.165 -1.07434 2.93026 0
M  V30 5511 N 508.466 -1.55915 -0.229846 0
M  V30 5512 C 509.399 -1.86734 -1.3117 0
M  V30 5513 C 510.377 -0.723947 -1.45595 0
M  V30 5514 O 511.561 -0.971462 -1.61539 0
M  V30 5515 C 508.688 -2.06707 -2.68309 0
M  V30 5516 C 507.734 -3.2938 -2.70944 0
M  V30 5517 S 508.567 -4.85547 -2.25842 0
M  V30 5518 C 509.723 -5.08546 -3.64873 0
M  V30 5519 H 509.956 -2.78204 -1.04832 0
M  V30 5520 H 507.489 -1.48243 -0.431681 0
M  V30 5521 H 509.447 -2.18898 -3.47267 0
M  V30 5522 H 508.108 -1.16049 -2.91876 0
M  V30 5523 H 507.301 -3.40374 -3.71701 0
M  V30 5524 H 506.903 -3.16004 -2.00044 0
M  V30 5525 H 509.195 -4.96935 -4.60502 0
M  V30 5526 H 510.138 -6.10465 -3.58801 0
M  V30 5527 H 510.546 -4.36314 -3.58176 0
M  V30 5528 N 509.944 0.496216 -1.49584 0
M  V30 5529 C 511.19 1.25189 -1.59548 0
M  V30 5530 C 511.523 1.9212 -0.283466 0
M  V30 5531 O 510.798 1.80947 0.713324 0
M  V30 5532 C 511.081 2.31516 -2.75812 0
M  V30 5533 C 510.934 1.69054 -4.16822 0
M  V30 5534 C 512.253 3.3304 -2.87702 0
M  V30 5535 H 509.372 0.45379 -0.580727 0
M  V30 5536 H 512.014 0.549327 -1.81886 0
M  V30 5537 H 510.164 2.91438 -2.56897 0
M  V30 5538 H 511.836 1.12923 -4.47265 0
M  V30 5539 H 510.079 0.994485 -4.22247 0
M  V30 5540 H 510.75 2.462 -4.94054 0
M  V30 5541 H 513.226 2.83114 -3.04936 0
M  V30 5542 H 512.102 4.04794 -3.7072 0
M  V30 5543 H 512.363 3.95655 -1.97255 0
M  V30 5544 N 511.423 1.38739 0.74761 0
M  V30 5545 C 512.353 1.39173 1.87492 0
M  V30 5546 C 513.334 0.256794 1.6815 0
M  V30 5547 O 514.519 0.460762 1.88655 0
M  V30 5548 C 511.649 1.22197 3.25093 0
M  V30 5549 C 510.603 2.32957 3.59047 0
M  V30 5550 C 509.929 2.01082 4.95449 0
M  V30 5551 C 511.229 3.75237 3.6331 0
M  V30 5552 H 512.923 2.3351 1.87386 0
M  V30 5553 H 510.469 1.12399 0.900134 0
M  V30 5554 H 512.422 1.21124 4.03617 0
M  V30 5555 H 511.146 0.243241 3.25693 0
M  V30 5556 H 509.805 2.33226 2.82845 0
M  V30 5557 H 509.453 1.01678 4.92616 0
M  V30 5558 H 509.153 2.75267 5.19136 0
M  V30 5559 H 510.677 2.01638 5.76346 0
M  V30 5560 H 512.091 3.76966 4.31937 0
M  V30 5561 H 510.488 4.48677 3.98509 0
M  V30 5562 H 511.558 4.07122 2.634 0
M  V30 5563 N 512.901 -0.976442 1.23707 0
M  V30 5564 C 514.178 -1.69296 0.979699 0
M  V30 5565 C 514.558 -2.0508 -0.500555 0
M  V30 5566 O 513.906 -1.74708 -1.47273 0
M  V30 5567 C 514.116 -2.93143 1.89389 0
M  V30 5568 C 515.464 -3.65572 2.15968 0
M  V30 5569 O 516.488 -3.03184 1.86971 0
M  V30 5570 O 515.347 -4.77859 2.65167 0
M  V30 5571 H 512.441 -0.739708 0.369812 0
M  V30 5572 H 514.987 -1.03131 1.34767 0
M  V30 5573 H 513.759 -2.63327 2.89439 0
M  V30 5574 H 513.382 -3.67044 1.52854 0
M  V30 5575 N 514.379 -1.04941 -1.1758 0
M  V30 5576 C 515.289 -0.658826 -2.25159 0
M  V30 5577 C 516.305 0.318941 -1.71052 0
M  V30 5578 O 517.481 0.171669 -2.00667 0
M  V30 5579 C 514.546 -0.0369522 -3.4668 0
M  V30 5580 C 513.607 -1.06484 -4.15884 0
M  V30 5581 C 512.84 -0.472551 -5.31604 0
M  V30 5582 O 513.063 0.718736 -5.65854 0
M  V30 5583 O 511.997 -1.20557 -5.89703 0
M  V30 5584 H 515.823 -1.55533 -2.60851 0
M  V30 5585 H 513.408 -0.820819 -1.24832 0
M  V30 5586 H 515.29 0.308784 -4.20267 0
M  V30 5587 H 513.965 0.833238 -3.12792 0
M  V30 5588 H 512.872 -1.46253 -3.44327 0
M  V30 5589 H 514.205 -1.9061 -4.53794 0
M  V30 5590 N 515.857 1.33968 -0.830081 0
M  V30 5591 C 516.805 2.31301 -0.245435 0
M  V30 5592 C 517.799 1.57734 0.617762 0
M  V30 5593 O 519.005 1.72674 0.508303 0
M  V30 5594 H 515.38 0.749552 -0.0606316 0
M  V30 5595 H 517.351 2.78129 -1.08105 0
M  V30 5596 C 516.1 3.42961 0.572084 0
M  V30 5597 H 515.423 3.99714 -0.0828118 0
M  V30 5598 H 516.863 4.13286 0.94715 0
M  V30 5599 C 515.322 2.88043 1.74737 0
M  V30 5600 O 515.852 2.83508 2.8458 0
M  V30 5601 N 514.058 2.44768 1.56642 0
M  V30 5602 H 513.605 2.48656 0.672901 0
M  V30 5603 H 513.563 2.08375 2.3543 0
M  V30 5604 N 517.335 0.585699 1.46312 0
M  V30 5605 C 518.565 0.0780166 2.06453 0
M  V30 5606 C 518.973 -1.2336 1.43454 0
M  V30 5607 O 518.316 -1.75734 0.535086 0
M  V30 5608 C 518.378 -0.158951 3.59148 0
M  V30 5609 C 518.042 1.06752 4.44357 0
M  V30 5610 C 519.039 1.98031 4.80708 0
M  V30 5611 C 516.724 1.2902 4.85447 0
M  V30 5612 C 518.718 3.09924 5.5698 0
M  V30 5613 C 516.405 2.41218 5.61478 0
M  V30 5614 C 517.403 3.31499 5.97158 0
M  V30 5615 O 517.091 4.41747 6.71651 0
M  V30 5616 H 516.823 0.0558894 0.673686 0
M  V30 5617 H 519.377 0.806994 1.88883 0
M  V30 5618 H 517.607 -0.942575 3.75037 0
M  V30 5619 H 519.296 -0.615513 4.01206 0
M  V30 5620 H 520.062 1.82043 4.49539 0
M  V30 5621 H 515.941 0.596567 4.57124 0
M  V30 5622 H 519.485 3.80415 5.84748 0
M  V30 5623 H 515.382 2.57167 5.9206 0
M  V30 5624 H 516.15 4.40152 6.90079 0
M  V30 5625 N 518.813 -1.54241 0.323641 0
M  V30 5626 C 519.761 -2.25813 -0.557804 0
M  V30 5627 C 520.755 -1.27225 -1.11849 0
M  V30 5628 O 521.961 -1.45001 -1.06652 0
M  V30 5629 H 518.336 -0.72532 -0.198532 0
M  V30 5630 H 520.307 -2.98322 0.0681112 0
M  V30 5631 C 519.056 -3.02913 -1.70701 0
M  V30 5632 H 518.379 -3.78593 -1.28482 0
M  V30 5633 H 519.819 -3.56238 -2.29935 0
M  V30 5634 C 518.278 -2.11217 -2.62467 0
M  V30 5635 O 518.808 -1.69508 -3.64184 0
M  V30 5636 N 517.014 -1.76704 -2.30703 0
M  V30 5637 H 516.561 -2.1082 -1.48029 0
M  V30 5638 H 516.519 -1.15631 -2.92364 0
M  V30 5639 N 520.291 -0.0518155 -1.57515 0
M  V30 5640 C 521.239 0.940195 -2.12751 0
M  V30 5641 C 522.233 1.3218 -1.05948 0
M  V30 5642 O 523.439 1.30138 -1.24355 0
M  V30 5643 H 519.814 0.321066 -0.680015 0
M  V30 5644 H 521.785 0.449217 -2.94999 0
M  V30 5645 C 520.534 2.2055 -2.68799 0
M  V30 5646 H 519.857 1.92066 -3.50643 0
M  V30 5647 H 521.297 2.88119 -3.11068 0
M  V30 5648 C 519.756 2.95061 -1.62605 0
M  V30 5649 O 520.286 3.88025 -1.03921 0
M  V30 5650 N 518.492 2.57804 -1.34111 0
M  V30 5651 H 518.039 1.82281 -1.8202 0
M  V30 5652 H 517.997 3.07964 -0.632872 0
M  V30 5653 N 521.769 1.56035 0.221574 0
M  V30 5654 C 522.699 1.95434 1.2778 0
M  V30 5655 C 523.68 0.822564 1.48889 0
M  V30 5656 O 524.865 1.08486 1.61072 0
M  V30 5657 C 521.995 2.27102 2.62759 0
M  V30 5658 C 520.949 3.4277 2.56306 0
M  V30 5659 C 520.275 3.60043 3.95314 0
M  V30 5660 C 521.575 4.77742 2.11093 0
M  V30 5661 H 523.269 2.83912 0.950504 0
M  V30 5662 H 520.815 1.36596 0.455791 0
M  V30 5663 H 522.768 2.53256 3.36807 0
M  V30 5664 H 521.492 1.35478 2.97176 0
M  V30 5665 H 520.151 3.16664 1.84715 0
M  V30 5666 H 519.799 2.65794 4.27039 0
M  V30 5667 H 519.499 4.37841 3.91879 0
M  V30 5668 H 521.023 3.88545 4.71025 0
M  V30 5669 H 522.437 5.03102 2.74885 0
M  V30 5670 H 520.834 5.58823 2.18716 0
M  V30 5671 H 521.904 4.731 1.06321 0
M  V30 5672 N 523.247 -0.488276 1.49845 0
M  V30 5673 C 524.21 -1.57069 1.66919 0
M  V30 5674 C 525.21 -1.51445 0.540479 0
M  V30 5675 O 526.4 -1.5437 0.807188 0
M  V30 5676 C 523.532 -2.96718 1.67844 0
M  V30 5677 H 524.725 -1.43254 2.63474 0
M  V30 5678 H 522.278 -0.713435 1.39068 0
M  V30 5679 H 523.013 -3.15996 0.7292 0
M  V30 5680 H 522.798 -3.02208 2.49826 0
M  V30 5681 H 524.288 -3.75335 1.83066 0
M  V30 5682 N 524.725 -1.39134 -0.740242 0
M  V30 5683 C 525.673 -1.3757 -1.87556 0
M  V30 5684 C 526.667 -0.259593 -1.67399 0
M  V30 5685 O 527.873 -0.429349 -1.74804 0
M  V30 5686 H 524.248 -0.42947 -0.6173 0
M  V30 5687 H 526.219 -2.33345 -1.85991 0
M  V30 5688 C 524.968 -1.23087 -3.25184 0
M  V30 5689 H 524.291 -2.08237 -3.41288 0
M  V30 5690 H 525.731 -1.26049 -4.0483 0
M  V30 5691 C 524.19 0.0611471 -3.36845 0
M  V30 5692 O 524.72 1.03328 -3.88183 0
M  V30 5693 N 522.926 0.122454 -2.90342 0
M  V30 5694 H 522.473 -0.669329 -2.48752 0
M  V30 5695 H 522.431 0.986463 -2.98523 0
M  V30 5696 N 526.204 0.969867 -1.24223 0
M  V30 5697 C 527.167 2.04564 -1.03373 0
M  V30 5698 C 528.167 1.60798 0.00819206 0
M  V30 5699 O 529.357 1.72641 -0.232567 0
M  V30 5700 C 526.489 3.36163 -0.566343 0
M  V30 5701 H 527.682 2.24494 -1.98853 0
M  V30 5702 H 525.235 1.1448 -1.06415 0
M  V30 5703 H 525.97 3.21925 0.391751 0
M  V30 5704 H 525.755 3.69273 -1.31834 0
M  V30 5705 H 527.245 4.1526 -0.441435 0
M  V30 5706 N 527.682 1.05563 1.17022 0
M  V30 5707 C 528.928 0.769074 1.87652 0
M  V30 5708 C 529.261 -0.702326 1.81055 0
M  V30 5709 O 528.536 -1.5139 1.22112 0
M  V30 5710 C 528.819 1.25492 3.37526 0
M  V30 5711 C 528.672 2.78953 3.52853 0
M  V30 5712 C 529.991 0.856919 4.31677 0
M  V30 5713 H 527.11 0.280854 0.681388 0
M  V30 5714 H 529.752 1.31027 1.37593 0
M  V30 5715 H 527.902 0.794516 3.80289 0
M  V30 5716 H 529.574 3.33146 3.19079 0
M  V30 5717 H 527.817 3.18046 2.95007 0
M  V30 5718 H 528.488 3.08011 4.58076 0
M  V30 5719 H 530.964 1.25334 3.96775 0
M  V30 5720 H 529.84 1.22443 5.35069 0
M  V30 5721 H 530.101 -0.238787 4.41455 0
M  V30 5722 N 529.16 -1.33526 0.837174 0
M  V30 5723 C 530.409 -1.97098 0.428387 0
M  V30 5724 C 530.722 -1.67062 -1.01734 0
M  V30 5725 O 531.928 -2.24235 -1.53072 0
M  V30 5726 C 530.384 -3.52725 0.715075 0
M  V30 5727 C 529.992 -3.9164 2.17537 0
M  V30 5728 C 531.736 -4.22857 0.373154 0
M  V30 5729 C 529.643 -5.40237 2.40619 0
M  V30 5730 H 528.573 -0.737589 0.156455 0
M  V30 5731 H 531.224 -1.52169 1.02552 0
M  V30 5732 H 529.606 -3.95971 0.0475904 0
M  V30 5733 H 530.78 -3.59456 2.88319 0
M  V30 5734 H 529.095 -3.34485 2.4801 0
M  V30 5735 H 531.692 -5.32133 0.523264 0
M  V30 5736 H 532.035 -4.10647 -0.683708 0
M  V30 5737 H 532.568 -3.85135 0.995801 0
M  V30 5738 H 529.307 -5.57449 3.44864 0
M  V30 5739 H 528.827 -5.73887 1.74396 0
M  V30 5740 H 530.506 -6.07102 2.23688 0
M  V30 5741 N 530.638 -0.59345 -1.46 0
M  V30 5742 C 531.863 -0.0872365 -2.07216 0
M  V30 5743 C 532.288 1.2131 -1.43755 0
M  V30 5744 O 531.646 1.73528 -0.525152 0
M  V30 5745 C 531.694 0.0538197 -3.6056 0
M  V30 5746 O 530.798 1.10765 -3.97247 0
M  V30 5747 H 530.139 -0.0676598 -0.660544 0
M  V30 5748 H 532.669 -0.819445 -1.87473 0
M  V30 5749 H 532.679 0.256567 -4.07193 0
M  V30 5750 H 531.354 -0.895739 -4.0614 0
M  V30 5751 H 529.931 0.882501 -3.62307 0
M  V30 5752 N 532.116 1.54067 -0.331816 0
M  V30 5753 C 533.362 2.01012 0.268667 0
M  V30 5754 C 533.695 1.2195 1.51136 0
M  V30 5755 O 532.97 0.303972 1.9211 0
M  V30 5756 C 533.253 3.55158 0.59456 0
M  V30 5757 C 533.106 4.4494 -0.659409 0
M  V30 5758 C 534.425 4.16939 1.4089 0
M  V30 5759 H 531.544 0.730698 0.0961756 0
M  V30 5760 H 534.186 1.84593 -0.450031 0
M  V30 5761 H 532.336 3.6928 1.20685 0
M  V30 5762 H 534.008 4.42675 -1.29756 0
M  V30 5763 H 532.251 4.1428 -1.28665 0
M  V30 5764 H 532.922 5.50643 -0.386804 0
M  V30 5765 H 535.398 4.06443 0.891272 0
M  V30 5766 H 534.274 5.24889 1.60569 0
M  V30 5767 H 534.535 3.70798 2.40752 0
M  V30 5768 N 533.594 0.0601682 1.57485 0
M  V30 5769 C 534.819 -0.624416 1.97777 0
M  V30 5770 C 535.244 -1.63051 0.937867 0
M  V30 5771 O 534.602 -1.81036 -0.0978845 0
M  V30 5772 C 534.65 -1.27979 3.37126 0
M  V30 5773 O 533.754 -2.39556 3.35688 0
M  V30 5774 H 533.095 -0.161581 0.64404 0
M  V30 5775 H 535.625 0.131237 2.04179 0
M  V30 5776 H 535.635 -1.62937 3.74053 0
M  V30 5777 H 534.31 -0.542501 4.12347 0
M  V30 5778 H 532.887 -2.06478 3.10517 0
M  V30 5779 N 535.072 -1.5615 -0.213296 0
M  V30 5780 C 536.32 -1.79191 -0.934612 0
M  V30 5781 C 536.641 -0.630112 -1.84539 0
M  V30 5782 O 535.911 0.35257 -1.92701 0
M  V30 5783 H 534.491 -0.660937 -0.348097 0
M  V30 5784 H 537.153 -1.93618 -0.22317 0
M  V30 5785 H 536.249 -2.71656 -1.53654 0
M  V30 5786 N 536.55 0.480323 -1.50102 0
M  V30 5787 C 537.799 1.22979 -1.59872 0
M  V30 5788 C 538.112 1.93282 -0.30022 0
M  V30 5789 O 539.318 2.70086 -0.276709 0
M  V30 5790 C 537.774 2.23408 -2.82164 0
M  V30 5791 C 537.382 1.5895 -4.18854 0
M  V30 5792 C 539.126 2.99055 -3.01275 0
M  V30 5793 C 537.033 2.57611 -5.32344 0
M  V30 5794 H 535.963 0.462707 -0.59533 0
M  V30 5795 H 538.614 0.501291 -1.7652 0
M  V30 5796 H 536.996 2.99511 -2.59055 0
M  V30 5797 H 538.17 0.887 -4.52182 0
M  V30 5798 H 536.485 0.956191 -4.05273 0
M  V30 5799 H 539.082 3.72876 -3.83233 0
M  V30 5800 H 539.425 3.57897 -2.12639 0
M  V30 5801 H 539.958 2.30066 -3.24522 0
M  V30 5802 H 536.697 2.03521 -6.23105 0
M  V30 5803 H 536.217 3.26041 -5.03445 0
M  V30 5804 H 537.896 3.19627 -5.62537 0
M  V30 5805 N 538.028 1.39524 0.732853 0
M  V30 5806 C 538.976 1.38563 1.86824 0
M  V30 5807 C 539.97 0.268467 1.67259 0
M  V30 5808 O 541.176 0.438613 1.74574 0
M  V30 5809 H 537.551 0.432737 0.615014 0
M  V30 5810 H 539.522 2.34328 1.84751 0
M  V30 5811 C 538.271 1.2481 3.24527 0
M  V30 5812 H 537.594 2.10044 3.40179 0
M  V30 5813 H 539.034 1.28194 4.04156 0
M  V30 5814 C 537.493 -0.0432825 3.36872 0
M  V30 5815 O 538.023 -1.01268 3.88726 0
M  V30 5816 N 536.229 -0.107055 2.90403 0
M  V30 5817 H 535.776 0.682512 2.48394 0
M  V30 5818 H 535.734 -0.970618 2.99042 0
M  V30 5819 N 539.506 -0.963266 1.24736 0
M  V30 5820 C 540.456 -2.0438 1.01058 0
M  V30 5821 C 541.44 -1.60824 -0.0495354 0
M  V30 5822 O 542.632 -1.76232 0.164741 0
M  V30 5823 C 539.761 -3.37617 0.622067 0
M  V30 5824 C 538.847 -3.87722 1.7185 0
M  V30 5825 N 539.238 -4.10715 2.95207 0
M  V30 5826 C 537.536 -4.16426 1.59703 0
M  V30 5827 C 538.237 -4.51872 3.66315 0
M  V30 5828 N 537.213 -4.57302 2.93897 0
M  V30 5829 H 541.015 -2.20138 1.94721 0
M  V30 5830 H 538.529 -1.14741 1.14927 0
M  V30 5831 H 540.526 -4.14638 0.43366 0
M  V30 5832 H 539.186 -3.23242 -0.307327 0
M  V30 5833 H 540.197 -3.98037 3.31341 0
M  V30 5834 H 536.874 -4.10962 0.73598 0
M  V30 5835 H 538.264 -4.78037 4.72155 0
M  V30 5836 N 540.985 -1.06182 -1.16461 0
M  V30 5837 C 542.262 -0.691364 -1.82974 0
M  V30 5838 C 542.642 0.827377 -1.9421 0
M  V30 5839 O 541.99 1.73723 -1.48434 0
M  V30 5840 C 542.2 -1.39199 -3.20038 0
M  V30 5841 C 543.548 -1.53647 -3.95825 0
M  V30 5842 O 544.572 -1.35181 -3.29552 0
M  V30 5843 O 543.431 -1.83932 -5.14618 0
M  V30 5844 H 540.525 -0.244605 -0.789998 0
M  V30 5845 H 543.071 -1.16203 -1.23673 0
M  V30 5846 H 541.843 -2.42766 -3.06888 0
M  V30 5847 H 541.466 -0.911335 -3.87015 0
M  V30 5848 N 542.463 1.3308 -0.844243 0
M  V30 5849 C 543.709 1.97898 -0.443206 0
M  V30 5850 C 544.042 1.66699 0.99625 0
M  V30 5851 O 543.317 0.949704 1.69738 0
M  V30 5852 C 543.6 3.53801 -0.670606 0
M  V30 5853 C 543.453 3.94667 -2.15772 0
M  V30 5854 C 544.772 4.39936 -0.120226 0
M  V30 5855 H 541.891 0.718861 -0.162504 0
M  V30 5856 H 544.533 1.57633 -1.06075 0
M  V30 5857 H 542.683 3.88229 -0.14496 0
M  V30 5858 H 544.355 3.70469 -2.74865 0
M  V30 5859 H 542.598 3.44203 -2.6402 0
M  V30 5860 H 543.269 5.03275 -2.26757 0
M  V30 5861 H 545.745 4.12183 -0.5696 0
M  V30 5862 H 544.621 5.4803 -0.308984 0
M  V30 5863 H 544.882 4.31184 0.976347 0
M  V30 5864 N 543.941 0.601185 1.45683 0
M  V30 5865 C 545.169 0.100054 2.06658 0
M  V30 5866 C 545.584 -1.21285 1.44691 0
M  V30 5867 O 544.941 -1.73735 0.558772 0
M  V30 5868 C 544.992 -0.0528579 3.61461 0
M  V30 5869 O 544.713 1.20809 4.21114 0
M  V30 5870 C 546.214 -0.586193 4.39407 0
M  V30 5871 H 543.434 0.065905 0.667756 0
M  V30 5872 H 545.978 0.827101 1.87028 0
M  V30 5873 H 544.133 -0.730203 3.80456 0
M  V30 5874 H 544.547 1.03368 5.14213 0
M  V30 5875 H 546.021 -0.642297 5.4825 0
M  V30 5876 H 546.498 -1.60713 4.0874 0
M  V30 5877 H 547.104 0.0568935 4.25262 0
M  V30 5878 N 545.419 -1.53889 0.339982 0
M  V30 5879 C 546.644 -2.05741 -0.261798 0
M  V30 5880 C 547.069 -1.21354 -1.43718 0
M  V30 5881 O 546.427 -0.22645 -1.7988 0
M  V30 5882 C 546.475 -3.54542 -0.658228 0
M  V30 5883 O 545.579 -3.7302 -1.75869 0
M  V30 5884 H 544.92 -0.662529 -0.0441672 0
M  V30 5885 H 547.45 -1.98568 0.493161 0
M  V30 5886 H 547.46 -3.9711 -0.936368 0
M  V30 5887 H 546.135 -4.15412 0.201358 0
M  V30 5888 H 544.712 -3.42355 -1.47809 0
M  V30 5889 N 546.897 -0.0685191 -1.57451 0
M  V30 5890 C 548.145 0.60016 -1.92983 0
M  V30 5891 C 548.466 1.70348 -0.949028 0
M  V30 5892 O 547.736 1.959 0.00335647 0
M  V30 5893 H 546.316 0.224682 -0.712409 0
M  V30 5894 H 548.978 -0.125605 -1.94495 0
M  V30 5895 H 548.074 1.02759 -2.94698 0
M  V30 5896 N 548.375 1.56261 0.205012 0
M  V30 5897 C 549.652 1.70856 0.952233 0
M  V30 5898 C 550.032 0.620501 2.01775 0
M  V30 5899 O 549.38 -0.370035 2.25484 0
M  V30 5900 C 549.59 3.12807 1.54767 0
M  V30 5901 C 550.938 3.72733 2.0336 0
M  V30 5902 O 551.962 3.15873 1.64629 0
M  V30 5903 O 550.821 4.72501 2.746 0
M  V30 5904 H 547.915 0.696496 0.445895 0
M  V30 5905 H 550.461 1.6857 0.195489 0
M  V30 5906 H 549.233 3.83465 0.779132 0
M  V30 5907 H 548.856 3.1928 2.36951 0
M  V30 5908 N 549.853 -0.472356 1.50355 0
M  V30 5909 C 550.803 -1.56809 1.65514 0
M  V30 5910 C 551.787 -1.5261 0.509801 0
M  V30 5911 O 552.979 -1.59655 0.764145 0
M  V30 5912 C 550.108 -2.9526 1.75146 0
M  V30 5913 C 549.194 -3.04348 2.95353 0
M  V30 5914 N 549.585 -2.83253 4.19048 0
M  V30 5915 C 547.883 -3.35482 2.93884 0
M  V30 5916 C 548.584 -2.97273 5.00003 0
M  V30 5917 N 547.56 -3.27418 4.33934 0
M  V30 5918 H 551.362 -1.39197 2.58846 0
M  V30 5919 H 548.876 -0.67906 1.47521 0
M  V30 5920 H 550.873 -3.74044 1.8411 0
M  V30 5921 H 549.533 -3.1392 0.829717 0
M  V30 5922 H 550.544 -2.5886 4.48567 0
M  V30 5923 H 547.221 -3.60138 2.11204 0
M  V30 5924 H 548.611 -2.85214 6.08361 0
M  V30 5925 N 551.331 -1.39911 -0.725443 0
M  V30 5926 C 552.579 -1.37382 -1.48224 0
M  V30 5927 C 552.9 0.0264107 -1.94982 0
M  V30 5928 O 552.17 0.979408 -1.6966 0
M  V30 5929 H 550.75 -0.505596 -0.549892 0
M  V30 5930 H 553.412 -1.7487 -0.860608 0
M  V30 5931 H 552.508 -2.04254 -2.3598 0
M  V30 5932 N 552.809 0.956637 -1.25245 0
M  V30 5933 C 554.086 1.67716 -1.00651 0
M  V30 5934 C 554.466 2.0585 0.467866 0
M  V30 5935 O 553.814 1.77029 1.44475 0
M  V30 5936 C 554.024 2.90093 -1.94028 0
M  V30 5937 C 555.372 3.6209 -2.21756 0
M  V30 5938 O 556.396 3.00171 -1.9177 0
M  V30 5939 O 555.255 4.7358 -2.72735 0
M  V30 5940 H 552.349 0.733731 -0.381533 0
M  V30 5941 H 554.895 1.00974 -1.3639 0
M  V30 5942 H 553.667 2.58689 -2.93591 0
M  V30 5943 H 553.29 3.64566 -1.58674 0
M  V30 5944 N 554.287 1.06798 1.15896 0
M  V30 5945 C 555.517 0.807522 1.90165 0
M  V30 5946 C 555.925 -0.642417 1.7796 0
M  V30 5947 O 555.268 -1.45193 1.12537 0
M  V30 5948 C 555.33 1.12939 3.41299 0
M  V30 5949 C 554.994 2.57879 3.7729 0
M  V30 5950 C 555.991 3.56118 3.78782 0
M  V30 5951 C 553.676 2.93311 4.07767 0
M  V30 5952 C 555.67 4.87827 4.10248 0
M  V30 5953 C 553.357 4.25219 4.38899 0
M  V30 5954 C 554.355 5.22287 4.4012 0
M  V30 5955 O 554.043 6.51826 4.70508 0
M  V30 5956 H 553.775 0.291946 0.609708 0
M  V30 5957 H 556.329 1.42627 1.47806 0
M  V30 5958 H 554.559 0.45359 3.84031 0
M  V30 5959 H 556.248 0.852363 3.9685 0
M  V30 5960 H 557.014 3.30086 3.55342 0
M  V30 5961 H 552.893 2.18409 4.05979 0
M  V30 5962 H 556.437 5.63586 4.11116 0
M  V30 5963 H 552.334 4.51006 4.61805 0
M  V30 5964 H 553.102 6.56893 4.88298 0
M  V30 5965 N 555.766 -1.3263 0.851289 0
M  V30 5966 C 557.013 -1.97368 0.453023 0
M  V30 5967 C 557.341 -1.67384 -0.990596 0
M  V30 5968 O 556.596 -0.952665 -1.70947 0
M  V30 5969 C 556.895 -3.51713 0.635015 0
M  V30 5970 C 556.561 -4.01676 2.04859 0
M  V30 5971 C 555.223 -4.15031 2.43522 0
M  V30 5972 C 557.575 -4.28206 2.97135 0
M  V30 5973 C 554.903 -4.52257 3.73739 0
M  V30 5974 C 557.255 -4.66889 4.26846 0
M  V30 5975 C 555.919 -4.7845 4.65448 0
M  V30 5976 H 555.189 -0.722219 0.165773 0
M  V30 5977 H 557.836 -1.58092 1.0807 0
M  V30 5978 H 556.141 -3.91726 -0.0759081 0
M  V30 5979 H 557.838 -3.99823 0.306964 0
M  V30 5980 H 554.428 -3.91764 1.73836 0
M  V30 5981 H 558.612 -4.174 2.68498 0
M  V30 5982 H 553.868 -4.59402 4.03435 0
M  V30 5983 H 558.042 -4.86372 4.98413 0
M  V30 5984 H 555.669 -5.07052 5.66395 0
M  V30 5985 N 557.244 -0.608902 -1.45362 0
M  V30 5986 C 558.66 -0.272659 -1.57254 0
M  V30 5987 C 558.86 1.22477 -1.60005 0
M  V30 5988 O 557.916 2.00785 -1.53106 0
M  V30 5989 C 559.229 -0.944991 -2.85465 0
M  V30 5990 C 560.777 -0.921033 -2.99142 0
M  V30 5991 C 561.252 -1.5734 -4.30126 0
M  V30 5992 N 562.743 -1.53895 -4.36887 0
M  V30 5993 C 563.478 -2.01286 -5.36909 0
M  V30 5994 N 562.974 -2.56768 -6.43461 0
M  V30 5995 N 564.767 -1.92046 -5.28275 0
M  V30 5996 H 556.918 -1.58117 -1.4182 0
M  V30 5997 H 559.181 -0.662437 -0.678146 0
M  V30 5998 H 558.887 -1.99941 -2.89338 0
M  V30 5999 H 558.761 -0.469079 -3.74272 0
M  V30 6000 H 561.148 0.124846 -2.94836 0
M  V30 6001 H 561.229 -1.43522 -2.11743 0
M  V30 6002 H 560.873 -2.61862 -4.35191 0
M  V30 6003 H 560.803 -1.03422 -5.16344 0
M  V30 6004 H 563.294 -1.13366 -3.60495 0
M  V30 6005 H 563.607 -2.9072 -7.16032 0
M  V30 6006 H 561.952 -2.60808 -6.44208 0
M  V30 6007 H 565.143 -1.48439 -4.43941 0
M  V30 6008 H 565.316 -2.29293 -6.06077 0
M  V30 6009 N 558.722 1.53707 -0.348139 0
M  V30 6010 C 559.652 2.28111 0.498766 0
M  V30 6011 C 560.633 1.29851 1.09876 0
M  V30 6012 O 561.818 1.587 1.11928 0
M  V30 6013 C 558.948 3.05735 1.64753 0
M  V30 6014 C 557.902 4.11537 1.17565 0
M  V30 6015 C 557.228 4.77142 2.4133 0
M  V30 6016 C 558.528 5.21587 0.272844 0
M  V30 6017 H 560.222 2.99152 -0.121934 0
M  V30 6018 H 557.768 1.43875 -0.0600842 0
M  V30 6019 H 559.721 3.56526 2.24649 0
M  V30 6020 H 558.445 2.32354 2.2952 0
M  V30 6021 H 557.104 3.61665 0.599483 0
M  V30 6022 H 556.752 4.0035 3.04514 0
M  V30 6023 H 556.452 5.48626 2.10436 0
M  V30 6024 H 557.976 5.30719 3.01943 0
M  V30 6025 H 559.39 5.67986 0.778779 0
M  V30 6026 H 557.787 6.00074 0.0555849 0
M  V30 6027 H 558.857 4.79969 -0.689785 0
M  V30 6028 N 560.2 0.0768682 1.57412 0
M  V30 6029 C 561.13 -0.886026 2.16037 0
M  V30 6030 C 562.111 -1.30691 1.08876 0
M  V30 6031 O 563.296 -1.37705 1.36934 0
M  V30 6032 C 560.426 -2.1518 2.72608 0
M  V30 6033 C 559.38 -1.87015 3.8498 0
M  V30 6034 C 558.706 -3.20266 4.28175 0
M  V30 6035 C 560.006 -1.17143 5.08994 0
M  V30 6036 H 561.7 -0.397642 2.96748 0
M  V30 6037 H 559.246 -0.189823 1.42743 0
M  V30 6038 H 561.199 -2.82962 3.12266 0
M  V30 6039 H 559.923 -2.66269 1.89125 0
M  V30 6040 H 558.582 -1.21636 3.45833 0
M  V30 6041 H 558.23 -3.69207 3.41607 0
M  V30 6042 H 557.93 -3.0221 5.03927 0
M  V30 6043 H 559.454 -3.89237 4.70454 0
M  V30 6044 H 560.868 -1.75003 5.45937 0
M  V30 6045 H 559.265 -1.09328 5.90057 0
M  V30 6046 H 560.335 -0.151295 4.84664 0
M  V30 6047 N 561.678 -1.56367 -0.196722 0
M  V30 6048 C 562.608 -1.97442 -1.24655 0
M  V30 6049 C 563.589 -0.846147 -1.47561 0
M  V30 6050 O 564.774 -1.11035 -1.59326 0
M  V30 6051 C 561.904 -2.31253 -2.59112 0
M  V30 6052 C 560.858 -3.46804 -2.50821 0
M  V30 6053 C 560.184 -3.66286 -3.89536 0
M  V30 6054 C 561.484 -4.8104 -2.03465 0
M  V30 6055 H 563.178 -2.85388 -0.905216 0
M  V30 6056 H 560.724 -1.37304 -0.434002 0
M  V30 6057 H 562.677 -2.58583 -3.32736 0
M  V30 6058 H 561.401 -1.40188 -2.94983 0
M  V30 6059 H 560.06 -3.19563 -1.79653 0
M  V30 6060 H 559.708 -2.72555 -4.22756 0
M  V30 6061 H 559.408 -4.4402 -3.84864 0
M  V30 6062 H 560.932 -3.9599 -4.64784 0
M  V30 6063 H 562.346 -5.07411 -2.66846 0
M  V30 6064 H 560.743 -5.62232 -2.09798 0
M  V30 6065 H 561.813 -4.74732 -0.98781 0
M  V30 6066 N 563.156 0.464375 -1.50603 0
M  V30 6067 C 564.567 1.04507 -1.5471 0
M  V30 6068 C 564.918 1.9297 -0.354542 0
M  V30 6069 O 564.043 2.09763 0.531812 0
M  V30 6070 C 564.638 1.90207 -2.80369 0
M  V30 6071 C 563.197 2.43373 -2.87135 0
M  V30 6072 C 562.344 1.21886 -2.49076 0
M  V30 6073 H 565.295 0.246716 -1.56771 0
M  V30 6074 H 565.316 2.75353 -2.62604 0
M  V30 6075 H 564.828 1.25796 -3.67147 0
M  V30 6076 H 562.929 3.11318 -2.04724 0
M  V30 6077 H 563.042 2.7802 -3.90181 0
M  V30 6078 H 561.406 1.55575 -2.01664 0
M  V30 6079 H 562.189 0.591268 -3.3817 0
M  V30 6080 N 564.634 1.40294 0.718013 0
M  V30 6081 C 565.882 1.38167 1.47494 0
M  V30 6082 C 566.203 -0.01607 1.94993 0
M  V30 6083 O 565.473 -0.970396 1.70177 0
M  V30 6084 H 564.053 0.508505 0.547203 0
M  V30 6085 H 566.715 1.75324 0.851322 0
M  V30 6086 H 565.811 2.05503 2.34894 0
M  V30 6087 N 566.112 -0.949982 1.2575 0
M  V30 6088 C 567.361 -1.68956 1.10168 0
M  V30 6089 C 567.674 -1.92327 -0.356309 0
M  V30 6090 O 568.88 -2.64026 -0.632657 0
M  V30 6091 C 567.336 -3.04196 1.92336 0
M  V30 6092 C 566.944 -2.88603 3.42655 0
M  V30 6093 C 568.688 -3.81904 1.85336 0
M  V30 6094 C 566.595 -4.19262 4.17101 0
M  V30 6095 H 565.525 -0.633645 0.408668 0
M  V30 6096 H 568.176 -1.05719 1.49986 0
M  V30 6097 H 566.558 -3.68363 1.45344 0
M  V30 6098 H 567.732 -2.3334 3.97353 0
M  V30 6099 H 566.047 -2.24345 3.50796 0
M  V30 6100 H 568.644 -4.78688 2.38248 0
M  V30 6101 H 568.987 -4.08099 0.822226 0
M  V30 6102 H 569.52 -3.24495 2.30104 0
M  V30 6103 H 566.259 -3.98254 5.20648 0
M  V30 6104 H 565.779 -4.74273 3.67186 0
M  V30 6105 H 567.458 -4.87775 4.25071 0
M  V30 6106 N 567.59 -1.07411 -1.15328 0
M  V30 6107 C 568.82 -0.817595 -1.89734 0
M  V30 6108 C 569.228 0.63297 -1.78298 0
M  V30 6109 O 568.571 1.44594 -1.13306 0
M  V30 6110 C 568.633 -1.14748 -3.40695 0
M  V30 6111 C 568.297 -2.59876 -3.75917 0
M  V30 6112 C 569.294 -3.58122 -3.76888 0
M  V30 6113 C 566.979 -2.95469 -4.06206 0
M  V30 6114 C 568.973 -4.89996 -4.07655 0
M  V30 6115 C 566.66 -4.2754 -4.36638 0
M  V30 6116 C 567.658 -5.24614 -4.37344 0
M  V30 6117 O 567.346 -6.54312 -4.67045 0
M  V30 6118 H 567.078 -0.295175 -0.608151 0
M  V30 6119 H 569.632 -1.43409 -1.47048 0
M  V30 6120 H 567.862 -0.47395 -3.83785 0
M  V30 6121 H 569.551 -0.873397 -3.96392 0
M  V30 6122 H 570.317 -3.31966 -3.53587 0
M  V30 6123 H 566.196 -2.20558 -4.04815 0
M  V30 6124 H 569.74 -5.65759 -4.08121 0
M  V30 6125 H 565.637 -4.53449 -4.59407 0
M  V30 6126 H 566.405 -6.59473 -4.84807 0
M  V30 6127 N 569.068 1.32177 -0.85831 0
M  V30 6128 C 570.296 2.01313 -0.477582 0
M  V30 6129 C 570.711 1.6449 0.926736 0
M  V30 6130 O 570.068 0.868096 1.60531 0
M  V30 6131 C 570.119 3.56293 -0.611337 0
M  V30 6132 O 569.84 3.91794 -1.96034 0
M  V30 6133 C 571.341 4.42702 -0.230093 0
M  V30 6134 H 568.561 0.644323 -0.187322 0
M  V30 6135 H 571.105 1.68674 -1.15626 0
M  V30 6136 H 569.26 3.87395 0.0196494 0
M  V30 6137 H 569.674 4.86513 -1.95973 0
M  V30 6138 H 571.148 5.50727 -0.374674 0
M  V30 6139 H 571.625 4.3129 0.829779 0
M  V30 6140 H 572.231 4.16997 -0.836302 0
M  V30 6141 N 570.547 0.616602 1.45037 0
M  V30 6142 C 571.793 0.115501 2.02471 0
M  V30 6143 C 572.126 -1.25406 1.4828 0
M  V30 6144 O 571.401 -1.82922 0.661051 0
M  V30 6145 C 571.684 0.0863588 3.59996 0
M  V30 6146 C 571.537 1.48723 4.24501 0
M  V30 6147 C 572.856 -0.596762 4.36035 0
M  V30 6148 H 569.975 0.0434461 0.735718 0
M  V30 6149 H 572.617 0.7903 1.72784 0
M  V30 6150 H 570.767 -0.488277 3.85419 0
M  V30 6151 H 572.439 2.10964 4.10234 0
M  V30 6152 H 570.682 2.04534 3.82555 0
M  V30 6153 H 571.353 1.419 5.3345 0
M  V30 6154 H 573.829 -0.10824 4.15959 0
M  V30 6155 H 572.705 -0.586289 5.4576 0
M  V30 6156 H 572.966 -1.66451 4.09569 0
M  V30 6157 N 572.025 -1.5352 0.356285 0
M  V30 6158 C 573.25 -2.06007 -0.239961 0
M  V30 6159 C 573.675 -1.22872 -1.42422 0
M  V30 6160 O 573.033 -0.245516 -1.7963 0
M  V30 6161 C 573.081 -3.5522 -0.620587 0
M  V30 6162 O 572.185 -3.74864 -1.71902 0
M  V30 6163 H 571.526 -0.662961 -0.0371377 0
M  V30 6164 H 574.056 -1.98033 0.514194 0
M  V30 6165 H 574.066 -3.98081 -0.894197 0
M  V30 6166 H 572.741 -4.15175 0.245407 0
M  V30 6167 H 571.318 -3.43904 -1.44169 0
M  V30 6168 N 573.503 -0.0852151 -1.57369 0
M  V30 6169 C 574.466 0.8627 -2.12344 0
M  V30 6170 C 575.466 1.21746 -1.05046 0
M  V30 6171 O 576.656 1.14852 -1.30976 0
M  V30 6172 C 573.788 2.1618 -2.63589 0
M  V30 6173 H 574.981 0.385511 -2.97412 0
M  V30 6174 H 572.534 0.163663 -1.55441 0
M  V30 6175 H 573.269 2.68406 -1.82013 0
M  V30 6176 H 573.054 1.91723 -3.4203 0
M  V30 6177 H 574.544 2.84011 -3.06149 0
M  V30 6178 N 574.981 1.5647 0.188427 0
M  V30 6179 C 576.209 1.85131 0.923803 0
M  V30 6180 C 576.624 0.668537 1.76567 0
M  V30 6181 O 575.981 -0.362662 1.7886 0
M  V30 6182 C 576.032 3.12661 1.81453 0
M  V30 6183 O 575.753 4.26378 1.00665 0
M  V30 6184 C 577.254 3.54548 2.66103 0
M  V30 6185 H 574.474 0.614624 0.269218 0
M  V30 6186 H 577.018 2.03581 0.193671 0
M  V30 6187 H 575.173 2.96088 2.49821 0
M  V30 6188 H 575.587 4.99041 1.61425 0
M  V30 6189 H 577.061 4.4673 3.24247 0
M  V30 6190 H 577.538 2.77853 3.40139 0
M  V30 6191 H 578.144 3.73674 2.03096 0
M  V30 6192 N 576.459 -0.456382 1.50847 0
M  V30 6193 C 577.422 -1.53493 1.70213 0
M  V30 6194 C 578.422 -1.50264 0.572481 0
M  V30 6195 O 579.612 -1.52623 0.839751 0
M  V30 6196 C 576.744 -2.93091 1.741 0
M  V30 6197 H 577.937 -1.37633 2.66453 0
M  V30 6198 H 575.49 -0.683776 1.4055 0
M  V30 6199 H 576.225 -3.14378 0.796063 0
M  V30 6200 H 576.01 -2.9684 2.5618 0
M  V30 6201 H 577.5 -3.71368 1.90987 0
M  V30 6202 N 577.937 -1.40673 -0.710563 0
M  V30 6203 C 579.348 -1.34975 -1.28991 0
M  V30 6204 C 579.699 -0.0256272 -1.96183 0
M  V30 6205 O 578.824 0.876339 -1.97862 0
M  V30 6206 C 579.419 -2.44467 -2.34567 0
M  V30 6207 C 577.978 -2.42213 -2.88114 0
M  V30 6208 C 577.125 -2.25085 -1.61963 0
M  V30 6209 H 580.076 -1.50406 -0.506343 0
M  V30 6210 H 580.097 -2.12663 -3.15523 0
M  V30 6211 H 579.609 -3.40825 -1.85634 0
M  V30 6212 H 577.71 -1.49568 -3.41263 0
M  V30 6213 H 577.823 -3.37983 -3.39565 0
M  V30 6214 H 576.187 -1.72691 -1.87216 0
M  V30 6215 H 576.97 -3.23449 -1.15047 0
M  V30 6216 N 579.415 0.9433 -1.26252 0
M  V30 6217 C 580.663 1.68592 -1.11451 0
M  V30 6218 C 580.984 1.91957 0.343123 0
M  V30 6219 O 580.254 1.51475 1.24226 0
M  V30 6220 H 578.834 0.624789 -0.409448 0
M  V30 6221 H 581.496 1.13351 -1.58548 0
M  V30 6222 H 580.592 2.66054 -1.63162 0
M  V30 6223 N 580.893 1.08022 1.14757 0
M  V30 6224 C 582.123 0.827646 1.89298 0
M  V30 6225 C 582.531 -0.623506 1.78631 0
M  V30 6226 O 581.874 -1.43991 1.14071 0
M  V30 6227 C 581.936 1.16553 3.40082 0
M  V30 6228 C 581.6 2.61866 3.74533 0
M  V30 6229 C 582.597 3.60116 3.74984 0
M  V30 6230 C 580.282 2.97619 4.04633 0
M  V30 6231 C 582.276 4.92151 4.05051 0
M  V30 6232 C 579.963 4.2985 4.34364 0
M  V30 6233 C 580.961 5.26926 4.34555 0
M  V30 6234 O 580.649 6.5678 4.63568 0
M  V30 6235 H 580.381 0.298396 0.606577 0
M  V30 6236 H 582.935 1.44187 1.46285 0
M  V30 6237 H 581.165 0.494296 3.83528 0
M  V30 6238 H 582.854 0.894407 3.95923 0
M  V30 6239 H 583.62 3.33837 3.51821 0
M  V30 6240 H 579.499 2.22702 4.03639 0
M  V30 6241 H 583.043 5.67915 4.05115 0
M  V30 6242 H 578.94 4.55879 4.56995 0
M  V30 6243 H 579.708 6.62035 4.81303 0
M  V30 6244 N 582.371 -1.3172 0.865308 0
M  V30 6245 C 583.648 -1.91574 0.394789 0
M  V30 6246 C 584.028 -1.78769 -1.12271 0
M  V30 6247 O 583.376 -1.19245 -1.94918 0
M  V30 6248 C 583.586 -3.37957 0.870982 0
M  V30 6249 C 584.934 -4.15073 0.894384 0
M  V30 6250 O 585.958 -3.4672 0.816325 0
M  V30 6251 O 584.817 -5.37151 1.00651 0
M  V30 6252 H 581.911 -0.818649 0.117229 0
M  V30 6253 H 584.457 -1.4042 0.952913 0
M  V30 6254 H 583.229 -3.41269 1.91444 0
M  V30 6255 H 582.852 -3.96534 0.290907 0
M  V30 6256 N 583.85 -0.624285 -1.44708 0
M  V30 6257 C 585.26 -0.2092 -1.85524 0
M  V30 6258 C 585.611 1.23783 -1.52225 0
M  V30 6259 O 584.736 1.94089 -0.956986 0
M  V30 6260 C 585.332 -0.372897 -3.36742 0
M  V30 6261 C 583.891 -0.012374 -3.76398 0
M  V30 6262 C 583.038 -0.68951 -2.68591 0
M  V30 6263 H 585.989 -0.829894 -1.35272 0
M  V30 6264 H 586.01 0.390134 -3.78495 0
M  V30 6265 H 585.522 -1.42615 -3.60947 0
M  V30 6266 H 583.623 1.03941 -3.57809 0
M  V30 6267 H 583.736 -0.417663 -4.77276 0
M  V30 6268 H 582.1 -0.125484 -2.54391 0
M  V30 6269 H 582.883 -1.74522 -2.9563 0
M  V30 6270 N 585.328 1.53329 -0.364422 0
M  V30 6271 C 586.238 2.29414 0.490552 0
M  V30 6272 C 587.254 1.35335 1.09363 0
M  V30 6273 O 588.43 1.68391 1.10483 0
M  V30 6274 C 585.495 3.06772 1.61529 0
M  V30 6275 C 584.556 4.16516 1.03986 0
M  V30 6276 C 583.789 4.90176 2.111 0
M  V30 6277 O 584.012 4.63687 3.32191 0
M  V30 6278 O 582.946 5.76134 1.74222 0
M  V30 6279 H 586.772 3.03428 -0.12856 0
M  V30 6280 H 584.357 1.48843 -0.128837 0
M  V30 6281 H 586.239 3.55082 2.26924 0
M  V30 6282 H 584.914 2.35596 2.21983 0
M  V30 6283 H 583.821 3.7246 0.349856 0
M  V30 6284 H 585.154 4.89855 0.4799 0
M  V30 6285 N 586.806 0.0935595 1.57322 0
M  V30 6286 C 588.034 -0.578934 1.98635 0
M  V30 6287 C 588.449 -1.61819 0.972626 0
M  V30 6288 O 587.806 -1.82461 -0.0379638 0
M  V30 6289 C 587.857 -1.22802 3.40003 0
M  V30 6290 O 587.578 -0.230334 4.37494 0
M  V30 6291 C 589.079 -1.98627 3.96311 0
M  V30 6292 H 586.299 -0.155324 0.652775 0
M  V30 6293 H 588.843 0.172393 2.03772 0
M  V30 6294 H 586.998 -1.93029 3.35885 0
M  V30 6295 H 587.412 -0.698649 5.19826 0
M  V30 6296 H 588.886 -2.39405 4.97382 0
M  V30 6297 H 589.363 -2.85151 3.34044 0
M  V30 6298 H 589.969 -1.3322 4.03897 0
M  V30 6299 N 588.284 -1.56567 -0.180126 0
M  V30 6300 C 589.53 -1.81761 -0.899497 0
M  V30 6301 C 589.863 -0.670015 -1.82276 0
M  V30 6302 O 589.138 0.328575 -1.91705 0
M  V30 6303 C 589.421 -3.17296 -1.7028 0
M  V30 6304 C 589.274 -4.4257 -0.803255 0
M  V30 6305 C 590.593 -3.49678 -2.67233 0
M  V30 6306 H 587.712 -0.661192 -0.325567 0
M  V30 6307 H 590.354 -1.89272 -0.16612 0
M  V30 6308 H 588.504 -3.11023 -2.32802 0
M  V30 6309 H 590.176 -4.60902 -0.191585 0
M  V30 6310 H 588.419 -4.33658 -0.110796 0
M  V30 6311 H 589.09 -5.33935 -1.40064 0
M  V30 6312 H 591.566 -3.56347 -2.14839 0
M  V30 6313 H 590.442 -4.45605 -3.20511 0
M  V30 6314 H 590.703 -2.73932 -3.47007 0
M  V30 6315 N 589.762 0.448376 -1.51087 0
M  V30 6316 C 590.99 1.22143 -1.66999 0
M  V30 6317 C 591.405 1.85283 -0.362699 0
M  V30 6318 O 590.762 1.70236 0.65772 0
M  V30 6319 C 590.813 2.31357 -2.7777 0
M  V30 6320 O 590.534 1.70801 -4.03434 0
M  V30 6321 C 592.035 3.21836 -3.04855 0
M  V30 6322 H 589.255 0.368558 -0.560719 0
M  V30 6323 H 591.799 0.532618 -1.97442 0
M  V30 6324 H 589.954 2.95973 -2.49958 0
M  V30 6325 H 590.368 2.42895 -4.64868 0
M  V30 6326 H 591.842 3.94627 -3.85971 0
M  V30 6327 H 592.319 3.81949 -2.16821 0
M  V30 6328 H 592.925 2.62933 -3.34285 0
M  V30 6329 N 591.24 1.41047 0.703093 0
M  V30 6330 C 592.486 1.40207 1.46526 0
M  V30 6331 C 592.819 0.00847763 1.94198 0
M  V30 6332 O 592.094 -0.962437 1.69019 0
M  V30 6333 C 592.377 2.40238 2.6825 0
M  V30 6334 C 592.23 3.88674 2.26391 0
M  V30 6335 C 593.549 2.37627 3.70434 0
M  V30 6336 H 590.668 0.510594 0.531472 0
M  V30 6337 H 593.31 1.72271 0.801422 0
M  V30 6338 H 591.46 2.13026 3.24888 0
M  V30 6339 H 593.132 4.2676 1.75138 0
M  V30 6340 H 591.375 4.03903 1.58255 0
M  V30 6341 H 592.046 4.542 3.13698 0
M  V30 6342 H 594.522 2.61759 3.23452 0
M  V30 6343 H 593.398 3.09645 4.53223 0
M  V30 6344 H 593.659 1.39223 4.19606 0
M  V30 6345 N 592.718 -0.936591 1.26751 0
M  V30 6346 C 593.946 -1.71758 1.15355 0
M  V30 6347 C 594.361 -1.86549 -0.290683 0
M  V30 6348 O 593.718 -1.37616 -1.19868 0
M  V30 6349 C 593.769 -3.12193 1.82258 0
M  V30 6350 O 593.49 -2.98105 3.21038 0
M  V30 6351 C 594.991 -4.06485 1.76875 0
M  V30 6352 H 592.211 -0.537636 0.401483 0
M  V30 6353 H 594.755 -1.17382 1.67457 0
M  V30 6354 H 592.91 -3.63456 1.34083 0
M  V30 6355 H 593.324 -3.86824 3.54214 0
M  V30 6356 H 594.798 -5.02569 2.28316 0
M  V30 6357 H 595.275 -4.32986 0.736216 0
M  V30 6358 H 595.881 -3.61144 2.24623 0
M  V30 6359 N 594.196 -1.08629 -1.14182 0
M  V30 6360 C 595.442 -0.818556 -1.85546 0
M  V30 6361 C 595.775 0.654076 -1.82854 0
M  V30 6362 O 595.05 1.48099 -1.26083 0
M  V30 6363 C 595.333 -1.34397 -3.3408 0
M  V30 6364 C 595.186 -2.8821 -3.45333 0
M  V30 6365 C 596.505 -0.971069 -4.29253 0
M  V30 6366 H 593.624 -0.298821 -0.673702 0
M  V30 6367 H 596.266 -1.34629 -1.34071 0
M  V30 6368 H 594.416 -0.895064 -3.78049 0
M  V30 6369 H 596.088 -3.41488 -3.10134 0
M  V30 6370 H 594.331 -3.25756 -2.86471 0
M  V30 6371 H 595.002 -3.20047 -4.49749 0
M  V30 6372 H 597.478 -1.35809 -3.93313 0
M  V30 6373 H 596.354 -1.36586 -5.31635 0
M  V30 6374 H 596.615 0.121659 -4.41933 0
M  V30 6375 N 595.674 1.31259 -0.872281 0
M  V30 6376 C 596.922 1.96233 -0.483409 0
M  V30 6377 C 597.243 1.69276 0.968012 0
M  V30 6378 O 596.513 1.00943 1.67891 0
M  V30 6379 H 595.093 0.726025 -0.175774 0
M  V30 6380 H 597.755 1.60024 -1.11258 0
M  V30 6381 H 596.851 3.05403 -0.643075 0
M  V30 6382 N 597.152 0.631951 1.44375 0
M  V30 6383 C 598.563 0.219036 1.85411 0
M  V30 6384 C 598.914 -1.22974 1.52879 0
M  V30 6385 O 598.039 -1.93579 0.967266 0
M  V30 6386 C 598.634 0.39075 3.36539 0
M  V30 6387 C 597.193 0.0323351 3.76386 0
M  V30 6388 C 596.34 0.703744 2.68221 0
M  V30 6389 H 599.291 0.837056 1.3483 0
M  V30 6390 H 599.312 -0.370056 3.78696 0
M  V30 6391 H 598.824 1.44527 3.60185 0
M  V30 6392 H 596.925 -1.02042 3.58355 0
M  V30 6393 H 597.038 0.442969 4.77048 0
M  V30 6394 H 595.402 0.138974 2.54321 0
M  V30 6395 H 596.185 1.76088 2.947 0
M  V30 6396 N 598.631 -1.53133 0.372548 0
M  V30 6397 C 599.594 -2.24569 -0.458389 0
M  V30 6398 C 600.594 -1.25603 -1.00402 0
M  V30 6399 O 601.784 -1.49827 -0.888672 0
M  V30 6400 C 598.916 -2.98783 -1.6414 0
M  V30 6401 H 600.109 -2.99436 0.166799 0
M  V30 6402 H 597.662 -1.55805 0.124357 0
M  V30 6403 H 598.397 -2.28176 -2.30448 0
M  V30 6404 H 598.182 -3.71404 -1.25704 0
M  V30 6405 H 599.672 -3.53068 -2.23008 0
M  V30 6406 N 600.109 -0.101901 -1.5727 0
M  V30 6407 C 601.019 0.868647 -2.17926 0
M  V30 6408 C 602.035 1.30527 -1.1506 0
M  V30 6409 O 603.211 1.37178 -1.47459 0
M  V30 6410 C 600.276 2.10727 -2.75309 0
M  V30 6411 C 599.337 1.7242 -3.93154 0
M  V30 6412 C 598.57 2.90377 -4.47791 0
M  V30 6413 O 598.793 4.05305 -4.01353 0
M  V30 6414 O 597.727 2.6845 -5.38719 0
M  V30 6415 H 601.553 0.382544 -3.01281 0
M  V30 6416 H 599.138 0.122812 -1.48894 0
M  V30 6417 H 601.02 2.83303 -3.11958 0
M  V30 6418 H 599.695 2.58376 -1.94996 0
M  V30 6419 H 598.602 0.970039 -3.61305 0
M  V30 6420 H 599.935 1.29528 -4.74851 0
M  V30 6421 N 601.587 1.56661 0.17182 0
M  V30 6422 C 602.998 1.71652 0.734329 0
M  V30 6423 C 603.349 0.712335 1.82812 0
M  V30 6424 O 602.474 -0.126401 2.16031 0
M  V30 6425 C 603.069 3.11226 1.3388 0
M  V30 6426 C 601.628 3.27904 1.84813 0
M  V30 6427 C 600.775 2.67603 0.726917 0
M  V30 6428 H 603.726 1.5861 -0.0535665 0
M  V30 6429 H 603.747 3.09849 2.20849 0
M  V30 6430 H 603.259 3.8429 0.54249 0
M  V30 6431 H 601.36 2.59796 2.6709 0
M  V30 6432 H 601.473 4.35637 1.99392 0
M  V30 6433 H 599.837 2.274 1.14723 0
M  V30 6434 H 600.62 3.43252 -0.0575334 0
M  V30 6435 N 603.065 -0.440357 1.51323 0
M  V30 6436 C 604.293 -1.21255 1.67645 0
M  V30 6437 C 604.708 -1.85088 0.37252 0
M  V30 6438 O 604.065 -1.70582 -0.648683 0
M  V30 6439 C 604.116 -2.29881 2.78993 0
M  V30 6440 O 603.837 -1.68659 4.04334 0
M  V30 6441 C 605.338 -3.20214 3.06558 0
M  V30 6442 H 602.558 -0.36558 0.562666 0
M  V30 6443 H 605.102 -0.52214 1.97722 0
M  V30 6444 H 603.257 -2.94643 2.51524 0
M  V30 6445 H 603.671 -2.40426 4.6615 0
M  V30 6446 H 605.145 -3.92575 3.88058 0
M  V30 6447 H 605.622 -3.80794 2.18844 0
M  V30 6448 H 606.228 -2.61156 3.35675 0
M  V30 6449 N 604.543 -1.41418 -0.695603 0
M  V30 6450 C 605.473 -1.46035 -1.82197 0
M  V30 6451 C 606.454 -0.319025 -1.67082 0
M  V30 6452 O 607.639 -0.530462 -1.86815 0
M  V30 6453 C 604.769 -1.34179 -3.20333 0
M  V30 6454 C 603.723 -2.46123 -3.50154 0
M  V30 6455 C 603.049 -2.19332 -4.87645 0
M  V30 6456 C 604.349 -3.88463 -3.49133 0
M  V30 6457 H 606.043 -2.40303 -1.78591 0
M  V30 6458 H 603.589 -1.15663 -0.857797 0
M  V30 6459 H 605.542 -1.36021 -3.98844 0
M  V30 6460 H 604.266 -0.363952 -3.24566 0
M  V30 6461 H 602.925 -2.43563 -2.73994 0
M  V30 6462 H 602.573 -1.19891 -4.88503 0
M  V30 6463 H 602.273 -2.94344 -5.08562 0
M  V30 6464 H 603.797 -2.22889 -5.68465 0
M  V30 6465 H 605.211 -3.92738 -4.17648 0
M  V30 6466 H 603.608 -4.63158 -3.81582 0
M  V30 6467 H 604.678 -4.16617 -2.48109 0
M  V30 6468 N 606.021 0.929856 -1.27246 0
M  V30 6469 C 607.267 1.6798 -1.13625 0
M  V30 6470 C 607.6 1.91586 0.317589 0
M  V30 6471 O 606.875 1.50467 1.23247 0
M  V30 6472 C 607.158 3.04766 -1.91806 0
M  V30 6473 C 607.011 2.88415 -3.45162 0
M  V30 6474 C 608.33 4.05063 -1.72082 0
M  V30 6475 H 605.449 0.609632 -0.414147 0
M  V30 6476 H 608.091 1.0792 -1.56376 0
M  V30 6477 H 606.241 3.56034 -1.55474 0
M  V30 6478 H 607.913 2.44282 -3.91311 0
M  V30 6479 H 606.156 2.23802 -3.71611 0
M  V30 6480 H 606.827 3.85482 -3.95105 0
M  V30 6481 H 609.303 3.62798 -2.03757 0
M  V30 6482 H 608.179 4.98765 -2.29182 0
M  V30 6483 H 608.44 4.37021 -0.668206 0
M  V30 6484 N 607.499 1.09233 1.13605 0
M  V30 6485 C 608.447 0.724572 2.21027 0
M  V30 6486 C 609.441 -0.273595 1.67176 0
M  V30 6487 O 610.647 -0.135266 1.79491 0
M  V30 6488 H 607.022 0.216319 0.720215 0
M  V30 6489 H 608.993 1.63975 2.49309 0
M  V30 6490 C 607.742 0.159126 3.47336 0
M  V30 6491 H 607.065 0.918387 3.89109 0
M  V30 6492 H 608.505 -0.0602851 4.23957 0
M  V30 6493 C 606.964 -1.10514 3.18258 0
M  V30 6494 O 607.494 -2.18869 3.36837 0
M  V30 6495 N 605.7 -1.01886 2.72154 0
M  V30 6496 H 605.247 -0.137027 2.57235 0
M  V30 6497 H 605.205 -1.8655 2.53074 0
M  V30 6498 N 608.977 -1.30795 0.87923 0
M  V30 6499 C 610.224 -1.96362 0.494786 0
M  V30 6500 C 610.552 -1.69448 -0.954868 0
M  V30 6501 O 609.807 -0.988711 -1.68888 0
M  V30 6502 C 610.106 -3.50287 0.709476 0
M  V30 6503 C 609.772 -3.9724 2.13333 0
M  V30 6504 C 608.434 -4.09772 2.52271 0
M  V30 6505 C 610.786 -4.21807 3.06151 0
M  V30 6506 C 608.114 -4.44227 3.83248 0
M  V30 6507 C 610.466 -4.5773 4.36654 0
M  V30 6508 C 609.13 -4.68469 4.75492 0
M  V30 6509 H 608.4 -0.71854 0.181055 0
M  V30 6510 H 611.047 -1.55764 1.11399 0
M  V30 6511 H 609.352 -3.91799 0.0072 0
M  V30 6512 H 611.049 -3.99082 0.391703 0
M  V30 6513 H 607.639 -3.87988 1.82107 0
M  V30 6514 H 611.823 -4.11611 2.77291 0
M  V30 6515 H 607.079 -4.50741 4.13089 0
M  V30 6516 H 611.253 -4.7569 5.08617 0
M  V30 6517 H 608.88 -4.94923 5.77022 0
M  V30 6518 N 610.455 -0.639598 -1.44038 0
M  V30 6519 C 611.405 0.0823038 -2.27851 0
M  V30 6520 C 612.389 0.807991 -1.39141 0
M  V30 6521 O 613.581 0.692702 -1.62882 0
M  V30 6522 C 610.71 1.05742 -3.26609 0
M  V30 6523 C 609.796 0.330911 -4.22807 0
M  V30 6524 N 610.187 -0.645126 -5.01669 0
M  V30 6525 C 608.485 0.574214 -4.42288 0
M  V30 6526 C 609.186 -1.07513 -5.71678 0
M  V30 6527 N 608.162 -0.412164 -5.42035 0
M  V30 6528 H 611.964 -0.666861 -2.86234 0
M  V30 6529 H 609.478 -0.465777 -1.55577 0
M  V30 6530 H 611.475 1.58927 -3.85419 0
M  V30 6531 H 610.135 1.80679 -2.69787 0
M  V30 6532 H 611.146 -1.02329 -5.0769 0
M  V30 6533 H 607.823 1.30581 -3.96554 0
M  V30 6534 H 609.213 -1.88196 -6.45005 0
M  V30 6535 N 611.933 1.52934 -0.380664 0
M  V30 6536 C 612.863 2.29118 0.450268 0
M  V30 6537 C 613.844 1.32153 1.07096 0
M  V30 6538 O 615.029 1.61038 1.08537 0
M  V30 6539 C 612.159 3.09161 1.58231 0
M  V30 6540 C 611.113 4.13938 1.0881 0
M  V30 6541 C 610.439 4.82153 2.31155 0
M  V30 6542 C 611.739 5.22048 0.162146 0
M  V30 6543 H 613.433 2.98826 -0.185361 0
M  V30 6544 H 610.979 1.43715 -0.0905886 0
M  V30 6545 H 612.932 3.61211 2.17036 0
M  V30 6546 H 611.656 2.3717 2.2454 0
M  V30 6547 H 610.315 3.62855 0.522633 0
M  V30 6548 H 609.963 4.06719 2.95953 0
M  V30 6549 H 609.663 5.52966 1.98752 0
M  V30 6550 H 611.187 5.37004 2.90618 0
M  V30 6551 H 612.601 5.6951 0.658126 0
M  V30 6552 H 610.998 6.00057 -0.0717122 0
M  V30 6553 H 612.068 4.78398 -0.791438 0
M  V30 6554 N 613.412 0.11024 1.57214 0
M  V30 6555 C 614.359 -0.843195 2.14846 0
M  V30 6556 C 615.329 -1.26954 1.07107 0
M  V30 6557 O 616.514 -1.34861 1.34971 0
M  V30 6558 C 613.654 -2.09123 2.74521 0
M  V30 6559 C 612.767 -1.71404 3.96541 0
M  V30 6560 C 611.902 -2.91107 4.44331 0
M  V30 6561 C 610.941 -2.49586 5.58903 0
M  V30 6562 N 610.078 -3.62175 6.01477 0
M  V30 6563 H 614.918 -0.344886 2.95998 0
M  V30 6564 H 612.455 -0.15855 1.46243 0
M  V30 6565 H 614.413 -2.82234 3.07246 0
M  V30 6566 H 613.043 -2.56427 1.96074 0
M  V30 6567 H 612.095 -0.88201 3.70033 0
M  V30 6568 H 613.407 -1.36884 4.7965 0
M  V30 6569 H 612.561 -3.72454 4.78919 0
M  V30 6570 H 611.3 -3.28848 3.60153 0
M  V30 6571 H 610.305 -1.6667 5.23929 0
M  V30 6572 H 611.53 -2.12973 6.4484 0
M  V30 6573 H 609.476 -3.99605 5.20242 0
M  V30 6574 H 609.393 -3.3155 6.79419 0
M  V30 6575 H 610.661 -4.43987 6.407 0
M  V30 6576 N 614.89 -1.56749 -0.16351 0
M  V30 6577 C 616.306 -1.51043 -0.515567 0
M  V30 6578 C 616.506 -0.815855 -1.84245 0
M  V30 6579 O 615.562 -0.379477 -2.49632 0
M  V30 6580 C 616.875 -2.95791 -0.541114 0
M  V30 6581 C 618.423 -3.0664 -0.627776 0
M  V30 6582 C 618.898 -4.52861 -0.684141 0
M  V30 6583 N 620.389 -4.5714 -0.746818 0
M  V30 6584 C 621.124 -5.67634 -0.811137 0
M  V30 6585 N 620.62 -6.8774 -0.835811 0
M  V30 6586 N 622.413 -5.55624 -0.850756 0
M  V30 6587 H 614.564 -2.00307 0.70645 0
M  V30 6588 H 616.827 -0.912876 0.255659 0
M  V30 6589 H 616.533 -3.49797 0.365329 0
M  V30 6590 H 616.407 -3.50858 -1.38487 0
M  V30 6591 H 618.794 -2.52663 -1.52464 0
M  V30 6592 H 618.875 -2.54645 0.242805 0
M  V30 6593 H 618.519 -5.07472 0.2085 0
M  V30 6594 H 618.449 -5.02621 -1.57098 0
M  V30 6595 H 620.94 -3.70669 -0.735717 0
M  V30 6596 H 621.253 -7.67701 -0.886279 0
M  V30 6597 H 619.598 -6.90334 -0.803958 0
M  V30 6598 H 622.789 -4.60709 -0.828535 0
M  V30 6599 H 622.962 -6.41756 -0.897418 0
M  V30 6600 N 616.368 0.432326 -1.51554 0
M  V30 6601 C 617.593 1.20824 -1.68571 0
M  V30 6602 C 618.018 1.84126 -0.384596 0
M  V30 6603 O 617.376 1.69025 0.655751 0
M  V30 6604 C 617.424 2.26429 -2.80646 0
M  V30 6605 O 616.528 3.32032 -2.44598 0
M  V30 6606 H 615.869 0.353765 -0.561913 0
M  V30 6607 H 618.399 0.509916 -1.98144 0
M  V30 6608 H 618.409 2.71133 -3.04878 0
M  V30 6609 H 617.084 1.79733 -3.75058 0
M  V30 6610 H 615.661 2.92769 -2.30956 0
M  V30 6611 N 617.846 1.41785 0.688094 0
M  V30 6612 C 619.095 1.4084 1.44385 0
M  V30 6613 C 619.408 0.0234166 1.95586 0
M  V30 6614 O 620.614 -0.108647 2.71283 0
M  V30 6615 C 619.07 2.47675 2.61123 0
M  V30 6616 C 618.678 3.92116 2.16677 0
M  V30 6617 C 620.422 2.55877 3.38714 0
M  V30 6618 C 618.329 4.90487 3.30419 0
M  V30 6619 H 617.259 0.523787 0.542368 0
M  V30 6620 H 619.91 1.6764 0.74627 0
M  V30 6621 H 618.292 2.14018 3.33185 0
M  V30 6622 H 619.466 4.35059 1.51856 0
M  V30 6623 H 617.781 3.87642 1.5206 0
M  V30 6624 H 620.378 3.26553 4.234 0
M  V30 6625 H 620.721 1.59801 3.84408 0
M  V30 6626 H 621.254 2.88662 2.73714 0
M  V30 6627 H 617.993 5.87994 2.89729 0
M  V30 6628 H 617.513 4.52187 3.94065 0
M  V30 6629 H 619.192 5.11591 3.96085 0
M  V30 6630 N 619.324 -0.923095 1.27737 0
M  V30 6631 C 620.735 -1.48626 1.12993 0
M  V30 6632 C 621.086 -1.94142 -0.283439 0
M  V30 6633 O 620.211 -1.81605 -1.17681 0
M  V30 6634 C 620.806 -2.70117 2.04505 0
M  V30 6635 C 619.365 -3.22642 1.93853 0
M  V30 6636 C 618.512 -1.95368 1.96791 0
M  V30 6637 H 621.463 -0.736737 1.40563 0
M  V30 6638 H 621.484 -3.4506 1.60356 0
M  V30 6639 H 620.996 -2.36959 3.07363 0
M  V30 6640 H 619.097 -3.60549 0.939968 0
M  V30 6641 H 619.21 -3.88525 2.80331 0
M  V30 6642 H 617.574 -2.12061 1.41076 0
M  V30 6643 H 618.357 -1.64517 3.01312 0
M  V30 6644 N 620.802 -1.09834 -1.13024 0
M  V30 6645 C 621.734 -0.699379 -2.18269 0
M  V30 6646 C 622.747 0.260841 -1.60697 0
M  V30 6647 O 623.936 0.0462538 -1.7844 0
M  V30 6648 C 621.036 -0.0104537 -3.38898 0
M  V30 6649 C 620.209 -0.993275 -4.25973 0
M  V30 6650 C 619.268 -0.336982 -5.2512 0
M  V30 6651 O 618.294 -0.985892 -5.60597 0
M  V30 6652 N 619.496 0.90716 -5.73368 0
M  V30 6653 H 622.261 -1.60486 -2.5311 0
M  V30 6654 H 619.822 -0.986337 -1.28386 0
M  V30 6655 H 621.814 0.43991 -4.02302 0
M  V30 6656 H 620.384 0.797335 -3.0226 0
M  V30 6657 H 619.604 -1.62208 -3.5928 0
M  V30 6658 H 620.892 -1.65876 -4.81002 0
M  V30 6659 H 620.29 1.45384 -5.46699 0
M  V30 6660 H 618.847 1.30077 -6.38689 0
M  V30 6661 N 622.28 1.30327 -0.886154 0
M  V30 6662 C 623.526 1.96388 -0.505941 0
M  V30 6663 C 623.859 1.69784 0.942712 0
M  V30 6664 O 623.134 1.00322 1.6663 0
M  V30 6665 C 623.417 3.51488 -0.782826 0
M  V30 6666 C 623.27 3.87603 -2.28219 0
M  V30 6667 C 624.589 4.39331 -0.260128 0
M  V30 6668 H 621.708 0.713327 -0.185292 0
M  V30 6669 H 624.35 1.54178 -1.11036 0
M  V30 6670 H 622.5 3.87572 -0.268399 0
M  V30 6671 H 624.172 3.61537 -2.86512 0
M  V30 6672 H 622.415 3.3563 -2.74837 0
M  V30 6673 H 623.086 4.95806 -2.42653 0
M  V30 6674 H 625.562 4.10162 -0.700444 0
M  V30 6675 H 624.438 5.46769 -0.483179 0
M  V30 6676 H 624.699 4.34072 0.838674 0
M  V30 6677 N 623.758 0.647228 1.43697 0
M  V30 6678 C 624.983 0.164083 2.0675 0
M  V30 6679 C 625.408 -1.15892 1.48158 0
M  V30 6680 O 624.766 -1.71459 0.589194 0
M  V30 6681 C 624.814 0.0800368 3.60511 0
M  V30 6682 O 623.918 -0.959453 4.01084 0
M  V30 6683 H 623.259 0.0921288 0.657578 0
M  V30 6684 H 625.789 0.88846 1.84303 0
M  V30 6685 H 625.799 -0.105263 4.07864 0
M  V30 6686 H 624.474 1.04586 4.02535 0
M  V30 6687 H 623.051 -0.747425 3.65333 0
M  V30 6688 N 625.236 -1.5273 0.388769 0
M  V30 6689 C 626.647 -1.86505 -0.0853788 0
M  V30 6690 C 626.998 -1.30847 -1.46197 0
M  V30 6691 O 626.123 -0.639609 -2.06732 0
M  V30 6692 C 626.718 -3.38414 -0.161703 0
M  V30 6693 C 625.277 -3.71902 -0.580144 0
M  V30 6694 C 624.424 -2.76095 0.258218 0
M  V30 6695 H 627.375 -1.46647 0.606665 0
M  V30 6696 H 627.396 -3.67638 -0.980936 0
M  V30 6697 H 626.908 -3.78893 0.840333 0
M  V30 6698 H 625.009 -3.36992 -1.58957 0
M  V30 6699 H 625.122 -4.77902 -0.338663 0
M  V30 6700 H 623.486 -2.53195 -0.276432 0
M  V30 6701 H 624.269 -3.19411 1.25822 0
M  V30 6702 N 626.714 -0.118576 -1.57153 0
M  V30 6703 C 627.96 0.540326 -1.95469 0
M  V30 6704 C 628.293 1.66356 -1.00196 0
M  V30 6705 O 627.568 1.94461 -0.039104 0
M  V30 6706 C 627.851 1.07342 -3.43729 0
M  V30 6707 C 627.704 -0.0463732 -4.49776 0
M  V30 6708 C 629.023 1.96442 -3.93826 0
M  V30 6709 H 626.142 0.19494 -0.710751 0
M  V30 6710 H 628.784 -0.19405 -1.89006 0
M  V30 6711 H 626.934 1.69925 -3.49368 0
M  V30 6712 H 628.606 -0.681648 -4.56236 0
M  V30 6713 H 626.849 -0.709574 -4.27957 0
M  V30 6714 H 627.52 0.367856 -5.50773 0
M  V30 6715 H 629.996 1.43731 -3.90488 0
M  V30 6716 H 628.872 2.3066 -4.98084 0
M  V30 6717 H 629.133 2.89077 -3.34495 0
M  V30 6718 N 628.193 1.56834 0.155195 0
M  V30 6719 C 629.609 1.51315 0.50755 0
M  V30 6720 C 629.809 0.825614 1.83809 0
M  V30 6721 O 628.865 0.39271 2.49427 0
M  V30 6722 C 630.178 2.96074 0.52542 0
M  V30 6723 C 631.726 3.06968 0.611505 0
M  V30 6724 C 632.201 4.53218 0.660115 0
M  V30 6725 N 633.692 4.5753 0.722564 0
M  V30 6726 C 634.427 5.68056 0.781023 0
M  V30 6727 N 633.923 6.88173 0.799327 0
M  V30 6728 N 635.716 5.56068 0.821278 0
M  V30 6729 H 627.867 1.9993 -0.717063 0
M  V30 6730 H 630.13 0.911507 -0.260496 0
M  V30 6731 H 629.836 3.49599 -0.383875 0
M  V30 6732 H 629.71 3.51587 1.36624 0
M  V30 6733 H 632.097 2.53468 1.51122 0
M  V30 6734 H 632.178 2.54513 -0.256306 0
M  V30 6735 H 631.822 5.07354 -0.23541 0
M  V30 6736 H 631.752 5.03447 1.5443 0
M  V30 6737 H 634.243 3.71054 0.716049 0
M  V30 6738 H 634.556 7.6816 0.845553 0
M  V30 6739 H 632.901 6.90751 0.767337 0
M  V30 6740 H 636.092 4.61142 0.804091 0
M  V30 6741 H 636.265 6.42223 0.863372 0
M  V30 6742 N 629.671 -0.424282 1.51781 0
M  V30 6743 C 631.087 -0.761768 1.40247 0
M  V30 6744 C 631.287 -1.95324 0.495041 0
M  V30 6745 O 630.343 -2.5246 -0.0448949 0
M  V30 6746 C 631.656 -1.0299 2.82513 0
M  V30 6747 C 633.204 -1.13354 2.91753 0
M  V30 6748 C 633.679 -1.43453 4.34954 0
M  V30 6749 N 635.17 -1.5035 4.3812 0
M  V30 6750 C 635.905 -1.75236 5.45967 0
M  V30 6751 N 635.401 -1.97827 6.63955 0
M  V30 6752 N 637.194 -1.77126 5.33463 0
M  V30 6753 H 629.345 0.360228 2.09323 0
M  V30 6754 H 631.608 0.0988128 0.942836 0
M  V30 6755 H 631.314 -0.226961 3.50967 0
M  V30 6756 H 631.188 -1.95411 3.22637 0
M  V30 6757 H 633.575 -1.92709 2.23489 0
M  V30 6758 H 633.656 -0.188041 2.55108 0
M  V30 6759 H 633.3 -0.646209 5.03772 0
M  V30 6760 H 633.23 -2.3923 4.69123 0
M  V30 6761 H 635.721 -1.34742 3.53062 0
M  V30 6762 H 636.034 -2.16223 7.41935 0
M  V30 6763 H 634.379 -1.95123 6.67047 0
M  V30 6764 H 637.57 -1.59005 4.40267 0
M  V30 6765 H 637.743 -1.96182 6.17589 0
M  V30 6766 N 631.149 -1.42148 -0.680565 0
M  V30 6767 C 632.112 -1.4488 -1.77602 0
M  V30 6768 C 633.112 -0.337209 -1.57224 0
M  V30 6769 O 634.302 -0.597778 -1.63622 0
M  V30 6770 C 631.434 -1.27483 -3.16166 0
M  V30 6771 H 632.627 -2.42412 -1.76568 0
M  V30 6772 H 630.18 -1.28511 -0.889645 0
M  V30 6773 H 630.915 -0.30851 -3.22829 0
M  V30 6774 H 630.7 -2.08037 -3.3236 0
M  V30 6775 H 632.19 -1.32265 -3.96101 0
M  V30 6776 N 632.627 0.916307 -1.28225 0
M  V30 6777 C 634.038 1.48024 -1.13779 0
M  V30 6778 C 634.389 1.94289 0.273139 0
M  V30 6779 O 633.514 1.82226 1.16716 0
M  V30 6780 C 634.109 2.69029 -2.05935 0
M  V30 6781 C 632.668 3.2161 -1.95561 0
M  V30 6782 C 631.815 1.94321 -1.97825 0
M  V30 6783 H 634.766 0.729272 -1.40951 0
M  V30 6784 H 634.787 3.44204 -1.62184 0
M  V30 6785 H 634.299 2.35325 -3.08616 0
M  V30 6786 H 632.4 3.60045 -0.959076 0
M  V30 6787 H 632.513 3.87032 -2.82388 0
M  V30 6788 H 630.877 2.1131 -1.42198 0
M  V30 6789 H 631.66 1.62917 -3.0218 0
M  V30 6790 N 634.105 1.10431 1.1244 0
M  V30 6791 C 635.33 0.869089 1.88313 0
M  V30 6792 C 635.755 -0.574912 1.79099 0
M  V30 6793 O 635.113 -1.40496 1.14589 0
M  V30 6794 C 635.161 1.32208 3.3549 0
M  V30 6795 O 634.265 0.487092 4.09513 0
M  V30 6796 H 633.606 0.313894 0.585121 0
M  V30 6797 H 636.136 1.47111 1.42195 0
M  V30 6798 H 636.146 1.31201 3.86329 0
M  V30 6799 H 634.821 2.37364 3.41513 0
M  V30 6800 H 633.398 0.562372 3.68635 0
M  V30 6801 N 635.583 -1.29855 0.893053 0
M  V30 6802 C 636.999 -1.48366 0.588199 0
M  V30 6803 C 637.199 -1.81654 -0.872018 0
M  V30 6804 O 636.255 -1.909 -1.65268 0
M  V30 6805 C 637.568 -2.60136 1.5083 0
M  V30 6806 C 639.116 -2.74014 1.51279 0
M  V30 6807 C 639.591 -3.88905 2.41902 0
M  V30 6808 N 641.082 -3.96228 2.39911 0
M  V30 6809 C 641.817 -4.84458 3.06738 0
M  V30 6810 N 641.313 -5.77426 3.8282 0
M  V30 6811 N 643.106 -4.77894 2.95929 0
M  V30 6812 H 635.257 -1.06522 1.83757 0
M  V30 6813 H 637.52 -0.528495 0.787018 0
M  V30 6814 H 637.226 -2.42383 2.54839 0
M  V30 6815 H 637.1 -3.56793 1.22388 0
M  V30 6816 H 639.487 -2.91167 0.480179 0
M  V30 6817 H 639.568 -1.77952 1.83757 0
M  V30 6818 H 639.212 -3.72508 3.45253 0
M  V30 6819 H 639.142 -4.84322 2.06737 0
M  V30 6820 H 641.633 -3.29728 1.84629 0
M  V30 6821 H 641.946 -6.41529 4.30883 0
M  V30 6822 H 640.291 -5.77332 3.86927 0
M  V30 6823 H 643.482 -4.04248 2.36012 0
M  V30 6824 H 643.655 -5.46444 3.48286 0
M  V30 6825 N 637.061 -0.65484 -1.43351 0
M  V30 6826 C 638.477 -0.32255 -1.56307 0
M  V30 6827 C 638.677 1.17324 -1.63821 0
M  V30 6828 O 637.733 1.95813 -1.59417 0
M  V30 6829 C 639.046 -1.03533 -2.82314 0
M  V30 6830 C 640.594 -1.01574 -2.9606 0
M  V30 6831 C 641.069 -1.70945 -4.24902 0
M  V30 6832 N 642.56 -1.67716 -4.3177 0
M  V30 6833 C 643.295 -2.18265 -5.30234 0
M  V30 6834 N 642.791 -2.7711 -6.34966 0
M  V30 6835 N 644.584 -2.08756 -5.21898 0
M  V30 6836 H 636.735 -1.62549 -1.36717 0
M  V30 6837 H 638.998 -0.683676 -0.656727 0
M  V30 6838 H 638.704 -2.09045 -2.8283 0
M  V30 6839 H 638.578 -0.587913 -3.7259 0
M  V30 6840 H 640.965 0.0309834 -2.95084 0
M  V30 6841 H 641.046 -1.50186 -2.07069 0
M  V30 6842 H 640.69 -2.75574 -4.26639 0
M  V30 6843 H 640.62 -1.19797 -5.12793 0
M  V30 6844 H 643.111 -1.24777 -3.56706 0
M  V30 6845 H 643.424 -3.13353 -7.06421 0
M  V30 6846 H 641.769 -2.81171 -6.35585 0
M  V30 6847 H 644.96 -1.62488 -4.38994 0
M  V30 6848 H 645.133 -2.48459 -5.98475 0
M  V30 6849 N 638.539 1.52521 -0.396863 0
M  V30 6850 C 639.489 2.2348 0.451722 0
M  V30 6851 C 640.473 1.2415 1.0235 0
M  V30 6852 O 641.665 1.4945 0.948348 0
M  V30 6853 C 638.794 3.05067 1.57445 0
M  V30 6854 C 637.88 4.11799 1.01404 0
M  V30 6855 N 638.271 5.05482 0.179234 0
M  V30 6856 C 636.569 4.27064 1.28578 0
M  V30 6857 C 637.27 5.81552 -0.131202 0
M  V30 6858 N 636.246 5.41523 0.474735 0
M  V30 6859 H 640.048 2.93269 -0.192534 0
M  V30 6860 H 637.562 1.61081 -0.206591 0
M  V30 6861 H 639.559 3.54446 2.19485 0
M  V30 6862 H 638.219 2.36816 2.22145 0
M  V30 6863 H 639.23 5.17573 -0.18411 0
M  V30 6864 H 635.907 3.70042 1.93327 0
M  V30 6865 H 637.297 6.67023 -0.808061 0
M  V30 6866 N 640.017 0.126909 1.57088 0
M  V30 6867 C 641.265 -0.528123 1.95078 0
M  V30 6868 C 641.586 -1.66708 1.0116 0
M  V30 6869 O 640.856 -1.95777 0.0693527 0
M  V30 6870 H 639.436 -0.198087 0.720257 0
M  V30 6871 H 642.098 0.197703 1.93895 0
M  V30 6872 H 641.194 -0.917507 2.98309 0
M  V30 6873 N 641.495 -1.56914 -0.146875 0
M  V30 6874 C 642.741 -1.83628 -0.860741 0
M  V30 6875 C 643.074 -0.708528 -1.80813 0
M  V30 6876 O 642.349 0.287838 -1.92358 0
M  V30 6877 C 642.632 -3.20836 -1.63511 0
M  V30 6878 C 642.485 -4.44174 -0.709199 0
M  V30 6879 C 643.804 -3.55268 -2.59756 0
M  V30 6880 H 640.923 -0.667949 -0.311468 0
M  V30 6881 H 643.565 -1.89582 -0.125936 0
M  V30 6882 H 641.715 -3.15891 -2.26153 0
M  V30 6883 H 643.387 -4.61205 -0.0937781 0
M  V30 6884 H 641.63 -4.33796 -0.0187856 0
M  V30 6885 H 642.301 -5.36785 -1.28707 0
M  V30 6886 H 644.777 -3.60824 -2.07232 0
M  V30 6887 H 643.653 -4.52303 -3.10987 0
M  V30 6888 H 643.914 -2.81231 -3.41118 0
M  V30 6889 N 642.974 0.416227 -1.52004 0
M  V30 6890 C 644.39 0.754319 -1.40649 0
M  V30 6891 C 644.59 1.95059 -0.505392 0
M  V30 6892 O 643.646 2.5248 0.0315057 0
M  V30 6893 C 644.959 1.0149 -2.83055 0
M  V30 6894 C 646.507 1.11805 -2.9235 0
M  V30 6895 C 646.982 1.41144 -4.35709 0
M  V30 6896 N 648.473 1.48024 -4.38911 0
M  V30 6897 C 649.208 1.72338 -5.46889 0
M  V30 6898 N 648.704 1.94303 -6.64995 0
M  V30 6899 N 650.497 1.74294 -5.34395 0
M  V30 6900 H 642.648 -0.371324 -2.09129 0
M  V30 6901 H 644.911 -0.103811 -0.942299 0
M  V30 6902 H 644.617 0.208345 -3.51082 0
M  V30 6903 H 644.491 1.93697 -3.23668 0
M  V30 6904 H 646.878 1.91521 -2.24508 0
M  V30 6905 H 646.959 0.17451 -2.55204 0
M  V30 6906 H 646.603 0.619484 -5.04108 0
M  V30 6907 H 646.533 2.36739 -4.70385 0
M  V30 6908 H 649.024 1.32868 -3.53772 0
M  V30 6909 H 649.337 2.12286 -7.43071 0
M  V30 6910 H 647.682 1.91582 -6.68073 0
M  V30 6911 H 650.873 1.56667 -4.41104 0
M  V30 6912 H 651.046 1.92904 -6.18621 0
M  V30 6913 N 644.452 1.42507 0.673017 0
M  V30 6914 C 645.415 1.4582 1.76831 0
M  V30 6915 C 646.415 0.345542 1.57043 0
M  V30 6916 O 647.605 0.606447 1.63303 0
M  V30 6917 C 644.737 1.29158 3.15485 0
M  V30 6918 H 645.93 2.43345 1.7528 0
M  V30 6919 H 643.483 1.28981 0.882817 0
M  V30 6920 H 644.218 0.325626 3.22661 0
M  V30 6921 H 644.003 2.09797 3.31252 0
M  V30 6922 H 645.493 1.34363 3.95394 0
M  V30 6923 N 645.93 -0.909495 1.28709 0
M  V30 6924 C 646.877 -2.01245 1.13 0
M  V30 6925 C 647.847 -1.6608 0.0259684 0
M  V30 6926 O 649.032 -1.89835 0.191687 0
M  V30 6927 C 646.172 -3.35644 0.802315 0
M  V30 6928 C 645.285 -3.83653 1.98582 0
M  V30 6929 C 644.42 -5.06582 1.59837 0
M  V30 6930 C 643.459 -5.46934 2.74827 0
M  V30 6931 N 642.596 -6.61053 2.36546 0
M  V30 6932 H 647.436 -2.14013 2.0737 0
M  V30 6933 H 644.973 -1.0482 1.03205 0
M  V30 6934 H 646.931 -4.12963 0.593057 0
M  V30 6935 H 645.561 -3.22631 -0.104457 0
M  V30 6936 H 644.613 -3.02454 2.30708 0
M  V30 6937 H 645.925 -4.09515 2.84779 0
M  V30 6938 H 645.079 -5.91457 1.35143 0
M  V30 6939 H 643.818 -4.82537 0.707753 0
M  V30 6940 H 642.823 -4.60599 3.00215 0
M  V30 6941 H 644.048 -5.72965 3.64538 0
M  V30 6942 H 641.994 -6.3863 1.49959 0
M  V30 6943 H 641.911 -6.86662 3.16277 0
M  V30 6944 H 643.179 -7.49221 2.15146 0
M  V30 6945 N 647.408 -1.11026 -1.11852 0
M  V30 6946 C 648.654 -0.857729 -1.83768 0
M  V30 6947 C 648.987 0.615143 -1.842 0
M  V30 6948 O 648.262 1.45391 -1.29196 0
M  V30 6949 C 648.545 -1.41453 -3.31154 0
M  V30 6950 C 648.398 -2.95471 -3.39142 0
M  V30 6951 C 649.717 -1.0619 -4.27097 0
M  V30 6952 H 646.836 -0.313044 -0.667212 0
M  V30 6953 H 649.478 -1.37443 -1.31185 0
M  V30 6954 H 647.628 -0.975052 -3.76065 0
M  V30 6955 H 649.3 -3.4799 -3.02821 0
M  V30 6956 H 647.543 -3.31759 -2.79497 0
M  V30 6957 H 648.214 -3.29515 -4.42859 0
M  V30 6958 H 650.69 -1.44122 -3.90344 0
M  V30 6959 H 649.566 -1.47832 -5.28618 0
M  V30 6960 H 649.827 0.0278912 -4.42091 0
M  V30 6961 N 648.886 1.2938 -0.899927 0
M  V30 6962 C 649.818 2.26737 -0.335139 0
M  V30 6963 C 650.831 1.54316 0.518681 0
M  V30 6964 O 652.02 1.75313 0.335803 0
M  V30 6965 C 649.12 3.34558 0.540774 0
M  V30 6966 C 648.293 4.36455 -0.287372 0
M  V30 6967 C 647.352 5.2361 0.52141 0
M  V30 6968 O 646.378 5.69167 -0.0611735 0
M  V30 6969 N 647.58 5.50985 1.82745 0
M  V30 6970 H 650.345 2.75838 -1.17191 0
M  V30 6971 H 647.906 1.42716 -0.764438 0
M  V30 6972 H 649.898 3.89794 1.08825 0
M  V30 6973 H 648.468 2.85272 1.27823 0
M  V30 6974 H 647.688 3.80875 -1.01626 0
M  V30 6975 H 648.976 5.01573 -0.854518 0
M  V30 6976 H 648.374 5.15781 2.32349 0
M  V30 6977 H 646.931 6.09036 2.32204 0
M  V30 6978 N 650.364 0.662433 1.43002 0
M  V30 6979 C 651.775 0.258315 1.84904 0
M  V30 6980 C 652.126 -1.19703 1.55453 0
M  V30 6981 O 651.251 -1.91484 1.00811 0
M  V30 6982 C 651.846 0.462047 3.35635 0
M  V30 6983 C 650.405 0.112165 3.76233 0
M  V30 6984 C 649.552 0.760479 2.66668 0
M  V30 6985 H 652.503 0.865467 1.33024 0
M  V30 6986 H 652.524 -0.289646 3.79396 0
M  V30 6987 H 652.036 1.52135 3.57039 0
M  V30 6988 H 650.137 -0.944179 3.60439 0
M  V30 6989 H 650.25 0.544058 4.76001 0
M  V30 6990 H 648.614 0.192887 2.53969 0
M  V30 6991 H 649.397 1.82299 2.90898 0
M  V30 6992 N 651.842 -1.52309 0.404946 0
M  V30 6993 C 652.774 -2.24579 -0.45791 0
M  V30 6994 C 653.787 -1.2739 -1.01369 0
M  V30 6995 O 654.976 -1.53363 -0.91335 0
M  V30 6996 C 652.076 -2.9608 -1.64893 0
M  V30 6997 C 651.249 -4.20106 -1.21777 0
M  V30 6998 C 650.308 -4.74468 -2.27523 0
M  V30 6999 O 649.334 -5.37157 -1.88285 0
M  V30 7000 N 650.536 -4.55678 -3.59635 0
M  V30 7001 H 653.301 -2.99265 0.161341 0
M  V30 7002 H 650.862 -1.60228 0.232107 0
M  V30 7003 H 652.854 -3.29344 -2.35191 0
M  V30 7004 H 651.424 -2.24606 -2.17419 0
M  V30 7005 H 650.644 -3.92704 -0.343071 0
M  V30 7006 H 651.932 -5.00658 -0.906596 0
M  V30 7007 H 651.33 -4.05673 -3.94266 0
M  V30 7008 H 649.887 -4.9339 -4.25922 0
M  V30 7009 N 653.32 -0.135238 -1.57019 0
M  V30 7010 C 654.283 0.794707 -2.14981 0
M  V30 7011 C 655.283 1.18342 -1.08866 0
M  V30 7012 O 656.473 1.10627 -1.34563 0
M  V30 7013 C 653.605 2.07685 -2.70333 0
M  V30 7014 H 654.798 0.290696 -2.98488 0
M  V30 7015 H 652.351 0.114128 -1.55883 0
M  V30 7016 H 653.086 2.6248 -1.9046 0
M  V30 7017 H 652.871 1.80745 -3.47957 0
M  V30 7018 H 654.361 2.74127 -3.1503 0
M  V30 7019 N 654.798 1.5699 0.138552 0
M  V30 7020 C 656.214 1.51844 0.491472 0
M  V30 7021 C 656.414 0.845063 1.82923 0
M  V30 7022 O 655.47 0.419143 2.48997 0
M  V30 7023 C 656.783 2.96615 0.493987 0
M  V30 7024 C 658.331 3.076 0.578913 0
M  V30 7025 C 658.806 4.53893 0.612009 0
M  V30 7026 N 660.297 4.5827 0.673997 0
M  V30 7027 C 661.032 5.68852 0.720729 0
M  V30 7028 N 660.528 6.88982 0.726292 0
M  V30 7029 N 662.321 5.56908 0.762253 0
M  V30 7030 H 654.472 1.99158 -0.738228 0
M  V30 7031 H 656.735 0.908693 -0.270149 0
M  V30 7032 H 656.441 3.49172 -0.420933 0
M  V30 7033 H 656.315 3.53017 1.32887 0
M  V30 7034 H 658.702 2.55057 1.48425 0
M  V30 7035 H 658.783 2.54227 -0.283286 0
M  V30 7036 H 658.427 5.07076 -0.289208 0
M  V30 7037 H 658.357 5.05057 1.49082 0
M  V30 7038 H 660.848 3.71793 0.676654 0
M  V30 7039 H 661.161 7.69014 0.764032 0
M  V30 7040 H 659.506 6.91526 0.69403 0
M  V30 7041 H 662.697 4.61969 0.755135 0
M  V30 7042 H 662.87 6.43102 0.795207 0
M  V30 7043 N 656.276 -0.40816 1.52223 0
M  V30 7044 C 657.223 -1.49737 1.75635 0
M  V30 7045 C 658.193 -1.5493 0.598824 0
M  V30 7046 O 659.378 -1.71487 0.83648 0
M  V30 7047 C 656.518 -2.87174 1.91376 0
M  V30 7048 C 655.631 -2.91283 3.19027 0
M  V30 7049 C 654.766 -4.20026 3.25195 0
M  V30 7050 C 653.805 -4.18113 4.47044 0
M  V30 7051 N 652.942 -5.38429 4.50598 0
M  V30 7052 H 657.782 -1.29075 2.68596 0
M  V30 7053 H 655.319 -0.626518 1.33091 0
M  V30 7054 H 657.277 -3.66959 1.98486 0
M  V30 7055 H 655.907 -3.06329 1.01795 0
M  V30 7056 H 654.959 -2.03984 3.21084 0
M  V30 7057 H 656.271 -2.85734 4.08849 0
M  V30 7058 H 655.425 -5.08204 3.31382 0
M  V30 7059 H 654.164 -4.28271 2.33313 0
M  V30 7060 H 653.169 -3.28325 4.41002 0
M  V30 7061 H 654.394 -4.11507 5.40221 0
M  V30 7062 H 652.34 -5.4734 3.616 0
M  V30 7063 H 652.257 -5.34879 5.34266 0
M  V30 7064 H 653.525 -6.28557 4.61016 0
M  V30 7065 N 657.755 -1.42862 -0.66545 0
M  V30 7066 C 658.702 -1.4707 -1.77874 0
M  V30 7067 C 659.672 -0.321654 -1.62956 0
M  V30 7068 O 660.857 -0.52707 -1.83376 0
M  V30 7069 C 657.997 -1.38788 -3.15962 0
M  V30 7070 C 657.11 -2.63801 -3.42101 0
M  V30 7071 C 656.245 -2.47594 -4.69969 0
M  V30 7072 C 655.284 -3.67936 -4.89172 0
M  V30 7073 N 654.421 -3.50614 -6.08288 0
M  V30 7074 H 659.261 -2.42204 -1.73613 0
M  V30 7075 H 656.798 -1.20239 -0.847401 0
M  V30 7076 H 658.756 -1.31982 -3.95773 0
M  V30 7077 H 657.386 -0.472431 -3.19324 0
M  V30 7078 H 656.438 -2.80935 -2.56475 0
M  V30 7079 H 657.75 -3.53228 -3.52181 0
M  V30 7080 H 656.904 -2.38427 -5.57886 0
M  V30 7081 H 655.643 -1.55672 -4.62188 0
M  V30 7082 H 654.648 -3.77525 -3.99694 0
M  V30 7083 H 655.873 -4.60851 -4.98792 0
M  V30 7084 H 653.819 -2.61417 -6.01662 0
M  V30 7085 H 653.736 -4.33634 -6.19272 0
M  V30 7086 H 655.004 -3.45276 -6.98859 0
M  V30 7087 N 659.233 0.902656 -1.29189 0
M  V30 7088 C 660.143 2.03946 -1.15944 0
M  V30 7089 C 661.159 1.738 -0.0833803 0
M  V30 7090 O 662.335 1.9923 -0.29487 0
M  V30 7091 C 659.4 3.36519 -0.834006 0
M  V30 7092 C 658.461 3.80203 -1.9936 0
M  V30 7093 C 657.694 5.06449 -1.68359 0
M  V30 7094 O 657.917 5.67202 -0.603141 0
M  V30 7095 O 656.851 5.46114 -2.53067 0
M  V30 7096 H 660.677 2.18043 -2.11403 0
M  V30 7097 H 658.262 1.02584 -1.08613 0
M  V30 7098 H 660.144 4.16089 -0.666949 0
M  V30 7099 H 658.819 3.23573 0.0908245 0
M  V30 7100 H 657.726 3.01413 -2.21588 0
M  V30 7101 H 659.059 3.97729 -2.89952 0
M  V30 7102 N 660.711 1.11618 1.11262 0
M  V30 7103 C 661.644 0.719995 2.16544 0
M  V30 7104 C 662.622 -0.28471 1.60088 0
M  V30 7105 O 663.806 -0.180693 1.87632 0
M  V30 7106 C 660.933 0.0643302 3.38639 0
M  V30 7107 C 659.979 1.03448 4.13764 0
M  V30 7108 S 660.812 2.55789 4.70459 0
M  V30 7109 C 661.968 1.91529 5.95875 0
M  V30 7110 H 662.201 1.61181 2.49816 0
M  V30 7111 H 659.734 0.934401 1.22916 0
M  V30 7112 H 661.692 -0.307609 4.09346 0
M  V30 7113 H 660.353 -0.804471 3.03623 0
M  V30 7114 H 659.546 0.523188 5.01277 0
M  V30 7115 H 659.148 1.34893 3.48826 0
M  V30 7116 H 661.44 1.25286 6.65815 0
M  V30 7117 H 662.383 2.77047 6.51652 0
M  V30 7118 H 662.791 1.37468 5.47506 0
M  V30 7119 N 662.189 -1.289 0.906776 0
M  V30 7120 C 663.099 -2.31256 0.394707 0
M  V30 7121 C 664.115 -1.66231 -0.514121 0
M  V30 7122 O 665.291 -1.97347 -0.401994 0
M  V30 7123 C 662.356 -3.44792 -0.363191 0
M  V30 7124 C 661.417 -4.25391 0.578012 0
M  V30 7125 C 660.65 -5.33506 -0.143811 0
M  V30 7126 O 660.873 -5.53786 -1.36665 0
M  V30 7127 O 659.807 -5.99673 0.5173 0
M  V30 7128 H 663.633 -2.77051 1.24405 0
M  V30 7129 H 661.218 -1.33466 0.671346 0
M  V30 7130 H 663.1 -4.139 -0.791503 0
M  V30 7131 H 661.775 -3.01093 -1.18848 0
M  V30 7132 H 660.682 -3.58899 1.05558 0
M  V30 7133 H 662.015 -4.72752 1.36992 0
M  V30 7134 N 663.667 -0.670007 -1.42649 0
M  V30 7135 C 664.6 0.0613623 -2.28117 0
M  V30 7136 C 665.578 0.813414 -1.40792 0
M  V30 7137 O 666.762 0.809529 -1.70232 0
M  V30 7138 C 663.889 1.09399 -3.20546 0
M  V30 7139 C 662.935 0.438064 -4.24244 0
M  V30 7140 S 663.768 -0.800808 -5.29478 0
M  V30 7141 C 664.924 0.23086 -6.25474 0
M  V30 7142 H 665.157 -0.663606 -2.89799 0
M  V30 7143 H 662.69 -0.45939 -1.47407 0
M  V30 7144 H 664.648 1.68469 -3.74337 0
M  V30 7145 H 663.309 1.79137 -2.58009 0
M  V30 7146 H 662.502 1.21707 -4.89084 0
M  V30 7147 H 662.104 -0.0789346 -3.73917 0
M  V30 7148 H 664.396 1.09204 -6.68641 0
M  V30 7149 H 665.339 -0.382945 -7.07064 0
M  V30 7150 H 665.747 0.574191 -5.61572 0
M  V30 7151 N 665.145 1.52092 -0.413018 0
M  V30 7152 C 666.561 1.59471 -0.0640836 0
M  V30 7153 C 666.761 1.42562 1.42402 0
M  V30 7154 O 665.817 1.25453 2.19129 0
M  V30 7155 C 667.13 2.95392 -0.562474 0
M  V30 7156 C 668.678 3.08637 -0.520788 0
M  V30 7157 C 669.153 4.47044 -0.995752 0
M  V30 7158 N 670.644 4.53296 -0.952732 0
M  V30 7159 C 671.379 5.58669 -1.29138 0
M  V30 7160 N 670.875 6.71576 -1.70168 0
M  V30 7161 N 672.668 5.48898 -1.2111 0
M  V30 7162 H 664.819 1.6133 -1.38153 0
M  V30 7163 H 667.082 0.75916 -0.567785 0
M  V30 7164 H 666.788 3.13059 -1.60271 0
M  V30 7165 H 666.662 3.77191 0.0257875 0
M  V30 7166 H 669.049 2.90652 0.510412 0
M  V30 7167 H 669.13 2.28735 -1.14515 0
M  V30 7168 H 668.774 4.65773 -2.0253 0
M  V30 7169 H 668.704 5.25448 -0.348162 0
M  V30 7170 H 671.195 3.72248 -0.651119 0
M  V30 7171 H 671.508 7.47973 -1.9431 0
M  V30 7172 H 669.853 6.72847 -1.74075 0
M  V30 7173 H 673.044 4.59573 -0.889396 0
M  V30 7174 H 673.217 6.30912 -1.47833 0
M  V30 7175 N 666.623 0.143563 1.56945 0
M  V30 7176 C 667.555 -0.828353 2.13708 0
M  V30 7177 C 668.568 -1.21313 1.08568 0
M  V30 7178 O 669.757 -1.1578 1.35857 0
M  V30 7179 C 666.857 -2.12248 2.64204 0
M  V30 7180 C 666.03 -1.90561 3.93707 0
M  V30 7181 C 665.089 -3.03931 4.29549 0
M  V30 7182 O 664.115 -2.75772 4.97934 0
M  V30 7183 N 665.317 -4.31016 3.88852 0
M  V30 7184 H 668.082 -0.343242 2.97728 0
M  V30 7185 H 665.643 -0.0401152 1.6185 0
M  V30 7186 H 667.635 -2.87132 2.85197 0
M  V30 7187 H 666.205 -2.52033 1.84928 0
M  V30 7188 H 665.425 -0.997327 3.81375 0
M  V30 7189 H 666.713 -1.73405 4.78339 0
M  V30 7190 H 666.111 -4.56762 3.33743 0
M  V30 7191 H 664.668 -5.02691 4.14903 0
M  V30 7192 N 668.101 -1.57061 -0.130224 0
M  V30 7193 C 669.031 -2.02552 -1.16168 0
M  V30 7194 C 670.012 -0.907971 -1.4384 0
M  V30 7195 O 671.197 -1.17693 -1.54473 0
M  V30 7196 C 668.327 -2.42035 -2.49071 0
M  V30 7197 C 667.281 -3.5713 -2.35886 0
M  V30 7198 C 666.607 -3.82478 -3.7365 0
M  V30 7199 C 667.907 -4.89236 -1.8288 0
M  V30 7200 H 669.601 -2.8897 -0.783359 0
M  V30 7201 H 667.147 -1.39021 -0.375376 0
M  V30 7202 H 669.1 -2.72462 -3.21469 0
M  V30 7203 H 667.824 -1.52573 -2.88771 0
M  V30 7204 H 666.483 -3.26895 -1.65938 0
M  V30 7205 H 666.131 -2.9024 -4.10816 0
M  V30 7206 H 665.831 -4.59944 -3.65685 0
M  V30 7207 H 667.355 -4.15347 -4.47571 0
M  V30 7208 H 668.769 -5.18272 -2.45085 0
M  V30 7209 H 667.166 -5.70624 -1.85763 0
M  V30 7210 H 668.236 -4.78494 -0.785571 0
M  V30 7211 N 669.579 0.400081 -1.52437 0
M  V30 7212 C 670.511 1.50729 -1.72666 0
M  V30 7213 C 671.524 1.51058 -0.607075 0
M  V30 7214 O 672.713 1.5516 -0.88248 0
M  V30 7215 C 669.813 2.89604 -1.76019 0
M  V30 7216 C 668.986 3.13365 -3.05157 0
M  V30 7217 C 668.045 4.32163 -3.00203 0
M  V30 7218 O 667.071 4.29004 -3.74092 0
M  V30 7219 N 668.273 5.3776 -2.18619 0
M  V30 7220 H 671.038 1.33767 -2.68191 0
M  V30 7221 H 668.599 0.58948 -1.50787 0
M  V30 7222 H 670.591 3.67159 -1.70225 0
M  V30 7223 H 669.161 2.99979 -0.879284 0
M  V30 7224 H 668.381 2.23774 -3.24529 0
M  V30 7225 H 669.669 3.26089 -3.90568 0
M  V30 7226 H 669.067 5.43177 -1.58035 0
M  V30 7227 H 667.624 6.14023 -2.18674 0
M  V30 7228 N 671.057 1.43213 0.657864 0
M  V30 7229 C 672.473 1.26511 0.972992 0
M  V30 7230 C 672.673 0.181477 2.00681 0
M  V30 7231 O 671.729 -0.441649 2.48608 0
M  V30 7232 C 673.042 2.62784 1.46168 0
M  V30 7233 C 674.59 2.70278 1.57857 0
M  V30 7234 C 675.065 4.06958 2.10117 0
M  V30 7235 N 676.556 4.08999 2.17426 0
M  V30 7236 C 677.291 5.11585 2.58975 0
M  V30 7237 N 676.787 6.24548 2.99853 0
M  V30 7238 N 678.58 4.9894 2.58873 0
M  V30 7239 H 670.731 2.12384 -0.0263129 0
M  V30 7240 H 672.994 0.946638 0.0507992 0
M  V30 7241 H 672.7 3.43022 0.776474 0
M  V30 7242 H 672.574 2.87863 2.43751 0
M  V30 7243 H 674.961 1.90376 2.25479 0
M  V30 7244 H 675.042 2.4897 0.587179 0
M  V30 7245 H 674.686 4.87325 1.43098 0
M  V30 7246 H 674.616 4.25628 3.10078 0
M  V30 7247 H 677.107 3.27457 1.88627 0
M  V30 7248 H 677.42 6.98661 3.30292 0
M  V30 7249 H 675.765 6.28027 2.97669 0
M  V30 7250 H 678.956 4.09757 2.26311 0
M  V30 7251 H 679.129 5.79019 2.90932 0
M  V30 7252 N 672.536 -0.895792 1.29666 0
M  V30 7253 C 673.784 -1.64339 1.17631 0
M  V30 7254 C 674.105 -1.93099 -0.271643 0
M  V30 7255 O 673.375 -1.55981 -1.18518 0
M  V30 7256 H 671.955 -0.609162 0.432354 0
M  V30 7257 H 674.617 -1.07389 1.62646 0
M  V30 7258 H 673.713 -2.59815 1.72924 0
M  V30 7259 N 674.014 -1.12206 -1.10668 0
M  V30 7260 C 675.425 -0.890657 -1.64086 0
M  V30 7261 C 675.776 0.575502 -1.8757 0
M  V30 7262 O 674.901 1.4394 -1.61587 0
M  V30 7263 C 675.496 -1.61029 -2.98085 0
M  V30 7264 C 674.055 -1.4251 -3.48379 0
M  V30 7265 C 673.202 -1.64778 -2.23033 0
M  V30 7266 H 676.153 -1.27718 -0.94201 0
M  V30 7267 H 676.174 -1.05993 -3.65439 0
M  V30 7268 H 675.686 -2.67735 -2.80962 0
M  V30 7269 H 673.787 -0.380497 -3.70652 0
M  V30 7270 H 673.9 -2.17959 -4.26651 0
M  V30 7271 H 672.264 -1.07171 -2.31055 0
M  V30 7272 H 673.047 -2.72776 -2.08443 0
M  V30 7273 N 675.492 1.28418 -0.913599 0
M  V30 7274 C 676.455 2.25564 -0.406624 0
M  V30 7275 C 677.455 1.5387 0.466965 0
M  V30 7276 O 678.645 1.72094 0.270042 0
M  V30 7277 C 675.777 3.38339 0.417053 0
M  V30 7278 H 676.97 2.71926 -1.26477 0
M  V30 7279 H 674.523 1.40098 -0.692986 0
M  V30 7280 H 675.258 2.97339 1.29461 0
M  V30 7281 H 675.043 3.91542 -0.209102 0
M  V30 7282 H 676.533 4.10578 0.762602 0
M  V30 7283 O 677.009 0.816646 1.39331 0
M  V30 7284 H 677.7 0.396491 1.89599 0
M  V30 END ATOM
M  V30 BEGIN BOND
M  V30 END BOND
M  V30 END CTAB
M  END
$$$$
