drugbank_target|Q96RI0 Proteinase-activated receptor 4 (DB11300)
 OpenBabel12092121063D

  0  0  0     0  0            999 V3000
M  V30 BEGIN CTAB
M  V30 COUNTS 5857 5932 0 0 0
M  V30 BEGIN ATOM
M  V30 1 H -0.908 1.98254 -0.117106 0
M  V30 2 N 0 1.576 0 0
M  V30 3 C 0.933 2.03868 1.02534 0
M  V30 4 C 1.911 0.928543 1.3348 0
M  V30 5 O 3.095 1.19667 1.45644 0
M  V30 6 C 0.222 2.43627 2.35294 0
M  V30 7 C -0.732 3.65373 2.2001 0
M  V30 8 S 0.101 5.13292 1.52614 0
M  V30 9 C 1.257 5.56322 2.86805 0
M  V30 10 H 1.49 2.90518 0.631377 0
M  V30 11 H -0.977 1.52953 0.210867 0
M  V30 12 H 0.981 2.67203 3.11629 0
M  V30 13 H -0.358 1.57376 2.7183 0
M  V30 14 H -1.165 3.90944 3.18086 0
M  V30 15 H -1.563 3.418 1.51819 0
M  V30 16 H 0.729 5.58782 3.83104 0
M  V30 17 H 1.672 6.56266 2.65933 0
M  V30 18 H 2.08 4.83886 2.90714 0
M  V30 19 N 1.4781 -0.272755 1.55222 0
M  V30 20 C 2.7241 -1.00172 1.77023 0
M  V30 21 C 3.0791 -1.83928 0.564633 0
M  V30 22 O 2.3721 -1.86416 -0.442674 0
M  V30 23 C 2.5661 -1.91642 3.01675 0
M  V30 24 C 2.3951 -1.16888 4.34243 0
M  V30 25 C 1.1651 -0.884464 4.97499 0
M  V30 26 C 3.3631 -0.55919 5.11251 0
M  V30 27 N 1.3451 -0.11015 6.13801 0
M  V30 28 C 2.7161 0.0809469 6.19947 0
M  V30 29 C 4.7711 -0.467058 4.95705 0
M  V30 30 C 3.4741 0.804335 7.14789 0
M  V30 31 C 5.5001 0.242739 5.90902 0
M  V30 32 C 4.8621 0.871613 6.98987 0
M  V30 33 H 0.9611 -0.348529 0.700037 0
M  V30 34 H 3.5451 -0.277365 1.92714 0
M  V30 35 H 1.7161 -2.61303 2.87359 0
M  V30 36 H 3.4481 -2.57901 3.1188 0
M  V30 37 H 0.2031 -1.18979 4.58411 0
M  V30 38 H 0.6271 0.264344 6.76484 0
M  V30 39 H 5.2691 -0.93894 4.12242 0
M  V30 40 H 2.9871 1.2879 7.97771 0
M  V30 41 H 6.5731 0.314347 5.8095 0
M  V30 42 H 5.4531 1.4121 7.71381 0
M  V30 43 N 2.9562 -1.48159 -0.537278 0
M  V30 44 C 4.2042 -1.55497 -1.29094 0
M  V30 45 C 4.5252 -0.227454 -1.93669 0
M  V30 46 O 3.7952 0.750386 -1.80959 0
M  V30 47 H 2.3752 -0.572832 -0.47945 0
M  V30 48 H 5.0372 -1.84579 -0.625818 0
M  V30 49 H 4.1332 -2.33216 -2.07405 0
M  V30 50 N 4.4343 0.785586 -1.36625 0
M  V30 51 C 5.8503 1.08419 -1.17122 0
M  V30 52 C 6.0503 2.015 0.00208491 0
M  V30 53 O 5.1063 2.43551 0.666278 0
M  V30 54 C 6.4193 1.69498 -2.48377 0
M  V30 55 C 7.9673 1.81821 -2.54775 0
M  V30 56 C 8.4423 2.46315 -3.86126 0
M  V30 57 N 9.9333 2.53779 -3.87492 0
M  V30 58 C 10.6683 3.045 -4.85868 0
M  V30 59 N 10.1643 3.55499 -5.94637 0
M  V30 60 N 11.9573 3.03247 -4.73284 0
M  V30 61 H 4.1083 0.167264 -2.1174 0
M  V30 62 H 6.3713 0.13682 -0.938075 0
M  V30 63 H 6.0773 1.08571 -3.34522 0
M  V30 64 H 5.9513 2.6896 -2.64462 0
M  V30 65 H 8.3383 2.41884 -1.69045 0
M  V30 66 H 8.4193 0.811532 -2.42586 0
M  V30 67 H 8.0633 1.86895 -4.72263 0
M  V30 68 H 7.9933 3.47561 -3.95612 0
M  V30 69 H 10.4843 2.17672 -3.08913 0
M  V30 70 H 10.7973 3.92562 -6.65669 0
M  V30 71 H 9.1423 3.5364 -5.98301 0
M  V30 72 H 12.3333 2.62696 -3.87438 0
M  V30 73 H 12.5063 3.42467 -5.50109 0
M  V30 74 N 5.9124 1.20967 1.01018 0
M  V30 75 C 6.8424 0.988272 2.11555 0
M  V30 76 C 7.8234 -0.0849778 1.69888 0
M  V30 77 O 9.0084 0.0738202 1.9406 0
M  V30 78 C 6.1384 0.546528 3.42973 0
M  V30 79 C 5.0924 1.56375 3.9841 0
M  V30 80 C 4.4184 0.97842 5.25672 0
M  V30 81 C 5.7184 2.94922 4.31066 0
M  V30 82 H 7.4124 1.91276 2.30334 0
M  V30 83 H 4.9584 0.921073 1.1069 0
M  V30 84 H 6.9114 0.378839 4.19694 0
M  V30 85 H 5.6354 -0.413598 3.23971 0
M  V30 86 H 4.2944 1.71891 3.23804 0
M  V30 87 H 3.9424 0.0101688 5.02999 0
M  V30 88 H 3.6424 1.65784 5.63728 0
M  V30 89 H 5.1664 0.821939 6.05043 0
M  V30 90 H 6.5804 2.8288 4.9865 0
M  V30 91 H 4.9774 3.5983 4.80253 0
M  V30 92 H 6.0474 3.4616 3.39561 0
M  V30 93 N 7.3905 -1.2043 1.01659 0
M  V30 94 C 8.3205 -2.25466 0.607226 0
M  V30 95 C 9.3015 -1.65853 -0.377716 0
M  V30 96 O 10.4865 -1.92409 -0.263149 0
M  V30 97 C 7.6165 -3.47256 -0.0552949 0
M  V30 98 C 6.5705 -4.19462 0.850632 0
M  V30 99 C 5.8965 -5.34673 0.0538859 0
M  V30 100 C 7.1965 -4.75603 2.15868 0
M  V30 101 H 8.8905 -2.59962 1.48526 0
M  V30 102 H 6.4365 -1.2496 0.715605 0
M  V30 103 H 8.3895 -4.19917 -0.353233 0
M  V30 104 H 7.1135 -3.11924 -0.968045 0
M  V30 105 H 5.7725 -3.48667 1.13257 0
M  V30 106 H 5.4205 -4.95585 -0.860514 0
M  V30 107 H 5.1205 -5.83913 0.657192 0
M  V30 108 H 6.6445 -6.10138 -0.237598 0
M  V30 109 H 8.0585 -5.40083 1.92311 0
M  V30 110 H 6.4555 -5.3528 2.71284 0
M  V30 111 H 7.5255 -3.94346 2.82169 0
M  V30 112 N 8.8686 -0.792821 -1.36206 0
M  V30 113 C 9.7986 -0.207853 -2.32573 0
M  V30 114 C 10.7796 0.659055 -1.56813 0
M  V30 115 O 11.9646 0.592176 -1.84951 0
M  V30 116 C 9.0946 0.655449 -3.41059 0
M  V30 117 C 8.0486 -0.111842 -4.27854 0
M  V30 118 C 7.3746 0.872274 -5.27537 0
M  V30 119 C 8.6746 -1.30299 -5.05786 0
M  V30 120 H 10.3686 -1.01294 -2.81744 0
M  V30 121 H 7.9146 -0.48854 -1.3546 0
M  V30 122 H 9.8676 1.07464 -4.07467 0
M  V30 123 H 8.5916 1.49328 -2.90463 0
M  V30 124 H 7.2506 -0.512053 -3.63006 0
M  V30 125 H 6.8986 1.70523 -4.73214 0
M  V30 126 H 6.5986 0.363291 -5.86476 0
M  V30 127 H 8.1226 1.28996 -5.96818 0
M  V30 128 H 9.5366 -0.959379 -5.65216 0
M  V30 129 H 7.9336 -1.7455 -5.74154 0
M  V30 130 H 9.0036 -2.09663 -4.37229 0
M  V30 131 N 10.3467 1.47872 -0.545128 0
M  V30 132 C 11.5927 2.03385 -0.0247951 0
M  V30 133 C 11.9477 1.41325 1.30556 0
M  V30 134 O 11.2407 0.5552 1.8338 0
M  V30 135 C 11.4347 3.57131 0.13867 0
M  V30 136 C 11.2637 4.34097 -1.17429 0
M  V30 137 C 10.0337 4.74458 -1.73831 0
M  V30 138 C 12.2317 4.6998 -2.08861 0
M  V30 139 N 10.2137 5.3602 -2.99258 0
M  V30 140 C 11.5847 5.31719 -3.18866 0
M  V30 141 C 13.6397 4.5191 -2.09003 0
M  V30 142 C 12.3427 5.77295 -4.29096 0
M  V30 143 C 14.3687 4.98477 -3.18237 0
M  V30 144 C 13.7307 5.60253 -4.26961 0
M  V30 145 H 9.8297 0.780339 -0.050943 0
M  V30 146 H 12.4137 1.80507 -0.729753 0
M  V30 147 H 10.5847 3.79802 0.812733 0
M  V30 148 H 12.3167 3.99282 0.659976 0
M  V30 149 H 9.0717 4.56037 -1.2778 0
M  V30 150 H 9.4957 5.71355 -3.63157 0
M  V30 151 H 14.1377 4.03516 -1.26234 0
M  V30 152 H 11.8557 6.24687 -5.12633 0
M  V30 153 H 15.4417 4.86274 -3.1942 0
M  V30 154 H 14.3217 5.95631 -5.10091 0
M  V30 155 N 11.8248 0.280983 1.55075 0
M  V30 156 C 13.2358 -0.215629 1.85451 0
M  V30 157 C 13.5868 -1.54991 1.203 0
M  V30 158 O 12.7118 -2.10699 0.493435 0
M  V30 159 C 13.3068 -0.398026 3.36454 0
M  V30 160 C 11.8658 -0.838866 3.66933 0
M  V30 161 C 11.0128 0.064458 2.77225 0
M  V30 162 H 13.9638 0.502601 1.50531 0
M  V30 163 H 13.9848 -1.23569 3.59876 0
M  V30 164 H 13.4968 0.573241 3.83843 0
M  V30 165 H 11.5978 -1.8214 3.25048 0
M  V30 166 H 11.7108 -0.672123 4.74362 0
M  V30 167 H 10.0748 -0.452863 2.50642 0
M  V30 168 H 10.8578 1.03172 3.2743 0
M  V30 169 N 13.3029 -1.57598 0.00835791 0
M  V30 170 C 14.2329 -2.1198 -0.979113 0
M  V30 171 C 15.2139 -1.03091 -1.35301 0
M  V30 172 O 16.3989 -1.30818 -1.43528 0
M  V30 173 C 13.5289 -2.62995 -2.26828 0
M  V30 174 C 12.4829 -3.76485 -2.03576 0
M  V30 175 C 11.8089 -4.13846 -3.38579 0
M  V30 176 C 13.1089 -5.0342 -1.39161 0
M  V30 177 H 14.8029 -2.94738 -0.526281 0
M  V30 178 H 12.3489 -1.41783 -0.251704 0
M  V30 179 H 14.3019 -2.99669 -2.96271 0
M  V30 180 H 13.0259 -1.7737 -2.7424 0
M  V30 181 H 11.6849 -3.40217 -1.36557 0
M  V30 182 H 11.3329 -3.25232 -3.83709 0
M  V30 183 H 11.0329 -4.90312 -3.23834 0
M  V30 184 H 12.5569 -4.53086 -4.09323 0
M  V30 185 H 13.9709 -5.37812 -1.98573 0
M  V30 186 H 12.3679 -5.84746 -1.34878 0
M  V30 187 H 13.4379 -4.83548 -0.361868 0
M  V30 188 N 14.781 0.264519 -1.55364 0
M  V30 189 C 16.027 0.99646 -1.76631 0
M  V30 190 C 16.36 1.85632 -0.570478 0
M  V30 191 O 15.635 1.89647 0.43175 0
M  V30 192 C 15.918 1.87187 -3.07625 0
M  V30 193 C 15.771 1.04138 -4.37579 0
M  V30 194 C 17.09 2.85749 -3.34717 0
M  V30 195 H 14.209 0.360841 -0.642622 0
M  V30 196 H 16.851 0.268218 -1.88097 0
M  V30 197 H 15.001 2.49279 -2.9798 0
M  V30 198 H 16.673 0.440517 -4.59192 0
M  V30 199 H 14.916 0.345115 -4.32425 0
M  V30 200 H 15.587 1.68729 -5.2558 0
M  V30 201 H 18.063 2.33793 -3.4421 0
M  V30 202 H 16.939 3.44136 -4.27623 0
M  V30 203 H 17.2 3.61311 -2.54768 0
M  V30 204 N 16.2591 1.48442 0.529413 0
M  V30 205 C 17.1891 1.65902 1.64313 0
M  V30 206 C 18.1701 0.507897 1.6234 0
M  V30 207 O 19.3551 0.740503 1.79528 0
M  V30 208 C 16.4851 1.69911 3.02898 0
M  V30 209 C 15.4391 2.8453 3.19729 0
M  V30 210 C 14.7651 2.73629 4.59381 0
M  V30 211 C 16.0651 4.25821 3.02447 0
M  V30 212 H 17.7591 2.5914 1.49955 0
M  V30 213 H 15.3051 1.24709 0.719982 0
M  V30 214 H 17.2581 1.80715 3.80684 0
M  V30 215 H 15.9821 0.732524 3.18279 0
M  V30 216 H 14.6411 2.73283 2.44361 0
M  V30 217 H 14.2891 1.74938 4.71599 0
M  V30 218 H 13.9891 3.50541 4.71588 0
M  V30 219 H 15.5131 2.86401 5.39265 0
M  V30 220 H 16.9271 4.37898 3.70024 0
M  V30 221 H 15.3241 5.03735 3.26146 0
M  V30 222 H 16.3941 4.42244 1.98867 0
M  V30 223 N 17.7372 -0.778329 1.37039 0
M  V30 224 C 18.9852 -1.53361 1.31623 0
M  V30 225 C 19.3062 -1.94739 -0.100831 0
M  V30 226 O 18.5762 -1.65797 -1.04347 0
M  V30 227 H 17.1562 -0.568794 0.484234 0
M  V30 228 H 19.8182 -0.926742 1.71457 0
M  V30 229 H 18.9142 -2.43606 1.95096 0
M  V30 230 N 19.2153 -1.21501 -1.00376 0
M  V30 231 C 20.4623 -1.03299 -1.74171 0
M  V30 232 C 20.7903 0.433326 -1.89612 0
M  V30 233 O 20.0453 1.33779 -1.42834 0
M  V30 234 C 20.3443 -1.67673 -3.15627 0
M  V30 235 C 20.0103 -3.17533 -3.2013 0
M  V30 236 C 18.6723 -3.58427 -3.21067 0
M  V30 237 C 21.0243 -4.13504 -3.17275 0
M  V30 238 C 18.3523 -4.93794 -3.16835 0
M  V30 239 C 20.7043 -5.48834 -3.14585 0
M  V30 240 C 19.3683 -5.89123 -3.13831 0
M  V30 241 H 18.6383 -0.377999 -0.637336 0
M  V30 242 H 21.2853 -1.51111 -1.17634 0
M  V30 243 H 19.5903 -1.12158 -3.75404 0
M  V30 244 H 21.2873 -1.51091 -3.71446 0
M  V30 245 H 17.8773 -2.84965 -3.20145 0
M  V30 246 H 22.0613 -3.82936 -3.15711 0
M  V30 247 H 17.3173 -5.24255 -3.1459 0
M  V30 248 H 21.4913 -6.22934 -3.1133 0
M  V30 249 H 19.1183 -6.93984 -3.10307 0
M  V30 250 N 20.6934 1.19889 -1.02296 0
M  V30 251 C 21.9184 1.9393 -0.735237 0
M  V30 252 C 22.3434 1.74639 0.698782 0
M  V30 253 O 21.7014 1.04481 1.48167 0
M  V30 254 C 21.7494 3.43916 -1.08417 0
M  V30 255 O 20.8534 4.11917 -0.199446 0
M  V30 256 H 20.1944 0.605645 -0.272196 0
M  V30 257 H 22.7244 1.52137 -1.36804 0
M  V30 258 H 22.7344 3.9456 -1.03856 0
M  V30 259 H 21.4094 3.5728 -2.12894 0
M  V30 260 H 19.9864 3.71666 -0.303136 0
M  V30 261 N 22.1715 0.800033 1.35784 0
M  V30 262 C 23.1015 0.220184 2.3246 0
M  V30 263 C 24.0825 -0.65073 1.57161 0
M  V30 264 O 25.2675 -0.582359 1.85263 0
M  V30 265 C 22.3975 -0.637353 3.41402 0
M  V30 266 C 21.3515 0.134531 4.27789 0
M  V30 267 C 20.6775 -0.844285 5.27992 0
M  V30 268 C 21.9775 1.32979 5.05088 0
M  V30 269 H 23.6715 1.02787 2.81203 0
M  V30 270 H 21.2175 0.495717 1.35199 0
M  V30 271 H 23.1705 -1.05302 4.08031 0
M  V30 272 H 21.8945 -1.47785 2.91251 0
M  V30 273 H 20.5535 0.531296 3.6273 0
M  V30 274 H 20.2015 -1.68011 4.74111 0
M  V30 275 H 19.9015 -0.332184 5.8666 0
M  V30 276 H 21.4255 -1.2583 5.97494 0
M  V30 277 H 22.8395 0.98934 5.64699 0
M  V30 278 H 21.2365 1.77593 5.7322 0
M  V30 279 H 22.3065 2.11978 4.36111 0
M  V30 280 N 23.6496 -1.47581 0.552962 0
M  V30 281 C 24.8746 -2.07378 0.0300593 0
M  V30 282 C 25.2996 -1.40355 -1.25229 0
M  V30 283 O 24.6576 -0.477099 -1.7491 0
M  V30 284 C 24.7056 -3.60274 -0.153231 0
M  V30 285 O 23.8096 -3.94041 -1.21678 0
M  V30 286 H 23.1506 -0.662158 0.0494182 0
M  V30 287 H 25.6806 -1.89662 0.767434 0
M  V30 288 H 25.6906 -4.0633 -0.368761 0
M  V30 289 H 24.3656 -4.08455 0.783397 0
M  V30 290 H 22.9426 -3.59735 -0.982079 0
M  V30 291 N 25.1277 -0.289203 -1.54924 0
M  V30 292 C 26.3757 0.322879 -1.99504 0
M  V30 293 C 26.6967 1.55313 -1.1791 0
M  V30 294 O 25.9667 1.94001 -0.272097 0
M  V30 295 H 24.5467 0.122291 -0.736922 0
M  V30 296 H 27.2087 -0.397802 -1.90797 0
M  V30 297 H 26.3047 0.603061 -3.06218 0
M  V30 298 N 26.6058 1.57591 -0.0167156 0
M  V30 299 C 27.8538 1.90906 0.663285 0
M  V30 300 C 28.1748 0.892509 1.73376 0
M  V30 301 O 27.4448 -0.0677623 1.95783 0
M  V30 302 H 26.0248 0.704637 0.247983 0
M  V30 303 H 28.6868 1.94803 -0.0615909 0
M  V30 304 H 27.7828 2.9116 1.12393 0
M  V30 305 N 28.0839 -0.256276 1.55502 0
M  V30 306 C 29.3119 -1.00342 1.8094 0
M  V30 307 C 29.7269 -1.79307 0.59114 0
M  V30 308 O 29.0839 -1.77114 -0.440081 0
M  V30 309 C 29.1349 -1.94875 3.04476 0
M  V30 310 O 28.8559 -1.19107 4.21598 0
M  V30 311 C 30.3569 -2.81266 3.42644 0
M  V30 312 H 27.5769 -0.295685 0.602338 0
M  V30 313 H 30.1209 -0.281998 2.02546 0
M  V30 314 H 28.2759 -2.62457 2.84947 0
M  V30 315 H 28.6899 -1.82969 4.91551 0
M  V30 316 H 30.1639 -3.43362 4.32211 0
M  V30 317 H 30.6409 -3.51897 2.62802 0
M  V30 318 H 31.2469 -2.1915 3.64491 0
M  V30 319 N 29.562 -1.4872 -0.521534 0
M  V30 320 C 30.494 -1.59968 -1.64143 0
M  V30 321 C 31.507 -0.483463 -1.55456 0
M  V30 322 O 32.696 -0.75467 -1.61762 0
M  V30 323 C 29.796 -1.52127 -3.02838 0
M  V30 324 C 28.969 -2.78932 -3.36921 0
M  V30 325 C 28.028 -2.64428 -4.54933 0
M  V30 326 O 27.054 -3.38331 -4.57735 0
M  V30 327 N 28.256 -1.74606 -5.53618 0
M  V30 328 H 31.021 -2.56548 -1.54929 0
M  V30 329 H 28.582 -1.45551 -0.708988 0
M  V30 330 H 30.574 -1.40106 -3.79674 0
M  V30 331 H 29.144 -0.634868 -3.06085 0
M  V30 332 H 28.364 -3.05455 -2.4918 0
M  V30 333 H 29.652 -3.63041 -3.56481 0
M  V30 334 H 29.05 -1.13782 -5.54139 0
M  V30 335 H 27.607 -1.6852 -6.29638 0
M  V30 336 N 31.0401 0.771051 -1.3745 0
M  V30 337 C 32.2681 1.56015 -1.35893 0
M  V30 338 C 32.6831 1.88718 0.0555523 0
M  V30 339 O 32.0401 1.51502 1.01752 0
M  V30 340 C 32.0911 2.87001 -2.19801 0
M  V30 341 O 31.8121 2.557 -3.55738 0
M  V30 342 C 33.3131 3.81228 -2.26231 0
M  V30 343 H 30.5331 0.483317 -0.465453 0
M  V30 344 H 33.0771 0.955611 -1.80799 0
M  V30 345 H 31.2321 3.43877 -1.78402 0
M  V30 346 H 31.6461 3.39584 -3.99729 0
M  V30 347 H 33.1201 4.70139 -2.89263 0
M  V30 348 H 33.5971 4.20409 -1.27093 0
M  V30 349 H 34.2031 3.30281 -2.67945 0
M  V30 350 N 32.5182 1.22032 0.997298 0
M  V30 351 C 33.9292 1.0397 1.55071 0
M  V30 352 C 34.2802 -0.398192 1.92117 0
M  V30 353 O 33.4052 -1.28254 1.74298 0
M  V30 354 C 34.0002 1.88109 2.81781 0
M  V30 355 C 32.5592 1.74357 3.33581 0
M  V30 356 C 31.7062 1.84846 2.06706 0
M  V30 357 H 34.6572 1.35941 0.818883 0
M  V30 358 H 34.6782 1.39589 3.53971 0
M  V30 359 H 34.1902 2.92754 2.54787 0
M  V30 360 H 32.2912 0.72427 3.65493 0
M  V30 361 H 32.4042 2.56772 4.04481 0
M  V30 362 H 30.7682 1.28238 2.20062 0
M  V30 363 H 31.5512 2.91014 1.82114 0
M  V30 364 N 33.9963 -1.19345 1.0293 0
M  V30 365 C 35.2213 -1.93538 0.745511 0
M  V30 366 C 35.6463 -1.75007 -0.689511 0
M  V30 367 O 35.0043 -1.05265 -1.47611 0
M  V30 368 C 35.0523 -3.43336 1.10239 0
M  V30 369 O 34.1563 -4.11806 0.221289 0
M  V30 370 H 33.4973 -0.604193 0.275404 0
M  V30 371 H 36.0273 -1.5141 1.37609 0
M  V30 372 H 36.0373 -3.94004 1.05947 0
M  V30 373 H 34.7123 -3.56146 2.14786 0
M  V30 374 H 33.2893 -3.715 0.322842 0
M  V30 375 N 35.4744 -0.807222 -1.35358 0
M  V30 376 C 36.7204 -0.388463 -1.99045 0
M  V30 377 C 37.0534 1.04184 -1.63888 0
M  V30 378 O 36.3284 1.72292 -0.902535 0
M  V30 379 C 36.6114 -0.572783 -3.55515 0
M  V30 380 C 36.4644 -2.04807 -4.00468 0
M  V30 381 C 37.7834 0.00114064 -4.401 0
M  V30 382 H 34.9024 -0.142619 -0.723069 0
M  V30 383 H 37.5444 -1.01687 -1.60498 0
M  V30 384 H 35.6944 -0.0378425 -3.88482 0
M  V30 385 H 37.3664 -2.64544 -3.77908 0
M  V30 386 H 35.6094 -2.54427 -3.51353 0
M  V30 387 H 36.2804 -2.12792 -5.09337 0
M  V30 388 H 38.7564 -0.455716 -4.13597 0
M  V30 389 H 37.6324 -0.157737 -5.48673 0
M  V30 390 H 37.8934 1.09488 -4.28328 0
M  V30 391 N 36.9525 1.47285 -0.560781 0
M  V30 392 C 38.1825 2.06555 -0.0429638 0
M  V30 393 C 38.5905 1.41339 1.25777 0
M  V30 394 O 37.9335 0.505182 1.76617 0
M  V30 395 C 37.9955 3.58827 0.219887 0
M  V30 396 C 37.6595 4.46105 -0.991944 0
M  V30 397 C 38.6565 4.84 -1.89843 0
M  V30 398 C 36.3415 4.87567 -1.20762 0
M  V30 399 C 38.3355 5.6216 -3.00425 0
M  V30 400 C 36.0225 5.65491 -2.31653 0
M  V30 401 C 37.0205 6.02699 -3.21315 0
M  V30 402 O 36.7085 6.79052 -4.30283 0
M  V30 403 H 36.4405 0.674537 -0.0444468 0
M  V30 404 H 38.9945 1.90225 -0.774818 0
M  V30 405 H 37.2245 3.73383 1.00609 0
M  V30 406 H 38.9135 4.00103 0.683522 0
M  V30 407 H 39.6795 4.52564 -1.74387 0
M  V30 408 H 35.5585 4.5807 -0.518893 0
M  V30 409 H 39.1025 5.9112 -3.70436 0
M  V30 410 H 34.9995 5.9634 -2.47081 0
M  V30 411 H 35.7675 6.9745 -4.28376 0
M  V30 412 N 38.4306 0.297415 1.54768 0
M  V30 413 C 39.7076 -0.365847 1.92148 0
M  V30 414 C 40.0876 -1.71975 1.22424 0
M  V30 415 O 39.4356 -2.25666 0.358739 0
M  V30 416 C 39.6456 -0.484056 3.45627 0
M  V30 417 C 40.9936 -0.756594 4.17805 0
M  V30 418 O 42.0176 -0.568007 3.51642 0
M  V30 419 O 40.8766 -1.11863 5.34929 0
M  V30 420 H 37.9706 -0.203919 0.801465 0
M  V30 421 H 40.5166 0.34521 1.66152 0
M  V30 422 H 39.2886 0.467865 3.88493 0
M  V30 423 H 38.9116 -1.24372 3.77647 0
M  V30 424 N 39.9087 -1.5758 0.0250728 0
M  V30 425 C 40.8187 -2.1343 -0.973905 0
M  V30 426 C 41.8347 -1.08556 -1.35984 0
M  V30 427 O 43.0107 -1.40592 -1.44207 0
M  V30 428 C 40.0757 -2.64703 -2.23904 0
M  V30 429 C 39.1367 -3.84276 -1.91391 0
M  V30 430 C 38.3697 -4.33095 -3.11873 0
M  V30 431 O 38.5927 -3.81107 -4.24398 0
M  V30 432 O 37.5267 -5.24984 -2.94406 0
M  V30 433 H 41.3527 -2.99057 -0.529036 0
M  V30 434 H 38.9377 -1.48118 -0.195288 0
M  V30 435 H 40.8197 -2.97769 -2.98181 0
M  V30 436 H 39.4947 -1.82161 -2.6758 0
M  V30 437 H 38.4017 -3.56143 -1.14511 0
M  V30 438 H 39.7347 -4.67968 -1.52534 0
M  V30 439 N 41.3868 0.248026 -1.55636 0
M  V30 440 C 42.6118 0.998028 -1.81808 0
M  V30 441 C 43.0368 1.78207 -0.601979 0
M  V30 442 O 42.3948 1.75653 0.448961 0
M  V30 443 C 42.4428 1.9125 -3.05705 0
M  V30 444 O 41.5468 3.00406 -2.82542 0
M  V30 445 H 40.8878 0.284045 -0.600179 0
M  V30 446 H 43.4178 0.269357 -2.02819 0
M  V30 447 H 43.4278 2.32737 -3.35108 0
M  V30 448 H 42.1028 1.33602 -3.93857 0
M  V30 449 H 40.6798 2.63056 -2.64303 0
M  V30 450 N 42.8649 1.48995 0.513639 0
M  V30 451 C 44.1129 1.57531 1.26604 0
M  V30 452 C 44.4339 0.258236 1.93283 0
M  V30 453 O 43.7039 -0.721502 1.8213 0
M  V30 454 H 42.2839 0.580387 0.470276 0
M  V30 455 H 44.9459 1.85552 0.596373 0
M  V30 456 H 44.0419 2.36486 2.03669 0
M  V30 457 N 44.343 -0.763751 1.37857 0
M  V30 458 C 45.568 -1.55805 1.36893 0
M  V30 459 C 45.993 -1.88054 -0.0416135 0
M  V30 460 O 45.351 -1.49825 -1.02089 0
M  V30 461 C 45.399 -2.84012 2.22192 0
M  V30 462 O 44.503 -3.78732 1.63204 0
M  V30 463 H 43.844 -0.471638 0.46739 0
M  V30 464 H 46.374 -0.944657 1.81487 0
M  V30 465 H 46.384 -3.33037 2.35691 0
M  V30 466 H 45.059 -2.59869 3.24716 0
M  V30 467 H 43.636 -3.37402 1.58791 0
M  V30 468 N 45.8211 -1.22559 -0.990812 0
M  V30 469 C 47.0491 -1.07779 -1.76611 0
M  V30 470 C 47.4641 0.371513 -1.85109 0
M  V30 471 O 46.8211 1.25737 -1.32274 0
M  V30 472 C 46.8721 -1.68512 -3.19822 0
M  V30 473 O 46.5931 -3.07774 -3.1178 0
M  V30 474 C 48.0941 -1.59035 -4.13791 0
M  V30 475 H 45.3141 -0.377729 -0.554583 0
M  V30 476 H 47.8581 -1.62195 -1.24551 0
M  V30 477 H 46.0131 -1.18154 -3.68942 0
M  V30 478 H 46.4271 -3.37062 -4.01858 0
M  V30 479 H 47.9011 -2.0625 -5.1202 0
M  V30 480 H 48.3781 -0.547273 -4.35777 0
M  V30 481 H 48.9841 -2.08709 -3.70568 0
M  V30 482 N 47.2992 1.18797 -1.03562 0
M  V30 483 C 48.5472 1.88278 -0.734569 0
M  V30 484 C 48.8682 1.8043 0.739586 0
M  V30 485 O 48.1382 1.21925 1.53333 0
M  V30 486 H 46.7182 0.696991 -0.268725 0
M  V30 487 H 49.3802 1.44192 -1.31129 0
M  V30 488 H 48.4762 2.94443 -1.03489 0
M  V30 489 N 48.7773 0.814389 1.34928 0
M  V30 490 C 50.0253 0.397636 1.9815 0
M  V30 491 C 50.3463 -1.04069 1.64908 0
M  V30 492 O 49.6163 -1.72121 0.93548 0
M  V30 493 H 48.1963 0.144043 0.732981 0
M  V30 494 H 50.8583 1.04195 1.6471 0
M  V30 495 H 49.9543 0.509688 3.0791 0
M  V30 496 N 50.2554 -1.46986 0.568584 0
M  V30 497 C 51.5034 -2.02041 0.0487022 0
M  V30 498 C 51.8244 -1.44408 -1.31039 0
M  V30 499 O 51.0944 -0.623477 -1.85714 0
M  V30 500 H 49.6744 -0.746849 0.015014 0
M  V30 501 H 52.3364 -1.80257 0.741168 0
M  V30 502 H 51.4324 -3.12085 -0.0308961 0
M  V30 503 N 51.7335 -0.305618 -1.54608 0
M  V30 504 C 53.0105 0.355652 -1.92339 0
M  V30 505 C 53.3905 1.71324 -1.23335 0
M  V30 506 O 52.7385 2.25473 -0.370702 0
M  V30 507 C 52.9485 0.46572 -3.45879 0
M  V30 508 C 54.2965 0.734426 -4.182 0
M  V30 509 O 55.3205 0.54935 -3.51938 0
M  V30 510 O 54.1795 1.09024 -5.35515 0
M  V30 511 H 51.2735 0.199666 -0.802535 0
M  V30 512 H 53.8195 -0.354017 -1.65966 0
M  V30 513 H 52.5915 -0.488461 -3.88239 0
M  V30 514 H 52.2145 1.22367 -3.78301 0
M  V30 515 N 53.2116 1.57565 -0.0334293 0
M  V30 516 C 54.4886 1.83282 0.683163 0
M  V30 517 C 54.8686 0.91823 1.90084 0
M  V30 518 O 54.2166 -0.025113 2.28486 0
M  V30 519 C 54.4266 3.32599 1.0573 0
M  V30 520 C 55.7746 3.99179 1.44711 0
M  V30 521 O 56.7986 3.3712 1.15015 0
M  V30 522 O 55.6576 5.08565 2.0006 0
M  V30 523 H 52.7516 0.755869 0.335546 0
M  V30 524 H 55.2976 1.69589 -0.0614402 0
M  V30 525 H 54.0696 3.90834 0.190828 0
M  V30 526 H 53.6926 3.51415 1.85993 0
M  V30 527 N 54.6897 -0.239769 1.55765 0
M  V30 528 C 55.9147 -0.988373 1.82335 0
M  V30 529 C 56.3397 -1.77886 0.611421 0
M  V30 530 O 55.6977 -1.75889 -0.439639 0
M  V30 531 C 55.7457 -1.89627 3.06715 0
M  V30 532 O 54.8497 -2.98904 2.84131 0
M  V30 533 H 54.1907 -0.280858 0.601677 0
M  V30 534 H 56.7207 -0.258597 2.02959 0
M  V30 535 H 56.7307 -2.30957 3.36338 0
M  V30 536 H 55.4057 -1.31511 3.9456 0
M  V30 537 H 53.9827 -2.61651 2.65694 0
M  V30 538 N 56.1678 -1.49265 -0.50573 0
M  V30 539 C 57.3958 -1.62215 -1.28429 0
M  V30 540 C 57.8108 -0.291697 -1.86533 0
M  V30 541 O 57.1678 0.722233 -1.67601 0
M  V30 542 C 57.2188 -2.68735 -2.41793 0
M  V30 543 O 56.9398 -3.96619 -1.86078 0
M  V30 544 C 58.4408 -2.92346 -3.3324 0
M  V30 545 H 55.6608 -0.546239 -0.389697 0
M  V30 546 H 58.2048 -1.95265 -0.607609 0
M  V30 547 H 56.3598 -2.38476 -3.053 0
M  V30 548 H 56.7738 -4.55256 -2.60465 0
M  V30 549 H 58.2478 -3.70623 -4.09075 0
M  V30 550 H 58.7248 -2.02081 -3.89948 0
M  V30 551 H 59.3308 -3.24003 -2.75503 0
M  V30 552 N 57.6459 0.756429 -1.3826 0
M  V30 553 C 59.0569 1.33359 -1.30661 0
M  V30 554 C 59.4079 1.96161 0.0388875 0
M  V30 555 O 58.5329 1.94874 0.940918 0
M  V30 556 C 59.1279 2.42477 -2.36622 0
M  V30 557 C 57.6869 2.95922 -2.3261 0
M  V30 558 C 56.8339 1.69275 -2.19639 0
M  V30 559 H 59.7849 0.55552 -1.4866 0
M  V30 560 H 59.8059 3.22345 -2.02174 0
M  V30 561 H 59.3179 1.96739 -3.34538 0
M  V30 562 H 57.4189 3.45996 -1.38267 0
M  V30 563 H 57.5319 3.50494 -3.26636 0
M  V30 564 H 55.8959 1.92793 -1.66442 0
M  V30 565 H 56.6789 1.25619 -3.19491 0
M  V30 566 N 59.124 1.23083 0.984299 0
M  V30 567 C 60.349 1.088 1.76571 0
M  V30 568 C 60.774 -0.356657 1.84688 0
M  V30 569 O 60.132 -1.25788 1.30565 0
M  V30 570 C 60.18 1.71371 3.17277 0
M  V30 571 O 59.284 0.973213 4.00752 0
M  V30 572 H 58.625 0.381599 0.543395 0
M  V30 573 H 61.155 1.63057 1.23587 0
M  V30 574 H 61.165 1.76449 3.67872 0
M  V30 575 H 59.84 2.76493 3.10684 0
M  V30 576 H 58.417 0.999078 3.59267 0
M  V30 577 N 60.6021 -1.18246 1.0419 0
M  V30 578 C 61.8511 -1.87588 0.741194 0
M  V30 579 C 62.1641 -1.81303 -0.734066 0
M  V30 580 O 63.3701 -2.46019 -1.14834 0
M  V30 581 C 61.8261 -3.36538 1.27555 0
M  V30 582 C 61.4341 -3.51349 2.77953 0
M  V30 583 C 63.1781 -4.11273 1.05143 0
M  V30 584 C 61.0851 -4.94265 3.2474 0
M  V30 585 H 60.0151 -0.702622 0.273565 0
M  V30 586 H 62.6661 -1.33601 1.25789 0
M  V30 587 H 61.0481 -3.9 0.686703 0
M  V30 588 H 62.2221 -3.08153 3.42605 0
M  V30 589 H 60.5371 -2.90022 2.98791 0
M  V30 590 H 63.1341 -5.16689 1.37611 0
M  V30 591 H 63.4771 -4.16298 -0.0112774 0
M  V30 592 H 64.0101 -3.63987 1.60495 0
M  V30 593 H 60.7491 -4.94408 4.30396 0
M  V30 594 H 60.2691 -5.38172 2.64823 0
M  V30 595 H 61.9481 -5.62987 3.18834 0
M  V30 596 N 62.0802 -0.821533 -1.34494 0
M  V30 597 C 63.0102 -0.257138 -2.3208 0
M  V30 598 C 63.9912 0.625645 -1.58176 0
M  V30 599 O 65.1762 0.552811 -1.86166 0
M  V30 600 C 62.3062 0.582958 -3.42372 0
M  V30 601 C 61.2602 -0.202571 -4.2752 0
M  V30 602 C 60.5862 0.760179 -5.29269 0
M  V30 603 C 61.8862 -1.40998 -5.02908 0
M  V30 604 H 63.5802 -1.07247 -2.79532 0
M  V30 605 H 61.1262 -0.517163 -1.34393 0
M  V30 606 H 63.0792 0.987972 -4.09655 0
M  V30 607 H 61.8032 1.43133 -2.93565 0
M  V30 608 H 60.4622 -0.588936 -3.61838 0
M  V30 609 H 60.1102 1.60447 -4.76724 0
M  V30 610 H 59.8102 0.238809 -5.87115 0
M  V30 611 H 61.3342 1.16308 -5.9942 0
M  V30 612 H 62.7482 -1.07905 -5.63054 0
M  V30 613 H 61.1452 -1.86689 -5.70322 0
M  V30 614 H 62.2152 -2.1889 -4.32684 0
M  V30 615 N 63.5583 1.46682 -0.576371 0
M  V30 616 C 64.9693 1.86112 -0.148091 0
M  V30 617 C 65.3203 1.48073 1.2872 0
M  V30 618 O 64.4453 0.892656 1.97131 0
M  V30 619 C 65.0403 3.37786 -0.261982 0
M  V30 620 C 63.5993 3.76235 0.111384 0
M  V30 621 C 62.7463 2.70713 -0.60083 0
M  V30 622 H 65.6973 1.37927 -0.78497 0
M  V30 623 H 65.7183 3.77007 0.514364 0
M  V30 624 H 65.2303 3.6544 -1.30671 0
M  V30 625 H 63.3313 3.54198 1.15649 0
M  V30 626 H 63.4443 4.78391 -0.26052 0
M  V30 627 H 61.8083 2.54666 -0.0417783 0
M  V30 628 H 62.5913 3.01208 -1.64708 0
M  V30 629 N 65.0364 0.313813 1.54444 0
M  V30 630 C 65.9994 -0.54379 2.22656 0
M  V30 631 C 66.9994 -1.05124 1.21678 0
M  V30 632 O 68.1894 -0.945225 1.46325 0
M  V30 633 C 65.3214 -1.75427 2.92298 0
M  V30 634 H 66.5144 0.0523599 2.99854 0
M  V30 635 H 64.0674 0.0647834 1.56166 0
M  V30 636 H 64.8024 -2.38991 2.19211 0
M  V30 637 H 64.5874 -1.39791 3.66334 0
M  V30 638 H 66.0774 -2.36325 3.44297 0
M  V30 639 N 66.5145 -1.57545 0.0417849 0
M  V30 640 C 67.9255 -1.80011 -0.495259 0
M  V30 641 C 68.2765 -0.953199 -1.71489 0
M  V30 642 O 67.4015 -0.167138 -2.15754 0
M  V30 643 C 67.9965 -3.26482 -0.905265 0
M  V30 644 C 66.5555 -3.499 -1.38734 0
M  V30 645 C 65.7025 -2.74979 -0.358056 0
M  V30 646 H 68.6535 -1.56425 0.267736 0
M  V30 647 H 68.6745 -3.36887 -1.76882 0
M  V30 648 H 68.1865 -3.88096 -0.017401 0
M  V30 649 H 66.2875 -2.93553 -2.29471 0
M  V30 650 H 66.4005 -4.58615 -1.38598 0
M  V30 651 H 64.7645 -2.40834 -0.828912 0
M  V30 652 H 65.5475 -3.39315 0.521561 0
M  V30 653 N 67.9926 0.231505 -1.5589 0
M  V30 654 C 69.4086 0.580748 -1.48659 0
M  V30 655 C 69.6086 1.87617 -0.73498 0
M  V30 656 O 68.6646 2.51046 -0.270586 0
M  V30 657 C 69.9776 0.669202 -2.93159 0
M  V30 658 C 71.5256 0.760499 -3.03621 0
M  V30 659 C 72.0006 0.880383 -4.49459 0
M  V30 660 N 73.4916 0.944861 -4.53461 0
M  V30 661 C 74.2266 1.05716 -5.63571 0
M  V30 662 N 73.7226 1.13403 -6.83456 0
M  V30 663 N 75.5156 1.09152 -5.514 0
M  V30 664 H 67.6666 -0.618695 -2.03189 0
M  V30 665 H 69.9296 -0.215728 -0.923128 0
M  V30 666 H 69.6356 -0.212904 -3.51055 0
M  V30 667 H 69.5096 1.5361 -3.44505 0
M  V30 668 H 71.8966 1.63305 -2.45796 0
M  V30 669 H 71.9776 -0.131864 -2.5546 0
M  V30 670 H 71.6216 0.0123284 -5.07899 0
M  V30 671 H 71.5516 1.78802 -4.95316 0
M  V30 672 H 74.0426 0.896176 -3.6712 0
M  V30 673 H 74.3556 1.21921 -7.63122 0
M  V30 674 H 72.7006 1.10333 -6.86186 0
M  V30 675 H 75.8916 1.02805 -4.56671 0
M  V30 676 H 76.0646 1.17558 -6.37247 0
M  V30 677 N 69.4707 1.49531 0.497807 0
M  V30 678 C 70.7187 1.58865 1.24926 0
M  V30 679 C 71.0397 0.278721 1.92998 0
M  V30 680 O 70.3097 -0.702144 1.82885 0
M  V30 681 H 68.8897 0.585343 0.464094 0
M  V30 682 H 71.5517 1.86174 0.57666 0
M  V30 683 H 70.6477 2.38633 2.01149 0
M  V30 684 N 70.9488 -0.749086 1.3866 0
M  V30 685 C 72.1788 -1.53611 1.38157 0
M  V30 686 C 72.5868 -1.89177 -0.0293595 0
M  V30 687 O 71.9298 -1.53606 -1.00752 0
M  V30 688 C 71.9918 -2.86087 2.17702 0
M  V30 689 C 71.6558 -2.73034 3.66472 0
M  V30 690 C 72.6528 -2.42526 4.59866 0
M  V30 691 C 70.3378 -2.90345 4.09884 0
M  V30 692 C 72.3318 -2.29492 5.94653 0
M  V30 693 C 70.0188 -2.7693 5.4475 0
M  V30 694 C 71.0168 -2.46547 6.36949 0
M  V30 695 O 70.7048 -2.33199 7.69333 0
M  V30 696 H 70.4368 -0.481773 0.474205 0
M  V30 697 H 72.9908 -0.934465 1.82912 0
M  V30 698 H 71.2208 -3.48458 1.67672 0
M  V30 699 H 72.9098 -3.47625 2.09551 0
M  V30 700 H 73.6758 -2.28816 4.27631 0
M  V30 701 H 69.5548 -3.1299 3.38464 0
M  V30 702 H 73.0988 -2.05698 6.66584 0
M  V30 703 H 68.9958 -2.90215 5.76581 0
M  V30 704 H 69.7638 -2.48376 7.79905 0
M  V30 705 N 72.4269 -1.23603 -0.977757 0
M  V30 706 C 73.8379 -1.06424 -1.53398 0
M  V30 707 C 74.1889 0.367578 -1.92726 0
M  V30 708 O 73.3139 1.25465 -1.76316 0
M  V30 709 C 73.9089 -1.92568 -2.78753 0
M  V30 710 C 72.4679 -1.79642 -3.30765 0
M  V30 711 C 71.6149 -1.88111 -2.03739 0
M  V30 712 H 74.5659 -1.37227 -0.797152 0
M  V30 713 H 74.5869 -1.45203 -3.51705 0
M  V30 714 H 74.0989 -2.96771 -2.50098 0
M  V30 715 H 72.1999 -0.782325 -3.64294 0
M  V30 716 H 72.3129 -2.63174 -4.00345 0
M  V30 717 H 70.6769 -1.31723 -2.17994 0
M  V30 718 H 71.4599 -2.93875 -1.77461 0
M  V30 719 N 73.905 1.17692 -1.04816 0
M  V30 720 C 75.153 1.87488 -0.754497 0
M  V30 721 C 75.474 1.81205 0.720407 0
M  V30 722 O 74.744 1.23544 1.52032 0
M  V30 723 H 73.324 0.694101 -0.276102 0
M  V30 724 H 75.986 1.42793 -1.32651 0
M  V30 725 H 75.082 2.93328 -1.06606 0
M  V30 726 N 75.3831 0.828654 1.34056 0
M  V30 727 C 76.3151 0.212052 2.28217 0
M  V30 728 C 77.3281 -0.601362 1.51286 0
M  V30 729 O 78.5171 -0.430104 1.73241 0
M  V30 730 C 75.6171 -0.72088 3.31144 0
M  V30 731 C 74.7901 0.0509587 4.3737 0
M  V30 732 C 73.8491 -0.803766 5.20025 0
M  V30 733 O 72.8751 -0.246667 5.68665 0
M  V30 734 N 74.0771 -2.1227 5.40298 0
M  V30 735 H 76.8421 1.02105 2.81771 0
M  V30 736 H 74.4031 0.686153 1.46641 0
M  V30 737 H 76.3951 -1.29742 3.8334 0
M  V30 738 H 74.9651 -1.43061 2.77943 0
M  V30 739 H 74.1851 0.808831 3.85813 0
M  V30 740 H 75.4731 0.582065 5.0546 0
M  V30 741 H 74.8711 -2.59898 5.02464 0
M  V30 742 H 73.4281 -2.64796 5.95589 0
M  V30 743 N 76.8612 -1.46375 0.584142 0
M  V30 744 C 78.1072 -2.02678 0.0703716 0
M  V30 745 C 78.4402 -1.4545 -1.28678 0
M  V30 746 O 77.7152 -0.62014 -1.84349 0
M  V30 747 C 77.9982 -3.60099 0.00614674 0
M  V30 748 C 77.8512 -4.27709 1.3923 0
M  V30 749 C 79.1702 -4.34598 -0.693742 0
M  V30 750 H 76.2892 -0.736504 0.027047 0
M  V30 751 H 78.9312 -1.74501 0.751615 0
M  V30 752 H 77.0812 -3.84236 -0.574009 0
M  V30 753 H 78.7532 -4.14832 2.01773 0
M  V30 754 H 76.9962 -3.87016 1.95962 0
M  V30 755 H 77.6672 -5.36478 1.29982 0
M  V30 756 H 80.1432 -4.15615 -0.200869 0
M  V30 757 H 79.0192 -5.44318 -0.707714 0
M  V30 758 H 79.2802 -4.05759 -1.75533 0
M  V30 759 N 78.3393 -0.321999 -1.54275 0
M  V30 760 C 79.5793 0.281657 -2.0245 0
M  V30 761 C 79.9433 1.49468 -1.20513 0
M  V30 762 O 81.1443 2.17109 -1.58484 0
M  V30 763 C 79.4153 0.609014 -3.52173 0
M  V30 764 S 80.9743 1.19255 -4.22284 0
M  V30 765 H 77.7923 0.0852825 -0.705867 0
M  V30 766 H 80.3943 -0.454758 -1.90137 0
M  V30 767 H 79.0983 -0.281982 -4.0943 0
M  V30 768 H 78.6293 1.37567 -3.68563 0
M  V30 769 H 80.6443 2.47944 -4.29812 0
M  V30 770 N 79.8174 1.5752 -0.0501392 0
M  V30 771 C 80.7804 2.1037 0.909786 0
M  V30 772 C 81.7804 1.02308 1.24056 0
M  V30 773 O 82.9704 1.28385 1.17741 0
M  V30 774 C 80.1024 2.58708 2.21998 0
M  V30 775 H 81.2954 2.96479 0.451665 0
M  V30 776 H 78.8484 1.55038 0.198248 0
M  V30 777 H 79.5834 1.75989 2.72394 0
M  V30 778 H 79.3684 3.37675 1.99295 0
M  V30 779 H 80.8584 2.99747 2.9076 0
M  V30 780 N 81.2955 -0.223234 1.56011 0
M  V30 781 C 82.2435 -1.29627 1.93131 0
M  V30 782 C 83.2375 -1.48608 0.813146 0
M  V30 783 O 84.4435 -1.49802 0.997966 0
M  V30 784 H 80.8185 -0.434563 0.613726 0
M  V30 785 H 82.7895 -0.955995 2.82672 0
M  V30 786 C 81.5385 -2.63983 2.26292 0
M  V30 787 H 80.8615 -2.50185 3.11846 0
M  V30 788 H 82.3015 -3.3788 2.56151 0
M  V30 789 C 80.7605 -3.18866 1.08747 0
M  V30 790 O 81.2905 -4.00192 0.347727 0
M  V30 791 N 79.4965 -2.77217 0.871743 0
M  V30 792 H 79.0435 -2.1119 1.47501 0
M  V30 793 H 79.0015 -3.1428 0.0869905 0
M  V30 794 N 82.7736 -1.49793 -0.48987 0
M  V30 795 C 84.0506 -1.50348 -1.25119 0
M  V30 796 C 84.4306 -0.237466 -2.0976 0
M  V30 797 O 83.7786 0.77981 -2.14782 0
M  V30 798 C 83.9886 -2.78872 -2.09837 0
M  V30 799 C 85.3366 -3.288 -2.68655 0
M  V30 800 O 86.3606 -2.80065 -2.20096 0
M  V30 801 O 85.2196 -4.13707 -3.57083 0
M  V30 802 H 82.3136 -0.602242 -0.566775 0
M  V30 803 H 84.8596 -1.62067 -0.503229 0
M  V30 804 H 83.6316 -3.62499 -1.47343 0
M  V30 805 H 83.2546 -2.70066 -2.91805 0
M  V30 806 N 84.2517 0.741722 -1.39055 0
M  V30 807 C 85.4767 1.53607 -1.39354 0
M  V30 808 C 85.9017 1.88096 0.0116905 0
M  V30 809 O 85.2597 1.5143 0.996924 0
M  V30 810 C 85.3077 2.80441 -2.26682 0
M  V30 811 O 84.4117 3.76088 -1.69208 0
M  V30 812 H 83.7527 0.464142 -0.474835 0
M  V30 813 H 86.2827 0.915665 -1.82967 0
M  V30 814 H 86.2927 3.29246 -2.40959 0
M  V30 815 H 84.9677 2.5467 -3.2881 0
M  V30 816 H 83.5447 3.34833 -1.64138 0
M  V30 817 N 85.7298 1.2412 0.971189 0
M  V30 818 C 87.0068 0.986867 1.6888 0
M  V30 819 C 87.3868 -0.491857 2.0529 0
M  V30 820 O 86.7348 -1.46531 1.75331 0
M  V30 821 C 86.9448 1.9063 2.92338 0
M  V30 822 C 88.2928 2.17515 3.64654 0
M  V30 823 O 89.3168 1.88254 3.02388 0
M  V30 824 O 88.1758 2.6719 4.7673 0
M  V30 825 H 85.2698 0.372944 0.738134 0
M  V30 826 H 87.8158 1.35203 1.02559 0
M  V30 827 H 86.5878 2.90552 2.62097 0
M  V30 828 H 86.2108 1.54408 3.66393 0
M  V30 829 N 87.2079 -1.17134 1.05439 0
M  V30 830 C 88.4359 -1.91372 0.786414 0
M  V30 831 C 88.8509 -1.76955 -0.658202 0
M  V30 832 O 88.2079 -1.10838 -1.44987 0
M  V30 833 C 88.2589 -3.42356 1.1608 0
M  V30 834 O 87.9799 -3.56332 2.54871 0
M  V30 835 C 89.4809 -4.33663 0.919322 0
M  V30 836 H 86.7009 -0.607118 0.285743 0
M  V30 837 H 89.2449 -1.48525 1.40572 0
M  V30 838 H 87.3999 -3.82939 0.586191 0
M  V30 839 H 87.8139 -4.49896 2.69618 0
M  V30 840 H 89.2879 -5.38099 1.231 0
M  V30 841 H 89.7649 -4.38959 -0.145359 0
M  V30 842 H 90.3709 -3.98796 1.47789 0
M  V30 843 N 88.686 -0.835752 -1.33615 0
M  V30 844 C 89.616 -0.281739 -2.31794 0
M  V30 845 C 90.597 0.608833 -1.58831 0
M  V30 846 O 91.782 0.533035 -1.86741 0
M  V30 847 C 88.912 0.546612 -3.42971 0
M  V30 848 C 87.866 -0.247904 -4.27281 0
M  V30 849 C 87.192 0.704001 -5.30045 0
M  V30 850 C 88.492 -1.46324 -5.01385 0
M  V30 851 H 90.186 -1.10206 -2.78379 0
M  V30 852 H 87.732 -0.531388 -1.33837 0
M  V30 853 H 89.685 0.944467 -4.1068 0
M  V30 854 H 88.409 1.40011 -2.95067 0
M  V30 855 H 87.068 -0.627281 -3.61194 0
M  V30 856 H 86.716 1.55381 -4.78399 0
M  V30 857 H 86.416 0.176524 -5.87335 0
M  V30 858 H 87.94 1.09944 -6.0062 0
M  V30 859 H 89.354 -1.13871 -5.61877 0
M  V30 860 H 87.751 -1.92728 -5.6831 0
M  V30 861 H 88.821 -2.23467 -4.30338 0
M  V30 862 N 90.1641 1.46063 -0.591896 0
M  V30 863 C 91.0741 2.34192 0.13831 0
M  V30 864 C 92.0901 1.50305 0.876608 0
M  V30 865 O 93.2661 1.8315 0.837728 0
M  V30 866 C 90.3311 3.27656 1.13326 0
M  V30 867 C 89.3921 4.27445 0.39863 0
M  V30 868 C 88.6251 5.16443 1.34618 0
M  V30 869 O 88.8481 5.08553 2.58321 0
M  V30 870 O 87.7821 5.95843 0.851768 0
M  V30 871 H 91.6081 2.98002 -0.58552 0
M  V30 872 H 89.1931 1.45188 -0.352239 0
M  V30 873 H 91.0751 3.85291 1.70671 0
M  V30 874 H 89.7501 2.6643 1.83839 0
M  V30 875 H 88.6571 3.73471 -0.216895 0
M  V30 876 H 89.9901 4.91482 -0.265709 0
M  V30 877 N 91.6422 0.330177 1.54103 0
M  V30 878 C 92.5722 -0.525353 2.27513 0
M  V30 879 C 93.5532 -1.11383 1.2856 0
M  V30 880 O 94.7382 -1.13773 1.57383 0
M  V30 881 C 91.8682 -1.6831 3.03791 0
M  V30 882 C 90.8222 -1.2236 4.10137 0
M  V30 883 C 90.1482 -2.46882 4.74293 0
M  V30 884 C 91.4482 -0.333697 5.21233 0
M  V30 885 H 93.1422 0.087013 2.99274 0
M  V30 886 H 90.6882 0.0432893 1.43935 0
M  V30 887 H 92.6412 -2.28795 3.5388 0
M  V30 888 H 91.3652 -2.32216 2.29659 0
M  V30 889 H 90.0242 -0.64165 3.60941 0
M  V30 890 H 89.6722 -3.09165 3.96769 0
M  V30 891 H 89.3722 -2.16825 5.46133 0
M  V30 892 H 90.8962 -3.08117 5.27159 0
M  V30 893 H 92.3102 -0.845013 5.67038 0
M  V30 894 H 90.7072 -0.125612 5.99969 0
M  V30 895 H 91.7772 0.633724 4.80741 0
M  V30 896 N 93.1203 -1.57491 0.0584922 0
M  V30 897 C 94.5313 -1.80526 -0.476138 0
M  V30 898 C 94.8823 -0.971334 -1.70469 0
M  V30 899 O 94.0073 -0.190012 -2.15564 0
M  V30 900 C 94.6023 -3.27424 -0.870587 0
M  V30 901 C 93.1613 -3.51351 -1.35015 0
M  V30 902 C 92.3083 -2.75343 -0.32887 0
M  V30 903 H 95.2593 -1.56133 0.284312 0
M  V30 904 H 95.2803 -3.38745 -1.73299 0
M  V30 905 H 94.7923 -3.88093 0.0237627 0
M  V30 906 H 92.8933 -2.95971 -2.26345 0
M  V30 907 H 93.0063 -4.60059 -1.33726 0
M  V30 908 H 91.3703 -2.417 -0.803321 0
M  V30 909 H 92.1533 -3.38743 0.557521 0
M  V30 910 N 94.5984 0.214957 -1.56127 0
M  V30 911 C 95.8754 0.963093 -1.70247 0
M  V30 912 C 96.2554 2.02166 -0.60764 0
M  V30 913 O 95.6034 2.25244 0.384385 0
M  V30 914 C 95.8134 1.56756 -3.11815 0
M  V30 915 C 97.1614 2.0573 -3.7143 0
M  V30 916 O 98.1854 1.66637 -3.14818 0
M  V30 917 O 97.0444 2.77603 -4.70743 0
M  V30 918 H 94.1384 0.450321 -0.693643 0
M  V30 919 H 96.6844 0.206219 -1.68442 0
M  V30 920 H 95.4564 0.803533 -3.82961 0
M  V30 921 H 95.0794 2.3898 -3.17765 0
M  V30 922 N 96.0765 1.50051 0.48192 0
M  V30 923 C 97.3015 1.64508 1.26301 0
M  V30 924 C 97.7265 0.323851 1.85291 0
M  V30 925 O 97.0845 -0.710969 1.66778 0
M  V30 926 C 97.1325 2.7305 2.35533 0
M  V30 927 O 96.2365 2.3355 3.39895 0
M  V30 928 H 95.5775 0.549978 0.372048 0
M  V30 929 H 98.1075 1.9636 0.574786 0
M  V30 930 H 98.1175 2.95799 2.8101 0
M  V30 931 H 96.7925 3.68946 1.91967 0
M  V30 932 H 95.3695 2.21205 3.00204 0
M  V30 933 N 97.5546 -0.734337 1.39446 0
M  V30 934 C 98.7796 -1.52866 1.40167 0
M  V30 935 C 99.2046 -1.881 -0.00171513 0
M  V30 936 O 98.5626 -1.51957 -0.988879 0
M  V30 937 C 98.6106 -2.79235 2.28167 0
M  V30 938 O 97.7146 -3.75185 1.71201 0
M  V30 939 H 97.0556 -0.461618 0.477289 0
M  V30 940 H 99.5856 -0.905949 1.8345 0
M  V30 941 H 99.5956 -3.27963 2.42702 0
M  V30 942 H 98.2706 -2.52923 3.30156 0
M  V30 943 H 96.8476 -3.33958 1.65912 0
M  V30 944 N 99.0327 -1.24633 -0.964593 0
M  V30 945 C 100.449 -1.01239 -1.2338 0
M  V30 946 C 100.649 0.2769 -1.99588 0
M  V30 947 O 99.7047 0.992241 -2.32187 0
M  V30 948 C 101.018 -2.22937 -2.01791 0
M  V30 949 C 102.566 -2.27594 -2.14872 0
M  V30 950 C 103.041 -3.48921 -2.96678 0
M  V30 951 N 104.532 -3.49257 -3.04259 0
M  V30 952 C 105.267 -4.39795 -3.67924 0
M  V30 953 N 104.763 -5.40591 -4.33281 0
M  V30 954 N 106.556 -4.275 -3.64966 0
M  V30 955 H 98.7067 -2.0748 -0.454502 0
M  V30 956 H 100.97 -0.910647 -0.26349 0
M  V30 957 H 100.676 -3.16587 -1.53184 0
M  V30 958 H 100.55 -2.25306 -3.02518 0
M  V30 959 H 102.937 -1.34473 -2.6268 0
M  V30 960 H 103.018 -2.2925 -1.13482 0
M  V30 961 H 102.662 -4.42359 -2.49562 0
M  V30 962 H 102.592 -3.4451 -3.98272 0
M  V30 963 H 105.083 -2.76337 -2.57771 0
M  V30 964 H 105.396 -6.05904 -4.79687 0
M  V30 965 H 103.741 -5.44475 -4.3194 0
M  V30 966 H 106.932 -3.47987 -3.13086 0
M  V30 967 H 107.105 -4.98258 -4.14298 0
M  V30 968 N 100.511 1.16574 -1.06058 0
M  V30 969 C 101.474 2.19085 -0.673392 0
M  V30 970 C 102.474 1.5835 0.279648 0
M  V30 971 O 103.664 1.74088 0.0623488 0
M  V30 972 C 100.796 3.40899 0.00954234 0
M  V30 973 H 101.989 2.54853 -1.58081 0
M  V30 974 H 99.5418 1.30808 -0.855516 0
M  V30 975 H 100.277 3.10684 0.929826 0
M  V30 976 H 100.062 3.86233 -0.67573 0
M  V30 977 H 101.552 4.1675 0.266245 0
M  V30 978 N 101.989 0.842826 1.3317 0
M  V30 979 C 102.919 0.294028 2.31641 0
M  V30 980 C 103.9 -0.600401 1.59151 0
M  V30 981 O 105.085 -0.523124 1.87022 0
M  V30 982 C 102.215 -0.528416 3.43257 0
M  V30 983 C 101.169 0.27056 4.27144 0
M  V30 984 C 100.495 -0.675881 5.30411 0
M  V30 985 C 101.795 1.48981 5.00602 0
M  V30 986 H 103.489 1.11681 2.77791 0
M  V30 987 H 101.035 0.538478 1.33553 0
M  V30 988 H 102.988 -0.922674 4.11175 0
M  V30 989 H 101.712 -1.38445 2.95805 0
M  V30 990 H 100.371 0.646427 3.60856 0
M  V30 991 H 100.019 -1.52842 4.79216 0
M  V30 992 H 99.7189 -0.145374 5.8742 0
M  V30 993 H 101.243 -1.06757 6.01195 0
M  V30 994 H 102.657 1.16849 5.61266 0
M  V30 995 H 101.054 1.95739 5.6728 0
M  V30 996 H 102.124 2.25746 4.29147 0
M  V30 997 N 103.467 -1.45747 0.599634 0
M  V30 998 C 104.397 -2.33235 -0.111306 0
M  V30 999 C 105.378 -1.46359 -0.866781 0
M  V30 1000 O 106.563 -1.75146 -0.838904 0
M  V30 1001 C 103.693 -3.28932 -1.11451 0
M  V30 1002 C 102.647 -4.25381 -0.472772 0
M  V30 1003 C 101.973 -5.1071 -1.58365 0
M  V30 1004 C 103.273 -5.18831 0.600948 0
M  V30 1005 H 104.967 -2.92927 0.61919 0
M  V30 1006 H 102.513 -1.40857 0.299215 0
M  V30 1007 H 104.466 -3.89002 -1.62036 0
M  V30 1008 H 103.19 -2.67381 -1.8755 0
M  V30 1009 H 101.849 -3.66598 0.0121472 0
M  V30 1010 H 101.497 -4.45533 -2.33473 0
M  V30 1011 H 101.197 -5.7604 -1.15982 0
M  V30 1012 H 102.721 -5.73647 -2.09194 0
M  V30 1013 H 104.135 -5.73019 0.179491 0
M  V30 1014 H 102.532 -5.92595 0.946076 0
M  V30 1015 H 103.602 -4.6174 1.48068 0
M  V30 1016 N 104.945 -0.338344 -1.53925 0
M  V30 1017 C 105.875 0.51328 -2.27789 0
M  V30 1018 C 106.856 1.107 -1.29149 0
M  V30 1019 O 108.041 1.12937 -1.57984 0
M  V30 1020 C 105.171 1.66697 -3.04679 0
M  V30 1021 C 104.125 1.20183 -4.1078 0
M  V30 1022 C 103.451 2.44363 -4.75595 0
M  V30 1023 C 104.751 0.30605 -5.21403 0
M  V30 1024 H 106.445 -0.102883 -2.99223 0
M  V30 1025 H 103.991 -0.0509219 -1.4391 0
M  V30 1026 H 105.944 2.26915 -3.55088 0
M  V30 1027 H 104.668 2.30995 -2.30887 0
M  V30 1028 H 103.327 0.622499 -3.61276 0
M  V30 1029 H 102.975 3.07057 -3.98403 0
M  V30 1030 H 102.675 2.13925 -5.47275 0
M  V30 1031 H 104.199 3.05317 -5.28786 0
M  V30 1032 H 105.613 0.814929 -5.67478 0
M  V30 1033 H 104.01 0.0937929 -6.00027 0
M  V30 1034 H 105.08 -0.65921 -4.80398 0
M  V30 1035 N 106.423 1.57458 -0.0668435 0
M  V30 1036 C 107.671 1.92919 0.602214 0
M  V30 1037 C 107.992 0.947215 1.70449 0
M  V30 1038 O 107.262 -0.00544117 1.95899 0
M  V30 1039 H 105.842 0.71217 0.22544 0
M  V30 1040 H 108.504 1.94508 -0.123535 0
M  V30 1041 H 107.6 2.94589 1.03073 0
M  V30 1042 N 107.901 -0.206675 1.56239 0
M  V30 1043 C 109.147 -0.925733 1.81113 0
M  V30 1044 C 109.502 -1.81368 0.642135 0
M  V30 1045 O 108.795 -1.88126 -0.363211 0
M  V30 1046 C 108.989 -1.78675 3.09532 0
M  V30 1047 C 108.818 -0.98365 4.3881 0
M  V30 1048 C 107.588 -0.672661 5.00803 0
M  V30 1049 C 109.786 -0.341847 5.13163 0
M  V30 1050 N 107.768 0.150283 6.13716 0
M  V30 1051 C 109.139 0.343815 6.19046 0
M  V30 1052 C 111.194 -0.256392 4.97239 0
M  V30 1053 C 109.897 1.10678 7.10734 0
M  V30 1054 C 111.923 0.493142 5.8934 0
M  V30 1055 C 111.285 1.16729 6.94661 0
M  V30 1056 H 107.384 -0.318524 0.714189 0
M  V30 1057 H 109.968 -0.195378 1.93717 0
M  V30 1058 H 108.139 -2.4888 2.98183 0
M  V30 1059 H 109.871 -2.44441 3.22538 0
M  V30 1060 H 106.626 -0.994294 4.63045 0
M  V30 1061 H 107.05 0.551026 6.74754 0
M  V30 1062 H 111.692 -0.763249 4.15854 0
M  V30 1063 H 109.41 1.6251 7.91591 0
M  V30 1064 H 112.996 0.560465 5.79094 0
M  V30 1065 H 111.876 1.738 7.64698 0
M  V30 1066 N 109.379 -1.50304 -0.473955 0
M  V30 1067 C 110.625 -1.61389 -1.22806 0
M  V30 1068 C 110.958 -0.311955 -1.91678 0
M  V30 1069 O 110.233 0.686384 -1.81986 0
M  V30 1070 C 110.516 -2.79219 -2.27396 0
M  V30 1071 C 110.369 -4.19286 -1.62848 0
M  V30 1072 C 111.688 -2.92614 -3.28732 0
M  V30 1073 H 108.807 -0.587399 -0.445119 0
M  V30 1074 H 111.449 -1.82681 -0.522265 0
M  V30 1075 H 109.599 -2.61195 -2.87592 0
M  V30 1076 H 111.271 -4.48892 -1.06271 0
M  V30 1077 H 109.514 -4.23677 -0.931693 0
M  V30 1078 H 110.185 -4.97655 -2.38838 0
M  V30 1079 H 112.661 -3.09105 -2.78556 0
M  V30 1080 H 111.537 -3.76688 -3.99246 0
M  V30 1081 H 111.798 -2.03107 -3.92683 0
M  V30 1082 N 110.857 0.726932 -1.39834 0
M  V30 1083 C 112.268 1.30558 -1.3346 0
M  V30 1084 C 112.619 1.962 -0.00273003 0
M  V30 1085 O 111.744 1.96826 0.899371 0
M  V30 1086 C 112.339 2.37404 -2.41713 0
M  V30 1087 C 110.898 2.90921 -2.38835 0
M  V30 1088 C 110.045 1.64578 -2.2318 0
M  V30 1089 H 112.996 0.523862 -1.49804 0
M  V30 1090 H 113.017 3.17984 -2.08966 0
M  V30 1091 H 112.529 1.89599 -3.38635 0
M  V30 1092 H 110.63 3.42985 -1.45575 0
M  V30 1093 H 110.743 3.43487 -3.33997 0
M  V30 1094 H 109.107 1.89219 -1.70494 0
M  V30 1095 H 109.89 1.18814 -3.22084 0
M  V30 1096 N 112.336 1.25143 0.95797 0
M  V30 1097 C 113.564 1.12424 1.73691 0
M  V30 1098 C 113.979 -0.322304 1.86029 0
M  V30 1099 O 113.336 -1.22186 1.35561 0
M  V30 1100 C 113.387 1.76933 3.15241 0
M  V30 1101 O 113.108 3.15932 3.03511 0
M  V30 1102 C 114.609 1.6995 4.09429 0
M  V30 1103 H 111.829 0.3923 0.544373 0
M  V30 1104 H 114.373 1.6544 1.20207 0
M  V30 1105 H 112.528 1.27895 3.6568 0
M  V30 1106 H 112.942 3.47598 3.9278 0
M  V30 1107 H 114.416 2.19753 5.06372 0
M  V30 1108 H 114.893 0.662619 4.34173 0
M  V30 1109 H 115.499 2.18461 3.64904 0
M  V30 1110 N 113.814 -1.1601 1.06675 0
M  V30 1111 C 115.23 -1.38622 0.790948 0
M  V30 1112 C 115.43 -1.92109 -0.607965 0
M  V30 1113 O 114.486 -2.12239 -1.36787 0
M  V30 1114 C 115.799 -2.36347 1.85905 0
M  V30 1115 C 117.347 -2.50023 1.88301 0
M  V30 1116 C 117.822 -3.51033 2.94176 0
M  V30 1117 N 119.313 -3.58563 2.93235 0
M  V30 1118 C 120.048 -4.36521 3.71803 0
M  V30 1119 N 119.544 -5.17869 4.602 0
M  V30 1120 N 121.337 -4.31541 3.60178 0
M  V30 1121 H 113.488 -0.796294 1.96908 0
M  V30 1122 H 115.751 -0.412597 0.853503 0
M  V30 1123 H 115.457 -2.04147 2.86386 0
M  V30 1124 H 115.331 -3.36042 1.71334 0
M  V30 1125 H 117.718 -2.81524 0.884769 0
M  V30 1126 H 117.799 -1.5035 2.06951 0
M  V30 1127 H 117.443 -3.20268 3.94196 0
M  V30 1128 H 117.373 -4.50445 2.72776 0
M  V30 1129 H 119.864 -3.00496 2.29152 0
M  V30 1130 H 120.177 -5.74578 5.16797 0
M  V30 1131 H 118.522 -5.17199 4.64253 0
M  V30 1132 H 121.713 -3.67051 2.90502 0
M  V30 1133 H 121.886 -4.9205 4.21653 0
M  V30 1134 N 115.292 -0.849877 -1.32721 0
M  V30 1135 C 116.222 -0.306308 -2.31482 0
M  V30 1136 C 117.203 0.591952 -1.59468 0
M  V30 1137 O 118.388 0.513199 -1.87296 0
M  V30 1138 C 115.518 0.510204 -3.43532 0
M  V30 1139 C 114.472 -0.293209 -4.26994 0
M  V30 1140 C 113.798 0.647743 -5.30762 0
M  V30 1141 C 115.098 -1.51634 -4.99804 0
M  V30 1142 H 116.792 -1.13153 -2.77195 0
M  V30 1143 H 114.338 -0.545553 -1.33266 0
M  V30 1144 H 116.291 0.900856 -4.11658 0
M  V30 1145 H 115.015 1.36874 -2.96535 0
M  V30 1146 H 113.674 -0.665555 -3.60508 0
M  V30 1147 H 113.322 1.50299 -4.8002 0
M  V30 1148 H 113.022 0.11422 -5.87489 0
M  V30 1149 H 114.546 1.03567 -6.01753 0
M  V30 1150 H 115.96 -1.19824 -5.60638 0
M  V30 1151 H 114.357 -1.98745 -5.66234 0
M  V30 1152 H 115.427 -2.28018 -4.27943 0
M  V30 1153 N 116.77 1.45427 -0.607355 0
M  V30 1154 C 118.016 2.0254 -0.102607 0
M  V30 1155 C 118.349 1.47478 1.26348 0
M  V30 1156 O 117.624 0.64939 1.83339 0
M  V30 1157 C 117.907 3.60044 -0.0634347 0
M  V30 1158 C 117.76 4.2544 -1.46017 0
M  V30 1159 C 119.079 4.35646 0.624514 0
M  V30 1160 H 116.198 0.73598 -0.0387607 0
M  V30 1161 H 118.84 1.73284 -0.779282 0
M  V30 1162 H 116.99 3.85101 0.512808 0
M  V30 1163 H 118.662 4.11569 -2.08347 0
M  V30 1164 H 116.905 3.83849 -2.02094 0
M  V30 1165 H 117.576 5.34342 -1.385 0
M  V30 1166 H 120.052 4.15882 0.134723 0
M  V30 1167 H 118.928 5.45376 0.621028 0
M  V30 1168 H 119.189 4.08501 1.69055 0
M  V30 1169 N 118.248 0.346503 1.53744 0
M  V30 1170 C 119.659 -0.136779 1.86198 0
M  V30 1171 C 120.01 -1.49749 1.26766 0
M  V30 1172 O 119.135 -2.08417 0.582355 0
M  V30 1173 C 119.73 -0.254966 3.37839 0
M  V30 1174 C 118.289 -0.682482 3.70161 0
M  V30 1175 C 117.436 0.181981 2.76702 0
M  V30 1176 H 120.387 0.565994 1.48264 0
M  V30 1177 H 120.408 -1.08195 3.64793 0
M  V30 1178 H 119.92 0.735526 3.81066 0
M  V30 1179 H 118.021 -1.68189 3.3248 0
M  V30 1180 H 118.134 -0.470326 4.76786 0
M  V30 1181 H 116.498 -0.34615 2.52337 0
M  V30 1182 H 117.281 1.16966 3.2276 0
M  V30 1183 N 119.726 -1.57421 0.075193 0
M  V30 1184 C 120.689 -2.11791 -0.876203 0
M  V30 1185 C 121.689 -1.04268 -1.22412 0
M  V30 1186 O 122.879 -1.30242 -1.15684 0
M  V30 1187 C 120.011 -2.62207 -2.17854 0
M  V30 1188 H 121.204 -2.9716 -0.40444 0
M  V30 1189 H 118.757 -1.55333 -0.173557 0
M  V30 1190 H 119.492 -1.803 -2.6956 0
M  V30 1191 H 119.277 -3.40802 -1.93897 0
M  V30 1192 H 120.767 -3.04335 -2.85955 0
M  V30 1193 N 121.204 0.198386 -1.56346 0
M  V30 1194 C 122.134 1.24865 -1.9731 0
M  V30 1195 C 123.115 1.47651 -0.844576 0
M  V30 1196 O 124.3 1.59444 -1.10866 0
M  V30 1197 C 121.43 2.59358 -2.30977 0
M  V30 1198 C 120.384 2.5119 -3.46537 0
M  V30 1199 C 119.71 3.89926 -3.65871 0
M  V30 1200 C 121.01 2.03977 -4.80823 0
M  V30 1201 H 122.704 0.908252 -2.85291 0
M  V30 1202 H 120.25 0.435462 -1.37258 0
M  V30 1203 H 122.203 3.33011 -2.58228 0
M  V30 1204 H 120.927 2.95132 -1.39874 0
M  V30 1205 H 119.586 1.79993 -3.19371 0
M  V30 1206 H 119.234 4.23046 -2.72105 0
M  V30 1207 H 118.934 3.85336 -4.4361 0
M  V30 1208 H 120.458 4.65205 -3.95495 0
M  V30 1209 H 121.872 2.67386 -5.07127 0
M  V30 1210 H 120.269 2.10397 -5.62008 0
M  V30 1211 H 121.339 0.992861 -4.74626 0
M  V30 1212 N 122.682 1.50554 0.465978 0
M  V30 1213 C 123.912 1.65323 1.23903 0
M  V30 1214 C 124.32 0.338051 1.86155 0
M  V30 1215 O 123.663 -0.690518 1.70228 0
M  V30 1216 C 123.725 2.69048 2.3844 0
M  V30 1217 C 123.389 4.12462 1.96784 0
M  V30 1218 C 124.386 4.98168 1.48745 0
M  V30 1219 C 122.071 4.58407 2.05349 0
M  V30 1220 C 124.065 6.27868 1.0982 0
M  V30 1221 C 121.752 5.88112 1.66035 0
M  V30 1222 C 122.75 6.72668 1.18349 0
M  V30 1223 O 122.438 7.99951 0.795825 0
M  V30 1224 H 122.17 0.558629 0.38067 0
M  V30 1225 H 124.724 1.97561 0.562022 0
M  V30 1226 H 122.954 2.32062 3.09328 0
M  V30 1227 H 124.643 2.72985 3.0039 0
M  V30 1228 H 125.409 4.63885 1.41546 0
M  V30 1229 H 121.288 3.92735 2.41414 0
M  V30 1230 H 124.832 6.93819 0.725293 0
M  V30 1231 H 120.729 6.21914 1.72895 0
M  V30 1232 H 121.497 8.13265 0.924222 0
M  V30 1233 N 124.16 -0.719506 1.40217 0
M  V30 1234 C 125.408 -1.47641 1.3801 0
M  V30 1235 C 125.729 -1.94992 -0.018145 0
M  V30 1236 O 124.999 -1.70073 -0.972207 0
M  V30 1237 H 123.579 -0.547744 0.507923 0
M  V30 1238 H 126.241 -0.853187 1.75233 0
M  V30 1239 H 125.337 -2.35112 2.05253 0
M  V30 1240 N 125.638 -1.25649 -0.95132 0
M  V30 1241 C 126.568 -1.08808 -2.06599 0
M  V30 1242 C 127.549 0.00382547 -1.701 0
M  V30 1243 O 128.734 -0.166325 -1.93486 0
M  V30 1244 C 125.864 -0.709542 -3.39975 0
M  V30 1245 C 124.818 -1.75206 -3.90496 0
M  V30 1246 C 124.144 -1.22811 -5.20405 0
M  V30 1247 C 125.444 -3.15153 -4.16504 0
M  V30 1248 H 127.138 -2.02048 -2.20946 0
M  V30 1249 H 124.684 -0.972835 -1.06169 0
M  V30 1250 H 126.637 -0.578649 -4.17408 0
M  V30 1251 H 125.361 0.258556 -3.25575 0
M  V30 1252 H 124.02 -1.87145 -3.15234 0
M  V30 1253 H 123.668 -0.250145 -5.02378 0
M  V30 1254 H 123.368 -1.92492 -5.55176 0
M  V30 1255 H 124.892 -1.10968 -6.00432 0
M  V30 1256 H 126.306 -3.06349 -4.84586 0
M  V30 1257 H 124.703 -3.82333 -4.62538 0
M  V30 1258 H 125.773 -3.61966 -3.22658 0
M  V30 1259 N 127.117 1.15442 -1.07289 0
M  V30 1260 C 128.363 1.86489 -0.796846 0
M  V30 1261 C 128.696 1.82078 0.675371 0
M  V30 1262 O 127.971 1.24346 1.4956 0
M  V30 1263 C 128.254 3.35626 -1.30489 0
M  V30 1264 C 128.107 3.48673 -2.84161 0
M  V30 1265 C 129.426 4.30357 -0.920907 0
M  V30 1266 H 126.545 0.677144 -0.290939 0
M  V30 1267 H 129.187 1.35633 -1.33056 0
M  V30 1268 H 127.337 3.79068 -0.850883 0
M  V30 1269 H 129.009 3.14099 -3.37846 0
M  V30 1270 H 127.252 2.90253 -3.22391 0
M  V30 1271 H 127.923 4.53453 -3.14777 0
M  V30 1272 H 130.399 3.94871 -1.3121 0
M  V30 1273 H 129.275 5.33193 -1.30372 0
M  V30 1274 H 129.536 4.4176 0.173226 0
M  V30 1275 N 128.595 0.856903 1.32268 0
M  V30 1276 C 129.525 0.31858 2.31316 0
M  V30 1277 C 130.506 -0.583487 1.59779 0
M  V30 1278 O 131.691 -0.503259 1.87566 0
M  V30 1279 C 128.821 -0.491979 3.43798 0
M  V30 1280 C 127.775 0.315849 4.26833 0
M  V30 1281 C 127.101 -0.619586 5.31098 0
M  V30 1282 C 128.401 1.54282 4.98993 0
M  V30 1283 H 130.095 1.14621 2.76591 0
M  V30 1284 H 127.641 0.552613 1.32974 0
M  V30 1285 H 129.594 -0.879012 4.1213 0
M  V30 1286 H 128.318 -1.35299 2.97257 0
M  V30 1287 H 126.977 0.684664 3.6015 0
M  V30 1288 H 126.625 -1.47751 4.8081 0
M  V30 1289 H 126.325 -0.0830621 5.87541 0
M  V30 1290 H 127.849 -1.00375 6.02293 0
M  V30 1291 H 129.263 1.22796 5.59995 0
M  V30 1292 H 127.66 2.01745 5.65172 0
M  V30 1293 H 128.73 2.30285 4.26728 0
M  V30 1294 N 130.073 -1.45103 0.615059 0
M  V30 1295 C 131.319 -2.02483 0.113347 0
M  V30 1296 C 131.652 -1.48146 -1.25564 0
M  V30 1297 O 130.927 -0.659104 -1.82992 0
M  V30 1298 C 131.21 -3.60005 0.0825278 0
M  V30 1299 C 131.063 -4.2466 1.48271 0
M  V30 1300 C 132.382 -4.35972 -0.601401 0
M  V30 1301 H 129.501 -0.735764 0.0426632 0
M  V30 1302 H 132.143 -1.72868 0.788461 0
M  V30 1303 H 130.293 -3.85367 -0.492378 0
M  V30 1304 H 131.965 -4.10458 2.10527 0
M  V30 1305 H 130.208 -3.82772 2.04127 0
M  V30 1306 H 130.879 -5.336 1.41332 0
M  V30 1307 H 133.355 -4.15947 -0.112666 0
M  V30 1308 H 132.231 -5.45697 -0.592097 0
M  V30 1309 H 132.492 -4.09391 -1.66887 0
M  V30 1310 N 131.551 -0.354651 -1.53558 0
M  V30 1311 C 132.797 0.238797 -2.01389 0
M  V30 1312 C 133.13 1.49309 -1.2418 0
M  V30 1313 O 132.405 1.91638 -0.332457 0
M  V30 1314 C 132.688 0.541771 -3.56001 0
M  V30 1315 C 132.541 -0.725388 -4.43912 0
M  V30 1316 C 133.86 1.34685 -4.18984 0
M  V30 1317 H 130.979 0.0853177 -0.732045 0
M  V30 1318 H 133.621 -0.477384 -1.83905 0
M  V30 1319 H 131.771 1.15189 -3.71031 0
M  V30 1320 H 133.443 -1.36313 -4.407 0
M  V30 1321 H 131.686 -1.34801 -4.12324 0
M  V30 1322 H 132.357 -0.468505 -5.50008 0
M  V30 1323 H 134.833 0.830837 -4.07721 0
M  V30 1324 H 133.709 1.52759 -5.27215 0
M  V30 1325 H 133.97 2.35221 -3.74331 0
M  V30 1326 N 133.029 1.57378 -0.0835403 0
M  V30 1327 C 134.277 1.93547 0.581718 0
M  V30 1328 C 134.598 0.96524 1.69435 0
M  V30 1329 O 133.868 0.0153369 1.95894 0
M  V30 1330 H 132.448 0.714521 0.217874 0
M  V30 1331 H 135.11 1.94366 -0.144158 0
M  V30 1332 H 134.206 2.95665 0.999423 0
M  V30 1333 N 134.507 -0.190092 1.56449 0
M  V30 1334 C 135.437 -1.23816 1.97969 0
M  V30 1335 C 136.418 -1.47201 0.852395 0
M  V30 1336 O 137.603 -1.58854 1.1171 0
M  V30 1337 C 134.733 -2.5813 2.3235 0
M  V30 1338 C 133.687 -2.49348 3.47864 0
M  V30 1339 C 133.013 -3.8798 3.67934 0
M  V30 1340 C 134.313 -2.01424 4.81898 0
M  V30 1341 H 136.007 -0.89311 2.85769 0
M  V30 1342 H 133.553 -0.428177 1.37487 0
M  V30 1343 H 135.506 -3.31637 2.59991 0
M  V30 1344 H 134.23 -2.94386 1.41438 0
M  V30 1345 H 132.889 -1.78297 3.20321 0
M  V30 1346 H 132.537 -4.21597 2.74344 0
M  V30 1347 H 132.237 -3.82978 4.45648 0
M  V30 1348 H 133.761 -4.63101 3.97957 0
M  V30 1349 H 135.175 -2.64693 5.08538 0
M  V30 1350 H 133.572 -2.07413 5.63116 0
M  V30 1351 H 134.642 -0.967677 4.75146 0
M  V30 1352 N 135.985 -1.50799 -0.457987 0
M  V30 1353 C 137.396 -1.55152 -1.0385 0
M  V30 1354 C 137.747 -0.362719 -1.92818 0
M  V30 1355 O 136.872 0.522915 -2.09987 0
M  V30 1356 C 137.467 -2.81173 -1.89017 0
M  V30 1357 C 136.026 -2.88164 -2.42154 0
M  V30 1358 C 135.173 -2.49591 -1.20829 0
M  V30 1359 H 138.124 -1.56874 -0.240068 0
M  V30 1360 H 138.145 -2.63769 -2.74238 0
M  V30 1361 H 137.657 -3.67677 -1.24238 0
M  V30 1362 H 135.758 -2.06042 -3.10447 0
M  V30 1363 H 135.871 -3.91356 -2.76364 0
M  V30 1364 H 134.235 -2.02322 -1.54719 0
M  V30 1365 H 135.018 -3.38418 -0.576927 0
M  V30 1366 N 137.463 0.71206 -1.40597 0
M  V30 1367 C 138.426 1.80785 -1.40888 0
M  V30 1368 C 139.426 1.57937 -0.302103 0
M  V30 1369 O 140.616 1.64913 -0.561182 0
M  V30 1370 C 137.748 3.18927 -1.20409 0
M  V30 1371 H 138.941 1.81924 -2.38419 0
M  V30 1372 H 136.494 0.91805 -1.26497 0
M  V30 1373 H 137.229 3.23436 -0.236522 0
M  V30 1374 H 137.014 3.36911 -2.00582 0
M  V30 1375 H 138.504 3.98949 -1.23408 0
M  V30 1376 N 138.941 1.26152 0.944643 0
M  V30 1377 C 139.889 1.07215 2.06417 0
M  V30 1378 C 140.883 9.2007e-05 1.694 0
M  V30 1379 O 142.089 0.1565 1.79318 0
M  V30 1380 H 138.464 0.329837 0.675805 0
M  V30 1381 H 140.435 2.02099 2.19541 0
M  V30 1382 C 139.184 0.718197 3.40202 0
M  V30 1383 H 138.507 1.53497 3.69159 0
M  V30 1384 H 139.947 0.625459 4.19361 0
M  V30 1385 C 138.406 -0.576435 3.31932 0
M  V30 1386 O 138.936 -1.61574 3.67773 0
M  V30 1387 N 137.142 -0.565781 2.85039 0
M  V30 1388 H 136.689 0.280367 2.5607 0
M  V30 1389 H 136.647 -1.43213 2.79888 0
M  V30 1390 N 140.419 -1.14872 1.07899 0
M  V30 1391 C 141.667 -1.85422 0.803941 0
M  V30 1392 C 141.988 -1.83051 -0.67211 0
M  V30 1393 O 141.258 -1.27532 -1.48703 0
M  V30 1394 H 139.838 -0.686537 0.294408 0
M  V30 1395 H 142.5 -1.39226 1.3639 0
M  V30 1396 H 141.596 -2.90399 1.14346 0
M  V30 1397 N 141.898 -0.863906 -1.31812 0
M  V30 1398 C 142.828 -0.330843 -2.31144 0
M  V30 1399 C 143.809 0.575005 -1.60087 0
M  V30 1400 O 144.994 0.493304 -1.8783 0
M  V30 1401 C 142.124 0.47374 -3.44054 0
M  V30 1402 C 141.078 -0.338481 -4.26659 0
M  V30 1403 C 140.404 0.591412 -5.31419 0
M  V30 1404 C 141.704 -1.56926 -4.98168 0
M  V30 1405 H 143.398 -1.16086 -2.75979 0
M  V30 1406 H 140.944 -0.559657 -1.32679 0
M  V30 1407 H 142.897 0.857143 -4.12591 0
M  V30 1408 H 141.621 1.33721 -2.9797 0
M  V30 1409 H 140.28 -0.703754 -3.59782 0
M  V30 1410 H 139.928 1.45199 -4.81587 0
M  V30 1411 H 139.628 0.0519022 -5.87577 0
M  V30 1412 H 141.152 0.97179 -6.02817 0
M  V30 1413 H 142.566 -1.25764 -5.59336 0
M  V30 1414 H 140.963 -2.04739 -5.64094 0
M  V30 1415 H 142.033 -2.32544 -4.25501 0
M  V30 1416 N 143.376 1.44774 -0.622745 0
M  V30 1417 C 144.339 2.29069 0.0774015 0
M  V30 1418 C 145.339 1.4059 0.780461 0
M  V30 1419 O 146.529 1.62551 0.626322 0
M  V30 1420 C 143.661 3.21974 1.12006 0
M  V30 1421 H 144.854 2.92459 -0.663901 0
M  V30 1422 H 142.407 1.51548 -0.382486 0
M  V30 1423 H 143.142 2.63417 1.89162 0
M  V30 1424 H 142.927 3.87168 0.619951 0
M  V30 1425 H 144.417 3.85318 1.60995 0
M  V30 1426 N 144.854 0.36279 1.53368 0
M  V30 1427 C 145.784 -0.476976 2.28576 0
M  V30 1428 C 146.765 -1.08631 1.30894 0
M  V30 1429 O 147.95 -1.10409 1.59761 0
M  V30 1430 C 145.08 -1.61828 3.07293 0
M  V30 1431 C 144.034 -1.13633 4.1264 0
M  V30 1432 C 143.36 -2.36766 4.79423 0
M  V30 1433 C 144.66 -0.223061 5.21823 0
M  V30 1434 H 146.354 0.150474 2.99022 0
M  V30 1435 H 143.9 0.0738103 1.43811 0
M  V30 1436 H 145.853 -2.21237 3.58653 0
M  V30 1437 H 144.577 -2.27292 2.34533 0
M  V30 1438 H 143.236 -0.564945 3.62221 0
M  V30 1439 H 142.884 -3.0068 4.03238 0
M  V30 1440 H 142.584 -2.05192 5.50609 0
M  V30 1441 H 144.108 -2.96865 5.33576 0
M  V30 1442 H 145.522 -0.724545 5.68703 0
M  V30 1443 H 143.919 0.001678 6.001 0
M  V30 1444 H 144.989 0.735553 4.79289 0
M  V30 1445 N 146.332 -1.57332 0.0918853 0
M  V30 1446 C 147.578 -1.95328 -0.567313 0
M  V30 1447 C 147.933 -0.972866 -1.65991 0
M  V30 1448 O 147.226 0.00166256 -1.916 0
M  V30 1449 C 147.42 -3.37689 -1.17051 0
M  V30 1450 C 147.249 -4.49489 -0.137875 0
M  V30 1451 C 146.019 -5.04498 0.284515 0
M  V30 1452 C 148.217 -5.10393 0.63271 0
M  V30 1453 N 146.199 -5.99853 1.30576 0
M  V30 1454 C 147.57 -6.01435 1.50587 0
M  V30 1455 C 149.625 -4.93143 0.68658 0
M  V30 1456 C 148.328 -6.77077 2.42815 0
M  V30 1457 C 150.354 -5.69445 1.59645 0
M  V30 1458 C 149.716 -6.60151 2.45725 0
M  V30 1459 H 145.815 -0.761467 -0.178023 0
M  V30 1460 H 148.399 -1.93924 0.173706 0
M  V30 1461 H 146.57 -3.39793 -1.88136 0
M  V30 1462 H 148.302 -3.62872 -1.79181 0
M  V30 1463 H 145.057 -4.73489 -0.102593 0
M  V30 1464 H 145.481 -6.52231 1.81449 0
M  V30 1465 H 150.123 -4.22785 0.035244 0
M  V30 1466 H 147.841 -7.46699 3.08975 0
M  V30 1467 H 151.427 -5.58112 1.64323 0
M  V30 1468 H 150.307 -7.18159 3.14987 0
M  V30 1469 N 147.81 0.181792 -1.56548 0
M  V30 1470 C 149.056 0.901431 -1.81665 0
M  V30 1471 C 149.389 1.82347 -0.668075 0
M  V30 1472 O 148.664 1.91669 0.330615 0
M  V30 1473 C 148.947 1.70618 -3.17115 0
M  V30 1474 C 148.8 0.807964 -4.42484 0
M  V30 1475 C 150.119 2.67605 -3.49393 0
M  V30 1476 H 147.238 0.32627 -0.660846 0
M  V30 1477 H 149.88 0.168134 -1.89255 0
M  V30 1478 H 148.03 2.33133 -3.10775 0
M  V30 1479 H 149.702 0.19649 -4.60881 0
M  V30 1480 H 147.945 0.115411 -4.33646 0
M  V30 1481 H 148.616 1.40632 -5.33785 0
M  V30 1482 H 151.092 2.15218 -3.56118 0
M  V30 1483 H 149.968 3.20985 -4.45264 0
M  V30 1484 H 150.229 3.47298 -2.73563 0
M  V30 1485 N 149.288 1.51039 0.449983 0
M  V30 1486 C 150.218 1.74379 1.55288 0
M  V30 1487 C 151.199 0.593236 1.5942 0
M  V30 1488 O 152.384 0.834625 1.7535 0
M  V30 1489 C 149.514 1.85728 2.93466 0
M  V30 1490 C 148.468 3.01078 3.04197 0
M  V30 1491 C 147.794 2.97595 4.44231 0
M  V30 1492 C 149.094 4.41254 2.7945 0
M  V30 1493 H 150.788 2.66725 1.36008 0
M  V30 1494 H 148.334 1.2835 0.652864 0
M  V30 1495 H 150.287 2.0064 3.70569 0
M  V30 1496 H 149.011 0.900207 3.13949 0
M  V30 1497 H 147.67 2.85851 2.29531 0
M  V30 1498 H 147.318 1.99691 4.61663 0
M  V30 1499 H 147.018 3.75046 4.52343 0
M  V30 1500 H 148.542 3.14583 5.23326 0
M  V30 1501 H 149.956 4.56897 3.46292 0
M  V30 1502 H 148.353 5.20315 2.98985 0
M  V30 1503 H 149.423 4.52164 1.75144 0
M  V30 1504 N 150.766 -0.704594 1.40972 0
M  V30 1505 C 151.729 -1.80035 1.41845 0
M  V30 1506 C 152.729 -1.57774 0.310474 0
M  V30 1507 O 153.919 -1.64613 0.56992 0
M  V30 1508 C 151.051 -3.18284 1.22098 0
M  V30 1509 H 152.244 -1.80658 2.3938 0
M  V30 1510 H 149.797 -0.911329 1.26982 0
M  V30 1511 H 150.532 -3.23306 0.253672 0
M  V30 1512 H 150.317 -3.35843 2.02366 0
M  V30 1513 H 151.807 -3.98289 1.25522 0
M  V30 1514 N 152.244 -1.26651 -0.937939 0
M  V30 1515 C 153.472 -1.15173 -1.7188 0
M  V30 1516 C 153.887 0.292668 -1.86518 0
M  V30 1517 O 153.244 1.20014 -1.37488 0
M  V30 1518 C 153.295 -1.81925 -3.12387 0
M  V30 1519 O 153.016 -3.2072 -2.98446 0
M  V30 1520 C 154.517 -1.76442 -4.06673 0
M  V30 1521 H 151.737 -0.400911 -0.538063 0
M  V30 1522 H 154.281 -1.67332 -1.1756 0
M  V30 1523 H 152.436 -1.33696 -3.63599 0
M  V30 1524 H 152.85 -3.53802 -3.872 0
M  V30 1525 H 154.324 -2.27781 -5.02812 0
M  V30 1526 H 154.801 -0.731608 -4.33064 0
M  V30 1527 H 155.407 -2.24238 -3.61382 0
M  V30 1528 N 153.722 1.14298 -1.08507 0
M  V30 1529 C 154.654 2.1907 -0.673859 0
M  V30 1530 C 155.667 1.60381 0.279577 0
M  V30 1531 O 156.856 1.78374 0.0670754 0
M  V30 1532 C 153.956 3.38888 0.0290979 0
M  V30 1533 C 153.129 4.27103 -0.943494 0
M  V30 1534 C 152.188 5.25477 -0.275676 0
M  V30 1535 O 151.214 5.61709 -0.920401 0
M  V30 1536 N 152.416 5.7227 0.974013 0
M  V30 1537 H 155.181 2.54965 -1.57521 0
M  V30 1538 H 152.742 1.29528 -0.971287 0
M  V30 1539 H 154.734 4.01761 0.48683 0
M  V30 1540 H 153.304 3.01309 0.832555 0
M  V30 1541 H 152.524 3.61149 -1.58004 0
M  V30 1542 H 153.812 4.82905 -1.60251 0
M  V30 1543 H 153.21 5.44965 1.51755 0
M  V30 1544 H 151.767 6.37127 1.37522 0
M  V30 1545 N 155.201 0.870884 1.31352 0
M  V30 1546 C 156.164 0.332243 2.26779 0
M  V30 1547 C 157.164 -0.517302 1.52252 0
M  V30 1548 O 158.354 -0.326477 1.71113 0
M  V30 1549 C 155.486 -0.528066 3.36785 0
M  V30 1550 H 156.679 1.17469 2.75937 0
M  V30 1551 H 154.232 0.64655 1.423 0
M  V30 1552 H 154.967 -1.39167 2.92922 0
M  V30 1553 H 154.752 0.0802582 3.92018 0
M  V30 1554 H 156.242 -0.897179 4.07849 0
M  V30 1555 N 156.679 -1.44442 0.630414 0
M  V30 1556 C 158.09 -1.85434 0.217063 0
M  V30 1557 C 158.441 -1.52748 -1.23136 0
M  V30 1558 O 157.566 -0.965205 -1.93682 0
M  V30 1559 C 158.161 -3.36581 0.387168 0
M  V30 1560 C 156.72 -3.76389 0.0283297 0
M  V30 1561 C 155.867 -2.68296 0.700889 0
M  V30 1562 H 158.818 -1.34919 0.83562 0
M  V30 1563 H 158.839 -3.78657 -0.374086 0
M  V30 1564 H 158.351 -3.60339 1.44144 0
M  V30 1565 H 156.452 -3.58246 -1.02423 0
M  V30 1566 H 156.565 -4.77095 0.437892 0
M  V30 1567 H 154.929 -2.54335 0.136267 0
M  V30 1568 H 155.712 -2.94887 1.75774 0
M  V30 1569 N 158.157 -0.370918 -1.53173 0
M  V30 1570 C 159.573 -0.0200818 -1.59587 0
M  V30 1571 C 159.773 1.46279 -1.38581 0
M  V30 1572 O 158.829 2.22506 -1.19363 0
M  V30 1573 C 160.142 -0.4808 -2.96831 0
M  V30 1574 C 161.69 -0.435477 -3.09956 0
M  V30 1575 C 162.165 -0.872092 -4.4962 0
M  V30 1576 N 163.656 -0.827364 -4.55751 0
M  V30 1577 C 164.391 -1.13683 -5.62018 0
M  V30 1578 N 163.887 -1.51584 -6.76014 0
M  V30 1579 N 165.68 -1.05927 -5.52029 0
M  V30 1580 H 157.831 -1.33652 -1.65079 0
M  V30 1581 H 160.094 -0.546634 -0.774529 0
M  V30 1582 H 159.8 -1.51577 -3.1736 0
M  V30 1583 H 159.674 0.129796 -3.76977 0
M  V30 1584 H 162.061 0.590371 -2.89134 0
M  V30 1585 H 162.142 -1.08164 -2.31806 0
M  V30 1586 H 161.786 -1.89608 -4.71181 0
M  V30 1587 H 161.716 -0.203127 -5.26208 0
M  V30 1588 H 164.207 -0.548216 -3.73902 0
M  V30 1589 H 164.52 -1.73609 -7.53047 0
M  V30 1590 H 162.865 -1.55454 -6.77391 0
M  V30 1591 H 166.056 -0.762321 -4.61851 0
M  V30 1592 H 166.229 -1.30378 -6.34749 0
M  V30 1593 N 159.635 1.57281 -0.100228 0
M  V30 1594 C 160.565 2.17328 0.853857 0
M  V30 1595 C 161.546 1.10804 1.2906 0
M  V30 1596 O 162.731 1.38963 1.35657 0
M  V30 1597 C 159.861 2.75772 2.11109 0
M  V30 1598 C 158.815 3.87713 1.81279 0
M  V30 1599 C 158.141 4.32882 3.13874 0
M  V30 1600 C 159.441 5.10677 1.09574 0
M  V30 1601 H 161.135 2.97305 0.353545 0
M  V30 1602 H 158.681 1.43009 0.168612 0
M  V30 1603 H 160.634 3.16433 2.78296 0
M  V30 1604 H 159.358 1.93057 2.63432 0
M  V30 1605 H 158.017 3.476 1.16489 0
M  V30 1606 H 157.665 3.47051 3.64095 0
M  V30 1607 H 157.365 5.08358 2.94696 0
M  V30 1608 H 158.889 4.7618 3.82211 0
M  V30 1609 H 160.303 5.48474 1.66879 0
M  V30 1610 H 158.7 5.91615 1.00557 0
M  V30 1611 H 159.77 4.84835 0.0793299 0
M  V30 1612 N 161.113 -0.173488 1.56642 0
M  V30 1613 C 162.524 -0.736155 1.71574 0
M  V30 1614 C 162.875 -1.82888 0.710389 0
M  V30 1615 O 162 -2.16017 -0.1287 0
M  V30 1616 C 162.595 -1.34211 3.11083 0
M  V30 1617 C 161.154 -1.85162 3.27707 0
M  V30 1618 C 160.301 -0.729765 2.67525 0
M  V30 1619 H 163.252 0.0518786 1.58615 0
M  V30 1620 H 163.273 -2.21178 3.09613 0
M  V30 1621 H 162.785 -0.546579 3.84232 0
M  V30 1622 H 160.886 -2.67366 2.59512 0
M  V30 1623 H 160.999 -1.99855 4.35425 0
M  V30 1624 H 159.363 -1.14965 2.27278 0
M  V30 1625 H 160.146 0.0538806 3.43258 0
M  V30 1626 N 162.591 -1.51276 -0.441967 0
M  V30 1627 C 163.816 -1.67799 -1.21895 0
M  V30 1628 C 164.241 -0.372864 -1.84367 0
M  V30 1629 O 163.599 0.666501 -1.68604 0
M  V30 1630 C 163.647 -2.79199 -2.28211 0
M  V30 1631 O 162.751 -2.42479 -3.33583 0
M  V30 1632 H 162.092 -0.559649 -0.357336 0
M  V30 1633 H 164.622 -1.97815 -0.522522 0
M  V30 1634 H 164.632 -3.03146 -2.73069 0
M  V30 1635 H 163.307 -3.73906 -1.82118 0
M  V30 1636 H 161.884 -2.29087 -2.94234 0
M  V30 1637 N 164.069 0.697108 -1.41344 0
M  V30 1638 C 165.297 1.48593 -1.43972 0
M  V30 1639 C 165.712 1.88747 -0.0445612 0
M  V30 1640 O 165.069 1.56682 0.935785 0
M  V30 1641 C 165.12 2.74946 -2.34706 0
M  V30 1642 O 164.841 2.36484 -3.68791 0
M  V30 1643 C 166.342 3.687 -2.46121 0
M  V30 1644 H 163.562 0.457964 -0.490418 0
M  V30 1645 H 166.106 0.858429 -1.8561 0
M  V30 1646 H 164.261 3.33937 -1.9638 0
M  V30 1647 H 164.675 3.17918 -4.17167 0
M  V30 1648 H 166.149 4.54145 -3.13777 0
M  V30 1649 H 166.626 4.13081 -1.49199 0
M  V30 1650 H 167.232 3.15613 -2.85076 0
M  V30 1651 N 165.547 1.27147 0.931209 0
M  V30 1652 C 166.48 1.0389 2.0318 0
M  V30 1653 C 167.458 -0.0395716 1.62552 0
M  V30 1654 O 168.642 0.104867 1.88208 0
M  V30 1655 C 165.769 0.575227 3.3378 0
M  V30 1656 C 164.815 1.64774 3.93385 0
M  V30 1657 S 165.648 3.23933 4.26413 0
M  V30 1658 C 166.804 2.79358 5.60098 0
M  V30 1659 H 167.037 1.97075 2.22596 0
M  V30 1660 H 164.57 1.10938 1.07387 0
M  V30 1661 H 166.528 0.314385 4.09294 0
M  V30 1662 H 165.189 -0.336505 3.12292 0
M  V30 1663 H 164.382 1.27454 4.87618 0
M  V30 1664 H 163.984 1.86048 3.24441 0
M  V30 1665 H 166.276 2.24443 6.39243 0
M  V30 1666 H 167.219 3.72322 6.02314 0
M  V30 1667 H 167.627 2.1861 5.20452 0
M  V30 1668 N 167.025 -1.13721 1.09112 0
M  V30 1669 C 167.955 -2.21148 0.749385 0
M  V30 1670 C 168.936 -1.6792 -0.271475 0
M  V30 1671 O 170.121 -1.93693 -0.140251 0
M  V30 1672 C 167.251 -3.46905 0.165659 0
M  V30 1673 C 166.205 -4.13203 1.11567 0
M  V30 1674 C 165.531 -5.33248 0.393809 0
M  V30 1675 C 166.831 -4.60912 2.45678 0
M  V30 1676 H 168.525 -2.4999 1.64758 0
M  V30 1677 H 166.071 -1.20156 0.793626 0
M  V30 1678 H 168.024 -4.21313 -0.085466 0
M  V30 1679 H 166.748 -3.17449 -0.767714 0
M  V30 1680 H 165.407 -3.40758 1.35202 0
M  V30 1681 H 165.055 -5.00054 -0.543599 0
M  V30 1682 H 164.755 -5.78552 1.02721 0
M  V30 1683 H 166.279 -6.10413 0.150908 0
M  V30 1684 H 167.693 -5.26759 2.26269 0
M  V30 1685 H 166.09 -5.16944 3.04776 0
M  V30 1686 H 167.16 -3.75603 3.06677 0
M  V30 1687 N 168.503 -0.877838 -1.30888 0
M  V30 1688 C 169.433 -0.35534 -2.3078 0
M  V30 1689 C 170.414 0.557994 -1.60687 0
M  V30 1690 O 171.599 0.473355 -1.88343 0
M  V30 1691 C 168.729 0.437221 -3.44537 0
M  V30 1692 C 167.683 -0.383715 -4.26276 0
M  V30 1693 C 167.009 0.535014 -5.32017 0
M  V30 1694 C 168.309 -1.62201 -4.96476 0
M  V30 1695 H 170.003 -1.19007 -2.74732 0
M  V30 1696 H 167.549 -0.573698 -1.32078 0
M  V30 1697 H 169.502 0.813334 -4.13477 0
M  V30 1698 H 168.226 1.30553 -2.99372 0
M  V30 1699 H 166.885 -0.741874 -3.59015 0
M  V30 1700 H 166.533 1.40083 -4.831 0
M  V30 1701 H 166.233 -0.0104211 -5.87599 0
M  V30 1702 H 167.757 0.907799 -6.03814 0
M  V30 1703 H 169.171 -1.31689 -5.5797 0
M  V30 1704 H 167.568 -2.10711 -5.61891 0
M  V30 1705 H 168.638 -2.37044 -4.23011 0
M  V30 1706 N 169.982 1.44106 -0.638065 0
M  V30 1707 C 170.915 2.27924 0.112161 0
M  V30 1708 C 171.893 1.38945 0.844574 0
M  V30 1709 O 173.077 1.68386 0.847248 0
M  V30 1710 C 170.204 3.18029 1.16512 0
M  V30 1711 C 169.25 4.23163 0.532458 0
M  V30 1712 S 170.083 5.31131 -0.682666 0
M  V30 1713 C 171.239 6.24805 0.37013 0
M  V30 1714 H 171.472 2.91205 -0.598887 0
M  V30 1715 H 169.005 1.48394 -0.426441 0
M  V30 1716 H 170.963 3.70492 1.76766 0
M  V30 1717 H 169.624 2.53955 1.8484 0
M  V30 1718 H 168.817 4.86252 1.32571 0
M  V30 1719 H 168.419 3.74 0.00437644 0
M  V30 1720 H 170.711 6.66042 1.24071 0
M  V30 1721 H 171.654 7.07741 -0.225349 0
M  V30 1722 H 172.062 5.60154 0.699141 0
M  V30 1723 N 171.46 0.379036 1.52974 0
M  V30 1724 C 172.408 -0.476033 2.27677 0
M  V30 1725 C 173.402 -1.0719 1.31174 0
M  V30 1726 O 174.608 -1.01355 1.48752 0
M  V30 1727 H 170.983 -0.172255 0.732006 0
M  V30 1728 H 172.954 0.175615 2.97883 0
M  V30 1729 C 171.703 -1.5967 3.0887 0
M  V30 1730 H 171.026 -1.1475 3.82978 0
M  V30 1731 H 172.466 -2.16943 3.64296 0
M  V30 1732 C 170.925 -2.54682 2.20542 0
M  V30 1733 O 171.455 -3.57836 1.82527 0
M  V30 1734 N 169.661 -2.24183 1.84907 0
M  V30 1735 H 169.208 -1.40333 2.1602 0
M  V30 1736 H 169.166 -2.88006 1.26096 0
M  V30 1737 N 172.938 -1.57226 0.108567 0
M  V30 1738 C 173.868 -2.17778 -0.84232 0
M  V30 1739 C 174.849 -1.11487 -1.2847 0
M  V30 1740 O 176.034 -1.39681 -1.34918 0
M  V30 1741 C 173.164 -2.76888 -2.09644 0
M  V30 1742 C 172.118 -3.88669 -1.79221 0
M  V30 1743 C 171.444 -4.34541 -3.11574 0
M  V30 1744 C 172.744 -5.11251 -1.06864 0
M  V30 1745 H 174.438 -2.97489 -0.337774 0
M  V30 1746 H 171.984 -1.43097 -0.161025 0
M  V30 1747 H 173.937 -3.17904 -2.76614 0
M  V30 1748 H 172.661 -1.94451 -2.62405 0
M  V30 1749 H 171.32 -3.48213 -1.14644 0
M  V30 1750 H 170.968 -3.48977 -3.62249 0
M  V30 1751 H 170.668 -5.09914 -2.91996 0
M  V30 1752 H 172.192 -4.782 -3.7968 0
M  V30 1753 H 173.606 -5.49352 -1.63968 0
M  V30 1754 H 172.003 -5.9214 -0.974178 0
M  V30 1755 H 173.073 -4.8487 -0.0536168 0
M  V30 1756 N 174.416 0.165178 -1.56732 0
M  V30 1757 C 175.379 1.18822 -1.95995 0
M  V30 1758 C 176.379 1.3685 -0.84431 0
M  V30 1759 O 177.569 1.34152 -1.11126 0
M  V30 1760 C 174.701 2.5521 -2.26011 0
M  V30 1761 H 175.894 0.851825 -2.87548 0
M  V30 1762 H 173.447 0.407857 -1.50885 0
M  V30 1763 H 174.182 2.93852 -1.37191 0
M  V30 1764 H 173.967 2.43489 -3.07336 0
M  V30 1765 H 175.457 3.28927 -2.57288 0
M  V30 1766 N 175.894 1.51508 0.433938 0
M  V30 1767 C 176.857 1.72473 1.50949 0
M  V30 1768 C 177.857 0.594725 1.49398 0
M  V30 1769 O 179.047 0.862315 1.5136 0
M  V30 1770 C 176.179 1.78431 2.90474 0
M  V30 1771 H 177.372 2.68467 1.33662 0
M  V30 1772 H 174.925 1.41549 0.662836 0
M  V30 1773 H 175.66 0.842645 3.13161 0
M  V30 1774 H 175.445 2.60558 2.93005 0
M  V30 1775 H 176.935 1.96479 3.68491 0
M  V30 1776 N 177.372 -0.689602 1.41712 0
M  V30 1777 C 178.335 -1.78521 1.43746 0
M  V30 1778 C 179.335 -1.57436 0.327191 0
M  V30 1779 O 180.525 -1.64 0.587348 0
M  V30 1780 C 177.657 -3.16971 1.25467 0
M  V30 1781 H 178.85 -1.78108 2.41283 0
M  V30 1782 H 176.403 -0.89781 1.27942 0
M  V30 1783 H 177.138 -3.23019 0.287948 0
M  V30 1784 H 176.923 -3.33678 2.05917 0
M  V30 1785 H 178.413 -3.96935 1.2974 0
M  V30 1786 N 178.85 -1.27639 -0.924453 0
M  V30 1787 C 180.127 -1.04887 -1.651 0
M  V30 1788 C 180.507 0.415327 -2.06974 0
M  V30 1789 O 179.855 1.39923 -1.80648 0
M  V30 1790 C 180.065 -2.01348 -2.85061 0
M  V30 1791 C 181.413 -2.30899 -3.56329 0
M  V30 1792 O 182.437 -1.99348 -2.95193 0
M  V30 1793 O 181.296 -2.84699 -4.66485 0
M  V30 1794 H 178.39 -0.400083 -0.723784 0
M  V30 1795 H 180.936 -1.38916 -0.974703 0
M  V30 1796 H 179.708 -3.0008 -2.51133 0
M  V30 1797 H 179.331 -1.679 -3.6041 0
M  V30 1798 N 180.328 1.1314 -1.09713 0
M  V30 1799 C 181.258 2.20748 -0.761102 0
M  V30 1800 C 182.239 1.68061 0.262566 0
M  V30 1801 O 183.424 1.93765 0.129977 0
M  V30 1802 C 180.554 3.46812 -0.184054 0
M  V30 1803 C 179.508 4.12606 -1.13757 0
M  V30 1804 C 178.834 5.33031 -0.422083 0
M  V30 1805 C 180.134 4.59603 -2.48118 0
M  V30 1806 H 181.828 2.49113 -1.66082 0
M  V30 1807 H 179.374 1.19734 -0.799987 0
M  V30 1808 H 181.327 4.21353 0.0631215 0
M  V30 1809 H 180.051 3.17851 0.750868 0
M  V30 1810 H 178.71 3.40036 -1.37007 0
M  V30 1811 H 178.358 5.00335 0.517072 0
M  V30 1812 H 178.058 5.77999 -1.05788 0
M  V30 1813 H 179.582 6.10325 -0.183277 0
M  V30 1814 H 180.996 5.25552 -2.29059 0
M  V30 1815 H 179.393 5.15321 -3.07514 0
M  V30 1816 H 180.463 3.73971 -3.08665 0
M  V30 1817 N 181.806 0.884767 1.30421 0
M  V30 1818 C 182.736 0.367574 2.30589 0
M  V30 1819 C 183.717 -0.549464 1.60981 0
M  V30 1820 O 184.902 -0.46336 1.88591 0
M  V30 1821 C 182.032 -0.418944 3.44764 0
M  V30 1822 C 180.986 0.406316 4.26067 0
M  V30 1823 C 180.312 -0.506793 5.32293 0
M  V30 1824 C 181.612 1.64832 4.95608 0
M  V30 1825 H 183.306 1.20462 2.74097 0
M  V30 1826 H 180.852 0.580695 1.31772 0
M  V30 1827 H 182.805 -0.791395 4.13902 0
M  V30 1828 H 181.529 -1.28964 3.0006 0
M  V30 1829 H 180.188 0.760903 3.58617 0
M  V30 1830 H 179.836 -1.37519 4.83836 0
M  V30 1831 H 179.536 0.0415828 5.87585 0
M  V30 1832 H 181.06 -0.875764 6.04287 0
M  V30 1833 H 182.474 1.34646 5.57264 0
M  V30 1834 H 180.871 2.13688 5.60765 0
M  V30 1835 H 181.941 2.39284 4.21748 0
M  V30 1836 N 183.284 -1.43765 0.645699 0
M  V30 1837 C 184.214 -2.33471 -0.0370477 0
M  V30 1838 C 185.195 -1.49042 -0.819779 0
M  V30 1839 O 186.38 -1.77726 -0.782758 0
M  V30 1840 C 183.51 -3.32311 -1.0093 0
M  V30 1841 C 182.464 -4.2667 -0.337201 0
M  V30 1842 C 181.79 -5.1549 -1.42037 0
M  V30 1843 C 183.09 -5.16657 0.765706 0
M  V30 1844 H 184.784 -2.90809 0.712069 0
M  V30 1845 H 182.33 -1.39834 0.343876 0
M  V30 1846 H 184.283 -3.9396 -1.49578 0
M  V30 1847 H 183.007 -2.73213 -1.78948 0
M  V30 1848 H 181.666 -3.66374 0.128771 0
M  V30 1849 H 181.314 -4.52735 -2.1918 0
M  V30 1850 H 181.014 -5.79438 -0.975966 0
M  V30 1851 H 182.538 -5.80012 -1.90838 0
M  V30 1852 H 183.952 -5.72158 0.361702 0
M  V30 1853 H 182.349 -5.89286 1.13413 0
M  V30 1854 H 183.419 -4.56796 1.62683 0
M  V30 1855 N 184.763 -0.387143 -1.52771 0
M  V30 1856 C 185.726 0.436939 -2.24997 0
M  V30 1857 C 186.726 0.991991 -1.26555 0
M  V30 1858 O 187.916 0.874335 -1.50669 0
M  V30 1859 C 185.048 1.61281 -3.00335 0
M  V30 1860 H 186.241 -0.195365 -2.99263 0
M  V30 1861 H 183.794 -0.139218 -1.55679 0
M  V30 1862 H 184.529 2.2826 -2.30364 0
M  V30 1863 H 184.314 1.22154 -3.72587 0
M  V30 1864 H 185.804 2.19629 -3.5518 0
M  V30 1865 N 186.241 1.57166 -0.116904 0
M  V30 1866 C 187.171 2.18222 0.830759 0
M  V30 1867 C 188.152 1.12167 1.27877 0
M  V30 1868 O 189.337 1.40394 1.34176 0
M  V30 1869 C 186.467 2.77996 2.08172 0
M  V30 1870 C 185.421 3.89614 1.77157 0
M  V30 1871 C 184.747 4.36187 3.09265 0
M  V30 1872 C 186.047 5.1181 1.04151 0
M  V30 1873 H 187.741 2.97664 0.321992 0
M  V30 1874 H 185.287 1.4318 0.153434 0
M  V30 1875 H 187.24 3.19366 2.74924 0
M  V30 1876 H 185.964 1.9584 2.6137 0
M  V30 1877 H 184.623 3.48816 1.12796 0
M  V30 1878 H 184.271 3.50893 3.60393 0
M  V30 1879 H 183.971 5.11455 2.89288 0
M  V30 1880 H 185.495 4.80207 3.77139 0
M  V30 1881 H 186.909 5.50214 1.61052 0
M  V30 1882 H 185.306 5.92648 0.942762 0
M  V30 1883 H 186.376 4.84892 0.0279022 0
M  V30 1884 N 187.719 -0.156864 1.56817 0
M  V30 1885 C 188.682 -1.17781 1.96622 0
M  V30 1886 C 189.682 -1.36401 0.851555 0
M  V30 1887 O 190.872 -1.33561 1.11836 0
M  V30 1888 C 188.004 -2.54008 2.27361 0
M  V30 1889 H 189.197 -0.836564 2.87996 0
M  V30 1890 H 186.75 -0.39985 1.51099 0
M  V30 1891 H 187.485 -2.9312 1.38748 0
M  V30 1892 H 187.27 -2.41856 3.08623 0
M  V30 1893 H 188.76 -3.27558 2.59029 0
M  V30 1894 N 189.197 -1.51736 -0.425897 0
M  V30 1895 C 190.127 -1.76827 -1.52494 0
M  V30 1896 C 191.108 -0.618524 -1.58456 0
M  V30 1897 O 192.293 -0.862416 -1.74 0
M  V30 1898 C 189.423 -1.90374 -2.90474 0
M  V30 1899 C 188.377 -3.0588 -2.99369 0
M  V30 1900 C 187.703 -3.04625 -4.3944 0
M  V30 1901 C 189.003 -4.45644 -2.72394 0
M  V30 1902 H 190.697 -2.68855 -1.31748 0
M  V30 1903 H 188.243 -1.29372 -0.632362 0
M  V30 1904 H 190.196 -2.0651 -3.6733 0
M  V30 1905 H 188.92 -0.95004 -3.12477 0
M  V30 1906 H 187.579 -2.89467 -2.24954 0
M  V30 1907 H 187.227 -2.0701 -4.58428 0
M  V30 1908 H 186.927 -3.82195 -4.46319 0
M  V30 1909 H 188.451 -3.22869 -5.18255 0
M  V30 1910 H 189.865 -4.62348 -3.38979 0
M  V30 1911 H 188.262 -5.25006 -2.9067 0
M  V30 1912 H 189.332 -4.54893 -1.67929 0
M  V30 1913 N 190.675 0.682077 -1.42076 0
M  V30 1914 C 192.086 1.26246 -1.37546 0
M  V30 1915 C 192.437 1.96092 -0.0651481 0
M  V30 1916 O 191.562 1.99587 0.836297 0
M  V30 1917 C 192.157 2.29594 -2.49143 0
M  V30 1918 C 190.716 2.83175 -2.47969 0
M  V30 1919 C 189.863 1.57395 -2.28303 0
M  V30 1920 H 192.814 0.475937 -1.51395 0
M  V30 1921 H 192.835 3.11175 -2.18976 0
M  V30 1922 H 192.347 1.78729 -3.44496 0
M  V30 1923 H 190.448 3.3818 -1.56413 0
M  V30 1924 H 190.561 3.32687 -3.44755 0
M  V30 1925 H 188.925 1.83699 -1.76428 0
M  V30 1926 H 189.708 1.08507 -3.25701 0
M  V30 1927 N 192.153 1.28127 0.917671 0
M  V30 1928 C 193.564 1.13622 1.48145 0
M  V30 1929 C 193.915 -0.275207 1.9426 0
M  V30 1930 O 193.04 -1.1691 1.82102 0
M  V30 1931 C 193.635 2.05648 2.69248 0
M  V30 1932 C 192.194 1.95219 3.21818 0
M  V30 1933 C 191.341 1.97618 1.94532 0
M  V30 1934 H 194.292 1.40874 0.730772 0
M  V30 1935 H 194.313 1.61818 3.44377 0
M  V30 1936 H 193.825 3.08365 2.35653 0
M  V30 1937 H 191.926 0.955244 3.60147 0
M  V30 1938 H 192.039 2.81976 3.87333 0
M  V30 1939 H 190.403 1.41973 2.11461 0
M  V30 1940 H 191.186 3.02007 1.63238 0
M  V30 1941 N 193.631 -1.12557 1.10312 0
M  V30 1942 C 195.047 -1.36036 0.834649 0
M  V30 1943 C 195.247 -1.93946 -0.546539 0
M  V30 1944 O 194.303 -2.16484 -1.29966 0
M  V30 1945 C 195.616 -2.30312 1.9333 0
M  V30 1946 C 197.164 -2.43906 1.9616 0
M  V30 1947 C 197.639 -3.41496 3.05195 0
M  V30 1948 N 199.13 -3.49053 3.04494 0
M  V30 1949 C 199.865 -4.24471 3.85502 0
M  V30 1950 N 199.361 -5.02966 4.76442 0
M  V30 1951 N 201.154 -4.19864 3.73725 0
M  V30 1952 H 193.305 -0.733246 1.99342 0
M  V30 1953 H 195.568 -0.385234 0.866198 0
M  V30 1954 H 195.274 -1.94933 2.92735 0
M  V30 1955 H 195.148 -3.30421 1.81939 0
M  V30 1956 H 197.535 -2.78567 0.973886 0
M  V30 1957 H 197.616 -1.4369 2.11629 0
M  V30 1958 H 197.26 -3.07565 4.04186 0
M  V30 1959 H 197.19 -4.41539 2.86968 0
M  V30 1960 H 199.681 -2.93053 2.38596 0
M  V30 1961 H 199.994 -5.57846 5.34815 0
M  V30 1962 H 198.339 -5.02167 4.80472 0
M  V30 1963 H 201.53 -3.57623 3.02032 0
M  V30 1964 H 201.703 -4.78386 4.37093 0
M  V30 1965 N 195.109 -0.891671 -1.2995 0
M  V30 1966 C 196.358 -0.509521 -1.95158 0
M  V30 1967 C 196.671 0.947388 -1.71125 0
M  V30 1968 O 197.877 1.43669 -2.30372 0
M  V30 1969 C 196.333 -0.860315 -3.49466 0
M  V30 1970 C 195.941 -2.33545 -3.8231 0
M  V30 1971 C 197.685 -0.547687 -4.20952 0
M  V30 1972 C 195.592 -2.62752 -5.29826 0
M  V30 1973 H 194.522 -0.18682 -0.730489 0
M  V30 1974 H 197.173 -1.08756 -1.47798 0
M  V30 1975 H 195.555 -0.211285 -3.95436 0
M  V30 1976 H 196.729 -3.02936 -3.47227 0
M  V30 1977 H 195.044 -2.61629 -3.23944 0
M  V30 1978 H 197.641 -0.742854 -5.29515 0
M  V30 1979 H 197.984 0.51332 -4.13123 0
M  V30 1980 H 198.517 -1.1542 -3.80688 0
M  V30 1981 H 195.256 -3.6762 -5.42712 0
M  V30 1982 H 194.776 -1.97977 -5.66185 0
M  V30 1983 H 196.455 -2.48601 -5.97333 0
M  V30 1984 N 196.587 1.43421 -0.653314 0
M  V30 1985 C 197.55 2.29182 0.0287951 0
M  V30 1986 C 198.55 1.42213 0.750465 0
M  V30 1987 O 199.74 1.63843 0.591701 0
M  V30 1988 C 196.872 3.24278 1.05151 0
M  V30 1989 H 198.065 2.90985 -0.725786 0
M  V30 1990 H 195.618 1.50702 -0.414545 0
M  V30 1991 H 196.353 2.6737 1.83532 0
M  V30 1992 H 196.138 3.88396 0.537687 0
M  V30 1993 H 197.628 3.88647 1.52786 0
M  V30 1994 N 198.065 0.39524 1.52563 0
M  V30 1995 C 199.295 -0.184675 2.05773 0
M  V30 1996 C 199.703 -1.40571 1.26635 0
M  V30 1997 O 199.046 -1.81105 0.30769 0
M  V30 1998 C 199.108 -0.613551 3.54226 0
M  V30 1999 C 198.772 0.49484 4.54313 0
M  V30 2000 C 199.769 1.3541 5.01956 0
M  V30 2001 C 197.454 0.663565 4.97898 0
M  V30 2002 C 199.448 2.36716 5.91814 0
M  V30 2003 C 197.135 1.67996 5.87555 0
M  V30 2004 C 198.133 2.53017 6.34406 0
M  V30 2005 O 197.821 3.52917 7.22291 0
M  V30 2006 H 197.553 -0.030077 0.675331 0
M  V30 2007 H 200.107 0.560708 1.97599 0
M  V30 2008 H 198.337 -1.411 3.60038 0
M  V30 2009 H 200.026 -1.11981 3.90148 0
M  V30 2010 H 200.792 1.23509 4.6901 0
M  V30 2011 H 196.671 0.0114913 4.60999 0
M  V30 2012 H 200.215 3.03113 6.28306 0
M  V30 2013 H 196.112 1.79933 6.19915 0
M  V30 2014 H 196.88 3.48996 7.40367 0
M  V30 2015 N 199.544 -1.57102 0.125237 0
M  V30 2016 C 200.494 -2.12202 -0.833936 0
M  V30 2017 C 201.478 -1.04433 -1.22403 0
M  V30 2018 O 202.67 -1.30655 -1.19408 0
M  V30 2019 C 199.799 -2.72994 -2.08157 0
M  V30 2020 C 198.885 -3.87852 -1.71556 0
M  V30 2021 N 199.276 -4.9464 -1.05662 0
M  V30 2022 C 197.574 -3.98153 -2.00973 0
M  V30 2023 C 198.275 -5.74953 -0.883376 0
M  V30 2024 N 197.251 -5.24985 -1.41036 0
M  V30 2025 H 201.053 -2.92141 -0.321035 0
M  V30 2026 H 198.567 -1.62217 -0.0770315 0
M  V30 2027 H 200.564 -3.10816 -2.77847 0
M  V30 2028 H 199.224 -1.9452 -2.59985 0
M  V30 2029 H 200.235 -5.12872 -0.719878 0
M  V30 2030 H 196.912 -3.30728 -2.54804 0
M  V30 2031 H 198.302 -6.70904 -0.365675 0
M  V30 2032 N 201.022 0.148545 -1.56898 0
M  V30 2033 C 201.952 1.18524 -2.01182 0
M  V30 2034 C 202.933 1.4489 -0.891123 0
M  V30 2035 O 204.118 1.55836 -1.15882 0
M  V30 2036 C 201.248 2.51879 -2.39112 0
M  V30 2037 C 200.202 2.40038 -3.54353 0
M  V30 2038 C 199.528 3.78089 -3.78091 0
M  V30 2039 C 200.828 1.88577 -4.87069 0
M  V30 2040 H 202.522 0.817029 -2.88036 0
M  V30 2041 H 200.068 0.391575 -1.38574 0
M  V30 2042 H 202.021 3.24627 -2.68692 0
M  V30 2043 H 200.745 2.90532 -1.49193 0
M  V30 2044 H 199.404 1.69742 -3.24936 0
M  V30 2045 H 199.052 4.14175 -2.85426 0
M  V30 2046 H 198.752 3.71028 -4.55645 0
M  V30 2047 H 200.276 4.52387 -4.10095 0
M  V30 2048 H 201.69 2.51117 -5.15377 0
M  V30 2049 H 200.087 1.9241 -5.68417 0
M  V30 2050 H 201.157 0.84136 -4.77545 0
M  V30 2051 N 202.5 1.5196 0.417844 0
M  V30 2052 C 203.916 1.40569 0.755816 0
M  V30 2053 C 204.116 0.503316 1.95113 0
M  V30 2054 O 203.172 -0.0341925 2.52477 0
M  V30 2055 C 204.485 2.82947 1.01791 0
M  V30 2056 C 206.033 2.92231 1.12116 0
M  V30 2057 C 206.508 4.35559 1.41608 0
M  V30 2058 N 207.999 4.38753 1.48491 0
M  V30 2059 C 208.734 5.46705 1.7292 0
M  V30 2060 N 208.23 6.64788 1.95011 0
M  V30 2061 N 210.023 5.34209 1.74863 0
M  V30 2062 H 202.174 2.09168 -0.369098 0
M  V30 2063 H 204.437 0.942409 -0.102809 0
M  V30 2064 H 204.143 3.5106 0.212081 0
M  V30 2065 H 204.017 3.23462 1.94042 0
M  V30 2066 H 206.404 2.24304 1.9176 0
M  V30 2067 H 206.485 2.55185 0.177225 0
M  V30 2068 H 206.129 5.04042 0.624848 0
M  V30 2069 H 206.059 4.70133 2.37239 0
M  V30 2070 H 208.55 3.5363 1.33244 0
M  V30 2071 H 208.863 7.42845 2.13076 0
M  V30 2072 H 207.208 6.67869 1.92293 0
M  V30 2073 H 210.399 4.40937 1.57137 0
M  V30 2074 H 210.572 6.18415 1.93563 0
M  V30 2075 N 203.978 -0.674533 1.42435 0
M  V30 2076 C 205.226 -1.43175 1.42637 0
M  V30 2077 C 205.547 -1.94951 0.0438992 0
M  V30 2078 O 204.817 -1.7308 -0.917607 0
M  V30 2079 H 203.397 -0.531307 0.525092 0
M  V30 2080 H 206.059 -0.797006 1.77859 0
M  V30 2081 H 205.155 -2.28463 2.12629 0
M  V30 2082 N 205.456 -1.28612 -0.910864 0
M  V30 2083 C 206.388 -1.08589 -2.01844 0
M  V30 2084 C 207.401 -0.0367419 -1.62759 0
M  V30 2085 O 208.59 -0.280101 -1.76289 0
M  V30 2086 C 205.69 -0.628626 -3.33019 0
M  V30 2087 C 204.863 -1.75382 -4.00699 0
M  V30 2088 C 203.922 -1.28945 -5.10156 0
M  V30 2089 O 202.948 -1.9922 -5.33198 0
M  V30 2090 N 204.15 -0.154224 -5.80295 0
M  V30 2091 H 206.915 -2.03973 -2.19579 0
M  V30 2092 H 204.476 -1.20403 -1.08234 0
M  V30 2093 H 206.468 -0.301508 -4.03575 0
M  V30 2094 H 205.038 0.232451 -3.11735 0
M  V30 2095 H 204.258 -2.25039 -3.23653 0
M  V30 2096 H 205.546 -2.50854 -4.42662 0
M  V30 2097 H 204.944 0.43194 -5.64049 0
M  V30 2098 H 203.501 0.113599 -6.51701 0
M  V30 2099 N 206.934 1.1197 -1.10907 0
M  V30 2100 C 208.35 1.35591 -0.841852 0
M  V30 2101 C 208.55 1.94233 0.536246 0
M  V30 2102 O 207.606 2.1717 1.28816 0
M  V30 2103 C 208.919 2.29284 -1.94549 0
M  V30 2104 C 210.467 2.42862 -1.97451 0
M  V30 2105 C 210.942 3.39873 -3.07002 0
M  V30 2106 N 212.433 3.47433 -3.06341 0
M  V30 2107 C 213.168 4.22421 -3.87748 0
M  V30 2108 N 212.664 5.00432 -4.79103 0
M  V30 2109 N 214.457 4.17876 -3.75946 0
M  V30 2110 H 206.608 0.722664 -1.99728 0
M  V30 2111 H 208.871 0.380635 -0.868229 0
M  V30 2112 H 208.577 1.93378 -2.93765 0
M  V30 2113 H 208.451 3.29452 -1.83688 0
M  V30 2114 H 210.838 2.78046 -0.988645 0
M  V30 2115 H 210.919 1.42566 -2.12388 0
M  V30 2116 H 210.563 3.05417 -4.05811 0
M  V30 2117 H 210.493 4.40011 -2.89306 0
M  V30 2118 H 212.984 2.91784 -2.40147 0
M  V30 2119 H 213.297 5.55002 -5.37766 0
M  V30 2120 H 211.642 4.99612 -4.83128 0
M  V30 2121 H 214.833 3.56016 -3.03924 0
M  V30 2122 H 215.006 4.76061 -4.39624 0
M  V30 2123 N 208.412 0.89855 1.29475 0
M  V30 2124 C 209.658 0.534065 1.96263 0
M  V30 2125 C 210.013 -0.909415 1.69551 0
M  V30 2126 O 209.306 -1.63596 0.997349 0
M  V30 2127 C 209.5 0.761398 3.49195 0
M  V30 2128 C 209.329 2.22542 3.90775 0
M  V30 2129 C 208.099 2.87264 4.15701 0
M  V30 2130 C 210.297 3.20051 4.02581 0
M  V30 2131 N 208.279 4.24121 4.4384 0
M  V30 2132 C 209.65 4.42023 4.34759 0
M  V30 2133 C 211.705 3.15657 3.85052 0
M  V30 2134 C 210.408 5.60161 4.51235 0
M  V30 2135 C 212.434 4.33078 4.02737 0
M  V30 2136 C 211.796 5.5382 4.35273 0
M  V30 2137 H 207.895 0.245013 0.742625 0
M  V30 2138 H 210.479 1.15912 1.56437 0
M  V30 2139 H 208.65 0.165732 3.88046 0
M  V30 2140 H 210.382 0.362462 4.03074 0
M  V30 2141 H 207.137 2.38064 4.09417 0
M  V30 2142 H 207.561 4.94839 4.6202 0
M  V30 2143 H 212.203 2.23396 3.58962 0
M  V30 2144 H 209.921 6.52913 4.76162 0
M  V30 2145 H 213.507 4.31163 3.90628 0
M  V30 2146 H 212.387 6.43166 4.48672 0
M  V30 2147 N 209.89 -1.43072 0.660911 0
M  V30 2148 C 211.301 -1.84932 0.256348 0
M  V30 2149 C 211.652 -1.55325 -1.19868 0
M  V30 2150 O 210.777 -1.00607 -1.91591 0
M  V30 2151 C 211.372 -3.35684 0.458475 0
M  V30 2152 C 209.931 -3.76245 0.108161 0
M  V30 2153 C 209.078 -2.66749 0.757641 0
M  V30 2154 H 212.029 -1.33116 0.864051 0
M  V30 2155 H 212.05 -3.79365 -0.293683 0
M  V30 2156 H 211.562 -3.572 1.51755 0
M  V30 2157 H 209.663 -3.60338 -0.948014 0
M  V30 2158 H 209.776 -4.76058 0.538992 0
M  V30 2159 H 208.14 -2.53989 0.190185 0
M  V30 2160 H 208.923 -2.91092 1.81989 0
M  V30 2161 N 211.368 -0.403325 -1.52352 0
M  V30 2162 C 212.615 0.174347 -2.01748 0
M  V30 2163 C 212.943 1.45636 -1.2892 0
M  V30 2164 O 212.198 1.9193 -0.382258 0
M  V30 2165 C 212.497 0.474665 -3.54234 0
M  V30 2166 C 212.163 -0.717458 -4.45155 0
M  V30 2167 C 210.825 -1.04447 -4.69728 0
M  V30 2168 C 213.177 -1.51432 -4.98716 0
M  V30 2169 C 210.505 -2.16963 -5.45109 0
M  V30 2170 C 212.857 -2.6302 -5.75329 0
M  V30 2171 C 211.521 -2.96213 -5.98175 0
M  V30 2172 H 210.791 0.0637981 -0.738248 0
M  V30 2173 H 213.438 -0.543553 -1.83624 0
M  V30 2174 H 211.743 1.27406 -3.70506 0
M  V30 2175 H 213.44 0.934496 -3.89959 0
M  V30 2176 H 210.03 -0.452596 -4.26204 0
M  V30 2177 H 214.214 -1.27491 -4.79645 0
M  V30 2178 H 209.47 -2.43034 -5.61021 0
M  V30 2179 H 213.644 -3.25158 -6.15829 0
M  V30 2180 H 211.271 -3.83516 -6.56368 0
M  V30 2181 N 212.846 1.57033 -0.133567 0
M  V30 2182 C 214.094 1.953 0.519848 0
M  V30 2183 C 214.415 1.01866 1.66278 0
M  V30 2184 O 213.685 0.0776513 1.95746 0
M  V30 2185 H 212.265 0.721091 0.195032 0
M  V30 2186 H 214.927 1.93809 -0.205921 0
M  V30 2187 H 214.023 2.98695 0.904854 0
M  V30 2188 N 214.325 -0.140222 1.56975 0
M  V30 2189 C 215.235 -1.19223 2.02047 0
M  V30 2190 C 216.251 -1.46612 0.937062 0
M  V30 2191 O 217.427 -1.58148 1.24704 0
M  V30 2192 C 214.492 -2.50414 2.39778 0
M  V30 2193 C 213.553 -2.30612 3.621 0
M  V30 2194 C 212.786 -3.55547 3.98023 0
M  V30 2195 O 213.009 -4.62004 3.34528 0
M  V30 2196 O 211.943 -3.47808 4.91237 0
M  V30 2197 H 215.769 -0.839559 2.91865 0
M  V30 2198 H 213.354 -0.349453 1.45256 0
M  V30 2199 H 215.236 -3.27747 2.64877 0
M  V30 2200 H 213.911 -2.85198 1.53114 0
M  V30 2201 H 212.818 -1.51207 3.4218 0
M  V30 2202 H 214.151 -2.00741 4.49404 0
M  V30 2203 N 215.803 -1.52179 -0.40978 0
M  V30 2204 C 216.766 -1.74853 -1.48186 0
M  V30 2205 C 217.766 -0.618417 -1.48433 0
M  V30 2206 O 218.956 -0.886286 -1.49969 0
M  V30 2207 C 216.088 -1.8303 -2.87598 0
M  V30 2208 H 217.281 -2.70559 -1.29374 0
M  V30 2209 H 214.834 -1.42586 -0.640233 0
M  V30 2210 H 215.569 -0.89236 -3.11781 0
M  V30 2211 H 215.354 -2.65187 -2.88822 0
M  V30 2212 H 216.844 -2.02316 -3.65319 0
M  V30 2213 N 217.281 0.66697 -1.42791 0
M  V30 2214 C 218.244 1.76211 -1.46568 0
M  V30 2215 C 219.244 1.56896 -0.352196 0
M  V30 2216 O 220.434 1.63044 -0.613364 0
M  V30 2217 C 217.566 3.14935 -1.30494 0
M  V30 2218 H 218.759 1.74247 -2.44086 0
M  V30 2219 H 216.312 0.877342 -1.29354 0
M  V30 2220 H 217.047 3.2252 -0.339301 0
M  V30 2221 H 216.832 3.30359 -2.11199 0
M  V30 2222 H 218.322 3.94821 -1.36038 0
M  V30 2223 N 218.759 1.29093 0.90403 0
M  V30 2224 C 219.999 1.18076 1.66845 0
M  V30 2225 C 220.363 -0.26436 1.90171 0
M  V30 2226 O 221.564 -0.497423 2.64157 0
M  V30 2227 C 219.835 1.96722 2.98388 0
M  V30 2228 S 221.394 2.0219 3.89441 0
M  V30 2229 H 218.212 0.421104 0.572881 0
M  V30 2230 H 220.814 1.63322 1.07453 0
M  V30 2231 H 219.518 3.00866 2.7912 0
M  V30 2232 H 219.049 1.52064 3.62823 0
M  V30 2233 H 221.064 1.13545 4.83034 0
M  V30 2234 N 220.237 -1.11381 1.11499 0
M  V30 2235 C 221.653 -1.35143 0.849031 0
M  V30 2236 C 221.853 -1.94515 -0.525938 0
M  V30 2237 O 220.909 -2.1785 -1.27662 0
M  V30 2238 C 222.222 -2.28249 1.95762 0
M  V30 2239 C 223.77 -2.41812 1.98736 0
M  V30 2240 C 224.245 -3.3824 3.088 0
M  V30 2241 N 225.736 -3.45803 3.08179 0
M  V30 2242 C 226.471 -4.20358 3.89982 0
M  V30 2243 N 225.967 -4.97884 4.8175 0
M  V30 2244 N 227.76 -4.15877 3.78157 0
M  V30 2245 H 219.911 -0.712062 2.00109 0
M  V30 2246 H 222.174 -0.376025 0.870235 0
M  V30 2247 H 221.88 -1.91817 2.94787 0
M  V30 2248 H 221.754 -3.28473 1.85433 0
M  V30 2249 H 224.141 -2.77518 1.00338 0
M  V30 2250 H 224.222 -1.41437 2.13141 0
M  V30 2251 H 223.866 -3.03261 4.07425 0
M  V30 2252 H 223.796 -4.38471 2.91635 0
M  V30 2253 H 226.287 -2.90506 2.41691 0
M  V30 2254 H 226.6 -5.52142 5.40702 0
M  V30 2255 H 224.945 -4.97043 4.85771 0
M  V30 2256 H 228.136 -3.544 3.05808 0
M  V30 2257 H 228.309 -4.73723 4.42143 0
M  V30 2258 N 221.715 -0.905404 -1.28997 0
M  V30 2259 C 222.645 -0.404212 -2.29975 0
M  V30 2260 C 223.626 0.523784 -1.61835 0
M  V30 2261 O 224.811 0.433298 -1.89304 0
M  V30 2262 C 221.941 0.364042 -3.45387 0
M  V30 2263 C 220.895 -0.474048 -4.25367 0
M  V30 2264 C 220.221 0.422045 -5.33032 0
M  V30 2265 C 221.521 -1.72696 -4.92923 0
M  V30 2266 H 223.215 -1.24807 -2.72146 0
M  V30 2267 H 220.761 -0.601585 -1.30832 0
M  V30 2268 H 222.714 0.725447 -4.15109 0
M  V30 2269 H 221.438 1.24174 -3.02074 0
M  V30 2270 H 220.097 -0.81786 -3.57361 0
M  V30 2271 H 219.745 1.29804 -4.85963 0
M  V30 2272 H 219.445 -0.135057 -5.87445 0
M  V30 2273 H 220.969 0.779517 -6.05604 0
M  V30 2274 H 222.383 -1.43495 -5.55051 0
M  V30 2275 H 220.78 -2.22582 -5.57295 0
M  V30 2276 H 221.85 -2.45964 -4.17887 0
M  V30 2277 N 223.193 1.4272 -0.668489 0
M  V30 2278 C 224.156 2.292 0.00448567 0
M  V30 2279 C 225.156 1.43001 0.735339 0
M  V30 2280 O 226.346 1.64461 0.57429 0
M  V30 2281 C 223.478 3.25375 1.01705 0
M  V30 2282 H 224.671 2.90199 -0.756608 0
M  V30 2283 H 222.224 1.50254 -0.430506 0
M  V30 2284 H 222.959 2.69301 1.80686 0
M  V30 2285 H 222.744 3.88944 0.496463 0
M  V30 2286 H 224.234 3.90245 1.48655 0
M  V30 2287 N 224.671 0.411399 1.52136 0
M  V30 2288 C 225.899 -0.163076 2.06256 0
M  V30 2289 C 226.314 -1.3867 1.28125 0
M  V30 2290 O 225.671 -1.79423 0.333721 0
M  V30 2291 C 225.722 -0.511252 3.57867 0
M  V30 2292 O 225.443 0.66378 4.33042 0
M  V30 2293 C 226.944 -1.13921 4.28412 0
M  V30 2294 H 224.164 -0.0193897 0.67072 0
M  V30 2295 H 226.708 0.583007 1.96013 0
M  V30 2296 H 224.863 -1.20723 3.6811 0
M  V30 2297 H 225.277 0.372601 5.23175 0
M  V30 2298 H 226.751 -1.33302 5.35663 0
M  V30 2299 H 227.228 -2.11296 3.85033 0
M  V30 2300 H 227.834 -0.483373 4.22544 0
M  V30 2301 N 226.149 -1.5696 0.141893 0
M  V30 2302 C 227.112 -2.15316 -0.785587 0
M  V30 2303 C 228.112 -1.09366 -1.1788 0
M  V30 2304 O 229.302 -1.35031 -1.10056 0
M  V30 2305 C 226.434 -2.71211 -2.06537 0
M  V30 2306 H 227.627 -2.98608 -0.278041 0
M  V30 2307 H 225.18 -1.5593 -0.107519 0
M  V30 2308 H 225.915 -1.91571 -2.6167 0
M  V30 2309 H 225.7 -3.4872 -1.79268 0
M  V30 2310 H 227.19 -3.16189 -2.72789 0
M  V30 2311 N 227.627 0.131896 -1.57047 0
M  V30 2312 C 228.59 1.14638 -1.98471 0
M  V30 2313 C 229.59 1.35029 -0.873148 0
M  V30 2314 O 230.78 1.31764 -1.13946 0
M  V30 2315 C 227.912 2.50358 -2.31373 0
M  V30 2316 H 229.105 0.79064 -2.8929 0
M  V30 2317 H 226.658 0.375761 -1.51716 0
M  V30 2318 H 227.393 2.90876 -1.43393 0
M  V30 2319 H 227.178 2.36915 -3.12432 0
M  V30 2320 H 228.668 3.23395 -2.64207 0
M  V30 2321 N 229.106 1.52395 0.401703 0
M  V30 2322 C 230.036 1.79231 1.49661 0
M  V30 2323 C 231.017 0.643654 1.57452 0
M  V30 2324 O 232.202 0.889989 1.72606 0
M  V30 2325 C 229.332 1.94971 2.87409 0
M  V30 2326 C 228.286 3.10604 2.94465 0
M  V30 2327 C 227.612 3.11577 4.34538 0
M  V30 2328 C 228.912 4.49921 2.6527 0
M  V30 2329 H 230.606 2.70917 1.27454 0
M  V30 2330 H 228.152 1.30362 0.6117 0
M  V30 2331 H 230.105 2.12328 3.63999 0
M  V30 2332 H 228.829 0.999632 3.10926 0
M  V30 2333 H 227.488 2.93009 2.20321 0
M  V30 2334 H 227.136 2.14277 4.55076 0
M  V30 2335 H 226.836 3.89247 4.40183 0
M  V30 2336 H 228.36 3.31073 5.13053 0
M  V30 2337 H 229.774 4.67683 3.31581 0
M  V30 2338 H 228.171 5.29564 2.82281 0
M  V30 2339 H 229.241 4.57507 1.60671 0
M  V30 2340 N 230.584 -0.659388 1.43143 0
M  V30 2341 C 231.814 -1.44513 1.47646 0
M  V30 2342 C 232.222 -1.88981 0.0910095 0
M  V30 2343 O 231.565 -1.59702 -0.907789 0
M  V30 2344 C 231.627 -2.71663 2.35456 0
M  V30 2345 C 231.291 -2.49175 3.83094 0
M  V30 2346 C 232.288 -2.1279 4.74359 0
M  V30 2347 C 229.973 -2.63691 4.27519 0
M  V30 2348 C 231.967 -1.9121 6.08044 0
M  V30 2349 C 229.654 -2.41726 5.61259 0
M  V30 2350 C 230.652 -2.0554 6.51339 0
M  V30 2351 O 230.34 -1.838 7.82606 0
M  V30 2352 H 230.072 -0.45064 0.503884 0
M  V30 2353 H 232.626 -0.816248 1.88485 0
M  V30 2354 H 230.856 -3.37089 1.89493 0
M  V30 2355 H 232.545 -3.33595 2.31235 0
M  V30 2356 H 233.311 -2.01157 4.41317 0
M  V30 2357 H 229.19 -2.90832 3.57684 0
M  V30 2358 H 232.734 -1.62889 6.78316 0
M  V30 2359 H 228.631 -2.52959 5.9387 0
M  V30 2360 H 229.399 -1.98275 7.94122 0
M  V30 2361 N 232.062 -1.29571 -0.897171 0
M  V30 2362 C 233.31 -1.17456 -1.64464 0
M  V30 2363 C 233.631 0.273698 -1.9307 0
M  V30 2364 O 232.901 1.18684 -1.55855 0
M  V30 2365 H 231.481 -0.431706 -0.609622 0
M  V30 2366 H 234.143 -1.62531 -1.07562 0
M  V30 2367 H 233.239 -1.72648 -2.59998 0
M  V30 2368 N 233.54 1.10788 -1.12088 0
M  V30 2369 C 234.49 2.15158 -0.754401 0
M  V30 2370 C 235.474 1.59026 0.244846 0
M  V30 2371 O 236.666 1.76927 0.0509097 0
M  V30 2372 C 233.795 3.42677 -0.206657 0
M  V30 2373 C 232.881 4.05751 -1.23398 0
M  V30 2374 N 233.272 4.43582 -2.43041 0
M  V30 2375 C 231.57 4.32764 -1.07848 0
M  V30 2376 C 232.271 4.93085 -3.08613 0
M  V30 2377 N 231.247 4.89664 -2.36072 0
M  V30 2378 H 235.049 2.42195 -1.6649 0
M  V30 2379 H 232.563 1.27872 -1.00112 0
M  V30 2380 H 234.56 4.16834 0.0740646 0
M  V30 2381 H 233.22 3.17101 0.698342 0
M  V30 2382 H 234.231 4.35395 -2.80449 0
M  V30 2383 H 230.908 4.16863 -0.230483 0
M  V30 2384 H 232.298 5.31933 -4.10483 0
M  V30 2385 N 235.018 0.912232 1.28515 0
M  V30 2386 C 235.951 0.343928 2.25593 0
M  V30 2387 C 236.929 -0.550994 1.5298 0
M  V30 2388 O 238.113 -0.494991 1.81885 0
M  V30 2389 C 235.24 -0.508525 3.34861 0
M  V30 2390 C 234.286 0.320808 4.25292 0
M  V30 2391 S 235.119 1.72658 5.06902 0
M  V30 2392 C 236.275 0.881394 6.19663 0
M  V30 2393 H 236.508 1.16674 2.73449 0
M  V30 2394 H 234.041 0.713384 1.36931 0
M  V30 2395 H 235.999 -0.994539 3.9827 0
M  V30 2396 H 234.66 -1.30571 2.85675 0
M  V30 2397 H 233.853 -0.330941 5.02912 0
M  V30 2398 H 233.455 0.74042 3.66598 0
M  V30 2399 H 235.747 0.110359 6.7741 0
M  V30 2400 H 236.69 1.63009 6.89082 0
M  V30 2401 H 237.098 0.430239 5.62858 0
M  V30 2402 N 236.496 -1.42363 0.676048 0
M  V30 2403 C 237.726 -2.05561 0.206967 0
M  V30 2404 C 238.134 -1.50887 -1.14148 0
M  V30 2405 O 237.477 -0.643933 -1.72044 0
M  V30 2406 C 237.539 -3.5944 0.0659508 0
M  V30 2407 C 237.203 -4.36812 1.34331 0
M  V30 2408 C 238.2 -4.67383 2.27704 0
M  V30 2409 C 235.885 -4.76429 1.59125 0
M  V30 2410 C 237.879 -5.36509 3.44147 0
M  V30 2411 C 235.566 -5.45294 2.75857 0
M  V30 2412 C 236.564 -5.75259 3.68193 0
M  V30 2413 O 236.252 -6.42712 4.82883 0
M  V30 2414 H 235.984 -0.668872 0.0979084 0
M  V30 2415 H 238.538 -1.83467 0.923531 0
M  V30 2416 H 236.768 -3.80197 -0.706204 0
M  V30 2417 H 238.457 -4.0427 -0.363418 0
M  V30 2418 H 239.223 -4.37275 2.09799 0
M  V30 2419 H 235.102 -4.52498 0.881258 0
M  V30 2420 H 238.646 -5.59814 4.16238 0
M  V30 2421 H 234.543 -5.7482 2.93688 0
M  V30 2422 H 235.311 -6.61204 4.82444 0
M  V30 2423 N 237.974 -0.419461 -1.51915 0
M  V30 2424 C 239.222 0.152637 -2.01523 0
M  V30 2425 C 239.543 1.44762 -1.30649 0
M  V30 2426 O 238.813 1.90997 -0.435535 0
M  V30 2427 H 237.393 0.0593966 -0.744635 0
M  V30 2428 H 240.055 -0.558073 -1.86739 0
M  V30 2429 H 239.151 0.341369 -3.10227 0
M  V30 2430 N 239.452 1.56882 -0.150215 0
M  V30 2431 C 240.677 2.01027 0.510184 0
M  V30 2432 C 241.102 1.02966 1.57415 0
M  V30 2433 O 240.46 0.00590158 1.81299 0
M  V30 2434 C 240.508 3.43899 1.08472 0
M  V30 2435 O 239.612 3.4885 2.19948 0
M  V30 2436 H 238.953 0.652233 0.124451 0
M  V30 2437 H 241.483 2.03093 -0.247894 0
M  V30 2438 H 241.493 3.82766 1.41259 0
M  V30 2439 H 240.168 4.14776 0.305582 0
M  V30 2440 H 238.745 3.21827 1.88366 0
M  V30 2441 N 240.93 -0.123565 1.57115 0
M  V30 2442 C 242.176 -0.833386 1.84885 0
M  V30 2443 C 242.509 -1.79742 0.735292 0
M  V30 2444 O 241.784 -1.92764 -0.25925 0
M  V30 2445 C 242.067 -1.5873 3.23228 0
M  V30 2446 C 241.92 -0.643183 4.45178 0
M  V30 2447 C 243.239 -2.54453 3.59085 0
M  V30 2448 H 240.358 -0.301518 0.6725 0
M  V30 2449 H 243 -0.097778 1.89748 0
M  V30 2450 H 241.15 -2.21438 3.19214 0
M  V30 2451 H 242.822 -0.0253015 4.61293 0
M  V30 2452 H 241.065 0.0456139 4.33776 0
M  V30 2453 H 241.736 -1.20724 5.38637 0
M  V30 2454 H 244.212 -2.01853 3.63861 0
M  V30 2455 H 243.088 -3.04238 4.5687 0
M  V30 2456 H 243.349 -3.36906 2.86264 0
M  V30 2457 N 242.408 -1.52605 -0.393616 0
M  V30 2458 C 243.338 -1.80022 -1.48709 0
M  V30 2459 C 244.319 -0.651995 -1.57108 0
M  V30 2460 O 245.504 -0.89913 -1.72132 0
M  V30 2461 C 242.634 -1.96492 -2.86371 0
M  V30 2462 C 241.588 -3.12161 -2.92813 0
M  V30 2463 C 240.914 -3.13877 -4.3288 0
M  V30 2464 C 242.214 -4.51322 -2.6288 0
M  V30 2465 H 243.908 -2.71589 -1.26015 0
M  V30 2466 H 241.454 -1.30684 -0.604778 0
M  V30 2467 H 243.407 -2.14255 -3.62867 0
M  V30 2468 H 242.131 -1.01611 -3.10391 0
M  V30 2469 H 240.79 -2.94173 -2.18764 0
M  V30 2470 H 240.438 -2.16687 -4.53933 0
M  V30 2471 H 240.138 -3.91576 -4.38112 0
M  V30 2472 H 241.662 -3.33789 -5.1129 0
M  V30 2473 H 243.076 -4.69435 -3.29096 0
M  V30 2474 H 241.473 -5.31053 -2.79468 0
M  V30 2475 H 242.543 -4.58353 -1.58242 0
M  V30 2476 N 243.887 0.651787 -1.4349 0
M  V30 2477 C 244.817 1.77621 -1.51569 0
M  V30 2478 C 245.798 1.66022 -0.370253 0
M  V30 2479 O 246.983 1.85095 -0.587658 0
M  V30 2480 C 244.113 3.16056 -1.43966 0
M  V30 2481 C 243.067 3.4242 -2.56774 0
M  V30 2482 C 242.393 4.8067 -2.34223 0
M  V30 2483 C 243.693 3.37023 -3.99015 0
M  V30 2484 H 245.387 1.71117 -2.45681 0
M  V30 2485 H 242.933 0.821825 -1.18246 0
M  V30 2486 H 244.886 3.94472 -1.48221 0
M  V30 2487 H 243.61 3.23293 -0.463586 0
M  V30 2488 H 242.269 2.66375 -2.51873 0
M  V30 2489 H 241.917 4.84585 -1.34856 0
M  V30 2490 H 241.617 4.9927 -3.09844 0
M  V30 2491 H 243.141 5.61342 -2.40265 0
M  V30 2492 H 244.555 4.05374 -4.05395 0
M  V30 2493 H 242.952 3.67159 -4.74673 0
M  V30 2494 H 244.022 2.3518 -4.2405 0
M  V30 2495 N 245.365 1.30045 0.890287 0
M  V30 2496 C 246.295 1.18541 2.01172 0
M  V30 2497 C 247.276 0.0773356 1.69924 0
M  V30 2498 O 248.461 0.25845 1.92473 0
M  V30 2499 C 245.591 0.870941 3.36202 0
M  V30 2500 C 244.545 1.93637 3.81692 0
M  V30 2501 C 243.871 1.475 5.13953 0
M  V30 2502 C 245.171 3.34666 4.00994 0
M  V30 2503 H 246.865 2.12359 2.11054 0
M  V30 2504 H 244.411 1.02238 1.01407 0
M  V30 2505 H 246.364 0.777141 4.14172 0
M  V30 2506 H 245.088 -0.102926 3.26438 0
M  V30 2507 H 243.747 2.01972 3.05946 0
M  V30 2508 H 243.395 0.489551 5.00612 0
M  V30 2509 H 243.095 2.1876 5.4536 0
M  V30 2510 H 244.619 1.39489 5.94454 0
M  V30 2511 H 246.033 3.2912 4.69417 0
M  V30 2512 H 244.43 4.03966 4.43769 0
M  V30 2513 H 245.5 3.76949 3.05021 0
M  V30 2514 N 246.843 -1.10192 1.12674 0
M  V30 2515 C 247.806 -2.14786 0.799979 0
M  V30 2516 C 248.806 -1.59711 -0.18685 0
M  V30 2517 O 249.996 -1.74156 0.0392558 0
M  V30 2518 C 247.128 -3.40374 0.189228 0
M  V30 2519 H 248.321 -2.45203 1.72671 0
M  V30 2520 H 245.874 -1.25597 0.930326 0
M  V30 2521 H 246.609 -3.15577 -0.747107 0
M  V30 2522 H 246.394 -3.81637 0.899766 0
M  V30 2523 H 247.884 -4.17594 -0.0228143 0
M  V30 2524 N 248.321 -0.919034 -1.28029 0
M  V30 2525 C 249.284 -0.416182 -2.2539 0
M  V30 2526 C 250.284 0.460438 -1.54067 0
M  V30 2527 O 251.474 0.262744 -1.72207 0
M  V30 2528 C 248.606 0.402707 -3.38513 0
M  V30 2529 H 249.799 -1.27629 -2.71387 0
M  V30 2530 H 247.352 -0.698919 -1.39803 0
M  V30 2531 H 248.087 1.282 -2.97885 0
M  V30 2532 H 247.872 -0.225698 -3.9145 0
M  V30 2533 H 249.362 0.745191 -4.10897 0
M  V30 2534 N 249.799 1.42003 -0.683588 0
M  V30 2535 C 251.045 2.01712 -0.209825 0
M  V30 2536 C 251.378 1.53968 1.18353 0
M  V30 2537 O 250.653 0.745661 1.79639 0
M  V30 2538 C 250.936 3.59202 -0.254197 0
M  V30 2539 C 250.789 4.17102 -1.68363 0
M  V30 2540 C 252.108 4.38344 0.392709 0
M  V30 2541 H 249.227 0.732891 -0.0777189 0
M  V30 2542 H 251.869 1.68909 -0.87004 0
M  V30 2543 H 250.019 3.87278 0.307954 0
M  V30 2544 H 251.691 3.99946 -2.29871 0
M  V30 2545 H 249.934 3.72597 -2.22157 0
M  V30 2546 H 250.605 5.26249 -1.6663 0
M  V30 2547 H 253.081 4.16011 -0.0859162 0
M  V30 2548 H 251.957 5.47901 0.331063 0
M  V30 2549 H 252.218 4.16887 1.47164 0
M  V30 2550 N 251.277 0.427512 1.51691 0
M  V30 2551 C 252.502 -0.143601 2.06902 0
M  V30 2552 C 252.927 -1.36536 1.29382 0
M  V30 2553 O 252.285 -1.78289 0.329043 0
M  V30 2554 C 252.333 -0.454207 3.57728 0
M  V30 2555 O 251.437 -1.54228 3.82475 0
M  V30 2556 H 250.778 -0.00617128 0.663971 0
M  V30 2557 H 253.308 0.606014 1.95419 0
M  V30 2558 H 253.318 -0.707525 4.01818 0
M  V30 2559 H 251.993 0.438812 4.13579 0
M  V30 2560 H 250.57 -1.2797 3.50254 0
M  V30 2561 N 252.755 -1.56801 0.158532 0
M  V30 2562 C 253.685 -2.20347 -0.772609 0
M  V30 2563 C 254.666 -1.15518 -1.24859 0
M  V30 2564 O 255.851 -1.43902 -1.30406 0
M  V30 2565 C 252.981 -2.83417 -2.00729 0
M  V30 2566 C 251.935 -3.94174 -1.66765 0
M  V30 2567 C 251.261 -4.44233 -2.97592 0
M  V30 2568 C 252.561 -5.14392 -0.905447 0
M  V30 2569 H 254.255 -2.98413 -0.242959 0
M  V30 2570 H 251.801 -1.43537 -0.115419 0
M  V30 2571 H 253.754 -3.26543 -2.6636 0
M  V30 2572 H 252.478 -2.02701 -2.56086 0
M  V30 2573 H 251.137 -3.51684 -1.03508 0
M  V30 2574 H 250.785 -3.60325 -3.50963 0
M  V30 2575 H 250.485 -5.18945 -2.75626 0
M  V30 2576 H 252.009 -4.90037 -3.64274 0
M  V30 2577 H 253.423 -5.5429 -1.46408 0
M  V30 2578 H 251.82 -5.9494 -0.7853 0
M  V30 2579 H 252.89 -4.84795 0.100668 0
M  V30 2580 N 254.233 0.115231 -1.57178 0
M  V30 2581 C 255.51 0.852873 -1.76027 0
M  V30 2582 C 255.89 1.97892 -0.73498 0
M  V30 2583 O 255.238 2.27232 0.24036 0
M  V30 2584 C 255.448 1.36608 -3.21153 0
M  V30 2585 C 256.796 1.81692 -3.83762 0
M  V30 2586 O 257.82 1.46278 -3.24779 0
M  V30 2587 O 256.679 2.47104 -4.87444 0
M  V30 2588 H 253.773 0.405296 -0.720877 0
M  V30 2589 H 256.319 0.0986785 -1.69413 0
M  V30 2590 H 255.091 0.558357 -3.87296 0
M  V30 2591 H 254.714 2.18287 -3.3232 0
M  V30 2592 N 255.711 1.52812 0.385517 0
M  V30 2593 C 257.127 1.4214 0.725829 0
M  V30 2594 C 257.327 0.544589 1.94001 0
M  V30 2595 O 256.383 0.0193693 2.52493 0
M  V30 2596 C 257.696 2.85042 0.957668 0
M  V30 2597 C 259.244 2.94543 1.05892 0
M  V30 2598 C 259.719 4.38464 1.32337 0
M  V30 2599 N 261.21 4.41804 1.39151 0
M  V30 2600 C 261.945 5.5025 1.61285 0
M  V30 2601 N 261.441 6.68775 1.80866 0
M  V30 2602 N 263.234 5.37798 1.63492 0
M  V30 2603 H 255.385 2.08338 -0.413383 0
M  V30 2604 H 257.648 0.940016 -0.122775 0
M  V30 2605 H 257.354 3.51431 0.137568 0
M  V30 2606 H 257.228 3.27505 1.87137 0
M  V30 2607 H 259.615 2.28321 1.86959 0
M  V30 2608 H 259.696 2.55504 0.123057 0
M  V30 2609 H 259.34 5.05254 0.517793 0
M  V30 2610 H 259.27 4.75059 2.27214 0
M  V30 2611 H 261.761 3.56377 1.25713 0
M  V30 2612 H 262.074 7.47197 1.97271 0
M  V30 2613 H 260.419 6.71797 1.78083 0
M  V30 2614 H 263.61 4.44171 1.47749 0
M  V30 2615 H 263.783 6.22382 1.80402 0
M  V30 2616 N 257.189 -0.644168 1.43834 0
M  V30 2617 C 258.419 -1.42939 1.49171 0
M  V30 2618 C 258.827 -1.88874 0.111048 0
M  V30 2619 O 258.17 -1.60656 -0.8908 0
M  V30 2620 C 258.232 -2.69151 2.38324 0
M  V30 2621 C 257.896 -2.45097 3.85715 0
M  V30 2622 C 258.893 -2.07747 4.76589 0
M  V30 2623 C 256.578 -2.59141 4.30292 0
M  V30 2624 C 258.572 -1.8475 6.10038 0
M  V30 2625 C 256.259 -2.35759 5.63792 0
M  V30 2626 C 257.257 -1.9862 6.53482 0
M  V30 2627 O 256.945 -1.75489 7.84512 0
M  V30 2628 H 256.677 -0.445271 0.508635 0
M  V30 2629 H 259.231 -0.79621 1.8934 0
M  V30 2630 H 257.461 -3.3506 1.93058 0
M  V30 2631 H 259.15 -3.31123 2.3476 0
M  V30 2632 H 259.916 -1.96465 4.43426 0
M  V30 2633 H 255.795 -2.87022 3.60749 0
M  V30 2634 H 259.339 -1.55686 6.80006 0
M  V30 2635 H 255.236 -2.46646 5.9652 0
M  V30 2636 H 256.004 -1.89841 7.9618 0
M  V30 2637 N 258.668 -1.30515 -0.883378 0
M  V30 2638 C 259.598 -1.19607 -2.00541 0
M  V30 2639 C 260.579 -0.086346 -1.69881 0
M  V30 2640 O 261.764 -0.268654 -1.92333 0
M  V30 2641 C 258.894 -0.888758 -3.35736 0
M  V30 2642 C 257.848 -1.95659 -3.8066 0
M  V30 2643 C 257.174 -1.50224 -5.13164 0
M  V30 2644 C 258.474 -3.36788 -3.99213 0
M  V30 2645 H 260.168 -2.13476 -2.09925 0
M  V30 2646 H 257.714 -1.02775 -1.00863 0
M  V30 2647 H 259.667 -0.799094 -4.13754 0
M  V30 2648 H 258.391 0.0856125 -3.26488 0
M  V30 2649 H 257.05 -2.03591 -3.04871 0
M  V30 2650 H 256.698 -0.516092 -5.00345 0
M  V30 2651 H 256.398 -2.2165 -5.44192 0
M  V30 2652 H 257.922 -1.42639 -5.93706 0
M  V30 2653 H 259.336 -3.31605 -4.67665 0
M  V30 2654 H 257.733 -4.06314 -4.41621 0
M  V30 2655 H 258.803 -3.78561 -3.03017 0
M  V30 2656 N 260.146 1.09593 -1.13257 0
M  V30 2657 C 261.109 2.14359 -0.811358 0
M  V30 2658 C 262.109 1.59808 0.178377 0
M  V30 2659 O 263.299 1.74132 -0.0484911 0
M  V30 2660 C 260.431 3.40269 -0.207276 0
M  V30 2661 H 261.624 2.44284 -1.73969 0
M  V30 2662 H 259.177 1.25102 -0.936973 0
M  V30 2663 H 259.912 3.15969 0.73036 0
M  V30 2664 H 259.697 3.81154 -0.919992 0
M  V30 2665 H 261.187 4.176 0.000667944 0
M  V30 2666 N 261.624 0.925811 1.2754 0
M  V30 2667 C 262.554 0.440748 2.29303 0
M  V30 2668 C 263.535 -0.497971 1.62648 0
M  V30 2669 O 264.72 -0.403126 1.8997 0
M  V30 2670 C 261.85 -0.309048 3.45922 0
M  V30 2671 C 260.804 0.54166 4.24559 0
M  V30 2672 C 260.13 -0.337191 5.33636 0
M  V30 2673 C 261.43 1.80516 4.90114 0
M  V30 2674 H 263.124 1.29121 2.70126 0
M  V30 2675 H 260.67 0.622323 1.29858 0
M  V30 2676 H 262.623 -0.659315 4.1621 0
M  V30 2677 H 261.347 -1.19352 3.04011 0
M  V30 2678 H 260.006 0.874609 3.56014 0
M  V30 2679 H 259.654 -1.22056 4.87966 0
M  V30 2680 H 259.354 0.228497 5.87156 0
M  V30 2681 H 260.878 -0.683072 6.06767 0
M  V30 2682 H 262.292 1.52307 5.52698 0
M  V30 2683 H 260.689 2.3142 5.53683 0
M  V30 2684 H 261.759 2.52581 4.13921 0
M  V30 2685 N 263.102 -1.41638 0.69111 0
M  V30 2686 C 264.348 -2.01598 0.220519 0
M  V30 2687 C 264.681 -1.54594 -1.17535 0
M  V30 2688 O 263.956 -0.755177 -1.79241 0
M  V30 2689 C 264.239 -3.59062 0.273243 0
M  V30 2690 C 264.092 -4.16203 1.70573 0
M  V30 2691 C 265.411 -4.38546 -0.369457 0
M  V30 2692 H 262.53 -0.732468 0.0816045 0
M  V30 2693 H 265.172 -1.68445 0.878986 0
M  V30 2694 H 263.322 -3.87435 -0.287411 0
M  V30 2695 H 264.994 -3.98722 2.31989 0
M  V30 2696 H 263.237 -3.71414 2.2413 0
M  V30 2697 H 263.908 -5.25358 1.69419 0
M  V30 2698 H 266.384 -4.1596 0.107977 0
M  V30 2699 H 265.26 -5.48069 -0.302002 0
M  V30 2700 H 265.521 -4.17662 -1.44951 0
M  V30 2701 N 264.58 -0.43555 -1.51462 0
M  V30 2702 C 265.53 0.394701 -2.24558 0
M  V30 2703 C 266.514 0.99157 -1.26715 0
M  V30 2704 O 267.706 0.910007 -1.51815 0
M  V30 2705 C 264.835 1.4963 -3.08975 0
M  V30 2706 C 263.921 0.908912 -4.14246 0
M  V30 2707 N 264.312 0.0505335 -5.05775 0
M  V30 2708 C 262.61 1.17668 -4.30198 0
M  V30 2709 C 263.311 -0.279161 -5.8103 0
M  V30 2710 N 262.287 0.336767 -5.42556 0
M  V30 2711 H 266.089 -0.267106 -2.92684 0
M  V30 2712 H 263.603 -0.247518 -1.60503 0
M  V30 2713 H 265.6 2.10394 -3.59917 0
M  V30 2714 H 264.26 2.16046 -2.42393 0
M  V30 2715 H 265.271 -0.31577 -5.16936 0
M  V30 2716 H 261.948 1.83847 -3.74842 0
M  V30 2717 H 263.338 -0.977553 -6.64751 0
M  V30 2718 N 266.058 1.56714 -0.166846 0
M  V30 2719 C 267.469 1.83378 0.350646 0
M  V30 2720 C 267.82 1.08646 1.63372 0
M  V30 2721 O 266.945 0.338058 2.13743 0
M  V30 2722 C 267.54 3.32643 0.642963 0
M  V30 2723 C 266.099 3.59818 1.10491 0
M  V30 2724 C 265.246 2.76954 0.138411 0
M  V30 2725 H 268.197 1.53803 -0.391193 0
M  V30 2726 H 268.218 3.49878 1.49551 0
M  V30 2727 H 267.73 3.87007 -0.291055 0
M  V30 2728 H 265.831 3.1086 2.05418 0
M  V30 2729 H 265.944 4.68178 1.01716 0
M  V30 2730 H 264.308 2.4666 0.634911 0
M  V30 2731 H 265.091 3.34097 -0.789549 0
M  V30 2732 N 267.536 -0.106894 1.57237 0
M  V30 2733 C 268.466 -1.13148 2.04254 0
M  V30 2734 C 269.447 -1.42476 0.929224 0
M  V30 2735 O 270.632 -1.52709 1.19973 0
M  V30 2736 C 267.762 -2.4545 2.45706 0
M  V30 2737 C 266.716 -2.30558 3.60592 0
M  V30 2738 C 266.042 -3.67931 3.87983 0
M  V30 2739 C 267.342 -1.75597 4.91897 0
M  V30 2740 H 269.036 -0.740374 2.90101 0
M  V30 2741 H 266.582 -0.354696 1.39563 0
M  V30 2742 H 268.535 -3.17389 2.77205 0
M  V30 2743 H 267.259 -2.86475 1.56843 0
M  V30 2744 H 265.918 -1.61067 3.29322 0
M  V30 2745 H 265.566 -4.06462 2.96306 0
M  V30 2746 H 265.266 -3.58817 4.65322 0
M  V30 2747 H 266.79 -4.41356 4.21945 0
M  V30 2748 H 268.204 -2.37364 5.21854 0
M  V30 2749 H 266.601 -1.77272 5.73319 0
M  V30 2750 H 267.671 -0.714451 4.79608 0
M  V30 2751 N 269.014 -1.53014 -0.377408 0
M  V30 2752 C 270.43 -1.42523 -0.718281 0
M  V30 2753 C 270.63 -0.55487 -1.9371 0
M  V30 2754 O 269.686 -0.0327593 -2.52479 0
M  V30 2755 C 270.999 -2.85546 -0.942539 0
M  V30 2756 C 272.547 -2.95101 -1.04329 0
M  V30 2757 C 273.022 -4.3916 -1.3001 0
M  V30 2758 N 274.513 -4.42536 -1.36806 0
M  V30 2759 C 275.248 -5.51097 -1.58364 0
M  V30 2760 N 274.744 -6.69724 -1.77317 0
M  V30 2761 N 276.537 -5.38657 -1.60638 0
M  V30 2762 H 268.688 -2.08116 0.424426 0
M  V30 2763 H 270.951 -0.939352 0.127759 0
M  V30 2764 H 270.657 -3.51499 -0.118929 0
M  V30 2765 H 270.531 -3.28493 -1.85397 0
M  V30 2766 H 272.918 -2.29309 -1.85745 0
M  V30 2767 H 272.999 -2.55566 -0.109505 0
M  V30 2768 H 272.643 -5.05521 -0.490991 0
M  V30 2769 H 272.573 -4.76258 -2.24691 0
M  V30 2770 H 275.064 -3.57039 -1.23821 0
M  V30 2771 H 275.377 -7.48233 -1.93306 0
M  V30 2772 H 273.722 -6.72732 -1.74518 0
M  V30 2773 H 276.913 -4.44948 -1.45391 0
M  V30 2774 H 277.086 -6.2333 -1.77098 0
M  V30 2775 N 270.492 0.636531 -1.44174 0
M  V30 2776 C 271.455 1.73063 -1.50273 0
M  V30 2777 C 272.455 1.56113 -0.385397 0
M  V30 2778 O 273.645 1.61707 -0.64781 0
M  V30 2779 C 270.777 3.12096 -1.37145 0
M  V30 2780 H 271.97 1.69031 -2.47727 0
M  V30 2781 H 269.523 0.849706 -1.31186 0
M  V30 2782 H 270.258 3.21728 -0.407636 0
M  V30 2783 H 270.043 3.25805 -2.18159 0
M  V30 2784 H 271.533 3.91846 -1.44382 0
M  V30 2785 N 271.97 1.30982 0.876444 0
M  V30 2786 C 273.386 1.09498 1.16113 0
M  V30 2787 C 273.586 -0.13875 2.01022 0
M  V30 2788 O 272.642 -0.829935 2.38471 0
M  V30 2789 C 273.955 2.36308 1.85954 0
M  V30 2790 C 275.503 2.41856 1.98683 0
M  V30 2791 C 275.978 3.6853 2.71937 0
M  V30 2792 N 277.469 3.69387 2.79477 0
M  V30 2793 C 278.204 4.64096 3.36753 0
M  V30 2794 N 277.7 5.69155 3.95012 0
M  V30 2795 N 279.493 4.51626 3.3465 0
M  V30 2796 H 271.644 2.10118 0.310494 0
M  V30 2797 H 273.907 0.926634 0.200131 0
M  V30 2798 H 273.613 3.26388 1.31011 0
M  V30 2799 H 273.487 2.4561 2.86278 0
M  V30 2800 H 275.874 1.52249 2.52793 0
M  V30 2801 H 275.955 2.36523 0.9742 0
M  V30 2802 H 275.599 4.58499 2.18496 0
M  V30 2803 H 275.529 3.71127 3.73593 0
M  V30 2804 H 278.02 2.93438 2.38123 0
M  V30 2805 H 278.333 6.3751 4.36808 0
M  V30 2806 H 276.678 5.72937 3.93406 0
M  V30 2807 H 279.869 3.68728 2.8837 0
M  V30 2808 H 280.042 5.25614 3.7899 0
M  V30 2809 N 273.449 -1.08991 1.13837 0
M  V30 2810 C 274.412 -2.13925 0.822715 0
M  V30 2811 C 275.412 -1.599 -0.1699 0
M  V30 2812 O 276.602 -1.74104 0.0577251 0
M  V30 2813 C 273.734 -3.40155 0.225318 0
M  V30 2814 H 274.927 -2.43358 1.75262 0
M  V30 2815 H 272.48 -1.24603 0.943594 0
M  V30 2816 H 273.215 -3.16352 -0.713594 0
M  V30 2817 H 273 -3.80661 0.940193 0
M  V30 2818 H 274.49 -4.17594 0.0214784 0
M  V30 2819 N 274.927 -0.932562 -1.27047 0
M  V30 2820 C 275.857 -0.452902 -2.29066 0
M  V30 2821 C 276.838 0.489338 -1.62909 0
M  V30 2822 O 278.023 0.393046 -1.90181 0
M  V30 2823 C 275.153 0.290698 -3.46081 0
M  V30 2824 C 274.107 -0.564168 -4.24265 0
M  V30 2825 C 273.433 0.308886 -5.33807 0
M  V30 2826 C 274.733 -1.83112 -4.89149 0
M  V30 2827 H 276.427 -1.30552 -2.69437 0
M  V30 2828 H 273.973 -0.629201 -1.29526 0
M  V30 2829 H 275.926 0.637233 -4.16554 0
M  V30 2830 H 274.65 1.17738 -3.0464 0
M  V30 2831 H 273.309 -0.893477 -3.55545 0
M  V30 2832 H 272.957 1.19467 -4.88607 0
M  V30 2833 H 272.657 -0.259633 -5.87026 0
M  V30 2834 H 274.181 0.650884 -6.07121 0
M  V30 2835 H 275.595 -1.55236 -5.51883 0
M  V30 2836 H 273.992 -2.34353 -5.52448 0
M  V30 2837 H 275.062 -2.54772 -4.12576 0
M  V30 2838 N 276.405 1.4127 -0.698611 0
M  V30 2839 C 277.821 1.55241 -0.370462 0
M  V30 2840 C 278.021 1.67351 1.12231 0
M  V30 2841 O 277.077 1.65363 1.90818 0
M  V30 2842 C 278.39 2.78997 -1.12165 0
M  V30 2843 C 279.938 2.92797 -1.1063 0
M  V30 2844 C 280.413 4.19445 -1.8393 0
M  V30 2845 N 281.904 4.26409 -1.80914 0
M  V30 2846 C 282.639 5.23271 -2.34467 0
M  V30 2847 N 282.135 6.26145 -2.96504 0
M  V30 2848 N 283.928 5.15232 -2.24706 0
M  V30 2849 H 276.079 1.31654 -1.66676 0
M  V30 2850 H 278.342 0.635393 -0.703548 0
M  V30 2851 H 278.048 2.76268 -2.17644 0
M  V30 2852 H 277.922 3.70606 -0.702209 0
M  V30 2853 H 280.309 2.95039 -0.0597713 0
M  V30 2854 H 280.39 2.02353 -1.56483 0
M  V30 2855 H 280.034 4.17964 -2.88563 0
M  V30 2856 H 279.964 5.08866 -1.35509 0
M  V30 2857 H 282.455 3.527 -1.35687 0
M  V30 2858 H 282.768 6.96451 -3.34927 0
M  V30 2859 H 281.113 6.26638 -3.00583 0
M  V30 2860 H 284.304 4.33789 -1.7591 0
M  V30 2861 H 284.477 5.90552 -2.66745 0
M  V30 2862 N 277.883 0.443576 1.51229 0
M  V30 2863 C 279.131 -0.120557 2.0174 0
M  V30 2864 C 279.452 -1.42665 1.32935 0
M  V30 2865 O 278.722 -1.9028 0.465866 0
M  V30 2866 H 277.302 -0.0475426 0.745486 0
M  V30 2867 H 279.964 0.587711 1.85828 0
M  V30 2868 H 279.06 -0.291972 3.10731 0
M  V30 2869 N 279.361 -1.56624 0.175154 0
M  V30 2870 C 280.777 -1.58571 -0.180966 0
M  V30 2871 C 280.977 -1.19065 -1.6256 0
M  V30 2872 O 280.033 -0.904044 -2.35761 0
M  V30 2873 C 281.346 -3.00522 0.103326 0
M  V30 2874 C 282.894 -3.12972 0.0418426 0
M  V30 2875 C 283.369 -4.57022 0.299175 0
M  V30 2876 N 284.86 -4.62541 0.247086 0
M  V30 2877 C 285.595 -5.71857 0.420318 0
M  V30 2878 N 285.091 -6.89717 0.652816 0
M  V30 2879 N 286.884 -5.60972 0.355957 0
M  V30 2880 H 279.035 -1.80589 1.11809 0
M  V30 2881 H 281.298 -0.837178 0.444788 0
M  V30 2882 H 281.004 -3.33916 1.10422 0
M  V30 2883 H 280.878 -3.72344 -0.603299 0
M  V30 2884 H 283.265 -2.79403 -0.949636 0
M  V30 2885 H 283.346 -2.43578 0.781238 0
M  V30 2886 H 282.99 -4.913 1.28788 0
M  V30 2887 H 282.92 -5.24579 -0.460876 0
M  V30 2888 H 285.411 -3.77829 0.0731895 0
M  V30 2889 H 285.724 -7.68911 0.774347 0
M  V30 2890 H 284.069 -6.91572 0.689476 0
M  V30 2891 H 287.26 -4.67773 0.174882 0
M  V30 2892 H 287.433 -6.46111 0.494388 0
M  V30 2893 N 280.839 0.0985539 -1.57292 0
M  V30 2894 C 282.255 0.45267 -1.53046 0
M  V30 2895 C 282.455 1.80713 -0.891342 0
M  V30 2896 O 281.511 2.4785 -0.482375 0
M  V30 2897 C 282.824 0.418341 -2.97776 0
M  V30 2898 C 284.372 0.500443 -3.08973 0
M  V30 2899 C 284.847 0.496297 -4.55303 0
M  V30 2900 N 286.338 0.557151 -4.59837 0
M  V30 2901 C 287.073 0.575726 -5.70502 0
M  V30 2902 N 286.569 0.550714 -6.90608 0
M  V30 2903 N 288.362 0.620277 -5.58667 0
M  V30 2904 H 280.513 -0.788673 -1.97215 0
M  V30 2905 H 282.776 -0.293188 -0.901524 0
M  V30 2906 H 282.482 -0.509659 -3.47988 0
M  V30 2907 H 282.356 1.2386 -3.56284 0
M  V30 2908 H 284.743 1.41886 -2.58751 0
M  V30 2909 H 284.824 -0.347894 -2.53423 0
M  V30 2910 H 284.468 -0.418162 -5.06176 0
M  V30 2911 H 284.398 1.3618 -5.08687 0
M  V30 2912 H 286.889 0.581816 -3.73394 0
M  V30 2913 H 287.202 0.568075 -7.70709 0
M  V30 2914 H 285.547 0.517816 -6.93068 0
M  V30 2915 H 288.738 0.637322 -4.63741 0
M  V30 2916 H 288.911 0.631283 -6.44918 0
M  V30 2917 N 282.317 1.53212 0.369288 0
M  V30 2918 C 283.247 1.82365 1.45826 0
M  V30 2919 C 284.228 0.676907 1.56051 0
M  V30 2920 O 285.413 0.926401 1.70679 0
M  V30 2921 C 282.543 2.01023 2.83208 0
M  V30 2922 C 281.497 3.1678 2.8781 0
M  V30 2923 C 280.823 3.20724 4.27832 0
M  V30 2924 C 282.123 4.55447 2.55667 0
M  V30 2925 H 283.817 2.73559 1.21678 0
M  V30 2926 H 281.363 1.3163 0.583911 0
M  V30 2927 H 283.316 2.20001 3.59413 0
M  V30 2928 H 282.04 1.06536 3.08736 0
M  V30 2929 H 280.699 2.97616 2.14056 0
M  V30 2930 H 280.347 2.23882 4.50429 0
M  V30 2931 H 280.047 3.98496 4.31827 0
M  V30 2932 H 281.571 3.41881 5.05915 0
M  V30 2933 H 282.985 4.74611 3.21586 0
M  V30 2934 H 281.382 5.35432 2.70984 0
M  V30 2935 H 282.452 4.60812 1.5093 0
M  V30 2936 N 283.795 -0.628877 1.44509 0
M  V30 2937 C 284.758 -1.72263 1.51188 0
M  V30 2938 C 285.758 -1.55907 0.39367 0
M  V30 2939 O 286.948 -1.61361 0.656377 0
M  V30 2940 C 284.08 -3.11365 1.38798 0
M  V30 2941 H 285.273 -1.67714 2.4862 0
M  V30 2942 H 282.826 -0.842737 1.31634 0
M  V30 2943 H 283.561 -3.21507 0.424693 0
M  V30 2944 H 283.346 -3.24644 2.19884 0
M  V30 2945 H 284.836 -3.91075 1.46458 0
M  V30 2946 N 285.273 -1.31445 -0.869486 0
M  V30 2947 C 286.203 -1.21727 -1.99261 0
M  V30 2948 C 287.184 -0.104359 -1.6978 0
M  V30 2949 O 288.369 -0.289038 -1.92037 0
M  V30 2950 C 285.499 -0.924317 -3.34774 0
M  V30 2951 C 284.453 -1.99685 -3.78563 0
M  V30 2952 C 283.779 -1.55658 -5.11541 0
M  V30 2953 C 285.079 -3.41003 -3.95619 0
M  V30 2954 H 286.773 -2.1569 -2.07649 0
M  V30 2955 H 284.319 -1.03839 -0.997675 0
M  V30 2956 H 286.272 -0.842934 -4.12883 0
M  V30 2957 H 284.996 0.0509793 -3.2656 0
M  V30 2958 H 283.655 -2.06813 -3.02694 0
M  V30 2959 H 283.303 -0.569132 -4.9977 0
M  V30 2960 H 283.003 -2.27409 -5.41811 0
M  V30 2961 H 284.527 -1.48928 -5.92159 0
M  V30 2962 H 285.941 -3.36547 -4.64122 0
M  V30 2963 H 284.338 -4.10975 -4.37286 0
M  V30 2964 H 285.408 -3.81754 -2.98985 0
M  V30 2965 N 286.751 1.08385 -1.14413 0
M  V30 2966 C 287.999 1.80419 -0.910679 0
M  V30 2967 C 288.32 1.86658 0.564243 0
M  V30 2968 O 287.59 1.35985 1.41014 0
M  V30 2969 H 286.17 0.668204 -0.333934 0
M  V30 2970 H 288.832 1.31037 -1.44275 0
M  V30 2971 H 287.928 2.83238 -1.31082 0
M  V30 2972 N 288.23 0.939286 1.26551 0
M  V30 2973 C 289.16 0.465044 2.28822 0
M  V30 2974 C 290.141 -0.480692 1.63167 0
M  V30 2975 O 291.326 -0.382955 1.90387 0
M  V30 2976 C 288.456 -0.27234 3.46231 0
M  V30 2977 C 287.41 0.58666 4.2396 0
M  V30 2978 C 286.736 -0.280573 5.33963 0
M  V30 2979 C 288.036 1.85704 4.88171 0
M  V30 2980 H 289.73 1.31979 2.68741 0
M  V30 2981 H 287.276 0.636061 1.29191 0
M  V30 2982 H 289.229 -0.615133 4.16886 0
M  V30 2983 H 287.953 -1.16121 3.0526 0
M  V30 2984 H 286.612 0.91232 3.55067 0
M  V30 2985 H 286.26 -1.16874 4.89234 0
M  V30 2986 H 285.96 0.29076 5.8688 0
M  V30 2987 H 287.484 -0.618678 6.07458 0
M  V30 2988 H 288.898 1.58161 5.51052 0
M  V30 2989 H 287.295 2.37279 5.51197 0
M  V30 2990 H 288.365 2.56957 4.11219 0
M  V30 2991 N 289.708 -1.40897 0.706093 0
M  V30 2992 C 290.948 -2.02916 0.245827 0
M  V30 2993 C 291.312 -1.54751 -1.13649 0
M  V30 2994 O 292.513 -2.08768 -1.69321 0
M  V30 2995 C 290.784 -3.56031 0.312537 0
M  V30 2996 S 292.343 -4.38741 -0.0721388 0
M  V30 2997 H 289.161 -0.704186 0.0982007 0
M  V30 2998 H 291.763 -1.72168 0.926207 0
M  V30 2999 H 290.467 -3.88579 1.32039 0
M  V30 3000 H 289.998 -3.91495 -0.386641 0
M  V30 3001 H 292.013 -4.78952 -1.29692 0
M  V30 3002 N 291.186 -0.45159 -1.50991 0
M  V30 3003 C 292.119 0.398179 -2.24699 0
M  V30 3004 C 293.097 1.01276 -1.27208 0
M  V30 3005 O 294.281 1.05247 -1.56382 0
M  V30 3006 C 291.408 1.55618 -3.00833 0
M  V30 3007 C 290.454 1.0609 -4.13095 0
M  V30 3008 S 291.287 -0.00865136 -5.35499 0
M  V30 3009 C 292.443 1.15369 -6.15175 0
M  V30 3010 H 292.676 -0.227555 -2.96428 0
M  V30 3011 H 290.209 -0.236251 -1.52582 0
M  V30 3012 H 292.167 2.21997 -3.45293 0
M  V30 3013 H 290.828 2.15337 -2.28667 0
M  V30 3014 H 290.021 1.92726 -4.65696 0
M  V30 3015 H 289.623 0.47513 -3.7097 0
M  V30 3016 H 291.915 2.06925 -6.45126 0
M  V30 3017 H 292.858 0.667344 -7.04948 0
M  V30 3018 H 293.266 1.3987 -5.46897 0
M  V30 3019 N 292.664 1.56529 -0.183458 0
M  V30 3020 C 293.627 2.17324 0.728223 0
M  V30 3021 C 294.627 1.12453 1.14939 0
M  V30 3022 O 295.817 1.37902 1.06437 0
M  V30 3023 C 292.949 2.76591 1.99274 0
M  V30 3024 H 294.142 2.99241 0.198772 0
M  V30 3025 H 291.695 1.5616 0.0661391 0
M  V30 3026 H 292.43 1.98441 2.56499 0
M  V30 3027 H 292.215 3.5335 1.69959 0
M  V30 3028 H 293.705 3.23311 2.6431 0
M  V30 3029 N 294.142 -0.090211 1.57342 0
M  V30 3030 C 295.105 -1.09335 2.01441 0
M  V30 3031 C 296.105 -1.32666 0.908641 0
M  V30 3032 O 297.295 -1.28697 1.174 0
M  V30 3033 C 294.427 -2.44136 2.3793 0
M  V30 3034 H 295.62 -0.713662 2.91285 0
M  V30 3035 H 293.173 -0.335404 1.52659 0
M  V30 3036 H 293.908 -2.86972 1.51055 0
M  V30 3037 H 293.693 -2.28548 3.18603 0
M  V30 3038 H 295.183 -3.16277 2.72688 0
M  V30 3039 N 295.62 -1.53406 -0.361157 0
M  V30 3040 C 296.866 -1.70999 -1.1014 0
M  V30 3041 C 297.221 -0.458425 -1.86859 0
M  V30 3042 O 296.514 0.548654 -1.83577 0
M  V30 3043 C 296.708 -2.90211 -2.08596 0
M  V30 3044 C 296.537 -4.26841 -1.41553 0
M  V30 3045 C 295.307 -4.91621 -1.16778 0
M  V30 3046 C 297.505 -5.07212 -0.850915 0
M  V30 3047 N 295.487 -6.12164 -0.461312 0
M  V30 3048 C 296.858 -6.19394 -0.274046 0
M  V30 3049 C 298.913 -4.92218 -0.750036 0
M  V30 3050 C 297.616 -7.18221 0.393868 0
M  V30 3051 C 299.642 -5.91322 -0.095894 0
M  V30 3052 C 299.004 -7.0283 0.470081 0
M  V30 3053 H 295.103 -0.678939 -0.388028 0
M  V30 3054 H 297.687 -1.90811 -0.38722 0
M  V30 3055 H 295.858 -2.71931 -2.77323 0
M  V30 3056 H 297.59 -2.96606 -2.7533 0
M  V30 3057 H 294.345 -4.50849 -1.45024 0
M  V30 3058 H 294.769 -6.76888 -0.123312 0
M  V30 3059 H 299.411 -4.06192 -1.17337 0
M  V30 3060 H 297.129 -8.03835 0.82914 0
M  V30 3061 H 300.715 -5.81797 -0.0187075 0
M  V30 3062 H 299.595 -7.782 0.968241 0
M  V30 3063 N 297.098 0.621204 -1.44841 0
M  V30 3064 C 298.028 1.74366 -1.55303 0
M  V30 3065 C 299.009 1.65199 -0.405385 0
M  V30 3066 O 300.194 1.83807 -0.626787 0
M  V30 3067 C 297.324 3.12931 -1.50637 0
M  V30 3068 C 296.278 3.36896 -2.63979 0
M  V30 3069 C 295.604 4.75594 -2.44366 0
M  V30 3070 C 296.904 3.28483 -4.06074 0
M  V30 3071 H 298.598 1.65867 -2.49256 0
M  V30 3072 H 296.144 0.796558 -1.19962 0
M  V30 3073 H 298.097 3.9124 -1.56555 0
M  V30 3074 H 296.821 3.22237 -0.532057 0
M  V30 3075 H 295.48 2.60972 -2.57467 0
M  V30 3076 H 295.128 4.81616 -1.45105 0
M  V30 3077 H 294.828 4.92586 -3.20364 0
M  V30 3078 H 296.352 5.5612 -2.52117 0
M  V30 3079 H 297.766 3.96684 -4.13902 0
M  V30 3080 H 296.163 3.57008 -4.82354 0
M  V30 3081 H 297.233 2.26133 -4.28943 0
M  V30 3082 N 298.576 1.31904 0.862503 0
M  V30 3083 C 299.509 1.14514 1.97388 0
M  V30 3084 C 300.487 0.0466493 1.62533 0
M  V30 3085 O 301.671 0.204484 1.87388 0
M  V30 3086 C 298.798 0.751347 3.30261 0
M  V30 3087 C 297.844 1.85395 3.84098 0
M  V30 3088 S 298.677 3.46081 4.08642 0
M  V30 3089 C 299.833 3.08655 5.44502 0
M  V30 3090 H 300.066 2.08597 2.11836 0
M  V30 3091 H 297.599 1.16475 1.01356 0
M  V30 3092 H 299.557 0.530901 4.07052 0
M  V30 3093 H 298.218 -0.170493 3.13637 0
M  V30 3094 H 297.411 1.53122 4.80177 0
M  V30 3095 H 297.013 2.02984 3.14123 0
M  V30 3096 H 299.305 2.58012 6.26447 0
M  V30 3097 H 300.248 4.03726 5.81731 0
M  V30 3098 H 300.656 2.45891 5.08132 0
M  V30 3099 N 300.054 -1.07777 1.14986 0
M  V30 3100 C 301.017 -2.13041 0.845358 0
M  V30 3101 C 302.017 -1.60071 -0.152931 0
M  V30 3102 O 303.207 -1.74033 0.0761879 0
M  V30 3103 C 300.339 -3.39896 0.261383 0
M  V30 3104 H 301.532 -2.41485 1.77834 0
M  V30 3105 H 299.085 -1.23595 0.956757 0
M  V30 3106 H 299.82 -3.17091 -0.68 0
M  V30 3107 H 299.605 -3.79642 0.980514 0
M  V30 3108 H 301.095 -4.17548 0.0657687 0
M  V30 3109 N 301.532 -0.945985 -1.26051 0
M  V30 3110 C 302.495 -0.463897 -2.24456 0
M  V30 3111 C 303.495 0.427655 -1.55009 0
M  V30 3112 O 304.685 0.226157 -1.72726 0
M  V30 3113 C 301.817 0.330812 -3.39291 0
M  V30 3114 H 303.01 -1.33357 -2.68619 0
M  V30 3115 H 300.563 -0.728416 -1.38289 0
M  V30 3116 H 301.298 1.21852 -3.00537 0
M  V30 3117 H 301.083 -0.308679 -3.90883 0
M  V30 3118 H 302.573 0.657865 -4.12386 0
M  V30 3119 N 303.011 1.40521 -0.713556 0
M  V30 3120 C 303.974 2.29098 -0.0684347 0
M  V30 3121 C 304.974 1.45268 0.689472 0
M  V30 3122 O 306.164 1.66205 0.521677 0
M  V30 3123 C 303.296 3.28446 0.913024 0
M  V30 3124 H 304.489 2.87645 -0.84855 0
M  V30 3125 H 302.042 1.48809 -0.47809 0
M  V30 3126 H 302.777 2.74913 1.72027 0
M  V30 3127 H 302.562 3.90327 0.372472 0
M  V30 3128 H 304.052 3.94777 1.36165 0
M  V30 3129 N 304.489 0.459591 1.5075 0
M  V30 3130 C 305.419 -0.330644 2.31147 0
M  V30 3131 C 306.4 -1.00087 1.37538 0
M  V30 3132 O 307.585 -1.00025 1.66459 0
M  V30 3133 C 304.715 -1.41958 3.16962 0
M  V30 3134 C 303.669 -0.871608 4.19031 0
M  V30 3135 C 302.995 -2.05797 4.9351 0
M  V30 3136 C 304.295 0.109251 5.22186 0
M  V30 3137 H 305.989 0.340336 2.97459 0
M  V30 3138 H 303.535 0.165119 1.4305 0
M  V30 3139 H 305.488 -1.9798 3.71997 0
M  V30 3140 H 304.212 -2.11917 2.48513 0
M  V30 3141 H 302.871 -0.333442 3.6508 0
M  V30 3142 H 302.519 -2.74427 4.21544 0
M  V30 3143 H 302.219 -1.6976 5.62544 0
M  V30 3144 H 303.743 -2.62331 5.51375 0
M  V30 3145 H 305.157 -0.361405 5.7216 0
M  V30 3146 H 303.554 0.383316 5.98875 0
M  V30 3147 H 304.624 1.03887 4.73641 0
M  V30 3148 N 305.967 -1.56429 0.191757 0
M  V30 3149 C 306.93 -2.17707 -0.716688 0
M  V30 3150 C 307.93 -1.13061 -1.14341 0
M  V30 3151 O 309.12 -1.38464 -1.05704 0
M  V30 3152 C 306.252 -2.77644 -1.97804 0
M  V30 3153 H 307.445 -2.99342 -0.1829 0
M  V30 3154 H 304.998 -1.56193 -0.0578566 0
M  V30 3155 H 305.733 -1.99799 -2.55443 0
M  V30 3156 H 305.518 -3.54246 -1.68083 0
M  V30 3157 H 307.008 -3.24708 -2.62592 0
M  V30 3158 N 307.445 0.0818655 -1.57387 0
M  V30 3159 C 308.375 1.09885 -2.06028 0
M  V30 3160 C 309.356 1.4098 -0.951774 0
M  V30 3161 O 310.541 1.50781 -1.22387 0
M  V30 3162 C 307.671 2.4151 -2.4958 0
M  V30 3163 C 306.625 2.24792 -3.64215 0
M  V30 3164 C 305.951 3.61712 -3.93787 0
M  V30 3165 C 307.251 1.67749 -4.94629 0
M  V30 3166 H 308.945 0.694128 -2.91243 0
M  V30 3167 H 306.491 0.332448 -1.4011 0
M  V30 3168 H 308.444 3.12939 -2.82219 0
M  V30 3169 H 307.168 2.83943 -1.61381 0
M  V30 3170 H 305.827 1.55807 -3.31843 0
M  V30 3171 H 305.475 4.01697 -3.02735 0
M  V30 3172 H 305.175 3.51368 -4.70971 0
M  V30 3173 H 306.699 4.34587 -4.28913 0
M  V30 3174 H 308.113 2.29032 -5.25564 0
M  V30 3175 H 306.51 1.68128 -5.76067 0
M  V30 3176 H 307.58 0.638059 -4.80684 0
M  V30 3177 N 308.923 1.53595 0.353017 0
M  V30 3178 C 310.334 1.61937 0.929153 0
M  V30 3179 C 310.685 0.494686 1.89861 0
M  V30 3180 O 309.81 -0.377017 2.1309 0
M  V30 3181 C 310.405 2.93526 1.69199 0
M  V30 3182 C 308.964 3.04161 2.21727 0
M  V30 3183 C 308.111 2.57322 1.03348 0
M  V30 3184 H 311.062 1.58155 0.131431 0
M  V30 3185 H 311.083 2.82034 2.55416 0
M  V30 3186 H 310.595 3.75362 0.986144 0
M  V30 3187 H 308.696 2.26938 2.95516 0
M  V30 3188 H 308.809 4.09465 2.48748 0
M  V30 3189 H 307.173 2.12499 1.40414 0
M  V30 3190 H 307.956 3.41588 0.342428 0
M  V30 3191 N 310.401 -0.613514 1.45168 0
M  V30 3192 C 311.331 -1.7354 1.56225 0
M  V30 3193 C 312.312 -1.64981 0.41414 0
M  V30 3194 O 313.497 -1.83472 0.636526 0
M  V30 3195 C 310.627 -3.12128 1.52295 0
M  V30 3196 C 309.581 -3.35491 2.65762 0
M  V30 3197 C 308.907 -4.74291 2.46885 0
M  V30 3198 C 310.207 -3.26325 4.0781 0
M  V30 3199 H 311.901 -1.64543 2.50132 0
M  V30 3200 H 309.447 -0.790185 1.20383 0
M  V30 3201 H 311.4 -3.90404 1.58628 0
M  V30 3202 H 310.124 -3.2195 0.549139 0
M  V30 3203 H 308.783 -2.59603 2.58847 0
M  V30 3204 H 308.431 -4.80839 1.47657 0
M  V30 3205 H 308.131 -4.9088 3.22972 0
M  V30 3206 H 309.655 -5.54775 2.55063 0
M  V30 3207 H 311.069 -3.94483 4.16 0
M  V30 3208 H 309.466 -3.54445 4.8424 0
M  V30 3209 H 310.536 -2.23855 4.30136 0
M  V30 3210 N 311.879 -1.3236 -0.855495 0
M  V30 3211 C 313.107 -1.2587 -1.64208 0
M  V30 3212 C 313.522 0.173457 -1.88002 0
M  V30 3213 O 312.879 1.11027 -1.44842 0
M  V30 3214 C 312.93 -2.01424 -3.00184 0
M  V30 3215 O 312.651 -3.39051 -2.77445 0
M  V30 3216 C 314.152 -2.01948 -3.94629 0
M  V30 3217 H 311.372 -0.434318 -0.511477 0
M  V30 3218 H 313.916 -1.74469 -1.0668 0
M  V30 3219 H 312.071 -1.56549 -3.5436 0
M  V30 3220 H 312.485 -3.77711 -3.63916 0
M  V30 3221 H 313.959 -2.59297 -4.87308 0
M  V30 3222 H 314.436 -1.00554 -4.27534 0
M  V30 3223 H 315.042 -2.46767 -3.4639 0
M  V30 3224 N 313.357 1.07166 -1.15556 0
M  V30 3225 C 314.287 2.16403 -0.877046 0
M  V30 3226 C 315.268 1.69217 0.173111 0
M  V30 3227 O 316.453 1.94181 0.027084 0
M  V30 3228 C 313.583 3.45349 -0.367632 0
M  V30 3229 C 312.537 4.05995 -1.35468 0
M  V30 3230 C 311.863 5.30045 -0.704038 0
M  V30 3231 C 313.163 4.45804 -2.72132 0
M  V30 3232 H 314.857 2.39959 -1.79053 0
M  V30 3233 H 312.403 1.15325 -0.862331 0
M  V30 3234 H 314.356 4.21095 -0.160317 0
M  V30 3235 H 313.08 3.21385 0.581326 0
M  V30 3236 H 311.739 3.32296 -1.54839 0
M  V30 3237 H 311.387 5.02373 0.251128 0
M  V30 3238 H 311.087 5.71579 -1.36277 0
M  V30 3239 H 312.611 6.08495 -0.50654 0
M  V30 3240 H 314.025 5.12671 -2.56595 0
M  V30 3241 H 312.422 4.98296 -3.34397 0
M  V30 3242 H 313.492 3.57083 -3.28054 0
M  V30 3243 N 314.835 0.952656 1.25548 0
M  V30 3244 C 315.767 0.428609 2.25157 0
M  V30 3245 C 316.78 -0.454428 1.56329 0
M  V30 3246 O 317.969 -0.263023 1.76552 0
M  V30 3247 C 315.069 -0.401972 3.36508 0
M  V30 3248 C 314.242 0.467601 4.34893 0
M  V30 3249 C 313.301 -0.30445 5.25319 0
M  V30 3250 O 312.327 0.296473 5.68427 0
M  V30 3251 N 313.529 -1.59805 5.5807 0
M  V30 3252 H 316.294 1.28497 2.70756 0
M  V30 3253 H 313.855 0.822798 1.39433 0
M  V30 3254 H 315.847 -0.926134 3.9396 0
M  V30 3255 H 314.417 -1.15918 2.90313 0
M  V30 3256 H 313.637 1.17288 3.76347 0
M  V30 3257 H 314.925 1.06119 4.97611 0
M  V30 3258 H 314.323 -2.10823 5.24948 0
M  V30 3259 H 312.88 -2.06822 6.18116 0
M  V30 3260 N 316.313 -1.40141 0.720998 0
M  V30 3261 C 317.729 -1.54632 0.395113 0
M  V30 3262 C 317.929 -1.69115 -1.09555 0
M  V30 3263 O 316.985 -1.68377 -1.88163 0
M  V30 3264 C 318.298 -2.77177 1.1659 0
M  V30 3265 C 319.846 -2.91 1.15274 0
M  V30 3266 C 320.321 -4.16465 1.90579 0
M  V30 3267 N 321.812 -4.23476 1.87675 0
M  V30 3268 C 322.547 -5.19475 2.42762 0
M  V30 3269 N 322.043 -6.21348 3.06428 0
M  V30 3270 N 323.836 -5.11592 2.32874 0
M  V30 3271 H 315.987 -1.28986 1.68749 0
M  V30 3272 H 318.25 -0.62412 0.713567 0
M  V30 3273 H 317.956 -2.72771 2.22011 0
M  V30 3274 H 317.83 -3.69442 0.76108 0
M  V30 3275 H 320.217 -2.94907 0.106702 0
M  V30 3276 H 320.298 -1.99838 1.59682 0
M  V30 3277 H 319.942 -4.1332 2.95176 0
M  V30 3278 H 319.872 -5.06646 1.43587 0
M  V30 3279 H 322.363 -3.50497 1.41281 0
M  V30 3280 H 322.676 -6.91034 3.45965 0
M  V30 3281 H 321.021 -6.21777 3.10514 0
M  V30 3282 H 324.212 -4.30936 1.82789 0
M  V30 3283 H 324.385 -5.86233 2.76106 0
M  V30 3284 N 317.792 -0.46758 -1.50504 0
M  V30 3285 C 318.724 0.364655 -2.26281 0
M  V30 3286 C 319.737 0.960151 -1.31472 0
M  V30 3287 O 320.926 0.849153 -1.57008 0
M  V30 3288 C 318.026 1.52509 -3.02645 0
M  V30 3289 C 317.199 1.04302 -4.24782 0
M  V30 3290 C 316.258 2.07709 -4.8347 0
M  V30 3291 O 315.284 1.65913 -5.44483 0
M  V30 3292 N 316.486 3.40485 -4.70159 0
M  V30 3293 H 319.251 -0.28495 -2.98342 0
M  V30 3294 H 316.812 -0.298163 -1.59131 0
M  V30 3295 H 318.804 2.21371 -3.38787 0
M  V30 3296 H 317.374 2.07945 -2.33404 0
M  V30 3297 H 316.594 0.180393 -3.93787 0
M  V30 3298 H 317.882 0.698798 -5.03978 0
M  V30 3299 H 317.28 3.77155 -4.21629 0
M  V30 3300 H 315.837 4.05156 -5.1058 0
M  V30 3301 N 319.27 1.56325 -0.20005 0
M  V30 3302 C 320.498 2.02105 0.442874 0
M  V30 3303 C 320.913 1.08014 1.5485 0
M  V30 3304 O 320.27 0.0858797 1.82298 0
M  V30 3305 C 320.321 3.47549 0.994583 0
M  V30 3306 O 320.042 4.38049 -0.0669322 0
M  V30 3307 C 321.543 4.0887 1.7129 0
M  V30 3308 H 318.763 0.661807 0.110691 0
M  V30 3309 H 321.307 2.02134 -0.310207 0
M  V30 3310 H 319.462 3.48204 1.69803 0
M  V30 3311 H 319.876 5.23368 0.344462 0
M  V30 3312 H 321.35 5.12475 2.05118 0
M  V30 3313 H 321.827 3.52615 2.61838 0
M  V30 3314 H 322.433 4.12002 1.05518 0
M  V30 3315 N 320.748 -0.0735177 1.57428 0
M  V30 3316 C 321.995 -0.772999 1.87166 0
M  V30 3317 C 322.323 -1.77665 0.791551 0
M  V30 3318 O 321.578 -1.94541 -0.212636 0
M  V30 3319 C 321.877 -1.51799 3.23561 0
M  V30 3320 C 321.543 -0.654484 4.46125 0
M  V30 3321 C 320.205 -0.416511 4.79394 0
M  V30 3322 C 322.557 -0.0555862 5.2117 0
M  V30 3323 C 319.885 0.429869 5.85123 0
M  V30 3324 C 322.237 0.778239 6.27795 0
M  V30 3325 C 320.901 1.0261 6.59566 0
M  V30 3326 H 320.171 -0.282861 0.684888 0
M  V30 3327 H 322.818 -0.0338272 1.9147 0
M  V30 3328 H 321.123 -2.32932 3.1504 0
M  V30 3329 H 322.82 -2.06397 3.43804 0
M  V30 3330 H 319.41 -0.850091 4.20085 0
M  V30 3331 H 323.594 -0.226558 4.95783 0
M  V30 3332 H 318.85 0.630665 6.08139 0
M  V30 3333 H 323.024 1.24906 6.85107 0
M  V30 3334 H 320.651 1.68371 7.4132 0
M  V30 3335 N 322.226 -1.5378 -0.344866 0
M  V30 3336 C 323.642 -1.44015 -0.687888 0
M  V30 3337 C 323.842 -0.595834 -1.92489 0
M  V30 3338 O 322.898 -0.0863064 -2.52352 0
M  V30 3339 C 324.211 -2.87481 -0.881758 0
M  V30 3340 C 325.759 -2.97247 -0.980459 0
M  V30 3341 C 326.234 -4.41819 -1.20665 0
M  V30 3342 N 327.725 -4.45339 -1.27389 0
M  V30 3343 C 328.46 -5.54333 -1.46639 0
M  V30 3344 N 327.956 -6.73335 -1.63071 0
M  V30 3345 N 329.749 -5.41944 -1.49176 0
M  V30 3346 H 321.9 -2.07169 0.468475 0
M  V30 3347 H 324.163 -0.93643 0.147655 0
M  V30 3348 H 323.869 -3.51672 -0.0443444 0
M  V30 3349 H 323.743 -3.32352 -1.78388 0
M  V30 3350 H 326.13 -2.33197 -1.8084 0
M  V30 3351 H 326.211 -2.5574 -0.0552713 0
M  V30 3352 H 325.855 -5.06449 -0.383652 0
M  V30 3353 H 325.785 -4.80917 -2.14539 0
M  V30 3354 H 328.276 -3.59585 -1.1622 0
M  V30 3355 H 328.589 -7.52165 -1.77391 0
M  V30 3356 H 326.934 -6.76282 -1.60209 0
M  V30 3357 H 330.125 -4.47932 -1.3592 0
M  V30 3358 H 330.298 -6.26946 -1.63837 0
M  V30 3359 N 323.704 0.605807 -1.45491 0
M  V30 3360 C 324.634 1.72709 -1.57143 0
M  V30 3361 C 325.615 1.6476 -0.422884 0
M  V30 3362 O 326.8 1.83132 -0.646247 0
M  V30 3363 C 323.93 3.11316 -1.53948 0
M  V30 3364 C 322.884 3.34077 -2.67537 0
M  V30 3365 C 322.21 4.72975 -2.49397 0
M  V30 3366 C 323.51 3.24158 -4.09535 0
M  V30 3367 H 325.204 1.63214 -2.51001 0
M  V30 3368 H 322.75 0.78379 -1.208 0
M  V30 3369 H 324.703 3.89557 -1.60696 0
M  V30 3370 H 323.427 3.21655 -0.566205 0
M  V30 3371 H 322.086 2.58227 -2.6022 0
M  V30 3372 H 321.734 4.8005 -1.50205 0
M  V30 3373 H 321.434 4.8916 -3.25571 0
M  V30 3374 H 322.958 5.53414 -2.58002 0
M  V30 3375 H 324.372 3.92271 -4.18086 0
M  V30 3376 H 322.769 3.51872 -4.86113 0
M  V30 3377 H 323.839 2.2157 -4.31317 0
M  V30 3378 N 325.182 1.32811 0.848464 0
M  V30 3379 C 326.145 1.22194 1.9391 0
M  V30 3380 C 327.145 0.143404 1.60159 0
M  V30 3381 O 328.335 0.394253 1.6968 0
M  V30 3382 C 325.467 0.88067 3.29328 0
M  V30 3383 H 326.66 2.19127 2.04752 0
M  V30 3384 H 324.213 1.16731 1.0394 0
M  V30 3385 H 324.948 -0.0865776 3.24184 0
M  V30 3386 H 324.733 1.66052 3.55203 0
M  V30 3387 H 326.223 0.830871 4.09251 0
M  V30 3388 N 326.66 -1.06551 1.16123 0
M  V30 3389 C 328.076 -1.3142 0.905585 0
M  V30 3390 C 328.276 -1.96571 -0.442964 0
M  V30 3391 O 327.332 -2.23068 -1.18308 0
M  V30 3392 C 328.645 -2.19741 2.05267 0
M  V30 3393 C 330.193 -2.33165 2.08813 0
M  V30 3394 C 330.668 -3.24838 3.22868 0
M  V30 3395 N 332.159 -3.32421 3.22568 0
M  V30 3396 C 332.894 -4.0344 4.0746 0
M  V30 3397 N 332.39 -4.77003 5.02434 0
M  V30 3398 N 334.183 -3.99464 3.95456 0
M  V30 3399 H 326.334 -0.626548 2.02949 0
M  V30 3400 H 328.597 -0.338777 0.8854 0
M  V30 3401 H 328.303 -1.79142 3.02657 0
M  V30 3402 H 328.177 -3.20313 1.99198 0
M  V30 3403 H 330.564 -2.73013 1.12018 0
M  V30 3404 H 330.645 -1.3227 2.18948 0
M  V30 3405 H 330.289 -2.85708 4.19921 0
M  V30 3406 H 330.219 -4.25707 3.0997 0
M  V30 3407 H 332.71 -2.79994 2.53795 0
M  V30 3408 H 333.023 -5.28712 5.63634 0
M  V30 3409 H 331.368 -4.75992 5.06415 0
M  V30 3410 H 334.559 -3.4111 3.20564 0
M  V30 3411 H 334.732 -4.54544 4.61837 0
M  V30 3412 N 328.138 -0.959301 -1.25041 0
M  V30 3413 C 329.363 -0.633507 -1.97488 0
M  V30 3414 C 329.788 0.788555 -1.70773 0
M  V30 3415 O 329.146 1.53394 -0.966431 0
M  V30 3416 C 329.194 -0.904057 -3.49083 0
M  V30 3417 O 328.298 0.0147939 -4.12397 0
M  V30 3418 H 327.639 -0.240368 -0.618966 0
M  V30 3419 H 330.169 -1.28717 -1.59038 0
M  V30 3420 H 330.179 -0.832203 -3.99423 0
M  V30 3421 H 328.854 -1.94048 -3.67856 0
M  V30 3422 H 327.431 -0.109664 -3.72739 0
M  V30 3423 N 329.616 1.39756 -0.72842 0
M  V30 3424 C 330.893 1.94574 -0.200079 0
M  V30 3425 C 331.273 1.66569 1.29684 0
M  V30 3426 O 330.621 0.990326 2.05924 0
M  V30 3427 C 330.831 3.45004 -0.526608 0
M  V30 3428 C 332.179 4.21965 -0.472318 0
M  V30 3429 O 333.203 3.53173 -0.463413 0
M  V30 3430 O 332.062 5.44552 -0.461075 0
M  V30 3431 H 329.156 0.826289 -0.0342851 0
M  V30 3432 H 331.702 1.49293 -0.806829 0
M  V30 3433 H 330.474 3.58796 -1.56144 0
M  V30 3434 H 330.097 3.97449 0.109449 0
M  V30 3435 N 331.094 0.475555 1.50254 0
M  V30 3436 C 332.51 0.12997 1.5907 0
M  V30 3437 C 332.71 -1.36385 1.48328 0
M  V30 3438 O 331.766 -2.13754 1.34407 0
M  V30 3439 C 333.079 0.684139 2.92814 0
M  V30 3440 C 334.627 0.647965 3.0622 0
M  V30 3441 C 335.102 1.17975 4.42545 0
M  V30 3442 N 336.593 1.13936 4.48969 0
M  V30 3443 C 337.328 1.52129 5.52851 0
M  V30 3444 N 336.824 1.97793 6.63965 0
M  V30 3445 N 338.617 1.43704 5.4342 0
M  V30 3446 H 330.768 1.44706 1.55479 0
M  V30 3447 H 333.031 0.598691 0.735033 0
M  V30 3448 H 332.737 1.73079 3.06164 0
M  V30 3449 H 332.611 0.130204 3.76975 0
M  V30 3450 H 334.998 -0.38979 2.92514 0
M  V30 3451 H 335.079 1.23876 2.23805 0
M  V30 3452 H 334.723 2.21616 4.57 0
M  V30 3453 H 334.653 0.565138 5.23559 0
M  V30 3454 H 337.144 0.804488 3.69238 0
M  V30 3455 H 337.457 2.25072 7.39299 0
M  V30 3456 H 335.802 2.01749 6.65073 0
M  V30 3457 H 338.993 1.07867 4.55502 0
M  V30 3458 H 339.166 1.73794 6.24259 0
M  V30 3459 N 332.573 -1.56217 0.208337 0
M  V30 3460 C 333.819 -1.98242 -0.427552 0
M  V30 3461 C 334.152 -1.09554 -1.60348 0
M  V30 3462 O 333.427 -0.15035 -1.93918 0
M  V30 3463 C 333.71 -3.4931 -0.874907 0
M  V30 3464 C 333.563 -4.48773 0.303751 0
M  V30 3465 C 334.882 -4.04424 -1.73577 0
M  V30 3466 H 332.001 -0.720744 -0.153936 0
M  V30 3467 H 334.643 -1.87586 0.30192 0
M  V30 3468 H 332.793 -3.58522 -1.49648 0
M  V30 3469 H 334.465 -4.51586 0.941682 0
M  V30 3470 H 332.708 -4.23194 0.953375 0
M  V30 3471 H 333.379 -5.51976 -0.0519883 0
M  V30 3472 H 335.855 -3.98075 -1.21143 0
M  V30 3473 H 334.731 -5.1047 -2.01771 0
M  V30 3474 H 334.992 -3.50494 -2.69456 0
M  V30 3475 N 334.051 0.0651679 -1.57465 0
M  V30 3476 C 334.981 1.07693 -2.07182 0
M  V30 3477 C 335.962 1.39962 -0.966673 0
M  V30 3478 O 337.147 1.49475 -1.2398 0
M  V30 3479 C 334.277 2.3885 -2.52127 0
M  V30 3480 C 333.231 2.20917 -3.66579 0
M  V30 3481 C 332.557 3.57515 -3.97601 0
M  V30 3482 C 333.857 1.62493 -4.9638 0
M  V30 3483 H 335.551 0.663199 -2.91962 0
M  V30 3484 H 333.097 0.317569 -1.40455 0
M  V30 3485 H 335.05 3.09928 -2.85522 0
M  V30 3486 H 333.774 2.82215 -1.64384 0
M  V30 3487 H 332.433 1.52279 -3.33477 0
M  V30 3488 H 332.081 3.98463 -3.06979 0
M  V30 3489 H 331.781 3.46353 -4.74672 0
M  V30 3490 H 333.305 4.30013 -4.33499 0
M  V30 3491 H 334.719 2.23445 -5.27963 0
M  V30 3492 H 333.116 1.62009 -5.77818 0
M  V30 3493 H 334.186 0.587041 -4.81333 0
M  V30 3494 N 335.529 1.53961 0.336706 0
M  V30 3495 C 336.769 1.73254 1.08454 0
M  V30 3496 C 337.133 0.488937 1.8567 0
M  V30 3497 O 338.334 0.559001 2.62923 0
M  V30 3498 C 336.605 2.96519 1.99528 0
M  V30 3499 S 338.164 3.36655 2.81441 0
M  V30 3500 H 334.982 0.609353 0.366347 0
M  V30 3501 H 337.584 1.92117 0.362124 0
M  V30 3502 H 336.288 3.85193 1.41614 0
M  V30 3503 H 335.819 2.80142 2.76196 0
M  V30 3504 H 337.834 2.90925 4.01967 0
M  V30 3505 N 337.007 -0.598083 1.45811 0
M  V30 3506 C 337.957 -1.70272 1.51629 0
M  V30 3507 C 338.941 -1.56382 0.378629 0
M  V30 3508 O 340.133 -1.65557 0.626087 0
M  V30 3509 C 337.262 -3.09042 1.49493 0
M  V30 3510 C 336.348 -3.28284 2.68496 0
M  V30 3511 N 336.739 -3.17748 3.93535 0
M  V30 3512 C 335.037 -3.59182 2.64394 0
M  V30 3513 C 335.738 -3.38579 4.7301 0
M  V30 3514 N 334.714 -3.63016 4.04624 0
M  V30 3515 H 338.516 -1.60634 2.46118 0
M  V30 3516 H 336.03 -0.801642 1.41235 0
M  V30 3517 H 338.027 -3.88302 1.51747 0
M  V30 3518 H 336.687 -3.19823 0.560683 0
M  V30 3519 H 337.698 -2.95944 4.25014 0
M  V30 3520 H 334.375 -3.76742 1.79922 0
M  V30 3521 H 335.765 -3.35747 5.82 0
M  V30 3522 N 338.485 -1.33259 -0.841409 0
M  V30 3523 C 339.762 -1.15174 -1.58096 0
M  V30 3524 C 340.142 0.282858 -2.09196 0
M  V30 3525 O 339.49 1.28151 -1.89181 0
M  V30 3526 C 339.7 -2.1907 -2.71679 0
M  V30 3527 C 341.048 -2.53093 -3.40924 0
M  V30 3528 O 342.072 -2.17717 -2.81918 0
M  V30 3529 O 340.931 -3.1379 -4.47435 0
M  V30 3530 H 338.025 -0.445303 -0.696875 0
M  V30 3531 H 340.571 -1.44833 -0.884385 0
M  V30 3532 H 339.343 -3.15443 -2.31541 0
M  V30 3533 H 338.966 -1.90481 -3.49002 0
M  V30 3534 N 339.963 1.05934 -1.16686 0
M  V30 3535 C 340.926 2.11669 -0.879144 0
M  V30 3536 C 341.926 1.60294 0.127445 0
M  V30 3537 O 343.116 1.7389 -0.103865 0
M  V30 3538 C 340.248 3.39438 -0.315425 0
M  V30 3539 H 341.441 2.38626 -1.81653 0
M  V30 3540 H 338.994 1.22058 -0.976299 0
M  V30 3541 H 339.729 3.18132 0.629468 0
M  V30 3542 H 339.514 3.78034 -1.04079 0
M  V30 3543 H 341.004 4.17391 -0.132189 0
M  V30 3544 N 341.441 0.965919 1.2453 0
M  V30 3545 C 342.371 0.513476 2.27784 0
M  V30 3546 C 343.352 -0.445974 1.6415 0
M  V30 3547 O 344.537 -0.342485 1.91156 0
M  V30 3548 C 341.667 -0.198839 3.4673 0
M  V30 3549 C 340.621 0.676456 4.2262 0
M  V30 3550 C 339.947 -0.167248 5.34438 0
M  V30 3551 C 341.247 1.96017 4.84123 0
M  V30 3552 H 342.941 1.3765 2.65881 0
M  V30 3553 H 340.487 0.663321 1.27813 0
M  V30 3554 H 342.44 -0.526567 4.18097 0
M  V30 3555 H 341.164 -1.0962 3.07654 0
M  V30 3556 H 339.823 0.98743 3.53052 0
M  V30 3557 H 339.471 -1.0647 4.91603 0
M  V30 3558 H 339.171 0.415181 5.86131 0
M  V30 3559 H 340.695 -0.489688 6.08633 0
M  V30 3560 H 342.109 1.69814 5.47573 0
M  V30 3561 H 340.506 2.48918 5.4604 0
M  V30 3562 H 341.576 2.65622 4.05676 0
M  V30 3563 N 342.919 -1.39368 0.735821 0
M  V30 3564 C 344.33 -1.83313 0.354015 0
M  V30 3565 C 344.681 -1.61461 -1.11466 0
M  V30 3566 O 343.806 -1.10621 -1.85989 0
M  V30 3567 C 344.401 -3.32781 0.635769 0
M  V30 3568 C 342.96 -3.75142 0.307448 0
M  V30 3569 C 342.107 -2.62358 0.897974 0
M  V30 3570 H 345.058 -1.28349 0.933398 0
M  V30 3571 H 345.079 -3.80388 -0.0921773 0
M  V30 3572 H 344.591 -3.48654 1.70476 0
M  V30 3573 H 342.692 -3.64857 -0.755674 0
M  V30 3574 H 342.805 -4.72532 0.790583 0
M  V30 3575 H 341.169 -2.52624 0.324551 0
M  V30 3576 H 341.952 -2.81036 1.97164 0
M  V30 3577 N 344.397 -0.483516 -1.5 0
M  V30 3578 C 345.327 0.293829 -2.31644 0
M  V30 3579 C 346.308 0.978864 -1.39112 0
M  V30 3580 O 347.493 0.973644 -1.68029 0
M  V30 3581 C 344.623 1.36897 -3.19181 0
M  V30 3582 C 343.577 0.804833 -4.20365 0
M  V30 3583 C 342.903 1.9792 -4.96721 0
M  V30 3584 C 344.203 -0.192313 -5.21946 0
M  V30 3585 H 345.897 -0.387616 -2.9688 0
M  V30 3586 H 343.443 -0.187856 -1.42769 0
M  V30 3587 H 345.396 1.92037 -3.751 0
M  V30 3588 H 344.12 2.07936 -2.51853 0
M  V30 3589 H 342.779 0.275319 -3.65565 0
M  V30 3590 H 342.427 2.67686 -4.25856 0
M  V30 3591 H 342.127 1.60789 -5.65173 0
M  V30 3592 H 343.651 2.53526 -5.55479 0
M  V30 3593 H 345.065 0.270333 -5.72662 0
M  V30 3594 H 343.462 -0.478543 -5.98189 0
M  V30 3595 H 344.532 -1.11409 -4.71928 0
M  V30 3596 N 345.875 1.56104 -0.216619 0
M  V30 3597 C 347.152 1.89988 0.465165 0
M  V30 3598 C 347.532 1.13326 1.78102 0
M  V30 3599 O 346.88 0.241033 2.27225 0
M  V30 3600 C 347.09 3.42646 0.662939 0
M  V30 3601 C 348.438 4.13311 0.972602 0
M  V30 3602 O 349.462 3.48217 0.749901 0
M  V30 3603 O 348.321 5.28396 1.39499 0
M  V30 3604 H 345.415 0.78979 0.245276 0
M  V30 3605 H 347.961 1.67721 -0.258436 0
M  V30 3606 H 346.733 3.90399 -0.26543 0
M  V30 3607 H 346.356 3.70677 1.43821 0
M  V30 3608 N 347.353 -0.0568162 1.57498 0
M  V30 3609 C 348.316 -1.05038 2.03715 0
M  V30 3610 C 349.316 -1.30709 0.936577 0
M  V30 3611 O 350.506 -1.26178 1.20103 0
M  V30 3612 C 347.638 -2.39034 2.43055 0
M  V30 3613 H 348.831 -0.651715 2.92733 0
M  V30 3614 H 346.384 -0.302947 1.53336 0
M  V30 3615 H 347.119 -2.83703 1.57108 0
M  V30 3616 H 346.904 -2.21739 3.2338 0
M  V30 3617 H 348.394 -3.10421 2.79336 0
M  V30 3618 N 348.832 -1.54138 -0.328536 0
M  V30 3619 C 349.764 -1.79509 -1.4251 0
M  V30 3620 C 350.777 -0.67688 -1.48061 0
M  V30 3621 O 351.966 -0.953898 -1.50874 0
M  V30 3622 C 349.066 -1.89337 -2.81078 0
M  V30 3623 C 348.239 -3.19443 -2.98789 0
M  V30 3624 C 347.298 -3.20036 -4.17688 0
M  V30 3625 O 346.324 -3.93697 -4.11086 0
M  V30 3626 N 347.526 -2.43467 -5.26976 0
M  V30 3627 H 350.291 -2.74139 -1.21111 0
M  V30 3628 H 347.852 -1.53373 -0.518499 0
M  V30 3629 H 349.844 -1.87167 -3.58818 0
M  V30 3630 H 348.414 -1.01826 -2.95551 0
M  V30 3631 H 347.634 -3.34614 -2.08391 0
M  V30 3632 H 348.922 -4.05354 -3.07515 0
M  V30 3633 H 348.32 -1.83201 -5.35214 0
M  V30 3634 H 346.877 -2.4708 -6.03154 0
M  V30 3635 N 350.31 0.590341 -1.46126 0
M  V30 3636 C 351.273 1.68194 -1.55703 0
M  V30 3637 C 352.273 1.54808 -0.434868 0
M  V30 3638 O 353.463 1.59564 -0.698928 0
M  V30 3639 C 350.595 3.07575 -1.47005 0
M  V30 3640 H 351.788 1.61064 -2.52979 0
M  V30 3641 H 349.341 0.807541 -1.33823 0
M  V30 3642 H 350.076 3.20268 -0.509785 0
M  V30 3643 H 349.861 3.187 -2.28414 0
M  V30 3644 H 351.351 3.87055 -1.56776 0
M  V30 3645 N 351.788 1.33704 0.83433 0
M  V30 3646 C 353.013 1.28615 1.62705 0
M  V30 3647 C 353.438 -0.139242 1.87584 0
M  V30 3648 O 352.796 -1.09734 1.4432 0
M  V30 3649 C 352.844 2.07139 2.95171 0
M  V30 3650 O 351.948 1.4331 3.86699 0
M  V30 3651 H 351.289 0.44226 0.49528 0
M  V30 3652 H 353.819 1.76335 1.03766 0
M  V30 3653 H 353.829 2.18073 3.44831 0
M  V30 3654 H 352.504 3.10779 2.76386 0
M  V30 3655 H 351.081 1.4105 3.45195 0
M  V30 3656 N 353.266 -1.05314 1.17247 0
M  V30 3657 C 354.216 -2.11313 0.856196 0
M  V30 3658 C 355.2 -1.60013 -0.168694 0
M  V30 3659 O 356.392 -1.76968 0.0335624 0
M  V30 3660 C 353.521 -3.41301 0.369917 0
M  V30 3661 C 352.607 -3.99401 1.42616 0
M  V30 3662 N 352.998 -4.31481 2.63928 0
M  V30 3663 C 351.296 -4.27126 1.28373 0
M  V30 3664 C 351.997 -4.77799 3.31787 0
M  V30 3665 N 350.973 -4.77843 2.59166 0
M  V30 3666 H 354.775 -2.33976 1.77856 0
M  V30 3667 H 352.289 -1.2295 1.06099 0
M  V30 3668 H 354.286 -4.16713 0.124897 0
M  V30 3669 H 352.946 -3.20072 -0.546253 0
M  V30 3670 H 353.957 -4.21519 3.00902 0
M  V30 3671 H 350.634 -4.15289 0.429111 0
M  V30 3672 H 352.024 -5.11743 4.35395 0
M  V30 3673 N 354.744 -0.972509 -1.24016 0
M  V30 3674 C 355.99 -0.647583 -1.92816 0
M  V30 3675 C 356.345 0.809015 -1.74564 0
M  V30 3676 O 355.638 1.57502 -1.09103 0
M  V30 3677 C 355.832 -0.963694 -3.44162 0
M  V30 3678 C 355.661 -2.44947 -3.77135 0
M  V30 3679 C 354.431 -3.11012 -3.98246 0
M  V30 3680 C 356.629 -3.42978 -3.83237 0
M  V30 3681 N 354.611 -4.49277 -4.18358 0
M  V30 3682 C 355.982 -4.66619 -4.08248 0
M  V30 3683 C 358.037 -3.37569 -3.65994 0
M  V30 3684 C 356.74 -5.85516 -4.17808 0
M  V30 3685 C 358.766 -4.55822 -3.76802 0
M  V30 3686 C 358.128 -5.78256 -4.02243 0
M  V30 3687 H 354.227 -0.287894 -0.727077 0
M  V30 3688 H 356.811 -1.24835 -1.49413 0
M  V30 3689 H 354.982 -0.391692 -3.8642 0
M  V30 3690 H 356.714 -0.596849 -4.00275 0
M  V30 3691 H 353.469 -2.61529 -3.94841 0
M  V30 3692 H 353.893 -5.20935 -4.32384 0
M  V30 3693 H 358.535 -2.43945 -3.45327 0
M  V30 3694 H 356.253 -6.79564 -4.37285 0
M  V30 3695 H 359.839 -4.53204 -3.64825 0
M  V30 3696 H 358.719 -6.68231 -4.10411 0
M  V30 3697 N 356.222 1.38976 -0.743202 0
M  V30 3698 C 357.154 2.29096 -0.0689228 0
M  V30 3699 C 358.167 1.47229 0.694791 0
M  V30 3700 O 359.356 1.70212 0.537597 0
M  V30 3701 C 356.456 3.25988 0.926548 0
M  V30 3702 C 355.629 4.36833 0.222647 0
M  V30 3703 C 354.688 5.13981 1.12739 0
M  V30 3704 O 353.714 5.6601 0.601795 0
M  V30 3705 N 354.916 5.25966 2.45641 0
M  V30 3706 H 357.681 2.87604 -0.842846 0
M  V30 3707 H 355.242 1.50645 -0.593109 0
M  V30 3708 H 357.234 3.74476 1.5346 0
M  V30 3709 H 355.804 2.68453 1.60162 0
M  V30 3710 H 355.024 3.90116 -0.565983 0
M  V30 3711 H 356.312 5.0811 -0.264841 0
M  V30 3712 H 355.71 4.85228 2.9081 0
M  V30 3713 H 354.267 5.77865 3.01522 0
M  V30 3714 N 357.7 0.491464 1.49741 0
M  V30 3715 C 359.111 0.0413169 1.86654 0
M  V30 3716 C 359.462 -1.36985 1.40462 0
M  V30 3717 O 358.587 -2.01917 0.778354 0
M  V30 3718 C 359.182 0.0682023 3.38731 0
M  V30 3719 C 357.741 -0.32656 3.74981 0
M  V30 3720 C 356.888 0.444888 2.73708 0
M  V30 3721 H 359.839 0.704733 1.42194 0
M  V30 3722 H 359.86 -0.729322 3.73445 0
M  V30 3723 H 359.372 1.09539 3.72321 0
M  V30 3724 H 357.473 -1.35734 3.46997 0
M  V30 3725 H 357.586 -0.013741 4.79098 0
M  V30 3726 H 355.95 -0.104062 2.54487 0
M  V30 3727 H 356.733 1.47197 3.10142 0
M  V30 3728 N 359.178 -1.55987 0.224894 0
M  V30 3729 C 360.141 -2.19178 -0.670348 0
M  V30 3730 C 361.141 -1.15461 -1.11917 0
M  V30 3731 O 362.331 -1.40675 -1.02743 0
M  V30 3732 C 359.463 -2.81777 -1.9187 0
M  V30 3733 H 360.656 -2.99662 -0.119364 0
M  V30 3734 H 358.209 -1.5628 -0.0247128 0
M  V30 3735 H 358.944 -2.05172 -2.51147 0
M  V30 3736 H 358.729 -3.57732 -1.60531 0
M  V30 3737 H 360.219 -3.30205 -2.55645 0
M  V30 3738 N 360.656 0.0484629 -1.57525 0
M  V30 3739 C 361.903 0.743125 -1.88372 0
M  V30 3740 C 362.231 1.76383 -0.819715 0
M  V30 3741 O 361.486 1.94855 0.181659 0
M  V30 3742 C 361.785 1.46632 -3.25935 0
M  V30 3743 C 361.451 0.583427 -4.4711 0
M  V30 3744 C 360.113 0.340191 -4.79996 0
M  V30 3745 C 362.465 -0.0273345 -5.21193 0
M  V30 3746 C 359.793 -0.522903 -5.84365 0
M  V30 3747 C 362.145 -0.878017 -6.26477 0
M  V30 3748 C 360.809 -1.1309 -6.5785 0
M  V30 3749 H 360.079 0.271929 -0.689301 0
M  V30 3750 H 362.726 0.00336166 -1.915 0
M  V30 3751 H 361.031 2.2789 -3.18706 0
M  V30 3752 H 362.728 2.00902 -3.47044 0
M  V30 3753 H 359.318 0.783151 -4.21384 0
M  V30 3754 H 363.502 0.147654 -4.9608 0
M  V30 3755 H 358.758 -0.727335 -6.07058 0
M  V30 3756 H 362.932 -1.35789 -6.83033 0
M  V30 3757 H 360.559 -1.80144 -7.38547 0
M  V30 3758 N 362.134 1.5431 0.320358 0
M  V30 3759 C 363.362 1.76636 1.07738 0
M  V30 3760 C 363.777 0.51649 1.81598 0
M  V30 3761 O 363.134 -0.512942 1.75143 0
M  V30 3762 C 363.185 2.96158 2.07299 0
M  V30 3763 O 362.906 4.16313 1.36438 0
M  V30 3764 C 364.407 3.3072 2.95193 0
M  V30 3765 H 361.627 0.589597 0.320339 0
M  V30 3766 H 364.171 2.01207 0.36551 0
M  V30 3767 H 362.326 2.73851 2.74016 0
M  V30 3768 H 362.74 4.83565 2.03138 0
M  V30 3769 H 364.214 4.17643 3.60941 0
M  V30 3770 H 364.691 2.48026 3.62463 0
M  V30 3771 H 365.297 3.55117 2.34034 0
M  V30 3772 N 363.613 -0.582584 1.46437 0
M  V30 3773 C 364.853 -1.35184 1.53312 0
M  V30 3774 C 365.217 -1.9115 0.180508 0
M  V30 3775 O 366.418 -2.68514 0.124017 0
M  V30 3776 C 364.689 -2.45089 2.60127 0
M  V30 3777 S 366.248 -3.32439 2.86408 0
M  V30 3778 H 363.066 -0.460559 0.54167 0
M  V30 3779 H 365.668 -0.669709 1.83671 0
M  V30 3780 H 364.372 -2.02366 3.57038 0
M  V30 3781 H 363.903 -3.18074 2.315 0
M  V30 3782 H 365.918 -4.43924 2.21688 0
M  V30 3783 N 365.091 -1.34144 -0.827227 0
M  V30 3784 C 366.021 -1.28005 -1.95287 0
M  V30 3785 C 367.002 -0.158321 -1.69362 0
M  V30 3786 O 368.187 -0.349987 -1.9102 0
M  V30 3787 C 365.317 -1.03036 -3.31664 0
M  V30 3788 C 364.271 -2.11628 -3.72019 0
M  V30 3789 C 363.597 -1.71854 -5.0633 0
M  V30 3790 C 364.897 -3.53417 -3.8457 0
M  V30 3791 H 366.591 -2.22187 -2.00682 0
M  V30 3792 H 364.137 -1.0696 -0.964135 0
M  V30 3793 H 366.09 -0.973863 -4.09993 0
M  V30 3794 H 364.814 -0.0529391 -3.26557 0
M  V30 3795 H 363.473 -2.16339 -2.95961 0
M  V30 3796 H 363.121 -0.727841 -4.97706 0
M  V30 3797 H 362.821 -2.44531 -5.34302 0
M  V30 3798 H 364.345 -1.67692 -5.87122 0
M  V30 3799 H 365.759 -3.51142 -4.5318 0
M  V30 3800 H 364.156 -4.24679 -4.2399 0
M  V30 3801 H 365.226 -3.91072 -2.86689 0
M  V30 3802 N 366.569 1.04691 -1.17803 0
M  V30 3803 C 367.532 2.10724 -0.901545 0
M  V30 3804 C 368.532 1.6042 0.110437 0
M  V30 3805 O 369.722 1.7377 -0.122303 0
M  V30 3806 C 366.854 3.39084 -0.351409 0
M  V30 3807 H 368.047 2.36686 -1.84174 0
M  V30 3808 H 365.6 1.21015 -0.98919 0
M  V30 3809 H 366.335 3.18782 0.59569 0
M  V30 3810 H 366.12 3.76909 -1.08083 0
M  V30 3811 H 367.61 4.17227 -0.176451 0
M  V30 3812 N 368.047 0.979072 1.23499 0
M  V30 3813 C 368.977 0.537606 2.27227 0
M  V30 3814 C 369.958 -0.428539 1.64613 0
M  V30 3815 O 371.143 -0.322191 1.91509 0
M  V30 3816 C 368.273 -0.162052 3.46922 0
M  V30 3817 C 367.227 0.721242 4.21879 0
M  V30 3818 C 366.553 -0.110555 5.34586 0
M  V30 3819 C 367.853 2.01141 4.82016 0
M  V30 3820 H 369.547 1.40462 2.64406 0
M  V30 3821 H 367.093 0.67684 1.27102 0
M  V30 3822 H 369.046 -0.482192 4.18632 0
M  V30 3823 H 367.77 -1.06351 3.08799 0
M  V30 3824 H 366.429 1.02482 3.51984 0
M  V30 3825 H 366.077 -1.0125 4.92704 0
M  V30 3826 H 365.777 0.477325 5.85658 0
M  V30 3827 H 367.301 -0.425107 6.09118 0
M  V30 3828 H 368.715 1.75612 5.45741 0
M  V30 3829 H 367.112 2.54695 5.43369 0
M  V30 3830 H 368.182 2.69909 4.02836 0
M  V30 3831 N 369.525 -1.3858 0.750561 0
M  V30 3832 C 370.455 -2.33102 0.136237 0
M  V30 3833 C 371.436 -1.54713 -0.706965 0
M  V30 3834 O 372.621 -1.83043 -0.648769 0
M  V30 3835 C 369.751 -3.38882 -0.760017 0
M  V30 3836 C 368.705 -4.27995 -0.0197785 0
M  V30 3837 C 368.031 -5.24605 -1.03408 0
M  V30 3838 C 369.331 -5.09554 1.14684 0
M  V30 3839 H 371.025 -2.84726 0.925822 0
M  V30 3840 H 368.571 -1.36898 0.446654 0
M  V30 3841 H 370.524 -4.0397 -1.19943 0
M  V30 3842 H 369.248 -2.85734 -1.58189 0
M  V30 3843 H 367.907 -3.64409 0.400184 0
M  V30 3844 H 367.555 -4.67746 -1.84994 0
M  V30 3845 H 367.255 -5.85081 -0.543464 0
M  V30 3846 H 368.779 -5.9257 -1.47288 0
M  V30 3847 H 370.193 -5.67899 0.785118 0
M  V30 3848 H 368.59 -5.7925 1.56812 0
M  V30 3849 H 369.66 -4.4347 1.96118 0
M  V30 3850 N 371.003 -0.499398 -1.49478 0
M  V30 3851 C 372.251 0.0455996 -2.02049 0
M  V30 3852 C 372.572 1.37633 -1.38138 0
M  V30 3853 O 371.842 1.8842 -0.536166 0
M  V30 3854 H 370.422 0.0198416 -0.746736 0
M  V30 3855 H 373.084 -0.656274 -1.83519 0
M  V30 3856 H 372.18 0.176445 -3.11601 0
M  V30 3857 N 372.481 1.55866 -0.233164 0
M  V30 3858 C 373.721 2.00506 0.397078 0
M  V30 3859 C 374.085 1.1176 1.56121 0
M  V30 3860 O 375.286 1.45796 2.25825 0
M  V30 3861 C 373.557 3.4811 0.809601 0
M  V30 3862 S 375.116 4.14765 1.43231 0
M  V30 3863 H 371.934 0.699828 0.125547 0
M  V30 3864 H 374.536 1.92429 -0.345177 0
M  V30 3865 H 373.24 4.10373 -0.0471601 0
M  V30 3866 H 372.771 3.60085 1.58438 0
M  V30 3867 H 374.786 4.14914 2.7214 0
M  V30 3868 N 373.959 -0.0401083 1.57549 0
M  V30 3869 C 375.206 -0.733125 1.88763 0
M  V30 3870 C 375.534 -1.75946 0.829058 0
M  V30 3871 O 374.789 -1.94949 -0.171323 0
M  V30 3872 C 375.088 -1.44902 3.26708 0
M  V30 3873 C 374.754 -0.559707 4.47413 0
M  V30 3874 C 373.416 -0.314731 4.8017 0
M  V30 3875 C 375.768 0.0549743 5.21171 0
M  V30 3876 C 373.096 0.553886 5.8408 0
M  V30 3877 C 375.448 0.911229 6.26003 0
M  V30 3878 C 374.112 1.16577 6.57241 0
M  V30 3879 H 373.382 -0.268269 0.690733 0
M  V30 3880 H 376.029 0.00679408 1.91499 0
M  V30 3881 H 374.334 -2.26197 3.1991 0
M  V30 3882 H 376.031 -1.99058 3.48105 0
M  V30 3883 H 372.621 -0.760793 4.21794 0
M  V30 3884 H 376.805 -0.121344 4.96152 0
M  V30 3885 H 372.061 0.759518 6.06664 0
M  V30 3886 H 376.235 1.3941 6.82303 0
M  V30 3887 H 373.862 1.84058 7.37582 0
M  V30 3888 N 375.437 -1.54477 -0.31217 0
M  V30 3889 C 376.367 -1.87652 -1.38957 0
M  V30 3890 C 377.348 -0.734358 -1.53431 0
M  V30 3891 O 378.533 -0.98911 -1.67123 0
M  V30 3892 C 375.663 -2.11396 -2.75552 0
M  V30 3893 C 374.617 -3.27243 -2.75855 0
M  V30 3894 C 373.943 -3.36382 -4.15633 0
M  V30 3895 C 375.243 -4.64622 -2.38587 0
M  V30 3896 H 376.937 -2.77887 -1.11442 0
M  V30 3897 H 374.483 -1.33707 -0.534655 0
M  V30 3898 H 376.436 -2.33189 -3.51 0
M  V30 3899 H 375.16 -1.17921 -3.04569 0
M  V30 3900 H 373.819 -3.05356 -2.02863 0
M  V30 3901 H 373.467 -2.40445 -4.41809 0
M  V30 3902 H 373.167 -4.14249 -4.1674 0
M  V30 3903 H 374.691 -3.60422 -4.92877 0
M  V30 3904 H 376.105 -4.86219 -3.03749 0
M  V30 3905 H 374.502 -5.45121 -2.50925 0
M  V30 3906 H 375.572 -4.66097 -1.33723 0
M  V30 3907 N 376.915 0.57481 -1.46744 0
M  V30 3908 C 378.326 1.15695 -1.46532 0
M  V30 3909 C 378.677 1.95068 -0.210425 0
M  V30 3910 O 377.802 2.05241 0.685944 0
M  V30 3911 C 378.397 2.1048 -2.65487 0
M  V30 3912 C 376.956 2.64002 -2.68291 0
M  V30 3913 C 376.103 1.40026 -2.39349 0
M  V30 3914 H 379.054 0.362325 -1.54509 0
M  V30 3915 H 379.075 2.94074 -2.41455 0
M  V30 3916 H 378.587 1.52683 -3.56805 0
M  V30 3917 H 376.688 3.25646 -1.81067 0
M  V30 3918 H 376.801 3.06197 -3.68483 0
M  V30 3919 H 375.165 1.70106 -1.89568 0
M  V30 3920 H 375.948 0.840485 -3.32852 0
M  V30 3921 N 378.394 1.34581 0.820102 0
M  V30 3922 C 379.324 1.29038 1.94606 0
M  V30 3923 C 380.305 0.1673 1.69275 0
M  V30 3924 O 381.49 0.360112 1.90832 0
M  V30 3925 C 378.62 1.04793 3.31113 0
M  V30 3926 C 377.574 2.13597 3.70891 0
M  V30 3927 C 376.9 1.74537 5.05412 0
M  V30 3928 C 378.2 3.55451 3.8269 0
M  V30 3929 H 379.894 2.23248 1.99501 0
M  V30 3930 H 377.44 1.0747 0.958449 0
M  V30 3931 H 379.393 0.995592 4.0947 0
M  V30 3932 H 378.117 0.0702565 3.26524 0
M  V30 3933 H 376.776 2.17905 2.9481 0
M  V30 3934 H 376.424 0.754226 4.97313 0
M  V30 3935 H 376.124 2.47361 5.32997 0
M  V30 3936 H 377.648 1.70803 5.86224 0
M  V30 3937 H 379.062 3.5354 4.51312 0
M  V30 3938 H 377.459 4.26922 4.21732 0
M  V30 3939 H 378.529 3.92587 2.84611 0
M  V30 3940 N 379.872 -1.04064 1.18357 0
M  V30 3941 C 380.802 -2.14001 0.934113 0
M  V30 3942 C 381.783 -1.69616 -0.128186 0
M  V30 3943 O 382.968 -1.94185 0.0244093 0
M  V30 3944 C 380.098 -3.44253 0.459066 0
M  V30 3945 C 379.052 -4.02261 1.46185 0
M  V30 3946 C 378.378 -5.27992 0.844322 0
M  V30 3947 C 379.678 -4.38432 2.83856 0
M  V30 3948 H 381.372 -2.35127 1.85352 0
M  V30 3949 H 378.918 -1.12998 0.892604 0
M  V30 3950 H 380.871 -4.20522 0.271907 0
M  V30 3951 H 379.595 -3.22813 -0.495912 0
M  V30 3952 H 378.254 -3.28074 1.63595 0
M  V30 3953 H 377.902 -5.02862 -0.117845 0
M  V30 3954 H 377.602 -5.67765 1.51384 0
M  V30 3955 H 379.126 -6.06938 0.667693 0
M  V30 3956 H 380.54 -5.05688 2.70098 0
M  V30 3957 H 378.937 -4.89254 3.47491 0
M  V30 3958 H 380.007 -3.4826 3.37406 0
M  V30 3959 N 381.35 -0.985608 -1.22978 0
M  V30 3960 C 382.313 -0.535071 -2.22867 0
M  V30 3961 C 383.313 0.378123 -1.56291 0
M  V30 3962 O 384.503 0.171092 -1.73358 0
M  V30 3963 C 381.635 0.222702 -3.40172 0
M  V30 3964 H 382.828 -1.41835 -2.6424 0
M  V30 3965 H 380.381 -0.772042 -1.35901 0
M  V30 3966 H 381.116 1.12229 -3.04262 0
M  V30 3967 H 380.901 -0.43288 -3.89703 0
M  V30 3968 H 382.391 0.526335 -4.1427 0
M  V30 3969 N 382.828 1.3818 -0.7579 0
M  V30 3970 C 383.761 2.28055 -0.0814093 0
M  V30 3971 C 384.739 1.45603 0.723779 0
M  V30 3972 O 385.923 1.74961 0.701491 0
M  V30 3973 C 383.05 3.2676 0.891394 0
M  V30 3974 C 382.096 4.26153 0.171909 0
M  V30 3975 S 382.929 5.23434 -1.13035 0
M  V30 3976 C 384.085 6.25694 -0.160727 0
M  V30 3977 H 384.318 2.85082 -0.84353 0
M  V30 3978 H 381.851 1.44246 -0.550671 0
M  V30 3979 H 383.809 3.8414 1.44731 0
M  V30 3980 H 382.47 2.68706 1.62652 0
M  V30 3981 H 381.663 4.95738 0.908843 0
M  V30 3982 H 381.265 3.72691 -0.312606 0
M  V30 3983 H 383.557 6.74161 0.671773 0
M  V30 3984 H 384.5 7.03285 -0.824353 0
M  V30 3985 H 384.908 5.64064 0.221892 0
M  V30 3986 N 384.306 0.507319 1.49211 0
M  V30 3987 C 385.236 -0.256939 2.32082 0
M  V30 3988 C 386.217 -0.956609 1.40652 0
M  V30 3989 O 387.402 -0.946788 1.69557 0
M  V30 3990 C 384.532 -1.31802 3.21318 0
M  V30 3991 C 383.486 -0.737855 4.21592 0
M  V30 3992 C 382.812 -1.89992 4.99807 0
M  V30 3993 C 384.112 0.275325 5.21574 0
M  V30 3994 H 385.806 0.434798 2.96226 0
M  V30 3995 H 383.352 0.210546 1.42452 0
M  V30 3996 H 385.305 -1.86045 3.78107 0
M  V30 3997 H 384.029 -2.03903 2.5513 0
M  V30 3998 H 382.688 -0.217126 3.65956 0
M  V30 3999 H 382.336 -2.60877 4.30061 0
M  V30 4000 H 382.036 -1.51777 5.6766 0
M  V30 4001 H 383.56 -2.44657 5.59442 0
M  V30 4002 H 384.974 -0.179193 5.7302 0
M  V30 4003 H 383.371 0.573649 5.97352 0
M  V30 4004 H 384.441 1.18903 4.70096 0
M  V30 4005 N 385.784 -1.5574 0.241426 0
M  V30 4006 C 386.714 -2.24133 -0.654722 0
M  V30 4007 C 387.695 -1.21974 -1.1856 0
M  V30 4008 O 388.88 -1.50612 -1.22595 0
M  V30 4009 C 386.01 -2.93659 -1.85423 0
M  V30 4010 C 384.964 -4.0246 -1.45636 0
M  V30 4011 C 384.29 -4.59383 -2.73626 0
M  V30 4012 C 385.59 -5.18468 -0.631506 0
M  V30 4013 H 387.284 -2.99281 -0.0844353 0
M  V30 4014 H 384.83 -1.43947 -0.0391707 0
M  V30 4015 H 386.783 -3.40203 -2.48676 0
M  V30 4016 H 385.507 -2.15991 -2.44981 0
M  V30 4017 H 384.166 -3.56676 -0.847202 0
M  V30 4018 H 383.814 -3.78422 -3.3137 0
M  V30 4019 H 383.514 -5.32826 -2.4773 0
M  V30 4020 H 385.038 -5.08658 -3.37786 0
M  V30 4021 H 386.452 -5.61272 -1.1682 0
M  V30 4022 H 384.849 -5.98266 -0.468831 0
M  V30 4023 H 385.919 -4.8358 0.357506 0
M  V30 4024 N 387.262 0.0317525 -1.57568 0
M  V30 4025 C 388.502 0.727979 -1.90997 0
M  V30 4026 C 388.866 1.72664 -0.839708 0
M  V30 4027 O 390.067 2.47092 -1.05825 0
M  V30 4028 C 388.338 1.38239 -3.29583 0
M  V30 4029 S 389.897 2.10814 -3.84841 0
M  V30 4030 H 386.715 0.241226 -0.668828 0
M  V30 4031 H 389.317 -0.0173037 -1.95492 0
M  V30 4032 H 388.021 0.642288 -4.05343 0
M  V30 4033 H 387.552 2.16628 -3.28384 0
M  V30 4034 H 389.567 3.3792 -3.63352 0
M  V30 4035 N 388.74 1.54641 0.303973 0
M  V30 4036 C 389.97 1.77511 1.05705 0
M  V30 4037 C 390.378 0.533228 1.81531 0
M  V30 4038 O 389.721 -0.506423 1.76582 0
M  V30 4039 C 389.783 2.92779 2.08617 0
M  V30 4040 C 389.447 4.30977 1.52013 0
M  V30 4041 C 390.444 5.11115 0.9517 0
M  V30 4042 C 388.129 4.77571 1.55665 0
M  V30 4043 C 390.123 6.35966 0.427327 0
M  V30 4044 C 387.81 6.02384 1.02841 0
M  V30 4045 C 388.808 6.81417 0.464713 0
M  V30 4046 O 388.496 8.03881 -0.0555283 0
M  V30 4047 H 388.228 0.59579 0.319391 0
M  V30 4048 H 390.782 2.02401 0.349712 0
M  V30 4049 H 389.012 2.63506 2.83022 0
M  V30 4050 H 390.701 3.03252 2.69802 0
M  V30 4051 H 391.467 4.76264 0.916407 0
M  V30 4052 H 387.346 4.16085 1.9848 0
M  V30 4053 H 390.89 6.97599 -0.0133062 0
M  V30 4054 H 386.787 6.36723 1.06084 0
M  V30 4055 H 387.555 8.18479 0.0580522 0
M  V30 4056 N 390.218 -0.567019 1.47046 0
M  V30 4057 C 391.466 -1.322 1.52864 0
M  V30 4058 C 391.787 -1.94088 0.188388 0
M  V30 4059 O 391.057 -1.7941 -0.786693 0
M  V30 4060 H 389.637 -0.490894 0.563056 0
M  V30 4061 H 392.299 -0.662879 1.83281 0
M  V30 4062 H 391.395 -2.12062 2.2899 0
M  V30 4063 N 391.696 -1.35014 -0.812953 0
M  V30 4064 C 392.659 -1.27292 -1.90602 0
M  V30 4065 C 393.659 -0.185817 -1.59723 0
M  V30 4066 O 394.849 -0.439102 -1.68575 0
M  V30 4067 C 391.981 -0.967676 -3.26877 0
M  V30 4068 H 393.174 -2.24479 -1.9887 0
M  V30 4069 H 390.727 -1.19446 -1.00808 0
M  V30 4070 H 391.462 0.0005954 -3.243 0
M  V30 4071 H 391.247 -1.75412 -3.50675 0
M  V30 4072 H 392.737 -0.939085 -4.06904 0
M  V30 4073 N 393.175 1.03435 -1.18907 0
M  V30 4074 C 394.403 1.80381 -1.01342 0
M  V30 4075 C 394.818 1.83649 0.438005 0
M  V30 4076 O 394.175 1.27655 1.30424 0
M  V30 4077 C 394.226 3.25689 -1.56873 0
M  V30 4078 O 393.947 3.22673 -2.96334 0
M  V30 4079 C 395.448 4.19255 -1.44014 0
M  V30 4080 H 392.668 0.56784 -0.35749 0
M  V30 4081 H 395.212 1.30317 -1.576 0
M  V30 4082 H 393.367 3.72962 -1.04777 0
M  V30 4083 H 393.781 4.13748 -3.22355 0
M  V30 4084 H 395.255 5.19123 -1.87657 0
M  V30 4085 H 395.732 4.37467 -0.389815 0
M  V30 4086 H 396.338 3.77851 -1.95214 0
M  V30 4087 N 394.653 0.992116 1.22453 0
M  V30 4088 C 395.583 0.561677 2.26644 0
M  V30 4089 C 396.564 -0.411055 1.65059 0
M  V30 4090 O 397.749 -0.301861 1.9184 0
M  V30 4091 C 394.879 -0.125247 3.47074 0
M  V30 4092 C 393.833 0.765948 4.21091 0
M  V30 4093 C 393.159 -0.0538484 5.34673 0
M  V30 4094 C 394.459 2.06242 4.79856 0
M  V30 4095 H 396.153 1.43259 2.62902 0
M  V30 4096 H 393.699 0.690283 1.26377 0
M  V30 4097 H 395.652 -0.437764 4.1912 0
M  V30 4098 H 394.376 -1.03069 3.0991 0
M  V30 4099 H 393.035 1.0621 3.50878 0
M  V30 4100 H 392.683 -0.960188 4.9375 0
M  V30 4101 H 392.383 0.539415 5.85119 0
M  V30 4102 H 393.907 -0.360477 6.09535 0
M  V30 4103 H 395.321 1.8139 5.43848 0
M  V30 4104 H 393.718 2.60444 5.40638 0
M  V30 4105 H 394.788 2.74167 3.99951 0
M  V30 4106 N 396.131 -1.37776 0.765217 0
M  V30 4107 C 397.081 -2.2768 0.12075 0
M  V30 4108 C 398.065 -1.45778 -0.680988 0
M  V30 4109 O 399.257 -1.684 -0.545033 0
M  V30 4110 C 396.386 -3.34722 -0.762626 0
M  V30 4111 C 395.472 -4.24074 0.0465881 0
M  V30 4112 N 395.863 -4.93939 1.08892 0
M  V30 4113 C 394.161 -4.45643 -0.178418 0
M  V30 4114 C 394.862 -5.59845 1.57951 0
M  V30 4115 N 393.838 -5.36218 0.892797 0
M  V30 4116 H 397.64 -2.79166 0.918889 0
M  V30 4117 H 395.154 -1.50816 0.602353 0
M  V30 4118 H 397.151 -3.98031 -1.24005 0
M  V30 4119 H 395.811 -2.84793 -1.55959 0
M  V30 4120 H 396.822 -4.96572 1.47095 0
M  V30 4121 H 393.499 -4.06599 -0.9478 0
M  V30 4122 H 394.889 -6.25703 2.44838 0
M  V30 4123 N 397.609 -0.515225 -1.4894 0
M  V30 4124 C 398.837 0.0206034 -2.0689 0
M  V30 4125 C 399.252 1.29514 -1.37374 0
M  V30 4126 O 398.609 1.76698 -0.456529 0
M  V30 4127 C 398.66 0.26351 -3.60538 0
M  V30 4128 O 398.381 -0.960517 -4.27441 0
M  V30 4129 C 399.882 0.841383 -4.35242 0
M  V30 4130 H 397.102 -0.0268608 -0.670462 0
M  V30 4131 H 399.646 -0.716651 -1.91532 0
M  V30 4132 H 397.801 0.950777 -3.75552 0
M  V30 4133 H 398.215 -0.73212 -5.19365 0
M  V30 4134 H 399.689 0.96085 -5.43573 0
M  V30 4135 H 400.166 1.8427 -3.98674 0
M  V30 4136 H 400.772 0.191143 -4.2487 0
M  V30 4137 N 399.087 1.5561 -0.249682 0
M  V30 4138 C 400.017 2.24477 0.642826 0
M  V30 4139 C 400.998 1.22601 1.17911 0
M  V30 4140 O 402.183 1.5126 1.21795 0
M  V30 4141 C 399.313 2.94638 1.83863 0
M  V30 4142 C 398.267 4.03227 1.435 0
M  V30 4143 C 397.593 4.60828 2.71186 0
M  V30 4144 C 398.893 5.18796 0.604002 0
M  V30 4145 H 400.587 2.99321 0.0685625 0
M  V30 4146 H 398.133 1.43965 0.0315363 0
M  V30 4147 H 400.086 3.41517 2.46868 0
M  V30 4148 H 398.81 2.17287 2.43832 0
M  V30 4149 H 397.469 3.57121 0.828275 0
M  V30 4150 H 397.117 3.80174 3.29358 0
M  V30 4151 H 396.817 5.34132 2.44901 0
M  V30 4152 H 398.341 5.10442 3.35084 0
M  V30 4153 H 399.755 5.61883 1.13842 0
M  V30 4154 H 398.152 5.98506 0.437097 0
M  V30 4155 H 399.222 4.83384 -0.383147 0
M  V30 4156 N 400.565 -0.0233959 1.57583 0
M  V30 4157 C 401.528 -1.00693 2.05897 0
M  V30 4158 C 402.528 -1.28693 0.964092 0
M  V30 4159 O 403.718 -1.23602 1.22753 0
M  V30 4160 C 400.85 -2.33825 2.4807 0
M  V30 4161 H 402.043 -0.589476 2.9405 0
M  V30 4162 H 399.596 -0.270354 1.53944 0
M  V30 4163 H 400.331 -2.80307 1.6309 0
M  V30 4164 H 400.116 -2.1483 3.2801 0
M  V30 4165 H 401.606 -3.04426 2.85857 0
M  V30 4166 N 402.043 -1.548 -0.295768 0
M  V30 4167 C 403.006 -1.85363 -1.34808 0
M  V30 4168 C 404.006 -0.726817 -1.43436 0
M  V30 4169 O 405.196 -0.995088 -1.42981 0
M  V30 4170 C 402.328 -2.03859 -2.73229 0
M  V30 4171 H 403.521 -2.7941 -1.08949 0
M  V30 4172 H 401.074 -1.46942 -0.532702 0
M  V30 4173 H 401.809 -1.12117 -3.04303 0
M  V30 4174 H 401.594 -2.8588 -2.68356 0
M  V30 4175 H 403.084 -2.28857 -3.49305 0
M  V30 4176 N 403.521 0.559213 -1.47345 0
M  V30 4177 C 404.746 1.34676 -1.57725 0
M  V30 4178 C 405.171 1.86723 -0.227164 0
M  V30 4179 O 404.529 1.6286 0.796642 0
M  V30 4180 C 404.577 2.49399 -2.60447 0
M  V30 4181 O 403.681 3.51567 -2.15578 0
M  V30 4182 H 403.022 0.400115 -0.52991 0
M  V30 4183 H 405.552 0.676009 -1.93109 0
M  V30 4184 H 405.562 2.95996 -2.80803 0
M  V30 4185 H 404.237 2.10873 -3.58477 0
M  V30 4186 H 402.814 3.11289 -2.05313 0
M  V30 4187 N 404.999 1.35443 0.805782 0
M  V30 4188 C 406.247 1.28507 1.55982 0
M  V30 4189 C 406.568 -0.140046 1.94496 0
M  V30 4190 O 405.838 -1.07666 1.63661 0
M  V30 4191 H 404.418 0.472676 0.578434 0
M  V30 4192 H 407.08 1.69555 0.961098 0
M  V30 4193 H 406.176 1.90148 2.47488 0
M  V30 4194 N 406.477 -1.02803 1.19454 0
M  V30 4195 C 407.893 -1.28473 0.946937 0
M  V30 4196 C 408.093 -1.97881 -0.380202 0
M  V30 4197 O 407.149 -2.26719 -1.11151 0
M  V30 4198 C 408.462 -2.13099 2.12154 0
M  V30 4199 C 410.01 -2.26404 2.16126 0
M  V30 4200 C 410.485 -3.14402 3.33039 0
M  V30 4201 N 411.976 -3.21991 3.32981 0
M  V30 4202 C 412.711 -3.90272 4.20089 0
M  V30 4203 N 412.207 -4.60777 5.17355 0
M  V30 4204 N 414 -3.8668 4.07964 0
M  V30 4205 H 406.151 -0.561665 2.04839 0
M  V30 4206 H 408.414 -0.310438 0.89573 0
M  V30 4207 H 408.12 -1.69422 3.08203 0
M  V30 4208 H 407.994 -3.13813 2.09287 0
M  V30 4209 H 410.381 -2.69311 1.20647 0
M  V30 4210 H 410.462 -1.25237 2.23045 0
M  V30 4211 H 410.106 -2.72204 4.28798 0
M  V30 4212 H 410.036 -4.1563 3.23356 0
M  V30 4213 H 412.527 -2.71778 2.62574 0
M  V30 4214 H 412.84 -5.10513 5.80169 0
M  V30 4215 H 411.185 -4.5964 5.21302 0
M  V30 4216 H 414.376 -3.30739 3.31254 0
M  V30 4217 H 414.549 -4.39621 4.76064 0
M  V30 4218 N 407.956 -0.998596 -1.21925 0
M  V30 4219 C 409.372 -0.710303 -1.42923 0
M  V30 4220 C 409.572 0.716933 -1.88314 0
M  V30 4221 O 408.628 1.48712 -2.04062 0
M  V30 4222 C 409.941 -1.72072 -2.466 0
M  V30 4223 C 411.489 -1.73681 -2.60392 0
M  V30 4224 C 411.964 -2.73601 -3.67296 0
M  V30 4225 N 413.455 -2.7223 -3.7476 0
M  V30 4226 C 414.19 -3.46206 -4.57087 0
M  V30 4227 N 413.686 -4.29802 -5.43362 0
M  V30 4228 N 415.479 -3.34886 -4.51451 0
M  V30 4229 H 407.63 -1.92028 -0.9077 0
M  V30 4230 H 409.893 -0.828487 -0.460775 0
M  V30 4231 H 409.599 -2.74231 -2.20206 0
M  V30 4232 H 409.473 -1.51818 -3.45299 0
M  V30 4233 H 411.86 -0.722173 -2.86127 0
M  V30 4234 H 411.941 -1.98005 -1.61949 0
M  V30 4235 H 411.585 -3.75217 -3.42307 0
M  V30 4236 H 411.515 -2.46545 -4.65321 0
M  V30 4237 H 414.006 -2.11576 -3.1312 0
M  V30 4238 H 414.319 -4.83061 -6.03218 0
M  V30 4239 H 412.664 -4.33887 -5.42925 0
M  V30 4240 H 415.855 -2.69015 -3.83078 0
M  V30 4241 H 416.028 -3.92796 -5.15379 0
M  V30 4242 N 409.434 1.37368 -0.772513 0
M  V30 4243 C 410.664 2.03647 -0.348082 0
M  V30 4244 C 411.072 1.58392 1.03482 0
M  V30 4245 O 410.415 0.760921 1.672 0
M  V30 4246 C 410.477 3.58131 -0.313404 0
M  V30 4247 C 410.141 4.2652 -1.64102 0
M  V30 4248 C 411.138 4.50587 -2.5936 0
M  V30 4249 C 408.823 4.64335 -1.91567 0
M  V30 4250 C 410.817 5.11526 -3.80289 0
M  V30 4251 C 408.504 5.24996 -3.12766 0
M  V30 4252 C 409.502 5.48529 -4.06946 0
M  V30 4253 O 409.19 6.07921 -5.26011 0
M  V30 4254 H 408.922 0.660538 -0.143753 0
M  V30 4255 H 411.476 1.76669 -1.04772 0
M  V30 4256 H 409.706 3.84159 0.442617 0
M  V30 4257 H 411.395 4.05813 0.0840613 0
M  V30 4258 H 412.161 4.21784 -2.39423 0
M  V30 4259 H 408.04 4.45353 -1.19088 0
M  V30 4260 H 411.584 5.29811 -4.53813 0
M  V30 4261 H 407.481 5.53223 -3.32588 0
M  V30 4262 H 408.249 6.26398 -5.26847 0
M  V30 4263 N 410.912 0.523116 1.48665 0
M  V30 4264 C 412.16 -0.0134497 2.02096 0
M  V30 4265 C 412.481 -1.35418 1.40311 0
M  V30 4266 O 411.751 -1.87543 0.566074 0
M  V30 4267 H 410.331 -0.00795915 0.746958 0
M  V30 4268 H 412.993 0.685388 1.82451 0
M  V30 4269 H 412.089 -0.126849 3.11842 0
M  V30 4270 N 412.39 -1.55475 0.257931 0
M  V30 4271 C 413.34 -2.18506 -0.651094 0
M  V30 4272 C 414.324 -1.14431 -1.13112 0
M  V30 4273 O 415.516 -1.40305 -1.07905 0
M  V30 4274 C 412.645 -2.89653 -1.84272 0
M  V30 4275 C 411.731 -4.00996 -1.38068 0
M  V30 4276 N 412.122 -5.01816 -0.633609 0
M  V30 4277 C 410.42 -4.13753 -1.66506 0
M  V30 4278 C 411.121 -5.80371 -0.392922 0
M  V30 4279 N 410.097 -5.3505 -0.960359 0
M  V30 4280 H 413.899 -2.93811 -0.0722883 0
M  V30 4281 H 411.413 -1.62286 0.0607256 0
M  V30 4282 H 413.41 -3.33245 -2.50506 0
M  V30 4283 H 412.07 -2.15854 -2.42564 0
M  V30 4284 H 413.081 -5.17128 -0.282626 0
M  V30 4285 H 409.758 -3.51133 -2.25858 0
M  V30 4286 H 411.148 -6.7159 0.204235 0
M  V30 4287 N 413.868 0.0150385 -1.57593 0
M  V30 4288 C 414.831 0.995996 -2.06428 0
M  V30 4289 C 415.831 1.2818 -0.970903 0
M  V30 4290 O 417.021 1.22949 -1.23406 0
M  V30 4291 C 414.153 2.32506 -2.49307 0
M  V30 4292 H 415.346 0.573873 -2.94358 0
M  V30 4293 H 412.899 0.262186 -1.54085 0
M  V30 4294 H 413.634 2.79438 -1.64575 0
M  V30 4295 H 413.419 2.13087 -3.29145 0
M  V30 4296 H 414.909 3.02906 -2.87468 0
M  V30 4297 N 415.346 1.54954 0.287554 0
M  V30 4298 C 416.276 1.89839 1.35954 0
M  V30 4299 C 417.257 0.758675 1.52244 0
M  V30 4300 O 418.442 1.01557 1.65529 0
M  V30 4301 C 415.572 2.15753 2.72154 0
M  V30 4302 C 414.526 3.3159 2.70614 0
M  V30 4303 C 413.852 3.42952 4.10229 0
M  V30 4304 C 415.152 4.68359 2.31165 0
M  V30 4305 H 416.846 2.79625 1.07007 0
M  V30 4306 H 414.392 1.3454 0.513316 0
M  V30 4307 H 416.345 2.38743 3.47246 0
M  V30 4308 H 415.069 1.22752 3.02654 0
M  V30 4309 H 413.728 3.08545 1.97979 0
M  V30 4310 H 413.376 2.47443 4.37928 0
M  V30 4311 H 413.076 4.20826 4.10097 0
M  V30 4312 H 414.6 3.68218 4.87081 0
M  V30 4313 H 416.014 4.9099 2.95976 0
M  V30 4314 H 414.411 5.49044 2.42221 0
M  V30 4315 H 415.481 4.68165 1.26291 0
M  V30 4316 N 416.824 -0.551391 1.4764 0
M  V30 4317 C 418.24 -0.877887 1.33287 0
M  V30 4318 C 418.44 -1.98817 0.327721 0
M  V30 4319 O 417.496 -2.51171 -0.258695 0
M  V30 4320 C 418.809 -1.26563 2.72768 0
M  V30 4321 C 420.357 -1.37673 2.81097 0
M  V30 4322 C 420.832 -1.79799 4.21232 0
M  V30 4323 N 422.323 -1.8694 4.23802 0
M  V30 4324 C 423.058 -2.20876 5.29151 0
M  V30 4325 N 422.554 -2.53386 6.448 0
M  V30 4326 N 424.347 -2.217 5.16532 0
M  V30 4327 H 416.498 0.18153 2.11623 0
M  V30 4328 H 418.761 0.0185514 0.947818 0
M  V30 4329 H 418.467 -0.523591 3.47781 0
M  V30 4330 H 418.341 -2.22052 3.04915 0
M  V30 4331 H 420.728 -2.10956 2.06353 0
M  V30 4332 H 420.809 -0.40357 2.52596 0
M  V30 4333 H 420.453 -1.07083 4.96483 0
M  V30 4334 H 420.383 -2.78128 4.4716 0
M  V30 4335 H 422.874 -1.64179 3.40373 0
M  V30 4336 H 423.187 -2.78325 7.20941 0
M  V30 4337 H 421.532 -2.50953 6.48111 0
M  V30 4338 H 424.723 -1.95745 4.25207 0
M  V30 4339 H 424.896 -2.47818 5.98741 0
M  V30 4340 N 418.302 -1.35869 -0.798587 0
M  V30 4341 C 419.232 -1.32118 -1.92528 0
M  V30 4342 C 420.213 -0.194209 -1.68988 0
M  V30 4343 O 421.398 -0.390426 -1.90235 0
M  V30 4344 C 418.528 -1.10047 -3.29404 0
M  V30 4345 C 417.482 -2.19471 -3.67446 0
M  V30 4346 C 416.808 -1.82555 -5.02571 0
M  V30 4347 C 418.108 -3.61495 -3.76987 0
M  V30 4348 H 419.802 -2.26394 -1.95924 0
M  V30 4349 H 417.348 -1.08981 -0.94123 0
M  V30 4350 H 419.301 -1.06061 -4.07835 0
M  V30 4351 H 418.025 -0.122195 -3.26371 0
M  V30 4352 H 416.684 -2.22568 -2.91306 0
M  V30 4353 H 416.332 -0.833249 -4.9605 0
M  V30 4354 H 416.032 -2.5581 -5.28995 0
M  V30 4355 H 417.556 -1.80108 -5.83432 0
M  V30 4356 H 418.97 -3.60676 -4.4563 0
M  V30 4357 H 417.367 -4.33577 -4.14887 0
M  V30 4358 H 418.437 -3.97065 -2.78329 0
M  V30 4359 N 419.78 1.02168 -1.19998 0
M  V30 4360 C 421.008 1.79296 -1.03249 0
M  V30 4361 C 421.423 1.84103 0.418502 0
M  V30 4362 O 420.78 1.29031 1.29063 0
M  V30 4363 C 420.831 3.24007 -1.60319 0
M  V30 4364 O 420.552 3.19512 -2.99739 0
M  V30 4365 C 422.053 4.17704 -1.48453 0
M  V30 4366 H 419.273 0.564016 -0.363493 0
M  V30 4367 H 421.817 1.28639 -1.58973 0
M  V30 4368 H 419.972 3.7183 -1.08727 0
M  V30 4369 H 420.386 4.10306 -3.26725 0
M  V30 4370 H 421.86 5.17104 -1.93153 0
M  V30 4371 H 422.337 4.37029 -0.436193 0
M  V30 4372 H 422.943 3.7576 -1.99211 0
M  V30 4373 N 421.258 1.00505 1.21394 0
M  V30 4374 C 422.221 0.570459 2.21987 0
M  V30 4375 C 423.221 -0.353211 1.56873 0
M  V30 4376 O 424.411 -0.14349 1.73608 0
M  V30 4377 C 421.543 -0.168555 3.40483 0
M  V30 4378 H 422.736 1.46021 2.6195 0
M  V30 4379 H 420.289 0.793565 1.34656 0
M  V30 4380 H 421.024 -1.07374 3.06009 0
M  V30 4381 H 420.809 0.494823 3.88965 0
M  V30 4382 H 422.299 -0.460362 4.15055 0
M  V30 4383 N 422.737 -1.36956 0.779787 0
M  V30 4384 C 423.983 -1.99787 0.348281 0
M  V30 4385 C 424.316 -1.61756 -1.07465 0
M  V30 4386 O 423.591 -0.867639 -1.74075 0
M  V30 4387 C 423.874 -3.56597 0.50104 0
M  V30 4388 C 423.727 -4.04513 1.96697 0
M  V30 4389 C 425.046 -4.40008 -0.0898097 0
M  V30 4390 H 422.165 -0.725796 0.128022 0
M  V30 4391 H 424.807 -1.62514 0.984331 0
M  V30 4392 H 422.957 -3.88479 -0.0404347 0
M  V30 4393 H 424.629 -3.83161 2.56876 0
M  V30 4394 H 422.872 -3.56408 2.47297 0
M  V30 4395 H 423.543 -5.1352 2.02486 0
M  V30 4396 H 426.019 -4.14431 0.372293 0
M  V30 4397 H 424.895 -5.4888 0.0471605 0
M  V30 4398 H 425.156 -4.26035 -1.18096 0
M  V30 4399 N 424.215 -0.530993 -1.48385 0
M  V30 4400 C 425.461 0.00274135 -2.028 0
M  V30 4401 C 425.794 1.33838 -1.40716 0
M  V30 4402 O 425.069 1.86465 -0.553277 0
M  V30 4403 C 425.352 0.123676 -3.59888 0
M  V30 4404 C 425.205 -1.2372 -4.3245 0
M  V30 4405 C 426.524 0.849967 -4.31814 0
M  V30 4406 H 423.643 -0.000477758 -0.737 0
M  V30 4407 H 426.285 -0.688217 -1.77098 0
M  V30 4408 H 424.435 0.712157 -3.81917 0
M  V30 4409 H 426.107 -1.86687 -4.21836 0
M  V30 4410 H 424.35 -1.81882 -3.93829 0
M  V30 4411 H 425.021 -1.10557 -5.40815 0
M  V30 4412 H 427.497 0.350572 -4.14621 0
M  V30 4413 H 426.373 0.903486 -5.41413 0
M  V30 4414 H 426.634 1.90047 -3.99167 0
M  V30 4415 N 425.693 1.55336 -0.266172 0
M  V30 4416 C 426.623 2.25146 0.618981 0
M  V30 4417 C 427.604 1.23845 1.16604 0
M  V30 4418 O 428.789 1.52544 1.20183 0
M  V30 4419 C 425.919 2.96572 1.80728 0
M  V30 4420 C 424.873 4.04726 1.39215 0
M  V30 4421 C 424.199 4.63678 2.66283 0
M  V30 4422 C 425.499 5.19407 0.548942 0
M  V30 4423 H 427.193 2.99377 0.0368116 0
M  V30 4424 H 424.739 1.43991 0.0162651 0
M  V30 4425 H 426.692 3.44116 2.43232 0
M  V30 4426 H 425.416 2.19861 2.41514 0
M  V30 4427 H 424.075 3.57979 0.790351 0
M  V30 4428 H 423.723 3.83646 3.25308 0
M  V30 4429 H 423.423 5.367 2.39222 0
M  V30 4430 H 424.947 5.13967 3.29651 0
M  V30 4431 H 426.361 5.63059 1.07876 0
M  V30 4432 H 424.758 5.98936 0.373593 0
M  V30 4433 H 425.828 4.8295 -0.434394 0
M  V30 4434 N 427.171 -0.0066808 1.57599 0
M  V30 4435 C 428.134 -0.985035 2.06953 0
M  V30 4436 C 429.134 -1.27663 0.977687 0
M  V30 4437 O 430.324 -1.22293 1.24057 0
M  V30 4438 C 427.456 -2.3118 2.50536 0
M  V30 4439 H 428.649 -0.558255 2.94658 0
M  V30 4440 H 426.202 -0.254011 1.54222 0
M  V30 4441 H 426.937 -2.78561 1.66054 0
M  V30 4442 H 426.722 -2.11338 3.3027 0
M  V30 4443 H 428.212 -3.01377 2.8907 0
M  V30 4444 N 428.649 -1.55105 -0.279332 0
M  V30 4445 C 429.874 -1.7976 -1.03446 0
M  V30 4446 C 430.299 -0.565952 -1.79384 0
M  V30 4447 O 429.657 0.484259 -1.74713 0
M  V30 4448 C 429.705 -3.0179 -1.97371 0
M  V30 4449 O 428.809 -2.76432 -3.06038 0
M  V30 4450 H 428.15 -0.594334 -0.29608 0
M  V30 4451 H 430.68 -2.02235 -0.310165 0
M  V30 4452 H 430.69 -3.30351 -2.39441 0
M  V30 4453 H 429.365 -3.91085 -1.4151 0
M  V30 4454 H 427.942 -2.58949 -2.68328 0
M  V30 4455 N 430.127 0.543554 -1.4793 0
M  V30 4456 C 431.09 1.63156 -1.60975 0
M  V30 4457 C 432.09 1.53346 -0.483899 0
M  V30 4458 O 433.28 1.5726 -0.749339 0
M  V30 4459 C 430.412 3.02743 -1.56716 0
M  V30 4460 H 431.605 1.52934 -2.57975 0
M  V30 4461 H 429.158 0.764557 -1.36324 0
M  V30 4462 H 429.893 3.18484 -0.611418 0
M  V30 4463 H 429.678 3.11272 -2.38438 0
M  V30 4464 H 431.168 3.81871 -1.6901 0
M  V30 4465 N 431.605 1.3629 0.791371 0
M  V30 4466 C 432.851 1.30605 1.55146 0
M  V30 4467 C 433.184 -0.115042 1.93859 0
M  V30 4468 O 432.459 -1.06798 1.62556 0
M  V30 4469 C 432.742 2.22692 2.82985 0
M  V30 4470 C 432.595 3.73489 2.50651 0
M  V30 4471 C 433.914 2.13588 3.84796 0
M  V30 4472 H 431.033 0.475761 0.562868 0
M  V30 4473 H 433.675 1.66825 0.909358 0
M  V30 4474 H 431.825 1.91933 3.37778 0
M  V30 4475 H 433.497 4.14758 2.01924 0
M  V30 4476 H 431.74 3.93021 1.83622 0
M  V30 4477 H 432.411 4.3333 3.41949 0
M  V30 4478 H 434.887 2.40659 3.39445 0
M  V30 4479 H 433.763 2.80195 4.71998 0
M  V30 4480 H 434.024 1.12256 4.27611 0
M  V30 4481 N 433.083 -1.0153 1.20538 0
M  V30 4482 C 434.046 -2.0826 0.957098 0
M  V30 4483 C 435.046 -1.60657 -0.0678655 0
M  V30 4484 O 436.236 -1.73385 0.168332 0
M  V30 4485 C 433.368 -3.38033 0.441188 0
M  V30 4486 H 434.561 -2.31719 1.90384 0
M  V30 4487 H 432.114 -1.1835 1.02093 0
M  V30 4488 H 432.849 -3.20249 -0.510961 0
M  V30 4489 H 432.634 -3.73911 1.18038 0
M  V30 4490 H 434.124 -4.16613 0.287009 0
M  V30 4491 N 434.561 -1.01147 -1.20859 0
M  V30 4492 C 435.808 -0.697865 -1.90095 0
M  V30 4493 C 436.136 0.772014 -1.78522 0
M  V30 4494 O 435.391 1.57595 -1.16027 0
M  V30 4495 C 435.69 -1.0727 -3.40922 0
M  V30 4496 C 435.356 -2.53792 -3.72693 0
M  V30 4497 C 434.018 -2.93829 -3.81075 0
M  V30 4498 C 436.37 -3.48674 -3.87397 0
M  V30 4499 C 433.698 -4.27696 -4.01613 0
M  V30 4500 C 436.05 -4.82223 -4.09444 0
M  V30 4501 C 434.714 -5.21973 -4.16054 0
M  V30 4502 H 433.984 -0.255367 -0.695607 0
M  V30 4503 H 436.631 -1.27111 -1.43231 0
M  V30 4504 H 434.936 -0.417799 -3.89566 0
M  V30 4505 H 436.633 -0.807818 -3.92779 0
M  V30 4506 H 433.223 -2.21768 -3.66765 0
M  V30 4507 H 437.407 -3.18904 -3.80281 0
M  V30 4508 H 432.663 -4.58055 -4.04964 0
M  V30 4509 H 436.837 -5.55672 -4.19763 0
M  V30 4510 H 434.464 -6.25717 -4.31721 0
M  V30 4511 N 436.039 1.36541 -0.78704 0
M  V30 4512 C 437.286 1.99304 -0.358341 0
M  V30 4513 C 437.614 1.62467 1.06933 0
M  V30 4514 O 436.869 0.870019 1.75297 0
M  V30 4515 C 437.168 3.54343 -0.466485 0
M  V30 4516 C 436.834 4.10993 -1.85461 0
M  V30 4517 C 435.496 4.26177 -2.23443 0
M  V30 4518 C 437.848 4.41895 -2.76366 0
M  V30 4519 C 435.176 4.69573 -3.51736 0
M  V30 4520 C 437.528 4.86722 -4.04084 0
M  V30 4521 C 436.192 5.00112 -4.42091 0
M  V30 4522 H 435.462 0.729306 -0.131126 0
M  V30 4523 H 438.109 1.63068 -1.00404 0
M  V30 4524 H 436.414 3.90918 0.262719 0
M  V30 4525 H 438.111 4.00833 -0.115854 0
M  V30 4526 H 434.701 3.99612 -1.54946 0
M  V30 4527 H 438.885 4.29735 -2.48277 0
M  V30 4528 H 434.141 4.78127 -3.81057 0
M  V30 4529 H 438.315 5.09598 -4.7464 0
M  V30 4530 H 435.942 5.33498 -5.41557 0
M  V30 4531 N 437.518 0.538854 1.48102 0
M  V30 4532 C 438.764 0.00801365 2.02798 0
M  V30 4533 C 439.097 -1.3309 1.41424 0
M  V30 4534 O 438.372 -1.86169 0.563158 0
M  V30 4535 C 438.655 -0.104589 3.59948 0
M  V30 4536 C 438.508 1.26012 4.31788 0
M  V30 4537 C 439.827 -0.827055 4.32259 0
M  V30 4538 H 436.946 0.00438624 0.736987 0
M  V30 4539 H 439.588 0.6976 1.7673 0
M  V30 4540 H 437.738 -0.691893 3.82289 0
M  V30 4541 H 439.41 1.88922 4.2084 0
M  V30 4542 H 437.653 1.83968 3.92859 0
M  V30 4543 H 438.324 1.13424 5.40221 0
M  V30 4544 H 440.8 -0.328578 4.14801 0
M  V30 4545 H 439.676 -0.87476 5.41885 0
M  V30 4546 H 439.937 -1.87927 4.0017 0
M  V30 4547 N 438.996 -1.55193 0.274407 0
M  V30 4548 C 440.407 -1.85358 -0.223488 0
M  V30 4549 C 440.758 -1.19642 -1.555 0
M  V30 4550 O 439.883 -0.484498 -2.10907 0
M  V30 4551 C 440.478 -3.36282 -0.412285 0
M  V30 4552 C 439.037 -3.66574 -0.854413 0
M  V30 4553 C 438.184 -2.7725 0.0527056 0
M  V30 4554 H 441.135 -1.50743 0.496215 0
M  V30 4555 H 441.156 -3.59349 -1.25094 0
M  V30 4556 H 440.668 -3.84083 0.556965 0
M  V30 4557 H 438.769 -3.24273 -1.83516 0
M  V30 4558 H 438.882 -4.74073 -0.692226 0
M  V30 4559 H 437.246 -2.50447 -0.463484 0
M  V30 4560 H 438.029 -3.27865 1.01783 0
M  V30 4561 N 440.474 -0.00167713 -1.576 0
M  V30 4562 C 441.699 0.69739 -1.95323 0
M  V30 4563 C 442.124 1.6642 -0.876706 0
M  V30 4564 O 441.482 1.80548 0.165007 0
M  V30 4565 C 441.53 1.40403 -3.32144 0
M  V30 4566 O 440.634 2.5185 -3.26566 0
M  V30 4567 H 439.975 0.185373 -0.637599 0
M  V30 4568 H 442.505 -0.0553665 -2.04525 0
M  V30 4569 H 442.515 1.76707 -3.67748 0
M  V30 4570 H 441.19 0.695167 -4.10049 0
M  V30 4571 H 439.767 2.17861 -3.0264 0
M  V30 4572 N 441.952 1.55251 0.271103 0
M  V30 4573 C 442.9 1.89054 1.35504 0
M  V30 4574 C 443.894 0.767064 1.51038 0
M  V30 4575 O 445.1 0.951429 1.528 0
M  V30 4576 H 441.475 0.600072 0.45323 0
M  V30 4577 H 443.446 2.79598 1.04247 0
M  V30 4578 C 442.195 2.18068 2.70817 0
M  V30 4579 H 441.518 3.04005 2.59656 0
M  V30 4580 H 442.958 2.4564 3.45597 0
M  V30 4581 C 441.417 0.988901 3.2206 0
M  V30 4582 O 441.947 0.224501 4.01072 0
M  V30 4583 N 440.153 0.786085 2.79766 0
M  V30 4584 H 439.7 1.40937 2.15626 0
M  V30 4585 H 439.658 -0.00969349 3.14399 0
M  V30 4586 N 443.43 -0.535701 1.48216 0
M  V30 4587 C 444.36 -1.65014 1.65204 0
M  V30 4588 C 445.341 -1.62554 0.501011 0
M  V30 4589 O 446.526 -1.7984 0.732886 0
M  V30 4590 C 443.656 -3.03616 1.68626 0
M  V30 4591 C 442.61 -3.20932 2.83172 0
M  V30 4592 C 441.936 -4.60537 2.71679 0
M  V30 4593 C 443.236 -3.04249 4.24535 0
M  V30 4594 H 444.93 -1.51053 2.58502 0
M  V30 4595 H 442.476 -0.725262 1.24402 0
M  V30 4596 H 444.429 -3.81446 1.79099 0
M  V30 4597 H 443.153 -3.18587 0.719026 0
M  V30 4598 H 441.812 -2.45517 2.72244 0
M  V30 4599 H 441.46 -4.72336 1.72937 0
M  V30 4600 H 441.16 -4.73069 3.48538 0
M  V30 4601 H 442.684 -5.40475 2.84112 0
M  V30 4602 H 444.098 -3.71877 4.36326 0
M  V30 4603 H 442.495 -3.28278 5.02348 0
M  V30 4604 H 443.565 -2.00739 4.41397 0
M  V30 4605 N 444.908 -1.36708 -0.784132 0
M  V30 4606 C 445.838 -1.34153 -1.91116 0
M  V30 4607 C 446.819 -0.212121 -1.68772 0
M  V30 4608 O 448.004 -0.410581 -1.8981 0
M  V30 4609 C 445.134 -1.13535 -3.28218 0
M  V30 4610 C 444.088 -2.23356 -3.65097 0
M  V30 4611 C 443.414 -1.87875 -5.00607 0
M  V30 4612 C 444.714 -3.65473 -3.73131 0
M  V30 4613 H 446.408 -2.28459 -1.93512 0
M  V30 4614 H 443.954 -1.09973 -0.929618 0
M  V30 4615 H 445.907 -1.10381 -4.06687 0
M  V30 4616 H 444.631 -0.156804 -3.26223 0
M  V30 4617 H 443.29 -2.25645 -2.88929 0
M  V30 4618 H 442.938 -0.885814 -4.95139 0
M  V30 4619 H 442.638 -2.61406 -5.26252 0
M  V30 4620 H 444.162 -1.86286 -5.81489 0
M  V30 4621 H 445.576 -3.65382 -4.41779 0
M  V30 4622 H 443.973 -4.37953 -4.10265 0
M  V30 4623 H 445.043 -3.99995 -2.74102 0
M  V30 4624 N 446.386 1.0089 -1.21074 0
M  V30 4625 C 447.316 2.1145 -0.990523 0
M  V30 4626 C 448.297 1.69897 0.0831699 0
M  V30 4627 O 449.482 1.94052 -0.0758853 0
M  V30 4628 C 446.612 3.42914 -0.550177 0
M  V30 4629 C 445.566 3.98244 -1.56799 0
M  V30 4630 C 444.892 5.25568 -0.984013 0
M  V30 4631 C 446.192 4.30752 -2.95381 0
M  V30 4632 H 447.886 2.3013 -1.91521 0
M  V30 4633 H 445.432 1.10592 -0.92225 0
M  V30 4634 H 447.385 4.19653 -0.383305 0
M  V30 4635 H 446.109 3.24014 0.41015 0
M  V30 4636 H 444.768 3.23621 -1.72236 0
M  V30 4637 H 444.416 5.02998 -0.0155216 0
M  V30 4638 H 444.116 5.63551 -1.66384 0
M  V30 4639 H 445.64 6.04955 -0.828378 0
M  V30 4640 H 447.054 4.98349 -2.8341 0
M  V30 4641 H 445.451 4.79869 -3.60341 0
M  V30 4642 H 446.521 3.39192 -3.46521 0
M  V30 4643 N 447.864 1.01787 1.20321 0
M  V30 4644 C 448.794 0.609625 2.25401 0
M  V30 4645 C 449.775 -0.375951 1.65893 0
M  V30 4646 O 450.96 -0.261101 1.92437 0
M  V30 4647 C 448.09 -0.0515995 3.47262 0
M  V30 4648 C 447.044 0.855095 4.19371 0
M  V30 4649 C 446.37 0.0595757 5.34667 0
M  V30 4650 C 447.67 2.16374 4.75373 0
M  V30 4651 H 449.364 1.48803 2.59804 0
M  V30 4652 H 446.91 0.716934 1.24884 0
M  V30 4653 H 448.863 -0.348764 4.19954 0
M  V30 4654 H 447.587 -0.964726 3.12027 0
M  V30 4655 H 446.246 1.13628 3.48546 0
M  V30 4656 H 445.894 -0.85524 4.95676 0
M  V30 4657 H 445.594 0.663406 5.83843 0
M  V30 4658 H 447.118 -0.231105 6.10162 0
M  V30 4659 H 448.532 1.92885 5.39878 0
M  V30 4660 H 446.929 2.71853 5.34991 0
M  V30 4661 H 447.999 2.82589 3.94045 0
M  V30 4662 N 449.342 -1.36122 0.79427 0
M  V30 4663 C 450.272 -2.32551 0.210328 0
M  V30 4664 C 451.253 -1.56884 -0.657386 0
M  V30 4665 O 452.438 -1.85014 -0.590207 0
M  V30 4666 C 449.568 -3.41128 -0.651819 0
M  V30 4667 C 448.522 -4.27842 0.116395 0
M  V30 4668 C 447.848 -5.2763 -0.86666 0
M  V30 4669 C 449.148 -5.05647 1.30837 0
M  V30 4670 H 450.842 -2.81636 1.01594 0
M  V30 4671 H 448.388 -1.35407 0.489981 0
M  V30 4672 H 450.341 -4.07581 -1.07031 0
M  V30 4673 H 449.065 -2.90622 -1.49019 0
M  V30 4674 H 447.724 -3.62952 0.515915 0
M  V30 4675 H 447.372 -4.73395 -1.70019 0
M  V30 4676 H 447.072 -5.86514 -0.35705 0
M  V30 4677 H 448.596 -5.96955 -1.28361 0
M  V30 4678 H 450.01 -5.65113 0.965393 0
M  V30 4679 H 448.407 -5.73967 1.75161 0
M  V30 4680 H 449.477 -4.37006 2.10128 0
M  V30 4681 N 450.82 -0.546701 -1.47814 0
M  V30 4682 C 451.77 0.227042 -2.26867 0
M  V30 4683 C 452.754 0.894844 -1.33721 0
M  V30 4684 O 453.946 0.794887 -1.58147 0
M  V30 4685 C 451.075 1.26299 -3.19223 0
M  V30 4686 C 450.161 0.59913 -4.19847 0
M  V30 4687 N 450.552 -0.324777 -5.04756 0
M  V30 4688 C 448.85 0.854331 -4.37741 0
M  V30 4689 C 449.551 -0.709386 -5.77358 0
M  V30 4690 N 448.527 -0.0666153 -5.43559 0
M  V30 4691 H 452.329 -0.483476 -2.89896 0
M  V30 4692 H 449.843 -0.365893 -1.58224 0
M  V30 4693 H 451.84 1.83116 -3.74532 0
M  V30 4694 H 450.5 1.97471 -2.57751 0
M  V30 4695 H 451.511 -0.698351 -5.1317 0
M  V30 4696 H 448.188 1.55536 -3.87447 0
M  V30 4697 H 449.578 -1.46796 -6.55668 0
M  V30 4698 N 452.299 1.55045 -0.282633 0
M  V30 4699 C 453.529 2.03872 0.334635 0
M  V30 4700 C 453.937 1.16018 1.49454 0
M  V30 4701 O 453.28 0.174449 1.8287 0
M  V30 4702 C 453.342 3.48791 0.870905 0
M  V30 4703 C 453.006 4.56715 -0.161338 0
M  V30 4704 C 454.003 5.10513 -0.983466 0
M  V30 4705 C 451.688 5.01417 -0.297745 0
M  V30 4706 C 453.682 6.07538 -1.92811 0
M  V30 4707 C 451.369 5.98265 -1.24586 0
M  V30 4708 C 452.367 6.51208 -2.05954 0
M  V30 4709 O 452.055 7.46162 -2.99162 0
M  V30 4710 H 451.787 0.671324 0.0793742 0
M  V30 4711 H 454.341 2.01169 -0.41473 0
M  V30 4712 H 452.571 3.48758 1.67047 0
M  V30 4713 H 454.26 3.80916 1.40207 0
M  V30 4714 H 455.026 4.76785 -0.888856 0
M  V30 4715 H 450.905 4.59849 0.325604 0
M  V30 4716 H 454.449 6.48787 -2.56363 0
M  V30 4717 H 450.346 6.31412 -1.34126 0
M  V30 4718 H 451.114 7.63903 -2.93929 0
M  V30 4719 N 453.777 0.010035 1.57597 0
M  V30 4720 C 455.002 -0.687021 1.95691 0
M  V30 4721 C 455.427 -1.65952 0.885519 0
M  V30 4722 O 454.785 -1.80633 -0.15543 0
M  V30 4723 C 454.833 -1.3864 3.32884 0
M  V30 4724 O 453.937 -2.50115 3.27897 0
M  V30 4725 H 453.278 -0.181989 0.638573 0
M  V30 4726 H 455.808 0.0662122 2.04493 0
M  V30 4727 H 455.818 -1.74754 3.6868 0
M  V30 4728 H 454.493 -0.673411 4.10412 0
M  V30 4729 H 453.07 -2.16253 3.03791 0
M  V30 4730 N 455.255 -1.55392 -0.262866 0
M  V30 4731 C 456.532 -1.67204 -1.01499 0
M  V30 4732 C 456.912 -0.545186 -2.03939 0
M  V30 4733 O 456.26 0.453467 -2.23955 0
M  V30 4734 C 456.47 -3.06847 -1.6627 0
M  V30 4735 C 457.818 -3.64928 -2.17054 0
M  V30 4736 O 458.842 -3.09545 -1.76239 0
M  V30 4737 O 457.701 -4.61984 -2.91947 0
M  V30 4738 H 454.795 -0.679467 -0.471438 0
M  V30 4739 H 457.341 -1.67729 -0.257918 0
M  V30 4740 H 456.113 -3.80309 -0.920915 0
M  V30 4741 H 455.736 -3.10266 -2.48638 0
M  V30 4742 N 456.733 0.527833 -1.48498 0
M  V30 4743 C 458.144 1.10975 -1.50138 0
M  V30 4744 C 458.495 1.943 -0.272378 0
M  V30 4745 O 457.62 2.07319 0.620301 0
M  V30 4746 C 458.215 2.01927 -2.72049 0
M  V30 4747 C 456.774 2.55332 -2.76554 0
M  V30 4748 C 455.921 1.32341 -2.43683 0
M  V30 4749 H 458.872 0.312986 -1.55583 0
M  V30 4750 H 458.893 2.86244 -2.50689 0
M  V30 4751 H 458.405 1.41254 -3.61481 0
M  V30 4752 H 456.506 3.19721 -1.91336 0
M  V30 4753 H 456.619 2.94319 -3.78038 0
M  V30 4754 H 454.983 1.63989 -1.94884 0
M  V30 4755 H 455.766 0.734165 -3.35358 0
M  V30 4756 N 458.211 1.37122 0.776871 0
M  V30 4757 C 459.436 1.354 1.57104 0
M  V30 4758 C 459.861 -0.0595562 1.88006 0
M  V30 4759 O 459.219 -1.03514 1.48844 0
M  V30 4760 C 459.267 2.19472 2.8612 0
M  V30 4761 O 458.371 1.59582 3.80273 0
M  V30 4762 H 457.712 0.462869 0.476076 0
M  V30 4763 H 460.242 1.80577 0.961932 0
M  V30 4764 H 460.252 2.32502 3.35271 0
M  V30 4765 H 458.927 3.22222 2.62956 0
M  V30 4766 H 457.504 1.55564 3.38902 0
M  V30 4767 N 459.689 -1.00246 1.21608 0
M  V30 4768 C 461.1 -1.55511 1.03312 0
M  V30 4769 C 461.451 -1.91946 -0.406332 0
M  V30 4770 O 460.576 -1.73753 -1.28992 0
M  V30 4771 C 461.171 -2.82576 1.86913 0
M  V30 4772 C 459.73 -3.34318 1.72941 0
M  V30 4773 C 458.877 -2.07487 1.83968 0
M  V30 4774 H 461.828 -0.824638 1.35593 0
M  V30 4775 H 461.849 -3.54559 1.38087 0
M  V30 4776 H 461.361 -2.56026 2.91672 0
M  V30 4777 H 459.462 -3.65797 0.70877 0
M  V30 4778 H 459.575 -4.05566 2.55055 0
M  V30 4779 H 457.939 -2.20603 1.27304 0
M  V30 4780 H 458.722 -1.83346 2.9024 0
M  V30 4781 N 461.167 -1.02423 -1.1978 0
M  V30 4782 C 462.392 -0.7373 -1.93852 0
M  V30 4783 C 462.817 0.696923 -1.74713 0
M  V30 4784 O 462.175 1.48056 -1.04638 0
M  V30 4785 C 462.223 -1.08783 -3.438 0
M  V30 4786 O 461.327 -0.20383 -4.11896 0
M  V30 4787 H 460.668 -0.27284 -0.605355 0
M  V30 4788 H 463.198 -1.36966 -1.51992 0
M  V30 4789 H 463.208 -1.04276 -3.9445 0
M  V30 4790 H 461.883 -2.13274 -3.57053 0
M  V30 4791 H 460.46 -0.307091 -3.71633 0
M  V30 4792 N 462.645 1.35699 -0.801477 0
M  V30 4793 C 463.608 2.28199 -0.213994 0
M  V30 4794 C 464.608 1.49359 0.595691 0
M  V30 4795 O 465.798 1.69186 0.414921 0
M  V30 4796 C 462.93 3.33587 0.702297 0
M  V30 4797 H 464.123 2.81666 -1.02976 0
M  V30 4798 H 461.676 1.45467 -0.571759 0
M  V30 4799 H 462.411 2.85297 1.54195 0
M  V30 4800 H 462.196 3.91906 0.123484 0
M  V30 4801 H 463.686 4.02638 1.10783 0
M  V30 4802 N 464.123 0.554532 1.47522 0
M  V30 4803 C 465.369 0.0377449 2.03365 0
M  V30 4804 C 465.724 -1.29654 1.42154 0
M  V30 4805 O 465.017 -1.83022 0.566865 0
M  V30 4806 C 465.211 -0.115927 3.57212 0
M  V30 4807 C 465.04 1.20191 4.33341 0
M  V30 4808 C 463.81 1.76849 4.73342 0
M  V30 4809 C 466.008 2.11849 4.68641 0
M  V30 4810 N 463.99 3.02665 5.34104 0
M  V30 4811 C 465.361 3.22245 5.29677 0
M  V30 4812 C 467.416 2.11876 4.5057 0
M  V30 4813 C 466.119 4.32763 5.74551 0
M  V30 4814 C 468.145 3.21405 4.9644 0
M  V30 4815 C 467.507 4.30519 5.57523 0
M  V30 4816 H 463.606 0.0559107 0.779999 0
M  V30 4817 H 466.19 0.741232 1.80038 0
M  V30 4818 H 464.361 -0.788533 3.80311 0
M  V30 4819 H 466.093 -0.634538 3.99695 0
M  V30 4820 H 462.848 1.30681 4.55214 0
M  V30 4821 H 463.272 3.66788 5.69031 0
M  V30 4822 H 467.914 1.28801 4.02704 0
M  V30 4823 H 465.632 5.166 6.2141 0
M  V30 4824 H 469.218 3.22509 4.8423 0
M  V30 4825 H 468.098 5.13873 5.92371 0
M  V30 4826 N 465.601 -1.54893 0.290851 0
M  V30 4827 C 466.849 -1.99538 -0.320756 0
M  V30 4828 C 467.17 -1.18075 -1.55188 0
M  V30 4829 O 466.44 -0.274162 -1.93972 0
M  V30 4830 H 465.02 -0.737052 -0.121507 0
M  V30 4831 H 467.682 -1.90755 0.399832 0
M  V30 4832 H 466.778 -3.06282 -0.599802 0
M  V30 4833 N 467.08 -0.0183926 -1.57589 0
M  V30 4834 C 468.028 0.985111 -2.10709 0
M  V30 4835 C 469.022 1.34397 -1.0312 0
M  V30 4836 O 470.228 1.32746 -1.21567 0
M  V30 4837 H 466.603 0.335418 -0.673052 0
M  V30 4838 H 468.574 0.511689 -2.9398 0
M  V30 4839 C 467.323 2.26202 -2.64061 0
M  V30 4840 H 466.646 1.9946 -3.4649 0
M  V30 4841 H 468.086 2.94652 -3.04887 0
M  V30 4842 C 466.545 2.98444 -1.5631 0
M  V30 4843 O 467.075 3.90142 -0.956674 0
M  V30 4844 N 465.281 2.6059 -1.28612 0
M  V30 4845 H 464.828 1.86101 -1.78112 0
M  V30 4846 H 464.786 3.09238 -0.567406 0
M  V30 4847 N 468.558 1.5553 0.254621 0
M  V30 4848 C 469.488 1.9268 1.31897 0
M  V30 4849 C 470.469 0.790797 1.506 0
M  V30 4850 O 471.654 1.05045 1.63337 0
M  V30 4851 C 468.784 2.21477 2.67517 0
M  V30 4852 C 467.738 3.37256 2.63519 0
M  V30 4853 C 467.064 3.51576 4.02862 0
M  V30 4854 C 468.364 4.73157 2.21179 0
M  V30 4855 H 470.058 2.81832 1.01051 0
M  V30 4856 H 467.604 1.35599 0.484662 0
M  V30 4857 H 469.557 2.46055 3.42104 0
M  V30 4858 H 468.281 1.29144 2.99982 0
M  V30 4859 H 466.94 3.12675 1.9139 0
M  V30 4860 H 466.588 2.56676 4.32581 0
M  V30 4861 H 466.288 4.2943 4.01078 0
M  V30 4862 H 467.812 3.78467 4.79161 0
M  V30 4863 H 469.226 4.97158 2.85494 0
M  V30 4864 H 467.623 5.54058 2.30521 0
M  V30 4865 H 468.693 4.70739 1.16332 0
M  V30 4866 N 470.036 -0.519951 1.48776 0
M  V30 4867 C 471.266 -1.29783 1.60748 0
M  V30 4868 C 471.674 -1.87253 0.27072 0
M  V30 4869 O 471.017 -1.67628 -0.751438 0
M  V30 4870 C 471.079 -2.47984 2.60277 0
M  V30 4871 C 470.743 -2.11526 4.051 0
M  V30 4872 C 471.74 -1.66608 4.92481 0
M  V30 4873 C 469.425 -2.21742 4.50706 0
M  V30 4874 C 471.419 -1.32384 6.23501 0
M  V30 4875 C 469.106 -1.87129 5.81744 0
M  V30 4876 C 470.104 -1.42523 6.67964 0
M  V30 4877 O 469.792 -1.0837 7.96562 0
M  V30 4878 H 469.524 -0.400562 0.544542 0
M  V30 4879 H 472.078 -0.632879 1.95407 0
M  V30 4880 H 470.308 -3.17493 2.2076 0
M  V30 4881 H 471.997 -3.10036 2.61978 0
M  V30 4882 H 472.763 -1.58178 4.58481 0
M  V30 4883 H 468.642 -2.55415 3.83776 0
M  V30 4884 H 472.186 -0.974949 6.90754 0
M  V30 4885 H 468.083 -1.95204 6.15277 0
M  V30 4886 H 468.851 -1.21681 8.09405 0
M  V30 4887 N 471.514 -1.37532 -0.769588 0
M  V30 4888 C 472.762 -1.32597 -1.5252 0
M  V30 4889 C 473.083 0.0884294 -1.94799 0
M  V30 4890 O 472.353 1.03289 -1.66458 0
M  V30 4891 H 470.933 -0.487846 -0.565699 0
M  V30 4892 H 473.595 -1.72044 -0.915806 0
M  V30 4893 H 472.691 -1.96643 -2.42359 0
M  V30 4894 N 472.992 0.995999 -1.22138 0
M  V30 4895 C 473.955 2.06711 -0.990109 0
M  V30 4896 C 474.955 1.60744 0.0422978 0
M  V30 4897 O 476.145 1.73095 -0.195895 0
M  V30 4898 C 473.277 3.37288 -0.49491 0
M  V30 4899 H 474.47 2.28661 -1.94047 0
M  V30 4900 H 472.023 1.16711 -1.03963 0
M  V30 4901 H 472.758 3.21022 0.459948 0
M  V30 4902 H 472.543 3.71986 -1.23971 0
M  V30 4903 H 474.033 4.16103 -0.353253 0
M  V30 4904 N 474.47 1.03057 1.19235 0
M  V30 4905 C 475.7 0.746613 1.92638 0
M  V30 4906 C 476.108 -0.698708 1.75826 0
M  V30 4907 O 475.451 -1.487 1.07861 0
M  V30 4908 C 475.513 1.02024 3.44719 0
M  V30 4909 C 475.177 2.45745 3.85303 0
M  V30 4910 C 476.174 3.43887 3.8992 0
M  V30 4911 C 473.859 2.8019 4.16892 0
M  V30 4912 C 475.853 4.74529 4.2556 0
M  V30 4913 C 473.54 4.1104 4.52205 0
M  V30 4914 C 474.538 5.0802 4.56513 0
M  V30 4915 O 474.226 6.36527 4.91008 0
M  V30 4916 H 473.958 0.272401 0.618687 0
M  V30 4917 H 476.512 1.37853 1.52269 0
M  V30 4918 H 474.742 0.331184 3.85279 0
M  V30 4919 H 476.431 0.725677 3.9936 0
M  V30 4920 H 477.197 3.18614 3.65664 0
M  V30 4921 H 473.076 2.05382 4.12722 0
M  V30 4922 H 476.62 5.50222 4.28838 0
M  V30 4923 H 472.517 4.36086 4.7592 0
M  V30 4924 H 473.285 6.41025 5.08949 0
M  V30 4925 N 475.948 -1.35272 0.808662 0
M  V30 4926 C 477.194 -1.99003 0.390581 0
M  V30 4927 C 477.527 -1.63999 -1.0401 0
M  V30 4928 O 476.802 -0.904368 -1.72196 0
M  V30 4929 C 477.085 -3.55454 0.576566 0
M  V30 4930 C 476.938 -4.00249 2.05233 0
M  V30 4931 C 478.257 -4.401 0.00354277 0
M  V30 4932 H 475.376 -0.722917 0.143388 0
M  V30 4933 H 478.018 -1.6039 1.01858 0
M  V30 4934 H 476.168 -3.88477 0.0419766 0
M  V30 4935 H 477.84 -3.77626 2.64946 0
M  V30 4936 H 476.083 -3.51082 2.54801 0
M  V30 4937 H 476.754 -5.0911 2.13333 0
M  V30 4938 H 479.23 -4.13548 0.460117 0
M  V30 4939 H 478.106 -5.48656 0.163575 0
M  V30 4940 H 478.367 -4.28444 -1.09032 0
M  V30 4941 N 477.426 -0.562348 -1.47226 0
M  V30 4942 C 478.837 -0.130325 -1.86245 0
M  V30 4943 C 479.188 1.30128 -1.46838 0
M  V30 4944 O 478.313 1.97974 -0.873805 0
M  V30 4945 C 478.908 -0.229738 -3.3802 0
M  V30 4946 C 477.467 0.14728 -3.76112 0
M  V30 4947 C 476.614 -0.574971 -2.71274 0
M  V30 4948 H 479.565 -0.771773 -1.3867 0
M  V30 4949 H 479.586 0.550316 -3.76499 0
M  V30 4950 H 479.098 -1.27178 -3.66671 0
M  V30 4951 H 477.199 1.19023 -3.53078 0
M  V30 4952 H 477.312 -0.214858 -4.78618 0
M  V30 4953 H 475.676 -0.0174756 -2.54694 0
M  V30 4954 H 476.459 -1.61827 -3.02766 0
M  V30 4955 N 478.904 1.54736 -0.299062 0
M  V30 4956 C 480.129 2.04975 0.316254 0
M  V30 4957 C 480.554 1.17501 1.46885 0
M  V30 4958 O 479.912 0.178678 1.80417 0
M  V30 4959 C 479.96 3.52672 0.751997 0
M  V30 4960 O 479.064 3.68226 1.85697 0
M  V30 4961 H 478.405 0.661126 0.0617175 0
M  V30 4962 H 480.935 1.99805 -0.440341 0
M  V30 4963 H 480.945 3.94488 1.04133 0
M  V30 4964 H 479.62 4.158 -0.0911482 0
M  V30 4965 H 478.197 3.38316 1.56834 0
M  V30 4966 N 480.382 0.0267497 1.57577 0
M  V30 4967 C 481.312 -0.954308 2.13108 0
M  V30 4968 C 482.293 -1.34088 1.04663 0
M  V30 4969 O 483.478 -1.41992 1.32484 0
M  V30 4970 C 480.608 -2.23744 2.65624 0
M  V30 4971 C 479.562 -1.99168 3.78835 0
M  V30 4972 C 478.888 -3.33726 4.17769 0
M  V30 4973 C 480.188 -1.33277 5.0501 0
M  V30 4974 H 481.882 -0.491848 2.95332 0
M  V30 4975 H 479.428 -0.23514 1.42067 0
M  V30 4976 H 481.381 -2.92754 3.03106 0
M  V30 4977 H 480.105 -2.72151 1.80558 0
M  V30 4978 H 478.764 -1.32577 3.41788 0
M  V30 4979 H 478.412 -3.79888 3.29688 0
M  V30 4980 H 478.112 -3.18089 4.94058 0
M  V30 4981 H 479.636 -4.04008 4.57832 0
M  V30 4982 H 481.05 -1.92283 5.40093 0
M  V30 4983 H 479.447 -1.28045 5.8628 0
M  V30 4984 H 480.517 -0.305411 4.83937 0
M  V30 4985 N 481.861 -1.55662 -0.24637 0
M  V30 4986 C 482.824 -1.89558 -1.28842 0
M  V30 4987 C 483.824 -0.772082 -1.41052 0
M  V30 4988 O 485.014 -1.04007 -1.39743 0
M  V30 4989 C 482.146 -2.12449 -2.66605 0
M  V30 4990 H 483.339 -2.82735 -1.00004 0
M  V30 4991 H 480.892 -1.48562 -0.485684 0
M  V30 4992 H 481.627 -1.21742 -3.00582 0
M  V30 4993 H 481.412 -2.94273 -2.59125 0
M  V30 4994 H 482.902 -2.39854 -3.41847 0
M  V30 4995 N 483.339 0.512053 -1.4905 0
M  V30 4996 C 484.269 1.62365 -1.67809 0
M  V30 4997 C 485.25 1.61737 -0.526809 0
M  V30 4998 O 486.435 1.78651 -0.761404 0
M  V30 4999 C 483.565 3.00895 -1.73435 0
M  V30 5000 C 482.519 3.16387 -2.88242 0
M  V30 5001 C 481.845 4.56157 -2.78971 0
M  V30 5002 C 483.145 2.97457 -4.29321 0
M  V30 5003 H 484.839 1.46921 -2.60873 0
M  V30 5004 H 482.385 0.705379 -1.2554 0
M  V30 5005 H 484.338 3.78549 -1.85145 0
M  V30 5006 H 483.062 3.17403 -0.769619 0
M  V30 5007 H 481.721 2.41155 -2.76116 0
M  V30 5008 H 481.369 4.69525 -1.8043 0
M  V30 5009 H 481.069 4.67465 -3.5602 0
M  V30 5010 H 482.593 5.35886 -2.92675 0
M  V30 5011 H 484.007 3.64888 -4.42187 0
M  V30 5012 H 482.404 3.20245 -5.07507 0
M  V30 5013 H 483.474 1.93692 -4.44535 0
M  V30 5014 N 484.817 1.37938 0.762283 0
M  V30 5015 C 486.042 1.37059 1.55659 0
M  V30 5016 C 486.467 -0.0396123 1.88058 0
M  V30 5017 O 485.825 -1.01929 1.49934 0
M  V30 5018 C 485.873 2.22494 2.83776 0
M  V30 5019 O 484.977 1.63607 3.78559 0
M  V30 5020 H 484.318 0.467892 0.47114 0
M  V30 5021 H 486.848 1.81587 0.942725 0
M  V30 5022 H 486.858 2.36045 3.32786 0
M  V30 5023 H 485.533 3.24993 2.59524 0
M  V30 5024 H 484.11 1.5915 3.37233 0
M  V30 5025 N 486.295 -0.989507 1.22664 0
M  V30 5026 C 487.523 -1.76496 1.07967 0
M  V30 5027 C 487.938 -1.85148 -0.369543 0
M  V30 5028 O 487.295 -1.32408 -1.25596 0
M  V30 5029 C 487.346 -3.19642 1.68853 0
M  V30 5030 O 487.067 -3.11453 3.08105 0
M  V30 5031 C 488.568 -4.13621 1.59475 0
M  V30 5032 H 485.788 -0.55418 0.378319 0
M  V30 5033 H 488.332 -1.24378 1.62328 0
M  V30 5034 H 486.487 -3.68816 1.18547 0
M  V30 5035 H 486.901 -4.01499 3.37489 0
M  V30 5036 H 488.375 -5.11801 2.06795 0
M  V30 5037 H 488.852 -4.35718 0.55191 0
M  V30 5038 H 489.458 -3.70346 2.09103 0
M  V30 5039 N 487.773 -1.03688 -1.18687 0
M  V30 5040 C 488.703 -0.645407 -2.24403 0
M  V30 5041 C 489.684 0.349511 -1.66471 0
M  V30 5042 O 490.869 0.230453 -1.92828 0
M  V30 5043 C 487.999 -0.00365337 -3.473 0
M  V30 5044 C 486.953 -0.921705 -4.17958 0
M  V30 5045 C 486.279 -0.144629 -5.34504 0
M  V30 5046 C 487.579 -2.23909 -4.71871 0
M  V30 5047 H 489.273 -1.52917 -2.57404 0
M  V30 5048 H 486.819 -0.736711 -1.23728 0
M  V30 5049 H 488.772 0.281908 -4.20456 0
M  V30 5050 H 487.496 0.914963 -3.13522 0
M  V30 5051 H 486.155 -1.19159 -3.46694 0
M  V30 5052 H 485.803 0.776274 -4.96974 0
M  V30 5053 H 485.503 -0.756206 -5.82714 0
M  V30 5054 H 487.027 0.134004 -6.10453 0
M  V30 5055 H 488.441 -2.0145 -5.36741 0
M  V30 5056 H 486.838 -2.8033 -5.30599 0
M  V30 5057 H 487.908 -2.88822 -3.895 0
M  V30 5058 N 489.251 1.34841 -0.815825 0
M  V30 5059 C 490.199 2.31549 -0.220888 0
M  V30 5060 C 491.193 1.5707 0.634457 0
M  V30 5061 O 492.399 1.72125 0.526589 0
M  V30 5062 H 488.774 0.750153 -0.0526782 0
M  V30 5063 H 490.745 2.7926 -1.05149 0
M  V30 5064 C 489.494 3.42335 0.608427 0
M  V30 5065 H 488.817 3.9978 -0.0404121 0
M  V30 5066 H 490.257 4.12258 0.990931 0
M  V30 5067 C 488.716 2.86173 1.77782 0
M  V30 5068 O 489.246 2.80474 2.87571 0
M  V30 5069 N 487.452 2.43093 1.59229 0
M  V30 5070 H 486.999 2.47928 0.699237 0
M  V30 5071 H 486.957 2.05866 2.37627 0
M  V30 5072 N 490.729 0.570148 1.46925 0
M  V30 5073 C 491.954 0.0542592 2.07329 0
M  V30 5074 C 492.379 -1.23582 1.41806 0
M  V30 5075 O 491.737 -1.74341 0.497479 0
M  V30 5076 C 491.785 -0.111175 3.60429 0
M  V30 5077 O 490.889 -1.17071 3.95434 0
M  V30 5078 H 490.23 0.0571425 0.661537 0
M  V30 5079 H 492.76 0.789516 1.88753 0
M  V30 5080 H 492.77 -0.321315 4.06733 0
M  V30 5081 H 491.445 0.831012 4.07513 0
M  V30 5082 H 490.022 -0.940029 3.60857 0
M  V30 5083 N 492.207 -1.54576 0.307264 0
M  V30 5084 C 493.447 -2.02172 -0.300962 0
M  V30 5085 C 493.811 -1.19081 -1.50611 0
M  V30 5086 O 495.012 -1.56405 -2.18612 0
M  V30 5087 C 493.283 -3.51576 -0.642591 0
M  V30 5088 S 494.842 -4.21127 -1.23279 0
M  V30 5089 H 491.66 -0.705021 -0.0920141 0
M  V30 5090 H 494.262 -1.90563 0.436594 0
M  V30 5091 H 492.966 -4.09681 0.242901 0
M  V30 5092 H 492.497 -3.67234 -1.41077 0
M  V30 5093 H 494.512 -4.27426 -2.52034 0
M  V30 5094 N 493.685 -0.035106 -1.57561 0
M  V30 5095 C 494.931 0.64318 -1.92331 0
M  V30 5096 C 495.264 1.71434 -0.912368 0
M  V30 5097 O 494.539 1.94395 0.0640303 0
M  V30 5098 C 494.822 1.25411 -3.37556 0
M  V30 5099 C 494.675 0.192109 -4.4939 0
M  V30 5100 C 495.994 2.17041 -3.82859 0
M  V30 5101 H 493.113 0.232341 -0.699419 0
M  V30 5102 H 495.755 -0.0935889 -1.89769 0
M  V30 5103 H 493.905 1.88205 -3.39869 0
M  V30 5104 H 495.577 -0.438849 -4.59208 0
M  V30 5105 H 493.82 -0.481725 -4.31117 0
M  V30 5106 H 494.491 0.659292 -5.48049 0
M  V30 5107 H 496.967 1.64228 -3.8232 0
M  V30 5108 H 495.843 2.56738 -4.85157 0
M  V30 5109 H 496.104 3.06401 -3.18702 0
M  V30 5110 N 495.163 1.55791 0.238111 0
M  V30 5111 C 496.44 1.68798 0.98826 0
M  V30 5112 C 496.82 0.577562 2.03045 0
M  V30 5113 O 496.168 -0.41778 2.24648 0
M  V30 5114 C 496.378 3.09454 1.61367 0
M  V30 5115 C 497.726 3.68335 2.11221 0
M  V30 5116 O 498.75 3.1231 1.71292 0
M  V30 5117 O 497.609 4.6657 2.84561 0
M  V30 5118 H 494.703 0.686881 0.460568 0
M  V30 5119 H 497.249 1.68118 0.231202 0
M  V30 5120 H 496.021 3.81726 0.860295 0
M  V30 5121 H 495.644 3.14182 2.4367 0
M  V30 5122 N 496.642 -0.504142 1.49319 0
M  V30 5123 C 498.053 -1.08572 1.51885 0
M  V30 5124 C 498.404 -1.93842 0.303255 0
M  V30 5125 O 497.529 -2.0828 -0.58724 0
M  V30 5126 C 498.124 -1.97574 2.75227 0
M  V30 5127 C 496.683 -2.509 2.80581 0
M  V30 5128 C 495.83 -1.28447 2.45757 0
M  V30 5129 H 498.781 -0.288194 1.56061 0
M  V30 5130 H 498.802 -2.82219 2.55211 0
M  V30 5131 H 498.314 -1.35486 3.63683 0
M  V30 5132 H 496.415 -3.16636 1.96398 0
M  V30 5133 H 496.528 -2.88268 3.82673 0
M  V30 5134 H 494.892 -1.60868 1.97468 0
M  V30 5135 H 495.675 -0.68072 3.36483 0
M  V30 5136 N 498.12 -1.38341 -0.754957 0
M  V30 5137 C 499.367 -1.34473 -1.51404 0
M  V30 5138 C 499.695 0.0656458 -1.94389 0
M  V30 5139 O 498.95 1.04244 -1.65625 0
M  V30 5140 C 499.249 -2.2452 -2.78075 0
M  V30 5141 C 498.915 -3.72512 -2.54059 0
M  V30 5142 C 497.577 -4.1284 -2.47218 0
M  V30 5143 C 499.929 -4.66197 -2.33044 0
M  V30 5144 C 497.257 -5.44945 -2.17376 0
M  V30 5145 C 499.609 -5.98558 -2.04723 0
M  V30 5146 C 498.273 -6.37972 -1.96337 0
M  V30 5147 H 497.543 -0.492072 -0.554027 0
M  V30 5148 H 500.19 -1.70687 -0.868223 0
M  V30 5149 H 498.495 -1.81357 -3.473 0
M  V30 5150 H 500.192 -2.18832 -3.36026 0
M  V30 5151 H 496.782 -3.40538 -2.60253 0
M  V30 5152 H 500.966 -4.35888 -2.37309 0
M  V30 5153 H 496.222 -5.74426 -2.09391 0
M  V30 5154 H 500.396 -6.70693 -1.87465 0
M  V30 5155 H 498.023 -7.40258 -1.72978 0
M  V30 5156 N 499.598 0.982988 -1.23187 0
M  V30 5157 C 500.847 1.71817 -1.05649 0
M  V30 5158 C 501.16 1.91315 0.407176 0
M  V30 5159 O 502.366 2.62256 0.702436 0
M  V30 5160 C 500.822 3.09188 -1.84203 0
M  V30 5161 C 500.43 2.97586 -3.34882 0
M  V30 5162 C 502.174 3.86684 -1.75146 0
M  V30 5163 C 500.081 4.30173 -4.05839 0
M  V30 5164 H 499.011 0.644258 -0.391724 0
M  V30 5165 H 501.662 1.09659 -1.4713 0
M  V30 5166 H 500.044 3.72087 -1.35527 0
M  V30 5167 H 501.218 2.43793 -3.91026 0
M  V30 5168 H 499.533 2.33567 -3.44725 0
M  V30 5169 H 502.13 4.84836 -2.25473 0
M  V30 5170 H 502.473 4.10136 -0.713737 0
M  V30 5171 H 503.006 3.30482 -2.21419 0
M  V30 5172 H 499.745 4.11918 -5.09906 0
M  V30 5173 H 499.265 4.83841 -3.54482 0
M  V30 5174 H 500.944 4.98873 -4.11989 0
M  V30 5175 N 501.076 1.04316 1.18135 0
M  V30 5176 C 502.306 0.767003 1.91835 0
M  V30 5177 C 502.714 -0.68002 1.76557 0
M  V30 5178 O 502.057 -1.47548 1.09432 0
M  V30 5179 C 502.119 1.05674 3.43618 0
M  V30 5180 C 501.783 2.49818 3.82675 0
M  V30 5181 C 502.78 3.48003 3.86251 0
M  V30 5182 C 500.465 2.84596 4.13897 0
M  V30 5183 C 502.459 4.79016 4.20503 0
M  V30 5184 C 500.146 4.15813 4.4782 0
M  V30 5185 C 501.144 5.12834 4.51099 0
M  V30 5186 O 500.832 6.41699 4.84229 0
M  V30 5187 H 500.564 0.278948 0.615763 0
M  V30 5188 H 503.118 1.3946 1.50798 0
M  V30 5189 H 501.348 0.372029 3.84906 0
M  V30 5190 H 503.037 0.767994 3.98568 0
M  V30 5191 H 503.803 3.22475 3.62264 0
M  V30 5192 H 499.682 2.09748 4.1052 0
M  V30 5193 H 503.226 5.54739 4.22978 0
M  V30 5194 H 499.123 4.41109 4.71268 0
M  V30 5195 H 499.891 6.46387 5.02121 0
M  V30 5196 N 502.554 -1.34406 0.822964 0
M  V30 5197 C 503.784 -2.02214 0.423424 0
M  V30 5198 C 504.192 -1.62124 -0.975322 0
M  V30 5199 O 503.535 -0.822452 -1.6426 0
M  V30 5200 C 503.597 -3.56721 0.446107 0
M  V30 5201 C 503.261 -4.20136 1.79819 0
M  V30 5202 C 504.258 -4.4065 2.75904 0
M  V30 5203 C 501.943 -4.56906 2.08669 0
M  V30 5204 C 503.937 -4.9706 3.99012 0
M  V30 5205 C 501.624 -5.13026 3.32036 0
M  V30 5206 C 502.622 -5.33047 4.27024 0
M  V30 5207 O 502.31 -5.87979 5.48211 0
M  V30 5208 H 502.042 -0.654748 0.168169 0
M  V30 5209 H 504.596 -1.72659 1.11257 0
M  V30 5210 H 502.826 -3.85537 -0.299734 0
M  V30 5211 H 504.515 -4.05845 0.0666114 0
M  V30 5212 H 505.281 -4.12607 2.54912 0
M  V30 5213 H 501.16 -4.40626 1.35535 0
M  V30 5214 H 504.704 -5.12603 4.73164 0
M  V30 5215 H 500.601 -5.40498 3.52891 0
M  V30 5216 H 501.369 -6.06413 5.49732 0
M  V30 5217 N 504.032 -0.577932 -1.46621 0
M  V30 5218 C 505.262 -0.0670668 -2.06491 0
M  V30 5219 C 505.67 1.24119 -1.42798 0
M  V30 5220 O 505.013 1.76016 -0.525759 0
M  V30 5221 C 505.075 0.177995 -3.59059 0
M  V30 5222 C 504.739 -1.04394 -4.44917 0
M  V30 5223 C 505.736 -1.95479 -4.81751 0
M  V30 5224 C 503.421 -1.26444 -4.86125 0
M  V30 5225 C 505.415 -3.06965 -5.58615 0
M  V30 5226 C 503.102 -2.38237 -5.62749 0
M  V30 5227 C 504.1 -3.28327 -5.98908 0
M  V30 5228 O 503.788 -4.38179 -6.73984 0
M  V30 5229 H 503.52 -0.0523159 -0.673973 0
M  V30 5230 H 506.074 -0.796966 -1.89308 0
M  V30 5231 H 504.304 0.962451 -3.74531 0
M  V30 5232 H 505.993 0.636782 -4.00874 0
M  V30 5233 H 506.759 -1.79657 -4.50498 0
M  V30 5234 H 502.638 -0.572316 -4.57434 0
M  V30 5235 H 506.182 -3.77309 -5.86757 0
M  V30 5236 H 502.079 -2.54023 -5.93416 0
M  V30 5237 H 502.847 -4.36486 -6.92403 0
M  V30 5238 N 505.51 1.54411 -0.315457 0
M  V30 5239 C 506.756 2.00716 0.289972 0
M  V30 5240 C 507.089 1.2034 1.5242 0
M  V30 5241 O 506.364 0.283579 1.92422 0
M  V30 5242 C 506.647 3.54507 0.632196 0
M  V30 5243 C 506.5 4.45615 -0.61218 0
M  V30 5244 C 507.819 4.15421 1.45305 0
M  V30 5245 H 504.938 0.729637 0.10392 0
M  V30 5246 H 507.58 1.8506 -0.430427 0
M  V30 5247 H 505.73 3.67979 1.24595 0
M  V30 5248 H 507.402 4.44026 -1.25053 0
M  V30 5249 H 505.645 4.15621 -1.24264 0
M  V30 5250 H 506.316 5.51022 -0.328379 0
M  V30 5251 H 508.792 4.05474 0.934331 0
M  V30 5252 H 507.668 5.23157 1.66127 0
M  V30 5253 H 507.929 3.68223 2.44671 0
M  V30 5254 N 506.988 0.0434614 1.5754 0
M  V30 5255 C 508.213 -0.645358 1.97104 0
M  V30 5256 C 508.638 -1.64037 0.920521 0
M  V30 5257 O 507.996 -1.80922 -0.11708 0
M  V30 5258 C 508.044 -1.31547 3.35749 0
M  V30 5259 O 507.148 -2.43103 3.33129 0
M  V30 5260 H 506.489 -0.168403 0.64229 0
M  V30 5261 H 509.019 0.109573 2.04306 0
M  V30 5262 H 509.029 -1.66895 3.72304 0
M  V30 5263 H 507.704 -0.586205 4.11748 0
M  V30 5264 H 506.281 -2.0976 3.0831 0
M  V30 5265 N 508.466 -1.55915 -0.229846 0
M  V30 5266 C 509.429 -1.90914 -1.26824 0
M  V30 5267 C 510.429 -0.786999 -1.40225 0
M  V30 5268 O 511.619 -1.05484 -1.38632 0
M  V30 5269 C 508.751 -2.15264 -2.64337 0
M  V30 5270 H 509.944 -2.8378 -0.969998 0
M  V30 5271 H 507.497 -1.49069 -0.4699 0
M  V30 5272 H 508.232 -1.24923 -2.99274 0
M  V30 5273 H 508.017 -2.97005 -2.55989 0
M  V30 5274 H 509.507 -2.43467 -3.39284 0
M  V30 5275 N 509.944 0.496216 -1.49584 0
M  V30 5276 C 510.854 1.62352 -1.69349 0
M  V30 5277 C 511.87 1.64184 -0.576147 0
M  V30 5278 O 513.046 1.82517 -0.85144 0
M  V30 5279 C 510.111 2.98698 -1.76013 0
M  V30 5280 C 509.172 3.07454 -2.99617 0
M  V30 5281 C 508.405 4.37296 -3.05953 0
M  V30 5282 O 508.628 5.2637 -2.19752 0
M  V30 5283 O 507.562 4.51124 -3.9846 0
M  V30 5284 H 511.388 1.48606 -2.64859 0
M  V30 5285 H 508.973 0.673022 -1.33382 0
M  V30 5286 H 510.855 3.79725 -1.82721 0
M  V30 5287 H 509.53 3.12696 -0.836828 0
M  V30 5288 H 508.437 2.25597 -2.98424 0
M  V30 5289 H 509.77 2.98385 -3.91443 0
M  V30 5290 N 511.423 1.38739 0.74761 0
M  V30 5291 C 512.67 1.35274 1.50689 0
M  V30 5292 C 512.998 -0.0553359 1.94421 0
M  V30 5293 O 512.253 -1.03365 1.66175 0
M  V30 5294 C 512.552 2.25992 2.7688 0
M  V30 5295 C 512.218 3.73854 2.5208 0
M  V30 5296 C 510.88 4.14145 2.45025 0
M  V30 5297 C 513.232 4.67427 2.30568 0
M  V30 5298 C 510.56 5.4609 2.14483 0
M  V30 5299 C 512.912 5.99635 2.01545 0
M  V30 5300 C 511.576 6.39004 1.92951 0
M  V30 5301 H 510.846 0.495003 0.55141 0
M  V30 5302 H 513.493 1.71145 0.859158 0
M  V30 5303 H 511.798 1.83196 3.46333 0
M  V30 5304 H 513.495 2.20611 3.34861 0
M  V30 5305 H 510.085 3.41913 2.58444 0
M  V30 5306 H 514.269 4.3714 2.34994 0
M  V30 5307 H 509.525 5.75528 2.06342 0
M  V30 5308 H 513.699 6.71678 1.83906 0
M  V30 5309 H 511.326 7.41165 1.6905 0
M  V30 5310 N 512.901 -0.976442 1.23707 0
M  V30 5311 C 514.317 -1.24341 1.00058 0
M  V30 5312 C 514.517 -1.99315 -0.295932 0
M  V30 5313 O 513.573 -2.3123 -1.01435 0
M  V30 5314 C 514.886 -2.03909 2.21001 0
M  V30 5315 C 516.434 -2.17034 2.25534 0
M  V30 5316 C 516.909 -2.99994 3.46075 0
M  V30 5317 N 518.4 -3.07578 3.46338 0
M  V30 5318 C 519.135 -3.72104 4.36264 0
M  V30 5319 N 518.631 -4.3842 5.36432 0
M  V30 5320 N 520.424 -3.69029 4.23998 0
M  V30 5321 H 512.575 -0.47428 2.07037 0
M  V30 5322 H 514.838 -0.272167 0.908091 0
M  V30 5323 H 514.544 -1.56198 3.15111 0
M  V30 5324 H 514.418 -3.04654 2.22409 0
M  V30 5325 H 516.805 -2.63951 1.31961 0
M  V30 5326 H 516.886 -1.15664 2.28156 0
M  V30 5327 H 516.53 -2.53772 4.39957 0
M  V30 5328 H 516.46 -4.01541 3.40694 0
M  V30 5329 H 518.951 -2.60397 2.73865 0
M  V30 5330 H 519.264 -4.85447 6.013 0
M  V30 5331 H 517.609 -4.37116 5.40328 0
M  V30 5332 H 520.8 -3.16392 3.44984 0
M  V30 5333 H 520.973 -4.19034 4.94282 0
M  V30 5334 N 514.379 -1.04941 -1.1758 0
M  V30 5335 C 515.656 -0.671918 -1.83697 0
M  V30 5336 C 516.036 0.847929 -1.93322 0
M  V30 5337 O 515.384 1.75287 -1.46583 0
M  V30 5338 C 515.594 -1.35797 -3.21497 0
M  V30 5339 C 516.942 -1.4944 -3.97433 0
M  V30 5340 O 517.966 -1.31678 -3.30967 0
M  V30 5341 O 516.825 -1.78463 -5.1654 0
M  V30 5342 H 513.919 -0.236212 -0.792548 0
M  V30 5343 H 516.465 -1.14884 -1.24899 0
M  V30 5344 H 515.237 -2.39498 -3.09446 0
M  V30 5345 H 514.86 -0.870236 -3.8796 0
M  V30 5346 N 515.857 1.33968 -0.830081 0
M  V30 5347 C 516.804 2.29387 -0.255008 0
M  V30 5348 C 517.774 1.53923 0.624243 0
M  V30 5349 O 518.959 1.82262 0.564372 0
M  V30 5350 C 516.099 3.4034 0.571209 0
M  V30 5351 C 515.212 4.30729 -0.331083 0
M  V30 5352 C 514.347 5.2879 0.505389 0
M  V30 5353 C 513.386 6.10819 -0.395843 0
M  V30 5354 N 512.523 7.00948 0.401979 0
M  V30 5355 H 517.363 2.77972 -1.07404 0
M  V30 5356 H 514.9 1.36785 -0.541133 0
M  V30 5357 H 516.858 4.03361 1.06562 0
M  V30 5358 H 515.488 2.9297 1.35529 0
M  V30 5359 H 514.54 3.68507 -0.943759 0
M  V30 5360 H 515.852 4.88181 -1.02377 0
M  V30 5361 H 515.006 5.97297 1.06399 0
M  V30 5362 H 513.745 4.71894 1.23155 0
M  V30 5363 H 512.75 5.41238 -0.966529 0
M  V30 5364 H 513.975 6.69797 -1.12023 0
M  V30 5365 H 511.921 6.46512 1.11168 0
M  V30 5366 H 511.838 7.55643 -0.232167 0
M  V30 5367 H 513.106 7.73774 0.943102 0
M  V30 5368 N 517.335 0.585699 1.46312 0
M  V30 5369 C 518.581 0.0725284 2.0267 0
M  V30 5370 C 518.914 -1.28523 1.45586 0
M  V30 5371 O 518.189 -1.84283 0.622101 0
M  V30 5372 C 518.472 0.0099788 3.60099 0
M  V30 5373 C 518.325 1.39685 4.27561 0
M  V30 5374 C 519.644 -0.689117 4.34671 0
M  V30 5375 H 516.763 0.0278307 0.736474 0
M  V30 5376 H 519.405 0.753472 1.74421 0
M  V30 5377 H 517.555 -0.56992 3.84297 0
M  V30 5378 H 519.227 2.02215 4.14617 0
M  V30 5379 H 517.47 1.96374 3.86807 0
M  V30 5380 H 518.141 1.30553 5.36339 0
M  V30 5381 H 520.617 -0.196446 4.15636 0
M  V30 5382 H 519.493 -0.701921 5.44393 0
M  V30 5383 H 519.754 -1.75101 4.05946 0
M  V30 5384 N 518.813 -1.54241 0.323641 0
M  V30 5385 C 520.229 -1.59574 -0.0290018 0
M  V30 5386 C 520.429 -1.34017 -1.50472 0
M  V30 5387 O 519.485 -1.12464 -2.26071 0
M  V30 5388 C 520.798 -2.98169 0.389295 0
M  V30 5389 C 522.346 -3.11148 0.339958 0
M  V30 5390 C 522.821 -4.5209 0.733418 0
M  V30 5391 N 524.312 -4.5808 0.686827 0
M  V30 5392 C 525.047 -5.65248 0.963464 0
M  V30 5393 N 524.543 -6.80355 1.30724 0
M  V30 5394 N 526.336 -5.55025 0.88902 0
M  V30 5395 H 518.487 -1.6911 1.28512 0
M  V30 5396 H 520.75 -0.790972 0.522558 0
M  V30 5397 H 520.456 -3.21871 1.41746 0
M  V30 5398 H 520.33 -3.76399 -0.245657 0
M  V30 5399 H 522.717 -2.87182 -0.679002 0
M  V30 5400 H 522.798 -2.35023 1.00985 0
M  V30 5401 H 522.442 -4.76788 1.75029 0
M  V30 5402 H 522.372 -5.26584 0.0412189 0
M  V30 5403 H 524.863 -3.75411 0.43298 0
M  V30 5404 H 525.176 -7.58029 1.5037 0
M  V30 5405 H 523.521 -6.81851 1.3455 0
M  V30 5406 H 526.712 -4.63977 0.619939 0
M  V30 5407 H 526.885 -6.38458 1.10797 0
M  V30 5408 N 520.291 -0.0518155 -1.57515 0
M  V30 5409 C 521.254 0.907547 -2.10467 0
M  V30 5410 C 522.254 1.23947 -1.02439 0
M  V30 5411 O 523.444 1.17604 -1.2851 0
M  V30 5412 C 520.576 2.21723 -2.58944 0
M  V30 5413 H 521.769 0.44851 -2.96527 0
M  V30 5414 H 519.322 0.196598 -1.55059 0
M  V30 5415 H 520.057 2.72206 -1.76279 0
M  V30 5416 H 519.842 1.98935 -3.37886 0
M  V30 5417 H 521.332 2.90441 -3.00056 0
M  V30 5418 N 521.769 1.56035 0.221574 0
M  V30 5419 C 523.017 1.78693 0.944102 0
M  V30 5420 C 523.338 0.620317 1.8487 0
M  V30 5421 O 522.608 -0.362784 1.92512 0
M  V30 5422 H 521.188 0.659082 0.351597 0
M  V30 5423 H 523.85 1.93497 0.233435 0
M  V30 5424 H 522.946 2.70837 1.55093 0
M  V30 5425 N 523.247 -0.488276 1.49845 0
M  V30 5426 C 524.177 -1.59675 1.70371 0
M  V30 5427 C 525.158 -1.60878 0.552473 0
M  V30 5428 O 526.343 -1.77417 0.78973 0
M  V30 5429 C 523.473 -2.98098 1.782 0
M  V30 5430 C 522.427 -3.11761 2.93239 0
M  V30 5431 C 521.753 -4.51661 2.86193 0
M  V30 5432 C 523.053 -2.90589 4.33999 0
M  V30 5433 H 524.747 -1.42752 2.63177 0
M  V30 5434 H 522.293 -0.685317 1.26647 0
M  V30 5435 H 524.246 -3.75555 1.91144 0
M  V30 5436 H 522.97 -3.16138 0.820018 0
M  V30 5437 H 521.629 -2.36732 2.79917 0
M  V30 5438 H 521.277 -4.66595 1.87877 0
M  V30 5439 H 520.977 -4.61742 3.63412 0
M  V30 5440 H 522.501 -5.31162 3.01163 0
M  V30 5441 H 523.915 -3.57807 4.47936 0
M  V30 5442 H 522.312 -3.1213 5.12538 0
M  V30 5443 H 523.382 -1.86595 4.4756 0
M  V30 5444 N 524.725 -1.39134 -0.740242 0
M  V30 5445 C 525.972 -1.36071 -1.49969 0
M  V30 5446 C 526.3 0.0450245 -1.94448 0
M  V30 5447 O 525.555 1.02482 -1.66721 0
M  V30 5448 C 525.854 -2.27457 -2.75678 0
M  V30 5449 C 525.52 -3.75185 -2.50094 0
M  V30 5450 C 524.182 -4.15439 -2.42825 0
M  V30 5451 C 526.534 -4.68643 -2.28086 0
M  V30 5452 C 523.862 -5.4722 -2.11584 0
M  V30 5453 C 526.214 -6.00695 -1.98363 0
M  V30 5454 C 524.878 -6.40018 -1.8956 0
M  V30 5455 H 524.148 -0.497921 -0.548777 0
M  V30 5456 H 526.795 -1.71599 -0.85007 0
M  V30 5457 H 525.1 -1.8503 -3.45356 0
M  V30 5458 H 526.797 -2.22384 -3.33686 0
M  V30 5459 H 523.387 -3.43279 -2.56627 0
M  V30 5460 H 527.571 -4.3838 -2.32672 0
M  V30 5461 H 522.827 -5.76615 -2.03287 0
M  V30 5462 H 527.001 -6.72644 -1.80341 0
M  V30 5463 H 524.628 -7.42051 -1.65117 0
M  V30 5464 N 526.204 0.969867 -1.24223 0
M  V30 5465 C 527.136 2.0669 -0.99055 0
M  V30 5466 C 528.149 1.62753 0.0392222 0
M  V30 5467 O 529.338 1.77403 -0.197561 0
M  V30 5468 C 526.438 3.35589 -0.472594 0
M  V30 5469 C 525.611 4.08444 -1.56499 0
M  V30 5470 C 524.67 5.15616 -1.05007 0
M  V30 5471 O 523.696 5.41911 -1.7413 0
M  V30 5472 N 524.898 5.80383 0.116641 0
M  V30 5473 H 527.663 2.28855 -1.93508 0
M  V30 5474 H 525.224 1.13733 -1.15223 0
M  V30 5475 H 527.216 4.04542 -0.112919 0
M  V30 5476 H 525.786 3.10311 0.377617 0
M  V30 5477 H 525.006 3.33798 -2.09696 0
M  V30 5478 H 526.294 4.53882 -2.29932 0
M  V30 5479 H 525.692 5.6142 0.694589 0
M  V30 5480 H 524.249 6.50462 0.417483 0
M  V30 5481 N 527.682 1.05563 1.17022 0
M  V30 5482 C 529.098 0.777684 1.39371 0
M  V30 5483 C 529.298 -0.626269 1.91521 0
M  V30 5484 O 528.354 -1.38806 2.10924 0
M  V30 5485 C 529.667 1.83642 2.3811 0
M  V30 5486 C 531.215 1.85907 2.51809 0
M  V30 5487 C 531.69 2.90813 3.53824 0
M  V30 5488 N 533.181 2.898 3.61345 0
M  V30 5489 C 533.916 3.6762 4.40049 0
M  V30 5490 N 533.412 4.55237 5.22237 0
M  V30 5491 N 535.205 3.56044 4.34959 0
M  V30 5492 H 527.356 1.9614 0.815047 0
M  V30 5493 H 529.619 0.849527 0.420722 0
M  V30 5494 H 529.325 2.84425 2.06871 0
M  V30 5495 H 529.199 1.6812 3.37662 0
M  V30 5496 H 531.586 0.857865 2.82356 0
M  V30 5497 H 531.667 2.05506 1.52318 0
M  V30 5498 H 531.311 3.91122 3.24015 0
M  V30 5499 H 531.241 2.68465 4.53028 0
M  V30 5500 H 533.732 2.26274 3.02669 0
M  V30 5501 H 534.045 5.11291 5.79484 0
M  V30 5502 H 532.39 4.59296 5.21605 0
M  V30 5503 H 535.581 2.86986 3.69806 0
M  V30 5504 H 535.754 4.16938 4.96051 0
M  V30 5505 N 529.16 -1.33526 0.837174 0
M  V30 5506 C 530.385 -2.0258 0.444545 0
M  V30 5507 C 530.81 -1.6258 -0.946006 0
M  V30 5508 O 530.168 -0.817548 -1.6182 0
M  V30 5509 C 530.216 -3.5605 0.571006 0
M  V30 5510 O 529.32 -4.10422 -0.403431 0
M  V30 5511 H 528.661 -0.638866 0.180958 0
M  V30 5512 H 531.191 -1.70462 1.13154 0
M  V30 5513 H 531.201 -4.05488 0.452024 0
M  V30 5514 H 529.876 -3.84509 1.58512 0
M  V30 5515 H 528.453 -3.72113 -0.242147 0
M  V30 5516 N 530.638 -0.59345 -1.46 0
M  V30 5517 C 532.049 -0.169801 -1.85926 0
M  V30 5518 C 532.4 1.26984 -1.49565 0
M  V30 5519 O 531.525 1.96076 -0.915602 0
M  V30 5520 C 532.12 -0.301385 -3.37457 0
M  V30 5521 C 530.679 0.0674684 -3.7634 0
M  V30 5522 C 529.826 -0.632383 -2.69993 0
M  V30 5523 H 532.777 -0.801014 -1.37002 0
M  V30 5524 H 532.798 0.470331 -3.77582 0
M  V30 5525 H 532.31 -1.34927 -3.63891 0
M  V30 5526 H 530.411 1.11507 -3.55523 0
M  V30 5527 H 530.524 -0.316332 -4.78055 0
M  V30 5528 H 528.888 -0.0714961 -2.546 0
M  V30 5529 H 529.671 -1.68212 -2.99265 0
M  V30 5530 N 532.116 1.54067 -0.331816 0
M  V30 5531 C 533.364 2.00319 0.267739 0
M  V30 5532 C 533.685 1.22148 1.52003 0
M  V30 5533 O 532.955 0.325494 1.93177 0
M  V30 5534 H 531.535 0.740014 0.101922 0
M  V30 5535 H 534.197 1.89628 -0.450267 0
M  V30 5536 H 533.293 3.07765 0.518385 0
M  V30 5537 N 533.594 0.0601682 1.57485 0
M  V30 5538 C 534.871 -0.651956 1.84415 0
M  V30 5539 C 535.251 -1.88498 0.950361 0
M  V30 5540 O 534.599 -2.28496 0.0136719 0
M  V30 5541 C 534.809 -1.00069 3.34346 0
M  V30 5542 C 536.157 -1.37915 4.01578 0
M  V30 5543 O 537.181 -1.09277 3.39024 0
M  V30 5544 O 536.04 -1.91399 5.11887 0
M  V30 5545 H 533.134 -0.322668 0.761455 0
M  V30 5546 H 535.68 0.0902159 1.6946 0
M  V30 5547 H 534.452 -0.124463 3.91102 0
M  V30 5548 H 534.075 -1.80001 3.54521 0
M  V30 5549 N 535.072 -1.5615 -0.213296 0
M  V30 5550 C 536.3 -1.83638 -0.953139 0
M  V30 5551 C 536.715 -0.640362 -1.77609 0
M  V30 5552 O 536.072 0.391071 -1.78261 0
M  V30 5553 C 536.123 -3.09735 -1.86405 0
M  V30 5554 O 535.844 -4.24723 -1.07435 0
M  V30 5555 C 537.345 -3.5027 -2.71709 0
M  V30 5556 H 534.565 -0.610263 -0.278962 0
M  V30 5557 H 537.109 -2.03247 -0.226035 0
M  V30 5558 H 535.264 -2.92077 -2.545 0
M  V30 5559 H 535.678 -4.9641 -1.69343 0
M  V30 5560 H 537.152 -4.41515 -3.31313 0
M  V30 5561 H 537.629 -2.72406 -3.44516 0
M  V30 5562 H 538.235 -3.70396 -2.09015 0
M  V30 5563 N 536.55 0.480323 -1.50102 0
M  V30 5564 C 537.796 1.23489 -1.60867 0
M  V30 5565 C 538.129 1.91809 -0.303827 0
M  V30 5566 O 537.404 1.81694 0.694092 0
M  V30 5567 C 537.687 2.28578 -2.78252 0
M  V30 5568 C 537.54 1.64624 -4.18592 0
M  V30 5569 C 538.859 3.2997 -2.91218 0
M  V30 5570 H 535.978 0.447605 -0.585507 0
M  V30 5571 H 538.62 0.530005 -1.82458 0
M  V30 5572 H 536.77 2.88697 -2.59974 0
M  V30 5573 H 538.442 1.08173 -4.48438 0
M  V30 5574 H 536.685 0.949645 -4.23278 0
M  V30 5575 H 537.356 2.40946 -4.96638 0
M  V30 5576 H 539.832 2.79864 -3.07921 0
M  V30 5577 H 538.708 4.00839 -3.74993 0
M  V30 5578 H 538.969 3.93541 -2.0144 0
M  V30 5579 N 538.028 1.39524 0.732853 0
M  V30 5580 C 538.991 1.38189 1.82857 0
M  V30 5581 C 539.991 0.278624 1.58368 0
M  V30 5582 O 541.181 0.536639 1.65728 0
M  V30 5583 C 538.313 1.15661 3.2068 0
M  V30 5584 H 539.506 2.35692 1.85444 0
M  V30 5585 H 537.059 1.2512 0.936728 0
M  V30 5586 H 537.794 0.188482 3.23752 0
M  V30 5587 H 537.579 1.95559 3.39852 0
M  V30 5588 H 539.069 1.17472 4.00737 0
M  V30 5589 N 539.506 -0.963266 1.24736 0
M  V30 5590 C 540.731 -1.74699 1.11781 0
M  V30 5591 C 541.156 -1.85267 -0.325258 0
M  V30 5592 O 540.514 -1.32681 -1.23553 0
M  V30 5593 C 540.562 -3.14322 1.76731 0
M  V30 5594 O 539.666 -3.99043 1.04109 0
M  V30 5595 H 539.007 -0.53684 0.390767 0
M  V30 5596 H 541.537 -1.20801 1.65131 0
M  V30 5597 H 541.547 -3.64824 1.82668 0
M  V30 5598 H 540.222 -3.05946 2.81726 0
M  V30 5599 H 538.799 -3.5752 1.05991 0
M  V30 5600 N 540.985 -1.06182 -1.16461 0
M  V30 5601 C 541.932 -0.671613 -2.20812 0
M  V30 5602 C 542.902 0.331186 -1.62765 0
M  V30 5603 O 544.087 0.22033 -1.89524 0
M  V30 5604 C 541.227 -0.063029 -3.45042 0
M  V30 5605 C 540.34 -1.11587 -4.1734 0
M  V30 5606 C 539.475 -0.473546 -5.29085 0
M  V30 5607 C 538.514 -1.51 -5.93182 0
M  V30 5608 N 537.651 -0.891118 -6.96422 0
M  V30 5609 H 542.491 -1.56589 -2.53542 0
M  V30 5610 H 540.028 -0.782951 -1.24532 0
M  V30 5611 H 541.986 0.307344 -4.16066 0
M  V30 5612 H 540.616 0.794663 -3.12866 0
M  V30 5613 H 539.668 -1.60396 -3.44931 0
M  V30 5614 H 540.98 -1.90221 -4.61104 0
M  V30 5615 H 540.134 -0.0501432 -6.06679 0
M  V30 5616 H 538.873 0.344687 -4.8648 0
M  V30 5617 H 537.878 -1.94331 -5.14311 0
M  V30 5618 H 539.103 -2.33031 -6.37866 0
M  V30 5619 H 537.049 -0.0935753 -6.55933 0
M  V30 5620 H 536.966 -1.61486 -7.38551 0
M  V30 5621 H 538.234 -0.492822 -7.77941 0
M  V30 5622 N 542.463 1.3308 -0.844243 0
M  V30 5623 C 543.426 2.27403 -0.286485 0
M  V30 5624 C 544.426 1.51179 0.547872 0
M  V30 5625 O 545.616 1.70421 0.360886 0
M  V30 5626 C 542.748 3.35653 0.595813 0
M  V30 5627 H 543.941 2.78248 -1.11885 0
M  V30 5628 H 541.494 1.43574 -0.617749 0
M  V30 5629 H 542.229 2.90058 1.4504 0
M  V30 5630 H 542.014 3.921 -0.00125994 0
M  V30 5631 H 543.504 4.05958 0.979168 0
M  V30 5632 N 543.941 0.601185 1.45683 0
M  V30 5633 C 545.166 0.0982245 2.07167 0
M  V30 5634 C 545.591 -1.20546 1.44396 0
M  V30 5635 O 544.949 -1.73247 0.534347 0
M  V30 5636 C 544.997 -0.0346976 3.60583 0
M  V30 5637 O 544.101 -1.08657 3.97828 0
M  V30 5638 H 543.442 0.0711618 0.660176 0
M  V30 5639 H 545.972 0.829376 1.87036 0
M  V30 5640 H 545.982 -0.234969 4.07323 0
M  V30 5641 H 544.657 0.917265 4.05659 0
M  V30 5642 H 543.234 -0.863275 3.6277 0
M  V30 5643 N 545.419 -1.53889 0.339982 0
M  V30 5644 C 546.382 -2.23547 -0.50592 0
M  V30 5645 C 547.382 -1.23445 -1.03044 0
M  V30 5646 O 548.572 -1.47909 -0.920253 0
M  V30 5647 C 545.704 -2.95234 -1.7044 0
M  V30 5648 H 546.897 -2.99722 0.103247 0
M  V30 5649 H 544.45 -1.56033 0.0912804 0
M  V30 5650 H 545.185 -2.23236 -2.35236 0
M  V30 5651 H 544.97 -3.68654 -1.33553 0
M  V30 5652 H 546.46 -3.48258 -2.30447 0
M  V30 5653 N 546.897 -0.0685191 -1.57451 0
M  V30 5654 C 547.807 0.914677 -2.16034 0
M  V30 5655 C 548.823 1.32938 -1.12265 0
M  V30 5656 O 549.999 1.40275 -1.44516 0
M  V30 5657 C 547.064 2.16519 -2.70777 0
M  V30 5658 C 546.125 1.80721 -3.89408 0
M  V30 5659 C 545.358 2.9981 -4.41531 0
M  V30 5660 O 545.581 4.13727 -3.92666 0
M  V30 5661 O 544.515 2.79817 -5.32903 0
M  V30 5662 H 548.341 0.446364 -3.00402 0
M  V30 5663 H 545.926 0.154367 -1.486 0
M  V30 5664 H 547.808 2.89856 -3.05878 0
M  V30 5665 H 546.483 2.62454 -1.89471 0
M  V30 5666 H 545.39 1.04646 -3.59166 0
M  V30 5667 H 546.723 1.39571 -4.71997 0
M  V30 5668 N 548.375 1.56261 0.205012 0
M  V30 5669 C 549.623 1.79684 0.925096 0
M  V30 5670 C 549.944 0.63989 1.84202 0
M  V30 5671 O 549.214 -0.342345 1.92885 0
M  V30 5672 H 547.794 0.662774 0.344587 0
M  V30 5673 H 550.456 1.93734 0.212899 0
M  V30 5674 H 549.552 2.72467 1.52211 0
M  V30 5675 N 549.853 -0.472356 1.50355 0
M  V30 5676 C 551.101 -1.22211 1.60962 0
M  V30 5677 C 551.422 -1.92497 0.311439 0
M  V30 5678 O 550.692 -1.8405 -0.671002 0
M  V30 5679 H 549.272 -0.454092 0.593135 0
M  V30 5680 H 551.934 -0.544977 1.87126 0
M  V30 5681 H 551.03 -1.9707 2.42012 0
M  V30 5682 N 551.331 -1.39911 -0.725443 0
M  V30 5683 C 552.556 -1.41137 -1.5197 0
M  V30 5684 C 552.981 -0.010262 -1.88097 0
M  V30 5685 O 552.339 0.979184 -1.52583 0
M  V30 5686 C 552.387 -2.2994 -2.77777 0
M  V30 5687 O 551.491 -1.73586 -3.74088 0
M  V30 5688 H 550.832 -0.480219 -0.458569 0
M  V30 5689 H 553.362 -1.84023 -0.894249 0
M  V30 5690 H 553.372 -2.44785 -3.26411 0
M  V30 5691 H 552.047 -3.31759 -2.50816 0
M  V30 5692 H 550.624 -1.68035 -3.32894 0
M  V30 5693 N 552.809 0.956637 -1.25245 0
M  V30 5694 C 554.225 1.22733 -1.02023 0
M  V30 5695 C 554.425 1.99761 0.264186 0
M  V30 5696 O 553.481 2.32814 0.977436 0
M  V30 5697 C 554.794 2.00367 -2.24217 0
M  V30 5698 C 556.342 2.13418 -2.28958 0
M  V30 5699 C 556.817 2.9445 -3.50803 0
M  V30 5700 N 558.308 3.02029 -3.51187 0
M  V30 5701 C 559.043 3.65116 -4.42129 0
M  V30 5702 N 558.539 4.2983 -5.43339 0
M  V30 5703 N 560.332 3.62237 -4.29815 0
M  V30 5704 H 552.483 0.441282 -2.07765 0
M  V30 5705 H 554.746 0.257686 -0.912306 0
M  V30 5706 H 554.452 1.51165 -3.17556 0
M  V30 5707 H 554.326 3.01077 -2.27228 0
M  V30 5708 H 556.713 2.61819 -1.36143 0
M  V30 5709 H 556.794 1.1202 -2.29968 0
M  V30 5710 H 556.438 2.46741 -4.43939 0
M  V30 5711 H 556.368 3.9607 -3.47039 0
M  V30 5712 H 558.859 2.56007 -2.77973 0
M  V30 5713 H 559.172 4.75819 -6.08947 0
M  V30 5714 H 557.517 4.28465 -5.47214 0
M  V30 5715 H 560.708 3.10863 -3.49974 0
M  V30 5716 H 560.881 4.11117 -5.00886 0
M  V30 5717 N 554.287 1.06798 1.15896 0
M  V30 5718 C 555.535 0.786211 1.8618 0
M  V30 5719 C 555.856 -0.689547 1.82401 0
M  V30 5720 O 555.126 -1.49913 1.26107 0
M  V30 5721 H 553.706 0.287843 0.689315 0
M  V30 5722 H 556.368 1.35055 1.40521 0
M  V30 5723 H 555.464 1.1157 2.91477 0
M  V30 5724 N 555.766 -1.3263 0.851289 0
M  V30 5725 C 556.699 -2.26952 0.238318 0
M  V30 5726 C 557.677 -1.50243 -0.621757 0
M  V30 5727 O 558.861 -1.79378 -0.579298 0
M  V30 5728 C 555.988 -3.32124 -0.664178 0
M  V30 5729 C 555.034 -4.26325 0.122067 0
M  V30 5730 S 555.867 -5.14404 1.48824 0
M  V30 5731 C 557.023 -6.231 0.591372 0
M  V30 5732 H 557.256 -2.78594 1.03791 0
M  V30 5733 H 554.789 -1.4011 0.648731 0
M  V30 5734 H 556.747 -3.93197 -1.17924 0
M  V30 5735 H 555.408 -2.79273 -1.43755 0
M  V30 5736 H 554.601 -5.00821 -0.565181 0
M  V30 5737 H 554.203 -3.69652 0.568602 0
M  V30 5738 H 556.495 -6.77187 -0.205762 0
M  V30 5739 H 557.438 -6.95936 1.30687 0
M  V30 5740 H 557.846 -5.64252 0.167206 0
M  V30 5741 N 557.244 -0.608902 -1.45362 0
M  V30 5742 C 558.492 -0.104401 -2.0183 0
M  V30 5743 C 558.813 1.27007 -1.47967 0
M  V30 5744 O 558.083 1.83924 -0.674455 0
M  V30 5745 H 556.663 -0.0356042 -0.746151 0
M  V30 5746 H 559.325 -0.790596 -1.78145 0
M  V30 5747 H 558.421 -0.0551793 -3.12051 0
M  V30 5748 N 558.722 1.53707 -0.348139 0
M  V30 5749 C 559.95 2.05406 0.248224 0
M  V30 5750 C 560.365 1.22282 1.43849 0
M  V30 5751 O 559.722 0.259244 1.80649 0
M  V30 5752 C 559.773 3.55446 0.658793 0
M  V30 5753 O 559.494 4.35417 -0.484149 0
M  V30 5754 C 560.995 4.23335 1.31539 0
M  V30 5755 H 558.215 0.669344 0.0471075 0
M  V30 5756 H 560.759 1.98257 -0.501456 0
M  V30 5757 H 558.914 3.62803 1.35841 0
M  V30 5758 H 559.328 5.24268 -0.155949 0
M  V30 5759 H 560.802 5.29692 1.55338 0
M  V30 5760 H 561.279 3.75967 2.27036 0
M  V30 5761 H 561.885 4.20184 0.657683 0
M  V30 5762 N 560.2 0.0768682 1.57412 0
M  V30 5763 C 561.15 -0.898795 2.09537 0
M  V30 5764 C 562.134 -1.25556 1.0062 0
M  V30 5765 O 563.326 -1.23369 1.26921 0
M  V30 5766 C 560.455 -2.16453 2.66464 0
M  V30 5767 C 559.541 -1.83401 3.82393 0
M  V30 5768 N 559.932 -1.20823 4.91157 0
M  V30 5769 C 558.23 -2.13121 3.91785 0
M  V30 5770 C 558.931 -1.05976 5.71965 0
M  V30 5771 N 557.907 -1.57113 5.204 0
M  V30 5772 H 561.709 -0.410718 2.91016 0
M  V30 5773 H 559.223 -0.126878 1.61904 0
M  V30 5774 H 561.22 -2.87274 3.02125 0
M  V30 5775 H 559.88 -2.65844 1.86433 0
M  V30 5776 H 560.891 -0.877249 5.10416 0
M  V30 5777 H 557.568 -2.64854 3.22736 0
M  V30 5778 H 558.958 -0.571809 6.69462 0
M  V30 5779 N 561.678 -1.56367 -0.196722 0
M  V30 5780 C 562.903 -1.84991 -0.937714 0
M  V30 5781 C 563.328 -0.660244 -1.76132 0
M  V30 5782 O 562.686 0.390967 -1.77034 0
M  V30 5783 C 562.734 -3.11828 -1.81096 0
M  V30 5784 O 561.838 -2.92266 -2.90955 0
M  V30 5785 H 561.179 -0.609193 -0.264159 0
M  V30 5786 H 563.709 -2.03595 -0.202529 0
M  V30 5787 H 563.719 -3.42579 -2.21594 0
M  V30 5788 H 562.394 -3.98037 -1.2058 0
M  V30 5789 H 560.971 -2.72809 -2.54224 0
M  V30 5790 N 563.156 0.464375 -1.50603 0
M  V30 5791 C 564.381 1.24372 -1.65971 0
M  V30 5792 C 564.806 1.84901 -0.345453 0
M  V30 5793 O 564.164 1.67596 0.691457 0
M  V30 5794 C 564.212 2.32331 -2.7578 0
M  V30 5795 O 563.316 3.37146 -2.375 0
M  V30 5796 H 562.657 0.365604 -0.554283 0
M  V30 5797 H 565.187 0.55183 -1.97018 0
M  V30 5798 H 565.197 2.77539 -2.99059 0
M  V30 5799 H 563.872 1.87648 -3.71162 0
M  V30 5800 H 562.449 2.97602 -2.24694 0
M  V30 5801 N 564.634 1.40294 0.718013 0
M  V30 5802 C 565.564 1.43118 1.84498 0
M  V30 5803 C 566.545 0.292403 1.67568 0
M  V30 5804 O 567.73 0.500675 1.87635 0
M  V30 5805 C 564.86 1.29065 3.22427 0
M  V30 5806 C 563.814 2.40521 3.54025 0
M  V30 5807 C 563.14 2.11546 4.91073 0
M  V30 5808 C 564.44 3.82859 3.55269 0
M  V30 5809 H 566.134 2.37432 1.82391 0
M  V30 5810 H 563.68 1.14283 0.87609 0
M  V30 5811 H 565.633 1.29658 4.00957 0
M  V30 5812 H 564.357 0.312271 3.25104 0
M  V30 5813 H 563.016 2.39173 2.77834 0
M  V30 5814 H 562.664 1.12104 4.90348 0
M  V30 5815 H 562.364 2.86216 5.1318 0
M  V30 5816 H 563.888 2.13817 5.71939 0
M  V30 5817 H 565.302 3.86044 4.23843 0
M  V30 5818 H 563.699 4.57029 3.88902 0
M  V30 5819 H 564.769 4.12617 2.54706 0
M  V30 5820 N 566.112 -0.949982 1.2575 0
M  V30 5821 C 567.042 -2.06483 1.09028 0
M  V30 5822 C 568.023 -1.701 -0.00201532 0
M  V30 5823 O 569.208 -1.93469 0.168383 0
M  V30 5824 C 566.338 -3.39899 0.71316 0
M  V30 5825 C 565.292 -3.90309 1.75621 0
M  V30 5826 C 564.618 -5.20274 1.23365 0
M  V30 5827 C 565.918 -4.16169 3.15596 0
M  V30 5828 H 567.612 -2.20731 2.02283 0
M  V30 5829 H 565.158 -1.06066 0.973964 0
M  V30 5830 H 567.111 -4.17346 0.58309 0
M  V30 5831 H 565.835 -3.25602 -0.255091 0
M  V30 5832 H 564.494 -3.15035 1.8748 0
M  V30 5833 H 564.142 -5.02351 0.255491 0
M  V30 5834 H 563.842 -5.54971 1.93082 0
M  V30 5835 H 565.366 -6.00314 1.11607 0
M  V30 5836 H 566.78 -4.84259 3.06864 0
M  V30 5837 H 565.177 -4.62131 3.82825 0
M  V30 5838 H 566.247 -3.22273 3.6231 0
M  V30 5839 N 567.59 -1.07411 -1.15328 0
M  V30 5840 C 568.522 -0.652924 -2.19703 0
M  V30 5841 C 569.535 0.294869 -1.60107 0
M  V30 5842 O 570.724 0.0840932 -1.78302 0
M  V30 5843 C 567.824 0.061434 -3.38844 0
M  V30 5844 C 566.997 -0.902696 -4.27984 0
M  V30 5845 C 566.056 -0.225521 -5.25717 0
M  V30 5846 O 565.082 -0.86676 -5.62562 0
M  V30 5847 N 566.284 1.02858 -5.71315 0
M  V30 5848 H 569.049 -1.55081 -2.56457 0
M  V30 5849 H 566.61 -0.958883 -1.30449 0
M  V30 5850 H 568.602 0.525145 -4.01278 0
M  V30 5851 H 567.172 0.861269 -3.00501 0
M  V30 5852 H 566.392 -1.54551 -3.6264 0
M  V30 5853 H 567.68 -1.55636 -4.84412 0
M  V30 5854 H 567.078 1.56948 -5.43492 0
M  V30 5855 H 565.635 1.43596 -6.35786 0
M  V30 5856 O 569.107 1.27418 -0.99231 0
M  V30 5857 H 569.798 1.82762 -0.641704 0
M  V30 END ATOM
M  V30 BEGIN BOND
M  V30 END BOND
M  V30 END CTAB
M  END
$$$$
