drugbank_target|P36542 ATP synthase subunit gamma, mitochondrial (DB04216; DB07384; DB07394; DB08399; DB08629)
 OpenBabel12092120423D

  0  0  0     0  0            999 V3000
M  V30 BEGIN CTAB
M  V30 COUNTS 4701 4733 0 0 0
M  V30 BEGIN ATOM
M  V30 1 H -0.908 1.98254 -0.117106 0
M  V30 2 N 0 1.576 0 0
M  V30 3 C 0.933 2.03868 1.02534 0
M  V30 4 C 1.911 0.928543 1.3348 0
M  V30 5 O 3.095 1.19667 1.45644 0
M  V30 6 C 0.222 2.43627 2.35294 0
M  V30 7 C -0.732 3.65373 2.2001 0
M  V30 8 S 0.101 5.13292 1.52614 0
M  V30 9 C 1.257 5.56322 2.86805 0
M  V30 10 H 1.49 2.90518 0.631377 0
M  V30 11 H -0.977 1.52953 0.210867 0
M  V30 12 H 0.981 2.67203 3.11629 0
M  V30 13 H -0.358 1.57376 2.7183 0
M  V30 14 H -1.165 3.90944 3.18086 0
M  V30 15 H -1.563 3.418 1.51819 0
M  V30 16 H 0.729 5.58782 3.83104 0
M  V30 17 H 1.672 6.56266 2.65933 0
M  V30 18 H 2.08 4.83886 2.90714 0
M  V30 19 N 1.4781 -0.272755 1.55222 0
M  V30 20 C 2.7251 -1.00433 1.7584 0
M  V30 21 C 3.0531 -1.86275 0.559629 0
M  V30 22 O 2.3081 -1.90269 -0.457857 0
M  V30 23 C 2.6071 -1.91642 3.01675 0
M  V30 24 C 2.2731 -1.21548 4.34208 0
M  V30 25 C 0.9351 -1.02166 4.70229 0
M  V30 26 C 3.2871 -0.716684 5.16249 0
M  V30 27 C 0.6151 -0.316334 5.85847 0
M  V30 28 C 2.9671 -0.0249476 6.32595 0
M  V30 29 C 1.6311 0.180579 6.67256 0
M  V30 30 H 0.9011 -0.367509 0.643443 0
M  V30 31 H 3.5481 -0.276596 1.89492 0
M  V30 32 H 1.8531 -2.71037 2.82924 0
M  V30 33 H 3.5501 -2.48369 3.14824 0
M  V30 34 H 0.1401 -1.37645 4.05896 0
M  V30 35 H 4.3241 -0.854047 4.88896 0
M  V30 36 H -0.4199 -0.146378 6.11225 0
M  V30 37 H 3.7541 0.369311 6.9542 0
M  V30 38 H 1.3811 0.729098 7.56696 0
M  V30 39 N 2.9562 -1.48159 -0.537278 0
M  V30 40 C 4.1812 -1.59707 -1.32319 0
M  V30 41 C 4.6062 -0.254859 -1.86365 0
M  V30 42 O 3.9642 0.772378 -1.64024 0
M  V30 43 C 4.0122 -2.6412 -2.45505 0
M  V30 44 O 3.1162 -2.20774 -3.48328 0
M  V30 45 H 2.4572 -0.535791 -0.392204 0
M  V30 46 H 4.9872 -1.94092 -0.647268 0
M  V30 47 H 4.9972 -2.85166 -2.91795 0
M  V30 48 H 3.6722 -3.61567 -2.05528 0
M  V30 49 H 2.2492 -2.09911 -3.08207 0
M  V30 50 N 4.4343 0.785586 -1.36625 0
M  V30 51 C 5.8503 1.08419 -1.17122 0
M  V30 52 C 6.0503 2.015 0.00208491 0
M  V30 53 O 5.1063 2.43551 0.666278 0
M  V30 54 C 6.4193 1.69498 -2.48377 0
M  V30 55 C 7.9673 1.81821 -2.54775 0
M  V30 56 C 8.4423 2.46315 -3.86126 0
M  V30 57 N 9.9333 2.53779 -3.87492 0
M  V30 58 C 10.6683 3.045 -4.85868 0
M  V30 59 N 10.1643 3.55499 -5.94637 0
M  V30 60 N 11.9573 3.03247 -4.73284 0
M  V30 61 H 4.1083 0.167264 -2.1174 0
M  V30 62 H 6.3713 0.13682 -0.938075 0
M  V30 63 H 6.0773 1.08571 -3.34522 0
M  V30 64 H 5.9513 2.6896 -2.64462 0
M  V30 65 H 8.3383 2.41884 -1.69045 0
M  V30 66 H 8.4193 0.811532 -2.42586 0
M  V30 67 H 8.0633 1.86895 -4.72263 0
M  V30 68 H 7.9933 3.47561 -3.95612 0
M  V30 69 H 10.4843 2.17672 -3.08913 0
M  V30 70 H 10.7973 3.92562 -6.65669 0
M  V30 71 H 9.1423 3.5364 -5.98301 0
M  V30 72 H 12.3333 2.62696 -3.87438 0
M  V30 73 H 12.5063 3.42467 -5.50109 0
M  V30 74 N 5.9124 1.20967 1.01018 0
M  V30 75 C 6.8754 0.965918 2.07853 0
M  V30 76 C 7.8754 -0.0610545 1.60684 0
M  V30 77 O 9.0654 0.175681 1.73312 0
M  V30 78 C 6.1974 0.455513 3.37843 0
M  V30 79 H 7.3904 1.91365 2.3091 0
M  V30 80 H 4.9434 1.02594 1.17916 0
M  V30 81 H 5.6784 -0.497381 3.20463 0
M  V30 82 H 5.4634 1.19622 3.73407 0
M  V30 83 H 6.9534 0.304667 4.16487 0
M  V30 84 N 7.3905 -1.2043 1.01659 0
M  V30 85 C 8.6385 -1.89423 0.704522 0
M  V30 86 C 8.9595 -1.79231 -0.768197 0
M  V30 87 O 8.2295 -1.1947 -1.55254 0
M  V30 88 H 6.8095 -0.701178 0.257602 0
M  V30 89 H 9.4715 -1.4626 1.28818 0
M  V30 90 H 8.5675 -2.96052 0.987916 0
M  V30 91 N 8.8686 -0.792821 -1.36206 0
M  V30 92 C 10.1146 -0.36733 -1.99446 0
M  V30 93 C 10.4476 1.05917 -1.62774 0
M  V30 94 O 9.7226 1.7324 -0.88421 0
M  V30 95 C 10.0056 -0.535044 -3.56103 0
M  V30 96 C 9.8586 -2.00548 -4.02617 0
M  V30 97 C 11.1776 0.0478191 -4.40074 0
M  V30 98 H 8.2966 -0.134941 -0.724541 0
M  V30 99 H 10.9386 -0.999794 -1.61568 0
M  V30 100 H 9.0886 0.00336329 -3.885 0
M  V30 101 H 10.7606 -2.60521 -3.80692 0
M  V30 102 H 9.0036 -2.50686 -3.54032 0
M  V30 103 H 9.6746 -2.07377 -5.11565 0
M  V30 104 H 12.1506 -0.411822 -4.14057 0
M  V30 105 H 11.0266 -0.0995336 -5.4881 0
M  V30 106 H 11.2876 1.14025 -4.27142 0
M  V30 107 N 10.3467 1.47872 -0.545128 0
M  V30 108 C 11.3097 2.28337 0.198717 0
M  V30 109 C 12.3097 1.36255 0.853888 0
M  V30 110 O 13.4997 1.59003 0.711606 0
M  V30 111 C 10.6317 3.15585 1.28915 0
M  V30 112 H 11.8247 2.95567 -0.507941 0
M  V30 113 H 9.3777 1.53362 -0.301616 0
M  V30 114 H 10.1127 2.53019 2.02859 0
M  V30 115 H 9.8977 3.83337 0.824309 0
M  V30 116 H 11.3877 3.76243 1.81194 0
M  V30 117 N 11.8248 0.280983 1.55075 0
M  V30 118 C 13.0728 -0.333455 1.9933 0
M  V30 119 C 13.3938 -1.55937 1.17085 0
M  V30 120 O 12.6638 -1.94143 0.261805 0
M  V30 121 H 11.2438 -0.126197 0.736263 0
M  V30 122 H 13.9058 0.387678 1.91005 0
M  V30 123 H 13.0018 -0.619292 3.05894 0
M  V30 124 N 13.3029 -1.57598 0.00835791 0
M  V30 125 C 14.2329 -2.1198 -0.979113 0
M  V30 126 C 15.2139 -1.03091 -1.35301 0
M  V30 127 O 16.3989 -1.30818 -1.43528 0
M  V30 128 C 13.5289 -2.62995 -2.26828 0
M  V30 129 C 12.4829 -3.76485 -2.03576 0
M  V30 130 C 11.8089 -4.13846 -3.38579 0
M  V30 131 C 13.1089 -5.0342 -1.39161 0
M  V30 132 H 14.8029 -2.94738 -0.526281 0
M  V30 133 H 12.3489 -1.41783 -0.251704 0
M  V30 134 H 14.3019 -2.99669 -2.96271 0
M  V30 135 H 13.0259 -1.7737 -2.7424 0
M  V30 136 H 11.6849 -3.40217 -1.36557 0
M  V30 137 H 11.3329 -3.25232 -3.83709 0
M  V30 138 H 11.0329 -4.90312 -3.23834 0
M  V30 139 H 12.5569 -4.53086 -4.09323 0
M  V30 140 H 13.9709 -5.37812 -1.98573 0
M  V30 141 H 12.3679 -5.84746 -1.34878 0
M  V30 142 H 13.4379 -4.83548 -0.361868 0
M  V30 143 N 14.781 0.264519 -1.55364 0
M  V30 144 C 16.006 1.01726 -1.80739 0
M  V30 145 C 16.431 1.78836 -0.583044 0
M  V30 146 O 15.789 1.75167 0.467566 0
M  V30 147 C 15.837 1.94482 -3.03659 0
M  V30 148 O 14.941 3.03386 -2.7934 0
M  V30 149 H 14.282 0.290395 -0.597132 0
M  V30 150 H 16.812 0.290854 -2.02522 0
M  V30 151 H 16.822 2.36278 -3.32621 0
M  V30 152 H 15.497 1.37772 -3.92418 0
M  V30 153 H 14.074 2.65844 -2.61498 0
M  V30 154 N 16.2591 1.48442 0.529413 0
M  V30 155 C 17.2221 1.62524 1.61612 0
M  V30 156 C 18.2221 0.498509 1.52877 0
M  V30 157 O 19.4121 0.76431 1.56537 0
M  V30 158 C 16.5441 1.59597 3.01233 0
M  V30 159 H 17.7371 2.59423 1.50465 0
M  V30 160 H 15.2901 1.37047 0.751514 0
M  V30 161 H 16.0251 0.641781 3.17886 0
M  V30 162 H 15.8101 2.41397 3.08982 0
M  V30 163 H 17.3001 1.72646 3.80241 0
M  V30 164 N 17.7372 -0.778329 1.37039 0
M  V30 165 C 18.9832 -1.53817 1.33086 0
M  V30 166 C 19.3382 -1.92208 -0.0860346 0
M  V30 167 O 18.6312 -1.60713 -1.04316 0
M  V30 168 C 18.8252 -2.81845 2.19768 0
M  V30 169 C 18.6542 -2.55967 3.69744 0
M  V30 170 C 17.4242 -2.50428 4.38878 0
M  V30 171 C 19.6222 -2.2441 4.62758 0
M  V30 172 N 17.6042 -2.16564 5.74433 0
M  V30 173 C 18.9752 -2.0063 5.86641 0
M  V30 174 C 21.0302 -2.1051 4.5121 0
M  V30 175 C 19.7332 -1.64354 7.00272 0
M  V30 176 C 21.7592 -1.75634 5.64718 0
M  V30 177 C 21.1212 -1.52709 6.87648 0
M  V30 178 H 17.2202 -0.563434 0.542279 0
M  V30 179 H 19.8042 -0.908617 1.72198 0
M  V30 180 H 17.9752 -3.42649 1.82883 0
M  V30 181 H 19.7072 -3.47682 2.07122 0
M  V30 182 H 16.4622 -2.66056 3.91805 0
M  V30 183 H 16.8862 -2.02348 6.46053 0
M  V30 184 H 21.5282 -2.26919 3.56746 0
M  V30 185 H 19.2462 -1.46683 7.94676 0
M  V30 186 H 22.8322 -1.65546 5.57751 0
M  V30 187 H 21.7122 -1.2612 7.73992 0
M  V30 188 N 19.2153 -1.21501 -1.00376 0
M  V30 189 C 20.4433 -1.059 -1.77744 0
M  V30 190 C 20.8583 0.391125 -1.84704 0
M  V30 191 O 20.2153 1.27133 -1.30933 0
M  V30 192 C 20.2663 -1.65111 -3.21591 0
M  V30 193 O 19.9873 -3.0445 -3.15027 0
M  V30 194 C 21.4883 -1.54637 -4.15454 0
M  V30 195 H 18.7083 -0.371825 -0.558558 0
M  V30 196 H 21.2523 -1.60865 -1.26264 0
M  V30 197 H 19.4073 -1.14235 -3.70175 0
M  V30 198 H 19.8213 -3.3278 -4.0541 0
M  V30 199 H 21.2953 -2.00808 -5.14179 0
M  V30 200 H 21.7723 -0.501022 -4.36333 0
M  V30 201 H 22.3783 -2.04767 -3.72761 0
M  V30 202 N 20.6934 1.19889 -1.02296 0
M  V30 203 C 21.6234 2.25141 -0.619174 0
M  V30 204 C 22.6044 1.66051 0.368915 0
M  V30 205 O 23.7894 1.92546 0.252941 0
M  V30 206 C 20.9194 3.4728 0.0368783 0
M  V30 207 C 19.8734 4.19005 -0.872865 0
M  V30 208 C 19.1994 5.34637 -0.0822402 0
M  V30 209 C 20.4994 4.74452 -2.18387 0
M  V30 210 H 22.1934 2.59171 -1.49903 0
M  V30 211 H 19.7394 1.24579 -0.722222 0
M  V30 212 H 21.6924 4.20098 0.330958 0
M  V30 213 H 20.4164 3.12433 0.95149 0
M  V30 214 H 19.0754 3.48061 -1.15105 0
M  V30 215 H 18.7234 4.96034 0.83422 0
M  V30 216 H 18.4234 5.83557 -0.688149 0
M  V30 217 H 19.9474 6.10255 0.205238 0
M  V30 218 H 21.3614 5.39055 -1.95172 0
M  V30 219 H 19.7584 5.33834 -2.74119 0
M  V30 220 H 20.8284 3.92844 -2.84257 0
M  V30 221 N 22.1715 0.800033 1.35784 0
M  V30 222 C 23.1035 0.163596 2.28615 0
M  V30 223 C 24.1165 -0.633317 1.49976 0
M  V30 224 O 25.3055 -0.466754 1.72289 0
M  V30 225 C 22.4055 -0.790958 3.29541 0
M  V30 226 C 21.5785 -0.0418255 4.3738 0
M  V30 227 C 20.6375 -0.91389 5.18203 0
M  V30 228 O 19.6635 -0.367234 5.68014 0
M  V30 229 N 20.8655 -2.23682 5.35674 0
M  V30 230 H 23.6305 0.96105 2.83873 0
M  V30 231 H 21.1915 0.654894 1.48063 0
M  V30 232 H 23.1835 -1.37844 3.80501 0
M  V30 233 H 21.7535 -1.48925 2.74846 0
M  V30 234 H 20.9735 0.726813 3.87442 0
M  V30 235 H 22.2615 0.474719 5.06581 0
M  V30 236 H 21.6595 -2.70497 4.96838 0
M  V30 237 H 20.2165 -2.77369 5.89839 0
M  V30 238 N 23.6496 -1.47581 0.552962 0
M  V30 239 C 25.0606 -1.86324 0.118463 0
M  V30 240 C 25.4116 -1.46006 -1.3106 0
M  V30 241 O 24.5366 -0.861182 -1.98526 0
M  V30 242 C 25.1316 -3.3816 0.20821 0
M  V30 243 C 23.6906 -3.7601 -0.171226 0
M  V30 244 C 22.8376 -2.71634 0.557686 0
M  V30 245 H 25.7886 -1.39159 0.762928 0
M  V30 246 H 25.8096 -3.76141 -0.574278 0
M  V30 247 H 25.3216 -3.67473 1.24841 0
M  V30 248 H 23.4226 -3.52313 -1.21269 0
M  V30 249 H 23.5356 -4.78745 0.184379 0
M  V30 250 H 21.8996 -2.547 0.00125792 0
M  V30 251 H 22.6826 -3.0379 1.59896 0
M  V30 252 N 25.1277 -0.289203 -1.54924 0
M  V30 253 C 26.0597 0.625583 -2.20497 0
M  V30 254 C 27.0727 1.10667 -1.19402 0
M  V30 255 O 28.2617 1.02615 -1.46056 0
M  V30 256 C 25.3617 1.86702 -2.82835 0
M  V30 257 C 24.5347 1.5304 -4.09753 0
M  V30 258 C 23.5937 2.62576 -4.56005 0
M  V30 259 O 22.6197 2.28167 -5.21468 0
M  V30 260 N 23.8217 3.92901 -4.27328 0
M  V30 261 H 26.5867 0.0642801 -2.99631 0
M  V30 262 H 24.1477 -0.110896 -1.6152 0
M  V30 263 H 26.1397 2.59304 -3.10715 0
M  V30 264 H 24.7097 2.33702 -2.07611 0
M  V30 265 H 23.9297 0.637564 -3.8901 0
M  V30 266 H 25.2177 1.28072 -4.92418 0
M  V30 267 H 24.6157 4.23671 -3.74859 0
M  V30 268 H 23.1727 4.61837 -4.59946 0
M  V30 269 N 26.6058 1.57591 -0.0167156 0
M  V30 270 C 27.8518 1.92399 0.659861 0
M  V30 271 C 28.2068 0.892561 1.70444 0
M  V30 272 O 27.4998 -0.0930755 1.91374 0
M  V30 273 C 27.6938 3.3172 1.33029 0
M  V30 274 C 27.5228 4.48319 0.352174 0
M  V30 275 C 26.2928 5.05281 -0.0434883 0
M  V30 276 C 28.4908 5.12831 -0.388474 0
M  V30 277 N 26.4728 6.05399 -1.01807 0
M  V30 278 C 27.8438 6.07934 -1.2172 0
M  V30 279 C 29.8988 4.95858 -0.450513 0
M  V30 280 C 28.6018 6.87891 -2.10235 0
M  V30 281 C 30.6278 5.76413 -1.32295 0
M  V30 282 C 29.9898 6.71123 -2.13948 0
M  V30 283 H 26.0888 0.752106 0.21415 0
M  V30 284 H 28.6728 1.94532 -0.0809846 0
M  V30 285 H 26.8438 3.3043 2.04134 0
M  V30 286 H 28.5758 3.5391 1.9629 0
M  V30 287 H 25.3308 4.7246 0.328384 0
M  V30 288 H 25.7548 6.60145 -1.50123 0
M  V30 289 H 30.3968 4.22472 0.166512 0
M  V30 290 H 28.1148 7.60591 -2.72997 0
M  V30 291 H 31.7008 5.65317 -1.37508 0
M  V30 292 H 30.5808 7.3237 -2.80364 0
M  V30 293 N 28.0839 -0.256276 1.55502 0
M  V30 294 C 29.3329 -0.983486 1.76098 0
M  V30 295 C 29.6459 -1.86837 0.578896 0
M  V30 296 O 30.8519 -2.63163 0.667648 0
M  V30 297 C 29.3079 -1.79868 3.1173 0
M  V30 298 C 28.9159 -0.961648 4.37557 0
M  V30 299 C 30.6599 -2.51919 3.41668 0
M  V30 300 C 28.5669 -1.77219 5.64223 0
M  V30 301 H 27.4969 -0.370936 0.656447 0
M  V30 302 H 30.1479 -0.238492 1.81944 0
M  V30 303 H 28.5299 -2.58527 2.99966 0
M  V30 304 H 29.7039 -0.218048 4.60284 0
M  V30 305 H 28.0189 -0.354913 4.14885 0
M  V30 306 H 30.6159 -3.12998 4.33516 0
M  V30 307 H 30.9589 -3.23059 2.62562 0
M  V30 308 H 31.4919 -1.80278 3.54605 0
M  V30 309 H 28.2309 -1.10471 6.46124 0
M  V30 310 H 27.7509 -2.49132 5.45613 0
M  V30 311 H 29.4299 -2.34169 6.03137 0
M  V30 312 N 29.562 -1.4872 -0.521534 0
M  V30 313 C 30.494 -1.59968 -1.64143 0
M  V30 314 C 31.507 -0.483463 -1.55456 0
M  V30 315 O 32.696 -0.75467 -1.61762 0
M  V30 316 C 29.796 -1.52127 -3.02838 0
M  V30 317 C 28.969 -2.78932 -3.36921 0
M  V30 318 C 28.028 -2.64428 -4.54933 0
M  V30 319 O 27.054 -3.38331 -4.57735 0
M  V30 320 N 28.256 -1.74606 -5.53618 0
M  V30 321 H 31.021 -2.56548 -1.54929 0
M  V30 322 H 28.582 -1.45551 -0.708988 0
M  V30 323 H 30.574 -1.40106 -3.79674 0
M  V30 324 H 29.144 -0.634868 -3.06085 0
M  V30 325 H 28.364 -3.05455 -2.4918 0
M  V30 326 H 29.652 -3.63041 -3.56481 0
M  V30 327 H 29.05 -1.13782 -5.54139 0
M  V30 328 H 27.607 -1.6852 -6.29638 0
M  V30 329 N 31.0401 0.771051 -1.3745 0
M  V30 330 C 32.2861 1.5319 -1.32894 0
M  V30 331 C 32.6191 1.94008 0.0862511 0
M  V30 332 O 31.8941 1.64124 1.04373 0
M  V30 333 C 32.1771 2.79648 -2.26868 0
M  V30 334 C 32.0301 2.45079 -3.77169 0
M  V30 335 C 33.3491 3.81583 -2.19277 0
M  V30 336 H 30.4681 0.555744 -0.484064 0
M  V30 337 H 33.1101 0.884492 -1.68157 0
M  V30 338 H 31.2601 3.34891 -1.96926 0
M  V30 339 H 32.9321 1.95745 -4.1771 0
M  V30 340 H 31.1751 1.77767 -3.95704 0
M  V30 341 H 31.8461 3.35478 -4.38359 0
M  V30 342 H 34.3221 3.35835 -2.45671 0
M  V30 343 H 33.1981 4.67787 -2.87171 0
M  V30 344 H 33.4591 4.25897 -1.18592 0
M  V30 345 N 32.5182 1.22032 0.997298 0
M  V30 346 C 33.9342 0.979326 1.26021 0
M  V30 347 C 34.1342 -0.32972 1.98784 0
M  V30 348 O 33.1902 -1.05345 2.29475 0
M  V30 349 C 34.5032 2.17509 2.07631 0
M  V30 350 C 36.0512 2.21817 2.2083 0
M  V30 351 C 36.5262 3.40933 3.05825 0
M  V30 352 N 38.0172 3.41067 3.13412 0
M  V30 353 C 38.7522 4.29885 3.79455 0
M  V30 354 N 38.2482 5.28914 4.47462 0
M  V30 355 N 40.0412 4.17673 3.76173 0
M  V30 356 H 32.1922 2.06202 0.509352 0
M  V30 357 H 34.4552 0.90334 0.287541 0
M  V30 358 H 34.1612 3.12415 1.61524 0
M  V30 359 H 34.0352 2.17206 3.08385 0
M  V30 360 H 36.4222 1.27462 2.66153 0
M  V30 361 H 36.5032 2.2616 1.1952 0
M  V30 362 H 36.1472 4.35586 2.61203 0
M  V30 363 H 36.0772 3.33829 4.07266 0
M  V30 364 H 38.5682 2.69406 2.65007 0
M  V30 365 H 38.8812 5.92973 4.95583 0
M  V30 366 H 37.2262 5.32831 4.46224 0
M  V30 367 H 40.4172 3.39564 3.22202 0
M  V30 368 H 40.5902 4.87098 4.27363 0
M  V30 369 N 33.9963 -1.19345 1.0293 0
M  V30 370 C 34.9443 -2.24621 0.604001 0
M  V30 371 C 35.9383 -1.65452 -0.363587 0
M  V30 372 O 37.1443 -1.78497 -0.23212 0
M  V30 373 H 33.5193 -0.730858 0.177061 0
M  V30 374 H 35.4903 -2.5781 1.50255 0
M  V30 375 C 34.2393 -3.47688 -0.0289127 0
M  V30 376 H 33.5623 -3.93505 0.706651 0
M  V30 377 H 35.0023 -4.23011 -0.289432 0
M  V30 378 C 33.4613 -3.11817 -1.2756 0
M  V30 379 O 33.9913 -3.2451 -2.36762 0
M  V30 380 N 32.1973 -2.66246 -1.16453 0
M  V30 381 H 31.7443 -2.56118 -0.275914 0
M  V30 382 H 31.7023 -2.42617 -1.99961 0
M  V30 383 N 35.4744 -0.807222 -1.35358 0
M  V30 384 C 36.4074 -0.163572 -2.27613 0
M  V30 385 C 37.3854 0.670817 -1.48118 0
M  V30 386 O 38.5694 0.63796 -1.77376 0
M  V30 387 C 35.6964 0.773015 -3.29761 0
M  V30 388 C 34.7424 0.0181653 -4.26496 0
M  V30 389 S 35.5754 -1.31831 -5.19019 0
M  V30 390 C 36.7314 -0.38619 -6.24707 0
M  V30 391 H 36.9644 -0.945757 -2.81856 0
M  V30 392 H 34.4974 -0.602315 -1.42167 0
M  V30 393 H 36.4554 1.30788 -3.89108 0
M  V30 394 H 35.1164 1.52859 -2.74396 0
M  V30 395 H 34.3094 0.729534 -4.98692 0
M  V30 396 H 33.9114 -0.446761 -3.71322 0
M  V30 397 H 36.2034 0.428295 -6.76145 0
M  V30 398 H 37.1464 -1.07736 -6.99856 0
M  V30 399 H 37.5544 0.018398 -5.64497 0
M  V30 400 N 36.9525 1.47285 -0.560781 0
M  V30 401 C 37.9155 2.28535 0.174488 0
M  V30 402 C 38.9155 1.37153 0.839388 0
M  V30 403 O 40.1055 1.59748 0.694702 0
M  V30 404 C 37.2375 3.16934 1.25561 0
M  V30 405 H 38.4305 2.95012 -0.539262 0
M  V30 406 H 35.9835 1.53034 -0.317865 0
M  V30 407 H 36.7185 2.55157 2.00164 0
M  V30 408 H 36.5035 3.8419 0.783604 0
M  V30 409 H 37.9935 3.78143 1.77193 0
M  V30 410 N 38.4306 0.297415 1.54768 0
M  V30 411 C 39.6586 -0.315623 2.04478 0
M  V30 412 C 40.0736 -1.47792 1.17486 0
M  V30 413 O 39.4306 -1.81404 0.19971 0
M  V30 414 C 39.4816 -0.7753 3.53088 0
M  V30 415 O 39.2026 0.340732 4.36773 0
M  V30 416 C 40.7036 -1.45386 4.18781 0
M  V30 417 H 37.9236 -0.0690887 0.667434 0
M  V30 418 H 40.4676 0.436003 1.99798 0
M  V30 419 H 38.6226 -1.47696 3.58141 0
M  V30 420 H 39.0366 -0.0165035 5.24497 0
M  V30 421 H 40.5106 -1.72669 5.24299 0
M  V30 422 H 40.9876 -2.39275 3.68299 0
M  V30 423 H 41.5936 -0.795475 4.17795 0
M  V30 424 N 39.9087 -1.5758 0.0250728 0
M  V30 425 C 40.8387 -2.13007 -0.956575 0
M  V30 426 C 41.8197 -1.0452 -1.342 0
M  V30 427 O 43.0047 -1.32332 -1.42133 0
M  V30 428 C 40.1347 -2.65386 -2.24026 0
M  V30 429 C 39.0887 -3.78623 -1.99571 0
M  V30 430 C 38.4147 -4.17414 -3.3417 0
M  V30 431 C 39.7147 -5.04867 -1.33814 0
M  V30 432 H 41.4087 -2.9528 -0.494991 0
M  V30 433 H 38.9547 -1.42042 -0.236651 0
M  V30 434 H 40.9077 -3.02794 -2.93076 0
M  V30 435 H 39.6317 -1.80268 -2.72343 0
M  V30 436 H 38.2907 -3.41646 -1.32941 0
M  V30 437 H 37.9387 -3.29284 -3.80238 0
M  V30 438 H 37.6387 -4.93719 -3.18615 0
M  V30 439 H 39.1627 -4.57402 -4.04495 0
M  V30 440 H 40.5767 -5.39888 -1.92857 0
M  V30 441 H 38.9737 -5.86144 -1.28669 0
M  V30 442 H 40.0437 -4.83904 -0.310561 0
M  V30 443 N 41.3868 0.248026 -1.55636 0
M  V30 444 C 42.3338 1.30707 -1.90222 0
M  V30 445 C 43.3038 1.47881 -0.756332 0
M  V30 446 O 44.4888 1.61883 -1.00988 0
M  V30 447 C 41.6288 2.65769 -2.20138 0
M  V30 448 C 40.7418 2.56612 -3.47526 0
M  V30 449 C 39.8768 3.8402 -3.67017 0
M  V30 450 C 38.9158 3.69476 -4.8801 0
M  V30 451 N 38.0528 4.88774 -5.04029 0
M  V30 452 H 42.8928 1.00512 -2.80538 0
M  V30 453 H 40.4298 0.485055 -1.38873 0
M  V30 454 H 42.3878 3.44386 -2.35487 0
M  V30 455 H 41.0178 2.94115 -1.33027 0
M  V30 456 H 40.0698 1.69571 -3.40514 0
M  V30 457 H 41.3818 2.41774 -4.36287 0
M  V30 458 H 40.5358 4.7108 -3.8232 0
M  V30 459 H 39.2748 4.01754 -2.76487 0
M  V30 460 H 38.2798 2.80799 -4.72686 0
M  V30 461 H 39.5048 3.53238 -5.8 0
M  V30 462 H 37.4508 5.0687 -4.16435 0
M  V30 463 H 37.3678 4.76562 -5.86877 0
M  V30 464 H 38.6358 5.77335 -5.23741 0
M  V30 465 N 42.8649 1.48995 0.513639 0
M  V30 466 C 44.1419 1.48338 1.27495 0
M  V30 467 C 44.5219 0.204065 2.10111 0
M  V30 468 O 43.8699 -0.813881 2.13514 0
M  V30 469 C 44.0799 2.75498 2.14247 0
M  V30 470 C 45.4279 3.24484 2.73852 0
M  V30 471 O 46.4519 2.76528 2.24523 0
M  V30 472 O 45.3109 4.07974 3.6362 0
M  V30 473 H 42.4049 0.593149 0.576284 0
M  V30 474 H 44.9509 1.61246 0.528948 0
M  V30 475 H 43.7229 3.60109 1.53092 0
M  V30 476 H 43.3459 2.6539 2.96064 0
M  V30 477 N 44.343 -0.763751 1.37857 0
M  V30 478 C 45.592 -1.51789 1.32827 0
M  V30 479 C 45.905 -1.95426 -0.0823719 0
M  V30 480 O 47.111 -2.70298 -0.255172 0
M  V30 481 C 45.567 -2.74133 2.33193 0
M  V30 482 C 45.175 -2.37562 3.79827 0
M  V30 483 C 46.919 -3.52054 2.37188 0
M  V30 484 C 44.826 -3.56456 4.71904 0
M  V30 485 H 43.756 -0.569896 0.493695 0
M  V30 486 H 46.407 -0.835822 1.63359 0
M  V30 487 H 44.789 -3.4427 1.9569 0
M  V30 488 H 45.963 -1.75157 4.26212 0
M  V30 489 H 44.278 -1.72798 3.78853 0
M  V30 490 H 46.875 -4.40437 3.03182 0
M  V30 491 H 47.218 -3.92486 1.38782 0
M  V30 492 H 47.751 -2.88921 2.7344 0
M  V30 493 H 44.49 -3.21099 5.71468 0
M  V30 494 H 44.01 -4.17938 4.30218 0
M  V30 495 H 45.689 -4.23168 4.89426 0
M  V30 496 N 45.8211 -1.22559 -0.990812 0
M  V30 497 C 47.0491 -1.07779 -1.76611 0
M  V30 498 C 47.4641 0.371513 -1.85109 0
M  V30 499 O 46.8211 1.25737 -1.32274 0
M  V30 500 C 46.8721 -1.68512 -3.19822 0
M  V30 501 O 46.5931 -3.07774 -3.1178 0
M  V30 502 C 48.0941 -1.59035 -4.13791 0
M  V30 503 H 45.3141 -0.377729 -0.554583 0
M  V30 504 H 47.8581 -1.62195 -1.24551 0
M  V30 505 H 46.0131 -1.18154 -3.68942 0
M  V30 506 H 46.4271 -3.37062 -4.01858 0
M  V30 507 H 47.9011 -2.0625 -5.1202 0
M  V30 508 H 48.3781 -0.547273 -4.35777 0
M  V30 509 H 48.9841 -2.08709 -3.70568 0
M  V30 510 N 47.2992 1.18797 -1.03562 0
M  V30 511 C 48.7152 1.40671 -0.753917 0
M  V30 512 C 48.9152 1.9043 0.658686 0
M  V30 513 O 47.9712 2.08538 1.42366 0
M  V30 514 C 49.2842 2.41192 -1.79574 0
M  V30 515 C 50.8322 2.54928 -1.81606 0
M  V30 516 C 51.3072 3.58709 -2.84766 0
M  V30 517 N 52.7982 3.66212 -2.83625 0
M  V30 518 C 53.5332 4.46225 -3.60098 0
M  V30 519 N 53.0292 5.29888 -4.46308 0
M  V30 520 N 54.8222 4.40939 -3.4861 0
M  V30 521 H 46.9732 0.848221 -1.94728 0
M  V30 522 H 49.2362 0.435081 -0.842264 0
M  V30 523 H 48.9422 2.11669 -2.80872 0
M  V30 524 H 48.8162 3.40467 -1.62365 0
M  V30 525 H 51.2032 2.83771 -0.809817 0
M  V30 526 H 51.2842 1.55784 -2.02891 0
M  V30 527 H 50.9282 3.30607 -3.85566 0
M  V30 528 H 50.8582 4.57519 -2.60737 0
M  V30 529 H 53.3492 3.06466 -2.21105 0
M  V30 530 H 53.6622 5.88078 -5.01382 0
M  V30 531 H 52.0072 5.29326 -4.50377 0
M  V30 532 H 55.1982 3.74624 -2.80668 0
M  V30 533 H 55.3712 5.03056 -4.08459 0
M  V30 534 N 48.7773 0.814389 1.34928 0
M  V30 535 C 50.1933 0.499084 1.51596 0
M  V30 536 C 50.3933 -0.978319 1.76157 0
M  V30 537 O 49.4493 -1.76309 1.80752 0
M  V30 538 C 50.7623 1.35121 2.68631 0
M  V30 539 C 52.3103 1.34746 2.82511 0
M  V30 540 C 52.7853 2.18388 4.0258 0
M  V30 541 N 54.2763 2.15966 4.09772 0
M  V30 542 C 55.0113 2.77437 5.01813 0
M  V30 543 N 54.5073 3.47866 5.99134 0
M  V30 544 N 56.3003 2.67037 4.94619 0
M  V30 545 H 48.4513 1.7711 1.17243 0
M  V30 546 H 50.7143 0.754256 0.574284 0
M  V30 547 H 50.4203 2.40001 2.57085 0
M  V30 548 H 50.2943 1.00991 3.63429 0
M  V30 549 H 52.6813 0.30648 2.93504 0
M  V30 550 H 52.7623 1.72869 1.88547 0
M  V30 551 H 52.4063 3.2253 3.92347 0
M  V30 552 H 52.3363 1.77621 4.9574 0
M  V30 553 H 54.8273 1.64729 3.40107 0
M  V30 554 H 55.1403 3.92038 6.65977 0
M  V30 555 H 53.4853 3.51972 5.99284 0
M  V30 556 H 56.6763 2.11597 4.17546 0
M  V30 557 H 56.8493 3.15232 5.66156 0
M  V30 558 N 50.2554 -1.46986 0.568584 0
M  V30 559 C 51.1854 -2.32946 -0.160753 0
M  V30 560 C 52.1664 -1.44487 -0.897631 0
M  V30 561 O 53.3514 -1.73327 -0.875867 0
M  V30 562 C 50.4814 -3.26494 -1.18403 0
M  V30 563 C 49.4354 -4.24282 -0.562895 0
M  V30 564 C 48.7614 -5.07236 -1.69163 0
M  V30 565 C 50.0614 -5.19989 0.490761 0
M  V30 566 H 51.7554 -2.94175 0.556916 0
M  V30 567 H 49.3014 -1.4146 0.26927 0
M  V30 568 H 51.2544 -3.85477 -1.70251 0
M  V30 569 H 49.9784 -2.63343 -1.93179 0
M  V30 570 H 48.6374 -3.66541 -0.0656164 0
M  V30 571 H 48.2854 -4.4048 -2.42871 0
M  V30 572 H 47.9854 -5.7345 -1.28174 0
M  V30 573 H 49.5094 -5.6908 -2.21314 0
M  V30 574 H 50.9234 -5.73271 0.0579047 0
M  V30 575 H 49.3204 -5.94469 0.820165 0
M  V30 576 H 50.3904 -4.64777 1.3824 0
M  V30 577 N 51.7335 -0.305618 -1.54608 0
M  V30 578 C 52.6805 0.568421 -2.23691 0
M  V30 579 C 53.6505 1.12592 -1.22116 0
M  V30 580 O 54.8355 1.16959 -1.50749 0
M  V30 581 C 51.9755 1.7322 -2.98477 0
M  V30 582 C 51.0885 1.20566 -4.14835 0
M  V30 583 C 50.2235 2.33368 -4.77193 0
M  V30 584 C 49.2625 1.7787 -5.85686 0
M  V30 585 N 48.3995 2.84263 -6.4198 0
M  V30 586 H 53.2395 -0.0272867 -2.97988 0
M  V30 587 H 50.7765 -0.0252363 -1.47078 0
M  V30 588 H 52.7345 2.41675 -3.40072 0
M  V30 589 H 51.3645 2.29947 -2.26548 0
M  V30 590 H 50.4165 0.413223 -3.78149 0
M  V30 591 H 51.7285 0.759417 -4.92985 0
M  V30 592 H 50.8825 3.09761 -5.21664 0
M  V30 593 H 49.6215 2.8132 -3.98385 0
M  V30 594 H 48.6265 0.99968 -5.40635 0
M  V30 595 H 49.8515 1.30816 -6.66381 0
M  V30 596 H 47.7975 3.31541 -5.66053 0
M  V30 597 H 47.7145 2.44149 -7.15491 0
M  V30 598 H 48.9825 3.6054 -6.91109 0
M  V30 599 N 53.2116 1.57565 -0.0334293 0
M  V30 600 C 54.4366 1.96689 0.657895 0
M  V30 601 C 54.8616 0.910057 1.64619 0
M  V30 602 O 54.2196 -0.128598 1.80843 0
M  V30 603 C 54.2676 3.34905 1.33683 0
M  V30 604 O 53.3716 3.31574 2.45219 0
M  V30 605 H 52.7126 0.641205 0.172489 0
M  V30 606 H 55.2426 2.04372 -0.0965621 0
M  V30 607 H 55.2526 3.71234 1.69262 0
M  V30 608 H 53.9276 4.11366 0.612411 0
M  V30 609 H 52.5046 3.06968 2.11719 0
M  V30 610 N 54.6897 -0.239769 1.55765 0
M  V30 611 C 55.9387 -0.964754 1.77131 0
M  V30 612 C 56.2517 -1.86213 0.59868 0
M  V30 613 O 57.4577 -2.6244 0.695522 0
M  V30 614 C 55.9137 -1.76552 3.1362 0
M  V30 615 C 55.5217 -0.915185 4.38553 0
M  V30 616 C 57.2657 -2.48281 3.44321 0
M  V30 617 C 55.1727 -1.71225 5.66071 0
M  V30 618 H 54.1027 -0.363953 0.660344 0
M  V30 619 H 56.7537 -0.219181 1.82186 0
M  V30 620 H 55.1357 -2.55331 3.02691 0
M  V30 621 H 56.3097 -0.169217 4.60489 0
M  V30 622 H 54.6247 -0.310889 4.15238 0
M  V30 623 H 57.2217 -3.08382 4.36812 0
M  V30 624 H 57.5647 -3.20256 2.65973 0
M  V30 625 H 58.0977 -1.76507 3.56497 0
M  V30 626 H 54.8367 -1.03612 6.4726 0
M  V30 627 H 54.3567 -2.43331 5.48224 0
M  V30 628 H 56.0357 -2.27758 6.05587 0
M  V30 629 N 56.1678 -1.49265 -0.50573 0
M  V30 630 C 57.1148 -1.65585 -1.6078 0
M  V30 631 C 58.0848 -0.497396 -1.58478 0
M  V30 632 O 59.2698 -0.72385 -1.76536 0
M  V30 633 C 56.4098 -1.72408 -2.98948 0
M  V30 634 C 55.5228 -2.99525 -3.11301 0
M  V30 635 C 54.6578 -2.97356 -4.40174 0
M  V30 636 C 53.6968 -4.19074 -4.46143 0
M  V30 637 N 52.8338 -4.14841 -5.66437 0
M  V30 638 H 57.6738 -2.59688 -1.46172 0
M  V30 639 H 55.2108 -1.28761 -0.711261 0
M  V30 640 H 57.1688 -1.74344 -3.79025 0
M  V30 641 H 55.7988 -0.817753 -3.1227 0
M  V30 642 H 54.8508 -3.07222 -2.24318 0
M  V30 643 H 56.1628 -3.89518 -3.11572 0
M  V30 644 H 55.3168 -2.97829 -5.28567 0
M  V30 645 H 54.0558 -2.05133 -4.42461 0
M  V30 646 H 53.0608 -4.1885 -3.56153 0
M  V30 647 H 54.2858 -5.12483 -4.45575 0
M  V30 648 H 52.2318 -3.25453 -5.69575 0
M  V30 649 H 52.1488 -4.98564 -5.68304 0
M  V30 650 H 53.4168 -4.1941 -6.57051 0
M  V30 651 N 57.6459 0.756429 -1.3826 0
M  V30 652 C 58.5939 1.89149 -1.35372 0
M  V30 653 C 59.5879 1.67691 -0.24004 0
M  V30 654 O 60.7939 1.75294 -0.408919 0
M  V30 655 H 57.1689 0.622271 -0.422236 0
M  V30 656 H 59.1399 1.88701 -2.31159 0
M  V30 657 C 57.8889 3.26599 -1.19284 0
M  V30 658 H 57.2119 3.43695 -2.0424 0
M  V30 659 H 58.6519 4.06274 -1.21316 0
M  V30 660 C 57.1109 3.3675 0.100454 0
M  V30 661 O 57.6409 3.86951 1.07851 0
M  V30 662 N 55.8469 2.90179 0.15633 0
M  V30 663 H 55.3939 2.49517 -0.640253 0
M  V30 664 H 55.3519 2.97352 1.02123 0
M  V30 665 N 59.124 1.23083 0.984299 0
M  V30 666 C 60.373 1.05466 1.71929 0
M  V30 667 C 60.686 -0.409211 1.91272 0
M  V30 668 O 61.892 -0.705226 2.62181 0
M  V30 669 C 60.348 1.83874 3.09384 0
M  V30 670 C 59.956 3.34566 2.97943 0
M  V30 671 C 61.7 1.74734 3.8687 0
M  V30 672 C 59.607 4.05381 4.30605 0
M  V30 673 H 58.537 0.391039 0.644674 0
M  V30 674 H 61.188 1.47013 1.09815 0
M  V30 675 H 59.57 1.35131 3.72231 0
M  V30 676 H 60.744 3.90767 2.44209 0
M  V30 677 H 59.059 3.44476 2.33934 0
M  V30 678 H 61.656 2.24957 4.85076 0
M  V30 679 H 61.999 0.709372 4.10212 0
M  V30 680 H 62.532 2.21067 3.30717 0
M  V30 681 H 59.271 5.09467 4.1246 0
M  V30 682 H 58.791 3.53967 4.84218 0
M  V30 683 H 60.47 4.11458 4.99311 0
M  V30 684 N 60.6021 -1.18246 1.0419 0
M  V30 685 C 61.5341 -2.2142 0.592088 0
M  V30 686 C 62.5471 -1.59233 -0.338909 0
M  V30 687 O 63.7361 -1.78002 -0.133231 0
M  V30 688 C 60.8361 -3.38546 -0.154854 0
M  V30 689 C 60.0091 -4.3031 0.784328 0
M  V30 690 C 59.0681 -5.26138 0.0804583 0
M  V30 691 O 58.0941 -5.64738 0.711292 0
M  V30 692 N 59.2961 -5.68261 -1.18574 0
M  V30 693 H 62.0611 -2.60636 1.47949 0
M  V30 694 H 59.6221 -1.33044 0.922544 0
M  V30 695 H 61.6141 -3.99678 -0.635606 0
M  V30 696 H 60.1841 -2.98012 -0.943811 0
M  V30 697 H 59.4041 -3.66764 1.44491 0
M  V30 698 H 60.6921 -4.8852 1.42218 0
M  V30 699 H 60.0901 -5.38957 -1.71876 0
M  V30 700 H 58.6471 -6.31584 -1.61074 0
M  V30 701 N 62.0802 -0.821533 -1.34494 0
M  V30 702 C 63.0272 -0.240397 -2.29545 0
M  V30 703 C 63.9972 0.634031 -1.53523 0
M  V30 704 O 65.1822 0.575966 -1.81899 0
M  V30 705 C 62.3222 0.592869 -3.39969 0
M  V30 706 C 61.4352 -0.30365 -4.30932 0
M  V30 707 C 60.5702 0.539049 -5.28458 0
M  V30 708 C 59.6092 -0.356942 -6.11058 0
M  V30 709 N 58.7462 0.446603 -7.00678 0
M  V30 710 H 63.5862 -1.05632 -2.7865 0
M  V30 711 H 61.1232 -0.532413 -1.37127 0
M  V30 712 H 63.0812 1.09129 -4.02675 0
M  V30 713 H 61.7112 1.37392 -2.92102 0
M  V30 714 H 60.7632 -0.920276 -3.691 0
M  V30 715 H 62.0752 -0.992661 -4.88823 0
M  V30 716 H 61.2292 1.102 -5.96608 0
M  V30 717 H 59.9682 1.26157 -4.71101 0
M  V30 718 H 58.9732 -0.932047 -5.41842 0
M  V30 719 H 60.1982 -1.07755 -6.70497 0
M  V30 720 H 58.1442 1.15282 -6.45791 0
M  V30 721 H 58.0612 -0.184048 -7.55776 0
M  V30 722 H 59.3292 0.992352 -7.73158 0
M  V30 723 N 63.5583 1.46682 -0.576371 0
M  V30 724 C 64.8073 2.01619 -0.0572825 0
M  V30 725 C 65.1203 1.45417 1.30818 0
M  V30 726 O 66.3263 1.92133 1.91825 0
M  V30 727 C 64.7823 3.59863 -0.0518371 0
M  V30 728 C 64.3903 4.25059 -1.41523 0
M  V30 729 C 66.1343 4.2248 0.413639 0
M  V30 730 C 64.0413 5.75364 -1.36785 0
M  V30 731 H 62.9713 0.753794 -0.0176448 0
M  V30 732 H 65.6223 1.68481 -0.727076 0
M  V30 733 H 64.0043 3.90048 0.683994 0
M  V30 734 H 65.1783 4.06491 -2.17029 0
M  V30 735 H 63.4933 3.7451 -1.8202 0
M  V30 736 H 66.0903 5.3265 0.467779 0
M  V30 737 H 66.4333 3.90976 1.42982 0
M  V30 738 H 66.9663 3.96897 -0.267929 0
M  V30 739 H 63.7053 6.11518 -2.36063 0
M  V30 740 H 63.2253 5.96214 -0.654895 0
M  V30 741 H 64.9043 6.37955 -1.07805 0
M  V30 742 N 65.0364 0.313813 1.54444 0
M  V30 743 C 66.2644 -0.293918 2.04802 0
M  V30 744 C 66.6794 -1.46537 1.19047 0
M  V30 745 O 66.0364 -1.81182 0.218939 0
M  V30 746 C 66.0874 -0.737806 3.53891 0
M  V30 747 O 65.8084 0.387038 4.36387 0
M  V30 748 C 67.3094 -1.40936 4.203 0
M  V30 749 H 64.5294 -0.0620057 0.668129 0
M  V30 750 H 67.0734 0.457169 1.99324 0
M  V30 751 H 65.2284 -1.43889 3.59687 0
M  V30 752 H 65.6424 0.0391274 5.24485 0
M  V30 753 H 67.1164 -1.67099 5.26101 0
M  V30 754 H 67.5934 -2.35355 3.70816 0
M  V30 755 H 68.1994 -0.751117 4.18615 0
M  V30 756 N 66.5145 -1.57545 0.0417849 0
M  V30 757 C 67.4615 -2.10977 -0.935805 0
M  V30 758 C 68.4315 -1.01486 -1.31491 0
M  V30 759 O 69.6165 -1.2898 -1.40602 0
M  V30 760 C 66.7565 -2.65169 -2.2086 0
M  V30 761 C 65.8695 -3.88714 -1.88482 0
M  V30 762 C 65.0045 -4.31254 -3.1015 0
M  V30 763 C 64.0435 -5.47524 -2.7365 0
M  V30 764 N 63.1805 -5.85162 -3.87982 0
M  V30 765 H 68.0205 -2.94218 -0.473249 0
M  V30 766 H 65.5575 -1.45415 -0.221981 0
M  V30 767 H 67.5155 -2.94685 -2.95325 0
M  V30 768 H 66.1455 -1.8474 -2.64709 0
M  V30 769 H 65.1975 -3.65849 -1.04205 0
M  V30 770 H 66.5095 -4.73245 -1.57608 0
M  V30 771 H 65.6635 -4.62273 -3.92923 0
M  V30 772 H 64.4025 -3.45516 -3.44195 0
M  V30 773 H 63.4075 -5.16187 -1.89291 0
M  V30 774 H 64.6325 -6.34971 -2.40807 0
M  V30 775 H 62.5785 -5.02377 -4.21846 0
M  V30 776 H 62.4955 -6.64362 -3.60775 0
M  V30 777 H 63.7635 -6.20791 -4.71422 0
M  V30 778 N 67.9926 0.231505 -1.5589 0
M  V30 779 C 69.2176 0.978689 -1.82856 0
M  V30 780 C 69.6426 1.77559 -0.620846 0
M  V30 781 O 69.0006 1.76119 0.430305 0
M  V30 782 C 69.0486 1.87997 -3.07716 0
M  V30 783 O 68.1526 2.97393 -2.85712 0
M  V30 784 H 67.4936 0.277663 -0.603158 0
M  V30 785 H 70.0236 0.24783 -2.03093 0
M  V30 786 H 70.0336 2.2917 -3.37558 0
M  V30 787 H 68.7086 1.29417 -3.95252 0
M  V30 788 H 67.2856 2.60238 -2.67078 0
M  V30 789 N 69.4707 1.49531 0.497807 0
M  V30 790 C 70.4037 1.61043 1.6168 0
M  V30 791 C 71.3817 0.459386 1.55976 0
M  V30 792 O 72.5657 0.675358 1.75986 0
M  V30 793 C 69.6927 1.56833 3.00202 0
M  V30 794 C 68.7387 2.77173 3.24156 0
M  V30 795 S 69.5717 4.38808 3.06933 0
M  V30 796 C 70.7277 4.37248 4.47845 0
M  V30 797 H 70.9607 2.55702 1.51671 0
M  V30 798 H 68.4937 1.38462 0.683201 0
M  V30 799 H 70.4517 1.55089 3.80076 0
M  V30 800 H 69.1127 0.634561 3.07623 0
M  V30 801 H 68.3057 2.70456 4.25288 0
M  V30 802 H 67.9077 2.76346 2.5201 0
M  V30 803 H 70.1997 4.09164 5.39992 0
M  V30 804 H 71.1427 5.38668 4.59612 0
M  V30 805 H 71.5507 3.67286 4.28674 0
M  V30 806 N 70.9488 -0.749086 1.3866 0
M  V30 807 C 71.8958 -1.86291 1.36251 0
M  V30 808 C 72.8658 -1.64578 0.224347 0
M  V30 809 O 74.0508 -1.86181 0.417279 0
M  V30 810 C 71.1908 -3.23644 1.19786 0
M  V30 811 C 70.3038 -3.57158 2.43027 0
M  V30 812 C 69.4388 -4.83838 2.19258 0
M  V30 813 C 68.4778 -5.10152 3.38247 0
M  V30 814 N 67.6148 -6.28029 3.13884 0
M  V30 815 H 72.4548 -1.87685 2.3147 0
M  V30 816 H 69.9918 -0.917287 1.14997 0
M  V30 817 H 71.9498 -4.0291 1.08254 0
M  V30 818 H 70.5798 -3.21566 0.282031 0
M  V30 819 H 69.6318 -2.72701 2.65214 0
M  V30 820 H 70.9438 -3.7253 3.31697 0
M  V30 821 H 70.0978 -5.71057 2.04888 0
M  V30 822 H 68.8368 -4.70614 1.2796 0
M  V30 823 H 67.8418 -4.21401 3.53131 0
M  V30 824 H 69.0668 -5.25271 4.30427 0
M  V30 825 H 67.0128 -6.1612 2.25238 0
M  V30 826 H 66.9298 -6.43922 3.96106 0
M  V30 827 H 68.1978 -7.18124 3.03179 0
M  V30 828 N 72.4269 -1.23603 -0.977757 0
M  V30 829 C 73.3599 -0.962772 -2.06896 0
M  V30 830 C 74.3379 0.0998743 -1.62293 0
M  V30 831 O 75.5219 -0.0349421 -1.88468 0
M  V30 832 C 72.6489 -0.45095 -3.35685 0
M  V30 833 C 71.6949 -1.50061 -3.99229 0
M  V30 834 S 72.5279 -3.07884 -4.38142 0
M  V30 835 C 73.6839 -2.58378 -5.7008 0
M  V30 836 H 73.9169 -1.88677 -2.29757 0
M  V30 837 H 71.4499 -1.06876 -1.11431 0
M  V30 838 H 73.4079 -0.162261 -4.10179 0
M  V30 839 H 72.0689 0.452179 -3.10828 0
M  V30 840 H 71.2619 -1.09269 -4.92013 0
M  V30 841 H 70.8639 -1.73878 -3.31123 0
M  V30 842 H 73.1559 -2.00563 -6.47133 0
M  V30 843 H 74.0989 -3.49711 -6.15717 0
M  V30 844 H 74.5069 -1.99143 -5.28207 0
M  V30 845 N 73.905 1.17692 -1.04816 0
M  V30 846 C 75.151 1.88137 -0.75711 0
M  V30 847 C 75.484 1.80604 0.713841 0
M  V30 848 O 74.759 1.21146 1.52164 0
M  V30 849 C 75.042 3.38318 -1.2334 0
M  V30 850 C 74.895 3.54622 -2.76701 0
M  V30 851 C 76.214 4.32214 -0.829415 0
M  V30 852 H 73.333 0.683163 -0.27651 0
M  V30 853 H 75.975 1.38424 -1.30149 0
M  V30 854 H 74.125 3.80787 -0.770286 0
M  V30 855 H 75.797 3.21194 -3.31107 0
M  V30 856 H 74.04 2.97026 -3.16161 0
M  V30 857 H 74.711 4.60028 -3.05088 0
M  V30 858 H 77.187 3.97565 -1.22805 0
M  V30 859 H 76.063 5.35838 -1.19033 0
M  V30 860 H 76.324 4.41294 0.266891 0
M  V30 861 N 75.3831 0.828654 1.34056 0
M  V30 862 C 76.3461 0.259927 2.27721 0
M  V30 863 C 77.3461 -0.565478 1.50529 0
M  V30 864 O 78.5361 -0.38075 1.69988 0
M  V30 865 C 75.6681 -0.634944 3.34935 0
M  V30 866 H 76.8611 1.0863 2.79534 0
M  V30 867 H 74.4141 0.600951 1.44285 0
M  V30 868 H 75.1491 -1.48416 2.88346 0
M  V30 869 H 74.9341 -0.0444999 3.92075 0
M  V30 870 H 76.4241 -1.02648 4.04788 0
M  V30 871 N 76.8612 -1.46375 0.584142 0
M  V30 872 C 77.8242 -2.28784 -0.138108 0
M  V30 873 C 78.8242 -1.38471 -0.817462 0
M  V30 874 O 80.0142 -1.60833 -0.669199 0
M  V30 875 C 77.1462 -3.18892 -1.20503 0
M  V30 876 H 78.3392 -2.94117 0.586127 0
M  V30 877 H 75.8922 -1.52509 0.342171 0
M  V30 878 H 76.6272 -2.58309 -1.96079 0
M  V30 879 H 76.4122 -3.85388 -0.722384 0
M  V30 880 H 77.9022 -3.80914 -1.71155 0
M  V30 881 N 78.3393 -0.321999 -1.54275 0
M  V30 882 C 79.3023 0.531975 -2.22941 0
M  V30 883 C 80.3023 1.04478 -1.22234 0
M  V30 884 O 81.4923 0.937452 -1.46825 0
M  V30 885 C 78.6243 1.73874 -2.93224 0
M  V30 886 H 79.8173 -0.0682612 -2.99822 0
M  V30 887 H 77.3703 -0.0730644 -1.56129 0
M  V30 888 H 78.1053 2.37825 -2.20476 0
M  V30 889 H 77.8903 1.37847 -3.6707 0
M  V30 890 H 79.3803 2.34496 -3.45545 0
M  V30 891 N 79.8174 1.5752 -0.0501392 0
M  V30 892 C 80.7644 2.1147 0.924603 0
M  V30 893 C 81.7344 1.02182 1.30951 0
M  V30 894 O 82.9194 1.29723 1.39916 0
M  V30 895 C 80.0594 2.66337 2.19451 0
M  V30 896 C 79.1724 3.89708 1.86418 0
M  V30 897 C 78.3074 4.32893 3.07859 0
M  V30 898 C 77.3464 5.48967 2.70742 0
M  V30 899 N 76.4834 5.87211 3.84874 0
M  V30 900 H 81.3234 2.94465 0.457639 0
M  V30 901 H 78.8604 1.45531 0.214266 0
M  V30 902 H 80.8184 2.96247 2.93758 0
M  V30 903 H 79.4484 1.86141 2.63726 0
M  V30 904 H 78.5004 3.66396 1.02264 0
M  V30 905 H 79.8124 4.74074 1.55096 0
M  V30 906 H 78.9664 4.6435 3.90466 0
M  V30 907 H 77.7054 3.47336 3.42358 0
M  V30 908 H 76.7104 5.17183 1.86551 0
M  V30 909 H 77.9354 6.3624 2.37436 0
M  V30 910 H 75.8814 5.04607 4.19175 0
M  V30 911 H 75.7984 6.66266 3.57247 0
M  V30 912 H 77.0664 6.23282 4.68123 0
M  V30 913 N 81.2955 -0.223234 1.56011 0
M  V30 914 C 82.5255 -0.963413 1.82762 0
M  V30 915 C 82.9335 -1.78516 0.626804 0
M  V30 916 O 82.2765 -1.78974 -0.414014 0
M  V30 917 C 82.3385 -1.93126 3.0322 0
M  V30 918 C 82.0025 -1.2942 4.38291 0
M  V30 919 C 82.9995 -0.684916 5.15369 0
M  V30 920 C 80.6845 -1.30647 4.85012 0
M  V30 921 C 82.6785 -0.0963971 6.37327 0
M  V30 922 C 80.3655 -0.71411 6.06913 0
M  V30 923 C 81.3635 -0.110123 6.82911 0
M  V30 924 O 81.0515 0.47303 8.02507 0
M  V30 925 H 80.7835 -0.288011 0.611576 0
M  V30 926 H 83.3375 -0.244103 2.03944 0
M  V30 927 H 81.5675 -2.68952 2.77852 0
M  V30 928 H 83.2565 -2.53685 3.16857 0
M  V30 929 H 84.0225 -0.667774 4.80381 0
M  V30 930 H 79.9015 -1.76598 4.25833 0
M  V30 931 H 83.4455 0.375657 6.96588 0
M  V30 932 H 79.3425 -0.728659 6.41374 0
M  V30 933 H 80.1105 0.367186 8.17676 0
M  V30 934 N 82.7736 -1.49793 -0.48987 0
M  V30 935 C 83.7366 -1.66752 -1.57246 0
M  V30 936 C 84.7366 -0.538867 -1.51502 0
M  V30 937 O 85.9266 -0.805545 -1.54456 0
M  V30 938 C 83.0586 -1.67528 -2.96896 0
M  V30 939 H 84.2516 -2.63321 -1.43534 0
M  V30 940 H 81.8046 -1.38992 -0.714914 0
M  V30 941 H 82.5396 -0.725837 -3.16073 0
M  V30 942 H 82.3246 -2.49504 -3.02473 0
M  V30 943 H 83.8146 -1.82667 -3.7553 0
M  V30 944 N 84.2517 0.741722 -1.39055 0
M  V30 945 C 85.6677 1.04638 -1.20512 0
M  V30 946 C 85.8677 2.01405 -0.0620218 0
M  V30 947 O 84.9237 2.45547 0.588457 0
M  V30 948 C 86.2367 1.6151 -2.53643 0
M  V30 949 C 87.7847 1.73623 -2.6043 0
M  V30 950 C 88.2597 2.33906 -3.93767 0
M  V30 951 N 89.7507 2.41323 -3.9537 0
M  V30 952 C 90.4857 2.88888 -4.95309 0
M  V30 953 N 89.9817 3.36401 -6.05645 0
M  V30 954 N 91.7747 2.88037 -4.82692 0
M  V30 955 H 83.9257 0.0998155 -2.12165 0
M  V30 956 H 86.1887 0.106907 -0.941953 0
M  V30 957 H 85.8947 0.978739 -3.37807 0
M  V30 958 H 85.7687 2.60411 -2.72885 0
M  V30 959 H 88.1557 2.36384 -1.76655 0
M  V30 960 H 88.2367 0.733945 -2.45045 0
M  V30 961 H 87.8807 1.71776 -4.7797 0
M  V30 962 H 87.8107 3.34799 -4.06469 0
M  V30 963 H 90.3017 2.07734 -3.15682 0
M  V30 964 H 90.6147 3.71186 -6.77821 0
M  V30 965 H 88.9597 3.34427 -6.09248 0
M  V30 966 H 92.1507 2.50237 -3.95599 0
M  V30 967 H 92.3237 3.24792 -5.60726 0
M  V30 968 N 85.7298 1.2412 0.971189 0
M  V30 969 C 86.6928 1.03156 2.04674 0
M  V30 970 C 87.6928 -0.00990322 1.60797 0
M  V30 971 O 88.8828 0.230729 1.72665 0
M  V30 972 C 86.0148 0.562765 3.36223 0
M  V30 973 H 87.2078 1.98614 2.24705 0
M  V30 974 H 84.7608 1.06293 1.14593 0
M  V30 975 H 85.4958 -0.395176 3.21883 0
M  V30 976 H 85.2808 1.31441 3.69413 0
M  V30 977 H 86.7708 0.437015 4.15307 0
M  V30 978 N 87.2079 -1.17134 1.05439 0
M  V30 979 C 88.1179 -2.24878 0.668365 0
M  V30 980 C 89.1339 -1.71186 -0.311687 0
M  V30 981 O 90.3099 -2.00738 -0.163161 0
M  V30 982 C 87.3749 -3.46662 0.051648 0
M  V30 983 C 86.4359 -4.15429 1.08246 0
M  V30 984 C 85.6689 -5.31399 0.495082 0
M  V30 985 O 85.8919 -5.66153 -0.694743 0
M  V30 986 O 84.8259 -5.89187 1.23056 0
M  V30 987 H 88.6519 -2.60189 1.56637 0
M  V30 988 H 86.2369 -1.24482 0.826104 0
M  V30 989 H 88.1189 -4.20394 -0.290966 0
M  V30 990 H 86.7939 -3.13142 -0.819971 0
M  V30 991 H 85.7009 -3.43704 1.47711 0
M  V30 992 H 87.0339 -4.52982 1.92532 0
M  V30 993 N 88.686 -0.835752 -1.33615 0
M  V30 994 C 90.102 -0.523139 -1.50783 0
M  V30 995 C 90.302 0.950171 -1.77691 0
M  V30 996 O 89.358 1.73411 -1.83534 0
M  V30 997 C 90.671 -1.39378 -2.66448 0
M  V30 998 C 92.219 -1.39223 -2.80332 0
M  V30 999 C 92.694 -2.24765 -3.99055 0
M  V30 1000 N 94.185 -2.22458 -4.06284 0
M  V30 1001 C 94.92 -2.85386 -4.97336 0
M  V30 1002 N 94.416 -3.57354 -5.93523 0
M  V30 1003 N 96.209 -2.74872 -4.90308 0
M  V30 1004 H 88.36 -1.78952 -1.14411 0
M  V30 1005 H 90.623 -0.763297 -0.562212 0
M  V30 1006 H 90.329 -2.44061 -2.53234 0
M  V30 1007 H 90.203 -1.0676 -3.61776 0
M  V30 1008 H 92.59 -0.353136 -2.92979 0
M  V30 1009 H 92.671 -1.75846 -1.85773 0
M  V30 1010 H 92.315 -3.28732 -3.87167 0
M  V30 1011 H 92.245 -1.85485 -4.92852 0
M  V30 1012 H 94.736 -1.70119 -3.37443 0
M  V30 1013 H 95.049 -4.02584 -6.59656 0
M  V30 1014 H 93.394 -3.61461 -5.93608 0
M  V30 1015 H 96.585 -2.18213 -4.14126 0
M  V30 1016 H 96.758 -3.24199 -5.61069 0
M  V30 1017 N 90.1641 1.46063 -0.591896 0
M  V30 1018 C 91.0741 2.34192 0.13831 0
M  V30 1019 C 92.0901 1.50305 0.876608 0
M  V30 1020 O 93.2661 1.8315 0.837728 0
M  V30 1021 C 90.3311 3.27656 1.13326 0
M  V30 1022 C 89.3921 4.27445 0.39863 0
M  V30 1023 C 88.6251 5.16443 1.34618 0
M  V30 1024 O 88.8481 5.08553 2.58321 0
M  V30 1025 O 87.7821 5.95843 0.851768 0
M  V30 1026 H 91.6081 2.98002 -0.58552 0
M  V30 1027 H 89.1931 1.45188 -0.352239 0
M  V30 1028 H 91.0751 3.85291 1.70671 0
M  V30 1029 H 89.7501 2.6643 1.83839 0
M  V30 1030 H 88.6571 3.73471 -0.216895 0
M  V30 1031 H 89.9901 4.91482 -0.265709 0
M  V30 1032 N 91.6422 0.330177 1.54103 0
M  V30 1033 C 92.5722 -0.525353 2.27513 0
M  V30 1034 C 93.5532 -1.11383 1.2856 0
M  V30 1035 O 94.7382 -1.13773 1.57383 0
M  V30 1036 C 91.8682 -1.6831 3.03791 0
M  V30 1037 C 90.8222 -1.2236 4.10137 0
M  V30 1038 C 90.1482 -2.46882 4.74293 0
M  V30 1039 C 91.4482 -0.333697 5.21233 0
M  V30 1040 H 93.1422 0.087013 2.99274 0
M  V30 1041 H 90.6882 0.0432893 1.43935 0
M  V30 1042 H 92.6412 -2.28795 3.5388 0
M  V30 1043 H 91.3652 -2.32216 2.29659 0
M  V30 1044 H 90.0242 -0.64165 3.60941 0
M  V30 1045 H 89.6722 -3.09165 3.96769 0
M  V30 1046 H 89.3722 -2.16825 5.46133 0
M  V30 1047 H 90.8962 -3.08117 5.27159 0
M  V30 1048 H 92.3102 -0.845013 5.67038 0
M  V30 1049 H 90.7072 -0.125612 5.99969 0
M  V30 1050 H 91.7772 0.633724 4.80741 0
M  V30 1051 N 93.1203 -1.57491 0.0584922 0
M  V30 1052 C 94.0673 -2.11958 -0.913376 0
M  V30 1053 C 95.0373 -1.02875 -1.30407 0
M  V30 1054 O 96.2223 -1.30464 -1.39226 0
M  V30 1055 C 93.3623 -2.67497 -2.18035 0
M  V30 1056 C 92.4753 -3.90691 -1.84349 0
M  V30 1057 C 91.6103 -4.3452 -3.05559 0
M  V30 1058 C 90.6493 -5.50395 -2.67827 0
M  V30 1059 N 89.7863 -5.89244 -3.81754 0
M  V30 1060 H 94.6263 -2.94704 -0.442017 0
M  V30 1061 H 92.1633 -1.45643 -0.206545 0
M  V30 1062 H 94.1213 -2.978 -2.92183 0
M  V30 1063 H 92.7513 -1.87537 -2.62735 0
M  V30 1064 H 91.8033 -3.66934 -1.00319 0
M  V30 1065 H 93.1153 -4.7489 -1.5258 0
M  V30 1066 H 92.2693 -4.66414 -3.87998 0
M  V30 1067 H 91.0083 -3.49147 -3.40511 0
M  V30 1068 H 90.0133 -5.18165 -1.83806 0
M  V30 1069 H 91.2383 -6.3749 -2.34059 0
M  V30 1070 H 89.1843 -5.06823 -4.16493 0
M  V30 1071 H 89.1013 -6.68151 -3.53708 0
M  V30 1072 H 90.3693 -6.25756 -4.64811 0
M  V30 1073 N 94.5984 0.214957 -1.56127 0
M  V30 1074 C 96.0094 0.781386 -1.69562 0
M  V30 1075 C 96.3604 1.84707 -0.66165 0
M  V30 1076 O 95.4854 2.156 0.185927 0
M  V30 1077 C 96.0804 1.42411 -3.07416 0
M  V30 1078 C 94.6394 1.93786 -3.22683 0
M  V30 1079 C 93.7864 0.800438 -2.65496 0
M  V30 1080 H 96.7374 -0.00980633 -1.58697 0
M  V30 1081 H 96.7584 2.29309 -3.0364 0
M  V30 1082 H 96.2704 0.64826 -3.82648 0
M  V30 1083 H 94.3714 2.74152 -2.52332 0
M  V30 1084 H 94.4844 2.1133 -4.29973 0
M  V30 1085 H 92.8484 1.2095 -2.2415 0
M  V30 1086 H 93.6314 0.0371471 -3.4328 0
M  V30 1087 N 96.0765 1.50051 0.48192 0
M  V30 1088 C 97.0395 1.67584 1.5636 0
M  V30 1089 C 98.0395 0.546894 1.51214 0
M  V30 1090 O 99.2295 0.813725 1.54026 0
M  V30 1091 C 96.3615 1.691 2.96003 0
M  V30 1092 H 97.5545 2.64078 1.42136 0
M  V30 1093 H 95.1075 1.39369 0.707533 0
M  V30 1094 H 95.8425 0.742589 3.15684 0
M  V30 1095 H 95.6275 2.51105 3.01146 0
M  V30 1096 H 97.1175 1.84656 3.74556 0
M  V30 1097 N 97.5546 -0.734337 1.39446 0
M  V30 1098 C 98.9706 -1.03997 1.21065 0
M  V30 1099 C 99.1706 -2.01369 0.0727019 0
M  V30 1100 O 98.2266 -2.45856 -0.575426 0
M  V30 1101 C 99.5396 -1.60163 2.54496 0
M  V30 1102 C 101.088 -1.7224 2.61347 0
M  V30 1103 C 101.563 -2.31814 3.95002 0
M  V30 1104 N 103.054 -2.39223 3.96644 0
M  V30 1105 C 103.789 -2.86258 4.96834 0
M  V30 1106 N 103.285 -3.33184 6.07421 0
M  V30 1107 N 105.078 -2.85473 4.84213 0
M  V30 1108 H 97.2286 -0.0885624 2.12215 0
M  V30 1109 H 99.4916 -0.10191 0.942506 0
M  V30 1110 H 99.1976 -0.960811 3.38321 0
M  V30 1111 H 99.0716 -2.5896 2.74262 0
M  V30 1112 H 101.459 -2.35443 1.77906 0
M  V30 1113 H 101.54 -0.720939 2.4543 0
M  V30 1114 H 101.184 -1.69238 4.78875 0
M  V30 1115 H 101.114 -3.32638 4.08239 0
M  V30 1116 H 103.605 -2.06057 3.16779 0
M  V30 1117 H 103.918 -3.67586 6.7978 0
M  V30 1118 H 102.263 -3.31191 6.11013 0
M  V30 1119 H 105.454 -2.48136 3.96921 0
M  V30 1120 H 105.627 -3.21814 5.62441 0
M  V30 1121 N 99.0327 -1.24633 -0.964593 0
M  V30 1122 C 100.282 -1.08188 -1.7023 0
M  V30 1123 C 100.595 0.37873 -1.91898 0
M  V30 1124 O 101.801 0.663427 -2.6327 0
M  V30 1125 C 100.257 -1.88773 -3.06419 0
M  V30 1126 C 99.8647 -3.39263 -2.92582 0
M  V30 1127 C 101.609 -1.80867 -3.84041 0
M  V30 1128 C 99.5157 -4.1218 -4.24101 0
M  V30 1129 H 98.4457 -0.401245 -0.638372 0
M  V30 1130 H 101.097 -1.48742 -1.07462 0
M  V30 1131 H 99.4787 -1.41035 -3.70034 0
M  V30 1132 H 100.653 -3.94603 -2.37961 0
M  V30 1133 H 98.9677 -3.48154 -2.28424 0
M  V30 1134 H 101.565 -2.32646 -4.81435 0
M  V30 1135 H 101.908 -0.774543 -4.09031 0
M  V30 1136 H 102.441 -2.26301 -3.27159 0
M  V30 1137 H 99.1797 -5.15965 -4.04303 0
M  V30 1138 H 98.6997 -3.61626 -4.78526 0
M  V30 1139 H 100.379 -4.19349 -4.92702 0
M  V30 1140 N 100.511 1.16574 -1.06058 0
M  V30 1141 C 101.741 1.90675 -0.795397 0
M  V30 1142 C 102.149 1.77547 0.653735 0
M  V30 1143 O 101.492 1.11611 1.45907 0
M  V30 1144 C 101.554 3.42011 -1.10764 0
M  V30 1145 C 101.218 3.78924 -2.55471 0
M  V30 1146 C 102.215 3.81042 -3.53699 0
M  V30 1147 C 99.8998 4.09626 -2.90708 0
M  V30 1148 C 101.894 4.13346 -4.85205 0
M  V30 1149 C 99.5808 4.41597 -4.22416 0
M  V30 1150 C 100.579 4.43436 -5.19474 0
M  V30 1151 O 100.267 4.74649 -6.48817 0
M  V30 1152 H 99.9988 0.611554 -0.288058 0
M  V30 1153 H 102.553 1.48711 -1.41683 0
M  V30 1154 H 100.783 3.84312 -0.429128 0
M  V30 1155 H 102.472 3.97384 -0.827077 0
M  V30 1156 H 103.238 3.57437 -3.27817 0
M  V30 1157 H 99.1168 4.07361 -2.15819 0
M  V30 1158 H 102.661 4.14696 -5.60957 0
M  V30 1159 H 98.5578 4.64667 -4.48056 0
M  V30 1160 H 99.3258 4.9247 -6.5377 0
M  V30 1161 N 101.989 0.842826 1.3317 0
M  V30 1162 C 103.237 0.439577 1.97262 0
M  V30 1163 C 103.558 -1.00548 1.67078 0
M  V30 1164 O 102.828 -1.70098 0.971779 0
M  V30 1165 H 101.408 0.159558 0.72976 0
M  V30 1166 H 104.07 1.07665 1.62463 0
M  V30 1167 H 103.166 0.574886 3.0676 0
M  V30 1168 N 103.467 -1.45747 0.599634 0
M  V30 1169 C 104.397 -2.33235 -0.111306 0
M  V30 1170 C 105.378 -1.46359 -0.866781 0
M  V30 1171 O 106.563 -1.75146 -0.838904 0
M  V30 1172 C 103.693 -3.28932 -1.11451 0
M  V30 1173 C 102.647 -4.25381 -0.472772 0
M  V30 1174 C 101.973 -5.1071 -1.58365 0
M  V30 1175 C 103.273 -5.18831 0.600948 0
M  V30 1176 H 104.967 -2.92927 0.61919 0
M  V30 1177 H 102.513 -1.40857 0.299215 0
M  V30 1178 H 104.466 -3.89002 -1.62036 0
M  V30 1179 H 103.19 -2.67381 -1.8755 0
M  V30 1180 H 101.849 -3.66598 0.0121472 0
M  V30 1181 H 101.497 -4.45533 -2.33473 0
M  V30 1182 H 101.197 -5.7604 -1.15982 0
M  V30 1183 H 102.721 -5.73647 -2.09194 0
M  V30 1184 H 104.135 -5.73019 0.179491 0
M  V30 1185 H 102.532 -5.92595 0.946076 0
M  V30 1186 H 103.602 -4.6174 1.48068 0
M  V30 1187 N 104.945 -0.338344 -1.53925 0
M  V30 1188 C 106.193 0.259245 -2.0043 0
M  V30 1189 C 106.514 1.51484 -1.22791 0
M  V30 1190 O 105.784 1.93037 -0.33368 0
M  V30 1191 H 104.364 0.0987845 -0.740439 0
M  V30 1192 H 107.026 -0.458302 -1.89435 0
M  V30 1193 H 106.122 0.505334 -3.07982 0
M  V30 1194 N 106.423 1.57458 -0.0668435 0
M  V30 1195 C 107.648 1.9804 0.616027 0
M  V30 1196 C 108.073 0.944771 1.62652 0
M  V30 1197 O 107.431 -0.0902094 1.81075 0
M  V30 1198 C 107.479 3.37665 1.26549 0
M  V30 1199 O 106.583 3.36701 2.38131 0
M  V30 1200 H 105.924 0.644719 0.158849 0
M  V30 1201 H 108.454 2.04121 -0.139891 0
M  V30 1202 H 108.464 3.7474 1.6135 0
M  V30 1203 H 107.139 4.12573 0.525016 0
M  V30 1204 H 105.716 3.1139 2.0516 0
M  V30 1205 N 107.901 -0.206675 1.56239 0
M  V30 1206 C 108.831 -1.25909 1.96645 0
M  V30 1207 C 109.812 -1.48097 0.836734 0
M  V30 1208 O 110.997 -1.6003 1.10019 0
M  V30 1209 C 108.127 -2.6058 2.29599 0
M  V30 1210 C 107.081 -2.53024 3.452 0
M  V30 1211 C 106.407 -3.91861 3.63798 0
M  V30 1212 C 107.707 -2.06524 4.79734 0
M  V30 1213 H 109.401 -0.923369 2.84806 0
M  V30 1214 H 106.947 -0.442735 1.37025 0
M  V30 1215 H 108.9 -3.34375 2.56459 0
M  V30 1216 H 107.624 -2.95869 1.38307 0
M  V30 1217 H 106.283 -1.81684 3.18412 0
M  V30 1218 H 105.931 -4.24483 2.69857 0
M  V30 1219 H 105.631 -3.87683 4.4156 0
M  V30 1220 H 107.155 -4.67296 3.93022 0
M  V30 1221 H 108.569 -2.70072 5.05702 0
M  V30 1222 H 106.966 -2.13374 5.60885 0
M  V30 1223 H 108.036 -1.01802 4.74093 0
M  V30 1224 N 109.379 -1.50304 -0.473955 0
M  V30 1225 C 110.342 -1.6841 -1.55469 0
M  V30 1226 C 111.342 -0.554905 -1.50922 0
M  V30 1227 O 112.532 -0.821882 -1.53593 0
M  V30 1228 C 109.664 -1.70667 -2.95102 0
M  V30 1229 H 110.857 -2.64828 -1.40733 0
M  V30 1230 H 108.41 -1.39742 -0.700132 0
M  V30 1231 H 109.145 -0.75932 -3.15285 0
M  V30 1232 H 108.93 -2.52698 -2.9981 0
M  V30 1233 H 110.42 -1.8664 -3.73571 0
M  V30 1234 N 110.857 0.726932 -1.39834 0
M  V30 1235 C 111.787 1.85405 -1.41941 0
M  V30 1236 C 112.768 1.67751 -0.281728 0
M  V30 1237 O 113.953 1.8795 -0.488717 0
M  V30 1238 C 111.083 3.23243 -1.2701 0
M  V30 1239 C 110.037 3.55549 -2.38262 0
M  V30 1240 C 109.363 4.9241 -2.08415 0
M  V30 1241 C 110.663 3.577 -3.80589 0
M  V30 1242 H 112.357 1.83899 -2.36266 0
M  V30 1243 H 109.903 0.883349 -1.13723 0
M  V30 1244 H 111.856 4.01775 -1.27103 0
M  V30 1245 H 110.58 3.25296 -0.291564 0
M  V30 1246 H 109.239 2.79351 -2.37399 0
M  V30 1247 H 108.887 4.91052 -1.0898 0
M  V30 1248 H 108.587 5.14992 -2.82943 0
M  V30 1249 H 110.111 5.73289 -2.10171 0
M  V30 1250 H 111.525 4.26293 -3.83337 0
M  V30 1251 H 109.922 3.91804 -4.54543 0
M  V30 1252 H 110.992 2.57328 -4.10987 0
M  V30 1253 N 112.336 1.25143 0.95797 0
M  V30 1254 C 113.566 1.12261 1.73439 0
M  V30 1255 C 113.974 -0.326715 1.86358 0
M  V30 1256 O 113.317 -1.2367 1.35836 0
M  V30 1257 C 113.379 1.69966 3.16784 0
M  V30 1258 C 113.043 3.18936 3.27305 0
M  V30 1259 C 114.04 4.15968 3.11877 0
M  V30 1260 C 111.725 3.59083 3.51234 0
M  V30 1261 C 113.719 5.51126 3.20217 0
M  V30 1262 C 111.406 4.9438 3.5921 0
M  V30 1263 C 112.404 5.90211 3.43716 0
M  V30 1264 O 112.092 7.23046 3.51368 0
M  V30 1265 H 111.824 0.392476 0.550399 0
M  V30 1266 H 114.378 1.65927 1.21068 0
M  V30 1267 H 112.608 1.10744 3.70503 0
M  V30 1268 H 114.297 1.52232 3.76272 0
M  V30 1269 H 115.063 3.86292 2.93264 0
M  V30 1270 H 110.942 2.84989 3.62356 0
M  V30 1271 H 114.486 6.25905 3.0804 0
M  V30 1272 H 110.383 5.23723 3.77339 0
M  V30 1273 H 111.151 7.31097 3.6802 0
M  V30 1274 N 113.814 -1.1601 1.06675 0
M  V30 1275 C 114.724 -2.24156 0.692179 0
M  V30 1276 C 115.74 -1.71507 -0.293513 0
M  V30 1277 O 116.916 -2.009 -0.141861 0
M  V30 1278 C 113.981 -3.46587 0.0884131 0
M  V30 1279 C 113.042 -4.14257 1.12646 0
M  V30 1280 C 112.275 -5.30844 0.551416 0
M  V30 1281 O 112.498 -5.66858 -0.634656 0
M  V30 1282 O 111.432 -5.87848 1.29298 0
M  V30 1283 H 115.258 -2.58513 1.59388 0
M  V30 1284 H 112.843 -1.23599 0.83926 0
M  V30 1285 H 114.725 -4.20679 -0.246361 0
M  V30 1286 H 113.4 -3.13994 -0.786712 0
M  V30 1287 H 112.307 -3.42118 1.51348 0
M  V30 1288 H 113.64 -4.50914 1.97325 0
M  V30 1289 N 115.292 -0.849877 -1.32721 0
M  V30 1290 C 116.239 -0.289033 -2.28983 0
M  V30 1291 C 117.209 0.601324 -1.54833 0
M  V30 1292 O 118.394 0.537253 -1.8308 0
M  V30 1293 C 115.534 0.520623 -3.4115 0
M  V30 1294 C 114.647 -0.394989 -4.3019 0
M  V30 1295 C 113.782 0.426834 -5.29482 0
M  V30 1296 C 112.821 -0.486476 -6.10164 0
M  V30 1297 N 111.958 0.297879 -7.01468 0
M  V30 1298 H 116.798 -1.11519 -2.76347 0
M  V30 1299 H 114.335 -0.56138 -1.35967 0
M  V30 1300 H 116.293 1.00563 -4.04899 0
M  V30 1301 H 114.923 1.31165 -2.9495 0
M  V30 1302 H 113.975 -0.99836 -3.67065 0
M  V30 1303 H 115.287 -1.09612 -4.86607 0
M  V30 1304 H 114.441 0.975205 -5.98811 0
M  V30 1305 H 113.18 1.16136 -4.73671 0
M  V30 1306 H 112.185 -1.04677 -5.39743 0
M  V30 1307 H 113.41 -1.21953 -6.6806 0
M  V30 1308 H 111.356 1.01558 -6.48091 0
M  V30 1309 H 111.273 -0.344318 -7.55216 0
M  V30 1310 H 112.541 0.828131 -7.75089 0
M  V30 1311 N 116.77 1.45427 -0.607355 0
M  V30 1312 C 117.733 2.28974 0.101693 0
M  V30 1313 C 118.733 1.39754 0.795329 0
M  V30 1314 O 119.923 1.61878 0.643527 0
M  V30 1315 C 117.055 3.20768 1.15414 0
M  V30 1316 H 118.248 2.93147 -0.632844 0
M  V30 1317 H 115.801 1.51945 -0.366391 0
M  V30 1318 H 116.536 2.61395 1.91945 0
M  V30 1319 H 116.321 3.86489 0.66098 0
M  V30 1320 H 117.811 3.83589 1.65073 0
M  V30 1321 N 118.248 0.346503 1.53744 0
M  V30 1322 C 119.525 -0.304532 1.93215 0
M  V30 1323 C 119.905 -1.67993 1.27834 0
M  V30 1324 O 119.253 -2.24411 0.430352 0
M  V30 1325 C 119.463 -0.373852 3.46992 0
M  V30 1326 C 120.811 -0.62329 4.2 0
M  V30 1327 O 121.835 -0.455847 3.53271 0
M  V30 1328 O 120.694 -0.947879 5.38217 0
M  V30 1329 H 117.788 -0.178318 0.807547 0
M  V30 1330 H 120.334 0.397895 1.64969 0
M  V30 1331 H 119.106 0.591224 3.86808 0
M  V30 1332 H 118.729 -1.12294 3.81413 0
M  V30 1333 N 119.726 -1.57421 0.075193 0
M  V30 1334 C 120.975 -1.92794 -0.592731 0
M  V30 1335 C 121.288 -0.957478 -1.70563 0
M  V30 1336 O 122.494 -1.20417 -2.43335 0
M  V30 1337 C 120.95 -3.42495 -1.10569 0
M  V30 1338 C 120.558 -4.47994 -0.0236121 0
M  V30 1339 C 122.302 -3.86864 -1.74748 0
M  V30 1340 C 120.209 -5.88829 -0.550803 0
M  V30 1341 H 119.139 -0.719591 -0.225177 0
M  V30 1342 H 121.79 -1.82902 0.147978 0
M  V30 1343 H 120.172 -3.47471 -1.89947 0
M  V30 1344 H 121.346 -4.54637 0.751099 0
M  V30 1345 H 119.661 -4.13113 0.522159 0
M  V30 1346 H 122.258 -4.8947 -2.15229 0
M  V30 1347 H 122.601 -3.24417 -2.60882 0
M  V30 1348 H 123.134 -3.84504 -1.01986 0
M  V30 1349 H 119.873 -6.54929 0.273457 0
M  V30 1350 H 119.393 -5.85698 -1.29296 0
M  V30 1351 H 121.072 -6.38811 -1.02613 0
M  V30 1352 N 121.204 0.198386 -1.56346 0
M  V30 1353 C 122.151 1.24589 -1.94284 0
M  V30 1354 C 123.121 1.454 -0.802997 0
M  V30 1355 O 124.306 1.58588 -1.06087 0
M  V30 1356 C 121.446 2.58631 -2.28482 0
M  V30 1357 C 120.559 2.45426 -3.55514 0
M  V30 1358 C 119.694 3.7215 -3.79049 0
M  V30 1359 C 118.733 3.53763 -4.99518 0
M  V30 1360 N 117.87 4.72491 -5.19323 0
M  V30 1361 H 122.71 0.915356 -2.83593 0
M  V30 1362 H 120.247 0.440629 -1.40346 0
M  V30 1363 H 122.205 3.3672 -2.46324 0
M  V30 1364 H 120.835 2.89734 -1.42317 0
M  V30 1365 H 119.887 1.58652 -3.45737 0
M  V30 1366 H 121.199 2.27772 -4.43758 0
M  V30 1367 H 120.353 4.58679 -3.97113 0
M  V30 1368 H 119.092 3.92754 -2.89129 0
M  V30 1369 H 118.097 2.65619 -4.8138 0
M  V30 1370 H 119.322 3.34607 -5.90944 0
M  V30 1371 H 117.268 4.93365 -4.3235 0
M  V30 1372 H 117.185 4.5765 -6.01741 0
M  V30 1373 H 118.453 5.6038 -5.41843 0
M  V30 1374 N 122.682 1.50554 0.465978 0
M  V30 1375 C 123.93 1.61479 1.21528 0
M  V30 1376 C 124.251 0.319596 1.92363 0
M  V30 1377 O 123.521 -0.663194 1.84333 0
M  V30 1378 H 122.101 0.595055 0.451573 0
M  V30 1379 H 124.763 1.87355 0.53704 0
M  V30 1380 H 123.859 2.42846 1.96042 0
M  V30 1381 N 124.16 -0.719506 1.40217 0
M  V30 1382 C 125.571 -1.29848 1.34151 0
M  V30 1383 C 125.922 -1.96196 0.0131349 0
M  V30 1384 O 125.047 -1.973 -0.88892 0
M  V30 1385 C 125.642 -2.36118 2.42968 0
M  V30 1386 C 124.201 -2.8965 2.40374 0
M  V30 1387 C 123.348 -1.63393 2.24049 0
M  V30 1388 H 126.299 -0.51591 1.5008 0
M  V30 1389 H 126.32 -3.16871 2.10649 0
M  V30 1390 H 125.832 -1.878 3.39636 0
M  V30 1391 H 123.933 -3.42208 1.47392 0
M  V30 1392 H 124.046 -3.4171 3.35814 0
M  V30 1393 H 122.41 -1.88312 1.71495 0
M  V30 1394 H 123.193 -1.17104 3.2271 0
M  V30 1395 N 125.638 -1.25649 -0.95132 0
M  V30 1396 C 126.548 -1.08073 -2.08224 0
M  V30 1397 C 127.564 -0.0169666 -1.73992 0
M  V30 1398 O 128.74 -0.218593 -2.0021 0
M  V30 1399 C 125.805 -0.704922 -3.39458 0
M  V30 1400 C 124.866 -1.84699 -3.87537 0
M  V30 1401 C 124.099 -1.48902 -5.12508 0
M  V30 1402 O 124.322 -0.386156 -5.69091 0
M  V30 1403 O 123.256 -2.32033 -5.55378 0
M  V30 1404 H 127.082 -2.02924 -2.25954 0
M  V30 1405 H 124.667 -1.04618 -1.06656 0
M  V30 1406 H 126.549 -0.507609 -4.18332 0
M  V30 1407 H 125.224 0.214291 -3.2299 0
M  V30 1408 H 124.131 -2.09919 -3.09653 0
M  V30 1409 H 125.464 -2.74557 -4.08509 0
M  V30 1410 N 127.117 1.15442 -1.07289 0
M  V30 1411 C 128.394 1.82306 -0.708792 0
M  V30 1412 C 128.774 1.94991 0.808807 0
M  V30 1413 O 128.122 1.50085 1.72298 0
M  V30 1414 C 128.332 3.18695 -1.42247 0
M  V30 1415 C 129.68 3.94341 -1.57417 0
M  V30 1416 O 130.704 3.28247 -1.38319 0
M  V30 1417 O 129.563 5.12839 -1.88834 0
M  V30 1418 H 126.657 0.787628 -0.252132 0
M  V30 1419 H 129.203 1.22559 -1.17377 0
M  V30 1420 H 127.975 3.04557 -2.45684 0
M  V30 1421 H 127.598 3.86128 -0.948223 0
M  V30 1422 N 128.595 0.856903 1.32268 0
M  V30 1423 C 129.542 0.301172 2.28827 0
M  V30 1424 C 130.512 -0.593104 1.5515 0
M  V30 1425 O 131.697 -0.527537 1.83362 0
M  V30 1426 C 128.837 -0.502523 3.41422 0
M  V30 1427 C 127.95 0.417797 4.29975 0
M  V30 1428 C 127.085 -0.398749 5.29701 0
M  V30 1429 C 126.124 0.518827 6.09897 0
M  V30 1430 N 125.261 -0.260674 7.01616 0
M  V30 1431 H 130.101 1.12983 2.75751 0
M  V30 1432 H 127.638 0.568582 1.35667 0
M  V30 1433 H 129.596 -0.984141 4.05426 0
M  V30 1434 H 128.226 -1.29599 2.95642 0
M  V30 1435 H 127.278 1.01781 3.66531 0
M  V30 1436 H 128.59 1.12191 4.86019 0
M  V30 1437 H 127.744 -0.943435 5.9932 0
M  V30 1438 H 126.483 -1.13622 4.7428 0
M  V30 1439 H 125.488 1.07538 5.39181 0
M  V30 1440 H 126.713 1.25495 6.67404 0
M  V30 1441 H 124.659 -0.981198 6.4862 0
M  V30 1442 H 124.576 0.384364 7.55022 0
M  V30 1443 H 125.844 -0.787014 7.75517 0
M  V30 1444 N 130.073 -1.45103 0.615059 0
M  V30 1445 C 131.02 -2.30586 -0.0993978 0
M  V30 1446 C 131.99 -1.42544 -0.852669 0
M  V30 1447 O 133.175 -1.71465 -0.836917 0
M  V30 1448 C 130.315 -3.27572 -1.08583 0
M  V30 1449 C 129.428 -4.30717 -0.332656 0
M  V30 1450 C 128.563 -5.14807 -1.30947 0
M  V30 1451 C 127.602 -6.09673 -0.544538 0
M  V30 1452 N 126.739 -6.86517 -1.47101 0
M  V30 1453 H 131.579 -2.91144 0.635542 0
M  V30 1454 H 129.116 -1.4346 0.325206 0
M  V30 1455 H 131.074 -3.82276 -1.67095 0
M  V30 1456 H 129.704 -2.68751 -1.78809 0
M  V30 1457 H 128.756 -3.78615 0.368107 0
M  V30 1458 H 130.068 -4.98102 0.263842 0
M  V30 1459 H 129.222 -5.73948 -1.96643 0
M  V30 1460 H 127.961 -4.47458 -1.9399 0
M  V30 1461 H 126.966 -5.49656 0.126003 0
M  V30 1462 H 128.191 -6.79052 0.080947 0
M  V30 1463 H 126.137 -6.21851 -2.08895 0
M  V30 1464 H 126.054 -7.50281 -0.928137 0
M  V30 1465 H 127.322 -7.50194 -2.11731 0
M  V30 1466 N 131.551 -0.354651 -1.53558 0
M  V30 1467 C 132.498 0.496968 -2.25386 0
M  V30 1468 C 133.468 1.0865 -1.25636 0
M  V30 1469 O 134.653 1.12104 -1.54394 0
M  V30 1470 C 131.793 1.63637 -3.03837 0
M  V30 1471 C 130.906 1.07307 -4.18461 0
M  V30 1472 C 130.041 2.18068 -4.84376 0
M  V30 1473 C 129.08 1.59147 -5.91049 0
M  V30 1474 N 128.217 2.63695 -6.50699 0
M  V30 1475 H 133.057 -0.122075 -2.9775 0
M  V30 1476 H 130.594 -0.0720154 -1.46924 0
M  V30 1477 H 132.552 2.30734 -3.47589 0
M  V30 1478 H 131.182 2.22623 -2.33749 0
M  V30 1479 H 130.234 0.292708 -3.79272 0
M  V30 1480 H 131.546 0.602193 -4.95152 0
M  V30 1481 H 130.7 2.93007 -5.31255 0
M  V30 1482 H 129.439 2.68504 -4.07133 0
M  V30 1483 H 128.444 0.827175 -5.43542 0
M  V30 1484 H 129.669 1.09549 -6.70206 0
M  V30 1485 H 127.615 3.13365 -5.76315 0
M  V30 1486 H 127.532 2.21263 -7.22896 0
M  V30 1487 H 128.8 3.3837 -7.02229 0
M  V30 1488 N 133.029 1.57378 -0.0835403 0
M  V30 1489 C 133.979 2.09916 0.889905 0
M  V30 1490 C 134.963 1.01151 1.25129 0
M  V30 1491 O 136.155 1.27443 1.2283 0
M  V30 1492 C 133.284 2.67379 2.15322 0
M  V30 1493 C 132.37 3.83167 1.81779 0
M  V30 1494 N 132.761 4.91665 1.18739 0
M  V30 1495 C 131.059 3.92685 2.11459 0
M  V30 1496 C 131.76 5.72409 1.0355 0
M  V30 1497 N 130.736 5.21062 1.54906 0
M  V30 1498 H 134.538 2.91188 0.398378 0
M  V30 1499 H 132.052 1.61956 0.120013 0
M  V30 1500 H 134.049 3.0334 2.8599 0
M  V30 1501 H 132.709 1.87558 2.65051 0
M  V30 1502 H 133.72 5.10784 0.855604 0
M  V30 1503 H 130.397 3.23856 2.63483 0
M  V30 1504 H 131.787 6.69699 0.543425 0
M  V30 1505 N 134.507 -0.190092 1.56449 0
M  V30 1506 C 135.437 -1.23816 1.97969 0
M  V30 1507 C 136.418 -1.47201 0.852395 0
M  V30 1508 O 137.603 -1.58854 1.1171 0
M  V30 1509 C 134.733 -2.5813 2.3235 0
M  V30 1510 C 133.687 -2.49348 3.47864 0
M  V30 1511 C 133.013 -3.8798 3.67934 0
M  V30 1512 C 134.313 -2.01424 4.81898 0
M  V30 1513 H 136.007 -0.89311 2.85769 0
M  V30 1514 H 133.553 -0.428177 1.37487 0
M  V30 1515 H 135.506 -3.31637 2.59991 0
M  V30 1516 H 134.23 -2.94386 1.41438 0
M  V30 1517 H 132.889 -1.78297 3.20321 0
M  V30 1518 H 132.537 -4.21597 2.74344 0
M  V30 1519 H 132.237 -3.82978 4.45648 0
M  V30 1520 H 133.761 -4.63101 3.97957 0
M  V30 1521 H 135.175 -2.64693 5.08538 0
M  V30 1522 H 133.572 -2.07413 5.63116 0
M  V30 1523 H 134.642 -0.967677 4.75146 0
M  V30 1524 N 135.985 -1.50799 -0.457987 0
M  V30 1525 C 136.915 -1.73553 -1.5621 0
M  V30 1526 C 137.896 -0.584774 -1.59732 0
M  V30 1527 O 139.081 -0.825314 -1.7579 0
M  V30 1528 C 136.211 -1.84169 -2.94447 0
M  V30 1529 C 135.165 -2.99461 -3.0579 0
M  V30 1530 C 134.491 -2.95235 -4.45803 0
M  V30 1531 C 135.791 -4.39766 -2.81786 0
M  V30 1532 H 137.485 -2.66 -1.37421 0
M  V30 1533 H 135.031 -1.28002 -0.659662 0
M  V30 1534 H 136.984 -1.98672 -3.71628 0
M  V30 1535 H 135.708 -0.883545 -3.14422 0
M  V30 1536 H 134.367 -2.8463 -2.31044 0
M  V30 1537 H 134.015 -1.97239 -4.62715 0
M  V30 1538 H 133.715 -3.72642 -4.54326 0
M  V30 1539 H 135.239 -3.11803 -5.24987 0
M  V30 1540 H 136.653 -4.55054 -3.4871 0
M  V30 1541 H 135.05 -5.18722 -3.0174 0
M  V30 1542 H 136.12 -4.51229 -1.7754 0
M  V30 1543 N 137.463 0.71206 -1.40597 0
M  V30 1544 C 138.712 1.46754 -1.38369 0
M  V30 1545 C 139.025 1.95598 0.0097839 0
M  V30 1546 O 140.231 2.71059 0.154677 0
M  V30 1547 C 138.687 2.65289 -2.43207 0
M  V30 1548 C 138.295 2.23301 -3.88382 0
M  V30 1549 C 140.039 3.43008 -2.50091 0
M  V30 1550 C 137.946 3.38696 -4.84808 0
M  V30 1551 H 136.876 0.55118 -0.514506 0
M  V30 1552 H 139.527 0.774616 -1.66349 0
M  V30 1553 H 137.909 3.36769 -2.08332 0
M  V30 1554 H 139.083 1.59218 -4.32419 0
M  V30 1555 H 137.398 1.58618 -3.85006 0
M  V30 1556 H 139.995 4.28881 -3.1932 0
M  V30 1557 H 140.338 3.87065 -1.53253 0
M  V30 1558 H 140.871 2.78574 -2.83974 0
M  V30 1559 H 137.61 2.99668 -5.82992 0
M  V30 1560 H 137.13 4.01683 -4.45433 0
M  V30 1561 H 138.809 4.04712 -5.04794 0
M  V30 1562 N 138.941 1.26152 0.944643 0
M  V30 1563 C 140.189 1.11271 1.6871 0
M  V30 1564 C 140.51 -0.345166 1.91921 0
M  V30 1565 O 139.78 -1.24387 1.51343 0
M  V30 1566 H 138.36 0.408783 0.625224 0
M  V30 1567 H 141.022 1.58427 1.1352 0
M  V30 1568 H 140.118 1.62879 2.66227 0
M  V30 1569 N 140.419 -1.14872 1.07899 0
M  V30 1570 C 141.665 -1.86064 0.806725 0
M  V30 1571 C 141.998 -1.82434 -0.665706 0
M  V30 1572 O 141.273 -1.25138 -1.48899 0
M  V30 1573 C 141.556 -3.34929 1.32267 0
M  V30 1574 C 141.409 -3.47161 2.86006 0
M  V30 1575 C 142.728 -4.29863 0.943717 0
M  V30 1576 H 139.847 -0.675591 0.294526 0
M  V30 1577 H 142.489 -1.34925 1.33773 0
M  V30 1578 H 140.639 -3.78611 0.870974 0
M  V30 1579 H 142.311 -3.12302 3.39507 0
M  V30 1580 H 140.554 -2.88539 3.23925 0
M  V30 1581 H 141.225 -4.51777 3.17177 0
M  V30 1582 H 143.701 -3.9417 1.33302 0
M  V30 1583 H 142.577 -5.32494 1.33198 0
M  V30 1584 H 142.838 -4.41846 -0.149796 0
M  V30 1585 N 141.898 -0.863906 -1.31812 0
M  V30 1586 C 143.123 -0.48527 -2.01643 0
M  V30 1587 C 143.548 0.913058 -1.64453 0
M  V30 1588 O 142.906 1.6014 -0.849985 0
M  V30 1589 C 142.954 -0.642625 -3.54828 0
M  V30 1590 O 142.058 0.320659 -4.11151 0
M  V30 1591 H 141.399 -0.193793 -0.635091 0
M  V30 1592 H 143.929 -1.16565 -1.68148 0
M  V30 1593 H 143.939 -0.533628 -4.04495 0
M  V30 1594 H 142.614 -1.66227 -3.81237 0
M  V30 1595 H 141.191 0.167126 -3.72525 0
M  V30 1596 N 143.376 1.44774 -0.622745 0
M  V30 1597 C 144.601 2.06999 -0.128968 0
M  V30 1598 C 145.026 1.4617 1.1839 0
M  V30 1599 O 144.384 0.560007 1.72434 0
M  V30 1600 C 144.432 3.60595 -0.0188351 0
M  V30 1601 O 143.536 3.99398 1.02739 0
M  V30 1602 H 142.877 0.659047 -0.0809544 0
M  V30 1603 H 145.407 1.85784 -0.85705 0
M  V30 1604 H 145.417 4.07627 0.174476 0
M  V30 1605 H 144.092 4.04252 -0.977384 0
M  V30 1606 H 142.669 3.64011 0.809326 0
M  V30 1607 N 144.854 0.36279 1.53368 0
M  V30 1608 C 146.131 -0.284021 1.93527 0
M  V30 1609 C 146.511 -1.66628 1.29608 0
M  V30 1610 O 145.859 -2.23942 0.45413 0
M  V30 1611 C 146.069 -0.337028 3.47369 0
M  V30 1612 C 147.417 -0.578708 4.20638 0
M  V30 1613 O 148.441 -0.418352 3.53735 0
M  V30 1614 O 147.3 -0.89074 5.39192 0
M  V30 1615 H 144.394 -0.169743 0.809393 0
M  V30 1616 H 146.94 0.41537 1.64538 0
M  V30 1617 H 145.712 0.632217 3.86159 0
M  V30 1618 H 145.335 -1.08243 3.82582 0
M  V30 1619 N 146.332 -1.57332 0.0918853 0
M  V30 1620 C 147.748 -1.57389 -0.264766 0
M  V30 1621 C 147.948 -1.10281 -1.68643 0
M  V30 1622 O 147.004 -0.777801 -2.40222 0
M  V30 1623 C 148.317 -3.00648 -0.0561195 0
M  V30 1624 C 149.865 -3.12754 -0.124116 0
M  V30 1625 C 150.34 -4.57965 0.0564972 0
M  V30 1626 N 151.831 -4.632 0.00155611 0
M  V30 1627 C 152.566 -5.73281 0.116598 0
M  V30 1628 N 152.062 -6.92208 0.286294 0
M  V30 1629 N 153.855 -5.6207 0.0580973 0
M  V30 1630 H 146.006 -1.86262 1.02079 0
M  V30 1631 H 148.269 -0.859579 0.399786 0
M  V30 1632 H 147.975 -3.393 0.925669 0
M  V30 1633 H 147.849 -3.68623 -0.799823 0
M  V30 1634 H 150.236 -2.73976 -1.09641 0
M  V30 1635 H 150.317 -2.47377 0.651024 0
M  V30 1636 H 149.961 -4.97436 1.02564 0
M  V30 1637 H 149.891 -5.21399 -0.738297 0
M  V30 1638 H 152.382 -3.77686 -0.127192 0
M  V30 1639 H 152.695 -7.71934 0.365676 0
M  V30 1640 H 151.04 -6.94254 0.32192 0
M  V30 1641 H 154.231 -4.68043 -0.0733204 0
M  V30 1642 H 154.404 -6.47824 0.151203 0
M  V30 1643 N 147.81 0.181792 -1.56548 0
M  V30 1644 C 149.058 0.89832 -1.81038 0
M  V30 1645 C 149.379 1.83232 -0.667164 0
M  V30 1646 O 148.649 1.93372 0.313673 0
M  V30 1647 H 147.229 0.33471 -0.667816 0
M  V30 1648 H 149.891 0.184116 -1.94028 0
M  V30 1649 H 148.987 1.4815 -2.74696 0
M  V30 1650 N 149.288 1.51039 0.449983 0
M  V30 1651 C 150.218 1.74379 1.55288 0
M  V30 1652 C 151.199 0.593236 1.5942 0
M  V30 1653 O 152.384 0.834625 1.7535 0
M  V30 1654 C 149.514 1.85728 2.93466 0
M  V30 1655 C 148.468 3.01078 3.04197 0
M  V30 1656 C 147.794 2.97595 4.44231 0
M  V30 1657 C 149.094 4.41254 2.7945 0
M  V30 1658 H 150.788 2.66725 1.36008 0
M  V30 1659 H 148.334 1.2835 0.652864 0
M  V30 1660 H 150.287 2.0064 3.70569 0
M  V30 1661 H 149.011 0.900207 3.13949 0
M  V30 1662 H 147.67 2.85851 2.29531 0
M  V30 1663 H 147.318 1.99691 4.61663 0
M  V30 1664 H 147.018 3.75046 4.52343 0
M  V30 1665 H 148.542 3.14583 5.23326 0
M  V30 1666 H 149.956 4.56897 3.46292 0
M  V30 1667 H 148.353 5.20315 2.98985 0
M  V30 1668 H 149.423 4.52164 1.75144 0
M  V30 1669 N 150.766 -0.704594 1.40972 0
M  V30 1670 C 152.006 -1.47691 1.41304 0
M  V30 1671 C 152.37 -1.91992 0.0178582 0
M  V30 1672 O 153.571 -2.68599 -0.103996 0
M  V30 1673 C 151.842 -2.66254 2.38419 0
M  V30 1674 S 153.401 -3.55516 2.57204 0
M  V30 1675 H 150.219 -0.504808 0.500689 0
M  V30 1676 H 152.821 -0.822962 1.77335 0
M  V30 1677 H 151.525 -2.31897 3.38603 0
M  V30 1678 H 151.056 -3.3655 2.03711 0
M  V30 1679 H 153.071 -4.61115 1.83268 0
M  V30 1680 N 152.244 -1.26651 -0.937939 0
M  V30 1681 C 153.492 -1.12165 -1.68118 0
M  V30 1682 C 153.813 0.334983 -1.92101 0
M  V30 1683 O 153.083 1.23583 -1.52 0
M  V30 1684 H 151.663 -0.412093 -0.623048 0
M  V30 1685 H 154.325 -1.59027 -1.12678 0
M  V30 1686 H 153.421 -1.64289 -2.6536 0
M  V30 1687 N 153.722 1.14298 -1.08507 0
M  V30 1688 C 154.685 2.17607 -0.719711 0
M  V30 1689 C 155.685 1.58907 0.245997 0
M  V30 1690 O 156.875 1.74181 0.0254081 0
M  V30 1691 C 154.007 3.40842 -0.0627695 0
M  V30 1692 H 155.2 2.51443 -1.63452 0
M  V30 1693 H 152.753 1.28963 -0.88307 0
M  V30 1694 H 153.488 3.12587 0.863716 0
M  V30 1695 H 153.273 3.84713 -0.757504 0
M  V30 1696 H 154.763 4.17221 0.177786 0
M  V30 1697 N 155.201 0.870884 1.31352 0
M  V30 1698 C 156.45 0.478408 1.95944 0
M  V30 1699 C 156.763 -0.974493 1.69597 0
M  V30 1700 O 157.969 -1.47316 2.28058 0
M  V30 1701 C 156.425 0.804609 3.50791 0
M  V30 1702 C 156.033 2.27433 3.85977 0
M  V30 1703 C 157.777 0.480648 4.2177 0
M  V30 1704 C 155.684 2.5429 5.33939 0
M  V30 1705 H 154.614 0.175175 0.733369 0
M  V30 1706 H 157.265 1.06391 1.4951 0
M  V30 1707 H 155.647 0.148347 3.95722 0
M  V30 1708 H 156.821 2.97373 3.52002 0
M  V30 1709 H 155.136 2.56442 3.28065 0
M  V30 1710 H 157.733 0.658519 5.30629 0
M  V30 1711 H 158.076 -0.578979 4.12254 0
M  V30 1712 H 158.609 1.09349 3.82476 0
M  V30 1713 H 155.348 3.58939 5.48491 0
M  V30 1714 H 154.868 1.88945 5.69263 0
M  V30 1715 H 156.547 2.39066 6.01212 0
M  V30 1716 N 156.679 -1.44442 0.630414 0
M  V30 1717 C 157.629 -2.27794 -0.0968103 0
M  V30 1718 C 158.613 -1.38624 -0.816834 0
M  V30 1719 O 159.805 -1.62438 -0.70306 0
M  V30 1720 C 156.934 -3.25929 -1.07819 0
M  V30 1721 C 156.02 -4.22588 -0.357826 0
M  V30 1722 N 156.411 -5.0207 0.613169 0
M  V30 1723 C 154.709 -4.41914 -0.602365 0
M  V30 1724 C 155.41 -5.72351 1.03871 0
M  V30 1725 N 154.386 -5.42287 0.377642 0
M  V30 1726 H 158.188 -2.86653 0.648621 0
M  V30 1727 H 155.702 -1.55871 0.455862 0
M  V30 1728 H 157.699 -3.84399 -1.61378 0
M  V30 1729 H 156.359 -2.68631 -1.82393 0
M  V30 1730 H 157.37 -5.08331 0.990947 0
M  V30 1731 H 154.047 -3.95714 -1.33103 0
M  V30 1732 H 155.437 -6.4619 1.84086 0
M  V30 1733 N 158.157 -0.370918 -1.53173 0
M  V30 1734 C 159.382 0.220293 -2.06227 0
M  V30 1735 C 159.807 1.41243 -1.24225 0
M  V30 1736 O 159.165 1.79387 -0.262645 0
M  V30 1737 C 159.213 0.586663 -3.55796 0
M  V30 1738 O 158.317 1.68317 -3.76488 0
M  V30 1739 H 157.658 0.0308099 -0.663285 0
M  V30 1740 H 160.188 -0.533068 -1.97534 0
M  V30 1741 H 160.198 0.85617 -3.98916 0
M  V30 1742 H 158.873 -0.285013 -4.14922 0
M  V30 1743 H 157.45 1.40881 -3.45264 0
M  V30 1744 N 159.635 1.57281 -0.100228 0
M  V30 1745 C 160.86 1.99302 0.573881 0
M  V30 1746 C 161.285 0.979059 1.60611 0
M  V30 1747 O 160.643 -0.0517803 1.81226 0
M  V30 1748 C 160.691 3.40274 1.19358 0
M  V30 1749 O 159.795 3.41676 2.30935 0
M  V30 1750 H 159.136 0.647944 0.145138 0
M  V30 1751 H 161.666 2.03779 -0.183156 0
M  V30 1752 H 161.676 3.78078 1.53365 0
M  V30 1753 H 160.351 4.13594 0.437385 0
M  V30 1754 H 158.928 3.15672 1.98509 0
M  V30 1755 N 161.113 -0.173488 1.56642 0
M  V30 1756 C 162.362 -0.888758 1.81063 0
M  V30 1757 C 162.675 -1.83506 0.67712 0
M  V30 1758 O 163.881 -2.59254 0.806206 0
M  V30 1759 C 162.337 -1.63091 3.20826 0
M  V30 1760 C 161.945 -0.728357 4.4204 0
M  V30 1761 C 163.689 -2.33454 3.54541 0
M  V30 1762 C 161.596 -1.47062 5.72823 0
M  V30 1763 H 160.526 -0.335618 0.675186 0
M  V30 1764 H 163.177 -0.141712 1.82952 0
M  V30 1765 H 161.559 -2.42263 3.13248 0
M  V30 1766 H 162.733 0.0262449 4.60793 0
M  V30 1767 H 161.048 -0.134492 4.16183 0
M  V30 1768 H 163.645 -2.89578 4.49498 0
M  V30 1769 H 163.988 -3.08687 2.79317 0
M  V30 1770 H 164.521 -1.61227 3.63663 0
M  V30 1771 H 161.26 -0.760658 6.51072 0
M  V30 1772 H 160.78 -2.1986 5.58052 0
M  V30 1773 H 162.459 -2.01868 6.14702 0
M  V30 1774 N 162.591 -1.51276 -0.441967 0
M  V30 1775 C 163.554 -1.7167 -1.51862 0
M  V30 1776 C 164.554 -0.586793 -1.49711 0
M  V30 1777 O 165.744 -0.854276 -1.51815 0
M  V30 1778 C 162.876 -1.76889 -2.91416 0
M  V30 1779 H 164.069 -2.67754 -1.35084 0
M  V30 1780 H 161.622 -1.41196 -0.670333 0
M  V30 1781 H 162.357 -0.826026 -3.13604 0
M  V30 1782 H 162.142 -2.59001 -2.94382 0
M  V30 1783 H 163.632 -1.94522 -3.69528 0
M  V30 1784 N 164.069 0.697108 -1.41344 0
M  V30 1785 C 165.016 1.81106 -1.43071 0
M  V30 1786 C 165.986 1.63632 -0.285275 0
M  V30 1787 O 167.171 1.84504 -0.486091 0
M  V30 1788 C 164.311 3.18975 -1.31715 0
M  V30 1789 C 163.424 3.47892 -2.56115 0
M  V30 1790 C 162.559 4.75367 -2.37064 0
M  V30 1791 C 161.598 4.97247 -3.56948 0
M  V30 1792 N 160.735 6.15947 -3.36977 0
M  V30 1793 H 165.575 1.78965 -2.38276 0
M  V30 1794 H 163.112 0.873975 -1.18322 0
M  V30 1795 H 165.07 3.98615 -1.23133 0
M  V30 1796 H 163.7 3.20297 -0.401183 0
M  V30 1797 H 162.752 2.62669 -2.75153 0
M  V30 1798 H 164.064 3.59962 -3.45295 0
M  V30 1799 H 163.218 5.63059 -2.25941 0
M  V30 1800 H 161.957 4.65541 -1.45338 0
M  V30 1801 H 160.962 4.08004 -3.68527 0
M  V30 1802 H 162.187 5.08934 -4.49626 0
M  V30 1803 H 160.133 6.07336 -2.47949 0
M  V30 1804 H 160.05 6.28777 -4.19732 0
M  V30 1805 H 161.318 7.06377 -3.29623 0
M  V30 1806 N 165.547 1.27147 0.931209 0
M  V30 1807 C 166.479 1.05364 2.03546 0
M  V30 1808 C 167.492 0.0108438 1.62796 0
M  V30 1809 O 168.681 0.25202 1.76712 0
M  V30 1810 C 165.781 0.575566 3.33977 0
M  V30 1811 C 164.954 1.68985 4.03439 0
M  V30 1812 C 164.013 1.20813 5.12143 0
M  V30 1813 O 163.039 1.90712 5.363 0
M  V30 1814 N 164.241 0.0618851 5.80467 0
M  V30 1815 H 167.006 2.00454 2.22796 0
M  V30 1816 H 164.567 1.18666 1.10136 0
M  V30 1817 H 166.559 0.237264 4.04004 0
M  V30 1818 H 165.129 -0.282016 3.11325 0
M  V30 1819 H 164.349 2.19861 3.27192 0
M  V30 1820 H 165.637 2.4378 4.46597 0
M  V30 1821 H 165.035 -0.521621 5.6329 0
M  V30 1822 H 163.592 -0.217264 6.51438 0
M  V30 1823 N 167.025 -1.13721 1.09112 0
M  V30 1824 C 167.958 -2.18094 0.67158 0
M  V30 1825 C 168.936 -1.59414 -0.320299 0
M  V30 1826 O 170.12 -1.87183 -0.222444 0
M  V30 1827 C 167.247 -3.38698 -0.0111189 0
M  V30 1828 C 166.293 -4.15966 0.942055 0
M  V30 1829 S 167.126 -4.7604 2.45246 0
M  V30 1830 C 168.282 -5.99994 1.78208 0
M  V30 1831 H 168.515 -2.53344 1.55577 0
M  V30 1832 H 166.048 -1.24967 0.906789 0
M  V30 1833 H 168.006 -4.08559 -0.398716 0
M  V30 1834 H 166.667 -3.01756 -0.871905 0
M  V30 1835 H 165.86 -5.02318 0.411396 0
M  V30 1836 H 165.462 -3.51745 1.2709 0
M  V30 1837 H 167.754 -6.68441 1.10424 0
M  V30 1838 H 168.697 -6.57662 2.62463 0
M  V30 1839 H 169.105 -5.50432 1.25238 0
M  V30 1840 N 168.503 -0.877838 -1.30888 0
M  V30 1841 C 169.45 -0.337538 -2.28318 0
M  V30 1842 C 170.42 0.568346 -1.56074 0
M  V30 1843 O 171.605 0.498298 -1.84178 0
M  V30 1844 C 168.745 0.448142 -3.42178 0
M  V30 1845 C 167.858 -0.48615 -4.29256 0
M  V30 1846 C 166.993 0.314427 -5.30269 0
M  V30 1847 C 166.032 -0.615791 -6.08995 0
M  V30 1848 N 165.169 0.14902 -7.01942 0
M  V30 1849 H 170.009 -1.17356 -2.73919 0
M  V30 1850 H 167.546 -0.590094 -1.34745 0
M  V30 1851 H 169.504 0.919517 -4.06941 0
M  V30 1852 H 168.134 1.24879 -2.97666 0
M  V30 1853 H 167.186 -1.076 -3.64865 0
M  V30 1854 H 168.498 -1.19909 -4.84173 0
M  V30 1855 H 167.652 0.847969 -6.00745 0
M  V30 1856 H 166.391 1.06062 -4.76027 0
M  V30 1857 H 165.396 -1.16102 -5.37401 0
M  V30 1858 H 166.621 -1.36097 -6.65323 0
M  V30 1859 H 164.567 0.877884 -6.50099 0
M  V30 1860 H 164.484 -0.504433 -7.54315 0
M  V30 1861 H 165.752 0.663537 -7.76671 0
M  V30 1862 N 169.982 1.44106 -0.638065 0
M  V30 1863 C 171.207 2.0685 -0.150916 0
M  V30 1864 C 171.632 1.47417 1.16833 0
M  V30 1865 O 170.99 0.578264 1.71831 0
M  V30 1866 C 171.038 3.60555 -0.05708 0
M  V30 1867 O 170.142 4.00465 0.984972 0
M  V30 1868 H 169.483 0.658151 -0.0879399 0
M  V30 1869 H 172.013 1.84865 -0.876707 0
M  V30 1870 H 172.023 4.07789 0.131232 0
M  V30 1871 H 170.698 4.03193 -1.02021 0
M  V30 1872 H 169.275 3.64849 0.770672 0
M  V30 1873 N 171.46 0.379036 1.52974 0
M  V30 1874 C 172.37 -0.468639 2.29872 0
M  V30 1875 C 173.386 -1.08067 1.36373 0
M  V30 1876 O 174.562 -1.08871 1.69438 0
M  V30 1877 C 171.627 -1.58594 3.083 0
M  V30 1878 C 170.688 -1.00007 4.17489 0
M  V30 1879 C 169.921 -2.06413 4.92168 0
M  V30 1880 O 170.144 -3.27751 4.66835 0
M  V30 1881 O 169.078 -1.68717 5.7777 0
M  V30 1882 H 172.904 0.157508 3.03291 0
M  V30 1883 H 170.489 0.143035 1.48714 0
M  V30 1884 H 172.371 -2.23525 3.57232 0
M  V30 1885 H 171.046 -2.19724 2.37703 0
M  V30 1886 H 169.953 -0.314299 3.72777 0
M  V30 1887 H 171.286 -0.433135 4.90291 0
M  V30 1888 N 172.938 -1.57226 0.108567 0
M  V30 1889 C 174.184 -1.95121 -0.552761 0
M  V30 1890 C 174.517 -0.991345 -1.66991 0
M  V30 1891 O 173.792 -0.0267211 -1.94482 0
M  V30 1892 C 174.075 -3.43039 -1.09528 0
M  V30 1893 C 173.928 -4.49797 0.0177332 0
M  V30 1894 C 175.247 -3.92567 -1.98945 0
M  V30 1895 H 172.366 -0.709496 -0.199461 0
M  V30 1896 H 175.008 -1.89126 0.182011 0
M  V30 1897 H 173.158 -3.48279 -1.72146 0
M  V30 1898 H 174.83 -4.56661 0.652584 0
M  V30 1899 H 173.073 -4.284 0.682309 0
M  V30 1900 H 173.744 -5.50528 -0.402919 0
M  V30 1901 H 176.22 -3.89565 -1.46214 0
M  V30 1902 H 175.096 -4.96605 -2.33827 0
M  V30 1903 H 175.357 -3.32648 -2.91201 0
M  V30 1904 N 174.416 0.165178 -1.56732 0
M  V30 1905 C 175.379 1.18822 -1.95995 0
M  V30 1906 C 176.379 1.3685 -0.84431 0
M  V30 1907 O 177.569 1.34152 -1.11126 0
M  V30 1908 C 174.701 2.5521 -2.26011 0
M  V30 1909 H 175.894 0.851825 -2.87548 0
M  V30 1910 H 173.447 0.407857 -1.50885 0
M  V30 1911 H 174.182 2.93852 -1.37191 0
M  V30 1912 H 173.967 2.43489 -3.07336 0
M  V30 1913 H 175.457 3.28927 -2.57288 0
M  V30 1914 N 175.894 1.51508 0.433938 0
M  V30 1915 C 177.122 1.68157 1.20543 0
M  V30 1916 C 177.537 0.380362 1.84929 0
M  V30 1917 O 176.894 -0.641446 1.70856 0
M  V30 1918 C 176.945 2.79965 2.28696 0
M  V30 1919 O 176.666 4.05045 1.66943 0
M  V30 1920 C 178.167 3.07912 3.18912 0
M  V30 1921 H 175.387 0.56421 0.363191 0
M  V30 1922 H 177.931 1.97941 0.513754 0
M  V30 1923 H 176.086 2.5277 2.93574 0
M  V30 1924 H 176.5 4.67165 2.38448 0
M  V30 1925 H 177.974 3.89719 3.90926 0
M  V30 1926 H 178.451 2.20456 3.79863 0
M  V30 1927 H 179.057 3.36779 2.59731 0
M  V30 1928 N 177.372 -0.689602 1.41712 0
M  V30 1929 C 178.302 -1.81577 1.46806 0
M  V30 1930 C 179.283 -1.66945 0.326105 0
M  V30 1931 O 180.468 -1.86588 0.538377 0
M  V30 1932 C 177.598 -3.19762 1.35535 0
M  V30 1933 C 176.552 -3.49107 2.47605 0
M  V30 1934 C 175.878 -4.86711 2.21397 0
M  V30 1935 C 177.178 -3.47483 3.89939 0
M  V30 1936 H 178.872 -1.7757 2.41058 0
M  V30 1937 H 176.418 -0.852887 1.16025 0
M  V30 1938 H 178.371 -3.98263 1.3771 0
M  V30 1939 H 177.095 -3.24409 0.377708 0
M  V30 1940 H 175.754 -2.72959 2.44722 0
M  V30 1941 H 175.402 -4.8799 1.21961 0
M  V30 1942 H 175.102 -5.0731 2.96497 0
M  V30 1943 H 176.626 -5.67515 2.25297 0
M  V30 1944 H 178.04 -4.1598 3.94505 0
M  V30 1945 H 176.437 -3.79615 4.64771 0
M  V30 1946 H 177.507 -2.46341 4.17665 0
M  V30 1947 N 178.85 -1.27639 -0.924453 0
M  V30 1948 C 180.078 -1.16989 -1.70649 0
M  V30 1949 C 180.493 0.272869 -1.86818 0
M  V30 1950 O 179.85 1.18549 -1.38753 0
M  V30 1951 C 179.901 -1.85229 -3.10439 0
M  V30 1952 O 179.622 -3.23868 -2.95028 0
M  V30 1953 C 181.123 -1.80746 -4.04779 0
M  V30 1954 H 178.343 -0.406595 -0.53378 0
M  V30 1955 H 180.887 -1.68569 -1.15778 0
M  V30 1956 H 179.042 -1.37545 -3.6216 0
M  V30 1957 H 179.456 -3.57889 -3.83426 0
M  V30 1958 H 180.93 -2.33101 -5.00368 0
M  V30 1959 H 181.407 -0.777499 -4.32263 0
M  V30 1960 H 182.013 -2.28059 -3.58984 0
M  V30 1961 N 180.328 1.1314 -1.09713 0
M  V30 1962 C 181.291 2.16831 -0.742751 0
M  V30 1963 C 182.291 1.59159 0.229129 0
M  V30 1964 O 183.481 1.74199 0.00693237 0
M  V30 1965 C 180.613 3.40756 -0.0989168 0
M  V30 1966 H 181.806 2.49695 -1.66109 0
M  V30 1967 H 179.359 1.2802 -0.896699 0
M  V30 1968 H 180.094 3.13485 0.830514 0
M  V30 1969 H 179.879 3.83888 -0.798265 0
M  V30 1970 H 181.369 4.17386 0.133524 0
M  V30 1971 N 181.806 0.884767 1.30421 0
M  V30 1972 C 182.769 0.356277 2.26414 0
M  V30 1973 C 183.769 -0.501124 1.52792 0
M  V30 1974 O 184.959 -0.30831 1.7145 0
M  V30 1975 C 182.091 -0.492316 3.37326 0
M  V30 1976 H 183.284 1.20389 2.74675 0
M  V30 1977 H 180.837 0.661607 1.41607 0
M  V30 1978 H 181.572 -1.36052 2.94381 0
M  V30 1979 H 181.357 0.121832 3.91911 0
M  V30 1980 H 182.847 -0.853871 4.08777 0
M  V30 1981 N 183.284 -1.43765 0.645699 0
M  V30 1982 C 184.532 -2.01499 0.155731 0
M  V30 1983 C 184.853 -1.51151 -1.232 0
M  V30 1984 O 184.123 -0.721044 -1.82148 0
M  V30 1985 H 182.703 -0.745003 0.0545817 0
M  V30 1986 H 185.365 -1.76075 0.835677 0
M  V30 1987 H 184.461 -3.1181 0.134577 0
M  V30 1988 N 184.763 -0.387143 -1.52771 0
M  V30 1989 C 185.71 0.449048 -2.26389 0
M  V30 1990 C 186.68 1.05961 -1.27912 0
M  V30 1991 O 187.865 1.08804 -1.56737 0
M  V30 1992 C 185.005 1.57155 -3.0724 0
M  V30 1993 C 184.118 0.984066 -4.20643 0
M  V30 1994 C 183.253 2.07745 -4.88892 0
M  V30 1995 C 182.292 1.46574 -5.94292 0
M  V30 1996 N 181.429 2.49834 -6.56146 0
M  V30 1997 H 186.269 -0.185205 -2.97424 0
M  V30 1998 H 183.806 -0.103164 -1.46738 0
M  V30 1999 H 185.764 2.23309 -3.52405 0
M  V30 2000 H 184.394 2.17615 -2.38419 0
M  V30 2001 H 183.446 0.212193 -3.79808 0
M  V30 2002 H 184.758 0.497029 -4.96318 0
M  V30 2003 H 183.912 2.81673 -5.3735 0
M  V30 2004 H 182.651 2.59807 -4.12737 0
M  V30 2005 H 181.656 0.711696 -5.45174 0
M  V30 2006 H 182.881 0.953088 -6.72379 0
M  V30 2007 H 180.827 3.0107 -5.82832 0
M  V30 2008 H 180.744 2.05879 -7.27427 0
M  V30 2009 H 182.012 3.23399 -7.09249 0
M  V30 2010 N 186.241 1.57166 -0.116904 0
M  V30 2011 C 187.151 2.18745 0.847812 0
M  V30 2012 C 188.167 1.163 1.29423 0
M  V30 2013 O 189.343 1.48761 1.35765 0
M  V30 2014 C 186.408 2.77307 2.0809 0
M  V30 2015 C 185.469 3.94781 1.68661 0
M  V30 2016 C 184.702 4.50541 2.86091 0
M  V30 2017 O 184.925 4.05202 4.01456 0
M  V30 2018 O 183.859 5.41256 2.63298 0
M  V30 2019 H 187.685 3.01632 0.353778 0
M  V30 2020 H 185.27 1.49005 0.108599 0
M  V30 2021 H 187.152 3.14647 2.80313 0
M  V30 2022 H 185.827 1.97452 2.56504 0
M  V30 2023 H 184.734 3.62214 0.935518 0
M  V30 2024 H 186.067 4.76065 1.24991 0
M  V30 2025 N 187.719 -0.156864 1.56817 0
M  V30 2026 C 188.965 -0.872416 1.83076 0
M  V30 2027 C 189.298 -1.81261 0.697001 0
M  V30 2028 O 188.573 -1.92171 -0.30008 0
M  V30 2029 C 188.856 -1.65551 3.19789 0
M  V30 2030 C 188.709 -0.737467 4.43713 0
M  V30 2031 C 190.028 -2.62012 3.53606 0
M  V30 2032 H 187.147 -0.315715 0.665953 0
M  V30 2033 H 189.789 -0.138004 1.89498 0
M  V30 2034 H 187.939 -2.28159 3.14445 0
M  V30 2035 H 189.611 -0.123143 4.61136 0
M  V30 2036 H 187.854 -0.0464067 4.33775 0
M  V30 2037 H 188.525 -1.32122 5.35955 0
M  V30 2038 H 191.001 -2.09525 3.59497 0
M  V30 2039 H 189.877 -3.13861 4.50314 0
M  V30 2040 H 190.138 -3.42902 2.79053 0
M  V30 2041 N 189.197 -1.51736 -0.425897 0
M  V30 2042 C 190.13 -1.68574 -1.53812 0
M  V30 2043 C 191.108 -0.53328 -1.53606 0
M  V30 2044 O 192.292 -0.758555 -1.72564 0
M  V30 2045 C 189.419 -1.70977 -2.92377 0
M  V30 2046 C 188.465 -2.92324 -3.10563 0
M  V30 2047 S 189.298 -4.52952 -2.85648 0
M  V30 2048 C 190.454 -4.58117 -4.26474 0
M  V30 2049 H 190.687 -2.62647 -1.39298 0
M  V30 2050 H 188.22 -1.41564 -0.616361 0
M  V30 2051 H 190.178 -1.73047 -3.72243 0
M  V30 2052 H 188.839 -0.78061 -3.04245 0
M  V30 2053 H 188.032 -2.90439 -4.11899 0
M  V30 2054 H 187.634 -2.88055 -2.38538 0
M  V30 2055 H 189.926 -4.34462 -5.19855 0
M  V30 2056 H 190.869 -5.59983 -4.33388 0
M  V30 2057 H 191.277 -3.8732 -4.10662 0
M  V30 2058 N 190.675 0.682077 -1.42076 0
M  V30 2059 C 191.605 1.80796 -1.47767 0
M  V30 2060 C 192.586 1.6677 -0.334954 0
M  V30 2061 O 193.771 1.863 -0.548264 0
M  V30 2062 C 190.901 3.19038 -1.37229 0
M  V30 2063 C 189.855 3.47789 -2.49453 0
M  V30 2064 C 189.181 4.8553 -2.23975 0
M  V30 2065 C 190.481 3.45411 -3.91776 0
M  V30 2066 H 192.175 1.7629 -2.41997 0
M  V30 2067 H 189.721 0.846721 -1.16476 0
M  V30 2068 H 191.674 3.97528 -1.39821 0
M  V30 2069 H 190.398 3.24204 -0.394907 0
M  V30 2070 H 189.057 2.71657 -2.46166 0
M  V30 2071 H 188.705 4.87337 -1.24547 0
M  V30 2072 H 188.405 5.0573 -2.99184 0
M  V30 2073 H 189.929 5.66312 -2.28304 0
M  V30 2074 H 191.343 4.13882 -3.96705 0
M  V30 2075 H 189.74 3.77145 -4.66778 0
M  V30 2076 H 190.81 2.44122 -4.18966 0
M  V30 2077 N 192.153 1.28127 0.917671 0
M  V30 2078 C 193.399 1.15223 1.66888 0
M  V30 2079 C 193.732 -0.299293 1.9188 0
M  V30 2080 O 193.007 -1.21805 1.51637 0
M  V30 2081 C 193.29 1.94706 3.02922 0
M  V30 2082 C 193.143 3.47898 2.85109 0
M  V30 2083 C 194.462 1.75939 4.03402 0
M  V30 2084 H 191.581 0.419946 0.605652 0
M  V30 2085 H 194.223 1.57398 1.06423 0
M  V30 2086 H 192.373 1.58864 3.54534 0
M  V30 2087 H 194.045 3.93624 2.40537 0
M  V30 2088 H 192.288 3.7373 2.20246 0
M  V30 2089 H 192.959 3.98765 3.81694 0
M  V30 2090 H 195.435 2.07209 3.60837 0
M  V30 2091 H 194.311 2.33931 4.96556 0
M  V30 2092 H 194.572 0.709877 4.36364 0
M  V30 2093 N 193.631 -1.12557 1.10312 0
M  V30 2094 C 194.879 -1.83675 0.843091 0
M  V30 2095 C 195.2 -1.84435 -0.633131 0
M  V30 2096 O 194.47 -1.30657 -1.45964 0
M  V30 2097 H 193.05 -0.680138 0.308904 0
M  V30 2098 H 195.712 -1.36301 1.39313 0
M  V30 2099 H 194.808 -2.87908 1.2048 0
M  V30 2100 N 195.109 -0.891671 -1.2995 0
M  V30 2101 C 196.358 -0.509521 -1.95158 0
M  V30 2102 C 196.671 0.947388 -1.71125 0
M  V30 2103 O 197.877 1.43669 -2.30372 0
M  V30 2104 C 196.333 -0.860315 -3.49466 0
M  V30 2105 C 195.941 -2.33545 -3.8231 0
M  V30 2106 C 197.685 -0.547687 -4.20952 0
M  V30 2107 C 195.592 -2.62752 -5.29826 0
M  V30 2108 H 194.522 -0.18682 -0.730489 0
M  V30 2109 H 197.173 -1.08756 -1.47798 0
M  V30 2110 H 195.555 -0.211285 -3.95436 0
M  V30 2111 H 196.729 -3.02936 -3.47227 0
M  V30 2112 H 195.044 -2.61629 -3.23944 0
M  V30 2113 H 197.641 -0.742854 -5.29515 0
M  V30 2114 H 197.984 0.51332 -4.13123 0
M  V30 2115 H 198.517 -1.1542 -3.80688 0
M  V30 2116 H 195.256 -3.6762 -5.42712 0
M  V30 2117 H 194.776 -1.97977 -5.66185 0
M  V30 2118 H 196.455 -2.48601 -5.97333 0
M  V30 2119 N 196.587 1.43421 -0.653314 0
M  V30 2120 C 197.835 2.01414 -0.166415 0
M  V30 2121 C 198.156 1.51803 1.22397 0
M  V30 2122 O 197.426 0.730693 1.81763 0
M  V30 2123 H 196.006 0.744703 -0.0585319 0
M  V30 2124 H 198.668 1.75629 -0.845003 0
M  V30 2125 H 197.764 3.11734 -0.151111 0
M  V30 2126 N 198.065 0.39524 1.52563 0
M  V30 2127 C 199.342 -0.242908 1.94086 0
M  V30 2128 C 199.722 -1.63841 1.33114 0
M  V30 2129 O 199.07 -2.22928 0.501529 0
M  V30 2130 C 199.28 -0.26327 3.48006 0
M  V30 2131 C 200.628 -0.489354 4.21771 0
M  V30 2132 O 201.652 -0.343226 3.54543 0
M  V30 2133 O 200.511 -0.776169 5.4096 0
M  V30 2134 H 197.605 -0.152536 0.812811 0
M  V30 2135 H 200.151 0.450178 1.6362 0
M  V30 2136 H 198.923 0.713985 3.84731 0
M  V30 2137 H 198.546 -1.00103 3.84792 0
M  V30 2138 N 199.544 -1.57102 0.125237 0
M  V30 2139 C 200.491 -2.15641 -0.822655 0
M  V30 2140 C 201.461 -1.08313 -1.25927 0
M  V30 2141 O 202.646 -1.36251 -1.33567 0
M  V30 2142 C 199.786 -2.76504 -2.06494 0
M  V30 2143 C 198.899 -3.98158 -1.67612 0
M  V30 2144 C 198.034 -4.47088 -2.86854 0
M  V30 2145 C 197.073 -5.6126 -2.44242 0
M  V30 2146 N 196.21 -6.04905 -3.56419 0
M  V30 2147 H 201.05 -2.96313 -0.316625 0
M  V30 2148 H 198.587 -1.46388 -0.144588 0
M  V30 2149 H 200.545 -3.09925 -2.79289 0
M  V30 2150 H 199.175 -1.98512 -2.54545 0
M  V30 2151 H 198.227 -3.70858 -0.846661 0
M  V30 2152 H 199.539 -4.80934 -1.32301 0
M  V30 2153 H 198.693 -4.82451 -3.67867 0
M  V30 2154 H 197.432 -3.63275 -3.25396 0
M  V30 2155 H 196.437 -5.25495 -1.61663 0
M  V30 2156 H 197.662 -6.46843 -2.0681 0
M  V30 2157 H 195.608 -5.24032 -3.94623 0
M  V30 2158 H 195.525 -6.82552 -3.25051 0
M  V30 2159 H 196.793 -6.44907 -4.37853 0
M  V30 2160 N 201.022 0.148545 -1.56898 0
M  V30 2161 C 202.271 0.85984 -1.82454 0
M  V30 2162 C 202.584 1.82406 -0.706229 0
M  V30 2163 O 203.79 2.57938 -0.847349 0
M  V30 2164 C 202.246 1.57967 -3.2338 0
M  V30 2165 C 201.854 0.65794 -4.43142 0
M  V30 2166 C 203.598 2.27784 -3.58211 0
M  V30 2167 C 201.505 1.3793 -5.75091 0
M  V30 2168 H 200.435 0.324834 -0.68044 0
M  V30 2169 H 203.086 0.112588 -1.83154 0
M  V30 2170 H 201.468 2.37249 -3.17063 0
M  V30 2171 H 202.642 -0.0995497 -4.60692 0
M  V30 2172 H 200.957 0.0682643 -4.16344 0
M  V30 2173 H 203.554 2.8239 -4.54048 0
M  V30 2174 H 203.897 3.04204 -2.84193 0
M  V30 2175 H 204.43 1.55421 -3.66182 0
M  V30 2176 H 201.169 0.656982 -6.52199 0
M  V30 2177 H 200.689 2.10954 -5.61479 0
M  V30 2178 H 202.368 1.92063 -6.17835 0
M  V30 2179 N 202.5 1.5196 0.417844 0
M  V30 2180 C 203.916 1.40569 0.755816 0
M  V30 2181 C 204.116 0.503316 1.95113 0
M  V30 2182 O 203.172 -0.0341925 2.52477 0
M  V30 2183 C 204.485 2.82947 1.01791 0
M  V30 2184 C 206.033 2.92231 1.12116 0
M  V30 2185 C 206.508 4.35559 1.41608 0
M  V30 2186 N 207.999 4.38753 1.48491 0
M  V30 2187 C 208.734 5.46705 1.7292 0
M  V30 2188 N 208.23 6.64788 1.95011 0
M  V30 2189 N 210.023 5.34209 1.74863 0
M  V30 2190 H 202.174 2.09168 -0.369098 0
M  V30 2191 H 204.437 0.942409 -0.102809 0
M  V30 2192 H 204.143 3.5106 0.212081 0
M  V30 2193 H 204.017 3.23462 1.94042 0
M  V30 2194 H 206.404 2.24304 1.9176 0
M  V30 2195 H 206.485 2.55185 0.177225 0
M  V30 2196 H 206.129 5.04042 0.624848 0
M  V30 2197 H 206.059 4.70133 2.37239 0
M  V30 2198 H 208.55 3.5363 1.33244 0
M  V30 2199 H 208.863 7.42845 2.13076 0
M  V30 2200 H 207.208 6.67869 1.92293 0
M  V30 2201 H 210.399 4.40937 1.57137 0
M  V30 2202 H 210.572 6.18415 1.93563 0
M  V30 2203 N 203.978 -0.674533 1.42435 0
M  V30 2204 C 205.226 -1.43175 1.42637 0
M  V30 2205 C 205.547 -1.94951 0.0438992 0
M  V30 2206 O 204.817 -1.7308 -0.917607 0
M  V30 2207 H 203.397 -0.531307 0.525092 0
M  V30 2208 H 206.059 -0.797006 1.77859 0
M  V30 2209 H 205.155 -2.28463 2.12629 0
M  V30 2210 N 205.456 -1.28612 -0.910864 0
M  V30 2211 C 206.705 -1.15311 -1.65488 0
M  V30 2212 C 207.018 0.296999 -1.93332 0
M  V30 2213 O 208.224 0.551168 -2.65847 0
M  V30 2214 C 206.68 -2.01599 -2.98137 0
M  V30 2215 C 206.288 -3.51367 -2.7793 0
M  V30 2216 C 208.032 -1.96993 -3.76024 0
M  V30 2217 C 205.939 -4.29797 -4.06237 0
M  V30 2218 H 204.869 -0.42796 -0.620779 0
M  V30 2219 H 207.52 -1.53166 -1.01057 0
M  V30 2220 H 205.902 -1.56603 -3.63719 0
M  V30 2221 H 207.076 -4.0434 -2.21011 0
M  V30 2222 H 205.391 -3.57529 -2.13452 0
M  V30 2223 H 207.988 -2.52856 -4.71135 0
M  V30 2224 H 208.331 -0.94733 -4.05378 0
M  V30 2225 H 208.864 -2.39973 -3.17266 0
M  V30 2226 H 205.603 -5.32648 -3.82055 0
M  V30 2227 H 205.123 -3.81596 -4.62757 0
M  V30 2228 H 206.802 -4.39869 -4.74473 0
M  V30 2229 N 206.934 1.1197 -1.10907 0
M  V30 2230 C 207.864 2.19928 -0.784473 0
M  V30 2231 C 208.845 1.6833 0.244726 0
M  V30 2232 O 210.03 1.93892 0.109418 0
M  V30 2233 C 207.16 3.46597 -0.220827 0
M  V30 2234 C 206.114 4.11376 -1.18127 0
M  V30 2235 C 205.44 5.32554 -0.478594 0
M  V30 2236 C 206.74 4.56945 -2.52979 0
M  V30 2237 H 208.434 2.47337 -1.68715 0
M  V30 2238 H 205.98 1.18879 -0.812642 0
M  V30 2239 H 207.933 4.21396 0.0184278 0
M  V30 2240 H 206.657 3.1863 0.717113 0
M  V30 2241 H 205.316 3.38564 -1.40606 0
M  V30 2242 H 204.964 5.00856 0.463976 0
M  V30 2243 H 204.664 5.76844 -1.11912 0
M  V30 2244 H 206.188 6.10096 -0.248 0
M  V30 2245 H 207.602 5.23093 -2.3462 0
M  V30 2246 H 205.999 5.1203 -3.12962 0
M  V30 2247 H 207.069 3.70676 -3.12614 0
M  V30 2248 N 208.412 0.89855 1.29475 0
M  V30 2249 C 209.642 0.538479 1.99459 0
M  V30 2250 C 210.05 -0.880922 1.67441 0
M  V30 2251 O 209.393 -1.59283 0.915127 0
M  V30 2252 C 209.455 0.649564 3.53583 0
M  V30 2253 C 209.119 2.03573 4.09154 0
M  V30 2254 C 210.116 3.00675 4.24135 0
M  V30 2255 C 207.801 2.3448 4.44212 0
M  V30 2256 C 209.795 4.26809 4.73405 0
M  V30 2257 C 207.482 3.60857 4.93179 0
M  V30 2258 C 208.48 4.56836 5.0773 0
M  V30 2259 O 208.168 5.80969 5.55635 0
M  V30 2260 H 207.9 0.205372 0.644048 0
M  V30 2261 H 210.454 1.20958 1.66007 0
M  V30 2262 H 208.684 -0.0785592 3.8662 0
M  V30 2263 H 210.373 0.29881 4.04799 0
M  V30 2264 H 211.139 2.78112 3.97339 0
M  V30 2265 H 207.018 1.60534 4.32145 0
M  V30 2266 H 210.562 5.0173 4.84678 0
M  V30 2267 H 206.459 3.83251 5.19412 0
M  V30 2268 H 207.227 5.83542 5.73952 0
M  V30 2269 N 209.89 -1.43072 0.660911 0
M  V30 2270 C 211.306 -1.56169 0.329173 0
M  V30 2271 C 211.506 -1.64317 -1.16629 0
M  V30 2272 O 210.562 -1.60245 -1.95135 0
M  V30 2273 C 211.875 -2.81873 1.04729 0
M  V30 2274 C 213.423 -2.95627 1.02828 0
M  V30 2275 C 213.898 -4.24174 1.72744 0
M  V30 2276 N 215.389 -4.31055 1.69545 0
M  V30 2277 C 216.124 -5.29304 2.20511 0
M  V30 2278 N 215.62 -6.33786 2.79799 0
M  V30 2279 N 217.413 -5.21008 2.10966 0
M  V30 2280 H 209.564 -1.36027 1.63127 0
M  V30 2281 H 211.827 -0.653823 0.686454 0
M  V30 2282 H 211.533 -2.81942 2.10242 0
M  V30 2283 H 211.407 -3.72338 0.603702 0
M  V30 2284 H 213.794 -2.95094 -0.0184742 0
M  V30 2285 H 213.875 -2.06431 1.51063 0
M  V30 2286 H 213.519 -4.25467 2.7738 0
M  V30 2287 H 213.449 -5.1228 1.2197 0
M  V30 2288 H 215.94 -3.56174 1.26288 0
M  V30 2289 H 216.253 -7.05086 3.16344 0
M  V30 2290 H 214.598 -6.34387 2.83863 0
M  V30 2291 H 217.789 -4.38301 1.64347 0
M  V30 2292 H 217.962 -5.97416 2.50993 0
M  V30 2293 N 211.368 -0.403325 -1.52352 0
M  V30 2294 C 212.596 0.174012 -2.06167 0
M  V30 2295 C 213.011 1.39347 -1.27388 0
M  V30 2296 O 212.368 1.79597 -0.324201 0
M  V30 2297 C 212.419 0.530223 -3.5759 0
M  V30 2298 O 212.14 -0.640806 -4.33388 0
M  V30 2299 C 213.641 1.16192 -4.27802 0
M  V30 2300 H 210.861 0.0229464 -0.670608 0
M  V30 2301 H 213.405 -0.572604 -1.9632 0
M  V30 2302 H 211.56 1.22673 -3.67464 0
M  V30 2303 H 211.974 -0.344851 -5.23365 0
M  V30 2304 H 213.448 1.36141 -5.34948 0
M  V30 2305 H 213.925 2.13335 -3.83907 0
M  V30 2306 H 214.531 0.505775 -4.22282 0
M  V30 2307 N 212.846 1.57033 -0.133567 0
M  V30 2308 C 213.796 2.12641 0.822671 0
M  V30 2309 C 214.78 1.05081 1.21847 0
M  V30 2310 O 215.972 1.31287 1.18713 0
M  V30 2311 C 213.101 2.74094 2.06706 0
M  V30 2312 C 212.187 3.88757 1.69497 0
M  V30 2313 N 212.578 4.95194 1.03037 0
M  V30 2314 C 210.876 3.99213 1.98859 0
M  V30 2315 C 211.577 5.75414 0.852873 0
M  V30 2316 N 210.553 5.25726 1.3825 0
M  V30 2317 H 214.355 2.92308 0.305537 0
M  V30 2318 H 211.869 1.62256 0.0684276 0
M  V30 2319 H 213.866 3.12285 2.76195 0
M  V30 2320 H 212.526 1.95896 2.5895 0
M  V30 2321 H 213.537 5.13247 0.692669 0
M  V30 2322 H 210.214 3.32075 2.53047 0
M  V30 2323 H 211.604 6.71089 0.330091 0
M  V30 2324 N 214.325 -0.140222 1.56975 0
M  V30 2325 C 215.55 -0.870414 1.88251 0
M  V30 2326 C 215.975 -1.73637 0.723312 0
M  V30 2327 O 215.333 -1.78329 -0.32689 0
M  V30 2328 C 215.381 -1.69737 3.18154 0
M  V30 2329 O 214.485 -2.80229 3.02565 0
M  V30 2330 H 213.826 -0.242025 0.61832 0
M  V30 2331 H 216.356 -0.128999 2.04193 0
M  V30 2332 H 216.366 -2.09099 3.50345 0
M  V30 2333 H 215.041 -1.06152 4.02125 0
M  V30 2334 H 213.618 -2.44224 2.81796 0
M  V30 2335 N 215.803 -1.52179 -0.40978 0
M  V30 2336 C 217.08 -1.56769 -1.16974 0
M  V30 2337 C 217.46 -0.348322 -2.08206 0
M  V30 2338 O 216.808 0.664862 -2.18613 0
M  V30 2339 C 217.018 -2.89603 -1.9476 0
M  V30 2340 C 218.366 -3.42579 -2.50849 0
M  V30 2341 O 219.39 -2.91338 -2.04941 0
M  V30 2342 O 218.249 -4.32054 -3.34652 0
M  V30 2343 H 215.343 -0.631439 -0.534054 0
M  V30 2344 H 217.889 -1.64507 -0.416613 0
M  V30 2345 H 216.661 -3.698 -1.27921 0
M  V30 2346 H 216.284 -2.85155 -2.77079 0
M  V30 2347 N 217.281 0.66697 -1.42791 0
M  V30 2348 C 218.213 1.7925 -1.42836 0
M  V30 2349 C 219.226 1.59496 -0.326333 0
M  V30 2350 O 220.415 1.6847 -0.589916 0
M  V30 2351 C 217.515 3.16476 -1.21229 0
M  V30 2352 C 216.688 3.63011 -2.44013 0
M  V30 2353 C 215.747 4.78993 -2.17834 0
M  V30 2354 O 214.773 4.89137 -2.91091 0
M  V30 2355 N 215.975 5.68248 -1.18635 0
M  V30 2356 H 218.74 1.79695 -2.39854 0
M  V30 2357 H 216.301 0.850338 -1.37771 0
M  V30 2358 H 218.293 3.91734 -1.01621 0
M  V30 2359 H 216.863 3.10884 -0.32706 0
M  V30 2360 H 216.083 2.78346 -2.79137 0
M  V30 2361 H 217.371 3.90845 -3.25757 0
M  V30 2362 H 216.769 5.62712 -0.580615 0
M  V30 2363 H 215.326 6.43285 -1.05013 0
M  V30 2364 N 218.759 1.29093 0.90403 0
M  V30 2365 C 220.006 1.16813 1.65411 0
M  V30 2366 C 220.334 -0.28128 1.92455 0
M  V30 2367 O 219.589 -1.22006 1.53013 0
M  V30 2368 C 219.888 1.92224 3.01305 0
M  V30 2369 C 219.554 3.41968 2.93885 0
M  V30 2370 C 218.216 3.82807 2.91569 0
M  V30 2371 C 220.568 4.37409 2.83413 0
M  V30 2372 C 217.896 5.1741 2.76594 0
M  V30 2373 C 220.248 5.72097 2.69977 0
M  V30 2374 C 218.912 6.12199 2.66024 0
M  V30 2375 H 218.182 0.42745 0.605283 0
M  V30 2376 H 220.829 1.59981 1.05254 0
M  V30 2377 H 219.134 1.41635 3.65304 0
M  V30 2378 H 220.831 1.80131 3.58265 0
M  V30 2379 H 217.421 3.09504 2.96488 0
M  V30 2380 H 221.605 4.06813 2.84283 0
M  V30 2381 H 216.861 5.47596 2.71935 0
M  V30 2382 H 221.035 6.45704 2.60844 0
M  V30 2383 H 218.662 7.16448 2.54178 0
M  V30 2384 N 220.237 -1.11381 1.11499 0
M  V30 2385 C 221.167 -2.19509 0.796125 0
M  V30 2386 C 222.148 -1.68458 -0.235796 0
M  V30 2387 O 223.333 -1.93947 -0.0991344 0
M  V30 2388 C 220.463 -3.46475 0.239205 0
M  V30 2389 C 219.417 -4.10744 1.20307 0
M  V30 2390 C 218.743 -5.32293 0.50683 0
M  V30 2391 C 220.043 -4.55597 2.55399 0
M  V30 2392 H 221.737 -2.46439 1.70024 0
M  V30 2393 H 219.283 -1.18446 0.818935 0
M  V30 2394 H 221.236 -4.214 0.00392006 0
M  V30 2395 H 219.96 -3.19006 -0.700206 0
M  V30 2396 H 218.619 -3.37813 1.42399 0
M  V30 2397 H 218.267 -5.01095 -0.437408 0
M  V30 2398 H 217.967 -5.76243 1.1497 0
M  V30 2399 H 219.491 -6.09956 0.280351 0
M  V30 2400 H 220.905 -5.21841 2.37391 0
M  V30 2401 H 219.302 -5.10363 3.15673 0
M  V30 2402 H 220.372 -3.69013 3.14575 0
M  V30 2403 N 221.715 -0.905404 -1.28997 0
M  V30 2404 C 222.961 -0.535039 -1.95615 0
M  V30 2405 C 223.294 0.917404 -1.71165 0
M  V30 2406 O 222.569 1.65123 -1.02785 0
M  V30 2407 C 222.852 -0.834918 -3.50287 0
M  V30 2408 C 222.705 -2.33948 -3.84172 0
M  V30 2409 C 224.024 -0.325318 -4.38896 0
M  V30 2410 H 221.143 -0.195861 -0.710498 0
M  V30 2411 H 223.785 -1.13313 -1.52513 0
M  V30 2412 H 221.935 -0.325904 -3.87131 0
M  V30 2413 H 223.607 -2.91847 -3.57243 0
M  V30 2414 H 221.85 -2.79789 -3.31513 0
M  V30 2415 H 222.521 -2.49987 -4.92149 0
M  V30 2416 H 224.997 -0.761256 -4.09077 0
M  V30 2417 H 223.873 -0.564295 -5.45992 0
M  V30 2418 H 224.134 0.774144 -4.35269 0
M  V30 2419 N 223.193 1.4272 -0.668489 0
M  V30 2420 C 224.156 2.292 0.00448567 0
M  V30 2421 C 225.156 1.43001 0.735339 0
M  V30 2422 O 226.346 1.64461 0.57429 0
M  V30 2423 C 223.478 3.25375 1.01705 0
M  V30 2424 H 224.671 2.90199 -0.756608 0
M  V30 2425 H 222.224 1.50254 -0.430506 0
M  V30 2426 H 222.959 2.69301 1.80686 0
M  V30 2427 H 222.744 3.88944 0.496463 0
M  V30 2428 H 224.234 3.90245 1.48655 0
M  V30 2429 N 224.671 0.411399 1.52136 0
M  V30 2430 C 225.918 -0.163645 2.01838 0
M  V30 2431 C 226.246 -1.4495 1.29691 0
M  V30 2432 O 225.501 -1.91725 0.392431 0
M  V30 2433 C 225.8 -0.455872 3.54481 0
M  V30 2434 C 225.466 0.741055 4.44769 0
M  V30 2435 C 224.128 1.06936 4.69167 0
M  V30 2436 C 226.48 1.54075 4.97906 0
M  V30 2437 C 223.808 2.19851 5.43951 0
M  V30 2438 C 226.16 2.66067 5.73926 0
M  V30 2439 C 224.824 2.99381 5.96596 0
M  V30 2440 H 224.094 -0.0598821 0.738576 0
M  V30 2441 H 226.741 0.553283 1.83333 0
M  V30 2442 H 225.046 -1.2544 3.71177 0
M  V30 2443 H 226.743 -0.913802 3.90449 0
M  V30 2444 H 223.333 0.475192 4.25958 0
M  V30 2445 H 227.517 1.30033 4.78963 0
M  V30 2446 H 222.773 2.46006 5.59724 0
M  V30 2447 H 226.947 3.28419 6.14096 0
M  V30 2448 H 224.574 3.86992 6.54325 0
M  V30 2449 N 226.149 -1.5696 0.141893 0
M  V30 2450 C 227.096 -2.16501 -0.799737 0
M  V30 2451 C 228.066 -1.09643 -1.24771 0
M  V30 2452 O 229.251 -1.3766 -1.32115 0
M  V30 2453 C 226.391 -2.78679 -2.03549 0
M  V30 2454 C 225.504 -3.99914 -1.6338 0
M  V30 2455 C 224.639 -4.50106 -2.82096 0
M  V30 2456 C 223.678 -5.63819 -2.38275 0
M  V30 2457 N 222.815 -6.08651 -3.49983 0
M  V30 2458 H 227.655 -2.96632 -0.285179 0
M  V30 2459 H 225.192 -1.46533 -0.129053 0
M  V30 2460 H 227.15 -3.1287 -2.75986 0
M  V30 2461 H 225.78 -2.012 -2.52425 0
M  V30 2462 H 224.832 -3.71735 -0.807279 0
M  V30 2463 H 226.144 -4.82311 -1.27192 0
M  V30 2464 H 225.298 -4.86325 -3.62729 0
M  V30 2465 H 224.037 -3.66706 -3.21525 0
M  V30 2466 H 223.042 -5.2718 -1.56081 0
M  V30 2467 H 224.267 -6.49 -1.99938 0
M  V30 2468 H 222.213 -5.28188 -3.89042 0
M  V30 2469 H 222.13 -6.85961 -3.17794 0
M  V30 2470 H 223.398 -6.49515 -4.30988 0
M  V30 2471 N 227.627 0.131896 -1.57047 0
M  V30 2472 C 228.537 1.1815 -2.02676 0
M  V30 2473 C 229.553 1.46113 -0.944824 0
M  V30 2474 O 230.729 1.57485 -1.25541 0
M  V30 2475 C 227.794 2.49139 -2.41103 0
M  V30 2476 C 226.855 2.28688 -3.63318 0
M  V30 2477 C 226.088 3.53431 -3.99903 0
M  V30 2478 O 226.311 4.60223 -3.36973 0
M  V30 2479 O 225.245 3.45198 -4.93074 0
M  V30 2480 H 229.071 0.824069 -2.92306 0
M  V30 2481 H 226.656 0.341745 -1.45439 0
M  V30 2482 H 228.538 3.26338 -2.66611 0
M  V30 2483 H 227.213 2.84382 -1.54624 0
M  V30 2484 H 226.12 1.4939 -3.42977 0
M  V30 2485 H 227.453 1.98355 -4.50462 0
M  V30 2486 N 229.106 1.52395 0.401703 0
M  V30 2487 C 230.352 1.67065 1.14966 0
M  V30 2488 C 230.685 0.403052 1.89971 0
M  V30 2489 O 229.96 -0.598774 1.85054 0
M  V30 2490 C 230.243 2.8975 2.13815 0
M  V30 2491 C 230.096 4.26578 1.42658 0
M  V30 2492 C 231.415 3.07965 3.14397 0
M  V30 2493 H 228.534 0.607968 0.416587 0
M  V30 2494 H 231.176 1.84965 0.434511 0
M  V30 2495 H 229.326 2.74619 2.74803 0
M  V30 2496 H 230.998 4.53451 0.847329 0
M  V30 2497 H 229.241 4.27639 0.72849 0
M  V30 2498 H 229.912 5.08483 2.14823 0
M  V30 2499 H 232.388 3.22043 2.63491 0
M  V30 2500 H 231.264 3.95308 3.80819 0
M  V30 2501 H 231.525 2.21611 3.82545 0
M  V30 2502 N 230.584 -0.659388 1.43143 0
M  V30 2503 C 231.832 -1.41654 1.44147 0
M  V30 2504 C 232.153 -1.94893 0.0645739 0
M  V30 2505 O 231.423 -1.74044 -0.899198 0
M  V30 2506 H 230.003 -0.525708 0.530697 0
M  V30 2507 H 232.665 -0.778097 1.78694 0
M  V30 2508 H 231.761 -2.26195 2.1504 0
M  V30 2509 N 232.062 -1.29571 -0.897171 0
M  V30 2510 C 233.478 -1.07637 -1.17841 0
M  V30 2511 C 233.678 0.170713 -2.00776 0
M  V30 2512 O 232.734 0.867768 -2.3712 0
M  V30 2513 C 234.047 -2.3332 -1.8969 0
M  V30 2514 C 235.595 -2.38664 -2.02505 0
M  V30 2515 C 236.07 -3.64157 -2.77765 0
M  V30 2516 N 237.561 -3.64894 -2.85318 0
M  V30 2517 C 238.296 -4.58679 -3.44094 0
M  V30 2518 N 237.792 -5.62799 -4.04017 0
M  V30 2519 N 239.585 -4.46245 -3.41793 0
M  V30 2520 H 231.736 -2.09598 -0.343883 0
M  V30 2521 H 233.999 -0.923333 -0.214848 0
M  V30 2522 H 233.705 -3.24262 -1.36187 0
M  V30 2523 H 233.579 -2.41025 -2.9015 0
M  V30 2524 H 235.966 -1.48208 -2.55183 0
M  V30 2525 H 236.047 -2.34943 -1.01171 0
M  V30 2526 H 235.691 -4.54965 -2.25763 0
M  V30 2527 H 235.621 -3.65137 -3.7945 0
M  V30 2528 H 238.112 -2.89613 -2.42761 0
M  V30 2529 H 238.425 -6.3048 -4.46895 0
M  V30 2530 H 236.77 -5.66605 -4.02472 0
M  V30 2531 H 239.961 -3.64094 -2.94199 0
M  V30 2532 H 240.134 -5.19518 -3.87304 0
M  V30 2533 N 233.54 1.10788 -1.12088 0
M  V30 2534 C 234.487 2.17025 -0.785407 0
M  V30 2535 C 235.457 1.64265 0.246191 0
M  V30 2536 O 236.642 1.90412 0.121584 0
M  V30 2537 C 233.782 3.44249 -0.242177 0
M  V30 2538 C 232.895 4.1098 -1.33115 0
M  V30 2539 C 232.03 5.25911 -0.747741 0
M  V30 2540 C 231.069 5.84538 -1.81609 0
M  V30 2541 N 230.206 6.90853 -1.25167 0
M  V30 2542 H 235.046 2.45066 -1.69548 0
M  V30 2543 H 232.583 1.20297 -0.846582 0
M  V30 2544 H 234.541 4.17101 0.0908026 0
M  V30 2545 H 233.171 3.16571 0.631072 0
M  V30 2546 H 232.223 3.36133 -1.78097 0
M  V30 2547 H 233.535 4.50601 -2.13917 0
M  V30 2548 H 232.689 6.056 -0.365216 0
M  V30 2549 H 231.428 4.87614 0.0915188 0
M  V30 2550 H 230.433 5.03522 -2.20785 0
M  V30 2551 H 231.658 6.249 -2.6585 0
M  V30 2552 H 229.604 6.54562 -0.434174 0
M  V30 2553 H 229.521 7.29166 -1.99633 0
M  V30 2554 H 230.789 7.7433 -0.896259 0
M  V30 2555 N 235.018 0.912232 1.28515 0
M  V30 2556 C 236.429 0.591352 1.77087 0
M  V30 2557 C 236.78 -0.8933 1.74684 0
M  V30 2558 O 235.905 -1.69876 1.34056 0
M  V30 2559 C 236.5 1.06668 3.2157 0
M  V30 2560 C 235.059 0.79675 3.67871 0
M  V30 2561 C 234.206 1.23427 2.48316 0
M  V30 2562 H 237.157 1.09365 1.15 0
M  V30 2563 H 237.178 0.407455 3.78312 0
M  V30 2564 H 236.69 2.14726 3.23287 0
M  V30 2565 H 234.791 -0.270679 3.71616 0
M  V30 2566 H 234.904 1.40343 4.58084 0
M  V30 2567 H 233.268 0.653036 2.46186 0
M  V30 2568 H 234.051 2.32316 2.52753 0
M  V30 2569 N 236.496 -1.42363 0.676048 0
M  V30 2570 C 237.907 -1.84649 0.275948 0
M  V30 2571 C 238.258 -1.56588 -1.18214 0
M  V30 2572 O 237.383 -1.02634 -1.90513 0
M  V30 2573 C 237.978 -3.35178 0.494053 0
M  V30 2574 C 236.537 -3.76109 0.148061 0
M  V30 2575 C 235.684 -2.65931 0.785891 0
M  V30 2576 H 238.635 -1.32192 0.878121 0
M  V30 2577 H 238.656 -3.79655 -0.25343 0
M  V30 2578 H 238.168 -3.55571 1.55535 0
M  V30 2579 H 236.269 -3.61323 -0.909742 0
M  V30 2580 H 236.382 -4.7546 0.589454 0
M  V30 2581 H 234.746 -2.53773 0.217113 0
M  V30 2582 H 235.529 -2.89146 1.85067 0
M  V30 2583 N 237.974 -0.419461 -1.51915 0
M  V30 2584 C 239.202 0.152136 -2.0634 0
M  V30 2585 C 239.617 1.37988 -1.28859 0
M  V30 2586 O 238.974 1.79243 -0.343232 0
M  V30 2587 C 239.025 0.492266 -3.58133 0
M  V30 2588 O 238.746 -0.686736 -4.32684 0
M  V30 2589 C 240.247 1.11648 -4.2901 0
M  V30 2590 H 237.467 0.0158325 -0.670813 0
M  V30 2591 H 240.011 -0.593394 -1.95702 0
M  V30 2592 H 238.166 1.18769 -3.68745 0
M  V30 2593 H 238.58 -0.400341 -5.2297 0
M  V30 2594 H 240.054 1.3046 -5.36362 0
M  V30 2595 H 240.531 2.09251 -3.86148 0
M  V30 2596 H 241.137 0.460958 -4.22795 0
M  V30 2597 N 239.452 1.56882 -0.150215 0
M  V30 2598 C 240.699 1.96228 0.500093 0
M  V30 2599 C 241.027 1.03522 1.64661 0
M  V30 2600 O 240.282 0.0650683 1.95592 0
M  V30 2601 C 240.581 3.41801 1.04437 0
M  V30 2602 C 240.247 4.50897 0.0159671 0
M  V30 2603 C 238.909 4.8046 -0.266731 0
M  V30 2604 C 241.261 5.16703 -0.683192 0
M  V30 2605 C 238.589 5.73135 -1.25434 0
M  V30 2606 C 240.941 6.10441 -1.65964 0
M  V30 2607 C 239.605 6.38382 -1.95 0
M  V30 2608 H 238.875 0.718048 0.182997 0
M  V30 2609 H 241.522 1.90019 -0.237724 0
M  V30 2610 H 239.827 3.44857 1.85959 0
M  V30 2611 H 241.524 3.69573 1.55618 0
M  V30 2612 H 238.114 4.27891 0.246485 0
M  V30 2613 H 242.298 4.93993 -0.477983 0
M  V30 2614 H 237.554 5.93074 -1.48571 0
M  V30 2615 H 241.728 6.60507 -2.20689 0
M  V30 2616 H 239.355 7.09996 -2.71679 0
M  V30 2617 N 240.93 -0.123565 1.57115 0
M  V30 2618 C 242.178 -0.83051 1.84247 0
M  V30 2619 C 242.499 -1.80629 0.73471 0
M  V30 2620 O 241.769 -1.94403 -0.241688 0
M  V30 2621 H 240.349 -0.309694 0.679778 0
M  V30 2622 H 243.011 -0.111976 1.94578 0
M  V30 2623 H 242.107 -1.37852 2.80006 0
M  V30 2624 N 242.408 -1.52605 -0.393616 0
M  V30 2625 C 243.685 -1.58001 -1.15304 0
M  V30 2626 C 244.065 -0.370385 -2.07825 0
M  V30 2627 O 243.413 0.641638 -2.19306 0
M  V30 2628 C 243.623 -2.91652 -1.91677 0
M  V30 2629 C 244.971 -3.4522 -2.47201 0
M  V30 2630 O 245.995 -2.93495 -2.01839 0
M  V30 2631 O 244.854 -4.35579 -3.3005 0
M  V30 2632 H 241.948 -0.637068 -0.527327 0
M  V30 2633 H 244.494 -1.64939 -0.399141 0
M  V30 2634 H 243.266 -3.71136 -1.23992 0
M  V30 2635 H 242.889 -2.88077 -2.74039 0
M  V30 2636 N 243.887 0.651787 -1.4349 0
M  V30 2637 C 244.85 1.74647 -1.48429 0
M  V30 2638 C 245.85 1.56513 -0.368817 0
M  V30 2639 O 247.04 1.62385 -0.630623 0
M  V30 2640 C 244.172 3.13533 -1.33827 0
M  V30 2641 H 245.365 1.71649 -2.4592 0
M  V30 2642 H 242.918 0.863573 -1.30277 0
M  V30 2643 H 243.653 3.22142 -0.37349 0
M  V30 2644 H 243.438 3.28101 -2.14691 0
M  V30 2645 H 244.928 3.93356 -1.40218 0
M  V30 2646 N 245.365 1.30045 0.890287 0
M  V30 2647 C 246.59 1.21598 1.68014 0
M  V30 2648 C 247.015 -0.218678 1.86825 0
M  V30 2649 O 246.373 -1.15756 1.39536 0
M  V30 2650 C 246.421 1.94434 3.03691 0
M  V30 2651 O 245.525 1.2678 3.92429 0
M  V30 2652 H 244.866 0.420856 0.513592 0
M  V30 2653 H 247.396 1.71775 1.11151 0
M  V30 2654 H 247.406 2.03251 3.5377 0
M  V30 2655 H 246.081 2.98777 2.89318 0
M  V30 2656 H 244.658 1.26282 3.50866 0
M  V30 2657 N 246.843 -1.10192 1.12674 0
M  V30 2658 C 248.089 -1.82475 0.884915 0
M  V30 2659 C 248.422 -1.85093 -0.58773 0
M  V30 2660 O 247.697 -1.3134 -1.43457 0
M  V30 2661 C 247.98 -3.29018 1.46353 0
M  V30 2662 C 247.833 -3.34718 3.00473 0
M  V30 2663 C 249.152 -4.25473 1.12519 0
M  V30 2664 H 246.271 -0.662492 0.322915 0
M  V30 2665 H 248.913 -1.2913 1.39375 0
M  V30 2666 H 247.063 -3.74576 1.03077 0
M  V30 2667 H 248.735 -2.97622 3.52447 0
M  V30 2668 H 246.978 -2.74541 3.35872 0
M  V30 2669 H 247.649 -4.37918 3.36053 0
M  V30 2670 H 250.125 -3.88161 1.499 0
M  V30 2671 H 249.001 -5.26365 1.55663 0
M  V30 2672 H 249.262 -4.42084 0.0377407 0
M  V30 2673 N 248.321 -0.919034 -1.28029 0
M  V30 2674 C 249.57 -0.550802 -1.94034 0
M  V30 2675 C 249.883 0.910877 -1.73096 0
M  V30 2676 O 251.089 1.3875 -2.33368 0
M  V30 2677 C 249.545 -0.934249 -3.47563 0
M  V30 2678 C 249.153 -2.41602 -3.7727 0
M  V30 2679 C 250.897 -0.636854 -4.19696 0
M  V30 2680 C 248.804 -2.73932 -5.24133 0
M  V30 2681 H 247.734 -0.202273 -0.726362 0
M  V30 2682 H 250.385 -1.11867 -1.45458 0
M  V30 2683 H 248.767 -0.295115 -3.94899 0
M  V30 2684 H 249.941 -3.10233 -3.40723 0
M  V30 2685 H 248.256 -2.68441 -3.18321 0
M  V30 2686 H 250.853 -0.855005 -5.2782 0
M  V30 2687 H 251.196 0.425575 -4.14119 0
M  V30 2688 H 251.729 -1.23469 -3.78154 0
M  V30 2689 H 248.468 -3.79049 -5.34792 0
M  V30 2690 H 247.988 -2.09942 -5.61858 0
M  V30 2691 H 249.667 -2.61215 -5.91925 0
M  V30 2692 N 249.799 1.42003 -0.683588 0
M  V30 2693 C 250.762 2.29191 -0.0198243 0
M  V30 2694 C 251.762 1.43773 0.72013 0
M  V30 2695 O 252.952 1.65061 0.556815 0
M  V30 2696 C 250.084 3.26435 0.982487 0
M  V30 2697 H 251.277 2.8938 -0.787345 0
M  V30 2698 H 248.83 1.49789 -0.446418 0
M  V30 2699 H 249.565 2.71203 1.77819 0
M  V30 2700 H 249.35 3.89449 0.455182 0
M  V30 2701 H 250.84 3.918 1.44508 0
M  V30 2702 N 251.277 0.427512 1.51691 0
M  V30 2703 C 252.207 -0.3796 2.30394 0
M  V30 2704 C 253.188 -1.02982 1.35384 0
M  V30 2705 O 254.373 -1.03534 1.643 0
M  V30 2706 C 251.503 -1.48649 3.1388 0
M  V30 2707 C 250.457 -0.960294 4.17088 0
M  V30 2708 C 249.783 -2.16219 4.89033 0
M  V30 2709 C 251.083 -0.00153679 5.223 0
M  V30 2710 H 252.777 0.277164 2.98114 0
M  V30 2711 H 250.323 0.134739 1.43368 0
M  V30 2712 H 252.276 -2.05826 3.67714 0
M  V30 2713 H 251 -2.1714 2.43962 0
M  V30 2714 H 249.659 -0.410806 3.64291 0
M  V30 2715 H 249.307 -2.83307 4.15628 0
M  V30 2716 H 249.007 -1.81654 5.58816 0
M  V30 2717 H 250.531 -2.73968 5.45687 0
M  V30 2718 H 251.945 -0.482687 5.71264 0
M  V30 2719 H 250.342 0.256199 5.99553 0
M  V30 2720 H 251.412 0.938174 4.75738 0
M  V30 2721 N 252.755 -1.56801 0.158532 0
M  V30 2722 C 253.665 -2.20916 -0.789518 0
M  V30 2723 C 254.681 -1.1969 -1.26294 0
M  V30 2724 O 255.857 -1.52308 -1.31773 0
M  V30 2725 C 252.922 -2.82727 -2.00665 0
M  V30 2726 C 251.983 -3.99114 -1.58134 0
M  V30 2727 C 251.216 -4.57968 -2.74045 0
M  V30 2728 O 251.439 -4.15704 -3.90572 0
M  V30 2729 O 250.373 -5.48047 -2.48855 0
M  V30 2730 H 254.199 -3.02464 -0.273681 0
M  V30 2731 H 251.784 -1.4924 -0.0690548 0
M  V30 2732 H 253.666 -3.21968 -2.71872 0
M  V30 2733 H 252.341 -2.04184 -2.51179 0
M  V30 2734 H 251.248 -3.64567 -0.839155 0
M  V30 2735 H 252.581 -4.79212 -1.12325 0
M  V30 2736 N 254.233 0.115231 -1.57178 0
M  V30 2737 C 255.163 1.1423 -2.03651 0
M  V30 2738 C 256.144 1.42967 -0.921655 0
M  V30 2739 O 257.329 1.53343 -1.19162 0
M  V30 2740 C 254.459 2.4675 -2.44401 0
M  V30 2741 C 253.413 2.32467 -3.59365 0
M  V30 2742 C 252.739 3.69984 -3.86026 0
M  V30 2743 C 254.039 1.78203 -4.90959 0
M  V30 2744 H 255.733 0.755749 -2.89705 0
M  V30 2745 H 253.279 0.362093 -1.39373 0
M  V30 2746 H 255.232 3.18854 -2.75517 0
M  V30 2747 H 253.956 2.87302 -1.55322 0
M  V30 2748 H 252.615 1.62811 -3.28463 0
M  V30 2749 H 252.263 4.08028 -2.94147 0
M  V30 2750 H 251.963 3.61279 -4.63412 0
M  V30 2751 H 253.487 4.43587 -4.19599 0
M  V30 2752 H 254.901 2.40128 -5.20587 0
M  V30 2753 H 253.298 1.8031 -5.72371 0
M  V30 2754 H 254.368 0.739876 -4.79222 0
M  V30 2755 N 255.711 1.52812 0.385517 0
M  V30 2756 C 256.641 1.80808 1.47752 0
M  V30 2757 C 257.622 0.660318 1.5676 0
M  V30 2758 O 258.807 0.908246 1.71652 0
M  V30 2759 C 255.937 1.98008 2.85324 0
M  V30 2760 C 254.891 3.13709 2.91154 0
M  V30 2761 C 254.217 3.16169 4.31209 0
M  V30 2762 C 255.517 4.52709 2.60483 0
M  V30 2763 H 257.211 2.72253 1.24573 0
M  V30 2764 H 254.757 1.31003 0.597839 0
M  V30 2765 H 256.71 2.16176 3.61726 0
M  V30 2766 H 255.434 1.03255 3.09848 0
M  V30 2767 H 254.093 2.95329 2.17201 0
M  V30 2768 H 253.741 2.19092 4.52778 0
M  V30 2769 H 253.441 3.93894 4.36029 0
M  V30 2770 H 254.965 3.36496 5.09512 0
M  V30 2771 H 256.379 4.71173 3.26602 0
M  V30 2772 H 254.776 5.32528 2.76648 0
M  V30 2773 H 255.846 4.59186 1.55809 0
M  V30 2774 N 257.189 -0.644168 1.43834 0
M  V30 2775 C 258.137 -1.77793 1.49974 0
M  V30 2776 C 259.131 -1.65253 0.372536 0
M  V30 2777 O 260.337 -1.7149 0.546924 0
M  V30 2778 H 256.712 -0.58675 0.47035 0
M  V30 2779 H 258.683 -1.69736 2.45423 0
M  V30 2780 C 257.432 -3.16087 1.4486 0
M  V30 2781 H 256.755 -3.26378 2.30905 0
M  V30 2782 H 258.195 -3.95349 1.53217 0
M  V30 2783 C 256.654 -3.36484 0.167463 0
M  V30 2784 O 257.184 -3.94298 -0.767609 0
M  V30 2785 N 255.39 -2.90504 0.0747556 0
M  V30 2786 H 254.937 -2.4364 0.836507 0
M  V30 2787 H 254.895 -3.04527 -0.781714 0
M  V30 2788 N 258.668 -1.30515 -0.883378 0
M  V30 2789 C 259.893 -1.22487 -1.67367 0
M  V30 2790 C 260.318 0.208767 -1.86938 0
M  V30 2791 O 259.676 1.15015 -1.40148 0
M  V30 2792 C 259.724 -1.96041 -3.02655 0
M  V30 2793 O 258.828 -1.28859 -3.91751 0
M  V30 2794 H 258.169 -0.423573 -0.511353 0
M  V30 2795 H 260.699 -1.72362 -1.10239 0
M  V30 2796 H 260.709 -2.05124 -3.52687 0
M  V30 2797 H 259.384 -3.00307 -2.8773 0
M  V30 2798 H 257.961 -1.28141 -3.50192 0
M  V30 2799 N 260.146 1.09593 -1.13257 0
M  V30 2800 C 261.394 1.81375 -0.891492 0
M  V30 2801 C 261.715 1.86049 0.584009 0
M  V30 2802 O 260.985 1.34481 1.42449 0
M  V30 2803 H 259.565 0.671708 -0.326828 0
M  V30 2804 H 262.227 1.3256 -1.42877 0
M  V30 2805 H 261.323 2.84612 -1.28071 0
M  V30 2806 N 261.624 0.925811 1.2754 0
M  V30 2807 C 262.854 0.580666 1.98272 0
M  V30 2808 C 263.262 -0.845207 1.69272 0
M  V30 2809 O 262.605 -1.57306 0.948707 0
M  V30 2810 C 262.667 0.724418 3.52126 0
M  V30 2811 C 262.331 2.12206 4.04744 0
M  V30 2812 C 263.328 3.09604 4.17662 0
M  V30 2813 C 261.013 2.4385 4.39138 0
M  V30 2814 C 263.007 4.36755 4.64246 0
M  V30 2815 C 260.694 3.71237 4.85414 0
M  V30 2816 C 261.692 4.67503 4.97926 0
M  V30 2817 O 261.38 5.92624 5.43187 0
M  V30 2818 H 261.112 0.218987 0.639547 0
M  V30 2819 H 263.666 1.24452 1.63404 0
M  V30 2820 H 261.896 0.0034663 3.867 0
M  V30 2821 H 263.585 0.384607 4.04074 0
M  V30 2822 H 264.351 2.86478 3.91351 0
M  V30 2823 H 260.23 1.69665 4.28643 0
M  V30 2824 H 263.774 5.11898 4.73927 0
M  V30 2825 H 259.671 3.94182 5.11166 0
M  V30 2826 H 260.439 5.95585 5.61445 0
M  V30 2827 N 263.102 -1.41638 0.69111 0
M  V30 2828 C 264.012 -2.34588 0.0233487 0
M  V30 2829 C 265.028 -1.55987 -0.770984 0
M  V30 2830 O 266.204 -1.88486 -0.709569 0
M  V30 2831 C 263.269 -3.34684 -0.904851 0
M  V30 2832 C 262.33 -4.29176 -0.103225 0
M  V30 2833 C 261.563 -5.2449 -0.987216 0
M  V30 2834 O 261.786 -5.2514 -2.22674 0
M  V30 2835 O 260.72 -6.00295 -0.439281 0
M  V30 2836 H 264.546 -2.93261 0.789416 0
M  V30 2837 H 262.131 -1.42417 0.45142 0
M  V30 2838 H 264.013 -3.96133 -1.43724 0
M  V30 2839 H 262.688 -2.78461 -1.65049 0
M  V30 2840 H 261.595 -3.71089 0.473655 0
M  V30 2841 H 262.928 -4.88484 0.60365 0
M  V30 2842 N 264.58 -0.43555 -1.51462 0
M  V30 2843 C 265.827 0.131514 -2.02072 0
M  V30 2844 C 266.155 1.42868 -1.31981 0
M  V30 2845 O 265.41 1.91076 -0.422883 0
M  V30 2846 C 265.709 0.39942 -3.55161 0
M  V30 2847 C 265.375 -0.81172 -4.43533 0
M  V30 2848 C 264.037 -1.14387 -4.67407 0
M  V30 2849 C 266.389 -1.61976 -4.95392 0
M  V30 2850 C 263.717 -2.28477 -5.40384 0
M  V30 2851 C 266.069 -2.75164 -5.6962 0
M  V30 2852 C 264.733 -3.08835 -5.91758 0
M  V30 2853 H 264.003 0.0481244 -0.739436 0
M  V30 2854 H 266.65 -0.58238 -1.8243 0
M  V30 2855 H 264.955 1.19519 -3.73125 0
M  V30 2856 H 266.652 0.85157 -3.91854 0
M  V30 2857 H 263.242 -0.542898 -4.25148 0
M  V30 2858 H 267.426 -1.37637 -4.76833 0
M  V30 2859 H 262.682 -2.5488 -5.55739 0
M  V30 2860 H 266.856 -3.38147 -6.08793 0
M  V30 2861 H 264.483 -3.97353 -6.48086 0
M  V30 2862 N 266.058 1.56714 -0.166846 0
M  V30 2863 C 267.335 1.88412 0.525373 0
M  V30 2864 C 267.715 1.07602 1.81618 0
M  V30 2865 O 267.063 0.168621 2.27877 0
M  V30 2866 C 267.273 3.40363 0.771613 0
M  V30 2867 C 268.621 4.10007 1.1036 0
M  V30 2868 O 269.645 3.45655 0.860304 0
M  V30 2869 O 268.504 5.2369 1.56239 0
M  V30 2870 H 265.598 0.781587 0.270278 0
M  V30 2871 H 268.144 1.68458 -0.204946 0
M  V30 2872 H 266.916 3.91046 -0.141093 0
M  V30 2873 H 266.539 3.65914 1.55541 0
M  V30 2874 N 267.536 -0.106894 1.57237 0
M  V30 2875 C 268.446 -1.14911 2.0453 0
M  V30 2876 C 269.462 -1.44592 0.96795 0
M  V30 2877 O 270.638 -1.55468 1.2803 0
M  V30 2878 C 267.703 -2.45272 2.45036 0
M  V30 2879 C 266.764 -2.22879 3.66911 0
M  V30 2880 C 265.997 -3.47024 4.05475 0
M  V30 2881 O 266.22 -4.54804 3.44252 0
M  V30 2882 O 265.154 -3.3731 4.98504 0
M  V30 2883 H 268.98 -0.777461 2.9358 0
M  V30 2884 H 266.565 -0.318563 1.45964 0
M  V30 2885 H 268.447 -3.22055 2.71769 0
M  V30 2886 H 267.122 -2.81886 1.59129 0
M  V30 2887 H 266.029 -1.43915 3.45311 0
M  V30 2888 H 267.362 -1.91163 4.53561 0
M  V30 2889 N 269.014 -1.53014 -0.377408 0
M  V30 2890 C 270.262 -1.6829 -1.11906 0
M  V30 2891 C 270.583 -0.431206 -1.90173 0
M  V30 2892 O 269.853 0.554595 -1.87886 0
M  V30 2893 H 268.433 -0.620371 -0.416112 0
M  V30 2894 H 271.095 -1.90167 -0.426893 0
M  V30 2895 H 270.191 -2.53862 -1.8155 0
M  V30 2896 N 270.492 0.636531 -1.44174 0
M  V30 2897 C 271.717 1.42847 -1.50364 0
M  V30 2898 C 272.142 1.87665 -0.127867 0
M  V30 2899 O 271.5 1.58408 0.88185 0
M  V30 2900 C 271.548 2.62854 -2.4686 0
M  V30 2901 O 270.652 3.62501 -1.9664 0
M  V30 2902 H 269.993 0.427642 -0.507955 0
M  V30 2903 H 272.523 0.777422 -1.89255 0
M  V30 2904 H 272.533 3.10465 -2.64718 0
M  V30 2905 H 271.208 2.29578 -3.46795 0
M  V30 2906 H 269.785 3.21735 -1.88523 0
M  V30 2907 N 271.97 1.30982 0.876444 0
M  V30 2908 C 273.219 1.19658 1.62373 0
M  V30 2909 C 273.532 -0.245636 1.94052 0
M  V30 2910 O 274.738 -0.48049 2.67214 0
M  V30 2911 C 273.194 2.09433 2.92687 0
M  V30 2912 C 272.802 3.58613 2.68516 0
M  V30 2913 C 274.546 2.06893 3.70669 0
M  V30 2914 C 272.453 4.40416 3.94699 0
M  V30 2915 H 271.383 0.444268 0.609214 0
M  V30 2916 H 274.034 1.55791 0.969605 0
M  V30 2917 H 272.416 1.66191 3.59439 0
M  V30 2918 H 273.59 4.10058 2.10212 0
M  V30 2919 H 271.905 3.63063 2.03898 0
M  V30 2920 H 274.502 2.65258 4.64265 0
M  V30 2921 H 274.845 1.05448 4.02724 0
M  V30 2922 H 275.378 2.48301 3.10792 0
M  V30 2923 H 272.117 5.42591 3.67798 0
M  V30 2924 H 271.637 3.93731 4.52477 0
M  V30 2925 H 273.316 4.52294 4.62644 0
M  V30 2926 N 273.449 -1.08991 1.13837 0
M  V30 2927 C 274.698 -1.80631 0.897509 0
M  V30 2928 C 275.011 -1.86872 -0.57777 0
M  V30 2929 O 276.217 -2.54866 -0.935701 0
M  V30 2930 C 274.673 -3.24517 1.55618 0
M  V30 2931 C 274.281 -3.26529 3.0673 0
M  V30 2932 C 276.025 -4.00882 1.3962 0
M  V30 2933 C 273.932 -4.64965 3.65461 0
M  V30 2934 H 272.862 -0.67691 0.332129 0
M  V30 2935 H 275.513 -1.2246 1.3666 0
M  V30 2936 H 273.895 -3.82778 1.01476 0
M  V30 2937 H 275.069 -2.78008 3.67489 0
M  V30 2938 H 273.384 -2.63656 3.22296 0
M  V30 2939 H 275.981 -5.03167 1.80906 0
M  V30 2940 H 276.324 -4.14896 0.341578 0
M  V30 2941 H 276.857 -3.49075 1.90766 0
M  V30 2942 H 273.596 -4.56153 4.70749 0
M  V30 2943 H 273.116 -5.13792 3.09481 0
M  V30 2944 H 274.795 -5.3394 3.654 0
M  V30 2945 N 274.927 -0.932562 -1.27047 0
M  V30 2946 C 276.174 -0.575559 -1.94148 0
M  V30 2947 C 276.502 0.883984 -1.73251 0
M  V30 2948 O 275.757 1.64655 -1.0577 0
M  V30 2949 C 276.056 -0.853713 -3.47054 0
M  V30 2950 C 275.722 -2.29577 -3.88079 0
M  V30 2951 C 274.384 -2.68999 -3.9899 0
M  V30 2952 C 276.736 -3.23331 -4.08787 0
M  V30 2953 C 274.064 -4.01289 -4.28 0
M  V30 2954 C 276.416 -4.55207 -4.39282 0
M  V30 2955 C 275.08 -4.94457 -4.48407 0
M  V30 2956 H 274.35 -0.210612 -0.710439 0
M  V30 2957 H 276.997 -1.17744 -1.51025 0
M  V30 2958 H 275.302 -0.169204 -3.91434 0
M  V30 2959 H 276.999 -0.55639 -3.97121 0
M  V30 2960 H 273.589 -1.97994 -3.80127 0
M  V30 2961 H 277.773 -2.94074 -3.99793 0
M  V30 2962 H 273.029 -4.31374 -4.33275 0
M  V30 2963 H 277.203 -5.27852 -4.54252 0
M  V30 2964 H 274.83 -5.96994 -4.7064 0
M  V30 2965 N 276.405 1.4127 -0.698611 0
M  V30 2966 C 277.353 2.32588 -0.023855 0
M  V30 2967 C 278.347 1.51128 0.765292 0
M  V30 2968 O 279.553 1.67043 0.670571 0
M  V30 2969 H 275.928 0.751918 0.0110871 0
M  V30 2970 H 277.899 2.87167 -0.811031 0
M  V30 2971 C 276.648 3.35947 0.896369 0
M  V30 2972 H 275.971 3.98684 0.298548 0
M  V30 2973 H 277.411 4.02376 1.33676 0
M  V30 2974 C 275.87 2.70076 2.01396 0
M  V30 2975 O 276.4 2.55093 3.10307 0
M  V30 2976 N 274.606 2.28724 1.79259 0
M  V30 2977 H 274.153 2.4111 0.906841 0
M  V30 2978 H 274.111 1.84986 2.54219 0
M  V30 2979 N 277.883 0.443576 1.51229 0
M  V30 2980 C 278.83 -0.364716 2.279 0
M  V30 2981 C 279.8 -1.0114 1.31757 0
M  V30 2982 O 280.985 -1.02912 1.60667 0
M  V30 2983 C 278.125 -1.45644 3.12861 0
M  V30 2984 C 277.238 -0.827269 4.24005 0
M  V30 2985 C 276.373 -1.89456 4.96266 0
M  V30 2986 C 275.412 -1.24416 5.99322 0
M  V30 2987 N 274.549 -2.25309 6.64966 0
M  V30 2988 H 279.389 0.295464 2.96532 0
M  V30 2989 H 276.926 0.157554 1.46254 0
M  V30 2990 H 278.884 -2.10076 3.6045 0
M  V30 2991 H 277.514 -2.08616 2.46331 0
M  V30 2992 H 276.566 -0.0710839 3.80334 0
M  V30 2993 H 277.878 -0.312481 4.9782 0
M  V30 2994 H 277.032 -2.61535 5.47434 0
M  V30 2995 H 275.771 -2.4431 4.22095 0
M  V30 2996 H 274.776 -0.508868 5.4744 0
M  V30 2997 H 276.001 -0.702882 6.75453 0
M  V30 2998 H 273.947 -2.79231 5.93604 0
M  V30 2999 H 273.864 -1.78739 7.34567 0
M  V30 3000 H 275.132 -2.96853 7.20763 0
M  V30 3001 N 279.361 -1.56624 0.175154 0
M  V30 3002 C 280.608 -1.96999 -0.468811 0
M  V30 3003 C 280.936 -1.06129 -1.62994 0
M  V30 3004 O 280.191 -0.0961771 -1.95464 0
M  V30 3005 C 280.49 -3.43419 -0.989864 0
M  V30 3006 C 280.156 -4.50866 0.0557687 0
M  V30 3007 C 278.818 -4.79975 0.343134 0
M  V30 3008 C 281.17 -5.15551 0.765308 0
M  V30 3009 C 278.498 -5.71066 1.34536 0
M  V30 3010 C 280.85 -6.07724 1.75654 0
M  V30 3011 C 279.514 -6.35199 2.05132 0
M  V30 3012 H 278.784 -0.720869 -0.17155 0
M  V30 3013 H 281.431 -1.89616 0.267924 0
M  V30 3014 H 279.736 -3.47772 -1.80449 0
M  V30 3015 H 281.433 -3.72002 -1.49719 0
M  V30 3016 H 278.023 -4.28229 -0.178381 0
M  V30 3017 H 282.207 -4.9317 0.556513 0
M  V30 3018 H 277.463 -5.90635 1.57988 0
M  V30 3019 H 281.637 -6.56912 2.31169 0
M  V30 3020 H 279.264 -7.05584 2.8294 0
M  V30 3021 N 280.839 0.0985539 -1.57292 0
M  V30 3022 C 282.255 0.45267 -1.53046 0
M  V30 3023 C 282.455 1.80713 -0.891342 0
M  V30 3024 O 281.511 2.4785 -0.482375 0
M  V30 3025 C 282.824 0.418341 -2.97776 0
M  V30 3026 C 284.372 0.500443 -3.08973 0
M  V30 3027 C 284.847 0.496297 -4.55303 0
M  V30 3028 N 286.338 0.557151 -4.59837 0
M  V30 3029 C 287.073 0.575726 -5.70502 0
M  V30 3030 N 286.569 0.550714 -6.90608 0
M  V30 3031 N 288.362 0.620277 -5.58667 0
M  V30 3032 H 280.513 -0.788673 -1.97215 0
M  V30 3033 H 282.776 -0.293188 -0.901524 0
M  V30 3034 H 282.482 -0.509659 -3.47988 0
M  V30 3035 H 282.356 1.2386 -3.56284 0
M  V30 3036 H 284.743 1.41886 -2.58751 0
M  V30 3037 H 284.824 -0.347894 -2.53423 0
M  V30 3038 H 284.468 -0.418162 -5.06176 0
M  V30 3039 H 284.398 1.3618 -5.08687 0
M  V30 3040 H 286.889 0.581816 -3.73394 0
M  V30 3041 H 287.202 0.568075 -7.70709 0
M  V30 3042 H 285.547 0.517816 -6.93068 0
M  V30 3043 H 288.738 0.637322 -4.63741 0
M  V30 3044 H 288.911 0.631283 -6.44918 0
M  V30 3045 N 282.317 1.53212 0.369288 0
M  V30 3046 C 283.542 1.73423 1.1375 0
M  V30 3047 C 283.967 0.460404 1.82378 0
M  V30 3048 O 283.325 -0.585298 1.71592 0
M  V30 3049 C 283.373 2.89769 2.1463 0
M  V30 3050 O 282.477 2.58119 3.21634 0
M  V30 3051 H 281.818 0.576061 0.330227 0
M  V30 3052 H 284.348 2.00083 0.427547 0
M  V30 3053 H 284.358 3.15829 2.58294 0
M  V30 3054 H 283.033 3.8217 1.64071 0
M  V30 3055 H 281.61 2.42864 2.82969 0
M  V30 3056 N 283.795 -0.628877 1.44509 0
M  V30 3057 C 285.041 -1.39045 1.47629 0
M  V30 3058 C 285.374 -1.93892 0.109343 0
M  V30 3059 O 284.649 -1.7379 -0.87334 0
M  V30 3060 C 284.932 -2.55408 2.53848 0
M  V30 3061 C 284.785 -2.05896 3.99909 0
M  V30 3062 C 286.104 -3.5759 2.56549 0
M  V30 3063 H 283.223 -0.504232 0.537512 0
M  V30 3064 H 285.865 -0.710854 1.76201 0
M  V30 3065 H 284.015 -3.13384 2.29615 0
M  V30 3066 H 285.687 -1.52734 4.35282 0
M  V30 3067 H 283.93 -1.37061 4.11578 0
M  V30 3068 H 284.601 -2.89681 4.69882 0
M  V30 3069 H 287.077 -3.09419 2.78207 0
M  V30 3070 H 285.953 -4.36527 3.32769 0
M  V30 3071 H 286.214 -4.11808 1.60832 0
M  V30 3072 N 285.273 -1.31445 -0.869486 0
M  V30 3073 C 286.522 -1.20517 -1.61736 0
M  V30 3074 C 286.835 0.235341 -1.94179 0
M  V30 3075 O 288.041 0.466312 -2.67465 0
M  V30 3076 C 286.497 -2.10982 -2.91573 0
M  V30 3077 C 286.105 -3.60032 -2.66611 0
M  V30 3078 C 287.849 -2.08856 -3.69567 0
M  V30 3079 C 285.756 -4.42503 -3.92358 0
M  V30 3080 H 284.686 -0.447493 -0.606849 0
M  V30 3081 H 287.337 -1.56303 -0.96133 0
M  V30 3082 H 285.719 -1.68095 -3.58553 0
M  V30 3083 H 286.893 -4.11167 -2.08035 0
M  V30 3084 H 285.208 -3.64139 -2.0197 0
M  V30 3085 H 287.805 -2.67716 -4.62852 0
M  V30 3086 H 288.148 -1.07582 -4.02159 0
M  V30 3087 H 288.681 -2.49945 -3.09471 0
M  V30 3088 H 285.42 -5.44533 -3.64916 0
M  V30 3089 H 284.94 -3.96125 -4.50383 0
M  V30 3090 H 286.619 -4.54741 -4.60238 0
M  V30 3091 N 286.751 1.08385 -1.14413 0
M  V30 3092 C 287.976 1.85057 -0.936413 0
M  V30 3093 C 288.401 1.81055 0.509971 0
M  V30 3094 O 287.759 1.1958 1.36273 0
M  V30 3095 C 287.807 3.30505 -1.44217 0
M  V30 3096 O 286.911 4.07491 -0.634409 0
M  V30 3097 H 286.252 0.573425 -0.334784 0
M  V30 3098 H 288.782 1.36799 -1.52142 0
M  V30 3099 H 288.792 3.81348 -1.45043 0
M  V30 3100 H 287.467 3.32734 -2.49522 0
M  V30 3101 H 286.044 3.66368 -0.694902 0
M  V30 3102 N 288.23 0.939286 1.26551 0
M  V30 3103 C 289.46 0.601663 1.97645 0
M  V30 3104 C 289.868 -0.827206 1.70159 0
M  V30 3105 O 289.211 -1.56291 0.965338 0
M  V30 3106 C 289.273 0.761725 3.51337 0
M  V30 3107 C 288.937 2.16487 4.0247 0
M  V30 3108 C 289.934 3.14016 4.14355 0
M  V30 3109 C 287.619 2.48494 4.36527 0
M  V30 3110 C 289.613 4.41654 4.59587 0
M  V30 3111 C 287.3 3.76364 4.81449 0
M  V30 3112 C 288.298 4.72758 4.92939 0
M  V30 3113 O 287.986 5.98352 5.36871 0
M  V30 3114 H 287.718 0.225758 0.637189 0
M  V30 3115 H 290.272 1.26178 1.62075 0
M  V30 3116 H 288.502 0.0444808 3.86674 0
M  V30 3117 H 290.191 0.427442 4.03643 0
M  V30 3118 H 290.957 2.90613 3.8829 0
M  V30 3119 H 286.836 1.74202 4.26819 0
M  V30 3120 H 290.38 5.16896 4.68471 0
M  V30 3121 H 286.277 3.99582 5.06956 0
M  V30 3122 H 287.045 6.01507 5.55096 0
M  V30 3123 N 289.708 -1.40897 0.706093 0
M  V30 3124 C 290.655 -2.30751 0.0474474 0
M  V30 3125 C 291.625 -1.47678 -0.76029 0
M  V30 3126 O 292.81 -1.76441 -0.726177 0
M  V30 3127 C 289.95 -3.33815 -0.875309 0
M  V30 3128 C 289.063 -4.31961 -0.0580623 0
M  V30 3129 C 288.198 -5.22093 -0.979425 0
M  V30 3130 C 287.237 -6.11902 -0.155706 0
M  V30 3131 N 286.374 -6.94482 -1.03144 0
M  V30 3132 H 291.214 -2.86513 0.819413 0
M  V30 3133 H 288.751 -1.41102 0.415783 0
M  V30 3134 H 290.709 -3.92129 -1.42446 0
M  V30 3135 H 289.339 -2.79579 -1.61356 0
M  V30 3136 H 288.391 -3.75507 0.608147 0
M  V30 3137 H 289.703 -4.95415 0.580082 0
M  V30 3138 H 288.857 -5.85292 -1.59744 0
M  V30 3139 H 287.596 -4.5889 -1.65141 0
M  V30 3140 H 286.601 -5.47742 0.475309 0
M  V30 3141 H 287.826 -6.77162 0.512635 0
M  V30 3142 H 285.772 -6.33877 -1.68924 0
M  V30 3143 H 285.689 -7.54665 -0.449108 0
M  V30 3144 H 286.957 -7.6214 -1.63593 0
M  V30 3145 N 291.186 -0.45159 -1.50991 0
M  V30 3146 C 292.414 0.108334 -2.06616 0
M  V30 3147 C 292.829 1.35224 -1.31757 0
M  V30 3148 O 292.186 1.78475 -0.381174 0
M  V30 3149 C 292.237 0.41619 -3.59096 0
M  V30 3150 O 291.958 -0.778361 -4.3113 0
M  V30 3151 C 293.459 1.02523 -4.31282 0
M  V30 3152 H 290.679 0.00159995 -0.670998 0
M  V30 3153 H 293.223 -0.634771 -1.94399 0
M  V30 3154 H 291.378 1.10921 -3.71181 0
M  V30 3155 H 291.792 -0.511181 -5.22003 0
M  V30 3156 H 293.266 1.19053 -5.39009 0
M  V30 3157 H 293.743 2.01013 -3.905 0
M  V30 3158 H 294.349 0.371173 -4.23677 0
M  V30 3159 N 292.664 1.56529 -0.183458 0
M  V30 3160 C 293.574 2.22144 0.754272 0
M  V30 3161 C 294.59 1.21684 1.24374 0
M  V30 3162 O 295.766 1.54385 1.29333 0
M  V30 3163 C 292.831 2.85884 1.96141 0
M  V30 3164 C 291.892 4.01579 1.51765 0
M  V30 3165 C 291.125 4.6227 2.66725 0
M  V30 3166 O 291.348 4.21865 3.83909 0
M  V30 3167 O 290.282 5.51936 2.40104 0
M  V30 3168 H 294.108 3.02861 0.225527 0
M  V30 3169 H 291.693 1.49331 0.0453032 0
M  V30 3170 H 293.575 3.26253 2.66715 0
M  V30 3171 H 292.25 2.08154 2.47899 0
M  V30 3172 H 291.157 3.65856 0.781049 0
M  V30 3173 H 292.49 4.80938 1.04686 0
M  V30 3174 N 294.142 -0.090211 1.57342 0
M  V30 3175 C 295.052 -1.12735 2.05738 0
M  V30 3176 C 296.068 -1.43557 0.983231 0
M  V30 3177 O 297.244 -1.54101 1.29672 0
M  V30 3178 C 294.309 -2.42659 2.47624 0
M  V30 3179 C 293.37 -2.18975 3.69254 0
M  V30 3180 C 292.603 -3.42704 4.09133 0
M  V30 3181 O 292.826 -4.51127 3.49057 0
M  V30 3182 O 291.76 -3.32003 5.02053 0
M  V30 3183 H 295.586 -0.746279 2.94388 0
M  V30 3184 H 293.171 -0.303064 1.46294 0
M  V30 3185 H 295.053 -3.19155 2.7517 0
M  V30 3186 H 293.728 -2.80182 1.62109 0
M  V30 3187 H 292.635 -1.40244 3.46818 0
M  V30 3188 H 293.968 -1.86342 4.55563 0
M  V30 3189 N 295.62 -1.53406 -0.361157 0
M  V30 3190 C 296.567 -1.80156 -1.44265 0
M  V30 3191 C 297.537 -0.646183 -1.53015 0
M  V30 3192 O 298.722 -0.888818 -1.68833 0
M  V30 3193 C 295.862 -2.00116 -2.81154 0
M  V30 3194 C 294.975 -3.27833 -2.81335 0
M  V30 3195 C 294.11 -3.37957 -4.09828 0
M  V30 3196 C 293.149 -4.59689 -4.04168 0
M  V30 3197 N 292.286 -4.66942 -5.24318 0
M  V30 3198 H 297.126 -2.72438 -1.20754 0
M  V30 3199 H 294.663 -1.34954 -0.585296 0
M  V30 3200 H 296.621 -2.09677 -3.60682 0
M  V30 3201 H 295.251 -1.11167 -3.03054 0
M  V30 3202 H 294.303 -3.27204 -1.94014 0
M  V30 3203 H 295.615 -4.17442 -2.73027 0
M  V30 3204 H 294.769 -3.46853 -4.97773 0
M  V30 3205 H 293.508 -2.46372 -4.20894 0
M  V30 3206 H 292.513 -4.50889 -3.14609 0
M  V30 3207 H 293.738 -5.5262 -3.947 0
M  V30 3208 H 291.684 -3.7826 -5.35962 0
M  V30 3209 H 291.601 -5.50462 -5.18197 0
M  V30 3210 H 292.869 -4.80127 -6.14084 0
M  V30 3211 N 297.098 0.621204 -1.44841 0
M  V30 3212 C 298.509 1.20298 -1.42777 0
M  V30 3213 C 298.86 1.95639 -0.148259 0
M  V30 3214 O 297.985 2.02955 0.750892 0
M  V30 3215 C 298.58 2.1882 -2.58657 0
M  V30 3216 C 297.139 2.72403 -2.59756 0
M  V30 3217 C 296.286 1.4757 -2.34773 0
M  V30 3218 H 299.237 0.411297 -1.53278 0
M  V30 3219 H 299.258 3.01607 -2.31977 0
M  V30 3220 H 298.77 1.63957 -3.51766 0
M  V30 3221 H 296.871 3.31242 -1.70615 0
M  V30 3222 H 296.984 3.17765 -3.58556 0
M  V30 3223 H 295.348 1.76051 -1.8406 0
M  V30 3224 H 296.131 0.945954 -3.3001 0
M  V30 3225 N 298.576 1.31904 0.862503 0
M  V30 3226 C 299.825 1.21373 1.61094 0
M  V30 3227 C 300.138 -0.22504 1.94301 0
M  V30 3228 O 301.344 -0.452121 2.67709 0
M  V30 3229 C 299.8 2.12525 2.9045 0
M  V30 3230 C 299.408 3.61441 2.64697 0
M  V30 3231 C 301.152 2.10813 3.68454 0
M  V30 3232 C 299.059 4.44578 3.90006 0
M  V30 3233 H 297.989 0.450705 0.604468 0
M  V30 3234 H 300.64 1.56811 0.953027 0
M  V30 3235 H 299.022 1.69994 3.57656 0
M  V30 3236 H 300.196 4.12264 2.05851 0
M  V30 3237 H 298.511 3.65205 2.00036 0
M  V30 3238 H 301.108 2.70167 4.61426 0
M  V30 3239 H 301.451 1.09713 4.01583 0
M  V30 3240 H 301.984 2.51583 3.08141 0
M  V30 3241 H 298.723 5.46461 3.62023 0
M  V30 3242 H 298.243 3.98508 4.48276 0
M  V30 3243 H 299.922 4.57176 4.5782 0
M  V30 3244 N 300.054 -1.07777 1.14986 0
M  V30 3245 C 301.301 -1.8029 0.922056 0
M  V30 3246 C 301.629 -1.86531 -0.55105 0
M  V30 3247 O 300.884 -1.34189 -1.42449 0
M  V30 3248 C 301.183 -3.25495 1.47608 0
M  V30 3249 C 300.849 -3.39361 2.96893 0
M  V30 3250 C 299.511 -3.42852 3.37647 0
M  V30 3251 C 301.863 -3.42512 3.92854 0
M  V30 3252 C 299.191 -3.47094 4.73015 0
M  V30 3253 C 301.543 -3.4829 5.28088 0
M  V30 3254 C 300.207 -3.50058 5.68345 0
M  V30 3255 H 299.477 -0.659727 0.337404 0
M  V30 3256 H 302.124 -1.26854 1.43459 0
M  V30 3257 H 300.429 -3.81683 0.88463 0
M  V30 3258 H 302.126 -3.80168 1.27568 0
M  V30 3259 H 298.716 -3.37339 2.64387 0
M  V30 3260 H 302.9 -3.3904 3.62444 0
M  V30 3261 H 298.156 -3.46758 5.03556 0
M  V30 3262 H 302.33 -3.49675 6.02246 0
M  V30 3263 H 299.957 -3.53097 6.73221 0
M  V30 3264 N 301.532 -0.945985 -1.26051 0
M  V30 3265 C 302.757 -0.612525 -1.98149 0
M  V30 3266 C 303.182 0.806623 -1.69927 0
M  V30 3267 O 302.54 1.54411 -0.950108 0
M  V30 3268 C 302.588 -0.866981 -3.50023 0
M  V30 3269 O 301.692 0.0585333 -4.12358 0
M  V30 3270 H 301.033 -0.23379 -0.621481 0
M  V30 3271 H 303.563 -1.27023 -1.60395 0
M  V30 3272 H 303.573 -0.789792 -4.00283 0
M  V30 3273 H 302.248 -1.90135 -3.69894 0
M  V30 3274 H 300.825 -0.0701241 -3.72834 0
M  V30 3275 N 303.011 1.40521 -0.713556 0
M  V30 3276 C 303.941 2.33381 -0.0743864 0
M  V30 3277 C 304.922 1.52784 0.747735 0
M  V30 3278 O 306.107 1.81258 0.697071 0
M  V30 3279 C 303.237 3.36748 0.849598 0
M  V30 3280 C 302.191 4.27793 0.133247 0
M  V30 3281 C 301.517 5.21679 1.17281 0
M  V30 3282 C 302.817 5.12415 -1.01134 0
M  V30 3283 H 304.511 2.87081 -0.850007 0
M  V30 3284 H 302.057 1.38034 -0.410201 0
M  V30 3285 H 304.01 4.00648 1.30612 0
M  V30 3286 H 302.734 2.81439 1.65709 0
M  V30 3287 H 301.393 3.65342 -0.303426 0
M  V30 3288 H 301.041 4.62677 1.9733 0
M  V30 3289 H 300.741 5.83435 0.698397 0
M  V30 3290 H 302.265 5.88456 1.62947 0
M  V30 3291 H 303.679 5.69781 -0.634274 0
M  V30 3292 H 302.076 5.83203 -1.41399 0
M  V30 3293 H 303.146 4.48514 -1.84292 0
M  V30 3294 N 304.489 0.459591 1.5075 0
M  V30 3295 C 305.437 -0.354678 2.2988 0
M  V30 3296 C 306.431 -1.00086 1.36672 0
M  V30 3297 O 307.637 -0.933277 1.53915 0
M  V30 3298 H 304.012 -0.13321 0.740107 0
M  V30 3299 H 305.983 0.333269 2.96533 0
M  V30 3300 C 304.732 -1.43073 3.169 0
M  V30 3301 H 304.055 -0.942882 3.88523 0
M  V30 3302 H 305.495 -1.97328 3.75284 0
M  V30 3303 C 303.954 -2.42633 2.33732 0
M  V30 3304 O 304.484 -3.47658 2.01238 0
M  V30 3305 N 302.69 -2.14066 1.9653 0
M  V30 3306 H 302.237 -1.28685 2.23155 0
M  V30 3307 H 302.195 -2.80917 1.41185 0
M  V30 3308 N 305.967 -1.56429 0.191757 0
M  V30 3309 C 307.195 -2.01867 -0.453586 0
M  V30 3310 C 307.61 -1.07191 -1.5542 0
M  V30 3311 O 306.967 -0.0762108 -1.82341 0
M  V30 3312 C 307.018 -3.47017 -1.013 0
M  V30 3313 O 306.739 -4.38078 0.0437005 0
M  V30 3314 C 308.24 -4.07956 -1.73456 0
M  V30 3315 H 305.46 -0.661211 -0.114199 0
M  V30 3316 H 308.004 -2.02295 0.299483 0
M  V30 3317 H 306.159 -3.47298 -1.71647 0
M  V30 3318 H 306.573 -5.23178 -0.372212 0
M  V30 3319 H 308.047 -5.1138 -2.07833 0
M  V30 3320 H 308.524 -3.51222 -2.63704 0
M  V30 3321 H 309.13 -4.11437 -1.07702 0
M  V30 3322 N 307.445 0.0818655 -1.57387 0
M  V30 3323 C 308.691 0.784074 -1.8703 0
M  V30 3324 C 309.024 1.77729 -0.782689 0
M  V30 3325 O 308.299 1.93384 0.208051 0
M  V30 3326 C 308.582 1.50105 -3.27323 0
M  V30 3327 C 308.435 0.524925 -4.46727 0
M  V30 3328 C 309.754 2.44843 -3.65705 0
M  V30 3329 H 306.873 0.283582 -0.680257 0
M  V30 3330 H 309.515 0.0474352 -1.89941 0
M  V30 3331 H 307.665 2.12897 -3.24972 0
M  V30 3332 H 309.337 -0.0970111 -4.61198 0
M  V30 3333 H 307.58 -0.160606 -4.33503 0
M  V30 3334 H 308.251 1.064 -5.41648 0
M  V30 3335 H 310.727 1.92135 -3.69085 0
M  V30 3336 H 309.603 2.92018 -4.64776 0
M  V30 3337 H 309.864 3.29197 -2.95096 0
M  V30 3338 N 308.923 1.53595 0.353017 0
M  V30 3339 C 309.886 1.80232 1.41594 0
M  V30 3340 C 310.886 0.673081 1.46035 0
M  V30 3341 O 312.076 0.941335 1.46576 0
M  V30 3342 C 309.208 1.93578 2.80607 0
M  V30 3343 H 310.401 2.75174 1.19244 0
M  V30 3344 H 307.954 1.44864 0.586872 0
M  V30 3345 H 308.689 1.00746 3.08254 0
M  V30 3346 H 308.474 2.75724 2.78781 0
M  V30 3347 H 309.964 2.15735 3.57558 0
M  V30 3348 N 310.401 -0.613514 1.45168 0
M  V30 3349 C 311.626 -1.40437 1.52618 0
M  V30 3350 C 312.051 -1.87438 0.157707 0
M  V30 3351 O 311.409 -1.59791 -0.856537 0
M  V30 3352 C 311.457 -2.58894 2.51011 0
M  V30 3353 O 310.561 -3.59326 2.02382 0
M  V30 3354 H 309.902 -0.419506 0.514695 0
M  V30 3355 H 312.432 -0.747215 1.90467 0
M  V30 3356 H 312.442 -3.06214 2.69624 0
M  V30 3357 H 311.117 -2.24032 3.50403 0
M  V30 3358 H 309.694 -3.18695 1.93618 0
M  V30 3359 N 311.879 -1.3236 -0.855495 0
M  V30 3360 C 312.842 -1.21164 -1.94556 0
M  V30 3361 C 313.842 -0.134908 -1.60233 0
M  V30 3362 O 315.032 -0.385249 -1.69887 0
M  V30 3363 C 312.164 -0.863192 -3.29791 0
M  V30 3364 H 313.357 -2.18038 -2.05911 0
M  V30 3365 H 310.91 -1.16179 -1.04557 0
M  V30 3366 H 311.645 0.103769 -3.24134 0
M  V30 3367 H 311.43 -1.64166 -3.56078 0
M  V30 3368 H 312.92 -0.809156 -4.09686 0
M  V30 3369 N 313.357 1.07166 -1.15556 0
M  V30 3370 C 314.634 1.76546 -0.842069 0
M  V30 3371 C 315.014 2.00453 0.661939 0
M  V30 3372 O 314.362 1.62452 1.60691 0
M  V30 3373 C 314.572 3.07266 -1.65495 0
M  V30 3374 C 315.92 3.81578 -1.86234 0
M  V30 3375 O 316.944 3.17083 -1.62287 0
M  V30 3376 O 315.803 4.97419 -2.26355 0
M  V30 3377 H 312.897 0.766756 -0.309862 0
M  V30 3378 H 315.443 1.13514 -1.26145 0
M  V30 3379 H 314.215 2.85494 -2.67598 0
M  V30 3380 H 313.838 3.7803 -1.23203 0
M  V30 3381 N 314.835 0.952656 1.25548 0
M  V30 3382 C 316.06 0.623025 1.97821 0
M  V30 3383 C 316.485 -0.7976 1.70352 0
M  V30 3384 O 315.843 -1.53905 0.958283 0
M  V30 3385 C 315.891 0.885532 3.49558 0
M  V30 3386 O 314.995 -0.0366641 4.12384 0
M  V30 3387 H 314.336 0.237082 0.620232 0
M  V30 3388 H 316.866 1.27871 1.59719 0
M  V30 3389 H 316.876 0.811009 3.99858 0
M  V30 3390 H 315.551 1.92094 3.6888 0
M  V30 3391 H 314.128 0.0898954 3.72792 0
M  V30 3392 N 316.313 -1.40141 0.720998 0
M  V30 3393 C 317.246 -2.2819 0.020916 0
M  V30 3394 C 318.224 -1.43633 -0.762129 0
M  V30 3395 O 319.408 -1.7304 -0.747633 0
M  V30 3396 C 316.535 -3.24281 -0.977715 0
M  V30 3397 C 315.581 -4.25548 -0.284836 0
M  V30 3398 S 316.414 -5.26247 0.991169 0
M  V30 3399 C 317.57 -6.259 -0.0052214 0
M  V30 3400 H 317.803 -2.87218 0.767649 0
M  V30 3401 H 315.336 -1.45656 0.512233 0
M  V30 3402 H 317.294 -3.80167 -1.54865 0
M  V30 3403 H 315.955 -2.643 -1.69719 0
M  V30 3404 H 315.148 -4.93154 -1.03996 0
M  V30 3405 H 314.75 -3.73389 0.213684 0
M  V30 3406 H 317.042 -6.72143 -0.850279 0
M  V30 3407 H 317.985 -7.05224 0.637599 0
M  V30 3408 H 318.393 -5.63277 -0.371366 0
M  V30 3409 N 317.792 -0.46758 -1.50504 0
M  V30 3410 C 319.017 0.0886943 -2.0721 0
M  V30 3411 C 319.442 1.33057 -1.32956 0
M  V30 3412 O 318.8 1.77354 -0.376197 0
M  V30 3413 C 318.848 0.359202 -3.58806 0
M  V30 3414 O 317.952 1.44034 -3.8643 0
M  V30 3415 H 317.293 -0.0114349 -0.663902 0
M  V30 3416 H 319.823 -0.657613 -1.93744 0
M  V30 3417 H 319.833 0.600742 -4.03553 0
M  V30 3418 H 318.508 -0.548311 -4.1227 0
M  V30 3419 H 317.085 1.18638 -3.53524 0
M  V30 3420 N 319.27 1.56325 -0.20005 0
M  V30 3421 C 320.519 1.96895 0.437652 0
M  V30 3422 C 320.832 1.08999 1.62415 0
M  V30 3423 O 322.038 1.39372 2.32997 0
M  V30 3424 C 320.494 3.50198 0.830025 0
M  V30 3425 C 320.102 4.46765 -0.332461 0
M  V30 3426 C 321.846 3.99526 1.43453 0
M  V30 3427 C 319.753 5.91344 0.0811468 0
M  V30 3428 H 318.683 0.735209 0.167282 0
M  V30 3429 H 321.334 1.81148 -0.292853 0
M  V30 3430 H 319.716 3.61467 1.61734 0
M  V30 3431 H 320.89 4.47231 -1.11 0
M  V30 3432 H 319.205 4.07657 -0.848789 0
M  V30 3433 H 321.802 5.05025 1.75652 0
M  V30 3434 H 322.145 3.44122 2.34277 0
M  V30 3435 H 322.678 3.91393 0.71109 0
M  V30 3436 H 319.417 6.50685 -0.793033 0
M  V30 3437 H 318.937 5.94121 0.823445 0
M  V30 3438 H 320.616 6.44945 0.515252 0
M  V30 3439 N 320.748 -0.0735177 1.57428 0
M  V30 3440 C 321.978 -0.78483 1.91112 0
M  V30 3441 C 322.386 -1.71729 0.7941 0
M  V30 3442 O 321.729 -1.82105 -0.241542 0
M  V30 3443 C 321.791 -1.63346 3.20247 0
M  V30 3444 C 321.455 -0.870557 4.48632 0
M  V30 3445 C 322.452 -0.19058 5.19551 0
M  V30 3446 C 320.137 -0.838242 4.95256 0
M  V30 3447 C 322.131 0.511503 6.35344 0
M  V30 3448 C 319.818 -0.132386 6.10957 0
M  V30 3449 C 320.816 0.541288 6.80852 0
M  V30 3450 O 320.504 1.23578 7.94345 0
M  V30 3451 H 320.236 -0.228408 0.636244 0
M  V30 3452 H 322.79 -0.0486039 2.05342 0
M  V30 3453 H 321.02 -2.41245 3.02222 0
M  V30 3454 H 322.709 -2.22329 3.39595 0
M  V30 3455 H 323.475 -0.206864 4.84559 0
M  V30 3456 H 319.354 -1.35206 4.40727 0
M  V30 3457 H 322.898 1.03789 6.89836 0
M  V30 3458 H 318.795 -0.114023 6.45399 0
M  V30 3459 H 319.563 1.14487 8.10454 0
M  V30 3460 N 322.226 -1.5378 -0.344866 0
M  V30 3461 C 323.503 -1.61589 -1.10219 0
M  V30 3462 C 323.883 -0.436316 -2.06542 0
M  V30 3463 O 323.231 0.571543 -2.21237 0
M  V30 3464 C 323.441 -2.97602 -1.82301 0
M  V30 3465 C 324.789 -3.5291 -2.36093 0
M  V30 3466 O 325.813 -2.99768 -1.924 0
M  V30 3467 O 324.672 -4.45859 -3.16026 0
M  V30 3468 H 321.766 -0.653522 -0.506792 0
M  V30 3469 H 324.312 -1.66126 -0.346465 0
M  V30 3470 H 323.084 -3.74893 -1.12121 0
M  V30 3471 H 322.707 -2.9665 -2.64735 0
M  V30 3472 N 323.704 0.605807 -1.45491 0
M  V30 3473 C 324.981 1.36522 -1.40075 0
M  V30 3474 C 325.361 2.10976 -0.0722744 0
M  V30 3475 O 324.709 2.08007 0.945808 0
M  V30 3476 C 324.919 2.31056 -2.61561 0
M  V30 3477 C 326.267 2.93608 -3.06724 0
M  V30 3478 O 327.291 2.41376 -2.61946 0
M  V30 3479 O 326.15 3.88421 -3.84437 0
M  V30 3480 H 323.244 0.612248 -0.555951 0
M  V30 3481 H 325.79 0.628747 -1.57623 0
M  V30 3482 H 324.562 1.75311 -3.49831 0
M  V30 3483 H 324.185 3.12081 -2.46356 0
M  V30 3484 N 325.182 1.32811 0.848464 0
M  V30 3485 C 326.431 1.23075 1.59798 0
M  V30 3486 C 326.744 -0.204419 1.94529 0
M  V30 3487 O 327.95 -0.423701 2.68173 0
M  V30 3488 C 326.406 2.15594 2.88179 0
M  V30 3489 C 326.014 3.64228 2.60849 0
M  V30 3490 C 327.758 2.14709 3.66197 0
M  V30 3491 C 325.665 4.48689 3.85269 0
M  V30 3492 H 324.595 0.457091 0.599653 0
M  V30 3493 H 327.246 1.57813 0.936342 0
M  V30 3494 H 325.628 1.73778 3.55833 0
M  V30 3495 H 326.802 4.14424 2.01467 0
M  V30 3496 H 325.117 3.67306 1.96151 0
M  V30 3497 H 327.714 2.75046 4.58534 0
M  V30 3498 H 328.057 1.13966 4.00397 0
M  V30 3499 H 328.59 2.54837 3.05455 0
M  V30 3500 H 325.329 5.5027 3.56207 0
M  V30 3501 H 324.849 4.03241 4.44024 0
M  V30 3502 H 326.528 4.62006 4.52946 0
M  V30 3503 N 326.66 -1.06551 1.16123 0
M  V30 3504 C 327.937 -1.76097 0.85142 0
M  V30 3505 C 328.317 -2.00802 -0.6513 0
M  V30 3506 O 327.665 -1.63302 -1.59827 0
M  V30 3507 C 327.875 -3.06384 1.67122 0
M  V30 3508 C 329.223 -3.80585 1.88255 0
M  V30 3509 O 330.247 -3.16218 1.63966 0
M  V30 3510 O 329.106 -4.96212 2.2899 0
M  V30 3511 H 326.2 -0.765102 0.313923 0
M  V30 3512 H 328.746 -1.12844 1.26745 0
M  V30 3513 H 327.518 -2.84071 2.69108 0
M  V30 3514 H 327.141 -3.77371 1.25206 0
M  V30 3515 N 328.138 -0.959301 -1.25041 0
M  V30 3516 C 329.101 -0.487677 -2.23952 0
M  V30 3517 C 330.101 0.41119 -1.55454 0
M  V30 3518 O 331.291 0.207825 -1.72956 0
M  V30 3519 C 328.423 0.294807 -3.39623 0
M  V30 3520 H 329.616 -1.36198 -2.67189 0
M  V30 3521 H 327.169 -0.743042 -1.37508 0
M  V30 3522 H 327.904 1.18658 -3.01813 0
M  V30 3523 H 327.689 -0.35012 -3.90534 0
M  V30 3524 H 329.179 0.614089 -4.1306 0
M  V30 3525 N 329.616 1.39756 -0.72842 0
M  V30 3526 C 330.893 1.94574 -0.200079 0
M  V30 3527 C 331.273 1.66569 1.29684 0
M  V30 3528 O 330.621 0.990326 2.05924 0
M  V30 3529 C 330.831 3.45004 -0.526608 0
M  V30 3530 C 332.179 4.21965 -0.472318 0
M  V30 3531 O 333.203 3.53173 -0.463413 0
M  V30 3532 O 332.062 5.44552 -0.461075 0
M  V30 3533 H 329.156 0.826289 -0.0342851 0
M  V30 3534 H 331.702 1.49293 -0.806829 0
M  V30 3535 H 330.474 3.58796 -1.56144 0
M  V30 3536 H 330.097 3.97449 0.109449 0
M  V30 3537 N 331.094 0.475555 1.50254 0
M  V30 3538 C 332.34 -0.0780073 2.0265 0
M  V30 3539 C 332.673 -1.38968 1.35652 0
M  V30 3540 O 331.948 -1.8839 0.483691 0
M  V30 3541 C 332.231 -0.257161 3.59181 0
M  V30 3542 C 332.084 1.07585 4.36744 0
M  V30 3543 C 333.403 -1.00965 4.28362 0
M  V30 3544 H 330.522 -0.0268758 0.73651 0
M  V30 3545 H 333.164 0.622015 1.7953 0
M  V30 3546 H 331.314 -0.853412 3.79011 0
M  V30 3547 H 332.986 1.70902 4.28474 0
M  V30 3548 H 331.229 1.6714 4.00308 0
M  V30 3549 H 331.9 0.904088 5.44546 0
M  V30 3550 H 334.376 -0.504214 4.13034 0
M  V30 3551 H 333.252 -1.10381 5.37687 0
M  V30 3552 H 333.513 -2.04731 3.91839 0
M  V30 3553 N 332.573 -1.56217 0.208337 0
M  V30 3554 C 333.503 -2.22694 -0.702116 0
M  V30 3555 C 334.484 -1.19432 -1.2112 0
M  V30 3556 O 335.669 -1.47978 -1.25762 0
M  V30 3557 C 332.799 -2.8966 -1.9161 0
M  V30 3558 C 331.753 -3.9928 -1.5414 0
M  V30 3559 C 331.079 -4.53476 -2.83308 0
M  V30 3560 C 332.379 -5.17012 -0.741339 0
M  V30 3561 H 334.073 -2.99034 -0.147898 0
M  V30 3562 H 331.619 -1.43831 -0.0696951 0
M  V30 3563 H 333.572 -3.34852 -2.55836 0
M  V30 3564 H 332.296 -2.10746 -2.49507 0
M  V30 3565 H 330.955 -3.54799 -0.922668 0
M  V30 3566 H 330.603 -3.71308 -3.39322 0
M  V30 3567 H 330.303 -5.27451 -2.58976 0
M  V30 3568 H 331.827 -5.01378 -3.485 0
M  V30 3569 H 333.241 -5.58667 -1.28699 0
M  V30 3570 H 331.638 -5.97137 -0.595627 0
M  V30 3571 H 332.708 -4.8423 0.254851 0
M  V30 3572 N 334.051 0.0651679 -1.57465 0
M  V30 3573 C 334.983 1.10359 -2.00882 0
M  V30 3574 C 335.996 1.346 -0.915788 0
M  V30 3575 O 337.185 1.32723 -1.1936 0
M  V30 3576 C 334.285 2.45312 -2.33828 0
M  V30 3577 C 333.458 2.40934 -3.65061 0
M  V30 3578 C 332.517 3.58047 -3.85602 0
M  V30 3579 O 331.543 3.39175 -4.57109 0
M  V30 3580 N 332.745 4.78637 -3.28462 0
M  V30 3581 H 335.51 0.733807 -2.90578 0
M  V30 3582 H 333.071 0.253719 -1.599 0
M  V30 3583 H 335.063 3.22314 -2.44737 0
M  V30 3584 H 333.633 2.74267 -1.49988 0
M  V30 3585 H 332.853 1.49273 -3.64844 0
M  V30 3586 H 334.141 2.35117 -4.51218 0
M  V30 3587 H 333.539 4.96872 -2.70433 0
M  V30 3588 H 332.096 5.53127 -3.44809 0
M  V30 3589 N 335.529 1.53961 0.336706 0
M  V30 3590 C 336.477 1.83136 1.43401 0
M  V30 3591 C 337.471 0.702313 1.54156 0
M  V30 3592 O 338.677 0.885765 1.56698 0
M  V30 3593 H 335.052 0.580309 0.478273 0
M  V30 3594 H 337.023 2.74925 1.16012 0
M  V30 3595 C 335.772 2.06385 2.79822 0
M  V30 3596 H 335.095 2.92718 2.72316 0
M  V30 3597 H 336.535 2.30761 3.55704 0
M  V30 3598 C 334.994 0.851414 3.25964 0
M  V30 3599 O 335.524 0.0541904 4.01663 0
M  V30 3600 N 333.73 0.66672 2.82848 0
M  V30 3601 H 333.277 1.31665 2.21409 0
M  V30 3602 H 333.235 -0.143032 3.14074 0
M  V30 3603 N 337.007 -0.598083 1.45811 0
M  V30 3604 C 338.237 -1.38121 1.53643 0
M  V30 3605 C 338.645 -1.88425 0.171081 0
M  V30 3606 O 337.988 -1.63409 -0.839237 0
M  V30 3607 C 338.05 -2.61432 2.46766 0
M  V30 3608 C 337.714 -2.32702 3.93318 0
M  V30 3609 C 338.711 -1.92479 4.82957 0
M  V30 3610 C 336.396 -2.45321 4.38318 0
M  V30 3611 C 338.39 -1.65248 6.15607 0
M  V30 3612 C 336.077 -2.17703 5.71007 0
M  V30 3613 C 337.075 -1.7773 6.5947 0
M  V30 3614 O 336.763 -1.50441 7.89698 0
M  V30 3615 H 336.495 -0.428863 0.522544 0
M  V30 3616 H 339.049 -0.73557 1.91777 0
M  V30 3617 H 337.279 -3.28749 2.0362 0
M  V30 3618 H 338.968 -3.23487 2.45175 0
M  V30 3619 H 339.734 -1.82258 4.49452 0
M  V30 3620 H 335.613 -2.75399 3.69697 0
M  V30 3621 H 339.157 -1.33973 6.84614 0
M  V30 3622 H 335.054 -2.27544 6.04065 0
M  V30 3623 H 335.822 -1.64415 8.01817 0
M  V30 3624 N 338.485 -1.33259 -0.841409 0
M  V30 3625 C 339.417 -1.19136 -1.95804 0
M  V30 3626 C 340.43 -0.122965 -1.62335 0
M  V30 3627 O 341.619 -0.373154 -1.74556 0
M  V30 3628 C 338.719 -0.804268 -3.29218 0
M  V30 3629 C 337.892 -1.96376 -3.90839 0
M  V30 3630 C 336.951 -1.55806 -5.02604 0
M  V30 3631 O 335.977 -2.27203 -5.21888 0
M  V30 3632 N 337.179 -0.461609 -5.78662 0
M  V30 3633 H 339.944 -2.15326 -2.08458 0
M  V30 3634 H 337.505 -1.25971 -1.017 0
M  V30 3635 H 339.497 -0.51501 -4.0141 0
M  V30 3636 H 338.067 0.0668809 -3.12528 0
M  V30 3637 H 337.287 -2.41879 -3.11269 0
M  V30 3638 H 338.575 -2.73966 -4.28742 0
M  V30 3639 H 337.973 0.132343 -5.65545 0
M  V30 3640 H 336.53 -0.232013 -6.51387 0
M  V30 3641 N 339.963 1.05934 -1.16686 0
M  V30 3642 C 340.873 2.17014 -0.891183 0
M  V30 3643 C 341.889 1.73453 0.137907 0
M  V30 3644 O 343.065 2.01361 -0.039592 0
M  V30 3645 C 340.13 3.44384 -0.400099 0
M  V30 3646 C 339.191 4.02433 -1.49486 0
M  V30 3647 C 338.424 5.23723 -1.02711 0
M  V30 3648 O 338.647 5.7027 0.121716 0
M  V30 3649 O 337.581 5.7382 -1.81699 0
M  V30 3650 H 341.407 2.43113 -1.82015 0
M  V30 3651 H 338.992 1.15541 -0.947132 0
M  V30 3652 H 340.874 4.21189 -0.133392 0
M  V30 3653 H 339.549 3.19802 0.500817 0
M  V30 3654 H 338.456 3.27102 -1.81535 0
M  V30 3655 H 339.789 4.31317 -2.37121 0
M  V30 3656 N 341.441 0.965919 1.2453 0
M  V30 3657 C 342.671 0.643451 1.96324 0
M  V30 3658 C 343.079 -0.790927 1.71875 0
M  V30 3659 O 342.422 -1.54208 0.998273 0
M  V30 3660 C 342.484 0.836078 3.49643 0
M  V30 3661 C 342.148 2.24975 3.97788 0
M  V30 3662 C 343.145 3.22735 4.07601 0
M  V30 3663 C 340.83 2.57697 4.31158 0
M  V30 3664 C 342.824 4.51303 4.50116 0
M  V30 3665 C 340.511 3.86492 4.73357 0
M  V30 3666 C 341.509 4.83107 4.828 0
M  V30 3667 O 341.197 6.09605 5.24058 0
M  V30 3668 H 340.929 0.239223 0.632257 0
M  V30 3669 H 343.483 1.29587 1.59362 0
M  V30 3670 H 341.713 0.12649 3.86493 0
M  V30 3671 H 343.402 0.512965 4.02646 0
M  V30 3672 H 344.168 2.98783 3.82039 0
M  V30 3673 H 340.047 1.83216 4.23028 0
M  V30 3674 H 343.591 5.26716 4.57401 0
M  V30 3675 H 339.488 4.10245 4.98366 0
M  V30 3676 H 340.256 6.13146 5.42213 0
M  V30 3677 N 342.919 -1.39368 0.735821 0
M  V30 3678 C 343.867 -2.32443 0.0855131 0
M  V30 3679 C 344.861 -1.53104 -0.724954 0
M  V30 3680 O 346.067 -1.68762 -0.626047 0
M  V30 3681 H 342.442 -0.751948 0.00885257 0
M  V30 3682 H 344.413 -2.84916 0.886883 0
M  V30 3683 C 343.162 -3.38206 -0.806983 0
M  V30 3684 H 342.485 -3.99335 -0.19274 0
M  V30 3685 H 343.925 -4.05779 -1.2296 0
M  V30 3686 C 342.384 -2.75321 -1.94165 0
M  V30 3687 O 342.914 -2.63231 -3.03435 0
M  V30 3688 N 341.12 -2.33396 -1.73132 0
M  V30 3689 H 340.667 -2.4343 -0.842596 0
M  V30 3690 H 340.625 -1.91661 -2.49225 0
M  V30 3691 N 344.397 -0.483516 -1.5 0
M  V30 3692 C 345.327 0.293829 -2.31644 0
M  V30 3693 C 346.308 0.978864 -1.39112 0
M  V30 3694 O 347.493 0.973644 -1.68029 0
M  V30 3695 C 344.623 1.36897 -3.19181 0
M  V30 3696 C 343.577 0.804833 -4.20365 0
M  V30 3697 C 342.903 1.9792 -4.96721 0
M  V30 3698 C 344.203 -0.192313 -5.21946 0
M  V30 3699 H 345.897 -0.387616 -2.9688 0
M  V30 3700 H 343.443 -0.187856 -1.42769 0
M  V30 3701 H 345.396 1.92037 -3.751 0
M  V30 3702 H 344.12 2.07936 -2.51853 0
M  V30 3703 H 342.779 0.275319 -3.65565 0
M  V30 3704 H 342.427 2.67686 -4.25856 0
M  V30 3705 H 342.127 1.60789 -5.65173 0
M  V30 3706 H 343.651 2.53526 -5.55479 0
M  V30 3707 H 345.065 0.270333 -5.72662 0
M  V30 3708 H 343.462 -0.478543 -5.98189 0
M  V30 3709 H 344.532 -1.11409 -4.71928 0
M  V30 3710 N 345.875 1.56104 -0.216619 0
M  V30 3711 C 346.838 2.18819 0.681962 0
M  V30 3712 C 347.838 1.14866 1.12528 0
M  V30 3713 O 349.028 1.40128 1.03488 0
M  V30 3714 C 346.16 2.80756 1.93362 0
M  V30 3715 H 347.353 2.99595 0.135254 0
M  V30 3716 H 344.906 1.56265 0.0330003 0
M  V30 3717 H 345.641 2.03837 2.52232 0
M  V30 3718 H 345.426 3.56876 1.62426 0
M  V30 3719 H 346.916 3.28844 2.57393 0
M  V30 3720 N 347.353 -0.0568162 1.57498 0
M  V30 3721 C 348.301 -1.08452 2.05769 0
M  V30 3722 C 349.295 -1.39164 0.965903 0
M  V30 3723 O 350.501 -1.38395 1.15095 0
M  V30 3724 H 346.876 -0.367148 0.656282 0
M  V30 3725 H 348.847 -0.651368 2.91204 0
M  V30 3726 C 347.596 -2.38543 2.52968 0
M  V30 3727 H 346.919 -2.15765 3.36579 0
M  V30 3728 H 348.359 -3.08863 2.90481 0
M  V30 3729 C 346.818 -3.05562 1.41893 0
M  V30 3730 O 347.348 -3.94262 0.769442 0
M  V30 3731 N 345.554 -2.6643 1.16032 0
M  V30 3732 H 345.101 -1.94387 1.6903 0
M  V30 3733 H 345.059 -3.11593 0.419219 0
M  V30 3734 N 348.832 -1.54138 -0.328536 0
M  V30 3735 C 350.081 -1.71318 -1.06456 0
M  V30 3736 C 350.394 -0.491109 -1.89334 0
M  V30 3737 O 351.6 -0.54416 -2.65991 0
M  V30 3738 C 350.056 -3.03 -1.94214 0
M  V30 3739 C 349.664 -4.32595 -1.16471 0
M  V30 3740 C 351.408 -3.29544 -2.67583 0
M  V30 3741 C 349.315 -5.55341 -2.03347 0
M  V30 3742 H 348.245 -0.638429 -0.401155 0
M  V30 3743 H 350.896 -1.80633 -0.323106 0
M  V30 3744 H 349.278 -2.87579 -2.72239 0
M  V30 3745 H 350.452 -4.58766 -0.432525 0
M  V30 3746 H 348.767 -4.12777 -0.548063 0
M  V30 3747 H 351.364 -4.18444 -3.3288 0
M  V30 3748 H 351.707 -2.47206 -3.34955 0
M  V30 3749 H 352.24 -3.45809 -1.96623 0
M  V30 3750 H 348.979 -6.40268 -1.40491 0
M  V30 3751 H 348.499 -5.33397 -2.74313 0
M  V30 3752 H 350.178 -5.91557 -2.62049 0
M  V30 3753 N 350.31 0.590341 -1.46126 0
M  V30 3754 C 351.559 1.34499 -1.50309 0
M  V30 3755 C 351.872 1.94977 -0.156021 0
M  V30 3756 O 353.078 2.71395 -0.0756037 0
M  V30 3757 C 351.534 2.43723 -2.64815 0
M  V30 3758 C 351.142 1.89582 -4.0591 0
M  V30 3759 C 352.886 3.20579 -2.78262 0
M  V30 3760 C 350.793 2.9639 -5.11769 0
M  V30 3761 H 349.723 0.505593 -0.559368 0
M  V30 3762 H 352.374 0.630848 -1.72315 0
M  V30 3763 H 350.756 3.17902 -2.36124 0
M  V30 3764 H 351.93 1.21997 -4.44357 0
M  V30 3765 H 350.245 1.25418 -3.97063 0
M  V30 3766 H 352.842 4.00276 -3.54519 0
M  V30 3767 H 353.185 3.72684 -1.85505 0
M  V30 3768 H 353.718 2.53505 -3.06562 0
M  V30 3769 H 350.457 2.49181 -6.06291 0
M  V30 3770 H 349.977 3.62487 -4.77873 0
M  V30 3771 H 351.656 3.60474 -5.37278 0
M  V30 3772 N 351.788 1.33704 0.83433 0
M  V30 3773 C 353.018 1.28281 1.6195 0
M  V30 3774 C 353.426 -0.147603 1.88623 0
M  V30 3775 O 352.769 -1.1016 1.47005 0
M  V30 3776 C 352.831 1.99386 2.99141 0
M  V30 3777 C 352.495 3.48681 2.95416 0
M  V30 3778 C 353.492 4.438 2.70809 0
M  V30 3779 C 351.177 3.90925 3.15409 0
M  V30 3780 C 353.171 5.79138 2.66229 0
M  V30 3781 C 350.858 5.26366 3.10454 0
M  V30 3782 C 351.856 6.20284 2.85895 0
M  V30 3783 O 351.544 7.53245 2.80852 0
M  V30 3784 H 351.276 0.44315 0.510484 0
M  V30 3785 H 353.83 1.76711 1.04702 0
M  V30 3786 H 352.06 1.45554 3.58261 0
M  V30 3787 H 353.749 1.87403 3.60049 0
M  V30 3788 H 354.515 4.12485 2.5511 0
M  V30 3789 H 350.394 3.18229 3.33543 0
M  V30 3790 H 353.938 6.52416 2.4698 0
M  V30 3791 H 349.835 5.57304 3.25703 0
M  V30 3792 H 350.603 7.62846 2.96661 0
M  V30 3793 N 353.266 -1.05314 1.17247 0
M  V30 3794 C 354.496 -1.81707 0.983166 0
M  V30 3795 C 354.904 -1.83222 -0.471822 0
M  V30 3796 O 354.247 -1.25721 -1.3394 0
M  V30 3797 C 354.309 -3.29134 1.44606 0
M  V30 3798 C 353.973 -3.51304 2.92292 0
M  V30 3799 C 354.97 -3.4353 3.90235 0
M  V30 3800 C 352.655 -3.78306 3.30439 0
M  V30 3801 C 354.649 -3.62442 5.24323 0
M  V30 3802 C 352.336 -3.96866 4.64694 0
M  V30 3803 C 353.334 -3.88933 5.61445 0
M  V30 3804 O 353.022 -4.06976 6.93272 0
M  V30 3805 H 352.754 -0.579476 0.348114 0
M  V30 3806 H 355.308 -1.33705 1.55924 0
M  V30 3807 H 353.538 -3.78046 0.813537 0
M  V30 3808 H 355.227 -3.87049 1.22262 0
M  V30 3809 H 355.993 -3.22648 3.62109 0
M  V30 3810 H 351.872 -3.83585 2.55702 0
M  V30 3811 H 355.416 -3.56165 5.99827 0
M  V30 3812 H 351.313 -4.1724 4.92525 0
M  V30 3813 H 352.081 -4.24209 6.99992 0
M  V30 3814 N 354.744 -0.972509 -1.24016 0
M  V30 3815 C 355.969 -0.654417 -1.96805 0
M  V30 3816 C 356.394 0.770398 -1.716 0
M  V30 3817 O 355.752 1.52361 -0.982647 0
M  V30 3818 C 355.8 -0.941031 -3.48105 0
M  V30 3819 O 354.904 -0.0289472 -4.1239 0
M  V30 3820 H 354.245 -0.24692 -0.616382 0
M  V30 3821 H 356.775 -1.30396 -1.57664 0
M  V30 3822 H 356.785 -0.87452 -3.98517 0
M  V30 3823 H 355.46 -1.97939 -3.65777 0
M  V30 3824 H 354.037 -0.149192 -3.72601 0
M  V30 3825 N 356.222 1.38976 -0.743202 0
M  V30 3826 C 357.152 2.33171 -0.123873 0
M  V30 3827 C 358.133 1.54336 0.71516 0
M  V30 3828 O 359.318 1.82696 0.658467 0
M  V30 3829 C 356.448 3.38474 0.777978 0
M  V30 3830 C 355.402 4.27979 0.0424758 0
M  V30 3831 C 354.728 5.2405 1.06189 0
M  V30 3832 C 356.028 5.10155 -1.1198 0
M  V30 3833 H 357.722 2.85213 -0.910709 0
M  V30 3834 H 355.268 1.37133 -0.439388 0
M  V30 3835 H 357.221 4.03328 1.22084 0
M  V30 3836 H 355.945 2.84891 1.59702 0
M  V30 3837 H 354.604 3.64616 -0.380853 0
M  V30 3838 H 354.252 4.66758 1.87472 0
M  V30 3839 H 353.952 5.84785 0.574485 0
M  V30 3840 H 355.476 5.9178 1.50428 0
M  V30 3841 H 356.89 5.68307 -0.75499 0
M  V30 3842 H 355.287 5.80073 -1.53738 0
M  V30 3843 H 356.357 4.44504 -1.93764 0
M  V30 3844 N 357.7 0.491464 1.49741 0
M  V30 3845 C 358.647 -0.292027 2.28945 0
M  V30 3846 C 359.617 -0.968973 1.34908 0
M  V30 3847 O 360.802 -0.97748 1.6386 0
M  V30 3848 C 357.942 -1.35617 3.17336 0
M  V30 3849 C 357.055 -0.691957 4.26422 0
M  V30 3850 C 356.19 -1.73572 5.02042 0
M  V30 3851 C 355.229 -1.05286 6.02977 0
M  V30 3852 N 354.366 -2.0404 6.71798 0
M  V30 3853 H 359.206 0.389654 2.95442 0
M  V30 3854 H 356.743 0.204003 1.45679 0
M  V30 3855 H 358.701 -1.98502 3.66951 0
M  V30 3856 H 357.331 -2.00674 2.52844 0
M  V30 3857 H 356.383 0.0499523 3.80367 0
M  V30 3858 H 357.695 -0.153946 4.98562 0
M  V30 3859 H 356.849 -2.43987 5.55478 0
M  V30 3860 H 355.588 -2.30757 4.29654 0
M  V30 3861 H 354.593 -0.334446 5.48782 0
M  V30 3862 H 355.818 -0.487636 6.77347 0
M  V30 3863 H 353.764 -2.60205 6.02187 0
M  V30 3864 H 353.681 -1.55279 7.39881 0
M  V30 3865 H 354.949 -2.73772 7.29842 0
M  V30 3866 N 359.178 -1.55987 0.224894 0
M  V30 3867 C 360.088 -2.24066 -0.69511 0
M  V30 3868 C 361.104 -1.24939 -1.21104 0
M  V30 3869 O 362.28 -1.5776 -1.25195 0
M  V30 3870 C 359.345 -2.90983 -1.88493 0
M  V30 3871 C 358.406 -4.05462 -1.41064 0
M  V30 3872 C 357.639 -4.69179 -2.54375 0
M  V30 3873 O 357.862 -4.31895 -3.72589 0
M  V30 3874 O 356.796 -5.58108 -2.25386 0
M  V30 3875 H 360.622 -3.03353 -0.145149 0
M  V30 3876 H 358.207 -1.49399 -0.00569476 0
M  V30 3877 H 360.089 -3.33209 -2.57972 0
M  V30 3878 H 358.764 -2.14653 -2.42293 0
M  V30 3879 H 357.671 -3.67798 -0.683774 0
M  V30 3880 H 359.004 -4.83545 -0.918985 0
M  V30 3881 N 360.656 0.0484629 -1.57525 0
M  V30 3882 C 361.881 0.759177 -1.93006 0
M  V30 3883 C 362.306 1.69125 -0.823317 0
M  V30 3884 O 361.664 1.79931 0.222364 0
M  V30 3885 C 361.712 1.50899 -3.27509 0
M  V30 3886 O 360.816 2.62112 -3.18388 0
M  V30 3887 H 360.157 0.205564 -0.631379 0
M  V30 3888 H 362.687 0.00972959 -2.04598 0
M  V30 3889 H 362.697 1.88317 -3.6194 0
M  V30 3890 H 361.372 0.825269 -4.0763 0
M  V30 3891 H 359.949 2.27379 -2.95556 0
M  V30 3892 N 362.134 1.5431 0.320358 0
M  V30 3893 C 363.362 1.76636 1.07738 0
M  V30 3894 C 363.777 0.51649 1.81598 0
M  V30 3895 O 363.134 -0.512942 1.75143 0
M  V30 3896 C 363.185 2.96158 2.07299 0
M  V30 3897 O 362.906 4.16313 1.36438 0
M  V30 3898 C 364.407 3.3072 2.95193 0
M  V30 3899 H 361.627 0.589597 0.320339 0
M  V30 3900 H 364.171 2.01207 0.36551 0
M  V30 3901 H 362.326 2.73851 2.74016 0
M  V30 3902 H 362.74 4.83565 2.03138 0
M  V30 3903 H 364.214 4.17643 3.60941 0
M  V30 3904 H 364.691 2.48026 3.62463 0
M  V30 3905 H 365.297 3.55117 2.34034 0
M  V30 3906 N 363.613 -0.582584 1.46437 0
M  V30 3907 C 364.841 -1.36682 1.55324 0
M  V30 3908 C 365.256 -1.87796 0.194409 0
M  V30 3909 O 364.613 -1.63623 -0.808318 0
M  V30 3910 C 364.664 -2.55426 2.55812 0
M  V30 3911 O 364.385 -2.0643 3.86417 0
M  V30 3912 C 365.886 -3.47976 2.74641 0
M  V30 3913 H 363.106 -0.417545 0.525259 0
M  V30 3914 H 365.65 -0.708219 1.91845 0
M  V30 3915 H 363.805 -3.17275 2.22295 0
M  V30 3916 H 364.219 -2.83762 4.41111 0
M  V30 3917 H 365.693 -4.27775 3.48874 0
M  V30 3918 H 366.17 -3.99919 1.81553 0
M  V30 3919 H 366.776 -2.91962 3.09255 0
M  V30 3920 N 365.091 -1.34144 -0.827227 0
M  V30 3921 C 366.316 -1.29476 -1.62021 0
M  V30 3922 C 366.741 0.129292 -1.87655 0
M  V30 3923 O 366.099 1.08967 -1.449 0
M  V30 3924 C 366.147 -2.08702 -2.94068 0
M  V30 3925 O 365.251 -1.45359 -3.85933 0
M  V30 3926 H 364.592 -0.444881 -0.492927 0
M  V30 3927 H 367.122 -1.76882 -1.02829 0
M  V30 3928 H 367.132 -2.19898 -3.43669 0
M  V30 3929 H 365.807 -3.12241 -2.74734 0
M  V30 3930 H 364.384 -1.42879 -3.44442 0
M  V30 3931 N 366.569 1.04691 -1.17803 0
M  V30 3932 C 367.479 2.16057 -0.914151 0
M  V30 3933 C 368.495 1.73589 0.119503 0
M  V30 3934 O 369.671 2.01308 -0.0609468 0
M  V30 3935 C 366.736 3.4394 -0.436603 0
M  V30 3936 C 365.797 4.00825 -1.53746 0
M  V30 3937 C 365.03 5.22604 -1.0826 0
M  V30 3938 O 365.253 5.70367 0.0612244 0
M  V30 3939 O 364.187 5.7186 -1.87775 0
M  V30 3940 H 368.013 2.41169 -1.84584 0
M  V30 3941 H 365.598 1.1453 -0.959334 0
M  V30 3942 H 367.48 4.21024 -0.178057 0
M  V30 3943 H 366.155 3.20316 0.466869 0
M  V30 3944 H 365.062 3.25158 -1.84995 0
M  V30 3945 H 366.395 4.28778 -2.41683 0
M  V30 3946 N 368.047 0.979072 1.23499 0
M  V30 3947 C 368.979 0.476271 2.24197 0
M  V30 3948 C 369.992 -0.421166 1.57258 0
M  V30 3949 O 371.181 -0.225515 1.7707 0
M  V30 3950 C 368.281 -0.330503 3.37285 0
M  V30 3951 C 367.454 0.559744 4.33804 0
M  V30 3952 C 366.513 -0.192954 5.25846 0
M  V30 3953 O 365.539 0.416978 5.67671 0
M  V30 3954 N 366.741 -1.47932 5.61334 0
M  V30 3955 H 369.506 1.34211 2.67969 0
M  V30 3956 H 367.067 0.852189 1.37657 0
M  V30 3957 H 369.059 -0.842361 3.95836 0
M  V30 3958 H 367.629 -1.09734 2.92707 0
M  V30 3959 H 366.849 1.25245 3.73775 0
M  V30 3960 H 368.137 1.1665 4.95248 0
M  V30 3961 H 367.535 -1.9964 5.29302 0
M  V30 3962 H 366.092 -1.93664 6.22364 0
M  V30 3963 N 369.525 -1.3858 0.750561 0
M  V30 3964 C 370.75 -2.04997 0.314812 0
M  V30 3965 C 371.175 -1.56235 -1.04749 0
M  V30 3966 O 370.533 -0.712981 -1.66692 0
M  V30 3967 C 370.581 -3.58961 0.343415 0
M  V30 3968 O 369.685 -4.07025 -0.663628 0
M  V30 3969 H 369.026 -0.649081 0.139962 0
M  V30 3970 H 371.556 -1.77313 1.02084 0
M  V30 3971 H 371.566 -4.07542 0.193233 0
M  V30 3972 H 370.241 -3.93811 1.33738 0
M  V30 3973 H 368.818 -3.6982 -0.478307 0
M  V30 3974 N 371.003 -0.499398 -1.49478 0
M  V30 3975 C 371.966 0.268838 -2.27618 0
M  V30 3976 C 372.966 0.895383 -1.33565 0
M  V30 3977 O 374.156 0.760164 -1.56739 0
M  V30 3978 C 371.288 1.38559 -3.11471 0
M  V30 3979 H 372.481 -0.416812 -2.96989 0
M  V30 3980 H 370.034 -0.254313 -1.54217 0
M  V30 3981 H 370.769 2.10544 -2.46661 0
M  V30 3982 H 370.554 0.941797 -3.80621 0
M  V30 3983 H 372.044 1.92678 -3.70493 0
M  V30 3984 N 372.481 1.55866 -0.233164 0
M  V30 3985 C 373.897 1.59133 0.121988 0
M  V30 3986 C 374.097 1.25016 1.58029 0
M  V30 3987 O 373.153 0.990922 2.32243 0
M  V30 3988 C 374.466 2.99932 -0.214792 0
M  V30 3989 C 376.014 3.12601 -0.157971 0
M  V30 3990 C 376.489 4.55597 -0.46859 0
M  V30 3991 N 377.98 4.61305 -0.418585 0
M  V30 3992 C 378.715 5.69903 -0.63227 0
M  V30 3993 N 378.211 6.86819 -0.90835 0
M  V30 3994 N 380.004 5.59264 -0.563913 0
M  V30 3995 H 372.155 1.76315 -1.18434 0
M  V30 3996 H 374.418 0.820093 -0.475553 0
M  V30 3997 H 374.124 3.29588 -1.22739 0
M  V30 3998 H 373.998 3.74327 0.464691 0
M  V30 3999 H 376.385 2.82735 0.845283 0
M  V30 4000 H 376.466 2.40511 -0.871102 0
M  V30 4001 H 376.11 4.86182 -1.46934 0
M  V30 4002 H 376.04 5.25928 0.265865 0
M  V30 4003 H 378.531 3.77297 -0.213368 0
M  V30 4004 H 378.844 7.65507 -1.05919 0
M  V30 4005 H 377.189 6.88536 -0.945673 0
M  V30 4006 H 380.38 4.66802 -0.348372 0
M  V30 4007 H 380.553 6.43831 -0.733847 0
M  V30 4008 N 373.959 -0.0401083 1.57549 0
M  V30 4009 C 374.892 -1.07689 2.01192 0
M  V30 4010 C 375.87 -1.358 0.894273 0
M  V30 4011 O 377.054 -1.48642 1.15921 0
M  V30 4012 C 374.181 -2.41418 2.3756 0
M  V30 4013 C 373.227 -2.29237 3.59656 0
M  V30 4014 S 374.06 -1.65628 5.09242 0
M  V30 4015 C 375.216 -3.0087 5.48843 0
M  V30 4016 H 375.449 -0.705108 2.88817 0
M  V30 4017 H 372.982 -0.249724 1.52367 0
M  V30 4018 H 374.94 -3.18329 2.59186 0
M  V30 4019 H 373.601 -2.75747 1.50407 0
M  V30 4020 H 372.794 -3.27932 3.82722 0
M  V30 4021 H 372.396 -1.60469 3.37825 0
M  V30 4022 H 374.688 -3.97201 5.48851 0
M  V30 4023 H 375.631 -2.82549 6.49286 0
M  V30 4024 H 376.039 -3.02934 4.76331 0
M  V30 4025 N 375.437 -1.54477 -0.31217 0
M  V30 4026 C 376.665 -1.77205 -1.068 0
M  V30 4027 C 377.08 -0.526114 -1.81321 0
M  V30 4028 O 376.437 0.503647 -1.75413 0
M  V30 4029 C 376.488 -2.97253 -2.05725 0
M  V30 4030 O 376.209 -4.1703 -1.34228 0
M  V30 4031 C 377.71 -3.32281 -2.93435 0
M  V30 4032 H 374.93 -0.591287 -0.317208 0
M  V30 4033 H 377.474 -2.01398 -0.354834 0
M  V30 4034 H 375.629 -2.753 -2.72559 0
M  V30 4035 H 376.043 -4.84636 -2.00571 0
M  V30 4036 H 377.517 -4.19551 -3.58721 0
M  V30 4037 H 377.994 -2.49945 -3.61143 0
M  V30 4038 H 378.6 -3.56353 -2.32147 0
M  V30 4039 N 376.915 0.57481 -1.46744 0
M  V30 4040 C 377.878 1.66533 -1.57478 0
M  V30 4041 C 378.878 1.54338 -0.451263 0
M  V30 4042 O 380.068 1.58814 -0.715813 0
M  V30 4043 C 377.2 3.05999 -1.50259 0
M  V30 4044 H 378.393 1.58372 -2.54673 0
M  V30 4045 H 375.946 0.793301 -1.34672 0
M  V30 4046 H 376.681 3.19709 -0.543725 0
M  V30 4047 H 376.466 3.16259 -2.31781 0
M  V30 4048 H 377.956 3.8537 -1.60872 0
M  V30 4049 N 378.394 1.34581 0.820102 0
M  V30 4050 C 379.327 1.20735 1.93644 0
M  V30 4051 C 380.305 0.0983343 1.62302 0
M  V30 4052 O 381.489 0.263997 1.86642 0
M  V30 4053 C 378.616 0.856037 3.27704 0
M  V30 4054 C 377.662 1.97521 3.78005 0
M  V30 4055 S 378.495 3.58906 3.97425 0
M  V30 4056 C 379.651 3.25822 5.34407 0
M  V30 4057 H 379.884 2.15231 2.05093 0
M  V30 4058 H 377.417 1.1964 0.97599 0
M  V30 4059 H 379.375 0.660133 4.05157 0
M  V30 4060 H 378.036 -0.0706253 3.14021 0
M  V30 4061 H 377.229 1.68321 4.75062 0
M  V30 4062 H 376.831 2.12875 3.07507 0
M  V30 4063 H 379.123 2.77812 6.17922 0
M  V30 4064 H 380.066 4.22029 5.68592 0
M  V30 4065 H 380.474 2.61932 5.00052 0
M  V30 4066 N 379.872 -1.04064 1.18357 0
M  V30 4067 C 381.149 -1.74252 0.888581 0
M  V30 4068 C 381.529 -2.02138 -0.60856 0
M  V30 4069 O 380.877 -1.66656 -1.56327 0
M  V30 4070 C 381.087 -3.0277 1.73584 0
M  V30 4071 C 382.435 -3.76506 1.96286 0
M  V30 4072 O 383.459 -3.12668 1.70637 0
M  V30 4073 O 382.318 -4.91243 2.39464 0
M  V30 4074 H 379.412 -0.758271 0.330082 0
M  V30 4075 H 381.958 -1.1013 1.2911 0
M  V30 4076 H 380.73 -2.78299 2.75073 0
M  V30 4077 H 380.353 -3.74631 1.33183 0
M  V30 4078 N 381.35 -0.985608 -1.22978 0
M  V30 4079 C 382.298 -0.522631 -2.26652 0
M  V30 4080 C 383.292 0.422998 -1.64034 0
M  V30 4081 O 384.498 0.296319 -1.77544 0
M  V30 4082 H 380.873 -0.150597 -0.736766 0
M  V30 4083 H 382.844 -1.40863 -2.63059 0
M  V30 4084 C 381.593 0.154238 -3.47358 0
M  V30 4085 H 380.916 -0.564329 -3.95797 0
M  V30 4086 H 382.356 0.441744 -4.21693 0
M  V30 4087 C 380.815 1.38719 -3.07016 0
M  V30 4088 O 381.345 2.48307 -3.15764 0
M  V30 4089 N 379.551 1.25975 -2.61875 0
M  V30 4090 H 379.098 0.368068 -2.54957 0
M  V30 4091 H 379.056 2.08578 -2.3525 0
M  V30 4092 N 382.828 1.3818 -0.7579 0
M  V30 4093 C 383.791 2.28764 -0.141286 0
M  V30 4094 C 384.791 1.47388 0.642907 0
M  V30 4095 O 385.981 1.67781 0.468536 0
M  V30 4096 C 383.113 3.31184 0.808069 0
M  V30 4097 H 384.306 2.848 -0.939633 0
M  V30 4098 H 381.859 1.47212 -0.525191 0
M  V30 4099 H 382.594 2.80247 1.63193 0
M  V30 4100 H 382.379 3.91314 0.248104 0
M  V30 4101 H 383.869 3.98909 1.23536 0
M  V30 4102 N 384.306 0.507319 1.49211 0
M  V30 4103 C 385.531 -0.033725 2.07373 0
M  V30 4104 C 385.956 -1.29485 1.36437 0
M  V30 4105 O 385.314 -1.76294 0.423087 0
M  V30 4106 C 385.362 -0.263945 3.59633 0
M  V30 4107 O 384.466 -1.33737 3.90113 0
M  V30 4108 H 383.807 0.0290331 0.663365 0
M  V30 4109 H 386.337 0.708749 1.91932 0
M  V30 4110 H 386.347 -0.493536 4.05004 0
M  V30 4111 H 385.022 0.657424 4.10671 0
M  V30 4112 H 383.599 -1.09224 3.56545 0
M  V30 4113 N 385.784 -1.5574 0.241426 0
M  V30 4114 C 386.731 -2.21149 -0.660432 0
M  V30 4115 C 387.701 -1.17356 -1.17545 0
M  V30 4116 O 388.886 -1.45784 -1.23093 0
M  V30 4117 C 386.026 -2.91059 -1.85414 0
M  V30 4118 C 385.139 -4.09495 -1.37616 0
M  V30 4119 C 384.274 -4.67135 -2.529 0
M  V30 4120 C 383.313 -5.77831 -2.01936 0
M  V30 4121 N 382.45 -6.29677 -3.10566 0
M  V30 4122 H 387.29 -2.97845 -0.095955 0
M  V30 4123 H 384.827 -1.47057 -0.0356024 0
M  V30 4124 H 386.785 -3.29788 -2.5553 0
M  V30 4125 H 385.415 -2.16846 -2.39118 0
M  V30 4126 H 384.467 -3.76117 -0.569235 0
M  V30 4127 H 385.779 -4.89423 -0.962618 0
M  V30 4128 H 384.933 -5.08409 -3.31067 0
M  V30 4129 H 383.672 -3.86411 -2.97553 0
M  V30 4130 H 382.677 -5.36039 -1.22238 0
M  V30 4131 H 383.902 -6.60402 -1.58259 0
M  V30 4132 H 381.848 -5.5186 -3.54664 0
M  V30 4133 H 381.765 -7.04783 -2.73526 0
M  V30 4134 H 383.033 -6.75609 -3.88809 0
M  V30 4135 N 387.262 0.0317525 -1.57568 0
M  V30 4136 C 388.21 1.05165 -2.07468 0
M  V30 4137 C 389.204 1.3761 -0.98792 0
M  V30 4138 O 390.41 1.36546 -1.17282 0
M  V30 4139 H 386.785 0.35666 -0.66204 0
M  V30 4140 H 388.756 0.604958 -2.92203 0
M  V30 4141 C 387.505 2.34488 -2.56731 0
M  V30 4142 H 386.828 2.10383 -3.39969 0
M  V30 4143 H 388.268 3.04203 -2.95358 0
M  V30 4144 C 386.727 3.03266 -1.46736 0
M  V30 4145 O 387.257 3.92988 -0.832069 0
M  V30 4146 N 385.463 2.6455 -1.20256 0
M  V30 4147 H 385.01 1.91674 -1.72102 0
M  V30 4148 H 384.968 3.10886 -0.468737 0
M  V30 4149 N 388.74 1.54641 0.303973 0
M  V30 4150 C 389.703 1.84646 1.35789 0
M  V30 4151 C 390.703 0.7192 1.4382 0
M  V30 4152 O 391.893 0.987491 1.43507 0
M  V30 4153 C 389.025 2.02407 2.74307 0
M  V30 4154 H 390.218 2.78829 1.10429 0
M  V30 4155 H 387.771 1.46658 0.540487 0
M  V30 4156 H 388.506 1.10502 3.04893 0
M  V30 4157 H 388.291 2.84453 2.69868 0
M  V30 4158 H 389.781 2.27002 3.50514 0
M  V30 4159 N 390.218 -0.567019 1.47046 0
M  V30 4160 C 391.443 -1.3551 1.57009 0
M  V30 4161 C 391.868 -1.86841 0.217259 0
M  V30 4162 O 391.226 -1.62435 -0.805268 0
M  V30 4163 C 391.274 -2.50777 2.5912 0
M  V30 4164 O 390.378 -3.52706 2.13711 0
M  V30 4165 H 389.719 -0.402919 0.52778 0
M  V30 4166 H 392.249 -0.686241 1.92748 0
M  V30 4167 H 392.259 -2.97481 2.79229 0
M  V30 4168 H 390.934 -2.12771 3.57353 0
M  V30 4169 H 389.511 -3.12374 2.03659 0
M  V30 4170 N 391.696 -1.35014 -0.812953 0
M  V30 4171 C 392.606 -1.2951 -1.95613 0
M  V30 4172 C 393.622 -0.20107 -1.72834 0
M  V30 4173 O 394.798 -0.42932 -1.96771 0
M  V30 4174 C 391.863 -1.06033 -3.30088 0
M  V30 4175 C 390.924 -2.24688 -3.65805 0
M  V30 4176 C 390.157 -2.02322 -4.93864 0
M  V30 4177 O 390.38 -0.986464 -5.61805 0
M  V30 4178 O 389.314 -2.89525 -5.27692 0
M  V30 4179 H 393.14 -2.25705 -2.03202 0
M  V30 4180 H 390.725 -1.15321 -0.949811 0
M  V30 4181 H 392.607 -0.94763 -4.10607 0
M  V30 4182 H 391.282 -0.128852 -3.23443 0
M  V30 4183 H 390.189 -2.41521 -2.85689 0
M  V30 4184 H 391.522 -3.16261 -3.77147 0
M  V30 4185 N 393.175 1.03435 -1.18907 0
M  V30 4186 C 394.108 2.11162 -0.86521 0
M  V30 4187 C 395.086 1.6165 0.175473 0
M  V30 4188 O 396.27 1.88425 0.0530129 0
M  V30 4189 C 393.397 3.37423 -0.293868 0
M  V30 4190 C 392.443 4.05795 -1.31274 0
M  V30 4191 S 393.276 4.52027 -2.8711 0
M  V30 4192 C 394.432 5.81513 -2.31504 0
M  V30 4193 H 394.665 2.38308 -1.77754 0
M  V30 4194 H 392.198 1.16295 -1.01562 0
M  V30 4195 H 394.156 4.1049 0.0292572 0
M  V30 4196 H 392.817 3.0838 0.596682 0
M  V30 4197 H 392.01 4.96574 -0.86198 0
M  V30 4198 H 391.612 3.38874 -1.58242 0
M  V30 4199 H 393.904 6.55784 -1.70157 0
M  V30 4200 H 394.847 6.3136 -3.20608 0
M  V30 4201 H 395.255 5.36921 -1.74286 0
M  V30 4202 N 394.653 0.992116 1.22453 0
M  V30 4203 C 395.902 0.662992 1.90492 0
M  V30 4204 C 396.215 -0.808407 1.78113 0
M  V30 4205 O 397.421 -1.24908 2.41061 0
M  V30 4206 C 395.877 1.1353 3.41524 0
M  V30 4207 C 395.485 2.63187 3.62542 0
M  V30 4208 C 397.229 0.880465 4.15269 0
M  V30 4209 C 395.136 3.04024 5.0727 0
M  V30 4210 H 394.066 0.244278 0.713333 0
M  V30 4211 H 396.717 1.20157 1.38688 0
M  V30 4212 H 395.099 0.52485 3.92506 0
M  V30 4213 H 396.273 3.2957 3.22056 0
M  V30 4214 H 394.588 2.86543 3.02129 0
M  V30 4215 H 397.185 1.16128 5.21937 0
M  V30 4216 H 397.528 -0.183408 4.15896 0
M  V30 4217 H 398.061 1.45307 3.70312 0
M  V30 4218 H 394.8 4.09584 5.11782 0
M  V30 4219 H 394.32 2.42343 5.48662 0
M  V30 4220 H 395.999 2.95282 5.75689 0
M  V30 4221 N 396.131 -1.37776 0.765217 0
M  V30 4222 C 397.408 -1.93975 0.251596 0
M  V30 4223 C 397.788 -1.69949 -1.25222 0
M  V30 4224 O 397.136 -1.04457 -2.03226 0
M  V30 4225 C 397.346 -3.43487 0.617895 0
M  V30 4226 C 398.694 -4.20564 0.584029 0
M  V30 4227 O 399.718 -3.5182 0.556888 0
M  V30 4228 O 398.577 -5.43138 0.605291 0
M  V30 4229 H 395.671 -0.82509 0.0561806 0
M  V30 4230 H 398.217 -1.47101 0.846128 0
M  V30 4231 H 396.989 -3.5453 1.65602 0
M  V30 4232 H 396.612 -3.976 -0.00403411 0
M  V30 4233 N 397.609 -0.515225 -1.4894 0
M  V30 4234 C 398.556 0.255567 -2.29381 0
M  V30 4235 C 399.526 0.947387 -1.36432 0
M  V30 4236 O 400.711 0.951288 -1.65394 0
M  V30 4237 C 397.851 1.30551 -3.19453 0
M  V30 4238 C 396.964 0.624029 -4.27469 0
M  V30 4239 C 396.099 1.65563 -5.0474 0
M  V30 4240 C 395.138 0.956802 -6.04576 0
M  V30 4241 N 394.275 1.93326 -6.74959 0
M  V30 4242 H 399.115 -0.436607 -2.94784 0
M  V30 4243 H 396.652 -0.227154 -1.45336 0
M  V30 4244 H 398.61 1.92639 -3.70062 0
M  V30 4245 H 397.24 1.96626 -2.56004 0
M  V30 4246 H 396.292 -0.110459 -3.8024 0
M  V30 4247 H 397.604 0.0746092 -4.98744 0
M  V30 4248 H 396.758 2.35119 -5.59289 0
M  V30 4249 H 395.497 2.23893 -4.3327 0
M  V30 4250 H 394.502 0.247097 -5.49244 0
M  V30 4251 H 395.727 0.379814 -6.78037 0
M  V30 4252 H 393.673 2.50591 -6.06251 0
M  V30 4253 H 393.59 1.43489 -7.42258 0
M  V30 4254 H 394.858 2.62126 -7.34105 0
M  V30 4255 N 399.087 1.5561 -0.249682 0
M  V30 4256 C 400.017 2.24477 0.642826 0
M  V30 4257 C 400.998 1.22601 1.17911 0
M  V30 4258 O 402.183 1.5126 1.21795 0
M  V30 4259 C 399.313 2.94638 1.83863 0
M  V30 4260 C 398.267 4.03227 1.435 0
M  V30 4261 C 397.593 4.60828 2.71186 0
M  V30 4262 C 398.893 5.18796 0.604002 0
M  V30 4263 H 400.587 2.99321 0.0685625 0
M  V30 4264 H 398.133 1.43965 0.0315363 0
M  V30 4265 H 400.086 3.41517 2.46868 0
M  V30 4266 H 398.81 2.17287 2.43832 0
M  V30 4267 H 397.469 3.57121 0.828275 0
M  V30 4268 H 397.117 3.80174 3.29358 0
M  V30 4269 H 396.817 5.34132 2.44901 0
M  V30 4270 H 398.341 5.10442 3.35084 0
M  V30 4271 H 399.755 5.61883 1.13842 0
M  V30 4272 H 398.152 5.98506 0.437097 0
M  V30 4273 H 399.222 4.83384 -0.383147 0
M  V30 4274 N 400.565 -0.0233959 1.57583 0
M  V30 4275 C 401.793 -0.724682 1.93794 0
M  V30 4276 C 402.208 -1.68588 0.849912 0
M  V30 4277 O 401.565 -1.81676 -0.173204 0
M  V30 4278 C 401.616 -1.47684 3.29957 0
M  V30 4279 O 401.337 -0.554222 4.3458 0
M  V30 4280 C 402.838 -2.27477 3.80485 0
M  V30 4281 H 400.058 -0.203317 0.639455 0
M  V30 4282 H 402.602 0.0207653 2.04489 0
M  V30 4283 H 400.757 -2.17412 3.20641 0
M  V30 4284 H 401.171 -1.08232 5.13212 0
M  V30 4285 H 402.645 -2.7564 4.78254 0
M  V30 4286 H 403.122 -3.09144 3.11972 0
M  V30 4287 H 403.728 -1.62813 3.92902 0
M  V30 4288 N 402.043 -1.548 -0.295768 0
M  V30 4289 C 402.973 -1.89115 -1.36959 0
M  V30 4290 C 403.954 -0.75059 -1.52644 0
M  V30 4291 O 405.139 -1.00678 -1.66065 0
M  V30 4292 C 402.269 -2.14307 -2.73295 0
M  V30 4293 C 401.223 -3.30151 -2.72368 0
M  V30 4294 C 400.549 -3.40772 -4.12042 0
M  V30 4295 C 401.849 -4.67126 -2.33646 0
M  V30 4296 H 403.543 -2.79053 -1.08488 0
M  V30 4297 H 401.089 -1.34266 -0.520443 0
M  V30 4298 H 403.042 -2.36898 -3.48507 0
M  V30 4299 H 401.766 -1.21145 -3.03301 0
M  V30 4300 H 400.425 -3.0749 -1.99613 0
M  V30 4301 H 400.073 -2.45117 -4.39234 0
M  V30 4302 H 399.773 -4.18645 -4.12322 0
M  V30 4303 H 401.297 -3.6563 -4.89027 0
M  V30 4304 H 402.711 -4.89414 -2.98575 0
M  V30 4305 H 401.108 -5.47751 -2.45129 0
M  V30 4306 H 402.178 -4.67489 -1.28772 0
M  V30 4307 N 403.521 0.559213 -1.47345 0
M  V30 4308 C 404.749 1.34194 -1.57479 0
M  V30 4309 C 405.164 1.87463 -0.224261 0
M  V30 4310 O 404.521 1.64888 0.782185 0
M  V30 4311 C 404.572 2.51324 -2.59843 0
M  V30 4312 O 404.293 2.00256 -3.89653 0
M  V30 4313 C 405.794 3.43563 -2.80142 0
M  V30 4314 H 403.014 0.409136 -0.531835 0
M  V30 4315 H 405.558 0.677609 -1.92947 0
M  V30 4316 H 403.713 3.13699 -2.27314 0
M  V30 4317 H 404.127 2.76708 -4.4557 0
M  V30 4318 H 405.601 4.2217 -3.55635 0
M  V30 4319 H 406.078 3.9698 -1.87892 0
M  V30 4320 H 406.684 2.87005 -3.1386 0
M  V30 4321 N 404.999 1.35443 0.805782 0
M  V30 4322 C 406.246 1.28761 1.56291 0
M  V30 4323 C 406.574 -0.137747 1.94012 0
M  V30 4324 O 405.829 -1.1032 1.61642 0
M  V30 4325 C 406.128 2.14045 2.86216 0
M  V30 4326 C 405.794 3.62826 2.67709 0
M  V30 4327 C 404.456 4.0338 2.6237 0
M  V30 4328 C 406.808 4.57227 2.50186 0
M  V30 4329 C 404.136 5.36501 2.37451 0
M  V30 4330 C 406.488 5.90547 2.26797 0
M  V30 4331 C 405.152 6.30245 2.1988 0
M  V30 4332 H 404.422 0.471171 0.571908 0
M  V30 4333 H 407.069 1.67347 0.930974 0
M  V30 4334 H 405.374 1.68342 3.53791 0
M  V30 4335 H 407.071 2.0621 3.43917 0
M  V30 4336 H 403.661 3.30644 2.72713 0
M  V30 4337 H 407.845 4.2678 2.53323 0
M  V30 4338 H 403.101 5.66259 2.30567 0
M  V30 4339 H 407.275 6.63274 2.12228 0
M  V30 4340 H 404.902 7.33328 2.00333 0
M  V30 4341 N 406.477 -1.02803 1.19454 0
M  V30 4342 C 407.425 -2.13213 0.929673 0
M  V30 4343 C 408.419 -1.69011 -0.114806 0
M  V30 4344 O 409.625 -1.79967 0.0345147 0
M  V30 4345 H 406 -0.69662 0.28324 0
M  V30 4346 H 407.971 -2.32744 1.86743 0
M  V30 4347 C 406.72 -3.4429 0.485797 0
M  V30 4348 H 406.043 -3.7872 1.28105 0
M  V30 4349 H 407.483 -4.22638 0.339582 0
M  V30 4350 C 405.942 -3.27258 -0.800244 0
M  V30 4351 O 406.472 -3.55967 -1.86146 0
M  V30 4352 N 404.678 -2.80545 -0.75781 0
M  V30 4353 H 404.225 -2.57382 0.106039 0
M  V30 4354 H 404.183 -2.6953 -1.61867 0
M  V30 4355 N 407.956 -0.998596 -1.21925 0
M  V30 4356 C 409.372 -0.710303 -1.42923 0
M  V30 4357 C 409.572 0.716933 -1.88314 0
M  V30 4358 O 408.628 1.48712 -2.04062 0
M  V30 4359 C 409.941 -1.72072 -2.466 0
M  V30 4360 C 411.489 -1.73681 -2.60392 0
M  V30 4361 C 411.964 -2.73601 -3.67296 0
M  V30 4362 N 413.455 -2.7223 -3.7476 0
M  V30 4363 C 414.19 -3.46206 -4.57087 0
M  V30 4364 N 413.686 -4.29802 -5.43362 0
M  V30 4365 N 415.479 -3.34886 -4.51451 0
M  V30 4366 H 407.63 -1.92028 -0.9077 0
M  V30 4367 H 409.893 -0.828487 -0.460775 0
M  V30 4368 H 409.599 -2.74231 -2.20206 0
M  V30 4369 H 409.473 -1.51818 -3.45299 0
M  V30 4370 H 411.86 -0.722173 -2.86127 0
M  V30 4371 H 411.941 -1.98005 -1.61949 0
M  V30 4372 H 411.585 -3.75217 -3.42307 0
M  V30 4373 H 411.515 -2.46545 -4.65321 0
M  V30 4374 H 414.006 -2.11576 -3.1312 0
M  V30 4375 H 414.319 -4.83061 -6.03218 0
M  V30 4376 H 412.664 -4.33887 -5.42925 0
M  V30 4377 H 415.855 -2.69015 -3.83078 0
M  V30 4378 H 416.028 -3.92796 -5.15379 0
M  V30 4379 N 409.434 1.37368 -0.772513 0
M  V30 4380 C 410.662 2.03942 -0.348588 0
M  V30 4381 C 411.077 1.58264 1.02947 0
M  V30 4382 O 410.434 0.764246 1.65727 0
M  V30 4383 C 410.485 3.5946 -0.38351 0
M  V30 4384 O 410.206 4.03468 -1.70721 0
M  V30 4385 C 411.707 4.4327 0.0519152 0
M  V30 4386 H 408.927 0.654931 -0.145966 0
M  V30 4387 H 411.471 1.75686 -1.04665 0
M  V30 4388 H 409.626 3.86486 0.265978 0
M  V30 4389 H 410.04 4.97991 -1.64636 0
M  V30 4390 H 411.514 5.51995 -0.0236733 0
M  V30 4391 H 411.991 4.2514 1.10238 0
M  V30 4392 H 412.597 4.21471 -0.569415 0
M  V30 4393 N 410.912 0.523116 1.48665 0
M  V30 4394 C 412.328 0.180511 1.58576 0
M  V30 4395 C 412.528 -1.31597 1.52592 0
M  V30 4396 O 411.584 -2.0937 1.4114 0
M  V30 4397 C 412.897 0.776949 2.90489 0
M  V30 4398 C 414.445 0.745058 3.04003 0
M  V30 4399 C 414.92 1.31995 4.38567 0
M  V30 4400 N 416.411 1.28162 4.45117 0
M  V30 4401 C 417.146 1.6964 5.47731 0
M  V30 4402 N 416.642 2.18816 6.57337 0
M  V30 4403 N 418.435 1.6092 5.38573 0
M  V30 4404 H 410.586 1.4958 1.50797 0
M  V30 4405 H 412.849 0.621772 0.715614 0
M  V30 4406 H 412.555 1.82732 3.00503 0
M  V30 4407 H 412.429 0.25007 3.7637 0
M  V30 4408 H 414.816 -0.296532 2.93606 0
M  V30 4409 H 414.897 1.30933 2.1975 0
M  V30 4410 H 414.541 2.36043 4.49718 0
M  V30 4411 H 414.471 0.731418 5.21496 0
M  V30 4412 H 416.962 0.92155 3.66491 0
M  V30 4413 H 417.275 2.48478 7.31764 0
M  V30 4414 H 415.62 2.22805 6.58318 0
M  V30 4415 H 418.811 1.22304 4.5184 0
M  V30 4416 H 418.984 1.93567 6.18414 0
M  V30 4417 N 412.39 -1.55475 0.257931 0
M  V30 4418 C 413.322 -2.19192 -0.669881 0
M  V30 4419 C 414.335 -1.17148 -1.1305 0
M  V30 4420 O 415.524 -1.43959 -1.05537 0
M  V30 4421 C 412.624 -2.79016 -1.92363 0
M  V30 4422 C 411.797 -4.06586 -1.61265 0
M  V30 4423 C 410.856 -4.50622 -2.7171 0
M  V30 4424 O 409.882 -5.16765 -2.38627 0
M  V30 4425 N 411.084 -4.19325 -4.01431 0
M  V30 4426 H 413.849 -2.99441 -0.124635 0
M  V30 4427 H 411.41 -1.6171 0.0783311 0
M  V30 4428 H 413.402 -3.05427 -2.65511 0
M  V30 4429 H 411.972 -2.0286 -2.37837 0
M  V30 4430 H 411.192 -3.87646 -0.715811 0
M  V30 4431 H 412.48 -4.89737 -1.37967 0
M  V30 4432 H 411.878 -3.66247 -4.31138 0
M  V30 4433 H 410.435 -4.50547 -4.7101 0
M  V30 4434 N 413.868 0.0150385 -1.57593 0
M  V30 4435 C 414.831 0.995996 -2.06428 0
M  V30 4436 C 415.831 1.2818 -0.970903 0
M  V30 4437 O 417.021 1.22949 -1.23406 0
M  V30 4438 C 414.153 2.32506 -2.49307 0
M  V30 4439 H 415.346 0.573873 -2.94358 0
M  V30 4440 H 412.899 0.262186 -1.54085 0
M  V30 4441 H 413.634 2.79438 -1.64575 0
M  V30 4442 H 413.419 2.13087 -3.29145 0
M  V30 4443 H 414.909 3.02906 -2.87468 0
M  V30 4444 N 415.346 1.54954 0.287554 0
M  V30 4445 C 416.592 1.75132 1.02257 0
M  V30 4446 C 416.925 0.542858 1.86458 0
M  V30 4447 O 416.2 -0.459856 1.88986 0
M  V30 4448 C 416.483 3.04812 1.91733 0
M  V30 4449 C 416.336 4.35985 1.10622 0
M  V30 4450 C 417.655 3.30438 2.90687 0
M  V30 4451 H 414.774 0.637194 0.370341 0
M  V30 4452 H 417.416 1.87678 0.296111 0
M  V30 4453 H 415.566 2.94247 2.53675 0
M  V30 4454 H 417.238 4.58487 0.508636 0
M  V30 4455 H 415.481 4.31865 0.409271 0
M  V30 4456 H 416.152 5.23017 1.76513 0
M  V30 4457 H 418.628 3.40701 2.38877 0
M  V30 4458 H 417.504 4.22467 3.50447 0
M  V30 4459 H 417.765 2.49377 3.65053 0
M  V30 4460 N 416.824 -0.551391 1.4764 0
M  V30 4461 C 418.073 -1.30467 1.53822 0
M  V30 4462 C 418.386 -1.94495 0.207661 0
M  V30 4463 O 419.592 -2.71099 0.147533 0
M  V30 4464 C 418.048 -2.36616 2.71184 0
M  V30 4465 C 417.656 -1.78754 4.10793 0
M  V30 4466 C 419.4 -3.13088 2.86663 0
M  V30 4467 C 417.307 -2.82717 5.19447 0
M  V30 4468 H 416.237 -0.490584 0.572576 0
M  V30 4469 H 418.888 -0.58494 1.73927 0
M  V30 4470 H 417.27 -3.11529 2.4447 0
M  V30 4471 H 418.444 -1.10173 4.47435 0
M  V30 4472 H 416.759 -1.14846 4.00249 0
M  V30 4473 H 419.356 -3.90736 3.65007 0
M  V30 4474 H 419.699 -3.67635 1.95321 0
M  V30 4475 H 420.232 -2.45288 3.13175 0
M  V30 4476 H 416.971 -2.33018 6.12685 0
M  V30 4477 H 416.491 -3.4969 4.87316 0
M  V30 4478 H 418.17 -3.46102 5.46646 0
M  V30 4479 N 418.302 -1.35869 -0.798587 0
M  V30 4480 C 419.53 -1.32722 -1.58722 0
M  V30 4481 C 419.945 0.0935631 -1.88568 0
M  V30 4482 O 419.302 1.04784 -1.49421 0
M  V30 4483 C 419.353 -2.13974 -2.91371 0
M  V30 4484 O 419.074 -3.50514 -2.62815 0
M  V30 4485 C 420.575 -2.18504 -3.85708 0
M  V30 4486 H 417.795 -0.45562 -0.492596 0
M  V30 4487 H 420.339 -1.78837 -0.991843 0
M  V30 4488 H 418.494 -1.71438 -3.47402 0
M  V30 4489 H 418.908 -3.92806 -3.47568 0
M  V30 4490 H 420.382 -2.79732 -4.75872 0
M  V30 4491 H 420.859 -1.18597 -4.22885 0
M  V30 4492 H 421.465 -2.61236 -3.35612 0
M  V30 4493 N 419.78 1.02168 -1.19998 0
M  V30 4494 C 420.727 2.10601 -0.944228 0
M  V30 4495 C 421.697 1.65639 0.123664 0
M  V30 4496 O 422.882 1.9079 -0.0199941 0
M  V30 4497 C 420.022 3.41504 -0.496865 0
M  V30 4498 C 419.135 3.99973 -1.63234 0
M  V30 4499 C 418.27 5.18915 -1.13579 0
M  V30 4500 C 417.309 5.69456 -2.24468 0
M  V30 4501 N 416.446 6.79665 -1.76068 0
M  V30 4502 H 421.286 2.31814 -1.8726 0
M  V30 4503 H 418.823 1.13686 -0.933483 0
M  V30 4504 H 420.781 4.16626 -0.218843 0
M  V30 4505 H 419.411 3.2038 0.394508 0
M  V30 4506 H 418.463 3.21997 -2.0254 0
M  V30 4507 H 419.775 4.33492 -2.46752 0
M  V30 4508 H 418.929 6.01222 -0.813429 0
M  V30 4509 H 417.668 4.8695 -0.270434 0
M  V30 4510 H 416.673 4.85757 -2.57526 0
M  V30 4511 H 417.898 6.03459 -3.11472 0
M  V30 4512 H 415.844 6.49538 -0.918516 0
M  V30 4513 H 415.761 7.12349 -2.5317 0
M  V30 4514 H 417.029 7.65549 -1.46817 0
M  V30 4515 N 421.258 1.00505 1.21394 0
M  V30 4516 C 422.168 0.574806 2.27449 0
M  V30 4517 C 423.184 -0.382206 1.6975 0
M  V30 4518 O 424.36 -0.246027 1.99892 0
M  V30 4519 C 421.425 -0.0917414 3.46579 0
M  V30 4520 C 420.486 0.909758 4.1955 0
M  V30 4521 C 419.719 0.274924 5.32991 0
M  V30 4522 O 419.942 -0.928254 5.62796 0
M  V30 4523 O 418.876 0.985877 5.93771 0
M  V30 4524 H 422.702 1.45744 2.66444 0
M  V30 4525 H 420.287 0.773923 1.27792 0
M  V30 4526 H 422.169 -0.464551 4.18832 0
M  V30 4527 H 420.844 -0.948755 3.09484 0
M  V30 4528 H 419.751 1.33372 3.49518 0
M  V30 4529 H 421.084 1.73636 4.60555 0
M  V30 4530 N 422.737 -1.36956 0.779787 0
M  V30 4531 C 423.667 -2.32761 0.185651 0
M  V30 4532 C 424.648 -1.56177 -0.673989 0
M  V30 4533 O 425.833 -1.84378 -0.609797 0
M  V30 4534 C 422.963 -3.40418 -0.687964 0
M  V30 4535 C 421.917 -4.27941 0.0710102 0
M  V30 4536 C 421.243 -5.26681 -0.922573 0
M  V30 4537 C 422.543 -5.07006 1.25467 0
M  V30 4538 H 424.237 -2.82698 0.986008 0
M  V30 4539 H 421.783 -1.3592 0.475592 0
M  V30 4540 H 423.736 -4.06423 -1.11348 0
M  V30 4541 H 422.46 -2.89025 -1.52093 0
M  V30 4542 H 421.119 -3.63478 0.47739 0
M  V30 4543 H 420.767 -4.71565 -1.7503 0
M  V30 4544 H 420.467 -5.86103 -0.419237 0
M  V30 4545 H 421.991 -5.9556 -1.34686 0
M  V30 4546 H 423.405 -5.66105 0.905401 0
M  V30 4547 H 421.802 -5.75793 1.69063 0
M  V30 4548 H 422.872 -4.3921 2.05481 0
M  V30 4549 N 424.215 -0.530993 -1.48385 0
M  V30 4550 C 425.464 0.00474348 -2.01699 0
M  V30 4551 C 425.777 1.35227 -1.41325 0
M  V30 4552 O 426.983 1.97643 -1.86144 0
M  V30 4553 C 425.439 0.0588473 -3.59852 0
M  V30 4554 C 425.047 -1.28385 -4.2921 0
M  V30 4555 C 426.791 0.543358 -4.21008 0
M  V30 4556 C 424.698 -1.19028 -5.79298 0
M  V30 4557 H 423.628 0.00554317 -0.75398 0
M  V30 4558 H 426.279 -0.674924 -1.70637 0
M  V30 4559 H 424.661 0.803612 -3.8776 0
M  V30 4560 H 425.835 -2.04426 -4.12973 0
M  V30 4561 H 424.15 -1.70418 -3.7993 0
M  V30 4562 H 426.747 0.631351 -5.3096 0
M  V30 4563 H 427.09 1.54937 -3.86394 0
M  V30 4564 H 427.623 -0.145754 -3.97533 0
M  V30 4565 H 424.362 -2.17147 -6.18488 0
M  V30 4566 H 423.882 -0.471246 -5.97946 0
M  V30 4567 H 425.561 -0.881365 -6.40969 0
M  V30 4568 N 425.693 1.55336 -0.266172 0
M  V30 4569 C 426.603 2.2583 0.635458 0
M  V30 4570 C 427.619 1.28106 1.17749 0
M  V30 4571 O 428.795 1.61024 1.20968 0
M  V30 4572 C 425.86 2.95879 1.80712 0
M  V30 4573 C 424.921 4.09059 1.30265 0
M  V30 4574 C 424.154 4.75759 2.41846 0
M  V30 4575 O 424.377 4.41622 3.61007 0
M  V30 4576 O 423.311 5.63888 2.1051 0
M  V30 4577 H 427.137 3.03631 0.0646693 0
M  V30 4578 H 424.722 1.49361 -0.0339177 0
M  V30 4579 H 426.604 3.39932 2.49047 0
M  V30 4580 H 425.279 2.21002 2.36516 0
M  V30 4581 H 424.186 3.69482 0.586019 0
M  V30 4582 H 425.519 4.85811 0.790458 0
M  V30 4583 N 427.171 -0.0066808 1.57599 0
M  V30 4584 C 428.42 -0.692078 1.89455 0
M  V30 4585 C 428.733 -1.75306 0.867586 0
M  V30 4586 O 429.939 -2.49262 1.07614 0
M  V30 4587 C 428.395 -1.2821 3.36289 0
M  V30 4588 C 428.003 -0.256291 4.47266 0
M  V30 4589 C 429.747 -1.94608 3.77264 0
M  V30 4590 C 427.654 -0.855927 5.85173 0
M  V30 4591 H 426.584 -0.262252 0.706923 0
M  V30 4592 H 429.235 0.052769 1.83424 0
M  V30 4593 H 427.617 -2.0774 3.37135 0
M  V30 4594 H 428.791 0.513923 4.57925 0
M  V30 4595 H 427.106 0.306862 4.15268 0
M  V30 4596 H 429.703 -2.40364 4.77629 0
M  V30 4597 H 430.046 -2.77382 3.10427 0
M  V30 4598 H 430.579 -1.21822 3.78688 0
M  V30 4599 H 427.318 -0.0671161 6.55466 0
M  V30 4600 H 426.838 -1.59546 5.78191 0
M  V30 4601 H 428.517 -1.35658 6.32618 0
M  V30 4602 N 428.649 -1.55105 -0.279332 0
M  V30 4603 C 429.898 -1.74618 -1.00952 0
M  V30 4604 C 430.211 -0.551096 -1.87676 0
M  V30 4605 O 431.417 -0.628507 -2.64125 0
M  V30 4606 C 429.873 -3.09025 -1.84476 0
M  V30 4607 C 429.481 -4.36081 -1.0265 0
M  V30 4608 C 431.225 -3.37891 -2.56963 0
M  V30 4609 C 429.132 -5.6153 -1.85576 0
M  V30 4610 H 428.062 -0.650868 -0.38064 0
M  V30 4611 H 430.713 -1.81569 -0.265475 0
M  V30 4612 H 429.095 -2.96095 -2.62952 0
M  V30 4613 H 430.269 -4.59909 -0.286354 0
M  V30 4614 H 428.584 -4.14312 -0.416464 0
M  V30 4615 H 431.181 -4.28822 -3.19399 0
M  V30 4616 H 431.524 -2.57737 -3.26921 0
M  V30 4617 H 432.057 -3.5189 -1.85522 0
M  V30 4618 H 428.796 -6.44413 -1.2005 0
M  V30 4619 H 428.316 -5.41854 -2.57204 0
M  V30 4620 H 429.995 -5.99594 -2.43096 0
M  V30 4621 N 430.127 0.543554 -1.4793 0
M  V30 4622 C 431.352 1.32995 -1.59145 0
M  V30 4623 C 431.777 1.86472 -0.246956 0
M  V30 4624 O 431.135 1.63696 0.779324 0
M  V30 4625 C 431.183 2.46623 -2.63077 0
M  V30 4626 O 430.287 3.49261 -2.19295 0
M  V30 4627 H 429.628 0.394472 -0.534124 0
M  V30 4628 H 432.158 0.655489 -1.93816 0
M  V30 4629 H 432.168 2.93001 -2.83926 0
M  V30 4630 H 430.843 2.07059 -3.60693 0
M  V30 4631 H 429.42 3.09094 -2.08603 0
M  V30 4632 N 431.605 1.3629 0.791371 0
M  V30 4633 C 432.853 1.30154 1.5461 0
M  V30 4634 C 433.174 -0.119409 1.94634 0
M  V30 4635 O 432.444 -1.05924 1.64794 0
M  V30 4636 H 431.024 0.478784 0.573389 0
M  V30 4637 H 433.686 1.70565 0.94306 0
M  V30 4638 H 432.782 1.92762 2.45457 0
M  V30 4639 N 433.083 -1.0153 1.20538 0
M  V30 4640 C 434.046 -2.0826 0.957098 0
M  V30 4641 C 435.046 -1.60657 -0.0678655 0
M  V30 4642 O 436.236 -1.73385 0.168332 0
M  V30 4643 C 433.368 -3.38033 0.441188 0
M  V30 4644 H 434.561 -2.31719 1.90384 0
M  V30 4645 H 432.114 -1.1835 1.02093 0
M  V30 4646 H 432.849 -3.20249 -0.510961 0
M  V30 4647 H 432.634 -3.73911 1.18038 0
M  V30 4648 H 434.124 -4.16613 0.287009 0
M  V30 4649 N 434.561 -1.01147 -1.20859 0
M  V30 4650 C 435.524 -0.582224 -2.21682 0
M  V30 4651 C 436.524 0.344887 -1.57058 0
M  V30 4652 O 437.714 0.134281 -1.73682 0
M  V30 4653 C 434.846 0.150496 -3.40568 0
M  V30 4654 H 436.039 -1.47408 -2.61172 0
M  V30 4655 H 433.592 -0.800695 -1.34233 0
M  V30 4656 H 434.327 1.0575 -3.06574 0
M  V30 4657 H 434.112 -0.515444 -3.88697 0
M  V30 4658 H 435.602 0.438344 -4.15293 0
M  V30 4659 N 436.039 1.36541 -0.78704 0
M  V30 4660 C 437.002 2.28413 -0.189778 0
M  V30 4661 C 438.002 1.48719 0.611499 0
M  V30 4662 O 439.192 1.68737 0.432842 0
M  V30 4663 C 436.324 3.32824 0.737638 0
M  V30 4664 H 437.517 2.82743 -0.999831 0
M  V30 4665 H 435.07 1.46065 -0.556298 0
M  V30 4666 H 435.805 2.83646 1.57212 0
M  V30 4667 H 435.59 3.91752 0.165044 0
M  V30 4668 H 437.08 4.0144 1.15047 0
M  V30 4669 N 437.518 0.538854 1.48102 0
M  V30 4670 C 438.448 -0.207654 2.32575 0
M  V30 4671 C 439.429 -0.926559 1.4265 0
M  V30 4672 O 440.614 -0.91061 1.71527 0
M  V30 4673 C 437.744 -1.24957 3.24042 0
M  V30 4674 C 436.698 -0.648263 4.23062 0
M  V30 4675 C 436.024 -1.79348 5.03725 0
M  V30 4676 C 437.324 0.385897 5.20872 0
M  V30 4677 H 439.018 0.497534 2.95237 0
M  V30 4678 H 436.564 0.240715 1.41974 0
M  V30 4679 H 438.517 -1.77983 3.81969 0
M  V30 4680 H 437.241 -1.98446 2.59397 0
M  V30 4681 H 435.9 -0.139452 3.66335 0
M  V30 4682 H 435.548 -2.51696 4.35498 0
M  V30 4683 H 435.248 -1.39702 5.70751 0
M  V30 4684 H 436.772 -2.32735 5.64506 0
M  V30 4685 H 438.186 -0.057607 5.73271 0
M  V30 4686 H 436.583 0.700227 5.96001 0
M  V30 4687 H 437.653 1.28848 4.67468 0
M  V30 4688 N 438.996 -1.55193 0.274407 0
M  V30 4689 C 440.273 -1.91584 -0.394331 0
M  V30 4690 C 440.653 -1.19858 -1.73774 0
M  V30 4691 O 440.001 -0.3252 -2.26174 0
M  V30 4692 C 440.211 -3.4487 -0.535311 0
M  V30 4693 C 441.559 -4.16636 -0.818534 0
M  V30 4694 O 442.583 -3.5076 -0.620146 0
M  V30 4695 O 441.442 -5.33209 -1.19792 0
M  V30 4696 H 438.536 -0.798349 -0.215794 0
M  V30 4697 H 441.082 -1.66646 0.320507 0
M  V30 4698 H 439.854 -3.89145 0.410141 0
M  V30 4699 H 439.477 -3.75759 -1.29964 0
M  V30 4700 O 440.513 -0.140013 -1.60892 0
M  V30 4701 H 441.204 0.455152 -1.88277 0
M  V30 END ATOM
M  V30 BEGIN BOND
M  V30 END BOND
M  V30 END CTAB
M  END
$$$$
