drugbank_target|P16115 L-lactate dehydrogenase (DB03940)
 OpenBabel12092119523D

  0  0  0     0  0            999 V3000
M  V30 BEGIN CTAB
M  V30 COUNTS 4975 5013 0 0 0
M  V30 BEGIN ATOM
M  V30 1 H -0.908 1.98254 -0.117106 0
M  V30 2 N 0 1.576 0 0
M  V30 3 C 0.933 2.03868 1.02534 0
M  V30 4 C 1.911 0.928543 1.3348 0
M  V30 5 O 3.095 1.19667 1.45644 0
M  V30 6 C 0.222 2.43627 2.35294 0
M  V30 7 C -0.732 3.65373 2.2001 0
M  V30 8 S 0.101 5.13292 1.52614 0
M  V30 9 C 1.257 5.56322 2.86805 0
M  V30 10 H 1.49 2.90518 0.631377 0
M  V30 11 H -0.977 1.52953 0.210867 0
M  V30 12 H 0.981 2.67203 3.11629 0
M  V30 13 H -0.358 1.57376 2.7183 0
M  V30 14 H -1.165 3.90944 3.18086 0
M  V30 15 H -1.563 3.418 1.51819 0
M  V30 16 H 0.729 5.58782 3.83104 0
M  V30 17 H 1.672 6.56266 2.65933 0
M  V30 18 H 2.08 4.83886 2.90714 0
M  V30 19 N 1.4781 -0.272755 1.55222 0
M  V30 20 C 2.4251 -1.33716 1.88119 0
M  V30 21 C 3.3951 -1.49066 0.73271 0
M  V30 22 O 4.5801 -1.63469 0.984002 0
M  V30 23 C 1.7201 -2.69238 2.15882 0
M  V30 24 C 0.8331 -2.62108 3.43399 0
M  V30 25 C -0.0319 -3.89811 3.60861 0
M  V30 26 C -0.9929 -3.77193 4.8207 0
M  V30 27 N -1.8559 -4.9673 4.96189 0
M  V30 28 H 2.9841 -1.04962 2.78903 0
M  V30 29 H 0.5211 -0.507088 1.38083 0
M  V30 30 H 2.4791 -3.48089 2.29978 0
M  V30 31 H 1.1091 -2.96194 1.28331 0
M  V30 32 H 0.1611 -1.74967 3.37773 0
M  V30 33 H 1.4731 -2.48685 4.32386 0
M  V30 34 H 0.6271 -4.77103 3.74777 0
M  V30 35 H -0.6339 -4.06102 2.7006 0
M  V30 36 H -1.6289 -2.88284 4.68159 0
M  V30 37 H -0.4039 -3.62421 5.74307 0
M  V30 38 H -2.4579 -5.13431 4.08319 0
M  V30 39 H -2.5409 -4.85839 5.79221 0
M  V30 40 H -1.2729 -5.85594 5.1449 0
M  V30 41 N 2.9562 -1.48159 -0.537278 0
M  V30 42 C 4.2052 -1.5506 -1.28993 0
M  V30 43 C 4.5182 -0.226211 -1.94288 0
M  V30 44 O 5.7242 -0.173395 -2.70946 0
M  V30 45 C 4.1802 -2.73429 -2.34018 0
M  V30 46 C 3.7882 -4.1248 -1.74825 0
M  V30 47 C 5.5322 -2.89638 -3.10339 0
M  V30 48 C 3.4392 -5.22121 -2.77747 0
M  V30 49 H 2.3692 -0.577231 -0.485098 0
M  V30 50 H 5.0202 -1.74478 -0.568317 0
M  V30 51 H 3.4022 -2.47431 -3.09182 0
M  V30 52 H 4.5762 -4.48466 -1.05899 0
M  V30 53 H 2.8912 -4.01327 -1.11022 0
M  V30 54 H 5.4882 -3.68718 -3.87235 0
M  V30 55 H 5.8312 -1.9882 -3.65754 0
M  V30 56 H 6.3642 -3.15502 -2.42288 0
M  V30 57 H 3.1032 -6.1488 -2.27161 0
M  V30 58 H 2.6232 -4.90631 -3.45024 0
M  V30 59 H 4.3022 -5.49924 -3.4087 0
M  V30 60 N 4.4343 0.785586 -1.36625 0
M  V30 61 C 5.6823 1.54057 -1.30808 0
M  V30 62 C 6.0033 1.94683 0.111157 0
M  V30 63 O 5.2733 1.65241 1.05224 0
M  V30 64 H 3.8533 0.571354 -0.481211 0
M  V30 65 H 6.5153 0.935821 -1.70963 0
M  V30 66 H 5.6113 2.44637 -1.93801 0
M  V30 67 N 5.9124 1.20967 1.01018 0
M  V30 68 C 7.1614 1.01796 1.74128 0
M  V30 69 C 7.4744 -0.449691 1.90361 0
M  V30 70 O 8.6804 -0.76068 2.60626 0
M  V30 71 C 7.1364 1.7727 3.13215 0
M  V30 72 C 6.7444 3.28171 3.04972 0
M  V30 73 C 8.4884 1.66489 3.90489 0
M  V30 74 C 6.3954 3.96156 4.39107 0
M  V30 75 H 5.3254 0.377276 0.652824 0
M  V30 76 H 7.9764 1.44651 1.12909 0
M  V30 77 H 6.3584 1.27205 3.75013 0
M  V30 78 H 7.5324 3.85499 2.52443 0
M  V30 79 H 5.8474 3.39437 2.41188 0
M  V30 80 H 8.4444 2.14617 4.89738 0
M  V30 81 H 8.7874 0.6222 4.11624 0
M  V30 82 H 9.3204 2.14003 3.35332 0
M  V30 83 H 6.0594 5.00604 4.23174 0
M  V30 84 H 5.5794 3.43617 4.91617 0
M  V30 85 H 7.2584 4.00774 5.07926 0
M  V30 86 N 7.3905 -1.2043 1.01659 0
M  V30 87 C 8.6365 -1.90079 0.706963 0
M  V30 88 C 8.9695 -1.78648 -0.761474 0
M  V30 89 O 8.2445 -1.17069 -1.55323 0
M  V30 90 C 8.5275 -3.41469 1.14327 0
M  V30 91 C 8.3805 -3.61833 2.67201 0
M  V30 92 C 9.6995 -4.34261 0.714529 0
M  V30 93 H 6.8185 -0.690254 0.2583 0
M  V30 94 H 9.4605 -1.41826 1.26433 0
M  V30 95 H 7.6105 -3.82696 0.669056 0
M  V30 96 H 9.2825 -3.2986 3.22475 0
M  V30 97 H 7.5255 -3.05304 3.08175 0
M  V30 98 H 8.1965 -4.67955 2.92783 0
M  V30 99 H 10.6725 -4.00682 1.12221 0
M  V30 100 H 9.5485 -5.38806 1.04784 0
M  V30 101 H 9.8095 -4.40431 -0.383799 0
M  V30 102 N 8.8686 -0.792821 -1.36206 0
M  V30 103 C 10.1166 -0.366062 -1.98757 0
M  V30 104 C 10.4376 1.0668 -1.63231 0
M  V30 105 O 9.7076 1.73587 -0.907978 0
M  V30 106 H 8.2876 -0.132364 -0.735179 0
M  V30 107 H 10.9496 -1.01562 -1.66347 0
M  V30 108 H 10.0456 -0.460638 -3.08682 0
M  V30 109 N 10.3467 1.47872 -0.545128 0
M  V30 110 C 11.2767 2.32661 0.197793 0
M  V30 111 C 12.2577 1.43041 0.920504 0
M  V30 112 O 13.4427 1.71912 0.90333 0
M  V30 113 C 10.5727 3.24569 1.23582 0
M  V30 114 C 9.5267 4.23333 0.630323 0
M  V30 115 C 8.8527 5.0448 1.77211 0
M  V30 116 C 10.1527 5.20704 -0.407974 0
M  V30 117 H 11.8467 2.95024 -0.510045 0
M  V30 118 H 9.3927 1.4187 -0.246731 0
M  V30 119 H 11.3457 3.8272 1.76362 0
M  V30 120 H 10.0697 2.60236 1.97344 0
M  V30 121 H 8.7287 3.6639 0.123922 0
M  V30 122 H 8.3767 4.36561 2.49847 0
M  V30 123 H 8.0767 5.71339 1.37281 0
M  V30 124 H 9.6007 5.65487 2.3034 0
M  V30 125 H 11.0147 5.7329 0.033305 0
M  V30 126 H 9.4117 5.95699 -0.725486 0
M  V30 127 H 10.4817 4.66917 -1.30828 0
M  V30 128 N 11.8248 0.280983 1.55075 0
M  V30 129 C 13.0728 -0.333455 1.9933 0
M  V30 130 C 13.3938 -1.55937 1.17085 0
M  V30 131 O 12.6638 -1.94143 0.261805 0
M  V30 132 H 11.2438 -0.126197 0.736263 0
M  V30 133 H 13.9058 0.387678 1.91005 0
M  V30 134 H 13.0018 -0.619292 3.05894 0
M  V30 135 N 13.3029 -1.57598 0.00835791 0
M  V30 136 C 14.7189 -1.55764 -0.347822 0
M  V30 137 C 14.9189 -1.01186 -1.74252 0
M  V30 138 O 13.9749 -0.649371 -2.44007 0
M  V30 139 C 15.2879 -2.99927 -0.215407 0
M  V30 140 C 16.8359 -3.11656 -0.289725 0
M  V30 141 C 17.3109 -4.57621 -0.18634 0
M  V30 142 N 18.8019 -4.62557 -0.243978 0
M  V30 143 C 19.5369 -5.73094 -0.18745 0
M  V30 144 N 19.0329 -6.92753 -0.0810331 0
M  V30 145 N 20.8259 -5.61588 -0.239925 0
M  V30 146 H 12.9769 -1.91411 0.92062 0
M  V30 147 H 15.2399 -0.879562 0.353659 0
M  V30 148 H 14.9459 -3.43729 0.744512 0
M  V30 149 H 14.8199 -3.63865 -0.994097 0
M  V30 150 H 17.2069 -2.67779 -1.24009 0
M  V30 151 H 17.2879 -2.5048 0.51898 0
M  V30 152 H 16.9319 -5.02174 0.760519 0
M  V30 153 H 16.8619 -5.16752 -1.01364 0
M  V30 154 H 19.3529 -3.76481 -0.327217 0
M  V30 155 H 19.6659 -7.72787 -0.0440241 0
M  V30 156 H 18.0109 -6.94984 -0.0465419 0
M  V30 157 H 21.2019 -4.66996 -0.321317 0
M  V30 158 H 21.3749 -6.47714 -0.192407 0
M  V30 159 N 14.781 0.264519 -1.55364 0
M  V30 160 C 16.027 0.99646 -1.76631 0
M  V30 161 C 16.36 1.85632 -0.570478 0
M  V30 162 O 15.635 1.89647 0.43175 0
M  V30 163 C 15.918 1.87187 -3.07625 0
M  V30 164 C 15.771 1.04138 -4.37579 0
M  V30 165 C 17.09 2.85749 -3.34717 0
M  V30 166 H 14.209 0.360841 -0.642622 0
M  V30 167 H 16.851 0.268218 -1.88097 0
M  V30 168 H 15.001 2.49279 -2.9798 0
M  V30 169 H 16.673 0.440517 -4.59192 0
M  V30 170 H 14.916 0.345115 -4.32425 0
M  V30 171 H 15.587 1.68729 -5.2558 0
M  V30 172 H 18.063 2.33793 -3.4421 0
M  V30 173 H 16.939 3.44136 -4.27623 0
M  V30 174 H 17.2 3.61311 -2.54768 0
M  V30 175 N 16.2591 1.48442 0.529413 0
M  V30 176 C 17.5071 1.56179 1.28267 0
M  V30 177 C 17.8281 0.237721 1.93546 0
M  V30 178 O 17.0981 -0.740779 1.81354 0
M  V30 179 H 15.6781 0.575367 0.476405 0
M  V30 180 H 18.3401 1.84909 0.61602 0
M  V30 181 H 17.4361 2.34312 2.06165 0
M  V30 182 N 17.7372 -0.778329 1.37039 0
M  V30 183 C 18.9622 -1.57248 1.35233 0
M  V30 184 C 19.3872 -1.87999 -0.0615568 0
M  V30 185 O 18.7452 -1.48734 -1.03672 0
M  V30 186 C 18.7932 -2.86353 2.19167 0
M  V30 187 O 17.8972 -3.80442 1.59178 0
M  V30 188 H 17.2382 -0.476569 0.462362 0
M  V30 189 H 19.7682 -0.963853 1.80474 0
M  V30 190 H 19.7782 -3.35519 2.32145 0
M  V30 191 H 18.4532 -2.63299 3.21942 0
M  V30 192 H 17.0302 -3.39067 1.55203 0
M  V30 193 N 19.2153 -1.21501 -1.00376 0
M  V30 194 C 20.4403 -1.05977 -1.78279 0
M  V30 195 C 20.8653 0.385994 -1.84097 0
M  V30 196 O 20.2233 1.27849 -1.28547 0
M  V30 197 C 20.2713 -1.66302 -3.19963 0
M  V30 198 O 19.3753 -0.909333 -4.0225 0
M  V30 199 H 18.7163 -0.372906 -0.549397 0
M  V30 200 H 21.2463 -1.6107 -1.26165 0
M  V30 201 H 21.2563 -1.70574 -3.70632 0
M  V30 202 H 19.9313 -2.71515 -3.15043 0
M  V30 203 H 18.5083 -0.941795 -3.60811 0
M  V30 204 N 20.6934 1.19889 -1.02296 0
M  V30 205 C 21.9214 1.9339 -0.735399 0
M  V30 206 C 22.3364 1.75148 0.704887 0
M  V30 207 O 21.6934 1.06954 1.47875 0
M  V30 208 C 21.7444 3.45313 -1.06962 0
M  V30 209 O 21.4654 3.62964 -2.45334 0
M  V30 210 C 22.9664 4.35948 -0.804021 0
M  V30 211 H 20.1864 0.61448 -0.269546 0
M  V30 212 H 22.7304 1.522 -1.36585 0
M  V30 213 H 20.8854 3.84359 -0.484455 0
M  V30 214 H 21.2994 4.56886 -2.57595 0
M  V30 215 H 22.7734 5.41174 -1.0879 0
M  V30 216 H 23.2504 4.3842 0.261691 0
M  V30 217 H 23.8564 4.02574 -1.37164 0
M  V30 218 N 22.1715 0.800033 1.35784 0
M  V30 219 C 23.1345 0.211565 2.28221 0
M  V30 220 C 24.1345 -0.59728 1.49296 0
M  V30 221 O 25.3245 -0.416721 1.69142 0
M  V30 222 C 22.4565 -0.705846 3.33513 0
M  V30 223 H 23.6495 1.02677 2.81776 0
M  V30 224 H 21.2025 0.570211 1.45528 0
M  V30 225 H 21.9375 -1.54498 2.85133 0
M  V30 226 H 21.7225 -0.127655 3.91892 0
M  V30 227 H 23.2125 -1.11211 4.02519 0
M  V30 228 N 23.6496 -1.47581 0.552962 0
M  V30 229 C 24.8966 -2.02482 0.0273243 0
M  V30 230 C 25.2246 -1.42776 -1.32081 0
M  V30 231 O 24.4796 -0.571393 -1.87173 0
M  V30 232 C 24.7786 -3.57199 -0.119728 0
M  V30 233 C 24.4446 -4.35804 1.15697 0
M  V30 234 C 23.1066 -4.57 1.50681 0
M  V30 235 C 25.4586 -4.81167 2.00319 0
M  V30 236 C 22.7866 -5.20807 2.70142 0
M  V30 237 C 25.1386 -5.46293 3.18978 0
M  V30 238 C 23.8026 -5.65722 3.54281 0
M  V30 239 H 23.0726 -0.740933 0.00999866 0
M  V30 240 H 25.7196 -1.77302 0.72362 0
M  V30 241 H 24.0246 -3.81348 -0.89896 0
M  V30 242 H 25.7216 -3.97324 -0.541718 0
M  V30 243 H 22.3116 -4.19582 0.874561 0
M  V30 244 H 26.4956 -4.64574 1.74599 0
M  V30 245 H 21.7516 -5.34045 2.97668 0
M  V30 246 H 25.9256 -5.80407 3.84838 0
M  V30 247 H 23.5526 -6.14936 4.46942 0
M  V30 248 N 25.1277 -0.289203 -1.54924 0
M  V30 249 C 26.0907 0.579144 -2.21762 0
M  V30 250 C 27.0907 1.07047 -1.1999 0
M  V30 251 O 28.2807 0.968384 -1.44803 0
M  V30 252 C 25.4127 1.80055 -2.8947 0
M  V30 253 H 26.6057 -0.00464908 -2.999 0
M  V30 254 H 24.1587 -0.0399306 -1.56249 0
M  V30 255 H 24.8937 2.42449 -2.15381 0
M  V30 256 H 24.6787 1.45602 -3.64064 0
M  V30 257 H 26.1687 2.41773 -3.40493 0
M  V30 258 N 26.6058 1.57591 -0.0167156 0
M  V30 259 C 27.5358 2.12496 0.967858 0
M  V30 260 C 28.5168 1.03807 1.34752 0
M  V30 261 O 29.7018 1.31577 1.42833 0
M  V30 262 C 26.8318 2.64194 2.25431 0
M  V30 263 C 25.7858 3.77559 2.01576 0
M  V30 264 C 25.1118 4.15636 3.36379 0
M  V30 265 C 26.4118 5.04151 1.36489 0
M  V30 266 H 28.1058 2.95013 0.510643 0
M  V30 267 H 25.6518 1.41915 0.244181 0
M  V30 268 H 27.6048 3.01236 2.94678 0
M  V30 269 H 26.3288 1.78821 2.73296 0
M  V30 270 H 24.9878 3.40937 1.34751 0
M  V30 271 H 24.6358 3.27263 3.81979 0
M  V30 272 H 24.3358 4.92022 3.21229 0
M  V30 273 H 25.8598 4.5525 4.06915 0
M  V30 274 H 27.2738 5.38857 1.95718 0
M  V30 275 H 25.6708 5.85453 1.31776 0
M  V30 276 H 26.7408 4.83733 0.336219 0
M  V30 277 N 28.0839 -0.256276 1.55502 0
M  V30 278 C 29.0139 -1.32102 1.92539 0
M  V30 279 C 29.9949 -1.50684 0.789194 0
M  V30 280 O 31.1799 -1.63449 1.04872 0
M  V30 281 C 28.3099 -2.67752 2.21192 0
M  V30 282 C 27.2639 -2.63878 3.36975 0
M  V30 283 C 26.5899 -4.03236 3.51147 0
M  V30 284 C 27.8899 -2.21682 4.72921 0
M  V30 285 H 29.5839 -1.01351 2.81724 0
M  V30 286 H 27.1299 -0.486105 1.35547 0
M  V30 287 H 29.0829 -3.42365 2.45691 0
M  V30 288 H 27.8069 -3.0012 1.28824 0
M  V30 289 H 26.4659 -1.91722 3.12471 0
M  V30 290 H 26.1139 -4.32854 2.56216 0
M  V30 291 H 25.8139 -4.01535 4.29003 0
M  V30 292 H 27.3379 -4.79563 3.77957 0
M  V30 293 H 28.7519 -2.86023 4.96854 0
M  V30 294 H 27.1489 -2.3111 5.53812 0
M  V30 295 H 28.2189 -1.16833 4.70615 0
M  V30 296 N 29.562 -1.4872 -0.521534 0
M  V30 297 C 30.495 -1.58451 -1.64221 0
M  V30 298 C 31.473 -0.434513 -1.56687 0
M  V30 299 O 32.657 -0.647275 -1.77038 0
M  V30 300 C 29.784 -1.52037 -3.02659 0
M  V30 301 C 28.83 -2.71981 -3.28525 0
M  V30 302 S 29.663 -4.33869 -3.13876 0
M  V30 303 C 30.819 -4.30067 -4.54745 0
M  V30 304 H 31.052 -2.53256 -1.55719 0
M  V30 305 H 28.585 -1.37358 -0.705143 0
M  V30 306 H 30.543 -1.49023 -3.82495 0
M  V30 307 H 29.204 -0.585541 -3.08594 0
M  V30 308 H 28.397 -2.63656 -4.29536 0
M  V30 309 H 27.999 -2.72302 -2.56374 0
M  V30 310 H 30.291 -4.00521 -5.46433 0
M  V30 311 H 31.234 -5.31287 -4.68123 0
M  V30 312 H 31.642 -3.60419 -4.34463 0
M  V30 313 N 31.0401 0.771051 -1.3745 0
M  V30 314 C 31.9871 1.88435 -1.3327 0
M  V30 315 C 32.9571 1.64914 -0.198136 0
M  V30 316 O 34.1421 1.86821 -0.387606 0
M  V30 317 C 31.2821 3.25509 -1.14622 0
M  V30 318 C 30.3951 3.60979 -2.37314 0
M  V30 319 C 29.5301 4.87265 -2.11533 0
M  V30 320 C 28.5691 5.15469 -3.30088 0
M  V30 321 N 27.7061 6.32944 -3.03853 0
M  V30 322 H 32.5461 1.91344 -2.28455 0
M  V30 323 H 30.0831 0.935466 -1.13523 0
M  V30 324 H 32.0411 4.04582 -1.01831 0
M  V30 325 H 30.6711 3.21974 -0.230837 0
M  V30 326 H 29.7231 2.76885 -2.60842 0
M  V30 327 H 31.0351 3.77759 -3.25729 0
M  V30 328 H 30.1891 5.74244 -1.95777 0
M  V30 329 H 28.9281 4.7259 -1.20457 0
M  V30 330 H 27.9331 4.26966 -3.46382 0
M  V30 331 H 29.1581 5.32052 -4.22016 0
M  V30 332 H 27.1041 6.19625 -2.15407 0
M  V30 333 H 27.0211 6.50143 -3.85812 0
M  V30 334 H 28.2891 7.22857 -2.91716 0
M  V30 335 N 32.5182 1.22032 0.997298 0
M  V30 336 C 33.7662 1.04016 1.73278 0
M  V30 337 C 34.0872 -0.426255 1.90284 0
M  V30 338 O 33.3572 -1.30694 1.45931 0
M  V30 339 H 31.9372 0.381897 0.642 0
M  V30 340 H 34.5992 1.5347 1.20137 0
M  V30 341 H 33.6952 1.51441 2.72896 0
M  V30 342 N 33.9963 -1.19345 1.0293 0
M  V30 343 C 35.2433 -1.89038 0.726008 0
M  V30 344 C 35.5713 -1.79649 -0.745427 0
M  V30 345 O 34.8263 -1.18354 -1.55855 0
M  V30 346 C 35.1253 -3.39292 1.12319 0
M  V30 347 C 34.7913 -3.68885 2.59297 0
M  V30 348 C 33.4533 -3.76671 2.99453 0
M  V30 349 C 35.8053 -3.82178 3.54386 0
M  V30 350 C 33.1333 -3.9522 4.33611 0
M  V30 351 C 35.4853 -4.0224 4.88248 0
M  V30 352 C 34.1493 -4.08259 5.28092 0
M  V30 353 H 33.4193 -0.691739 0.265665 0
M  V30 354 H 36.0663 -1.41328 1.29223 0
M  V30 355 H 34.3713 -3.88903 0.475584 0
M  V30 356 H 36.0683 -3.91536 0.866037 0
M  V30 357 H 32.6583 -3.63433 2.27189 0
M  V30 358 H 36.8423 -3.75505 3.24514 0
M  V30 359 H 32.0983 -3.98119 4.64016 0
M  V30 360 H 36.2723 -4.11468 5.61843 0
M  V30 361 H 33.8993 -4.22384 6.32057 0
M  V30 362 N 35.4744 -0.807222 -1.35358 0
M  V30 363 C 36.4374 -0.223665 -2.28106 0
M  V30 364 C 37.4374 0.589354 -1.4961 0
M  V30 365 O 38.6274 0.407745 -1.69361 0
M  V30 366 C 35.7594 0.688149 -3.33882 0
M  V30 367 H 36.9524 -1.04169 -2.81227 0
M  V30 368 H 34.5054 -0.577921 -1.45223 0
M  V30 369 H 35.2404 1.52984 -2.85948 0
M  V30 370 H 35.0254 0.10687 -3.91954 0
M  V30 371 H 36.5154 1.09075 -4.03104 0
M  V30 372 N 36.9525 1.47285 -0.560781 0
M  V30 373 C 38.3685 1.58065 -0.22081 0
M  V30 374 C 38.5685 1.55892 1.27671 0
M  V30 375 O 37.6245 1.46422 2.0571 0
M  V30 376 C 38.9375 2.88418 -0.850625 0
M  V30 377 C 40.4855 3.02009 -0.822184 0
M  V30 378 C 40.9605 4.35066 -1.43113 0
M  V30 379 N 42.4515 4.41711 -1.39448 0
M  V30 380 C 43.1865 5.43237 -1.83525 0
M  V30 381 N 42.6825 6.51555 -2.35474 0
M  V30 382 N 44.4755 5.34304 -1.74574 0
M  V30 383 H 36.6265 1.46941 -1.53369 0
M  V30 384 H 38.8895 0.699558 -0.639783 0
M  V30 385 H 38.5955 2.95755 -1.9032 0
M  V30 386 H 38.4695 3.75612 -0.345773 0
M  V30 387 H 40.8565 2.94266 0.221714 0
M  V30 388 H 40.9375 2.16347 -1.36483 0
M  V30 389 H 40.5815 4.43565 -2.47412 0
M  V30 390 H 40.5115 5.19465 -0.863899 0
M  V30 391 H 43.0025 3.64027 -1.01452 0
M  V30 392 H 43.3155 7.25203 -2.67021 0
M  V30 393 H 41.6605 6.52435 -2.39487 0
M  V30 394 H 44.8515 4.48581 -1.33763 0
M  V30 395 H 45.0245 6.13288 -2.09242 0
M  V30 396 N 38.4306 0.297415 1.54768 0
M  V30 397 C 39.3406 -0.58983 2.27064 0
M  V30 398 C 40.3566 -1.15144 1.30453 0
M  V30 399 O 41.5326 -1.17699 1.63428 0
M  V30 400 C 38.5976 -1.74714 2.9946 0
M  V30 401 C 37.6586 -1.21997 4.11601 0
M  V30 402 C 36.8916 -2.32212 4.80535 0
M  V30 403 O 37.1146 -3.52036 4.48806 0
M  V30 404 O 36.0486 -1.99106 5.68014 0
M  V30 405 H 39.8746 -0.00348199 3.037 0
M  V30 406 H 37.4596 0.0640035 1.49263 0
M  V30 407 H 39.3416 -2.42147 3.44881 0
M  V30 408 H 38.0166 -2.32016 2.25722 0
M  V30 409 H 36.9236 -0.511458 3.70587 0
M  V30 410 H 38.2566 -0.692419 4.87305 0
M  V30 411 N 39.9087 -1.5758 0.0250728 0
M  V30 412 C 40.8417 -2.05473 -0.992777 0
M  V30 413 C 41.8197 -0.949661 -1.31986 0
M  V30 414 O 43.0037 -1.21969 -1.43722 0
M  V30 415 C 40.1307 -2.4734 -2.31389 0
M  V30 416 C 39.1767 -3.68827 -2.1417 0
M  V30 417 S 40.0097 -5.15655 -1.44429 0
M  V30 418 C 41.1657 -5.60814 -2.77918 0
M  V30 419 H 41.3987 -2.91486 -0.585078 0
M  V30 420 H 38.9317 -1.53269 -0.186507 0
M  V30 421 H 40.8897 -2.72127 -3.07339 0
M  V30 422 H 39.5507 -1.6168 -2.69292 0
M  V30 423 H 38.7437 -3.95955 -3.11826 0
M  V30 424 H 38.3457 -3.44172 -1.46362 0
M  V30 425 H 40.6377 -5.64806 -3.74166 0
M  V30 426 H 41.5807 -6.60414 -2.55459 0
M  V30 427 H 41.9887 -4.8845 -2.82979 0
M  V30 428 N 41.3868 0.248026 -1.55636 0
M  V30 429 C 42.6328 0.97767 -1.77678 0
M  V30 430 C 42.9658 1.85016 -0.590135 0
M  V30 431 O 42.2408 1.90095 0.411611 0
M  V30 432 C 42.5238 1.83914 -3.09593 0
M  V30 433 C 42.3768 0.99491 -4.38659 0
M  V30 434 C 43.6958 2.82183 -3.37729 0
M  V30 435 H 40.8148 0.354005 -0.646413 0
M  V30 436 H 43.4568 0.248253 -1.88371 0
M  V30 437 H 41.6068 2.46104 -3.00608 0
M  V30 438 H 43.2788 0.391789 -4.59633 0
M  V30 439 H 41.5218 0.299231 -4.32767 0
M  V30 440 H 42.1928 1.63145 -5.2734 0
M  V30 441 H 44.6688 2.30129 -3.4667 0
M  V30 442 H 43.5448 3.39582 -4.31249 0
M  V30 443 H 43.8058 3.58588 -2.58586 0
M  V30 444 N 42.8649 1.48995 0.513639 0
M  V30 445 C 43.7949 1.67636 1.62544 0
M  V30 446 C 44.7759 0.525087 1.61793 0
M  V30 447 O 45.9609 0.759502 1.78732 0
M  V30 448 C 43.0909 1.73114 3.01079 0
M  V30 449 C 42.0449 2.87905 3.16693 0
M  V30 450 C 41.3709 2.78486 4.56453 0
M  V30 451 C 42.6709 4.29005 2.97913 0
M  V30 452 H 44.3649 2.60716 1.47198 0
M  V30 453 H 41.9109 1.25465 0.706714 0
M  V30 454 H 43.8639 1.84742 3.78746 0
M  V30 455 H 42.5879 0.766241 3.17484 0
M  V30 456 H 41.2469 2.75859 2.41448 0
M  V30 457 H 40.8949 1.7993 4.69717 0
M  V30 458 H 40.5949 3.55523 4.67843 0
M  V30 459 H 42.1189 2.92104 5.36197 0
M  V30 460 H 43.5329 4.41798 3.65359 0
M  V30 461 H 41.9299 5.07166 3.20785 0
M  V30 462 H 42.9999 4.44329 1.94165 0
M  V30 463 N 44.343 -0.763751 1.37857 0
M  V30 464 C 45.592 -1.51789 1.32827 0
M  V30 465 C 45.905 -1.95426 -0.0823719 0
M  V30 466 O 47.111 -2.70298 -0.255172 0
M  V30 467 C 45.567 -2.74133 2.33193 0
M  V30 468 C 45.175 -2.37562 3.79827 0
M  V30 469 C 46.919 -3.52054 2.37188 0
M  V30 470 C 44.826 -3.56456 4.71904 0
M  V30 471 H 43.756 -0.569896 0.493695 0
M  V30 472 H 46.407 -0.835822 1.63359 0
M  V30 473 H 44.789 -3.4427 1.9569 0
M  V30 474 H 45.963 -1.75157 4.26212 0
M  V30 475 H 44.278 -1.72798 3.78853 0
M  V30 476 H 46.875 -4.40437 3.03182 0
M  V30 477 H 47.218 -3.92486 1.38782 0
M  V30 478 H 47.751 -2.88921 2.7344 0
M  V30 479 H 44.49 -3.21099 5.71468 0
M  V30 480 H 44.01 -4.17938 4.30218 0
M  V30 481 H 45.689 -4.23168 4.89426 0
M  V30 482 N 45.8211 -1.22559 -0.990812 0
M  V30 483 C 47.0981 -0.959875 -1.70428 0
M  V30 484 C 47.4781 0.524455 -2.04481 0
M  V30 485 O 46.8261 1.49302 -1.72977 0
M  V30 486 C 47.0361 -1.85955 -2.95333 0
M  V30 487 C 48.3841 -2.11687 -3.68068 0
M  V30 488 O 49.4081 -1.8342 -3.05345 0
M  V30 489 O 48.2671 -2.59572 -4.80921 0
M  V30 490 H 45.3611 -0.361154 -0.743974 0
M  V30 491 H 47.9071 -1.33554 -1.04697 0
M  V30 492 H 46.6791 -2.86346 -2.66687 0
M  V30 493 H 46.3021 -1.4856 -3.68803 0
M  V30 494 N 47.2992 1.18797 -1.03562 0
M  V30 495 C 48.5452 1.8893 -0.737113 0
M  V30 496 C 48.8782 1.79837 0.732956 0
M  V30 497 O 48.1532 1.19525 1.5344 0
M  V30 498 C 48.4362 3.39607 -1.19745 0
M  V30 499 C 48.2892 3.57537 -2.72924 0
M  V30 500 C 49.6082 4.33069 -0.783526 0
M  V30 501 H 46.7272 0.686057 -0.269249 0
M  V30 502 H 49.3692 1.39797 -1.28673 0
M  V30 503 H 47.5192 3.81583 -0.729855 0
M  V30 504 H 49.1912 3.24688 -3.27682 0
M  V30 505 H 47.4342 3.00363 -3.12993 0
M  V30 506 H 48.1052 4.63238 -3.00191 0
M  V30 507 H 50.5812 3.98846 -1.18581 0
M  V30 508 H 49.4572 5.3707 -1.13343 0
M  V30 509 H 49.7182 4.40986 0.313681 0
M  V30 510 N 48.7773 0.814389 1.34928 0
M  V30 511 C 50.0543 0.321363 1.92942 0
M  V30 512 C 50.4343 -1.19014 1.74353 0
M  V30 513 O 49.7823 -1.99328 1.11716 0
M  V30 514 C 49.9923 0.741323 3.41036 0
M  V30 515 C 51.3403 0.735266 4.18185 0
M  V30 516 O 52.3643 0.68336 3.49584 0
M  V30 517 O 51.2233 0.800703 5.40602 0
M  V30 518 H 48.3173 0.0858893 0.822528 0
M  V30 519 H 50.8633 0.898609 1.43955 0
M  V30 520 H 49.6353 1.78276 3.4833 0
M  V30 521 H 49.2583 0.139307 3.97356 0
M  V30 522 N 50.2554 -1.46986 0.568584 0
M  V30 523 C 51.2024 -2.30153 -0.172707 0
M  V30 524 C 52.1724 -1.39759 -0.897586 0
M  V30 525 O 53.3574 -1.68716 -0.891044 0
M  V30 526 C 50.4974 -3.23952 -1.1895 0
M  V30 527 C 49.6104 -4.29441 -0.469517 0
M  V30 528 C 48.7454 -5.1038 -1.47259 0
M  V30 529 C 47.7844 -6.07632 -0.738225 0
M  V30 530 N 46.9214 -6.8149 -1.68868 0
M  V30 531 H 51.7614 -2.93019 0.542596 0
M  V30 532 H 49.2984 -1.44422 0.279401 0
M  V30 533 H 51.2564 -3.76767 -1.79173 0
M  V30 534 H 49.8864 -2.62926 -1.87269 0
M  V30 535 H 48.9384 -3.79594 0.247467 0
M  V30 536 H 50.2504 -4.98689 0.105241 0
M  V30 537 H 49.4044 -5.67402 -2.14803 0
M  V30 538 H 48.1434 -4.4106 -2.08128 0
M  V30 539 H 47.1484 -5.49778 -0.0489293 0
M  V30 540 H 48.3734 -6.78966 -0.135129 0
M  V30 541 H 46.3194 -6.14891 -2.28573 0
M  V30 542 H 46.2364 -7.46948 -1.16636 0
M  V30 543 H 47.5044 -7.43078 -2.3549 0
M  V30 544 N 51.7335 -0.305618 -1.54608 0
M  V30 545 C 52.6805 0.568421 -2.23691 0
M  V30 546 C 53.6505 1.12592 -1.22116 0
M  V30 547 O 54.8355 1.16959 -1.50749 0
M  V30 548 C 51.9755 1.7322 -2.98477 0
M  V30 549 C 51.0885 1.20566 -4.14835 0
M  V30 550 C 50.2235 2.33368 -4.77193 0
M  V30 551 C 49.2625 1.7787 -5.85686 0
M  V30 552 N 48.3995 2.84263 -6.4198 0
M  V30 553 H 53.2395 -0.0272867 -2.97988 0
M  V30 554 H 50.7765 -0.0252363 -1.47078 0
M  V30 555 H 52.7345 2.41675 -3.40072 0
M  V30 556 H 51.3645 2.29947 -2.26548 0
M  V30 557 H 50.4165 0.413223 -3.78149 0
M  V30 558 H 51.7285 0.759417 -4.92985 0
M  V30 559 H 50.8825 3.09761 -5.21664 0
M  V30 560 H 49.6215 2.8132 -3.98385 0
M  V30 561 H 48.6265 0.99968 -5.40635 0
M  V30 562 H 49.8515 1.30816 -6.66381 0
M  V30 563 H 47.7975 3.31541 -5.66053 0
M  V30 564 H 47.7145 2.44149 -7.15491 0
M  V30 565 H 48.9825 3.6054 -6.91109 0
M  V30 566 N 53.2116 1.57565 -0.0334293 0
M  V30 567 C 54.6276 1.56297 0.322997 0
M  V30 568 C 54.8276 1.03945 1.7262 0
M  V30 569 O 53.8836 0.688109 2.42943 0
M  V30 570 C 55.1966 3.00232 0.167664 0
M  V30 571 C 56.7446 3.12078 0.240107 0
M  V30 572 C 57.2196 4.57859 0.113513 0
M  V30 573 N 58.7106 4.62887 0.170359 0
M  V30 574 C 59.4456 5.73319 0.0962517 0
M  V30 575 N 58.9416 6.92794 -0.0291881 0
M  V30 576 N 60.7346 5.61898 0.150551 0
M  V30 577 H 52.8856 1.89923 -0.950956 0
M  V30 578 H 55.1486 0.873824 -0.367608 0
M  V30 579 H 54.8546 3.42501 -0.799102 0
M  V30 580 H 54.7286 3.654 0.936083 0
M  V30 581 H 57.1156 2.69718 1.19733 0
M  V30 582 H 57.1966 2.49623 -0.558763 0
M  V30 583 H 56.8406 5.009 -0.840314 0
M  V30 584 H 56.7706 5.18299 0.931302 0
M  V30 585 H 59.2616 3.76954 0.26728 0
M  V30 586 H 59.5746 7.7276 -0.0789252 0
M  V30 587 H 57.9196 6.94971 -0.0640299 0
M  V30 588 H 61.1106 4.67448 0.246981 0
M  V30 589 H 61.2836 6.47938 0.0893365 0
M  V30 590 N 54.6897 -0.239769 1.55765 0
M  V30 591 C 55.6527 -1.28038 1.90103 0
M  V30 592 C 56.6527 -1.40723 0.778055 0
M  V30 593 O 57.8427 -1.39301 1.04599 0
M  V30 594 C 54.9747 -2.65702 2.13577 0
M  V30 595 H 56.1677 -0.988048 2.83157 0
M  V30 596 H 53.7207 -0.479382 1.48767 0
M  V30 597 H 54.4557 -3.00063 1.23015 0
M  V30 598 H 54.2407 -2.57875 2.95369 0
M  V30 599 H 55.7307 -3.40828 2.41301 0
M  V30 600 N 56.1678 -1.49265 -0.50573 0
M  V30 601 C 57.0778 -1.68312 -1.63427 0
M  V30 602 C 58.0938 -0.565682 -1.64548 0
M  V30 603 O 59.2698 -0.839801 -1.83055 0
M  V30 604 C 56.3348 -1.74107 -2.99813 0
M  V30 605 C 55.3958 -2.97653 -3.09356 0
M  V30 606 C 54.6288 -3.03163 -4.39236 0
M  V30 607 O 54.8518 -2.16396 -5.27758 0
M  V30 608 O 53.7858 -3.9558 -4.53652 0
M  V30 609 H 57.6118 -2.63907 -1.50289 0
M  V30 610 H 55.1968 -1.32951 -0.681502 0
M  V30 611 H 57.0788 -1.803 -3.80881 0
M  V30 612 H 55.7538 -0.816901 -3.13223 0
M  V30 613 H 54.6608 -2.96981 -2.27493 0
M  V30 614 H 55.9938 -3.89535 -3.00871 0
M  V30 615 N 57.6459 0.756429 -1.3826 0
M  V30 616 C 58.8939 1.51248 -1.34047 0
M  V30 617 C 59.2149 1.94875 0.0698372 0
M  V30 618 O 58.4849 1.67436 1.01696 0
M  V30 619 H 57.0649 0.561018 -0.493222 0
M  V30 620 H 59.7269 0.899347 -1.7291 0
M  V30 621 H 58.8229 2.40472 -1.98947 0
M  V30 622 N 59.124 1.23083 0.984299 0
M  V30 623 C 60.401 0.9689 1.69917 0
M  V30 624 C 60.781 -0.513604 2.04757 0
M  V30 625 O 60.129 -1.48383 1.73767 0
M  V30 626 C 60.339 1.87518 2.94343 0
M  V30 627 C 61.687 2.13636 3.6694 0
M  V30 628 O 62.711 1.85036 3.04368 0
M  V30 629 O 61.57 2.62119 4.79537 0
M  V30 630 H 58.664 0.365095 0.742048 0
M  V30 631 H 61.21 1.34107 1.03987 0
M  V30 632 H 59.982 2.87756 2.65164 0
M  V30 633 H 59.605 1.50514 3.6801 0
M  V30 634 N 60.6021 -1.18246 1.0419 0
M  V30 635 C 61.5651 -2.20128 0.638452 0
M  V30 636 C 62.5651 -1.57885 -0.304805 0
M  V30 637 O 63.7551 -1.73967 -0.0900369 0
M  V30 638 C 60.8871 -3.4084 -0.0637751 0
M  V30 639 H 62.0801 -2.57336 1.54007 0
M  V30 640 H 59.6331 -1.32152 0.834598 0
M  V30 641 H 60.3681 -3.09166 -0.979136 0
M  V30 642 H 60.1531 -3.8726 0.614198 0
M  V30 643 H 61.6431 -4.16274 -0.332512 0
M  V30 644 N 62.0802 -0.821533 -1.34494 0
M  V30 645 C 63.0102 -0.257138 -2.3208 0
M  V30 646 C 63.9912 0.625645 -1.58176 0
M  V30 647 O 65.1762 0.552811 -1.86166 0
M  V30 648 C 62.3062 0.582958 -3.42372 0
M  V30 649 C 61.2602 -0.202571 -4.2752 0
M  V30 650 C 60.5862 0.760179 -5.29269 0
M  V30 651 C 61.8862 -1.40998 -5.02908 0
M  V30 652 H 63.5802 -1.07247 -2.79532 0
M  V30 653 H 61.1262 -0.517163 -1.34393 0
M  V30 654 H 63.0792 0.987972 -4.09655 0
M  V30 655 H 61.8032 1.43133 -2.93565 0
M  V30 656 H 60.4622 -0.588936 -3.61838 0
M  V30 657 H 60.1102 1.60447 -4.76724 0
M  V30 658 H 59.8102 0.238809 -5.87115 0
M  V30 659 H 61.3342 1.16308 -5.9942 0
M  V30 660 H 62.7482 -1.07905 -5.63054 0
M  V30 661 H 61.1452 -1.86689 -5.70322 0
M  V30 662 H 62.2152 -2.1889 -4.32684 0
M  V30 663 N 63.5583 1.46682 -0.576371 0
M  V30 664 C 64.8353 1.95599 0.00703437 0
M  V30 665 C 65.2153 1.51904 1.46589 0
M  V30 666 O 64.5633 0.766755 2.15251 0
M  V30 667 C 64.7733 3.4864 -0.158404 0
M  V30 668 C 66.1213 4.24594 -0.0229439 0
M  V30 669 O 67.1453 3.56094 -0.0869173 0
M  V30 670 O 66.0043 5.46373 0.118015 0
M  V30 671 H 63.0983 0.825275 0.053384 0
M  V30 672 H 65.6443 1.56996 -0.644244 0
M  V30 673 H 64.4163 3.7331 -1.17282 0
M  V30 674 H 64.0393 3.94057 0.5296 0
M  V30 675 N 65.0364 0.313813 1.54444 0
M  V30 676 C 65.9664 -0.549454 2.26943 0
M  V30 677 C 66.9474 -1.12741 1.27372 0
M  V30 678 O 68.1324 -1.15436 1.56167 0
M  V30 679 C 65.2624 -1.71523 3.01989 0
M  V30 680 C 64.2164 -1.26703 4.08816 0
M  V30 681 C 63.5424 -2.51898 4.71647 0
M  V30 682 C 64.8424 -0.388962 5.2085 0
M  V30 683 H 66.5364 0.0552661 2.99349 0
M  V30 684 H 64.0824 0.0280207 1.43973 0
M  V30 685 H 66.0354 -2.32535 3.51433 0
M  V30 686 H 64.7594 -2.34639 2.27183 0
M  V30 687 H 63.4184 -0.679896 3.6024 0
M  V30 688 H 63.0664 -3.13356 3.93468 0
M  V30 689 H 62.7664 -2.22605 5.43802 0
M  V30 690 H 64.2904 -3.1369 5.23861 0
M  V30 691 H 65.7044 -0.905107 5.6611 0
M  V30 692 H 64.1014 -0.18924 5.99802 0
M  V30 693 H 65.1714 0.582699 4.81386 0
M  V30 694 N 66.5145 -1.57545 0.0417849 0
M  V30 695 C 67.7635 -1.91494 -0.633492 0
M  V30 696 C 68.0765 -0.921084 -1.72556 0
M  V30 697 O 69.2825 -1.15228 -2.45835 0
M  V30 698 C 67.7385 -3.40072 -1.17808 0
M  V30 699 C 67.3465 -4.47843 -0.118633 0
M  V30 700 C 69.0905 -3.8307 -1.82915 0
M  V30 701 C 66.9975 -5.87529 -0.675578 0
M  V30 702 H 65.9275 -0.714653 -0.24039 0
M  V30 703 H 68.5785 -1.83175 0.109148 0
M  V30 704 H 66.9605 -3.43364 -1.97274 0
M  V30 705 H 68.1345 -4.56128 0.654494 0
M  V30 706 H 66.4495 -4.14128 0.434414 0
M  V30 707 H 69.0465 -4.84794 -2.25563 0
M  V30 708 H 69.3895 -3.1881 -2.67705 0
M  V30 709 H 69.9225 -3.82255 -1.10119 0
M  V30 710 H 66.6615 -6.55362 0.134475 0
M  V30 711 H 66.1815 -5.82824 -1.4169 0
M  V30 712 H 67.8605 -6.36491 -1.1614 0
M  V30 713 N 67.9926 0.231505 -1.5589 0
M  V30 714 C 68.9426 1.29007 -1.87993 0
M  V30 715 C 69.9266 1.42764 -0.742102 0
M  V30 716 O 71.1186 1.45747 -1.00433 0
M  V30 717 C 68.2476 2.6425 -2.1915 0
M  V30 718 C 67.3336 2.54435 -3.39299 0
M  V30 719 N 67.7246 2.14262 -4.58176 0
M  V30 720 C 66.0226 2.85416 -3.42715 0
M  V30 721 C 66.7236 2.15455 -5.40328 0
M  V30 722 N 65.6996 2.55558 -4.79783 0
M  V30 723 H 69.5016 0.970213 -2.77424 0
M  V30 724 H 67.0156 0.440097 -1.56323 0
M  V30 725 H 69.0126 3.40665 -2.40319 0
M  V30 726 H 67.6726 2.9709 -1.31025 0
M  V30 727 H 68.6836 1.85554 -4.83518 0
M  V30 728 H 65.3606 3.22693 -2.64906 0
M  V30 729 H 66.7506 1.86605 -6.45467 0
M  V30 730 N 69.4707 1.49531 0.497807 0
M  V30 731 C 70.7187 1.58865 1.24926 0
M  V30 732 C 71.0397 0.278721 1.92998 0
M  V30 733 O 70.3097 -0.702144 1.82885 0
M  V30 734 H 68.8897 0.585343 0.464094 0
M  V30 735 H 71.5517 1.86174 0.57666 0
M  V30 736 H 70.6477 2.38633 2.01149 0
M  V30 737 N 70.9488 -0.749086 1.3866 0
M  V30 738 C 72.1768 -1.53834 1.38358 0
M  V30 739 C 72.5918 -1.88783 -0.0255219 0
M  V30 740 O 71.9488 -1.53101 -0.993292 0
M  V30 741 C 71.9998 -2.83468 2.2434 0
M  V30 742 O 71.7208 -2.50008 3.5976 0
M  V30 743 C 73.2218 -3.7758 2.32267 0
M  V30 744 H 70.4418 -0.47585 0.473083 0
M  V30 745 H 72.9858 -0.926726 1.82297 0
M  V30 746 H 71.1408 -3.40995 1.83851 0
M  V30 747 H 71.5548 -3.33182 4.05081 0
M  V30 748 H 73.0288 -4.65478 2.96706 0
M  V30 749 H 73.5058 -4.18334 1.33765 0
M  V30 750 H 74.1118 -3.25976 2.73166 0
M  V30 751 N 72.4269 -1.23603 -0.977757 0
M  V30 752 C 73.8379 -1.06424 -1.53398 0
M  V30 753 C 74.1889 0.367578 -1.92726 0
M  V30 754 O 73.3139 1.25465 -1.76316 0
M  V30 755 C 73.9089 -1.92568 -2.78753 0
M  V30 756 C 72.4679 -1.79642 -3.30765 0
M  V30 757 C 71.6149 -1.88111 -2.03739 0
M  V30 758 H 74.5659 -1.37227 -0.797152 0
M  V30 759 H 74.5869 -1.45203 -3.51705 0
M  V30 760 H 74.0989 -2.96771 -2.50098 0
M  V30 761 H 72.1999 -0.782325 -3.64294 0
M  V30 762 H 72.3129 -2.63174 -4.00345 0
M  V30 763 H 70.6769 -1.31723 -2.17994 0
M  V30 764 H 71.4599 -2.93875 -1.77461 0
M  V30 765 N 73.905 1.17692 -1.04816 0
M  V30 766 C 75.152 1.87859 -0.75599 0
M  V30 767 C 75.48 1.80812 0.716752 0
M  V30 768 O 74.735 1.20819 1.53952 0
M  V30 769 C 75.034 3.37462 -1.17703 0
M  V30 770 C 74.7 3.64713 -2.65133 0
M  V30 771 C 73.362 3.71859 -3.05408 0
M  V30 772 C 75.714 3.76492 -3.60421 0
M  V30 773 C 73.042 3.88271 -4.39843 0
M  V30 774 C 75.394 3.94421 -4.94585 0
M  V30 775 C 74.058 3.99806 -5.3452 0
M  V30 776 H 73.328 0.687425 -0.276636 0
M  V30 777 H 75.975 1.39255 -1.31455 0
M  V30 778 H 74.28 3.88097 -0.537395 0
M  V30 779 H 75.977 3.90109 -0.928218 0
M  V30 780 H 72.567 3.59772 -2.32942 0
M  V30 781 H 76.751 3.70295 -3.30447 0
M  V30 782 H 72.007 3.90687 -4.70291 0
M  V30 783 H 76.181 4.02477 -5.68318 0
M  V30 784 H 73.808 4.12276 -6.38696 0
M  V30 785 N 75.3831 0.828654 1.34056 0
M  V30 786 C 76.6111 0.43262 2.02326 0
M  V30 787 C 77.0261 -0.963147 1.62385 0
M  V30 788 O 76.3831 -1.62425 0.832121 0
M  V30 789 C 76.4341 0.53182 3.57567 0
M  V30 790 O 76.1551 1.87258 3.96063 0
M  V30 791 C 77.6561 0.131422 4.43105 0
M  V30 792 H 74.8761 0.172923 0.648335 0
M  V30 793 H 77.4201 1.1184 1.71208 0
M  V30 794 H 75.5751 -0.105938 3.87255 0
M  V30 795 H 75.9891 1.85087 4.90758 0
M  V30 796 H 77.4631 0.251904 5.51425 0
M  V30 797 H 77.9401 -0.925645 4.29335 0
M  V30 798 H 78.5461 0.743207 4.18756 0
M  V30 799 N 76.8612 -1.46375 0.584142 0
M  V30 800 C 78.2772 -1.57694 0.245929 0
M  V30 801 C 78.4772 -1.57903 -1.25175 0
M  V30 802 O 77.5332 -1.49676 -2.03355 0
M  V30 803 C 78.8462 -2.87028 0.896402 0
M  V30 804 C 80.3942 -3.00662 0.870127 0
M  V30 805 C 80.8692 -4.32734 1.50017 0
M  V30 806 N 82.3602 -4.39436 1.46458 0
M  V30 807 C 83.0952 -5.40248 1.92144 0
M  V30 808 N 82.5912 -6.47726 2.4581 0
M  V30 809 N 84.3842 -5.31459 1.83052 0
M  V30 810 H 76.5352 -1.44483 1.55687 0
M  V30 811 H 78.7982 -0.689291 0.650831 0
M  V30 812 H 78.5042 -2.9269 1.95002 0
M  V30 813 H 78.3782 -3.75014 0.405486 0
M  V30 814 H 80.7652 -2.94581 -0.174871 0
M  V30 815 H 80.8462 -2.14148 1.39908 0
M  V30 816 H 80.4902 -4.39573 2.54437 0
M  V30 817 H 80.4202 -5.18025 0.946432 0
M  V30 818 H 82.9112 -3.62367 1.07231 0
M  V30 819 H 83.2242 -7.20863 2.78525 0
M  V30 820 H 81.5692 -6.48542 2.49836 0
M  V30 821 H 84.7602 -4.46396 1.40883 0
M  V30 822 H 84.9332 -6.09881 2.18973 0
M  V30 823 N 78.3393 -0.321999 -1.54275 0
M  V30 824 C 79.7553 0.0306999 -1.5957 0
M  V30 825 C 79.9553 1.50614 -1.33857 0
M  V30 826 O 79.0113 2.2619 -1.12223 0
M  V30 827 C 80.3243 -0.386122 -2.98211 0
M  V30 828 C 81.8723 -0.336647 -3.11184 0
M  V30 829 C 82.3473 -0.728607 -4.52167 0
M  V30 830 N 83.8383 -0.681952 -4.58152 0
M  V30 831 C 84.5733 -0.957449 -5.6535 0
M  V30 832 N 84.0693 -1.3 -6.80494 0
M  V30 833 N 85.8623 -0.883113 -5.55119 0
M  V30 834 H 78.0133 -1.28332 -1.69247 0
M  V30 835 H 80.2763 -0.521716 -0.791528 0
M  V30 836 H 79.9823 -1.41404 -3.22022 0
M  V30 837 H 79.8563 0.249662 -3.76373 0
M  V30 838 H 82.2433 0.682058 -2.8711 0
M  V30 839 H 82.3243 -1.00734 -2.3513 0
M  V30 840 H 81.9683 -1.74522 -4.76974 0
M  V30 841 H 81.8983 -0.0356152 -5.26588 0
M  V30 842 H 84.3893 -0.428985 -3.75457 0
M  V30 843 H 84.7023 -1.49563 -7.58189 0
M  V30 844 H 83.0473 -1.33824 -6.81994 0
M  V30 845 H 86.2383 -0.615001 -4.64042 0
M  V30 846 H 86.4113 -1.10118 -6.38575 0
M  V30 847 N 79.8174 1.5752 -0.0501392 0
M  V30 848 C 80.7804 2.1037 0.909786 0
M  V30 849 C 81.7804 1.02308 1.24056 0
M  V30 850 O 82.9704 1.28385 1.17741 0
M  V30 851 C 80.1024 2.58708 2.21998 0
M  V30 852 H 81.2954 2.96479 0.451665 0
M  V30 853 H 78.8484 1.55038 0.198248 0
M  V30 854 H 79.5834 1.75989 2.72394 0
M  V30 855 H 79.3684 3.37675 1.99295 0
M  V30 856 H 80.8584 2.99747 2.9076 0
M  V30 857 N 81.2955 -0.223234 1.56011 0
M  V30 858 C 82.2435 -1.29627 1.93131 0
M  V30 859 C 83.2375 -1.48608 0.813146 0
M  V30 860 O 84.4435 -1.49802 0.997966 0
M  V30 861 H 80.8185 -0.434563 0.613726 0
M  V30 862 H 82.7895 -0.955995 2.82672 0
M  V30 863 C 81.5385 -2.63983 2.26292 0
M  V30 864 H 80.8615 -2.50185 3.11846 0
M  V30 865 H 82.3015 -3.3788 2.56151 0
M  V30 866 C 80.7605 -3.18866 1.08747 0
M  V30 867 O 81.2905 -4.00192 0.347727 0
M  V30 868 N 79.4965 -2.77217 0.871743 0
M  V30 869 H 79.0435 -2.1119 1.47501 0
M  V30 870 H 79.0015 -3.1428 0.0869905 0
M  V30 871 N 82.7736 -1.49793 -0.48987 0
M  V30 872 C 84.0226 -1.59085 -1.23995 0
M  V30 873 C 84.3356 -0.287907 -1.9347 0
M  V30 874 O 85.5416 -0.259506 -2.70257 0
M  V30 875 C 83.9976 -2.80736 -2.252 0
M  V30 876 C 83.6056 -4.17833 -1.61614 0
M  V30 877 C 85.3496 -2.99364 -3.00967 0
M  V30 878 C 83.2566 -5.30693 -2.60996 0
M  V30 879 H 82.1866 -0.592372 -0.466488 0
M  V30 880 H 84.8376 -1.76197 -0.51252 0
M  V30 881 H 83.2196 -2.57142 -3.01154 0
M  V30 882 H 84.3936 -4.51608 -0.915774 0
M  V30 883 H 82.7086 -4.04656 -0.981977 0
M  V30 884 H 85.3056 -3.80851 -3.75308 0
M  V30 885 H 85.6486 -2.10356 -3.59244 0
M  V30 886 H 86.1816 -3.2305 -2.32128 0
M  V30 887 H 82.9206 -6.21796 -2.07485 0
M  V30 888 H 82.4406 -5.01359 -3.2924 0
M  V30 889 H 84.1196 -5.6049 -3.23202 0
M  V30 890 N 84.2517 0.741722 -1.39055 0
M  V30 891 C 85.4817 1.52876 -1.3897 0
M  V30 892 C 85.8897 1.8919 0.0193266 0
M  V30 893 O 85.2327 1.54138 0.999356 0
M  V30 894 C 85.2947 2.84929 -2.19216 0
M  V30 895 C 84.9587 2.71086 -3.67915 0
M  V30 896 C 85.9557 2.40084 -4.61146 0
M  V30 897 C 83.6407 2.88168 -4.11418 0
M  V30 898 C 85.6347 2.26335 -5.95862 0
M  V30 899 C 83.3217 2.74037 -5.46211 0
M  V30 900 C 84.3197 2.43166 -6.38247 0
M  V30 901 O 84.0077 2.29115 -7.70559 0
M  V30 902 H 83.7397 0.479252 -0.476753 0
M  V30 903 H 86.2937 0.924751 -1.83405 0
M  V30 904 H 84.5237 3.47564 -1.69518 0
M  V30 905 H 86.2127 3.46509 -2.11392 0
M  V30 906 H 86.9787 2.26545 -4.28838 0
M  V30 907 H 82.8577 3.11191 -3.40119 0
M  V30 908 H 86.4017 2.0216 -6.67665 0
M  V30 909 H 82.2987 2.87153 -5.78112 0
M  V30 910 H 83.0667 2.44237 -7.81211 0
M  V30 911 N 85.7298 1.2412 0.971189 0
M  V30 912 C 86.6928 1.03156 2.04674 0
M  V30 913 C 87.6928 -0.00990322 1.60797 0
M  V30 914 O 88.8828 0.230729 1.72665 0
M  V30 915 C 86.0148 0.562765 3.36223 0
M  V30 916 H 87.2078 1.98614 2.24705 0
M  V30 917 H 84.7608 1.06293 1.14593 0
M  V30 918 H 85.4958 -0.395176 3.21883 0
M  V30 919 H 85.2808 1.31441 3.69413 0
M  V30 920 H 86.7708 0.437015 4.15307 0
M  V30 921 N 87.2079 -1.17134 1.05439 0
M  V30 922 C 88.4559 -1.87085 0.764429 0
M  V30 923 C 88.7769 -1.81584 -0.710787 0
M  V30 924 O 88.0469 -1.24349 -1.51374 0
M  V30 925 H 86.6269 -0.692627 0.279779 0
M  V30 926 H 89.2889 -1.42087 1.33406 0
M  V30 927 H 88.3849 -2.92759 1.0816 0
M  V30 928 N 88.686 -0.835752 -1.33615 0
M  V30 929 C 89.963 -0.352017 -1.92406 0
M  V30 930 C 90.343 1.16225 -1.76224 0
M  V30 931 O 89.691 1.97526 -1.14873 0
M  V30 932 C 89.901 -0.795485 -3.39813 0
M  V30 933 C 91.249 -0.801703 -4.16963 0
M  V30 934 O 92.273 -0.738889 -3.48452 0
M  V30 935 O 91.132 -0.886607 -5.3926 0
M  V30 936 H 88.226 -0.0989641 -0.821057 0
M  V30 937 H 90.772 -0.921397 -1.42507 0
M  V30 938 H 89.544 -1.83795 -3.45449 0
M  V30 939 H 89.167 -0.202505 -3.97084 0
M  V30 940 N 90.1641 1.46063 -0.591896 0
M  V30 941 C 91.3941 2.06418 -0.0867676 0
M  V30 942 C 91.8021 1.43975 1.22751 0
M  V30 943 O 91.1451 0.542531 1.75506 0
M  V30 944 C 91.2071 3.59213 0.143725 0
M  V30 945 C 90.8711 4.439 -1.08635 0
M  V30 946 C 91.8681 4.79864 -2.00067 0
M  V30 947 C 89.5531 4.84896 -1.31077 0
M  V30 948 C 91.5471 5.55661 -3.12282 0
M  V30 949 C 89.2341 5.6045 -2.43596 0
M  V30 950 C 90.2321 5.95747 -3.34027 0
M  V30 951 O 89.9201 6.69772 -4.4459 0
M  V30 952 H 89.6521 0.673443 -0.0587447 0
M  V30 953 H 92.2061 1.88539 -0.814994 0
M  V30 954 H 90.4361 3.75433 0.926668 0
M  V30 955 H 92.1251 4.01463 0.5985 0
M  V30 956 H 92.8911 4.48763 -1.83947 0
M  V30 957 H 88.7701 4.56867 -0.61594 0
M  V30 958 H 92.3141 5.8313 -3.82891 0
M  V30 959 H 88.2111 5.90965 -2.59674 0
M  V30 960 H 88.9791 6.88207 -4.43073 0
M  V30 961 N 91.6422 0.330177 1.54103 0
M  V30 962 C 92.6052 -0.520144 2.2322 0
M  V30 963 C 93.6052 -1.03828 1.22786 0
M  V30 964 O 94.7952 -0.929652 1.4732 0
M  V30 965 C 91.9272 -1.72317 2.94142 0
M  V30 966 H 93.1202 0.0841605 2.99782 0
M  V30 967 H 90.6732 0.0813433 1.56088 0
M  V30 968 H 91.4082 -2.36653 2.21734 0
M  V30 969 H 91.1932 -1.35898 3.67796 0
M  V30 970 H 92.6832 -2.3266 3.46784 0
M  V30 971 N 93.1203 -1.57491 0.0584922 0
M  V30 972 C 94.3973 -1.84346 -0.653918 0
M  V30 973 C 94.7773 -0.948355 -1.88599 0
M  V30 974 O 94.1253 -0.0112403 -2.28497 0
M  V30 975 C 94.3353 -3.34239 -1.00425 0
M  V30 976 C 95.6833 -4.01431 -1.38342 0
M  V30 977 O 96.7073 -3.38907 -1.09637 0
M  V30 978 O 95.5663 -5.11683 -1.91943 0
M  V30 979 H 92.6603 -0.761112 -0.323478 0
M  V30 980 H 95.2063 -1.6947 0.0884125 0
M  V30 981 H 93.9783 -3.91089 -0.128625 0
M  V30 982 H 93.6013 -3.54329 -1.80378 0
M  V30 983 N 94.5984 0.214957 -1.56127 0
M  V30 984 C 95.5284 1.2695 -1.95974 0
M  V30 985 C 96.5094 1.48539 -0.828868 0
M  V30 986 O 97.6944 1.60611 -1.09168 0
M  V30 987 C 94.8244 2.61794 -2.28214 0
M  V30 988 C 93.7784 2.54851 -3.43853 0
M  V30 989 C 93.1044 3.93785 -3.61715 0
M  V30 990 C 94.4044 2.09065 -4.78632 0
M  V30 991 H 96.0984 0.93846 -2.84312 0
M  V30 992 H 93.6444 0.449996 -1.36788 0
M  V30 993 H 95.5974 3.35731 -2.54682 0
M  V30 994 H 94.3214 2.96599 -1.36736 0
M  V30 995 H 92.9804 1.8337 -3.17444 0
M  V30 996 H 92.6284 4.25908 -2.67602 0
M  V30 997 H 92.3284 3.90019 -4.39498 0
M  V30 998 H 93.8524 4.69374 -3.90539 0
M  V30 999 H 95.2664 2.7275 -5.04262 0
M  V30 1000 H 93.6634 2.16346 -5.59745 0
M  V30 1001 H 94.7334 1.04315 -4.73547 0
M  V30 1002 N 96.0765 1.50051 0.48192 0
M  V30 1003 C 97.0235 1.68122 1.58125 0
M  V30 1004 C 97.9935 0.522545 1.57666 0
M  V30 1005 O 99.1785 0.751844 1.75362 0
M  V30 1006 C 96.3185 1.77142 2.96167 0
M  V30 1007 C 95.4315 3.0444 3.06497 0
M  V30 1008 C 94.5665 3.04321 4.35387 0
M  V30 1009 C 93.6055 4.26118 4.3942 0
M  V30 1010 N 92.7425 4.238 5.59766 0
M  V30 1011 H 97.5825 2.6198 1.42022 0
M  V30 1012 H 95.1195 1.29877 0.690687 0
M  V30 1013 H 97.0775 1.80352 3.76203 0
M  V30 1014 H 95.7075 0.867329 3.1093 0
M  V30 1015 H 94.7595 3.10752 2.19402 0
M  V30 1016 H 96.0715 3.94426 3.05336 0
M  V30 1017 H 95.2255 3.062 5.23762 0
M  V30 1018 H 93.9645 2.12147 4.39141 0
M  V30 1019 H 92.9695 4.24463 3.49444 0
M  V30 1020 H 94.1945 5.19507 4.37366 0
M  V30 1021 H 92.1405 3.34474 5.64326 0
M  V30 1022 H 92.0575 5.07542 5.60301 0
M  V30 1023 H 93.3255 4.2981 6.50295 0
M  V30 1024 N 97.5546 -0.734337 1.39446 0
M  V30 1025 C 98.8026 -1.49096 1.36436 0
M  V30 1026 C 99.1236 -1.94961 -0.0388255 0
M  V30 1027 O 98.3936 -1.69033 -0.990191 0
M  V30 1028 H 96.9736 -0.5531 0.502085 0
M  V30 1029 H 99.6356 -0.871725 1.74319 0
M  V30 1030 H 98.7316 -2.37276 2.02747 0
M  V30 1031 N 99.0327 -1.24633 -0.964593 0
M  V30 1032 C 100.258 -1.11596 -1.74818 0
M  V30 1033 C 100.683 0.32723 -1.85232 0
M  V30 1034 O 100.041 1.23695 -1.32549 0
M  V30 1035 C 100.089 -1.76397 -3.1451 0
M  V30 1036 O 99.1927 -1.03685 -3.99153 0
M  V30 1037 H 98.5337 -0.390196 -0.537255 0
M  V30 1038 H 101.064 -1.65002 -1.20977 0
M  V30 1039 H 101.074 -1.8228 -3.65018 0
M  V30 1040 H 99.7487 -2.81401 -3.06246 0
M  V30 1041 H 98.3257 -1.05611 -3.57632 0
M  V30 1042 N 100.511 1.16574 -1.06058 0
M  V30 1043 C 101.788 1.83048 -0.689416 0
M  V30 1044 C 102.168 1.94122 0.829443 0
M  V30 1045 O 101.516 1.48249 1.7388 0
M  V30 1046 C 101.726 3.20186 -1.38859 0
M  V30 1047 C 103.074 3.95989 -1.53226 0
M  V30 1048 O 104.098 3.29696 -1.3483 0
M  V30 1049 O 102.957 5.14813 -1.83384 0
M  V30 1050 H 100.051 0.790258 -0.243764 0
M  V30 1051 H 102.597 1.23797 -1.16071 0
M  V30 1052 H 101.369 3.07146 -2.4244 0
M  V30 1053 H 100.992 3.87112 -0.907216 0
M  V30 1054 N 101.989 0.842826 1.3317 0
M  V30 1055 C 103.235 0.441099 1.97945 0
M  V30 1056 C 103.568 -0.998024 1.66593 0
M  V30 1057 O 102.843 -1.69839 0.947898 0
M  V30 1058 C 103.126 0.666841 3.53872 0
M  V30 1059 C 102.979 2.15352 3.94897 0
M  V30 1060 C 104.298 0.115544 4.39948 0
M  V30 1061 H 101.417 0.161739 0.719034 0
M  V30 1062 H 104.059 1.05907 1.57746 0
M  V30 1063 H 102.209 0.140828 3.88245 0
M  V30 1064 H 103.881 2.7447 3.70761 0
M  V30 1065 H 102.124 2.63653 3.44484 0
M  V30 1066 H 102.795 2.26221 5.03516 0
M  V30 1067 H 105.271 0.565213 4.12243 0
M  V30 1068 H 104.147 0.303152 5.48062 0
M  V30 1069 H 104.408 -0.980935 4.3108 0
M  V30 1070 N 103.467 -1.45747 0.599634 0
M  V30 1071 C 104.713 -2.02592 0.0918643 0
M  V30 1072 C 105.046 -1.46806 -1.27128 0
M  V30 1073 O 104.321 -0.639658 -1.83681 0
M  V30 1074 C 104.604 -3.60073 0.0443398 0
M  V30 1075 C 104.457 -4.26208 1.43759 0
M  V30 1076 C 105.776 -4.35309 -0.647608 0
M  V30 1077 H 102.895 -0.736175 0.034857 0
M  V30 1078 H 105.537 -1.73694 0.770081 0
M  V30 1079 H 103.687 -3.84823 -0.533224 0
M  V30 1080 H 105.359 -4.12668 2.06162 0
M  V30 1081 H 103.602 -3.84916 2.00056 0
M  V30 1082 H 104.273 -5.35069 1.35665 0
M  V30 1083 H 106.749 -4.15805 -0.156776 0
M  V30 1084 H 105.625 -5.45038 -0.649942 0
M  V30 1085 H 105.886 -4.07598 -1.71219 0
M  V30 1086 N 104.945 -0.338344 -1.53925 0
M  V30 1087 C 106.194 0.260732 -2.00008 0
M  V30 1088 C 106.507 1.52073 -1.23017 0
M  V30 1089 O 107.713 2.19672 -1.5955 0
M  V30 1090 C 106.169 0.51515 -3.56194 0
M  V30 1091 C 105.777 -0.728645 -4.42035 0
M  V30 1092 C 107.521 1.07337 -4.10706 0
M  V30 1093 C 105.428 -0.445315 -5.89721 0
M  V30 1094 H 104.358 0.101205 -0.747177 0
M  V30 1095 H 107.009 -0.452866 -1.77824 0
M  V30 1096 H 105.391 1.28932 -3.74423 0
M  V30 1097 H 106.565 -1.50352 -4.35581 0
M  V30 1098 H 104.88 -1.20813 -3.98489 0
M  V30 1099 H 107.477 1.30022 -5.18651 0
M  V30 1100 H 107.82 2.0273 -3.63602 0
M  V30 1101 H 108.353 0.360034 -3.96167 0
M  V30 1102 H 105.092 -1.36883 -6.41049 0
M  V30 1103 H 104.612 0.291569 -5.99091 0
M  V30 1104 H 106.291 -0.0606218 -6.46972 0
M  V30 1105 N 106.423 1.57458 -0.0668435 0
M  V30 1106 C 107.669 1.93587 0.6043 0
M  V30 1107 C 108.002 0.946722 1.69561 0
M  V30 1108 O 107.277 -0.0248516 1.94484 0
M  V30 1109 C 107.56 3.40014 1.18585 0
M  V30 1110 C 107.413 4.49685 0.101529 0
M  V30 1111 C 108.732 3.87154 2.09284 0
M  V30 1112 H 105.851 0.703958 0.218202 0
M  V30 1113 H 108.493 1.89542 -0.131804 0
M  V30 1114 H 106.643 3.43592 1.81319 0
M  V30 1115 H 108.315 4.5823 -0.531279 0
M  V30 1116 H 106.558 4.30059 -0.568487 0
M  V30 1117 H 107.229 5.49266 0.54874 0
M  V30 1118 H 109.705 3.85551 1.56491 0
M  V30 1119 H 108.581 4.90231 2.46911 0
M  V30 1120 H 108.842 3.2481 2.99918 0
M  V30 1121 N 107.901 -0.206675 1.56239 0
M  V30 1122 C 108.864 -1.23976 1.92776 0
M  V30 1123 C 109.864 -1.39041 0.807729 0
M  V30 1124 O 111.054 -1.37051 1.0753 0
M  V30 1125 C 108.186 -2.61112 2.19165 0
M  V30 1126 H 109.379 -0.927764 2.85189 0
M  V30 1127 H 106.932 -0.447718 1.4975 0
M  V30 1128 H 107.667 -2.97386 1.29352 0
M  V30 1129 H 107.452 -2.51552 3.00772 0
M  V30 1130 H 108.942 -3.35633 2.48476 0
M  V30 1131 N 109.379 -1.50304 -0.473955 0
M  V30 1132 C 110.342 -1.6841 -1.55469 0
M  V30 1133 C 111.342 -0.554905 -1.50922 0
M  V30 1134 O 112.532 -0.821882 -1.53593 0
M  V30 1135 C 109.664 -1.70667 -2.95102 0
M  V30 1136 H 110.857 -2.64828 -1.40733 0
M  V30 1137 H 108.41 -1.39742 -0.700132 0
M  V30 1138 H 109.145 -0.75932 -3.15285 0
M  V30 1139 H 108.93 -2.52698 -2.9981 0
M  V30 1140 H 110.42 -1.8664 -3.73571 0
M  V30 1141 N 110.857 0.726932 -1.39834 0
M  V30 1142 C 112.105 1.4837 -1.37225 0
M  V30 1143 C 112.426 1.94979 0.0284857 0
M  V30 1144 O 111.696 1.69555 0.981213 0
M  V30 1145 H 110.276 0.55043 -0.505011 0
M  V30 1146 H 112.938 0.862468 -1.74778 0
M  V30 1147 H 112.034 2.36198 -2.04003 0
M  V30 1148 N 112.336 1.25143 0.95797 0
M  V30 1149 C 113.582 1.09855 1.70469 0
M  V30 1150 C 113.915 -0.360187 1.90831 0
M  V30 1151 O 113.19 -1.26568 1.47685 0
M  V30 1152 C 113.473 1.8497 3.08963 0
M  V30 1153 C 113.326 3.38652 2.96032 0
M  V30 1154 C 114.645 1.63016 4.08795 0
M  V30 1155 H 111.764 0.400465 0.618706 0
M  V30 1156 H 114.406 1.53933 1.11376 0
M  V30 1157 H 112.556 1.47505 3.59409 0
M  V30 1158 H 114.228 3.85772 2.52938 0
M  V30 1159 H 112.471 3.66534 2.32025 0
M  V30 1160 H 113.142 3.8642 3.94187 0
M  V30 1161 H 115.618 1.95625 3.67247 0
M  V30 1162 H 114.494 2.18015 5.03747 0
M  V30 1163 H 114.755 0.570692 4.38401 0
M  V30 1164 N 113.814 -1.1601 1.06675 0
M  V30 1165 C 115.225 -1.68235 0.809565 0
M  V30 1166 C 115.576 -1.8454 -0.666303 0
M  V30 1167 O 114.701 -1.54374 -1.5165 0
M  V30 1168 C 115.296 -3.05585 1.46299 0
M  V30 1169 C 113.855 -3.54915 1.25349 0
M  V30 1170 C 113.002 -2.30804 1.53703 0
M  V30 1171 H 115.953 -1.00318 1.22971 0
M  V30 1172 H 115.974 -3.70174 0.880431 0
M  V30 1173 H 115.486 -2.93686 2.53713 0
M  V30 1174 H 113.587 -3.72067 0.199261 0
M  V30 1175 H 113.7 -4.36774 1.9689 0
M  V30 1176 H 112.064 -2.36007 0.957739 0
M  V30 1177 H 112.847 -2.21499 2.62284 0
M  V30 1178 N 115.292 -0.849877 -1.32721 0
M  V30 1179 C 116.224 -0.248332 -2.27851 0
M  V30 1180 C 117.237 0.577218 -1.52224 0
M  V30 1181 O 118.426 0.402489 -1.73903 0
M  V30 1182 C 115.526 0.668107 -3.32249 0
M  V30 1183 C 114.699 -0.120534 -4.37234 0
M  V30 1184 C 113.758 0.720932 -5.21238 0
M  V30 1185 O 112.784 0.156166 -5.68986 0
M  V30 1186 N 113.986 2.03647 -5.43607 0
M  V30 1187 H 116.751 -1.06575 -2.80111 0
M  V30 1188 H 114.312 -0.709395 -1.45531 0
M  V30 1189 H 116.304 1.23627 -3.85355 0
M  V30 1190 H 114.874 1.38621 -2.80184 0
M  V30 1191 H 114.094 -0.870108 -3.84477 0
M  V30 1192 H 115.382 -0.662406 -5.0447 0
M  V30 1193 H 114.78 2.51871 -5.06535 0
M  V30 1194 H 113.337 2.55287 -5.99727 0
M  V30 1195 N 116.77 1.45427 -0.607355 0
M  V30 1196 C 117.717 2.3053 0.111625 0
M  V30 1197 C 118.687 1.4209 0.860216 0
M  V30 1198 O 119.872 1.71019 0.845998 0
M  V30 1199 C 117.012 3.26992 1.10319 0
M  V30 1200 C 116.125 4.30535 0.355493 0
M  V30 1201 C 115.26 5.14105 1.33676 0
M  V30 1202 C 114.299 6.09376 0.576862 0
M  V30 1203 N 113.436 6.85727 1.5074 0
M  V30 1204 H 118.276 2.91477 -0.620093 0
M  V30 1205 H 115.813 1.43631 -0.317594 0
M  V30 1206 H 117.771 3.81385 1.6912 0
M  V30 1207 H 116.401 2.67799 1.80232 0
M  V30 1208 H 115.453 3.78805 -0.348023 0
M  V30 1209 H 116.765 4.98235 -0.237423 0
M  V30 1210 H 115.919 5.72897 1.99684 0
M  V30 1211 H 114.658 4.46423 1.9636 0
M  V30 1212 H 113.663 5.49715 -0.0968519 0
M  V30 1213 H 114.888 6.79085 -0.0449341 0
M  V30 1214 H 112.834 6.20735 2.12189 0
M  V30 1215 H 112.751 7.49778 0.967913 0
M  V30 1216 H 114.019 7.4906 2.15706 0
M  V30 1217 N 118.248 0.346503 1.53744 0
M  V30 1218 C 119.659 -0.136779 1.86198 0
M  V30 1219 C 120.01 -1.49749 1.26766 0
M  V30 1220 O 119.135 -2.08417 0.582355 0
M  V30 1221 C 119.73 -0.254966 3.37839 0
M  V30 1222 C 118.289 -0.682482 3.70161 0
M  V30 1223 C 117.436 0.181981 2.76702 0
M  V30 1224 H 120.387 0.565994 1.48264 0
M  V30 1225 H 120.408 -1.08195 3.64793 0
M  V30 1226 H 119.92 0.735526 3.81066 0
M  V30 1227 H 118.021 -1.68189 3.3248 0
M  V30 1228 H 118.134 -0.470326 4.76786 0
M  V30 1229 H 116.498 -0.34615 2.52337 0
M  V30 1230 H 117.281 1.16966 3.2276 0
M  V30 1231 N 119.726 -1.57421 0.075193 0
M  V30 1232 C 120.974 -1.93236 -0.591974 0
M  V30 1233 C 121.295 -0.956241 -1.69944 0
M  V30 1234 O 120.565 -0.00494792 -1.95899 0
M  V30 1235 H 119.145 -0.713355 -0.22166 0
M  V30 1236 H 121.807 -1.9444 0.133848 0
M  V30 1237 H 120.903 -2.95131 -1.01509 0
M  V30 1238 N 121.204 0.198386 -1.56346 0
M  V30 1239 C 122.114 1.2664 -1.97483 0
M  V30 1240 C 123.13 1.49989 -0.882002 0
M  V30 1241 O 124.306 1.62668 -1.18748 0
M  V30 1242 C 121.371 2.59141 -2.30319 0
M  V30 1243 C 120.432 2.43892 -3.53292 0
M  V30 1244 C 119.665 3.70074 -3.84553 0
M  V30 1245 O 119.888 4.74101 -3.1715 0
M  V30 1246 O 118.822 3.658 -4.7799 0
M  V30 1247 H 122.648 0.947304 -2.88548 0
M  V30 1248 H 120.233 0.403123 -1.43859 0
M  V30 1249 H 122.115 3.37352 -2.5253 0
M  V30 1250 H 120.79 2.90684 -1.42423 0
M  V30 1251 H 119.697 1.63803 -3.36332 0
M  V30 1252 H 121.03 2.17282 -4.41644 0
M  V30 1253 N 122.682 1.50554 0.465978 0
M  V30 1254 C 123.91 1.65563 1.24083 0
M  V30 1255 C 124.325 0.341051 1.85694 0
M  V30 1256 O 123.682 -0.677543 1.69457 0
M  V30 1257 C 123.733 2.75051 2.34583 0
M  V30 1258 O 123.454 4.01413 1.75497 0
M  V30 1259 C 124.955 3.01078 3.25372 0
M  V30 1260 H 122.175 0.55638 0.375077 0
M  V30 1261 H 124.719 1.96807 0.555624 0
M  V30 1262 H 122.874 2.46486 2.9887 0
M  V30 1263 H 123.288 4.62002 2.48303 0
M  V30 1264 H 124.762 3.81339 3.99105 0
M  V30 1265 H 125.239 2.12349 3.84453 0
M  V30 1266 H 125.845 3.31194 2.66816 0
M  V30 1267 N 124.16 -0.719506 1.40217 0
M  V30 1268 C 125.576 -1.02707 1.22161 0
M  V30 1269 C 125.776 -2.0128 0.0940557 0
M  V30 1270 O 124.832 -2.46452 -0.549318 0
M  V30 1271 C 126.145 -1.57454 2.56181 0
M  V30 1272 C 127.693 -1.69458 2.63159 0
M  V30 1273 C 128.168 -2.27611 3.97438 0
M  V30 1274 N 129.659 -2.35002 3.99159 0
M  V30 1275 C 130.394 -2.80972 4.99842 0
M  V30 1276 N 129.89 -3.26723 6.10921 0
M  V30 1277 N 131.683 -2.80321 4.87213 0
M  V30 1278 H 123.834 -0.0660492 2.12297 0
M  V30 1279 H 126.097 -0.0919077 0.943534 0
M  V30 1280 H 125.803 -0.924873 3.39321 0
M  V30 1281 H 125.677 -2.56036 2.76993 0
M  V30 1282 H 128.064 -2.33543 1.80393 0
M  V30 1283 H 128.145 -0.694867 2.46181 0
M  V30 1284 H 127.789 -1.6415 4.80643 0
M  V30 1285 H 127.719 -3.2829 4.11744 0
M  V30 1286 H 130.21 -2.02685 3.18947 0
M  V30 1287 H 130.523 -3.60355 6.8364 0
M  V30 1288 H 128.868 -3.24692 6.14492 0
M  V30 1289 H 132.059 -2.43912 3.9953 0
M  V30 1290 H 132.232 -3.15831 5.65822 0
M  V30 1291 N 125.638 -1.25649 -0.95132 0
M  V30 1292 C 126.568 -1.08808 -2.06599 0
M  V30 1293 C 127.549 0.00382547 -1.701 0
M  V30 1294 O 128.734 -0.166325 -1.93486 0
M  V30 1295 C 125.864 -0.709542 -3.39975 0
M  V30 1296 C 124.818 -1.75206 -3.90496 0
M  V30 1297 C 124.144 -1.22811 -5.20405 0
M  V30 1298 C 125.444 -3.15153 -4.16504 0
M  V30 1299 H 127.138 -2.02048 -2.20946 0
M  V30 1300 H 124.684 -0.972835 -1.06169 0
M  V30 1301 H 126.637 -0.578649 -4.17408 0
M  V30 1302 H 125.361 0.258556 -3.25575 0
M  V30 1303 H 124.02 -1.87145 -3.15234 0
M  V30 1304 H 123.668 -0.250145 -5.02378 0
M  V30 1305 H 123.368 -1.92492 -5.55176 0
M  V30 1306 H 124.892 -1.10968 -6.00432 0
M  V30 1307 H 126.306 -3.06349 -4.84586 0
M  V30 1308 H 124.703 -3.82333 -4.62538 0
M  V30 1309 H 125.773 -3.61966 -3.22658 0
M  V30 1310 N 127.117 1.15442 -1.07289 0
M  V30 1311 C 128.049 2.19773 -0.650585 0
M  V30 1312 C 129.062 1.60076 0.296572 0
M  V30 1313 O 130.251 1.78293 0.0859905 0
M  V30 1314 C 127.351 3.38838 0.0650398 0
M  V30 1315 C 126.524 4.2808 -0.898141 0
M  V30 1316 C 125.583 5.2574 -0.219926 0
M  V30 1317 O 124.609 5.62654 -0.860773 0
M  V30 1318 N 125.811 5.71205 1.03466 0
M  V30 1319 H 128.576 2.56622 -1.54808 0
M  V30 1320 H 126.137 1.30551 -0.957494 0
M  V30 1321 H 128.129 4.01222 0.529415 0
M  V30 1322 H 126.699 3.00409 0.864466 0
M  V30 1323 H 125.919 3.62804 -1.54165 0
M  V30 1324 H 127.207 4.84577 -1.5512 0
M  V30 1325 H 126.605 5.43325 1.57526 0
M  V30 1326 H 125.162 6.35633 1.44272 0
M  V30 1327 N 128.595 0.856903 1.32268 0
M  V30 1328 C 129.525 0.31858 2.31316 0
M  V30 1329 C 130.506 -0.583487 1.59779 0
M  V30 1330 O 131.691 -0.503259 1.87566 0
M  V30 1331 C 128.821 -0.491979 3.43798 0
M  V30 1332 C 127.775 0.315849 4.26833 0
M  V30 1333 C 127.101 -0.619586 5.31098 0
M  V30 1334 C 128.401 1.54282 4.98993 0
M  V30 1335 H 130.095 1.14621 2.76591 0
M  V30 1336 H 127.641 0.552613 1.32974 0
M  V30 1337 H 129.594 -0.879012 4.1213 0
M  V30 1338 H 128.318 -1.35299 2.97257 0
M  V30 1339 H 126.977 0.684664 3.6015 0
M  V30 1340 H 126.625 -1.47751 4.8081 0
M  V30 1341 H 126.325 -0.0830621 5.87541 0
M  V30 1342 H 127.849 -1.00375 6.02293 0
M  V30 1343 H 129.263 1.22796 5.59995 0
M  V30 1344 H 127.66 2.01745 5.65172 0
M  V30 1345 H 128.73 2.30285 4.26728 0
M  V30 1346 N 130.073 -1.45103 0.615059 0
M  V30 1347 C 131.003 -2.33339 -0.0865619 0
M  V30 1348 C 131.984 -1.4727 -0.851209 0
M  V30 1349 O 133.169 -1.76026 -0.820281 0
M  V30 1350 C 130.299 -3.30095 -1.07956 0
M  V30 1351 C 129.253 -4.25858 -0.427628 0
M  V30 1352 C 128.579 -5.12361 -1.5294 0
M  V30 1353 C 129.879 -5.18165 0.655944 0
M  V30 1354 H 131.573 -2.92254 0.650224 0
M  V30 1355 H 129.119 -1.40532 0.314138 0
M  V30 1356 H 131.072 -3.90698 -1.57901 0
M  V30 1357 H 129.796 -2.69355 -1.84703 0
M  V30 1358 H 128.455 -3.66564 0.0510292 0
M  V30 1359 H 128.103 -4.47984 -2.28734 0
M  V30 1360 H 127.803 -5.77238 -1.09865 0
M  V30 1361 H 129.327 -5.75833 -2.03098 0
M  V30 1362 H 130.741 -5.72796 0.240257 0
M  V30 1363 H 129.138 -5.91559 1.00888 0
M  V30 1364 H 130.208 -4.60144 1.52957 0
M  V30 1365 N 131.551 -0.354651 -1.53558 0
M  V30 1366 C 132.799 0.237972 -2.00694 0
M  V30 1367 C 133.12 1.50173 -1.24391 0
M  V30 1368 O 132.39 1.92673 -0.354135 0
M  V30 1369 H 130.97 0.0909256 -0.741446 0
M  V30 1370 H 133.632 -0.478368 -1.88938 0
M  V30 1371 H 132.728 0.47264 -3.085 0
M  V30 1372 N 133.029 1.57378 -0.0835403 0
M  V30 1373 C 134.445 1.57246 0.273109 0
M  V30 1374 C 134.645 1.09385 1.69225 0
M  V30 1375 O 133.701 0.765051 2.40631 0
M  V30 1376 C 135.014 3.00614 0.0720628 0
M  V30 1377 C 136.562 3.12684 0.1407 0
M  V30 1378 C 137.037 4.57989 -0.0322094 0
M  V30 1379 N 138.528 4.63194 0.0230085 0
M  V30 1380 C 139.263 5.73335 -0.0861941 0
M  V30 1381 N 138.759 6.9235 -0.24958 0
M  V30 1382 N 140.552 5.62093 -0.0282886 0
M  V30 1383 H 132.703 1.86801 -1.0109 0
M  V30 1384 H 134.966 0.861687 -0.395222 0
M  V30 1385 H 134.672 3.39786 -0.907662 0
M  V30 1386 H 134.546 3.68193 0.81936 0
M  V30 1387 H 136.933 2.73391 1.11092 0
M  V30 1388 H 137.014 2.47719 -0.637896 0
M  V30 1389 H 136.658 4.97973 -0.999247 0
M  V30 1390 H 136.588 5.21 0.765937 0
M  V30 1391 H 139.079 3.77613 0.14722 0
M  V30 1392 H 139.392 7.72117 -0.324733 0
M  V30 1393 H 137.737 6.94415 -0.285097 0
M  V30 1394 H 140.928 4.67997 0.0981408 0
M  V30 1395 H 141.101 6.47895 -0.116845 0
M  V30 1396 N 134.507 -0.190092 1.56449 0
M  V30 1397 C 135.455 -1.25501 1.95837 0
M  V30 1398 C 136.449 -1.4685 0.844485 0
M  V30 1399 O 137.655 -1.47651 1.02952 0
M  V30 1400 H 134.03 -0.421447 0.622805 0
M  V30 1401 H 136.001 -0.895821 2.84636 0
M  V30 1402 C 134.75 -2.59124 2.31841 0
M  V30 1403 H 134.073 -2.43514 3.17082 0
M  V30 1404 H 135.513 -3.32371 2.6326 0
M  V30 1405 C 133.972 -3.16488 1.15486 0
M  V30 1406 O 134.502 -3.99365 0.432535 0
M  V30 1407 N 132.708 -2.75305 0.930349 0
M  V30 1408 H 132.255 -2.08013 1.51948 0
M  V30 1409 H 132.213 -3.14024 0.153634 0
M  V30 1410 N 135.985 -1.50799 -0.457987 0
M  V30 1411 C 136.948 -1.7005 -1.53674 0
M  V30 1412 C 137.948 -0.570881 -1.50325 0
M  V30 1413 O 139.138 -0.838126 -1.52712 0
M  V30 1414 C 136.27 -1.73788 -2.93276 0
M  V30 1415 H 137.463 -2.66306 -1.37917 0
M  V30 1416 H 135.016 -1.40477 -0.685271 0
M  V30 1417 H 135.751 -0.792717 -3.14462 0
M  V30 1418 H 135.536 -2.55864 -2.97113 0
M  V30 1419 H 137.026 -1.90591 -3.71571 0
M  V30 1420 N 137.463 0.71206 -1.40597 0
M  V30 1421 C 138.879 1.02058 -1.22704 0
M  V30 1422 C 139.079 2.01228 -0.104729 0
M  V30 1423 O 138.135 2.4674 0.53624 0
M  V30 1424 C 139.448 1.56094 -2.57012 0
M  V30 1425 C 140.996 1.6806 -2.64054 0
M  V30 1426 C 141.471 2.25501 -3.9864 0
M  V30 1427 N 142.962 2.32882 -4.004 0
M  V30 1428 C 143.697 2.78317 -5.01325 0
M  V30 1429 N 143.193 3.23478 -6.12645 0
M  V30 1430 N 144.986 2.77733 -4.88693 0
M  V30 1431 H 137.137 0.0547896 -2.12329 0
M  V30 1432 H 139.4 0.0869027 -0.944008 0
M  V30 1433 H 139.106 0.906865 -3.39807 0
M  V30 1434 H 138.98 2.54564 -2.78347 0
M  V30 1435 H 141.367 2.32583 -1.81629 0
M  V30 1436 H 141.448 0.681802 -2.46546 0
M  V30 1437 H 141.092 1.61598 -4.81506 0
M  V30 1438 H 141.022 3.26102 -4.13479 0
M  V30 1439 H 143.513 2.00991 -3.20017 0
M  V30 1440 H 143.826 3.56725 -6.85542 0
M  V30 1441 H 142.171 3.21429 -6.16205 0
M  V30 1442 H 145.362 2.4179 -4.00818 0
M  V30 1443 H 145.535 3.12826 -5.67489 0
M  V30 1444 N 138.941 1.26152 0.944643 0
M  V30 1445 C 140.187 1.11657 1.69294 0
M  V30 1446 C 140.52 -0.339926 1.91202 0
M  V30 1447 O 139.795 -1.24994 1.49019 0
M  V30 1448 C 140.078 1.88236 3.06984 0
M  V30 1449 C 139.931 3.41772 2.92424 0
M  V30 1450 C 141.25 1.67343 4.07043 0
M  V30 1451 H 138.369 0.407004 0.614424 0
M  V30 1452 H 141.011 1.55106 1.09737 0
M  V30 1453 H 139.161 1.51308 3.57824 0
M  V30 1454 H 140.833 3.88433 2.48832 0
M  V30 1455 H 139.076 3.68974 2.28124 0
M  V30 1456 H 139.747 3.90579 3.90067 0
M  V30 1457 H 142.223 1.99509 3.65151 0
M  V30 1458 H 141.099 2.23346 5.01406 0
M  V30 1459 H 141.36 0.617158 4.37771 0
M  V30 1460 N 140.419 -1.14872 1.07899 0
M  V30 1461 C 141.352 -2.18794 0.64841 0
M  V30 1462 C 142.33 -1.59065 -0.337189 0
M  V30 1463 O 143.514 -1.86936 -0.242284 0
M  V30 1464 C 140.641 -3.38667 -0.0470417 0
M  V30 1465 C 139.687 -4.16942 0.897884 0
M  V30 1466 S 140.52 -4.78615 2.40183 0
M  V30 1467 C 141.676 -6.0185 1.71834 0
M  V30 1468 H 141.909 -2.5498 1.52881 0
M  V30 1469 H 139.442 -1.25922 0.893484 0
M  V30 1470 H 141.4 -4.08113 -0.442027 0
M  V30 1471 H 140.061 -3.00814 -0.903861 0
M  V30 1472 H 139.254 -5.02726 0.358096 0
M  V30 1473 H 138.856 -3.53073 1.23352 0
M  V30 1474 H 141.148 -6.69574 1.03328 0
M  V30 1475 H 142.091 -6.60408 2.55473 0
M  V30 1476 H 142.499 -5.5173 1.19392 0
M  V30 1477 N 141.898 -0.863906 -1.31812 0
M  V30 1478 C 142.845 -0.313303 -2.28664 0
M  V30 1479 C 143.815 0.584868 -1.55462 0
M  V30 1480 O 145 0.517805 -1.83639 0
M  V30 1481 C 142.14 0.48441 -3.41683 0
M  V30 1482 C 141.253 -0.440594 -4.29747 0
M  V30 1483 C 140.388 0.370652 -5.29905 0
M  V30 1484 C 139.427 -0.551164 -6.09613 0
M  V30 1485 N 138.564 0.223462 -7.01744 0
M  V30 1486 H 143.404 -1.14444 -2.75148 0
M  V30 1487 H 140.941 -0.575769 -1.35364 0
M  V30 1488 H 142.899 0.962627 -4.05943 0
M  V30 1489 H 141.529 1.28029 -2.96325 0
M  V30 1490 H 140.581 -1.03724 -3.65986 0
M  V30 1491 H 141.893 -1.14767 -4.85417 0
M  V30 1492 H 141.047 0.911638 -5.99812 0
M  V30 1493 H 139.786 1.11105 -4.74876 0
M  V30 1494 H 138.791 -1.10396 -5.38603 0
M  V30 1495 H 140.016 -1.29032 -6.66729 0
M  V30 1496 H 137.962 0.946787 -6.49132 0
M  V30 1497 H 137.879 -0.424399 -7.54808 0
M  V30 1498 H 139.147 0.745876 -7.75923 0
M  V30 1499 N 143.376 1.44774 -0.622745 0
M  V30 1500 C 144.286 2.34433 0.0886031 0
M  V30 1501 C 145.302 1.52131 0.844529 0
M  V30 1502 O 146.478 1.84886 0.798691 0
M  V30 1503 C 143.543 3.29986 1.0635 0
M  V30 1504 C 142.604 4.28195 0.307873 0
M  V30 1505 C 141.837 5.19183 1.23633 0
M  V30 1506 O 142.06 5.13918 2.47476 0
M  V30 1507 O 140.994 5.97515 0.725189 0
M  V30 1508 H 144.82 2.96693 -0.648599 0
M  V30 1509 H 142.405 1.44408 -0.382957 0
M  V30 1510 H 144.287 3.88825 1.6246 0
M  V30 1511 H 142.962 2.70269 1.78146 0
M  V30 1512 H 141.869 3.72927 -0.296064 0
M  V30 1513 H 143.202 4.90808 -0.3699 0
M  V30 1514 N 144.854 0.36279 1.53368 0
M  V30 1515 C 146.103 -0.22888 2.00397 0
M  V30 1516 C 146.416 -1.50096 1.25421 0
M  V30 1517 O 147.622 -2.17106 1.63025 0
M  V30 1518 C 146.078 -0.458417 3.56969 0
M  V30 1519 C 145.686 0.798877 4.4082 0
M  V30 1520 C 147.43 -1.00789 4.12361 0
M  V30 1521 C 145.337 0.539078 5.88938 0
M  V30 1522 H 144.267 -0.089305 0.748693 0
M  V30 1523 H 146.918 0.481099 1.77081 0
M  V30 1524 H 145.3 -1.22959 3.76427 0
M  V30 1525 H 146.474 1.57262 4.33134 0
M  V30 1526 H 144.789 1.27137 3.96516 0
M  V30 1527 H 147.386 -1.21754 5.20653 0
M  V30 1528 H 147.729 -1.9692 3.66781 0
M  V30 1529 H 148.262 -0.296961 3.9669 0
M  V30 1530 H 145.001 1.47064 6.3879 0
M  V30 1531 H 144.521 -0.196222 5.99479 0
M  V30 1532 H 146.2 0.163542 6.46793 0
M  V30 1533 N 146.332 -1.57332 0.0918853 0
M  V30 1534 C 147.295 -2.12708 -0.85369 0
M  V30 1535 C 148.295 -1.05561 -1.213 0
M  V30 1536 O 149.485 -1.31461 -1.14296 0
M  V30 1537 C 146.617 -2.64503 -2.15061 0
M  V30 1538 H 147.81 -2.97573 -0.3729 0
M  V30 1539 H 145.363 -1.55509 -0.157072 0
M  V30 1540 H 146.098 -1.83149 -2.67632 0
M  V30 1541 H 145.883 -3.4284 -1.90272 0
M  V30 1542 H 147.373 -3.07351 -2.82711 0
M  V30 1543 N 147.81 0.181792 -1.56548 0
M  V30 1544 C 149.226 0.53316 -1.50431 0
M  V30 1545 C 149.426 1.85184 -0.794297 0
M  V30 1546 O 148.482 2.50058 -0.350318 0
M  V30 1547 C 149.795 0.575597 -2.9514 0
M  V30 1548 C 151.343 0.663519 -3.05886 0
M  V30 1549 C 151.818 0.736946 -4.52032 0
M  V30 1550 N 153.309 0.800118 -4.56237 0
M  V30 1551 C 154.044 0.877327 -5.66649 0
M  V30 1552 N 153.54 0.916016 -6.86718 0
M  V30 1553 N 155.333 0.915542 -5.54594 0
M  V30 1554 H 147.484 -0.683025 -2.01118 0
M  V30 1555 H 149.747 -0.244988 -0.915797 0
M  V30 1556 H 149.453 -0.324482 -3.502 0
M  V30 1557 H 149.327 1.42572 -3.49218 0
M  V30 1558 H 151.714 1.55403 -2.50867 0
M  V30 1559 H 151.795 -0.21307 -2.54911 0
M  V30 1560 H 151.439 -0.149262 -5.07681 0
M  V30 1561 H 151.369 1.62953 -5.00753 0
M  V30 1562 H 153.86 0.778926 -3.69785 0
M  V30 1563 H 154.173 0.975813 -7.66614 0
M  V30 1564 H 152.518 0.884469 -6.89349 0
M  V30 1565 H 155.709 0.882245 -4.59711 0
M  V30 1566 H 155.882 0.972253 -6.40665 0
M  V30 1567 N 149.288 1.51039 0.449983 0
M  V30 1568 C 150.236 1.71995 1.5659 0
M  V30 1569 C 151.23 0.586029 1.5894 0
M  V30 1570 O 152.436 0.76709 1.62837 0
M  V30 1571 H 148.811 0.543233 0.520001 0
M  V30 1572 H 150.782 2.65562 1.36085 0
M  V30 1573 C 149.531 1.8506 2.9436 0
M  V30 1574 H 148.854 2.71712 2.93279 0
M  V30 1575 H 150.294 2.0374 3.71842 0
M  V30 1576 C 148.753 0.607277 3.31382 0
M  V30 1577 O 149.283 -0.243903 4.00959 0
M  V30 1578 N 147.489 0.455073 2.87015 0
M  V30 1579 H 147.036 1.14879 2.30566 0
M  V30 1580 H 146.994 -0.375611 3.12148 0
M  V30 1581 N 150.766 -0.704594 1.40972 0
M  V30 1582 C 152.012 -1.46675 1.40051 0
M  V30 1583 C 152.345 -1.94199 0.00641102 0
M  V30 1584 O 151.62 -1.68916 -0.964235 0
M  V30 1585 C 151.903 -2.68505 2.39952 0
M  V30 1586 C 151.756 -2.26805 3.88432 0
M  V30 1587 C 153.075 -3.70686 2.37233 0
M  V30 1588 H 150.194 -0.532015 0.510028 0
M  V30 1589 H 152.836 -0.803255 1.72185 0
M  V30 1590 H 150.986 -3.25114 2.1268 0
M  V30 1591 H 152.658 -1.75592 4.26574 0
M  V30 1592 H 150.901 -1.58685 4.03734 0
M  V30 1593 H 151.572 -3.14181 4.53866 0
M  V30 1594 H 154.048 -3.23731 2.61415 0
M  V30 1595 H 152.924 -4.53553 3.09162 0
M  V30 1596 H 153.185 -4.19754 1.38777 0
M  V30 1597 N 152.244 -1.26651 -0.937939 0
M  V30 1598 C 153.469 -1.15279 -1.72411 0
M  V30 1599 C 153.894 0.287866 -1.85884 0
M  V30 1600 O 153.252 1.20855 -1.35143 0
M  V30 1601 C 153.3 -1.83028 -3.10698 0
M  V30 1602 O 152.404 -1.12128 -3.96864 0
M  V30 1603 H 151.745 -0.401504 -0.528858 0
M  V30 1604 H 154.275 -1.67531 -1.1745 0
M  V30 1605 H 154.285 -1.89981 -3.6107 0
M  V30 1606 H 152.96 -2.87833 -3.00208 0
M  V30 1607 H 151.537 -1.13173 -3.55312 0
M  V30 1608 N 153.722 1.14298 -1.08507 0
M  V30 1609 C 154.669 2.19414 -0.715965 0
M  V30 1610 C 155.639 1.63399 0.298326 0
M  V30 1611 O 156.824 1.89929 0.182101 0
M  V30 1612 C 153.964 3.44845 -0.132534 0
M  V30 1613 C 153.077 4.15007 -1.19973 0
M  V30 1614 C 152.212 5.28024 -0.580048 0
M  V30 1615 C 151.251 5.9002 -1.62921 0
M  V30 1616 N 150.388 6.94485 -1.03125 0
M  V30 1617 H 155.228 2.50336 -1.61666 0
M  V30 1618 H 152.765 1.2293 -0.807882 0
M  V30 1619 H 154.723 4.16601 0.223454 0
M  V30 1620 H 153.353 3.14403 0.731467 0
M  V30 1621 H 152.405 3.41629 -1.67313 0
M  V30 1622 H 153.717 4.57178 -1.99473 0
M  V30 1623 H 152.871 6.06455 -0.172364 0
M  V30 1624 H 151.61 4.87076 0.246603 0
M  V30 1625 H 150.615 5.10291 -2.04654 0
M  V30 1626 H 151.84 6.33042 -2.45835 0
M  V30 1627 H 149.786 6.55612 -0.225711 0
M  V30 1628 H 149.703 7.35148 -1.76334 0
M  V30 1629 H 150.971 7.7679 -0.649458 0
M  V30 1630 N 155.201 0.870884 1.31352 0
M  V30 1631 C 156.431 0.496049 2.00557 0
M  V30 1632 C 156.839 -0.916241 1.65534 0
M  V30 1633 O 156.182 -1.61188 0.881134 0
M  V30 1634 C 156.244 0.574418 3.54881 0
M  V30 1635 C 155.908 1.94849 4.1338 0
M  V30 1636 C 156.905 2.91611 4.30417 0
M  V30 1637 C 154.59 2.25005 4.49086 0
M  V30 1638 C 156.584 4.16672 4.82352 0
M  V30 1639 C 154.271 3.50315 5.00722 0
M  V30 1640 C 155.269 4.45964 5.17306 0
M  V30 1641 O 154.957 5.69052 5.67833 0
M  V30 1642 H 154.689 0.191664 0.64826 0
M  V30 1643 H 157.243 1.17409 1.68536 0
M  V30 1644 H 155.473 -0.160549 3.86367 0
M  V30 1645 H 157.162 0.212879 4.05341 0
M  V30 1646 H 157.928 2.69622 4.03149 0
M  V30 1647 H 153.807 1.51332 4.35453 0
M  V30 1648 H 157.351 4.91336 4.95211 0
M  V30 1649 H 153.248 3.72147 5.27424 0
M  V30 1650 H 154.016 5.71236 5.86201 0
M  V30 1651 N 156.679 -1.44442 0.630414 0
M  V30 1652 C 157.642 -2.29107 -0.0652523 0
M  V30 1653 C 158.642 -1.41002 -0.772995 0
M  V30 1654 O 159.832 -1.62881 -0.617692 0
M  V30 1655 C 156.964 -3.22564 -1.10296 0
M  V30 1656 H 158.157 -2.92103 0.679401 0
M  V30 1657 H 155.71 -1.51343 0.390517 0
M  V30 1658 H 156.445 -2.64416 -1.87762 0
M  V30 1659 H 156.23 -3.87491 -0.59941 0
M  V30 1660 H 157.72 -3.86167 -1.5895 0
M  V30 1661 N 158.157 -0.370918 -1.53173 0
M  V30 1662 C 159.568 0.107139 -1.86392 0
M  V30 1663 C 159.919 1.47714 -1.29132 0
M  V30 1664 O 159.044 2.07464 -0.615439 0
M  V30 1665 C 159.639 0.201187 -3.38202 0
M  V30 1666 C 158.198 0.623507 -3.712 0
M  V30 1667 C 157.345 -0.225978 -2.76378 0
M  V30 1668 H 160.296 -0.58951 -1.47345 0
M  V30 1669 H 160.317 1.02377 -3.66468 0
M  V30 1670 H 159.829 -0.796058 -3.79848 0
M  V30 1671 H 157.93 1.62879 -3.35114 0
M  V30 1672 H 158.043 0.394414 -4.77474 0
M  V30 1673 H 156.407 0.305962 -2.52856 0
M  V30 1674 H 157.19 -1.22086 -3.20858 0
M  V30 1675 N 159.635 1.57281 -0.100228 0
M  V30 1676 C 160.912 1.86014 0.604812 0
M  V30 1677 C 161.292 0.998025 1.86018 0
M  V30 1678 O 160.64 0.0718184 2.28387 0
M  V30 1679 C 160.85 3.36784 0.915278 0
M  V30 1680 C 162.198 4.04957 1.27651 0
M  V30 1681 O 163.222 3.41695 1.00613 0
M  V30 1682 O 162.081 5.16593 1.7831 0
M  V30 1683 H 159.175 0.76942 0.303185 0
M  V30 1684 H 161.721 1.69176 -0.133313 0
M  V30 1685 H 160.493 3.91292 0.0248896 0
M  V30 1686 H 160.116 3.58987 1.70921 0
M  V30 1687 N 161.113 -0.173488 1.56642 0
M  V30 1688 C 162.338 -0.910149 1.86363 0
M  V30 1689 C 162.763 -1.75132 0.686318 0
M  V30 1690 O 162.121 -1.77595 -0.364643 0
M  V30 1691 C 162.169 -1.76447 3.14482 0
M  V30 1692 O 161.273 -2.86584 2.96553 0
M  V30 1693 H 160.614 -0.255086 0.613047 0
M  V30 1694 H 163.144 -0.172283 2.03873 0
M  V30 1695 H 163.154 -2.16483 3.45831 0
M  V30 1696 H 161.829 -1.14658 3.99783 0
M  V30 1697 H 160.406 -2.50146 2.76553 0
M  V30 1698 N 162.591 -1.51276 -0.441967 0
M  V30 1699 C 163.84 -1.6295 -1.18871 0
M  V30 1700 C 164.153 -0.349312 -1.92456 0
M  V30 1701 O 165.359 -0.345355 -2.69295 0
M  V30 1702 C 163.815 -2.87759 -2.16155 0
M  V30 1703 C 163.423 -4.22764 -1.48239 0
M  V30 1704 C 165.167 -3.08788 -2.91291 0
M  V30 1705 C 163.074 -5.38728 -2.4398 0
M  V30 1706 H 162.004 -0.606913 -0.447406 0
M  V30 1707 H 164.655 -1.77739 -0.456205 0
M  V30 1708 H 163.037 -2.66593 -2.92821 0
M  V30 1709 H 164.211 -4.54293 -0.771635 0
M  V30 1710 H 162.526 -4.07575 -0.852741 0
M  V30 1711 H 165.123 -3.92599 -3.63002 0
M  V30 1712 H 165.466 -2.21679 -3.5237 0
M  V30 1713 H 165.999 -3.30272 -2.21733 0
M  V30 1714 H 162.738 -6.28082 -1.87598 0
M  V30 1715 H 162.258 -5.1158 -3.13123 0
M  V30 1716 H 163.937 -5.70489 -3.05207 0
M  V30 1717 N 164.069 0.697108 -1.41344 0
M  V30 1718 C 165.315 1.4593 -1.40827 0
M  V30 1719 C 165.648 1.94193 -0.0167098 0
M  V30 1720 O 164.923 1.69425 0.955263 0
M  V30 1721 C 165.206 2.67229 -2.41373 0
M  V30 1722 C 165.059 2.24741 -3.8963 0
M  V30 1723 C 166.378 3.69423 -2.39196 0
M  V30 1724 H 163.497 0.529303 -0.512842 0
M  V30 1725 H 166.139 0.794112 -1.72609 0
M  V30 1726 H 164.289 3.23982 -2.14401 0
M  V30 1727 H 165.961 1.73327 -4.27499 0
M  V30 1728 H 164.204 1.56542 -4.0457 0
M  V30 1729 H 164.875 3.1177 -4.55525 0
M  V30 1730 H 167.351 3.2234 -2.63128 0
M  V30 1731 H 166.227 4.51907 -3.11563 0
M  V30 1732 H 166.488 4.19012 -1.41001 0
M  V30 1733 N 165.547 1.27147 0.931209 0
M  V30 1734 C 166.796 1.12664 1.67302 0
M  V30 1735 C 167.109 -0.327718 1.92835 0
M  V30 1736 O 168.315 -0.593392 2.64936 0
M  V30 1737 C 166.771 1.9683 3.01307 0
M  V30 1738 C 166.379 3.46901 2.83485 0
M  V30 1739 C 168.123 1.90985 3.79111 0
M  V30 1740 C 166.03 4.23279 4.13024 0
M  V30 1741 H 164.96 0.41803 0.627509 0
M  V30 1742 H 167.611 1.51539 1.03481 0
M  V30 1743 H 165.993 1.50797 3.66164 0
M  V30 1744 H 167.167 4.00773 2.27415 0
M  V30 1745 H 165.482 3.54088 2.19113 0
M  V30 1746 H 168.079 2.45328 4.75098 0
M  V30 1747 H 168.422 0.882718 4.06834 0
M  V30 1748 H 168.955 2.34895 3.21044 0
M  V30 1749 H 165.694 5.26503 3.90481 0
M  V30 1750 H 165.214 3.74186 4.6877 0
M  V30 1751 H 166.893 4.32265 4.81411 0
M  V30 1752 N 167.025 -1.13721 1.09112 0
M  V30 1753 C 168.271 -1.85198 0.826414 0
M  V30 1754 C 168.604 -1.83129 -0.646319 0
M  V30 1755 O 167.879 -1.2671 -1.47563 0
M  V30 1756 C 168.162 -3.33507 1.35812 0
M  V30 1757 C 168.015 -3.44108 2.89672 0
M  V30 1758 C 169.334 -4.28838 0.989256 0
M  V30 1759 H 166.453 -0.67243 0.301675 0
M  V30 1760 H 169.095 -1.33499 1.35197 0
M  V30 1761 H 167.245 -3.77666 0.911082 0
M  V30 1762 H 168.917 -3.08684 3.428 0
M  V30 1763 H 167.16 -2.85087 3.26967 0
M  V30 1764 H 167.831 -4.48388 3.21951 0
M  V30 1765 H 170.307 -3.92734 1.37475 0
M  V30 1766 H 169.183 -5.31051 1.38838 0
M  V30 1767 H 169.444 -4.4198 -0.102924 0
M  V30 1768 N 168.503 -0.877838 -1.30888 0
M  V30 1769 C 169.749 -0.493426 -1.96706 0
M  V30 1770 C 170.082 0.953504 -1.6918 0
M  V30 1771 O 169.357 1.67266 -0.992594 0
M  V30 1772 C 169.64 -0.760429 -3.51979 0
M  V30 1773 C 169.493 -2.25747 -3.89048 0
M  V30 1774 C 170.812 -0.232148 -4.39487 0
M  V30 1775 H 167.931 -0.180746 -0.714493 0
M  V30 1776 H 170.573 -1.10052 -1.54882 0
M  V30 1777 H 168.723 -0.243715 -3.87735 0
M  V30 1778 H 170.395 -2.84204 -3.63354 0
M  V30 1779 H 168.638 -2.72694 -3.37373 0
M  V30 1780 H 169.309 -2.39491 -4.97341 0
M  V30 1781 H 171.785 -0.674314 -4.106 0
M  V30 1782 H 170.661 -0.448355 -5.47066 0
M  V30 1783 H 170.922 0.866297 -4.33529 0
M  V30 1784 N 169.982 1.44106 -0.638065 0
M  V30 1785 C 171.21 2.06336 -0.152615 0
M  V30 1786 C 171.625 1.47731 1.17563 0
M  V30 1787 O 170.982 0.602806 1.72257 0
M  V30 1788 C 171.033 3.61479 -0.0391491 0
M  V30 1789 O 170.754 4.17903 -1.31487 0
M  V30 1790 C 172.255 4.40757 0.474176 0
M  V30 1791 H 169.475 0.665862 -0.0828776 0
M  V30 1792 H 172.019 1.84862 -0.87443 0
M  V30 1793 H 170.174 3.82191 0.633142 0
M  V30 1794 H 170.588 5.11416 -1.16421 0
M  V30 1795 H 172.062 5.49707 0.502562 0
M  V30 1796 H 172.539 4.12697 1.50258 0
M  V30 1797 H 173.145 4.24979 -0.165102 0
M  V30 1798 N 171.46 0.379036 1.52974 0
M  V30 1799 C 172.408 -0.476033 2.27677 0
M  V30 1800 C 173.402 -1.0719 1.31174 0
M  V30 1801 O 174.608 -1.01355 1.48752 0
M  V30 1802 H 170.983 -0.172255 0.732006 0
M  V30 1803 H 172.954 0.175615 2.97883 0
M  V30 1804 C 171.703 -1.5967 3.0887 0
M  V30 1805 H 171.026 -1.1475 3.82978 0
M  V30 1806 H 172.466 -2.16943 3.64296 0
M  V30 1807 C 170.925 -2.54682 2.20542 0
M  V30 1808 O 171.455 -3.57836 1.82527 0
M  V30 1809 N 169.661 -2.24183 1.84907 0
M  V30 1810 H 169.208 -1.40333 2.1602 0
M  V30 1811 H 169.166 -2.88006 1.26096 0
M  V30 1812 N 172.938 -1.57226 0.108567 0
M  V30 1813 C 174.349 -1.8195 -0.418464 0
M  V30 1814 C 174.7 -1.02508 -1.67292 0
M  V30 1815 O 173.825 -0.258496 -2.14851 0
M  V30 1816 C 174.42 -3.30028 -0.765979 0
M  V30 1817 C 172.979 -3.55469 -1.23769 0
M  V30 1818 C 172.126 -2.7625 -0.241106 0
M  V30 1819 H 175.077 -1.55149 0.33384 0
M  V30 1820 H 175.098 -3.44086 -1.62434 0
M  V30 1821 H 174.61 -3.87821 0.147219 0
M  V30 1822 H 172.711 -3.03022 -2.16814 0
M  V30 1823 H 172.824 -4.6408 -1.19022 0
M  V30 1824 H 171.188 -2.44133 -0.72602 0
M  V30 1825 H 171.971 -3.36797 0.665007 0
M  V30 1826 N 174.416 0.165178 -1.56732 0
M  V30 1827 C 175.662 0.882112 -1.82611 0
M  V30 1828 C 175.995 1.81628 -0.687378 0
M  V30 1829 O 175.27 1.92009 0.310267 0
M  V30 1830 C 175.553 1.67245 -3.18906 0
M  V30 1831 C 175.406 0.760987 -4.43316 0
M  V30 1832 C 176.725 2.63884 -3.52212 0
M  V30 1833 H 173.844 0.319242 -0.664269 0
M  V30 1834 H 176.486 0.148052 -1.89422 0
M  V30 1835 H 174.636 2.29824 -3.1323 0
M  V30 1836 H 176.308 0.147596 -4.61064 0
M  V30 1837 H 174.551 0.0694102 -4.33744 0
M  V30 1838 H 175.222 1.34962 -5.35247 0
M  V30 1839 H 177.698 2.11429 -3.58381 0
M  V30 1840 H 176.574 3.16245 -4.48643 0
M  V30 1841 H 176.835 3.44377 -2.77231 0
M  V30 1842 N 175.894 1.51508 0.433938 0
M  V30 1843 C 177.171 1.54888 1.19453 0
M  V30 1844 C 177.551 0.315154 2.08734 0
M  V30 1845 O 176.899 -0.699558 2.17528 0
M  V30 1846 C 177.109 2.86467 1.99342 0
M  V30 1847 C 178.457 3.38545 2.56267 0
M  V30 1848 O 179.481 2.88041 2.0955 0
M  V30 1849 O 178.34 4.26675 3.41483 0
M  V30 1850 H 175.434 0.622863 0.544032 0
M  V30 1851 H 177.98 1.63823 0.442732 0
M  V30 1852 H 176.752 3.67718 1.33788 0
M  V30 1853 H 176.375 2.8071 2.8158 0
M  V30 1854 N 177.372 -0.689602 1.41712 0
M  V30 1855 C 178.618 -1.45181 1.41599 0
M  V30 1856 C 178.951 -1.94181 0.0270081 0
M  V30 1857 O 178.226 -1.6993 -0.946265 0
M  V30 1858 C 178.509 -2.65945 2.42787 0
M  V30 1859 C 178.362 -2.22672 3.90816 0
M  V30 1860 C 179.681 -3.68149 2.41151 0
M  V30 1861 H 176.8 -0.526576 0.515642 0
M  V30 1862 H 179.442 -0.784947 1.73028 0
M  V30 1863 H 177.592 -3.2284 2.16116 0
M  V30 1864 H 179.264 -1.71058 4.28412 0
M  V30 1865 H 177.507 -1.54394 4.05395 0
M  V30 1866 H 178.178 -3.0935 4.57172 0
M  V30 1867 H 180.654 -3.2094 2.64834 0
M  V30 1868 H 179.53 -4.50248 3.13955 0
M  V30 1869 H 179.791 -4.18259 1.43221 0
M  V30 1870 N 178.85 -1.27639 -0.924453 0
M  V30 1871 C 179.78 -1.13166 -2.04244 0
M  V30 1872 C 180.761 -0.032256 -1.70069 0
M  V30 1873 O 181.946 -0.207328 -1.9309 0
M  V30 1874 C 179.076 -0.781496 -3.38393 0
M  V30 1875 C 178.03 -1.83449 -3.86692 0
M  V30 1876 C 177.356 -1.33822 -5.17683 0
M  V30 1877 C 178.656 -3.23917 -4.09726 0
M  V30 1878 H 180.35 -2.06689 -2.1661 0
M  V30 1879 H 177.896 -0.995136 -1.04082 0
M  V30 1880 H 179.849 -0.667057 -4.16087 0
M  V30 1881 H 178.573 0.189439 -3.2605 0
M  V30 1882 H 177.232 -1.93789 -3.11193 0
M  V30 1883 H 176.88 -0.35665 -5.01734 0
M  V30 1884 H 176.58 -2.04224 -5.50968 0
M  V30 1885 H 178.104 -1.23679 -5.97943 0
M  V30 1886 H 179.518 -3.16559 -4.77978 0
M  V30 1887 H 177.915 -3.92059 -4.54324 0
M  V30 1888 H 178.985 -3.68729 -3.14908 0
M  V30 1889 N 180.328 1.1314 -1.09713 0
M  V30 1890 C 181.556 1.88321 -0.856898 0
M  V30 1891 C 181.971 1.79276 0.592073 0
M  V30 1892 O 181.328 1.16142 1.40774 0
M  V30 1893 C 181.379 3.37812 -1.28706 0
M  V30 1894 O 181.1 3.46627 -2.67921 0
M  V30 1895 C 182.601 4.29952 -1.07964 0
M  V30 1896 H 179.821 0.596094 -0.308079 0
M  V30 1897 H 182.365 1.43205 -1.45988 0
M  V30 1898 H 180.52 3.805 -0.727912 0
M  V30 1899 H 180.934 4.39579 -2.8613 0
M  V30 1900 H 182.408 5.33159 -1.42986 0
M  V30 1901 H 182.885 4.39196 -0.0176577 0
M  V30 1902 H 183.491 3.93036 -1.62489 0
M  V30 1903 N 181.806 0.884767 1.30421 0
M  V30 1904 C 183.036 0.517293 2.00019 0
M  V30 1905 C 183.444 -0.898632 1.66497 0
M  V30 1906 O 182.787 -1.60245 0.898181 0
M  V30 1907 C 182.849 0.612025 3.54252 0
M  V30 1908 C 182.513 1.99222 4.1129 0
M  V30 1909 C 183.51 2.9616 4.273 0
M  V30 1910 C 181.195 2.29755 4.46674 0
M  V30 1911 C 183.189 4.21764 4.77906 0
M  V30 1912 C 180.876 3.55606 4.96979 0
M  V30 1913 C 181.874 4.51425 5.12547 0
M  V30 1914 O 181.562 5.75043 5.61766 0
M  V30 1915 H 181.294 0.198529 0.64619 0
M  V30 1916 H 183.848 1.1919 1.67281 0
M  V30 1917 H 182.078 -0.119561 3.86515 0
M  V30 1918 H 183.767 0.255859 4.05093 0
M  V30 1919 H 184.533 2.73882 4.00267 0
M  V30 1920 H 180.412 1.55942 4.33824 0
M  V30 1921 H 183.956 4.96561 4.89972 0
M  V30 1922 H 179.853 3.7772 5.23448 0
M  V30 1923 H 180.621 5.77422 5.80109 0
M  V30 1924 N 183.284 -1.43765 0.645699 0
M  V30 1925 C 184.531 -2.01898 0.15604 0
M  V30 1926 C 184.859 -1.50887 -1.22733 0
M  V30 1927 O 184.114 -0.689271 -1.8316 0
M  V30 1928 C 184.413 -3.57238 0.107679 0
M  V30 1929 C 184.079 -4.27564 1.43178 0
M  V30 1930 C 182.741 -4.46492 1.7944 0
M  V30 1931 C 185.093 -4.67454 2.30513 0
M  V30 1932 C 182.421 -5.02573 3.02716 0
M  V30 1933 C 184.773 -5.24901 3.53074 0
M  V30 1934 C 183.437 -5.42046 3.89541 0
M  V30 1935 H 182.707 -0.738797 0.057099 0
M  V30 1936 H 185.354 -1.72341 0.834912 0
M  V30 1937 H 183.659 -3.86293 -0.654618 0
M  V30 1938 H 185.356 -3.99965 -0.287938 0
M  V30 1939 H 181.946 -4.13171 1.13963 0
M  V30 1940 H 186.13 -4.5253 2.0379 0
M  V30 1941 H 181.386 -5.14033 3.31028 0
M  V30 1942 H 185.56 -5.54758 4.20971 0
M  V30 1943 H 183.187 -5.85268 4.85145 0
M  V30 1944 N 184.763 -0.387143 -1.52771 0
M  V30 1945 C 186.01 0.195735 -2.01552 0
M  V30 1946 C 186.338 1.46995 -1.27369 0
M  V30 1947 O 185.593 1.92325 -0.361879 0
M  V30 1948 C 185.892 0.512209 -3.53711 0
M  V30 1949 C 185.558 -0.670202 -4.45891 0
M  V30 1950 C 184.22 -0.994586 -4.70809 0
M  V30 1951 C 186.572 -1.46134 -5.00294 0
M  V30 1952 C 183.9 -2.11169 -5.4738 0
M  V30 1953 C 186.252 -2.56903 -5.78086 0
M  V30 1954 C 184.916 -2.89852 -6.01284 0
M  V30 1955 H 184.186 0.0716246 -0.73753 0
M  V30 1956 H 186.833 -0.524046 -1.8419 0
M  V30 1957 H 185.138 1.31329 -3.69134 0
M  V30 1958 H 186.835 0.975804 -3.88946 0
M  V30 1959 H 183.425 -0.407366 -4.2666 0
M  V30 1960 H 187.609 -1.22397 -4.80971 0
M  V30 1961 H 182.865 -2.3707 -5.63567 0
M  V30 1962 H 187.039 -3.18608 -6.19243 0
M  V30 1963 H 184.666 -3.76533 -6.60399 0
M  V30 1964 N 186.241 1.57166 -0.116904 0
M  V30 1965 C 187.171 2.18222 0.830759 0
M  V30 1966 C 188.152 1.12167 1.27877 0
M  V30 1967 O 189.337 1.40394 1.34176 0
M  V30 1968 C 186.467 2.77996 2.08172 0
M  V30 1969 C 185.421 3.89614 1.77157 0
M  V30 1970 C 184.747 4.36187 3.09265 0
M  V30 1971 C 186.047 5.1181 1.04151 0
M  V30 1972 H 187.741 2.97664 0.321992 0
M  V30 1973 H 185.287 1.4318 0.153434 0
M  V30 1974 H 187.24 3.19366 2.74924 0
M  V30 1975 H 185.964 1.9584 2.6137 0
M  V30 1976 H 184.623 3.48816 1.12796 0
M  V30 1977 H 184.271 3.50893 3.60393 0
M  V30 1978 H 183.971 5.11455 2.89288 0
M  V30 1979 H 185.495 4.80207 3.77139 0
M  V30 1980 H 186.909 5.50214 1.61052 0
M  V30 1981 H 185.306 5.92648 0.942762 0
M  V30 1982 H 186.376 4.84892 0.0279022 0
M  V30 1983 N 187.719 -0.156864 1.56817 0
M  V30 1984 C 188.666 -1.19394 1.97519 0
M  V30 1985 C 189.636 -1.4322 0.841265 0
M  V30 1986 O 190.821 -1.55719 1.10255 0
M  V30 1987 C 187.961 -2.52483 2.35258 0
M  V30 1988 C 187.074 -2.35914 3.61896 0
M  V30 1989 C 186.209 -3.61969 3.88782 0
M  V30 1990 C 185.248 -3.40395 5.08722 0
M  V30 1991 N 184.385 -4.58556 5.31668 0
M  V30 1992 H 189.225 -0.839845 2.85921 0
M  V30 1993 H 186.762 -0.403264 1.41464 0
M  V30 1994 H 188.72 -3.30071 2.55165 0
M  V30 1995 H 187.35 -2.85859 1.49949 0
M  V30 1996 H 186.402 -1.49429 3.49821 0
M  V30 1997 H 187.714 -2.15926 4.49641 0
M  V30 1998 H 186.868 -4.47989 4.09135 0
M  V30 1999 H 185.607 -3.84951 2.9944 0
M  V30 2000 H 184.612 -2.52763 4.88253 0
M  V30 2001 H 185.837 -3.18822 5.99608 0
M  V30 2002 H 183.783 -4.81729 4.45279 0
M  V30 2003 H 183.7 -4.41535 6.13664 0
M  V30 2004 H 184.968 -5.45817 5.5651 0
M  V30 2005 N 189.197 -1.51736 -0.425897 0
M  V30 2006 C 190.107 -1.76738 -1.54275 0
M  V30 2007 C 191.123 -0.65211 -1.61318 0
M  V30 2008 O 192.299 -0.935654 -1.78346 0
M  V30 2009 C 189.364 -1.89755 -2.90162 0
M  V30 2010 C 188.425 -3.13633 -2.93143 0
M  V30 2011 C 187.658 -3.2602 -4.22548 0
M  V30 2012 O 187.881 -2.44067 -5.15546 0
M  V30 2013 O 186.815 -4.19071 -4.32046 0
M  V30 2014 H 190.641 -2.71502 -1.36089 0
M  V30 2015 H 188.226 -1.36376 -0.610069 0
M  V30 2016 H 190.108 -2.00236 -3.70788 0
M  V30 2017 H 188.783 -0.981785 -3.08452 0
M  V30 2018 H 187.69 -3.08622 -2.11431 0
M  V30 2019 H 189.023 -4.04936 -2.798 0
M  V30 2020 N 190.675 0.682077 -1.42076 0
M  V30 2021 C 191.9 1.47558 -1.45744 0
M  V30 2022 C 192.325 1.87977 -0.0680981 0
M  V30 2023 O 191.683 1.55522 0.9318 0
M  V30 2024 C 191.731 2.70575 -2.38373 0
M  V30 2025 O 190.835 3.68573 -1.85007 0
M  V30 2026 H 190.176 0.443585 -0.494093 0
M  V30 2027 H 192.706 0.837238 -1.86686 0
M  V30 2028 H 192.716 3.18729 -2.54707 0
M  V30 2029 H 191.391 2.40495 -3.39315 0
M  V30 2030 H 189.968 3.2757 -1.78192 0
M  V30 2031 N 192.153 1.28127 0.917671 0
M  V30 2032 C 193.401 1.14825 1.66312 0
M  V30 2033 C 193.722 -0.304379 1.9261 0
M  V30 2034 O 192.992 -1.21149 1.53947 0
M  V30 2035 H 191.572 0.421953 0.616413 0
M  V30 2036 H 194.234 1.608 1.10134 0
M  V30 2037 H 193.33 1.68489 2.62712 0
M  V30 2038 N 193.631 -1.12557 1.10312 0
M  V30 2039 C 194.564 -2.1737 0.694674 0
M  V30 2040 C 195.542 -1.59745 -0.303373 0
M  V30 2041 O 196.726 -1.87408 -0.202578 0
M  V30 2042 C 193.853 -3.38691 0.0248052 0
M  V30 2043 C 192.899 -4.14943 0.986121 0
M  V30 2044 S 193.732 -4.73413 2.50281 0
M  V30 2045 C 194.888 -5.9807 1.84562 0
M  V30 2046 H 195.121 -2.5168 1.58255 0
M  V30 2047 H 192.654 -1.23998 0.919992 0
M  V30 2048 H 194.612 -4.08959 -0.355361 0
M  V30 2049 H 193.273 -3.02664 -0.839851 0
M  V30 2050 H 192.466 -5.01854 0.464651 0
M  V30 2051 H 192.068 -3.50377 1.30813 0
M  V30 2052 H 194.36 -6.67232 1.17507 0
M  V30 2053 H 195.303 -6.54841 2.69423 0
M  V30 2054 H 195.711 -5.49073 1.31069 0
M  V30 2055 N 195.109 -0.891671 -1.2995 0
M  V30 2056 C 196.386 -0.433307 -1.9074 0
M  V30 2057 C 196.766 1.08646 -1.80995 0
M  V30 2058 O 196.114 1.92476 -1.23147 0
M  V30 2059 C 196.324 -0.938895 -3.36134 0
M  V30 2060 C 197.672 -0.977829 -4.13187 0
M  V30 2061 O 198.696 -0.886015 -3.45005 0
M  V30 2062 O 197.555 -1.11453 -5.35015 0
M  V30 2063 H 194.649 -0.133699 -0.816121 0
M  V30 2064 H 197.195 -0.981011 -1.38471 0
M  V30 2065 H 195.967 -1.98281 -3.37343 0
M  V30 2066 H 195.59 -0.37074 -3.95868 0
M  V30 2067 N 196.587 1.43421 -0.653314 0
M  V30 2068 C 197.998 1.85065 -0.246537 0
M  V30 2069 C 198.349 1.54688 1.2069 0
M  V30 2070 O 197.474 0.995896 1.92122 0
M  V30 2071 C 198.069 3.35922 -0.440666 0
M  V30 2072 C 196.628 3.76297 -0.0882064 0
M  V30 2073 C 195.775 2.67147 -0.743484 0
M  V30 2074 H 198.726 1.33572 -0.856979 0
M  V30 2075 H 198.747 3.79204 0.313798 0
M  V30 2076 H 198.259 3.58 -1.49858 0
M  V30 2077 H 196.36 3.5983 0.96711 0
M  V30 2078 H 196.473 4.76338 -0.513738 0
M  V30 2079 H 194.837 2.54086 -0.176712 0
M  V30 2080 H 195.62 2.92053 -1.80443 0
M  V30 2081 N 198.065 0.39524 1.52563 0
M  V30 2082 C 199.481 0.0454682 1.59535 0
M  V30 2083 C 199.681 -1.44056 1.4089 0
M  V30 2084 O 198.737 -2.20579 1.22888 0
M  V30 2085 C 200.05 0.527963 2.96029 0
M  V30 2086 C 201.598 0.484733 3.09224 0
M  V30 2087 C 202.073 0.943512 4.48176 0
M  V30 2088 N 203.564 0.899765 4.54377 0
M  V30 2089 C 204.299 1.22609 5.60138 0
M  V30 2090 N 203.795 1.62319 6.73516 0
M  V30 2091 N 205.588 1.14696 5.50274 0
M  V30 2092 H 197.739 1.36261 1.62931 0
M  V30 2093 H 200.002 0.558887 0.765735 0
M  V30 2094 H 199.708 1.56607 3.14908 0
M  V30 2095 H 199.582 -0.0698056 3.77135 0
M  V30 2096 H 201.969 -0.544298 2.90037 0
M  V30 2097 H 202.05 1.11838 2.30056 0
M  V30 2098 H 201.694 1.9708 4.68104 0
M  V30 2099 H 201.624 0.286817 5.25818 0
M  V30 2100 H 204.115 0.607632 3.72983 0
M  V30 2101 H 204.428 1.85567 7.5019 0
M  V30 2102 H 202.773 1.66211 6.74833 0
M  V30 2103 H 205.964 0.835701 4.6058 0
M  V30 2104 H 206.137 1.40459 6.32594 0
M  V30 2105 N 199.544 -1.57102 0.125237 0
M  V30 2106 C 200.491 -2.15641 -0.822655 0
M  V30 2107 C 201.461 -1.08313 -1.25927 0
M  V30 2108 O 202.646 -1.36251 -1.33567 0
M  V30 2109 C 199.786 -2.76504 -2.06494 0
M  V30 2110 C 198.899 -3.98158 -1.67612 0
M  V30 2111 C 198.034 -4.47088 -2.86854 0
M  V30 2112 C 197.073 -5.6126 -2.44242 0
M  V30 2113 N 196.21 -6.04905 -3.56419 0
M  V30 2114 H 201.05 -2.96313 -0.316625 0
M  V30 2115 H 198.587 -1.46388 -0.144588 0
M  V30 2116 H 200.545 -3.09925 -2.79289 0
M  V30 2117 H 199.175 -1.98512 -2.54545 0
M  V30 2118 H 198.227 -3.70858 -0.846661 0
M  V30 2119 H 199.539 -4.80934 -1.32301 0
M  V30 2120 H 198.693 -4.82451 -3.67867 0
M  V30 2121 H 197.432 -3.63275 -3.25396 0
M  V30 2122 H 196.437 -5.25495 -1.61663 0
M  V30 2123 H 197.662 -6.46843 -2.0681 0
M  V30 2124 H 195.608 -5.24032 -3.94623 0
M  V30 2125 H 195.525 -6.82552 -3.25051 0
M  V30 2126 H 196.793 -6.44907 -4.37853 0
M  V30 2127 N 201.022 0.148545 -1.56898 0
M  V30 2128 C 202.268 0.862694 -1.83536 0
M  V30 2129 C 202.601 1.80889 -0.706604 0
M  V30 2130 O 201.876 1.92328 0.289885 0
M  V30 2131 C 202.159 1.63853 -3.20662 0
M  V30 2132 C 202.012 0.713925 -4.44098 0
M  V30 2133 C 203.331 2.60133 -3.54991 0
M  V30 2134 H 200.45 0.312179 -0.667618 0
M  V30 2135 H 203.092 0.127953 -1.89569 0
M  V30 2136 H 201.242 2.26489 -3.1565 0
M  V30 2137 H 202.914 0.098686 -4.61194 0
M  V30 2138 H 201.157 0.0234019 -4.33794 0
M  V30 2139 H 201.828 1.29278 -5.36648 0
M  V30 2140 H 204.304 2.07616 -3.60603 0
M  V30 2141 H 203.18 3.11468 -4.51972 0
M  V30 2142 H 203.441 3.41417 -2.80868 0
M  V30 2143 N 202.5 1.5196 0.417844 0
M  V30 2144 C 203.747 1.65591 1.16559 0
M  V30 2145 C 204.075 0.381565 1.90721 0
M  V30 2146 O 203.33 -0.635156 1.85106 0
M  V30 2147 C 203.629 2.82269 2.19223 0
M  V30 2148 C 203.295 4.20819 1.61933 0
M  V30 2149 C 201.957 4.58506 1.46033 0
M  V30 2150 C 204.309 5.07196 1.20008 0
M  V30 2151 C 201.637 5.80257 0.867113 0
M  V30 2152 C 203.989 6.29544 0.621086 0
M  V30 2153 C 202.653 6.65987 0.449144 0
M  V30 2154 H 201.923 0.605939 0.42652 0
M  V30 2155 H 204.57 1.86041 0.45397 0
M  V30 2156 H 202.875 2.56118 2.96498 0
M  V30 2157 H 204.572 2.90012 2.76936 0
M  V30 2158 H 201.162 3.91116 1.7529 0
M  V30 2159 H 205.346 4.7867 1.31105 0
M  V30 2160 H 200.602 6.07124 0.721833 0
M  V30 2161 H 204.776 6.95805 0.287798 0
M  V30 2162 H 202.403 7.60199 -0.012632 0
M  V30 2163 N 203.978 -0.674533 1.42435 0
M  V30 2164 C 205.226 -1.43175 1.42637 0
M  V30 2165 C 205.547 -1.94951 0.0438992 0
M  V30 2166 O 204.817 -1.7308 -0.917607 0
M  V30 2167 H 203.397 -0.531307 0.525092 0
M  V30 2168 H 206.059 -0.797006 1.77859 0
M  V30 2169 H 205.155 -2.28463 2.12629 0
M  V30 2170 N 205.456 -1.28612 -0.910864 0
M  V30 2171 C 206.681 -1.1891 -1.69927 0
M  V30 2172 C 207.106 0.248372 -1.86453 0
M  V30 2173 O 206.464 1.17961 -1.37676 0
M  V30 2174 C 206.512 -1.89578 -3.06745 0
M  V30 2175 O 205.616 -1.20521 -3.94396 0
M  V30 2176 H 204.957 -0.412632 -0.520222 0
M  V30 2177 H 207.487 -1.69985 -1.1387 0
M  V30 2178 H 207.497 -1.97597 -3.56958 0
M  V30 2179 H 206.172 -2.94136 -2.94035 0
M  V30 2180 H 204.749 -1.20684 -3.52831 0
M  V30 2181 N 206.934 1.1197 -1.10907 0
M  V30 2182 C 208.182 1.83225 -0.852819 0
M  V30 2183 C 208.503 1.84769 0.623341 0
M  V30 2184 O 207.773 1.3143 1.45269 0
M  V30 2185 H 206.353 0.67849 -0.312507 0
M  V30 2186 H 209.015 1.3556 -1.40033 0
M  V30 2187 H 208.111 2.87265 -1.22005 0
M  V30 2188 N 208.412 0.89855 1.29475 0
M  V30 2189 C 209.64 0.539261 1.99749 0
M  V30 2190 C 210.055 -0.875716 1.67262 0
M  V30 2191 O 209.412 -1.57786 0.917049 0
M  V30 2192 C 209.463 0.72061 3.54245 0
M  V30 2193 O 209.184 2.07989 3.8558 0
M  V30 2194 C 210.685 0.366118 4.41786 0
M  V30 2195 H 207.905 0.207047 0.638258 0
M  V30 2196 H 210.449 1.20758 1.65039 0
M  V30 2197 H 208.604 0.0994862 3.87272 0
M  V30 2198 H 209.018 2.10841 4.80257 0
M  V30 2199 H 210.492 0.543848 5.49314 0
M  V30 2200 H 210.969 -0.696763 4.33638 0
M  V30 2201 H 211.575 0.964135 4.14228 0
M  V30 2202 N 209.89 -1.43072 0.660911 0
M  V30 2203 C 211.136 -2.0202 0.177708 0
M  V30 2204 C 211.469 -1.52066 -1.20787 0
M  V30 2205 O 210.744 -0.716987 -1.80802 0
M  V30 2206 C 211.027 -3.59561 0.197019 0
M  V30 2207 C 210.88 -4.19727 1.61706 0
M  V30 2208 C 212.199 -4.37664 -0.462396 0
M  V30 2209 H 209.318 -0.734034 0.0660494 0
M  V30 2210 H 211.96 -1.70272 0.843058 0
M  V30 2211 H 210.11 -3.86739 -0.369527 0
M  V30 2212 H 211.782 -4.03553 2.23479 0
M  V30 2213 H 210.025 -3.76084 2.16201 0
M  V30 2214 H 210.696 -5.28834 1.58237 0
M  V30 2215 H 213.172 -4.16095 0.0197215 0
M  V30 2216 H 212.048 -5.47305 -0.418188 0
M  V30 2217 H 212.309 -4.14493 -1.53778 0
M  V30 2218 N 211.368 -0.403325 -1.52352 0
M  V30 2219 C 212.298 0.416205 -2.29761 0
M  V30 2220 C 213.279 1.05123 -1.33728 0
M  V30 2221 O 214.464 1.06134 -1.62632 0
M  V30 2222 C 211.594 1.53624 -3.11475 0
M  V30 2223 C 210.548 1.02653 -4.15507 0
M  V30 2224 C 209.874 2.23971 -4.85532 0
M  V30 2225 C 211.174 0.08463 -5.22231 0
M  V30 2226 H 212.868 -0.229701 -2.98518 0
M  V30 2227 H 210.414 -0.111913 -1.43564 0
M  V30 2228 H 212.367 2.1165 -3.64393 0
M  V30 2229 H 211.091 2.20994 -2.40477 0
M  V30 2230 H 209.75 0.46871 -3.63591 0
M  V30 2231 H 209.398 2.89883 -4.11068 0
M  V30 2232 H 209.098 1.90521 -5.55856 0
M  V30 2233 H 210.622 2.82614 -5.41259 0
M  V30 2234 H 212.036 0.573509 -5.70424 0
M  V30 2235 H 210.433 -0.160783 -5.99885 0
M  V30 2236 H 211.503 -0.86237 -4.7717 0
M  V30 2237 N 212.846 1.57033 -0.133567 0
M  V30 2238 C 214.123 1.87256 0.56522 0
M  V30 2239 C 214.503 1.03726 1.83859 0
M  V30 2240 O 213.851 0.120247 2.28183 0
M  V30 2241 C 214.061 3.3865 0.843636 0
M  V30 2242 C 215.409 4.07574 1.19032 0
M  V30 2243 O 216.433 3.43752 0.933429 0
M  V30 2244 O 215.292 5.20259 1.67312 0
M  V30 2245 H 212.386 0.775678 0.286796 0
M  V30 2246 H 214.932 1.68855 -0.169168 0
M  V30 2247 H 213.704 3.91257 -0.0581149 0
M  V30 2248 H 213.327 3.62532 1.63268 0
M  V30 2249 N 214.325 -0.140222 1.56975 0
M  V30 2250 C 215.553 -0.866437 1.87884 0
M  V30 2251 C 215.968 -1.74428 0.722517 0
M  V30 2252 O 215.325 -1.79891 -0.30749 0
M  V30 2253 C 215.376 -1.71753 3.18093 0
M  V30 2254 O 215.097 -0.875056 4.29272 0
M  V30 2255 C 216.598 -2.55074 3.62563 0
M  V30 2256 H 213.818 -0.25019 0.622612 0
M  V30 2257 H 216.362 -0.130977 2.0408 0
M  V30 2258 H 214.517 -2.40598 3.03631 0
M  V30 2259 H 214.931 -1.46002 5.03769 0
M  V30 2260 H 216.405 -3.10356 4.5649 0
M  V30 2261 H 216.882 -3.31434 2.88181 0
M  V30 2262 H 217.488 -1.91509 3.79743 0
M  V30 2263 N 215.803 -1.52179 -0.40978 0
M  V30 2264 C 216.766 -1.74853 -1.48186 0
M  V30 2265 C 217.766 -0.618417 -1.48433 0
M  V30 2266 O 218.956 -0.886286 -1.49969 0
M  V30 2267 C 216.088 -1.8303 -2.87598 0
M  V30 2268 H 217.281 -2.70559 -1.29374 0
M  V30 2269 H 214.834 -1.42586 -0.640233 0
M  V30 2270 H 215.569 -0.89236 -3.11781 0
M  V30 2271 H 215.354 -2.65187 -2.88822 0
M  V30 2272 H 216.844 -2.02316 -3.65319 0
M  V30 2273 N 217.281 0.66697 -1.42791 0
M  V30 2274 C 218.697 0.981027 -1.25889 0
M  V30 2275 C 218.897 2.00793 -0.168695 0
M  V30 2276 O 217.953 2.48321 0.45747 0
M  V30 2277 C 219.266 1.47838 -2.61848 0
M  V30 2278 C 220.814 1.59575 -2.69267 0
M  V30 2279 C 221.289 2.12704 -4.05612 0
M  V30 2280 N 222.78 2.20026 -4.07606 0
M  V30 2281 C 223.515 2.62227 -5.09926 0
M  V30 2282 N 223.011 3.03824 -6.22626 0
M  V30 2283 N 224.804 2.62045 -4.97281 0
M  V30 2284 H 216.955 -0.0127891 -2.12396 0
M  V30 2285 H 219.218 0.0568258 -0.946295 0
M  V30 2286 H 218.924 0.798299 -3.4252 0
M  V30 2287 H 218.798 2.45579 -2.86305 0
M  V30 2288 H 221.185 2.26687 -1.88936 0
M  V30 2289 H 221.266 0.60302 -2.48591 0
M  V30 2290 H 220.91 1.46198 -4.86404 0
M  V30 2291 H 220.84 3.12782 -4.23645 0
M  V30 2292 H 223.331 1.90708 -3.2625 0
M  V30 2293 H 223.644 3.34734 -6.96544 0
M  V30 2294 H 221.989 3.01662 -6.26119 0
M  V30 2295 H 225.18 2.28916 -4.08308 0
M  V30 2296 H 225.353 2.94613 -5.77154 0
M  V30 2297 N 218.759 1.29093 0.90403 0
M  V30 2298 C 219.689 1.16401 2.02418 0
M  V30 2299 C 220.67 0.0593085 1.69997 0
M  V30 2300 O 221.855 0.238021 1.92736 0
M  V30 2301 C 218.985 0.835233 3.37107 0
M  V30 2302 C 217.939 1.89578 3.83724 0
M  V30 2303 C 217.265 1.42041 5.15489 0
M  V30 2304 C 218.565 3.30394 4.04521 0
M  V30 2305 H 220.259 2.10109 2.13295 0
M  V30 2306 H 217.805 1.01157 1.02486 0
M  V30 2307 H 219.758 0.733169 4.14973 0
M  V30 2308 H 218.482 -0.137543 3.2631 0
M  V30 2309 H 217.141 1.98715 3.08071 0
M  V30 2310 H 216.789 0.436426 5.01103 0
M  V30 2311 H 216.489 2.12964 5.4765 0
M  V30 2312 H 218.013 1.33176 5.959 0
M  V30 2313 H 219.427 3.24123 4.72882 0
M  V30 2314 H 217.824 3.99237 4.48029 0
M  V30 2315 H 218.894 3.73692 3.09002 0
M  V30 2316 N 220.237 -1.11381 1.11499 0
M  V30 2317 C 221.653 -1.35143 0.849031 0
M  V30 2318 C 221.853 -1.94515 -0.525938 0
M  V30 2319 O 220.909 -2.1785 -1.27662 0
M  V30 2320 C 222.222 -2.28249 1.95762 0
M  V30 2321 C 223.77 -2.41812 1.98736 0
M  V30 2322 C 224.245 -3.3824 3.088 0
M  V30 2323 N 225.736 -3.45803 3.08179 0
M  V30 2324 C 226.471 -4.20358 3.89982 0
M  V30 2325 N 225.967 -4.97884 4.8175 0
M  V30 2326 N 227.76 -4.15877 3.78157 0
M  V30 2327 H 219.911 -0.712062 2.00109 0
M  V30 2328 H 222.174 -0.376025 0.870235 0
M  V30 2329 H 221.88 -1.91817 2.94787 0
M  V30 2330 H 221.754 -3.28473 1.85433 0
M  V30 2331 H 224.141 -2.77518 1.00338 0
M  V30 2332 H 224.222 -1.41437 2.13141 0
M  V30 2333 H 223.866 -3.03261 4.07425 0
M  V30 2334 H 223.796 -4.38471 2.91635 0
M  V30 2335 H 226.287 -2.90506 2.41691 0
M  V30 2336 H 226.6 -5.52142 5.40702 0
M  V30 2337 H 224.945 -4.97043 4.85771 0
M  V30 2338 H 228.136 -3.544 3.05808 0
M  V30 2339 H 228.309 -4.73723 4.42143 0
M  V30 2340 N 221.715 -0.905404 -1.28997 0
M  V30 2341 C 222.943 -0.549846 -1.9946 0
M  V30 2342 C 223.358 0.866834 -1.67724 0
M  V30 2343 O 222.715 1.57298 -0.925404 0
M  V30 2344 C 222.766 -0.739387 -3.53858 0
M  V30 2345 O 222.487 -2.10031 -3.84472 0
M  V30 2346 C 223.988 -0.389541 -4.41585 0
M  V30 2347 H 221.208 -0.210429 -0.637151 0
M  V30 2348 H 223.752 -1.21632 -1.64396 0
M  V30 2349 H 221.907 -0.120023 -3.87214 0
M  V30 2350 H 222.321 -2.13385 -4.79132 0
M  V30 2351 H 223.795 -0.572972 -5.49018 0
M  V30 2352 H 224.272 0.673756 -4.34001 0
M  V30 2353 H 224.878 -0.986089 -4.1371 0
M  V30 2354 N 223.193 1.4272 -0.668489 0
M  V30 2355 C 224.123 2.335 -0.000100175 0
M  V30 2356 C 225.104 1.50328 0.795964 0
M  V30 2357 O 226.289 1.78949 0.754385 0
M  V30 2358 C 223.419 3.33874 0.956302 0
M  V30 2359 C 222.373 4.27152 0.269278 0
M  V30 2360 C 221.699 5.17684 1.33818 0
M  V30 2361 C 222.999 5.15373 -0.847805 0
M  V30 2362 H 224.693 2.89639 -0.758244 0
M  V30 2363 H 222.239 1.39269 -0.366079 0
M  V30 2364 H 224.192 3.9629 1.43292 0
M  V30 2365 H 222.916 2.76025 1.74579 0
M  V30 2366 H 221.575 3.66123 -0.187042 0
M  V30 2367 H 221.223 4.56165 2.1195 0
M  V30 2368 H 220.923 5.80918 0.883659 0
M  V30 2369 H 222.447 5.82974 1.81586 0
M  V30 2370 H 223.861 5.7151 -0.452681 0
M  V30 2371 H 222.258 5.87407 -1.22773 0
M  V30 2372 H 223.328 4.5415 -1.69929 0
M  V30 2373 N 224.671 0.411399 1.52136 0
M  V30 2374 C 225.92 -0.165009 2.01024 0
M  V30 2375 C 226.233 -1.4603 1.30133 0
M  V30 2376 O 227.439 -2.1181 1.69849 0
M  V30 2377 C 225.895 -0.344618 3.58246 0
M  V30 2378 C 225.503 0.938716 4.38055 0
M  V30 2379 C 227.247 -0.876195 4.15359 0
M  V30 2380 C 225.154 0.726172 5.86925 0
M  V30 2381 H 224.084 -0.0654407 0.751155 0
M  V30 2382 H 226.735 0.537192 1.75461 0
M  V30 2383 H 225.117 -1.10921 3.80148 0
M  V30 2384 H 226.291 1.70963 4.27912 0
M  V30 2385 H 224.606 1.39688 3.92271 0
M  V30 2386 H 227.203 -1.05128 5.24263 0
M  V30 2387 H 227.546 -1.85152 3.7286 0
M  V30 2388 H 228.079 -0.170607 3.97434 0
M  V30 2389 H 224.818 1.67312 6.33788 0
M  V30 2390 H 224.338 -0.00540283 5.998 0
M  V30 2391 H 226.017 0.369231 6.45946 0
M  V30 2392 N 226.149 -1.5696 0.141893 0
M  V30 2393 C 227.112 -2.15316 -0.785587 0
M  V30 2394 C 228.112 -1.09366 -1.1788 0
M  V30 2395 O 229.302 -1.35031 -1.10056 0
M  V30 2396 C 226.434 -2.71211 -2.06537 0
M  V30 2397 H 227.627 -2.98608 -0.278041 0
M  V30 2398 H 225.18 -1.5593 -0.107519 0
M  V30 2399 H 225.915 -1.91571 -2.6167 0
M  V30 2400 H 225.7 -3.4872 -1.79268 0
M  V30 2401 H 227.19 -3.16189 -2.72789 0
M  V30 2402 N 227.627 0.131896 -1.57047 0
M  V30 2403 C 228.559 1.1878 -1.9602 0
M  V30 2404 C 229.572 1.38363 -0.857875 0
M  V30 2405 O 230.761 1.37666 -1.13623 0
M  V30 2406 C 227.861 2.55008 -2.23213 0
M  V30 2407 C 227.034 2.56201 -3.54513 0
M  V30 2408 C 226.093 3.7408 -3.70069 0
M  V30 2409 O 225.119 3.58258 -4.42312 0
M  V30 2410 N 226.321 4.92137 -3.07866 0
M  V30 2411 H 229.086 0.85639 -2.87204 0
M  V30 2412 H 226.647 0.321309 -1.5868 0
M  V30 2413 H 228.639 3.32404 -2.30846 0
M  V30 2414 H 227.209 2.80382 -1.3822 0
M  V30 2415 H 226.429 1.64613 -3.58185 0
M  V30 2416 H 227.717 2.54043 -4.4084 0
M  V30 2417 H 227.115 5.07895 -2.49116 0
M  V30 2418 H 225.672 5.67254 -3.21039 0
M  V30 2419 N 229.106 1.52395 0.401703 0
M  V30 2420 C 230.056 1.72649 1.48917 0
M  V30 2421 C 231.04 0.580436 1.50066 0
M  V30 2422 O 232.232 0.83779 1.55917 0
M  V30 2423 C 229.361 1.88729 2.86769 0
M  V30 2424 C 228.447 3.09228 2.90239 0
M  V30 2425 N 228.838 4.31805 2.63396 0
M  V30 2426 C 227.136 3.09214 3.21408 0
M  V30 2427 C 227.837 5.13326 2.73625 0
M  V30 2428 N 226.813 4.48735 3.06819 0
M  V30 2429 H 230.615 2.65058 1.26971 0
M  V30 2430 H 228.129 1.50528 0.609504 0
M  V30 2431 H 230.126 2.01358 3.65049 0
M  V30 2432 H 228.786 0.975252 3.09708 0
M  V30 2433 H 229.797 4.60154 2.37653 0
M  V30 2434 H 226.474 2.27774 3.49893 0
M  V30 2435 H 227.864 6.21003 2.56524 0
M  V30 2436 N 230.584 -0.659388 1.43143 0
M  V30 2437 C 231.824 -1.43121 1.45931 0
M  V30 2438 C 232.188 -1.91838 0.0789298 0
M  V30 2439 O 233.389 -2.68794 -0.018491 0
M  V30 2440 C 231.66 -2.58534 2.46769 0
M  V30 2441 S 233.219 -3.47154 2.68384 0
M  V30 2442 H 230.037 -0.488624 0.516496 0
M  V30 2443 H 232.639 -0.766128 1.79863 0
M  V30 2444 H 231.343 -2.21007 3.45809 0
M  V30 2445 H 230.874 -3.29898 2.14315 0
M  V30 2446 H 232.889 -4.55051 1.97845 0
M  V30 2447 N 232.062 -1.29571 -0.897171 0
M  V30 2448 C 233.31 -1.17456 -1.64464 0
M  V30 2449 C 233.631 0.273698 -1.9307 0
M  V30 2450 O 232.901 1.18684 -1.55855 0
M  V30 2451 H 231.481 -0.431706 -0.609622 0
M  V30 2452 H 234.143 -1.62531 -1.07562 0
M  V30 2453 H 233.239 -1.72648 -2.59998 0
M  V30 2454 N 233.54 1.10788 -1.12088 0
M  V30 2455 C 234.787 1.82671 -0.873931 0
M  V30 2456 C 235.115 1.85004 0.600311 0
M  V30 2457 O 234.37 1.30365 1.45957 0
M  V30 2458 C 234.669 3.29294 -1.38926 0
M  V30 2459 C 234.335 3.47113 -2.87791 0
M  V30 2460 C 232.997 3.51684 -3.28439 0
M  V30 2461 C 235.349 3.52808 -3.83635 0
M  V30 2462 C 232.677 3.59513 -4.63646 0
M  V30 2463 C 235.029 3.62169 -5.18668 0
M  V30 2464 C 233.693 3.65003 -5.58864 0
M  V30 2465 H 232.963 0.668441 -0.319794 0
M  V30 2466 H 235.61 1.30613 -1.40045 0
M  V30 2467 H 233.915 3.83894 -0.783122 0
M  V30 2468 H 235.612 3.83416 -1.17443 0
M  V30 2469 H 232.202 3.4423 -2.5535 0
M  V30 2470 H 236.386 3.4853 -3.53328 0
M  V30 2471 H 231.642 3.59987 -4.94185 0
M  V30 2472 H 235.816 3.6552 -5.92763 0
M  V30 2473 H 233.443 3.70822 -6.63623 0
M  V30 2474 N 235.018 0.912232 1.28515 0
M  V30 2475 C 236.243 0.559774 1.99703 0
M  V30 2476 C 236.668 -0.851393 1.67729 0
M  V30 2477 O 236.026 -1.56875 0.908834 0
M  V30 2478 C 236.074 0.773874 3.52198 0
M  V30 2479 O 235.178 -0.167842 4.12058 0
M  V30 2480 H 234.519 0.21723 0.627461 0
M  V30 2481 H 237.049 1.22725 1.63706 0
M  V30 2482 H 237.059 0.683386 4.02236 0
M  V30 2483 H 235.734 1.80261 3.74805 0
M  V30 2484 H 234.311 -0.0287509 3.72889 0
M  V30 2485 N 236.496 -1.42363 0.676048 0
M  V30 2486 C 237.907 -1.84649 0.275948 0
M  V30 2487 C 238.258 -1.56588 -1.18214 0
M  V30 2488 O 237.383 -1.02634 -1.90513 0
M  V30 2489 C 237.978 -3.35178 0.494053 0
M  V30 2490 C 236.537 -3.76109 0.148061 0
M  V30 2491 C 235.684 -2.65931 0.785891 0
M  V30 2492 H 238.635 -1.32192 0.878121 0
M  V30 2493 H 238.656 -3.79655 -0.25343 0
M  V30 2494 H 238.168 -3.55571 1.55535 0
M  V30 2495 H 236.269 -3.61323 -0.909742 0
M  V30 2496 H 236.382 -4.7546 0.589454 0
M  V30 2497 H 234.746 -2.53773 0.217113 0
M  V30 2498 H 235.529 -2.89146 1.85067 0
M  V30 2499 N 237.974 -0.419461 -1.51915 0
M  V30 2500 C 239.39 -0.0708431 -1.59443 0
M  V30 2501 C 239.59 1.41796 -1.43164 0
M  V30 2502 O 238.646 2.18596 -1.26381 0
M  V30 2503 C 239.959 -0.574991 -2.95151 0
M  V30 2504 C 241.507 -0.533867 -3.08413 0
M  V30 2505 C 241.982 -1.01469 -4.46618 0
M  V30 2506 N 243.473 -0.971939 -4.52888 0
M  V30 2507 C 244.208 -1.31505 -5.58116 0
M  V30 2508 N 243.704 -1.73014 -6.70849 0
M  V30 2509 N 245.497 -1.23436 -5.48379 0
M  V30 2510 H 237.648 -1.38836 -1.60743 0
M  V30 2511 H 239.911 -0.570998 -0.756747 0
M  V30 2512 H 239.617 -1.61597 -3.12377 0
M  V30 2513 H 239.491 0.00979777 -3.77199 0
M  V30 2514 H 241.878 0.498086 -2.90866 0
M  V30 2515 H 241.959 -1.15484 -2.28248 0
M  V30 2516 H 241.603 -2.04502 -4.6491 0
M  V30 2517 H 241.533 -0.370433 -5.25295 0
M  V30 2518 H 244.024 -0.666893 -3.71969 0
M  V30 2519 H 244.337 -1.97479 -7.47143 0
M  V30 2520 H 242.682 -1.76926 -6.72103 0
M  V30 2521 H 245.873 -0.908869 -4.59192 0
M  V30 2522 H 246.046 -1.50506 -6.30279 0
M  V30 2523 N 239.452 1.56882 -0.150215 0
M  V30 2524 C 240.677 2.01027 0.510184 0
M  V30 2525 C 241.102 1.02966 1.57415 0
M  V30 2526 O 240.46 0.00590158 1.81299 0
M  V30 2527 C 240.508 3.43899 1.08472 0
M  V30 2528 O 239.612 3.4885 2.19948 0
M  V30 2529 H 238.953 0.652233 0.124451 0
M  V30 2530 H 241.483 2.03093 -0.247894 0
M  V30 2531 H 241.493 3.82766 1.41259 0
M  V30 2532 H 240.168 4.14776 0.305582 0
M  V30 2533 H 238.745 3.21827 1.88366 0
M  V30 2534 N 240.93 -0.123565 1.57115 0
M  V30 2535 C 242.176 -0.833386 1.84885 0
M  V30 2536 C 242.509 -1.79742 0.735292 0
M  V30 2537 O 241.784 -1.92764 -0.25925 0
M  V30 2538 C 242.067 -1.5873 3.23228 0
M  V30 2539 C 241.92 -0.643183 4.45178 0
M  V30 2540 C 243.239 -2.54453 3.59085 0
M  V30 2541 H 240.358 -0.301518 0.6725 0
M  V30 2542 H 243 -0.097778 1.89748 0
M  V30 2543 H 241.15 -2.21438 3.19214 0
M  V30 2544 H 242.822 -0.0253015 4.61293 0
M  V30 2545 H 241.065 0.0456139 4.33776 0
M  V30 2546 H 241.736 -1.20724 5.38637 0
M  V30 2547 H 244.212 -2.01853 3.63861 0
M  V30 2548 H 243.088 -3.04238 4.5687 0
M  V30 2549 H 243.349 -3.36906 2.86264 0
M  V30 2550 N 242.408 -1.52605 -0.393616 0
M  V30 2551 C 243.358 -1.73436 -1.48 0
M  V30 2552 C 244.342 -0.588386 -1.49756 0
M  V30 2553 O 245.534 -0.846047 -1.5547 0
M  V30 2554 C 242.663 -1.90247 -2.85764 0
M  V30 2555 C 241.749 -3.10763 -2.88595 0
M  V30 2556 N 242.14 -4.33196 -2.61103 0
M  V30 2557 C 240.438 -3.10914 -3.19763 0
M  V30 2558 C 241.139 -5.1477 -2.70899 0
M  V30 2559 N 240.115 -4.50356 -3.04435 0
M  V30 2560 H 243.917 -2.65727 -1.25563 0
M  V30 2561 H 241.431 -1.5085 -0.601513 0
M  V30 2562 H 243.428 -2.03291 -3.63976 0
M  V30 2563 H 242.088 -0.991663 -3.09186 0
M  V30 2564 H 243.099 -4.61408 -2.35209 0
M  V30 2565 H 239.776 -2.29626 -3.4868 0
M  V30 2566 H 241.166 -6.22355 -2.53227 0
M  V30 2567 N 243.887 0.651787 -1.4349 0
M  V30 2568 C 245.133 1.41376 -1.45398 0
M  V30 2569 C 245.466 1.94041 -0.0784823 0
M  V30 2570 O 244.741 1.72379 0.900878 0
M  V30 2571 C 245.024 2.59414 -2.49752 0
M  V30 2572 C 244.877 2.12232 -3.96582 0
M  V30 2573 C 246.196 3.61626 -2.50827 0
M  V30 2574 H 243.315 0.512719 -0.529422 0
M  V30 2575 H 245.957 0.738796 -1.75048 0
M  V30 2576 H 244.107 3.16997 -2.246 0
M  V30 2577 H 245.779 1.59639 -4.32797 0
M  V30 2578 H 244.022 1.43592 -4.09346 0
M  V30 2579 H 244.693 2.9712 -4.65214 0
M  V30 2580 H 247.169 3.13805 -2.7325 0
M  V30 2581 H 246.045 4.41766 -3.25783 0
M  V30 2582 H 246.306 4.14314 -1.5426 0
M  V30 2583 N 245.365 1.30045 0.890287 0
M  V30 2584 C 246.595 1.21296 1.67245 0
M  V30 2585 C 247.003 -0.227471 1.87828 0
M  V30 2586 O 246.346 -1.16296 1.422 0
M  V30 2587 C 246.408 1.86519 3.07329 0
M  V30 2588 C 246.072 3.35837 3.09939 0
M  V30 2589 C 247.069 4.31915 2.89389 0
M  V30 2590 C 244.754 3.77196 3.31706 0
M  V30 2591 C 246.748 5.67325 2.90552 0
M  V30 2592 C 244.435 5.12725 3.32499 0
M  V30 2593 C 245.433 6.076 3.11947 0
M  V30 2594 O 245.121 7.40655 3.12547 0
M  V30 2595 H 244.853 0.4211 0.528821 0
M  V30 2596 H 247.407 1.72111 1.12103 0
M  V30 2597 H 245.637 1.30228 3.64112 0
M  V30 2598 H 247.326 1.71963 3.67673 0
M  V30 2599 H 248.092 4.01294 2.72375 0
M  V30 2600 H 243.971 3.03796 3.4674 0
M  V30 2601 H 247.515 6.41354 2.74429 0
M  V30 2602 H 243.412 5.42988 3.49047 0
M  V30 2603 H 244.18 7.49577 3.28749 0
M  V30 2604 N 246.843 -1.10192 1.12674 0
M  V30 2605 C 248.089 -1.82475 0.884915 0
M  V30 2606 C 248.422 -1.85093 -0.58773 0
M  V30 2607 O 247.697 -1.3134 -1.43457 0
M  V30 2608 C 247.98 -3.29018 1.46353 0
M  V30 2609 C 247.833 -3.34718 3.00473 0
M  V30 2610 C 249.152 -4.25473 1.12519 0
M  V30 2611 H 246.271 -0.662492 0.322915 0
M  V30 2612 H 248.913 -1.2913 1.39375 0
M  V30 2613 H 247.063 -3.74576 1.03077 0
M  V30 2614 H 248.735 -2.97622 3.52447 0
M  V30 2615 H 246.978 -2.74541 3.35872 0
M  V30 2616 H 247.649 -4.37918 3.36053 0
M  V30 2617 H 250.125 -3.88161 1.499 0
M  V30 2618 H 249.001 -5.26365 1.55663 0
M  V30 2619 H 249.262 -4.42084 0.0377407 0
M  V30 2620 N 248.321 -0.919034 -1.28029 0
M  V30 2621 C 249.57 -0.550802 -1.94034 0
M  V30 2622 C 249.883 0.910877 -1.73096 0
M  V30 2623 O 251.089 1.3875 -2.33368 0
M  V30 2624 C 249.545 -0.934249 -3.47563 0
M  V30 2625 C 249.153 -2.41602 -3.7727 0
M  V30 2626 C 250.897 -0.636854 -4.19696 0
M  V30 2627 C 248.804 -2.73932 -5.24133 0
M  V30 2628 H 247.734 -0.202273 -0.726362 0
M  V30 2629 H 250.385 -1.11867 -1.45458 0
M  V30 2630 H 248.767 -0.295115 -3.94899 0
M  V30 2631 H 249.941 -3.10233 -3.40723 0
M  V30 2632 H 248.256 -2.68441 -3.18321 0
M  V30 2633 H 250.853 -0.855005 -5.2782 0
M  V30 2634 H 251.196 0.425575 -4.14119 0
M  V30 2635 H 251.729 -1.23469 -3.78154 0
M  V30 2636 H 248.468 -3.79049 -5.34792 0
M  V30 2637 H 247.988 -2.09942 -5.61858 0
M  V30 2638 H 249.667 -2.61215 -5.91925 0
M  V30 2639 N 249.799 1.42003 -0.683588 0
M  V30 2640 C 251.047 2.01015 -0.209101 0
M  V30 2641 C 251.368 1.54365 1.19149 0
M  V30 2642 O 250.638 0.769083 1.80172 0
M  V30 2643 H 249.218 0.743294 -0.074315 0
M  V30 2644 H 251.88 1.73798 -0.882066 0
M  V30 2645 H 250.976 3.11343 -0.2172 0
M  V30 2646 N 251.277 0.427512 1.51691 0
M  V30 2647 C 252.187 -0.39527 2.31246 0
M  V30 2648 C 253.203 -1.03674 1.39742 0
M  V30 2649 O 254.379 -1.03425 1.72816 0
M  V30 2650 C 251.444 -1.48706 3.13189 0
M  V30 2651 C 250.505 -0.866743 4.20459 0
M  V30 2652 C 249.738 -1.90651 4.98486 0
M  V30 2653 O 249.961 -3.12733 4.77026 0
M  V30 2654 O 248.895 -1.5025 5.82845 0
M  V30 2655 H 252.721 0.253918 3.02637 0
M  V30 2656 H 250.306 0.190274 1.48183 0
M  V30 2657 H 252.188 -2.12047 3.64162 0
M  V30 2658 H 250.863 -2.12051 2.44573 0
M  V30 2659 H 249.77 -0.195544 3.73589 0
M  V30 2660 H 251.103 -0.276934 4.9142 0
M  V30 2661 N 252.755 -1.56801 0.158532 0
M  V30 2662 C 253.705 -2.13923 -0.788738 0
M  V30 2663 C 254.689 -1.07006 -1.2016 0
M  V30 2664 O 255.881 -1.33159 -1.1661 0
M  V30 2665 C 253.01 -2.77348 -2.02319 0
M  V30 2666 C 252.096 -3.91404 -1.6329 0
M  V30 2667 N 252.487 -4.9677 -0.951463 0
M  V30 2668 C 250.785 -4.02326 -1.92482 0
M  V30 2669 C 251.486 -5.76698 -0.761221 0
M  V30 2670 N 250.462 -5.27859 -1.29869 0
M  V30 2671 H 254.264 -2.92757 -0.258995 0
M  V30 2672 H 251.778 -1.62344 -0.0426055 0
M  V30 2673 H 253.775 -3.16639 -2.71192 0
M  V30 2674 H 252.435 -1.99991 -2.558 0
M  V30 2675 H 253.446 -5.14284 -0.610928 0
M  V30 2676 H 250.123 -3.36059 -2.47732 0
M  V30 2677 H 251.513 -6.71529 -0.223284 0
M  V30 2678 N 254.233 0.115231 -1.57178 0
M  V30 2679 C 255.481 0.820727 -1.84685 0
M  V30 2680 C 255.802 1.80237 -0.744279 0
M  V30 2681 O 255.072 1.94529 0.231375 0
M  V30 2682 H 253.652 0.306084 -0.681411 0
M  V30 2683 H 256.314 0.101656 -1.94635 0
M  V30 2684 H 255.41 1.36366 -2.80733 0
M  V30 2685 N 255.711 1.52812 0.385517 0
M  V30 2686 C 256.988 1.5861 1.14465 0
M  V30 2687 C 257.368 0.381402 2.07626 0
M  V30 2688 O 256.716 -0.629999 2.19643 0
M  V30 2689 C 256.926 2.92664 1.90128 0
M  V30 2690 C 258.274 3.46526 2.45367 0
M  V30 2691 O 259.298 2.94562 2.0028 0
M  V30 2692 O 258.157 4.37323 3.27736 0
M  V30 2693 H 255.251 0.639855 0.523941 0
M  V30 2694 H 257.797 1.65149 0.390389 0
M  V30 2695 H 256.569 3.71788 1.22022 0
M  V30 2696 H 256.192 2.89527 2.72507 0
M  V30 2697 N 257.189 -0.644168 1.43834 0
M  V30 2698 C 258.414 -1.43642 1.49605 0
M  V30 2699 C 258.839 -1.8773 0.117913 0
M  V30 2700 O 258.197 -1.57938 -0.890239 0
M  V30 2701 C 258.245 -2.6416 2.45463 0
M  V30 2702 O 257.349 -3.63538 1.94714 0
M  V30 2703 H 256.69 -0.430329 0.50568 0
M  V30 2704 H 259.22 -0.787448 1.8884 0
M  V30 2705 H 259.23 -3.11864 2.63068 0
M  V30 2706 H 257.905 -2.31414 3.45572 0
M  V30 2707 H 256.482 -3.2273 1.86814 0
M  V30 2708 N 258.668 -1.30515 -0.883378 0
M  V30 2709 C 259.578 -1.18959 -2.02203 0
M  V30 2710 C 260.594 -0.109172 -1.73657 0
M  V30 2711 O 261.77 -0.324413 -1.9877 0
M  V30 2712 C 258.835 -0.883871 -3.35244 0
M  V30 2713 C 257.896 -2.04982 -3.77201 0
M  V30 2714 C 257.129 -1.75859 -5.03894 0
M  V30 2715 O 257.352 -0.687276 -5.66244 0
M  V30 2716 O 256.286 -2.61146 -5.42297 0
M  V30 2717 H 260.112 -2.14616 -2.1488 0
M  V30 2718 H 257.697 -1.10124 -1.0096 0
M  V30 2719 H 259.579 -0.728644 -4.15053 0
M  V30 2720 H 258.254 0.0427798 -3.23672 0
M  V30 2721 H 257.161 -2.26038 -2.9809 0
M  V30 2722 H 258.494 -2.95825 -3.93381 0
M  V30 2723 N 260.146 1.09593 -1.13257 0
M  V30 2724 C 261.392 1.82003 -0.89458 0
M  V30 2725 C 261.725 1.85402 0.577906 0
M  V30 2726 O 261 1.32099 1.42759 0
M  V30 2727 C 261.283 3.28237 -1.48096 0
M  V30 2728 C 261.136 3.3312 -3.02244 0
M  V30 2729 C 262.455 4.24871 -1.14774 0
M  V30 2730 H 259.574 0.66077 -0.326424 0
M  V30 2731 H 262.216 1.28389 -1.40058 0
M  V30 2732 H 260.366 3.74024 -1.05062 0
M  V30 2733 H 262.038 2.95748 -3.54021 0
M  V30 2734 H 260.281 2.72756 -3.37323 0
M  V30 2735 H 260.952 4.3613 -3.38371 0
M  V30 2736 H 263.428 3.87361 -1.51957 0
M  V30 2737 H 262.304 5.25532 -1.58452 0
M  V30 2738 H 262.565 4.42058 -0.0611849 0
M  V30 2739 N 261.624 0.925811 1.2754 0
M  V30 2740 C 263.035 0.610102 1.7645 0
M  V30 2741 C 263.386 -0.874723 1.75622 0
M  V30 2742 O 262.511 -1.68444 1.35851 0
M  V30 2743 C 263.106 1.10073 3.20421 0
M  V30 2744 C 261.665 0.835723 3.67005 0
M  V30 2745 C 260.812 1.26054 2.46993 0
M  V30 2746 H 263.763 1.10579 1.13833 0
M  V30 2747 H 263.784 0.447557 3.77859 0
M  V30 2748 H 263.296 2.18143 3.20991 0
M  V30 2749 H 261.397 -0.231249 3.71882 0
M  V30 2750 H 261.51 1.45193 4.56569 0
M  V30 2751 H 259.874 0.679111 2.45479 0
M  V30 2752 H 260.657 2.34984 2.50275 0
M  V30 2753 N 263.102 -1.41638 0.69111 0
M  V30 2754 C 264.348 -2.01598 0.220519 0
M  V30 2755 C 264.681 -1.54594 -1.17535 0
M  V30 2756 O 263.956 -0.755177 -1.79241 0
M  V30 2757 C 264.239 -3.59062 0.273243 0
M  V30 2758 C 264.092 -4.16203 1.70573 0
M  V30 2759 C 265.411 -4.38546 -0.369457 0
M  V30 2760 H 262.53 -0.732468 0.0816045 0
M  V30 2761 H 265.172 -1.68445 0.878986 0
M  V30 2762 H 263.322 -3.87435 -0.287411 0
M  V30 2763 H 264.994 -3.98722 2.31989 0
M  V30 2764 H 263.237 -3.71414 2.2413 0
M  V30 2765 H 263.908 -5.25358 1.69419 0
M  V30 2766 H 266.384 -4.1596 0.107977 0
M  V30 2767 H 265.26 -5.48069 -0.302002 0
M  V30 2768 H 265.521 -4.17662 -1.44951 0
M  V30 2769 N 264.58 -0.43555 -1.51462 0
M  V30 2770 C 265.826 0.123979 -2.03022 0
M  V30 2771 C 266.181 1.4054 -1.31401 0
M  V30 2772 O 265.474 1.86948 -0.419634 0
M  V30 2773 C 265.668 0.39942 -3.55161 0
M  V30 2774 C 265.497 -0.853754 -4.41521 0
M  V30 2775 C 264.267 -1.38675 -4.85898 0
M  V30 2776 C 266.465 -1.73939 -4.83994 0
M  V30 2777 N 264.447 -2.59265 -5.56466 0
M  V30 2778 C 265.818 -2.79135 -5.5361 0
M  V30 2779 C 267.873 -1.75402 -4.65981 0
M  V30 2780 C 266.576 -3.85737 -6.07124 0
M  V30 2781 C 268.602 -2.80938 -5.20411 0
M  V30 2782 C 267.964 -3.84854 -5.89972 0
M  V30 2783 H 264.063 0.00624887 -0.781975 0
M  V30 2784 H 266.647 -0.59582 -1.85359 0
M  V30 2785 H 264.818 1.08825 -3.72843 0
M  V30 2786 H 266.55 0.95015 -3.93388 0
M  V30 2787 H 263.305 -0.94094 -4.64159 0
M  V30 2788 H 263.729 -3.2041 -5.96378 0
M  V30 2789 H 268.371 -0.963926 -4.11665 0
M  V30 2790 H 266.089 -4.65586 -6.60496 0
M  V30 2791 H 269.675 -2.8301 -5.08327 0
M  V30 2792 H 268.555 -4.65176 -6.31333 0
M  V30 2793 N 266.058 1.56714 -0.166846 0
M  V30 2794 C 267.283 2.01557 0.488833 0
M  V30 2795 C 267.708 1.0463 1.56314 0
M  V30 2796 O 267.066 0.0251304 1.81283 0
M  V30 2797 C 267.114 3.4503 1.04818 0
M  V30 2798 O 266.218 3.51163 2.16236 0
M  V30 2799 H 265.559 0.653516 0.117526 0
M  V30 2800 H 268.089 2.02818 -0.269421 0
M  V30 2801 H 268.099 3.84243 1.37191 0
M  V30 2802 H 266.774 4.15077 0.261572 0
M  V30 2803 H 265.351 3.23807 1.84942 0
M  V30 2804 N 267.536 -0.106894 1.57237 0
M  V30 2805 C 268.784 -0.810921 1.85117 0
M  V30 2806 C 269.105 -1.7984 0.753827 0
M  V30 2807 O 268.375 -1.94649 -0.221056 0
M  V30 2808 H 266.955 -0.302466 0.683025 0
M  V30 2809 H 269.617 -0.0913324 1.94686 0
M  V30 2810 H 268.713 -1.34875 2.81452 0
M  V30 2811 N 269.014 -1.53014 -0.377408 0
M  V30 2812 C 269.977 -1.77957 -1.44444 0
M  V30 2813 C 270.977 -0.649763 -1.47087 0
M  V30 2814 O 272.167 -0.917897 -1.48055 0
M  V30 2815 C 269.299 -1.89089 -2.83651 0
M  V30 2816 H 270.492 -2.73243 -1.23606 0
M  V30 2817 H 268.045 -1.43912 -0.609844 0
M  V30 2818 H 268.78 -0.958293 -3.09818 0
M  V30 2819 H 268.565 -2.71254 -2.83132 0
M  V30 2820 H 270.055 -2.1002 -3.60945 0
M  V30 2821 N 270.492 0.636531 -1.44174 0
M  V30 2822 C 271.425 1.76139 -1.45087 0
M  V30 2823 C 272.403 1.59611 -0.310326 0
M  V30 2824 O 273.587 1.81568 -0.506477 0
M  V30 2825 C 270.714 3.13648 -1.27839 0
M  V30 2826 C 269.76 3.48838 -2.45386 0
M  V30 2827 S 270.593 3.46927 -4.07924 0
M  V30 2828 C 271.749 4.87064 -3.9309 0
M  V30 2829 H 271.982 1.75096 -2.40268 0
M  V30 2830 H 269.515 0.810666 -1.31406 0
M  V30 2831 H 271.473 3.93002 -1.18575 0
M  V30 2832 H 270.134 3.12235 -0.341787 0
M  V30 2833 H 269.327 4.48886 -2.29167 0
M  V30 2834 H 268.929 2.76935 -2.51362 0
M  V30 2835 H 271.221 5.76153 -3.56446 0
M  V30 2836 H 272.164 5.08337 -4.92949 0
M  V30 2837 H 272.572 4.61384 -3.25246 0
M  V30 2838 N 271.97 1.30982 0.876444 0
M  V30 2839 C 273.219 1.19658 1.62373 0
M  V30 2840 C 273.532 -0.245636 1.94052 0
M  V30 2841 O 274.738 -0.48049 2.67214 0
M  V30 2842 C 273.194 2.09433 2.92687 0
M  V30 2843 C 272.802 3.58613 2.68516 0
M  V30 2844 C 274.546 2.06893 3.70669 0
M  V30 2845 C 272.453 4.40416 3.94699 0
M  V30 2846 H 271.383 0.444268 0.609214 0
M  V30 2847 H 274.034 1.55791 0.969605 0
M  V30 2848 H 272.416 1.66191 3.59439 0
M  V30 2849 H 273.59 4.10058 2.10212 0
M  V30 2850 H 271.905 3.63063 2.03898 0
M  V30 2851 H 274.502 2.65258 4.64265 0
M  V30 2852 H 274.845 1.05448 4.02724 0
M  V30 2853 H 275.378 2.48301 3.10792 0
M  V30 2854 H 272.117 5.42591 3.67798 0
M  V30 2855 H 271.637 3.93731 4.52477 0
M  V30 2856 H 273.316 4.52294 4.62644 0
M  V30 2857 N 273.449 -1.08991 1.13837 0
M  V30 2858 C 274.697 -1.80899 0.901098 0
M  V30 2859 C 275.018 -1.86356 -0.574134 0
M  V30 2860 O 274.288 -1.35235 -1.41733 0
M  V30 2861 H 272.868 -0.669966 0.330386 0
M  V30 2862 H 275.53 -1.318 1.43578 0
M  V30 2863 H 274.626 -2.83929 1.29578 0
M  V30 2864 N 274.927 -0.932562 -1.27047 0
M  V30 2865 C 276.175 -0.574422 -1.93765 0
M  V30 2866 C 276.496 0.887993 -1.73608 0
M  V30 2867 O 275.766 1.62999 -1.08665 0
M  V30 2868 H 274.346 -0.209451 -0.717035 0
M  V30 2869 H 277.008 -1.18601 -1.5466 0
M  V30 2870 H 276.104 -0.784841 -3.02071 0
M  V30 2871 N 276.405 1.4127 -0.698611 0
M  V30 2872 C 277.654 2.00408 -0.227949 0
M  V30 2873 C 277.967 1.55981 1.18023 0
M  V30 2874 O 279.173 2.07699 1.74852 0
M  V30 2875 C 277.629 3.58129 -0.356636 0
M  V30 2876 C 277.237 4.11536 -1.77037 0
M  V30 2877 C 278.981 4.24466 0.0540969 0
M  V30 2878 C 276.888 5.61701 -1.85055 0
M  V30 2879 H 275.818 0.749586 -0.0814657 0
M  V30 2880 H 278.469 1.61713 -0.867249 0
M  V30 2881 H 276.851 3.94442 0.350965 0
M  V30 2882 H 278.025 3.86636 -2.50698 0
M  V30 2883 H 276.34 3.57736 -2.13105 0
M  V30 2884 H 278.937 5.34698 0.0146723 0
M  V30 2885 H 279.28 4.01687 1.09332 0
M  V30 2886 H 279.813 3.93198 -0.603337 0
M  V30 2887 H 276.552 5.89312 -2.8704 0
M  V30 2888 H 276.072 5.88519 -1.15783 0
M  V30 2889 H 277.751 6.26524 -1.61484 0
M  V30 2890 N 277.883 0.443576 1.51229 0
M  V30 2891 C 279.294 -0.0180867 1.86691 0
M  V30 2892 C 279.645 -1.41384 1.36033 0
M  V30 2893 O 278.77 -2.04291 0.713722 0
M  V30 2894 C 279.365 -0.039597 3.38777 0
M  V30 2895 C 277.924 -0.445692 3.73752 0
M  V30 2896 C 277.071 0.357584 2.74985 0
M  V30 2897 H 280.022 0.659138 1.44364 0
M  V30 2898 H 280.043 -0.847761 3.70936 0
M  V30 2899 H 279.555 0.976382 3.75617 0
M  V30 2900 H 277.656 -1.46704 3.42503 0
M  V30 2901 H 277.769 -0.166155 4.78812 0
M  V30 2902 H 276.133 -0.184973 2.54027 0
M  V30 2903 H 276.916 1.37256 3.14668 0
M  V30 2904 N 279.361 -1.56624 0.175154 0
M  V30 2905 C 280.291 -2.21155 -0.749195 0
M  V30 2906 C 281.272 -1.16836 -1.23626 0
M  V30 2907 O 282.457 -1.45277 -1.28873 0
M  V30 2908 C 279.587 -2.8553 -1.97711 0
M  V30 2909 C 278.541 -3.95921 -1.62575 0
M  V30 2910 C 277.867 -4.47365 -2.92864 0
M  V30 2911 C 279.167 -5.15323 -0.850838 0
M  V30 2912 H 280.861 -2.98653 -0.211295 0
M  V30 2913 H 278.407 -1.43651 -0.100188 0
M  V30 2914 H 280.36 -3.2935 -2.62881 0
M  V30 2915 H 279.084 -2.05406 -2.53921 0
M  V30 2916 H 277.743 -3.52762 -0.997719 0
M  V30 2917 H 277.391 -3.64027 -3.47122 0
M  V30 2918 H 277.091 -5.21839 -2.70106 0
M  V30 2919 H 278.615 -4.93873 -3.59056 0
M  V30 2920 H 280.029 -5.55812 -1.40521 0
M  V30 2921 H 278.426 -5.95739 -0.722154 0
M  V30 2922 H 279.496 -4.84661 0.152082 0
M  V30 2923 N 280.839 0.0985539 -1.57292 0
M  V30 2924 C 281.771 1.14595 -1.98496 0
M  V30 2925 C 282.784 1.36512 -0.887031 0
M  V30 2926 O 283.973 1.35225 -1.16518 0
M  V30 2927 C 281.073 2.50216 -2.28572 0
M  V30 2928 C 280.246 2.48624 -3.59868 0
M  V30 2929 C 279.305 3.66146 -3.7792 0
M  V30 2930 O 278.331 3.48795 -4.49812 0
M  V30 2931 N 279.533 4.85496 -3.18235 0
M  V30 2932 H 282.298 0.795277 -2.88956 0
M  V30 2933 H 279.859 0.287579 -1.59325 0
M  V30 2934 H 281.851 3.27432 -2.37845 0
M  V30 2935 H 280.421 2.77387 -1.44136 0
M  V30 2936 H 279.641 1.56978 -3.61596 0
M  V30 2937 H 280.929 2.44635 -4.46129 0
M  V30 2938 H 280.327 5.02497 -2.59833 0
M  V30 2939 H 278.884 5.60317 -3.32999 0
M  V30 2940 N 282.317 1.53212 0.369288 0
M  V30 2941 C 283.265 1.80054 1.47253 0
M  V30 2942 C 284.259 0.669456 1.55611 0
M  V30 2943 O 285.465 0.852328 1.58541 0
M  V30 2944 H 281.84 0.570034 0.490475 0
M  V30 2945 H 283.811 2.72403 1.21817 0
M  V30 2946 C 282.56 2.00403 2.84137 0
M  V30 2947 H 281.883 2.86876 2.78464 0
M  V30 2948 H 283.323 2.23164 3.60519 0
M  V30 2949 C 281.782 0.782081 3.27697 0
M  V30 2950 O 282.312 -0.0310205 4.01688 0
M  V30 2951 N 280.518 0.606573 2.84199 0
M  V30 2952 H 280.065 1.26939 2.24152 0
M  V30 2953 H 280.023 -0.20962 3.137 0
M  V30 2954 N 283.795 -0.628877 1.44509 0
M  V30 2955 C 284.728 -1.75367 1.46019 0
M  V30 2956 C 285.706 -1.59444 0.318787 0
M  V30 2957 O 286.89 -1.81297 0.516099 0
M  V30 2958 C 284.017 -3.12965 1.29501 0
M  V30 2959 C 283.063 -3.47532 2.47233 0
M  V30 2960 S 283.896 -3.44758 4.09758 0
M  V30 2961 C 285.052 -4.84973 3.95667 0
M  V30 2962 H 285.285 -1.7382 2.41193 0
M  V30 2963 H 282.818 -0.803686 1.31834 0
M  V30 2964 H 284.776 -3.92367 1.20658 0
M  V30 2965 H 283.437 -3.12049 0.358341 0
M  V30 2966 H 282.63 -4.47664 2.31544 0
M  V30 2967 H 282.232 -2.75598 2.52828 0
M  V30 2968 H 284.524 -5.74255 3.59496 0
M  V30 2969 H 285.467 -5.05716 4.95638 0
M  V30 2970 H 285.875 -4.59653 3.27688 0
M  V30 2971 N 285.273 -1.31445 -0.869486 0
M  V30 2972 C 286.513 -1.22458 -1.63656 0
M  V30 2973 C 286.877 0.213846 -1.90805 0
M  V30 2974 O 288.078 0.427212 -2.65383 0
M  V30 2975 C 286.349 -2.04564 -2.93067 0
M  V30 2976 S 287.908 -2.12445 -3.83944 0
M  V30 2977 H 284.726 -0.436145 -0.561514 0
M  V30 2978 H 287.328 -1.66114 -1.03085 0
M  V30 2979 H 286.032 -3.0816 -2.71045 0
M  V30 2980 H 285.563 -1.6163 -3.58663 0
M  V30 2981 H 287.578 -1.26312 -4.79854 0
M  V30 2982 N 286.751 1.08385 -1.14413 0
M  V30 2983 C 287.683 2.1519 -0.789036 0
M  V30 2984 C 288.696 1.61638 0.19417 0
M  V30 2985 O 289.885 1.78479 -0.0275711 0
M  V30 2986 C 286.985 3.38565 -0.15058 0
M  V30 2987 C 286.158 4.21501 -1.16857 0
M  V30 2988 C 285.217 5.23277 -0.553832 0
M  V30 2989 O 284.243 5.56041 -1.21686 0
M  V30 2990 N 285.445 5.76629 0.669296 0
M  V30 2991 H 288.21 2.46257 -1.70814 0
M  V30 2992 H 285.771 1.24198 -1.03858 0
M  V30 2993 H 287.763 4.03777 0.273181 0
M  V30 2994 H 286.333 3.05299 0.671667 0
M  V30 2995 H 285.553 3.52265 -1.76926 0
M  V30 2996 H 286.841 4.73731 -1.85624 0
M  V30 2997 H 286.239 5.52243 1.22654 0
M  V30 2998 H 284.796 6.43521 1.03556 0
M  V30 2999 N 288.23 0.939286 1.26551 0
M  V30 3000 C 289.479 0.581601 1.93133 0
M  V30 3001 C 289.792 -0.883224 1.74524 0
M  V30 3002 O 290.998 -1.3502 2.35546 0
M  V30 3003 C 289.454 0.989425 3.46032 0
M  V30 3004 C 289.062 2.47573 3.73379 0
M  V30 3005 C 290.806 0.703544 4.18629 0
M  V30 3006 C 288.713 2.82235 5.19709 0
M  V30 3007 H 287.643 0.213803 0.723052 0
M  V30 3008 H 290.294 1.14167 1.4366 0
M  V30 3009 H 288.676 0.357902 3.94379 0
M  V30 3010 H 289.85 3.15614 3.35744 0
M  V30 3011 H 288.165 2.73471 3.1401 0
M  V30 3012 H 290.762 0.938869 5.26393 0
M  V30 3013 H 291.105 -0.359639 4.14744 0
M  V30 3014 H 291.638 1.2947 3.76141 0
M  V30 3015 H 288.377 3.87509 5.28694 0
M  V30 3016 H 287.897 2.18854 5.58447 0
M  V30 3017 H 289.576 2.70599 5.87695 0
M  V30 3018 N 289.708 -1.40897 0.706093 0
M  V30 3019 C 290.948 -2.02916 0.245827 0
M  V30 3020 C 291.312 -1.54751 -1.13649 0
M  V30 3021 O 292.513 -2.08768 -1.69321 0
M  V30 3022 C 290.784 -3.56031 0.312537 0
M  V30 3023 S 292.343 -4.38741 -0.0721388 0
M  V30 3024 H 289.161 -0.704186 0.0982007 0
M  V30 3025 H 291.763 -1.72168 0.926207 0
M  V30 3026 H 290.467 -3.88579 1.32039 0
M  V30 3027 H 289.998 -3.91495 -0.386641 0
M  V30 3028 H 292.013 -4.78952 -1.29692 0
M  V30 3029 N 291.186 -0.45159 -1.50991 0
M  V30 3030 C 292.118 0.388634 -2.25881 0
M  V30 3031 C 293.131 0.974041 -1.30446 0
M  V30 3032 O 294.32 0.865758 -1.56099 0
M  V30 3033 C 291.42 1.5571 -3.01011 0
M  V30 3034 C 290.593 1.08801 -4.23652 0
M  V30 3035 C 289.652 2.12825 -4.8124 0
M  V30 3036 O 288.678 1.71678 -5.42693 0
M  V30 3037 N 289.88 3.45453 -4.66522 0
M  V30 3038 H 292.645 -0.25329 -2.98628 0
M  V30 3039 H 290.206 -0.281268 -1.59438 0
M  V30 3040 H 292.198 2.24952 -3.3642 0
M  V30 3041 H 290.768 2.10409 -2.31186 0
M  V30 3042 H 289.988 0.22215 -3.93574 0
M  V30 3043 H 291.276 0.752213 -5.03209 0
M  V30 3044 H 290.674 3.81605 -4.17605 0
M  V30 3045 H 289.231 4.10549 -5.06254 0
M  V30 3046 N 292.664 1.56529 -0.183458 0
M  V30 3047 C 293.611 2.18546 0.742055 0
M  V30 3048 C 294.581 1.12912 1.2182 0
M  V30 3049 O 295.766 1.41115 1.28418 0
M  V30 3050 C 292.906 2.83977 1.96089 0
M  V30 3051 C 292.019 4.04105 1.52719 0
M  V30 3052 C 291.154 4.57427 2.70063 0
M  V30 3053 C 290.193 5.69938 2.23243 0
M  V30 3054 N 289.33 6.17717 3.33722 0
M  V30 3055 H 294.17 2.97284 0.206432 0
M  V30 3056 H 291.707 1.46823 0.0901571 0
M  V30 3057 H 293.665 3.20077 2.67594 0
M  V30 3058 H 292.295 2.07822 2.47002 0
M  V30 3059 H 291.347 3.73745 0.708436 0
M  V30 3060 H 292.659 4.85513 1.1436 0
M  V30 3061 H 291.813 4.95772 3.49708 0
M  V30 3062 H 290.552 3.75101 3.11689 0
M  V30 3063 H 289.557 5.31133 1.42048 0
M  V30 3064 H 290.782 6.54073 1.82661 0
M  V30 3065 H 288.728 5.38317 3.74902 0
M  V30 3066 H 288.645 6.94146 2.99495 0
M  V30 3067 H 289.913 6.60713 4.13616 0
M  V30 3068 N 294.142 -0.090211 1.57342 0
M  V30 3069 C 295.382 -0.798365 1.88163 0
M  V30 3070 C 295.746 -1.75662 0.775046 0
M  V30 3071 O 296.947 -2.50849 0.965816 0
M  V30 3072 C 295.218 -1.50376 3.24225 0
M  V30 3073 S 296.777 -2.24952 3.76752 0
M  V30 3074 H 293.595 -0.265883 0.659414 0
M  V30 3075 H 296.197 -0.055264 1.95422 0
M  V30 3076 H 294.901 -0.792286 4.0268 0
M  V30 3077 H 294.432 -2.28666 3.20118 0
M  V30 3078 H 296.447 -3.51173 3.5056 0
M  V30 3079 N 295.62 -1.53406 -0.361157 0
M  V30 3080 C 296.897 -1.60411 -1.11927 0
M  V30 3081 C 297.277 -0.414385 -2.06993 0
M  V30 3082 O 296.625 0.594976 -2.20618 0
M  V30 3083 C 296.835 -2.95652 -1.85448 0
M  V30 3084 C 298.183 -3.50386 -2.39823 0
M  V30 3085 O 299.207 -2.97711 -1.95568 0
M  V30 3086 O 298.066 -4.42482 -3.20737 0
M  V30 3087 H 295.16 -0.64811 -0.513695 0
M  V30 3088 H 297.706 -1.65749 -0.364065 0
M  V30 3089 H 296.478 -3.73682 -1.16091 0
M  V30 3090 H 296.101 -2.93825 -2.67866 0
M  V30 3091 N 297.098 0.621204 -1.44841 0
M  V30 3092 C 298.323 1.41244 -1.51871 0
M  V30 3093 C 298.748 1.87519 -0.147764 0
M  V30 3094 O 298.106 1.59334 0.865 0
M  V30 3095 C 298.154 2.60221 -2.49634 0
M  V30 3096 O 297.258 3.60395 -2.00473 0
M  V30 3097 H 296.599 0.42223 -0.512463 0
M  V30 3098 H 299.129 0.757305 -1.90069 0
M  V30 3099 H 299.139 3.0764 -2.67996 0
M  V30 3100 H 297.814 2.25887 -3.4921 0
M  V30 3101 H 296.391 3.19717 -1.91925 0
M  V30 3102 N 298.576 1.31904 0.862503 0
M  V30 3103 C 299.523 1.20182 1.9704 0
M  V30 3104 C 300.493 0.0858247 1.65878 0
M  V30 3105 O 301.678 0.26 1.8902 0
M  V30 3106 C 298.818 0.922797 3.32533 0
M  V30 3107 C 297.931 2.12284 3.76244 0
M  V30 3108 C 297.066 1.77996 5.00491 0
M  V30 3109 C 296.105 2.94366 5.36671 0
M  V30 3110 N 295.242 2.60223 6.52095 0
M  V30 3111 H 300.082 2.14951 2.06398 0
M  V30 3112 H 297.619 1.06917 1.01031 0
M  V30 3113 H 299.577 0.741548 4.10557 0
M  V30 3114 H 298.207 0.0119227 3.22798 0
M  V30 3115 H 297.259 2.41461 2.9394 0
M  V30 3116 H 298.571 2.99357 3.98982 0
M  V30 3117 H 297.725 1.56377 5.862 0
M  V30 3118 H 296.464 0.881252 4.79672 0
M  V30 3119 H 295.469 3.16625 4.49476 0
M  V30 3120 H 296.694 3.84957 5.59451 0
M  V30 3121 H 294.64 1.72884 6.32809 0
M  V30 3122 H 294.557 3.40827 6.74814 0
M  V30 3123 H 295.825 2.42016 7.40978 0
M  V30 3124 N 300.054 -1.07777 1.14986 0
M  V30 3125 C 301.303 -1.79669 0.916617 0
M  V30 3126 C 301.616 -1.87474 -0.557917 0
M  V30 3127 O 302.822 -2.55845 -0.908617 0
M  V30 3128 C 301.278 -3.22848 1.59051 0
M  V30 3129 C 300.886 -3.23257 3.10176 0
M  V30 3130 C 302.63 -3.99379 1.43864 0
M  V30 3131 C 300.537 -4.61063 3.70372 0
M  V30 3132 H 299.467 -0.673349 0.33929 0
M  V30 3133 H 302.118 -1.21003 1.37951 0
M  V30 3134 H 300.5 -3.8168 1.0553 0
M  V30 3135 H 301.674 -2.74095 3.70417 0
M  V30 3136 H 299.989 -2.60222 3.25074 0
M  V30 3137 H 302.586 -5.0122 1.86232 0
M  V30 3138 H 302.929 -4.14511 0.385564 0
M  V30 3139 H 303.462 -3.47032 1.94457 0
M  V30 3140 H 300.201 -4.51135 4.7556 0
M  V30 3141 H 299.721 -5.1048 3.14913 0
M  V30 3142 H 301.4 -5.30034 3.71043 0
M  V30 3143 N 301.532 -0.945985 -1.26051 0
M  V30 3144 C 302.462 -0.477172 -2.28572 0
M  V30 3145 C 303.443 0.472032 -1.63419 0
M  V30 3146 O 304.628 0.372853 -1.90587 0
M  V30 3147 C 301.758 0.253975 -3.4637 0
M  V30 3148 C 300.712 -0.609135 -4.23643 0
M  V30 3149 C 300.038 0.252252 -5.34105 0
M  V30 3150 C 301.338 -1.8829 -4.8718 0
M  V30 3151 H 303.032 -1.33402 -2.68038 0
M  V30 3152 H 300.578 -0.642904 -1.28852 0
M  V30 3153 H 302.531 0.593016 -4.17207 0
M  V30 3154 H 301.255 1.145 -3.05871 0
M  V30 3155 H 299.914 -0.931138 -3.54578 0
M  V30 3156 H 299.562 1.14278 -4.89846 0
M  V30 3157 H 299.262 -0.32188 -5.86718 0
M  V30 3158 H 300.786 0.586454 -6.07777 0
M  V30 3159 H 302.2 -1.61081 -5.50205 0
M  V30 3160 H 300.597 -2.40199 -5.49931 0
M  V30 3161 H 301.667 -2.59134 -4.09851 0
M  V30 3162 N 303.011 1.40521 -0.713556 0
M  V30 3163 C 303.921 2.34522 -0.0606667 0
M  V30 3164 C 304.937 1.57193 0.74607 0
M  V30 3165 O 306.113 1.89591 0.679493 0
M  V30 3166 C 303.178 3.36081 0.851491 0
M  V30 3167 C 302.239 4.29286 0.0349339 0
M  V30 3168 C 301.472 5.25994 0.903649 0
M  V30 3169 O 301.695 5.28616 2.14292 0
M  V30 3170 O 300.629 6.00918 0.343723 0
M  V30 3171 H 304.455 2.91968 -0.835972 0
M  V30 3172 H 302.04 1.41681 -0.47402 0
M  V30 3173 H 303.922 3.98369 1.37404 0
M  V30 3174 H 302.597 2.81052 1.60598 0
M  V30 3175 H 301.504 3.70289 -0.532633 0
M  V30 3176 H 302.837 4.87462 -0.681287 0
M  V30 3177 N 304.489 0.459591 1.5075 0
M  V30 3178 C 305.437 -0.354678 2.2988 0
M  V30 3179 C 306.431 -1.00086 1.36672 0
M  V30 3180 O 307.637 -0.933277 1.53915 0
M  V30 3181 H 304.012 -0.13321 0.740107 0
M  V30 3182 H 305.983 0.333269 2.96533 0
M  V30 3183 C 304.732 -1.43073 3.169 0
M  V30 3184 H 304.055 -0.942882 3.88523 0
M  V30 3185 H 305.495 -1.97328 3.75284 0
M  V30 3186 C 303.954 -2.42633 2.33732 0
M  V30 3187 O 304.484 -3.47658 2.01238 0
M  V30 3188 N 302.69 -2.14066 1.9653 0
M  V30 3189 H 302.237 -1.28685 2.23155 0
M  V30 3190 H 302.195 -2.80917 1.41185 0
M  V30 3191 N 305.967 -1.56429 0.191757 0
M  V30 3192 C 307.214 -1.97485 -0.447891 0
M  V30 3193 C 307.542 -1.07852 -1.61859 0
M  V30 3194 O 306.797 -0.116903 -1.95351 0
M  V30 3195 C 307.096 -3.44449 -0.953384 0
M  V30 3196 C 306.762 -4.50781 0.103586 0
M  V30 3197 C 305.424 -4.79584 0.394023 0
M  V30 3198 C 307.776 -5.1471 0.819946 0
M  V30 3199 C 305.104 -5.69607 1.40585 0
M  V30 3200 C 307.456 -6.05827 1.8209 0
M  V30 3201 C 306.12 -6.32987 2.11857 0
M  V30 3202 H 305.39 -0.722648 -0.163895 0
M  V30 3203 H 308.037 -1.89322 0.28802 0
M  V30 3204 H 306.342 -3.49666 -1.76751 0
M  V30 3205 H 308.039 -3.73569 -1.45765 0
M  V30 3206 H 304.629 -4.28394 -0.132951 0
M  V30 3207 H 308.813 -4.92552 0.608789 0
M  V30 3208 H 304.069 -5.88926 1.64243 0
M  V30 3209 H 308.243 -6.54424 2.38123 0
M  V30 3210 H 305.87 -7.02544 2.90407 0
M  V30 3211 N 307.445 0.0818655 -1.57387 0
M  V30 3212 C 308.408 1.08265 -2.02018 0
M  V30 3213 C 309.408 1.32183 -0.915664 0
M  V30 3214 O 310.598 1.28073 -1.18081 0
M  V30 3215 C 307.73 2.42871 -2.39221 0
M  V30 3216 H 308.923 0.698204 -2.91659 0
M  V30 3217 H 306.476 0.327303 -1.52835 0
M  V30 3218 H 307.211 2.86167 -1.52575 0
M  V30 3219 H 306.996 2.26855 -3.19811 0
M  V30 3220 H 308.486 3.14826 -2.74362 0
M  V30 3221 N 308.923 1.53595 0.353017 0
M  V30 3222 C 309.833 1.83897 1.45667 0
M  V30 3223 C 310.849 0.728334 1.58023 0
M  V30 3224 O 312.025 1.01968 1.73679 0
M  V30 3225 C 309.09 2.03383 2.80778 0
M  V30 3226 C 308.151 3.27262 2.77845 0
M  V30 3227 C 307.384 3.45809 4.06512 0
M  V30 3228 O 307.607 2.68387 5.03314 0
M  V30 3229 O 306.541 4.39207 4.11559 0
M  V30 3230 H 310.367 2.77686 1.2298 0
M  V30 3231 H 307.952 1.39132 0.544308 0
M  V30 3232 H 309.834 2.17698 3.60812 0
M  V30 3233 H 308.509 1.12783 3.03417 0
M  V30 3234 H 307.416 3.18359 1.96465 0
M  V30 3235 H 308.749 4.17824 2.60161 0
M  V30 3236 N 310.401 -0.613514 1.45168 0
M  V30 3237 C 311.348 -1.72456 1.53387 0
M  V30 3238 C 312.318 -1.6169 0.380191 0
M  V30 3239 O 313.503 -1.81356 0.592836 0
M  V30 3240 C 310.643 -3.10753 1.50088 0
M  V30 3241 C 309.756 -3.32368 2.75963 0
M  V30 3242 C 308.891 -4.60737 2.64376 0
M  V30 3243 C 307.93 -4.7559 3.85332 0
M  V30 3244 N 307.067 -5.95253 3.72315 0
M  V30 3245 H 311.907 -1.64768 2.48305 0
M  V30 3246 H 309.444 -0.803503 1.23216 0
M  V30 3247 H 311.402 -3.90758 1.46164 0
M  V30 3248 H 310.032 -3.17413 0.587243 0
M  V30 3249 H 309.084 -2.4618 2.89999 0
M  V30 3250 H 310.396 -3.39218 3.65695 0
M  V30 3251 H 309.55 -5.48928 2.58385 0
M  V30 3252 H 308.289 -4.56275 1.72233 0
M  V30 3253 H 307.294 -3.85824 3.91688 0
M  V30 3254 H 308.519 -4.81854 4.78533 0
M  V30 3255 H 306.465 -5.91847 2.82937 0
M  V30 3256 H 306.382 -6.03236 4.55677 0
M  V30 3257 H 307.65 -6.85958 3.70246 0
M  V30 3258 N 311.879 -1.3236 -0.855495 0
M  V30 3259 C 313.107 -1.2587 -1.64208 0
M  V30 3260 C 313.522 0.173457 -1.88002 0
M  V30 3261 O 312.879 1.11027 -1.44842 0
M  V30 3262 C 312.93 -2.01424 -3.00184 0
M  V30 3263 O 312.651 -3.39051 -2.77445 0
M  V30 3264 C 314.152 -2.01948 -3.94629 0
M  V30 3265 H 311.372 -0.434318 -0.511477 0
M  V30 3266 H 313.916 -1.74469 -1.0668 0
M  V30 3267 H 312.071 -1.56549 -3.5436 0
M  V30 3268 H 312.485 -3.77711 -3.63916 0
M  V30 3269 H 313.959 -2.59297 -4.87308 0
M  V30 3270 H 314.436 -1.00554 -4.27534 0
M  V30 3271 H 315.042 -2.46767 -3.4639 0
M  V30 3272 N 313.357 1.07166 -1.15556 0
M  V30 3273 C 314.304 2.14417 -0.854055 0
M  V30 3274 C 315.274 1.64965 0.193806 0
M  V30 3275 O 316.459 1.90703 0.0609443 0
M  V30 3276 C 313.599 3.43304 -0.351574 0
M  V30 3277 C 312.712 4.06537 -1.46123 0
M  V30 3278 C 311.847 5.23266 -0.914677 0
M  V30 3279 C 310.886 5.78464 -2.00114 0
M  V30 3280 N 310.023 6.86521 -1.47083 0
M  V30 3281 H 314.863 2.39548 -1.77259 0
M  V30 3282 H 312.4 1.17543 -0.884425 0
M  V30 3283 H 314.358 4.17179 -0.0419409 0
M  V30 3284 H 312.988 3.18419 0.530037 0
M  V30 3285 H 312.04 3.30297 -1.88701 0
M  V30 3286 H 313.352 4.43567 -2.28144 0
M  V30 3287 H 312.506 6.04131 -0.557698 0
M  V30 3288 H 311.245 4.87658 -0.0636583 0
M  V30 3289 H 310.25 4.96243 -2.36692 0
M  V30 3290 H 311.475 6.16126 -2.85597 0
M  V30 3291 H 309.421 6.52849 -0.642198 0
M  V30 3292 H 309.338 7.22446 -2.22729 0
M  V30 3293 H 310.606 7.71087 -1.14215 0
M  V30 3294 N 314.835 0.952656 1.25548 0
M  V30 3295 C 316.251 0.656769 1.4546 0
M  V30 3296 C 316.451 -0.78633 1.85524 0
M  V30 3297 O 315.507 -1.56183 1.98402 0
M  V30 3298 C 316.82 1.62801 2.52817 0
M  V30 3299 C 318.368 1.63897 2.66659 0
M  V30 3300 C 318.843 2.5978 3.77198 0
M  V30 3301 N 320.334 2.58133 3.84606 0
M  V30 3302 C 321.069 3.29003 4.69621 0
M  V30 3303 N 320.565 4.09339 5.58939 0
M  V30 3304 N 322.358 3.179 4.63569 0
M  V30 3305 H 314.509 1.88526 0.978344 0
M  V30 3306 H 316.772 0.810815 0.491206 0
M  V30 3307 H 316.478 2.65869 2.30232 0
M  V30 3308 H 316.352 1.38898 3.50695 0
M  V30 3309 H 318.739 0.615481 2.8861 0
M  V30 3310 H 318.82 1.91858 1.69187 0
M  V30 3311 H 318.464 3.62254 3.55997 0
M  V30 3312 H 318.394 2.29105 4.7415 0
M  V30 3313 H 320.885 1.99809 3.20757 0
M  V30 3314 H 321.198 4.6034 6.20731 0
M  V30 3315 H 319.543 4.13438 5.58654 0
M  V30 3316 H 322.734 2.54612 3.92798 0
M  V30 3317 H 322.907 3.73398 5.29602 0
M  V30 3318 N 316.313 -1.40141 0.720998 0
M  V30 3319 C 317.276 -2.29058 0.0805834 0
M  V30 3320 C 318.276 -1.45632 -0.681758 0
M  V30 3321 O 319.466 -1.6648 -0.512856 0
M  V30 3322 C 316.598 -3.28925 -0.895593 0
M  V30 3323 H 317.791 -2.87191 0.863793 0
M  V30 3324 H 315.344 -1.48553 0.485975 0
M  V30 3325 H 316.079 -2.75822 -1.70566 0
M  V30 3326 H 315.864 -3.90519 -0.351766 0
M  V30 3327 H 317.354 -3.95494 -1.34069 0
M  V30 3328 N 317.792 -0.46758 -1.50504 0
M  V30 3329 C 318.755 0.317059 -2.26996 0
M  V30 3330 C 319.755 0.923513 -1.31635 0
M  V30 3331 O 320.945 0.793239 -1.55091 0
M  V30 3332 C 318.077 1.45134 -3.08462 0
M  V30 3333 H 319.27 -0.353723 -2.97807 0
M  V30 3334 H 316.823 -0.221545 -1.54722 0
M  V30 3335 H 317.558 2.15728 -2.4214 0
M  V30 3336 H 317.343 1.02232 -3.78538 0
M  V30 3337 H 318.833 2.00493 -3.66323 0
M  V30 3338 N 319.27 1.56325 -0.20005 0
M  V30 3339 C 320.5 2.01811 0.442232 0
M  V30 3340 C 320.908 1.07932 1.55394 0
M  V30 3341 O 320.251 0.0772685 1.83537 0
M  V30 3342 C 320.313 3.43685 1.05457 0
M  V30 3343 C 319.977 4.56928 0.0809833 0
M  V30 3344 C 320.974 5.15009 -0.711471 0
M  V30 3345 C 318.659 5.0229 -0.0315364 0
M  V30 3346 C 320.653 6.16904 -1.60336 0
M  V30 3347 C 318.34 6.04028 -0.926981 0
M  V30 3348 C 319.338 6.6121 -1.71146 0
M  V30 3349 O 319.026 7.60971 -2.59189 0
M  V30 3350 H 318.758 0.666173 0.114848 0
M  V30 3351 H 321.312 2.03085 -0.307511 0
M  V30 3352 H 319.542 3.39413 1.85299 0
M  V30 3353 H 321.231 3.72948 1.60201 0
M  V30 3354 H 321.997 4.80827 -0.634873 0
M  V30 3355 H 317.876 4.57476 0.568902 0
M  V30 3356 H 321.42 6.61464 -2.21611 0
M  V30 3357 H 317.317 6.37634 -1.00468 0
M  V30 3358 H 318.085 7.7841 -2.53023 0
M  V30 3359 N 320.748 -0.0735177 1.57428 0
M  V30 3360 C 321.658 -1.10547 2.06922 0
M  V30 3361 C 322.674 -1.42506 0.998402 0
M  V30 3362 O 323.85 -1.52717 1.31299 0
M  V30 3363 C 320.915 -2.40019 2.50184 0
M  V30 3364 C 319.976 -2.15046 3.71556 0
M  V30 3365 C 319.209 -3.38345 4.12745 0
M  V30 3366 O 319.432 -4.47399 3.53822 0
M  V30 3367 O 318.366 -3.2666 5.05546 0
M  V30 3368 H 322.192 -0.715013 2.95163 0
M  V30 3369 H 319.777 -0.287531 1.46607 0
M  V30 3370 H 321.659 -3.16218 2.78539 0
M  V30 3371 H 320.334 -2.78447 1.65072 0
M  V30 3372 H 319.241 -1.36558 3.48285 0
M  V30 3373 H 320.574 -1.81499 4.57514 0
M  V30 3374 N 322.226 -1.5378 -0.344866 0
M  V30 3375 C 323.475 -1.7018 -1.08267 0
M  V30 3376 C 323.788 -0.471 -1.89845 0
M  V30 3377 O 324.994 -0.515917 -2.66553 0
M  V30 3378 C 323.45 -3.00923 -1.97417 0
M  V30 3379 C 323.058 -4.31335 -1.21053 0
M  V30 3380 C 324.802 -3.26688 -2.71063 0
M  V30 3381 C 322.709 -5.53153 -2.09225 0
M  V30 3382 H 321.639 -0.634138 -0.407903 0
M  V30 3383 H 324.29 -1.8028 -0.342246 0
M  V30 3384 H 322.672 -2.84676 -2.75274 0
M  V30 3385 H 323.846 -4.58281 -0.481159 0
M  V30 3386 H 322.161 -4.12173 -0.591813 0
M  V30 3387 H 324.758 -4.1489 -3.37299 0
M  V30 3388 H 325.101 -2.43639 -3.37558 0
M  V30 3389 H 325.634 -3.43705 -2.0028 0
M  V30 3390 H 322.373 -6.38741 -1.47274 0
M  V30 3391 H 321.893 -5.30458 -2.79955 0
M  V30 3392 H 323.572 -5.88744 -2.68308 0
M  V30 3393 N 323.704 0.605807 -1.45491 0
M  V30 3394 C 324.953 1.36086 -1.48874 0
M  V30 3395 C 325.266 1.95131 -0.135333 0
M  V30 3396 O 326.472 2.7146 -0.0468144 0
M  V30 3397 C 324.928 2.46518 -2.62215 0
M  V30 3398 C 324.536 1.93877 -4.03876 0
M  V30 3399 C 326.28 3.23512 -2.74846 0
M  V30 3400 C 324.187 3.01801 -5.08596 0
M  V30 3401 H 323.117 0.511497 -0.553974 0
M  V30 3402 H 325.768 0.649089 -1.71636 0
M  V30 3403 H 324.15 3.20388 -2.32739 0
M  V30 3404 H 325.324 1.26704 -4.43038 0
M  V30 3405 H 323.639 1.29622 -3.95711 0
M  V30 3406 H 326.236 4.04013 -3.50253 0
M  V30 3407 H 326.579 3.74631 -1.81542 0
M  V30 3408 H 327.112 2.56742 -3.03856 0
M  V30 3409 H 323.851 2.55597 -6.03614 0
M  V30 3410 H 323.371 3.67535 -4.74002 0
M  V30 3411 H 325.05 3.66152 -5.33424 0
M  V30 3412 N 325.182 1.32811 0.848464 0
M  V30 3413 C 326.092 1.24278 1.98978 0
M  V30 3414 C 327.108 0.155176 1.73307 0
M  V30 3415 O 328.284 0.376999 1.9784 0
M  V30 3416 C 325.349 0.972444 3.32783 0
M  V30 3417 C 324.41 2.14911 3.71634 0
M  V30 3418 C 323.643 1.89157 4.99054 0
M  V30 3419 O 323.866 0.837165 5.64223 0
M  V30 3420 O 322.8 2.75433 5.35183 0
M  V30 3421 H 326.626 2.20238 2.09115 0
M  V30 3422 H 324.211 1.12762 0.980052 0
M  V30 3423 H 326.093 0.838432 4.12975 0
M  V30 3424 H 324.768 0.043051 3.23671 0
M  V30 3425 H 323.675 2.33862 2.91992 0
M  V30 3426 H 325.008 3.06151 3.85399 0
M  V30 3427 N 326.66 -1.06551 1.16123 0
M  V30 3428 C 328.076 -1.3142 0.905585 0
M  V30 3429 C 328.276 -1.96571 -0.442964 0
M  V30 3430 O 327.332 -2.23068 -1.18308 0
M  V30 3431 C 328.645 -2.19741 2.05267 0
M  V30 3432 C 330.193 -2.33165 2.08813 0
M  V30 3433 C 330.668 -3.24838 3.22868 0
M  V30 3434 N 332.159 -3.32421 3.22568 0
M  V30 3435 C 332.894 -4.0344 4.0746 0
M  V30 3436 N 332.39 -4.77003 5.02434 0
M  V30 3437 N 334.183 -3.99464 3.95456 0
M  V30 3438 H 326.334 -0.626548 2.02949 0
M  V30 3439 H 328.597 -0.338777 0.8854 0
M  V30 3440 H 328.303 -1.79142 3.02657 0
M  V30 3441 H 328.177 -3.20313 1.99198 0
M  V30 3442 H 330.564 -2.73013 1.12018 0
M  V30 3443 H 330.645 -1.3227 2.18948 0
M  V30 3444 H 330.289 -2.85708 4.19921 0
M  V30 3445 H 330.219 -4.25707 3.0997 0
M  V30 3446 H 332.71 -2.79994 2.53795 0
M  V30 3447 H 333.023 -5.28712 5.63634 0
M  V30 3448 H 331.368 -4.75992 5.06415 0
M  V30 3449 H 334.559 -3.4111 3.20564 0
M  V30 3450 H 334.732 -4.54544 4.61837 0
M  V30 3451 N 328.138 -0.959301 -1.25041 0
M  V30 3452 C 329.085 -0.482057 -2.2571 0
M  V30 3453 C 330.055 0.467939 -1.59372 0
M  V30 3454 O 331.24 0.380159 -1.86974 0
M  V30 3455 C 328.38 0.229623 -3.44335 0
M  V30 3456 C 327.493 -0.758156 -4.25295 0
M  V30 3457 C 326.628 -0.0234403 -5.31195 0
M  V30 3458 C 325.667 -1.00184 -6.03846 0
M  V30 3459 N 324.804 -0.29769 -7.01469 0
M  V30 3460 H 329.644 -1.34538 -2.65901 0
M  V30 3461 H 327.181 -0.674592 -1.3072 0
M  V30 3462 H 329.139 0.658856 -4.11965 0
M  V30 3463 H 327.769 1.05696 -3.05005 0
M  V30 3464 H 326.821 -1.30586 -3.57284 0
M  V30 3465 H 328.133 -1.50458 -4.75567 0
M  V30 3466 H 327.287 0.464201 -6.04922 0
M  V30 3467 H 326.026 0.755741 -4.81809 0
M  V30 3468 H 325.031 -1.50044 -5.2893 0
M  V30 3469 H 326.256 -1.78133 -6.55321 0
M  V30 3470 H 324.202 0.462668 -6.54366 0
M  V30 3471 H 324.119 -0.983128 -7.4958 0
M  V30 3472 H 325.387 0.16826 -7.79318 0
M  V30 3473 N 329.616 1.39756 -0.72842 0
M  V30 3474 C 330.864 2.00248 -0.272946 0
M  V30 3475 C 331.185 1.58077 1.14178 0
M  V30 3476 O 330.455 0.826014 1.77634 0
M  V30 3477 H 329.035 0.740554 -0.0979247 0
M  V30 3478 H 331.697 1.70903 -0.936912 0
M  V30 3479 H 330.793 3.10495 -0.316142 0
M  V30 3480 N 331.094 0.475555 1.50254 0
M  V30 3481 C 332.057 -0.305016 2.27161 0
M  V30 3482 C 333.057 -0.916519 1.32123 0
M  V30 3483 O 334.247 -0.785003 1.5551 0
M  V30 3484 C 331.379 -1.43496 3.09227 0
M  V30 3485 H 332.572 0.369511 2.97615 0
M  V30 3486 H 330.125 0.229747 1.54602 0
M  V30 3487 H 330.86 -2.14441 2.43281 0
M  V30 3488 H 330.645 -1.00223 3.79075 0
M  V30 3489 H 332.135 -1.98548 3.67381 0
M  V30 3490 N 332.573 -1.56217 0.208337 0
M  V30 3491 C 333.801 -2.02337 -0.43215 0
M  V30 3492 C 334.216 -1.08834 -1.54275 0
M  V30 3493 O 333.573 -0.0955462 -1.8225 0
M  V30 3494 C 333.624 -3.48072 -0.976138 0
M  V30 3495 O 333.345 -4.38007 0.0901621 0
M  V30 3496 C 334.846 -4.09773 -1.69119 0
M  V30 3497 H 332.066 -0.662385 -0.10718 0
M  V30 3498 H 334.61 -2.01966 0.320923 0
M  V30 3499 H 332.765 -3.49099 -1.67954 0
M  V30 3500 H 333.179 -5.23543 -0.316701 0
M  V30 3501 H 334.653 -5.13556 -2.02397 0
M  V30 3502 H 335.13 -3.53999 -2.59964 0
M  V30 3503 H 335.736 -4.12556 -1.03332 0
M  V30 3504 N 334.051 0.0651679 -1.57465 0
M  V30 3505 C 335.001 1.0838 -2.00594 0
M  V30 3506 C 335.985 1.34106 -0.889071 0
M  V30 3507 O 337.177 1.34295 -1.15299 0
M  V30 3508 C 334.306 2.39565 -2.45894 0
M  V30 3509 C 333.392 2.17085 -3.64328 0
M  V30 3510 N 333.783 1.64553 -4.78285 0
M  V30 3511 C 332.081 2.4753 -3.71006 0
M  V30 3512 C 332.782 1.57042 -5.60101 0
M  V30 3513 N 331.758 2.03328 -5.04141 0
M  V30 3514 H 335.56 0.671062 -2.86136 0
M  V30 3515 H 333.074 0.27213 -1.60104 0
M  V30 3516 H 335.071 3.13308 -2.75034 0
M  V30 3517 H 333.731 2.81549 -1.61741 0
M  V30 3518 H 334.742 1.33323 -5.00445 0
M  V30 3519 H 331.419 2.92835 -2.9758 0
M  V30 3520 H 332.809 1.17223 -6.61595 0
M  V30 3521 N 335.529 1.53961 0.336706 0
M  V30 3522 C 336.759 1.75229 1.09446 0
M  V30 3523 C 337.167 0.494602 1.82621 0
M  V30 3524 O 336.51 -0.543764 1.75468 0
M  V30 3525 C 336.572 2.88288 2.1478 0
M  V30 3526 C 336.236 4.27656 1.6112 0
M  V30 3527 C 337.233 5.08981 1.0599 0
M  V30 3528 C 334.918 4.74161 1.6576 0
M  V30 3529 C 336.912 6.34916 0.562129 0
M  V30 3530 C 334.599 6.00067 1.15595 0
M  V30 3531 C 335.597 6.80278 0.609147 0
M  V30 3532 O 335.285 8.03818 0.114999 0
M  V30 3533 H 335.017 0.588881 0.331956 0
M  V30 3534 H 337.571 2.01614 0.392566 0
M  V30 3535 H 335.801 2.57443 2.88548 0
M  V30 3536 H 337.49 2.97461 2.76174 0
M  V30 3537 H 338.256 4.74213 1.01722 0
M  V30 3538 H 334.135 4.11781 2.07261 0
M  V30 3539 H 337.679 6.9747 0.134668 0
M  V30 3540 H 333.576 6.3433 1.19566 0
M  V30 3541 H 334.344 8.18172 0.231651 0
M  V30 3542 N 337.007 -0.598083 1.45811 0
M  V30 3543 C 337.97 -1.69018 1.54808 0
M  V30 3544 C 338.97 -1.55037 0.426652 0
M  V30 3545 O 340.16 -1.59932 0.690456 0
M  V30 3546 C 337.292 -3.0835 1.45371 0
M  V30 3547 H 338.485 -1.62403 2.52121 0
M  V30 3548 H 336.038 -0.814626 1.33392 0
M  V30 3549 H 336.773 -3.20534 0.492793 0
M  V30 3550 H 336.558 -3.19907 2.26721 0
M  V30 3551 H 338.048 -3.8788 1.54721 0
M  V30 3552 N 338.485 -1.33259 -0.841409 0
M  V30 3553 C 339.734 -1.23921 -1.59143 0
M  V30 3554 C 340.047 0.1941 -1.94635 0
M  V30 3555 O 341.253 0.409474 -2.68394 0
M  V30 3556 C 339.709 -2.17119 -2.87032 0
M  V30 3557 C 339.317 -3.65606 -2.58914 0
M  V30 3558 C 341.061 -2.16648 -3.65053 0
M  V30 3559 C 338.968 -4.50726 -3.82884 0
M  V30 3560 H 337.898 -0.460264 -0.597221 0
M  V30 3561 H 340.549 -1.58307 -0.927959 0
M  V30 3562 H 338.931 -1.75663 -3.54906 0
M  V30 3563 H 340.105 -4.15487 -1.99267 0
M  V30 3564 H 338.42 -3.68341 -1.942 0
M  V30 3565 H 341.017 -2.77474 -4.57069 0
M  V30 3566 H 341.36 -1.16088 -3.99787 0
M  V30 3567 H 341.893 -2.56453 -3.041 0
M  V30 3568 H 338.632 -5.52151 -3.53283 0
M  V30 3569 H 338.152 -4.0559 -4.41879 0
M  V30 3570 H 339.831 -4.64401 -4.50489 0
M  V30 3571 N 339.963 1.05934 -1.16686 0
M  V30 3572 C 340.926 2.11669 -0.879144 0
M  V30 3573 C 341.926 1.60294 0.127445 0
M  V30 3574 O 343.116 1.7389 -0.103865 0
M  V30 3575 C 340.248 3.39438 -0.315425 0
M  V30 3576 H 341.441 2.38626 -1.81653 0
M  V30 3577 H 338.994 1.22058 -0.976299 0
M  V30 3578 H 339.729 3.18132 0.629468 0
M  V30 3579 H 339.514 3.78034 -1.04079 0
M  V30 3580 H 341.004 4.17391 -0.132189 0
M  V30 3581 N 341.441 0.965919 1.2453 0
M  V30 3582 C 342.371 0.513476 2.27784 0
M  V30 3583 C 343.352 -0.445974 1.6415 0
M  V30 3584 O 344.537 -0.342485 1.91156 0
M  V30 3585 C 341.667 -0.198839 3.4673 0
M  V30 3586 C 340.621 0.676456 4.2262 0
M  V30 3587 C 339.947 -0.167248 5.34438 0
M  V30 3588 C 341.247 1.96017 4.84123 0
M  V30 3589 H 342.941 1.3765 2.65881 0
M  V30 3590 H 340.487 0.663321 1.27813 0
M  V30 3591 H 342.44 -0.526567 4.18097 0
M  V30 3592 H 341.164 -1.0962 3.07654 0
M  V30 3593 H 339.823 0.98743 3.53052 0
M  V30 3594 H 339.471 -1.0647 4.91603 0
M  V30 3595 H 339.171 0.415181 5.86131 0
M  V30 3596 H 340.695 -0.489688 6.08633 0
M  V30 3597 H 342.109 1.69814 5.47573 0
M  V30 3598 H 340.506 2.48918 5.4604 0
M  V30 3599 H 341.576 2.65622 4.05676 0
M  V30 3600 N 342.919 -1.39368 0.735821 0
M  V30 3601 C 343.882 -2.2896 0.104874 0
M  V30 3602 C 344.882 -1.46347 -0.666274 0
M  V30 3603 O 346.072 -1.67014 -0.49517 0
M  V30 3604 C 343.204 -3.29857 -0.860656 0
M  V30 3605 H 344.397 -2.86259 0.894205 0
M  V30 3606 H 341.95 -1.48029 0.501704 0
M  V30 3607 H 342.685 -2.77615 -1.67631 0
M  V30 3608 H 342.47 -3.9087 -0.310327 0
M  V30 3609 H 343.96 -3.96893 -1.29867 0
M  V30 3610 N 344.397 -0.483516 -1.5 0
M  V30 3611 C 345.643 0.0672592 -2.02688 0
M  V30 3612 C 345.976 1.38247 -1.36387 0
M  V30 3613 O 345.251 1.88131 -0.493675 0
M  V30 3614 C 345.534 0.238109 -3.59312 0
M  V30 3615 C 345.387 -1.099 -4.36168 0
M  V30 3616 C 346.706 0.986916 -4.28892 0
M  V30 3617 H 343.825 0.0229696 -0.736642 0
M  V30 3618 H 346.467 -0.631527 -1.79197 0
M  V30 3619 H 344.617 0.8333 -3.79458 0
M  V30 3620 H 346.289 -1.73172 -4.27562 0
M  V30 3621 H 344.532 -1.69261 -3.99416 0
M  V30 3622 H 345.203 -0.932954 -5.44059 0
M  V30 3623 H 347.679 0.482302 -4.13295 0
M  V30 3624 H 346.555 1.07527 -5.38265 0
M  V30 3625 H 346.816 2.0265 -3.92919 0
M  V30 3626 N 345.875 1.56104 -0.216619 0
M  V30 3627 C 346.838 2.18819 0.681962 0
M  V30 3628 C 347.838 1.14866 1.12528 0
M  V30 3629 O 349.028 1.40128 1.03488 0
M  V30 3630 C 346.16 2.80756 1.93362 0
M  V30 3631 H 347.353 2.99595 0.135254 0
M  V30 3632 H 344.906 1.56265 0.0330003 0
M  V30 3633 H 345.641 2.03837 2.52232 0
M  V30 3634 H 345.426 3.56876 1.62426 0
M  V30 3635 H 346.916 3.28844 2.57393 0
M  V30 3636 N 347.353 -0.0568162 1.57498 0
M  V30 3637 C 348.63 -0.786954 1.79071 0
M  V30 3638 C 349.01 -1.95028 0.80792 0
M  V30 3639 O 348.358 -2.27968 -0.155858 0
M  V30 3640 C 348.568 -1.24594 3.26002 0
M  V30 3641 C 349.916 -1.67323 3.90241 0
M  V30 3642 O 350.94 -1.34124 3.29984 0
M  V30 3643 O 349.799 -2.28842 4.9628 0
M  V30 3644 H 346.893 -0.378262 0.735423 0
M  V30 3645 H 349.439 -0.035734 1.69662 0
M  V30 3646 H 348.211 -0.41423 3.89101 0
M  V30 3647 H 347.834 -2.05803 3.40192 0
M  V30 3648 N 348.832 -1.54138 -0.328536 0
M  V30 3649 C 350.081 -1.71318 -1.06456 0
M  V30 3650 C 350.394 -0.491109 -1.89334 0
M  V30 3651 O 351.6 -0.54416 -2.65991 0
M  V30 3652 C 350.056 -3.03 -1.94214 0
M  V30 3653 C 349.664 -4.32595 -1.16471 0
M  V30 3654 C 351.408 -3.29544 -2.67583 0
M  V30 3655 C 349.315 -5.55341 -2.03347 0
M  V30 3656 H 348.245 -0.638429 -0.401155 0
M  V30 3657 H 350.896 -1.80633 -0.323106 0
M  V30 3658 H 349.278 -2.87579 -2.72239 0
M  V30 3659 H 350.452 -4.58766 -0.432525 0
M  V30 3660 H 348.767 -4.12777 -0.548063 0
M  V30 3661 H 351.364 -4.18444 -3.3288 0
M  V30 3662 H 351.707 -2.47206 -3.34955 0
M  V30 3663 H 352.24 -3.45809 -1.96623 0
M  V30 3664 H 348.979 -6.40268 -1.40491 0
M  V30 3665 H 348.499 -5.33397 -2.74313 0
M  V30 3666 H 350.178 -5.91557 -2.62049 0
M  V30 3667 N 350.31 0.590341 -1.46126 0
M  V30 3668 C 351.556 1.35082 -1.51264 0
M  V30 3669 C 351.889 1.93534 -0.160711 0
M  V30 3670 O 351.164 1.76045 0.826956 0
M  V30 3671 C 351.447 2.48588 -2.6053 0
M  V30 3672 C 351.3 1.95221 -4.05227 0
M  V30 3673 C 352.619 3.50662 -2.6594 0
M  V30 3674 H 349.738 0.489803 -0.550692 0
M  V30 3675 H 352.38 0.663887 -1.78024 0
M  V30 3676 H 350.53 3.07186 -2.37843 0
M  V30 3677 H 352.202 1.41139 -4.39178 0
M  V30 3678 H 350.445 1.26101 -4.15068 0
M  V30 3679 H 351.116 2.77121 -4.77397 0
M  V30 3680 H 353.592 3.01934 -2.86313 0
M  V30 3681 H 352.468 4.27551 -3.44226 0
M  V30 3682 H 352.729 4.07399 -1.71694 0
M  V30 3683 N 351.788 1.33704 0.83433 0
M  V30 3684 C 352.698 1.26382 1.97648 0
M  V30 3685 C 353.714 0.173548 1.73132 0
M  V30 3686 O 354.89 0.397962 1.97429 0
M  V30 3687 C 351.955 1.00769 3.31733 0
M  V30 3688 C 351.016 2.1884 3.69334 0
M  V30 3689 C 350.249 1.9444 4.9702 0
M  V30 3690 O 350.472 0.896961 5.63303 0
M  V30 3691 O 349.406 2.81093 5.32231 0
M  V30 3692 H 353.232 2.22444 2.06767 0
M  V30 3693 H 350.817 1.13795 0.968037 0
M  V30 3694 H 352.699 0.882186 4.12062 0
M  V30 3695 H 351.374 0.0773783 3.23608 0
M  V30 3696 H 350.281 2.36946 2.89495 0
M  V30 3697 H 351.614 3.10221 3.82131 0
M  V30 3698 N 353.266 -1.05314 1.17247 0
M  V30 3699 C 354.491 -1.82509 0.985148 0
M  V30 3700 C 354.916 -1.82343 -0.461788 0
M  V30 3701 O 354.274 -1.23151 -1.33055 0
M  V30 3702 C 354.322 -3.26566 1.52929 0
M  V30 3703 O 353.426 -4.05666 0.742225 0
M  V30 3704 H 352.767 -0.564347 0.349869 0
M  V30 3705 H 355.297 -1.32718 1.55715 0
M  V30 3706 H 355.307 -3.77369 1.55103 0
M  V30 3707 H 353.982 -3.26001 2.58256 0
M  V30 3708 H 352.559 -3.64397 0.791794 0
M  V30 3709 N 354.744 -0.972509 -1.24016 0
M  V30 3710 C 355.993 -0.632603 -1.91523 0
M  V30 3711 C 356.306 0.836641 -1.76804 0
M  V30 3712 O 357.512 1.28728 -2.39043 0
M  V30 3713 C 355.968 -1.08082 -3.43287 0
M  V30 3714 C 355.576 -2.57386 -3.66683 0
M  V30 3715 C 357.32 -0.814288 -4.16617 0
M  V30 3716 C 355.227 -2.95915 -5.12043 0
M  V30 3717 H 354.157 -0.232898 -0.717129 0
M  V30 3718 H 356.808 -1.17936 -1.40582 0
M  V30 3719 H 355.19 -0.462339 -3.93292 0
M  V30 3720 H 356.364 -3.24405 -3.27258 0
M  V30 3721 H 354.679 -2.81701 -3.06649 0
M  V30 3722 H 357.276 -1.0781 -5.23718 0
M  V30 3723 H 357.619 0.24955 -4.15551 0
M  V30 3724 H 358.152 -1.39397 -3.72577 0
M  V30 3725 H 354.891 -4.0139 -5.18234 0
M  V30 3726 H 354.411 -2.33584 -5.52448 0
M  V30 3727 H 356.09 -2.86086 -5.80314 0
M  V30 3728 N 356.222 1.38976 -0.743202 0
M  V30 3729 C 357.469 2.00343 -0.294752 0
M  V30 3730 C 357.797 1.58983 1.12047 0
M  V30 3731 O 357.052 0.813809 1.77977 0
M  V30 3732 C 357.351 3.55647 -0.353517 0
M  V30 3733 C 357.017 4.16685 -1.72292 0
M  V30 3734 C 355.679 4.3307 -2.09771 0
M  V30 3735 C 358.031 4.50464 -2.62168 0
M  V30 3736 C 355.359 4.80526 -3.36618 0
M  V30 3737 C 357.711 4.99332 -3.88395 0
M  V30 3738 C 356.375 5.13924 -4.25956 0
M  V30 3739 H 355.645 0.733108 -0.107857 0
M  V30 3740 H 358.292 1.6618 -0.951651 0
M  V30 3741 H 356.597 3.89884 0.386954 0
M  V30 3742 H 358.294 4.00998 0.0117269 0
M  V30 3743 H 354.884 4.04339 -1.42155 0
M  V30 3744 H 359.068 4.37416 -2.3448 0
M  V30 3745 H 354.324 4.90008 -3.65653 0
M  V30 3746 H 358.498 5.2444 -4.58187 0
M  V30 3747 H 356.125 5.50457 -5.2431 0
M  V30 3748 N 357.7 0.491464 1.49741 0
M  V30 3749 C 358.947 -0.0564256 2.02421 0
M  V30 3750 C 359.275 -1.37872 1.37192 0
M  V30 3751 O 358.53 -1.89375 0.493508 0
M  V30 3752 C 358.829 -0.267329 3.56399 0
M  V30 3753 C 358.495 0.975775 4.40215 0
M  V30 3754 C 357.157 1.31655 4.62839 0
M  V30 3755 C 359.509 1.80251 4.89039 0
M  V30 3756 C 356.837 2.48375 5.31532 0
M  V30 3757 C 359.189 2.96116 5.59015 0
M  V30 3758 C 357.853 3.30585 5.79888 0
M  V30 3759 H 357.123 -0.0206476 0.740712 0
M  V30 3760 H 359.77 0.649686 1.80143 0
M  V30 3761 H 358.075 -1.05588 3.77304 0
M  V30 3762 H 359.772 -0.705549 3.94744 0
M  V30 3763 H 356.362 0.700315 4.2284 0
M  V30 3764 H 360.546 1.55239 4.71396 0
M  V30 3765 H 355.802 2.7533 5.45897 0
M  V30 3766 H 359.976 3.60509 5.95824 0
M  V30 3767 H 357.603 4.21132 6.32892 0
M  V30 3768 N 359.178 -1.55987 0.224894 0
M  V30 3769 C 360.455 -1.90232 -0.455083 0
M  V30 3770 C 360.835 -1.14269 -1.77499 0
M  V30 3771 O 360.183 -0.253079 -2.27094 0
M  V30 3772 C 360.393 -3.42993 -0.644758 0
M  V30 3773 C 361.741 -4.13821 -0.950669 0
M  V30 3774 O 362.765 -3.4861 -0.731423 0
M  V30 3775 O 361.624 -5.29128 -1.36695 0
M  V30 3776 H 358.718 -0.79108 -0.241084 0
M  V30 3777 H 361.264 -1.67581 0.267327 0
M  V30 3778 H 360.036 -3.90252 0.28613 0
M  V30 3779 H 359.659 -3.71434 -1.41853 0
M  V30 3780 N 360.656 0.0484629 -1.57525 0
M  V30 3781 C 361.566 1.07241 -2.08654 0
M  V30 3782 C 362.582 1.409 -1.02095 0
M  V30 3783 O 363.758 1.50609 -1.33712 0
M  V30 3784 C 360.823 2.36008 -2.5397 0
M  V30 3785 C 359.884 2.09108 -3.7493 0
M  V30 3786 C 359.117 3.31736 -4.18075 0
M  V30 3787 O 359.34 4.41714 -3.60895 0
M  V30 3788 O 358.274 3.18576 -5.10679 0
M  V30 3789 H 362.1 0.667965 -2.96263 0
M  V30 3790 H 359.685 0.26417 -1.47046 0
M  V30 3791 H 361.567 3.11747 -2.83535 0
M  V30 3792 H 360.242 2.75786 -1.69481 0
M  V30 3793 H 359.149 1.31 -3.50414 0
M  V30 3794 H 360.482 1.74198 -4.60343 0
M  V30 3795 N 362.134 1.5431 0.320358 0
M  V30 3796 C 363.081 1.83918 1.39438 0
M  V30 3797 C 364.051 0.686525 1.51248 0
M  V30 3798 O 365.236 0.933269 1.66417 0
M  V30 3799 C 362.376 2.075 2.75749 0
M  V30 3800 C 361.489 3.35177 2.72544 0
M  V30 3801 C 360.624 3.48704 4.00723 0
M  V30 3802 C 359.663 4.70244 3.91838 0
M  V30 3803 N 358.8 4.80679 5.11754 0
M  V30 3804 H 363.64 2.75544 1.13489 0
M  V30 3805 H 361.177 1.36459 0.549309 0
M  V30 3806 H 363.135 2.19166 3.54996 0
M  V30 3807 H 361.765 1.19163 3 0
M  V30 3808 H 360.817 3.32233 1.85271 0
M  V30 3809 H 362.129 4.24534 2.61863 0
M  V30 3810 H 361.283 3.59928 4.88402 0
M  V30 3811 H 360.022 2.57445 4.14214 0
M  V30 3812 H 359.027 4.59072 3.02544 0
M  V30 3813 H 360.252 5.6289 3.7991 0
M  V30 3814 H 358.198 3.92337 5.25745 0
M  V30 3815 H 358.115 5.64007 5.0342 0
M  V30 3816 H 359.383 4.96239 6.01138 0
M  V30 3817 N 363.613 -0.582584 1.46437 0
M  V30 3818 C 365.029 -0.905962 1.31394 0
M  V30 3819 C 365.229 -1.99468 0.285476 0
M  V30 3820 O 364.285 -2.50566 -0.311914 0
M  V30 3821 C 365.598 -1.3232 2.70022 0
M  V30 3822 C 367.146 -1.43604 2.78113 0
M  V30 3823 C 367.621 -1.88694 4.17323 0
M  V30 3824 N 369.112 -1.95887 4.19741 0
M  V30 3825 C 369.847 -2.32051 5.24347 0
M  V30 3826 N 369.343 -2.67006 6.39281 0
M  V30 3827 N 371.136 -2.32606 5.11713 0
M  V30 3828 H 363.287 0.1366 2.1196 0
M  V30 3829 H 365.55 -0.00155736 0.947999 0
M  V30 3830 H 365.256 -0.597242 3.46592 0
M  V30 3831 H 365.13 -2.28469 3.00136 0
M  V30 3832 H 367.517 -2.15286 2.01832 0
M  V30 3833 H 367.598 -0.457059 2.51684 0
M  V30 3834 H 367.242 -1.1759 4.941 0
M  V30 3835 H 367.172 -2.8755 4.4116 0
M  V30 3836 H 369.663 -1.71362 3.36814 0
M  V30 3837 H 369.976 -2.93554 7.14875 0
M  V30 3838 H 368.321 -2.64644 6.42642 0
M  V30 3839 H 371.512 -2.04721 4.2096 0
M  V30 3840 H 371.685 -2.60462 5.93349 0
M  V30 3841 N 365.091 -1.34144 -0.827227 0
M  V30 3842 C 366.337 -1.26446 -1.58554 0
M  V30 3843 C 366.67 0.1664 -1.93486 0
M  V30 3844 O 365.945 1.1107 -1.59667 0
M  V30 3845 C 366.228 -2.15111 -2.8879 0
M  V30 3846 C 366.081 -3.66712 -2.60465 0
M  V30 3847 C 367.4 -2.03311 -3.90324 0
M  V30 3848 H 364.519 -0.46067 -0.575284 0
M  V30 3849 H 367.161 -1.64356 -0.953269 0
M  V30 3850 H 365.311 -1.8291 -3.42748 0
M  V30 3851 H 366.983 -4.09259 -2.1285 0
M  V30 3852 H 365.226 -3.88014 -1.93978 0
M  V30 3853 H 365.897 -4.24112 -3.53317 0
M  V30 3854 H 368.373 -2.31574 -3.45706 0
M  V30 3855 H 367.249 -2.67582 -4.79261 0
M  V30 3856 H 367.51 -1.00879 -4.30437 0
M  V30 3857 N 366.569 1.04691 -1.17803 0
M  V30 3858 C 367.499 2.14494 -0.92275 0
M  V30 3859 C 368.48 1.69546 0.137179 0
M  V30 3860 O 369.665 1.94195 -0.0141108 0
M  V30 3861 C 366.795 3.44491 -0.440803 0
M  V30 3862 C 365.749 4.03031 -1.4405 0
M  V30 3863 C 365.075 5.28432 -0.81631 0
M  V30 3864 C 366.375 4.39932 -2.81527 0
M  V30 3865 H 368.069 2.36107 -1.84103 0
M  V30 3866 H 365.615 1.1347 -0.886599 0
M  V30 3867 H 367.568 4.2066 -0.249602 0
M  V30 3868 H 366.292 3.22546 0.513025 0
M  V30 3869 H 364.951 3.28937 -1.61853 0
M  V30 3870 H 364.599 5.02792 0.144511 0
M  V30 3871 H 364.299 5.68559 -1.48371 0
M  V30 3872 H 365.823 6.07284 -0.635496 0
M  V30 3873 H 367.237 5.07113 -2.67412 0
M  V30 3874 H 365.634 4.9109 -3.44892 0
M  V30 3875 H 366.704 3.50045 -3.35554 0
M  V30 3876 N 368.047 0.979072 1.23499 0
M  V30 3877 C 369.275 0.665202 1.95915 0
M  V30 3878 C 369.69 -0.767571 1.72493 0
M  V30 3879 O 369.047 -1.51635 1.01554 0
M  V30 3880 C 369.098 0.944438 3.48945 0
M  V30 3881 O 368.819 2.3209 3.71572 0
M  V30 3882 C 370.32 0.646336 4.38563 0
M  V30 3883 H 367.54 0.247218 0.623798 0
M  V30 3884 H 370.084 1.31009 1.57025 0
M  V30 3885 H 368.239 0.345575 3.85856 0
M  V30 3886 H 368.653 2.40957 4.65876 0
M  V30 3887 H 370.127 0.892091 5.44744 0
M  V30 3888 H 370.604 -0.419575 4.37191 0
M  V30 3889 H 371.21 1.22562 4.07258 0
M  V30 3890 N 369.525 -1.3858 0.750561 0
M  V30 3891 C 370.455 -2.33102 0.136237 0
M  V30 3892 C 371.436 -1.54713 -0.706965 0
M  V30 3893 O 372.621 -1.83043 -0.648769 0
M  V30 3894 C 369.751 -3.38882 -0.760017 0
M  V30 3895 C 368.705 -4.27995 -0.0197785 0
M  V30 3896 C 368.031 -5.24605 -1.03408 0
M  V30 3897 C 369.331 -5.09554 1.14684 0
M  V30 3898 H 371.025 -2.84726 0.925822 0
M  V30 3899 H 368.571 -1.36898 0.446654 0
M  V30 3900 H 370.524 -4.0397 -1.19943 0
M  V30 3901 H 369.248 -2.85734 -1.58189 0
M  V30 3902 H 367.907 -3.64409 0.400184 0
M  V30 3903 H 367.555 -4.67746 -1.84994 0
M  V30 3904 H 367.255 -5.85081 -0.543464 0
M  V30 3905 H 368.779 -5.9257 -1.47288 0
M  V30 3906 H 370.193 -5.67899 0.785118 0
M  V30 3907 H 368.59 -5.7925 1.56812 0
M  V30 3908 H 369.66 -4.4347 1.96118 0
M  V30 3909 N 371.003 -0.499398 -1.49478 0
M  V30 3910 C 372.228 0.044722 -2.07352 0
M  V30 3911 C 372.653 1.30207 -1.35749 0
M  V30 3912 O 372.011 1.76516 -0.413732 0
M  V30 3913 C 372.059 0.283013 -3.59488 0
M  V30 3914 O 371.163 1.35804 -3.89398 0
M  V30 3915 H 370.504 -0.0255147 -0.66351 0
M  V30 3916 H 373.034 -0.698561 -1.92305 0
M  V30 3917 H 373.044 0.515007 -4.04737 0
M  V30 3918 H 371.719 -0.635636 -4.11014 0
M  V30 3919 H 370.296 1.11113 -3.55961 0
M  V30 3920 N 372.481 1.55866 -0.233164 0
M  V30 3921 C 373.727 1.98897 0.395959 0
M  V30 3922 C 374.06 1.12091 1.58585 0
M  V30 3923 O 373.335 0.181182 1.93654 0
M  V30 3924 C 373.618 3.50658 0.819224 0
M  V30 3925 C 373.471 4.48233 -0.375109 0
M  V30 3926 C 374.79 4.07135 1.67121 0
M  V30 3927 H 371.909 0.723102 0.142451 0
M  V30 3928 H 374.551 1.87082 -0.331725 0
M  V30 3929 H 372.701 3.60857 1.43925 0
M  V30 3930 H 374.373 4.50031 -1.01341 0
M  V30 3931 H 372.616 4.21624 -1.02058 0
M  V30 3932 H 373.287 5.51988 -0.0358328 0
M  V30 3933 H 375.763 3.99952 1.14795 0
M  V30 3934 H 374.639 5.13615 1.93625 0
M  V30 3935 H 374.9 3.54736 2.63846 0
M  V30 3936 N 373.959 -0.0401083 1.57549 0
M  V30 3937 C 375.189 -0.744115 1.92734 0
M  V30 3938 C 375.597 -1.70005 0.830348 0
M  V30 3939 O 374.94 -1.82576 -0.20286 0
M  V30 3940 C 375.002 -1.56516 3.2364 0
M  V30 3941 C 374.666 -0.7752 4.50377 0
M  V30 3942 C 375.663 -0.0803326 5.19838 0
M  V30 3943 C 373.348 -0.733002 4.96923 0
M  V30 3944 C 375.342 0.646154 6.34116 0
M  V30 3945 C 373.029 -0.00276321 6.111 0
M  V30 3946 C 374.027 0.685585 6.7955 0
M  V30 3947 O 373.715 1.40399 7.91545 0
M  V30 3948 H 373.447 -0.214861 0.640945 0
M  V30 3949 H 376.001 -0.00503675 2.05399 0
M  V30 3950 H 374.231 -2.3478 3.07271 0
M  V30 3951 H 375.92 -2.15076 3.44234 0
M  V30 3952 H 376.686 -0.104035 4.84888 0
M  V30 3953 H 372.565 -1.25827 4.43496 0
M  V30 3954 H 376.109 1.18398 6.87479 0
M  V30 3955 H 372.006 0.0229012 6.45496 0
M  V30 3956 H 372.774 1.31653 8.07843 0
M  V30 3957 N 375.437 -1.54477 -0.31217 0
M  V30 3958 C 376.367 -1.87652 -1.38957 0
M  V30 3959 C 377.348 -0.734358 -1.53431 0
M  V30 3960 O 378.533 -0.98911 -1.67123 0
M  V30 3961 C 375.663 -2.11396 -2.75552 0
M  V30 3962 C 374.617 -3.27243 -2.75855 0
M  V30 3963 C 373.943 -3.36382 -4.15633 0
M  V30 3964 C 375.243 -4.64622 -2.38587 0
M  V30 3965 H 376.937 -2.77887 -1.11442 0
M  V30 3966 H 374.483 -1.33707 -0.534655 0
M  V30 3967 H 376.436 -2.33189 -3.51 0
M  V30 3968 H 375.16 -1.17921 -3.04569 0
M  V30 3969 H 373.819 -3.05356 -2.02863 0
M  V30 3970 H 373.467 -2.40445 -4.41809 0
M  V30 3971 H 373.167 -4.14249 -4.1674 0
M  V30 3972 H 374.691 -3.60422 -4.92877 0
M  V30 3973 H 376.105 -4.86219 -3.03749 0
M  V30 3974 H 374.502 -5.45121 -2.50925 0
M  V30 3975 H 375.572 -4.66097 -1.33723 0
M  V30 3976 N 376.915 0.57481 -1.46744 0
M  V30 3977 C 377.825 1.711 -1.60505 0
M  V30 3978 C 378.841 1.67008 -0.488307 0
M  V30 3979 O 380.017 1.86774 -0.753495 0
M  V30 3980 C 377.082 3.07608 -1.59932 0
M  V30 3981 C 376.143 3.22904 -2.82898 0
M  V30 3982 C 375.376 4.529 -2.82343 0
M  V30 3983 O 375.599 5.37278 -1.91542 0
M  V30 3984 O 374.533 4.71611 -3.73987 0
M  V30 3985 H 378.359 1.62436 -2.56609 0
M  V30 3986 H 375.944 0.742779 -1.29627 0
M  V30 3987 H 377.826 3.88877 -1.62336 0
M  V30 3988 H 376.501 3.16692 -0.669898 0
M  V30 3989 H 375.408 2.41099 -2.86046 0
M  V30 3990 H 376.741 3.18715 -3.75076 0
M  V30 3991 N 378.394 1.34581 0.820102 0
M  V30 3992 C 379.671 1.17675 1.56244 0
M  V30 3993 C 380.051 -0.249541 2.0962 0
M  V30 3994 O 379.399 -1.25125 1.91196 0
M  V30 3995 C 379.609 2.23364 2.6816 0
M  V30 3996 C 380.957 2.58485 3.36854 0
M  V30 3997 O 381.981 2.22175 2.78418 0
M  V30 3998 O 380.84 3.20868 4.42386 0
M  V30 3999 H 377.934 0.456333 0.689702 0
M  V30 4000 H 380.48 1.46222 0.861231 0
M  V30 4001 H 379.252 3.19087 2.26493 0
M  V30 4002 H 378.875 1.96009 3.45928 0
M  V30 4003 N 379.872 -1.04064 1.18357 0
M  V30 4004 C 381.102 -1.80654 1.00238 0
M  V30 4005 C 381.51 -1.83713 -0.452362 0
M  V30 4006 O 380.853 -1.27135 -1.32599 0
M  V30 4007 C 380.915 -3.27582 1.48088 0
M  V30 4008 C 380.579 -3.48184 2.96002 0
M  V30 4009 C 381.576 -3.39372 3.93856 0
M  V30 4010 C 379.261 -3.7478 3.34433 0
M  V30 4011 C 381.255 -3.5686 5.28138 0
M  V30 4012 C 378.942 -3.91915 4.68877 0
M  V30 4013 C 379.94 -3.82956 5.65539 0
M  V30 4014 O 379.628 -3.996 6.97549 0
M  V30 4015 H 379.36 -0.575751 0.354241 0
M  V30 4016 H 381.914 -1.32044 1.57333 0
M  V30 4017 H 380.144 -3.77161 0.853588 0
M  V30 4018 H 381.833 -3.8573 1.2636 0
M  V30 4019 H 382.599 -3.18789 3.65511 0
M  V30 4020 H 378.478 -3.80852 2.59756 0
M  V30 4021 H 382.022 -3.49783 6.03571 0
M  V30 4022 H 377.919 -4.11992 4.96923 0
M  V30 4023 H 378.687 -4.1676 7.04452 0
M  V30 4024 N 381.35 -0.985608 -1.22978 0
M  V30 4025 C 382.28 -0.549649 -2.26939 0
M  V30 4026 C 383.261 0.419803 -1.64838 0
M  V30 4027 O 384.446 0.31203 -1.91677 0
M  V30 4028 C 381.576 0.143652 -3.47003 0
M  V30 4029 C 380.53 -0.743606 -4.21491 0
M  V30 4030 C 379.856 0.0822027 -5.34637 0
M  V30 4031 C 381.156 -2.03694 -4.80943 0
M  V30 4032 H 382.85 -1.41862 -2.63658 0
M  V30 4033 H 380.396 -0.683571 -1.26741 0
M  V30 4034 H 382.349 0.459985 -4.18882 0
M  V30 4035 H 381.073 1.04711 -3.09359 0
M  V30 4036 H 379.732 -1.04347 -3.51436 0
M  V30 4037 H 379.38 0.986359 -4.93234 0
M  V30 4038 H 379.08 -0.508377 -5.85397 0
M  V30 4039 H 380.604 0.392797 -6.09335 0
M  V30 4040 H 382.018 -1.78504 -5.44802 0
M  V30 4041 H 380.415 -2.57573 -5.42011 0
M  V30 4042 H 381.485 -2.72042 -4.01399 0
M  V30 4043 N 382.828 1.3818 -0.7579 0
M  V30 4044 C 384.076 1.99624 -0.315361 0
M  V30 4045 C 384.397 1.60464 1.10799 0
M  V30 4046 O 383.667 0.863507 1.75842 0
M  V30 4047 H 382.247 0.73831 -0.113611 0
M  V30 4048 H 384.909 1.68878 -0.972952 0
M  V30 4049 H 384.005 3.09754 -0.381931 0
M  V30 4050 N 384.306 0.507319 1.49211 0
M  V30 4051 C 385.552 -0.0350047 2.0277 0
M  V30 4052 C 385.885 -1.3606 1.38569 0
M  V30 4053 O 385.16 -1.87321 0.523542 0
M  V30 4054 C 385.443 -0.180916 3.59645 0
M  V30 4055 C 385.296 1.16825 4.34364 0
M  V30 4056 C 386.615 -0.918558 4.30407 0
M  V30 4057 H 383.734 -0.0112473 0.736914 0
M  V30 4058 H 386.376 0.659956 1.7817 0
M  V30 4059 H 384.526 -0.772826 3.80736 0
M  V30 4060 H 386.198 1.79952 4.24753 0
M  V30 4061 H 384.441 1.75594 3.96673 0
M  V30 4062 H 385.112 1.01939 5.42506 0
M  V30 4063 H 387.588 -0.41649 4.1401 0
M  V30 4064 H 386.464 -0.989505 5.39907 0
M  V30 4065 H 386.725 -1.96373 3.96093 0
M  V30 4066 N 385.784 -1.5574 0.241426 0
M  V30 4067 C 386.731 -2.21149 -0.660432 0
M  V30 4068 C 387.701 -1.17356 -1.17545 0
M  V30 4069 O 388.886 -1.45784 -1.23093 0
M  V30 4070 C 386.026 -2.91059 -1.85414 0
M  V30 4071 C 385.139 -4.09495 -1.37616 0
M  V30 4072 C 384.274 -4.67135 -2.529 0
M  V30 4073 C 383.313 -5.77831 -2.01936 0
M  V30 4074 N 382.45 -6.29677 -3.10566 0
M  V30 4075 H 387.29 -2.97845 -0.095955 0
M  V30 4076 H 384.827 -1.47057 -0.0356024 0
M  V30 4077 H 386.785 -3.29788 -2.5553 0
M  V30 4078 H 385.415 -2.16846 -2.39118 0
M  V30 4079 H 384.467 -3.76117 -0.569235 0
M  V30 4080 H 385.779 -4.89423 -0.962618 0
M  V30 4081 H 384.933 -5.08409 -3.31067 0
M  V30 4082 H 383.672 -3.86411 -2.97553 0
M  V30 4083 H 382.677 -5.36039 -1.22238 0
M  V30 4084 H 383.902 -6.60402 -1.58259 0
M  V30 4085 H 381.848 -5.5186 -3.54664 0
M  V30 4086 H 381.765 -7.04783 -2.73526 0
M  V30 4087 H 383.033 -6.75609 -3.88809 0
M  V30 4088 N 387.262 0.0317525 -1.57568 0
M  V30 4089 C 388.539 0.758366 -1.803 0
M  V30 4090 C 388.919 1.93718 -0.838845 0
M  V30 4091 O 388.267 2.28187 0.119571 0
M  V30 4092 C 388.477 1.19392 -3.27943 0
M  V30 4093 C 389.825 1.61094 -3.92854 0
M  V30 4094 O 390.849 1.28857 -3.32076 0
M  V30 4095 O 389.708 2.20918 -4.99858 0
M  V30 4096 H 386.802 0.366514 -0.741348 0
M  V30 4097 H 389.348 0.00873765 -1.69698 0
M  V30 4098 H 388.12 0.352275 -3.89711 0
M  V30 4099 H 387.743 2.00365 -3.43424 0
M  V30 4100 N 388.74 1.54641 0.303973 0
M  V30 4101 C 389.67 1.88386 1.3796 0
M  V30 4102 C 390.651 0.742485 1.5304 0
M  V30 4103 O 391.836 0.997959 1.66597 0
M  V30 4104 C 388.966 2.12854 2.74427 0
M  V30 4105 C 387.92 3.28702 2.74115 0
M  V30 4106 C 387.246 3.38582 4.13844 0
M  V30 4107 C 388.546 4.65881 2.3612 0
M  V30 4108 H 390.24 2.78474 1.09966 0
M  V30 4109 H 387.786 1.33988 0.527556 0
M  V30 4110 H 389.739 2.35047 3.49758 0
M  V30 4111 H 388.463 1.19535 3.03939 0
M  V30 4112 H 387.122 3.06428 2.0124 0
M  V30 4113 H 386.77 2.42784 4.40528 0
M  V30 4114 H 386.47 4.16453 4.14537 0
M  V30 4115 H 387.994 3.63031 4.90959 0
M  V30 4116 H 389.408 4.87823 3.01167 0
M  V30 4117 H 387.805 5.46444 2.48031 0
M  V30 4118 H 388.875 4.66799 1.3125 0
M  V30 4119 N 390.218 -0.567019 1.47046 0
M  V30 4120 C 391.458 -1.3355 1.54738 0
M  V30 4121 C 391.822 -1.90947 0.200772 0
M  V30 4122 O 393.023 -2.68367 0.152489 0
M  V30 4123 C 391.294 -2.42317 2.62712 0
M  V30 4124 S 392.853 -3.29383 2.89918 0
M  V30 4125 H 389.671 -0.454788 0.546525 0
M  V30 4126 H 392.273 -0.650191 1.84371 0
M  V30 4127 H 390.977 -1.98568 3.59164 0
M  V30 4128 H 390.508 -3.15601 2.34861 0
M  V30 4129 H 392.523 -4.41548 2.26384 0
M  V30 4130 N 391.696 -1.35014 -0.812953 0
M  V30 4131 C 392.945 -1.27269 -1.56479 0
M  V30 4132 C 393.258 0.152771 -1.95002 0
M  V30 4133 O 394.464 0.352451 -2.69203 0
M  V30 4134 C 392.92 -2.23159 -2.82362 0
M  V30 4135 C 392.528 -3.71016 -2.511 0
M  V30 4136 C 394.272 -2.24342 -3.60376 0
M  V30 4137 C 392.179 -4.58746 -3.73237 0
M  V30 4138 H 391.109 -0.472829 -0.587324 0
M  V30 4139 H 393.76 -1.6024 -0.894171 0
M  V30 4140 H 392.142 -1.83151 -3.51101 0
M  V30 4141 H 393.316 -4.1962 -1.90409 0
M  V30 4142 H 391.631 -3.72378 -1.86343 0
M  V30 4143 H 394.228 -2.87107 -4.51081 0
M  V30 4144 H 394.571 -1.24542 -3.97234 0
M  V30 4145 H 395.104 -2.62846 -2.98591 0
M  V30 4146 H 391.843 -5.59521 -3.41492 0
M  V30 4147 H 391.363 -4.14871 -4.33176 0
M  V30 4148 H 393.042 -4.73852 -4.40537 0
M  V30 4149 N 393.175 1.03435 -1.18907 0
M  V30 4150 C 394.4 1.80919 -1.01406 0
M  V30 4151 C 394.825 1.83055 0.432721 0
M  V30 4152 O 394.183 1.25252 1.31079 0
M  V30 4153 C 394.231 3.24091 -1.58105 0
M  V30 4154 O 393.335 4.04434 -0.806669 0
M  V30 4155 H 392.676 0.558709 -0.358803 0
M  V30 4156 H 395.206 1.30223 -1.57807 0
M  V30 4157 H 395.216 3.74853 -1.61087 0
M  V30 4158 H 393.891 3.21851 -2.6341 0
M  V30 4159 H 392.468 3.63091 -0.849666 0
M  V30 4160 N 394.653 0.992116 1.22453 0
M  V30 4161 C 395.899 0.668523 1.91464 0
M  V30 4162 C 396.232 -0.797313 1.77078 0
M  V30 4163 O 395.507 -1.5765 1.13916 0
M  V30 4164 C 395.79 1.07424 3.43703 0
M  V30 4165 C 395.643 2.59857 3.67143 0
M  V30 4166 C 396.962 0.626891 4.35612 0
M  V30 4167 H 394.081 0.244341 0.695318 0
M  V30 4168 H 396.723 1.2355 1.44345 0
M  V30 4169 H 394.873 0.591816 3.83966 0
M  V30 4170 H 396.545 3.15764 3.3629 0
M  V30 4171 H 394.788 3.01961 3.11451 0
M  V30 4172 H 395.459 2.83296 4.73759 0
M  V30 4173 H 397.935 1.04125 4.02861 0
M  V30 4174 H 396.811 0.939076 5.40807 0
M  V30 4175 H 397.072 -0.472457 4.39568 0
M  V30 4176 N 396.131 -1.37776 0.765217 0
M  V30 4177 C 397.542 -1.82521 0.392819 0
M  V30 4178 C 397.893 -1.63789 -1.08017 0
M  V30 4179 O 397.018 -1.14542 -1.83601 0
M  V30 4180 C 397.613 -3.31358 0.706214 0
M  V30 4181 C 396.172 -3.74406 0.386952 0
M  V30 4182 C 395.319 -2.60394 0.953422 0
M  V30 4183 H 398.27 -1.2634 0.960412 0
M  V30 4184 H 398.291 -3.80498 -0.0114706 0
M  V30 4185 H 397.803 -3.44959 1.77833 0
M  V30 4186 H 395.904 -3.66377 -0.678112 0
M  V30 4187 H 396.017 -4.70749 0.890636 0
M  V30 4188 H 394.381 -2.51878 0.378064 0
M  V30 4189 H 395.164 -2.76791 2.03081 0
M  V30 4190 N 397.609 -0.515225 -1.4894 0
M  V30 4191 C 398.855 0.0242508 -2.02785 0
M  V30 4192 C 399.188 1.35323 -1.39289 0
M  V30 4193 O 398.463 1.87041 -0.533469 0
M  V30 4194 C 398.746 0.16184 -3.59736 0
M  V30 4195 C 398.599 -1.19127 -4.33738 0
M  V30 4196 C 399.918 0.895719 -4.30888 0
M  V30 4197 H 397.037 0.00733914 -0.736963 0
M  V30 4198 H 399.679 -0.669395 -1.77818 0
M  V30 4199 H 397.829 0.752624 -3.8114 0
M  V30 4200 H 399.501 -1.82202 -4.23792 0
M  V30 4201 H 397.744 -1.77695 -3.95736 0
M  V30 4202 H 398.415 -1.04815 -5.41957 0
M  V30 4203 H 400.891 0.394528 -4.14225 0
M  V30 4204 H 399.767 0.960859 -5.40425 0
M  V30 4205 H 400.028 1.9427 -3.97129 0
M  V30 4206 N 399.087 1.5561 -0.249682 0
M  V30 4207 C 400.315 2.03411 0.378352 0
M  V30 4208 C 400.73 1.12886 1.51335 0
M  V30 4209 O 400.087 0.143833 1.81932 0
M  V30 4210 C 400.138 3.50537 0.88351 0
M  V30 4211 O 399.859 4.37614 -0.20626 0
M  V30 4212 C 401.36 4.14113 1.58195 0
M  V30 4213 H 398.58 0.664994 0.08958 0
M  V30 4214 H 401.124 2.01044 -0.374357 0
M  V30 4215 H 399.279 3.5343 1.58639 0
M  V30 4216 H 399.693 5.24199 0.177782 0
M  V30 4217 H 401.167 5.18741 1.8871 0
M  V30 4218 H 401.644 3.60767 2.50487 0
M  V30 4219 H 402.25 4.15151 0.923573 0
M  V30 4220 N 400.565 -0.0233959 1.57583 0
M  V30 4221 C 401.495 -1.02162 2.09965 0
M  V30 4222 C 402.476 -1.3735 1.00344 0
M  V30 4223 O 403.661 -1.46135 1.27899 0
M  V30 4224 C 400.791 -2.32081 2.58371 0
M  V30 4225 C 399.745 -2.1112 3.72307 0
M  V30 4226 C 399.071 -3.46848 4.06941 0
M  V30 4227 C 400.371 -1.49276 5.00514 0
M  V30 4228 H 402.065 -0.585557 2.93618 0
M  V30 4229 H 399.611 -0.280218 1.41247 0
M  V30 4230 H 401.564 -3.02249 2.93639 0
M  V30 4231 H 400.288 -2.77758 1.71808 0
M  V30 4232 H 398.947 -1.43384 3.37397 0
M  V30 4233 H 398.595 -3.90184 3.17436 0
M  V30 4234 H 398.295 -3.33646 4.83688 0
M  V30 4235 H 399.819 -4.18369 4.44747 0
M  V30 4236 H 401.233 -2.09368 5.33702 0
M  V30 4237 H 399.63 -1.46632 5.8191 0
M  V30 4238 H 400.7 -0.459217 4.82721 0
M  V30 4239 N 402.043 -1.548 -0.295768 0
M  V30 4240 C 403.291 -1.73985 -1.02828 0
M  V30 4241 C 403.612 -0.531406 -1.87619 0
M  V30 4242 O 402.882 0.454221 -1.90561 0
M  V30 4243 H 401.462 -0.641556 -0.382642 0
M  V30 4244 H 404.124 -1.92163 -0.325489 0
M  V30 4245 H 403.22 -2.63129 -1.67838 0
M  V30 4246 N 403.521 0.559213 -1.47345 0
M  V30 4247 C 404.468 1.66645 -1.59682 0
M  V30 4248 C 405.438 1.60168 -0.43994 0
M  V30 4249 O 406.623 1.79031 -0.659736 0
M  V30 4250 C 403.763 3.04969 -1.61518 0
M  V30 4251 C 402.876 3.21897 -2.88108 0
M  V30 4252 C 402.011 4.50608 -2.81294 0
M  V30 4253 C 401.05 4.60961 -4.02717 0
M  V30 4254 N 400.187 5.81024 -3.94151 0
M  V30 4255 H 405.027 1.55439 -2.54249 0
M  V30 4256 H 402.564 0.757219 -1.26113 0
M  V30 4257 H 404.522 3.85064 -1.60566 0
M  V30 4258 H 403.152 3.15015 -0.704645 0
M  V30 4259 H 402.204 2.35248 -2.98936 0
M  V30 4260 H 403.516 3.25412 -3.78032 0
M  V30 4261 H 402.67 5.3896 -2.7858 0
M  V30 4262 H 401.409 4.49568 -1.89049 0
M  V30 4263 H 400.414 3.71021 -4.05738 0
M  V30 4264 H 401.639 4.63761 -4.96087 0
M  V30 4265 H 399.585 5.80938 -3.04708 0
M  V30 4266 H 399.502 5.85909 -4.77752 0
M  V30 4267 H 400.77 6.71744 -3.9545 0
M  V30 4268 N 404.999 1.35443 0.805782 0
M  V30 4269 C 405.949 1.24972 1.90699 0
M  V30 4270 C 406.933 0.144806 1.60247 0
M  V30 4271 O 408.125 0.376102 1.72958 0
M  V30 4272 C 405.254 1.02475 3.27649 0
M  V30 4273 C 404.34 2.17361 3.64164 0
M  V30 4274 N 404.731 3.42591 3.72109 0
M  V30 4275 C 403.029 2.08765 3.94123 0
M  V30 4276 C 403.73 4.18144 4.04389 0
M  V30 4277 N 402.706 3.4691 4.18515 0
M  V30 4278 H 406.508 2.19852 1.95044 0
M  V30 4279 H 404.022 1.27928 1.00041 0
M  V30 4280 H 406.019 0.930617 4.06381 0
M  V30 4281 H 404.679 0.0848009 3.24589 0
M  V30 4282 H 405.69 3.76932 3.55166 0
M  V30 4283 H 402.367 1.22629 3.99084 0
M  V30 4284 H 403.757 5.26367 4.17597 0
M  V30 4285 N 406.477 -1.02803 1.19454 0
M  V30 4286 C 407.725 -1.75869 0.995722 0
M  V30 4287 C 408.046 -1.89138 -0.474543 0
M  V30 4288 O 407.316 -1.42558 -1.34366 0
M  V30 4289 H 405.896 -0.651511 0.365435 0
M  V30 4290 H 408.558 -1.24004 1.50363 0
M  V30 4291 H 407.654 -2.76661 1.44447 0
M  V30 4292 N 407.956 -0.998596 -1.21925 0
M  V30 4293 C 409.202 -0.678667 -1.91107 0
M  V30 4294 C 409.535 0.78791 -1.77498 0
M  V30 4295 O 408.81 1.57043 -1.1475 0
M  V30 4296 C 409.093 -1.09245 -3.43129 0
M  V30 4297 C 408.946 -2.61801 -3.6576 0
M  V30 4298 C 410.265 -0.649984 -4.35274 0
M  V30 4299 H 407.384 -0.248025 -0.694012 0
M  V30 4300 H 410.026 -1.24314 -1.43688 0
M  V30 4301 H 408.176 -0.612171 -3.83647 0
M  V30 4302 H 409.848 -3.17543 -3.34611 0
M  V30 4303 H 408.091 -3.03609 -3.09845 0
M  V30 4304 H 408.762 -2.85804 -4.7225 0
M  V30 4305 H 411.238 -1.0626 -4.02303 0
M  V30 4306 H 410.114 -0.967743 -5.40302 0
M  V30 4307 H 410.375 0.449139 -4.39813 0
M  V30 4308 N 409.434 1.37368 -0.772513 0
M  V30 4309 C 410.344 2.34053 -0.160081 0
M  V30 4310 C 411.36 1.60216 0.678728 0
M  V30 4311 O 412.536 1.92303 0.59847 0
M  V30 4312 C 409.601 3.3939 0.708182 0
M  V30 4313 C 408.662 4.29048 -0.147172 0
M  V30 4314 C 407.895 5.29354 0.679744 0
M  V30 4315 O 408.118 5.3723 1.91678 0
M  V30 4316 O 407.052 6.01835 0.0885444 0
M  V30 4317 H 410.878 2.88159 -0.959053 0
M  V30 4318 H 408.463 1.39543 -0.533685 0
M  V30 4319 H 410.345 4.03839 1.20384 0
M  V30 4320 H 409.02 2.8761 1.48533 0
M  V30 4321 H 407.927 3.67697 -0.689205 0
M  V30 4322 H 409.26 4.84134 -0.887423 0
M  V30 4323 N 410.912 0.523116 1.48665 0
M  V30 4324 C 412.328 0.180511 1.58576 0
M  V30 4325 C 412.528 -1.31597 1.52592 0
M  V30 4326 O 411.584 -2.0937 1.4114 0
M  V30 4327 C 412.897 0.776949 2.90489 0
M  V30 4328 C 414.445 0.745058 3.04003 0
M  V30 4329 C 414.92 1.31995 4.38567 0
M  V30 4330 N 416.411 1.28162 4.45117 0
M  V30 4331 C 417.146 1.6964 5.47731 0
M  V30 4332 N 416.642 2.18816 6.57337 0
M  V30 4333 N 418.435 1.6092 5.38573 0
M  V30 4334 H 410.586 1.4958 1.50797 0
M  V30 4335 H 412.849 0.621772 0.715614 0
M  V30 4336 H 412.555 1.82732 3.00503 0
M  V30 4337 H 412.429 0.25007 3.7637 0
M  V30 4338 H 414.816 -0.296532 2.93606 0
M  V30 4339 H 414.897 1.30933 2.1975 0
M  V30 4340 H 414.541 2.36043 4.49718 0
M  V30 4341 H 414.471 0.731418 5.21496 0
M  V30 4342 H 416.962 0.92155 3.66491 0
M  V30 4343 H 417.275 2.48478 7.31764 0
M  V30 4344 H 415.62 2.22805 6.58318 0
M  V30 4345 H 418.811 1.22304 4.5184 0
M  V30 4346 H 418.984 1.93567 6.18414 0
M  V30 4347 N 412.39 -1.55475 0.257931 0
M  V30 4348 C 413.639 -1.98383 -0.364275 0
M  V30 4349 C 413.952 -1.14952 -1.58258 0
M  V30 4350 O 415.158 -1.47924 -2.27664 0
M  V30 4351 C 413.614 -3.53037 -0.699479 0
M  V30 4352 C 413.222 -4.45223 0.498046 0
M  V30 4353 C 414.966 -4.04575 -1.28526 0
M  V30 4354 C 412.873 -5.91238 0.138383 0
M  V30 4355 H 411.803 -0.740911 -0.13988 0
M  V30 4356 H 414.454 -1.79936 0.359883 0
M  V30 4357 H 412.836 -3.6722 -1.48207 0
M  V30 4358 H 414.01 -4.42803 1.27522 0
M  V30 4359 H 412.325 -4.04226 0.999503 0
M  V30 4360 H 414.922 -5.11196 -1.56788 0
M  V30 4361 H 415.265 -3.5258 -2.21344 0
M  V30 4362 H 415.798 -3.93762 -0.565337 0
M  V30 4363 H 412.537 -6.47294 1.03398 0
M  V30 4364 H 412.057 -5.96768 -0.602374 0
M  V30 4365 H 413.736 -6.46413 -0.27553 0
M  V30 4366 N 413.868 0.0150385 -1.57593 0
M  V30 4367 C 414.798 1.01047 -2.10503 0
M  V30 4368 C 415.779 1.36816 -1.01071 0
M  V30 4369 O 416.964 1.45455 -1.28672 0
M  V30 4370 C 414.094 2.30708 -2.59598 0
M  V30 4371 C 413.048 2.09142 -3.73421 0
M  V30 4372 C 412.374 3.44685 -4.08774 0
M  V30 4373 C 413.674 1.46619 -5.01298 0
M  V30 4374 H 415.368 0.569978 -2.93925 0
M  V30 4375 H 412.914 0.272724 -1.41394 0
M  V30 4376 H 414.867 3.00687 -2.95238 0
M  V30 4377 H 413.591 2.76843 -1.73279 0
M  V30 4378 H 412.25 1.41592 -3.38153 0
M  V30 4379 H 411.898 3.88495 -3.195 0
M  V30 4380 H 411.598 3.31077 -4.8545 0
M  V30 4381 H 413.122 4.16004 -4.4696 0
M  V30 4382 H 414.536 2.06535 -5.34805 0
M  V30 4383 H 412.933 1.43544 -5.82679 0
M  V30 4384 H 414.003 0.433611 -4.82957 0
M  V30 4385 N 415.346 1.54954 0.287554 0
M  V30 4386 C 416.256 1.8991 1.37736 0
M  V30 4387 C 417.272 0.794701 1.54792 0
M  V30 4388 O 418.448 1.09243 1.69198 0
M  V30 4389 C 415.513 2.15108 2.71899 0
M  V30 4390 C 414.574 3.38752 2.63715 0
M  V30 4391 C 413.807 3.62739 3.91479 0
M  V30 4392 O 414.03 2.89492 4.91478 0
M  V30 4393 O 412.964 4.56267 3.92561 0
M  V30 4394 H 416.79 2.82652 1.11092 0
M  V30 4395 H 414.375 1.41315 0.484807 0
M  V30 4396 H 416.257 2.32806 3.51254 0
M  V30 4397 H 414.932 1.25551 2.9836 0
M  V30 4398 H 413.839 3.26405 1.82786 0
M  V30 4399 H 415.172 4.28483 2.42205 0
M  V30 4400 N 416.824 -0.551391 1.4764 0
M  V30 4401 C 417.754 -1.66757 1.63445 0
M  V30 4402 C 418.735 -1.63077 0.483742 0
M  V30 4403 O 419.92 -1.80607 0.71377 0
M  V30 4404 C 417.05 -3.05387 1.65396 0
M  V30 4405 C 416.004 -3.23918 2.79752 0
M  V30 4406 C 415.33 -4.63393 2.66779 0
M  V30 4407 C 416.63 -3.08735 4.21284 0
M  V30 4408 H 418.324 -1.53786 2.56886 0
M  V30 4409 H 415.87 -0.738415 1.23626 0
M  V30 4410 H 417.823 -3.83325 1.75043 0
M  V30 4411 H 416.547 -3.19332 0.685195 0
M  V30 4412 H 415.206 -2.48391 2.69625 0
M  V30 4413 H 414.854 -4.74144 1.67918 0
M  V30 4414 H 414.554 -4.7674 3.43501 0
M  V30 4415 H 416.078 -5.43458 2.78364 0
M  V30 4416 H 417.492 -3.76484 4.32357 0
M  V30 4417 H 415.889 -3.33588 4.98838 0
M  V30 4418 H 416.959 -2.0541 4.39243 0
M  V30 4419 N 418.302 -1.35869 -0.798587 0
M  V30 4420 C 419.25 -1.29491 -1.93222 0
M  V30 4421 C 420.244 -0.18836 -1.6835 0
M  V30 4422 O 421.45 -0.354822 -1.76468 0
M  V30 4423 H 417.825 -0.402901 -0.63496 0
M  V30 4424 H 419.796 -2.25247 -1.9572 0
M  V30 4425 C 418.545 -1.09184 -3.30112 0
M  V30 4426 H 417.868 -1.93574 -3.49813 0
M  V30 4427 H 419.308 -1.08766 -4.09812 0
M  V30 4428 C 417.767 0.203959 -3.36282 0
M  V30 4429 O 418.297 1.19699 -3.83451 0
M  V30 4430 N 416.503 0.245488 -2.89561 0
M  V30 4431 H 416.05 -0.563223 -2.51367 0
M  V30 4432 H 416.008 1.11219 -2.94071 0
M  V30 4433 N 419.78 1.02168 -1.19998 0
M  V30 4434 C 420.71 2.12488 -0.96804 0
M  V30 4435 C 421.691 1.69799 0.101185 0
M  V30 4436 O 422.876 1.94121 -0.0552993 0
M  V30 4437 C 420.006 3.43479 -0.513776 0
M  V30 4438 C 418.96 3.99884 -1.52566 0
M  V30 4439 C 418.286 5.26582 -0.928214 0
M  V30 4440 C 419.586 4.33861 -2.90795 0
M  V30 4441 H 421.28 2.32149 -1.89069 0
M  V30 4442 H 418.826 1.11564 -0.910468 0
M  V30 4443 H 420.779 4.20036 -0.338774 0
M  V30 4444 H 419.503 3.23561 0.444493 0
M  V30 4445 H 418.162 3.25429 -1.68794 0
M  V30 4446 H 417.81 5.02986 0.0378289 0
M  V30 4447 H 417.51 5.65284 -1.60397 0
M  V30 4448 H 419.034 6.05799 -0.764167 0
M  V30 4449 H 420.448 5.01327 -2.78109 0
M  V30 4450 H 418.845 4.83664 -3.55231 0
M  V30 4451 H 419.915 3.42848 -3.42904 0
M  V30 4452 N 421.258 1.00505 1.21394 0
M  V30 4453 C 422.206 0.558623 2.25792 0
M  V30 4454 C 423.2 -0.396848 1.64686 0
M  V30 4455 O 424.406 -0.268035 1.77993 0
M  V30 4456 H 420.781 0.1623 0.734277 0
M  V30 4457 H 422.752 1.4503 2.60785 0
M  V30 4458 C 421.501 -0.0989574 3.47559 0
M  V30 4459 H 420.824 0.627225 3.94849 0
M  V30 4460 H 422.264 -0.3746 4.22342 0
M  V30 4461 C 420.723 -1.33817 3.09184 0
M  V30 4462 O 421.253 -2.43252 3.19674 0
M  V30 4463 N 419.459 -1.21793 2.63846 0
M  V30 4464 H 419.006 -0.32746 2.5551 0
M  V30 4465 H 418.964 -2.04809 2.38539 0
M  V30 4466 N 422.737 -1.36956 0.779787 0
M  V30 4467 C 423.647 -2.33965 0.172491 0
M  V30 4468 C 424.663 -1.60574 -0.670222 0
M  V30 4469 O 425.839 -1.92617 -0.588263 0
M  V30 4470 C 422.904 -3.39761 -0.690173 0
M  V30 4471 C 421.965 -4.28964 0.169924 0
M  V30 4472 C 421.198 -5.29707 -0.651662 0
M  V30 4473 O 421.421 -5.38238 -1.88827 0
M  V30 4474 O 420.355 -6.01873 -0.0566264 0
M  V30 4475 H 424.181 -2.87647 0.974321 0
M  V30 4476 H 421.766 -1.39258 0.541078 0
M  V30 4477 H 423.648 -4.04471 -1.1824 0
M  V30 4478 H 422.323 -2.88394 -1.47006 0
M  V30 4479 H 421.23 -3.67326 0.708696 0
M  V30 4480 H 422.563 -4.83656 0.913085 0
M  V30 4481 N 424.215 -0.530993 -1.48385 0
M  V30 4482 C 425.125 0.23503 -2.3342 0
M  V30 4483 C 426.141 0.93801 -1.46552 0
M  V30 4484 O 427.317 0.912745 -1.7953 0
M  V30 4485 C 424.382 1.26778 -3.22689 0
M  V30 4486 C 423.443 0.575038 -4.25431 0
M  V30 4487 C 422.676 1.55858 -5.10435 0
M  V30 4488 O 422.899 2.79129 -4.97437 0
M  V30 4489 O 421.833 1.09742 -5.91811 0
M  V30 4490 H 425.659 -0.461794 -3.00169 0
M  V30 4491 H 423.244 -0.291903 -1.46521 0
M  V30 4492 H 425.126 1.86457 -3.77904 0
M  V30 4493 H 423.801 1.94699 -2.586 0
M  V30 4494 H 422.708 -0.0622782 -3.74048 0
M  V30 4495 H 424.041 -0.062253 -4.92161 0
M  V30 4496 N 425.693 1.55336 -0.266172 0
M  V30 4497 C 426.603 2.2583 0.635458 0
M  V30 4498 C 427.619 1.28106 1.17749 0
M  V30 4499 O 428.795 1.61024 1.20968 0
M  V30 4500 C 425.86 2.95879 1.80712 0
M  V30 4501 C 424.921 4.09059 1.30265 0
M  V30 4502 C 424.154 4.75759 2.41846 0
M  V30 4503 O 424.377 4.41622 3.61007 0
M  V30 4504 O 423.311 5.63888 2.1051 0
M  V30 4505 H 427.137 3.03631 0.0646693 0
M  V30 4506 H 424.722 1.49361 -0.0339177 0
M  V30 4507 H 426.604 3.39932 2.49047 0
M  V30 4508 H 425.279 2.21002 2.36516 0
M  V30 4509 H 424.186 3.69482 0.586019 0
M  V30 4510 H 425.519 4.85811 0.790458 0
M  V30 4511 N 427.171 -0.0066808 1.57599 0
M  V30 4512 C 428.101 -0.999296 2.11036 0
M  V30 4513 C 429.082 -1.36278 1.01795 0
M  V30 4514 O 430.267 -1.4477 1.29442 0
M  V30 4515 C 427.397 -2.29328 2.60818 0
M  V30 4516 C 426.351 -2.07159 3.74525 0
M  V30 4517 C 425.677 -3.42512 4.10596 0
M  V30 4518 C 426.977 -1.43959 5.02069 0
M  V30 4519 H 428.671 -0.554382 2.94223 0
M  V30 4520 H 426.217 -0.265221 1.41536 0
M  V30 4521 H 428.17 -2.99117 2.96828 0
M  V30 4522 H 426.894 -2.7592 1.74745 0
M  V30 4523 H 425.553 -1.39797 3.38899 0
M  V30 4524 H 425.201 -3.86795 3.21556 0
M  V30 4525 H 424.901 -3.28498 4.87199 0
M  V30 4526 H 426.425 -4.13628 4.4916 0
M  V30 4527 H 427.839 -2.03696 5.35893 0
M  V30 4528 H 426.236 -1.40452 5.83432 0
M  V30 4529 H 427.306 -0.407992 4.83181 0
M  V30 4530 N 428.649 -1.55105 -0.279332 0
M  V30 4531 C 429.559 -1.90638 -1.36727 0
M  V30 4532 C 430.575 -0.802899 -1.54368 0
M  V30 4533 O 431.751 -1.10138 -1.68616 0
M  V30 4534 C 428.816 -2.16547 -2.70755 0
M  V30 4535 C 427.877 -3.40146 -2.61915 0
M  V30 4536 C 427.11 -3.6481 -3.8955 0
M  V30 4537 O 427.333 -2.92095 -4.89935 0
M  V30 4538 O 426.267 -4.58343 -3.90135 0
M  V30 4539 H 430.093 -2.83237 -1.09591 0
M  V30 4540 H 427.678 -1.4157 -0.477306 0
M  V30 4541 H 429.56 -2.34665 -3.50014 0
M  V30 4542 H 428.235 -1.27131 -2.9769 0
M  V30 4543 H 427.142 -3.2737 -1.81052 0
M  V30 4544 H 428.475 -4.29761 -2.3993 0
M  V30 4545 N 430.127 0.543554 -1.4793 0
M  V30 4546 C 431.09 1.63156 -1.60975 0
M  V30 4547 C 432.09 1.53346 -0.483899 0
M  V30 4548 O 433.28 1.5726 -0.749339 0
M  V30 4549 C 430.412 3.02743 -1.56716 0
M  V30 4550 H 431.605 1.52934 -2.57975 0
M  V30 4551 H 429.158 0.764557 -1.36324 0
M  V30 4552 H 429.893 3.18484 -0.611418 0
M  V30 4553 H 429.678 3.11272 -2.38438 0
M  V30 4554 H 431.168 3.81871 -1.6901 0
M  V30 4555 N 431.605 1.3629 0.791371 0
M  V30 4556 C 432.852 1.30412 1.54916 0
M  V30 4557 C 433.18 -0.117162 1.94147 0
M  V30 4558 O 432.435 -1.08599 1.62803 0
M  V30 4559 C 432.734 2.17068 2.8393 0
M  V30 4560 C 432.4 3.65645 2.63846 0
M  V30 4561 C 431.062 4.0614 2.58077 0
M  V30 4562 C 433.414 4.59855 2.45322 0
M  V30 4563 C 430.742 5.3899 2.31748 0
M  V30 4564 C 433.094 5.9292 2.2052 0
M  V30 4565 C 431.758 6.32542 2.13183 0
M  V30 4566 H 431.028 0.47721 0.566879 0
M  V30 4567 H 433.675 1.68325 0.913172 0
M  V30 4568 H 431.98 1.72085 3.51986 0
M  V30 4569 H 433.677 2.09846 3.4171 0
M  V30 4570 H 430.267 3.33518 2.69191 0
M  V30 4571 H 434.451 4.29443 2.48782 0
M  V30 4572 H 429.707 5.68672 2.24548 0
M  V30 4573 H 433.881 6.65487 2.05182 0
M  V30 4574 H 431.508 7.35412 1.92544 0
M  V30 4575 N 433.083 -1.0153 1.20538 0
M  V30 4576 C 434.499 -1.27461 0.96051 0
M  V30 4577 C 434.699 -1.98273 -0.359193 0
M  V30 4578 O 433.755 -2.27886 -1.0874 0
M  V30 4579 C 435.068 -2.10837 2.14402 0
M  V30 4580 C 436.616 -2.24099 2.18515 0
M  V30 4581 C 437.091 -3.10852 3.36355 0
M  V30 4582 N 438.582 -3.18441 3.36377 0
M  V30 4583 C 439.317 -3.85795 4.24205 0
M  V30 4584 N 438.813 -4.55264 5.22213 0
M  V30 4585 N 440.606 -3.82331 4.12043 0
M  V30 4586 H 432.757 -0.539907 2.05423 0
M  V30 4587 H 435.02 -0.30092 0.898972 0
M  V30 4588 H 434.726 -1.66144 3.09983 0
M  V30 4589 H 434.6 -3.11576 2.12604 0
M  V30 4590 H 436.987 -2.68016 1.23497 0
M  V30 4591 H 437.068 -1.22865 2.24361 0
M  V30 4592 H 436.712 -2.6764 4.31661 0
M  V30 4593 H 436.642 -4.12177 3.27746 0
M  V30 4594 H 439.133 -2.68978 2.65442 0
M  V30 4595 H 439.446 -5.04331 5.85551 0
M  V30 4596 H 437.791 -4.54085 5.26148 0
M  V30 4597 H 440.982 -3.27207 3.34743 0
M  V30 4598 H 441.155 -4.34547 4.807 0
M  V30 4599 N 434.561 -1.01147 -1.20859 0
M  V30 4600 C 435.508 -0.577354 -2.23462 0
M  V30 4601 C 436.478 0.399922 -1.61214 0
M  V30 4602 O 437.663 0.300515 -1.88419 0
M  V30 4603 C 434.803 0.083372 -3.44999 0
M  V30 4604 C 433.916 -0.937856 -4.21697 0
M  V30 4605 C 433.051 -0.248717 -5.30617 0
M  V30 4606 C 432.09 -1.25705 -5.99053 0
M  V30 4607 N 431.227 -0.594939 -6.99575 0
M  V30 4608 H 436.067 -1.45695 -2.59956 0
M  V30 4609 H 433.604 -0.729428 -1.27741 0
M  V30 4610 H 435.562 0.483535 -4.14388 0
M  V30 4611 H 434.192 0.926645 -3.09214 0
M  V30 4612 H 433.244 -1.45622 -3.51423 0
M  V30 4613 H 434.556 -1.70493 -4.68757 0
M  V30 4614 H 433.71 0.207215 -6.06346 0
M  V30 4615 H 432.449 0.55071 -4.84581 0
M  V30 4616 H 431.454 -1.72343 -5.2209 0
M  V30 4617 H 432.679 -2.05767 -6.47176 0
M  V30 4618 H 430.625 0.184713 -6.5574 0
M  V30 4619 H 430.542 -1.30017 -7.44736 0
M  V30 4620 H 431.81 -0.162427 -7.79331 0
M  V30 4621 N 436.039 1.36541 -0.78704 0
M  V30 4622 C 437.264 2.0409 -0.369053 0
M  V30 4623 C 437.689 1.58957 1.00569 0
M  V30 4624 O 437.047 0.756926 1.64743 0
M  V30 4625 C 437.095 3.57924 -0.438466 0
M  V30 4626 O 436.199 4.08642 0.555479 0
M  V30 4627 H 435.54 0.645142 -0.157122 0
M  V30 4628 H 438.07 1.74545 -1.06749 0
M  V30 4629 H 438.08 4.06887 -0.301218 0
M  V30 4630 H 436.755 3.90127 -1.44132 0
M  V30 4631 H 435.332 3.70958 0.380088 0
M  V30 4632 N 437.518 0.538854 1.48102 0
M  V30 4633 C 438.481 -0.208395 2.28251 0
M  V30 4634 C 439.481 -0.859656 1.35892 0
M  V30 4635 O 440.671 -0.71834 1.58699 0
M  V30 4636 C 437.803 -1.30252 3.15035 0
M  V30 4637 H 438.996 0.495407 2.9578 0
M  V30 4638 H 436.549 0.295112 1.53489 0
M  V30 4639 H 437.284 -2.0393 2.52157 0
M  V30 4640 H 437.069 -0.840551 3.82985 0
M  V30 4641 H 438.559 -1.82787 3.75471 0
M  V30 4642 N 438.996 -1.55193 0.274407 0
M  V30 4643 C 440.221 -2.04446 -0.348824 0
M  V30 4644 C 440.646 -1.15149 -1.48735 0
M  V30 4645 O 440.004 -0.149952 -1.80679 0
M  V30 4646 C 440.052 -3.51431 -0.808009 0
M  V30 4647 O 439.156 -3.65225 -1.91531 0
M  V30 4648 H 438.497 -0.66006 -0.0722276 0
M  V30 4649 H 441.027 -2.00481 0.408498 0
M  V30 4650 H 441.037 -3.92781 -1.10395 0
M  V30 4651 H 439.712 -4.15892 0.0249865 0
M  V30 4652 H 438.289 -3.35778 -1.62196 0
M  V30 4653 N 440.474 -0.00167713 -1.576 0
M  V30 4654 C 441.723 0.682021 -1.89819 0
M  V30 4655 C 442.036 1.74844 -0.876871 0
M  V30 4656 O 443.242 2.48688 -1.08934 0
M  V30 4657 C 441.698 1.26425 -3.36964 0
M  V30 4658 C 441.306 0.232568 -4.47396 0
M  V30 4659 C 443.05 1.92604 -3.78291 0
M  V30 4660 C 440.957 0.824882 -5.85619 0
M  V30 4661 H 439.887 0.258499 -0.708304 0
M  V30 4662 H 442.538 -0.0624957 -1.83394 0
M  V30 4663 H 440.92 2.05949 -3.38232 0
M  V30 4664 H 442.094 -0.5382 -4.57646 0
M  V30 4665 H 440.409 -0.32888 -4.15099 0
M  V30 4666 H 443.006 2.37827 -4.78897 0
M  V30 4667 H 443.349 2.75732 -3.11894 0
M  V30 4668 H 443.882 1.19812 -3.79328 0
M  V30 4669 H 440.621 0.0323542 -6.55492 0
M  V30 4670 H 440.141 1.56477 -5.79029 0
M  V30 4671 H 441.82 1.32301 -6.33329 0
M  V30 4672 N 441.952 1.55251 0.271103 0
M  V30 4673 C 442.882 1.9127 1.33933 0
M  V30 4674 C 443.863 0.77478 1.5143 0
M  V30 4675 O 445.048 1.03307 1.64442 0
M  V30 4676 C 442.178 2.18627 2.69851 0
M  V30 4677 C 441.132 3.34442 2.67081 0
M  V30 4678 C 440.458 3.47284 4.06569 0
M  V30 4679 C 441.758 4.70784 2.26185 0
M  V30 4680 H 443.452 2.80744 1.04035 0
M  V30 4681 H 440.998 1.35077 0.499017 0
M  V30 4682 H 442.951 2.42413 3.44694 0
M  V30 4683 H 441.675 1.25955 3.01335 0
M  V30 4684 H 440.334 3.10627 1.94695 0
M  V30 4685 H 439.982 2.52074 4.35279 0
M  V30 4686 H 439.682 4.25152 4.0561 0
M  V30 4687 H 441.206 3.73363 4.83148 0
M  V30 4688 H 442.62 4.94102 2.90751 0
M  V30 4689 H 441.017 5.51582 2.36384 0
M  V30 4690 H 442.087 4.69478 1.21319 0
M  V30 4691 N 443.43 -0.535701 1.48216 0
M  V30 4692 C 444.377 -1.64083 1.62312 0
M  V30 4693 C 445.347 -1.59448 0.465365 0
M  V30 4694 O 446.532 -1.77959 0.688135 0
M  V30 4695 C 443.672 -3.0236 1.66349 0
M  V30 4696 C 442.785 -3.17273 2.93193 0
M  V30 4697 C 441.92 -4.46075 2.88427 0
M  V30 4698 C 440.959 -4.54496 4.1 0
M  V30 4699 N 440.096 -5.7468 4.03345 0
M  V30 4700 H 444.936 -1.51374 2.5669 0
M  V30 4701 H 442.473 -0.737059 1.27302 0
M  V30 4702 H 444.431 -3.82461 1.66672 0
M  V30 4703 H 443.061 -3.13854 0.754672 0
M  V30 4704 H 442.113 -2.30462 3.02641 0
M  V30 4705 H 443.425 -3.19357 3.83162 0
M  V30 4706 H 442.579 -5.3446 2.87119 0
M  V30 4707 H 441.318 -4.46504 1.96177 0
M  V30 4708 H 440.323 -3.64519 4.11589 0
M  V30 4709 H 441.548 -4.5581 5.03402 0
M  V30 4710 H 439.494 -5.76017 3.13912 0
M  V30 4711 H 439.411 -5.78234 4.87013 0
M  V30 4712 H 440.679 -6.65367 4.06087 0
M  V30 4713 N 444.908 -1.36708 -0.784132 0
M  V30 4714 C 445.856 -1.31533 -1.91838 0
M  V30 4715 C 446.85 -0.206205 -1.6814 0
M  V30 4716 O 448.056 -0.373519 -1.76082 0
M  V30 4717 H 444.431 -0.409613 -0.630651 0
M  V30 4718 H 446.402 -2.2731 -1.9332 0
M  V30 4719 C 445.151 -1.12679 -3.28936 0
M  V30 4720 H 444.474 -1.97274 -3.4774 0
M  V30 4721 H 445.914 -1.13106 -4.08636 0
M  V30 4722 C 444.373 0.168281 -3.36479 0
M  V30 4723 O 444.903 1.15625 -3.84699 0
M  V30 4724 N 443.109 0.214762 -2.89805 0
M  V30 4725 H 442.656 -0.589852 -2.50756 0
M  V30 4726 H 442.614 1.08094 -2.95234 0
M  V30 4727 N 446.386 1.0089 -1.21074 0
M  V30 4728 C 447.349 2.0775 -0.968129 0
M  V30 4729 C 448.349 1.6069 0.0593445 0
M  V30 4730 O 449.539 1.73293 -0.177525 0
M  V30 4731 C 446.671 3.37794 -0.459108 0
M  V30 4732 H 447.864 2.30707 -1.9161 0
M  V30 4733 H 445.417 1.17807 -1.02719 0
M  V30 4734 H 446.152 3.20516 0.49397 0
M  V30 4735 H 445.937 3.7328 -1.20019 0
M  V30 4736 H 447.427 4.16454 -0.309099 0
M  V30 4737 N 447.864 1.01787 1.20321 0
M  V30 4738 C 449.113 0.703249 1.89043 0
M  V30 4739 C 449.426 -0.770445 1.79787 0
M  V30 4740 O 450.632 -1.19767 2.43656 0
M  V30 4741 C 449.088 1.20749 3.3904 0
M  V30 4742 C 448.696 2.70817 3.56878 0
M  V30 4743 C 450.44 0.968352 4.13308 0
M  V30 4744 C 448.347 3.14716 5.00708 0
M  V30 4745 H 447.277 0.259354 0.707991 0
M  V30 4746 H 449.928 1.23072 1.36108 0
M  V30 4747 H 448.31 0.607989 3.91305 0
M  V30 4748 H 449.484 3.36327 3.14993 0
M  V30 4749 H 447.799 2.92888 2.95983 0
M  V30 4750 H 450.396 1.27173 5.19356 0
M  V30 4751 H 450.739 -0.095149 4.16191 0
M  V30 4752 H 451.272 1.53129 3.67146 0
M  V30 4753 H 448.011 4.20347 5.02979 0
M  V30 4754 H 447.531 2.53927 5.43398 0
M  V30 4755 H 449.21 3.07426 5.69296 0
M  V30 4756 N 449.342 -1.36122 0.79427 0
M  V30 4757 C 450.29 -2.31871 0.184023 0
M  V30 4758 C 451.284 -1.56041 -0.659365 0
M  V30 4759 O 452.49 -1.71266 -0.553906 0
M  V30 4760 H 448.865 -0.750896 0.0407373 0
M  V30 4761 H 450.836 -2.80898 1.00693 0
M  V30 4762 C 449.585 -3.41324 -0.662813 0
M  V30 4763 H 448.908 -3.99793 -0.0231944 0
M  V30 4764 H 450.348 -4.10629 -1.05639 0
M  V30 4765 C 448.807 -2.83308 -1.82313 0
M  V30 4766 O 449.337 -2.75863 -2.91997 0
M  V30 4767 N 447.543 -2.40529 -1.63077 0
M  V30 4768 H 447.09 -2.46785 -0.738591 0
M  V30 4769 H 447.048 -2.02059 -2.40872 0
M  V30 4770 N 450.82 -0.546701 -1.47814 0
M  V30 4771 C 451.73 0.21026 -2.33656 0
M  V30 4772 C 452.746 0.922413 -1.47538 0
M  V30 4773 O 453.922 0.893652 -1.80488 0
M  V30 4774 C 450.987 1.23348 -3.24016 0
M  V30 4775 C 450.048 0.529883 -4.26017 0
M  V30 4776 C 449.281 1.50435 -5.12059 0
M  V30 4777 O 449.504 2.73837 -5.00369 0
M  V30 4778 O 448.438 1.03459 -5.92942 0
M  V30 4779 H 452.264 -0.493605 -2.99662 0
M  V30 4780 H 449.849 -0.307427 -1.46203 0
M  V30 4781 H 451.731 1.82438 -3.79861 0
M  V30 4782 H 450.406 1.91945 -2.60651 0
M  V30 4783 H 449.313 -0.101948 -3.73961 0
M  V30 4784 H 450.646 -0.11445 -4.92067 0
M  V30 4785 N 452.299 1.55045 -0.282633 0
M  V30 4786 C 453.548 1.98938 0.332667 0
M  V30 4787 C 453.861 1.17455 1.56409 0
M  V30 4788 O 455.067 1.51527 2.25282 0
M  V30 4789 C 453.523 3.54105 0.643226 0
M  V30 4790 C 453.131 4.44374 -0.568814 0
M  V30 4791 C 454.875 4.06569 1.22074 0
M  V30 4792 C 452.782 5.90943 -0.232426 0
M  V30 4793 H 451.712 0.743043 0.128075 0
M  V30 4794 H 454.363 1.79341 -0.388464 0
M  V30 4795 H 452.745 3.69532 1.42346 0
M  V30 4796 H 453.919 4.40718 -1.34551 0
M  V30 4797 H 452.234 4.02585 -1.06369 0
M  V30 4798 H 454.831 5.13626 1.48635 0
M  V30 4799 H 455.174 3.56057 2.15707 0
M  V30 4800 H 455.707 3.94612 0.502621 0
M  V30 4801 H 452.446 6.45567 -1.13683 0
M  V30 4802 H 451.966 5.9765 0.507357 0
M  V30 4803 H 453.645 6.4677 0.172657 0
M  V30 4804 N 453.777 0.010035 1.57597 0
M  V30 4805 C 455.005 -0.683413 1.95287 0
M  V30 4806 C 455.42 -1.66747 0.885481 0
M  V30 4807 O 454.777 -1.82003 -0.134629 0
M  V30 4808 C 454.828 -1.40652 3.33015 0
M  V30 4809 O 454.549 -0.461916 4.35658 0
M  V30 4810 C 456.05 -2.19356 3.85225 0
M  V30 4811 H 453.27 -0.189708 0.643624 0
M  V30 4812 H 455.814 0.0641359 2.04399 0
M  V30 4813 H 453.969 -2.10562 3.2518 0
M  V30 4814 H 454.383 -0.973215 5.15392 0
M  V30 4815 H 455.857 -2.65433 4.83993 0
M  V30 4816 H 456.334 -3.02457 3.18459 0
M  V30 4817 H 456.94 -1.54442 3.96267 0
M  V30 4818 N 455.255 -1.55392 -0.262866 0
M  V30 4819 C 456.218 -1.88181 -1.30846 0
M  V30 4820 C 457.218 -0.757079 -1.41862 0
M  V30 4821 O 458.408 -1.02519 -1.40838 0
M  V30 4822 C 455.54 -2.09609 -2.68844 0
M  V30 4823 H 456.733 -2.81659 -1.02997 0
M  V30 4824 H 454.286 -1.48039 -0.501414 0
M  V30 4825 H 455.021 -1.18547 -3.01856 0
M  V30 4826 H 454.806 -2.91508 -2.62231 0
M  V30 4827 H 456.296 -2.36215 -3.44372 0
M  V30 4828 N 456.733 0.527833 -1.48498 0
M  V30 4829 C 457.643 1.65907 -1.65867 0
M  V30 4830 C 458.659 1.6537 -0.541192 0
M  V30 4831 O 459.835 1.84282 -0.812534 0
M  V30 4832 C 456.9 3.02364 -1.69637 0
M  V30 4833 C 455.961 3.1374 -2.93028 0
M  V30 4834 C 455.194 4.43688 -2.96609 0
M  V30 4835 O 455.417 5.30913 -2.08538 0
M  V30 4836 O 454.351 4.59475 -3.88802 0
M  V30 4837 H 458.177 1.5419 -2.61647 0
M  V30 4838 H 455.762 0.701163 -1.31924 0
M  V30 4839 H 457.644 3.83515 -1.74625 0
M  V30 4840 H 456.319 3.14401 -0.770312 0
M  V30 4841 H 455.226 2.31877 -2.93571 0
M  V30 4842 H 456.559 3.06621 -3.85026 0
M  V30 4843 N 458.211 1.37122 0.776871 0
M  V30 4844 C 459.121 1.34651 1.9211 0
M  V30 4845 C 460.137 0.246824 1.7224 0
M  V30 4846 O 461.313 0.48134 1.95563 0
M  V30 4847 C 458.378 1.14748 3.2716 0
M  V30 4848 C 457.439 2.34308 3.5972 0
M  V30 4849 C 456.672 2.15345 4.88326 0
M  V30 4850 O 456.895 1.13507 5.58992 0
M  V30 4851 O 455.829 3.03414 5.1983 0
M  V30 4852 H 459.655 2.31013 1.97146 0
M  V30 4853 H 457.24 1.17799 0.918901 0
M  V30 4854 H 459.122 1.05616 4.0795 0
M  V30 4855 H 457.797 0.214562 3.22988 0
M  V30 4856 H 456.704 2.49011 2.79185 0
M  V30 4857 H 458.037 3.26149 3.68629 0
M  V30 4858 N 459.689 -1.00246 1.21608 0
M  V30 4859 C 460.637 -2.11193 0.97469 0
M  V30 4860 C 461.631 -1.69216 -0.0789303 0
M  V30 4861 O 462.837 -1.79853 0.0726806 0
M  V30 4862 H 459.212 -0.690455 0.297953 0
M  V30 4863 H 461.183 -2.2873 1.91638 0
M  V30 4864 C 459.932 -3.43182 0.558717 0
M  V30 4865 H 459.255 -3.75918 1.3611 0
M  V30 4866 H 460.695 -4.21823 0.429154 0
M  V30 4867 C 459.154 -3.28882 -0.730648 0
M  V30 4868 O 459.684 -3.59835 -1.78554 0
M  V30 4869 N 457.89 -2.8209 -0.698131 0
M  V30 4870 H 457.437 -2.57099 0.16061 0
M  V30 4871 H 457.395 -2.72903 -1.56113 0
M  V30 4872 N 461.167 -1.02423 -1.1978 0
M  V30 4873 C 462.114 -0.601023 -2.22837 0
M  V30 4874 C 463.084 0.382801 -1.61629 0
M  V30 4875 O 464.269 0.280514 -1.88727 0
M  V30 4876 C 461.409 0.0467755 -3.45068 0
M  V30 4877 C 460.522 -0.98253 -4.20678 0
M  V30 4878 C 459.657 -0.304982 -5.30324 0
M  V30 4879 C 458.696 -1.32052 -5.97686 0
M  V30 4880 N 457.833 -0.669105 -6.98904 0
M  V30 4881 H 462.673 -1.48444 -2.58396 0
M  V30 4882 H 460.21 -0.742936 -1.2696 0
M  V30 4883 H 462.168 0.439556 -4.14878 0
M  V30 4884 H 460.798 0.893796 -3.10179 0
M  V30 4885 H 459.85 -1.49341 -3.49859 0
M  V30 4886 H 461.162 -1.75455 -4.66923 0
M  V30 4887 H 460.316 0.142893 -6.06532 0
M  V30 4888 H 459.055 0.499283 -4.85138 0
M  V30 4889 H 458.06 -1.7787 -5.20233 0
M  V30 4890 H 459.285 -2.1262 -6.44957 0
M  V30 4891 H 457.231 0.115152 -6.55899 0
M  V30 4892 H 457.148 -1.37908 -7.43315 0
M  V30 4893 H 458.416 -0.245076 -7.79115 0
M  V30 4894 N 462.645 1.35699 -0.801477 0
M  V30 4895 C 463.595 2.2728 -0.181073 0
M  V30 4896 C 464.579 1.47533 0.642098 0
M  V30 4897 O 465.771 1.69785 0.500193 0
M  V30 4898 C 462.9 3.36626 0.673612 0
M  V30 4899 C 461.986 4.23802 -0.159008 0
M  V30 4900 N 462.377 4.90879 -1.2195 0
M  V30 4901 C 460.675 4.45959 0.0602005 0
M  V30 4902 C 461.376 5.5546 -1.72738 0
M  V30 4903 N 460.352 5.33663 -1.03465 0
M  V30 4904 H 464.154 2.76632 -0.992582 0
M  V30 4905 H 461.668 1.49166 -0.642127 0
M  V30 4906 H 463.665 4.01179 1.13408 0
M  V30 4907 H 462.325 2.88828 1.48353 0
M  V30 4908 H 463.336 4.92497 -1.60209 0
M  V30 4909 H 460.013 4.08969 0.839664 0
M  V30 4910 H 461.403 6.18991 -2.61342 0
M  V30 4911 N 464.123 0.554532 1.47522 0
M  V30 4912 C 465.055 -0.232106 2.28022 0
M  V30 4913 C 466.068 -0.881865 1.36847 0
M  V30 4914 O 467.257 -0.756168 1.61692 0
M  V30 4915 C 464.357 -1.34604 3.11022 0
M  V30 4916 C 463.53 -0.793582 4.30141 0
M  V30 4917 C 462.589 -1.79168 4.94758 0
M  V30 4918 O 461.615 -1.33886 5.5323 0
M  V30 4919 N 462.817 -3.12495 4.89211 0
M  V30 4920 H 465.582 0.458407 2.96173 0
M  V30 4921 H 463.143 0.390433 1.57122 0
M  V30 4922 H 465.135 -2.01243 3.51118 0
M  V30 4923 H 463.705 -1.93983 2.45131 0
M  V30 4924 H 462.925 0.0495025 3.94169 0
M  V30 4925 H 464.213 -0.403776 5.07195 0
M  V30 4926 H 463.611 -3.51931 4.42901 0
M  V30 4927 H 462.168 -3.74698 5.33333 0
M  V30 4928 N 465.601 -1.54893 0.290851 0
M  V30 4929 C 466.549 -2.24579 -0.605576 0
M  V30 4930 C 467.543 -1.24824 -1.14522 0
M  V30 4931 O 468.749 -1.42706 -1.09704 0
M  V30 4932 H 465.124 -0.720946 -0.213872 0
M  V30 4933 H 467.095 -2.984 0.0048173 0
M  V30 4934 C 465.844 -2.99224 -1.77088 0
M  V30 4935 H 465.167 -3.75782 -1.36484 0
M  V30 4936 H 466.607 -3.51281 -2.3744 0
M  V30 4937 C 465.066 -2.05602 -2.66888 0
M  V30 4938 O 465.596 -1.61745 -3.67698 0
M  V30 4939 N 463.802 -1.71771 -2.34399 0
M  V30 4940 H 463.349 -2.07633 -1.52468 0
M  V30 4941 H 463.307 -1.09403 -2.94751 0
M  V30 4942 N 467.08 -0.0183926 -1.57589 0
M  V30 4943 C 468.308 0.673046 -1.95647 0
M  V30 4944 C 468.723 1.66275 -0.894312 0
M  V30 4945 O 468.08 1.82072 0.124975 0
M  V30 4946 C 468.131 1.38884 -3.33756 0
M  V30 4947 O 467.852 0.438806 -4.35897 0
M  V30 4948 C 469.353 2.1731 -3.86383 0
M  V30 4949 H 466.573 0.186292 -0.644621 0
M  V30 4950 H 469.117 -0.0749748 -2.04363 0
M  V30 4951 H 467.272 2.08835 -3.26293 0
M  V30 4952 H 467.686 0.945869 -5.15901 0
M  V30 4953 H 469.16 2.62863 -4.85394 0
M  V30 4954 H 469.637 3.00764 -3.20059 0
M  V30 4955 H 470.243 1.52339 -3.97081 0
M  V30 4956 N 468.558 1.5553 0.254621 0
M  V30 4957 C 469.783 1.81383 1.00573 0
M  V30 4958 C 470.208 0.594419 1.78461 0
M  V30 4959 O 469.566 -0.456403 1.75461 0
M  V30 4960 C 469.614 3.04892 1.92545 0
M  V30 4961 O 468.718 2.81266 3.01601 0
M  V30 4962 H 468.059 0.598969 0.286587 0
M  V30 4963 H 470.589 2.02703 0.277952 0
M  V30 4964 H 470.599 3.34119 2.34155 0
M  V30 4965 H 469.274 3.93287 1.3527 0
M  V30 4966 H 467.851 2.63185 2.64174 0
M  V30 4967 N 470.036 -0.519951 1.48776 0
M  V30 4968 C 471.284 -1.2727 1.56993 0
M  V30 4969 C 471.605 -1.9339 0.25004 0
M  V30 4970 O 470.875 -1.81822 -0.729216 0
M  V30 4971 H 469.455 -0.472732 0.578389 0
M  V30 4972 H 472.117 -0.604234 1.85297 0
M  V30 4973 H 471.213 -2.04669 2.3562 0
M  V30 4974 O 471.553 -1.47171 -0.665045 0
M  V30 4975 H 472.244 -1.41937 -1.31809 0
M  V30 END ATOM
M  V30 BEGIN BOND
M  V30 END BOND
M  V30 END CTAB
M  END
$$$$
