drugbank_target|P0AB80 Branched-chain-amino-acid aminotransferase (DB01813; DB03553; DB03993; DB04063)
 OpenBabel12092120033D

  0  0  0     0  0            999 V3000
M  V30 BEGIN CTAB
M  V30 COUNTS 4752 4808 0 0 0
M  V30 BEGIN ATOM
M  V30 1 H -0.908 1.98254 -0.117106 0
M  V30 2 N 0 1.576 0 0
M  V30 3 C 0.933 2.03868 1.02534 0
M  V30 4 C 1.911 0.928543 1.3348 0
M  V30 5 O 3.095 1.19667 1.45644 0
M  V30 6 C 0.222 2.43627 2.35294 0
M  V30 7 C -0.732 3.65373 2.2001 0
M  V30 8 S 0.101 5.13292 1.52614 0
M  V30 9 C 1.257 5.56322 2.86805 0
M  V30 10 H 1.49 2.90518 0.631377 0
M  V30 11 H -0.977 1.52953 0.210867 0
M  V30 12 H 0.981 2.67203 3.11629 0
M  V30 13 H -0.358 1.57376 2.7183 0
M  V30 14 H -1.165 3.90944 3.18086 0
M  V30 15 H -1.563 3.418 1.51819 0
M  V30 16 H 0.729 5.58782 3.83104 0
M  V30 17 H 1.672 6.56266 2.65933 0
M  V30 18 H 2.08 4.83886 2.90714 0
M  V30 19 N 1.4781 -0.272755 1.55222 0
M  V30 20 C 2.7061 -1.02255 1.79865 0
M  V30 21 C 3.1211 -1.79924 0.572088 0
M  V30 22 O 2.4781 -1.76638 -0.458842 0
M  V30 23 C 2.5291 -1.98094 3.02392 0
M  V30 24 O 2.2501 -1.23572 4.20311 0
M  V30 25 C 3.7511 -2.84884 3.39641 0
M  V30 26 H 0.9711 -0.302057 0.599168 0
M  V30 27 H 3.5151 -0.303465 2.02236 0
M  V30 28 H 1.6701 -2.65465 2.82147 0
M  V30 29 H 2.0841 -1.88172 4.89583 0
M  V30 30 H 3.5581 -3.47927 4.28545 0
M  V30 31 H 4.0351 -3.54665 2.59055 0
M  V30 32 H 4.6411 -2.23003 3.62146 0
M  V30 33 N 2.9562 -1.48159 -0.537278 0
M  V30 34 C 4.1842 -1.59454 -1.31841 0
M  V30 35 C 4.5992 -0.252065 -1.8711 0
M  V30 36 O 3.9562 0.757621 -1.66031 0
M  V30 37 C 4.0072 -2.63546 -2.47439 0
M  V30 38 O 3.7282 -3.92583 -1.94449 0
M  V30 39 C 5.2292 -2.85212 -3.39366 0
M  V30 40 H 2.4492 -0.53785 -0.401196 0
M  V30 41 H 4.9932 -1.93932 -0.648891 0
M  V30 42 H 3.1482 -2.31946 -3.1029 0
M  V30 43 H 3.5622 -4.49629 -2.70063 0
M  V30 44 H 5.0362 -3.61863 -4.16844 0
M  V30 45 H 5.5132 -1.93765 -3.94147 0
M  V30 46 H 6.1192 -3.18086 -2.82314 0
M  V30 47 N 4.4343 0.785586 -1.36625 0
M  V30 48 C 5.3813 1.89838 -1.31264 0
M  V30 49 C 6.3513 1.65115 -0.180633 0
M  V30 50 O 7.5363 1.87222 -0.36777 0
M  V30 51 C 4.6763 3.26706 -1.11163 0
M  V30 52 C 3.7893 3.63476 -2.33472 0
M  V30 53 C 2.9243 4.89481 -2.06353 0
M  V30 54 C 1.9633 5.18941 -3.24602 0
M  V30 55 N 1.1003 6.36131 -2.97123 0
M  V30 56 H 5.9403 1.93756 -2.26413 0
M  V30 57 H 3.4773 0.947454 -1.12524 0
M  V30 58 H 5.4353 4.05639 -0.975337 0
M  V30 59 H 4.0653 3.222 -0.196674 0
M  V30 60 H 3.1173 2.79636 -2.57891 0
M  V30 61 H 4.4293 3.81193 -3.21704 0
M  V30 62 H 3.5833 5.76288 -1.89675 0
M  V30 63 H 2.3223 4.73841 -1.15437 0
M  V30 64 H 1.3273 4.30615 -3.41834 0
M  V30 65 H 2.5523 5.36498 -4.16349 0
M  V30 66 H 0.4983 6.21875 -2.08823 0
M  V30 67 H 0.4153 6.54198 -3.78894 0
M  V30 68 H 1.6833 7.2591 -2.84033 0
M  V30 69 N 5.9124 1.20967 1.01018 0
M  V30 70 C 6.8594 0.964281 2.09691 0
M  V30 71 C 7.8294 -0.107853 1.65749 0
M  V30 72 O 9.0144 0.0381987 1.90762 0
M  V30 73 C 6.1544 0.52943 3.41015 0
M  V30 74 C 5.2674 1.67043 3.98398 0
M  V30 75 C 4.4024 1.18525 5.17808 0
M  V30 76 C 3.4414 2.29892 5.67288 0
M  V30 77 N 2.5784 1.82546 6.77954 0
M  V30 78 H 7.4184 1.89463 2.30017 0
M  V30 79 H 4.9554 0.944289 1.1279 0
M  V30 80 H 6.9134 0.258588 4.16398 0
M  V30 81 H 5.5434 -0.363919 3.20742 0
M  V30 82 H 4.5954 2.05603 3.20049 0
M  V30 83 H 5.9074 2.50877 4.31117 0
M  V30 84 H 5.0614 0.870762 6.00419 0
M  V30 85 H 3.8004 0.316887 4.86669 0
M  V30 86 H 2.8054 2.6215 4.83278 0
M  V30 87 H 4.0304 3.17216 6.00459 0
M  V30 88 H 1.9764 0.980454 6.48632 0
M  V30 89 H 1.8934 2.59956 7.09901 0
M  V30 90 H 3.1614 1.54115 7.64113 0
M  V30 91 N 7.3905 -1.2043 1.01659 0
M  V30 92 C 8.3535 -2.21433 0.591616 0
M  V30 93 C 9.3535 -1.57203 -0.338226 0
M  V30 94 O 10.5435 -1.73737 -0.126918 0
M  V30 95 C 7.6755 -3.40628 -0.136058 0
M  V30 96 H 8.8685 -2.60545 1.48514 0
M  V30 97 H 6.4215 -1.33893 0.806379 0
M  V30 98 H 7.1565 -3.07019 -1.04449 0
M  V30 99 H 6.9415 -3.88475 0.531917 0
M  V30 100 H 8.4315 -4.15475 -0.420735 0
M  V30 101 N 8.8686 -0.792821 -1.36206 0
M  V30 102 C 10.1456 -0.290627 -1.93429 0
M  V30 103 C 10.5256 1.21773 -1.72437 0
M  V30 104 O 9.8736 2.0108 -1.08531 0
M  V30 105 C 10.0836 -0.686973 -3.42172 0
M  V30 106 C 11.4316 -0.668643 -4.19302 0
M  V30 107 O 12.4556 -0.627658 -3.50626 0
M  V30 108 O 11.3146 -0.714597 -5.41808 0
M  V30 109 H 8.4086 -0.0727927 -0.82379 0
M  V30 110 H 10.9546 -0.875593 -1.45367 0
M  V30 111 H 9.7266 -1.72711 -3.51122 0
M  V30 112 H 9.3496 -0.0760733 -3.97527 0
M  V30 113 N 10.3467 1.47872 -0.545128 0
M  V30 114 C 11.5767 2.06589 -0.0210534 0
M  V30 115 C 11.9847 1.39997 1.27269 0
M  V30 116 O 11.3277 0.486421 1.77143 0
M  V30 117 C 11.3897 3.58574 0.257933 0
M  V30 118 C 11.0537 4.47132 -0.944573 0
M  V30 119 C 12.0507 4.85986 -1.84699 0
M  V30 120 C 9.7357 4.88821 -1.15584 0
M  V30 121 C 11.7297 5.65314 -2.94446 0
M  V30 122 C 9.4167 5.67916 -2.25642 0
M  V30 123 C 10.4147 6.06073 -3.14905 0
M  V30 124 O 10.1027 6.83578 -4.23057 0
M  V30 125 H 9.8347 0.674971 -0.0372899 0
M  V30 126 H 12.3887 1.91037 -0.754599 0
M  V30 127 H 10.6187 3.72295 1.04564 0
M  V30 128 H 12.3077 3.99356 0.72592 0
M  V30 129 H 13.0737 4.54388 -1.69577 0
M  V30 130 H 8.9527 4.58595 -0.470279 0
M  V30 131 H 12.4967 5.95016 -3.64145 0
M  V30 132 H 8.3937 5.98927 -2.40742 0
M  V30 133 H 9.1617 7.01954 -4.20954 0
M  V30 134 N 11.8248 0.280983 1.55075 0
M  V30 135 C 13.0738 -0.334784 1.98902 0
M  V30 136 C 13.3868 -1.56534 1.17288 0
M  V30 137 O 14.5928 -2.25443 1.51287 0
M  V30 138 C 13.0488 -0.646994 3.54037 0
M  V30 139 C 12.6568 0.564085 4.44435 0
M  V30 140 C 14.4008 -1.22506 4.06439 0
M  V30 141 C 12.3078 0.226137 5.90967 0
M  V30 142 H 11.2378 -0.128866 0.742906 0
M  V30 143 H 13.8888 0.386556 1.79382 0
M  V30 144 H 12.2708 -1.42739 3.6938 0
M  V30 145 H 13.4448 1.34082 4.40861 0
M  V30 146 H 11.7598 1.0594 4.02698 0
M  V30 147 H 14.3568 -1.49182 5.13468 0
M  V30 148 H 14.6998 -2.16085 3.55827 0
M  V30 149 H 15.2328 -0.50682 3.94558 0
M  V30 150 H 11.9718 1.12996 6.45687 0
M  V30 151 H 11.4918 -0.513717 5.97596 0
M  V30 152 H 13.1708 -0.179539 6.46751 0
M  V30 153 N 13.3029 -1.57598 0.00835791 0
M  V30 154 C 14.5489 -1.92046 -0.670055 0
M  V30 155 C 14.9039 -0.88351 -1.70915 0
M  V30 156 O 14.1969 0.103223 -1.91322 0
M  V30 157 C 14.3909 -3.3101 -1.34787 0
M  V30 158 C 14.2199 -4.48126 -0.375945 0
M  V30 159 C 12.9899 -5.05297 0.0166914 0
M  V30 160 C 15.1879 -5.1303 0.361272 0
M  V30 161 N 13.1699 -6.05931 0.985952 0
M  V30 162 C 14.5409 -6.08571 1.18495 0
M  V30 163 C 16.5959 -4.9609 0.42421 0
M  V30 164 C 15.2989 -6.88996 2.06584 0
M  V30 165 C 17.3249 -5.77107 1.29236 0
M  V30 166 C 16.6869 -6.72248 2.10386 0
M  V30 167 H 12.7859 -0.75096 -0.218136 0
M  V30 168 H 15.3699 -1.94572 0.0706669 0
M  V30 169 H 13.5409 -3.29342 -2.05884 0
M  V30 170 H 15.2729 -3.52864 -1.98164 0
M  V30 171 H 12.0279 -4.72279 -0.353435 0
M  V30 172 H 12.4519 -6.60932 1.4662 0
M  V30 173 H 17.0939 -4.22378 -0.188915 0
M  V30 174 H 14.8119 -7.62028 2.6896 0
M  V30 175 H 18.3979 -5.66038 1.34508 0
M  V30 176 H 17.2779 -7.33846 2.76476 0
M  V30 177 N 14.781 0.264519 -1.55364 0
M  V30 178 C 16.028 0.994986 -1.7637 0
M  V30 179 C 16.356 1.85976 -0.5695 0
M  V30 180 O 15.611 1.90509 0.44776 0
M  V30 181 C 15.91 1.9004 -3.02687 0
M  V30 182 C 15.576 1.19243 -4.34847 0
M  V30 183 C 14.238 0.996709 -4.70764 0
M  V30 184 C 16.59 0.689296 -5.16622 0
M  V30 185 C 13.918 0.285261 -5.86006 0
M  V30 186 C 16.27 -0.00860079 -6.32599 0
M  V30 187 C 14.934 -0.215963 -6.67151 0
M  V30 188 H 14.204 0.364091 -0.645383 0
M  V30 189 H 16.851 0.266543 -1.89636 0
M  V30 190 H 15.156 2.69533 -2.84357 0
M  V30 191 H 16.853 2.46695 -3.16137 0
M  V30 192 H 13.443 1.3549 -4.06621 0
M  V30 193 H 17.627 0.828108 -4.89342 0
M  V30 194 H 12.883 0.113961 -6.11294 0
M  V30 195 H 17.057 -0.406186 -6.95214 0
M  V30 196 H 14.684 -0.769217 -7.56298 0
M  V30 197 N 16.2591 1.48442 0.529413 0
M  V30 198 C 17.2071 1.63452 1.65487 0
M  V30 199 C 18.2011 0.500955 1.61823 0
M  V30 200 O 19.4071 0.679695 1.66674 0
M  V30 201 H 15.7821 0.514905 0.548066 0
M  V30 202 H 17.7531 2.57975 1.49971 0
M  V30 203 C 16.5021 1.69196 3.03756 0
M  V30 204 H 15.8251 2.55784 3.07269 0
M  V30 205 H 17.2651 1.83743 3.82119 0
M  V30 206 C 15.7241 0.430765 3.34135 0
M  V30 207 O 16.2541 -0.4561 3.99102 0
M  V30 208 N 14.4601 0.302293 2.89023 0
M  V30 209 H 14.0071 1.02496 2.36331 0
M  V30 210 H 13.9651 -0.540546 3.09718 0
M  V30 211 N 17.7372 -0.778329 1.37039 0
M  V30 212 C 18.9852 -1.53361 1.31623 0
M  V30 213 C 19.3062 -1.94739 -0.100831 0
M  V30 214 O 18.5762 -1.65797 -1.04347 0
M  V30 215 H 17.1562 -0.568794 0.484234 0
M  V30 216 H 19.8182 -0.926742 1.71457 0
M  V30 217 H 18.9142 -2.43606 1.95096 0
M  V30 218 N 19.2153 -1.21501 -1.00376 0
M  V30 219 C 20.1253 -0.991447 -2.12621 0
M  V30 220 C 21.1413 0.0568446 -1.73907 0
M  V30 221 O 22.3173 -0.13348 -2.00957 0
M  V30 222 C 19.3823 -0.560312 -3.42142 0
M  V30 223 C 18.4433 -1.68096 -3.95022 0
M  V30 224 C 17.6763 -1.2703 -5.18362 0
M  V30 225 O 17.8993 -0.144438 -5.70217 0
M  V30 226 O 16.8333 -2.08269 -5.64719 0
M  V30 227 H 20.6593 -1.93158 -2.34358 0
M  V30 228 H 18.2443 -0.999999 -1.10997 0
M  V30 229 H 20.1263 -0.329724 -4.20108 0
M  V30 230 H 18.8013 0.351089 -3.2179 0
M  V30 231 H 17.7083 -1.96597 -3.18278 0
M  V30 232 H 19.0413 -2.56983 -4.19786 0
M  V30 233 N 20.6934 1.19889 -1.02296 0
M  V30 234 C 21.6264 2.21639 -0.543282 0
M  V30 235 C 22.6044 1.57275 0.412698 0
M  V30 236 O 23.7884 1.85568 0.331198 0
M  V30 237 C 20.9154 3.38057 0.208571 0
M  V30 238 C 19.9614 4.20751 -0.697933 0
M  V30 239 S 20.7944 4.89529 -2.17075 0
M  V30 240 C 21.9504 6.09363 -1.42923 0
M  V30 241 H 22.1834 2.61984 -1.40541 0
M  V30 242 H 19.7164 1.30041 -0.832387 0
M  V30 243 H 21.6744 4.05539 0.63624 0
M  V30 244 H 20.3354 2.96159 1.04635 0
M  V30 245 H 19.5284 5.03862 -0.117831 0
M  V30 246 H 19.1304 3.58556 -1.06366 0
M  V30 247 H 21.4224 6.73742 -0.712637 0
M  V30 248 H 22.3654 6.71845 -2.23673 0
M  V30 249 H 22.7734 5.56798 -0.929327 0
M  V30 250 N 22.1715 0.800033 1.35784 0
M  V30 251 C 23.4175 0.377901 1.99248 0
M  V30 252 C 23.7505 -1.05052 1.63333 0
M  V30 253 O 23.0255 -1.72768 0.893385 0
M  V30 254 C 23.3085 0.553922 3.55814 0
M  V30 255 C 23.1615 2.0268 4.01548 0
M  V30 256 C 24.4805 -0.0244802 4.40093 0
M  V30 257 H 21.5995 0.138782 0.723815 0
M  V30 258 H 24.2415 1.00835 1.61035 0
M  V30 259 H 22.3915 0.0172398 3.88496 0
M  V30 260 H 24.0635 2.62536 3.79305 0
M  V30 261 H 22.3065 2.5256 3.52698 0
M  V30 262 H 22.9775 2.10087 5.10458 0
M  V30 263 H 25.4535 0.433775 4.13833 0
M  V30 264 H 24.3295 0.128637 5.48749 0
M  V30 265 H 24.5905 -1.11758 4.27741 0
M  V30 266 N 23.6496 -1.47581 0.552962 0
M  V30 267 C 25.0656 -1.5818 0.212424 0
M  V30 268 C 25.2656 -1.55213 -1.28496 0
M  V30 269 O 24.3216 -1.45329 -2.06484 0
M  V30 270 C 25.6346 -2.88865 0.835318 0
M  V30 271 C 27.1826 -3.0244 0.806156 0
M  V30 272 C 27.6576 -4.35819 1.40804 0
M  V30 273 N 29.1486 -4.42444 1.37103 0
M  V30 274 C 29.8836 -5.44202 1.80641 0
M  V30 275 N 29.3796 -6.52795 2.32015 0
M  V30 276 N 31.1726 -5.35222 1.71738 0
M  V30 277 H 23.3236 -1.47753 1.52587 0
M  V30 278 H 25.5866 -0.702941 0.636064 0
M  V30 279 H 25.2926 -2.9676 1.88749 0
M  V30 280 H 25.1666 -3.7579 0.325848 0
M  V30 281 H 27.5536 -2.94144 -0.237317 0
M  V30 282 H 27.6346 -2.17068 1.35334 0
M  V30 283 H 27.2786 -4.44871 2.45056 0
M  V30 284 H 27.2086 -5.19916 0.836338 0
M  V30 285 H 29.6996 -3.6456 0.995202 0
M  V30 286 H 30.0126 -7.26609 2.63171 0
M  V30 287 H 28.3576 -6.53696 2.36023 0
M  V30 288 H 31.5486 -4.49284 1.31382 0
M  V30 289 H 31.7216 -6.14389 2.05987 0
M  V30 290 N 25.1277 -0.289203 -1.54924 0
M  V30 291 C 26.3737 0.316922 -2.00916 0
M  V30 292 C 26.7287 1.52424 -1.17408 0
M  V30 293 O 26.0217 1.90097 -0.239536 0
M  V30 294 C 26.2157 0.736119 -3.49737 0
M  V30 295 C 26.0447 -0.429036 -4.47649 0
M  V30 296 C 24.8147 -0.917311 -4.96904 0
M  V30 297 C 27.0127 -1.27016 -4.98369 0
M  V30 298 N 24.9947 -2.05046 -5.78644 0
M  V30 299 C 26.3657 -2.25097 -5.77695 0
M  V30 300 C 28.4207 -1.30188 -4.80578 0
M  V30 301 C 27.1237 -3.26114 -6.41126 0
M  V30 302 C 29.1497 -2.30057 -5.44819 0
M  V30 303 C 28.5117 -3.2687 -6.23968 0
M  V30 304 H 24.6107 0.0807535 -0.777819 0
M  V30 305 H 27.1947 -0.416434 -1.90194 0
M  V30 306 H 25.3657 1.43867 -3.60773 0
M  V30 307 H 27.0977 1.32078 -3.82541 0
M  V30 308 H 23.8527 -0.494248 -4.71014 0
M  V30 309 H 24.2767 -2.62108 -6.24202 0
M  V30 310 H 28.9187 -0.567163 -4.18979 0
M  V30 311 H 26.6367 -4.00512 -7.01866 0
M  V30 312 H 30.2227 -2.33271 -5.32988 0
M  V30 313 H 29.1027 -4.02883 -6.72796 0
M  V30 314 N 26.6058 1.57591 -0.0167156 0
M  V30 315 C 27.5158 2.1291 0.98521 0
M  V30 316 C 28.5318 1.07834 1.36557 0
M  V30 317 O 29.7078 1.39826 1.44951 0
M  V30 318 C 26.7728 2.63512 2.25305 0
M  V30 319 C 25.8338 3.83256 1.93426 0
M  V30 320 C 25.0668 4.31435 3.14165 0
M  V30 321 O 25.2898 3.78851 4.26413 0
M  V30 322 O 24.2238 5.23416 2.97186 0
M  V30 323 H 28.0498 2.98772 0.544888 0
M  V30 324 H 25.6348 1.48012 0.203141 0
M  V30 325 H 27.5168 2.96183 2.99756 0
M  V30 326 H 26.1918 1.8074 2.68542 0
M  V30 327 H 25.0988 3.55531 1.16398 0
M  V30 328 H 26.4318 4.67153 1.55013 0
M  V30 329 N 28.0839 -0.256276 1.55502 0
M  V30 330 C 29.3609 -1.00789 1.67633 0
M  V30 331 C 29.7409 -2.03706 0.553826 0
M  V30 332 O 29.0889 -2.24145 -0.443969 0
M  V30 333 C 29.2989 -1.64968 3.07549 0
M  V30 334 C 30.6469 -2.15505 3.65845 0
M  V30 335 O 31.6709 -1.74925 3.1029 0
M  V30 336 O 30.5299 -2.89986 4.63217 0
M  V30 337 H 27.6239 -0.468553 0.681459 0
M  V30 338 H 30.1699 -0.250806 1.67836 0
M  V30 339 H 28.9419 -0.904785 3.80696 0
M  V30 340 H 28.5649 -2.47321 3.11317 0
M  V30 341 N 29.562 -1.4872 -0.521534 0
M  V30 342 C 30.525 -1.63379 -1.60748 0
M  V30 343 C 31.525 -0.50661 -1.52611 0
M  V30 344 O 32.715 -0.772601 -1.5613 0
M  V30 345 C 29.847 -1.61192 -3.00383 0
M  V30 346 H 31.04 -2.60217 -1.49087 0
M  V30 347 H 28.593 -1.37444 -0.744235 0
M  V30 348 H 29.328 -0.65863 -3.17541 0
M  V30 349 H 29.113 -2.43032 -3.07698 0
M  V30 350 H 30.603 -1.7466 -3.7932 0
M  V30 351 N 31.0401 0.771051 -1.3745 0
M  V30 352 C 31.9871 1.88435 -1.3327 0
M  V30 353 C 32.9571 1.64914 -0.198136 0
M  V30 354 O 34.1421 1.86821 -0.387606 0
M  V30 355 C 31.2821 3.25509 -1.14622 0
M  V30 356 C 30.3951 3.60979 -2.37314 0
M  V30 357 C 29.5301 4.87265 -2.11533 0
M  V30 358 C 28.5691 5.15469 -3.30088 0
M  V30 359 N 27.7061 6.32944 -3.03853 0
M  V30 360 H 32.5461 1.91344 -2.28455 0
M  V30 361 H 30.0831 0.935466 -1.13523 0
M  V30 362 H 32.0411 4.04582 -1.01831 0
M  V30 363 H 30.6711 3.21974 -0.230837 0
M  V30 364 H 29.7231 2.76885 -2.60842 0
M  V30 365 H 31.0351 3.77759 -3.25729 0
M  V30 366 H 30.1891 5.74244 -1.95777 0
M  V30 367 H 28.9281 4.7259 -1.20457 0
M  V30 368 H 27.9331 4.26966 -3.46382 0
M  V30 369 H 29.1581 5.32052 -4.22016 0
M  V30 370 H 27.1041 6.19625 -2.15407 0
M  V30 371 H 27.0211 6.50143 -3.85812 0
M  V30 372 H 28.2891 7.22857 -2.91716 0
M  V30 373 N 32.5182 1.22032 0.997298 0
M  V30 374 C 33.7642 1.04376 1.73878 0
M  V30 375 C 34.0972 -0.420716 1.89588 0
M  V30 376 O 33.3722 -1.31202 1.43583 0
M  V30 377 C 33.6552 1.75047 3.14691 0
M  V30 378 C 33.5082 3.29062 3.06656 0
M  V30 379 C 34.8272 1.49928 4.13775 0
M  V30 380 H 31.9462 0.380578 0.631133 0
M  V30 381 H 34.5882 1.50312 1.16217 0
M  V30 382 H 32.7382 1.35996 3.63919 0
M  V30 383 H 34.4102 3.7753 2.65083 0
M  V30 384 H 32.6532 3.58967 2.43568 0
M  V30 385 H 33.3242 3.73683 4.06282 0
M  V30 386 H 35.8002 1.83842 3.73285 0
M  V30 387 H 34.6762 2.01878 5.10428 0
M  V30 388 H 34.9372 0.430929 4.39995 0
M  V30 389 N 33.9963 -1.19345 1.0293 0
M  V30 390 C 34.9463 -2.20472 0.58104 0
M  V30 391 C 35.9303 -1.56578 -0.370442 0
M  V30 392 O 37.1223 -1.75963 -0.191344 0
M  V30 393 C 34.2513 -3.43236 -0.066306 0
M  V30 394 C 33.3373 -4.14274 0.907642 0
M  V30 395 N 33.7283 -4.61492 2.07023 0
M  V30 396 C 32.0263 -4.39966 0.731177 0
M  V30 397 C 32.7273 -5.1605 2.68454 0
M  V30 398 N 31.7033 -5.06875 1.96414 0
M  V30 399 H 35.5053 -2.54659 1.46717 0
M  V30 400 H 33.0193 -1.35423 0.896345 0
M  V30 401 H 35.0163 -4.14927 -0.405068 0
M  V30 402 H 33.6763 -3.10549 -0.948118 0
M  V30 403 H 34.6873 -4.56304 2.44963 0
M  V30 404 H 31.3643 -4.17377 -0.101507 0
M  V30 405 H 32.7543 -5.6287 3.66915 0
M  V30 406 N 35.4744 -0.807222 -1.35358 0
M  V30 407 C 36.7204 -0.388463 -1.99045 0
M  V30 408 C 37.0534 1.04184 -1.63888 0
M  V30 409 O 36.3284 1.72292 -0.902535 0
M  V30 410 C 36.6114 -0.572783 -3.55515 0
M  V30 411 C 36.4644 -2.04807 -4.00468 0
M  V30 412 C 37.7834 0.00114064 -4.401 0
M  V30 413 H 34.9024 -0.142619 -0.723069 0
M  V30 414 H 37.5444 -1.01687 -1.60498 0
M  V30 415 H 35.6944 -0.0378425 -3.88482 0
M  V30 416 H 37.3664 -2.64544 -3.77908 0
M  V30 417 H 35.6094 -2.54427 -3.51353 0
M  V30 418 H 36.2804 -2.12792 -5.09337 0
M  V30 419 H 38.7564 -0.455716 -4.13597 0
M  V30 420 H 37.6324 -0.157737 -5.48673 0
M  V30 421 H 37.8934 1.09488 -4.28328 0
M  V30 422 N 36.9525 1.47285 -0.560781 0
M  V30 423 C 37.8855 2.27009 0.232821 0
M  V30 424 C 38.8635 1.34273 0.917039 0
M  V30 425 O 40.0475 1.63659 0.935315 0
M  V30 426 C 37.1745 3.11406 1.33206 0
M  V30 427 C 36.2205 4.19746 0.756019 0
M  V30 428 S 37.0535 5.34003 -0.400165 0
M  V30 429 C 38.2095 6.21964 0.700805 0
M  V30 430 H 38.4425 2.93971 -0.443683 0
M  V30 431 H 35.9755 1.50446 -0.347181 0
M  V30 432 H 37.9335 3.60601 1.96156 0
M  V30 433 H 36.5945 2.438 1.98041 0
M  V30 434 H 35.7875 4.78541 1.5816 0
M  V30 435 H 35.3895 3.73451 0.202619 0
M  V30 436 H 37.6815 6.58529 1.59202 0
M  V30 437 H 38.6245 7.07941 0.150126 0
M  V30 438 H 39.0325 5.5566 0.995083 0
M  V30 439 N 38.4306 0.297415 1.54768 0
M  V30 440 C 39.6556 -0.318435 2.04941 0
M  V30 441 C 40.0806 -1.4701 1.17345 0
M  V30 442 O 39.4386 -1.80436 0.176758 0
M  V30 443 C 39.4866 -0.755749 3.52592 0
M  V30 444 O 38.5906 -1.86088 3.68028 0
M  V30 445 H 37.9316 -0.062421 0.661059 0
M  V30 446 H 40.4616 0.438215 1.99852 0
M  V30 447 H 40.4716 -1.04552 3.94376 0
M  V30 448 H 39.1466 0.0867233 4.1581 0
M  V30 449 H 37.7236 -1.57193 3.38149 0
M  V30 450 N 39.9087 -1.5758 0.0250728 0
M  V30 451 C 40.8587 -2.06468 -0.967201 0
M  V30 452 C 41.8427 -0.964376 -1.28797 0
M  V30 453 O 43.0347 -1.22797 -1.27475 0
M  V30 454 C 40.1637 -2.59203 -2.25097 0
M  V30 455 C 39.2497 -3.76157 -1.95874 0
M  V30 456 N 39.6407 -4.86919 -1.36905 0
M  V30 457 C 37.9387 -3.84566 -2.25887 0
M  V30 458 C 38.6397 -5.68172 -1.24724 0
M  V30 459 N 37.6157 -5.14953 -1.74138 0
M  V30 460 H 41.4177 -2.89508 -0.506176 0
M  V30 461 H 38.9317 -1.61399 -0.18004 0
M  V30 462 H 40.9287 -2.92517 -2.97052 0
M  V30 463 H 39.5887 -1.77592 -2.71829 0
M  V30 464 H 40.5997 -5.07256 -1.04459 0
M  V30 465 H 37.2767 -3.13854 -2.75321 0
M  V30 466 H 38.6667 -6.67221 -0.791605 0
M  V30 467 N 41.3868 0.248026 -1.55636 0
M  V30 468 C 42.3498 1.29044 -1.89421 0
M  V30 469 C 43.3498 1.41134 -0.770581 0
M  V30 470 O 44.5398 1.39854 -1.03858 0
M  V30 471 C 41.6718 2.66831 -2.12165 0
M  V30 472 H 42.8648 1.00305 -2.82629 0
M  V30 473 H 40.4178 0.487265 -1.48511 0
M  V30 474 H 41.1528 3.00711 -1.21422 0
M  V30 475 H 40.9378 2.59438 -2.93997 0
M  V30 476 H 42.4278 3.42103 -2.3949 0
M  V30 477 N 42.8649 1.48995 0.513639 0
M  V30 478 C 43.7949 1.67636 1.62544 0
M  V30 479 C 44.7759 0.525087 1.61793 0
M  V30 480 O 45.9609 0.759502 1.78732 0
M  V30 481 C 43.0909 1.73114 3.01079 0
M  V30 482 C 42.0449 2.87905 3.16693 0
M  V30 483 C 41.3709 2.78486 4.56453 0
M  V30 484 C 42.6709 4.29005 2.97913 0
M  V30 485 H 44.3649 2.60716 1.47198 0
M  V30 486 H 41.9109 1.25465 0.706714 0
M  V30 487 H 43.8639 1.84742 3.78746 0
M  V30 488 H 42.5879 0.766241 3.17484 0
M  V30 489 H 41.2469 2.75859 2.41448 0
M  V30 490 H 40.8949 1.7993 4.69717 0
M  V30 491 H 40.5949 3.55523 4.67843 0
M  V30 492 H 42.1189 2.92104 5.36197 0
M  V30 493 H 43.5329 4.41798 3.65359 0
M  V30 494 H 41.9299 5.07166 3.20785 0
M  V30 495 H 42.9999 4.44329 1.94165 0
M  V30 496 N 44.343 -0.763751 1.37857 0
M  V30 497 C 45.293 -1.86765 1.30777 0
M  V30 498 C 46.277 -1.59726 0.194015 0
M  V30 499 O 47.469 -1.7172 0.42911 0
M  V30 500 C 44.598 -3.24343 1.12502 0
M  V30 501 C 43.684 -3.57307 2.28456 0
M  V30 502 N 44.075 -3.61398 3.53871 0
M  V30 503 C 42.373 -3.87517 2.20786 0
M  V30 504 C 43.074 -3.91339 4.30382 0
M  V30 505 N 42.05 -4.07649 3.59615 0
M  V30 506 H 45.852 -1.88191 2.25746 0
M  V30 507 H 43.366 -0.9606 1.30944 0
M  V30 508 H 45.363 -4.03327 1.05514 0
M  V30 509 H 44.023 -3.24175 0.184574 0
M  V30 510 H 45.034 -3.43407 3.87675 0
M  V30 511 H 41.711 -3.95125 1.34844 0
M  V30 512 H 43.101 -4.01213 5.3896 0
M  V30 513 N 45.8211 -1.22559 -0.990812 0
M  V30 514 C 47.0511 -1.07623 -1.76355 0
M  V30 515 C 47.4591 0.37601 -1.85426 0
M  V30 516 O 46.8021 1.27228 -1.32509 0
M  V30 517 C 46.8641 -1.61507 -3.21179 0
M  V30 518 C 46.5281 -3.10146 -3.35646 0
M  V30 519 C 47.5251 -4.07553 -3.22796 0
M  V30 520 C 45.2101 -3.49644 -3.60631 0
M  V30 521 C 47.2041 -5.42442 -3.34716 0
M  V30 522 C 44.8911 -4.84682 -3.72192 0
M  V30 523 C 45.8891 -5.8089 -3.59243 0
M  V30 524 O 45.5771 -7.13476 -3.70415 0
M  V30 525 H 45.3091 -0.377745 -0.560611 0
M  V30 526 H 47.8631 -1.62658 -1.25425 0
M  V30 527 H 46.0931 -1.00881 -3.73309 0
M  V30 528 H 47.7821 -1.42202 -3.80175 0
M  V30 529 H 48.5481 -3.78381 -3.03403 0
M  V30 530 H 44.4271 -2.75282 -3.69785 0
M  V30 531 H 47.9711 -6.17518 -3.24526 0
M  V30 532 H 43.8681 -5.13534 -3.91092 0
M  V30 533 H 44.6361 -7.21083 -3.87275 0
M  V30 534 N 47.2992 1.18797 -1.03562 0
M  V30 535 C 48.5472 1.88278 -0.734569 0
M  V30 536 C 48.8682 1.8043 0.739586 0
M  V30 537 O 48.1382 1.21925 1.53333 0
M  V30 538 H 46.7182 0.696991 -0.268725 0
M  V30 539 H 49.3802 1.44192 -1.31129 0
M  V30 540 H 48.4762 2.94443 -1.03489 0
M  V30 541 N 48.7773 0.814389 1.34928 0
M  V30 542 C 50.0053 0.411136 2.02774 0
M  V30 543 C 50.4203 -0.980316 1.61354 0
M  V30 544 O 49.7773 -1.63299 0.814847 0
M  V30 545 C 49.8283 0.493865 3.58111 0
M  V30 546 O 49.5493 1.83047 3.98027 0
M  V30 547 C 51.0503 0.0844174 4.4322 0
M  V30 548 H 48.2703 0.166037 0.650133 0
M  V30 549 H 50.8143 1.10018 1.72384 0
M  V30 550 H 48.9693 -0.147006 3.87121 0
M  V30 551 H 49.3833 1.79872 4.92693 0
M  V30 552 H 50.8573 0.193404 5.51661 0
M  V30 553 H 51.3343 -0.97113 4.28329 0
M  V30 554 H 51.9403 0.69875 4.19521 0
M  V30 555 N 50.2554 -1.46986 0.568584 0
M  V30 556 C 51.4804 -2.07335 0.0520528 0
M  V30 557 C 51.9054 -1.41675 -1.23733 0
M  V30 558 O 51.2634 -0.495623 -1.74394 0
M  V30 559 C 51.3114 -3.60417 -0.11501 0
M  V30 560 O 50.4154 -3.95309 -1.17492 0
M  V30 561 H 49.7564 -0.661597 0.0564385 0
M  V30 562 H 52.2864 -1.88837 0.787507 0
M  V30 563 H 52.2964 -4.06698 -0.325644 0
M  V30 564 H 50.9714 -4.07601 0.826675 0
M  V30 565 H 49.5484 -3.60757 -0.943869 0
M  V30 566 N 51.7335 -0.305618 -1.54608 0
M  V30 567 C 52.9795 0.302746 -2.00528 0
M  V30 568 C 53.3125 1.53184 -1.19367 0
M  V30 569 O 52.5875 1.92598 -0.271321 0
M  V30 570 C 52.8705 0.654756 -3.54097 0
M  V30 571 C 52.7235 -0.583793 -4.45995 0
M  V30 572 C 54.0425 1.47947 -4.14487 0
M  V30 573 H 51.1615 0.108564 -0.72896 0
M  V30 574 H 53.8035 -0.418634 -1.85331 0
M  V30 575 H 51.9535 1.26935 -3.67178 0
M  V30 576 H 53.6255 -1.22224 -4.44814 0
M  V30 577 H 51.8685 -1.21615 -4.16404 0
M  V30 578 H 52.5395 -0.293287 -5.5122 0
M  V30 579 H 55.0155 0.96013 -4.04871 0
M  V30 580 H 53.8915 1.69454 -5.22088 0
M  V30 581 H 54.1525 2.47011 -3.66658 0
M  V30 582 N 53.2116 1.57565 -0.0334293 0
M  V30 583 C 54.4586 1.91978 0.644272 0
M  V30 584 C 54.7866 0.910231 1.71887 0
M  V30 585 O 54.0416 -0.0801961 1.95536 0
M  V30 586 C 54.3406 3.33112 1.29504 0
M  V30 587 C 54.0066 4.49537 0.350388 0
M  V30 588 C 52.6686 4.81115 0.0903974 0
M  V30 589 C 55.0206 5.20347 -0.298032 0
M  V30 590 C 52.3486 5.8086 -0.825746 0
M  V30 591 C 54.7006 6.2107 -1.20226 0
M  V30 592 C 53.3646 6.51088 -1.4711 0
M  V30 593 H 52.6346 0.702496 0.235756 0
M  V30 594 H 55.2816 1.91259 -0.0961176 0
M  V30 595 H 53.5866 3.30113 2.11028 0
M  V30 596 H 55.2836 3.57011 1.82603 0
M  V30 597 H 51.8736 4.24883 0.563205 0
M  V30 598 H 56.0576 4.96178 -0.110234 0
M  V30 599 H 51.3136 6.02461 -1.04169 0
M  V30 600 H 55.4876 6.75057 -1.71086 0
M  V30 601 H 53.1146 7.28193 -2.18264 0
M  V30 602 N 54.6897 -0.239769 1.55765 0
M  V30 603 C 55.5997 -1.31831 1.94056 0
M  V30 604 C 56.6157 -1.52275 0.841925 0
M  V30 605 O 57.7917 -1.65759 1.14394 0
M  V30 606 C 54.8567 -2.65156 2.23368 0
M  V30 607 C 53.9177 -2.53173 3.46701 0
M  V30 608 C 53.1507 -3.8014 3.74606 0
M  V30 609 O 53.3737 -4.82343 3.04469 0
M  V30 610 O 52.3077 -3.78344 4.68123 0
M  V30 611 H 56.1337 -1.02347 2.85935 0
M  V30 612 H 53.7187 -0.441123 1.42739 0
M  V30 613 H 55.6007 -3.43929 2.43497 0
M  V30 614 H 54.2757 -2.94358 1.34666 0
M  V30 615 H 53.1827 -1.72662 3.31871 0
M  V30 616 H 54.5157 -2.28915 4.35728 0
M  V30 617 N 56.1678 -1.49265 -0.50573 0
M  V30 618 C 57.4158 -1.582 -1.25766 0
M  V30 619 C 57.7368 -0.268482 -1.93143 0
M  V30 620 O 57.0068 0.711833 -1.8251 0
M  V30 621 H 55.5868 -0.582873 -0.467191 0
M  V30 622 H 58.2488 -1.85865 -0.586525 0
M  V30 623 H 57.3448 -2.37563 -2.02412 0
M  V30 624 N 57.6459 0.756429 -1.3826 0
M  V30 625 C 58.8949 1.51082 -1.3363 0
M  V30 626 C 59.2079 1.95467 0.0720068 0
M  V30 627 O 60.4139 2.7043 0.240834 0
M  V30 628 C 58.8699 2.72893 -2.34644 0
M  V30 629 C 58.4779 2.35544 -3.81081 0
M  V30 630 C 60.2219 3.50791 -2.39052 0
M  V30 631 C 58.1289 3.53948 -4.73787 0
M  V30 632 H 57.0589 0.56727 -0.49671 0
M  V30 633 H 59.7099 0.827147 -1.638 0
M  V30 634 H 58.0919 3.43227 -1.97513 0
M  V30 635 H 59.2659 1.72894 -4.27135 0
M  V30 636 H 57.5809 1.70786 -3.79764 0
M  V30 637 H 60.1779 4.38823 -3.05513 0
M  V30 638 H 60.5209 3.91745 -1.40861 0
M  V30 639 H 61.0539 2.87467 -2.74968 0
M  V30 640 H 57.7929 3.18064 -5.73163 0
M  V30 641 H 57.3129 4.15651 -4.32428 0
M  V30 642 H 58.9919 4.20566 -4.91663 0
M  V30 643 N 59.124 1.23083 0.984299 0
M  V30 644 C 60.54 0.992637 1.24975 0
M  V30 645 C 60.74 -0.308618 1.99123 0
M  V30 646 O 59.796 -1.02905 2.30579 0
M  V30 647 C 61.109 2.19698 2.05312 0
M  V30 648 C 62.657 2.24147 2.18465 0
M  V30 649 C 63.132 3.44157 3.02192 0
M  V30 650 N 64.623 3.44372 3.09777 0
M  V30 651 C 65.358 4.33886 3.74874 0
M  V30 652 N 64.854 5.3363 4.41827 0
M  V30 653 N 66.647 4.21639 3.71721 0
M  V30 654 H 58.798 2.06731 0.487453 0
M  V30 655 H 61.061 0.906339 0.277944 0
M  V30 656 H 60.767 3.1411 1.58201 0
M  V30 657 H 60.641 2.20465 3.06064 0
M  V30 658 H 63.028 1.30277 2.64786 0
M  V30 659 H 63.109 2.27415 1.17115 0
M  V30 660 H 62.753 4.38332 2.56568 0
M  V30 661 H 62.683 3.3813 4.03702 0
M  V30 662 H 65.174 2.72201 2.62135 0
M  V30 663 H 65.487 5.98196 4.89266 0
M  V30 664 H 63.832 5.37534 4.40548 0
M  V30 665 H 67.023 3.42962 3.18582 0
M  V30 666 H 67.196 4.91604 4.22173 0
M  V30 667 N 60.6021 -1.18246 1.0419 0
M  V30 668 C 61.8421 -1.89948 0.754916 0
M  V30 669 C 62.2061 -1.78608 -0.70451 0
M  V30 670 O 63.4071 -2.4503 -1.10516 0
M  V30 671 C 61.6781 -3.36305 1.20969 0
M  V30 672 S 63.2371 -4.26088 1.04854 0
M  V30 673 H 60.0551 -0.655897 0.274446 0
M  V30 674 H 62.6571 -1.42873 1.33445 0
M  V30 675 H 61.3611 -3.42089 2.26722 0
M  V30 676 H 60.8921 -3.8842 0.624004 0
M  V30 677 H 62.9071 -4.96189 -0.0332896 0
M  V30 678 N 62.0802 -0.821533 -1.34494 0
M  V30 679 C 63.3102 -0.421272 -2.02259 0
M  V30 680 C 63.7182 0.977047 -1.6202 0
M  V30 681 O 63.0612 1.64348 -0.820703 0
M  V30 682 C 63.1232 -0.44231 -3.56769 0
M  V30 683 C 62.7872 -1.79372 -4.20327 0
M  V30 684 C 63.7842 -2.75435 -4.40944 0
M  V30 685 C 61.4692 -2.08182 -4.57127 0
M  V30 686 C 63.4632 -3.98482 -4.97484 0
M  V30 687 C 61.1502 -3.31489 -5.13379 0
M  V30 688 C 62.1482 -4.26457 -5.33501 0
M  V30 689 O 61.8362 -5.47585 -5.88562 0
M  V30 690 H 61.5682 -0.167473 -0.654927 0
M  V30 691 H 64.1222 -1.11073 -1.72777 0
M  V30 692 H 62.3522 0.303836 -3.85505 0
M  V30 693 H 64.0412 -0.0622925 -4.05852 0
M  V30 694 H 64.8072 -2.54473 -4.12878 0
M  V30 695 H 60.6862 -1.35066 -4.4077 0
M  V30 696 H 64.2302 -4.72618 -5.13106 0
M  V30 697 H 60.1272 -3.52316 -5.40873 0
M  V30 698 H 60.8952 -5.49086 -6.06998 0
M  V30 699 N 63.5583 1.46682 -0.576371 0
M  V30 700 C 64.8353 1.95599 0.00703437 0
M  V30 701 C 65.2153 1.51904 1.46589 0
M  V30 702 O 64.5633 0.766755 2.15251 0
M  V30 703 C 64.7733 3.4864 -0.158404 0
M  V30 704 C 66.1213 4.24594 -0.0229439 0
M  V30 705 O 67.1453 3.56094 -0.0869173 0
M  V30 706 O 66.0043 5.46373 0.118015 0
M  V30 707 H 63.0983 0.825275 0.053384 0
M  V30 708 H 65.6443 1.56996 -0.644244 0
M  V30 709 H 64.4163 3.7331 -1.17282 0
M  V30 710 H 64.0393 3.94057 0.5296 0
M  V30 711 N 65.0364 0.313813 1.54444 0
M  V30 712 C 66.2614 -0.296681 2.05267 0
M  V30 713 C 66.6864 -1.45757 1.18897 0
M  V30 714 O 66.0444 -1.80239 0.195886 0
M  V30 715 C 66.0924 -0.71831 3.53373 0
M  V30 716 O 65.1964 -1.82175 3.69981 0
M  V30 717 H 64.5374 -0.0554061 0.661684 0
M  V30 718 H 67.0674 0.459387 1.99376 0
M  V30 719 H 67.0774 -1.00364 3.95463 0
M  V30 720 H 65.7524 0.130821 4.15694 0
M  V30 721 H 64.3294 -1.53598 3.39797 0
M  V30 722 N 66.5145 -1.57545 0.0417849 0
M  V30 723 C 67.4645 -2.07483 -0.945247 0
M  V30 724 C 68.4485 -0.977983 -1.27767 0
M  V30 725 O 69.6405 -1.24142 -1.26166 0
M  V30 726 C 66.7695 -2.61576 -2.22335 0
M  V30 727 C 65.8555 -3.78213 -1.91874 0
M  V30 728 N 66.2465 -4.88344 -1.31733 0
M  V30 729 C 64.5445 -3.8694 -2.21796 0
M  V30 730 C 65.2455 -5.69462 -1.1869 0
M  V30 731 N 64.2215 -5.16771 -1.68666 0
M  V30 732 H 68.0235 -2.90029 -0.475441 0
M  V30 733 H 65.5375 -1.61581 -0.162911 0
M  V30 734 H 67.5345 -2.95651 -2.93932 0
M  V30 735 H 66.1945 -1.80465 -2.69931 0
M  V30 736 H 67.2055 -5.08335 -0.990729 0
M  V30 737 H 63.8825 -3.16757 -2.71977 0
M  V30 738 H 65.2725 -6.68023 -0.720793 0
M  V30 739 N 67.9926 0.231505 -1.5589 0
M  V30 740 C 68.9396 1.28682 -1.91598 0
M  V30 741 C 69.9096 1.47071 -0.771974 0
M  V30 742 O 71.0946 1.60802 -1.027 0
M  V30 743 C 68.2346 2.6342 -2.22944 0
M  V30 744 C 67.3476 2.52912 -3.50228 0
M  V30 745 C 66.4826 3.80106 -3.7107 0
M  V30 746 C 65.5216 3.64279 -4.91902 0
M  V30 747 N 64.6586 4.834 -5.09184 0
M  V30 748 H 69.4986 0.975305 -2.81588 0
M  V30 749 H 67.0356 0.470299 -1.39379 0
M  V30 750 H 68.9936 3.41869 -2.39126 0
M  V30 751 H 67.6236 2.92687 -1.36139 0
M  V30 752 H 66.6756 1.6595 -3.42294 0
M  V30 753 H 67.9876 2.37133 -4.38827 0
M  V30 754 H 67.1416 4.66999 -3.87295 0
M  V30 755 H 65.8806 3.98799 -2.80733 0
M  V30 756 H 64.8856 2.7577 -4.75637 0
M  V30 757 H 66.1106 3.47067 -5.83714 0
M  V30 758 H 64.0566 5.02425 -4.21788 0
M  V30 759 H 63.9736 4.70311 -5.91898 0
M  V30 760 H 65.2416 5.71747 -5.29835 0
M  V30 761 N 69.4707 1.49531 0.497807 0
M  V30 762 C 70.7187 1.58865 1.24926 0
M  V30 763 C 71.0397 0.278721 1.92998 0
M  V30 764 O 70.3097 -0.702144 1.82885 0
M  V30 765 H 68.8897 0.585343 0.464094 0
M  V30 766 H 71.5517 1.86174 0.57666 0
M  V30 767 H 70.6477 2.38633 2.01149 0
M  V30 768 N 70.9488 -0.749086 1.3866 0
M  V30 769 C 72.3598 -1.32664 1.31366 0
M  V30 770 C 72.7108 -1.96179 -0.028484 0
M  V30 771 O 71.8358 -1.9537 -0.93057 0
M  V30 772 C 72.4308 -2.41219 2.37905 0
M  V30 773 C 70.9898 -2.94684 2.34176 0
M  V30 774 C 70.1368 -1.68108 2.20533 0
M  V30 775 H 73.0878 -0.547628 1.48952 0
M  V30 776 H 73.1088 -3.21268 2.0388 0
M  V30 777 H 72.6208 -1.94962 3.35576 0
M  V30 778 H 70.7218 -3.45258 1.401 0
M  V30 779 H 70.8348 -3.48757 3.2849 0
M  V30 780 H 69.1988 -1.91907 1.67463 0
M  V30 781 H 69.9818 -1.23923 3.20153 0
M  V30 782 N 72.4269 -1.23603 -0.977757 0
M  V30 783 C 73.6729 -1.07129 -1.72195 0
M  V30 784 C 74.0059 0.390501 -1.90233 0
M  V30 785 O 73.2809 1.28902 -1.45653 0
M  V30 786 C 73.5639 -1.80031 -3.11867 0
M  V30 787 C 73.4169 -3.33899 -3.01383 0
M  V30 788 C 74.7359 -1.56492 -4.11337 0
M  V30 789 H 71.8549 -0.390571 -0.624999 0
M  V30 790 H 74.4969 -1.52142 -1.13811 0
M  V30 791 H 72.6469 -1.41768 -3.6171 0
M  V30 792 H 74.3189 -3.81699 -2.59043 0
M  V30 793 H 72.5619 -3.62796 -2.37827 0
M  V30 794 H 73.2329 -3.801 -4.00285 0
M  V30 795 H 75.7089 -1.89757 -3.70313 0
M  V30 796 H 74.5849 -2.09973 -5.07151 0
M  V30 797 H 74.8459 -0.500874 -4.39254 0
M  V30 798 N 73.905 1.17692 -1.04816 0
M  V30 799 C 75.151 1.88137 -0.75711 0
M  V30 800 C 75.484 1.80604 0.713841 0
M  V30 801 O 74.759 1.21146 1.52164 0
M  V30 802 C 75.042 3.38318 -1.2334 0
M  V30 803 C 74.895 3.54622 -2.76701 0
M  V30 804 C 76.214 4.32214 -0.829415 0
M  V30 805 H 73.333 0.683163 -0.27651 0
M  V30 806 H 75.975 1.38424 -1.30149 0
M  V30 807 H 74.125 3.80787 -0.770286 0
M  V30 808 H 75.797 3.21194 -3.31107 0
M  V30 809 H 74.04 2.97026 -3.16161 0
M  V30 810 H 74.711 4.60028 -3.05088 0
M  V30 811 H 77.187 3.97565 -1.22805 0
M  V30 812 H 76.063 5.35838 -1.19033 0
M  V30 813 H 76.324 4.41294 0.266891 0
M  V30 814 N 75.3831 0.828654 1.34056 0
M  V30 815 C 76.6301 0.419458 1.98108 0
M  V30 816 C 76.9581 -1.01886 1.65679 0
M  V30 817 O 76.2131 -1.72539 0.923512 0
M  V30 818 C 76.5121 0.575226 3.52741 0
M  V30 819 C 76.1781 1.98012 4.05095 0
M  V30 820 C 74.8401 2.36442 4.19104 0
M  V30 821 C 77.1921 2.89824 4.33188 0
M  V30 822 C 74.5201 3.66009 4.58535 0
M  V30 823 C 76.8721 4.1886 4.74066 0
M  V30 824 C 75.5361 4.5726 4.86281 0
M  V30 825 H 74.8061 0.153491 0.724929 0
M  V30 826 H 77.4531 1.05371 1.59904 0
M  V30 827 H 75.7581 -0.142385 3.91541 0
M  V30 828 H 77.4551 0.239057 4.00287 0
M  V30 829 H 74.0451 1.67162 3.94658 0
M  V30 830 H 78.2291 2.61375 4.21897 0
M  V30 831 H 73.4851 3.95579 4.66184 0
M  V30 832 H 77.6591 4.90086 4.94761 0
M  V30 833 H 75.2861 5.57707 5.16592 0
M  V30 834 N 76.8612 -1.46375 0.584142 0
M  V30 835 C 78.2772 -1.57694 0.245929 0
M  V30 836 C 78.4772 -1.57903 -1.25175 0
M  V30 837 O 77.5332 -1.49676 -2.03355 0
M  V30 838 C 78.8462 -2.87028 0.896402 0
M  V30 839 C 80.3942 -3.00662 0.870127 0
M  V30 840 C 80.8692 -4.32734 1.50017 0
M  V30 841 N 82.3602 -4.39436 1.46458 0
M  V30 842 C 83.0952 -5.40248 1.92144 0
M  V30 843 N 82.5912 -6.47726 2.4581 0
M  V30 844 N 84.3842 -5.31459 1.83052 0
M  V30 845 H 76.5352 -1.44483 1.55687 0
M  V30 846 H 78.7982 -0.689291 0.650831 0
M  V30 847 H 78.5042 -2.9269 1.95002 0
M  V30 848 H 78.3782 -3.75014 0.405486 0
M  V30 849 H 80.7652 -2.94581 -0.174871 0
M  V30 850 H 80.8462 -2.14148 1.39908 0
M  V30 851 H 80.4902 -4.39573 2.54437 0
M  V30 852 H 80.4202 -5.18025 0.946432 0
M  V30 853 H 82.9112 -3.62367 1.07231 0
M  V30 854 H 83.2242 -7.20863 2.78525 0
M  V30 855 H 81.5692 -6.48542 2.49836 0
M  V30 856 H 84.7602 -4.46396 1.40883 0
M  V30 857 H 84.9332 -6.09881 2.18973 0
M  V30 858 N 78.3393 -0.321999 -1.54275 0
M  V30 859 C 79.2893 0.560185 -2.21011 0
M  V30 860 C 80.2733 1.08283 -1.19011 0
M  V30 861 O 81.4653 1.02011 -1.44647 0
M  V30 862 C 78.5943 1.72137 -2.97025 0
M  V30 863 C 77.6803 1.21369 -4.06363 0
M  V30 864 N 78.0713 0.425566 -5.04007 0
M  V30 865 C 76.3693 1.49255 -4.20284 0
M  V30 866 C 77.0703 0.152601 -5.815 0
M  V30 867 N 76.0463 0.738294 -5.38563 0
M  V30 868 H 79.8483 -0.049265 -2.93859 0
M  V30 869 H 77.3623 -0.127779 -1.61897 0
M  V30 870 H 79.3593 2.36512 -3.43319 0
M  V30 871 H 78.0193 2.33431 -2.25699 0
M  V30 872 H 79.0303 0.068551 -5.17855 0
M  V30 873 H 75.7073 2.11145 -3.60172 0
M  V30 874 H 77.0973 -0.481764 -6.70171 0
M  V30 875 N 79.8174 1.5752 -0.0501392 0
M  V30 876 C 81.2334 1.56631 0.306402 0
M  V30 877 C 81.4334 1.0577 1.71508 0
M  V30 878 O 80.4894 0.713837 2.422 0
M  V30 879 C 81.8024 3.00393 0.135811 0
M  V30 880 C 83.3504 3.12315 0.206993 0
M  V30 881 C 83.8254 4.57954 0.064944 0
M  V30 882 N 85.3164 4.63041 0.121254 0
M  V30 883 C 86.0514 5.73389 0.0354381 0
M  V30 884 N 85.5474 6.92724 -0.102666 0
M  V30 885 N 87.3404 5.62026 0.090946 0
M  V30 886 H 79.4914 1.88903 -0.971046 0
M  V30 887 H 81.7544 0.869876 -0.376855 0
M  V30 888 H 81.4604 3.41635 -0.835384 0
M  V30 889 H 81.3344 3.66373 0.897275 0
M  V30 890 H 83.7214 2.70973 1.16866 0
M  V30 891 H 83.8024 2.49016 -0.585208 0
M  V30 892 H 83.4464 4.99981 -0.893394 0
M  V30 893 H 83.3764 5.19258 0.876277 0
M  V30 894 H 85.8674 3.77216 0.227284 0
M  V30 895 H 86.1804 7.72633 -0.160882 0
M  V30 896 H 84.5254 6.94864 -0.137737 0
M  V30 897 H 87.7164 4.67684 0.197388 0
M  V30 898 H 87.8894 6.47997 0.0206089 0
M  V30 899 N 81.2955 -0.223234 1.56011 0
M  V30 900 C 82.2055 -1.29766 1.95443 0
M  V30 901 C 83.2215 -1.51373 0.858028 0
M  V30 902 O 84.3975 -1.64536 1.16146 0
M  V30 903 C 81.4625 -2.62772 2.26167 0
M  V30 904 C 80.5235 -2.49482 3.49367 0
M  V30 905 C 79.7565 -3.76145 3.78616 0
M  V30 906 O 79.9795 -4.79087 3.09568 0
M  V30 907 O 78.9135 -3.73358 4.72109 0
M  V30 908 H 82.7395 -0.99309 2.87004 0
M  V30 909 H 80.3245 -0.425958 1.43199 0
M  V30 910 H 82.2065 -3.41327 2.47131 0
M  V30 911 H 80.8815 -2.92913 1.37781 0
M  V30 912 H 79.7885 -1.69133 3.33684 0
M  V30 913 H 81.1215 -2.2428 4.38131 0
M  V30 914 N 82.7736 -1.49793 -0.48987 0
M  V30 915 C 83.7236 -1.63673 -1.5873 0
M  V30 916 C 84.7076 -0.491956 -1.53195 0
M  V30 917 O 85.8996 -0.745461 -1.60536 0
M  V30 918 C 83.0286 -1.71689 -2.97284 0
M  V30 919 C 82.1146 -2.91781 -3.07774 0
M  V30 920 N 82.5056 -4.15714 -2.88124 0
M  V30 921 C 80.8036 -2.89949 -3.38889 0
M  V30 922 C 81.5046 -4.965 -3.03088 0
M  V30 923 N 80.4806 -4.30083 -3.3246 0
M  V30 924 H 84.2826 -2.57204 -1.42208 0
M  V30 925 H 81.7966 -1.46719 -0.69623 0
M  V30 926 H 83.7936 -1.79732 -3.76168 0
M  V30 927 H 82.4536 -0.793024 -3.14867 0
M  V30 928 H 83.4646 -4.45515 -2.64077 0
M  V30 929 H 80.1416 -2.06987 -3.62578 0
M  V30 930 H 81.5316 -6.04991 -2.92294 0
M  V30 931 N 84.2517 0.741722 -1.39055 0
M  V30 932 C 85.1847 1.86416 -1.31622 0
M  V30 933 C 86.1627 1.61473 -0.191076 0
M  V30 934 O 87.3467 1.84825 -0.370399 0
M  V30 935 C 84.4737 3.22266 -1.04221 0
M  V30 936 C 83.5197 3.66079 -2.18834 0
M  V30 937 S 84.3527 3.7623 -3.81066 0
M  V30 938 C 85.5087 5.14881 -3.55877 0
M  V30 939 H 85.7417 1.92437 -2.26617 0
M  V30 940 H 83.2747 0.905907 -1.25031 0
M  V30 941 H 85.2327 4.00714 -0.890964 0
M  V30 942 H 83.8937 3.1391 -0.109237 0
M  V30 943 H 83.0867 4.64648 -1.95238 0
M  V30 944 H 82.6887 2.94817 -2.30128 0
M  V30 945 H 84.9807 6.01006 -3.12726 0
M  V30 946 H 85.9237 5.43503 -4.53884 0
M  V30 947 H 86.3317 4.84239 -2.90126 0
M  V30 948 N 85.7298 1.2412 0.971189 0
M  V30 949 C 86.6618 0.988349 2.06795 0
M  V30 950 C 87.6748 -0.0409541 1.62748 0
M  V30 951 O 88.8638 0.195673 1.77424 0
M  V30 952 C 85.9638 0.469023 3.35639 0
M  V30 953 C 85.1368 1.56065 4.08611 0
M  V30 954 C 84.1958 1.04458 5.15728 0
M  V30 955 O 83.2218 1.73553 5.42096 0
M  V30 956 N 84.4238 -0.122817 5.8037 0
M  V30 957 H 87.1888 1.93265 2.29061 0
M  V30 958 H 84.7498 1.15102 1.13856 0
M  V30 959 H 86.7418 0.108613 4.04554 0
M  V30 960 H 85.3118 -0.380919 3.1027 0
M  V30 961 H 84.5318 2.09341 3.34021 0
M  V30 962 H 85.8198 2.29449 4.54126 0
M  V30 963 H 85.2178 -0.700563 5.61345 0
M  V30 964 H 83.7748 -0.424404 6.50417 0
M  V30 965 N 87.2079 -1.17134 1.05439 0
M  V30 966 C 88.6239 -1.39454 0.776201 0
M  V30 967 C 88.8239 -1.91454 -0.628307 0
M  V30 968 O 87.8799 -2.10777 -1.39031 0
M  V30 969 C 89.1929 -2.38305 1.83388 0
M  V30 970 C 90.7409 -2.52006 1.85639 0
M  V30 971 C 91.2159 -3.54133 2.90437 0
M  V30 972 N 92.7069 -3.61653 2.89415 0
M  V30 973 C 93.4419 -4.4044 3.67152 0
M  V30 974 N 92.9379 -5.22721 4.54681 0
M  V30 975 N 94.7309 -4.35337 3.55581 0
M  V30 976 H 86.8819 -0.817134 1.96053 0
M  V30 977 H 89.1449 -0.421626 0.849079 0
M  V30 978 H 88.8509 -2.07173 2.84204 0
M  V30 979 H 88.7249 -3.37841 1.67761 0
M  V30 980 H 91.1119 -2.82447 0.85486 0
M  V30 981 H 91.1929 -1.52537 2.05344 0
M  V30 982 H 90.8369 -3.24431 3.90777 0
M  V30 983 H 90.7669 -4.53313 2.67983 0
M  V30 984 H 93.2579 -3.02909 2.25952 0
M  V30 985 H 93.5709 -5.80027 5.10674 0
M  V30 986 H 91.9159 -5.22093 4.58741 0
M  V30 987 H 95.1069 -3.70112 2.86592 0
M  V30 988 H 95.2799 -4.96494 4.1641 0
M  V30 989 N 88.686 -0.835752 -1.33615 0
M  V30 990 C 89.616 -0.281739 -2.31794 0
M  V30 991 C 90.597 0.608833 -1.58831 0
M  V30 992 O 91.782 0.533035 -1.86741 0
M  V30 993 C 88.912 0.546612 -3.42971 0
M  V30 994 C 87.866 -0.247904 -4.27281 0
M  V30 995 C 87.192 0.704001 -5.30045 0
M  V30 996 C 88.492 -1.46324 -5.01385 0
M  V30 997 H 90.186 -1.10206 -2.78379 0
M  V30 998 H 87.732 -0.531388 -1.33837 0
M  V30 999 H 89.685 0.944467 -4.1068 0
M  V30 1000 H 88.409 1.40011 -2.95067 0
M  V30 1001 H 87.068 -0.627281 -3.61194 0
M  V30 1002 H 86.716 1.55381 -4.78399 0
M  V30 1003 H 86.416 0.176524 -5.87335 0
M  V30 1004 H 87.94 1.09944 -6.0062 0
M  V30 1005 H 89.354 -1.13871 -5.61877 0
M  V30 1006 H 87.751 -1.92728 -5.6831 0
M  V30 1007 H 88.821 -2.23467 -4.30338 0
M  V30 1008 N 90.1641 1.46063 -0.591896 0
M  V30 1009 C 91.1141 2.27458 0.157172 0
M  V30 1010 C 92.0981 1.3641 0.853301 0
M  V30 1011 O 93.2901 1.60517 0.74588 0
M  V30 1012 C 90.4191 3.22956 1.16423 0
M  V30 1013 C 89.5051 4.2149 0.469742 0
M  V30 1014 N 89.8961 5.03519 -0.479839 0
M  V30 1015 C 88.1941 4.40161 0.719319 0
M  V30 1016 C 88.8951 5.74904 -0.886591 0
M  V30 1017 N 87.8711 5.43097 -0.233731 0
M  V30 1018 H 91.6731 2.88272 -0.572392 0
M  V30 1019 H 89.1871 1.57024 -0.414375 0
M  V30 1020 H 91.1841 3.79986 1.71513 0
M  V30 1021 H 89.8441 2.63701 1.89451 0
M  V30 1022 H 90.8551 5.1078 -0.855823 0
M  V30 1023 H 87.5321 3.92046 1.43548 0
M  V30 1024 H 88.9221 6.50844 -1.66888 0
M  V30 1025 N 91.6422 0.330177 1.54103 0
M  V30 1026 C 92.9192 -0.325007 1.92881 0
M  V30 1027 C 93.2992 -1.6934 1.26045 0
M  V30 1028 O 92.6472 -2.24855 0.406526 0
M  V30 1029 C 92.8572 -0.410634 3.46576 0
M  V30 1030 C 94.2052 -0.667801 4.19316 0
M  V30 1031 O 95.2292 -0.49329 3.52768 0
M  V30 1032 O 94.0882 -1.00491 5.37181 0
M  V30 1033 H 91.1822 -0.186873 0.80561 0
M  V30 1034 H 93.7282 0.380376 1.65382 0
M  V30 1035 H 92.5002 0.550164 3.87413 0
M  V30 1036 H 92.1232 -1.16333 3.802 0
M  V30 1037 N 93.1203 -1.57491 0.0584922 0
M  V30 1038 C 94.3453 -1.97711 -0.62652 0
M  V30 1039 C 94.7703 -0.936132 -1.63151 0
M  V30 1040 O 94.1283 0.099811 -1.81025 0
M  V30 1041 C 94.1763 -3.36989 -1.28338 0
M  V30 1042 O 93.2803 -3.35433 -2.39913 0
M  V30 1043 H 92.6213 -0.643868 -0.162266 0
M  V30 1044 H 95.1513 -2.04193 0.129064 0
M  V30 1045 H 95.1613 -3.73879 -1.63335 0
M  V30 1046 H 93.8363 -4.12289 -0.546889 0
M  V30 1047 H 92.4133 -3.10298 -2.06809 0
M  V30 1048 N 94.5984 0.214957 -1.56127 0
M  V30 1049 C 95.5614 1.24997 -1.92116 0
M  V30 1050 C 96.5614 1.39467 -0.800344 0
M  V30 1051 O 97.7514 1.37619 -1.06802 0
M  V30 1052 C 94.8834 2.62271 -2.17777 0
M  V30 1053 H 96.0764 0.942875 -2.84693 0
M  V30 1054 H 93.6294 0.455654 -1.49511 0
M  V30 1055 H 94.3644 2.98068 -1.27773 0
M  V30 1056 H 94.1494 2.53143 -2.99434 0
M  V30 1057 H 95.6394 3.36946 -2.46693 0
M  V30 1058 N 96.0765 1.50051 0.48192 0
M  V30 1059 C 97.0235 1.68122 1.58125 0
M  V30 1060 C 97.9935 0.522545 1.57666 0
M  V30 1061 O 99.1785 0.751844 1.75362 0
M  V30 1062 C 96.3185 1.77142 2.96167 0
M  V30 1063 C 95.4315 3.0444 3.06497 0
M  V30 1064 C 94.5665 3.04321 4.35387 0
M  V30 1065 C 93.6055 4.26118 4.3942 0
M  V30 1066 N 92.7425 4.238 5.59766 0
M  V30 1067 H 97.5825 2.6198 1.42022 0
M  V30 1068 H 95.1195 1.29877 0.690687 0
M  V30 1069 H 97.0775 1.80352 3.76203 0
M  V30 1070 H 95.7075 0.867329 3.1093 0
M  V30 1071 H 94.7595 3.10752 2.19402 0
M  V30 1072 H 96.0715 3.94426 3.05336 0
M  V30 1073 H 95.2255 3.062 5.23762 0
M  V30 1074 H 93.9645 2.12147 4.39141 0
M  V30 1075 H 92.9695 4.24463 3.49444 0
M  V30 1076 H 94.1945 5.19507 4.37366 0
M  V30 1077 H 92.1405 3.34474 5.64326 0
M  V30 1078 H 92.0575 5.07542 5.60301 0
M  V30 1079 H 93.3255 4.2981 6.50295 0
M  V30 1080 N 97.5546 -0.734337 1.39446 0
M  V30 1081 C 98.8036 -1.48937 1.36017 0
M  V30 1082 C 99.1166 -1.95557 -0.0409005 0
M  V30 1083 O 100.323 -2.70779 -0.19778 0
M  V30 1084 C 98.7786 -2.69125 2.38955 0
M  V30 1085 C 98.3866 -2.29452 3.8478 0
M  V30 1086 C 100.131 -3.46944 2.44603 0
M  V30 1087 C 98.0376 -3.46366 4.79358 0
M  V30 1088 H 96.9676 -0.559296 0.505672 0
M  V30 1089 H 99.6186 -0.800983 1.65095 0
M  V30 1090 H 98.0006 -3.40041 2.02948 0
M  V30 1091 H 99.1746 -1.66077 4.29831 0
M  V30 1092 H 97.4896 -1.64723 3.82433 0
M  V30 1093 H 100.087 -4.33907 3.12456 0
M  V30 1094 H 100.43 -3.89454 1.47076 0
M  V30 1095 H 100.963 -2.83056 2.79507 0
M  V30 1096 H 97.7016 -3.08905 5.78151 0
M  V30 1097 H 97.2216 -4.08719 4.38986 0
M  V30 1098 H 98.9006 -4.12691 4.98292 0
M  V30 1099 N 99.0327 -1.24633 -0.964593 0
M  V30 1100 C 100.263 -1.11339 -1.74032 0
M  V30 1101 C 100.671 0.336593 -1.86182 0
M  V30 1102 O 100.014 1.24389 -1.35178 0
M  V30 1103 C 100.076 -1.68284 -3.1768 0
M  V30 1104 C 99.7397 -3.17196 -3.28992 0
M  V30 1105 C 100.737 -4.14308 -3.14078 0
M  V30 1106 C 98.4217 -3.57215 -3.53133 0
M  V30 1107 C 100.416 -5.4942 -3.23135 0
M  V30 1108 C 98.1027 -4.92468 -3.61827 0
M  V30 1109 C 99.1007 -5.8838 -3.46841 0
M  V30 1110 O 98.7887 -7.21173 -3.55197 0
M  V30 1111 H 98.5207 -0.389551 -0.552472 0
M  V30 1112 H 101.075 -1.65282 -1.21946 0
M  V30 1113 H 99.3047 -1.08777 -3.71085 0
M  V30 1114 H 100.994 -1.50234 -3.77074 0
M  V30 1115 H 101.76 -3.84731 -2.95308 0
M  V30 1116 H 97.6387 -2.83063 -3.63863 0
M  V30 1117 H 101.183 -6.24263 -3.11355 0
M  V30 1118 H 97.0797 -5.21714 -3.80111 0
M  V30 1119 H 97.8477 -7.29135 -3.71892 0
M  V30 1120 N 100.511 1.16574 -1.06058 0
M  V30 1121 C 101.927 1.3904 -0.783585 0
M  V30 1122 C 102.127 1.91784 0.618145 0
M  V30 1123 O 101.183 2.11511 1.37911 0
M  V30 1124 C 102.496 2.37329 -1.84649 0
M  V30 1125 C 104.044 2.51018 -1.86973 0
M  V30 1126 C 104.519 3.52588 -2.92311 0
M  V30 1127 N 106.01 3.60113 -2.91329 0
M  V30 1128 C 106.745 4.38486 -3.69482 0
M  V30 1129 N 106.241 5.20302 -4.57447 0
M  V30 1130 N 108.034 4.33446 -3.57885 0
M  V30 1131 H 100.185 0.806725 -1.96483 0
M  V30 1132 H 102.448 0.417117 -0.851303 0
M  V30 1133 H 102.154 2.05663 -2.85299 0
M  V30 1134 H 102.028 3.36946 -1.6955 0
M  V30 1135 H 104.415 2.81989 -0.869827 0
M  V30 1136 H 104.496 1.51445 -2.0615 0
M  V30 1137 H 104.14 3.22354 -3.92492 0
M  V30 1138 H 104.07 4.51886 -2.70383 0
M  V30 1139 H 106.561 3.01707 -2.27555 0
M  V30 1140 H 106.874 5.77311 -5.13743 0
M  V30 1141 H 105.219 5.19653 -4.61503 0
M  V30 1142 H 108.41 3.68586 -2.88551 0
M  V30 1143 H 108.583 4.94279 -4.19037 0
M  V30 1144 N 101.989 0.842826 1.3317 0
M  V30 1145 C 103.236 0.440447 1.97652 0
M  V30 1146 C 103.564 -1.00123 1.6675 0
M  V30 1147 O 102.819 -1.7155 0.941761 0
M  V30 1148 C 103.118 0.612607 3.52111 0
M  V30 1149 C 102.784 2.02297 4.02972 0
M  V30 1150 C 101.446 2.40874 4.16573 0
M  V30 1151 C 103.798 2.94402 4.30089 0
M  V30 1152 C 101.126 3.70852 4.54627 0
M  V30 1153 C 103.478 4.23865 4.69597 0
M  V30 1154 C 102.142 4.62392 4.81404 0
M  V30 1155 H 101.412 0.161171 0.72326 0
M  V30 1156 H 104.059 1.07061 1.58777 0
M  V30 1157 H 102.364 -0.100849 3.9167 0
M  V30 1158 H 104.061 0.2815 4.00011 0
M  V30 1159 H 100.651 1.71338 3.92863 0
M  V30 1160 H 104.835 2.65835 4.19101 0
M  V30 1161 H 100.091 4.00501 4.61962 0
M  V30 1162 H 104.265 4.95306 4.89536 0
M  V30 1163 H 101.892 5.63154 5.10648 0
M  V30 1164 N 103.467 -1.45747 0.599634 0
M  V30 1165 C 104.878 -1.85853 0.177681 0
M  V30 1166 C 105.229 -1.50102 -1.26348 0
M  V30 1167 O 104.354 -0.923905 -1.95686 0
M  V30 1168 C 104.949 -3.37326 0.315688 0
M  V30 1169 C 103.508 -3.76365 -0.0515144 0
M  V30 1170 C 102.655 -2.69722 0.643822 0
M  V30 1171 H 105.606 -1.36661 0.806814 0
M  V30 1172 H 105.627 -3.77778 -0.454321 0
M  V30 1173 H 105.139 -3.63315 1.36468 0
M  V30 1174 H 103.24 -3.55993 -1.09999 0
M  V30 1175 H 103.353 -4.77916 0.336594 0
M  V30 1176 H 101.717 -2.54567 0.0822881 0
M  V30 1177 H 102.5 -2.98549 1.6948 0
M  V30 1178 N 104.945 -0.338344 -1.53925 0
M  V30 1179 C 106.191 0.260143 -2.01125 0
M  V30 1180 C 106.524 1.50617 -1.22589 0
M  V30 1181 O 105.799 1.91979 -0.312113 0
M  V30 1182 C 106.082 0.579499 -3.55407 0
M  V30 1183 C 105.935 -0.678264 -4.44657 0
M  V30 1184 C 107.254 1.39122 -4.17532 0
M  V30 1185 H 104.373 0.0930772 -0.731099 0
M  V30 1186 H 107.015 -0.457852 -1.84401 0
M  V30 1187 H 105.165 1.19118 -3.69788 0
M  V30 1188 H 106.837 -1.31631 -4.42121 0
M  V30 1189 H 105.08 -1.3042 -4.13731 0
M  V30 1190 H 105.751 -0.410143 -5.50474 0
M  V30 1191 H 108.227 0.874035 -4.06817 0
M  V30 1192 H 107.103 1.58342 -5.25565 0
M  V30 1193 H 107.364 2.39178 -3.71815 0
M  V30 1194 N 106.423 1.57458 -0.0668435 0
M  V30 1195 C 107.648 1.9804 0.616027 0
M  V30 1196 C 108.073 0.944771 1.62652 0
M  V30 1197 O 107.431 -0.0902094 1.81075 0
M  V30 1198 C 107.479 3.37665 1.26549 0
M  V30 1199 O 106.583 3.36701 2.38131 0
M  V30 1200 H 105.924 0.644719 0.158849 0
M  V30 1201 H 108.454 2.04121 -0.139891 0
M  V30 1202 H 108.464 3.7474 1.6135 0
M  V30 1203 H 107.139 4.12573 0.525016 0
M  V30 1204 H 105.716 3.1139 2.0516 0
M  V30 1205 N 107.901 -0.206675 1.56239 0
M  V30 1206 C 108.833 -1.27997 1.9013 0
M  V30 1207 C 109.846 -1.42299 0.790883 0
M  V30 1208 O 111.035 -1.42931 1.06925 0
M  V30 1209 C 108.135 -2.65368 2.10792 0
M  V30 1210 C 107.308 -2.72824 3.41886 0
M  V30 1211 C 106.367 -3.9131 3.51799 0
M  V30 1212 O 105.393 -3.78953 4.24716 0
M  V30 1213 N 106.595 -5.06265 2.84035 0
M  V30 1214 H 109.36 -0.992444 2.82791 0
M  V30 1215 H 106.921 -0.396652 1.56966 0
M  V30 1216 H 108.913 -3.43039 2.14724 0
M  V30 1217 H 107.483 -2.86657 1.24685 0
M  V30 1218 H 106.703 -1.81515 3.49923 0
M  V30 1219 H 107.991 -2.74786 4.28217 0
M  V30 1220 H 107.389 -5.19203 2.246 0
M  V30 1221 H 105.946 -5.81925 2.93609 0
M  V30 1222 N 109.379 -1.50304 -0.473955 0
M  V30 1223 C 110.604 -1.65175 -1.25427 0
M  V30 1224 C 111.029 -0.333673 -1.85117 0
M  V30 1225 O 110.387 0.702114 -1.67153 0
M  V30 1226 C 110.435 -2.74295 -2.34082 0
M  V30 1227 O 109.539 -2.35349 -3.38651 0
M  V30 1228 H 108.88 -0.551944 -0.369126 0
M  V30 1229 H 111.41 -1.96662 -0.564364 0
M  V30 1230 H 111.42 -2.97285 -2.79438 0
M  V30 1231 H 110.095 -3.69959 -1.90008 0
M  V30 1232 H 108.672 -2.22794 -2.99027 0
M  V30 1233 N 110.857 0.726932 -1.39834 0
M  V30 1234 C 112.106 1.48214 -1.36805 0
M  V30 1235 C 112.419 1.95576 0.0305291 0
M  V30 1236 O 113.625 2.7088 0.183417 0
M  V30 1237 C 112.081 2.67854 -2.40379 0
M  V30 1238 C 111.689 2.27408 -3.85992 0
M  V30 1239 C 113.433 3.45641 -2.46439 0
M  V30 1240 C 111.34 3.43819 -4.81189 0
M  V30 1241 H 110.27 0.556606 -0.508631 0
M  V30 1242 H 112.921 0.792216 -1.65518 0
M  V30 1243 H 111.303 3.3896 -2.04749 0
M  V30 1244 H 112.477 1.63795 -4.30706 0
M  V30 1245 H 110.792 1.62692 -3.83302 0
M  V30 1246 H 113.389 4.32244 -3.14753 0
M  V30 1247 H 113.732 3.88669 -1.49139 0
M  V30 1248 H 114.265 2.8157 -2.81004 0
M  V30 1249 H 111.004 3.05834 -5.79781 0
M  V30 1250 H 110.524 4.06385 -4.41148 0
M  V30 1251 H 112.203 4.10043 -5.00474 0
M  V30 1252 N 112.336 1.25143 0.95797 0
M  V30 1253 C 113.613 1.00472 1.67823 0
M  V30 1254 C 113.993 -0.470056 2.058 0
M  V30 1255 O 113.341 -1.44663 1.76875 0
M  V30 1256 C 113.551 1.9372 2.90299 0
M  V30 1257 C 114.899 2.21371 3.62326 0
M  V30 1258 O 115.923 1.91451 3.00375 0
M  V30 1259 O 114.782 2.72231 4.7387 0
M  V30 1260 H 111.876 0.380752 0.734137 0
M  V30 1261 H 114.422 1.36283 1.01119 0
M  V30 1262 H 113.194 2.93316 2.59001 0
M  V30 1263 H 112.817 1.58286 3.64735 0
M  V30 1264 N 113.814 -1.1601 1.06675 0
M  V30 1265 C 114.724 -2.24156 0.692179 0
M  V30 1266 C 115.74 -1.71507 -0.293513 0
M  V30 1267 O 116.916 -2.009 -0.141861 0
M  V30 1268 C 113.981 -3.46587 0.0884131 0
M  V30 1269 C 113.042 -4.14257 1.12646 0
M  V30 1270 C 112.275 -5.30844 0.551416 0
M  V30 1271 O 112.498 -5.66858 -0.634656 0
M  V30 1272 O 111.432 -5.87848 1.29298 0
M  V30 1273 H 115.258 -2.58513 1.59388 0
M  V30 1274 H 112.843 -1.23599 0.83926 0
M  V30 1275 H 114.725 -4.20679 -0.246361 0
M  V30 1276 H 113.4 -3.13994 -0.786712 0
M  V30 1277 H 112.307 -3.42118 1.51348 0
M  V30 1278 H 113.64 -4.50914 1.97325 0
M  V30 1279 N 115.292 -0.849877 -1.32721 0
M  V30 1280 C 116.222 -0.306308 -2.31482 0
M  V30 1281 C 117.203 0.591952 -1.59468 0
M  V30 1282 O 118.388 0.513199 -1.87296 0
M  V30 1283 C 115.518 0.510204 -3.43532 0
M  V30 1284 C 114.472 -0.293209 -4.26994 0
M  V30 1285 C 113.798 0.647743 -5.30762 0
M  V30 1286 C 115.098 -1.51634 -4.99804 0
M  V30 1287 H 116.792 -1.13153 -2.77195 0
M  V30 1288 H 114.338 -0.545553 -1.33266 0
M  V30 1289 H 116.291 0.900856 -4.11658 0
M  V30 1290 H 115.015 1.36874 -2.96535 0
M  V30 1291 H 113.674 -0.665555 -3.60508 0
M  V30 1292 H 113.322 1.50299 -4.8002 0
M  V30 1293 H 113.022 0.11422 -5.87489 0
M  V30 1294 H 114.546 1.03567 -6.01753 0
M  V30 1295 H 115.96 -1.19824 -5.60638 0
M  V30 1296 H 114.357 -1.98745 -5.66234 0
M  V30 1297 H 115.427 -2.28018 -4.27943 0
M  V30 1298 N 116.77 1.45427 -0.607355 0
M  V30 1299 C 117.703 2.27635 0.160482 0
M  V30 1300 C 118.681 1.37122 0.873857 0
M  V30 1301 O 119.865 1.66551 0.882775 0
M  V30 1302 C 116.992 3.15486 1.23231 0
M  V30 1303 C 116.038 4.21939 0.622097 0
M  V30 1304 S 116.871 5.32459 -0.569852 0
M  V30 1305 C 118.027 6.23879 0.502577 0
M  V30 1306 H 118.26 2.9241 -0.536983 0
M  V30 1307 H 115.793 1.49265 -0.394868 0
M  V30 1308 H 117.751 3.66659 1.84585 0
M  V30 1309 H 116.412 2.49977 1.90185 0
M  V30 1310 H 115.605 4.8333 1.42856 0
M  V30 1311 H 115.207 3.73906 0.0837063 0
M  V30 1312 H 117.499 6.63261 1.38171 0
M  V30 1313 H 118.442 7.0806 -0.0751759 0
M  V30 1314 H 118.85 5.58545 0.8178 0
M  V30 1315 N 118.248 0.346503 1.53744 0
M  V30 1316 C 119.158 -0.517293 2.28826 0
M  V30 1317 C 120.174 -1.10935 1.3405 0
M  V30 1318 O 121.35 -1.1244 1.6709 0
M  V30 1319 C 118.415 -1.65098 3.04866 0
M  V30 1320 C 117.476 -1.0884 4.15274 0
M  V30 1321 C 116.709 -2.16806 4.87679 0
M  V30 1322 O 116.932 -3.3758 4.59778 0
M  V30 1323 O 115.866 -1.80934 5.74061 0
M  V30 1324 H 119.692 0.0931396 3.03557 0
M  V30 1325 H 117.277 0.111458 1.48984 0
M  V30 1326 H 119.159 -2.31053 3.5241 0
M  V30 1327 H 117.834 -2.24717 2.32989 0
M  V30 1328 H 116.741 -0.3933 3.72027 0
M  V30 1329 H 118.074 -0.537036 4.89261 0
M  V30 1330 N 119.726 -1.57421 0.075193 0
M  V30 1331 C 120.689 -2.11791 -0.876203 0
M  V30 1332 C 121.689 -1.04268 -1.22412 0
M  V30 1333 O 122.879 -1.30242 -1.15684 0
M  V30 1334 C 120.011 -2.62207 -2.17854 0
M  V30 1335 H 121.204 -2.9716 -0.40444 0
M  V30 1336 H 118.757 -1.55333 -0.173557 0
M  V30 1337 H 119.492 -1.803 -2.6956 0
M  V30 1338 H 119.277 -3.40802 -1.93897 0
M  V30 1339 H 120.767 -3.04335 -2.85955 0
M  V30 1340 N 121.204 0.198386 -1.56346 0
M  V30 1341 C 122.444 0.92609 -1.82217 0
M  V30 1342 C 122.808 1.80584 -0.652195 0
M  V30 1343 O 124.009 2.56907 -0.790716 0
M  V30 1344 C 122.28 1.72354 -3.13096 0
M  V30 1345 S 123.839 2.50371 -3.6036 0
M  V30 1346 H 120.657 0.310677 -0.639532 0
M  V30 1347 H 123.259 0.189755 -1.94577 0
M  V30 1348 H 121.963 1.0678 -3.96265 0
M  V30 1349 H 121.494 2.50175 -3.03605 0
M  V30 1350 H 123.509 3.74488 -3.25535 0
M  V30 1351 N 122.682 1.50554 0.465978 0
M  V30 1352 C 124.098 1.38093 0.800154 0
M  V30 1353 C 124.298 0.440988 1.96615 0
M  V30 1354 O 123.354 -0.114499 2.5224 0
M  V30 1355 C 124.667 2.79565 1.10742 0
M  V30 1356 C 126.215 2.88516 1.21357 0
M  V30 1357 C 126.69 4.30833 1.55393 0
M  V30 1358 N 128.181 4.33807 1.62375 0
M  V30 1359 C 128.916 5.40927 1.90225 0
M  V30 1360 N 128.412 6.58247 2.16062 0
M  V30 1361 N 130.205 5.28376 1.9177 0
M  V30 1362 H 122.356 2.10237 -0.302366 0
M  V30 1363 H 124.619 0.945203 -0.0727746 0
M  V30 1364 H 124.325 3.50208 0.323661 0
M  V30 1365 H 124.199 3.17125 2.04234 0
M  V30 1366 H 126.586 2.1809 1.98799 0
M  V30 1367 H 126.667 2.54492 0.258321 0
M  V30 1368 H 126.311 5.01799 0.784889 0
M  V30 1369 H 126.241 4.62347 2.52076 0
M  V30 1370 H 128.732 3.49212 1.44427 0
M  V30 1371 H 129.045 7.3569 2.36601 0
M  V30 1372 H 127.39 6.61413 2.13444 0
M  V30 1373 H 130.581 4.35715 1.71085 0
M  V30 1374 H 130.754 6.11944 2.13139 0
M  V30 1375 N 124.16 -0.719506 1.40217 0
M  V30 1376 C 125.437 -1.47221 1.28784 0
M  V30 1377 C 125.817 -2.10883 -0.0956067 0
M  V30 1378 O 125.165 -1.99833 -1.10811 0
M  V30 1379 C 125.375 -2.5111 2.42373 0
M  V30 1380 C 126.723 -3.17053 2.82423 0
M  V30 1381 O 127.747 -2.61429 2.41937 0
M  V30 1382 O 126.606 -4.17742 3.52355 0
M  V30 1383 H 123.7 -0.654491 0.50554 0
M  V30 1384 H 126.246 -0.752014 1.52128 0
M  V30 1385 H 125.018 -2.02556 3.34793 0
M  V30 1386 H 124.641 -3.3067 2.20778 0
M  V30 1387 N 125.638 -1.25649 -0.95132 0
M  V30 1388 C 126.884 -1.10757 -1.69884 0
M  V30 1389 C 127.217 0.350061 -1.91019 0
M  V30 1390 O 126.492 1.25783 -1.48354 0
M  V30 1391 C 126.775 -1.86606 -3.07978 0
M  V30 1392 C 126.628 -3.40217 -2.94232 0
M  V30 1393 C 127.947 -1.65182 -4.07925 0
M  V30 1394 H 125.066 -0.40374 -0.616574 0
M  V30 1395 H 127.708 -1.54521 -1.10558 0
M  V30 1396 H 125.858 -1.49409 -3.58621 0
M  V30 1397 H 127.53 -3.87108 -2.50889 0
M  V30 1398 H 125.773 -3.67759 -2.30078 0
M  V30 1399 H 126.444 -3.88505 -3.92133 0
M  V30 1400 H 128.92 -1.9757 -3.66204 0
M  V30 1401 H 127.796 -2.20683 -5.02583 0
M  V30 1402 H 128.057 -0.593933 -4.38092 0
M  V30 1403 N 127.117 1.15442 -1.07289 0
M  V30 1404 C 128.366 1.85557 -0.790669 0
M  V30 1405 C 128.679 1.83186 0.685739 0
M  V30 1406 O 129.885 2.48977 1.0827 0
M  V30 1407 C 128.341 3.33038 -1.36433 0
M  V30 1408 C 127.949 3.43856 -2.8717 0
M  V30 1409 C 129.693 4.0834 -1.1601 0
M  V30 1410 C 127.6 4.85482 -3.3773 0
M  V30 1411 H 126.53 0.695122 -0.292098 0
M  V30 1412 H 129.181 1.30219 -1.29287 0
M  V30 1413 H 127.563 3.88043 -0.789864 0
M  V30 1414 H 128.737 2.98961 -3.50655 0
M  V30 1415 H 127.052 2.81998 -3.06376 0
M  V30 1416 H 129.649 5.12859 -1.51262 0
M  V30 1417 H 129.992 4.16182 -0.0991007 0
M  V30 1418 H 130.525 3.59603 -1.70089 0
M  V30 1419 H 127.264 4.82823 -4.43353 0
M  V30 1420 H 126.784 5.30961 -2.78999 0
M  V30 1421 H 128.463 5.54335 -3.33648 0
M  V30 1422 N 128.595 0.856903 1.32268 0
M  V30 1423 C 130.011 0.547061 1.49931 0
M  V30 1424 C 130.211 -0.921781 1.7918 0
M  V30 1425 O 129.267 -1.70469 1.8627 0
M  V30 1426 C 130.58 1.43599 2.64196 0
M  V30 1427 C 132.128 1.43665 2.78081 0
M  V30 1428 C 132.603 2.31085 3.95428 0
M  V30 1429 N 134.094 2.28893 4.02694 0
M  V30 1430 C 134.829 2.93262 4.92732 0
M  V30 1431 N 134.325 3.66751 5.87763 0
M  V30 1432 N 136.118 2.82638 4.85873 0
M  V30 1433 H 128.269 1.8075 1.11549 0
M  V30 1434 H 130.532 0.772144 0.549997 0
M  V30 1435 H 130.238 2.48058 2.49319 0
M  V30 1436 H 130.112 1.12502 3.60032 0
M  V30 1437 H 132.499 0.399701 2.92381 0
M  V30 1438 H 132.58 1.7878 1.82952 0
M  V30 1439 H 132.224 3.34849 3.81888 0
M  V30 1440 H 132.154 1.93302 4.89839 0
M  V30 1441 H 134.645 1.75466 3.34694 0
M  V30 1442 H 134.958 4.13027 6.53168 0
M  V30 1443 H 133.303 3.70859 5.87783 0
M  V30 1444 H 136.494 2.24774 4.10602 0
M  V30 1445 H 136.667 3.33084 5.55841 0
M  V30 1446 N 130.073 -1.45103 0.615059 0
M  V30 1447 C 131.02 -2.30586 -0.0993978 0
M  V30 1448 C 131.99 -1.42544 -0.852669 0
M  V30 1449 O 133.175 -1.71465 -0.836917 0
M  V30 1450 C 130.315 -3.27572 -1.08583 0
M  V30 1451 C 129.428 -4.30717 -0.332656 0
M  V30 1452 C 128.563 -5.14807 -1.30947 0
M  V30 1453 C 127.602 -6.09673 -0.544538 0
M  V30 1454 N 126.739 -6.86517 -1.47101 0
M  V30 1455 H 131.579 -2.91144 0.635542 0
M  V30 1456 H 129.116 -1.4346 0.325206 0
M  V30 1457 H 131.074 -3.82276 -1.67095 0
M  V30 1458 H 129.704 -2.68751 -1.78809 0
M  V30 1459 H 128.756 -3.78615 0.368107 0
M  V30 1460 H 130.068 -4.98102 0.263842 0
M  V30 1461 H 129.222 -5.73948 -1.96643 0
M  V30 1462 H 127.961 -4.47458 -1.9399 0
M  V30 1463 H 126.966 -5.49656 0.126003 0
M  V30 1464 H 128.191 -6.79052 0.080947 0
M  V30 1465 H 126.137 -6.21851 -2.08895 0
M  V30 1466 H 126.054 -7.50281 -0.928137 0
M  V30 1467 H 127.322 -7.50194 -2.11731 0
M  V30 1468 N 131.551 -0.354651 -1.53558 0
M  V30 1469 C 132.499 0.512195 -2.26891 0
M  V30 1470 C 133.493 1.09263 -1.29452 0
M  V30 1471 O 134.699 1.03709 -1.47121 0
M  V30 1472 H 131.074 0.183878 -0.729173 0
M  V30 1473 H 133.045 -0.128202 -2.98124 0
M  V30 1474 C 131.794 1.64563 -3.06291 0
M  V30 1475 H 131.117 1.20829 -3.81104 0
M  V30 1476 H 132.557 2.22711 -3.60799 0
M  V30 1477 C 131.016 2.58158 -2.16462 0
M  V30 1478 O 131.546 3.60695 -1.76811 0
M  V30 1479 N 129.752 2.27096 -1.81317 0
M  V30 1480 H 129.299 1.43751 -2.1376 0
M  V30 1481 H 129.257 2.89975 -1.21498 0
M  V30 1482 N 133.029 1.57378 -0.0835403 0
M  V30 1483 C 133.977 2.14602 0.89714 0
M  V30 1484 C 134.971 1.08589 1.30018 0
M  V30 1485 O 136.177 1.26952 1.27606 0
M  V30 1486 H 132.552 0.686346 0.3073 0
M  V30 1487 H 134.523 2.95845 0.38969 0
M  V30 1488 C 133.272 2.73188 2.15089 0
M  V30 1489 H 132.595 3.54442 1.84962 0
M  V30 1490 H 134.035 3.1681 2.81793 0
M  V30 1491 C 132.494 1.68517 2.91725 0
M  V30 1492 O 133.024 1.11718 3.85852 0
M  V30 1493 N 131.23 1.39277 2.55049 0
M  V30 1494 H 130.777 1.85655 1.78577 0
M  V30 1495 H 130.735 0.694791 3.06627 0
M  V30 1496 N 134.507 -0.190092 1.56449 0
M  V30 1497 C 135.437 -1.23816 1.97969 0
M  V30 1498 C 136.418 -1.47201 0.852395 0
M  V30 1499 O 137.603 -1.58854 1.1171 0
M  V30 1500 C 134.733 -2.5813 2.3235 0
M  V30 1501 C 133.687 -2.49348 3.47864 0
M  V30 1502 C 133.013 -3.8798 3.67934 0
M  V30 1503 C 134.313 -2.01424 4.81898 0
M  V30 1504 H 136.007 -0.89311 2.85769 0
M  V30 1505 H 133.553 -0.428177 1.37487 0
M  V30 1506 H 135.506 -3.31637 2.59991 0
M  V30 1507 H 134.23 -2.94386 1.41438 0
M  V30 1508 H 132.889 -1.78297 3.20321 0
M  V30 1509 H 132.537 -4.21597 2.74344 0
M  V30 1510 H 132.237 -3.82978 4.45648 0
M  V30 1511 H 133.761 -4.63101 3.97957 0
M  V30 1512 H 135.175 -2.64693 5.08538 0
M  V30 1513 H 133.572 -2.07413 5.63116 0
M  V30 1514 H 134.642 -0.967677 4.75146 0
M  V30 1515 N 135.985 -1.50799 -0.457987 0
M  V30 1516 C 137.213 -1.66218 -1.23203 0
M  V30 1517 C 137.628 -0.350894 -1.85511 0
M  V30 1518 O 136.985 0.668546 -1.69814 0
M  V30 1519 C 137.036 -2.76291 -2.33121 0
M  V30 1520 O 136.757 -4.02338 -1.73366 0
M  V30 1521 C 138.258 -3.028 -3.2377 0
M  V30 1522 H 135.478 -0.558361 -0.372121 0
M  V30 1523 H 138.022 -1.97099 -0.545179 0
M  V30 1524 H 136.177 -2.48068 -2.97558 0
M  V30 1525 H 136.591 -4.63312 -2.4585 0
M  V30 1526 H 138.065 -3.8345 -3.97077 0
M  V30 1527 H 138.542 -2.14385 -3.83322 0
M  V30 1528 H 139.148 -3.32604 -2.65056 0
M  V30 1529 N 137.463 0.71206 -1.40597 0
M  V30 1530 C 138.688 1.50617 -1.42581 0
M  V30 1531 C 139.113 1.88079 -0.0282102 0
M  V30 1532 O 138.471 1.53511 0.964579 0
M  V30 1533 C 138.519 2.7557 -2.3258 0
M  V30 1534 O 137.623 3.72414 -1.77148 0
M  V30 1535 H 136.964 0.453966 -0.484573 0
M  V30 1536 H 139.494 0.876649 -1.84868 0
M  V30 1537 H 139.504 3.2406 -2.47889 0
M  V30 1538 H 138.179 2.47639 -3.34138 0
M  V30 1539 H 136.756 3.31276 -1.71204 0
M  V30 1540 N 138.941 1.26152 0.944643 0
M  V30 1541 C 139.904 1.07474 2.0244 0
M  V30 1542 C 140.904 0.0242064 1.60782 0
M  V30 1543 O 142.094 0.267302 1.72137 0
M  V30 1544 C 139.226 0.633956 3.34953 0
M  V30 1545 H 140.419 2.03336 2.20442 0
M  V30 1546 H 137.972 1.087 1.12312 0
M  V30 1547 H 138.707 -0.326811 3.22649 0
M  V30 1548 H 138.492 1.39247 3.66542 0
M  V30 1549 H 139.982 0.52501 4.14287 0
M  V30 1550 N 140.419 -1.14872 1.07899 0
M  V30 1551 C 141.649 -1.89386 0.825631 0
M  V30 1552 C 142.057 -1.78565 -0.625406 0
M  V30 1553 O 141.4 -1.13918 -1.44113 0
M  V30 1554 C 141.462 -3.40206 1.16191 0
M  V30 1555 C 141.126 -3.74812 2.61467 0
M  V30 1556 C 142.123 -3.75367 3.59716 0
M  V30 1557 C 139.808 -4.0495 2.97189 0
M  V30 1558 C 141.802 -4.05574 4.9172 0
M  V30 1559 C 139.489 -4.34821 4.29388 0
M  V30 1560 C 140.487 -4.35116 5.26463 0
M  V30 1561 O 140.175 -4.64267 6.56286 0
M  V30 1562 H 139.907 -0.606894 0.297751 0
M  V30 1563 H 142.461 -1.46438 1.44031 0
M  V30 1564 H 140.691 -3.8358 0.490214 0
M  V30 1565 H 142.38 -3.96018 0.890193 0
M  V30 1566 H 143.146 -3.52176 3.33462 0
M  V30 1567 H 139.025 -4.03876 2.22273 0
M  V30 1568 H 142.569 -4.05719 5.67484 0
M  V30 1569 H 138.466 -4.5748 4.55392 0
M  V30 1570 H 139.234 -4.82007 6.61522 0
M  V30 1571 N 141.898 -0.863906 -1.31812 0
M  V30 1572 C 143.147 -0.46801 -1.96195 0
M  V30 1573 C 143.46 0.983474 -1.69077 0
M  V30 1574 O 144.666 1.48523 -2.27273 0
M  V30 1575 C 143.122 -0.785995 -3.51212 0
M  V30 1576 C 142.73 -2.25383 -3.87178 0
M  V30 1577 C 144.474 -0.458274 -4.22019 0
M  V30 1578 C 142.381 -2.51455 -5.3528 0
M  V30 1579 H 141.311 -0.171283 -0.734287 0
M  V30 1580 H 143.962 -1.05597 -1.50072 0
M  V30 1581 H 142.344 -0.127359 -3.95795 0
M  V30 1582 H 143.518 -2.95502 -3.53575 0
M  V30 1583 H 141.833 -2.54698 -3.2942 0
M  V30 1584 H 144.43 -0.630369 -5.30971 0
M  V30 1585 H 144.773 0.600834 -4.11941 0
M  V30 1586 H 145.306 -1.07319 -3.8305 0
M  V30 1587 H 142.045 -3.56025 -5.50387 0
M  V30 1588 H 141.565 -1.85923 -5.70257 0
M  V30 1589 H 143.244 -2.35874 -6.02472 0
M  V30 1590 N 143.376 1.44774 -0.622745 0
M  V30 1591 C 144.792 1.56986 -0.287652 0
M  V30 1592 C 144.992 1.61167 1.20944 0
M  V30 1593 O 144.048 1.55015 1.99315 0
M  V30 1594 C 145.361 2.84551 -0.972188 0
M  V30 1595 C 146.909 2.9825 -0.949536 0
M  V30 1596 C 147.384 4.28605 -1.61437 0
M  V30 1597 N 148.875 4.35399 -1.58057 0
M  V30 1598 C 149.61 5.34964 -2.064 0
M  V30 1599 N 149.106 6.40981 -2.62897 0
M  V30 1600 N 150.899 5.26419 -1.97078 0
M  V30 1601 H 143.05 1.40304 -1.59463 0
M  V30 1602 H 145.313 0.671794 -0.668878 0
M  V30 1603 H 145.019 2.87417 -2.02693 0
M  V30 1604 H 144.893 3.73807 -0.504771 0
M  V30 1605 H 147.28 2.94941 0.0967067 0
M  V30 1606 H 147.361 2.10364 -1.45536 0
M  V30 1607 H 147.005 4.32672 -2.66002 0
M  V30 1608 H 146.935 5.15334 -1.08344 0
M  V30 1609 H 149.426 3.59397 -1.16801 0
M  V30 1610 H 149.739 7.13225 -2.97539 0
M  V30 1611 H 148.084 6.4169 -2.66943 0
M  V30 1612 H 151.275 4.42504 -1.52669 0
M  V30 1613 H 151.448 6.03861 -2.35066 0
M  V30 1614 N 144.854 0.36279 1.53368 0
M  V30 1615 C 146.265 -0.117022 1.86333 0
M  V30 1616 C 146.616 -1.48397 1.28347 0
M  V30 1617 O 145.741 -2.07787 0.604428 0
M  V30 1618 C 146.336 -0.21912 3.38091 0
M  V30 1619 C 144.895 -0.643184 3.70864 0
M  V30 1620 C 144.042 0.211318 2.76494 0
M  V30 1621 H 146.993 0.581687 1.47655 0
M  V30 1622 H 147.014 -1.04319 3.6592 0
M  V30 1623 H 146.526 0.775902 3.80265 0
M  V30 1624 H 144.627 -1.64654 3.34245 0
M  V30 1625 H 144.74 -0.41973 4.77258 0
M  V30 1626 H 143.104 -0.319367 2.5269 0
M  V30 1627 H 143.887 1.20383 3.21501 0
M  V30 1628 N 146.332 -1.57332 0.0918853 0
M  V30 1629 C 147.262 -2.16872 -0.865371 0
M  V30 1630 C 148.243 -1.10118 -1.29646 0
M  V30 1631 O 149.428 -1.38242 -1.36392 0
M  V30 1632 C 146.558 -2.74649 -2.12569 0
M  V30 1633 C 145.512 -3.86747 -1.83333 0
M  V30 1634 C 144.838 -4.31212 -3.16166 0
M  V30 1635 C 146.138 -5.10089 -1.1228 0
M  V30 1636 H 147.832 -2.97114 -0.369307 0
M  V30 1637 H 145.378 -1.42918 -0.176194 0
M  V30 1638 H 147.331 -3.14952 -2.7997 0
M  V30 1639 H 146.055 -1.91657 -2.64452 0
M  V30 1640 H 144.714 -3.46978 -1.18331 0
M  V30 1641 H 144.362 -3.45115 -3.6593 0
M  V30 1642 H 144.062 -5.06788 -2.97388 0
M  V30 1643 H 145.586 -4.74146 -3.84731 0
M  V30 1644 H 147 -5.47582 -1.69785 0
M  V30 1645 H 145.397 -5.91073 -1.03693 0
M  V30 1646 H 146.467 -4.84786 -0.105041 0
M  V30 1647 N 147.81 0.181792 -1.56548 0
M  V30 1648 C 149.059 0.898348 -1.8059 0
M  V30 1649 C 149.372 1.83862 -0.667379 0
M  V30 1650 O 150.578 2.59678 -0.792446 0
M  V30 1651 C 149.034 1.64791 -3.19956 0
M  V30 1652 C 148.642 0.751789 -4.41647 0
M  V30 1653 C 150.386 2.35331 -3.53298 0
M  V30 1654 C 148.293 1.50098 -5.72035 0
M  V30 1655 H 147.223 0.339194 -0.673397 0
M  V30 1656 H 149.874 0.151413 -1.82874 0
M  V30 1657 H 148.256 2.43921 -3.11959 0
M  V30 1658 H 149.43 -0.0018076 -4.608 0
M  V30 1659 H 147.745 0.156562 -4.16106 0
M  V30 1660 H 150.342 2.91958 -4.47956 0
M  V30 1661 H 150.685 3.10164 -2.77676 0
M  V30 1662 H 151.218 1.63154 -3.62803 0
M  V30 1663 H 147.957 0.795175 -6.50659 0
M  V30 1664 H 147.477 2.22817 -5.56878 0
M  V30 1665 H 149.156 2.05125 -6.13622 0
M  V30 1666 N 149.288 1.51039 0.449983 0
M  V30 1667 C 150.535 1.63081 1.20045 0
M  V30 1668 C 150.863 0.341024 1.91487 0
M  V30 1669 O 150.118 -0.674276 1.83717 0
M  V30 1670 C 150.417 2.77556 2.25161 0
M  V30 1671 C 150.083 4.17289 1.70823 0
M  V30 1672 C 148.745 4.55305 1.55725 0
M  V30 1673 C 151.097 5.04536 1.3074 0
M  V30 1674 C 148.425 5.78287 0.989999 0
M  V30 1675 C 150.777 6.28085 0.754482 0
M  V30 1676 C 149.441 6.64885 0.590308 0
M  V30 1677 H 148.711 0.596755 0.439277 0
M  V30 1678 H 151.358 1.85037 0.49333 0
M  V30 1679 H 149.663 2.49771 3.01863 0
M  V30 1680 H 151.36 2.84073 2.83026 0
M  V30 1681 H 147.95 3.8731 1.83546 0
M  V30 1682 H 152.134 4.75782 1.41229 0
M  V30 1683 H 147.39 6.05456 0.850451 0
M  V30 1684 H 151.564 6.95038 0.435324 0
M  V30 1685 H 149.191 7.60055 0.14862 0
M  V30 1686 N 150.766 -0.704594 1.40972 0
M  V30 1687 C 152.012 -1.46675 1.40051 0
M  V30 1688 C 152.345 -1.94199 0.00641102 0
M  V30 1689 O 151.62 -1.68916 -0.964235 0
M  V30 1690 C 151.903 -2.68505 2.39952 0
M  V30 1691 C 151.756 -2.26805 3.88432 0
M  V30 1692 C 153.075 -3.70686 2.37233 0
M  V30 1693 H 150.194 -0.532015 0.510028 0
M  V30 1694 H 152.836 -0.803255 1.72185 0
M  V30 1695 H 150.986 -3.25114 2.1268 0
M  V30 1696 H 152.658 -1.75592 4.26574 0
M  V30 1697 H 150.901 -1.58685 4.03734 0
M  V30 1698 H 151.572 -3.14181 4.53866 0
M  V30 1699 H 154.048 -3.23731 2.61415 0
M  V30 1700 H 152.924 -4.53553 3.09162 0
M  V30 1701 H 153.185 -4.19754 1.38777 0
M  V30 1702 N 152.244 -1.26651 -0.937939 0
M  V30 1703 C 153.492 -1.12165 -1.68118 0
M  V30 1704 C 153.813 0.334983 -1.92101 0
M  V30 1705 O 153.083 1.23583 -1.52 0
M  V30 1706 H 151.663 -0.412093 -0.623048 0
M  V30 1707 H 154.325 -1.59027 -1.12678 0
M  V30 1708 H 153.421 -1.64289 -2.6536 0
M  V30 1709 N 153.722 1.14298 -1.08507 0
M  V30 1710 C 154.999 1.81544 -0.728088 0
M  V30 1711 C 155.379 1.95838 0.78808 0
M  V30 1712 O 154.727 1.51904 1.70697 0
M  V30 1713 C 154.937 3.17169 -1.45619 0
M  V30 1714 C 156.285 3.9265 -1.61591 0
M  V30 1715 O 157.309 3.26762 -1.41793 0
M  V30 1716 O 156.168 5.10807 -1.94263 0
M  V30 1717 H 153.262 0.78491 -0.260471 0
M  V30 1718 H 155.808 1.21307 -1.18671 0
M  V30 1719 H 154.58 3.01934 -2.489 0
M  V30 1720 H 154.203 3.851 -0.989124 0
M  V30 1721 N 155.201 0.870884 1.31352 0
M  V30 1722 C 156.447 0.482987 1.96965 0
M  V30 1723 C 156.78 -0.962462 1.68672 0
M  V30 1724 O 156.055 -1.6779 0.98371 0
M  V30 1725 C 156.338 0.741752 3.52378 0
M  V30 1726 C 156.191 2.2368 3.9024 0
M  V30 1727 C 157.51 0.208838 4.39604 0
M  V30 1728 H 154.629 0.176955 0.715441 0
M  V30 1729 H 157.271 1.09229 1.55464 0
M  V30 1730 H 155.421 0.223149 3.87859 0
M  V30 1731 H 157.093 2.82273 3.64856 0
M  V30 1732 H 155.336 2.70901 3.38814 0
M  V30 1733 H 156.007 2.3685 4.98604 0
M  V30 1734 H 158.483 0.652529 4.10952 0
M  V30 1735 H 157.359 0.419336 5.47296 0
M  V30 1736 H 157.62 -0.889275 4.33064 0
M  V30 1737 N 156.679 -1.44442 0.630414 0
M  V30 1738 C 157.927 -2.01653 0.134351 0
M  V30 1739 C 158.248 -1.49836 -1.24796 0
M  V30 1740 O 157.518 -0.701684 -1.82902 0
M  V30 1741 H 156.098 -0.74554 0.0466769 0
M  V30 1742 H 158.76 -1.76952 0.816955 0
M  V30 1743 H 157.856 -3.11935 0.101498 0
M  V30 1744 N 158.157 -0.370918 -1.53173 0
M  V30 1745 C 159.09 0.516727 -2.22273 0
M  V30 1746 C 160.068 1.07877 -1.21661 0
M  V30 1747 O 161.252 1.13389 -1.50583 0
M  V30 1748 C 158.379 1.71346 -2.92161 0
M  V30 1749 C 157.425 1.27838 -4.0689 0
M  V30 1750 S 158.258 0.275217 -5.34792 0
M  V30 1751 C 159.414 1.47816 -6.08195 0
M  V30 1752 H 159.647 -0.0701054 -2.97217 0
M  V30 1753 H 157.18 -0.155038 -1.5362 0
M  V30 1754 H 159.138 2.39988 -3.3304 0
M  V30 1755 H 157.799 2.27156 -2.16931 0
M  V30 1756 H 156.992 2.17141 -4.54825 0
M  V30 1757 H 156.594 0.671105 -3.6793 0
M  V30 1758 H 158.886 2.40831 -6.33251 0
M  V30 1759 H 159.829 1.04008 -7.0042 0
M  V30 1760 H 160.237 1.68663 -5.38714 0
M  V30 1761 N 159.635 1.57281 -0.100228 0
M  V30 1762 C 160.883 1.94153 0.561157 0
M  V30 1763 C 161.204 0.983157 1.68401 0
M  V30 1764 O 160.474 0.0361132 1.95867 0
M  V30 1765 H 159.054 0.716791 0.210283 0
M  V30 1766 H 161.716 1.94202 -0.164765 0
M  V30 1767 H 160.812 2.96709 0.968008 0
M  V30 1768 N 161.113 -0.173488 1.56642 0
M  V30 1769 C 162.359 -0.891784 1.8214 0
M  V30 1770 C 162.692 -1.8199 0.677736 0
M  V30 1771 O 161.967 -1.91842 -0.320446 0
M  V30 1772 C 162.25 -1.68933 3.18015 0
M  V30 1773 C 162.103 -0.784487 4.42906 0
M  V30 1774 C 163.422 -2.65748 3.50808 0
M  V30 1775 H 160.541 -0.322761 0.662567 0
M  V30 1776 H 163.183 -0.158095 1.89341 0
M  V30 1777 H 161.333 -2.31482 3.12007 0
M  V30 1778 H 163.005 -0.172046 4.60979 0
M  V30 1779 H 161.248 -0.0924117 4.33702 0
M  V30 1780 H 161.919 -1.37799 5.34524 0
M  V30 1781 H 164.395 -2.13327 3.57255 0
M  V30 1782 H 163.271 -3.18619 4.4696 0
M  V30 1783 H 163.532 -3.45842 2.75401 0
M  V30 1784 N 162.591 -1.51276 -0.441967 0
M  V30 1785 C 163.539 -1.72823 -1.55676 0
M  V30 1786 C 164.533 -0.59445 -1.58627 0
M  V30 1787 O 165.739 -0.775715 -1.62427 0
M  V30 1788 H 162.114 -0.545983 -0.517113 0
M  V30 1789 H 164.085 -2.6628 -1.34675 0
M  V30 1790 C 162.834 -1.86619 -2.93375 0
M  V30 1791 H 162.157 -2.73264 -2.91834 0
M  V30 1792 H 163.597 -2.05709 -3.70756 0
M  V30 1793 C 162.056 -0.624842 -3.31055 0
M  V30 1794 O 162.586 0.222636 -4.01083 0
M  V30 1795 N 160.792 -0.470288 -2.86769 0
M  V30 1796 H 160.339 -1.161 -2.29953 0
M  V30 1797 H 160.297 0.359051 -3.12343 0
M  V30 1798 N 164.069 0.697108 -1.41344 0
M  V30 1799 C 165.48 1.27697 -1.36199 0
M  V30 1800 C 165.831 1.9615 -0.0443463 0
M  V30 1801 O 164.956 1.98689 0.857419 0
M  V30 1802 C 165.551 2.32223 -2.46694 0
M  V30 1803 C 164.11 2.8579 -2.44952 0
M  V30 1804 C 163.257 1.59807 -2.26621 0
M  V30 1805 H 166.208 0.491968 -1.50882 0
M  V30 1806 H 166.229 3.1348 -2.15664 0
M  V30 1807 H 165.741 1.82373 -3.42581 0
M  V30 1808 H 163.842 3.3982 -1.52817 0
M  V30 1809 H 163.955 3.36325 -3.41207 0
M  V30 1810 H 162.319 1.8556 -1.7447 0
M  V30 1811 H 163.102 1.11956 -3.24532 0
M  V30 1812 N 165.547 1.27147 0.931209 0
M  V30 1813 C 166.958 1.12044 1.49342 0
M  V30 1814 C 167.309 -0.295795 1.93957 0
M  V30 1815 O 166.434 -1.18835 1.80852 0
M  V30 1816 C 167.029 2.02781 2.71414 0
M  V30 1817 C 165.588 1.91794 3.2387 0
M  V30 1818 C 164.735 1.95543 1.96617 0
M  V30 1819 H 167.686 1.40091 0.745672 0
M  V30 1820 H 167.707 1.58156 3.46074 0
M  V30 1821 H 167.219 3.05848 2.38911 0
M  V30 1822 H 165.32 0.916992 3.6114 0
M  V30 1823 H 165.433 2.77852 3.90302 0
M  V30 1824 H 163.797 1.39722 2.12955 0
M  V30 1825 H 164.58 3.00259 1.66432 0
M  V30 1826 N 167.025 -1.13721 1.09112 0
M  V30 1827 C 167.988 -2.17222 0.731241 0
M  V30 1828 C 168.988 -1.59035 -0.237566 0
M  V30 1829 O 170.178 -1.74192 -0.0161704 0
M  V30 1830 C 167.31 -3.40804 0.0808443 0
M  V30 1831 H 168.503 -2.50573 1.64783 0
M  V30 1832 H 166.056 -1.28493 0.889897 0
M  V30 1833 H 166.791 -3.1304 -0.847127 0
M  V30 1834 H 166.576 -3.84306 0.777896 0
M  V30 1835 H 168.066 -4.1731 -0.155657 0
M  V30 1836 N 168.503 -0.877838 -1.30888 0
M  V30 1837 C 169.751 -0.491723 -1.96027 0
M  V30 1838 C 170.072 0.960827 -1.69685 0
M  V30 1839 O 169.342 1.67462 -1.01654 0
M  V30 1840 H 167.922 -0.17885 -0.725273 0
M  V30 1841 H 170.584 -1.11935 -1.59551 0
M  V30 1842 H 169.68 -0.656016 -3.05128 0
M  V30 1843 N 169.982 1.44106 -0.638065 0
M  V30 1844 C 171.212 2.06037 -0.152394 0
M  V30 1845 C 171.62 1.47808 1.18108 0
M  V30 1846 O 170.963 0.598092 1.73691 0
M  V30 1847 C 171.025 3.59488 0.0293714 0
M  V30 1848 C 170.689 4.4022 -1.22702 0
M  V30 1849 C 171.686 4.73256 -2.15232 0
M  V30 1850 C 169.371 4.8048 -1.46437 0
M  V30 1851 C 171.365 5.45444 -3.29802 0
M  V30 1852 C 169.052 5.52417 -2.61303 0
M  V30 1853 C 170.05 5.84819 -3.52811 0
M  V30 1854 O 169.738 6.55289 -4.65673 0
M  V30 1855 H 169.47 0.671233 -0.0801401 0
M  V30 1856 H 172.024 1.85851 -0.874563 0
M  V30 1857 H 170.254 3.78191 0.806758 0
M  V30 1858 H 171.943 4.03164 0.470475 0
M  V30 1859 H 172.709 4.42684 -1.98131 0
M  V30 1860 H 168.588 4.54676 -0.760977 0
M  V30 1861 H 172.132 5.70653 -4.01249 0
M  V30 1862 H 168.029 5.82404 -2.78344 0
M  V30 1863 H 168.797 6.73762 -4.64744 0
M  V30 1864 N 171.46 0.379036 1.52974 0
M  V30 1865 C 172.685 -0.209353 2.06341 0
M  V30 1866 C 173.11 -1.40583 1.24972 0
M  V30 1867 O 172.468 -1.79246 0.272155 0
M  V30 1868 C 172.516 -0.567786 3.56102 0
M  V30 1869 O 171.62 -1.66318 3.77375 0
M  V30 1870 H 170.961 -0.0272919 0.663439 0
M  V30 1871 H 173.491 0.543536 1.97248 0
M  V30 1872 H 173.501 -0.835003 3.99364 0
M  V30 1873 H 172.176 0.307013 4.14765 0
M  V30 1874 H 170.753 -1.39048 3.46006 0
M  V30 1875 N 172.938 -1.57226 0.108567 0
M  V30 1876 C 174.166 -1.99179 -0.559954 0
M  V30 1877 C 174.581 -0.988022 -1.60884 0
M  V30 1878 O 173.938 0.0205512 -1.82488 0
M  V30 1879 C 173.989 -3.41159 -1.19552 0
M  V30 1880 O 173.71 -4.37694 -0.188577 0
M  V30 1881 C 175.211 -3.98188 -1.94837 0
M  V30 1882 H 172.431 -0.654228 -0.149088 0
M  V30 1883 H 174.975 -2.03598 0.19183 0
M  V30 1884 H 173.13 -3.37711 -1.89815 0
M  V30 1885 H 173.544 -5.20469 -0.649014 0
M  V30 1886 H 175.018 -4.99644 -2.34648 0
M  V30 1887 H 175.495 -3.3675 -2.81951 0
M  V30 1888 H 176.101 -4.0515 -1.2936 0
M  V30 1889 N 174.416 0.165178 -1.56732 0
M  V30 1890 C 175.693 0.908443 -1.73224 0
M  V30 1891 C 176.073 2.0013 -0.67165 0
M  V30 1892 O 175.421 2.26353 0.31253 0
M  V30 1893 C 175.631 1.46756 -3.16644 0
M  V30 1894 C 176.979 1.93809 -3.77787 0
M  V30 1895 O 178.003 1.56537 -3.1996 0
M  V30 1896 O 176.862 2.62486 -4.79336 0
M  V30 1897 H 173.956 0.428025 -0.707618 0
M  V30 1898 H 176.502 0.152526 -1.69013 0
M  V30 1899 H 175.274 0.68129 -3.85323 0
M  V30 1900 H 174.897 2.28749 -3.25207 0
M  V30 1901 N 175.894 1.51508 0.433938 0
M  V30 1902 C 177.14 1.64588 1.18484 0
M  V30 1903 C 177.473 0.362666 1.90784 0
M  V30 1904 O 176.748 -0.637892 1.83742 0
M  V30 1905 C 177.031 2.85149 2.19913 0
M  V30 1906 C 176.884 4.23456 1.51674 0
M  V30 1907 C 178.203 3.01227 3.20858 0
M  V30 1908 H 175.322 0.598994 0.429389 0
M  V30 1909 H 177.964 1.84002 0.473647 0
M  V30 1910 H 176.114 2.68729 2.80566 0
M  V30 1911 H 177.786 4.51552 0.943322 0
M  V30 1912 H 176.029 4.25998 0.819035 0
M  V30 1913 H 176.7 5.03812 2.2556 0
M  V30 1914 H 179.176 3.16382 2.70263 0
M  V30 1915 H 178.052 3.87141 3.89118 0
M  V30 1916 H 178.313 2.13447 3.8716 0
M  V30 1917 N 177.372 -0.689602 1.41712 0
M  V30 1918 C 178.621 -1.44534 1.40686 0
M  V30 1919 C 178.934 -1.95588 0.0213352 0
M  V30 1920 O 180.14 -2.71271 -0.111534 0
M  V30 1921 C 178.596 -2.61387 2.47396 0
M  V30 1922 C 178.204 -2.17094 3.91885 0
M  V30 1923 C 179.948 -3.38986 2.55517 0
M  V30 1924 C 177.855 -3.3094 4.90135 0
M  V30 1925 H 176.785 -0.542925 0.52321 0
M  V30 1926 H 179.436 -0.748054 1.6756 0
M  V30 1927 H 177.818 -3.33412 2.13664 0
M  V30 1928 H 178.992 -1.52318 4.34897 0
M  V30 1929 H 177.307 -1.52473 3.8748 0
M  V30 1930 H 179.904 -4.23747 3.26102 0
M  V30 1931 H 180.247 -3.84578 1.59391 0
M  V30 1932 H 180.78 -2.74021 2.8837 0
M  V30 1933 H 177.519 -2.90355 5.87685 0
M  V30 1934 H 177.039 -3.94546 4.51767 0
M  V30 1935 H 178.718 -3.9663 5.11169 0
M  V30 1936 N 178.85 -1.27639 -0.924453 0
M  V30 1937 C 180.099 -1.13549 -1.66702 0
M  V30 1938 C 180.412 0.317487 -1.93006 0
M  V30 1939 O 181.618 0.579333 -2.65247 0
M  V30 1940 C 180.074 -1.98426 -3.00259 0
M  V30 1941 C 179.682 -3.484 -2.81641 0
M  V30 1942 C 181.426 -1.92993 -3.78092 0
M  V30 1943 C 179.333 -4.25464 -4.10773 0
M  V30 1944 H 178.263 -0.421351 -0.625283 0
M  V30 1945 H 180.914 -1.52085 -1.02676 0
M  V30 1946 H 179.296 -1.52736 -3.6536 0
M  V30 1947 H 180.47 -4.01973 -2.25287 0
M  V30 1948 H 178.785 -3.55245 -2.17232 0
M  V30 1949 H 181.382 -2.47844 -4.7379 0
M  V30 1950 H 181.725 -0.904281 -4.0636 0
M  V30 1951 H 182.258 -2.36595 -3.19793 0
M  V30 1952 H 178.997 -5.28566 -3.87683 0
M  V30 1953 H 178.517 -3.76667 -4.66779 0
M  V30 1954 H 180.196 -4.34812 -4.79111 0
M  V30 1955 N 180.328 1.1314 -1.09713 0
M  V30 1956 C 181.291 2.16831 -0.742751 0
M  V30 1957 C 182.291 1.59159 0.229129 0
M  V30 1958 O 183.481 1.74199 0.00693237 0
M  V30 1959 C 180.613 3.40756 -0.0989168 0
M  V30 1960 H 181.806 2.49695 -1.66109 0
M  V30 1961 H 179.359 1.2802 -0.896699 0
M  V30 1962 H 180.094 3.13485 0.830514 0
M  V30 1963 H 179.879 3.83888 -0.798265 0
M  V30 1964 H 181.369 4.17386 0.133524 0
M  V30 1965 N 181.806 0.884767 1.30421 0
M  V30 1966 C 182.769 0.356277 2.26414 0
M  V30 1967 C 183.769 -0.501124 1.52792 0
M  V30 1968 O 184.959 -0.30831 1.7145 0
M  V30 1969 C 182.091 -0.492316 3.37326 0
M  V30 1970 H 183.284 1.20389 2.74675 0
M  V30 1971 H 180.837 0.661607 1.41607 0
M  V30 1972 H 181.572 -1.36052 2.94381 0
M  V30 1973 H 181.357 0.121832 3.91911 0
M  V30 1974 H 182.847 -0.853871 4.08777 0
M  V30 1975 N 183.284 -1.43765 0.645699 0
M  V30 1976 C 184.531 -2.01898 0.15604 0
M  V30 1977 C 184.859 -1.50887 -1.22733 0
M  V30 1978 O 184.114 -0.689271 -1.8316 0
M  V30 1979 C 184.413 -3.57238 0.107679 0
M  V30 1980 C 184.079 -4.27564 1.43178 0
M  V30 1981 C 182.741 -4.46492 1.7944 0
M  V30 1982 C 185.093 -4.67454 2.30513 0
M  V30 1983 C 182.421 -5.02573 3.02716 0
M  V30 1984 C 184.773 -5.24901 3.53074 0
M  V30 1985 C 183.437 -5.42046 3.89541 0
M  V30 1986 H 182.707 -0.738797 0.057099 0
M  V30 1987 H 185.354 -1.72341 0.834912 0
M  V30 1988 H 183.659 -3.86293 -0.654618 0
M  V30 1989 H 185.356 -3.99965 -0.287938 0
M  V30 1990 H 181.946 -4.13171 1.13963 0
M  V30 1991 H 186.13 -4.5253 2.0379 0
M  V30 1992 H 181.386 -5.14033 3.31028 0
M  V30 1993 H 185.56 -5.54758 4.20971 0
M  V30 1994 H 183.187 -5.85268 4.85145 0
M  V30 1995 N 184.763 -0.387143 -1.52771 0
M  V30 1996 C 186.174 0.0873634 -1.86495 0
M  V30 1997 C 186.525 1.46336 -1.30691 0
M  V30 1998 O 185.65 2.068 -0.637409 0
M  V30 1999 C 186.245 0.165305 -3.38396 0
M  V30 2000 C 184.804 0.584101 -3.7184 0
M  V30 2001 C 183.951 -0.255279 -2.76122 0
M  V30 2002 H 186.902 -0.605104 -1.46711 0
M  V30 2003 H 186.923 0.984848 -3.67534 0
M  V30 2004 H 186.435 -0.836301 -3.78982 0
M  V30 2005 H 184.536 1.59315 -3.36823 0
M  V30 2006 H 184.649 0.343749 -4.77865 0
M  V30 2007 H 183.013 0.279126 -2.53166 0
M  V30 2008 H 183.796 -1.25482 -3.19545 0
M  V30 2009 N 186.241 1.57166 -0.116904 0
M  V30 2010 C 187.487 1.96206 0.536166 0
M  V30 2011 C 187.842 0.99915 1.64422 0
M  V30 2012 O 187.135 0.0288195 1.91578 0
M  V30 2013 C 187.329 3.39508 1.11664 0
M  V30 2014 C 187.158 4.49651 0.0663474 0
M  V30 2015 C 185.928 5.03982 -0.36474 0
M  V30 2016 C 188.126 5.09322 -0.713829 0
M  V30 2017 N 186.108 5.97699 -1.40102 0
M  V30 2018 C 187.479 5.98963 -1.60136 0
M  V30 2019 C 189.534 4.91989 -0.764948 0
M  V30 2020 C 188.237 6.73128 -2.53556 0
M  V30 2021 C 190.263 5.66833 -1.68685 0
M  V30 2022 C 189.625 6.56158 -2.56196 0
M  V30 2023 H 185.724 0.764203 0.165886 0
M  V30 2024 H 188.308 1.93623 -0.204535 0
M  V30 2025 H 186.479 3.42743 1.82707 0
M  V30 2026 H 188.211 3.65677 1.73386 0
M  V30 2027 H 184.966 4.73592 0.027252 0
M  V30 2028 H 185.39 6.49262 -1.91802 0
M  V30 2029 H 190.032 4.22676 -0.102501 0
M  V30 2030 H 187.75 7.41689 -3.20816 0
M  V30 2031 H 191.336 5.55427 -1.73181 0
M  V30 2032 H 190.216 7.13057 -3.26372 0
M  V30 2033 N 187.719 -0.156864 1.56817 0
M  V30 2034 C 188.967 -0.869404 1.82444 0
M  V30 2035 C 189.288 -1.82147 0.69623 0
M  V30 2036 O 188.558 -1.93847 -0.28287 0
M  V30 2037 H 187.138 -0.324043 0.673056 0
M  V30 2038 H 189.8 -0.153224 1.94297 0
M  V30 2039 H 188.896 -1.43761 2.77019 0
M  V30 2040 N 189.197 -1.51736 -0.425897 0
M  V30 2041 C 190.16 -1.73271 -1.50032 0
M  V30 2042 C 191.16 -0.602639 -1.4908 0
M  V30 2043 O 192.35 -0.87033 -1.509 0
M  V30 2044 C 189.482 -1.79969 -2.89523 0
M  V30 2045 H 190.675 -2.69172 -1.32237 0
M  V30 2046 H 188.228 -1.41899 -0.65532 0
M  V30 2047 H 188.963 -0.859241 -3.1271 0
M  V30 2048 H 188.748 -2.62109 -2.91619 0
M  V30 2049 H 190.238 -1.9843 -3.67444 0
M  V30 2050 N 190.675 0.682077 -1.42076 0
M  V30 2051 C 191.905 1.46844 -1.45329 0
M  V30 2052 C 192.313 1.89102 -0.0609328 0
M  V30 2053 O 191.656 1.58238 0.933082 0
M  V30 2054 C 191.718 2.75375 -2.31104 0
M  V30 2055 C 191.382 2.55238 -3.79081 0
M  V30 2056 C 192.379 2.20309 -4.70914 0
M  V30 2057 C 190.064 2.70459 -4.2327 0
M  V30 2058 C 192.058 2.00859 -6.04925 0
M  V30 2059 C 189.745 2.50624 -5.57343 0
M  V30 2060 C 190.743 2.15876 -6.47986 0
M  V30 2061 O 190.431 1.96227 -7.79583 0
M  V30 2062 H 190.163 0.4586 -0.496651 0
M  V30 2063 H 192.717 0.846131 -1.87162 0
M  V30 2064 H 190.947 3.40061 -1.84107 0
M  V30 2065 H 192.636 3.37231 -2.25898 0
M  V30 2066 H 193.402 2.08153 -4.38061 0
M  V30 2067 H 189.281 2.96485 -3.53012 0
M  V30 2068 H 192.825 1.7366 -6.75639 0
M  V30 2069 H 188.722 2.62375 -5.89771 0
M  V30 2070 H 189.49 2.10883 -7.90867 0
M  V30 2071 N 192.153 1.28127 0.917671 0
M  V30 2072 C 193.083 1.14248 2.03641 0
M  V30 2073 C 194.064 0.0412748 1.7005 0
M  V30 2074 O 195.249 0.217566 1.92977 0
M  V30 2075 C 192.379 0.799431 3.37974 0
M  V30 2076 C 191.333 1.85497 3.85713 0
M  V30 2077 C 190.659 1.36565 5.16966 0
M  V30 2078 C 191.959 3.26085 4.08002 0
M  V30 2079 H 193.653 2.07835 2.15511 0
M  V30 2080 H 191.199 1.00064 1.03553 0
M  V30 2081 H 193.152 0.689114 4.15727 0
M  V30 2082 H 191.876 -0.172145 3.26146 0
M  V30 2083 H 190.535 1.95437 3.10161 0
M  V30 2084 H 190.183 0.383253 5.01538 0
M  V30 2085 H 189.883 2.07143 5.49878 0
M  V30 2086 H 191.407 1.26848 5.97279 0
M  V30 2087 H 192.821 3.19089 4.76293 0
M  V30 2088 H 191.218 3.94462 4.52238 0
M  V30 2089 H 192.288 3.70394 3.12948 0
M  V30 2090 N 193.631 -1.12557 1.10312 0
M  V30 2091 C 194.879 -1.83675 0.843091 0
M  V30 2092 C 195.2 -1.84435 -0.633131 0
M  V30 2093 O 194.47 -1.30657 -1.45964 0
M  V30 2094 H 193.05 -0.680138 0.308904 0
M  V30 2095 H 195.712 -1.36301 1.39313 0
M  V30 2096 H 194.808 -2.87908 1.2048 0
M  V30 2097 N 195.109 -0.891671 -1.2995 0
M  V30 2098 C 196.072 -0.36828 -2.26222 0
M  V30 2099 C 197.072 0.493014 -1.53056 0
M  V30 2100 O 198.262 0.299213 -1.71611 0
M  V30 2101 C 195.394 0.47442 -3.37583 0
M  V30 2102 H 196.587 -1.21844 -2.74033 0
M  V30 2103 H 194.14 -0.669107 -1.41254 0
M  V30 2104 H 194.875 1.34489 -2.95099 0
M  V30 2105 H 194.66 -0.142615 -3.91841 0
M  V30 2106 H 196.15 0.83218 -4.09224 0
M  V30 2107 N 196.587 1.43421 -0.653314 0
M  V30 2108 C 197.497 2.34568 0.0388565 0
M  V30 2109 C 198.513 1.53888 0.81207 0
M  V30 2110 O 199.689 1.86539 0.759294 0
M  V30 2111 C 196.754 3.32167 0.993269 0
M  V30 2112 C 195.815 4.28751 0.216977 0
M  V30 2113 C 195.048 5.21688 1.12593 0
M  V30 2114 O 195.271 5.19052 2.36519 0
M  V30 2115 O 194.205 5.98919 0.598284 0
M  V30 2116 H 198.031 2.95251 -0.711386 0
M  V30 2117 H 195.616 1.43564 -0.413502 0
M  V30 2118 H 197.498 3.92183 1.54176 0
M  V30 2119 H 196.173 2.73987 1.72374 0
M  V30 2120 H 195.08 3.72215 -0.375101 0
M  V30 2121 H 196.413 4.89913 -0.473924 0
M  V30 2122 N 198.065 0.39524 1.52563 0
M  V30 2123 C 199.028 -0.425001 2.25225 0
M  V30 2124 C 200.028 -0.985266 1.27079 0
M  V30 2125 O 201.218 -0.866332 1.5113 0
M  V30 2126 C 198.35 -1.59686 3.01186 0
M  V30 2127 H 199.543 0.211233 2.99155 0
M  V30 2128 H 197.096 0.147472 1.55603 0
M  V30 2129 H 197.831 -2.27035 2.31572 0
M  V30 2130 H 197.616 -1.20176 3.73229 0
M  V30 2131 H 199.106 -2.17743 3.5634 0
M  V30 2132 N 199.544 -1.57102 0.125237 0
M  V30 2133 C 200.474 -2.18659 -0.819174 0
M  V30 2134 C 201.455 -1.12843 -1.27281 0
M  V30 2135 O 202.64 -1.41104 -1.33429 0
M  V30 2136 C 199.77 -2.79096 -2.06695 0
M  V30 2137 C 198.724 -3.90548 -1.75088 0
M  V30 2138 C 198.05 -4.37821 -3.06948 0
M  V30 2139 C 199.35 -5.12356 -1.01435 0
M  V30 2140 H 201.044 -2.9783 -0.306202 0
M  V30 2141 H 198.59 -1.4326 -0.145839 0
M  V30 2142 H 200.543 -3.2082 -2.73226 0
M  V30 2143 H 199.267 -1.97223 -2.60328 0
M  V30 2144 H 197.926 -3.49409 -1.10944 0
M  V30 2145 H 197.574 -3.52799 -3.58527 0
M  V30 2146 H 197.274 -5.12982 -2.86571 0
M  V30 2147 H 198.798 -4.822 -3.74587 0
M  V30 2148 H 200.212 -5.5106 -1.58132 0
M  V30 2149 H 198.609 -5.9314 -0.911319 0
M  V30 2150 H 199.679 -4.849 -0.00218681 0
M  V30 2151 N 201.022 0.148545 -1.56898 0
M  V30 2152 C 201.932 1.20293 -2.01412 0
M  V30 2153 C 202.948 1.47107 -0.929273 0
M  V30 2154 O 204.124 1.58807 -1.23863 0
M  V30 2155 C 201.189 2.51682 -2.38447 0
M  V30 2156 C 200.25 2.32529 -3.60872 0
M  V30 2157 C 199.483 3.57653 -3.96132 0
M  V30 2158 O 199.706 4.63771 -3.32073 0
M  V30 2159 O 198.64 3.50408 -4.89385 0
M  V30 2160 H 202.466 0.855025 -2.91416 0
M  V30 2161 H 200.051 0.357151 -1.45068 0
M  V30 2162 H 201.933 3.29147 -2.63135 0
M  V30 2163 H 200.608 2.86006 -1.51599 0
M  V30 2164 H 199.515 1.53019 -3.41373 0
M  V30 2165 H 200.848 2.03121 -4.48333 0
M  V30 2166 N 202.5 1.5196 0.417844 0
M  V30 2167 C 203.432 1.70895 1.52733 0
M  V30 2168 C 204.445 0.589405 1.51756 0
M  V30 2169 O 205.634 0.864312 1.56179 0
M  V30 2170 C 202.734 1.72627 2.91639 0
M  V30 2171 C 201.907 3.01479 3.16905 0
M  V30 2172 C 200.966 2.95139 4.35637 0
M  V30 2173 O 199.992 3.69059 4.3334 0
M  V30 2174 N 201.194 2.12328 5.40275 0
M  V30 2175 H 203.959 2.66612 1.36888 0
M  V30 2176 H 201.52 1.50089 0.607037 0
M  V30 2177 H 203.512 1.65928 3.6912 0
M  V30 2178 H 202.082 0.844216 3.00985 0
M  V30 2179 H 201.302 3.21895 2.27546 0
M  V30 2180 H 202.59 3.86736 3.30625 0
M  V30 2181 H 201.988 1.51685 5.44985 0
M  V30 2182 H 200.545 2.11494 6.16534 0
M  V30 2183 N 203.978 -0.674533 1.42435 0
M  V30 2184 C 205.226 -1.43175 1.42637 0
M  V30 2185 C 205.547 -1.94951 0.0438992 0
M  V30 2186 O 204.817 -1.7308 -0.917607 0
M  V30 2187 H 203.397 -0.531307 0.525092 0
M  V30 2188 H 206.059 -0.797006 1.77859 0
M  V30 2189 H 205.155 -2.28463 2.12629 0
M  V30 2190 N 205.456 -1.28612 -0.910864 0
M  V30 2191 C 206.705 -1.15311 -1.65488 0
M  V30 2192 C 207.018 0.296999 -1.93332 0
M  V30 2193 O 208.224 0.551168 -2.65847 0
M  V30 2194 C 206.68 -2.01599 -2.98137 0
M  V30 2195 C 206.288 -3.51367 -2.7793 0
M  V30 2196 C 208.032 -1.96993 -3.76024 0
M  V30 2197 C 205.939 -4.29797 -4.06237 0
M  V30 2198 H 204.869 -0.42796 -0.620779 0
M  V30 2199 H 207.52 -1.53166 -1.01057 0
M  V30 2200 H 205.902 -1.56603 -3.63719 0
M  V30 2201 H 207.076 -4.0434 -2.21011 0
M  V30 2202 H 205.391 -3.57529 -2.13452 0
M  V30 2203 H 207.988 -2.52856 -4.71135 0
M  V30 2204 H 208.331 -0.94733 -4.05378 0
M  V30 2205 H 208.864 -2.39973 -3.17266 0
M  V30 2206 H 205.603 -5.32648 -3.82055 0
M  V30 2207 H 205.123 -3.81596 -4.62757 0
M  V30 2208 H 206.802 -4.39869 -4.74473 0
M  V30 2209 N 206.934 1.1197 -1.10907 0
M  V30 2210 C 208.211 1.79959 -0.766432 0
M  V30 2211 C 208.591 1.97466 0.746363 0
M  V30 2212 O 207.939 1.55491 1.67436 0
M  V30 2213 C 208.149 3.14009 -1.52314 0
M  V30 2214 C 209.497 3.89134 -1.69883 0
M  V30 2215 O 210.521 3.2368 -1.48692 0
M  V30 2216 O 209.38 5.06572 -2.05054 0
M  V30 2217 H 206.474 0.779208 -0.277062 0
M  V30 2218 H 209.02 1.18762 -1.21217 0
M  V30 2219 H 207.792 2.96587 -2.55249 0
M  V30 2220 H 207.415 3.82915 -1.07059 0
M  V30 2221 N 208.412 0.89855 1.29475 0
M  V30 2222 C 209.375 0.380272 2.26023 0
M  V30 2223 C 210.375 -0.484891 1.53315 0
M  V30 2224 O 211.565 -0.290108 1.71767 0
M  V30 2225 C 208.697 -0.45651 3.3783 0
M  V30 2226 H 209.89 1.23295 2.73383 0
M  V30 2227 H 207.443 0.676589 1.40897 0
M  V30 2228 H 208.178 -1.32922 2.95808 0
M  V30 2229 H 207.963 0.163393 3.91759 0
M  V30 2230 H 209.453 -0.810466 4.0966 0
M  V30 2231 N 209.89 -1.43072 0.660911 0
M  V30 2232 C 210.823 -2.28074 -0.0758862 0
M  V30 2233 C 211.801 -1.40271 -0.822362 0
M  V30 2234 O 212.985 -1.69713 -0.820352 0
M  V30 2235 C 210.112 -3.19843 -1.11437 0
M  V30 2236 C 209.158 -4.23957 -0.465069 0
M  V30 2237 S 209.991 -5.29978 0.767078 0
M  V30 2238 C 211.147 -6.25314 -0.270682 0
M  V30 2239 H 211.38 -2.90216 0.645139 0
M  V30 2240 H 208.913 -1.47697 0.449995 0
M  V30 2241 H 210.871 -3.73257 -1.70849 0
M  V30 2242 H 209.532 -2.56863 -1.80776 0
M  V30 2243 H 208.725 -4.88299 -1.24819 0
M  V30 2244 H 208.327 -3.73959 0.0551242 0
M  V30 2245 H 210.619 -6.67932 -1.13459 0
M  V30 2246 H 211.562 -7.07293 0.337916 0
M  V30 2247 H 211.97 -5.61195 -0.609937 0
M  V30 2248 N 211.368 -0.403325 -1.52352 0
M  V30 2249 C 212.614 0.174605 -2.02047 0
M  V30 2250 C 212.947 1.45282 -1.28867 0
M  V30 2251 O 212.222 1.90483 -0.393257 0
M  V30 2252 C 212.505 0.428238 -3.57545 0
M  V30 2253 C 212.358 -0.866248 -4.4138 0
M  V30 2254 C 213.677 1.21287 -4.23057 0
M  V30 2255 H 210.796 0.0619851 -0.734389 0
M  V30 2256 H 213.438 -0.53565 -1.82293 0
M  V30 2257 H 211.588 1.03327 -3.74507 0
M  V30 2258 H 213.26 -1.50265 -4.3614 0
M  V30 2259 H 211.503 -1.47851 -4.07827 0
M  V30 2260 H 212.174 -0.643249 -5.48239 0
M  V30 2261 H 214.65 0.700703 -4.10158 0
M  V30 2262 H 213.526 1.35909 -5.31808 0
M  V30 2263 H 213.787 2.23193 -3.81625 0
M  V30 2264 N 212.846 1.57033 -0.133567 0
M  V30 2265 C 214.071 2.00475 0.531477 0
M  V30 2266 C 214.496 1.01291 1.58499 0
M  V30 2267 O 213.854 -0.0133279 1.81295 0
M  V30 2268 C 213.902 3.42729 1.12113 0
M  V30 2269 O 213.006 3.46498 2.23636 0
M  V30 2270 H 212.347 0.650876 0.131362 0
M  V30 2271 H 214.877 2.03344 -0.22634 0
M  V30 2272 H 214.887 3.81246 1.4531 0
M  V30 2273 H 213.562 4.14428 0.349557 0
M  V30 2274 H 212.139 3.19811 1.91769 0
M  V30 2275 N 214.325 -0.140222 1.56975 0
M  V30 2276 C 215.55 -0.870414 1.88251 0
M  V30 2277 C 215.975 -1.73637 0.723312 0
M  V30 2278 O 215.333 -1.78329 -0.32689 0
M  V30 2279 C 215.381 -1.69737 3.18154 0
M  V30 2280 O 214.485 -2.80229 3.02565 0
M  V30 2281 H 213.826 -0.242025 0.61832 0
M  V30 2282 H 216.356 -0.128999 2.04193 0
M  V30 2283 H 216.366 -2.09099 3.50345 0
M  V30 2284 H 215.041 -1.06152 4.02125 0
M  V30 2285 H 213.618 -2.44224 2.81796 0
M  V30 2286 N 215.803 -1.52179 -0.40978 0
M  V30 2287 C 217.049 -1.67408 -1.15525 0
M  V30 2288 C 217.404 -0.398746 -1.88223 0
M  V30 2289 O 216.697 0.60678 -1.81738 0
M  V30 2290 C 216.891 -2.83428 -2.17723 0
M  V30 2291 C 216.72 -4.22121 -1.55061 0
M  V30 2292 C 215.49 -4.87657 -1.3236 0
M  V30 2293 C 217.688 -5.04248 -1.01185 0
M  V30 2294 N 215.67 -6.10387 -0.655834 0
M  V30 2295 C 217.041 -6.18209 -0.470963 0
M  V30 2296 C 219.096 -4.89583 -0.906252 0
M  V30 2297 C 217.799 -7.1911 0.165172 0
M  V30 2298 C 219.825 -5.90718 -0.28397 0
M  V30 2299 C 219.187 -7.03969 0.246243 0
M  V30 2300 H 215.286 -0.666251 -0.409431 0
M  V30 2301 H 217.87 -1.89482 -0.447729 0
M  V30 2302 H 216.041 -2.6297 -2.85834 0
M  V30 2303 H 217.773 -2.87697 -2.84627 0
M  V30 2304 H 214.528 -4.46007 -1.59294 0
M  V30 2305 H 214.952 -6.76153 -0.338596 0
M  V30 2306 H 219.594 -4.02253 -1.302 0
M  V30 2307 H 217.312 -8.06066 0.572986 0
M  V30 2308 H 220.898 -5.81443 -0.203792 0
M  V30 2309 H 219.778 -7.80886 0.720173 0
M  V30 2310 N 217.281 0.66697 -1.42791 0
M  V30 2311 C 218.229 1.80157 -1.47127 0
M  V30 2312 C 219.223 1.65825 -0.346199 0
M  V30 2313 O 220.429 1.72338 -0.519572 0
M  V30 2314 H 216.804 0.594158 -0.460956 0
M  V30 2315 H 218.775 1.73619 -2.42692 0
M  V30 2316 C 217.524 3.18351 -1.39813 0
M  V30 2317 H 216.847 3.3001 -2.25684 0
M  V30 2318 H 218.287 3.97736 -1.46908 0
M  V30 2319 C 216.746 3.36707 -0.11391 0
M  V30 2320 O 217.276 3.93027 0.830241 0
M  V30 2321 N 215.482 2.90586 -0.0285295 0
M  V30 2322 H 215.029 2.4494 -0.79764 0
M  V30 2323 H 214.987 3.03245 0.830063 0
M  V30 2324 N 218.759 1.29093 0.90403 0
M  V30 2325 C 220.175 1.07011 1.1841 0
M  V30 2326 C 220.375 -0.181358 2.00682 0
M  V30 2327 O 219.431 -0.880331 2.36657 0
M  V30 2328 C 220.744 2.32311 1.90924 0
M  V30 2329 C 222.292 2.37587 2.03768 0
M  V30 2330 C 222.767 3.62679 2.79693 0
M  V30 2331 N 224.258 3.63376 2.87249 0
M  V30 2332 C 224.993 4.56848 3.46522 0
M  V30 2333 N 224.489 5.60648 4.06996 0
M  V30 2334 N 226.282 4.44426 3.44154 0
M  V30 2335 H 218.433 2.09412 0.354993 0
M  V30 2336 H 220.696 0.922181 0.219742 0
M  V30 2337 H 220.402 3.23536 1.37905 0
M  V30 2338 H 220.276 2.39483 2.91424 0
M  V30 2339 H 222.663 1.46853 2.55965 0
M  V30 2340 H 222.744 2.34403 1.02415 0
M  V30 2341 H 222.388 4.53762 2.28173 0
M  V30 2342 H 222.318 3.63119 3.81381 0
M  V30 2343 H 224.809 2.88321 2.44293 0
M  V30 2344 H 225.122 6.28101 4.50232 0
M  V30 2345 H 223.467 5.64463 4.05471 0
M  V30 2346 H 226.658 3.62529 2.96126 0
M  V30 2347 H 226.831 5.17457 3.90054 0
M  V30 2348 N 220.237 -1.11381 1.11499 0
M  V30 2349 C 221.2 -2.15622 0.777153 0
M  V30 2350 C 222.2 -1.59504 -0.203779 0
M  V30 2351 O 223.39 -1.74188 0.020782 0
M  V30 2352 C 220.522 -3.40556 0.153116 0
M  V30 2353 H 221.715 -2.47021 1.70061 0
M  V30 2354 H 219.268 -1.26577 0.916952 0
M  V30 2355 H 220.003 -3.14767 -0.780536 0
M  V30 2356 H 219.788 -3.8257 0.859238 0
M  V30 2357 H 221.278 -4.17546 -0.0671044 0
M  V30 2358 N 221.715 -0.905404 -1.28997 0
M  V30 2359 C 222.678 -0.392253 -2.25819 0
M  V30 2360 C 223.678 0.476753 -1.5357 0
M  V30 2361 O 224.868 0.280994 -1.71919 0
M  V30 2362 C 222 0.438588 -3.38067 0
M  V30 2363 H 223.193 -1.24743 -2.72725 0
M  V30 2364 H 220.746 -0.684051 -1.40536 0
M  V30 2365 H 221.481 1.31352 -2.96508 0
M  V30 2366 H 221.266 -0.184167 -3.91667 0
M  V30 2367 H 222.756 0.78873 -4.10084 0
M  V30 2368 N 223.193 1.4272 -0.668489 0
M  V30 2369 C 224.604 1.84793 -0.266151 0
M  V30 2370 C 224.955 1.55959 1.19043 0
M  V30 2371 O 224.08 1.01622 1.91055 0
M  V30 2372 C 224.675 3.35436 -0.476271 0
M  V30 2373 C 223.234 3.76182 -0.128113 0
M  V30 2374 C 222.381 2.66344 -0.771777 0
M  V30 2375 H 225.332 1.32656 -0.871098 0
M  V30 2376 H 225.353 3.79515 0.273561 0
M  V30 2377 H 224.865 3.5639 -1.53647 0
M  V30 2378 H 222.966 3.60836 0.928891 0
M  V30 2379 H 223.079 4.75766 -0.564231 0
M  V30 2380 H 221.443 2.53885 -0.203652 0
M  V30 2381 H 222.226 2.90123 -1.83531 0
M  V30 2382 N 224.671 0.411399 1.52136 0
M  V30 2383 C 225.619 -0.427633 2.28635 0
M  V30 2384 C 226.613 -1.04383 1.33419 0
M  V30 2385 O 227.819 -0.981772 1.50868 0
M  V30 2386 H 224.194 -0.156689 0.735495 0
M  V30 2387 H 226.165 0.238761 2.97443 0
M  V30 2388 C 224.914 -1.53082 3.12188 0
M  V30 2389 H 224.237 -1.06601 3.85326 0
M  V30 2390 H 225.677 -2.09167 3.68816 0
M  V30 2391 C 224.136 -2.49946 2.25895 0
M  V30 2392 O 224.666 -3.53884 1.90076 0
M  V30 2393 N 222.872 -2.2021 1.8962 0
M  V30 2394 H 222.419 -1.35719 2.18948 0
M  V30 2395 H 222.377 -2.85266 1.32176 0
M  V30 2396 N 226.149 -1.5696 0.141893 0
M  V30 2397 C 227.377 -2.00322 -0.517579 0
M  V30 2398 C 227.792 -1.02193 -1.58752 0
M  V30 2399 O 227.149 -0.0181619 -1.82491 0
M  V30 2400 C 227.2 -3.43618 -1.12289 0
M  V30 2401 O 226.921 -4.37995 -0.0956929 0
M  V30 2402 C 228.422 -4.02231 -1.86347 0
M  V30 2403 H 225.642 -0.657243 -0.135177 0
M  V30 2404 H 228.186 -2.03146 0.234973 0
M  V30 2405 H 226.341 -3.41662 -1.82609 0
M  V30 2406 H 226.755 -5.21729 -0.538469 0
M  V30 2407 H 228.229 -5.04509 -2.23997 0
M  V30 2408 H 228.706 -3.42655 -2.74744 0
M  V30 2409 H 229.312 -4.07802 -1.20737 0
M  V30 2410 N 227.627 0.131896 -1.57047 0
M  V30 2411 C 228.876 0.84044 -1.83356 0
M  V30 2412 C 229.189 1.81646 -0.725535 0
M  V30 2413 O 230.395 2.57025 -0.874659 0
M  V30 2414 C 228.851 1.54528 -3.25037 0
M  V30 2415 C 228.459 0.610902 -4.43815 0
M  V30 2416 C 230.203 2.23972 -3.60606 0
M  V30 2417 C 228.11 1.31823 -5.76521 0
M  V30 2418 H 227.04 0.317599 -0.683847 0
M  V30 2419 H 229.691 0.0931561 -1.83263 0
M  V30 2420 H 228.073 2.33873 -3.19561 0
M  V30 2421 H 229.247 -0.148407 -4.60561 0
M  V30 2422 H 227.562 0.0241016 -4.16393 0
M  V30 2423 H 230.159 2.77558 -4.57018 0
M  V30 2424 H 230.502 3.01173 -2.87403 0
M  V30 2425 H 231.035 1.51529 -3.6781 0
M  V30 2426 H 227.774 0.587771 -6.52859 0
M  V30 2427 H 227.294 2.04987 -5.63685 0
M  V30 2428 H 228.973 1.855 -6.19838 0
M  V30 2429 N 229.106 1.52395 0.401703 0
M  V30 2430 C 230.517 1.58899 0.980202 0
M  V30 2431 C 230.868 0.434032 1.91339 0
M  V30 2432 O 229.993 -0.444619 2.11783 0
M  V30 2433 C 230.588 2.87994 1.78451 0
M  V30 2434 C 229.147 2.96953 2.31292 0
M  V30 2435 C 228.294 2.53903 1.11483 0
M  V30 2436 H 231.245 1.57657 0.18168 0
M  V30 2437 H 231.266 2.73765 2.64259 0
M  V30 2438 H 230.778 3.72035 1.10506 0
M  V30 2439 H 228.879 2.17422 3.02586 0
M  V30 2440 H 228.992 4.01344 2.61649 0
M  V30 2441 H 227.356 2.07925 1.47104 0
M  V30 2442 H 228.139 3.40326 0.450928 0
M  V30 2443 N 230.584 -0.659388 1.43143 0
M  V30 2444 C 231.812 -1.44723 1.47861 0
M  V30 2445 C 232.227 -1.88563 0.0945886 0
M  V30 2446 O 231.584 -1.59108 -0.893915 0
M  V30 2447 C 231.635 -2.68627 2.41913 0
M  V30 2448 O 231.356 -2.26623 3.74932 0
M  V30 2449 C 232.857 -3.62045 2.55809 0
M  V30 2450 H 230.077 -0.444801 0.502387 0
M  V30 2451 H 232.621 -0.808916 1.87821 0
M  V30 2452 H 230.776 -3.28613 2.05164 0
M  V30 2453 H 231.19 -3.06745 4.2545 0
M  V30 2454 H 232.664 -4.45666 3.25708 0
M  V30 2455 H 233.141 -4.08981 1.60099 0
M  V30 2456 H 233.747 -3.07944 2.93344 0
M  V30 2457 N 232.062 -1.29571 -0.897171 0
M  V30 2458 C 233.025 -1.14913 -1.98312 0
M  V30 2459 C 234.025 -0.0838629 -1.60581 0
M  V30 2460 O 235.215 -0.331006 -1.71026 0
M  V30 2461 C 232.347 -0.757835 -3.3237 0
M  V30 2462 H 233.54 -2.11377 -2.12743 0
M  V30 2463 H 231.093 -1.12793 -1.08201 0
M  V30 2464 H 231.828 0.206837 -3.2364 0
M  V30 2465 H 231.613 -1.52755 -3.61121 0
M  V30 2466 H 233.103 -0.678408 -4.12053 0
M  V30 2467 N 233.54 1.10788 -1.12088 0
M  V30 2468 C 234.503 2.15207 -0.788577 0
M  V30 2469 C 235.503 1.59609 0.195317 0
M  V30 2470 O 236.693 1.74174 -0.0300193 0
M  V30 2471 C 233.825 3.4047 -0.171174 0
M  V30 2472 H 235.018 2.46116 -1.71368 0
M  V30 2473 H 232.571 1.26089 -0.923652 0
M  V30 2474 H 233.306 3.15176 0.763832 0
M  V30 2475 H 233.091 3.82109 -0.879514 0
M  V30 2476 H 234.581 4.17576 0.04496 0
M  V30 2477 N 235.018 0.912232 1.28515 0
M  V30 2478 C 235.965 0.397954 2.27343 0
M  V30 2479 C 236.935 -0.526766 1.57526 0
M  V30 2480 O 238.12 -0.449292 1.85435 0
M  V30 2481 C 235.26 -0.357263 3.43246 0
M  V30 2482 C 234.373 0.599788 4.27816 0
M  V30 2483 C 233.508 -0.173725 5.30916 0
M  V30 2484 C 232.547 0.777039 6.07148 0
M  V30 2485 N 231.684 0.0371398 7.0209 0
M  V30 2486 H 236.524 1.24577 2.70711 0
M  V30 2487 H 234.061 0.625612 1.33133 0
M  V30 2488 H 236.019 -0.8113 4.09236 0
M  V30 2489 H 234.649 -1.16943 3.00872 0
M  V30 2490 H 233.701 1.17235 3.61884 0
M  V30 2491 H 235.013 1.32704 4.80823 0
M  V30 2492 H 234.167 -0.688394 6.02782 0
M  V30 2493 H 232.906 -0.934041 4.78672 0
M  V30 2494 H 231.911 1.3031 5.34134 0
M  V30 2495 H 233.136 1.53689 6.61481 0
M  V30 2496 H 231.082 -0.705213 6.52198 0
M  V30 2497 H 230.999 0.704249 7.52713 0
M  V30 2498 H 232.267 -0.457383 7.78157 0
M  V30 2499 N 236.496 -1.42363 0.676048 0
M  V30 2500 C 237.459 -2.29199 0.00766941 0
M  V30 2501 C 238.459 -1.43389 -0.727745 0
M  V30 2502 O 239.649 -1.64764 -0.56556 0
M  V30 2503 C 236.781 -3.2591 -0.999785 0
M  V30 2504 H 237.974 -2.89794 0.771988 0
M  V30 2505 H 235.527 -1.50024 0.438468 0
M  V30 2506 H 236.262 -2.70256 -1.79255 0
M  V30 2507 H 236.047 -3.89202 -0.475829 0
M  V30 2508 H 237.537 -3.91028 -1.46583 0
M  V30 2509 N 237.974 -0.419461 -1.51915 0
M  V30 2510 C 239.222 0.152637 -2.01523 0
M  V30 2511 C 239.543 1.44762 -1.30649 0
M  V30 2512 O 238.813 1.90997 -0.435535 0
M  V30 2513 H 237.393 0.0593966 -0.744635 0
M  V30 2514 H 240.055 -0.558073 -1.86739 0
M  V30 2515 H 239.151 0.341369 -3.10227 0
M  V30 2516 N 239.452 1.56882 -0.150215 0
M  V30 2517 C 240.7 1.9584 0.499105 0
M  V30 2518 C 241.021 1.03623 1.65188 0
M  V30 2519 O 240.291 0.0984084 1.95653 0
M  V30 2520 H 238.871 0.723119 0.187373 0
M  V30 2521 H 241.533 1.9358 -0.226466 0
M  V30 2522 H 240.629 2.99638 0.873122 0
M  V30 2523 N 240.93 -0.123565 1.57115 0
M  V30 2524 C 241.878 -1.17082 2.00984 0
M  V30 2525 C 242.872 -1.43136 0.906009 0
M  V30 2526 O 244.078 -1.43152 1.09121 0
M  V30 2527 H 240.453 -0.394653 0.64012 0
M  V30 2528 H 242.424 -0.774292 2.88179 0
M  V30 2529 C 241.173 -2.49057 2.42623 0
M  V30 2530 H 240.496 -2.29846 3.27125 0
M  V30 2531 H 241.936 -3.20906 2.7712 0
M  V30 2532 C 240.395 -3.11305 1.28805 0
M  V30 2533 O 240.925 -3.97171 0.60153 0
M  V30 2534 N 239.131 -2.71111 1.04628 0
M  V30 2535 H 238.678 -2.01382 1.60634 0
M  V30 2536 H 238.636 -3.1309 0.286685 0
M  V30 2537 N 242.408 -1.52605 -0.393616 0
M  V30 2538 C 243.638 -1.71046 -1.15874 0
M  V30 2539 C 244.046 -0.426483 -1.84331 0
M  V30 2540 O 243.389 0.608513 -1.73329 0
M  V30 2541 C 243.451 -2.80118 -2.25332 0
M  V30 2542 C 243.115 -4.21381 -1.76881 0
M  V30 2543 C 244.112 -5.04697 -1.24808 0
M  V30 2544 C 241.797 -4.67683 -1.83244 0
M  V30 2545 C 243.791 -6.32393 -0.797387 0
M  V30 2546 C 241.478 -5.95364 -1.37787 0
M  V30 2547 C 242.476 -6.77549 -0.861208 0
M  V30 2548 O 242.164 -8.02837 -0.413252 0
M  V30 2549 H 241.896 -0.576155 -0.353583 0
M  V30 2550 H 244.45 -2.00018 -0.467123 0
M  V30 2551 H 242.68 -2.46557 -2.97904 0
M  V30 2552 H 244.369 -2.87006 -2.87023 0
M  V30 2553 H 245.135 -4.70111 -1.19252 0
M  V30 2554 H 241.014 -4.03805 -2.22401 0
M  V30 2555 H 244.558 -6.9649 -0.393437 0
M  V30 2556 H 240.455 -6.29455 -1.43026 0
M  V30 2557 H 241.223 -8.16749 -0.53515 0
M  V30 2558 N 243.887 0.651787 -1.4349 0
M  V30 2559 C 244.817 1.77621 -1.51569 0
M  V30 2560 C 245.798 1.66022 -0.370253 0
M  V30 2561 O 246.983 1.85095 -0.587658 0
M  V30 2562 C 244.113 3.16056 -1.43966 0
M  V30 2563 C 243.067 3.4242 -2.56774 0
M  V30 2564 C 242.393 4.8067 -2.34223 0
M  V30 2565 C 243.693 3.37023 -3.99015 0
M  V30 2566 H 245.387 1.71117 -2.45681 0
M  V30 2567 H 242.933 0.821825 -1.18246 0
M  V30 2568 H 244.886 3.94472 -1.48221 0
M  V30 2569 H 243.61 3.23293 -0.463586 0
M  V30 2570 H 242.269 2.66375 -2.51873 0
M  V30 2571 H 241.917 4.84585 -1.34856 0
M  V30 2572 H 241.617 4.9927 -3.09844 0
M  V30 2573 H 243.141 5.61342 -2.40265 0
M  V30 2574 H 244.555 4.05374 -4.05395 0
M  V30 2575 H 242.952 3.67159 -4.74673 0
M  V30 2576 H 244.022 2.3518 -4.2405 0
M  V30 2577 N 245.365 1.30045 0.890287 0
M  V30 2578 C 246.59 1.21598 1.68014 0
M  V30 2579 C 247.015 -0.218678 1.86825 0
M  V30 2580 O 246.373 -1.15756 1.39536 0
M  V30 2581 C 246.421 1.94434 3.03691 0
M  V30 2582 O 245.525 1.2678 3.92429 0
M  V30 2583 H 244.866 0.420856 0.513592 0
M  V30 2584 H 247.396 1.71775 1.11151 0
M  V30 2585 H 247.406 2.03251 3.5377 0
M  V30 2586 H 246.081 2.98777 2.89318 0
M  V30 2587 H 244.658 1.26282 3.50866 0
M  V30 2588 N 246.843 -1.10192 1.12674 0
M  V30 2589 C 248.068 -1.86523 0.906853 0
M  V30 2590 C 248.493 -1.80221 -0.538711 0
M  V30 2591 O 247.851 -1.17396 -1.38158 0
M  V30 2592 C 247.899 -3.32758 1.3894 0
M  V30 2593 O 247.003 -4.08449 0.5695 0
M  V30 2594 H 246.344 -0.578678 0.325619 0
M  V30 2595 H 248.874 -1.39203 1.49946 0
M  V30 2596 H 248.884 -3.83608 1.38958 0
M  V30 2597 H 247.559 -3.36661 2.44197 0
M  V30 2598 H 246.136 -3.67427 0.636528 0
M  V30 2599 N 248.321 -0.919034 -1.28029 0
M  V30 2600 C 249.251 -0.428581 -2.29533 0
M  V30 2601 C 250.232 0.50659 -1.62381 0
M  V30 2602 O 251.417 0.413195 -1.89753 0
M  V30 2603 C 248.547 0.327388 -3.45753 0
M  V30 2604 C 247.501 -0.519137 -4.2484 0
M  V30 2605 C 246.827 0.365486 -5.33449 0
M  V30 2606 C 248.127 -1.77914 -4.91064 0
M  V30 2607 H 249.821 -1.27687 -2.70807 0
M  V30 2608 H 247.367 -0.615428 -1.30186 0
M  V30 2609 H 249.32 0.681378 -4.15855 0
M  V30 2610 H 248.044 1.20963 -3.03374 0
M  V30 2611 H 246.703 -0.855717 -3.56473 0
M  V30 2612 H 246.351 1.24642 -4.87312 0
M  V30 2613 H 246.051 -0.197356 -5.87268 0
M  V30 2614 H 247.575 0.715241 -6.06396 0
M  V30 2615 H 248.989 -1.49374 -5.53498 0
M  V30 2616 H 247.386 -2.2848 -5.54903 0
M  V30 2617 H 248.456 -2.50382 -4.15255 0
M  V30 2618 N 249.799 1.42003 -0.683588 0
M  V30 2619 C 250.729 2.33487 -0.024866 0
M  V30 2620 C 251.71 1.51163 0.779975 0
M  V30 2621 O 252.895 1.79739 0.735362 0
M  V30 2622 C 250.025 3.3487 0.920836 0
M  V30 2623 C 248.979 4.27414 0.223958 0
M  V30 2624 C 248.305 5.19074 1.2832 0
M  V30 2625 C 249.605 5.14445 -0.90242 0
M  V30 2626 H 251.299 2.88819 -0.788921 0
M  V30 2627 H 248.845 1.38873 -0.38083 0
M  V30 2628 H 250.798 3.97787 1.39081 0
M  V30 2629 H 249.522 2.77861 1.71642 0
M  V30 2630 H 248.181 3.65904 -0.225864 0
M  V30 2631 H 247.829 4.58387 2.071 0
M  V30 2632 H 247.529 5.81822 0.821995 0
M  V30 2633 H 249.053 5.84867 1.75392 0
M  V30 2634 H 250.467 5.70998 -0.513272 0
M  V30 2635 H 248.864 5.86072 -1.28997 0
M  V30 2636 H 249.934 4.52322 -1.74737 0
M  V30 2637 N 251.277 0.427512 1.51691 0
M  V30 2638 C 252.523 -0.142439 2.02299 0
M  V30 2639 C 252.856 -1.43214 1.31162 0
M  V30 2640 O 252.131 -1.89833 0.423511 0
M  V30 2641 C 252.414 -0.371301 3.58181 0
M  V30 2642 C 252.267 0.936358 4.39946 0
M  V30 2643 C 253.586 -1.14542 4.24933 0
M  V30 2644 H 250.705 -0.0502937 0.735282 0
M  V30 2645 H 253.347 0.564584 1.81418 0
M  V30 2646 H 251.497 -0.973559 3.76104 0
M  V30 2647 H 253.169 1.57184 4.33694 0
M  V30 2648 H 251.412 1.5432 4.05423 0
M  V30 2649 H 252.083 0.730388 5.47147 0
M  V30 2650 H 254.559 -0.635362 4.11221 0
M  V30 2651 H 253.435 -1.27431 5.33903 0
M  V30 2652 H 253.696 -2.17093 3.85127 0
M  V30 2653 N 252.755 -1.56801 0.158532 0
M  V30 2654 C 254.003 -1.96102 -0.488712 0
M  V30 2655 C 254.324 -1.04498 -1.64636 0
M  V30 2656 O 253.594 -0.108783 -1.95598 0
M  V30 2657 H 252.174 -0.724102 -0.183535 0
M  V30 2658 H 254.836 -1.93457 0.236728 0
M  V30 2659 H 253.932 -3.00097 -0.857219 0
M  V30 2660 N 254.233 0.115231 -1.57178 0
M  V30 2661 C 255.458 0.840354 -1.89612 0
M  V30 2662 C 255.883 1.72464 -0.750845 0
M  V30 2663 O 255.241 1.78826 0.298478 0
M  V30 2664 C 255.289 1.64654 -3.20814 0
M  V30 2665 O 254.393 2.7538 -3.06985 0
M  V30 2666 H 253.734 0.232158 -0.622092 0
M  V30 2667 H 256.264 0.0964977 -2.04372 0
M  V30 2668 H 256.274 2.03499 -3.53627 0
M  V30 2669 H 254.949 0.997416 -4.03763 0
M  V30 2670 H 253.526 2.3971 -2.85646 0
M  V30 2671 N 255.711 1.52812 0.385517 0
M  V30 2672 C 256.621 1.80766 1.49535 0
M  V30 2673 C 257.637 0.694651 1.59532 0
M  V30 2674 O 258.813 0.982611 1.75803 0
M  V30 2675 C 255.878 1.97381 2.85029 0
M  V30 2676 C 254.939 3.21295 2.84724 0
M  V30 2677 C 254.172 3.37108 4.13756 0
M  V30 2678 O 254.395 2.5765 5.08893 0
M  V30 2679 O 253.329 4.30378 4.20783 0
M  V30 2680 H 257.155 2.75015 1.28842 0
M  V30 2681 H 254.74 1.37946 0.573697 0
M  V30 2682 H 256.622 2.09996 3.65349 0
M  V30 2683 H 255.297 1.06322 3.05741 0
M  V30 2684 H 254.204 3.1412 2.03174 0
M  V30 2685 H 255.537 4.12212 2.68965 0
M  V30 2686 N 257.189 -0.644168 1.43834 0
M  V30 2687 C 258.152 -1.73857 1.49353 0
M  V30 2688 C 259.152 -1.56315 0.377112 0
M  V30 2689 O 260.342 -1.62048 0.639226 0
M  V30 2690 C 257.474 -3.12819 1.35488 0
M  V30 2691 H 258.667 -1.70342 2.46827 0
M  V30 2692 H 256.22 -0.856652 1.30733 0
M  V30 2693 H 256.955 -3.2194 0.390569 0
M  V30 2694 H 256.74 -3.26958 2.16428 0
M  V30 2695 H 258.23 -3.92606 1.42302 0
M  V30 2696 N 258.668 -1.30515 -0.883378 0
M  V30 2697 C 260.084 -1.08881 -1.16692 0
M  V30 2698 C 260.284 0.149409 -2.00945 0
M  V30 2699 O 259.34 0.84257 -2.38027 0
M  V30 2700 C 260.653 -2.35319 -1.87204 0
M  V30 2701 C 262.201 -2.40799 -1.99962 0
M  V30 2702 C 262.676 -3.67083 -2.73887 0
M  V30 2703 N 264.167 -3.679 -2.81432 0
M  V30 2704 C 264.902 -4.62303 -3.3921 0
M  V30 2705 N 264.398 -5.67052 -3.98025 0
M  V30 2706 N 266.191 -4.49845 -3.3704 0
M  V30 2707 H 258.342 -2.09951 -0.321633 0
M  V30 2708 H 260.605 -0.92556 -0.205043 0
M  V30 2709 H 260.311 -3.25689 -1.3274 0
M  V30 2710 H 260.185 -2.44089 -2.87577 0
M  V30 2711 H 262.572 -1.50907 -2.53597 0
M  V30 2712 H 262.653 -2.36003 -0.98673 0
M  V30 2713 H 262.297 -4.57334 -2.20925 0
M  V30 2714 H 262.227 -3.69141 -3.75556 0
M  V30 2715 H 264.718 -2.92171 -2.39676 0
M  V30 2716 H 265.031 -6.35184 -4.40183 0
M  V30 2717 H 263.376 -5.70842 -3.96439 0
M  V30 2718 H 266.567 -3.67194 -2.90321 0
M  V30 2719 H 266.74 -5.23597 -3.81772 0
M  V30 2720 N 260.146 1.09593 -1.13257 0
M  V30 2721 C 261.562 1.33775 -0.870423 0
M  V30 2722 C 261.762 1.95327 0.494926 0
M  V30 2723 O 260.818 2.19853 1.2418 0
M  V30 2724 C 262.131 2.25106 -1.99369 0
M  V30 2725 C 263.679 2.3862 -2.02558 0
M  V30 2726 C 264.154 3.33285 -3.14142 0
M  V30 2727 N 265.645 3.40857 -3.13641 0
M  V30 2728 C 266.38 4.14101 -3.96621 0
M  V30 2729 N 265.876 4.90157 -4.8961 0
M  V30 2730 N 267.669 4.09808 -3.84726 0
M  V30 2731 H 259.82 0.680136 -2.01216 0
M  V30 2732 H 262.083 0.362133 -0.876107 0
M  V30 2733 H 261.789 1.87103 -2.97801 0
M  V30 2734 H 261.663 3.25481 -1.90635 0
M  V30 2735 H 264.05 2.75887 -1.0474 0
M  V30 2736 H 264.131 1.38028 -2.15364 0
M  V30 2737 H 263.775 2.96741 -4.12198 0
M  V30 2738 H 263.705 4.33776 -2.98574 0
M  V30 2739 H 266.196 2.86624 -2.46282 0
M  V30 2740 H 266.509 5.4347 -5.49418 0
M  V30 2741 H 264.854 4.89251 -4.93617 0
M  V30 2742 H 268.045 3.4949 -3.11408 0
M  V30 2743 H 268.218 4.66629 -4.49623 0
M  V30 2744 N 261.624 0.925811 1.2754 0
M  V30 2745 C 262.574 0.394488 2.24561 0
M  V30 2746 C 263.558 -0.500183 1.52928 0
M  V30 2747 O 264.75 -0.337936 1.73744 0
M  V30 2748 C 261.879 -0.353328 3.41477 0
M  V30 2749 C 260.965 0.557752 4.20416 0
M  V30 2750 N 261.356 1.67674 4.77199 0
M  V30 2751 C 259.654 0.360404 4.44541 0
M  V30 2752 C 260.355 2.24324 5.36706 0
M  V30 2753 N 259.331 1.53305 5.21535 0
M  V30 2754 H 263.133 1.2489 2.66045 0
M  V30 2755 H 260.647 0.779864 1.4245 0
M  V30 2756 H 262.644 -0.7509 4.10082 0
M  V30 2757 H 261.304 -1.20469 3.01525 0
M  V30 2758 H 262.315 2.05915 4.75204 0
M  V30 2759 H 258.992 -0.450454 4.15063 0
M  V30 2760 H 260.382 3.18521 5.91603 0
M  V30 2761 N 263.102 -1.41638 0.69111 0
M  V30 2762 C 264.35 -2.00902 0.219758 0
M  V30 2763 C 264.671 -1.54994 -1.18329 0
M  V30 2764 O 263.941 -0.778628 -1.79762 0
M  V30 2765 H 262.521 -0.74289 0.0782558 0
M  V30 2766 H 265.183 -1.73327 0.891271 0
M  V30 2767 H 264.279 -3.11224 0.233708 0
M  V30 2768 N 264.58 -0.43555 -1.51462 0
M  V30 2769 C 265.81 0.130053 -2.0619 0
M  V30 2770 C 266.218 1.37164 -1.30317 0
M  V30 2771 O 265.561 1.80225 -0.355598 0
M  V30 2772 C 265.623 0.519418 -3.55728 0
M  V30 2773 C 265.287 -0.615119 -4.52841 0
M  V30 2774 C 266.284 -1.48671 -4.9819 0
M  V30 2775 C 263.969 -0.795341 -4.95963 0
M  V30 2776 C 265.963 -2.52324 -5.8533 0
M  V30 2777 C 263.65 -1.83514 -5.82894 0
M  V30 2778 C 264.648 -2.69748 -6.27475 0
M  V30 2779 O 264.336 -3.71944 -7.1268 0
M  V30 2780 H 264.068 0.0121612 -0.675891 0
M  V30 2781 H 266.622 -0.6129 -1.96043 0
M  V30 2782 H 264.852 1.31505 -3.63653 0
M  V30 2783 H 266.541 1.01597 -3.92979 0
M  V30 2784 H 267.307 -1.359 -4.65571 0
M  V30 2785 H 263.186 -0.133713 -4.60806 0
M  V30 2786 H 266.73 -3.19665 -6.20048 0
M  V30 2787 H 262.627 -1.96306 -6.14926 0
M  V30 2788 H 263.395 -3.68503 -7.30854 0
M  V30 2789 N 266.058 1.56714 -0.166846 0
M  V30 2790 C 266.99 2.14914 0.796537 0
M  V30 2791 C 268.003 1.10357 1.19688 0
M  V30 2792 O 269.192 1.37561 1.13751 0
M  V30 2793 C 266.292 2.67326 2.08303 0
M  V30 2794 C 265.465 3.96493 1.84696 0
M  V30 2795 C 264.524 4.34014 2.97521 0
M  V30 2796 O 263.55 5.01973 2.6835 0
M  V30 2797 N 264.752 3.95208 4.25196 0
M  V30 2798 H 267.517 2.98205 0.299006 0
M  V30 2799 H 265.078 1.61892 0.0160839 0
M  V30 2800 H 267.07 2.89428 2.82867 0
M  V30 2801 H 265.64 1.88649 2.4926 0
M  V30 2802 H 264.86 3.82814 0.940602 0
M  V30 2803 H 266.148 4.8086 1.66285 0
M  V30 2804 H 265.546 3.40487 4.51758 0
M  V30 2805 H 264.103 4.2232 4.96477 0
M  V30 2806 N 267.536 -0.106894 1.57237 0
M  V30 2807 C 268.446 -1.14911 2.0453 0
M  V30 2808 C 269.462 -1.44592 0.96795 0
M  V30 2809 O 270.638 -1.55468 1.2803 0
M  V30 2810 C 267.703 -2.45272 2.45036 0
M  V30 2811 C 266.764 -2.22879 3.66911 0
M  V30 2812 C 265.997 -3.47024 4.05475 0
M  V30 2813 O 266.22 -4.54804 3.44252 0
M  V30 2814 O 265.154 -3.3731 4.98504 0
M  V30 2815 H 268.98 -0.777461 2.9358 0
M  V30 2816 H 266.565 -0.318563 1.45964 0
M  V30 2817 H 268.447 -3.22055 2.71769 0
M  V30 2818 H 267.122 -2.81886 1.59129 0
M  V30 2819 H 266.029 -1.43915 3.45311 0
M  V30 2820 H 267.362 -1.91163 4.53561 0
M  V30 2821 N 269.014 -1.53014 -0.377408 0
M  V30 2822 C 270.262 -1.6829 -1.11906 0
M  V30 2823 C 270.583 -0.431206 -1.90173 0
M  V30 2824 O 269.853 0.554595 -1.87886 0
M  V30 2825 H 268.433 -0.620371 -0.416112 0
M  V30 2826 H 271.095 -1.90167 -0.426893 0
M  V30 2827 H 270.191 -2.53862 -1.8155 0
M  V30 2828 N 270.492 0.636531 -1.44174 0
M  V30 2829 C 271.741 1.39213 -1.45954 0
M  V30 2830 C 272.054 1.95374 -0.0939119 0
M  V30 2831 O 273.26 2.71498 0.0107767 0
M  V30 2832 C 271.716 2.52025 -2.56927 0
M  V30 2833 C 271.324 2.024 -3.99673 0
M  V30 2834 C 273.068 3.29269 -2.67922 0
M  V30 2835 C 270.975 3.12521 -5.0208 0
M  V30 2836 H 269.905 0.523132 -0.542999 0
M  V30 2837 H 272.556 0.685349 -1.70221 0
M  V30 2838 H 270.938 3.25253 -2.25891 0
M  V30 2839 H 272.112 1.36073 -4.40251 0
M  V30 2840 H 270.427 1.37987 -3.92872 0
M  V30 2841 H 273.024 4.11352 -3.41605 0
M  V30 2842 H 273.367 3.78397 -1.73555 0
M  V30 2843 H 273.9 2.63129 -2.98342 0
M  V30 2844 H 270.639 2.68343 -5.98057 0
M  V30 2845 H 270.159 3.77507 -4.66099 0
M  V30 2846 H 271.838 3.77385 -5.25538 0
M  V30 2847 N 271.97 1.30982 0.876444 0
M  V30 2848 C 272.933 1.18054 1.96459 0
M  V30 2849 C 273.933 0.109399 1.60427 0
M  V30 2850 O 275.123 0.358173 1.70478 0
M  V30 2851 C 272.255 0.810616 3.31122 0
M  V30 2852 H 273.448 2.14735 2.09354 0
M  V30 2853 H 271.001 1.145 1.06392 0
M  V30 2854 H 271.736 -0.155322 3.23928 0
M  V30 2855 H 271.521 1.58481 3.58645 0
M  V30 2856 H 273.011 0.743876 4.10921 0
M  V30 2857 N 273.449 -1.08991 1.13837 0
M  V30 2858 C 274.379 -2.17771 0.842507 0
M  V30 2859 C 275.36 -1.6892 -0.20001 0
M  V30 2860 O 276.545 -1.94113 -0.0579731 0
M  V30 2861 C 273.675 -3.4589 0.312644 0
M  V30 2862 C 272.629 -4.08099 1.28992 0
M  V30 2863 C 271.955 -5.31098 0.619623 0
M  V30 2864 C 273.255 -4.50077 2.65005 0
M  V30 2865 H 274.949 -2.42777 1.75213 0
M  V30 2866 H 272.495 -1.16682 0.843875 0
M  V30 2867 H 274.448 -4.21297 0.0933043 0
M  V30 2868 H 273.172 -3.20419 -0.632382 0
M  V30 2869 H 271.831 -3.34717 1.49533 0
M  V30 2870 H 271.479 -5.0191 -0.33102 0
M  V30 2871 H 271.179 -5.73674 1.27167 0
M  V30 2872 H 272.703 -6.09224 0.409669 0
M  V30 2873 H 274.117 -5.16688 2.48407 0
M  V30 2874 H 272.514 -5.03553 3.26427 0
M  V30 2875 H 273.584 -3.62257 3.22332 0
M  V30 2876 N 274.927 -0.932562 -1.27047 0
M  V30 2877 C 276.204 -0.49377 -1.89265 0
M  V30 2878 C 276.584 1.02833 -1.8436 0
M  V30 2879 O 275.932 1.88461 -1.29209 0
M  V30 2880 C 276.142 -1.04536 -3.32976 0
M  V30 2881 C 277.49 -1.10879 -4.09867 0
M  V30 2882 O 278.514 -0.995327 -3.42011 0
M  V30 2883 O 277.373 -1.28417 -5.31198 0
M  V30 2884 H 274.467 -0.159596 -0.811454 0
M  V30 2885 H 277.013 -1.02457 -1.3528 0
M  V30 2886 H 275.785 -2.08913 -3.30864 0
M  V30 2887 H 275.408 -0.496494 -3.94488 0
M  V30 2888 N 276.405 1.4127 -0.698611 0
M  V30 2889 C 277.651 2.01478 -0.231207 0
M  V30 2890 C 277.984 1.55215 1.16713 0
M  V30 2891 O 277.259 0.764672 1.78838 0
M  V30 2892 C 277.542 3.58912 -0.292281 0
M  V30 2893 C 277.395 4.15293 -1.72778 0
M  V30 2894 C 278.714 4.38736 0.346194 0
M  V30 2895 H 275.833 0.732025 -0.0854878 0
M  V30 2896 H 278.475 1.67977 -0.887906 0
M  V30 2897 H 276.625 3.87582 0.26686 0
M  V30 2898 H 278.297 3.97486 -2.341 0
M  V30 2899 H 276.54 3.7022 -2.26096 0
M  V30 2900 H 277.211 5.24452 -1.72202 0
M  V30 2901 H 279.687 4.15897 -0.130035 0
M  V30 2902 H 278.563 5.48221 0.272932 0
M  V30 2903 H 278.824 4.18425 1.42734 0
M  V30 2904 N 277.883 0.443576 1.51229 0
M  V30 2905 C 278.831 -0.37904 2.29491 0
M  V30 2906 C 279.825 -1.0153 1.35603 0
M  V30 2907 O 281.031 -0.94955 1.52917 0
M  V30 2908 H 277.406 -0.141053 0.738653 0
M  V30 2909 H 279.377 0.301799 2.9687 0
M  V30 2910 C 278.126 -1.46426 3.15364 0
M  V30 2911 H 277.449 -0.984037 3.87501 0
M  V30 2912 H 278.889 -2.01297 3.7317 0
M  V30 2913 C 277.348 -2.45099 2.31146 0
M  V30 2914 O 277.878 -3.49773 1.9754 0
M  V30 2915 N 276.084 -2.16139 1.94249 0
M  V30 2916 H 275.631 -1.31044 2.21777 0
M  V30 2917 H 275.589 -2.82398 1.38198 0
M  V30 2918 N 279.361 -1.56624 0.175154 0
M  V30 2919 C 280.609 -1.96609 -0.467885 0
M  V30 2920 C 280.93 -1.06238 -1.63519 0
M  V30 2921 O 280.2 -0.129523 -1.95471 0
M  V30 2922 H 278.78 -0.726008 -0.175845 0
M  V30 2923 H 281.442 -1.93195 0.257234 0
M  V30 2924 H 280.538 -3.00989 -0.825342 0
M  V30 2925 N 280.839 0.0985539 -1.57292 0
M  V30 2926 C 282.069 0.815135 -1.8984 0
M  V30 2927 C 282.477 1.7297 -0.766679 0
M  V30 2928 O 281.82 1.81698 0.270483 0
M  V30 2929 C 281.882 1.6842 -3.17608 0
M  V30 2930 C 281.546 0.94182 -4.4719 0
M  V30 2931 C 282.543 0.273212 -5.19182 0
M  V30 2932 C 280.228 0.916927 -4.9386 0
M  V30 2933 C 282.222 -0.410361 -6.36078 0
M  V30 2934 C 279.909 0.229567 -6.10669 0
M  V30 2935 C 280.907 -0.432902 -6.81627 0
M  V30 2936 O 280.595 -1.10925 -7.9621 0
M  V30 2937 H 280.327 0.238501 -0.632529 0
M  V30 2938 H 282.881 0.0812659 -2.05239 0
M  V30 2939 H 281.111 2.46022 -2.98345 0
M  V30 2940 H 282.8 2.27704 -3.36015 0
M  V30 2941 H 283.566 0.283927 -4.84168 0
M  V30 2942 H 279.445 1.42201 -4.3852 0
M  V30 2943 H 282.989 -0.928013 -6.914 0
M  V30 2944 H 278.886 0.216686 -6.45136 0
M  V30 2945 H 279.654 -1.01579 -8.12172 0
M  V30 2946 N 282.317 1.53212 0.369288 0
M  V30 2947 C 283.566 1.68436 1.10961 0
M  V30 2948 C 283.879 0.440738 1.9057 0
M  V30 2949 O 285.085 0.473446 2.6734 0
M  V30 2950 C 283.541 2.97744 2.0218 0
M  V30 2951 C 283.149 4.29355 1.279 0
M  V30 2952 C 284.893 3.22334 2.76226 0
M  V30 2953 C 282.8 5.49755 2.17999 0
M  V30 2954 H 281.73 0.627568 0.41794 0
M  V30 2955 H 284.381 1.79713 0.370884 0
M  V30 2956 H 282.763 2.8026 2.79768 0
M  V30 2957 H 283.937 4.57458 0.554007 0
M  V30 2958 H 282.252 4.11179 0.657311 0
M  V30 2959 H 284.849 4.09471 3.43857 0
M  V30 2960 H 285.192 2.38238 3.41392 0
M  V30 2961 H 285.725 3.40475 2.05723 0
M  V30 2962 H 282.464 6.36318 1.57417 0
M  V30 2963 H 281.984 5.25937 2.88359 0
M  V30 2964 H 283.663 5.84401 2.77641 0
M  V30 2965 N 283.795 -0.628877 1.44509 0
M  V30 2966 C 285.02 -1.42048 1.5112 0
M  V30 2967 C 285.445 -1.87594 0.137818 0
M  V30 2968 O 284.803 -1.58873 -0.873437 0
M  V30 2969 C 284.851 -2.61541 2.48251 0
M  V30 2970 O 283.955 -3.61453 1.98559 0
M  V30 2971 H 283.296 -0.424942 0.510216 0
M  V30 2972 H 285.826 -0.767374 1.89664 0
M  V30 2973 H 285.836 -3.09057 2.66361 0
M  V30 2974 H 284.511 -2.27736 3.48007 0
M  V30 2975 H 283.088 -3.20731 1.90227 0
M  V30 2976 N 285.273 -1.31445 -0.869486 0
M  V30 2977 C 286.183 -1.21097 -2.0093 0
M  V30 2978 C 287.199 -0.127584 -1.73532 0
M  V30 2979 O 288.375 -0.345477 -1.98415 0
M  V30 2980 C 285.44 -0.919378 -3.34288 0
M  V30 2981 C 284.501 -2.08971 -3.75006 0
M  V30 2982 C 283.734 -1.81194 -5.02001 0
M  V30 2983 O 283.957 -0.747296 -5.65484 0
M  V30 2984 O 282.891 -2.66883 -5.39497 0
M  V30 2985 H 286.717 -2.16883 -2.12592 0
M  V30 2986 H 284.302 -1.11189 -0.997868 0
M  V30 2987 H 286.184 -0.772625 -4.14257 0
M  V30 2988 H 284.859 0.00844772 -3.23699 0
M  V30 2989 H 283.766 -2.29187 -2.95676 0
M  V30 2990 H 285.099 -2.9998 -3.90221 0
M  V30 2991 N 286.751 1.08385 -1.14413 0
M  V30 2992 C 287.999 1.80419 -0.910679 0
M  V30 2993 C 288.32 1.86658 0.564243 0
M  V30 2994 O 287.59 1.35985 1.41014 0
M  V30 2995 H 286.17 0.668204 -0.333934 0
M  V30 2996 H 288.832 1.31037 -1.44275 0
M  V30 2997 H 287.928 2.83238 -1.31082 0
M  V30 2998 N 288.23 0.939286 1.26551 0
M  V30 2999 C 289.193 0.451987 2.24699 0
M  V30 3000 C 290.193 -0.435869 1.5478 0
M  V30 3001 O 291.383 -0.235314 1.72603 0
M  V30 3002 C 288.515 -0.348801 3.39111 0
M  V30 3003 H 289.708 1.3193 2.69322 0
M  V30 3004 H 287.261 0.721072 1.38673 0
M  V30 3005 H 287.996 -1.23444 2.99887 0
M  V30 3006 H 287.781 0.287945 3.91041 0
M  V30 3007 H 289.271 -0.679726 4.12031 0
M  V30 3008 N 289.708 -1.40897 0.706093 0
M  V30 3009 C 290.956 -2.00657 0.241054 0
M  V30 3010 C 291.277 -1.56241 -1.16678 0
M  V30 3011 O 290.547 -0.79765 -1.78926 0
M  V30 3012 H 289.127 -0.742018 0.0861308 0
M  V30 3013 H 291.789 -1.72372 0.909604 0
M  V30 3014 H 290.885 -3.10958 0.266705 0
M  V30 3015 N 291.186 -0.45159 -1.50991 0
M  V30 3016 C 292.096 0.358431 -2.31846 0
M  V30 3017 C 293.112 1.01438 -1.41373 0
M  V30 3018 O 294.288 1.00663 -1.74439 0
M  V30 3019 C 291.353 1.43704 -3.15515 0
M  V30 3020 C 290.414 0.799742 -4.21785 0
M  V30 3021 C 289.647 1.82696 -5.01456 0
M  V30 3022 O 289.87 3.05105 -4.81941 0
M  V30 3023 O 288.804 1.40958 -5.85162 0
M  V30 3024 H 292.63 -0.302032 -3.02194 0
M  V30 3025 H 290.215 -0.213825 -1.47862 0
M  V30 3026 H 292.097 2.06227 -3.67489 0
M  V30 3027 H 290.772 2.08133 -2.47916 0
M  V30 3028 H 289.679 0.136084 -3.73852 0
M  V30 3029 H 291.012 0.198718 -4.91799 0
M  V30 3030 N 292.664 1.56529 -0.183458 0
M  V30 3031 C 293.612 2.19873 0.758845 0
M  V30 3032 C 294.606 1.16638 1.22849 0
M  V30 3033 O 295.812 1.3481 1.19274 0
M  V30 3034 H 292.187 0.7045 0.263029 0
M  V30 3035 H 294.158 2.97724 0.200755 0
M  V30 3036 C 292.907 2.86314 1.9728 0
M  V30 3037 H 292.23 3.65487 1.62047 0
M  V30 3038 H 293.67 3.3409 2.61075 0
M  V30 3039 C 292.129 1.86729 2.80418 0
M  V30 3040 O 292.659 1.36031 3.77966 0
M  V30 3041 N 290.865 1.55216 2.45675 0
M  V30 3042 H 290.412 1.96636 1.66409 0
M  V30 3043 H 290.37 0.888388 3.01588 0
M  V30 3044 N 294.142 -0.090211 1.57342 0
M  V30 3045 C 295.072 -1.10976 2.05443 0
M  V30 3046 C 296.053 -1.41482 0.944284 0
M  V30 3047 O 297.238 -1.51428 1.21586 0
M  V30 3048 C 294.368 -2.42831 2.48295 0
M  V30 3049 C 293.322 -2.26721 3.63018 0
M  V30 3050 C 292.648 -3.63796 3.91863 0
M  V30 3051 C 293.948 -1.7037 4.93732 0
M  V30 3052 H 295.642 -0.709564 2.9087 0
M  V30 3053 H 293.188 -0.339874 1.39932 0
M  V30 3054 H 295.141 -3.14431 2.80555 0
M  V30 3055 H 293.865 -2.84795 1.59873 0
M  V30 3056 H 292.524 -1.57565 3.31012 0
M  V30 3057 H 292.172 -4.03297 3.00601 0
M  V30 3058 H 291.872 -3.53861 4.69101 0
M  V30 3059 H 293.396 -4.36855 4.26603 0
M  V30 3060 H 294.81 -2.31816 5.24342 0
M  V30 3061 H 293.207 -1.71181 5.75167 0
M  V30 3062 H 294.277 -0.663542 4.80339 0
M  V30 3063 N 295.62 -1.53406 -0.361157 0
M  V30 3064 C 296.867 -1.69802 -1.10333 0
M  V30 3065 C 297.195 -0.452087 -1.89173 0
M  V30 3066 O 296.45 0.566017 -1.87336 0
M  V30 3067 C 296.749 -2.90211 -2.08596 0
M  V30 3068 C 296.415 -4.26539 -1.46203 0
M  V30 3069 C 295.077 -4.6361 -1.28915 0
M  V30 3070 C 297.429 -5.113 -1.01101 0
M  V30 3071 C 294.757 -5.83075 -0.651157 0
M  V30 3072 C 297.109 -6.31415 -0.387007 0
M  V30 3073 C 295.773 -6.67195 -0.201657 0
M  V30 3074 H 295.043 -0.621351 -0.403737 0
M  V30 3075 H 297.69 -1.87598 -0.384609 0
M  V30 3076 H 295.995 -2.66946 -2.86788 0
M  V30 3077 H 297.692 -3.00091 -2.65982 0
M  V30 3078 H 294.282 -3.97352 -1.60653 0
M  V30 3079 H 298.466 -4.83206 -1.13249 0
M  V30 3080 H 293.722 -6.09385 -0.496006 0
M  V30 3081 H 297.896 -6.96394 -0.0293563 0
M  V30 3082 H 295.523 -7.59628 0.294766 0
M  V30 3083 N 297.098 0.621204 -1.44841 0
M  V30 3084 C 298.008 1.7612 -1.5498 0
M  V30 3085 C 299.024 1.68477 -0.434927 0
M  V30 3086 O 300.2 1.89076 -0.693693 0
M  V30 3087 C 297.265 3.1254 -1.50065 0
M  V30 3088 C 296.326 3.31741 -2.72482 0
M  V30 3089 C 295.559 4.61653 -2.67792 0
M  V30 3090 O 295.782 5.431 -1.74352 0
M  V30 3091 O 294.716 4.83271 -3.58794 0
M  V30 3092 H 298.542 1.70518 -2.51311 0
M  V30 3093 H 296.127 0.783643 -1.27198 0
M  V30 3094 H 298.009 3.93844 -1.49882 0
M  V30 3095 H 296.684 3.18663 -0.568806 0
M  V30 3096 H 295.591 2.50077 -2.7823 0
M  V30 3097 H 296.924 3.30486 -3.64746 0
M  V30 3098 N 298.576 1.31904 0.862503 0
M  V30 3099 C 299.822 1.22197 1.61851 0
M  V30 3100 C 300.155 -0.217641 1.92977 0
M  V30 3101 O 299.43 -1.15264 1.56666 0
M  V30 3102 C 299.713 2.07378 2.94391 0
M  V30 3103 C 299.566 3.59678 2.70096 0
M  V30 3104 C 300.885 1.92891 3.95577 0
M  V30 3105 H 298.004 0.445255 0.587296 0
M  V30 3106 H 300.646 1.6177 0.99651 0
M  V30 3107 H 298.796 1.73758 3.47477 0
M  V30 3108 H 300.468 4.03472 2.23625 0
M  V30 3109 H 298.711 3.82735 2.04197 0
M  V30 3110 H 299.382 4.14595 3.64438 0
M  V30 3111 H 301.858 2.22327 3.51724 0
M  V30 3112 H 300.734 2.54781 4.86187 0
M  V30 3113 H 300.995 0.894315 4.3296 0
M  V30 3114 N 300.054 -1.07777 1.14986 0
M  V30 3115 C 301.001 -2.14867 0.842672 0
M  V30 3116 C 301.971 -1.6486 -0.202552 0
M  V30 3117 O 303.156 -1.90668 -0.0710568 0
M  V30 3118 C 300.296 -3.43486 0.333363 0
M  V30 3119 C 299.409 -4.07306 1.43965 0
M  V30 3120 C 298.544 -5.23744 0.886914 0
M  V30 3121 C 297.583 -5.79517 1.97043 0
M  V30 3122 N 296.72 -6.87291 1.4344 0
M  V30 3123 H 301.56 -2.40485 1.75986 0
M  V30 3124 H 299.097 -1.1801 0.878179 0
M  V30 3125 H 301.055 -4.17195 0.0198163 0
M  V30 3126 H 299.685 -3.18133 -0.546916 0
M  V30 3127 H 298.737 -3.31293 1.86946 0
M  V30 3128 H 300.049 -4.44771 2.25788 0
M  V30 3129 H 299.203 -6.04419 0.525651 0
M  V30 3130 H 297.942 -4.87685 0.0377957 0
M  V30 3131 H 296.947 -4.97491 2.34057 0
M  V30 3132 H 298.172 -6.17632 2.82325 0
M  V30 3133 H 296.118 -6.5318 0.607567 0
M  V30 3134 H 296.035 -7.23617 2.18895 0
M  V30 3135 H 297.303 -7.71682 1.10124 0
M  V30 3136 N 301.532 -0.945985 -1.26051 0
M  V30 3137 C 302.809 -0.513816 -1.88731 0
M  V30 3138 C 303.189 1.00872 -1.8544 0
M  V30 3139 O 302.537 1.8708 -1.312 0
M  V30 3140 C 302.747 -1.08062 -3.31849 0
M  V30 3141 C 304.095 -1.1522 -4.08668 0
M  V30 3142 O 305.119 -1.03155 -3.40936 0
M  V30 3143 O 303.978 -1.34044 -5.29806 0
M  V30 3144 H 301.072 -0.168193 -0.809716 0
M  V30 3145 H 303.618 -1.03886 -1.34186 0
M  V30 3146 H 302.39 -2.1241 -3.2863 0
M  V30 3147 H 302.013 -0.538307 -3.93939 0
M  V30 3148 N 303.011 1.40521 -0.713556 0
M  V30 3149 C 304.259 2.00527 -0.251692 0
M  V30 3150 C 304.58 1.56857 1.15848 0
M  V30 3151 O 303.85 0.807127 1.785 0
M  V30 3152 H 302.43 0.741551 -0.0900646 0
M  V30 3153 H 305.092 1.71887 -0.918733 0
M  V30 3154 H 304.188 3.10813 -0.283192 0
M  V30 3155 N 304.489 0.459591 1.5075 0
M  V30 3156 C 305.735 -0.0994966 2.02556 0
M  V30 3157 C 306.068 -1.40399 1.3417 0
M  V30 3158 O 305.343 -1.88892 0.463683 0
M  V30 3159 C 305.626 -0.295242 3.58888 0
M  V30 3160 C 305.479 1.02947 4.37861 0
M  V30 3161 C 306.798 -1.05502 4.27267 0
M  V30 3162 H 303.917 -0.034686 0.736183 0
M  V30 3163 H 306.559 0.602938 1.8018 0
M  V30 3164 H 304.709 -0.893563 3.78084 0
M  V30 3165 H 306.381 1.66348 4.30263 0
M  V30 3166 H 304.624 1.62885 4.02058 0
M  V30 3167 H 305.295 0.846281 5.45474 0
M  V30 3168 H 307.771 -0.547993 4.12476 0
M  V30 3169 H 306.647 -1.16077 5.36486 0
M  V30 3170 H 306.908 -2.08875 3.89645 0
M  V30 3171 N 305.967 -1.56429 0.191757 0
M  V30 3172 C 306.897 -2.21937 -0.725696 0
M  V30 3173 C 307.878 -1.1814 -1.2238 0
M  V30 3174 O 309.063 -1.46636 -1.27325 0
M  V30 3175 C 306.193 -2.87611 -1.94672 0
M  V30 3176 C 305.147 -3.97623 -1.58366 0
M  V30 3177 C 304.473 -4.50446 -2.88102 0
M  V30 3178 C 305.773 -5.16197 -0.796133 0
M  V30 3179 H 307.467 -2.98861 -0.179606 0
M  V30 3180 H 305.013 -1.43749 -0.0849464 0
M  V30 3181 H 306.966 -3.3212 -2.59373 0
M  V30 3182 H 305.69 -2.08087 -2.51728 0
M  V30 3183 H 304.349 -3.53801 -0.960247 0
M  V30 3184 H 303.997 -3.67688 -3.43241 0
M  V30 3185 H 303.697 -5.24675 -2.64556 0
M  V30 3186 H 305.221 -4.97654 -3.53798 0
M  V30 3187 H 306.635 -5.57271 -1.34618 0
M  V30 3188 H 305.032 -5.96471 -0.658928 0
M  V30 3189 H 306.102 -4.84473 0.203478 0
M  V30 3190 N 307.445 0.0818655 -1.57387 0
M  V30 3191 C 308.692 0.782914 -1.86753 0
M  V30 3192 C 309.02 1.78082 -0.782118 0
M  V30 3193 O 308.275 1.94426 0.22295 0
M  V30 3194 C 308.574 1.53513 -3.22752 0
M  V30 3195 C 308.24 0.678134 -4.45771 0
M  V30 3196 C 306.902 0.441929 -4.79166 0
M  V30 3197 C 309.254 0.0832243 -5.21134 0
M  V30 3198 C 306.582 -0.398833 -5.85343 0
M  V30 3199 C 308.934 -0.744935 -6.28199 0
M  V30 3200 C 307.598 -0.991107 -6.60101 0
M  V30 3201 H 306.868 0.286489 -0.683378 0
M  V30 3202 H 309.515 0.0439808 -1.91449 0
M  V30 3203 H 307.82 2.34599 -3.138 0
M  V30 3204 H 309.517 2.08218 -3.42705 0
M  V30 3205 H 306.107 0.872357 -4.19628 0
M  V30 3206 H 310.291 0.252847 -4.95655 0
M  V30 3207 H 305.547 -0.598405 -6.08465 0
M  V30 3208 H 309.721 -1.21271 -6.8576 0
M  V30 3209 H 307.348 -1.64437 -7.42202 0
M  V30 3210 N 308.923 1.53595 0.353017 0
M  V30 3211 C 310.151 1.74311 1.1146 0
M  V30 3212 C 310.566 0.477854 1.82653 0
M  V30 3213 O 309.923 -0.549977 1.74016 0
M  V30 3214 C 309.974 2.91694 2.13534 0
M  V30 3215 O 309.695 4.13325 1.45238 0
M  V30 3216 C 311.196 3.24384 3.02142 0
M  V30 3217 H 308.416 0.582669 0.332773 0
M  V30 3218 H 310.96 2.00386 0.408107 0
M  V30 3219 H 309.115 2.67977 2.79763 0
M  V30 3220 H 309.529 4.79148 2.13349 0
M  V30 3221 H 311.003 4.09893 3.69718 0
M  V30 3222 H 311.48 2.40282 3.67643 0
M  V30 3223 H 312.086 3.50073 2.41514 0
M  V30 3224 N 310.401 -0.613514 1.45168 0
M  V30 3225 C 311.812 -1.19539 1.43413 0
M  V30 3226 C 312.163 -1.95558 0.158632 0
M  V30 3227 O 311.288 -2.0335 -0.740119 0
M  V30 3228 C 311.883 -2.17445 2.59813 0
M  V30 3229 C 310.442 -2.71022 2.61197 0
M  V30 3230 C 309.589 -1.46323 2.35552 0
M  V30 3231 H 312.54 -0.403163 1.53494 0
M  V30 3232 H 312.561 -3.00373 2.33574 0
M  V30 3233 H 312.073 -1.62089 3.52631 0
M  V30 3234 H 310.174 -3.30332 1.7237 0
M  V30 3235 H 310.287 -3.15859 3.60236 0
M  V30 3236 H 308.651 -1.75072 1.84992 0
M  V30 3237 H 309.434 -0.92844 3.30507 0
M  V30 3238 N 311.879 -1.3236 -0.855495 0
M  V30 3239 C 313.29 -1.2056 -1.42556 0
M  V30 3240 C 313.641 0.182209 -1.95352 0
M  V30 3241 O 312.766 1.08088 -1.87472 0
M  V30 3242 C 313.361 -2.1826 -2.59129 0
M  V30 3243 C 311.92 -2.10351 -3.12137 0
M  V30 3244 C 311.067 -2.06674 -1.84882 0
M  V30 3245 H 314.018 -1.442 -0.662727 0
M  V30 3246 H 314.039 -1.78064 -3.36264 0
M  V30 3247 H 313.551 -3.19257 -2.20673 0
M  V30 3248 H 311.652 -1.12599 -3.55179 0
M  V30 3249 H 311.765 -3.00135 -3.73438 0
M  V30 3250 H 310.129 -1.51901 -2.04446 0
M  V30 3251 H 310.912 -3.09451 -1.48643 0
M  V30 3252 N 313.357 1.07166 -1.15556 0
M  V30 3253 C 314.604 1.79798 -0.931604 0
M  V30 3254 C 314.932 1.8682 0.54115 0
M  V30 3255 O 314.187 1.34942 1.41736 0
M  V30 3256 C 314.486 3.24707 -1.49332 0
M  V30 3257 C 314.152 3.37781 -2.98688 0
M  V30 3258 C 312.814 3.41057 -3.39461 0
M  V30 3259 C 315.166 3.40424 -3.94665 0
M  V30 3260 C 312.494 3.4458 -4.74849 0
M  V30 3261 C 314.846 3.45485 -5.29927 0
M  V30 3262 C 313.51 3.47039 -5.70193 0
M  V30 3263 H 312.78 0.657928 -0.340898 0
M  V30 3264 H 315.427 1.26091 -1.44129 0
M  V30 3265 H 313.732 3.81208 -0.904859 0
M  V30 3266 H 315.429 3.79486 -1.29582 0
M  V30 3267 H 312.019 3.35932 -2.66172 0
M  V30 3268 H 316.203 3.37113 -3.64237 0
M  V30 3269 H 311.459 3.44083 -5.05388 0
M  V30 3270 H 315.633 3.46476 -6.04092 0
M  V30 3271 H 313.26 3.49522 -6.75084 0
M  V30 3272 N 314.835 0.952656 1.25548 0
M  V30 3273 C 316.063 0.623496 1.97282 0
M  V30 3274 C 316.478 -0.803987 1.70826 0
M  V30 3275 O 315.835 -1.53755 0.983147 0
M  V30 3276 C 315.886 0.870209 3.5087 0
M  V30 3277 O 315.607 2.24156 3.76412 0
M  V30 3278 C 317.108 0.553164 4.39835 0
M  V30 3279 H 314.328 0.233931 0.628902 0
M  V30 3280 H 316.872 1.27649 1.59768 0
M  V30 3281 H 315.027 0.263652 3.86502 0
M  V30 3282 H 315.441 2.31021 4.70882 0
M  V30 3283 H 316.915 0.776342 5.46513 0
M  V30 3284 H 317.392 -0.512215 4.36203 0
M  V30 3285 H 317.998 1.13896 4.09766 0
M  V30 3286 N 316.313 -1.40141 0.720998 0
M  V30 3287 C 317.538 -2.05618 0.271258 0
M  V30 3288 C 317.963 -1.53978 -1.08039 0
M  V30 3289 O 317.321 -0.677463 -1.68167 0
M  V30 3290 C 317.369 -3.59609 0.267197 0
M  V30 3291 O 316.473 -4.05526 -0.749814 0
M  V30 3292 H 315.814 -0.651904 0.126162 0
M  V30 3293 H 318.344 -1.79439 0.982997 0
M  V30 3294 H 318.354 -4.0786 0.106744 0
M  V30 3295 H 317.029 -3.96559 1.25354 0
M  V30 3296 H 315.606 -3.68722 -0.556644 0
M  V30 3297 N 317.792 -0.46758 -1.50504 0
M  V30 3298 C 319.017 0.0886943 -2.0721 0
M  V30 3299 C 319.442 1.33057 -1.32956 0
M  V30 3300 O 318.8 1.77354 -0.376197 0
M  V30 3301 C 318.848 0.359202 -3.58806 0
M  V30 3302 O 317.952 1.44034 -3.8643 0
M  V30 3303 H 317.293 -0.0114349 -0.663902 0
M  V30 3304 H 319.823 -0.657613 -1.93744 0
M  V30 3305 H 319.833 0.600742 -4.03553 0
M  V30 3306 H 318.508 -0.548311 -4.1227 0
M  V30 3307 H 317.085 1.18638 -3.53524 0
M  V30 3308 N 319.27 1.56325 -0.20005 0
M  V30 3309 C 320.233 2.18084 0.705132 0
M  V30 3310 C 321.233 1.13666 1.1374 0
M  V30 3311 O 322.423 1.39023 1.04968 0
M  V30 3312 C 319.555 2.78689 1.96329 0
M  V30 3313 H 320.748 2.99435 0.167023 0
M  V30 3314 H 318.301 1.56221 0.0495725 0
M  V30 3315 H 319.036 2.0115 2.5438 0
M  V30 3316 H 318.821 3.55133 1.66202 0
M  V30 3317 H 320.311 3.26096 2.60866 0
M  V30 3318 N 320.748 -0.0735177 1.57428 0
M  V30 3319 C 321.678 -1.0879 2.06608 0
M  V30 3320 C 322.659 -1.40473 0.959237 0
M  V30 3321 O 323.844 -1.5013 1.23185 0
M  V30 3322 C 320.974 -2.40183 2.50857 0
M  V30 3323 C 319.928 -2.22858 3.65402 0
M  V30 3324 C 319.254 -3.59619 3.957 0
M  V30 3325 C 320.554 -1.65123 4.95511 0
M  V30 3326 H 322.248 -0.678673 2.91607 0
M  V30 3327 H 319.794 -0.325013 1.40284 0
M  V30 3328 H 321.747 -3.11437 2.83874 0
M  V30 3329 H 320.471 -2.83083 1.62885 0
M  V30 3330 H 319.13 -1.54045 3.32664 0
M  V30 3331 H 318.778 -4.00086 3.04861 0
M  V30 3332 H 318.478 -3.48866 4.72828 0
M  V30 3333 H 320.002 -4.32306 4.31212 0
M  V30 3334 H 321.416 -2.26241 5.26771 0
M  V30 3335 H 319.813 -1.65071 5.7695 0
M  V30 3336 H 320.883 -0.612559 4.81015 0
M  V30 3337 N 322.226 -1.5378 -0.344866 0
M  V30 3338 C 323.637 -1.62428 -0.920552 0
M  V30 3339 C 323.988 -0.504747 -1.89596 0
M  V30 3340 O 323.113 0.365711 -2.13287 0
M  V30 3341 C 323.708 -2.94419 -1.67639 0
M  V30 3342 C 322.267 -3.05333 -2.20111 0
M  V30 3343 C 321.414 -2.57866 -1.01982 0
M  V30 3344 H 324.365 -1.58222 -0.123042 0
M  V30 3345 H 324.386 -2.83384 -2.53917 0
M  V30 3346 H 323.898 -3.7588 -0.966224 0
M  V30 3347 H 321.999 -2.28502 -2.94308 0
M  V30 3348 H 322.112 -4.10778 -2.46573 0
M  V30 3349 H 320.476 -2.13241 -1.39285 0
M  V30 3350 H 321.259 -3.41765 -0.324308 0
M  V30 3351 N 323.704 0.605807 -1.45491 0
M  V30 3352 C 324.952 1.36207 -1.49305 0
M  V30 3353 C 325.273 1.94519 -0.136863 0
M  V30 3354 O 324.543 1.77261 0.833983 0
M  V30 3355 H 323.123 0.50565 -0.549843 0
M  V30 3356 H 325.785 0.711239 -1.81459 0
M  V30 3357 H 324.881 2.18058 -2.23287 0
M  V30 3358 N 325.182 1.32811 0.848464 0
M  V30 3359 C 326.431 1.23075 1.59798 0
M  V30 3360 C 326.744 -0.204419 1.94529 0
M  V30 3361 O 327.95 -0.423701 2.68173 0
M  V30 3362 C 326.406 2.15594 2.88179 0
M  V30 3363 C 326.014 3.64228 2.60849 0
M  V30 3364 C 327.758 2.14709 3.66197 0
M  V30 3365 C 325.665 4.48689 3.85269 0
M  V30 3366 H 324.595 0.457091 0.599653 0
M  V30 3367 H 327.246 1.57813 0.936342 0
M  V30 3368 H 325.628 1.73778 3.55833 0
M  V30 3369 H 326.802 4.14424 2.01467 0
M  V30 3370 H 325.117 3.67306 1.96151 0
M  V30 3371 H 327.714 2.75046 4.58534 0
M  V30 3372 H 328.057 1.13966 4.00397 0
M  V30 3373 H 328.59 2.54837 3.05455 0
M  V30 3374 H 325.329 5.5027 3.56207 0
M  V30 3375 H 324.849 4.03241 4.44024 0
M  V30 3376 H 326.528 4.62006 4.52946 0
M  V30 3377 N 326.66 -1.06551 1.16123 0
M  V30 3378 C 327.888 -1.83005 0.965237 0
M  V30 3379 C 328.303 -1.82423 -0.486542 0
M  V30 3380 O 327.66 -1.24152 -1.33763 0
M  V30 3381 C 327.711 -3.29733 1.48183 0
M  V30 3382 O 327.432 -3.30416 2.87674 0
M  V30 3383 C 328.933 -4.22926 1.32848 0
M  V30 3384 H 326.153 -0.577118 0.342309 0
M  V30 3385 H 328.697 -1.3445 1.54089 0
M  V30 3386 H 326.852 -3.75609 0.948517 0
M  V30 3387 H 327.266 -4.22149 3.11272 0
M  V30 3388 H 328.74 -5.23916 1.73827 0
M  V30 3389 H 329.217 -4.38346 0.273692 0
M  V30 3390 H 329.823 -3.82894 1.85127 0
M  V30 3391 N 328.138 -0.959301 -1.25041 0
M  V30 3392 C 329.554 -0.664474 -1.4511 0
M  V30 3393 C 329.754 0.776481 -1.85938 0
M  V30 3394 O 328.81 1.55128 -1.99227 0
M  V30 3395 C 330.123 -1.64139 -2.5195 0
M  V30 3396 C 331.671 -1.65309 -2.65786 0
M  V30 3397 C 332.146 -2.61777 -3.75815 0
M  V30 3398 N 333.637 -2.60169 -3.83231 0
M  V30 3399 C 334.372 -3.31489 -4.6787 0
M  V30 3400 N 333.868 -4.12298 -5.56761 0
M  V30 3401 N 335.661 -3.20354 -4.61876 0
M  V30 3402 H 327.812 -1.89043 -0.968332 0
M  V30 3403 H 330.075 -0.813408 -0.4869 0
M  V30 3404 H 329.781 -2.67086 -2.28819 0
M  V30 3405 H 329.655 -1.40756 -3.49954 0
M  V30 3406 H 332.042 -0.630778 -2.8828 0
M  V30 3407 H 332.123 -1.92753 -1.68167 0
M  V30 3408 H 331.767 -3.64137 -3.54071 0
M  V30 3409 H 331.697 -2.31616 -4.72929 0
M  V30 3410 H 334.188 -2.01507 -3.19692 0
M  V30 3411 H 334.501 -4.63625 -6.18281 0
M  V30 3412 H 332.846 -4.16395 -5.56454 0
M  V30 3413 H 336.037 -2.56692 -3.91442 0
M  V30 3414 H 336.21 -3.76201 -5.27614 0
M  V30 3415 N 329.616 1.39756 -0.72842 0
M  V30 3416 C 330.893 1.94574 -0.200079 0
M  V30 3417 C 331.273 1.66569 1.29684 0
M  V30 3418 O 330.621 0.990326 2.05924 0
M  V30 3419 C 330.831 3.45004 -0.526608 0
M  V30 3420 C 332.179 4.21965 -0.472318 0
M  V30 3421 O 333.203 3.53173 -0.463413 0
M  V30 3422 O 332.062 5.44552 -0.461075 0
M  V30 3423 H 329.156 0.826289 -0.0342851 0
M  V30 3424 H 331.702 1.49293 -0.806829 0
M  V30 3425 H 330.474 3.58796 -1.56144 0
M  V30 3426 H 330.097 3.97449 0.109449 0
M  V30 3427 N 331.094 0.475555 1.50254 0
M  V30 3428 C 332.057 -0.305016 2.27161 0
M  V30 3429 C 333.057 -0.916519 1.32123 0
M  V30 3430 O 334.247 -0.785003 1.5551 0
M  V30 3431 C 331.379 -1.43496 3.09227 0
M  V30 3432 H 332.572 0.369511 2.97615 0
M  V30 3433 H 330.125 0.229747 1.54602 0
M  V30 3434 H 330.86 -2.14441 2.43281 0
M  V30 3435 H 330.645 -1.00223 3.79075 0
M  V30 3436 H 332.135 -1.98548 3.67381 0
M  V30 3437 N 332.573 -1.56217 0.208337 0
M  V30 3438 C 333.822 -1.97124 -0.427204 0
M  V30 3439 C 334.135 -1.09859 -1.61835 0
M  V30 3440 O 335.341 -1.40606 -2.32255 0
M  V30 3441 C 333.797 -3.50633 -0.811442 0
M  V30 3442 C 333.405 -4.46582 0.35615 0
M  V30 3443 C 335.149 -4.00282 -1.41332 0
M  V30 3444 C 333.056 -5.91379 -0.0497852 0
M  V30 3445 H 331.986 -0.736086 -0.163381 0
M  V30 3446 H 334.637 -1.8099 0.302456 0
M  V30 3447 H 333.019 -3.62319 -1.59815 0
M  V30 3448 H 334.193 -4.46636 1.1337 0
M  V30 3449 H 332.508 -4.07202 0.870396 0
M  V30 3450 H 335.105 -5.0595 -1.72972 0
M  V30 3451 H 335.448 -3.45359 -2.32449 0
M  V30 3452 H 335.981 -3.91764 -0.690323 0
M  V30 3453 H 332.72 -6.50255 0.827529 0
M  V30 3454 H 332.24 -5.94549 -0.791926 0
M  V30 3455 H 333.919 -6.45209 -0.481042 0
M  V30 3456 N 334.051 0.0651679 -1.57465 0
M  V30 3457 C 335.3 0.761916 -1.86756 0
M  V30 3458 C 335.613 1.78406 -0.801925 0
M  V30 3459 O 336.819 2.53084 -0.982885 0
M  V30 3460 C 335.275 1.40603 -3.31299 0
M  V30 3461 C 334.883 0.422115 -4.46007 0
M  V30 3462 C 336.627 2.08476 -3.69781 0
M  V30 3463 C 334.534 1.07252 -5.81593 0
M  V30 3464 H 333.464 0.288308 -0.696702 0
M  V30 3465 H 336.115 0.015344 -1.83494 0
M  V30 3466 H 334.497 2.20109 -3.29193 0
M  V30 3467 H 335.671 -0.343613 -4.59517 0
M  V30 3468 H 333.986 -0.152527 -4.16121 0
M  V30 3469 H 336.583 2.57925 -4.68379 0
M  V30 3470 H 336.926 2.88712 -2.99919 0
M  V30 3471 H 337.459 1.35792 -3.73905 0
M  V30 3472 H 334.198 0.310342 -6.54765 0
M  V30 3473 H 333.718 1.80895 -5.71872 0
M  V30 3474 H 335.397 1.59043 -6.27148 0
M  V30 3475 N 335.529 1.53961 0.336706 0
M  V30 3476 C 336.476 1.82428 1.41381 0
M  V30 3477 C 337.446 0.670444 1.51968 0
M  V30 3478 O 338.631 0.915565 1.67398 0
M  V30 3479 C 335.771 2.04564 2.77934 0
M  V30 3480 C 334.884 3.32267 2.76084 0
M  V30 3481 C 334.019 3.44434 4.04399 0
M  V30 3482 C 333.058 4.66061 3.96804 0
M  V30 3483 N 332.195 4.75224 5.16823 0
M  V30 3484 H 337.035 2.74324 1.16405 0
M  V30 3485 H 334.572 1.35869 0.563752 0
M  V30 3486 H 336.53 2.15388 3.57301 0
M  V30 3487 H 335.16 1.15974 3.01247 0
M  V30 3488 H 334.212 3.3025 1.88784 0
M  V30 3489 H 335.524 4.21733 2.66351 0
M  V30 3490 H 334.678 3.54728 4.92192 0
M  V30 3491 H 333.417 2.53037 4.16921 0
M  V30 3492 H 332.422 4.55838 3.07396 0
M  V30 3493 H 333.647 5.58829 3.85858 0
M  V30 3494 H 331.593 3.86739 5.29876 0
M  V30 3495 H 331.51 5.58636 5.09374 0
M  V30 3496 H 332.778 4.89835 6.06367 0
M  V30 3497 N 337.007 -0.598083 1.45811 0
M  V30 3498 C 337.937 -1.71873 1.58057 0
M  V30 3499 C 338.918 -1.64533 0.431615 0
M  V30 3500 O 340.103 -1.82787 0.65595 0
M  V30 3501 C 337.233 -3.10495 1.55597 0
M  V30 3502 C 336.187 -3.32654 2.69305 0
M  V30 3503 C 335.513 -4.71646 2.51902 0
M  V30 3504 C 336.813 -3.21981 4.11248 0
M  V30 3505 H 338.507 -1.61881 2.51863 0
M  V30 3506 H 336.053 -0.777372 1.21214 0
M  V30 3507 H 338.006 -3.88699 1.6276 0
M  V30 3508 H 336.73 -3.2135 0.583255 0
M  V30 3509 H 335.389 -2.56843 2.61586 0
M  V30 3510 H 335.037 -4.79246 1.52748 0
M  V30 3511 H 334.737 -4.87426 3.2816 0
M  V30 3512 H 336.261 -5.52038 2.60933 0
M  V30 3513 H 337.675 -3.90049 4.20161 0
M  V30 3514 H 336.072 -3.49289 4.87972 0
M  V30 3515 H 337.142 -2.1928 4.32486 0
M  V30 3516 N 338.485 -1.33259 -0.841409 0
M  V30 3517 C 339.448 -1.23221 -1.9326 0
M  V30 3518 C 340.448 -0.151895 -1.60081 0
M  V30 3519 O 341.638 -0.403246 -1.69468 0
M  V30 3520 C 338.77 -0.898123 -3.28856 0
M  V30 3521 H 339.963 -2.2021 -2.03587 0
M  V30 3522 H 337.516 -1.17281 -1.03319 0
M  V30 3523 H 338.251 0.0693841 -3.24226 0
M  V30 3524 H 338.036 -1.67934 -3.54317 0
M  V30 3525 H 339.526 -0.852563 -4.08805 0
M  V30 3526 N 339.963 1.05934 -1.16686 0
M  V30 3527 C 340.91 2.13499 -0.876748 0
M  V30 3528 C 341.88 1.65162 0.176299 0
M  V30 3529 O 343.065 1.90757 0.0407143 0
M  V30 3530 C 340.205 3.42912 -0.387967 0
M  V30 3531 C 339.318 4.04964 -1.50426 0
M  V30 3532 C 338.453 5.22266 -0.970125 0
M  V30 3533 C 337.492 5.76309 -2.06238 0
M  V30 3534 N 336.629 6.84922 -1.54356 0
M  V30 3535 H 341.469 2.37654 -1.7979 0
M  V30 3536 H 339.006 1.16598 -0.896843 0
M  V30 3537 H 340.964 4.17111 -0.086186 0
M  V30 3538 H 339.594 3.18963 0.496235 0
M  V30 3539 H 338.646 3.28277 -1.92193 0
M  V30 3540 H 339.958 4.41122 -2.32836 0
M  V30 3541 H 339.112 6.03506 -0.621743 0
M  V30 3542 H 337.851 4.87564 -0.115377 0
M  V30 3543 H 336.856 4.93704 -2.41942 0
M  V30 3544 H 338.081 6.13062 -2.92115 0
M  V30 3545 H 336.027 6.52131 -0.711406 0
M  V30 3546 H 335.944 7.20043 -2.30379 0
M  V30 3547 H 337.212 7.69832 -1.22387 0
M  V30 3548 N 341.441 0.965919 1.2453 0
M  V30 3549 C 342.351 0.502154 2.29163 0
M  V30 3550 C 343.367 -0.436017 1.68448 0
M  V30 3551 O 344.543 -0.309497 1.99008 0
M  V30 3552 C 341.608 -0.201956 3.46111 0
M  V30 3553 C 340.669 0.775821 4.22232 0
M  V30 3554 C 339.902 0.105217 5.33596 0
M  V30 3555 O 340.125 -1.10683 5.59558 0
M  V30 3556 O 339.059 0.796475 5.96607 0
M  V30 3557 H 342.885 1.37194 2.70946 0
M  V30 3558 H 340.47 0.732875 1.30189 0
M  V30 3559 H 342.352 -0.597564 4.17142 0
M  V30 3560 H 341.027 -1.04673 3.06309 0
M  V30 3561 H 339.934 1.22185 3.53584 0
M  V30 3562 H 341.267 1.58896 4.65846 0
M  V30 3563 N 342.919 -1.39368 0.735821 0
M  V30 3564 C 343.849 -2.33234 0.111506 0
M  V30 3565 C 344.83 -1.53954 -0.723334 0
M  V30 3566 O 346.015 -1.82344 -0.668147 0
M  V30 3567 C 343.145 -3.38057 -0.795917 0
M  V30 3568 C 342.099 -4.2795 -0.065172 0
M  V30 3569 C 341.425 -5.23479 -1.08967 0
M  V30 3570 C 342.725 -5.10741 1.09273 0
M  V30 3571 H 344.419 -2.85692 0.895571 0
M  V30 3572 H 341.965 -1.37364 0.432109 0
M  V30 3573 H 343.918 -4.02675 -1.24221 0
M  V30 3574 H 342.642 -2.8404 -1.61211 0
M  V30 3575 H 341.301 -3.64813 0.361511 0
M  V30 3576 H 340.949 -4.65758 -1.89944 0
M  V30 3577 H 340.649 -5.84472 -0.605489 0
M  V30 3578 H 342.173 -5.90974 -1.53565 0
M  V30 3579 H 343.587 -5.68699 0.724841 0
M  V30 3580 H 341.984 -5.8088 1.50659 0
M  V30 3581 H 343.054 -4.45525 1.91404 0
M  V30 3582 N 344.397 -0.483516 -1.5 0
M  V30 3583 C 345.645 0.067027 -2.01989 0
M  V30 3584 C 345.966 1.3909 -1.36671 0
M  V30 3585 O 345.236 1.88978 -0.516152 0
M  V30 3586 H 343.816 0.0277606 -0.746484 0
M  V30 3587 H 346.478 -0.636773 -1.84204 0
M  V30 3588 H 345.574 0.209484 -3.11396 0
M  V30 3589 N 345.875 1.56104 -0.216619 0
M  V30 3590 C 347.124 1.97348 0.416744 0
M  V30 3591 C 347.437 1.10715 1.6125 0
M  V30 3592 O 348.643 1.41836 2.31506 0
M  V30 3593 C 347.099 3.51059 0.792835 0
M  V30 3594 C 346.707 4.46387 -0.379828 0
M  V30 3595 C 348.451 4.01026 1.39208 0
M  V30 3596 C 346.358 5.91397 0.0184223 0
M  V30 3597 H 345.288 0.736942 0.159475 0
M  V30 3598 H 347.939 1.80827 -0.31205 0
M  V30 3599 H 346.321 3.63162 1.57891 0
M  V30 3600 H 347.495 4.46029 -1.15737 0
M  V30 3601 H 345.81 4.06734 -0.891979 0
M  V30 3602 H 348.407 5.0686 1.70286 0
M  V30 3603 H 348.75 3.46587 2.30614 0
M  V30 3604 H 349.283 3.92125 0.669537 0
M  V30 3605 H 346.022 6.49807 -0.862002 0
M  V30 3606 H 345.542 5.94961 0.760384 0
M  V30 3607 H 347.221 6.45455 0.446818 0
M  V30 3608 N 347.353 -0.0568162 1.57498 0
M  V30 3609 C 348.263 -1.08346 2.08083 0
M  V30 3610 C 349.279 -1.41439 1.01346 0
M  V30 3611 O 350.455 -1.51316 1.32912 0
M  V30 3612 C 347.52 -2.37352 2.52715 0
M  V30 3613 C 346.581 -2.11093 3.73816 0
M  V30 3614 C 345.814 -3.33949 4.1631 0
M  V30 3615 O 346.037 -4.43622 3.58547 0
M  V30 3616 O 344.971 -3.21279 5.08983 0
M  V30 3617 H 348.797 -0.683667 2.95905 0
M  V30 3618 H 346.382 -0.271965 1.46904 0
M  V30 3619 H 348.264 -3.13246 2.81877 0
M  V30 3620 H 346.939 -2.76681 1.68016 0
M  V30 3621 H 345.846 -1.32856 3.49714 0
M  V30 3622 H 347.179 -1.76637 4.59413 0
M  V30 3623 N 348.832 -1.54138 -0.328536 0
M  V30 3624 C 350.078 -1.7236 -1.06865 0
M  V30 3625 C 350.411 -0.493231 -1.87832 0
M  V30 3626 O 349.686 0.5098 -1.877 0
M  V30 3627 C 349.969 -2.99621 -1.99747 0
M  V30 3628 C 349.822 -4.32899 -1.22143 0
M  V30 3629 C 351.141 -3.22615 -2.99345 0
M  V30 3630 H 348.26 -0.627151 -0.387105 0
M  V30 3631 H 350.902 -1.86827 -0.345767 0
M  V30 3632 H 349.052 -2.87418 -2.61387 0
M  V30 3633 H 350.724 -4.56978 -0.630017 0
M  V30 3634 H 348.967 -4.30628 -0.523628 0
M  V30 3635 H 349.638 -5.18154 -1.90318 0
M  V30 3636 H 352.114 -3.34248 -2.47826 0
M  V30 3637 H 350.99 -4.13027 -3.61524 0
M  V30 3638 H 351.251 -2.3961 -3.71536 0
M  V30 3639 N 350.31 0.590341 -1.46126 0
M  V30 3640 C 351.726 0.912917 -1.30912 0
M  V30 3641 C 351.926 1.99616 -0.274893 0
M  V30 3642 O 350.982 2.50397 0.325197 0
M  V30 3643 C 352.295 1.3375 -2.69317 0
M  V30 3644 C 353.843 1.45077 -2.77348 0
M  V30 3645 C 354.318 1.90904 -4.16317 0
M  V30 3646 N 355.809 1.9811 -4.18696 0
M  V30 3647 C 356.544 2.34828 -5.23109 0
M  V30 3648 N 356.04 2.70393 -6.37856 0
M  V30 3649 N 357.833 2.35317 -5.10473 0
M  V30 3650 H 349.984 -0.125358 -2.1203 0
M  V30 3651 H 352.247 0.00658481 -0.947977 0
M  V30 3652 H 351.953 0.615614 -3.4627 0
M  V30 3653 H 351.827 2.30058 -2.9892 0
M  V30 3654 H 354.214 2.16353 -2.00687 0
M  V30 3655 H 354.295 0.4704 -2.51438 0
M  V30 3656 H 353.939 1.20209 -4.9347 0
M  V30 3657 H 353.869 2.89886 -4.39629 0
M  V30 3658 H 356.36 1.73146 -3.359 0
M  V30 3659 H 356.673 2.97341 -7.13308 0
M  V30 3660 H 355.018 2.68048 -6.41229 0
M  V30 3661 H 358.209 2.0695 -4.19868 0
M  V30 3662 H 358.382 2.63605 -5.9196 0
M  V30 3663 N 351.788 1.33704 0.83433 0
M  V30 3664 C 352.698 1.26382 1.97648 0
M  V30 3665 C 353.714 0.173548 1.73132 0
M  V30 3666 O 354.89 0.397962 1.97429 0
M  V30 3667 C 351.955 1.00769 3.31733 0
M  V30 3668 C 351.016 2.1884 3.69334 0
M  V30 3669 C 350.249 1.9444 4.9702 0
M  V30 3670 O 350.472 0.896961 5.63303 0
M  V30 3671 O 349.406 2.81093 5.32231 0
M  V30 3672 H 353.232 2.22444 2.06767 0
M  V30 3673 H 350.817 1.13795 0.968037 0
M  V30 3674 H 352.699 0.882186 4.12062 0
M  V30 3675 H 351.374 0.0773783 3.23608 0
M  V30 3676 H 350.281 2.36946 2.89495 0
M  V30 3677 H 351.614 3.10221 3.82131 0
M  V30 3678 N 353.266 -1.05314 1.17247 0
M  V30 3679 C 354.198 -2.13023 0.845812 0
M  V30 3680 C 355.211 -1.62096 -0.151246 0
M  V30 3681 O 356.4 -1.78343 0.0748818 0
M  V30 3682 C 353.5 -3.38047 0.240292 0
M  V30 3683 C 352.673 -4.18255 1.27991 0
M  V30 3684 C 351.732 -5.21625 0.692375 0
M  V30 3685 O 350.758 -5.52619 1.36385 0
M  V30 3686 N 351.96 -5.78201 -0.516178 0
M  V30 3687 H 354.725 -2.41642 1.77283 0
M  V30 3688 H 352.286 -1.21401 1.07115 0
M  V30 3689 H 354.278 -4.04359 -0.16603 0
M  V30 3690 H 352.848 -3.06972 -0.590487 0
M  V30 3691 H 352.068 -3.47451 1.86203 0
M  V30 3692 H 353.356 -4.68643 1.98119 0
M  V30 3693 H 352.754 -5.55301 -1.07969 0
M  V30 3694 H 351.311 -6.4604 -0.86458 0
M  V30 3695 N 354.744 -0.972509 -1.24016 0
M  V30 3696 C 355.99 -0.637978 -1.92504 0
M  V30 3697 C 356.323 0.825383 -1.75787 0
M  V30 3698 O 355.598 1.59442 -1.11393 0
M  V30 3699 C 355.881 -1.01942 -3.45369 0
M  V30 3700 C 355.734 -2.53983 -3.71231 0
M  V30 3701 C 357.053 -0.55751 -4.36555 0
M  V30 3702 H 354.172 -0.233248 -0.699117 0
M  V30 3703 H 356.814 -1.21238 -1.46292 0
M  V30 3704 H 354.964 -0.530656 -3.84859 0
M  V30 3705 H 356.636 -3.10374 -3.41271 0
M  V30 3706 H 354.879 -2.96968 -3.16216 0
M  V30 3707 H 355.55 -2.75723 -4.78206 0
M  V30 3708 H 358.026 -0.977029 -4.04467 0
M  V30 3709 H 356.902 -0.85292 -5.42233 0
M  V30 3710 H 357.163 0.542328 -4.38761 0
M  V30 3711 N 356.222 1.38976 -0.743202 0
M  V30 3712 C 357.152 2.33171 -0.123873 0
M  V30 3713 C 358.133 1.54336 0.71516 0
M  V30 3714 O 359.318 1.82696 0.658467 0
M  V30 3715 C 356.448 3.38474 0.777978 0
M  V30 3716 C 355.402 4.27979 0.0424758 0
M  V30 3717 C 354.728 5.2405 1.06189 0
M  V30 3718 C 356.028 5.10155 -1.1198 0
M  V30 3719 H 357.722 2.85213 -0.910709 0
M  V30 3720 H 355.268 1.37133 -0.439388 0
M  V30 3721 H 357.221 4.03328 1.22084 0
M  V30 3722 H 355.945 2.84891 1.59702 0
M  V30 3723 H 354.604 3.64616 -0.380853 0
M  V30 3724 H 354.252 4.66758 1.87472 0
M  V30 3725 H 353.952 5.84785 0.574485 0
M  V30 3726 H 355.476 5.9178 1.50428 0
M  V30 3727 H 356.89 5.68307 -0.75499 0
M  V30 3728 H 355.287 5.80073 -1.53738 0
M  V30 3729 H 356.357 4.44504 -1.93764 0
M  V30 3730 N 357.7 0.491464 1.49741 0
M  V30 3731 C 358.925 -0.0557177 2.07325 0
M  V30 3732 C 359.35 -1.30925 1.35056 0
M  V30 3733 O 358.708 -1.76733 0.404365 0
M  V30 3734 C 358.756 -0.302074 3.59333 0
M  V30 3735 O 357.86 -1.37868 3.88672 0
M  V30 3736 H 357.201 0.0219956 0.663636 0
M  V30 3737 H 359.731 0.688352 1.92673 0
M  V30 3738 H 359.741 -0.536464 4.04458 0
M  V30 3739 H 358.416 0.61383 4.11345 0
M  V30 3740 H 356.993 -1.12999 3.55367 0
M  V30 3741 N 359.178 -1.55987 0.224894 0
M  V30 3742 C 360.594 -1.59066 -0.130426 0
M  V30 3743 C 360.794 -1.24176 -1.5869 0
M  V30 3744 O 359.85 -0.978592 -2.32766 0
M  V30 3745 C 361.163 -3.00042 0.198883 0
M  V30 3746 C 362.711 -3.1268 0.141391 0
M  V30 3747 C 363.186 -4.55839 0.444422 0
M  V30 3748 N 364.677 -4.6152 0.394115 0
M  V30 3749 C 365.412 -5.70231 0.602038 0
M  V30 3750 N 364.908 -6.87291 0.871914 0
M  V30 3751 N 366.701 -5.59555 0.534245 0
M  V30 3752 H 358.852 -1.76941 1.17497 0
M  V30 3753 H 361.115 -0.822604 0.471197 0
M  V30 3754 H 360.821 -3.30234 1.2099 0
M  V30 3755 H 360.695 -3.74075 -0.484535 0
M  V30 3756 H 363.082 -2.82283 -0.860265 0
M  V30 3757 H 363.163 -2.40969 0.858335 0
M  V30 3758 H 362.807 -4.86954 1.44353 0
M  V30 3759 H 362.737 -5.2578 -0.293752 0
M  V30 3760 H 365.228 -3.77405 0.193356 0
M  V30 3761 H 365.541 -7.66058 1.01858 0
M  V30 3762 H 363.886 -6.89028 0.909145 0
M  V30 3763 H 367.077 -4.6698 0.323612 0
M  V30 3764 H 367.25 -6.44211 0.699693 0
M  V30 3765 N 360.656 0.0484629 -1.57525 0
M  V30 3766 C 361.566 1.07241 -2.08654 0
M  V30 3767 C 362.582 1.409 -1.02095 0
M  V30 3768 O 363.758 1.50609 -1.33712 0
M  V30 3769 C 360.823 2.36008 -2.5397 0
M  V30 3770 C 359.884 2.09108 -3.7493 0
M  V30 3771 C 359.117 3.31736 -4.18075 0
M  V30 3772 O 359.34 4.41714 -3.60895 0
M  V30 3773 O 358.274 3.18576 -5.10679 0
M  V30 3774 H 362.1 0.667965 -2.96263 0
M  V30 3775 H 359.685 0.26417 -1.47046 0
M  V30 3776 H 361.567 3.11747 -2.83535 0
M  V30 3777 H 360.242 2.75786 -1.69481 0
M  V30 3778 H 359.149 1.31 -3.50414 0
M  V30 3779 H 360.482 1.74198 -4.60343 0
M  V30 3780 N 362.134 1.5431 0.320358 0
M  V30 3781 C 363.359 1.76954 1.08175 0
M  V30 3782 C 363.784 0.518193 1.80821 0
M  V30 3783 O 363.142 -0.530411 1.73368 0
M  V30 3784 C 363.19 2.96451 2.05303 0
M  V30 3785 O 362.294 2.68221 3.13259 0
M  V30 3786 H 361.635 0.586275 0.311733 0
M  V30 3787 H 364.165 2.01342 0.363676 0
M  V30 3788 H 364.175 3.23887 2.48116 0
M  V30 3789 H 362.85 3.87196 1.51829 0
M  V30 3790 H 361.427 2.51744 2.75099 0
M  V30 3791 N 363.613 -0.582584 1.46437 0
M  V30 3792 C 364.543 -1.70187 1.59871 0
M  V30 3793 C 365.524 -1.64066 0.449042 0
M  V30 3794 O 366.709 -1.82081 0.6753 0
M  V30 3795 C 363.839 -3.08827 1.58881 0
M  V30 3796 C 362.793 -3.29779 2.72819 0
M  V30 3797 C 362.119 -4.68947 2.5689 0
M  V30 3798 C 363.419 -3.17601 4.1464 0
M  V30 3799 H 365.113 -1.592 2.53566 0
M  V30 3800 H 362.659 -0.764472 1.22032 0
M  V30 3801 H 364.612 -3.86951 1.66873 0
M  V30 3802 H 363.336 -3.20713 0.617306 0
M  V30 3803 H 361.995 -2.54054 2.64296 0
M  V30 3804 H 361.643 -4.77599 1.57823 0
M  V30 3805 H 361.343 -4.83919 3.33312 0
M  V30 3806 H 362.867 -5.4924 2.66773 0
M  V30 3807 H 364.281 -3.8557 4.24274 0
M  V30 3808 H 362.678 -3.44094 4.9165 0
M  V30 3809 H 363.748 -2.14681 4.34788 0
M  V30 3810 N 365.091 -1.34144 -0.827227 0
M  V30 3811 C 366.321 -1.29138 -1.61267 0
M  V30 3812 C 366.729 0.137597 -1.88699 0
M  V30 3813 O 366.072 1.09379 -1.47587 0
M  V30 3814 C 366.134 -2.0097 -2.9808 0
M  V30 3815 C 365.798 -3.50242 -2.93563 0
M  V30 3816 C 366.795 -4.4523 -2.68452 0
M  V30 3817 C 364.48 -3.92592 -3.13331 0
M  V30 3818 C 366.474 -5.80542 -2.63154 0
M  V30 3819 C 364.161 -5.28005 -3.07658 0
M  V30 3820 C 365.159 -6.21792 -2.82602 0
M  V30 3821 O 364.847 -7.54723 -2.76853 0
M  V30 3822 H 364.579 -0.445851 -0.508127 0
M  V30 3823 H 367.133 -1.77263 -1.03763 0
M  V30 3824 H 365.363 -1.47451 -3.57484 0
M  V30 3825 H 367.052 -1.89309 -3.5905 0
M  V30 3826 H 367.818 -4.13832 -2.52919 0
M  V30 3827 H 363.697 -3.19994 -3.31851 0
M  V30 3828 H 367.241 -6.53717 -2.43516 0
M  V30 3829 H 363.138 -5.59023 -3.22743 0
M  V30 3830 H 363.906 -7.64409 -2.92611 0
M  V30 3831 N 366.569 1.04691 -1.17803 0
M  V30 3832 C 367.499 2.14494 -0.92275 0
M  V30 3833 C 368.48 1.69546 0.137179 0
M  V30 3834 O 369.665 1.94195 -0.0141108 0
M  V30 3835 C 366.795 3.44491 -0.440803 0
M  V30 3836 C 365.749 4.03031 -1.4405 0
M  V30 3837 C 365.075 5.28432 -0.81631 0
M  V30 3838 C 366.375 4.39932 -2.81527 0
M  V30 3839 H 368.069 2.36107 -1.84103 0
M  V30 3840 H 365.615 1.1347 -0.886599 0
M  V30 3841 H 367.568 4.2066 -0.249602 0
M  V30 3842 H 366.292 3.22546 0.513025 0
M  V30 3843 H 364.951 3.28937 -1.61853 0
M  V30 3844 H 364.599 5.02792 0.144511 0
M  V30 3845 H 364.299 5.68559 -1.48371 0
M  V30 3846 H 365.823 6.07284 -0.635496 0
M  V30 3847 H 367.237 5.07113 -2.67412 0
M  V30 3848 H 365.634 4.9109 -3.44892 0
M  V30 3849 H 366.704 3.50045 -3.35554 0
M  V30 3850 N 368.047 0.979072 1.23499 0
M  V30 3851 C 369.01 0.523244 2.23147 0
M  V30 3852 C 370.01 -0.386406 1.56088 0
M  V30 3853 O 371.2 -0.180283 1.73265 0
M  V30 3854 C 368.332 -0.240739 3.40049 0
M  V30 3855 H 369.525 1.40432 2.64989 0
M  V30 3856 H 367.078 0.764824 1.36309 0
M  V30 3857 H 367.813 -1.13841 3.03662 0
M  V30 3858 H 367.598 0.412207 3.89927 0
M  V30 3859 H 369.088 -0.548297 4.13985 0
M  V30 3860 N 369.525 -1.3858 0.750561 0
M  V30 3861 C 370.802 -1.94231 0.231009 0
M  V30 3862 C 371.182 -1.68611 -1.27018 0
M  V30 3863 O 370.53 -1.02296 -2.04323 0
M  V30 3864 C 370.74 -3.44123 0.581428 0
M  V30 3865 C 372.088 -4.2116 0.539389 0
M  V30 3866 O 373.112 -3.52391 0.519541 0
M  V30 3867 O 371.971 -5.43749 0.54765 0
M  V30 3868 H 369.065 -0.825639 0.0474263 0
M  V30 3869 H 371.611 -1.4799 0.830478 0
M  V30 3870 H 370.383 -3.56267 1.61833 0
M  V30 3871 H 370.006 -3.97573 -0.0462047 0
M  V30 3872 N 371.003 -0.499398 -1.49478 0
M  V30 3873 C 371.913 0.284489 -2.32869 0
M  V30 3874 C 372.929 0.968885 -1.44529 0
M  V30 3875 O 374.105 0.95062 -1.77553 0
M  V30 3876 C 371.17 1.33594 -3.19928 0
M  V30 3877 C 370.231 0.665149 -4.24116 0
M  V30 3878 C 369.464 1.6665 -5.07014 0
M  V30 3879 O 369.687 2.89618 -4.91404 0
M  V30 3880 O 368.621 1.22271 -5.8935 0
M  V30 3881 H 372.447 -0.39802 -3.01081 0
M  V30 3882 H 370.032 -0.260758 -1.47107 0
M  V30 3883 H 371.914 1.94431 -3.73864 0
M  V30 3884 H 370.589 2.0014 -2.54412 0
M  V30 3885 H 369.496 0.0170769 -3.74096 0
M  V30 3886 H 370.829 0.0421555 -4.92182 0
M  V30 3887 N 372.481 1.55866 -0.233164 0
M  V30 3888 C 373.727 1.98897 0.395959 0
M  V30 3889 C 374.06 1.12091 1.58585 0
M  V30 3890 O 373.335 0.181182 1.93654 0
M  V30 3891 C 373.618 3.50658 0.819224 0
M  V30 3892 C 373.471 4.48233 -0.375109 0
M  V30 3893 C 374.79 4.07135 1.67121 0
M  V30 3894 H 371.909 0.723102 0.142451 0
M  V30 3895 H 374.551 1.87082 -0.331725 0
M  V30 3896 H 372.701 3.60857 1.43925 0
M  V30 3897 H 374.373 4.50031 -1.01341 0
M  V30 3898 H 372.616 4.21624 -1.02058 0
M  V30 3899 H 373.287 5.51988 -0.0358328 0
M  V30 3900 H 375.763 3.99952 1.14795 0
M  V30 3901 H 374.639 5.13615 1.93625 0
M  V30 3902 H 374.9 3.54736 2.63846 0
M  V30 3903 N 373.959 -0.0401083 1.57549 0
M  V30 3904 C 375.206 -0.733125 1.88763 0
M  V30 3905 C 375.534 -1.75946 0.829058 0
M  V30 3906 O 374.789 -1.94949 -0.171323 0
M  V30 3907 C 375.088 -1.44902 3.26708 0
M  V30 3908 C 374.754 -0.559707 4.47413 0
M  V30 3909 C 373.416 -0.314731 4.8017 0
M  V30 3910 C 375.768 0.0549743 5.21171 0
M  V30 3911 C 373.096 0.553886 5.8408 0
M  V30 3912 C 375.448 0.911229 6.26003 0
M  V30 3913 C 374.112 1.16577 6.57241 0
M  V30 3914 H 373.382 -0.268269 0.690733 0
M  V30 3915 H 376.029 0.00679408 1.91499 0
M  V30 3916 H 374.334 -2.26197 3.1991 0
M  V30 3917 H 376.031 -1.99058 3.48105 0
M  V30 3918 H 372.621 -0.760793 4.21794 0
M  V30 3919 H 376.805 -0.121344 4.96152 0
M  V30 3920 H 372.061 0.759518 6.06664 0
M  V30 3921 H 376.235 1.3941 6.82303 0
M  V30 3922 H 373.862 1.84058 7.37582 0
M  V30 3923 N 375.437 -1.54477 -0.31217 0
M  V30 3924 C 376.37 -1.79519 -1.40884 0
M  V30 3925 C 377.348 -0.645753 -1.49227 0
M  V30 3926 O 378.532 -0.884468 -1.66461 0
M  V30 3927 C 375.659 -1.92194 -2.78889 0
M  V30 3928 C 374.705 -3.14555 -2.88023 0
M  V30 3929 S 375.538 -4.72893 -2.51262 0
M  V30 3930 C 376.694 -4.8849 -3.91317 0
M  V30 3931 H 376.927 -2.72256 -1.19432 0
M  V30 3932 H 374.46 -1.45746 -0.509654 0
M  V30 3933 H 376.418 -2.00182 -3.58382 0
M  V30 3934 H 375.079 -1.00414 -2.97617 0
M  V30 3935 H 374.272 -3.20193 -3.89221 0
M  V30 3936 H 373.874 -3.04955 -2.16514 0
M  V30 3937 H 376.166 -4.71826 -4.86196 0
M  V30 3938 H 377.109 -5.90588 -3.90656 0
M  V30 3939 H 377.517 -4.16715 -3.80801 0
M  V30 3940 N 376.915 0.57481 -1.46744 0
M  V30 3941 C 378.14 1.36341 -1.56288 0
M  V30 3942 C 378.565 1.86954 -0.207347 0
M  V30 3943 O 377.923 1.62006 0.813871 0
M  V30 3944 C 377.971 2.52147 -2.57787 0
M  V30 3945 O 377.075 3.53834 -2.11838 0
M  V30 3946 H 376.416 0.405713 -0.525636 0
M  V30 3947 H 378.946 0.696453 -1.92382 0
M  V30 3948 H 378.956 2.98958 -2.77648 0
M  V30 3949 H 377.631 2.14663 -3.5622 0
M  V30 3950 H 376.208 3.1345 -2.01999 0
M  V30 3951 N 378.394 1.34581 0.820102 0
M  V30 3952 C 379.642 1.26845 1.57336 0
M  V30 3953 C 379.963 -0.160667 1.94337 0
M  V30 3954 O 379.233 -1.09396 1.6251 0
M  V30 3955 H 377.813 0.466514 0.583415 0
M  V30 3956 H 380.475 1.68526 0.979027 0
M  V30 3957 H 379.571 1.87513 2.4949 0
M  V30 3958 N 379.872 -1.04064 1.18357 0
M  V30 3959 C 381.1 -1.80916 1.00384 0
M  V30 3960 C 381.515 -1.83414 -0.447738 0
M  V30 3961 O 380.872 -1.26962 -1.31099 0
M  V30 3962 C 380.923 -3.26516 1.55144 0
M  V30 3963 O 380.644 -3.2424 2.94618 0
M  V30 3964 C 382.145 -4.20013 1.41789 0
M  V30 3965 H 379.365 -0.569728 0.354474 0
M  V30 3966 H 381.909 -1.31151 1.56906 0
M  V30 3967 H 380.064 -3.73512 1.02798 0
M  V30 3968 H 380.478 -4.15452 3.20156 0
M  V30 3969 H 381.952 -5.20111 1.84901 0
M  V30 3970 H 382.429 -4.37667 0.36661 0
M  V30 3971 H 383.035 -3.78881 1.93207 0
M  V30 3972 N 381.35 -0.985608 -1.22978 0
M  V30 3973 C 382.313 -0.535071 -2.22867 0
M  V30 3974 C 383.313 0.378123 -1.56291 0
M  V30 3975 O 384.503 0.171092 -1.73358 0
M  V30 3976 C 381.635 0.222702 -3.40172 0
M  V30 3977 H 382.828 -1.41835 -2.6424 0
M  V30 3978 H 380.381 -0.772042 -1.35901 0
M  V30 3979 H 381.116 1.12229 -3.04262 0
M  V30 3980 H 380.901 -0.43288 -3.89703 0
M  V30 3981 H 382.391 0.526335 -4.1427 0
M  V30 3982 N 382.828 1.3818 -0.7579 0
M  V30 3983 C 383.791 2.28764 -0.141286 0
M  V30 3984 C 384.791 1.47388 0.642907 0
M  V30 3985 O 385.981 1.67781 0.468536 0
M  V30 3986 C 383.113 3.31184 0.808069 0
M  V30 3987 H 384.306 2.848 -0.939633 0
M  V30 3988 H 381.859 1.47212 -0.525191 0
M  V30 3989 H 382.594 2.80247 1.63193 0
M  V30 3990 H 382.379 3.91314 0.248104 0
M  V30 3991 H 383.869 3.98909 1.23536 0
M  V30 3992 N 384.306 0.507319 1.49211 0
M  V30 3993 C 385.216 -0.272136 2.33016 0
M  V30 3994 C 386.232 -0.961206 1.45041 0
M  V30 3995 O 387.408 -0.941191 1.78055 0
M  V30 3996 C 384.473 -1.31895 3.20631 0
M  V30 3997 C 383.534 -0.642648 4.24463 0
M  V30 3998 C 382.767 -1.63959 5.07891 0
M  V30 3999 O 382.99 -2.87007 4.92933 0
M  V30 4000 O 381.924 -1.19143 5.8999 0
M  V30 4001 H 385.75 0.413982 3.00865 0
M  V30 4002 H 383.335 0.268556 1.46966 0
M  V30 4003 H 385.217 -1.92446 3.7489 0
M  V30 4004 H 383.892 -1.98788 2.5547 0
M  V30 4005 H 382.799 0.00276252 3.741 0
M  V30 4006 H 384.132 -0.0160534 4.92197 0
M  V30 4007 N 385.784 -1.5574 0.241426 0
M  V30 4008 C 387.033 -1.97986 -0.385295 0
M  V30 4009 C 387.346 -1.13267 -1.59468 0
M  V30 4010 O 388.552 -1.45501 -2.2922 0
M  V30 4011 C 387.008 -3.52275 -0.736884 0
M  V30 4012 C 386.616 -4.45726 0.450796 0
M  V30 4013 C 388.36 -4.03189 -1.3281 0
M  V30 4014 C 386.267 -5.91352 0.0756662 0
M  V30 4015 H 385.197 -0.739386 -0.147731 0
M  V30 4016 H 387.848 -1.80308 0.340779 0
M  V30 4017 H 386.23 -3.65628 -1.52094 0
M  V30 4018 H 387.404 -4.44131 1.22819 0
M  V30 4019 H 385.719 -4.05264 0.956573 0
M  V30 4020 H 388.316 -5.09505 -1.62201 0
M  V30 4021 H 388.659 -3.50212 -2.25071 0
M  V30 4022 H 389.192 -3.93141 -0.607069 0
M  V30 4023 H 385.931 -6.48354 0.965272 0
M  V30 4024 H 385.451 -5.96095 -0.665635 0
M  V30 4025 H 387.13 -6.46084 -0.344075 0
M  V30 4026 N 387.262 0.0317525 -1.57568 0
M  V30 4027 C 388.49 0.734949 -1.93407 0
M  V30 4028 C 388.905 1.69036 -0.84096 0
M  V30 4029 O 388.262 1.81582 0.182836 0
M  V30 4030 C 388.313 1.49432 -3.29169 0
M  V30 4031 O 388.034 0.577261 -4.3428 0
M  V30 4032 C 389.535 2.29492 -3.79273 0
M  V30 4033 H 386.755 0.206706 -0.638368 0
M  V30 4034 H 389.299 -0.00992046 -2.04498 0
M  V30 4035 H 387.454 2.1911 -3.19483 0
M  V30 4036 H 387.868 1.10952 -5.1263 0
M  V30 4037 H 389.342 2.78172 -4.76785 0
M  V30 4038 H 389.819 3.10794 -3.10328 0
M  V30 4039 H 390.425 1.64894 -3.92033 0
M  V30 4040 N 388.74 1.54641 0.303973 0
M  V30 4041 C 390.151 1.64811 0.877163 0
M  V30 4042 C 390.502 0.554838 1.88191 0
M  V30 4043 O 389.627 -0.309033 2.14182 0
M  V30 4044 C 390.222 2.9876 1.59775 0
M  V30 4045 C 388.781 3.11061 2.11938 0
M  V30 4046 C 387.928 2.60479 0.951097 0
M  V30 4047 H 390.879 1.58493 0.0810486 0
M  V30 4048 H 390.9 2.90017 2.46314 0
M  V30 4049 H 390.412 3.7831 0.866226 0
M  V30 4050 H 388.513 2.36225 2.88146 0
M  V30 4051 H 388.626 4.17171 2.35595 0
M  V30 4052 H 386.99 2.16859 1.33583 0
M  V30 4053 H 387.773 3.42504 0.233581 0
M  V30 4054 N 390.218 -0.567019 1.47046 0
M  V30 4055 C 391.464 -1.32658 1.53394 0
M  V30 4056 C 391.797 -1.93254 0.19148 0
M  V30 4057 O 391.072 -1.77338 -0.798844 0
M  V30 4058 C 391.355 -2.44412 2.64452 0
M  V30 4059 C 391.208 -1.88749 4.08282 0
M  V30 4060 C 392.527 -3.46387 2.71485 0
M  V30 4061 H 389.646 -0.48098 0.558415 0
M  V30 4062 H 392.288 -0.635481 1.79058 0
M  V30 4063 H 390.438 -3.03363 2.427 0
M  V30 4064 H 392.11 -1.34134 4.41368 0
M  V30 4065 H 390.353 -1.19481 4.17021 0
M  V30 4066 H 391.024 -2.69491 4.81745 0
M  V30 4067 H 393.5 -2.9734 2.91081 0
M  V30 4068 H 392.376 -4.2202 3.50985 0
M  V30 4069 H 392.637 -4.04616 1.78153 0
M  V30 4070 N 391.696 -1.35014 -0.812953 0
M  V30 4071 C 393.112 -1.14914 -1.10757 0
M  V30 4072 C 393.312 0.0426818 -2.01455 0
M  V30 4073 O 392.368 0.715212 -2.42159 0
M  V30 4074 C 393.681 -2.44911 -1.74468 0
M  V30 4075 C 395.229 -2.5106 -1.86917 0
M  V30 4076 C 395.704 -3.81085 -2.54044 0
M  V30 4077 N 397.195 -3.82301 -2.61535 0
M  V30 4078 C 397.93 -4.79634 -3.14227 0
M  V30 4079 N 397.426 -5.87353 -3.67407 0
M  V30 4080 N 399.219 -4.67078 -3.12721 0
M  V30 4081 H 391.37 -2.1136 -0.20989 0
M  V30 4082 H 393.633 -0.935128 -0.155692 0
M  V30 4083 H 393.339 -3.32267 -1.15289 0
M  V30 4084 H 393.213 -2.58989 -2.74234 0
M  V30 4085 H 395.6 -1.64137 -2.45241 0
M  V30 4086 H 395.681 -2.40901 -0.860242 0
M  V30 4087 H 395.325 -4.68402 -1.96372 0
M  V30 4088 H 395.255 -3.88529 -3.55461 0
M  V30 4089 H 397.746 -3.04465 -2.23851 0
M  V30 4090 H 398.059 -6.57624 -4.05894 0
M  V30 4091 H 396.404 -5.91054 -3.65623 0
M  V30 4092 H 399.595 -3.82067 -2.70449 0
M  V30 4093 H 399.768 -5.43098 -3.53481 0
M  V30 4094 N 393.175 1.03435 -1.18907 0
M  V30 4095 C 394.4 1.80919 -1.01406 0
M  V30 4096 C 394.825 1.83055 0.432721 0
M  V30 4097 O 394.183 1.25252 1.31079 0
M  V30 4098 C 394.231 3.24091 -1.58105 0
M  V30 4099 O 393.335 4.04434 -0.806669 0
M  V30 4100 H 392.676 0.558709 -0.358803 0
M  V30 4101 H 395.206 1.30223 -1.57807 0
M  V30 4102 H 395.216 3.74853 -1.61087 0
M  V30 4103 H 393.891 3.21851 -2.6341 0
M  V30 4104 H 392.468 3.63091 -0.849666 0
M  V30 4105 N 394.653 0.992116 1.22453 0
M  V30 4106 C 395.899 0.668523 1.91464 0
M  V30 4107 C 396.232 -0.797313 1.77078 0
M  V30 4108 O 395.507 -1.5765 1.13916 0
M  V30 4109 C 395.79 1.07424 3.43703 0
M  V30 4110 C 395.643 2.59857 3.67143 0
M  V30 4111 C 396.962 0.626891 4.35612 0
M  V30 4112 H 394.081 0.244341 0.695318 0
M  V30 4113 H 396.723 1.2355 1.44345 0
M  V30 4114 H 394.873 0.591816 3.83966 0
M  V30 4115 H 396.545 3.15764 3.3629 0
M  V30 4116 H 394.788 3.01961 3.11451 0
M  V30 4117 H 395.459 2.83296 4.73759 0
M  V30 4118 H 397.935 1.04125 4.02861 0
M  V30 4119 H 396.811 0.939076 5.40807 0
M  V30 4120 H 397.072 -0.472457 4.39568 0
M  V30 4121 N 396.131 -1.37776 0.765217 0
M  V30 4122 C 397.408 -1.93975 0.251596 0
M  V30 4123 C 397.788 -1.69949 -1.25222 0
M  V30 4124 O 397.136 -1.04457 -2.03226 0
M  V30 4125 C 397.346 -3.43487 0.617895 0
M  V30 4126 C 398.694 -4.20564 0.584029 0
M  V30 4127 O 399.718 -3.5182 0.556888 0
M  V30 4128 O 398.577 -5.43138 0.605291 0
M  V30 4129 H 395.671 -0.82509 0.0561806 0
M  V30 4130 H 398.217 -1.47101 0.846128 0
M  V30 4131 H 396.989 -3.5453 1.65602 0
M  V30 4132 H 396.612 -3.976 -0.00403411 0
M  V30 4133 N 397.609 -0.515225 -1.4894 0
M  V30 4134 C 398.857 0.0241671 -2.02086 0
M  V30 4135 C 399.178 1.3616 -1.3959 0
M  V30 4136 O 398.448 1.87841 -0.556121 0
M  V30 4137 H 397.028 0.0119203 -0.746905 0
M  V30 4138 H 399.69 -0.675702 -1.82812 0
M  V30 4139 H 398.786 0.143385 -3.1177 0
M  V30 4140 N 399.087 1.5561 -0.249682 0
M  V30 4141 C 400.336 1.98187 0.37479 0
M  V30 4142 C 400.649 1.14111 1.58865 0
M  V30 4143 O 401.855 1.46714 2.28445 0
M  V30 4144 C 400.311 3.52661 0.718192 0
M  V30 4145 C 399.919 4.45481 -0.474428 0
M  V30 4146 C 401.663 4.03888 1.3067 0
M  V30 4147 C 399.57 5.91303 -0.107026 0
M  V30 4148 H 398.5 0.740159 0.143808 0
M  V30 4149 H 401.151 1.80125 -0.350336 0
M  V30 4150 H 399.533 3.66429 1.50152 0
M  V30 4151 H 400.707 4.43473 -1.25172 0
M  V30 4152 H 399.022 4.04751 -0.978052 0
M  V30 4153 H 401.619 5.10358 1.59496 0
M  V30 4154 H 401.962 3.51401 2.23211 0
M  V30 4155 H 402.495 3.93457 0.586211 0
M  V30 4156 H 399.234 6.47833 -0.999642 0
M  V30 4157 H 398.754 5.9644 0.634013 0
M  V30 4158 H 400.433 6.46258 0.309807 0
M  V30 4159 N 400.565 -0.0233959 1.57583 0
M  V30 4160 C 401.497 -1.04994 2.03737 0
M  V30 4161 C 402.51 -1.32125 0.951152 0
M  V30 4162 O 403.699 -1.29512 1.22837 0
M  V30 4163 C 400.799 -2.39026 2.40249 0
M  V30 4164 C 399.972 -2.31171 3.7132 0
M  V30 4165 C 399.031 -3.47698 3.94959 0
M  V30 4166 O 398.057 -3.26937 4.65941 0
M  V30 4167 N 399.259 -4.6976 3.41037 0
M  V30 4168 H 402.024 -0.656507 2.92421 0
M  V30 4169 H 399.585 -0.211235 1.60516 0
M  V30 4170 H 401.577 -3.15712 2.53196 0
M  V30 4171 H 400.147 -2.70194 1.57207 0
M  V30 4172 H 399.367 -1.39547 3.68674 0
M  V30 4173 H 400.655 -2.23071 4.57293 0
M  V30 4174 H 400.053 -4.89528 2.83512 0
M  V30 4175 H 398.61 -5.43791 3.59353 0
M  V30 4176 N 402.043 -1.548 -0.295768 0
M  V30 4177 C 403.289 -1.74588 -1.03184 0
M  V30 4178 C 403.622 -0.532962 -1.86744 0
M  V30 4179 O 402.897 0.469872 -1.88739 0
M  V30 4180 C 403.18 -3.03791 -1.93347 0
M  V30 4181 C 403.033 -4.35392 -1.12933 0
M  V30 4182 C 404.352 -3.28892 -2.92435 0
M  V30 4183 H 401.471 -0.635221 -0.373715 0
M  V30 4184 H 404.113 -1.87519 -0.30606 0
M  V30 4185 H 402.263 -2.92898 -2.55232 0
M  V30 4186 H 403.935 -4.58211 -0.532943 0
M  V30 4187 H 402.178 -4.31642 -0.432168 0
M  V30 4188 H 402.849 -5.22074 -1.79284 0
M  V30 4189 H 405.325 -3.39429 -2.4068 0
M  V30 4190 H 404.201 -4.20603 -3.52682 0
M  V30 4191 H 404.462 -2.47437 -3.6637 0
M  V30 4192 N 403.521 0.559213 -1.47345 0
M  V30 4193 C 404.769 1.31388 -1.53563 0
M  V30 4194 C 405.09 1.93985 -0.198678 0
M  V30 4195 O 404.36 1.79825 0.777167 0
M  V30 4196 H 402.94 0.487901 -0.565652 0
M  V30 4197 H 405.602 0.65315 -1.8363 0
M  V30 4198 H 404.698 2.10844 -2.30111 0
M  V30 4199 N 404.999 1.35443 0.805782 0
M  V30 4200 C 405.909 1.30546 1.94923 0
M  V30 4201 C 406.925 0.210233 1.72725 0
M  V30 4202 O 408.101 0.43975 1.9654 0
M  V30 4203 C 405.166 1.07782 3.29521 0
M  V30 4204 C 404.227 2.26625 3.64609 0
M  V30 4205 C 403.46 2.04938 4.92784 0
M  V30 4206 O 403.683 1.01624 5.61274 0
M  V30 4207 O 402.617 2.9232 5.26149 0
M  V30 4208 H 406.443 2.26779 2.02002 0
M  V30 4209 H 404.028 1.15823 0.943682 0
M  V30 4210 H 405.91 0.969392 4.10098 0
M  V30 4211 H 404.585 0.146003 3.23371 0
M  V30 4212 H 403.492 2.43033 2.84404 0
M  V30 4213 H 404.825 3.18257 3.75464 0
M  V30 4214 N 406.477 -1.02803 1.19454 0
M  V30 4215 C 407.725 -1.75869 0.995722 0
M  V30 4216 C 408.046 -1.89138 -0.474543 0
M  V30 4217 O 407.316 -1.42558 -1.34366 0
M  V30 4218 H 405.896 -0.651511 0.365435 0
M  V30 4219 H 408.558 -1.24004 1.50363 0
M  V30 4220 H 407.654 -2.76661 1.44447 0
M  V30 4221 N 407.956 -0.998596 -1.21925 0
M  V30 4222 C 409.372 -0.710303 -1.42923 0
M  V30 4223 C 409.572 0.716933 -1.88314 0
M  V30 4224 O 408.628 1.48712 -2.04062 0
M  V30 4225 C 409.941 -1.72072 -2.466 0
M  V30 4226 C 411.489 -1.73681 -2.60392 0
M  V30 4227 C 411.964 -2.73601 -3.67296 0
M  V30 4228 N 413.455 -2.7223 -3.7476 0
M  V30 4229 C 414.19 -3.46206 -4.57087 0
M  V30 4230 N 413.686 -4.29802 -5.43362 0
M  V30 4231 N 415.479 -3.34886 -4.51451 0
M  V30 4232 H 407.63 -1.92028 -0.9077 0
M  V30 4233 H 409.893 -0.828487 -0.460775 0
M  V30 4234 H 409.599 -2.74231 -2.20206 0
M  V30 4235 H 409.473 -1.51818 -3.45299 0
M  V30 4236 H 411.86 -0.722173 -2.86127 0
M  V30 4237 H 411.941 -1.98005 -1.61949 0
M  V30 4238 H 411.585 -3.75217 -3.42307 0
M  V30 4239 H 411.515 -2.46545 -4.65321 0
M  V30 4240 H 414.006 -2.11576 -3.1312 0
M  V30 4241 H 414.319 -4.83061 -6.03218 0
M  V30 4242 H 412.664 -4.33887 -5.42925 0
M  V30 4243 H 415.855 -2.69015 -3.83078 0
M  V30 4244 H 416.028 -3.92796 -5.15379 0
M  V30 4245 N 409.434 1.37368 -0.772513 0
M  V30 4246 C 410.674 2.01512 -0.342361 0
M  V30 4247 C 411.038 1.59997 1.06136 0
M  V30 4248 O 412.239 2.16609 1.59167 0
M  V30 4249 C 410.51 3.54134 -0.482048 0
M  V30 4250 S 412.069 4.38585 -0.137272 0
M  V30 4251 H 408.887 0.698699 -0.131686 0
M  V30 4252 H 411.489 1.67552 -1.0073 0
M  V30 4253 H 410.193 3.81837 -1.50428 0
M  V30 4254 H 409.724 3.92894 0.199413 0
M  V30 4255 H 411.739 4.84594 1.06692 0
M  V30 4256 N 410.912 0.523116 1.48665 0
M  V30 4257 C 412.16 -0.0134497 2.02096 0
M  V30 4258 C 412.481 -1.35418 1.40311 0
M  V30 4259 O 411.751 -1.87543 0.566074 0
M  V30 4260 H 410.331 -0.00795915 0.746958 0
M  V30 4261 H 412.993 0.685388 1.82451 0
M  V30 4262 H 412.089 -0.126849 3.11842 0
M  V30 4263 N 412.39 -1.55475 0.257931 0
M  V30 4264 C 413.801 -1.8511 -0.243135 0
M  V30 4265 C 414.152 -1.17986 -1.5676 0
M  V30 4266 O 413.277 -0.462102 -2.11409 0
M  V30 4267 C 413.872 -3.35826 -0.447929 0
M  V30 4268 C 412.431 -3.65647 -0.893245 0
M  V30 4269 C 411.578 -2.7729 0.0232965 0
M  V30 4270 H 414.529 -1.51261 0.480199 0
M  V30 4271 H 414.55 -3.58002 -1.28898 0
M  V30 4272 H 414.062 -3.84652 0.516196 0
M  V30 4273 H 412.163 -3.22308 -1.86945 0
M  V30 4274 H 412.276 -4.73312 -0.742469 0
M  V30 4275 H 410.64 -2.49942 -0.490021 0
M  V30 4276 H 411.423 -3.28926 0.982994 0
M  V30 4277 N 413.868 0.0150385 -1.57593 0
M  V30 4278 C 415.114 0.704043 -1.90187 0
M  V30 4279 C 415.447 1.74249 -0.857366 0
M  V30 4280 O 414.722 1.94092 0.125843 0
M  V30 4281 C 415.005 1.36087 -3.33395 0
M  V30 4282 C 414.858 0.334981 -4.48551 0
M  V30 4283 C 416.177 2.29112 -3.7576 0
M  V30 4284 H 413.296 0.254475 -0.691673 0
M  V30 4285 H 415.938 -0.0331678 -1.89971 0
M  V30 4286 H 414.088 1.98922 -3.3371 0
M  V30 4287 H 415.76 -0.292534 -4.60372 0
M  V30 4288 H 414.003 -0.344325 -4.32431 0
M  V30 4289 H 414.674 0.833316 -5.45674 0
M  V30 4290 H 417.15 1.76308 -3.76902 0
M  V30 4291 H 416.026 2.72043 -4.76743 0
M  V30 4292 H 416.287 3.16385 -3.08793 0
M  V30 4293 N 415.346 1.54954 0.287554 0
M  V30 4294 C 416.574 1.78881 1.03967 0
M  V30 4295 C 416.989 0.554894 1.80462 0
M  V30 4296 O 416.346 -0.475676 1.76192 0
M  V30 4297 C 416.397 3.00488 2.0097 0
M  V30 4298 O 416.118 4.19113 1.27577 0
M  V30 4299 C 417.619 3.36907 2.88112 0
M  V30 4300 H 414.839 0.596259 0.307761 0
M  V30 4301 H 417.383 2.01937 0.322749 0
M  V30 4302 H 415.538 2.79601 2.68145 0
M  V30 4303 H 415.952 4.87765 1.92835 0
M  V30 4304 H 417.426 4.25205 3.52001 0
M  V30 4305 H 417.903 2.55659 3.57121 0
M  V30 4306 H 418.509 3.60001 2.26449 0
M  V30 4307 N 416.824 -0.551391 1.4764 0
M  V30 4308 C 417.771 -1.65796 1.60563 0
M  V30 4309 C 418.741 -1.59932 0.448428 0
M  V30 4310 O 419.926 -1.78679 0.669222 0
M  V30 4311 C 417.066 -3.04108 1.63133 0
M  V30 4312 C 416.179 -3.20365 2.89811 0
M  V30 4313 C 415.314 -4.49109 2.8368 0
M  V30 4314 C 414.353 -4.58819 4.05156 0
M  V30 4315 N 413.49 -5.78926 3.97227 0
M  V30 4316 H 418.33 -1.54088 2.5507 0
M  V30 4317 H 415.867 -0.75052 1.26513 0
M  V30 4318 H 417.825 -3.84207 1.62606 0
M  V30 4319 H 416.455 -3.14637 0.721341 0
M  V30 4320 H 415.507 -2.33659 3.00179 0
M  V30 4321 H 416.819 -3.23402 3.79753 0
M  V30 4322 H 415.973 -5.37475 2.81434 0
M  V30 4323 H 414.712 -4.4856 1.91431 0
M  V30 4324 H 413.717 -3.68864 4.077 0
M  V30 4325 H 414.942 -4.61124 4.98539 0
M  V30 4326 H 412.888 -5.79314 3.07785 0
M  V30 4327 H 412.805 -5.83367 4.80853 0
M  V30 4328 H 414.073 -6.69637 3.99007 0
M  V30 4329 N 418.302 -1.35869 -0.798587 0
M  V30 4330 C 419.718 -1.16082 -1.09532 0
M  V30 4331 C 419.918 0.0213124 -2.01489 0
M  V30 4332 O 418.974 0.689488 -2.42904 0
M  V30 4333 C 420.287 -2.46748 -1.7186 0
M  V30 4334 C 421.835 -2.53028 -1.84244 0
M  V30 4335 C 422.31 -3.83758 -2.49988 0
M  V30 4336 N 423.801 -3.85053 -2.57465 0
M  V30 4337 C 424.536 -4.8294 -3.09122 0
M  V30 4338 N 424.032 -5.91217 -3.61157 0
M  V30 4339 N 425.825 -4.70369 -3.0775 0
M  V30 4340 H 417.976 -2.11571 -0.187461 0
M  V30 4341 H 420.239 -0.936726 -0.145765 0
M  V30 4342 H 419.945 -3.33471 -1.11759 0
M  V30 4343 H 419.819 -2.61883 -2.71472 0
M  V30 4344 H 422.206 -1.66729 -2.43486 0
M  V30 4345 H 422.287 -2.418 -0.834643 0
M  V30 4346 H 421.931 -4.70459 -1.91393 0
M  V30 4347 H 421.861 -3.92278 -3.5132 0
M  V30 4348 H 424.352 -3.06822 -2.20609 0
M  V30 4349 H 424.665 -6.61892 -3.98896 0
M  V30 4350 H 423.01 -5.94899 -3.59333 0
M  V30 4351 H 426.201 -3.84914 -2.66381 0
M  V30 4352 H 426.374 -5.46816 -3.47701 0
M  V30 4353 N 419.78 1.02168 -1.19998 0
M  V30 4354 C 421.029 1.75091 -1.0013 0
M  V30 4355 C 421.342 1.89923 0.467835 0
M  V30 4356 O 422.548 2.59888 0.785515 0
M  V30 4357 C 421.004 3.14892 -1.74273 0
M  V30 4358 C 420.612 3.0809 -3.25245 0
M  V30 4359 C 422.356 3.9206 -1.62755 0
M  V30 4360 C 420.263 4.42867 -3.91948 0
M  V30 4361 H 419.193 0.656394 -0.37103 0
M  V30 4362 H 421.844 1.14284 -1.43567 0
M  V30 4363 H 420.226 3.7621 -1.2362 0
M  V30 4364 H 421.4 2.5611 -3.83072 0
M  V30 4365 H 419.715 2.44416 -3.3712 0
M  V30 4366 H 422.312 4.91764 -2.09934 0
M  V30 4367 H 422.655 4.12199 -0.582894 0
M  V30 4368 H 423.188 3.37359 -2.10793 0
M  V30 4369 H 419.927 4.27931 -4.96543 0
M  V30 4370 H 419.447 4.94874 -3.3891 0
M  V30 4371 H 421.126 5.11728 -3.95909 0
M  V30 4372 N 421.258 1.00505 1.21394 0
M  V30 4373 C 422.19 0.52372 2.23136 0
M  V30 4374 C 423.203 -0.387714 1.58116 0
M  V30 4375 O 424.392 -0.187905 1.77508 0
M  V30 4376 C 421.492 -0.258885 3.3791 0
M  V30 4377 C 420.665 0.651634 4.32519 0
M  V30 4378 C 419.724 -0.0813705 5.26137 0
M  V30 4379 O 418.75 0.537295 5.66658 0
M  V30 4380 N 419.952 -1.35992 5.64346 0
M  V30 4381 H 422.717 1.39865 2.65062 0
M  V30 4382 H 420.278 0.881196 1.35818 0
M  V30 4383 H 422.27 -0.758208 3.97534 0
M  V30 4384 H 420.84 -1.035 2.94968 0
M  V30 4385 H 420.06 1.33145 3.71034 0
M  V30 4386 H 421.348 1.27129 4.92662 0
M  V30 4387 H 420.746 -1.88368 5.33417 0
M  V30 4388 H 419.303 -1.8042 6.26332 0
M  V30 4389 N 422.737 -1.36956 0.779787 0
M  V30 4390 C 423.669 -2.28833 0.129639 0
M  V30 4391 C 424.682 -1.4902 -0.655511 0
M  V30 4392 O 425.871 -1.71578 -0.492279 0
M  V30 4393 C 422.971 -3.2833 -0.839792 0
M  V30 4394 C 422.144 -4.3727 -0.10675 0
M  V30 4395 C 421.203 -5.16789 -0.990717 0
M  V30 4396 O 420.229 -5.67406 -0.451516 0
M  V30 4397 N 421.431 -5.32294 -2.3161 0
M  V30 4398 H 424.196 -2.85268 0.918803 0
M  V30 4399 H 421.757 -1.49019 0.632841 0
M  V30 4400 H 423.749 -3.78413 -1.43477 0
M  V30 4401 H 422.319 -2.72605 -1.52988 0
M  V30 4402 H 421.539 -3.88478 0.669216 0
M  V30 4403 H 422.827 -5.07229 0.399464 0
M  V30 4404 H 422.225 -4.92768 -2.77843 0
M  V30 4405 H 420.782 -5.85656 -2.86095 0
M  V30 4406 N 424.215 -0.530993 -1.48385 0
M  V30 4407 C 425.178 0.220497 -2.28137 0
M  V30 4408 C 426.178 0.866851 -1.35434 0
M  V30 4409 O 427.368 0.726746 -1.58316 0
M  V30 4410 C 424.5 1.31921 -3.1434 0
M  V30 4411 H 425.693 -0.479714 -2.96038 0
M  V30 4412 H 423.246 -0.286968 -1.53643 0
M  V30 4413 H 423.981 2.05264 -2.51072 0
M  V30 4414 H 423.766 0.86085 -3.82533 0
M  V30 4415 H 425.256 1.84776 -3.74497 0
M  V30 4416 N 425.693 1.55336 -0.266172 0
M  V30 4417 C 426.94 1.99397 0.353158 0
M  V30 4418 C 427.268 1.15451 1.56529 0
M  V30 4419 O 426.523 0.209974 1.9457 0
M  V30 4420 C 426.822 3.48606 0.787957 0
M  V30 4421 C 426.488 4.49773 -0.318541 0
M  V30 4422 C 425.15 4.77158 -0.62239 0
M  V30 4423 C 427.502 5.10212 -1.06459 0
M  V30 4424 C 424.83 5.62251 -1.67602 0
M  V30 4425 C 427.182 5.96449 -2.10788 0
M  V30 4426 C 425.846 6.22158 -2.41817 0
M  V30 4427 H 425.116 0.729644 0.12923 0
M  V30 4428 H 427.763 1.87732 -0.37802 0
M  V30 4429 H 426.068 3.57701 1.59866 0
M  V30 4430 H 427.765 3.80098 1.27775 0
M  V30 4431 H 424.355 4.2854 -0.0715925 0
M  V30 4432 H 428.539 4.89086 -0.843098 0
M  V30 4433 H 423.795 5.80419 -1.92155 0
M  V30 4434 H 427.969 6.42317 -2.69076 0
M  V30 4435 H 425.596 6.87888 -3.23596 0
M  V30 4436 N 427.171 -0.0066808 1.57599 0
M  V30 4437 C 428.418 -0.69292 1.90276 0
M  V30 4438 C 428.746 -1.74148 0.866192 0
M  V30 4439 O 428.001 -1.95268 -0.129933 0
M  V30 4440 C 428.3 -1.37939 3.29708 0
M  V30 4441 C 427.966 -0.464679 4.48499 0
M  V30 4442 C 426.628 -0.212809 4.80729 0
M  V30 4443 C 428.98 0.16551 5.20937 0
M  V30 4444 C 426.308 0.677653 5.82773 0
M  V30 4445 C 428.66 1.04381 6.23929 0
M  V30 4446 C 427.324 1.30492 6.54621 0
M  V30 4447 H 426.594 -0.253558 0.696268 0
M  V30 4448 H 429.241 0.0474123 1.91441 0
M  V30 4449 H 427.546 -2.1936 3.24636 0
M  V30 4450 H 429.243 -1.9163 3.52249 0
M  V30 4451 H 425.833 -0.671153 4.23313 0
M  V30 4452 H 430.017 -0.0160756 4.96297 0
M  V30 4453 H 425.273 0.88803 6.04917 0
M  V30 4454 H 429.447 1.53851 6.79193 0
M  V30 4455 H 427.074 1.99662 7.33512 0
M  V30 4456 N 428.649 -1.55105 -0.279332 0
M  V30 4457 C 429.897 -1.75066 -1.00977 0
M  V30 4458 C 430.218 -0.551276 -1.87045 0
M  V30 4459 O 429.488 0.433984 -1.91032 0
M  V30 4460 H 428.068 -0.645578 -0.375816 0
M  V30 4461 H 430.73 -1.92497 -0.305089 0
M  V30 4462 H 429.826 -2.64894 -1.65038 0
M  V30 4463 N 430.127 0.543554 -1.4793 0
M  V30 4464 C 431.057 1.65888 -1.64327 0
M  V30 4465 C 432.038 1.62818 -0.492383 0
M  V30 4466 O 433.223 1.80226 -0.723338 0
M  V30 4467 C 430.353 3.04506 -1.67013 0
M  V30 4468 C 429.307 3.2243 -2.81466 0
M  V30 4469 C 428.633 4.61972 -2.69233 0
M  V30 4470 C 429.933 3.06496 -4.22915 0
M  V30 4471 H 431.627 1.52421 -2.57698 0
M  V30 4472 H 429.173 0.731849 -1.24016 0
M  V30 4473 H 431.126 3.82391 -1.77074 0
M  V30 4474 H 429.85 3.18964 -0.70212 0
M  V30 4475 H 428.509 2.46957 -2.70938 0
M  V30 4476 H 428.157 4.73247 -1.7043 0
M  V30 4477 H 427.857 4.74911 -3.46025 0
M  V30 4478 H 429.381 5.41974 -2.81242 0
M  V30 4479 H 430.795 3.74186 -4.34348 0
M  V30 4480 H 429.192 3.30938 -5.006 0
M  V30 4481 H 430.262 2.03077 -4.40327 0
M  V30 4482 N 431.605 1.3629 0.791371 0
M  V30 4483 C 432.852 1.30412 1.54916 0
M  V30 4484 C 433.18 -0.117162 1.94147 0
M  V30 4485 O 432.435 -1.08599 1.62803 0
M  V30 4486 C 432.734 2.17068 2.8393 0
M  V30 4487 C 432.4 3.65645 2.63846 0
M  V30 4488 C 431.062 4.0614 2.58077 0
M  V30 4489 C 433.414 4.59855 2.45322 0
M  V30 4490 C 430.742 5.3899 2.31748 0
M  V30 4491 C 433.094 5.9292 2.2052 0
M  V30 4492 C 431.758 6.32542 2.13183 0
M  V30 4493 H 431.028 0.47721 0.566879 0
M  V30 4494 H 433.675 1.68325 0.913172 0
M  V30 4495 H 431.98 1.72085 3.51986 0
M  V30 4496 H 433.677 2.09846 3.4171 0
M  V30 4497 H 430.267 3.33518 2.69191 0
M  V30 4498 H 434.451 4.29443 2.48782 0
M  V30 4499 H 429.707 5.68672 2.24548 0
M  V30 4500 H 433.881 6.65487 2.05182 0
M  V30 4501 H 431.508 7.35412 1.92544 0
M  V30 4502 N 433.083 -1.0153 1.20538 0
M  V30 4503 C 434.311 -1.78746 1.04199 0
M  V30 4504 C 434.726 -1.84323 -0.408733 0
M  V30 4505 O 434.083 -1.29714 -1.28377 0
M  V30 4506 C 434.134 -3.23152 1.62035 0
M  V30 4507 O 433.855 -3.17918 3.0143 0
M  V30 4508 C 435.356 -4.16911 1.50666 0
M  V30 4509 H 432.576 -0.56208 0.366479 0
M  V30 4510 H 435.12 -1.27794 1.59653 0
M  V30 4511 H 433.275 -3.71248 1.10697 0
M  V30 4512 H 433.689 -4.08567 3.28897 0
M  V30 4513 H 435.163 -5.16072 1.95892 0
M  V30 4514 H 435.64 -4.36791 0.459363 0
M  V30 4515 H 436.246 -3.74698 2.01201 0
M  V30 4516 N 434.561 -1.01147 -1.20859 0
M  V30 4517 C 435.809 -0.696486 -1.89719 0
M  V30 4518 C 436.13 0.775788 -1.78904 0
M  V30 4519 O 435.4 1.55759 -1.18811 0
M  V30 4520 H 433.98 -0.254628 -0.702263 0
M  V30 4521 H 436.642 -1.28197 -1.46804 0
M  V30 4522 H 435.738 -0.975357 -2.96468 0
M  V30 4523 N 436.039 1.36541 -0.78704 0
M  V30 4524 C 436.949 2.3387 -0.184896 0
M  V30 4525 C 437.965 1.60927 0.661697 0
M  V30 4526 O 439.141 1.92927 0.57804 0
M  V30 4527 C 436.206 3.40122 0.672145 0
M  V30 4528 C 435.267 4.28867 -0.19267 0
M  V30 4529 C 434.5 5.30045 0.623561 0
M  V30 4530 O 434.723 5.39232 1.8597 0
M  V30 4531 O 433.657 6.01895 0.0247068 0
M  V30 4532 H 437.483 2.87126 -0.989562 0
M  V30 4533 H 435.068 1.38969 -0.548455 0
M  V30 4534 H 436.95 4.05093 1.16094 0
M  V30 4535 H 435.625 2.89169 1.45474 0
M  V30 4536 H 434.532 3.66945 -0.728166 0
M  V30 4537 H 435.865 4.83165 -0.938722 0
M  V30 4538 N 437.518 0.538854 1.48102 0
M  V30 4539 C 438.746 0.0123136 2.06896 0
M  V30 4540 C 439.161 -1.27312 1.39417 0
M  V30 4541 O 438.518 -1.75949 0.484582 0
M  V30 4542 C 438.569 -0.206118 3.60912 0
M  V30 4543 O 438.29 1.0284 4.25859 0
M  V30 4544 C 439.791 -0.772033 4.36526 0
M  V30 4545 H 437.011 0.0375239 0.66995 0
M  V30 4546 H 439.555 0.747032 1.90367 0
M  V30 4547 H 437.71 -0.89091 3.77017 0
M  V30 4548 H 438.124 0.814654 5.18135 0
M  V30 4549 H 439.598 -0.874251 5.45033 0
M  V30 4550 H 440.075 -1.77904 4.01555 0
M  V30 4551 H 440.681 -0.123526 4.25121 0
M  V30 4552 N 438.996 -1.55193 0.274407 0
M  V30 4553 C 439.906 -2.26164 -0.623473 0
M  V30 4554 C 440.922 -1.28729 -1.17068 0
M  V30 4555 O 442.098 -1.61663 -1.20112 0
M  V30 4556 C 439.163 -2.96833 -1.7914 0
M  V30 4557 C 438.224 -4.09745 -1.28093 0
M  V30 4558 C 437.457 -4.77034 -2.3932 0
M  V30 4559 O 437.68 -4.4353 -3.5866 0
M  V30 4560 O 436.614 -5.64996 -2.07516 0
M  V30 4561 H 440.44 -3.03661 -0.0485661 0
M  V30 4562 H 438.025 -1.49341 0.0418382 0
M  V30 4563 H 439.907 -3.41248 -2.4724 0
M  V30 4564 H 438.582 -2.22253 -2.35341 0
M  V30 4565 H 437.489 -3.69787 -0.566416 0
M  V30 4566 H 438.822 -4.86224 -0.764683 0
M  V30 4567 N 440.474 -0.00167713 -1.576 0
M  V30 4568 C 441.751 0.719951 -1.81868 0
M  V30 4569 C 442.131 1.91895 -0.879747 0
M  V30 4570 O 441.479 2.28389 0.0711423 0
M  V30 4571 C 441.689 1.12409 -3.30402 0
M  V30 4572 C 443.037 1.52724 -3.96182 0
M  V30 4573 O 444.061 1.21784 -3.34734 0
M  V30 4574 O 442.92 2.10265 -5.04431 0
M  V30 4575 H 440.014 0.350707 -0.748955 0
M  V30 4576 H 442.56 -0.0272597 -1.69678 0
M  V30 4577 H 441.332 0.269532 -3.90371 0
M  V30 4578 H 440.955 1.93035 -3.47596 0
M  V30 4579 N 441.952 1.55251 0.271103 0
M  V30 4580 C 442.899 1.88261 1.33516 0
M  V30 4581 C 443.869 0.734296 1.48988 0
M  V30 4582 O 445.054 0.985741 1.63364 0
M  V30 4583 C 442.194 2.16168 2.69008 0
M  V30 4584 C 441.307 3.43678 2.61743 0
M  V30 4585 C 440.442 3.61276 3.89427 0
M  V30 4586 C 439.481 4.82472 3.7668 0
M  V30 4587 N 438.618 4.96717 4.96202 0
M  V30 4588 H 443.458 2.79015 1.04665 0
M  V30 4589 H 440.995 1.38137 0.505618 0
M  V30 4590 H 442.953 2.30349 3.47844 0
M  V30 4591 H 441.583 1.28646 2.96057 0
M  V30 4592 H 440.635 3.37959 1.74607 0
M  V30 4593 H 441.947 4.3265 2.48224 0
M  V30 4594 H 441.101 3.75284 4.76704 0
M  V30 4595 H 439.84 2.70492 4.05814 0
M  V30 4596 H 438.845 4.68465 2.87786 0
M  V30 4597 H 440.07 5.74692 3.61809 0
M  V30 4598 H 438.016 4.08865 5.12997 0
M  V30 4599 H 437.933 5.79738 4.85222 0
M  V30 4600 H 439.201 5.15113 5.85046 0
M  V30 4601 N 443.43 -0.535701 1.48216 0
M  V30 4602 C 444.676 -1.2913 1.57153 0
M  V30 4603 C 445.031 -1.90899 0.239823 0
M  V30 4604 O 444.324 -1.76022 -0.756748 0
M  V30 4605 C 444.518 -2.4068 2.64212 0
M  V30 4606 C 444.347 -1.89844 4.07663 0
M  V30 4607 C 443.117 -1.72708 4.74869 0
M  V30 4608 C 445.315 -1.43031 4.94011 0
M  V30 4609 N 443.297 -1.16437 6.02757 0
M  V30 4610 C 444.668 -0.986691 6.12098 0
M  V30 4611 C 446.723 -1.3128 4.80281 0
M  V30 4612 C 445.426 -0.437231 7.1797 0
M  V30 4613 C 447.452 -0.777346 5.86269 0
M  V30 4614 C 446.814 -0.343774 7.03561 0
M  V30 4615 H 442.913 -0.463753 0.629648 0
M  V30 4616 H 445.497 -0.604736 1.8507 0
M  V30 4617 H 443.668 -3.06839 2.38126 0
M  V30 4618 H 445.4 -3.07706 2.62867 0
M  V30 4619 H 442.155 -1.96061 4.31111 0
M  V30 4620 H 442.579 -0.903281 6.70947 0
M  V30 4621 H 447.221 -1.63408 3.89946 0
M  V30 4622 H 444.939 -0.103621 8.08034 0
M  V30 4623 H 448.525 -0.689688 5.77698 0
M  V30 4624 H 447.405 0.0641219 7.84174 0
M  V30 4625 N 444.908 -1.36708 -0.784132 0
M  V30 4626 C 446.156 -1.30972 -1.53918 0
M  V30 4627 C 446.477 0.109086 -1.94695 0
M  V30 4628 O 445.747 1.05048 -1.65353 0
M  V30 4629 H 444.327 -0.481819 -0.570841 0
M  V30 4630 H 446.989 -1.71063 -0.934002 0
M  V30 4631 H 446.085 -1.94061 -2.44431 0
M  V30 4632 N 446.386 1.0089 -1.21074 0
M  V30 4633 C 447.632 1.7497 -1.03717 0
M  V30 4634 C 447.987 1.8764 0.425344 0
M  V30 4635 O 447.28 1.39679 1.3115 0
M  V30 4636 C 447.474 3.16335 -1.66334 0
M  V30 4637 C 447.303 3.17449 -3.18522 0
M  V30 4638 C 446.073 3.2425 -3.87543 0
M  V30 4639 C 448.271 3.02877 -4.15656 0
M  V30 4640 N 446.253 3.14949 -5.26954 0
M  V30 4641 C 447.624 3.0143 -5.41793 0
M  V30 4642 C 449.679 2.8715 -4.06755 0
M  V30 4643 C 448.382 2.85869 -6.60054 0
M  V30 4644 C 450.408 2.72944 -5.24648 0
M  V30 4645 C 449.77 2.72171 -6.49694 0
M  V30 4646 H 445.869 0.650627 -0.43383 0
M  V30 4647 H 448.453 1.19944 -1.53367 0
M  V30 4648 H 446.624 3.69638 -1.19256 0
M  V30 4649 H 448.356 3.78888 -1.42219 0
M  V30 4650 H 445.111 3.31288 -3.38446 0
M  V30 4651 H 445.535 3.13651 -5.9996 0
M  V30 4652 H 450.177 2.86557 -3.10878 0
M  V30 4653 H 447.895 2.8521 -7.56096 0
M  V30 4654 H 451.481 2.61782 -5.19578 0
M  V30 4655 H 450.361 2.61307 -7.39384 0
M  V30 4656 N 447.864 1.01787 1.20321 0
M  V30 4657 C 448.794 0.609625 2.25401 0
M  V30 4658 C 449.775 -0.375951 1.65893 0
M  V30 4659 O 450.96 -0.261101 1.92437 0
M  V30 4660 C 448.09 -0.0515995 3.47262 0
M  V30 4661 C 447.044 0.855095 4.19371 0
M  V30 4662 C 446.37 0.0595757 5.34667 0
M  V30 4663 C 447.67 2.16374 4.75373 0
M  V30 4664 H 449.364 1.48803 2.59804 0
M  V30 4665 H 446.91 0.716934 1.24884 0
M  V30 4666 H 448.863 -0.348764 4.19954 0
M  V30 4667 H 447.587 -0.964726 3.12027 0
M  V30 4668 H 446.246 1.13628 3.48546 0
M  V30 4669 H 445.894 -0.85524 4.95676 0
M  V30 4670 H 445.594 0.663406 5.83843 0
M  V30 4671 H 447.118 -0.231105 6.10162 0
M  V30 4672 H 448.532 1.92885 5.39878 0
M  V30 4673 H 446.929 2.71853 5.34991 0
M  V30 4674 H 447.999 2.82589 3.94045 0
M  V30 4675 N 449.342 -1.36122 0.79427 0
M  V30 4676 C 450.619 -1.93398 0.292685 0
M  V30 4677 C 450.999 -1.72567 -1.21589 0
M  V30 4678 O 450.347 -1.08745 -2.00965 0
M  V30 4679 C 450.557 -3.42099 0.690614 0
M  V30 4680 C 451.905 -4.19231 0.673105 0
M  V30 4681 O 452.929 -3.50559 0.631389 0
M  V30 4682 O 451.788 -5.41732 0.720362 0
M  V30 4683 H 448.882 -0.823712 0.0736693 0
M  V30 4684 H 451.428 -1.45273 0.87714 0
M  V30 4685 H 450.2 -3.50938 1.73085 0
M  V30 4686 H 449.823 -3.97519 0.0803036 0
M  V30 4687 N 450.82 -0.546701 -1.47814 0
M  V30 4688 C 451.752 0.244196 -2.27895 0
M  V30 4689 C 452.765 0.88911 -1.36377 0
M  V30 4690 O 453.954 0.764733 -1.61289 0
M  V30 4691 C 451.054 1.36252 -3.10304 0
M  V30 4692 C 450.227 0.816382 -4.29714 0
M  V30 4693 C 449.286 1.81789 -4.93801 0
M  V30 4694 O 448.312 1.36818 -5.52512 0
M  V30 4695 N 449.514 3.15085 -4.87547 0
M  V30 4696 H 452.279 -0.442694 -2.96412 0
M  V30 4697 H 449.84 -0.382095 -1.57327 0
M  V30 4698 H 451.832 2.03102 -3.50045 0
M  V30 4699 H 450.402 1.95281 -2.44099 0
M  V30 4700 H 449.622 -0.0285981 -3.9419 0
M  V30 4701 H 450.91 0.430668 -5.06974 0
M  V30 4702 H 450.308 3.54275 -4.41028 0
M  V30 4703 H 448.865 3.77522 -5.31339 0
M  V30 4704 N 452.299 1.55045 -0.282633 0
M  V30 4705 C 453.545 2.00056 0.332481 0
M  V30 4706 C 453.878 1.1708 1.54939 0
M  V30 4707 O 453.153 0.2427 1.9298 0
M  V30 4708 C 453.436 3.53086 0.70725 0
M  V30 4709 C 453.289 4.46813 -0.517521 0
M  V30 4710 C 454.608 4.12245 1.54084 0
M  V30 4711 H 451.727 0.727268 0.119373 0
M  V30 4712 H 454.369 1.85932 -0.391076 0
M  V30 4713 H 452.519 3.65253 1.32372 0
M  V30 4714 H 454.191 4.46579 -1.15607 0
M  V30 4715 H 452.434 4.18163 -1.1542 0
M  V30 4716 H 453.105 5.51595 -0.211426 0
M  V30 4717 H 455.581 4.03401 1.02013 0
M  V30 4718 H 454.457 5.19515 1.77186 0
M  V30 4719 H 454.718 3.62951 2.52427 0
M  V30 4720 N 453.777 0.010035 1.57597 0
M  V30 4721 C 454.725 -0.996272 2.10184 0
M  V30 4722 C 455.719 -1.34942 1.02406 0
M  V30 4723 O 456.925 -1.33389 1.20861 0
M  V30 4724 H 453.3 -0.338982 0.671264 0
M  V30 4725 H 455.271 -0.527272 2.93705 0
M  V30 4726 C 454.02 -2.27599 2.62857 0
M  V30 4727 H 453.343 -2.01295 3.45428 0
M  V30 4728 H 454.783 -2.96265 3.0332 0
M  V30 4729 C 453.242 -2.99269 1.54725 0
M  V30 4730 O 453.772 -3.90644 0.93597 0
M  V30 4731 N 451.978 -2.61269 1.27228 0
M  V30 4732 H 451.525 -1.87043 1.77123 0
M  V30 4733 H 451.483 -3.09534 0.550999 0
M  V30 4734 N 455.255 -1.55392 -0.262866 0
M  V30 4735 C 456.187 -1.85392 -1.34768 0
M  V30 4736 C 457.2 -0.739069 -1.45057 0
M  V30 4737 O 458.389 -1.01703 -1.46693 0
M  V30 4738 C 455.489 -2.01088 -2.72795 0
M  V30 4739 C 454.662 -3.31828 -2.84972 0
M  V30 4740 C 453.721 -3.37464 -4.03738 0
M  V30 4741 O 452.747 -4.10778 -3.94018 0
M  V30 4742 N 453.949 -2.65599 -5.16176 0
M  V30 4743 H 456.714 -2.79029 -1.09375 0
M  V30 4744 H 454.275 -1.55434 -0.452981 0
M  V30 4745 H 456.267 -2.02217 -3.50557 0
M  V30 4746 H 454.837 -1.1427 -2.90966 0
M  V30 4747 H 454.057 -3.43152 -1.94012 0
M  V30 4748 H 455.345 -4.18032 -2.90045 0
M  V30 4749 H 454.743 -2.05736 -5.26962 0
M  V30 4750 H 453.3 -2.72439 -5.92132 0
M  V30 4751 O 456.772 0.408595 -1.56246 0
M  V30 4752 H 457.463 1.06117 -1.62046 0
M  V30 END ATOM
M  V30 BEGIN BOND
M  V30 END BOND
M  V30 END CTAB
M  END
$$$$
