drugbank_target|D2YW37 Est1e (DB07767)
 OpenBabel12092120463D

  0  0  0     0  0            999 V3000
M  V30 BEGIN CTAB
M  V30 COUNTS 3927 3969 0 0 0
M  V30 BEGIN ATOM
M  V30 1 H -0.908 1.98254 -0.117106 0
M  V30 2 N 0 1.576 0 0
M  V30 3 C 1.225 1.95249 0.699468 0
M  V30 4 C 1.65 0.874934 1.66513 0
M  V30 5 O 1.008 -0.166929 1.8053 0
M  V30 6 C 1.056 3.31994 1.40756 0
M  V30 7 O 0.16 3.26298 2.52197 0
M  V30 8 H -0.499 0.637402 0.186051 0
M  V30 9 H 2.031 2.04531 -0.05319 0
M  V30 10 H 2.041 3.6756 1.77098 0
M  V30 11 H 0.716 4.09975 0.69953 0
M  V30 12 H -0.707 3.02408 2.18183 0
M  V30 13 N 1.4781 -0.272755 1.55222 0
M  V30 14 C 2.7261 -1.00234 1.75492 0
M  V30 15 C 3.0471 -1.8681 0.5592 0
M  V30 16 O 2.3171 -1.91215 -0.425882 0
M  V30 17 H 0.8971 -0.373076 0.647166 0
M  V30 18 H 3.5591 -0.296926 1.92625 0
M  V30 19 H 2.6551 -1.63913 2.65592 0
M  V30 20 N 2.9562 -1.48159 -0.537278 0
M  V30 21 C 3.9192 -1.61665 -1.62472 0
M  V30 22 C 4.9192 -0.490395 -1.5314 0
M  V30 23 O 6.1092 -0.755998 -1.5694 0
M  V30 24 C 3.2412 -1.57997 -3.02076 0
M  V30 25 H 4.4342 -2.58621 -1.51839 0
M  V30 26 H 1.9872 -1.36647 -0.758771 0
M  V30 27 H 2.7222 -0.624913 -3.18222 0
M  V30 28 H 2.5072 -2.39755 -3.10258 0
M  V30 29 H 3.9972 -1.70627 -3.81151 0
M  V30 30 N 4.4343 0.785586 -1.36625 0
M  V30 31 C 5.3673 1.90509 -1.25625 0
M  V30 32 C 6.3453 1.62 -0.139607 0
M  V30 33 O 7.5293 1.8591 -0.31141 0
M  V30 34 C 4.6563 3.25419 -0.939158 0
M  V30 35 C 3.7023 3.72856 -2.07077 0
M  V30 36 S 4.5353 3.88162 -3.68904 0
M  V30 37 C 5.6913 5.25942 -3.39317 0
M  V30 38 H 5.9243 1.99549 -2.20381 0
M  V30 39 H 3.4573 0.945226 -1.22085 0
M  V30 40 H 5.4153 4.03346 -0.763029 0
M  V30 41 H 4.0763 3.14099 -0.00931402 0
M  V30 42 H 3.2693 4.70624 -1.80357 0
M  V30 43 H 2.8713 3.01989 -2.20632 0
M  V30 44 H 5.1633 6.10651 -2.93447 0
M  V30 45 H 6.1063 5.57668 -4.36363 0
M  V30 46 H 6.5143 4.93224 -2.74573 0
M  V30 47 N 5.9124 1.20967 1.01018 0
M  V30 48 C 7.1424 1.04803 1.78044 0
M  V30 49 C 7.5504 -0.405462 1.84804 0
M  V30 50 O 6.8934 -1.2932 1.30468 0
M  V30 51 C 6.9554 1.56377 3.23707 0
M  V30 52 C 6.6194 3.04767 3.40538 0
M  V30 53 C 7.6164 4.02366 3.29239 0
M  V30 54 C 5.3014 3.43862 3.66147 0
M  V30 55 C 7.2954 5.37049 3.43304 0
M  V30 56 C 4.9824 4.78699 3.79855 0
M  V30 57 C 5.9804 5.75101 3.68439 0
M  V30 58 O 5.6684 7.07493 3.81719 0
M  V30 59 H 5.4004 0.368778 0.56655 0
M  V30 60 H 7.9544 1.60642 1.27997 0
M  V30 61 H 6.1844 0.949297 3.74867 0
M  V30 62 H 7.8734 1.36136 3.8239 0
M  V30 63 H 8.6394 3.73506 3.09384 0
M  V30 64 H 4.5184 2.69364 3.74118 0
M  V30 65 H 8.0624 6.12277 3.34309 0
M  V30 66 H 3.9594 5.07247 3.99213 0
M  V30 67 H 4.7274 7.1483 3.98697 0
M  V30 68 N 7.3905 -1.2043 1.01659 0
M  V30 69 C 8.6395 -1.89118 0.701237 0
M  V30 70 C 8.9525 -1.79705 -0.772358 0
M  V30 71 O 10.1585 -2.43528 -1.20026 0
M  V30 72 C 8.6145 -3.39168 1.20388 0
M  V30 73 C 8.2225 -3.57166 2.70438 0
M  V30 74 C 9.9665 -4.1341 0.963953 0
M  V30 75 C 7.8735 -5.01042 3.14183 0
M  V30 76 H 6.8035 -0.708267 0.2586 0
M  V30 77 H 9.4545 -1.36239 1.22927 0
M  V30 78 H 7.8365 -3.91369 0.603824 0
M  V30 79 H 9.0105 -3.15351 3.35992 0
M  V30 80 H 7.3255 -2.96294 2.92572 0
M  V30 81 H 9.9225 -5.19491 1.26621 0
M  V30 82 H 10.2655 -4.16181 -0.099578 0
M  V30 83 H 10.7985 -3.67309 1.52738 0
M  V30 84 H 7.5375 -5.03426 4.19812 0
M  V30 85 H 7.0575 -5.43668 2.53348 0
M  V30 86 H 8.7365 -5.69623 3.0682 0
M  V30 87 N 8.8686 -0.792821 -1.36206 0
M  V30 88 C 10.1456 -0.290627 -1.93429 0
M  V30 89 C 10.5256 1.21773 -1.72437 0
M  V30 90 O 9.8736 2.0108 -1.08531 0
M  V30 91 C 10.0836 -0.686973 -3.42172 0
M  V30 92 C 11.4316 -0.668643 -4.19302 0
M  V30 93 O 12.4556 -0.627658 -3.50626 0
M  V30 94 O 11.3146 -0.714597 -5.41808 0
M  V30 95 H 8.4086 -0.0727927 -0.82379 0
M  V30 96 H 10.9546 -0.875593 -1.45367 0
M  V30 97 H 9.7266 -1.72711 -3.51122 0
M  V30 98 H 9.3496 -0.0760733 -3.97527 0
M  V30 99 N 10.3467 1.47872 -0.545128 0
M  V30 100 C 11.5867 2.04391 -0.0187854 0
M  V30 101 C 11.9507 1.41162 1.30144 0
M  V30 102 O 13.1517 1.88656 1.91474 0
M  V30 103 C 11.4227 3.57299 0.0850867 0
M  V30 104 S 12.9817 4.35221 0.559302 0
M  V30 105 H 9.7997 0.710737 -0.0193301 0
M  V30 106 H 12.4017 1.81395 -0.729125 0
M  V30 107 H 11.1057 4.00847 -0.880351 0
M  V30 108 H 10.6367 3.84773 0.819348 0
M  V30 109 H 12.6517 4.61571 1.82118 0
M  V30 110 N 11.8248 0.280983 1.55075 0
M  V30 111 C 13.1018 -0.386207 1.91749 0
M  V30 112 C 13.4818 -1.73264 1.20594 0
M  V30 113 O 12.8298 -2.26034 0.334784 0
M  V30 114 C 13.0398 -0.520687 3.45094 0
M  V30 115 C 14.3878 -0.800865 4.16979 0
M  V30 116 O 15.4118 -0.605271 3.5102 0
M  V30 117 O 14.2708 -1.1753 5.33712 0
M  V30 118 H 11.3648 -0.212408 0.799257 0
M  V30 119 H 13.9108 0.327568 1.66509 0
M  V30 120 H 12.6828 0.426633 3.88967 0
M  V30 121 H 12.3058 -1.2837 3.76307 0
M  V30 122 N 13.3029 -1.57598 0.00835791 0
M  V30 123 C 14.5509 -1.90551 -0.6734 0
M  V30 124 C 14.8719 -0.883301 -1.73847 0
M  V30 125 O 14.1419 0.0781442 -1.95744 0
M  V30 126 H 12.7219 -0.703312 -0.251717 0
M  V30 127 H 15.3839 -1.94833 0.0512592 0
M  V30 128 H 14.4799 -2.9056 -1.13935 0
M  V30 129 N 14.781 0.264519 -1.55364 0
M  V30 130 C 16.03 0.992812 -1.75574 0
M  V30 131 C 16.343 1.87142 -0.568979 0
M  V30 132 O 17.549 2.63513 -0.653682 0
M  V30 133 C 16.005 1.81519 -3.10771 0
M  V30 134 C 15.613 0.984839 -4.37041 0
M  V30 135 C 17.357 2.53727 -3.40327 0
M  V30 136 C 15.264 1.80209 -5.63275 0
M  V30 137 H 14.194 0.374412 -0.65447 0
M  V30 138 H 16.845 0.248138 -1.81815 0
M  V30 139 H 15.227 2.60115 -2.98591 0
M  V30 140 H 16.401 0.242455 -4.60162 0
M  V30 141 H 14.716 0.37691 -4.14691 0
M  V30 142 H 17.313 3.15292 -4.3185 0
M  V30 143 H 17.656 3.24447 -2.60845 0
M  V30 144 H 18.189 1.82156 -3.53644 0
M  V30 145 H 14.928 1.13896 -6.45529 0
M  V30 146 H 14.448 2.52022 -5.44284 0
M  V30 147 H 16.127 2.37364 -6.01887 0
M  V30 148 N 16.2591 1.48442 0.529413 0
M  V30 149 C 17.2061 1.63007 1.63394 0
M  V30 150 C 18.1761 0.47212 1.59249 0
M  V30 151 O 19.3611 0.695673 1.77666 0
M  V30 152 C 16.5011 1.6763 3.01653 0
M  V30 153 C 15.6141 2.94535 3.16027 0
M  V30 154 C 14.7491 2.90316 4.44849 0
M  V30 155 C 13.7881 4.11923 4.52754 0
M  V30 156 N 12.9251 4.05777 5.72965 0
M  V30 157 H 17.7651 2.5733 1.50285 0
M  V30 158 H 15.3021 1.27613 0.731656 0
M  V30 159 H 17.2601 1.68292 3.81751 0
M  V30 160 H 15.8901 0.76797 3.13532 0
M  V30 161 H 14.9421 3.03615 2.29177 0
M  V30 162 H 16.2541 3.84512 3.17729 0
M  V30 163 H 15.4081 2.89382 5.33238 0
M  V30 164 H 14.1471 1.98068 4.45668 0
M  V30 165 H 13.1521 4.13131 3.62771 0
M  V30 166 H 14.3771 5.0533 4.53672 0
M  V30 167 H 12.3231 3.16351 5.74681 0
M  V30 168 H 12.2401 4.8946 5.76164 0
M  V30 169 H 13.5081 4.08904 6.6364 0
M  V30 170 N 17.7372 -0.778329 1.37039 0
M  V30 171 C 18.6672 -1.90546 1.34962 0
M  V30 172 C 19.6482 -1.68681 0.219274 0
M  V30 173 O 20.8332 -1.89634 0.418624 0
M  V30 174 C 17.9632 -3.27734 1.14925 0
M  V30 175 C 16.9172 -3.64147 2.24902 0
M  V30 176 C 16.2432 -4.99806 1.89996 0
M  V30 177 C 17.5432 -3.71579 3.67051 0
M  V30 178 H 19.2372 -1.92541 2.29277 0
M  V30 179 H 16.7832 -0.924948 1.10366 0
M  V30 180 H 18.7362 -4.06215 1.12104 0
M  V30 181 H 17.4602 -3.26154 0.170631 0
M  V30 182 H 16.1192 -2.8797 2.26868 0
M  V30 183 H 15.7672 -4.94759 0.906796 0
M  V30 184 H 15.4672 -5.25139 2.63634 0
M  V30 185 H 16.9912 -5.80694 1.88749 0
M  V30 186 H 18.4052 -4.40227 3.67251 0
M  V30 187 H 16.8022 -4.08405 4.39688 0
M  V30 188 H 17.8722 -2.72404 4.01154 0
M  V30 189 N 19.2153 -1.21501 -1.00376 0
M  V30 190 C 20.1633 -0.972442 -2.11297 0
M  V30 191 C 21.1573 0.080731 -1.69208 0
M  V30 192 O 22.3633 -0.0707666 -1.79861 0
M  V30 193 H 18.7383 -0.297218 -0.690772 0
M  V30 194 H 20.7093 -1.91394 -2.28934 0
M  V30 195 C 19.4583 -0.555065 -3.43241 0
M  V30 196 H 18.7813 -1.35709 -3.76062 0
M  V30 197 H 20.2213 -0.424664 -4.21868 0
M  V30 198 C 18.6803 0.734147 -3.28804 0
M  V30 199 O 19.2103 1.78937 -3.59645 0
M  V30 200 N 17.4163 0.701133 -2.82015 0
M  V30 201 H 16.9633 -0.157874 -2.57116 0
M  V30 202 H 16.9213 1.56403 -2.72737 0
M  V30 203 N 20.6934 1.19889 -1.02296 0
M  V30 204 C 21.6564 2.21116 -0.603351 0
M  V30 205 C 22.6564 1.5738 0.329884 0
M  V30 206 O 23.8464 1.73802 0.117702 0
M  V30 207 C 20.9784 3.40696 0.117992 0
M  V30 208 H 22.1714 2.59754 -1.49893 0
M  V30 209 H 19.7244 1.33463 -0.813468 0
M  V30 210 H 20.4594 3.07569 1.0282 0
M  V30 211 H 20.2444 3.88188 -0.552511 0
M  V30 212 H 21.7344 4.15692 0.398696 0
M  V30 213 N 22.1715 0.800033 1.35784 0
M  V30 214 C 23.4015 0.389041 2.02904 0
M  V30 215 C 23.8095 -1.0027 1.60445 0
M  V30 216 O 23.1525 -1.65633 0.794453 0
M  V30 217 C 23.2145 0.385495 3.57427 0
M  V30 218 C 22.8785 1.72662 4.23127 0
M  V30 219 C 23.8755 2.68385 4.4527 0
M  V30 220 C 21.5605 2.00883 4.60381 0
M  V30 221 C 23.5545 3.90517 5.03761 0
M  V30 222 C 21.2415 3.2328 5.18588 0
M  V30 223 C 22.2395 4.17915 5.40218 0
M  V30 224 O 21.9275 5.38153 5.97199 0
M  V30 225 H 21.6595 0.157032 0.657508 0
M  V30 226 H 24.2135 1.08311 1.74522 0
M  V30 227 H 22.4435 -0.365128 3.84972 0
M  V30 228 H 24.1325 -0.00228296 4.059 0
M  V30 229 H 24.8985 2.47872 4.16874 0
M  V30 230 H 20.7775 1.28037 4.42863 0
M  V30 231 H 24.3215 4.64395 5.2056 0
M  V30 232 H 20.2185 3.43667 5.4641 0
M  V30 233 H 20.9865 5.3936 6.15656 0
M  V30 234 N 23.6496 -1.47581 0.552962 0
M  V30 235 C 24.5796 -2.32762 -0.185451 0
M  V30 236 C 25.5606 -1.43527 -0.912905 0
M  V30 237 O 26.7456 -1.72388 -0.894201 0
M  V30 238 C 23.8756 -3.25219 -1.21859 0
M  V30 239 C 22.8296 -4.23661 -0.607864 0
M  V30 240 C 22.1556 -5.05413 -1.74533 0
M  V30 241 C 23.4556 -5.20481 0.435582 0
M  V30 242 H 25.1496 -2.94749 0.525684 0
M  V30 243 H 22.6956 -1.41738 0.254251 0
M  V30 244 H 24.6486 -3.8365 -1.7433 0
M  V30 245 H 23.3726 -2.61279 -1.95961 0
M  V30 246 H 22.0316 -3.66451 -0.104489 0
M  V30 247 H 21.6796 -4.3788 -2.47529 0
M  V30 248 H 21.3796 -5.72059 -1.34249 0
M  V30 249 H 22.9036 -5.66701 -2.27338 0
M  V30 250 H 24.3176 -5.733 -0.00290157 0
M  V30 251 H 22.7146 -5.95305 0.757067 0
M  V30 252 H 23.7846 -4.66217 1.33303 0
M  V30 253 N 25.1277 -0.289203 -1.54924 0
M  V30 254 C 26.4047 0.376032 -1.91951 0
M  V30 255 C 26.7847 1.72622 -1.21511 0
M  V30 256 O 26.1327 2.25853 -0.346767 0
M  V30 257 C 26.3427 0.502378 -3.45365 0
M  V30 258 C 27.6907 0.778741 -4.17398 0
M  V30 259 O 28.7147 0.586647 -3.51336 0
M  V30 260 O 27.5737 1.14698 -5.34328 0
M  V30 261 H 24.6677 0.208167 -0.800372 0
M  V30 262 H 27.2137 -0.336394 -1.66332 0
M  V30 263 H 25.9857 -0.447255 -3.88736 0
M  V30 264 H 25.6087 1.26373 -3.76982 0
M  V30 265 N 26.6058 1.57591 -0.0167156 0
M  V30 266 C 27.5388 2.04944 1.00366 0
M  V30 267 C 28.5168 0.942648 1.32487 0
M  V30 268 O 29.7008 1.21205 1.44367 0
M  V30 269 C 26.8278 2.46109 2.32697 0
M  V30 270 C 25.8738 3.67686 2.16123 0
M  V30 271 S 26.7068 5.14882 1.47161 0
M  V30 272 C 27.8628 5.59332 2.80888 0
M  V30 273 H 28.0958 2.91172 0.600528 0
M  V30 274 H 25.6288 1.53168 0.194632 0
M  V30 275 H 27.5868 2.70493 3.08778 0
M  V30 276 H 26.2478 1.6025 2.70146 0
M  V30 277 H 25.4408 3.94296 3.13922 0
M  V30 278 H 25.0428 3.43391 1.48185 0
M  V30 279 H 27.3348 5.62814 3.77156 0
M  V30 280 H 28.2778 6.5905 2.58958 0
M  V30 281 H 28.6858 4.86942 2.85565 0
M  V30 282 N 28.0839 -0.256276 1.55502 0
M  V30 283 C 29.4949 -0.826068 1.67431 0
M  V30 284 C 29.8459 -1.86396 0.612446 0
M  V30 285 O 28.9709 -2.15031 -0.243025 0
M  V30 286 C 29.5659 -1.50512 3.03532 0
M  V30 287 C 28.1249 -2.02273 3.17431 0
M  V30 288 C 27.2719 -0.870548 2.63281 0
M  V30 289 H 30.2229 -0.0322728 1.58667 0
M  V30 290 H 30.2439 -2.37279 2.97454 0
M  V30 291 H 29.7559 -0.749484 3.80794 0
M  V30 292 H 27.8569 -2.80746 2.44974 0
M  V30 293 H 27.9699 -2.22655 4.24219 0
M  V30 294 H 26.3339 -1.26851 2.20864 0
M  V30 295 H 27.1169 -0.128149 3.43061 0
M  V30 296 N 29.562 -1.4872 -0.521534 0
M  V30 297 C 30.509 -1.63871 -1.62527 0
M  V30 298 C 31.479 -0.480559 -1.58996 0
M  V30 299 O 32.664 -0.705085 -1.77294 0
M  V30 300 C 29.804 -1.69227 -3.00759 0
M  V30 301 C 28.917 -2.96207 -3.14461 0
M  V30 302 C 28.052 -2.92671 -4.43303 0
M  V30 303 C 27.091 -4.14318 -4.50563 0
M  V30 304 N 26.228 -4.0881 -5.70805 0
M  V30 305 H 31.068 -2.58123 -1.48918 0
M  V30 306 H 28.605 -1.28 -0.724878 0
M  V30 307 H 30.563 -1.70314 -3.80853 0
M  V30 308 H 29.193 -0.784586 -3.1312 0
M  V30 309 H 28.245 -3.04826 -2.27564 0
M  V30 310 H 29.557 -3.86192 -3.15686 0
M  V30 311 H 28.711 -2.92206 -5.31696 0
M  V30 312 H 27.45 -2.00429 -4.44612 0
M  V30 313 H 26.455 -4.15049 -3.60575 0
M  V30 314 H 27.68 -5.07729 -4.50986 0
M  V30 315 H 25.626 -3.19394 -5.72995 0
M  V30 316 H 25.543 -4.92509 -5.7356 0
M  V30 317 H 26.811 -4.12418 -6.61462 0
M  V30 318 N 31.0401 0.771051 -1.3745 0
M  V30 319 C 31.9881 1.90574 -1.33358 0
M  V30 320 C 32.9821 1.67936 -0.22224 0
M  V30 321 O 34.1881 1.75717 -0.390304 0
M  V30 322 H 30.5631 0.626714 -0.415612 0
M  V30 323 H 32.5341 1.91142 -2.29144 0
M  V30 324 C 31.2831 3.27845 -1.15813 0
M  V30 325 H 30.6061 3.45842 -2.00583 0
M  V30 326 H 32.0461 4.07538 -1.17 0
M  V30 327 C 30.5051 3.36625 0.136165 0
M  V30 328 O 31.0351 3.85785 1.11949 0
M  V30 329 N 29.2411 2.89997 0.187099 0
M  V30 330 H 28.7881 2.50182 -0.613753 0
M  V30 331 H 28.7461 2.96252 1.05272 0
M  V30 332 N 32.5182 1.22032 0.997298 0
M  V30 333 C 33.4662 0.983634 2.10778 0
M  V30 334 C 34.4602 -0.0717564 1.69248 0
M  V30 335 O 35.6662 0.080304 1.79821 0
M  V30 336 H 32.0412 0.300877 0.689186 0
M  V30 337 H 34.0122 1.92606 2.27916 0
M  V30 338 C 32.7612 0.57326 3.42942 0
M  V30 339 H 32.0842 1.37702 3.75338 0
M  V30 340 H 33.5242 0.447031 4.21637 0
M  V30 341 C 31.9832 -0.7167 3.29188 0
M  V30 342 O 32.5132 -1.77027 3.60589 0
M  V30 343 N 30.7192 -0.686167 2.82383 0
M  V30 344 H 30.2662 0.171507 2.57028 0
M  V30 345 H 30.2242 -1.54955 2.73562 0
M  V30 346 N 33.9963 -1.19345 1.0293 0
M  V30 347 C 35.4073 -1.70725 0.755633 0
M  V30 348 C 35.7583 -1.82326 -0.724676 0
M  V30 349 O 34.8833 -1.49471 -1.56484 0
M  V30 350 C 35.4783 -3.10084 1.36503 0
M  V30 351 C 34.0373 -3.58723 1.13994 0
M  V30 352 C 33.1843 -2.35577 1.46283 0
M  V30 353 H 36.1353 -1.0418 1.19718 0
M  V30 354 H 36.1563 -3.72787 0.762217 0
M  V30 355 H 35.6683 -3.01609 2.44241 0
M  V30 356 H 33.7693 -3.72512 0.0807901 0
M  V30 357 H 33.8823 -4.42816 1.82894 0
M  V30 358 H 32.2463 -2.38935 0.88217 0
M  V30 359 H 33.0293 -2.29731 2.55105 0
M  V30 360 N 35.4744 -0.807222 -1.35358 0
M  V30 361 C 36.3844 -0.219594 -2.3357 0
M  V30 362 C 37.4004 0.637734 -1.61892 0
M  V30 363 O 38.5764 0.549336 -1.93763 0
M  V30 364 C 35.6414 0.62158 -3.41083 0
M  V30 365 C 34.7024 -0.256315 -4.28534 0
M  V30 366 C 33.9354 0.544807 -5.30912 0
M  V30 367 O 34.1584 1.77944 -5.41934 0
M  V30 368 O 33.0924 -0.0646478 -6.01865 0
M  V30 369 H 36.9184 -1.03208 -2.85625 0
M  V30 370 H 34.5034 -0.569025 -1.38139 0
M  V30 371 H 36.3854 1.10067 -4.06772 0
M  V30 372 H 35.0604 1.41165 -2.91297 0
M  V30 373 H 33.9674 -0.782559 -3.65823 0
M  V30 374 H 35.3004 -1.01034 -4.81719 0
M  V30 375 N 36.9525 1.47285 -0.560781 0
M  V30 376 C 37.8995 2.30058 0.18491 0
M  V30 377 C 38.8695 1.39281 0.904986 0
M  V30 378 O 40.0545 1.68241 0.899979 0
M  V30 379 C 37.1945 3.23317 1.20666 0
M  V30 380 C 36.3075 4.29186 0.492285 0
M  V30 381 C 35.4425 5.09592 1.49964 0
M  V30 382 C 34.4815 6.07232 0.770439 0
M  V30 383 N 33.6185 6.80584 1.72479 0
M  V30 384 H 38.4585 2.93302 -0.527048 0
M  V30 385 H 35.9955 1.44568 -0.271738 0
M  V30 386 H 37.9535 3.75811 1.81168 0
M  V30 387 H 36.5835 2.61929 1.88661 0
M  V30 388 H 35.6355 3.7972 -0.227333 0
M  V30 389 H 36.9475 4.98738 -0.0787929 0
M  V30 390 H 36.1015 5.66254 2.17809 0
M  V30 391 H 34.8405 4.3995 2.10464 0
M  V30 392 H 33.8455 5.49745 0.0780846 0
M  V30 393 H 35.0705 6.78884 0.171134 0
M  V30 394 H 33.0165 6.1367 2.3183 0
M  V30 395 H 32.9335 7.46319 1.20596 0
M  V30 396 H 34.2015 7.41818 2.39428 0
M  V30 397 N 38.4306 0.297415 1.54768 0
M  V30 398 C 39.6706 -0.313829 2.01976 0
M  V30 399 C 40.0346 -1.51366 1.1812 0
M  V30 400 O 41.2356 -2.19603 1.5501 0
M  V30 401 C 39.5066 -0.664964 3.51159 0
M  V30 402 S 41.0656 -1.25958 4.20333 0
M  V30 403 H 37.8836 -0.0965014 0.704421 0
M  V30 404 H 40.4856 0.424451 1.90837 0
M  V30 405 H 39.1896 0.21681 4.09827 0
M  V30 406 H 38.7206 -1.43413 3.66328 0
M  V30 407 H 40.7356 -2.54751 4.25813 0
M  V30 408 N 39.9087 -1.5758 0.0250728 0
M  V30 409 C 41.3197 -1.79476 -0.514323 0
M  V30 410 C 41.6707 -0.934956 -1.72491 0
M  V30 411 O 40.7957 -0.144245 -2.15919 0
M  V30 412 C 41.3907 -3.25503 -0.939842 0
M  V30 413 C 39.9497 -3.48408 -1.42438 0
M  V30 414 C 39.0967 -2.74583 -0.387201 0
M  V30 415 H 42.0477 -1.567 0.25113 0
M  V30 416 H 42.0687 -3.34992 -1.80445 0
M  V30 417 H 41.5807 -3.88056 -0.0585628 0
M  V30 418 H 39.6817 -2.91103 -2.32572 0
M  V30 419 H 39.7947 -4.57119 -1.43455 0
M  V30 420 H 38.1587 -2.39942 -0.854409 0
M  V30 421 H 38.9417 -3.39849 0.485543 0
M  V30 422 N 41.3868 0.248026 -1.55636 0
M  V30 423 C 42.3168 1.31079 -1.93237 0
M  V30 424 C 43.2978 1.50264 -0.797174 0
M  V30 425 O 44.4828 1.62891 -1.05737 0
M  V30 426 C 41.6128 2.66575 -2.22609 0
M  V30 427 C 40.5668 2.62087 -3.3837 0
M  V30 428 C 39.8928 4.01369 -3.53281 0
M  V30 429 C 41.1928 2.19171 -4.7409 0
M  V30 430 H 42.8868 0.998556 -2.82257 0
M  V30 431 H 40.4328 0.47891 -1.35803 0
M  V30 432 H 42.3858 3.41057 -2.47503 0
M  V30 433 H 41.1098 2.99432 -1.30414 0
M  V30 434 H 39.7688 1.90063 -3.13483 0
M  V30 435 H 39.4168 4.31489 -2.58508 0
M  V30 436 H 39.1168 3.99254 -4.31127 0
M  V30 437 H 40.6408 4.77552 -3.80495 0
M  V30 438 H 42.0548 2.83384 -4.98363 0
M  V30 439 H 40.4518 2.2817 -5.5503 0
M  V30 440 H 41.5218 1.14336 -4.71227 0
M  V30 441 N 42.8649 1.48995 0.513639 0
M  V30 442 C 44.1049 1.59452 1.27885 0
M  V30 443 C 44.4689 0.269479 1.90099 0
M  V30 444 O 45.6699 0.249139 2.67643 0
M  V30 445 C 43.9409 2.71277 2.32688 0
M  V30 446 S 45.4999 3.01604 3.18717 0
M  V30 447 H 42.3179 0.562565 0.434789 0
M  V30 448 H 44.9199 1.86595 0.583301 0
M  V30 449 H 43.6239 3.66089 1.8549 0
M  V30 450 H 43.1549 2.46086 3.06929 0
M  V30 451 H 45.1699 2.42155 4.331 0
M  V30 452 N 44.343 -0.763751 1.37857 0
M  V30 453 C 45.592 -1.51789 1.32827 0
M  V30 454 C 45.905 -1.95426 -0.0823719 0
M  V30 455 O 47.111 -2.70298 -0.255172 0
M  V30 456 C 45.567 -2.74133 2.33193 0
M  V30 457 C 45.175 -2.37562 3.79827 0
M  V30 458 C 46.919 -3.52054 2.37188 0
M  V30 459 C 44.826 -3.56456 4.71904 0
M  V30 460 H 43.756 -0.569896 0.493695 0
M  V30 461 H 46.407 -0.835822 1.63359 0
M  V30 462 H 44.789 -3.4427 1.9569 0
M  V30 463 H 45.963 -1.75157 4.26212 0
M  V30 464 H 44.278 -1.72798 3.78853 0
M  V30 465 H 46.875 -4.40437 3.03182 0
M  V30 466 H 47.218 -3.92486 1.38782 0
M  V30 467 H 47.751 -2.88921 2.7344 0
M  V30 468 H 44.49 -3.21099 5.71468 0
M  V30 469 H 44.01 -4.17938 4.30218 0
M  V30 470 H 45.689 -4.23168 4.89426 0
M  V30 471 N 45.8211 -1.22559 -0.990812 0
M  V30 472 C 47.0701 -1.04553 -1.72486 0
M  V30 473 C 47.3831 0.419349 -1.91052 0
M  V30 474 O 48.5891 0.719121 -2.61803 0
M  V30 475 C 47.0451 -1.82231 -3.10355 0
M  V30 476 C 46.6531 -3.32981 -2.99713 0
M  V30 477 C 48.3971 -1.7268 -3.87791 0
M  V30 478 C 46.3041 -4.03091 -4.32748 0
M  V30 479 H 45.2341 -0.387614 -0.646739 0
M  V30 480 H 47.8851 -1.46429 -1.10593 0
M  V30 481 H 46.2671 -1.33155 -3.72942 0
M  V30 482 H 47.4411 -3.89466 -2.46278 0
M  V30 483 H 45.7561 -3.43231 -2.35758 0
M  V30 484 H 48.3531 -2.22381 -4.86262 0
M  V30 485 H 48.6961 -0.687607 -4.10582 0
M  V30 486 H 49.2291 -2.1931 -3.31885 0
M  V30 487 H 45.9681 -5.07273 -4.15156 0
M  V30 488 H 45.4881 -3.51394 -4.86089 0
M  V30 489 H 47.1671 -4.08804 -5.01486 0
M  V30 490 N 47.2992 1.18797 -1.03562 0
M  V30 491 C 48.5482 1.87978 -0.731235 0
M  V30 492 C 48.8612 1.80911 0.743671 0
M  V30 493 O 50.0672 2.45407 1.16137 0
M  V30 494 C 48.5232 3.3721 -1.25768 0
M  V30 495 C 48.1312 3.52818 -2.76085 0
M  V30 496 C 49.8752 4.11825 -1.0296 0
M  V30 497 C 47.7822 4.9598 -3.22114 0
M  V30 498 H 46.7122 0.704063 -0.269835 0
M  V30 499 H 49.3632 1.34266 -1.25079 0
M  V30 500 H 47.7452 3.90359 -0.666011 0
M  V30 501 H 48.9192 3.09965 -3.40966 0
M  V30 502 H 47.2342 2.91602 -2.97249 0
M  V30 503 H 49.8312 5.17411 -1.34869 0
M  V30 504 H 50.1742 4.16287 0.0333546 0
M  V30 505 H 50.7072 3.64833 -1.58562 0
M  V30 506 H 47.4462 4.96684 -4.27768 0
M  V30 507 H 46.9662 5.39569 -2.61965 0
M  V30 508 H 48.6452 5.6467 -3.15844 0
M  V30 509 N 48.7773 0.814389 1.34928 0
M  V30 510 C 49.7273 0.202752 2.27097 0
M  V30 511 C 50.7113 -0.62799 1.48139 0
M  V30 512 O 51.9033 -0.483969 1.70255 0
M  V30 513 C 49.0323 -0.64146 3.37254 0
M  V30 514 C 48.1183 0.19944 4.23631 0
M  V30 515 N 48.5093 1.26628 4.89693 0
M  V30 516 C 46.8073 -0.0176433 4.45997 0
M  V30 517 C 47.5083 1.78031 5.53787 0
M  V30 518 N 46.4843 1.08553 5.32651 0
M  V30 519 H 50.2863 1.01893 2.75672 0
M  V30 520 H 47.8003 0.656332 1.48546 0
M  V30 521 H 49.7973 -1.09575 4.02243 0
M  V30 522 H 48.4573 -1.4559 2.9023 0
M  V30 523 H 49.4683 1.64901 4.90946 0
M  V30 524 H 46.1453 -0.800601 4.09752 0
M  V30 525 H 47.5353 2.67236 6.16469 0
M  V30 526 N 50.2554 -1.46986 0.568584 0
M  V30 527 C 51.5034 -2.02041 0.0487022 0
M  V30 528 C 51.8244 -1.44408 -1.31039 0
M  V30 529 O 51.0944 -0.623477 -1.85714 0
M  V30 530 H 49.6744 -0.746849 0.015014 0
M  V30 531 H 52.3364 -1.80257 0.741168 0
M  V30 532 H 51.4324 -3.12085 -0.0308961 0
M  V30 533 N 51.7335 -0.305618 -1.54608 0
M  V30 534 C 52.9805 0.302298 -2.00231 0
M  V30 535 C 53.3085 1.5354 -1.19398 0
M  V30 536 O 52.5635 1.93973 -0.259423 0
M  V30 537 C 52.8625 0.698983 -3.50498 0
M  V30 538 C 52.5285 -0.432903 -4.48817 0
M  V30 539 C 51.1905 -0.743622 -4.75419 0
M  V30 540 C 53.5425 -1.19409 -5.07337 0
M  V30 541 C 50.8705 -1.81857 -5.57804 0
M  V30 542 C 53.2225 -2.25899 -5.90891 0
M  V30 543 C 51.8865 -2.57572 -6.15803 0
M  V30 544 H 51.1565 0.110619 -0.732697 0
M  V30 545 H 53.8035 -0.425674 -1.86709 0
M  V30 546 H 52.1085 1.50711 -3.61654 0
M  V30 547 H 53.8055 1.1806 -3.83227 0
M  V30 548 H 50.3955 -0.18063 -4.28219 0
M  V30 549 H 54.5795 -0.967295 -4.86782 0
M  V30 550 H 49.8355 -2.06864 -5.75341 0
M  V30 551 H 54.0095 -2.85335 -6.35261 0
M  V30 552 H 51.6365 -3.40998 -6.7943 0
M  V30 553 N 53.2116 1.57565 -0.0334293 0
M  V30 554 C 54.4396 1.9628 0.654347 0
M  V30 555 C 54.8546 0.910138 1.65414 0
M  V30 556 O 54.2116 -0.107595 1.82183 0
M  V30 557 C 54.2626 3.35067 1.35693 0
M  V30 558 O 53.9836 4.36296 0.397191 0
M  V30 559 C 55.4846 3.88439 2.13613 0
M  V30 560 H 52.7046 0.646369 0.180132 0
M  V30 561 H 55.2486 2.04282 -0.0944721 0
M  V30 562 H 53.4036 3.2827 2.05712 0
M  V30 563 H 53.8176 5.1678 0.896597 0
M  V30 564 H 55.2916 4.8788 2.58219 0
M  V30 565 H 55.7686 3.22914 2.97696 0
M  V30 566 H 56.3746 3.98516 1.48543 0
M  V30 567 N 54.6897 -0.239769 1.55765 0
M  V30 568 C 55.9377 -0.964892 1.77579 0
M  V30 569 C 56.2587 -1.85582 0.598699 0
M  V30 570 O 55.5287 -1.92075 -0.385226 0
M  V30 571 H 54.1087 -0.359265 0.654933 0
M  V30 572 H 56.7707 -0.256001 1.93211 0
M  V30 573 H 55.8667 -1.58243 2.69009 0
M  V30 574 N 56.1678 -1.49265 -0.50573 0
M  V30 575 C 57.1178 -1.6198 -1.60457 0
M  V30 576 C 58.1018 -0.47568 -1.53708 0
M  V30 577 O 59.2938 -0.728392 -1.61318 0
M  V30 578 C 56.4228 -1.68526 -2.99089 0
M  V30 579 C 55.5088 -2.885 -3.10852 0
M  V30 580 N 55.8998 -4.12635 -2.92517 0
M  V30 581 C 54.1978 -2.86338 -3.41945 0
M  V30 582 C 54.8988 -4.93258 -3.08337 0
M  V30 583 N 53.8748 -4.26533 -3.37003 0
M  V30 584 H 57.6768 -2.55681 -1.44928 0
M  V30 585 H 55.1908 -1.45972 -0.711752 0
M  V30 586 H 57.1878 -1.75732 -3.78053 0
M  V30 587 H 55.8478 -0.759584 -3.1569 0
M  V30 588 H 56.8588 -4.42689 -2.68787 0
M  V30 589 H 53.5358 -2.03129 -3.64753 0
M  V30 590 H 54.9258 -6.01856 -2.98695 0
M  V30 591 N 57.6459 0.756429 -1.3826 0
M  V30 592 C 58.8709 1.55077 -1.37717 0
M  V30 593 C 59.2959 1.88073 0.03164 0
M  V30 594 O 58.6539 1.50364 1.01293 0
M  V30 595 C 58.7019 2.8283 -2.23695 0
M  V30 596 O 57.8059 3.77862 -1.6521 0
M  V30 597 H 57.1469 0.469152 -0.469885 0
M  V30 598 H 59.6769 0.935019 -1.81985 0
M  V30 599 H 59.6869 3.31783 -2.37453 0
M  V30 600 H 58.3619 2.58144 -3.2609 0
M  V30 601 H 56.9389 3.36555 -1.60578 0
M  V30 602 N 59.124 1.23083 0.984299 0
M  V30 603 C 60.034 1.02515 2.11016 0
M  V30 604 C 61.05 -0.0291702 1.73976 0
M  V30 605 O 62.226 0.165434 2.00719 0
M  V30 606 C 59.291 0.614673 3.41208 0
M  V30 607 C 58.352 1.74359 3.92297 0
M  V30 608 C 57.585 1.35261 5.16275 0
M  V30 609 O 57.808 0.235136 5.69915 0
M  V30 610 O 56.742 2.17227 5.61334 0
M  V30 611 H 60.568 1.96862 2.31255 0
M  V30 612 H 58.153 1.01753 1.09392 0
M  V30 613 H 60.035 0.396518 4.1953 0
M  V30 614 H 58.71 -0.299851 3.22308 0
M  V30 615 H 57.617 2.01635 3.1511 0
M  V30 616 H 58.95 2.63629 4.15645 0
M  V30 617 N 60.6021 -1.18246 1.0419 0
M  V30 618 C 61.5121 -2.25574 0.644476 0
M  V30 619 C 62.5281 -1.70845 -0.329826 0
M  V30 620 O 63.7041 -2.00554 -0.184443 0
M  V30 621 C 60.7691 -3.46697 0.014877 0
M  V30 622 C 59.8301 -4.16554 1.03834 0
M  V30 623 C 59.0631 -5.31894 0.438692 0
M  V30 624 O 59.2861 -5.65385 -0.754752 0
M  V30 625 O 58.2201 -5.90459 1.168 0
M  V30 626 H 62.0461 -2.61836 1.53869 0
M  V30 627 H 59.6311 -1.25352 0.812854 0
M  V30 628 H 61.5131 -4.20062 -0.335538 0
M  V30 629 H 60.1881 -3.12255 -0.853138 0
M  V30 630 H 59.0951 -3.45251 1.44057 0
M  V30 631 H 60.4281 -4.54998 1.87716 0
M  V30 632 N 62.0802 -0.821533 -1.34494 0
M  V30 633 C 63.4962 -0.507117 -1.51329 0
M  V30 634 C 63.6962 0.968964 -1.76673 0
M  V30 635 O 62.7522 1.75348 -1.81685 0
M  V30 636 C 64.0652 -1.36544 -2.67911 0
M  V30 637 C 65.6132 -1.36242 -2.81793 0
M  V30 638 C 66.0882 -2.2052 -4.01416 0
M  V30 639 N 67.5792 -2.18136 -4.08621 0
M  V30 640 C 68.3142 -2.80095 -5.00334 0
M  V30 641 N 67.8102 -3.51039 -5.9728 0
M  V30 642 N 69.6032 -2.69656 -4.93196 0
M  V30 643 H 61.7542 -1.77729 -1.16302 0
M  V30 644 H 64.0172 -0.757291 -0.570276 0
M  V30 645 H 63.7232 -2.41361 -2.55808 0
M  V30 646 H 63.5972 -1.02917 -3.62888 0
M  V30 647 H 65.9842 -0.322041 -2.93338 0
M  V30 648 H 66.0652 -1.73866 -1.87628 0
M  V30 649 H 65.7092 -3.24607 -3.90631 0
M  V30 650 H 65.6392 -1.80247 -4.94791 0
M  V30 651 H 68.1302 -1.6653 -3.39229 0
M  V30 652 H 68.4432 -3.95565 -6.63889 0
M  V30 653 H 66.7882 -3.55145 -5.97409 0
M  V30 654 H 69.9792 -2.13808 -4.16418 0
M  V30 655 H 70.1522 -3.1823 -5.64476 0
M  V30 656 N 63.5583 1.46682 -0.576371 0
M  V30 657 C 64.5083 2.27278 0.181288 0
M  V30 658 C 65.4923 1.35497 0.867721 0
M  V30 659 O 66.6843 1.59717 0.762863 0
M  V30 660 C 63.8133 3.21703 1.19841 0
M  V30 661 C 62.8993 4.20969 0.51442 0
M  V30 662 N 63.2903 5.03999 -0.426407 0
M  V30 663 C 61.5883 4.39373 0.765963 0
M  V30 664 C 62.2893 5.75812 -0.825565 0
M  V30 665 N 61.2653 5.43315 -0.176116 0
M  V30 666 H 65.0673 2.88863 -0.541785 0
M  V30 667 H 62.5813 1.57455 -0.397697 0
M  V30 668 H 64.5783 3.78145 1.75533 0
M  V30 669 H 63.2383 2.61677 1.92238 0
M  V30 670 H 64.2493 5.11659 -0.8016 0
M  V30 671 H 60.9263 3.90502 1.47698 0
M  V30 672 H 62.3163 6.52577 -1.59976 0
M  V30 673 N 65.0364 0.313813 1.54444 0
M  V30 674 C 66.2854 -0.292519 1.99568 0
M  V30 675 C 66.5984 -1.54011 1.20582 0
M  V30 676 O 67.8044 -2.22183 1.56035 0
M  V30 677 C 66.2604 -0.571752 3.55329 0
M  V30 678 C 65.8684 0.658229 4.43138 0
M  V30 679 C 67.6124 -1.13857 4.08946 0
M  V30 680 C 65.5194 0.351439 5.90355 0
M  V30 681 H 64.4494 -0.113079 0.745472 0
M  V30 682 H 67.1004 0.424518 1.78522 0
M  V30 683 H 65.4824 -1.34872 3.72325 0
M  V30 684 H 66.6564 1.43403 4.37918 0
M  V30 685 H 64.9714 1.14458 4.0036 0
M  V30 686 H 67.5684 -1.38257 5.16516 0
M  V30 687 H 67.9114 -2.08489 3.6033 0
M  V30 688 H 68.4444 -0.423015 3.95544 0
M  V30 689 H 65.1834 1.26667 6.43145 0
M  V30 690 H 64.7034 -0.386842 5.98551 0
M  V30 691 H 66.3824 -0.0423134 6.46986 0
M  V30 692 N 66.5145 -1.57545 0.0417849 0
M  V30 693 C 67.7605 -1.92601 -0.635021 0
M  V30 694 C 68.0935 -0.919627 -1.71045 0
M  V30 695 O 67.3685 0.0557892 -1.9442 0
M  V30 696 C 67.6515 -3.38085 -1.23979 0
M  V30 697 C 67.5045 -4.49467 -0.173057 0
M  V30 698 C 68.8235 -3.83776 -2.15416 0
M  V30 699 H 65.9425 -0.700397 -0.229374 0
M  V30 700 H 68.5845 -1.89728 0.101633 0
M  V30 701 H 66.7345 -3.40664 -1.86762 0
M  V30 702 H 68.4065 -4.59018 0.458312 0
M  V30 703 H 66.6495 -4.30909 0.499996 0
M  V30 704 H 67.3205 -5.48323 -0.636054 0
M  V30 705 H 69.7965 -3.83013 -1.62605 0
M  V30 706 H 68.6725 -4.8624 -2.54679 0
M  V30 707 H 68.9335 -3.19998 -3.05047 0
M  V30 708 N 67.9926 0.231505 -1.5589 0
M  V30 709 C 68.9556 1.27028 -1.90779 0
M  V30 710 C 69.9556 1.40308 -0.785507 0
M  V30 711 O 71.1456 1.38744 -1.05336 0
M  V30 712 C 68.2776 2.64566 -2.14983 0
M  V30 713 H 69.4706 0.973017 -2.83677 0
M  V30 714 H 67.0236 0.471486 -1.49019 0
M  V30 715 H 67.7586 2.99406 -1.24604 0
M  V30 716 H 67.5436 2.56305 -2.96732 0
M  V30 717 H 69.0336 3.39543 -2.43105 0
M  V30 718 N 69.4707 1.49531 0.497807 0
M  V30 719 C 70.7167 1.59415 1.25358 0
M  V30 720 C 71.0497 0.281422 1.9215 0
M  V30 721 O 70.3247 -0.715249 1.80871 0
M  V30 722 C 70.6077 2.75566 2.3181 0
M  V30 723 C 70.4607 4.16642 1.69498 0
M  V30 724 C 71.7797 2.87347 3.33346 0
M  V30 725 H 68.8987 0.580244 0.454408 0
M  V30 726 H 71.5407 1.81827 0.551262 0
M  V30 727 H 69.6907 2.56587 2.91711 0
M  V30 728 H 71.3627 4.47145 1.13399 0
M  V30 729 H 69.6057 4.22141 0.998978 0
M  V30 730 H 70.2767 4.93792 2.46725 0
M  V30 731 H 72.7527 3.04634 2.83438 0
M  V30 732 H 71.6287 3.70289 4.05188 0
M  V30 733 H 71.8897 1.96834 3.95865 0
M  V30 734 N 70.9488 -0.749086 1.3866 0
M  V30 735 C 71.8808 -1.87273 1.32142 0
M  V30 736 C 72.8938 -1.61127 0.232787 0
M  V30 737 O 74.0828 -1.71623 0.49069 0
M  V30 738 C 71.1828 -3.23005 1.02571 0
M  V30 739 C 70.3558 -3.7662 2.22433 0
M  V30 740 C 69.4148 -4.90879 1.89537 0
M  V30 741 O 68.4408 -5.05276 2.62078 0
M  V30 742 N 69.6428 -5.74198 0.853031 0
M  V30 743 H 72.4078 -1.93373 2.28969 0
M  V30 744 H 69.9688 -0.929216 1.32579 0
M  V30 745 H 71.9608 -3.96992 0.786085 0
M  V30 746 H 70.5308 -3.12262 0.145249 0
M  V30 747 H 69.7508 -2.94147 2.62434 0
M  V30 748 H 71.0388 -4.09173 3.02415 0
M  V30 749 H 70.4368 -5.6514 0.25155 0
M  V30 750 H 68.9938 -6.48313 0.67329 0
M  V30 751 N 72.4269 -1.23603 -0.977757 0
M  V30 752 C 73.3369 -1.03632 -2.1047 0
M  V30 753 C 74.3529 0.0199435 -1.73989 0
M  V30 754 O 75.5289 -0.176076 -2.00629 0
M  V30 755 C 72.5939 -0.63276 -3.40877 0
M  V30 756 C 71.6549 -1.76437 -3.91367 0
M  V30 757 C 70.8879 -1.37997 -5.15551 0
M  V30 758 O 71.1109 -0.265357 -5.69782 0
M  V30 759 O 70.0449 -2.20201 -5.60174 0
M  V30 760 H 73.8709 -1.98086 -2.30208 0
M  V30 761 H 71.4559 -1.02332 -1.08851 0
M  V30 762 H 73.3379 -0.418761 -4.19314 0
M  V30 763 H 72.0129 0.282754 -3.22463 0
M  V30 764 H 70.9199 -2.03304 -3.14036 0
M  V30 765 H 72.2529 -2.6583 -4.14241 0
M  V30 766 N 73.905 1.17692 -1.04816 0
M  V30 767 C 75.133 1.91786 -0.776254 0
M  V30 768 C 75.548 1.76604 0.667577 0
M  V30 769 O 74.905 1.10067 1.45573 0
M  V30 770 C 74.956 3.42967 -1.14263 0
M  V30 771 O 74.677 3.57678 -2.52978 0
M  V30 772 C 76.178 4.34144 -0.896311 0
M  V30 773 H 73.398 0.608624 -0.282519 0
M  V30 774 H 75.942 1.49268 -1.39783 0
M  V30 775 H 74.097 3.83245 -0.565874 0
M  V30 776 H 74.511 4.51319 -2.67229 0
M  V30 777 H 75.985 5.38744 -1.20244 0
M  V30 778 H 76.462 4.38876 0.168636 0
M  V30 779 H 77.068 3.99574 -1.45672 0
M  V30 780 N 75.3831 0.828654 1.34056 0
M  V30 781 C 76.3131 0.269443 2.3194 0
M  V30 782 C 77.2941 -0.617247 1.58506 0
M  V30 783 O 78.4791 -0.542931 1.86456 0
M  V30 784 C 75.6091 -0.564793 3.42677 0
M  V30 785 C 74.5631 0.225241 4.27407 0
M  V30 786 C 73.8891 -0.7321 5.29664 0
M  V30 787 C 75.1891 1.43663 5.02154 0
M  V30 788 H 76.8831 1.08728 2.7896 0
M  V30 789 H 74.4291 0.524283 1.34117 0
M  V30 790 H 76.3821 -0.966233 4.10173 0
M  V30 791 H 75.1061 -1.41574 2.9432 0
M  V30 792 H 73.7651 0.608117 3.61521 0
M  V30 793 H 73.4131 -1.57916 4.77568 0
M  V30 794 H 73.1131 -0.20767 5.87233 0
M  V30 795 H 74.6371 -1.13128 6.00029 0
M  V30 796 H 76.0511 1.1089 5.62473 0
M  V30 797 H 74.4481 1.89711 5.69324 0
M  V30 798 H 75.5181 2.21181 4.31517 0
M  V30 799 N 76.8612 -1.46375 0.584142 0
M  V30 800 C 77.8092 -2.32042 -0.161047 0
M  V30 801 C 78.8032 -1.44569 -0.882966 0
M  V30 802 O 80.0092 -1.61186 -0.801191 0
M  V30 803 H 76.3842 -0.748659 -0.0708033 0
M  V30 804 H 78.3552 -2.92704 0.580269 0
M  V30 805 C 77.1042 -3.27762 -1.1605 0
M  V30 806 H 76.4272 -3.95051 -0.614419 0
M  V30 807 H 77.8672 -3.90481 -1.65228 0
M  V30 808 C 76.3262 -2.53218 -2.22221 0
M  V30 809 O 76.8562 -2.29628 -3.29597 0
M  V30 810 N 75.0622 -2.13756 -1.96868 0
M  V30 811 H 74.6092 -2.33142 -1.09557 0
M  V30 812 H 74.5672 -1.642 -2.68115 0
M  V30 813 N 78.3393 -0.321999 -1.54275 0
M  V30 814 C 79.2493 0.553631 -2.27974 0
M  V30 815 C 80.2653 1.13054 -1.32268 0
M  V30 816 O 81.4413 1.15084 -1.6528 0
M  V30 817 C 78.5063 1.69927 -3.02201 0
M  V30 818 C 77.5673 1.15433 -4.1349 0
M  V30 819 C 76.8003 2.24537 -4.84168 0
M  V30 820 O 77.0233 3.44852 -4.5435 0
M  V30 821 O 75.9573 1.90044 -5.7111 0
M  V30 822 H 79.7833 -0.0448345 -3.03667 0
M  V30 823 H 77.3683 -0.0877418 -1.49142 0
M  V30 824 H 79.2503 2.3663 -3.48689 0
M  V30 825 H 77.9253 2.28395 -2.29385 0
M  V30 826 H 76.8323 0.452436 -3.71354 0
M  V30 827 H 78.1653 0.614805 -4.88345 0
M  V30 828 N 79.8174 1.5752 -0.0501392 0
M  V30 829 C 81.0664 1.91827 0.623328 0
M  V30 830 C 81.3794 0.930222 1.72065 0
M  V30 831 O 82.5854 1.1653 2.4522 0
M  V30 832 C 81.0414 3.40692 1.16003 0
M  V30 833 C 80.6494 4.479 0.0948811 0
M  V30 834 C 82.3934 3.84034 1.80881 0
M  V30 835 C 80.3004 5.87879 0.644411 0
M  V30 836 H 79.2304 0.715918 0.236596 0
M  V30 837 H 81.8814 1.83115 -0.118861 0
M  V30 838 H 80.2634 3.44405 1.9545 0
M  V30 839 H 81.4374 4.55775 -0.678675 0
M  V30 840 H 79.7524 4.13892 -0.45637 0
M  V30 841 H 82.3494 4.85984 2.22988 0
M  V30 842 H 82.6924 3.20225 2.6601 0
M  V30 843 H 83.2254 3.82833 1.0809 0
M  V30 844 H 79.9644 6.55282 -0.169229 0
M  V30 845 H 79.4844 5.83567 1.38598 0
M  V30 846 H 81.1634 6.37098 1.12763 0
M  V30 847 N 81.2955 -0.223234 1.56011 0
M  V30 848 C 82.5435 -0.946003 1.78592 0
M  V30 849 C 82.8645 -1.84936 0.618349 0
M  V30 850 O 82.1345 -1.92473 -0.364833 0
M  V30 851 H 80.7145 -0.352298 0.658707 0
M  V30 852 H 83.3765 -0.235494 1.93472 0
M  V30 853 H 82.4725 -1.55381 2.70672 0
M  V30 854 N 82.7736 -1.49793 -0.48987 0
M  V30 855 C 84.0196 -1.60078 -1.24511 0
M  V30 856 C 84.3526 -0.291608 -1.91998 0
M  V30 857 O 83.6276 0.705647 -1.81248 0
M  V30 858 C 83.9106 -2.76791 -2.30345 0
M  V30 859 C 83.7636 -4.17535 -1.67286 0
M  V30 860 C 85.0826 -2.89111 -3.31817 0
M  V30 861 H 82.2016 -0.582645 -0.451324 0
M  V30 862 H 84.8436 -1.82117 -0.541612 0
M  V30 863 H 82.9936 -2.5813 -2.90346 0
M  V30 864 H 84.6656 -4.4774 -1.11026 0
M  V30 865 H 82.9086 -4.22665 -0.976577 0
M  V30 866 H 83.5796 -4.95094 -2.44103 0
M  V30 867 H 86.0556 -3.06133 -2.81819 0
M  V30 868 H 84.9316 -3.72433 -4.03219 0
M  V30 869 H 85.1926 -1.9893 -3.94815 0
M  V30 870 N 84.2517 0.741722 -1.39055 0
M  V30 871 C 85.2147 1.83733 -1.37021 0
M  V30 872 C 86.2147 1.58542 -0.268534 0
M  V30 873 O 87.4047 1.66067 -0.526076 0
M  V30 874 C 84.5367 3.2141 -1.13617 0
M  V30 875 H 85.7297 1.86941 -2.34506 0
M  V30 876 H 83.2827 0.944676 -1.24521 0
M  V30 877 H 84.0177 3.23865 -0.167863 0
M  V30 878 H 83.8027 3.4109 -1.93391 0
M  V30 879 H 85.2927 4.01477 -1.14918 0
M  V30 880 N 85.7298 1.2412 0.971189 0
M  V30 881 C 86.9578 1.10575 1.74874 0
M  V30 882 C 87.3728 -0.342017 1.85676 0
M  V30 883 O 86.7298 -1.23617 1.34258 0
M  V30 884 C 86.7808 1.73579 3.171 0
M  V30 885 O 86.5018 3.12695 3.06844 0
M  V30 886 C 88.0028 1.65598 4.11208 0
M  V30 887 H 85.2228 0.386504 0.548503 0
M  V30 888 H 87.7668 1.64156 1.21955 0
M  V30 889 H 85.9218 1.24009 3.67016 0
M  V30 890 H 86.3358 3.43412 3.96445 0
M  V30 891 H 87.8098 2.1437 5.08674 0
M  V30 892 H 88.2868 0.616532 4.34851 0
M  V30 893 H 88.8928 2.14578 3.67201 0
M  V30 894 N 87.2079 -1.17134 1.05439 0
M  V30 895 C 88.1379 -2.2342 0.678649 0
M  V30 896 C 89.1189 -1.66971 -0.32476 0
M  V30 897 O 90.3039 -1.93149 -0.201802 0
M  V30 898 C 87.4339 -3.47256 0.0552099 0
M  V30 899 C 86.3879 -4.16543 0.98365 0
M  V30 900 C 85.7139 -5.34231 0.223961 0
M  V30 901 C 87.0139 -4.68495 2.3089 0
M  V30 902 H 88.7079 -2.55105 1.56722 0
M  V30 903 H 86.2539 -1.2262 0.754998 0
M  V30 904 H 88.2069 -4.20828 -0.21946 0
M  V30 905 H 86.9309 -3.14846 -0.868319 0
M  V30 906 H 85.5899 -3.44887 1.24293 0
M  V30 907 H 85.2379 -4.98071 -0.702412 0
M  V30 908 H 84.9379 -5.81527 0.842627 0
M  V30 909 H 86.4619 -6.10585 -0.0433671 0
M  V30 910 H 87.8759 -5.33691 2.09396 0
M  V30 911 H 86.2729 -5.26379 2.88176 0
M  V30 912 H 87.3429 -3.85169 2.94572 0
M  V30 913 N 88.686 -0.835752 -1.33615 0
M  V30 914 C 90.102 -0.523139 -1.50783 0
M  V30 915 C 90.302 0.950171 -1.77691 0
M  V30 916 O 89.358 1.73411 -1.83534 0
M  V30 917 C 90.671 -1.39378 -2.66448 0
M  V30 918 C 92.219 -1.39223 -2.80332 0
M  V30 919 C 92.694 -2.24765 -3.99055 0
M  V30 920 N 94.185 -2.22458 -4.06284 0
M  V30 921 C 94.92 -2.85386 -4.97336 0
M  V30 922 N 94.416 -3.57354 -5.93523 0
M  V30 923 N 96.209 -2.74872 -4.90308 0
M  V30 924 H 88.36 -1.78952 -1.14411 0
M  V30 925 H 90.623 -0.763297 -0.562212 0
M  V30 926 H 90.329 -2.44061 -2.53234 0
M  V30 927 H 90.203 -1.0676 -3.61776 0
M  V30 928 H 92.59 -0.353136 -2.92979 0
M  V30 929 H 92.671 -1.75846 -1.85773 0
M  V30 930 H 92.315 -3.28732 -3.87167 0
M  V30 931 H 92.245 -1.85485 -4.92852 0
M  V30 932 H 94.736 -1.70119 -3.37443 0
M  V30 933 H 95.049 -4.02584 -6.59656 0
M  V30 934 H 93.394 -3.61461 -5.93608 0
M  V30 935 H 96.585 -2.18213 -4.14126 0
M  V30 936 H 96.758 -3.24199 -5.61069 0
M  V30 937 N 90.1641 1.46063 -0.591896 0
M  V30 938 C 91.1271 2.28854 0.125973 0
M  V30 939 C 92.1271 1.38903 0.810107 0
M  V30 940 O 93.3171 1.61186 0.66066 0
M  V30 941 C 90.4491 3.19526 1.1881 0
M  V30 942 H 91.6421 2.93802 -0.601717 0
M  V30 943 H 89.1951 1.52325 -0.350254 0
M  V30 944 H 89.9301 2.59345 1.94707 0
M  V30 945 H 89.7151 3.85766 0.701936 0
M  V30 946 H 91.2051 3.81817 1.69132 0
M  V30 947 N 91.6422 0.330177 1.54103 0
M  V30 948 C 92.9192 -0.325007 1.92881 0
M  V30 949 C 93.2992 -1.6934 1.26045 0
M  V30 950 O 92.6472 -2.24855 0.406526 0
M  V30 951 C 92.8572 -0.410634 3.46576 0
M  V30 952 C 94.2052 -0.667801 4.19316 0
M  V30 953 O 95.2292 -0.49329 3.52768 0
M  V30 954 O 94.0882 -1.00491 5.37181 0
M  V30 955 H 91.1822 -0.186873 0.80561 0
M  V30 956 H 93.7282 0.380376 1.65382 0
M  V30 957 H 92.5002 0.550164 3.87413 0
M  V30 958 H 92.1232 -1.16333 3.802 0
M  V30 959 N 93.1203 -1.57491 0.0584922 0
M  V30 960 C 94.0533 -2.07533 -0.948969 0
M  V30 961 C 95.0313 -0.977444 -1.29942 0
M  V30 962 O 96.2153 -1.2499 -1.41102 0
M  V30 963 C 93.3423 -2.52192 -2.2609 0
M  V30 964 C 92.3883 -3.73287 -2.06298 0
M  V30 965 S 93.2213 -5.18603 -1.33459 0
M  V30 966 C 94.3773 -5.66583 -2.65959 0
M  V30 967 H 94.6103 -2.92662 -0.523118 0
M  V30 968 H 92.1433 -1.53631 -0.153954 0
M  V30 969 H 94.1013 -2.78585 -3.01498 0
M  V30 970 H 92.7623 -1.67356 -2.65802 0
M  V30 971 H 91.9553 -4.0248 -3.03357 0
M  V30 972 H 91.5573 -3.47199 -1.39029 0
M  V30 973 H 93.8493 -5.72616 -3.62101 0
M  V30 974 H 94.7923 -6.65684 -2.41393 0
M  V30 975 H 95.2003 -4.94342 -2.72554 0
M  V30 976 N 94.5984 0.214957 -1.56127 0
M  V30 977 C 95.8284 0.953707 -1.8327 0
M  V30 978 C 96.2364 1.78181 -0.636262 0
M  V30 979 O 95.5794 1.79191 0.404516 0
M  V30 980 C 95.6414 1.91516 -3.0424 0
M  V30 981 C 95.3054 1.27094 -4.38972 0
M  V30 982 C 96.3024 0.657575 -5.15725 0
M  V30 983 C 93.9874 1.28073 -4.85698 0
M  V30 984 C 95.9814 0.0625968 -6.37369 0
M  V30 985 C 93.6684 0.681914 -6.07283 0
M  V30 986 C 94.6664 0.0739046 -6.8296 0
M  V30 987 O 94.3544 -0.515582 -8.02245 0
M  V30 988 H 94.0864 0.284764 -0.613095 0
M  V30 989 H 96.6404 0.233283 -2.04071 0
M  V30 990 H 94.8704 2.67475 -2.79274 0
M  V30 991 H 96.5594 2.52001 -3.18198 0
M  V30 992 H 97.3254 0.642288 -4.80728 0
M  V30 993 H 93.2044 1.74337 -4.26764 0
M  V30 994 H 96.7484 -0.412593 -6.96379 0
M  V30 995 H 92.6454 0.694636 -6.41752 0
M  V30 996 H 93.4134 -0.410544 -8.1747 0
M  V30 997 N 96.0765 1.50051 0.48192 0
M  V30 998 C 97.3245 1.60181 1.23234 0
M  V30 999 C 97.6455 0.299176 1.92691 0
M  V30 1000 O 96.9155 -0.682708 1.83619 0
M  V30 1001 H 95.4955 0.590232 0.457859 0
M  V30 1002 H 98.1575 1.86775 0.556881 0
M  V30 1003 H 97.2535 2.40753 1.98607 0
M  V30 1004 N 97.5546 -0.734337 1.39446 0
M  V30 1005 C 98.5046 -1.83949 1.34709 0
M  V30 1006 C 99.4886 -1.59279 0.227851 0
M  V30 1007 O 100.681 -1.70771 0.465438 0
M  V30 1008 C 97.8096 -3.21884 1.19356 0
M  V30 1009 C 96.8956 -3.52381 2.35984 0
M  V30 1010 N 97.2866 -3.53811 3.61457 0
M  V30 1011 C 95.5846 -3.82747 2.28956 0
M  V30 1012 C 96.2856 -3.82122 4.38586 0
M  V30 1013 N 95.2616 -3.9993 3.68181 0
M  V30 1014 H 99.0636 -1.83361 2.29687 0
M  V30 1015 H 96.5776 -0.932609 1.32952 0
M  V30 1016 H 98.5746 -4.00998 1.14046 0
M  V30 1017 H 97.2346 -3.23711 0.253295 0
M  V30 1018 H 98.2456 -3.35107 3.94872 0
M  V30 1019 H 94.9226 -3.92175 1.43194 0
M  V30 1020 H 96.3126 -3.89691 5.47349 0
M  V30 1021 N 99.0327 -1.24633 -0.964593 0
M  V30 1022 C 100.281 -1.08573 -1.70459 0
M  V30 1023 C 100.602 0.375655 -1.91347 0
M  V30 1024 O 99.8717 1.26779 -1.49345 0
M  V30 1025 H 98.4517 -0.398784 -0.631649 0
M  V30 1026 H 101.114 -1.56601 -1.16026 0
M  V30 1027 H 100.21 -1.58623 -2.68785 0
M  V30 1028 N 100.511 1.16574 -1.06058 0
M  V30 1029 C 101.458 2.20883 -0.669263 0
M  V30 1030 C 102.428 1.62729 0.332918 0
M  V30 1031 O 103.613 1.895 0.222346 0
M  V30 1032 C 100.753 3.45049 -0.0593572 0
M  V30 1033 C 99.8658 4.17458 -1.11143 0
M  V30 1034 C 99.0008 5.29135 -0.467916 0
M  V30 1035 C 98.0398 5.93343 -1.50369 0
M  V30 1036 N 97.1768 6.96516 -0.883706 0
M  V30 1037 H 102.017 2.53709 -1.5632 0
M  V30 1038 H 99.5538 1.24616 -0.781625 0
M  V30 1039 H 101.512 4.16033 0.311771 0
M  V30 1040 H 100.142 3.12781 0.797992 0
M  V30 1041 H 99.1938 3.45101 -1.60029 0
M  V30 1042 H 100.506 4.61307 -1.89731 0
M  V30 1043 H 99.6598 6.06684 -0.0436871 0
M  V30 1044 H 98.3988 4.86443 0.349864 0
M  V30 1045 H 97.4038 5.14517 -1.93784 0
M  V30 1046 H 98.6288 6.38114 -2.32352 0
M  V30 1047 H 96.5748 6.55943 -0.086595 0
M  V30 1048 H 96.4918 7.38723 -1.607 0
M  V30 1049 H 97.7598 7.77993 -0.484543 0
M  V30 1050 N 101.989 0.842826 1.3317 0
M  V30 1051 C 103.214 0.453129 2.02389 0
M  V30 1052 C 103.639 -0.939105 1.6298 0
M  V30 1053 O 102.997 -1.61472 0.8244 0
M  V30 1054 C 103.045 0.586094 3.55805 0
M  V30 1055 O 102.149 -0.386029 4.10589 0
M  V30 1056 H 101.49 0.183664 0.638094 0
M  V30 1057 H 104.02 1.13875 1.69981 0
M  V30 1058 H 104.03 0.469209 4.05293 0
M  V30 1059 H 102.705 1.6014 3.83833 0
M  V30 1060 H 101.282 -0.226371 3.72212 0
M  V30 1061 N 103.467 -1.45747 0.599634 0
M  V30 1062 C 104.744 -1.95585 0.0240846 0
M  V30 1063 C 105.124 -1.54217 -1.44154 0
M  V30 1064 O 104.472 -0.800903 -2.14004 0
M  V30 1065 C 104.682 -3.48344 0.21385 0
M  V30 1066 C 106.03 -4.24504 0.0904902 0
M  V30 1067 O 107.054 -3.55911 0.143558 0
M  V30 1068 O 105.913 -5.46491 -0.0310766 0
M  V30 1069 H 103.007 -0.82602 -0.0402478 0
M  V30 1070 H 105.553 -1.55951 0.669139 0
M  V30 1071 H 104.325 -3.71397 1.23206 0
M  V30 1072 H 103.948 -3.9485 -0.466842 0
M  V30 1073 N 104.945 -0.338344 -1.53925 0
M  V30 1074 C 106.193 0.259245 -2.0043 0
M  V30 1075 C 106.514 1.51484 -1.22791 0
M  V30 1076 O 105.784 1.93037 -0.33368 0
M  V30 1077 H 104.364 0.0987845 -0.740439 0
M  V30 1078 H 107.026 -0.458302 -1.89435 0
M  V30 1079 H 106.122 0.505334 -3.07982 0
M  V30 1080 N 106.423 1.57458 -0.0668435 0
M  V30 1081 C 107.37 2.12439 0.902122 0
M  V30 1082 C 108.34 1.03565 1.2986 0
M  V30 1083 O 109.525 1.312 1.38532 0
M  V30 1084 C 106.665 2.6865 2.16614 0
M  V30 1085 C 105.778 3.91663 1.82274 0
M  V30 1086 C 104.913 4.36134 3.0325 0
M  V30 1087 C 103.952 5.51808 2.64904 0
M  V30 1088 N 103.089 5.9126 3.78624 0
M  V30 1089 H 107.929 2.94934 0.426382 0
M  V30 1090 H 105.466 1.4575 0.198819 0
M  V30 1091 H 107.424 2.99346 2.90599 0
M  V30 1092 H 106.054 1.88928 2.61737 0
M  V30 1093 H 105.106 3.6746 0.983719 0
M  V30 1094 H 106.418 4.75693 1.50059 0
M  V30 1095 H 105.572 4.68465 3.85519 0
M  V30 1096 H 104.311 3.50948 3.38655 0
M  V30 1097 H 103.316 5.19133 1.81055 0
M  V30 1098 H 104.541 6.38722 2.30675 0
M  V30 1099 H 102.487 5.09024 4.138 0
M  V30 1100 H 102.404 6.70018 3.5016 0
M  V30 1101 H 103.672 6.28212 4.61486 0
M  V30 1102 N 107.901 -0.206675 1.56239 0
M  V30 1103 C 109.148 -0.928842 1.79941 0
M  V30 1104 C 109.476 -1.83734 0.638131 0
M  V30 1105 O 108.731 -1.92039 -0.376746 0
M  V30 1106 C 109.03 -1.78675 3.09532 0
M  V30 1107 C 108.696 -1.03022 4.38973 0
M  V30 1108 C 107.358 -0.821302 4.74139 0
M  V30 1109 C 109.71 -0.497081 5.18824 0
M  V30 1110 C 107.038 -0.0675719 5.86661 0
M  V30 1111 C 109.39 0.24338 6.32132 0
M  V30 1112 C 108.054 0.463422 6.65889 0
M  V30 1113 H 107.324 -0.339887 0.658451 0
M  V30 1114 H 109.971 -0.195977 1.90495 0
M  V30 1115 H 108.276 -2.58794 2.94165 0
M  V30 1116 H 109.973 -2.34792 3.25075 0
M  V30 1117 H 106.563 -1.20306 4.11369 0
M  V30 1118 H 110.747 -0.645921 4.92079 0
M  V30 1119 H 106.003 0.112995 6.11296 0
M  V30 1120 H 110.177 0.66393 6.93228 0
M  V30 1121 H 107.804 1.04938 7.52922 0
M  V30 1122 N 109.379 -1.50304 -0.473955 0
M  V30 1123 C 110.289 -1.7174 -1.5982 0
M  V30 1124 C 111.305 -0.600457 -1.63311 0
M  V30 1125 O 112.481 -0.878441 -1.81233 0
M  V30 1126 C 109.546 -1.80427 -2.96052 0
M  V30 1127 C 108.607 -3.04148 -3.02972 0
M  V30 1128 C 107.84 -3.12411 -4.32706 0
M  V30 1129 O 108.063 -2.27542 -5.23049 0
M  V30 1130 O 106.997 -4.05113 -4.45159 0
M  V30 1131 H 110.823 -2.67035 -1.44657 0
M  V30 1132 H 108.408 -1.34366 -0.653148 0
M  V30 1133 H 110.29 -1.88338 -3.7697 0
M  V30 1134 H 108.965 -0.883156 -3.11419 0
M  V30 1135 H 107.872 -3.0174 -2.21142 0
M  V30 1136 H 109.205 -3.95829 -2.92541 0
M  V30 1137 N 110.857 0.726932 -1.39834 0
M  V30 1138 C 112.134 1.47902 -1.28001 0
M  V30 1139 C 112.514 2.1083 0.106789 0
M  V30 1140 O 111.862 1.99242 1.11869 0
M  V30 1141 C 112.072 2.52392 -2.41038 0
M  V30 1142 C 113.42 3.18546 -2.80737 0
M  V30 1143 O 114.444 2.62708 -2.40547 0
M  V30 1144 O 113.303 4.19604 -3.50135 0
M  V30 1145 H 110.397 0.657163 -0.502062 0
M  V30 1146 H 112.943 0.760071 -1.51727 0
M  V30 1147 H 111.715 2.04329 -3.33715 0
M  V30 1148 H 111.338 3.31837 -2.19021 0
M  V30 1149 N 112.336 1.25143 0.95797 0
M  V30 1150 C 113.286 1.01924 2.0395 0
M  V30 1151 C 114.27 -0.0427175 1.60843 0
M  V30 1152 O 115.462 0.17221 1.7616 0
M  V30 1153 C 112.591 0.636373 3.3735 0
M  V30 1154 C 111.677 1.73492 3.8699 0
M  V30 1155 N 112.068 2.96945 4.0946 0
M  V30 1156 C 110.366 1.61467 4.15746 0
M  V30 1157 C 111.067 3.68228 4.50315 0
M  V30 1158 N 110.043 2.95833 4.56053 0
M  V30 1159 H 113.845 1.95653 2.19311 0
M  V30 1160 H 111.359 1.15413 1.14253 0
M  V30 1161 H 113.356 0.451233 4.14451 0
M  V30 1162 H 112.016 -0.293621 3.2337 0
M  V30 1163 H 113.027 3.33025 3.96629 0
M  V30 1164 H 109.704 0.753394 4.10646 0
M  V30 1165 H 111.094 4.74178 4.76031 0
M  V30 1166 N 113.814 -1.1601 1.06675 0
M  V30 1167 C 115.042 -1.90527 0.806667 0
M  V30 1168 C 115.457 -1.77643 -0.639396 0
M  V30 1169 O 114.814 -1.12369 -1.43803 0
M  V30 1170 C 114.865 -3.41106 1.19705 0
M  V30 1171 O 114.586 -3.53608 2.58636 0
M  V30 1172 C 116.087 -4.32663 0.965266 0
M  V30 1173 H 113.307 -0.604053 0.292166 0
M  V30 1174 H 115.851 -1.47026 1.4214 0
M  V30 1175 H 114.006 -3.82296 0.626774 0
M  V30 1176 H 114.42 -4.47011 2.74375 0
M  V30 1177 H 115.894 -5.36763 1.288 0
M  V30 1178 H 116.371 -4.39089 -0.0987936 0
M  V30 1179 H 116.977 -3.97206 1.52011 0
M  V30 1180 N 115.292 -0.849877 -1.32721 0
M  V30 1181 C 116.222 -0.306308 -2.31482 0
M  V30 1182 C 117.203 0.591952 -1.59468 0
M  V30 1183 O 118.388 0.513199 -1.87296 0
M  V30 1184 C 115.518 0.510204 -3.43532 0
M  V30 1185 C 114.472 -0.293209 -4.26994 0
M  V30 1186 C 113.798 0.647743 -5.30762 0
M  V30 1187 C 115.098 -1.51634 -4.99804 0
M  V30 1188 H 116.792 -1.13153 -2.77195 0
M  V30 1189 H 114.338 -0.545553 -1.33266 0
M  V30 1190 H 116.291 0.900856 -4.11658 0
M  V30 1191 H 115.015 1.36874 -2.96535 0
M  V30 1192 H 113.674 -0.665555 -3.60508 0
M  V30 1193 H 113.322 1.50299 -4.8002 0
M  V30 1194 H 113.022 0.11422 -5.87489 0
M  V30 1195 H 114.546 1.03567 -6.01753 0
M  V30 1196 H 115.96 -1.19824 -5.60638 0
M  V30 1197 H 114.357 -1.98745 -5.66234 0
M  V30 1198 H 115.427 -2.28018 -4.27943 0
M  V30 1199 N 116.77 1.45427 -0.607355 0
M  V30 1200 C 118.017 2.02241 -0.102455 0
M  V30 1201 C 118.345 1.4758 1.26691 0
M  V30 1202 O 117.6 0.640468 1.84923 0
M  V30 1203 C 117.899 3.57398 -0.0129263 0
M  V30 1204 C 117.565 4.3121 -1.31792 0
M  V30 1205 C 116.227 4.51092 -1.67539 0
M  V30 1206 C 118.579 4.73401 -2.18039 0
M  V30 1207 C 115.907 5.10422 -2.89285 0
M  V30 1208 C 118.259 5.34078 -3.39034 0
M  V30 1209 C 116.923 5.52184 -3.75033 0
M  V30 1210 H 116.193 0.740051 -0.037491 0
M  V30 1211 H 118.84 1.74494 -0.788926 0
M  V30 1212 H 117.145 3.84421 0.756806 0
M  V30 1213 H 118.842 3.99061 0.393881 0
M  V30 1214 H 115.432 4.16047 -1.02968 0
M  V30 1215 H 119.616 4.57774 -1.91721 0
M  V30 1216 H 114.872 5.22629 -3.17283 0
M  V30 1217 H 119.046 5.65724 -4.06115 0
M  V30 1218 H 116.673 5.97925 -4.69457 0
M  V30 1219 N 118.248 0.346503 1.53744 0
M  V30 1220 C 119.195 -0.508914 2.25119 0
M  V30 1221 C 120.165 -1.09315 1.25058 0
M  V30 1222 O 121.35 -1.12921 1.53797 0
M  V30 1223 C 118.49 -1.65246 3.02965 0
M  V30 1224 C 117.603 -1.09525 4.17886 0
M  V30 1225 C 116.738 -2.20634 4.83212 0
M  V30 1226 C 115.777 -1.62279 5.90196 0
M  V30 1227 N 114.914 -2.67143 6.49291 0
M  V30 1228 H 119.754 0.106283 2.9781 0
M  V30 1229 H 117.291 0.0642227 1.4696 0
M  V30 1230 H 119.249 -2.32574 3.4636 0
M  V30 1231 H 117.879 -2.2386 2.32565 0
M  V30 1232 H 116.931 -0.312818 3.79112 0
M  V30 1233 H 118.243 -0.628444 4.94825 0
M  V30 1234 H 117.397 -2.95821 5.29693 0
M  V30 1235 H 116.136 -2.70659 4.05703 0
M  V30 1236 H 115.141 -0.855989 5.43096 0
M  V30 1237 H 116.366 -1.13102 6.69615 0
M  V30 1238 H 114.312 -3.16417 5.74645 0
M  V30 1239 H 114.229 -2.25093 7.21713 0
M  V30 1240 H 115.497 -3.4209 7.00425 0
M  V30 1241 N 119.726 -1.57421 0.075193 0
M  V30 1242 C 120.972 -1.94716 -0.587998 0
M  V30 1243 C 121.327 -0.955205 -1.67014 0
M  V30 1244 O 120.62 0.0219842 -1.91587 0
M  V30 1245 C 120.814 -3.36428 -1.20626 0
M  V30 1246 C 120.643 -4.49317 -0.185541 0
M  V30 1247 C 119.413 -5.04772 0.23099 0
M  V30 1248 C 121.611 -5.11036 0.57854 0
M  V30 1249 N 119.593 -6.01204 1.24206 0
M  V30 1250 C 120.964 -6.02998 1.44199 0
M  V30 1251 C 123.019 -4.93844 0.634237 0
M  V30 1252 C 121.722 -6.79614 2.3562 0
M  V30 1253 C 123.748 -5.71106 1.53597 0
M  V30 1254 C 123.11 -6.6272 2.38709 0
M  V30 1255 H 119.209 -0.759536 -0.186089 0
M  V30 1256 H 121.793 -1.94097 0.153128 0
M  V30 1257 H 119.964 -3.37778 -1.9173 0
M  V30 1258 H 121.696 -3.60951 -1.8302 0
M  V30 1259 H 118.451 -4.73353 -0.152807 0
M  V30 1260 H 118.875 -6.54119 1.74521 0
M  V30 1261 H 123.517 -4.22799 -0.00960004 0
M  V30 1262 H 121.235 -7.49934 3.01038 0
M  V30 1263 H 124.821 -5.59824 1.58394 0
M  V30 1264 H 123.701 -7.2146 3.07352 0
M  V30 1265 N 121.204 0.198386 -1.56346 0
M  V30 1266 C 122.134 1.24865 -1.9731 0
M  V30 1267 C 123.115 1.47651 -0.844576 0
M  V30 1268 O 124.3 1.59444 -1.10866 0
M  V30 1269 C 121.43 2.59358 -2.30977 0
M  V30 1270 C 120.384 2.5119 -3.46537 0
M  V30 1271 C 119.71 3.89926 -3.65871 0
M  V30 1272 C 121.01 2.03977 -4.80823 0
M  V30 1273 H 122.704 0.908252 -2.85291 0
M  V30 1274 H 120.25 0.435462 -1.37258 0
M  V30 1275 H 122.203 3.33011 -2.58228 0
M  V30 1276 H 120.927 2.95132 -1.39874 0
M  V30 1277 H 119.586 1.79993 -3.19371 0
M  V30 1278 H 119.234 4.23046 -2.72105 0
M  V30 1279 H 118.934 3.85336 -4.4361 0
M  V30 1280 H 120.458 4.65205 -3.95495 0
M  V30 1281 H 121.872 2.67386 -5.07127 0
M  V30 1282 H 120.269 2.10397 -5.62008 0
M  V30 1283 H 121.339 0.992861 -4.74626 0
M  V30 1284 N 122.682 1.50554 0.465978 0
M  V30 1285 C 123.91 1.65563 1.24083 0
M  V30 1286 C 124.325 0.341051 1.85694 0
M  V30 1287 O 123.682 -0.677543 1.69457 0
M  V30 1288 C 123.733 2.75051 2.34583 0
M  V30 1289 O 123.454 4.01413 1.75497 0
M  V30 1290 C 124.955 3.01078 3.25372 0
M  V30 1291 H 122.175 0.55638 0.375077 0
M  V30 1292 H 124.719 1.96807 0.555624 0
M  V30 1293 H 122.874 2.46486 2.9887 0
M  V30 1294 H 123.288 4.62002 2.48303 0
M  V30 1295 H 124.762 3.81339 3.99105 0
M  V30 1296 H 125.239 2.12349 3.84453 0
M  V30 1297 H 125.845 3.31194 2.66816 0
M  V30 1298 N 124.16 -0.719506 1.40217 0
M  V30 1299 C 125.108 -1.85493 1.40339 0
M  V30 1300 C 126.102 -1.66995 0.284415 0
M  V30 1301 O 127.308 -1.74148 0.455252 0
M  V30 1302 H 123.683 -0.610857 0.438586 0
M  V30 1303 H 125.654 -1.82506 2.36081 0
M  V30 1304 C 124.403 -3.23321 1.27901 0
M  V30 1305 H 123.726 -3.38159 2.1328 0
M  V30 1306 H 125.166 -4.02914 1.32045 0
M  V30 1307 C 123.625 -3.36898 -0.0111355 0
M  V30 1308 O 124.155 -3.89674 -0.975538 0
M  V30 1309 N 122.361 -2.90492 -0.0793393 0
M  V30 1310 H 121.908 -2.47731 0.706183 0
M  V30 1311 H 121.866 -2.99955 -0.942038 0
M  V30 1312 N 125.638 -1.25649 -0.95132 0
M  V30 1313 C 126.887 -1.09988 -1.69073 0
M  V30 1314 C 127.2 0.358355 -1.92289 0
M  V30 1315 O 128.406 0.635466 -2.63958 0
M  V30 1316 C 126.862 -1.92012 -3.044 0
M  V30 1317 C 126.47 -3.42347 -2.88968 0
M  V30 1318 C 128.214 -1.8493 -3.82101 0
M  V30 1319 C 126.121 -4.16655 -4.19705 0
M  V30 1320 H 125.051 -0.407993 -0.63408 0
M  V30 1321 H 127.702 -1.49873 -1.05879 0
M  V30 1322 H 126.084 -1.44952 -3.68517 0
M  V30 1323 H 127.258 -3.97104 -2.33762 0
M  V30 1324 H 125.573 -3.50557 -2.24719 0
M  V30 1325 H 128.17 -2.37739 -4.78941 0
M  V30 1326 H 128.513 -0.817883 -4.08187 0
M  V30 1327 H 129.046 -2.29758 -3.2474 0
M  V30 1328 H 125.785 -5.20224 -3.98807 0
M  V30 1329 H 125.305 -3.66681 -4.74663 0
M  V30 1330 H 126.984 -4.24551 -4.88227 0
M  V30 1331 N 127.117 1.15442 -1.07289 0
M  V30 1332 C 128.047 2.22312 -0.714107 0
M  V30 1333 C 129.028 1.67467 0.298155 0
M  V30 1334 O 130.213 1.93445 0.171048 0
M  V30 1335 C 127.343 3.47124 -0.110448 0
M  V30 1336 C 126.297 4.14926 -1.04979 0
M  V30 1337 C 125.623 5.33807 -0.308924 0
M  V30 1338 C 126.923 4.64762 -2.38314 0
M  V30 1339 H 128.617 2.5258 -1.6076 0
M  V30 1340 H 126.163 1.21404 -0.77441 0
M  V30 1341 H 128.116 4.21124 0.152482 0
M  V30 1342 H 126.84 3.16187 0.81812 0
M  V30 1343 H 125.499 3.42866 -1.29764 0
M  V30 1344 H 125.147 4.99126 0.623084 0
M  V30 1345 H 124.847 5.80113 -0.935036 0
M  V30 1346 H 126.371 6.10576 -0.0537771 0
M  V30 1347 H 127.785 5.30292 -2.1786 0
M  V30 1348 H 126.182 5.21728 -2.96514 0
M  V30 1349 H 127.252 3.80434 -3.00663 0
M  V30 1350 N 128.595 0.856903 1.32268 0
M  V30 1351 C 129.558 0.308171 2.27119 0
M  V30 1352 C 130.558 -0.533421 1.51695 0
M  V30 1353 O 131.748 -0.344607 1.70757 0
M  V30 1354 C 128.88 -0.563757 3.36206 0
M  V30 1355 H 130.073 1.14535 2.77167 0
M  V30 1356 H 127.626 0.631421 1.42978 0
M  V30 1357 H 128.361 -1.42266 2.91429 0
M  V30 1358 H 128.146 0.0386749 3.92081 0
M  V30 1359 H 129.636 -0.940386 4.06874 0
M  V30 1360 N 130.073 -1.45103 0.615059 0
M  V30 1361 C 131.319 -2.02483 0.113347 0
M  V30 1362 C 131.652 -1.48146 -1.25564 0
M  V30 1363 O 130.927 -0.659104 -1.82992 0
M  V30 1364 C 131.21 -3.60005 0.0825278 0
M  V30 1365 C 131.063 -4.2466 1.48271 0
M  V30 1366 C 132.382 -4.35972 -0.601401 0
M  V30 1367 H 129.501 -0.735764 0.0426632 0
M  V30 1368 H 132.143 -1.72868 0.788461 0
M  V30 1369 H 130.293 -3.85367 -0.492378 0
M  V30 1370 H 131.965 -4.10458 2.10527 0
M  V30 1371 H 130.208 -3.82772 2.04127 0
M  V30 1372 H 130.879 -5.336 1.41332 0
M  V30 1373 H 133.355 -4.15947 -0.112666 0
M  V30 1374 H 132.231 -5.45697 -0.592097 0
M  V30 1375 H 132.492 -4.09391 -1.66887 0
M  V30 1376 N 131.551 -0.354651 -1.53558 0
M  V30 1377 C 132.797 0.238797 -2.01389 0
M  V30 1378 C 133.13 1.49309 -1.2418 0
M  V30 1379 O 132.405 1.91638 -0.332457 0
M  V30 1380 C 132.688 0.541771 -3.56001 0
M  V30 1381 C 132.541 -0.725388 -4.43912 0
M  V30 1382 C 133.86 1.34685 -4.18984 0
M  V30 1383 H 130.979 0.0853177 -0.732045 0
M  V30 1384 H 133.621 -0.477384 -1.83905 0
M  V30 1385 H 131.771 1.15189 -3.71031 0
M  V30 1386 H 133.443 -1.36313 -4.407 0
M  V30 1387 H 131.686 -1.34801 -4.12324 0
M  V30 1388 H 132.357 -0.468505 -5.50008 0
M  V30 1389 H 134.833 0.830837 -4.07721 0
M  V30 1390 H 133.709 1.52759 -5.27215 0
M  V30 1391 H 133.97 2.35221 -3.74331 0
M  V30 1392 N 133.029 1.57378 -0.0835403 0
M  V30 1393 C 134.306 1.85363 0.624507 0
M  V30 1394 C 134.686 0.978239 1.87066 0
M  V30 1395 O 134.034 0.0475908 2.2845 0
M  V30 1396 C 134.244 3.35795 0.950947 0
M  V30 1397 C 135.592 4.03581 1.31939 0
M  V30 1398 O 136.616 3.40609 1.04232 0
M  V30 1399 O 135.475 5.14672 1.83779 0
M  V30 1400 H 132.569 0.766162 0.311329 0
M  V30 1401 H 135.115 1.69307 -0.115362 0
M  V30 1402 H 133.887 3.91244 0.0663899 0
M  V30 1403 H 133.51 3.57154 1.74719 0
M  V30 1404 N 134.507 -0.190092 1.56449 0
M  V30 1405 C 135.737 -0.92443 1.84764 0
M  V30 1406 C 136.145 -1.77146 0.664529 0
M  V30 1407 O 135.488 -1.79812 -0.375957 0
M  V30 1408 C 135.55 -1.86651 3.07248 0
M  V30 1409 C 135.214 -1.20094 4.40938 0
M  V30 1410 C 136.211 -0.575445 5.16706 0
M  V30 1411 C 133.896 -1.2033 4.87674 0
M  V30 1412 C 135.89 0.0388111 6.37388 0
M  V30 1413 C 133.577 -0.585214 6.08291 0
M  V30 1414 C 134.575 0.0347578 6.82991 0
M  V30 1415 O 134.263 0.643147 8.01323 0
M  V30 1416 H 133.995 -0.274974 0.617548 0
M  V30 1417 H 136.549 -0.200788 2.04416 0
M  V30 1418 H 134.779 -2.62998 2.83494 0
M  V30 1419 H 136.468 -2.46907 3.22167 0
M  V30 1420 H 137.234 -0.565728 4.81689 0
M  V30 1421 H 133.113 -1.67526 4.29484 0
M  V30 1422 H 136.657 0.523329 6.95634 0
M  V30 1423 H 132.554 -0.592451 6.42775 0
M  V30 1424 H 133.322 0.540545 8.16713 0
M  V30 1425 N 135.985 -1.50799 -0.457987 0
M  V30 1426 C 136.948 -1.7005 -1.53674 0
M  V30 1427 C 137.948 -0.570881 -1.50325 0
M  V30 1428 O 139.138 -0.838126 -1.52712 0
M  V30 1429 C 136.27 -1.73788 -2.93276 0
M  V30 1430 H 137.463 -2.66306 -1.37917 0
M  V30 1431 H 135.016 -1.40477 -0.685271 0
M  V30 1432 H 135.751 -0.792717 -3.14462 0
M  V30 1433 H 135.536 -2.55864 -2.97113 0
M  V30 1434 H 137.026 -1.90591 -3.71571 0
M  V30 1435 N 137.463 0.71206 -1.40597 0
M  V30 1436 C 138.41 1.82613 -1.41142 0
M  V30 1437 C 139.38 1.63925 -0.267903 0
M  V30 1438 O 140.565 1.85009 -0.466495 0
M  V30 1439 C 137.705 3.20354 -1.28324 0
M  V30 1440 C 136.818 3.50589 -2.52411 0
M  V30 1441 C 135.953 4.77855 -2.32009 0
M  V30 1442 C 134.992 5.01005 -3.51654 0
M  V30 1443 N 134.129 6.19487 -3.30425 0
M  V30 1444 H 138.969 1.81482 -2.36365 0
M  V30 1445 H 136.506 0.886475 -1.17388 0
M  V30 1446 H 138.464 3.99899 -1.18899 0
M  V30 1447 H 137.094 3.20705 -0.367189 0
M  V30 1448 H 136.146 2.65573 -2.72351 0
M  V30 1449 H 137.458 3.63604 -3.41458 0
M  V30 1450 H 136.612 5.65424 -2.19956 0
M  V30 1451 H 135.351 4.67056 -1.40392 0
M  V30 1452 H 134.356 4.1189 -3.64179 0
M  V30 1453 H 135.581 5.13674 -4.44202 0
M  V30 1454 H 133.527 6.09932 -2.41494 0
M  V30 1455 H 133.444 6.33194 -4.13039 0
M  V30 1456 H 134.712 7.09834 -3.22113 0
M  V30 1457 N 138.941 1.26152 0.944643 0
M  V30 1458 C 139.888 1.07408 2.04285 0
M  V30 1459 C 140.858 -0.0198413 1.66088 0
M  V30 1460 O 142.043 0.139264 1.90291 0
M  V30 1461 C 139.183 0.70945 3.37729 0
M  V30 1462 C 138.296 1.87926 3.88983 0
M  V30 1463 C 137.431 1.45807 5.10797 0
M  V30 1464 C 136.47 2.5964 5.54305 0
M  V30 1465 N 135.607 2.18226 6.67324 0
M  V30 1466 H 140.447 2.01389 2.1965 0
M  V30 1467 H 137.984 1.00275 1.07626 0
M  V30 1468 H 139.942 0.478948 4.14442 0
M  V30 1469 H 138.572 -0.193389 3.2222 0
M  V30 1470 H 137.624 2.22279 3.08701 0
M  V30 1471 H 138.936 2.73377 4.17213 0
M  V30 1472 H 138.09 1.18781 5.94959 0
M  V30 1473 H 136.829 0.574414 4.84305 0
M  V30 1474 H 135.834 2.87399 4.68702 0
M  V30 1475 H 137.059 3.48599 5.828 0
M  V30 1476 H 135.005 1.3229 6.42523 0
M  V30 1477 H 134.922 2.97221 6.95123 0
M  V30 1478 H 136.19 1.94403 7.54869 0
M  V30 1479 N 140.419 -1.14872 1.07899 0
M  V30 1480 C 141.349 -2.2193 0.725887 0
M  V30 1481 C 142.33 -1.67622 -0.28927 0
M  V30 1482 O 143.515 -1.93533 -0.160787 0
M  V30 1483 C 140.645 -3.47061 0.128856 0
M  V30 1484 C 139.599 -4.14363 1.07178 0
M  V30 1485 C 138.925 -5.33636 0.337229 0
M  V30 1486 C 140.225 -4.63492 2.40775 0
M  V30 1487 H 141.919 -2.51724 1.62097 0
M  V30 1488 H 139.465 -1.20991 0.780838 0
M  V30 1489 H 141.418 -4.21199 -0.130147 0
M  V30 1490 H 140.142 -3.16617 -0.80134 0
M  V30 1491 H 138.801 -3.42173 1.3158 0
M  V30 1492 H 138.449 -4.99449 -0.596606 0
M  V30 1493 H 138.149 -5.79609 0.965788 0
M  V30 1494 H 139.673 -6.10539 0.0861567 0
M  V30 1495 H 141.087 -5.2913 2.20669 0
M  V30 1496 H 139.484 -5.20148 2.99276 0
M  V30 1497 H 140.554 -3.78834 3.02676 0
M  V30 1498 N 141.898 -0.863906 -1.31812 0
M  V30 1499 C 143.175 -0.39275 -1.91616 0
M  V30 1500 C 143.555 1.12461 -1.7865 0
M  V30 1501 O 142.903 1.95045 -1.19037 0
M  V30 1502 C 143.113 -0.867385 -3.38049 0
M  V30 1503 C 144.461 -0.889966 -4.15168 0
M  V30 1504 O 145.485 -0.812635 -3.46806 0
M  V30 1505 O 144.344 -1.00079 -5.37258 0
M  V30 1506 H 141.438 -0.116358 -0.818773 0
M  V30 1507 H 143.984 -0.951418 -1.40521 0
M  V30 1508 H 142.756 -1.91081 -3.41473 0
M  V30 1509 H 142.379 -0.286687 -3.96565 0
M  V30 1510 N 143.376 1.44774 -0.622745 0
M  V30 1511 C 144.623 2.02121 -0.1239 0
M  V30 1512 C 144.951 1.48915 1.25118 0
M  V30 1513 O 144.206 0.660045 1.84233 0
M  V30 1514 C 144.505 3.57364 -0.0508323 0
M  V30 1515 C 144.171 4.29787 -1.36358 0
M  V30 1516 C 142.833 4.4929 -1.72314 0
M  V30 1517 C 145.185 4.71062 -2.23048 0
M  V30 1518 C 142.513 5.07325 -2.94682 0
M  V30 1519 C 144.865 5.30452 -3.44679 0
M  V30 1520 C 143.529 5.48175 -3.80868 0
M  V30 1521 H 142.799 0.739612 -0.0453381 0
M  V30 1522 H 145.446 1.73648 -0.807389 0
M  V30 1523 H 143.751 3.85202 0.715991 0
M  V30 1524 H 145.448 3.99456 0.351533 0
M  V30 1525 H 142.038 4.14932 -1.07375 0
M  V30 1526 H 146.222 4.55715 -1.96565 0
M  V30 1527 H 141.478 5.19235 -3.22809 0
M  V30 1528 H 145.652 5.61385 -4.12092 0
M  V30 1529 H 143.279 5.92912 -4.75773 0
M  V30 1530 N 144.854 0.36279 1.53368 0
M  V30 1531 C 146.1 -0.228113 2.01513 0
M  V30 1532 C 146.433 -1.48648 1.2497 0
M  V30 1533 O 145.708 -1.91459 0.342616 0
M  V30 1534 C 145.991 -0.522884 3.56284 0
M  V30 1535 C 145.844 0.74892 4.43521 0
M  V30 1536 C 147.163 -1.32461 4.19693 0
M  V30 1537 H 144.282 -0.0814343 0.732487 0
M  V30 1538 H 146.924 0.48713 1.83649 0
M  V30 1539 H 145.074 -1.1322 3.71636 0
M  V30 1540 H 146.746 1.38648 4.39971 0
M  V30 1541 H 144.989 1.36986 4.11603 0
M  V30 1542 H 145.66 0.497667 5.49752 0
M  V30 1543 H 148.136 -0.809203 4.08156 0
M  V30 1544 H 147.012 -1.49961 5.28018 0
M  V30 1545 H 147.273 -2.33232 3.75573 0
M  V30 1546 N 146.332 -1.57332 0.0918853 0
M  V30 1547 C 147.56 -1.98574 -0.581048 0
M  V30 1548 C 147.975 -0.970903 -1.61923 0
M  V30 1549 O 147.332 0.0399054 -1.82456 0
M  V30 1550 C 147.383 -3.39872 -1.23164 0
M  V30 1551 O 147.104 -4.37469 -0.234989 0
M  V30 1552 C 148.605 -3.96099 -1.99049 0
M  V30 1553 H 145.825 -0.65261 -0.156018 0
M  V30 1554 H 148.369 -2.0379 0.170225 0
M  V30 1555 H 146.524 -3.35679 -1.93386 0
M  V30 1556 H 146.938 -5.19751 -0.70418 0
M  V30 1557 H 148.412 -4.97127 -2.39934 0
M  V30 1558 H 148.889 -3.3374 -2.85507 0
M  V30 1559 H 149.495 -4.03755 -1.3365 0
M  V30 1560 N 147.81 0.181792 -1.56548 0
M  V30 1561 C 149.087 0.926765 -1.72251 0
M  V30 1562 C 149.467 2.00831 -0.650386 0
M  V30 1563 O 148.815 2.26008 0.336521 0
M  V30 1564 C 149.025 1.50106 -3.1507 0
M  V30 1565 C 150.373 1.97805 -3.75711 0
M  V30 1566 O 151.397 1.59922 -3.18282 0
M  V30 1567 O 150.256 2.67555 -4.76525 0
M  V30 1568 H 147.35 0.435506 -0.703039 0
M  V30 1569 H 149.896 0.170443 -1.68842 0
M  V30 1570 H 148.668 0.72212 -3.84579 0
M  V30 1571 H 148.291 2.32186 -3.22763 0
M  V30 1572 N 149.288 1.51039 0.449983 0
M  V30 1573 C 150.537 1.62317 1.19733 0
M  V30 1574 C 150.85 0.339101 1.92638 0
M  V30 1575 O 152.056 0.331069 2.69474 0
M  V30 1576 C 150.512 2.86608 2.17678 0
M  V30 1577 C 150.12 4.21972 1.50479 0
M  V30 1578 C 151.864 3.07239 2.92924 0
M  V30 1579 C 149.771 5.37426 2.46834 0
M  V30 1580 H 148.701 0.604532 0.450619 0
M  V30 1581 H 151.352 1.77494 0.465625 0
M  V30 1582 H 149.734 2.65037 2.94231 0
M  V30 1583 H 150.908 4.53878 0.795716 0
M  V30 1584 H 149.223 4.07117 0.874344 0
M  V30 1585 H 151.82 3.90668 3.65079 0
M  V30 1586 H 152.163 2.19807 3.5354 0
M  V30 1587 H 152.696 3.29091 2.23481 0
M  V30 1588 H 149.435 6.27079 1.90926 0
M  V30 1589 H 148.955 5.09912 3.15832 0
M  V30 1590 H 150.634 5.68862 3.08228 0
M  V30 1591 N 150.766 -0.704594 1.40972 0
M  V30 1592 C 151.996 -1.49138 1.42974 0
M  V30 1593 C 152.404 -1.89175 0.0308406 0
M  V30 1594 O 151.747 -1.56734 -0.958138 0
M  V30 1595 C 151.809 -2.79016 2.26694 0
M  V30 1596 C 151.473 -2.61236 3.74973 0
M  V30 1597 C 152.47 -2.27773 4.67349 0
M  V30 1598 C 150.155 -2.77158 4.18914 0
M  V30 1599 C 152.149 -2.10457 6.01653 0
M  V30 1600 C 149.836 -2.59459 5.53285 0
M  V30 1601 C 150.834 -2.26158 6.4447 0
M  V30 1602 O 150.522 -2.08605 7.76363 0
M  V30 1603 H 150.254 -0.466443 0.489292 0
M  V30 1604 H 152.808 -0.8758 1.85793 0
M  V30 1605 H 151.038 -3.42947 1.78673 0
M  V30 1606 H 152.727 -3.40782 2.20504 0
M  V30 1607 H 153.493 -2.15095 4.34694 0
M  V30 1608 H 149.372 -3.02064 3.48251 0
M  V30 1609 H 152.916 -1.84387 6.72791 0
M  V30 1610 H 148.813 -2.71725 5.85522 0
M  V30 1611 H 149.581 -2.23439 7.87412 0
M  V30 1612 N 152.244 -1.26651 -0.937939 0
M  V30 1613 C 153.177 -1.02811 -2.03728 0
M  V30 1614 C 154.155 0.0481915 -1.62529 0
M  V30 1615 O 155.339 -0.0948839 -1.88261 0
M  V30 1616 C 152.466 -0.557517 -3.3408 0
M  V30 1617 C 151.512 -1.62686 -3.94253 0
M  V30 1618 S 152.345 -3.21667 -4.28125 0
M  V30 1619 C 153.501 -2.76384 -5.61572 0
M  V30 1620 H 153.734 -1.95891 -2.23638 0
M  V30 1621 H 151.267 -1.10367 -1.07974 0
M  V30 1622 H 153.225 -0.292674 -4.09455 0
M  V30 1623 H 151.886 0.353062 -3.12109 0
M  V30 1624 H 151.079 -1.24866 -4.88287 0
M  V30 1625 H 150.681 -1.84324 -3.25424 0
M  V30 1626 H 152.973 -2.2105 -6.40424 0
M  V30 1627 H 153.916 -3.69123 -6.0428 0
M  V30 1628 H 154.324 -2.15847 -5.21604 0
M  V30 1629 N 153.722 1.14298 -1.08507 0
M  V30 1630 C 154.685 2.17607 -0.719711 0
M  V30 1631 C 155.685 1.58907 0.245997 0
M  V30 1632 O 156.875 1.74181 0.0254081 0
M  V30 1633 C 154.007 3.40842 -0.0627695 0
M  V30 1634 H 155.2 2.51443 -1.63452 0
M  V30 1635 H 152.753 1.28963 -0.88307 0
M  V30 1636 H 153.488 3.12587 0.863716 0
M  V30 1637 H 153.273 3.84713 -0.757504 0
M  V30 1638 H 154.763 4.17221 0.177786 0
M  V30 1639 N 155.201 0.870884 1.31352 0
M  V30 1640 C 156.449 0.48132 1.96285 0
M  V30 1641 C 156.77 -0.969813 1.69173 0
M  V30 1642 O 156.04 -1.67998 1.00764 0
M  V30 1643 H 154.62 0.175002 0.726212 0
M  V30 1644 H 157.282 1.11087 1.60143 0
M  V30 1645 H 156.378 0.639825 3.05471 0
M  V30 1646 N 156.679 -1.44442 0.630414 0
M  V30 1647 C 157.629 -2.27794 -0.0968103 0
M  V30 1648 C 158.613 -1.38624 -0.816834 0
M  V30 1649 O 159.805 -1.62438 -0.70306 0
M  V30 1650 C 156.934 -3.25929 -1.07819 0
M  V30 1651 C 156.02 -4.22588 -0.357826 0
M  V30 1652 N 156.411 -5.0207 0.613169 0
M  V30 1653 C 154.709 -4.41914 -0.602365 0
M  V30 1654 C 155.41 -5.72351 1.03871 0
M  V30 1655 N 154.386 -5.42287 0.377642 0
M  V30 1656 H 158.188 -2.86653 0.648621 0
M  V30 1657 H 155.702 -1.55871 0.455862 0
M  V30 1658 H 157.699 -3.84399 -1.61378 0
M  V30 1659 H 156.359 -2.68631 -1.82393 0
M  V30 1660 H 157.37 -5.08331 0.990947 0
M  V30 1661 H 154.047 -3.95714 -1.33103 0
M  V30 1662 H 155.437 -6.4619 1.84086 0
M  V30 1663 N 158.157 -0.370918 -1.53173 0
M  V30 1664 C 159.382 0.220293 -2.06227 0
M  V30 1665 C 159.807 1.41243 -1.24225 0
M  V30 1666 O 159.165 1.79387 -0.262645 0
M  V30 1667 C 159.213 0.586663 -3.55796 0
M  V30 1668 O 158.317 1.68317 -3.76488 0
M  V30 1669 H 157.658 0.0308099 -0.663285 0
M  V30 1670 H 160.188 -0.533068 -1.97534 0
M  V30 1671 H 160.198 0.85617 -3.98916 0
M  V30 1672 H 158.873 -0.285013 -4.14922 0
M  V30 1673 H 157.45 1.40881 -3.45264 0
M  V30 1674 N 159.635 1.57281 -0.100228 0
M  V30 1675 C 160.567 2.11342 0.886972 0
M  V30 1676 C 161.58 1.05182 1.24261 0
M  V30 1677 O 162.769 1.32613 1.19483 0
M  V30 1678 C 159.869 2.5825 2.19454 0
M  V30 1679 C 159.042 3.88302 2.01346 0
M  V30 1680 C 158.101 4.21004 3.15661 0
M  V30 1681 O 157.127 4.9014 2.89398 0
M  V30 1682 N 158.329 3.76818 4.41575 0
M  V30 1683 H 161.094 2.96668 0.425216 0
M  V30 1684 H 158.655 1.61678 0.0847334 0
M  V30 1685 H 160.647 2.7717 2.94888 0
M  V30 1686 H 159.217 1.77907 2.57037 0
M  V30 1687 H 158.437 3.7848 1.10212 0
M  V30 1688 H 159.725 4.73375 1.8653 0
M  V30 1689 H 159.123 3.2102 4.65792 0
M  V30 1690 H 157.68 4.00882 5.13942 0
M  V30 1691 N 161.113 -0.173488 1.56642 0
M  V30 1692 C 162.361 -0.888706 1.81512 0
M  V30 1693 C 162.682 -1.82875 0.676872 0
M  V30 1694 O 161.952 -1.93536 -0.303414 0
M  V30 1695 H 160.532 -0.331164 0.669582 0
M  V30 1696 H 163.194 -0.173823 1.94123 0
M  V30 1697 H 162.29 -1.46691 2.75478 0
M  V30 1698 N 162.591 -1.51276 -0.441967 0
M  V30 1699 C 163.839 -1.63392 -1.18943 0
M  V30 1700 C 164.16 -0.350159 -1.9183 0
M  V30 1701 O 163.43 0.633784 -1.85364 0
M  V30 1702 H 162.01 -0.602164 -0.442049 0
M  V30 1703 H 164.672 -1.88186 -0.507165 0
M  V30 1704 H 163.768 -2.45934 -1.92154 0
M  V30 1705 N 164.069 0.697108 -1.41344 0
M  V30 1706 C 164.999 1.82353 -1.45841 0
M  V30 1707 C 165.98 1.67115 -0.317247 0
M  V30 1708 O 167.165 1.86871 -0.528474 0
M  V30 1709 C 164.295 3.20476 -1.33838 0
M  V30 1710 C 163.249 3.50415 -2.4575 0
M  V30 1711 C 162.575 4.87878 -2.18813 0
M  V30 1712 C 163.875 3.49546 -3.88091 0
M  V30 1713 H 165.569 1.78846 -2.40113 0
M  V30 1714 H 163.115 0.859028 -1.15571 0
M  V30 1715 H 165.068 3.98988 -1.35596 0
M  V30 1716 H 163.792 3.24604 -0.360498 0
M  V30 1717 H 162.451 2.74253 -2.43271 0
M  V30 1718 H 162.099 4.8863 -1.19371 0
M  V30 1719 H 161.799 5.08875 -2.93803 0
M  V30 1720 H 163.323 5.68702 -2.22284 0
M  V30 1721 H 164.737 4.18066 -3.92293 0
M  V30 1722 H 163.134 3.82075 -4.62751 0
M  V30 1723 H 164.204 2.48552 -4.16353 0
M  V30 1724 N 165.547 1.27147 0.931209 0
M  V30 1725 C 166.772 1.16191 1.71797 0
M  V30 1726 C 167.197 -0.278004 1.86034 0
M  V30 1727 O 166.555 -1.20137 1.35782 0
M  V30 1728 C 166.603 1.84673 3.09723 0
M  V30 1729 O 165.707 1.14231 3.96264 0
M  V30 1730 H 165.048 0.404303 0.526721 0
M  V30 1731 H 167.578 1.68152 1.1656 0
M  V30 1732 H 167.588 1.91893 3.60057 0
M  V30 1733 H 166.263 2.89421 2.98677 0
M  V30 1734 H 164.84 1.15056 3.54706 0
M  V30 1735 N 167.025 -1.13721 1.09112 0
M  V30 1736 C 168.271 -1.85198 0.826414 0
M  V30 1737 C 168.604 -1.83129 -0.646319 0
M  V30 1738 O 167.879 -1.2671 -1.47563 0
M  V30 1739 C 168.162 -3.33507 1.35812 0
M  V30 1740 C 168.015 -3.44108 2.89672 0
M  V30 1741 C 169.334 -4.28838 0.989256 0
M  V30 1742 H 166.453 -0.67243 0.301675 0
M  V30 1743 H 169.095 -1.33499 1.35197 0
M  V30 1744 H 167.245 -3.77666 0.911082 0
M  V30 1745 H 168.917 -3.08684 3.428 0
M  V30 1746 H 167.16 -2.85087 3.26967 0
M  V30 1747 H 167.831 -4.48388 3.21951 0
M  V30 1748 H 170.307 -3.92734 1.37475 0
M  V30 1749 H 169.183 -5.31051 1.38838 0
M  V30 1750 H 169.444 -4.4198 -0.102924 0
M  V30 1751 N 168.503 -0.877838 -1.30888 0
M  V30 1752 C 169.436 -0.283995 -2.26426 0
M  V30 1753 C 170.414 0.591361 -1.51465 0
M  V30 1754 O 171.598 0.54304 -1.80509 0
M  V30 1755 C 168.725 0.597129 -3.33395 0
M  V30 1756 C 167.771 -0.207937 -4.25993 0
M  V30 1757 S 168.604 -1.59158 -5.11301 0
M  V30 1758 C 169.76 -0.716791 -6.21782 0
M  V30 1759 H 169.993 -1.09383 -2.76446 0
M  V30 1760 H 167.526 -0.676828 -1.38775 0
M  V30 1761 H 169.484 1.09978 -3.95493 0
M  V30 1762 H 168.145 1.38099 -2.82113 0
M  V30 1763 H 167.338 0.464163 -5.01858 0
M  V30 1764 H 166.94 -0.642963 -3.68432 0
M  V30 1765 H 169.232 0.0692833 -6.77465 0
M  V30 1766 H 170.175 -1.44682 -6.93161 0
M  V30 1767 H 170.583 -0.280855 -5.63801 0
M  V30 1768 N 169.982 1.44106 -0.638065 0
M  V30 1769 C 170.912 2.33448 0.0494287 0
M  V30 1770 C 171.893 1.48606 0.827672 0
M  V30 1771 O 173.078 1.77308 0.792173 0
M  V30 1772 C 170.208 3.31771 1.02691 0
M  V30 1773 C 169.162 4.26485 0.359823 0
M  V30 1774 C 168.488 5.14729 1.44769 0
M  V30 1775 C 169.788 5.17056 -0.738296 0
M  V30 1776 H 171.482 2.91183 -0.696636 0
M  V30 1777 H 169.028 1.40014 -0.336456 0
M  V30 1778 H 170.981 3.93161 1.51666 0
M  V30 1779 H 169.705 2.7226 1.80395 0
M  V30 1780 H 168.364 3.66437 -0.10934 0
M  V30 1781 H 168.012 4.51566 2.21578 0
M  V30 1782 H 167.712 5.78913 1.00668 0
M  V30 1783 H 169.236 5.78991 1.93911 0
M  V30 1784 H 170.65 5.72342 -0.331354 0
M  V30 1785 H 169.047 5.89879 -1.10286 0
M  V30 1786 H 170.117 4.57652 -1.60258 0
M  V30 1787 N 171.46 0.379036 1.52974 0
M  V30 1788 C 172.423 -0.448865 2.24762 0
M  V30 1789 C 173.423 -0.998689 1.26027 0
M  V30 1790 O 174.613 -0.882313 1.50203 0
M  V30 1791 C 171.745 -1.62872 2.99476 0
M  V30 1792 H 172.938 0.179491 2.99362 0
M  V30 1793 H 170.491 0.13096 1.5575 0
M  V30 1794 H 171.226 -2.29479 2.29151 0
M  V30 1795 H 171.011 -1.24128 3.71934 0
M  V30 1796 H 172.501 -2.2151 3.5401 0
M  V30 1797 N 172.938 -1.57226 0.108567 0
M  V30 1798 C 173.901 -2.13602 -0.831082 0
M  V30 1799 C 174.901 -1.06841 -1.20173 0
M  V30 1800 O 176.091 -1.32666 -1.12895 0
M  V30 1801 C 173.223 -2.66769 -2.12243 0
M  V30 1802 H 174.416 -2.97951 -0.341317 0
M  V30 1803 H 171.969 -1.55667 -0.14057 0
M  V30 1804 H 172.704 -1.85977 -2.65675 0
M  V30 1805 H 172.489 -3.44839 -1.86625 0
M  V30 1806 H 173.979 -3.10332 -2.79435 0
M  V30 1807 N 174.416 0.165178 -1.56732 0
M  V30 1808 C 175.379 1.18822 -1.95995 0
M  V30 1809 C 176.379 1.3685 -0.84431 0
M  V30 1810 O 177.569 1.34152 -1.11126 0
M  V30 1811 C 174.701 2.5521 -2.26011 0
M  V30 1812 H 175.894 0.851825 -2.87548 0
M  V30 1813 H 173.447 0.407857 -1.50885 0
M  V30 1814 H 174.182 2.93852 -1.37191 0
M  V30 1815 H 173.967 2.43489 -3.07336 0
M  V30 1816 H 175.457 3.28927 -2.57288 0
M  V30 1817 N 175.894 1.51508 0.433938 0
M  V30 1818 C 176.827 1.67756 1.54704 0
M  V30 1819 C 177.805 0.525127 1.53887 0
M  V30 1820 O 178.989 0.749393 1.72963 0
M  V30 1821 C 176.116 1.69424 2.9328 0
M  V30 1822 C 175.162 2.90673 3.12108 0
M  V30 1823 S 175.995 4.51431 2.88046 0
M  V30 1824 C 177.151 4.55849 4.28897 0
M  V30 1825 H 177.384 2.61904 1.40689 0
M  V30 1826 H 174.917 1.41235 0.62386 0
M  V30 1827 H 176.875 1.7107 3.73156 0
M  V30 1828 H 175.536 0.764464 3.04655 0
M  V30 1829 H 174.729 2.88251 4.13434 0
M  V30 1830 H 174.331 2.86786 2.40062 0
M  V30 1831 H 176.623 4.31699 5.22152 0
M  V30 1832 H 177.566 5.57676 4.36351 0
M  V30 1833 H 177.974 3.85137 4.12711 0
M  V30 1834 N 177.372 -0.689602 1.41712 0
M  V30 1835 C 178.282 -1.83314 1.46401 0
M  V30 1836 C 179.298 -1.7036 0.35405 0
M  V30 1837 O 180.474 -1.92171 0.602692 0
M  V30 1838 C 177.539 -3.19344 1.34982 0
M  V30 1839 C 176.6 -3.44363 2.56344 0
M  V30 1840 C 175.833 -4.73904 2.45461 0
M  V30 1841 O 176.056 -5.508 1.48241 0
M  V30 1842 O 174.99 -4.99839 3.35328 0
M  V30 1843 H 178.816 -1.82314 2.42889 0
M  V30 1844 H 176.401 -0.843438 1.23315 0
M  V30 1845 H 178.283 -4.00547 1.3092 0
M  V30 1846 H 176.958 -3.21014 0.41612 0
M  V30 1847 H 175.865 -2.63067 2.65982 0
M  V30 1848 H 177.198 -3.47512 3.48563 0
M  V30 1849 N 178.85 -1.27639 -0.924453 0
M  V30 1850 C 180.266 -1.05113 -1.20097 0
M  V30 1851 C 180.466 0.213262 -2.00368 0
M  V30 1852 O 179.522 0.91787 -2.35226 0
M  V30 1853 C 180.835 -2.29244 -1.94596 0
M  V30 1854 C 182.383 -2.34315 -2.07522 0
M  V30 1855 C 182.858 -3.58183 -2.85427 0
M  V30 1856 N 184.349 -3.5876 -2.92994 0
M  V30 1857 C 185.084 -4.51277 -3.53746 0
M  V30 1858 N 184.58 -5.54102 -4.15863 0
M  V30 1859 N 186.373 -4.38894 -3.51181 0
M  V30 1860 H 178.524 -2.08821 -0.388264 0
M  V30 1861 H 180.787 -0.918568 -0.234385 0
M  V30 1862 H 180.493 -3.21301 -1.43034 0
M  V30 1863 H 180.367 -2.34816 -2.95197 0
M  V30 1864 H 182.754 -1.42762 -2.58269 0
M  V30 1865 H 182.835 -2.32744 -1.06131 0
M  V30 1866 H 182.479 -4.50074 -2.35363 0
M  V30 1867 H 182.409 -3.57006 -3.8711 0
M  V30 1868 H 184.9 -2.84398 -2.4885 0
M  V30 1869 H 185.213 -6.20859 -4.60168 0
M  V30 1870 H 183.558 -5.57941 -4.144 0
M  V30 1871 H 186.749 -3.57772 -3.01856 0
M  V30 1872 H 186.922 -5.11186 -3.98237 0
M  V30 1873 N 180.328 1.1314 -1.09713 0
M  V30 1874 C 181.605 1.80762 -0.747302 0
M  V30 1875 C 181.985 1.96663 0.767265 0
M  V30 1876 O 181.333 1.53706 1.69076 0
M  V30 1877 C 181.543 3.15606 -1.48975 0
M  V30 1878 C 182.891 3.90914 -1.65746 0
M  V30 1879 O 183.915 3.25239 -1.45251 0
M  V30 1880 O 182.774 5.08718 -1.9967 0
M  V30 1881 H 179.868 0.782103 -0.268782 0
M  V30 1882 H 182.414 1.20041 -1.19951 0
M  V30 1883 H 181.186 2.99278 -2.52088 0
M  V30 1884 H 180.809 3.84029 -1.02991 0
M  V30 1885 N 181.806 0.884767 1.30421 0
M  V30 1886 C 183.055 0.499164 1.95426 0
M  V30 1887 C 183.368 -0.95645 1.70621 0
M  V30 1888 O 184.574 -1.44889 2.29607 0
M  V30 1889 C 183.03 0.84177 3.49917 0
M  V30 1890 C 182.638 2.31514 3.83543 0
M  V30 1891 C 184.382 0.525355 4.21237 0
M  V30 1892 C 182.289 2.59939 5.31212 0
M  V30 1893 H 181.219 0.182944 0.73147 0
M  V30 1894 H 183.87 1.07971 1.48373 0
M  V30 1895 H 182.252 0.190311 3.95542 0
M  V30 1896 H 183.426 3.0109 3.48829 0
M  V30 1897 H 181.741 2.59907 3.25326 0
M  V30 1898 H 184.338 0.714762 5.29901 0
M  V30 1899 H 184.681 -0.535222 4.12845 0
M  V30 1900 H 185.214 1.134 3.81294 0
M  V30 1901 H 181.953 3.64736 5.44654 0
M  V30 1902 H 181.473 1.94972 5.67227 0
M  V30 1903 H 183.152 2.45429 5.98643 0
M  V30 1904 N 183.284 -1.43765 0.645699 0
M  V30 1905 C 184.533 -2.01116 0.153412 0
M  V30 1906 C 184.846 -1.51493 -1.23731 0
M  V30 1907 O 186.052 -2.01067 -1.8244 0
M  V30 1908 C 184.508 -3.59206 0.223473 0
M  V30 1909 C 184.116 -4.17823 1.61642 0
M  V30 1910 C 185.86 -4.23972 -0.211597 0
M  V30 1911 C 183.767 -5.68183 1.64081 0
M  V30 1912 H 182.697 -0.752093 0.0535891 0
M  V30 1913 H 185.348 -1.6482 0.806633 0
M  V30 1914 H 183.73 -3.92867 -0.497118 0
M  V30 1915 H 184.904 -3.95674 2.36176 0
M  V30 1916 H 183.219 -3.65399 1.99681 0
M  V30 1917 H 185.816 -5.34275 -0.213112 0
M  V30 1918 H 186.159 -3.97352 -1.24165 0
M  V30 1919 H 186.692 -3.95166 0.456988 0
M  V30 1920 H 183.431 -5.99559 2.64971 0
M  V30 1921 H 182.951 -5.9241 0.938611 0
M  V30 1922 H 184.63 -6.32085 1.3812 0
M  V30 1923 N 184.763 -0.387143 -1.52771 0
M  V30 1924 C 185.71 0.449048 -2.26389 0
M  V30 1925 C 186.68 1.05961 -1.27912 0
M  V30 1926 O 187.865 1.08804 -1.56737 0
M  V30 1927 C 185.005 1.57155 -3.0724 0
M  V30 1928 C 184.118 0.984066 -4.20643 0
M  V30 1929 C 183.253 2.07745 -4.88892 0
M  V30 1930 C 182.292 1.46574 -5.94292 0
M  V30 1931 N 181.429 2.49834 -6.56146 0
M  V30 1932 H 186.269 -0.185205 -2.97424 0
M  V30 1933 H 183.806 -0.103164 -1.46738 0
M  V30 1934 H 185.764 2.23309 -3.52405 0
M  V30 1935 H 184.394 2.17615 -2.38419 0
M  V30 1936 H 183.446 0.212193 -3.79808 0
M  V30 1937 H 184.758 0.497029 -4.96318 0
M  V30 1938 H 183.912 2.81673 -5.3735 0
M  V30 1939 H 182.651 2.59807 -4.12737 0
M  V30 1940 H 181.656 0.711696 -5.45174 0
M  V30 1941 H 182.881 0.953088 -6.72379 0
M  V30 1942 H 180.827 3.0107 -5.82832 0
M  V30 1943 H 180.744 2.05879 -7.27427 0
M  V30 1944 H 182.012 3.23399 -7.09249 0
M  V30 1945 N 186.241 1.57166 -0.116904 0
M  V30 1946 C 187.204 2.14039 0.819742 0
M  V30 1947 C 188.204 1.07477 1.19605 0
M  V30 1948 O 189.394 1.33263 1.1219 0
M  V30 1949 C 186.526 2.67891 2.10826 0
M  V30 1950 H 187.719 2.98128 0.325511 0
M  V30 1951 H 185.272 1.55739 0.132312 0
M  V30 1952 H 186.007 1.87384 2.64685 0
M  V30 1953 H 185.792 3.45823 1.84793 0
M  V30 1954 H 187.282 3.11809 2.77785 0
M  V30 1955 N 187.719 -0.156864 1.56817 0
M  V30 1956 C 188.649 -1.19589 2.00551 0
M  V30 1957 C 189.63 -1.4536 0.883426 0
M  V30 1958 O 190.815 -1.56449 1.15054 0
M  V30 1959 C 187.945 -2.53143 2.37773 0
M  V30 1960 C 186.899 -2.41913 3.53075 0
M  V30 1961 C 186.225 -3.80088 3.76081 0
M  V30 1962 C 187.525 -1.91157 4.86062 0
M  V30 1963 H 189.219 -0.832293 2.87599 0
M  V30 1964 H 186.765 -0.398918 1.38364 0
M  V30 1965 H 188.718 -3.26047 2.66967 0
M  V30 1966 H 187.442 -2.91319 1.4765 0
M  V30 1967 H 186.101 -1.71462 3.24031 0
M  V30 1968 H 185.749 -4.15683 2.83225 0
M  V30 1969 H 185.449 -3.73439 4.53671 0
M  V30 1970 H 186.973 -4.54556 4.0769 0
M  V30 1971 H 188.387 -2.53846 5.14038 0
M  V30 1972 H 186.784 -1.95422 5.67389 0
M  V30 1973 H 187.854 -0.866673 4.77092 0
M  V30 1974 N 189.197 -1.51736 -0.425897 0
M  V30 1975 C 190.446 -1.64201 -1.17136 0
M  V30 1976 C 190.759 -0.369705 -1.92074 0
M  V30 1977 O 191.965 -0.373898 -2.68913 0
M  V30 1978 C 190.421 -2.90035 -2.13091 0
M  V30 1979 C 190.029 -4.24312 -1.43747 0
M  V30 1980 C 191.773 -3.1186 -2.87999 0
M  V30 1981 C 189.68 -5.41285 -2.38253 0
M  V30 1982 H 188.61 -0.611624 -0.440944 0
M  V30 1983 H 191.261 -1.78212 -0.437328 0
M  V30 1984 H 189.643 -2.69684 -2.89977 0
M  V30 1985 H 190.817 -4.55086 -0.723408 0
M  V30 1986 H 189.132 -4.08456 -0.809465 0
M  V30 1987 H 191.729 -3.96427 -3.58817 0
M  V30 1988 H 192.072 -2.25403 -3.49999 0
M  V30 1989 H 192.605 -3.32605 -2.18217 0
M  V30 1990 H 189.344 -6.30037 -1.80925 0
M  V30 1991 H 188.864 -5.14872 -3.0768 0
M  V30 1992 H 190.543 -5.73694 -2.99139 0
M  V30 1993 N 190.675 0.682077 -1.42076 0
M  V30 1994 C 192.086 1.26246 -1.37546 0
M  V30 1995 C 192.437 1.96092 -0.0651481 0
M  V30 1996 O 191.562 1.99587 0.836297 0
M  V30 1997 C 192.157 2.29594 -2.49143 0
M  V30 1998 C 190.716 2.83175 -2.47969 0
M  V30 1999 C 189.863 1.57395 -2.28303 0
M  V30 2000 H 192.814 0.475937 -1.51395 0
M  V30 2001 H 192.835 3.11175 -2.18976 0
M  V30 2002 H 192.347 1.78729 -3.44496 0
M  V30 2003 H 190.448 3.3818 -1.56413 0
M  V30 2004 H 190.561 3.32687 -3.44755 0
M  V30 2005 H 188.925 1.83699 -1.76428 0
M  V30 2006 H 189.708 1.08507 -3.25701 0
M  V30 2007 N 192.153 1.28127 0.917671 0
M  V30 2008 C 193.083 1.14248 2.03641 0
M  V30 2009 C 194.064 0.0412748 1.7005 0
M  V30 2010 O 195.249 0.217566 1.92977 0
M  V30 2011 C 192.379 0.799431 3.37974 0
M  V30 2012 C 191.333 1.85497 3.85713 0
M  V30 2013 C 190.659 1.36565 5.16966 0
M  V30 2014 C 191.959 3.26085 4.08002 0
M  V30 2015 H 193.653 2.07835 2.15511 0
M  V30 2016 H 191.199 1.00064 1.03553 0
M  V30 2017 H 193.152 0.689114 4.15727 0
M  V30 2018 H 191.876 -0.172145 3.26146 0
M  V30 2019 H 190.535 1.95437 3.10161 0
M  V30 2020 H 190.183 0.383253 5.01538 0
M  V30 2021 H 189.883 2.07143 5.49878 0
M  V30 2022 H 191.407 1.26848 5.97279 0
M  V30 2023 H 192.821 3.19089 4.76293 0
M  V30 2024 H 191.218 3.94462 4.52238 0
M  V30 2025 H 192.288 3.70394 3.12948 0
M  V30 2026 N 193.631 -1.12557 1.10312 0
M  V30 2027 C 194.856 -1.88405 0.867085 0
M  V30 2028 C 195.281 -1.79038 -0.576817 0
M  V30 2029 O 194.639 -1.14439 -1.40618 0
M  V30 2030 C 194.687 -3.3563 1.31851 0
M  V30 2031 O 193.791 -4.09565 0.482734 0
M  V30 2032 H 193.132 -0.585455 0.313271 0
M  V30 2033 H 195.662 -1.42352 1.4696 0
M  V30 2034 H 195.672 -3.86469 1.3079 0
M  V30 2035 H 194.347 -3.41765 2.37001 0
M  V30 2036 H 192.924 -3.68695 0.558448 0
M  V30 2037 N 195.109 -0.891671 -1.2995 0
M  V30 2038 C 196.52 -0.563104 -1.78006 0
M  V30 2039 C 196.871 0.920978 -1.73241 0
M  V30 2040 O 195.996 1.71987 -1.31337 0
M  V30 2041 C 196.591 -1.01539 -3.23226 0
M  V30 2042 C 195.15 -0.738124 -3.69092 0
M  V30 2043 C 194.297 -1.19461 -2.50249 0
M  V30 2044 H 197.248 -1.07522 -1.16725 0
M  V30 2045 H 197.269 -0.347217 -3.78912 0
M  V30 2046 H 196.781 -2.09555 -3.26662 0
M  V30 2047 H 194.882 0.329766 -3.71138 0
M  V30 2048 H 194.995 -1.33037 -4.60259 0
M  V30 2049 H 193.359 -0.613787 -2.47194 0
M  V30 2050 H 194.142 -2.28265 -2.56417 0
M  V30 2051 N 196.587 1.43421 -0.653314 0
M  V30 2052 C 197.55 2.29182 0.0287951 0
M  V30 2053 C 198.55 1.42213 0.750465 0
M  V30 2054 O 199.74 1.63843 0.591701 0
M  V30 2055 C 196.872 3.24278 1.05151 0
M  V30 2056 H 198.065 2.90985 -0.725786 0
M  V30 2057 H 195.618 1.50702 -0.414545 0
M  V30 2058 H 196.353 2.6737 1.83532 0
M  V30 2059 H 196.138 3.88396 0.537687 0
M  V30 2060 H 197.628 3.88647 1.52786 0
M  V30 2061 N 198.065 0.39524 1.52563 0
M  V30 2062 C 199.028 -0.425001 2.25225 0
M  V30 2063 C 200.028 -0.985266 1.27079 0
M  V30 2064 O 201.218 -0.866332 1.5113 0
M  V30 2065 C 198.35 -1.59686 3.01186 0
M  V30 2066 H 199.543 0.211233 2.99155 0
M  V30 2067 H 197.096 0.147472 1.55603 0
M  V30 2068 H 197.831 -2.27035 2.31572 0
M  V30 2069 H 197.616 -1.20176 3.73229 0
M  V30 2070 H 199.106 -2.17743 3.5634 0
M  V30 2071 N 199.544 -1.57102 0.125237 0
M  V30 2072 C 200.477 -2.11371 -0.860094 0
M  V30 2073 C 201.455 -1.03168 -1.25679 0
M  V30 2074 O 202.639 -1.30862 -1.35674 0
M  V30 2075 C 199.766 -2.61555 -2.1519 0
M  V30 2076 C 198.812 -3.81701 -1.9028 0
M  V30 2077 S 199.645 -5.23797 -1.11343 0
M  V30 2078 C 200.801 -5.77353 -2.41689 0
M  V30 2079 H 201.034 -2.94617 -0.39852 0
M  V30 2080 H 198.567 -1.54145 -0.0886555 0
M  V30 2081 H 200.525 -2.91122 -2.89411 0
M  V30 2082 H 199.186 -1.78479 -2.58465 0
M  V30 2083 H 198.379 -4.14985 -2.86014 0
M  V30 2084 H 197.981 -3.52783 -1.24178 0
M  V30 2085 H 200.273 -5.87458 -3.37489 0
M  V30 2086 H 201.216 -6.75323 -2.12942 0
M  V30 2087 H 201.624 -5.05457 -2.51342 0
M  V30 2088 N 201.022 0.148545 -1.56898 0
M  V30 2089 C 202.271 0.85984 -1.82454 0
M  V30 2090 C 202.584 1.82406 -0.706229 0
M  V30 2091 O 203.79 2.57938 -0.847349 0
M  V30 2092 C 202.246 1.57967 -3.2338 0
M  V30 2093 C 201.854 0.65794 -4.43142 0
M  V30 2094 C 203.598 2.27784 -3.58211 0
M  V30 2095 C 201.505 1.3793 -5.75091 0
M  V30 2096 H 200.435 0.324834 -0.68044 0
M  V30 2097 H 203.086 0.112588 -1.83154 0
M  V30 2098 H 201.468 2.37249 -3.17063 0
M  V30 2099 H 202.642 -0.0995497 -4.60692 0
M  V30 2100 H 200.957 0.0682643 -4.16344 0
M  V30 2101 H 203.554 2.8239 -4.54048 0
M  V30 2102 H 203.897 3.04204 -2.84193 0
M  V30 2103 H 204.43 1.55421 -3.66182 0
M  V30 2104 H 201.169 0.656982 -6.52199 0
M  V30 2105 H 200.689 2.10954 -5.61479 0
M  V30 2106 H 202.368 1.92063 -6.17835 0
M  V30 2107 N 202.5 1.5196 0.417844 0
M  V30 2108 C 203.911 1.57851 0.997 0
M  V30 2109 C 204.262 0.413714 1.91789 0
M  V30 2110 O 203.387 -0.467057 2.113 0
M  V30 2111 C 203.982 2.86085 1.81496 0
M  V30 2112 C 202.541 2.94483 2.34428 0
M  V30 2113 C 201.688 2.52707 1.14169 0
M  V30 2114 H 204.639 1.57455 0.198392 0
M  V30 2115 H 204.66 2.70947 2.67148 0
M  V30 2116 H 204.172 3.70842 1.14446 0
M  V30 2117 H 202.273 2.142 3.04875 0
M  V30 2118 H 202.386 3.98546 2.65891 0
M  V30 2119 H 200.75 2.06353 1.49301 0
M  V30 2120 H 201.533 3.39828 0.486999 0
M  V30 2121 N 203.978 -0.674533 1.42435 0
M  V30 2122 C 204.888 -1.81751 1.48337 0
M  V30 2123 C 205.904 -1.69975 0.372099 0
M  V30 2124 O 207.08 -1.91521 0.62304 0
M  V30 2125 C 204.145 -3.17895 1.38361 0
M  V30 2126 C 203.206 -3.41625 2.59982 0
M  V30 2127 C 202.439 -4.71274 2.50473 0
M  V30 2128 O 202.662 -5.49197 1.54075 0
M  V30 2129 O 201.596 -4.96254 3.4061 0
M  V30 2130 H 205.422 -1.79728 2.44809 0
M  V30 2131 H 203.007 -0.830312 1.24202 0
M  V30 2132 H 204.889 -3.99136 1.35161 0
M  V30 2133 H 203.564 -3.20555 0.450144 0
M  V30 2134 H 202.471 -2.60231 2.68757 0
M  V30 2135 H 203.804 -3.43796 3.52229 0
M  V30 2136 N 205.456 -1.28612 -0.910864 0
M  V30 2137 C 206.705 -1.15311 -1.65488 0
M  V30 2138 C 207.018 0.296999 -1.93332 0
M  V30 2139 O 208.224 0.551168 -2.65847 0
M  V30 2140 C 206.68 -2.01599 -2.98137 0
M  V30 2141 C 206.288 -3.51367 -2.7793 0
M  V30 2142 C 208.032 -1.96993 -3.76024 0
M  V30 2143 C 205.939 -4.29797 -4.06237 0
M  V30 2144 H 204.869 -0.42796 -0.620779 0
M  V30 2145 H 207.52 -1.53166 -1.01057 0
M  V30 2146 H 205.902 -1.56603 -3.63719 0
M  V30 2147 H 207.076 -4.0434 -2.21011 0
M  V30 2148 H 205.391 -3.57529 -2.13452 0
M  V30 2149 H 207.988 -2.52856 -4.71135 0
M  V30 2150 H 208.331 -0.94733 -4.05378 0
M  V30 2151 H 208.864 -2.39973 -3.17266 0
M  V30 2152 H 205.603 -5.32648 -3.82055 0
M  V30 2153 H 205.123 -3.81596 -4.62757 0
M  V30 2154 H 206.802 -4.39869 -4.74473 0
M  V30 2155 N 206.934 1.1197 -1.10907 0
M  V30 2156 C 207.897 2.16031 -0.765707 0
M  V30 2157 C 208.897 1.59393 0.212235 0
M  V30 2158 O 210.087 1.74196 -0.0115441 0
M  V30 2159 C 207.219 3.40632 -0.135053 0
M  V30 2160 H 208.412 2.47919 -1.68748 0
M  V30 2161 H 205.965 1.27061 -0.910226 0
M  V30 2162 H 206.7 3.14348 0.797218 0
M  V30 2163 H 206.485 3.8302 -0.838937 0
M  V30 2164 H 207.975 4.17505 0.0892469 0
M  V30 2165 N 208.412 0.89855 1.29475 0
M  V30 2166 C 209.828 0.594483 1.48115 0
M  V30 2167 C 210.028 -0.86431 1.82022 0
M  V30 2168 O 209.084 -1.64457 1.91599 0
M  V30 2169 C 210.397 1.51932 2.59494 0
M  V30 2170 C 211.945 1.5244 2.7337 0
M  V30 2171 C 212.42 2.43548 3.87877 0
M  V30 2172 N 213.911 2.41589 3.95208 0
M  V30 2173 C 214.646 3.08789 4.83153 0
M  V30 2174 N 214.142 3.85265 5.75798 0
M  V30 2175 N 215.935 2.97952 4.76635 0
M  V30 2176 H 208.086 1.84207 1.05742 0
M  V30 2177 H 210.349 0.789251 0.525154 0
M  V30 2178 H 210.055 2.55865 2.41301 0
M  V30 2179 H 209.929 1.23899 3.56271 0
M  V30 2180 H 212.316 0.492518 2.90961 0
M  V30 2181 H 212.397 1.8451 1.77172 0
M  V30 2182 H 212.041 3.46829 3.71041 0
M  V30 2183 H 211.971 2.08788 4.83441 0
M  V30 2184 H 214.462 1.86025 3.28943 0
M  V30 2185 H 214.775 4.33598 6.39697 0
M  V30 2186 H 213.12 3.89371 5.75687 0
M  V30 2187 H 216.311 2.37723 4.03244 0
M  V30 2188 H 216.484 3.50599 5.44962 0
M  V30 2189 N 209.89 -1.43072 0.660911 0
M  V30 2190 C 211.118 -2.06067 0.185422 0
M  V30 2191 C 211.533 -1.49582 -1.15198 0
M  V30 2192 O 210.89 -0.630134 -1.71276 0
M  V30 2193 C 210.941 -3.61371 0.0966523 0
M  V30 2194 O 210.662 -4.15758 1.38119 0
M  V30 2195 C 212.163 -4.41455 -0.403996 0
M  V30 2196 H 209.383 -0.664459 0.0934604 0
M  V30 2197 H 211.927 -1.83447 0.90373 0
M  V30 2198 H 210.082 -3.8315 -0.572259 0
M  V30 2199 H 210.496 -5.09499 1.24542 0
M  V30 2200 H 211.97 -5.50437 -0.415045 0
M  V30 2201 H 212.447 -4.15036 -1.43674 0
M  V30 2202 H 213.053 -4.24663 0.232691 0
M  V30 2203 N 211.368 -0.403325 -1.52352 0
M  V30 2204 C 212.616 0.174003 -2.0135 0
M  V30 2205 C 212.937 1.46139 -1.29106 0
M  V30 2206 O 212.207 1.91448 -0.415253 0
M  V30 2207 H 210.787 0.0672911 -0.743963 0
M  V30 2208 H 213.449 -0.538235 -1.87321 0
M  V30 2209 H 212.545 0.374254 -3.09848 0
M  V30 2210 N 212.846 1.57033 -0.133567 0
M  V30 2211 C 213.756 2.19632 0.824564 0
M  V30 2212 C 214.772 1.17666 1.28182 0
M  V30 2213 O 215.948 1.50193 1.3418 0
M  V30 2214 C 213.013 2.79499 2.05137 0
M  V30 2215 C 212.074 3.96548 1.64464 0
M  V30 2216 C 211.307 4.5355 2.81297 0
M  V30 2217 O 211.53 4.09438 3.97136 0
M  V30 2218 O 210.464 5.44018 2.57542 0
M  V30 2219 H 214.29 3.01991 0.321766 0
M  V30 2220 H 211.875 1.49112 0.0927889 0
M  V30 2221 H 213.757 3.17602 2.7696 0
M  V30 2222 H 212.432 2.00162 2.54395 0
M  V30 2223 H 211.339 3.63186 0.897048 0
M  V30 2224 H 212.672 4.77364 1.19934 0
M  V30 2225 N 214.325 -0.140222 1.56975 0
M  V30 2226 C 215.255 -1.17456 2.01808 0
M  V30 2227 C 216.236 -1.44415 0.898794 0
M  V30 2228 O 217.421 -1.5522 1.16707 0
M  V30 2229 C 214.551 -2.50607 2.40444 0
M  V30 2230 C 213.505 -2.38155 3.55621 0
M  V30 2231 C 212.831 -3.76078 3.80091 0
M  V30 2232 C 214.131 -1.85991 4.88062 0
M  V30 2233 H 215.825 -0.801743 2.88466 0
M  V30 2234 H 213.371 -0.38422 1.38779 0
M  V30 2235 H 215.324 -3.23197 2.7041 0
M  V30 2236 H 214.048 -2.89737 1.50732 0
M  V30 2237 H 212.707 -1.68016 3.25832 0
M  V30 2238 H 212.355 -4.12656 2.87618 0
M  V30 2239 H 212.055 -3.68606 4.57606 0
M  V30 2240 H 213.579 -4.50206 4.12488 0
M  V30 2241 H 214.993 -2.4838 5.16701 0
M  V30 2242 H 213.39 -1.89393 5.6943 0
M  V30 2243 H 214.46 -0.816023 4.77984 0
M  V30 2244 N 215.803 -1.52179 -0.40978 0
M  V30 2245 C 216.733 -1.78435 -1.5061 0
M  V30 2246 C 217.714 -0.635295 -1.57791 0
M  V30 2247 O 218.899 -0.880823 -1.73076 0
M  V30 2248 C 216.029 -1.93444 -2.88439 0
M  V30 2249 C 214.983 -3.09038 -2.96108 0
M  V30 2250 C 214.309 -3.09268 -4.36185 0
M  V30 2251 C 215.609 -4.48508 -2.67652 0
M  V30 2252 H 217.303 -2.70237 -1.28889 0
M  V30 2253 H 214.849 -1.30036 -0.618605 0
M  V30 2254 H 216.802 -2.10394 -3.65119 0
M  V30 2255 H 215.526 -0.983129 -3.11452 0
M  V30 2256 H 214.185 -2.91837 -2.21872 0
M  V30 2257 H 213.833 -2.11861 -4.56206 0
M  V30 2258 H 213.533 -3.86907 -4.42241 0
M  V30 2259 H 215.057 -3.28348 -5.14801 0
M  V30 2260 H 216.471 -4.65918 -3.34056 0
M  V30 2261 H 214.868 -5.28059 -2.85085 0
M  V30 2262 H 215.938 -4.56649 -1.63095 0
M  V30 2263 N 217.281 0.66697 -1.42791 0
M  V30 2264 C 218.529 1.42417 -1.43394 0
M  V30 2265 C 218.85 1.94925 -0.0542373 0
M  V30 2266 O 218.12 1.73564 0.908415 0
M  V30 2267 H 216.7 0.528515 -0.527902 0
M  V30 2268 H 219.362 0.787562 -1.78279 0
M  V30 2269 H 218.458 2.27333 -2.13837 0
M  V30 2270 N 218.759 1.29093 0.90403 0
M  V30 2271 C 219.689 1.16401 2.02418 0
M  V30 2272 C 220.67 0.0593085 1.69997 0
M  V30 2273 O 221.855 0.238021 1.92736 0
M  V30 2274 C 218.985 0.835233 3.37107 0
M  V30 2275 C 217.939 1.89578 3.83724 0
M  V30 2276 C 217.265 1.42041 5.15489 0
M  V30 2277 C 218.565 3.30394 4.04521 0
M  V30 2278 H 220.259 2.10109 2.13295 0
M  V30 2279 H 217.805 1.01157 1.02486 0
M  V30 2280 H 219.758 0.733169 4.14973 0
M  V30 2281 H 218.482 -0.137543 3.2631 0
M  V30 2282 H 217.141 1.98715 3.08071 0
M  V30 2283 H 216.789 0.436426 5.01103 0
M  V30 2284 H 216.489 2.12964 5.4765 0
M  V30 2285 H 218.013 1.33176 5.959 0
M  V30 2286 H 219.427 3.24123 4.72882 0
M  V30 2287 H 217.824 3.99237 4.48029 0
M  V30 2288 H 218.894 3.73692 3.09002 0
M  V30 2289 N 220.237 -1.11381 1.11499 0
M  V30 2290 C 221.184 -2.17439 0.773887 0
M  V30 2291 C 222.154 -1.64132 -0.254899 0
M  V30 2292 O 223.339 -1.90345 -0.13168 0
M  V30 2293 C 220.479 -3.44373 0.223917 0
M  V30 2294 C 219.592 -4.1168 1.30934 0
M  V30 2295 C 218.727 -5.263 0.71984 0
M  V30 2296 C 217.766 -5.85493 1.78507 0
M  V30 2297 N 216.903 -6.91507 1.21502 0
M  V30 2298 H 221.743 -2.45962 1.68246 0
M  V30 2299 H 219.28 -1.20744 0.840191 0
M  V30 2300 H 221.238 -4.17047 -0.112921 0
M  V30 2301 H 219.868 -3.16232 -0.647851 0
M  V30 2302 H 218.92 -3.37073 1.76312 0
M  V30 2303 H 220.232 -4.51729 2.11524 0
M  V30 2304 H 219.386 -6.05785 0.333094 0
M  V30 2305 H 218.125 -4.87559 -0.117377 0
M  V30 2306 H 217.13 -5.04686 2.18111 0
M  V30 2307 H 218.355 -6.26301 2.62533 0
M  V30 2308 H 216.301 -6.54783 0.399455 0
M  V30 2309 H 216.218 -7.30214 1.95763 0
M  V30 2310 H 217.486 -7.74795 0.855181 0
M  V30 2311 N 221.715 -0.905404 -1.28997 0
M  V30 2312 C 222.962 -0.534248 -1.95325 0
M  V30 2313 C 223.29 0.920535 -1.71337 0
M  V30 2314 O 222.545 1.66861 -1.02254 0
M  V30 2315 C 222.844 -0.779906 -3.48787 0
M  V30 2316 C 222.51 -2.21293 -3.92861 0
M  V30 2317 C 221.172 -2.60475 -4.04606 0
M  V30 2318 C 223.524 -3.14587 -4.15553 0
M  V30 2319 C 220.852 -3.9212 -4.36416 0
M  V30 2320 C 223.204 -4.45787 -4.48839 0
M  V30 2321 C 221.868 -4.84834 -4.58794 0
M  V30 2322 H 221.138 -0.195495 -0.714747 0
M  V30 2323 H 223.785 -1.14514 -1.53488 0
M  V30 2324 H 222.09 -0.0861365 -3.91705 0
M  V30 2325 H 223.787 -0.472029 -3.98212 0
M  V30 2326 H 220.377 -1.89887 -3.84241 0
M  V30 2327 H 224.561 -2.85528 -4.0594 0
M  V30 2328 H 219.817 -4.22086 -4.42327 0
M  V30 2329 H 223.991 -5.18098 -4.65346 0
M  V30 2330 H 221.618 -5.86877 -4.83197 0
M  V30 2331 N 223.193 1.4272 -0.668489 0
M  V30 2332 C 224.47 1.95248 -0.117373 0
M  V30 2333 C 224.85 1.60919 1.36632 0
M  V30 2334 O 224.198 0.902095 2.09939 0
M  V30 2335 C 224.408 3.46927 -0.379806 0
M  V30 2336 C 225.756 4.23588 -0.292923 0
M  V30 2337 O 226.78 3.5482 -0.313204 0
M  V30 2338 O 225.639 5.46017 -0.229697 0
M  V30 2339 H 222.733 0.827 0.00079152 0
M  V30 2340 H 225.279 1.52581 -0.742783 0
M  V30 2341 H 224.051 3.65096 -1.40786 0
M  V30 2342 H 223.674 3.96627 0.277923 0
M  V30 2343 N 224.671 0.411399 1.52136 0
M  V30 2344 C 226.082 -0.0576826 1.86611 0
M  V30 2345 C 226.433 -1.44238 1.33003 0
M  V30 2346 O 225.558 -2.05759 0.670228 0
M  V30 2347 C 226.153 -0.111448 3.38617 0
M  V30 2348 C 224.712 -0.52487 3.72723 0
M  V30 2349 C 223.859 0.299176 2.75681 0
M  V30 2350 H 226.81 0.628368 1.4573 0
M  V30 2351 H 226.831 -0.926252 3.69054 0
M  V30 2352 H 226.343 0.896488 3.77604 0
M  V30 2353 H 224.444 -1.53936 3.39315 0
M  V30 2354 H 224.557 -0.267681 4.78352 0
M  V30 2355 H 222.921 -0.238814 2.53578 0
M  V30 2356 H 223.704 1.3055 3.17508 0
M  V30 2357 N 226.149 -1.5696 0.141893 0
M  V30 2358 C 227.059 -2.20066 -0.812905 0
M  V30 2359 C 228.075 -1.18344 -1.27557 0
M  V30 2360 O 229.251 -1.50902 -1.33381 0
M  V30 2361 C 226.316 -2.80583 -2.03652 0
M  V30 2362 C 225.377 -3.97414 -1.62359 0
M  V30 2363 C 224.61 -4.55036 -2.78887 0
M  V30 2364 O 224.833 -4.11538 -3.94959 0
M  V30 2365 O 223.767 -5.45376 -2.54653 0
M  V30 2366 H 227.593 -3.02157 -0.305746 0
M  V30 2367 H 225.178 -1.49159 -0.0848799 0
M  V30 2368 H 227.06 -3.19067 -2.75272 0
M  V30 2369 H 225.735 -2.01508 -2.5333 0
M  V30 2370 H 224.642 -3.63656 -0.877775 0
M  V30 2371 H 225.975 -4.77994 -1.17401 0
M  V30 2372 N 227.627 0.131896 -1.57047 0
M  V30 2373 C 228.575 1.18146 -2.0036 0
M  V30 2374 C 229.569 1.43614 -0.898406 0
M  V30 2375 O 230.775 1.43729 -1.08361 0
M  V30 2376 H 227.15 0.398042 -0.638018 0
M  V30 2377 H 229.121 0.789564 -2.87765 0
M  V30 2378 C 227.87 2.50341 -2.41298 0
M  V30 2379 H 227.193 2.31578 -3.25902 0
M  V30 2380 H 228.633 3.22371 -2.75414 0
M  V30 2381 C 227.092 3.11984 -1.27153 0
M  V30 2382 O 227.622 3.97484 -0.580459 0
M  V30 2383 N 225.828 2.71662 -1.03189 0
M  V30 2384 H 225.375 2.02231 -1.59564 0
M  V30 2385 H 225.333 3.13238 -0.270077 0
M  V30 2386 N 229.106 1.52395 0.401703 0
M  V30 2387 C 230.355 1.66044 1.14509 0
M  V30 2388 C 230.668 0.400216 1.91462 0
M  V30 2389 O 231.874 0.416632 2.68284 0
M  V30 2390 C 230.33 2.93388 2.0845 0
M  V30 2391 C 229.938 4.26545 1.36978 0
M  V30 2392 C 231.682 3.16402 2.83001 0
M  V30 2393 C 229.589 5.45007 2.29611 0
M  V30 2394 H 228.519 0.618562 0.431158 0
M  V30 2395 H 231.17 1.78886 0.40892 0
M  V30 2396 H 229.552 2.74263 2.8565 0
M  V30 2397 H 230.726 4.56179 0.650916 0
M  V30 2398 H 229.041 4.09692 0.74438 0
M  V30 2399 H 231.638 4.02085 3.52465 0
M  V30 2400 H 231.981 2.30943 3.46368 0
M  V30 2401 H 232.514 3.36034 2.12898 0
M  V30 2402 H 229.253 6.32835 1.70879 0
M  V30 2403 H 228.773 5.19702 2.9945 0
M  V30 2404 H 230.452 5.7838 2.89974 0
M  V30 2405 N 230.584 -0.659388 1.43143 0
M  V30 2406 C 231.995 -1.24041 1.39537 0
M  V30 2407 C 232.346 -1.95963 0.0963364 0
M  V30 2408 O 231.471 -2.00892 -0.804438 0
M  V30 2409 C 232.066 -2.25601 2.52764 0
M  V30 2410 C 230.625 -2.79195 2.52443 0
M  V30 2411 C 229.772 -1.53743 2.30778 0
M  V30 2412 H 232.723 -0.451792 1.52133 0
M  V30 2413 H 232.744 -3.07651 2.23899 0
M  V30 2414 H 232.256 -1.73226 3.47296 0
M  V30 2415 H 230.357 -3.35649 1.61773 0
M  V30 2416 H 230.47 -3.2716 3.50004 0
M  V30 2417 H 228.834 -1.80869 1.79328 0
M  V30 2418 H 229.617 -1.03312 3.27386 0
M  V30 2419 N 232.062 -1.29571 -0.897171 0
M  V30 2420 C 233.339 -1.08365 -1.62839 0
M  V30 2421 C 233.719 0.371331 -2.07808 0
M  V30 2422 O 233.067 1.3606 -1.83576 0
M  V30 2423 C 233.277 -2.0735 -2.80726 0
M  V30 2424 C 234.625 -2.38406 -3.51351 0
M  V30 2425 O 235.649 -2.05564 -2.90898 0
M  V30 2426 O 234.508 -2.9453 -4.60341 0
M  V30 2427 H 231.602 -0.415345 -0.715134 0
M  V30 2428 H 234.148 -1.40952 -0.945018 0
M  V30 2429 H 232.92 -3.05339 -2.44711 0
M  V30 2430 H 232.543 -1.75507 -3.56767 0
M  V30 2431 N 233.54 1.10788 -1.12088 0
M  V30 2432 C 234.45 2.20599 -0.798338 0
M  V30 2433 C 235.466 1.72712 0.21135 0
M  V30 2434 O 236.642 2.01348 0.0458477 0
M  V30 2435 C 233.707 3.45771 -0.253674 0
M  V30 2436 C 232.768 4.08411 -1.32283 0
M  V30 2437 C 232.001 5.27608 -0.80406 0
M  V30 2438 O 232.224 5.69241 0.363478 0
M  V30 2439 O 231.158 5.8101 -1.57198 0
M  V30 2440 H 234.984 2.50614 -1.7154 0
M  V30 2441 H 232.569 1.19454 -0.897275 0
M  V30 2442 H 234.451 4.21376 0.0453691 0
M  V30 2443 H 233.126 3.1739 0.636005 0
M  V30 2444 H 232.033 3.34507 -1.67499 0
M  V30 2445 H 233.366 4.40986 -2.18614 0
M  V30 2446 N 235.018 0.912232 1.28515 0
M  V30 2447 C 235.948 0.416403 2.29757 0
M  V30 2448 C 236.929 -0.515194 1.6211 0
M  V30 2449 O 238.114 -0.423253 1.89532 0
M  V30 2450 C 235.244 -0.34572 3.45575 0
M  V30 2451 C 234.198 0.496599 4.25109 0
M  V30 2452 C 233.524 -0.393771 5.33248 0
M  V30 2453 C 234.824 1.75307 4.92001 0
M  V30 2454 H 236.518 1.26249 2.7148 0
M  V30 2455 H 234.064 0.608515 1.30511 0
M  V30 2456 H 236.017 -0.703422 4.15488 0
M  V30 2457 H 234.741 -1.2257 3.02728 0
M  V30 2458 H 233.4 0.8368 3.56922 0
M  V30 2459 H 233.048 -1.27225 4.86644 0
M  V30 2460 H 232.748 0.166209 5.87365 0
M  V30 2461 H 234.272 -0.747389 6.06009 0
M  V30 2462 H 235.686 1.46437 5.54283 0
M  V30 2463 H 234.083 2.25534 5.56106 0
M  V30 2464 H 235.153 2.48176 4.16577 0
M  V30 2465 N 236.496 -1.42363 0.676048 0
M  V30 2466 C 237.773 -1.95183 0.127726 0
M  V30 2467 C 238.153 -1.61641 -1.35777 0
M  V30 2468 O 237.501 -0.913216 -2.09458 0
M  V30 2469 C 237.711 -3.46721 0.398199 0
M  V30 2470 C 239.059 -4.23427 0.315383 0
M  V30 2471 O 240.083 -3.54649 0.332016 0
M  V30 2472 O 238.942 -5.45888 0.25865 0
M  V30 2473 H 236.036 -0.826992 0.00359427 0
M  V30 2474 H 238.582 -1.52184 0.750864 0
M  V30 2475 H 237.354 -3.64344 1.4272 0
M  V30 2476 H 236.977 -3.96769 -0.256885 0
M  V30 2477 N 237.974 -0.419461 -1.51915 0
M  V30 2478 C 238.937 0.389116 -2.25873 0
M  V30 2479 C 239.937 0.964924 -1.28631 0
M  V30 2480 O 241.127 0.842179 -1.52489 0
M  V30 2481 C 238.259 1.54874 -3.03689 0
M  V30 2482 H 239.452 -0.258799 -2.98781 0
M  V30 2483 H 237.005 -0.172209 -1.55348 0
M  V30 2484 H 237.74 2.23323 -2.35154 0
M  V30 2485 H 237.525 1.14223 -3.75094 0
M  V30 2486 H 239.015 2.12046 -3.59759 0
M  V30 2487 N 239.452 1.56882 -0.150215 0
M  V30 2488 C 240.698 1.97299 0.494427 0
M  V30 2489 C 241.053 1.0338 1.62266 0
M  V30 2490 O 240.346 0.0694497 1.91474 0
M  V30 2491 C 240.54 3.41801 1.04437 0
M  V30 2492 C 240.369 4.49691 -0.0290451 0
M  V30 2493 C 239.139 5.03095 -0.47156 0
M  V30 2494 C 241.337 5.07693 -0.821703 0
M  V30 2495 N 239.319 5.94593 -1.52749 0
M  V30 2496 C 240.69 5.95431 -1.72805 0
M  V30 2497 C 242.745 4.90256 -0.869134 0
M  V30 2498 C 241.448 6.67599 -2.67777 0
M  V30 2499 C 243.474 5.63127 -1.8067 0
M  V30 2500 C 242.836 6.50576 -2.70057 0
M  V30 2501 H 238.935 0.76755 0.149639 0
M  V30 2502 H 241.519 1.93145 -0.24556 0
M  V30 2503 H 239.69 3.46541 1.75396 0
M  V30 2504 H 241.422 3.69272 1.6559 0
M  V30 2505 H 238.177 4.73543 -0.0732101 0
M  V30 2506 H 238.601 6.45047 -2.05531 0
M  V30 2507 H 243.243 4.22363 -0.192134 0
M  V30 2508 H 240.961 7.34717 -3.36476 0
M  V30 2509 H 244.547 5.51629 -1.84924 0
M  V30 2510 H 243.427 7.05974 -3.41424 0
M  V30 2511 N 240.93 -0.123565 1.57115 0
M  V30 2512 C 242.207 -0.862196 1.75572 0
M  V30 2513 C 242.587 -1.98279 0.724475 0
M  V30 2514 O 241.935 -2.27102 -0.252407 0
M  V30 2515 C 242.145 -1.38309 3.20424 0
M  V30 2516 C 243.493 -1.83724 3.82793 0
M  V30 2517 O 244.517 -1.47999 3.23998 0
M  V30 2518 O 243.376 -2.49685 4.86127 0
M  V30 2519 H 240.47 -0.409113 0.718718 0
M  V30 2520 H 243.016 -0.107661 1.69358 0
M  V30 2521 H 241.788 -0.578889 3.86994 0
M  V30 2522 H 241.411 -2.20046 3.31158 0
M  V30 2523 N 242.408 -1.52605 -0.393616 0
M  V30 2524 C 243.656 -1.67093 -1.13685 0
M  V30 2525 C 243.977 -0.411011 -1.90619 0
M  V30 2526 O 243.247 0.574491 -1.87287 0
M  V30 2527 H 241.827 -0.615923 -0.422668 0
M  V30 2528 H 244.489 -1.89704 -0.447039 0
M  V30 2529 H 243.585 -2.51922 -1.84232 0
M  V30 2530 N 243.887 0.651787 -1.4349 0
M  V30 2531 C 245.303 0.96762 -1.26922 0
M  V30 2532 C 245.503 2.00602 -0.189982 0
M  V30 2533 O 244.559 2.48793 0.431107 0
M  V30 2534 C 245.872 1.45052 -2.63401 0
M  V30 2535 C 247.42 1.5671 -2.70945 0
M  V30 2536 C 247.895 2.0839 -4.07845 0
M  V30 2537 N 249.386 2.1569 -4.09917 0
M  V30 2538 C 250.121 2.56804 -5.12679 0
M  V30 2539 N 249.617 2.97203 -6.25813 0
M  V30 2540 N 251.41 2.56756 -5.00033 0
M  V30 2541 H 243.561 -0.0353158 -2.12371 0
M  V30 2542 H 245.824 0.0467858 -0.946845 0
M  V30 2543 H 245.53 0.761926 -3.43348 0
M  V30 2544 H 245.404 2.42529 -2.88894 0
M  V30 2545 H 247.791 2.2467 -1.9133 0
M  V30 2546 H 247.872 0.57662 -2.49216 0
M  V30 2547 H 247.516 1.41031 -4.87927 0
M  V30 2548 H 247.446 3.08271 -4.26938 0
M  V30 2549 H 249.937 1.87237 -3.28254 0
M  V30 2550 H 250.25 3.27328 -7.00055 0
M  V30 2551 H 248.595 2.95004 -6.29283 0
M  V30 2552 H 251.786 2.24572 -4.10713 0
M  V30 2553 H 251.959 2.88475 -5.80247 0
M  V30 2554 N 245.365 1.30045 0.890287 0
M  V30 2555 C 246.312 1.15976 1.99545 0
M  V30 2556 C 247.282 0.0506202 1.66023 0
M  V30 2557 O 248.467 0.219847 1.89529 0
M  V30 2558 C 245.607 0.852054 3.34416 0
M  V30 2559 C 244.72 2.04255 3.80662 0
M  V30 2560 C 243.855 1.6734 5.04154 0
M  V30 2561 C 242.894 2.82916 5.42794 0
M  V30 2562 N 242.031 2.46333 6.57468 0
M  V30 2563 H 246.871 2.10524 2.10911 0
M  V30 2564 H 244.408 1.04749 1.03276 0
M  V30 2565 H 246.366 0.654296 4.12037 0
M  V30 2566 H 244.996 -0.0565502 3.2275 0
M  V30 2567 H 244.048 2.35172 2.98995 0
M  V30 2568 H 245.36 2.90826 4.05242 0
M  V30 2569 H 244.514 1.43908 5.89386 0
M  V30 2570 H 243.253 0.779308 4.81433 0
M  V30 2571 H 242.258 3.0702 4.56091 0
M  V30 2572 H 243.483 3.73004 5.6749 0
M  V30 2573 H 241.429 1.59423 6.36334 0
M  V30 2574 H 241.346 3.26436 6.81891 0
M  V30 2575 H 242.614 2.26244 7.45945 0
M  V30 2576 N 246.843 -1.10192 1.12674 0
M  V30 2577 C 247.773 -2.18652 0.819362 0
M  V30 2578 C 248.754 -1.68698 -0.217915 0
M  V30 2579 O 249.939 -1.94041 -0.0785581 0
M  V30 2580 C 247.069 -3.46202 0.27594 0
M  V30 2581 C 246.023 -4.09444 1.24656 0
M  V30 2582 C 245.349 -5.31725 0.563258 0
M  V30 2583 C 246.649 -4.52863 2.60217 0
M  V30 2584 H 248.343 -2.44622 1.72628 0
M  V30 2585 H 245.889 -1.17571 0.831451 0
M  V30 2586 H 247.842 -4.21372 0.0486149 0
M  V30 2587 H 246.566 -3.1973 -0.666331 0
M  V30 2588 H 245.225 -3.36284 1.45974 0
M  V30 2589 H 244.873 -5.0153 -0.384235 0
M  V30 2590 H 244.573 -5.74991 1.21075 0
M  V30 2591 H 246.097 -6.09624 0.34503 0
M  V30 2592 H 247.511 -5.19294 2.42913 0
M  V30 2593 H 245.908 -5.06986 3.21068 0
M  V30 2594 H 246.978 -3.65656 3.18471 0
M  V30 2595 N 248.321 -0.919034 -1.28029 0
M  V30 2596 C 249.268 -0.410005 -2.27129 0
M  V30 2597 C 250.238 0.518405 -1.57803 0
M  V30 2598 O 251.423 0.439451 -1.8567 0
M  V30 2599 C 248.563 0.339054 -3.4343 0
M  V30 2600 C 247.676 -0.622468 -4.27492 0
M  V30 2601 C 246.811 0.145567 -5.31001 0
M  V30 2602 C 245.85 -0.809226 -6.06727 0
M  V30 2603 N 244.987 -0.0743728 -7.02061 0
M  V30 2604 H 249.827 -1.26011 -2.70047 0
M  V30 2605 H 247.364 -0.632663 -1.328 0
M  V30 2606 H 249.322 0.789586 -4.0966 0
M  V30 2607 H 247.952 1.15346 -3.01488 0
M  V30 2608 H 247.004 -1.19153 -3.61257 0
M  V30 2609 H 248.316 -1.35252 -4.80113 0
M  V30 2610 H 247.47 0.656417 -6.03139 0
M  V30 2611 H 246.209 0.908643 -4.79161 0
M  V30 2612 H 245.214 -1.3314 -5.33436 0
M  V30 2613 H 246.439 -1.57194 -6.60656 0
M  V30 2614 H 244.385 0.670616 -6.52563 0
M  V30 2615 H 244.302 -0.744157 -7.52329 0
M  V30 2616 H 245.57 0.416109 -7.78389 0
M  V30 2617 N 249.799 1.42003 -0.683588 0
M  V30 2618 C 251.047 2.01015 -0.209101 0
M  V30 2619 C 251.368 1.54365 1.19149 0
M  V30 2620 O 250.638 0.769083 1.80172 0
M  V30 2621 H 249.218 0.743294 -0.074315 0
M  V30 2622 H 251.88 1.73798 -0.882066 0
M  V30 2623 H 250.976 3.11343 -0.2172 0
M  V30 2624 N 251.277 0.427512 1.51691 0
M  V30 2625 C 252.225 -0.403359 2.29076 0
M  V30 2626 C 253.219 -1.02962 1.34518 0
M  V30 2627 O 254.425 -0.965715 1.51901 0
M  V30 2628 H 250.8 -0.148879 0.737115 0
M  V30 2629 H 252.771 0.270295 2.97173 0
M  V30 2630 C 251.52 -1.49763 3.13794 0
M  V30 2631 H 250.843 -1.02508 3.86435 0
M  V30 2632 H 252.283 -2.05244 3.71014 0
M  V30 2633 C 250.742 -2.47536 2.28533 0
M  V30 2634 O 251.272 -3.51848 1.93819 0
M  V30 2635 N 249.478 -2.18187 1.91945 0
M  V30 2636 H 249.025 -1.33389 2.20375 0
M  V30 2637 H 248.983 -2.83848 1.35195 0
M  V30 2638 N 252.755 -1.56801 0.158532 0
M  V30 2639 C 253.985 -2.00568 -0.495583 0
M  V30 2640 C 254.393 -1.03774 -1.58201 0
M  V30 2641 O 253.736 -0.0285797 -1.83678 0
M  V30 2642 C 253.798 -3.40768 -1.14532 0
M  V30 2643 C 253.462 -4.56553 -0.202101 0
M  V30 2644 C 254.459 -5.16714 0.574675 0
M  V30 2645 C 252.144 -5.02197 -0.101648 0
M  V30 2646 C 254.138 -6.20939 1.43924 0
M  V30 2647 C 251.825 -6.06274 0.766508 0
M  V30 2648 C 252.823 -6.65515 1.53555 0
M  V30 2649 O 252.511 -7.67575 2.38922 0
M  V30 2650 H 252.243 -0.662893 -0.13247 0
M  V30 2651 H 254.797 -2.03829 0.253559 0
M  V30 2652 H 253.027 -3.34381 -1.94233 0
M  V30 2653 H 254.716 -3.6857 -1.70033 0
M  V30 2654 H 255.482 -4.82341 0.507167 0
M  V30 2655 H 251.361 -4.55807 -0.689994 0
M  V30 2656 H 254.905 -6.67107 2.03996 0
M  V30 2657 H 250.802 -6.40073 0.835266 0
M  V30 2658 H 251.57 -7.84844 2.32296 0
M  V30 2659 N 254.233 0.115231 -1.57178 0
M  V30 2660 C 255.479 0.82357 -1.85325 0
M  V30 2661 C 255.812 1.79349 -0.744814 0
M  V30 2662 O 255.087 1.92899 0.249024 0
M  V30 2663 C 255.37 1.57014 -3.24066 0
M  V30 2664 C 255.223 0.619565 -4.45513 0
M  V30 2665 C 256.542 2.52545 -3.60429 0
M  V30 2666 H 253.661 0.297948 -0.674089 0
M  V30 2667 H 256.303 0.0877138 -1.89797 0
M  V30 2668 H 254.453 2.19742 -3.20383 0
M  V30 2669 H 256.125 0.000837639 -4.613 0
M  V30 2670 H 254.368 -0.0686174 -4.33746 0
M  V30 2671 H 255.039 1.17866 -5.3927 0
M  V30 2672 H 257.515 1.9992 -3.64926 0
M  V30 2673 H 256.391 3.01811 -4.58477 0
M  V30 2674 H 256.652 3.35383 -2.88047 0
M  V30 2675 N 255.711 1.52812 0.385517 0
M  V30 2676 C 257.127 1.4214 0.725829 0
M  V30 2677 C 257.327 0.544589 1.94001 0
M  V30 2678 O 256.383 0.0193693 2.52493 0
M  V30 2679 C 257.696 2.85042 0.957668 0
M  V30 2680 C 259.244 2.94543 1.05892 0
M  V30 2681 C 259.719 4.38464 1.32337 0
M  V30 2682 N 261.21 4.41804 1.39151 0
M  V30 2683 C 261.945 5.5025 1.61285 0
M  V30 2684 N 261.441 6.68775 1.80866 0
M  V30 2685 N 263.234 5.37798 1.63492 0
M  V30 2686 H 255.385 2.08338 -0.413383 0
M  V30 2687 H 257.648 0.940016 -0.122775 0
M  V30 2688 H 257.354 3.51431 0.137568 0
M  V30 2689 H 257.228 3.27505 1.87137 0
M  V30 2690 H 259.615 2.28321 1.86959 0
M  V30 2691 H 259.696 2.55504 0.123057 0
M  V30 2692 H 259.34 5.05254 0.517793 0
M  V30 2693 H 259.27 4.75059 2.27214 0
M  V30 2694 H 261.761 3.56377 1.25713 0
M  V30 2695 H 262.074 7.47197 1.97271 0
M  V30 2696 H 260.419 6.71797 1.78083 0
M  V30 2697 H 263.61 4.44171 1.47749 0
M  V30 2698 H 263.783 6.22382 1.80402 0
M  V30 2699 N 257.189 -0.644168 1.43834 0
M  V30 2700 C 258.435 -1.40603 1.46146 0
M  V30 2701 C 258.768 -1.93997 0.0887717 0
M  V30 2702 O 258.043 -1.72854 -0.891724 0
M  V30 2703 C 258.326 -2.58086 2.51124 0
M  V30 2704 C 258.179 -2.10126 3.97702 0
M  V30 2705 C 259.498 -3.60291 2.52742 0
M  V30 2706 H 256.617 -0.509905 0.532134 0
M  V30 2707 H 259.259 -0.729502 1.75437 0
M  V30 2708 H 257.409 -3.15801 2.26278 0
M  V30 2709 H 259.081 -1.57342 4.33637 0
M  V30 2710 H 257.324 -1.41419 4.10101 0
M  V30 2711 H 257.995 -2.94649 4.66783 0
M  V30 2712 H 260.471 -3.12352 2.7491 0
M  V30 2713 H 259.347 -4.40032 3.28121 0
M  V30 2714 H 259.608 -4.1349 1.56455 0
M  V30 2715 N 258.668 -1.30515 -0.883378 0
M  V30 2716 C 259.631 -1.1701 -1.97082 0
M  V30 2717 C 260.631 -0.10089 -1.60483 0
M  V30 2718 O 261.821 -0.349127 -1.70666 0
M  V30 2719 C 258.953 -0.793045 -3.31547 0
M  V30 2720 H 260.146 -2.13622 -2.10489 0
M  V30 2721 H 257.699 -1.13935 -1.06998 0
M  V30 2722 H 258.434 0.172499 -3.23841 0
M  V30 2723 H 258.219 -1.56576 -3.5948 0
M  V30 2724 H 259.709 -0.722073 -4.1131 0
M  V30 2725 N 260.146 1.09593 -1.13257 0
M  V30 2726 C 261.078 2.16015 -0.766167 0
M  V30 2727 C 262.091 1.61423 0.211303 0
M  V30 2728 O 263.28 1.78498 -0.00863946 0
M  V30 2729 C 260.38 3.38706 -0.114662 0
M  V30 2730 C 259.553 4.22717 -1.12379 0
M  V30 2731 C 258.612 5.23835 -0.498301 0
M  V30 2732 O 257.638 5.573 -1.15781 0
M  V30 2733 N 258.84 5.75886 0.730417 0
M  V30 2734 H 261.605 2.48055 -1.68193 0
M  V30 2735 H 259.166 1.25292 -1.02535 0
M  V30 2736 H 261.158 4.03464 0.315991 0
M  V30 2737 H 259.728 3.04569 0.704011 0
M  V30 2738 H 258.948 3.54122 -1.73179 0
M  V30 2739 H 260.236 4.75673 -1.80589 0
M  V30 2740 H 259.634 5.50911 1.28504 0
M  V30 2741 H 258.191 6.42387 1.10376 0
M  V30 2742 N 261.624 0.925811 1.2754 0
M  V30 2743 C 262.852 0.581509 1.9856 0
M  V30 2744 C 263.267 -0.840041 1.69082 0
M  V30 2745 O 262.624 -1.55805 0.950312 0
M  V30 2746 C 262.675 0.795589 3.52637 0
M  V30 2747 O 262.396 2.16121 3.81082 0
M  V30 2748 C 263.897 0.459744 4.4091 0
M  V30 2749 H 261.117 0.220538 0.633722 0
M  V30 2750 H 263.661 1.24232 1.6244 0
M  V30 2751 H 261.816 0.18161 3.86974 0
M  V30 2752 H 262.23 2.2098 4.75676 0
M  V30 2753 H 263.704 0.660244 5.48037 0
M  V30 2754 H 264.181 -0.604625 4.35018 0
M  V30 2755 H 264.787 1.05178 4.12089 0
M  V30 2756 N 263.102 -1.41638 0.69111 0
M  V30 2757 C 264.351 -2.00526 0.217318 0
M  V30 2758 C 264.664 -1.55353 -1.18848 0
M  V30 2759 O 265.87 -2.06769 -1.75951 0
M  V30 2760 C 264.326 -3.58313 0.337639 0
M  V30 2761 C 263.934 -4.12469 1.74852 0
M  V30 2762 C 265.678 -4.24431 -0.0766066 0
M  V30 2763 C 263.585 -5.62675 1.82074 0
M  V30 2764 H 262.515 -0.750008 0.0774893 0
M  V30 2765 H 265.166 -1.6217 0.858661 0
M  V30 2766 H 263.548 -3.9425 -0.371879 0
M  V30 2767 H 264.722 -3.8796 2.48644 0
M  V30 2768 H 263.037 -3.58861 2.11205 0
M  V30 2769 H 265.634 -5.34683 -0.0430284 0
M  V30 2770 H 265.977 -4.01101 -1.1146 0
M  V30 2771 H 266.51 -3.93512 0.582476 0
M  V30 2772 H 263.249 -5.90826 2.83911 0
M  V30 2773 H 262.769 -5.89124 1.12661 0
M  V30 2774 H 264.448 -6.27371 1.58159 0
M  V30 2775 N 264.58 -0.43555 -1.51462 0
M  V30 2776 C 265.996 -0.0877501 -1.59359 0
M  V30 2777 C 266.196 1.4027 -1.4466 0
M  V30 2778 O 265.252 2.17243 -1.28693 0
M  V30 2779 C 266.565 -0.606264 -2.94525 0
M  V30 2780 C 268.113 -0.566548 -3.0783 0
M  V30 2781 C 268.588 -1.06201 -4.45517 0
M  V30 2782 N 270.079 -1.01992 -4.51832 0
M  V30 2783 C 270.814 -1.37417 -5.5669 0
M  V30 2784 N 270.31 -1.80119 -6.68976 0
M  V30 2785 N 272.103 -1.29245 -5.47039 0
M  V30 2786 H 264.254 -1.40533 -1.59261 0
M  V30 2787 H 266.517 -0.578992 -0.750648 0
M  V30 2788 H 266.223 -1.64901 -3.10645 0
M  V30 2789 H 266.097 -0.0302097 -3.77188 0
M  V30 2790 H 268.484 0.467208 -2.91378 0
M  V30 2791 H 268.565 -1.17898 -2.2701 0
M  V30 2792 H 268.209 -2.09422 -4.62715 0
M  V30 2793 H 268.139 -0.426127 -5.24873 0
M  V30 2794 H 270.63 -0.706308 -3.71241 0
M  V30 2795 H 270.943 -2.05392 -7.45006 0
M  V30 2796 H 269.288 -1.84044 -6.70189 0
M  V30 2797 H 272.479 -0.957522 -4.58202 0
M  V30 2798 H 272.652 -1.57182 -6.28648 0
M  V30 2799 N 266.058 1.56714 -0.166846 0
M  V30 2800 C 267.304 1.97039 0.479962 0
M  V30 2801 C 267.637 1.05264 1.63197 0
M  V30 2802 O 266.912 0.0988833 1.94248 0
M  V30 2803 C 267.195 3.46867 0.967212 0
M  V30 2804 C 267.048 4.49421 -0.18466 0
M  V30 2805 C 268.367 3.9968 1.84238 0
M  V30 2806 H 265.486 0.71641 0.172992 0
M  V30 2807 H 268.128 1.8832 -0.252079 0
M  V30 2808 H 266.278 3.54428 1.59101 0
M  V30 2809 H 267.95 4.53924 -0.821621 0
M  V30 2810 H 266.193 4.25573 -0.840837 0
M  V30 2811 H 266.864 5.51644 0.198317 0
M  V30 2812 H 269.34 3.94723 1.31655 0
M  V30 2813 H 268.216 5.04941 2.15234 0
M  V30 2814 H 268.477 3.43226 2.78654 0
M  V30 2815 N 267.536 -0.106894 1.57237 0
M  V30 2816 C 268.446 -1.14911 2.0453 0
M  V30 2817 C 269.462 -1.44592 0.96795 0
M  V30 2818 O 270.638 -1.55468 1.2803 0
M  V30 2819 C 267.703 -2.45272 2.45036 0
M  V30 2820 C 266.764 -2.22879 3.66911 0
M  V30 2821 C 265.997 -3.47024 4.05475 0
M  V30 2822 O 266.22 -4.54804 3.44252 0
M  V30 2823 O 265.154 -3.3731 4.98504 0
M  V30 2824 H 268.98 -0.777461 2.9358 0
M  V30 2825 H 266.565 -0.318563 1.45964 0
M  V30 2826 H 268.447 -3.22055 2.71769 0
M  V30 2827 H 267.122 -2.81886 1.59129 0
M  V30 2828 H 266.029 -1.43915 3.45311 0
M  V30 2829 H 267.362 -1.91163 4.53561 0
M  V30 2830 N 269.014 -1.53014 -0.377408 0
M  V30 2831 C 270.291 -1.59215 -1.13622 0
M  V30 2832 C 270.671 -0.392407 -2.07421 0
M  V30 2833 O 270.019 0.618342 -2.19975 0
M  V30 2834 C 270.229 -2.93669 -1.88573 0
M  V30 2835 C 271.577 -3.47822 -2.43526 0
M  V30 2836 O 272.601 -2.9562 -1.98715 0
M  V30 2837 O 271.46 -4.39055 -3.25412 0
M  V30 2838 H 268.554 -0.642625 -0.52054 0
M  V30 2839 H 271.1 -1.65353 -0.381625 0
M  V30 2840 H 269.872 -3.7243 -1.20048 0
M  V30 2841 H 269.495 -2.90968 -2.70968 0
M  V30 2842 N 270.492 0.636531 -1.44174 0
M  V30 2843 C 271.739 1.39619 -1.46672 0
M  V30 2844 C 272.067 1.94257 -0.0972691 0
M  V30 2845 O 271.322 1.73768 0.900175 0
M  V30 2846 C 271.621 2.58309 -2.47005 0
M  V30 2847 C 271.287 2.21992 -3.92467 0
M  V30 2848 C 269.949 2.118 -4.32081 0
M  V30 2849 C 272.301 1.9321 -4.84065 0
M  V30 2850 C 269.629 1.71007 -5.61225 0
M  V30 2851 C 271.981 1.53911 -6.13591 0
M  V30 2852 C 270.645 1.42257 -6.52165 0
M  V30 2853 H 269.915 0.510902 -0.536712 0
M  V30 2854 H 272.562 0.722328 -1.77355 0
M  V30 2855 H 270.867 3.30903 -2.09786 0
M  V30 2856 H 272.564 3.16533 -2.46186 0
M  V30 2857 H 269.154 2.30841 -3.61124 0
M  V30 2858 H 273.338 1.99997 -4.54219 0
M  V30 2859 H 268.594 1.60583 -5.89935 0
M  V30 2860 H 272.768 1.30677 -6.8403 0
M  V30 2861 H 270.395 1.10419 -7.52138 0
M  V30 2862 N 271.97 1.30982 0.876444 0
M  V30 2863 C 273.216 1.20474 1.63138 0
M  V30 2864 C 273.549 -0.238096 1.92735 0
M  V30 2865 O 272.824 -1.1692 1.55435 0
M  V30 2866 C 273.107 2.04244 2.96574 0
M  V30 2867 C 272.96 3.56793 2.73896 0
M  V30 2868 C 274.279 1.88684 3.97601 0
M  V30 2869 H 271.398 0.439001 0.591985 0
M  V30 2870 H 274.04 1.60704 1.01361 0
M  V30 2871 H 272.19 1.70063 3.493 0
M  V30 2872 H 273.862 4.01077 2.27892 0
M  V30 2873 H 272.105 3.80548 2.08245 0
M  V30 2874 H 272.776 4.10706 3.68815 0
M  V30 2875 H 275.252 2.18584 3.54062 0
M  V30 2876 H 274.128 2.4961 4.88862 0
M  V30 2877 H 274.389 0.848343 4.33884 0
M  V30 2878 N 273.449 -1.08991 1.13837 0
M  V30 2879 C 274.726 -1.77863 0.813876 0
M  V30 2880 C 275.106 -1.99375 -0.693746 0
M  V30 2881 O 274.454 -1.59875 -1.63255 0
M  V30 2882 C 274.664 -3.0986 1.60586 0
M  V30 2883 C 276.012 -3.84493 1.8014 0
M  V30 2884 O 277.036 -3.19624 1.57222 0
M  V30 2885 O 275.895 -5.00957 2.18413 0
M  V30 2886 H 272.989 -0.771589 0.297624 0
M  V30 2887 H 275.535 -1.15507 1.24323 0
M  V30 2888 H 274.307 -2.89715 2.63022 0
M  V30 2889 H 273.93 -3.79942 1.17173 0
M  V30 2890 N 274.927 -0.932562 -1.27047 0
M  V30 2891 C 275.874 -0.434072 -2.26681 0
M  V30 2892 C 276.844 0.501639 -1.58344 0
M  V30 2893 O 278.029 0.419734 -1.86126 0
M  V30 2894 C 275.169 0.30261 -3.43771 0
M  V30 2895 C 274.282 -0.667774 -4.26808 0
M  V30 2896 C 273.417 0.0892393 -5.31125 0
M  V30 2897 C 272.456 -0.873532 -6.05835 0
M  V30 2898 N 271.593 -0.148832 -7.01942 0
M  V30 2899 H 276.433 -1.28868 -2.68695 0
M  V30 2900 H 273.97 -0.646713 -1.32121 0
M  V30 2901 H 275.928 0.746092 -4.10474 0
M  V30 2902 H 274.558 1.12142 -3.02695 0
M  V30 2903 H 273.61 -1.22978 -3.59973 0
M  V30 2904 H 274.922 -1.40337 -4.78651 0
M  V30 2905 H 274.076 0.592409 -6.03801 0
M  V30 2906 H 272.815 0.85777 -4.80097 0
M  V30 2907 H 271.82 -1.38791 -5.31994 0
M  V30 2908 H 273.045 -1.64193 -6.58952 0
M  V30 2909 H 270.991 0.601365 -6.53238 0
M  V30 2910 H 270.908 -0.82391 -7.51497 0
M  V30 2911 H 272.176 0.333527 -7.78786 0
M  V30 2912 N 276.405 1.4127 -0.698611 0
M  V30 2913 C 277.635 2.05205 -0.239644 0
M  V30 2914 C 278.043 1.52684 1.11733 0
M  V30 2915 O 277.386 0.671222 1.70998 0
M  V30 2916 C 277.448 3.59289 -0.123126 0
M  V30 2917 C 277.112 4.34619 -1.41263 0
M  V30 2918 C 278.109 4.63701 -2.35111 0
M  V30 2919 C 275.794 4.73837 -1.66684 0
M  V30 2920 C 277.788 5.30966 -3.52639 0
M  V30 2921 C 275.475 5.40837 -2.84498 0
M  V30 2922 C 276.473 5.69329 -3.77298 0
M  V30 2923 O 276.161 6.34949 -4.93047 0
M  V30 2924 H 275.893 0.66723 -0.108537 0
M  V30 2925 H 278.447 1.81974 -0.952602 0
M  V30 2926 H 276.677 3.81272 0.645628 0
M  V30 2927 H 278.366 4.04797 0.299056 0
M  V30 2928 H 279.132 4.33882 -2.16729 0
M  V30 2929 H 275.011 4.51039 -0.953135 0
M  V30 2930 H 278.555 5.53121 -4.25091 0
M  V30 2931 H 274.452 5.70075 -3.02795 0
M  V30 2932 H 275.22 6.53445 -4.92902 0
M  V30 2933 N 277.883 0.443576 1.51229 0
M  V30 2934 C 279.111 -0.11929 2.06556 0
M  V30 2935 C 279.526 -1.35921 1.31038 0
M  V30 2936 O 278.883 -1.78675 0.371704 0
M  V30 2937 C 278.934 -0.435228 3.5887 0
M  V30 2938 O 278.655 0.755486 4.31537 0
M  V30 2939 C 280.156 -1.04808 4.30732 0
M  V30 2940 H 277.376 -0.0051584 0.67098 0
M  V30 2941 H 279.92 0.624453 1.94733 0
M  V30 2942 H 278.075 -1.12887 3.70588 0
M  V30 2943 H 278.489 0.483491 5.22267 0
M  V30 2944 H 279.963 -1.2191 5.3837 0
M  V30 2945 H 280.44 -2.03081 3.89429 0
M  V30 2946 H 281.046 -0.393637 4.23474 0
M  V30 2947 N 279.361 -1.56624 0.175154 0
M  V30 2948 C 280.308 -2.18149 -0.753634 0
M  V30 2949 C 281.278 -1.12265 -1.22417 0
M  V30 2950 O 282.463 -1.40432 -1.29165 0
M  V30 2951 C 279.603 -2.82933 -1.97592 0
M  V30 2952 C 278.716 -4.03289 -1.5486 0
M  V30 2953 C 277.851 -4.55988 -2.72485 0
M  V30 2954 C 276.89 -5.68746 -2.26262 0
M  V30 2955 N 276.027 -6.15938 -3.36994 0
M  V30 2956 H 280.867 -2.9717 -0.222195 0
M  V30 2957 H 278.404 -1.46774 -0.0979422 0
M  V30 2958 H 280.362 -3.18653 -2.69288 0
M  V30 2959 H 278.992 -2.06509 -2.481 0
M  V30 2960 H 278.044 -3.73364 -0.728246 0
M  V30 2961 H 279.356 -4.849 -1.16933 0
M  V30 2962 H 278.51 -4.9391 -3.52332 0
M  V30 2963 H 277.249 -3.73443 -3.13674 0
M  V30 2964 H 276.254 -5.30372 -1.44863 0
M  V30 2965 H 277.479 -6.53095 -1.86127 0
M  V30 2966 H 275.425 -5.36321 -3.77751 0
M  V30 2967 H 275.342 -6.92548 -3.03172 0
M  V30 2968 H 276.61 -6.58511 -4.17114 0
M  V30 2969 N 280.839 0.0985539 -1.57292 0
M  V30 2970 C 282.25 0.653457 -1.74891 0
M  V30 2971 C 282.601 1.7929 -0.796838 0
M  V30 2972 O 281.726 2.16385 0.0254886 0
M  V30 2973 C 282.321 1.19216 -3.17133 0
M  V30 2974 C 280.88 1.69316 -3.36168 0
M  V30 2975 C 280.027 0.601294 -2.70702 0
M  V30 2976 H 282.978 -0.127497 -1.58187 0
M  V30 2977 H 282.999 2.06154 -3.19814 0
M  V30 2978 H 282.511 0.362635 -3.86402 0
M  V30 2979 H 280.612 2.5468 -2.71972 0
M  V30 2980 H 280.725 1.78853 -4.44464 0
M  V30 2981 H 279.089 1.0399 -2.32504 0
M  V30 2982 H 279.872 -0.217592 -3.4261 0
M  V30 2983 N 282.317 1.53212 0.369288 0
M  V30 2984 C 283.563 1.69466 1.11397 0
M  V30 2985 C 283.896 0.443257 1.89074 0
M  V30 2986 O 283.171 -0.559386 1.86282 0
M  V30 2987 C 283.454 2.9422 2.07621 0
M  V30 2988 C 283.307 4.29508 1.33577 0
M  V30 2989 C 284.626 3.14565 3.07794 0
M  V30 2990 H 281.745 0.616667 0.403597 0
M  V30 2991 H 284.387 1.85845 0.395179 0
M  V30 2992 H 282.537 2.80387 2.68916 0
M  V30 2993 H 284.209 4.55147 0.750955 0
M  V30 2994 H 282.452 4.29088 0.637618 0
M  V30 2995 H 283.123 5.12926 2.03989 0
M  V30 2996 H 285.599 3.2756 2.56601 0
M  V30 2997 H 284.475 4.03297 3.72348 0
M  V30 2998 H 284.736 2.29675 3.77759 0
M  V30 2999 N 283.795 -0.628877 1.44509 0
M  V30 3000 C 284.725 -1.75187 1.54376 0
M  V30 3001 C 285.706 -1.65411 0.396618 0
M  V30 3002 O 286.891 -1.84137 0.617031 0
M  V30 3003 C 284.021 -3.13725 1.48976 0
M  V30 3004 C 282.975 -3.38291 2.62189 0
M  V30 3005 C 282.301 -4.76883 2.41841 0
M  V30 3006 C 283.601 -3.30632 4.04326 0
M  V30 3007 H 285.295 -1.67187 2.48373 0
M  V30 3008 H 282.841 -0.802909 1.19538 0
M  V30 3009 H 284.794 -3.92064 1.54478 0
M  V30 3010 H 283.518 -3.22515 0.514961 0
M  V30 3011 H 282.177 -2.62334 2.56079 0
M  V30 3012 H 281.825 -4.82378 1.42548 0
M  V30 3013 H 281.525 -4.94278 3.17747 0
M  V30 3014 H 283.049 -5.57449 2.49165 0
M  V30 3015 H 284.463 -3.98873 4.11793 0
M  V30 3016 H 282.86 -3.59561 4.80454 0
M  V30 3017 H 283.93 -2.28404 4.27738 0
M  V30 3018 N 285.273 -1.31445 -0.869486 0
M  V30 3019 C 286.522 -1.20517 -1.61736 0
M  V30 3020 C 286.835 0.235341 -1.94179 0
M  V30 3021 O 288.041 0.466312 -2.67465 0
M  V30 3022 C 286.497 -2.10982 -2.91573 0
M  V30 3023 C 286.105 -3.60032 -2.66611 0
M  V30 3024 C 287.849 -2.08856 -3.69567 0
M  V30 3025 C 285.756 -4.42503 -3.92358 0
M  V30 3026 H 284.686 -0.447493 -0.606849 0
M  V30 3027 H 287.337 -1.56303 -0.96133 0
M  V30 3028 H 285.719 -1.68095 -3.58553 0
M  V30 3029 H 286.893 -4.11167 -2.08035 0
M  V30 3030 H 285.208 -3.64139 -2.0197 0
M  V30 3031 H 287.805 -2.67716 -4.62852 0
M  V30 3032 H 288.148 -1.07582 -4.02159 0
M  V30 3033 H 288.681 -2.49945 -3.09471 0
M  V30 3034 H 285.42 -5.44533 -3.64916 0
M  V30 3035 H 284.94 -3.96125 -4.50383 0
M  V30 3036 H 286.619 -4.54741 -4.60238 0
M  V30 3037 N 286.751 1.08385 -1.14413 0
M  V30 3038 C 287.997 1.81044 -0.913834 0
M  V30 3039 C 288.33 1.86004 0.558209 0
M  V30 3040 O 287.605 1.33606 1.4135 0
M  V30 3041 C 287.888 3.26648 -1.51569 0
M  V30 3042 C 287.741 3.29895 -3.0576 0
M  V30 3043 C 289.06 4.23629 -1.19273 0
M  V30 3044 H 286.179 0.65727 -0.333414 0
M  V30 3045 H 288.821 1.26896 -1.41412 0
M  V30 3046 H 286.971 3.72889 -1.09023 0
M  V30 3047 H 288.643 2.91977 -3.57137 0
M  V30 3048 H 286.886 2.69163 -3.40197 0
M  V30 3049 H 287.557 4.32516 -3.42977 0
M  V30 3050 H 290.033 3.85727 -1.56057 0
M  V30 3051 H 288.909 5.23822 -1.64017 0
M  V30 3052 H 289.17 4.41968 -0.108068 0
M  V30 3053 N 288.23 0.939286 1.26551 0
M  V30 3054 C 289.18 0.418284 2.2413 0
M  V30 3055 C 290.164 -0.483935 1.5345 0
M  V30 3056 O 291.356 -0.319489 1.74093 0
M  V30 3057 C 288.485 -0.31709 3.41832 0
M  V30 3058 C 287.571 0.602311 4.19801 0
M  V30 3059 N 287.962 1.72726 4.75394 0
M  V30 3060 C 286.26 0.407534 4.44134 0
M  V30 3061 C 286.961 2.30004 5.34297 0
M  V30 3062 N 285.937 1.58828 5.1988 0
M  V30 3063 H 289.739 1.27705 2.64705 0
M  V30 3064 H 287.253 0.794929 1.41614 0
M  V30 3065 H 289.25 -0.707364 4.10855 0
M  V30 3066 H 287.91 -1.17264 3.02786 0
M  V30 3067 H 288.921 2.10944 4.72994 0
M  V30 3068 H 285.598 -0.406406 4.15517 0
M  V30 3069 H 286.988 3.24778 5.88191 0
M  V30 3070 N 289.708 -1.40897 0.706093 0
M  V30 3071 C 290.956 -2.00657 0.241054 0
M  V30 3072 C 291.277 -1.56241 -1.16678 0
M  V30 3073 O 290.547 -0.79765 -1.78926 0
M  V30 3074 H 289.127 -0.742018 0.0861308 0
M  V30 3075 H 291.789 -1.72372 0.909604 0
M  V30 3076 H 290.885 -3.10958 0.266705 0
M  V30 3077 N 291.186 -0.45159 -1.50991 0
M  V30 3078 C 292.463 0.170707 -1.94854 0
M  V30 3079 C 292.843 1.58788 -1.39103 0
M  V30 3080 O 292.191 2.20913 -0.583921 0
M  V30 3081 C 292.401 0.133929 -3.48743 0
M  V30 3082 C 293.749 0.33248 -4.23296 0
M  V30 3083 O 294.773 0.211403 -3.55572 0
M  V30 3084 O 293.632 0.57486 -5.43468 0
M  V30 3085 H 290.726 0.122264 -0.817912 0
M  V30 3086 H 293.272 -0.510594 -1.61836 0
M  V30 3087 H 292.044 -0.856283 -3.81816 0
M  V30 3088 H 291.667 0.857529 -3.88242 0
M  V30 3089 N 292.664 1.56529 -0.183458 0
M  V30 3090 C 293.596 2.15747 0.773697 0
M  V30 3091 C 294.609 1.1162 1.1851 0
M  V30 3092 O 295.798 1.3876 1.12285 0
M  V30 3093 C 292.898 2.6952 2.05456 0
M  V30 3094 C 292.071 3.98429 1.8048 0
M  V30 3095 C 291.13 4.37145 2.92901 0
M  V30 3096 O 290.156 5.04791 2.6301 0
M  V30 3097 N 291.358 3.99695 4.2098 0
M  V30 3098 H 294.123 2.98505 0.26736 0
M  V30 3099 H 291.684 1.619 -0.0010878 0
M  V30 3100 H 293.676 2.92412 2.79781 0
M  V30 3101 H 292.246 1.91282 2.47245 0
M  V30 3102 H 291.466 3.8379 0.899947 0
M  V30 3103 H 292.754 4.82597 1.61175 0
M  V30 3104 H 292.152 3.4526 4.48121 0
M  V30 3105 H 290.709 4.27562 4.9197 0
M  V30 3106 N 294.142 -0.090211 1.57342 0
M  V30 3107 C 295.419 -0.824761 1.77361 0
M  V30 3108 C 295.799 -1.96698 0.76637 0
M  V30 3109 O 295.147 -2.27586 -0.204179 0
M  V30 3110 C 295.357 -1.31481 3.23286 0
M  V30 3111 C 296.705 -1.75563 3.86604 0
M  V30 3112 O 297.729 -1.41093 3.27065 0
M  V30 3113 O 296.588 -2.39317 4.91314 0
M  V30 3114 H 293.682 -0.393776 0.727234 0
M  V30 3115 H 296.228 -0.0717138 1.69548 0
M  V30 3116 H 295 -0.496671 3.88135 0
M  V30 3117 H 294.623 -2.12973 3.35751 0
M  V30 3118 N 295.62 -1.53406 -0.361157 0
M  V30 3119 C 296.53 -1.83122 -1.4664 0
M  V30 3120 C 297.546 -0.719943 -1.58407 0
M  V30 3121 O 298.722 -1.01046 -1.74218 0
M  V30 3122 C 295.787 -2.01891 -2.81853 0
M  V30 3123 C 294.848 -3.25784 -2.79577 0
M  V30 3124 C 294.081 -3.43648 -4.0834 0
M  V30 3125 O 294.304 -2.65714 -5.0473 0
M  V30 3126 O 293.238 -4.37018 -4.13883 0
M  V30 3127 H 297.064 -2.7703 -1.24451 0
M  V30 3128 H 294.649 -1.38841 -0.551678 0
M  V30 3129 H 296.531 -2.15782 -3.61962 0
M  V30 3130 H 295.206 -1.11173 -3.0401 0
M  V30 3131 H 294.113 -3.17312 -1.98151 0
M  V30 3132 H 295.446 -4.16439 -2.62373 0
M  V30 3133 N 297.098 0.621204 -1.44841 0
M  V30 3134 C 298.061 1.71459 -1.521 0
M  V30 3135 C 299.061 1.55696 -0.401933 0
M  V30 3136 O 300.251 1.61011 -0.664925 0
M  V30 3137 C 297.383 3.10624 -1.40447 0
M  V30 3138 H 298.576 1.66394 -2.49506 0
M  V30 3139 H 296.129 0.835745 -1.3208 0
M  V30 3140 H 296.864 3.21277 -0.441737 0
M  V30 3141 H 296.649 3.23473 -2.21602 0
M  V30 3142 H 298.139 3.90293 -1.4853 0
M  V30 3143 N 298.576 1.31904 0.862503 0
M  V30 3144 C 299.822 1.22197 1.61851 0
M  V30 3145 C 300.155 -0.217641 1.92977 0
M  V30 3146 O 299.43 -1.15264 1.56666 0
M  V30 3147 C 299.713 2.07378 2.94391 0
M  V30 3148 C 299.566 3.59678 2.70096 0
M  V30 3149 C 300.885 1.92891 3.95577 0
M  V30 3150 H 298.004 0.445255 0.587296 0
M  V30 3151 H 300.646 1.6177 0.99651 0
M  V30 3152 H 298.796 1.73758 3.47477 0
M  V30 3153 H 300.468 4.03472 2.23625 0
M  V30 3154 H 298.711 3.82735 2.04197 0
M  V30 3155 H 299.382 4.14595 3.64438 0
M  V30 3156 H 301.858 2.22327 3.51724 0
M  V30 3157 H 300.734 2.54781 4.86187 0
M  V30 3158 H 300.995 0.894315 4.3296 0
M  V30 3159 N 300.054 -1.07777 1.14986 0
M  V30 3160 C 301.465 -1.61766 0.932127 0
M  V30 3161 C 301.816 -1.88974 -0.527581 0
M  V30 3162 O 300.941 -1.65198 -1.39781 0
M  V30 3163 C 301.536 -2.93891 1.68563 0
M  V30 3164 C 300.095 -3.44639 1.5133 0
M  V30 3165 C 299.242 -2.18767 1.704 0
M  V30 3166 H 302.193 -0.909201 1.30074 0
M  V30 3167 H 302.214 -3.62623 1.15259 0
M  V30 3168 H 301.726 -2.74057 2.74799 0
M  V30 3169 H 299.827 -3.69564 0.474702 0
M  V30 3170 H 299.94 -4.20966 2.28746 0
M  V30 3171 H 298.304 -2.28253 1.13016 0
M  V30 3172 H 299.087 -2.01433 2.77992 0
M  V30 3173 N 301.532 -0.945985 -1.26051 0
M  V30 3174 C 302.762 -0.612136 -1.97323 0
M  V30 3175 C 303.17 0.818171 -1.70595 0
M  V30 3176 O 302.513 1.55777 -0.973613 0
M  V30 3177 C 302.575 -0.780347 -3.50929 0
M  V30 3178 C 302.239 -2.18619 -4.01317 0
M  V30 3179 C 303.236 -3.16209 -4.12683 0
M  V30 3180 C 300.921 -2.50805 -4.35203 0
M  V30 3181 C 302.915 -4.44085 -4.57238 0
M  V30 3182 C 300.602 -3.78912 -4.79446 0
M  V30 3183 C 301.6 -4.75365 -4.90425 0
M  V30 3184 O 301.288 -6.01191 -5.3369 0
M  V30 3185 H 301.02 -0.229134 -0.635982 0
M  V30 3186 H 303.574 -1.27036 -1.61404 0
M  V30 3187 H 301.804 -0.0649864 -3.86645 0
M  V30 3188 H 303.493 -0.448842 -4.03411 0
M  V30 3189 H 304.259 -2.92668 -3.86744 0
M  V30 3190 H 300.138 -1.76463 -4.2589 0
M  V30 3191 H 303.682 -5.19373 -4.65723 0
M  V30 3192 H 299.579 -4.02265 -5.0483 0
M  V30 3193 H 300.347 -6.04442 -5.51899 0
M  V30 3194 N 303.011 1.40521 -0.713556 0
M  V30 3195 C 303.921 2.34522 -0.0606667 0
M  V30 3196 C 304.937 1.57193 0.74607 0
M  V30 3197 O 306.113 1.89591 0.679493 0
M  V30 3198 C 303.178 3.36081 0.851491 0
M  V30 3199 C 302.239 4.29286 0.0349339 0
M  V30 3200 C 301.472 5.25994 0.903649 0
M  V30 3201 O 301.695 5.28616 2.14292 0
M  V30 3202 O 300.629 6.00918 0.343723 0
M  V30 3203 H 304.455 2.91968 -0.835972 0
M  V30 3204 H 302.04 1.41681 -0.47402 0
M  V30 3205 H 303.922 3.98369 1.37404 0
M  V30 3206 H 302.597 2.81052 1.60598 0
M  V30 3207 H 301.504 3.70289 -0.532633 0
M  V30 3208 H 302.837 4.87462 -0.681287 0
M  V30 3209 N 304.489 0.459591 1.5075 0
M  V30 3210 C 305.452 -0.329093 2.26825 0
M  V30 3211 C 306.452 -0.930481 1.31144 0
M  V30 3212 O 307.642 -0.801453 1.54669 0
M  V30 3213 C 304.774 -1.46768 3.07688 0
M  V30 3214 H 305.967 0.337924 2.9799 0
M  V30 3215 H 303.52 0.213336 1.54837 0
M  V30 3216 H 304.255 -2.17009 2.40993 0
M  V30 3217 H 304.04 -1.04238 3.77991 0
M  V30 3218 H 305.53 -2.02433 3.65254 0
M  V30 3219 N 305.967 -1.56429 0.191757 0
M  V30 3220 C 307.192 -2.02309 -0.456706 0
M  V30 3221 C 307.617 -1.07103 -1.5463 0
M  V30 3222 O 306.975 -0.0539677 -1.8122 0
M  V30 3223 C 307.023 -3.46654 -0.993159 0
M  V30 3224 O 306.127 -3.54559 -2.10622 0
M  V30 3225 H 305.468 -0.655303 -0.107114 0
M  V30 3226 H 307.998 -2.02364 0.301653 0
M  V30 3227 H 308.008 -3.86377 -1.31061 0
M  V30 3228 H 306.683 -4.1544 -0.195504 0
M  V30 3229 H 305.26 -3.26708 -1.79767 0
M  V30 3230 N 307.445 0.0818655 -1.57387 0
M  V30 3231 C 308.691 0.784074 -1.8703 0
M  V30 3232 C 309.024 1.77729 -0.782689 0
M  V30 3233 O 308.299 1.93384 0.208051 0
M  V30 3234 C 308.582 1.50105 -3.27323 0
M  V30 3235 C 308.435 0.524925 -4.46727 0
M  V30 3236 C 309.754 2.44843 -3.65705 0
M  V30 3237 H 306.873 0.283582 -0.680257 0
M  V30 3238 H 309.515 0.0474352 -1.89941 0
M  V30 3239 H 307.665 2.12897 -3.24972 0
M  V30 3240 H 309.337 -0.0970111 -4.61198 0
M  V30 3241 H 307.58 -0.160606 -4.33503 0
M  V30 3242 H 308.251 1.064 -5.41648 0
M  V30 3243 H 310.727 1.92135 -3.69085 0
M  V30 3244 H 309.603 2.92018 -4.64776 0
M  V30 3245 H 309.864 3.29197 -2.95096 0
M  V30 3246 N 308.923 1.53595 0.353017 0
M  V30 3247 C 309.886 1.80232 1.41594 0
M  V30 3248 C 310.886 0.673081 1.46035 0
M  V30 3249 O 312.076 0.941335 1.46576 0
M  V30 3250 C 309.208 1.93578 2.80607 0
M  V30 3251 H 310.401 2.75174 1.19244 0
M  V30 3252 H 307.954 1.44864 0.586872 0
M  V30 3253 H 308.689 1.00746 3.08254 0
M  V30 3254 H 308.474 2.75724 2.78781 0
M  V30 3255 H 309.964 2.15735 3.57558 0
M  V30 3256 N 310.401 -0.613514 1.45168 0
M  V30 3257 C 311.648 -1.37268 1.48875 0
M  V30 3258 C 311.976 -1.94077 0.128161 0
M  V30 3259 O 311.231 -1.75178 -0.872416 0
M  V30 3260 C 311.53 -2.54347 2.51083 0
M  V30 3261 C 311.196 -2.1572 3.95949 0
M  V30 3262 C 309.858 -2.04899 4.35396 0
M  V30 3263 C 312.21 -1.85485 4.87078 0
M  V30 3264 C 309.538 -1.62057 5.63875 0
M  V30 3265 C 311.89 -1.4413 6.15962 0
M  V30 3266 C 310.554 -1.31863 6.54346 0
M  V30 3267 H 309.824 -0.502299 0.544773 0
M  V30 3268 H 312.471 -0.694021 1.78481 0
M  V30 3269 H 310.776 -3.27524 2.15024 0
M  V30 3270 H 312.473 -3.12577 2.51191 0
M  V30 3271 H 309.063 -2.25066 3.64751 0
M  V30 3272 H 313.247 -1.92745 4.57343 0
M  V30 3273 H 308.503 -1.51177 5.92415 0
M  V30 3274 H 312.677 -1.19778 6.86022 0
M  V30 3275 H 310.304 -0.984392 7.538 0
M  V30 3276 N 311.879 -1.3236 -0.855495 0
M  V30 3277 C 313.104 -1.2601 -1.64731 0
M  V30 3278 C 313.529 0.169068 -1.87339 0
M  V30 3279 O 312.887 1.12016 -1.42556 0
M  V30 3280 C 312.935 -2.02417 -2.98429 0
M  V30 3281 O 312.039 -1.3714 -3.8893 0
M  V30 3282 H 311.38 -0.434325 -0.502253 0
M  V30 3283 H 313.91 -1.74661 -1.06558 0
M  V30 3284 H 313.92 -2.12559 -3.48257 0
M  V30 3285 H 312.595 -3.06343 -2.81295 0
M  V30 3286 H 311.172 -1.3554 -3.47395 0
M  V30 3287 N 313.357 1.07166 -1.15556 0
M  V30 3288 C 314.304 2.14417 -0.854055 0
M  V30 3289 C 315.274 1.64965 0.193806 0
M  V30 3290 O 316.459 1.90703 0.0609443 0
M  V30 3291 C 313.599 3.43304 -0.351574 0
M  V30 3292 C 312.712 4.06537 -1.46123 0
M  V30 3293 C 311.847 5.23266 -0.914677 0
M  V30 3294 C 310.886 5.78464 -2.00114 0
M  V30 3295 N 310.023 6.86521 -1.47083 0
M  V30 3296 H 314.863 2.39548 -1.77259 0
M  V30 3297 H 312.4 1.17543 -0.884425 0
M  V30 3298 H 314.358 4.17179 -0.0419409 0
M  V30 3299 H 312.988 3.18419 0.530037 0
M  V30 3300 H 312.04 3.30297 -1.88701 0
M  V30 3301 H 313.352 4.43567 -2.28144 0
M  V30 3302 H 312.506 6.04131 -0.557698 0
M  V30 3303 H 311.245 4.87658 -0.0636583 0
M  V30 3304 H 310.25 4.96243 -2.36692 0
M  V30 3305 H 311.475 6.16126 -2.85597 0
M  V30 3306 H 309.421 6.52849 -0.642198 0
M  V30 3307 H 309.338 7.22446 -2.22729 0
M  V30 3308 H 310.606 7.71087 -1.14215 0
M  V30 3309 N 314.835 0.952656 1.25548 0
M  V30 3310 C 315.767 0.428609 2.25157 0
M  V30 3311 C 316.78 -0.454428 1.56329 0
M  V30 3312 O 317.969 -0.263023 1.76552 0
M  V30 3313 C 315.069 -0.401972 3.36508 0
M  V30 3314 C 314.242 0.467601 4.34893 0
M  V30 3315 C 313.301 -0.30445 5.25319 0
M  V30 3316 O 312.327 0.296473 5.68427 0
M  V30 3317 N 313.529 -1.59805 5.5807 0
M  V30 3318 H 316.294 1.28497 2.70756 0
M  V30 3319 H 313.855 0.822798 1.39433 0
M  V30 3320 H 315.847 -0.926134 3.9396 0
M  V30 3321 H 314.417 -1.15918 2.90313 0
M  V30 3322 H 313.637 1.17288 3.76347 0
M  V30 3323 H 314.925 1.06119 4.97611 0
M  V30 3324 H 314.323 -2.10823 5.24948 0
M  V30 3325 H 312.88 -2.06822 6.18116 0
M  V30 3326 N 316.313 -1.40141 0.720998 0
M  V30 3327 C 317.543 -2.04798 0.27226 0
M  V30 3328 C 317.951 -1.54442 -1.09289 0
M  V30 3329 O 317.294 -0.698342 -1.69908 0
M  V30 3330 C 317.356 -3.59048 0.18027 0
M  V30 3331 C 317.02 -4.32317 1.48159 0
M  V30 3332 C 318.017 -4.59902 2.42458 0
M  V30 3333 C 315.702 -4.71125 1.74202 0
M  V30 3334 C 317.696 -5.25288 3.61042 0
M  V30 3335 C 315.383 -5.36242 2.93066 0
M  V30 3336 C 316.381 -5.63254 3.86308 0
M  V30 3337 O 316.069 -6.27024 5.03086 0
M  V30 3338 H 315.801 -0.665419 0.119139 0
M  V30 3339 H 318.355 -1.80436 0.981432 0
M  V30 3340 H 316.585 -3.82251 -0.58489 0
M  V30 3341 H 318.274 -4.05221 -0.234618 0
M  V30 3342 H 319.04 -4.30379 2.23604 0
M  V30 3343 H 314.919 -4.49466 1.02477 0
M  V30 3344 H 318.463 -5.46289 4.33837 0
M  V30 3345 H 314.36 -5.65185 3.11826 0
M  V30 3346 H 315.128 -6.4552 5.03235 0
M  V30 3347 N 317.792 -0.46758 -1.50504 0
M  V30 3348 C 318.739 0.328413 -2.28452 0
M  V30 3349 C 319.709 0.990313 -1.33349 0
M  V30 3350 O 320.894 1.00343 -1.62284 0
M  V30 3351 C 318.034 1.40648 -3.15138 0
M  V30 3352 C 317.147 0.759709 -4.25267 0
M  V30 3353 C 316.282 1.81537 -4.99217 0
M  V30 3354 C 315.321 1.14866 -6.01226 0
M  V30 3355 N 314.458 2.14702 -6.68467 0
M  V30 3356 H 319.298 -0.342603 -2.96024 0
M  V30 3357 H 316.835 -0.180801 -1.45985 0
M  V30 3358 H 318.793 2.04315 -3.63746 0
M  V30 3359 H 317.423 2.04671 -2.49619 0
M  V30 3360 H 316.475 0.0105671 -3.80399 0
M  V30 3361 H 317.787 0.233243 -4.98254 0
M  V30 3362 H 316.941 2.52793 -5.51526 0
M  V30 3363 H 315.68 2.37564 -4.25928 0
M  V30 3364 H 314.685 0.42171 -5.4818 0
M  V30 3365 H 315.91 0.595334 -6.76485 0
M  V30 3366 H 313.856 2.69752 -5.97972 0
M  V30 3367 H 313.773 1.6703 -7.37317 0
M  V30 3368 H 315.041 2.85348 -7.25394 0
M  V30 3369 N 319.27 1.56325 -0.20005 0
M  V30 3370 C 320.218 2.20666 0.735482 0
M  V30 3371 C 321.212 1.17934 1.21605 0
M  V30 3372 O 322.418 1.36068 1.17837 0
M  V30 3373 H 318.793 0.70725 0.255542 0
M  V30 3374 H 320.764 2.9792 0.169166 0
M  V30 3375 C 319.513 2.88391 1.94232 0
M  V30 3376 H 318.836 3.67185 1.58161 0
M  V30 3377 H 320.276 3.3684 2.57517 0
M  V30 3378 C 318.735 1.89692 2.78421 0
M  V30 3379 O 319.265 1.40032 3.76502 0
M  V30 3380 N 317.471 1.57813 2.44015 0
M  V30 3381 H 317.018 1.9839 1.64314 0
M  V30 3382 H 316.976 0.920325 3.00628 0
M  V30 3383 N 320.748 -0.0735177 1.57428 0
M  V30 3384 C 321.988 -0.778363 1.89 0
M  V30 3385 C 322.352 -1.7483 0.793634 0
M  V30 3386 O 323.553 -2.49811 0.992367 0
M  V30 3387 C 321.824 -1.46929 3.25802 0
M  V30 3388 S 323.383 -2.20943 3.79117 0
M  V30 3389 H 320.201 -0.258874 0.662197 0
M  V30 3390 H 322.803 -0.0345338 1.95469 0
M  V30 3391 H 321.507 -0.749532 4.03497 0
M  V30 3392 H 321.038 -2.25258 3.22525 0
M  V30 3393 H 323.053 -3.47435 3.54265 0
M  V30 3394 N 322.226 -1.5378 -0.344866 0
M  V30 3395 C 323.173 -1.81676 -1.42346 0
M  V30 3396 C 324.143 -0.662376 -1.52321 0
M  V30 3397 O 325.328 -0.906675 -1.67881 0
M  V30 3398 C 322.468 -2.03087 -2.79015 0
M  V30 3399 C 321.581 -3.30799 -2.77842 0
M  V30 3400 C 320.716 -3.42285 -4.0622 0
M  V30 3401 C 319.755 -4.6395 -3.9927 0
M  V30 3402 N 318.892 -4.72477 -5.19336 0
M  V30 3403 H 323.732 -2.73703 -1.17858 0
M  V30 3404 H 321.269 -1.35568 -0.570949 0
M  V30 3405 H 323.227 -2.1349 -3.58438 0
M  V30 3406 H 321.857 -1.14375 -3.01858 0
M  V30 3407 H 320.909 -3.29244 -1.90533 0
M  V30 3408 H 322.221 -4.20314 -2.68584 0
M  V30 3409 H 321.375 -3.52113 -4.94066 0
M  V30 3410 H 320.114 -2.50823 -4.18258 0
M  V30 3411 H 319.119 -4.54201 -3.09809 0
M  V30 3412 H 320.344 -5.56775 -3.88817 0
M  V30 3413 H 318.29 -3.83924 -5.3192 0
M  V30 3414 H 318.207 -5.55927 -5.12329 0
M  V30 3415 H 319.475 -4.86613 -6.08957 0
M  V30 3416 N 323.704 0.605807 -1.45491 0
M  V30 3417 C 324.634 1.72709 -1.57143 0
M  V30 3418 C 325.615 1.6476 -0.422884 0
M  V30 3419 O 326.8 1.83132 -0.646247 0
M  V30 3420 C 323.93 3.11316 -1.53948 0
M  V30 3421 C 322.884 3.34077 -2.67537 0
M  V30 3422 C 322.21 4.72975 -2.49397 0
M  V30 3423 C 323.51 3.24158 -4.09535 0
M  V30 3424 H 325.204 1.63214 -2.51001 0
M  V30 3425 H 322.75 0.78379 -1.208 0
M  V30 3426 H 324.703 3.89557 -1.60696 0
M  V30 3427 H 323.427 3.21655 -0.566205 0
M  V30 3428 H 322.086 2.58227 -2.6022 0
M  V30 3429 H 321.734 4.8005 -1.50205 0
M  V30 3430 H 321.434 4.8916 -3.25571 0
M  V30 3431 H 322.958 5.53414 -2.58002 0
M  V30 3432 H 324.372 3.92271 -4.18086 0
M  V30 3433 H 322.769 3.51872 -4.86113 0
M  V30 3434 H 323.839 2.2157 -4.31317 0
M  V30 3435 N 325.182 1.32811 0.848464 0
M  V30 3436 C 326.428 1.23907 1.60546 0
M  V30 3437 C 326.761 -0.197161 1.93197 0
M  V30 3438 O 326.036 -1.13596 1.5788 0
M  V30 3439 C 326.319 2.10489 2.92175 0
M  V30 3440 C 326.172 3.62522 2.66266 0
M  V30 3441 C 327.491 1.97075 3.93509 0
M  V30 3442 H 324.61 0.451459 0.58254 0
M  V30 3443 H 327.252 1.62818 0.979296 0
M  V30 3444 H 325.402 1.77434 3.45614 0
M  V30 3445 H 327.074 4.05821 2.19334 0
M  V30 3446 H 325.317 3.84879 2.00126 0
M  V30 3447 H 325.988 4.18437 3.6002 0
M  V30 3448 H 328.464 2.26045 3.49346 0
M  V30 3449 H 327.34 2.59923 4.83457 0
M  V30 3450 H 327.601 0.940186 4.31987 0
M  V30 3451 N 326.66 -1.06551 1.16123 0
M  V30 3452 C 327.888 -1.83005 0.965237 0
M  V30 3453 C 328.303 -1.82423 -0.486542 0
M  V30 3454 O 327.66 -1.24152 -1.33763 0
M  V30 3455 C 327.711 -3.29733 1.48183 0
M  V30 3456 O 327.432 -3.30416 2.87674 0
M  V30 3457 C 328.933 -4.22926 1.32848 0
M  V30 3458 H 326.153 -0.577118 0.342309 0
M  V30 3459 H 328.697 -1.3445 1.54089 0
M  V30 3460 H 326.852 -3.75609 0.948517 0
M  V30 3461 H 327.266 -4.22149 3.11272 0
M  V30 3462 H 328.74 -5.23916 1.73827 0
M  V30 3463 H 329.217 -4.38346 0.273692 0
M  V30 3464 H 329.823 -3.82894 1.85127 0
M  V30 3465 N 328.138 -0.959301 -1.25041 0
M  V30 3466 C 329.387 -0.612254 -1.92183 0
M  V30 3467 C 329.7 0.855347 -1.75907 0
M  V30 3468 O 330.906 1.31256 -2.37664 0
M  V30 3469 C 329.362 -1.04435 -3.44414 0
M  V30 3470 C 328.97 -2.53482 -3.69393 0
M  V30 3471 C 330.714 -0.770055 -4.17457 0
M  V30 3472 C 328.621 -2.90468 -5.15153 0
M  V30 3473 H 327.551 -0.225279 -0.719559 0
M  V30 3474 H 330.202 -1.16438 -1.41825 0
M  V30 3475 H 328.584 -0.4206 -3.9376 0
M  V30 3476 H 329.758 -3.20916 -3.30681 0
M  V30 3477 H 328.073 -2.78432 -3.0962 0
M  V30 3478 H 330.67 -1.02249 -5.24832 0
M  V30 3479 H 331.013 0.293611 -4.15263 0
M  V30 3480 H 331.546 -1.35437 -3.74034 0
M  V30 3481 H 328.285 -3.95871 -5.22462 0
M  V30 3482 H 327.805 -2.27711 -5.54894 0
M  V30 3483 H 329.484 -2.79914 -5.83315 0
M  V30 3484 N 329.616 1.39756 -0.72842 0
M  V30 3485 C 331.027 1.83498 -0.344289 0
M  V30 3486 C 331.378 1.60868 1.12321 0
M  V30 3487 O 330.503 1.09634 1.86573 0
M  V30 3488 C 331.098 3.33114 -0.618112 0
M  V30 3489 C 329.657 3.753 -0.287549 0
M  V30 3490 C 328.804 2.62831 -0.884048 0
M  V30 3491 H 331.755 1.28842 -0.926578 0
M  V30 3492 H 331.776 3.80334 0.112349 0
M  V30 3493 H 331.288 3.49553 -1.68625 0
M  V30 3494 H 329.389 3.64451 0.775012 0
M  V30 3495 H 329.502 4.72945 -0.765512 0
M  V30 3496 H 327.866 2.52792 -0.311149 0
M  V30 3497 H 328.649 2.82078 -1.95671 0
M  V30 3498 N 331.094 0.475555 1.50254 0
M  V30 3499 C 332.342 -0.077738 2.0195 0
M  V30 3500 C 332.663 -1.39813 1.35931 0
M  V30 3501 O 331.933 -1.89249 0.506123 0
M  V30 3502 H 330.513 -0.031719 0.746326 0
M  V30 3503 H 333.175 0.626995 1.84539 0
M  V30 3504 H 332.271 -0.225995 3.11281 0
M  V30 3505 N 332.573 -1.56217 0.208337 0
M  V30 3506 C 333.85 -1.89739 -0.475234 0
M  V30 3507 C 334.23 -1.1238 -1.78701 0
M  V30 3508 O 333.578 -0.228979 -2.2735 0
M  V30 3509 C 333.788 -3.42289 -0.681101 0
M  V30 3510 C 335.136 -4.12789 -0.994507 0
M  V30 3511 O 336.16 -3.47814 -0.768357 0
M  V30 3512 O 335.019 -5.27649 -1.42299 0
M  V30 3513 H 332.113 -0.788478 -0.249461 0
M  V30 3514 H 334.659 -1.67855 0.249538 0
M  V30 3515 H 333.431 -3.90534 0.244722 0
M  V30 3516 H 333.054 -3.69909 -1.45785 0
M  V30 3517 N 334.051 0.0651679 -1.57465 0
M  V30 3518 C 335.279 0.775808 -1.91804 0
M  V30 3519 C 335.694 1.70782 -0.804916 0
M  V30 3520 O 335.051 1.81153 0.221311 0
M  V30 3521 C 335.102 1.56381 -3.25925 0
M  V30 3522 O 334.823 0.669248 -4.32958 0
M  V30 3523 C 336.324 2.37485 -3.7432 0
M  V30 3524 H 333.544 0.2202 -0.63384 0
M  V30 3525 H 336.088 0.0334587 -2.04473 0
M  V30 3526 H 334.243 2.25837 -3.14764 0
M  V30 3527 H 334.657 1.21801 -5.10162 0
M  V30 3528 H 336.131 2.88223 -4.70778 0
M  V30 3529 H 336.608 3.17307 -3.03666 0
M  V30 3530 H 337.214 1.73173 -3.88447 0
M  V30 3531 N 335.529 1.53961 0.336706 0
M  V30 3532 C 336.479 1.7881 1.41461 0
M  V30 3533 C 337.463 0.643561 1.47469 0
M  V30 3534 O 338.655 0.903166 1.52223 0
M  V30 3535 C 335.784 2.00722 2.78506 0
M  V30 3536 C 334.87 3.2126 2.76862 0
M  V30 3537 N 335.261 4.42588 2.44845 0
M  V30 3538 C 333.559 3.22568 3.08004 0
M  V30 3539 C 334.26 5.2447 2.51607 0
M  V30 3540 N 333.236 4.61344 2.87511 0
M  V30 3541 H 337.038 2.70205 1.15615 0
M  V30 3542 H 334.552 1.52978 0.545112 0
M  V30 3543 H 336.549 2.1666 3.5618 0
M  V30 3544 H 335.209 1.10573 3.05293 0
M  V30 3545 H 336.22 4.69819 2.17922 0
M  V30 3546 H 332.897 2.42409 3.39918 0
M  V30 3547 H 334.287 6.31324 2.29955 0
M  V30 3548 N 337.007 -0.598083 1.45811 0
M  V30 3549 C 338.247 -1.36802 1.5187 0
M  V30 3550 C 338.611 -1.9133 0.160224 0
M  V30 3551 O 339.812 -2.6863 0.0955302 0
M  V30 3552 C 338.083 -2.47835 2.57513 0
M  V30 3553 S 339.642 -3.35458 2.82866 0
M  V30 3554 H 336.46 -0.466278 0.536755 0
M  V30 3555 H 339.062 -0.689152 1.82951 0
M  V30 3556 H 337.766 -2.06141 3.54872 0
M  V30 3557 H 337.297 -3.20512 2.28114 0
M  V30 3558 H 339.312 -4.46251 2.16967 0
M  V30 3559 N 338.485 -1.33259 -0.841409 0
M  V30 3560 C 339.715 -1.2742 -1.62628 0
M  V30 3561 C 340.123 0.157604 -1.88542 0
M  V30 3562 O 339.466 1.10938 -1.46419 0
M  V30 3563 C 339.528 -1.97797 -3.00194 0
M  V30 3564 C 339.192 -3.47109 -2.97261 0
M  V30 3565 C 340.189 -4.42358 -2.73159 0
M  V30 3566 C 337.874 -3.89247 -3.17478 0
M  V30 3567 C 339.868 -5.77718 -2.69296 0
M  V30 3568 C 337.555 -5.24713 -3.13241 0
M  V30 3569 C 338.553 -6.1876 -2.89181 0
M  V30 3570 O 338.241 -7.51745 -2.84843 0
M  V30 3571 H 337.973 -0.440436 -0.512827 0
M  V30 3572 H 340.527 -1.76153 -1.05638 0
M  V30 3573 H 338.757 -1.43652 -3.59028 0
M  V30 3574 H 340.446 -1.8549 -3.61038 0
M  V30 3575 H 341.212 -4.11127 -2.57294 0
M  V30 3576 H 337.091 -3.16456 -3.35226 0
M  V30 3577 H 340.635 -6.51097 -2.50436 0
M  V30 3578 H 336.532 -5.55569 -3.28654 0
M  V30 3579 H 337.3 -7.61262 -3.00702 0
M  V30 3580 N 339.963 1.05934 -1.16686 0
M  V30 3581 C 341.24 1.75643 -0.860747 0
M  V30 3582 C 341.62 2.01144 0.640641 0
M  V30 3583 O 340.968 1.64147 1.58959 0
M  V30 3584 C 341.178 3.05493 -1.68745 0
M  V30 3585 C 342.526 3.79581 -1.90271 0
M  V30 3586 O 343.55 3.15344 -1.65641 0
M  V30 3587 O 342.409 4.9499 -2.31618 0
M  V30 3588 H 339.503 0.763426 -0.317977 0
M  V30 3589 H 342.049 1.1217 -1.27342 0
M  V30 3590 H 340.821 2.8264 -2.70611 0
M  V30 3591 H 340.444 3.76702 -1.27206 0
M  V30 3592 N 341.441 0.965919 1.2453 0
M  V30 3593 C 342.391 0.465731 2.23193 0
M  V30 3594 C 343.375 -0.451277 1.54442 0
M  V30 3595 O 344.567 -0.282489 1.74731 0
M  V30 3596 C 341.696 -0.244511 3.42428 0
M  V30 3597 C 340.782 0.691222 4.18429 0
M  V30 3598 N 341.173 1.82771 4.71623 0
M  V30 3599 C 339.471 0.501649 4.4317 0
M  V30 3600 C 340.172 2.41285 5.29298 0
M  V30 3601 N 339.148 1.69819 5.16394 0
M  V30 3602 H 342.95 1.33291 2.61937 0
M  V30 3603 H 340.464 0.824789 1.39896 0
M  V30 3604 H 342.461 -0.620056 4.12263 0
M  V30 3605 H 341.121 -1.10815 3.05205 0
M  V30 3606 H 342.132 2.20929 4.68413 0
M  V30 3607 H 338.809 -0.318177 4.16286 0
M  V30 3608 H 340.199 3.37181 5.8117 0
M  V30 3609 N 342.919 -1.39368 0.735821 0
M  V30 3610 C 343.869 -2.27885 0.0724287 0
M  V30 3611 C 344.853 -1.44301 -0.711756 0
M  V30 3612 O 346.045 -1.67206 -0.58063 0
M  V30 3613 C 343.174 -3.33029 -0.833454 0
M  V30 3614 C 342.26 -4.24078 -0.0433749 0
M  V30 3615 N 342.651 -4.96138 0.983903 0
M  V30 3616 C 340.949 -4.45164 -0.272905 0
M  V30 3617 C 341.65 -5.63069 1.4604 0
M  V30 3618 N 340.626 -5.37991 0.778857 0
M  V30 3619 H 344.428 -2.81052 0.859467 0
M  V30 3620 H 341.942 -1.5206 0.570227 0
M  V30 3621 H 343.939 -3.95311 -1.32419 0
M  V30 3622 H 342.599 -2.81421 -1.61964 0
M  V30 3623 H 343.61 -4.9958 1.36528 0
M  V30 3624 H 340.287 -4.04497 -1.03383 0
M  V30 3625 H 341.677 -6.30755 2.31511 0
M  V30 3626 N 344.397 -0.483516 -1.5 0
M  V30 3627 C 345.327 0.293829 -2.31644 0
M  V30 3628 C 346.308 0.978864 -1.39112 0
M  V30 3629 O 347.493 0.973644 -1.68029 0
M  V30 3630 C 344.623 1.36897 -3.19181 0
M  V30 3631 C 343.577 0.804833 -4.20365 0
M  V30 3632 C 342.903 1.9792 -4.96721 0
M  V30 3633 C 344.203 -0.192313 -5.21946 0
M  V30 3634 H 345.897 -0.387616 -2.9688 0
M  V30 3635 H 343.443 -0.187856 -1.42769 0
M  V30 3636 H 345.396 1.92037 -3.751 0
M  V30 3637 H 344.12 2.07936 -2.51853 0
M  V30 3638 H 342.779 0.275319 -3.65565 0
M  V30 3639 H 342.427 2.67686 -4.25856 0
M  V30 3640 H 342.127 1.60789 -5.65173 0
M  V30 3641 H 343.651 2.53526 -5.55479 0
M  V30 3642 H 345.065 0.270333 -5.72662 0
M  V30 3643 H 343.462 -0.478543 -5.98189 0
M  V30 3644 H 344.532 -1.11409 -4.71928 0
M  V30 3645 N 345.875 1.56104 -0.216619 0
M  V30 3646 C 346.785 2.23694 0.706982 0
M  V30 3647 C 347.801 1.24295 1.21765 0
M  V30 3648 O 348.977 1.57094 1.2603 0
M  V30 3649 C 346.042 2.8998 1.90033 0
M  V30 3650 C 345.103 4.04708 1.43213 0
M  V30 3651 C 344.336 4.67824 2.56859 0
M  V30 3652 O 344.559 4.29913 3.74874 0
M  V30 3653 O 343.493 5.56905 2.28343 0
M  V30 3654 H 347.319 3.03272 0.161235 0
M  V30 3655 H 344.904 1.49394 0.0136177 0
M  V30 3656 H 346.786 3.31837 2.59735 0
M  V30 3657 H 345.461 2.13365 2.43428 0
M  V30 3658 H 344.368 3.6743 0.70327 0
M  V30 3659 H 345.701 4.83051 0.944615 0
M  V30 3660 N 347.353 -0.0568162 1.57498 0
M  V30 3661 C 348.283 -1.06593 2.0775 0
M  V30 3662 C 349.264 -1.39448 0.974082 0
M  V30 3663 O 350.449 -1.48815 1.24771 0
M  V30 3664 C 347.579 -2.37509 2.5339 0
M  V30 3665 C 346.533 -2.1897 3.67745 0
M  V30 3666 C 345.859 -3.55402 3.99492 0
M  V30 3667 C 347.159 -1.59859 4.97235 0
M  V30 3668 H 348.853 -0.647706 2.9231 0
M  V30 3669 H 346.399 -0.310116 1.40621 0
M  V30 3670 H 348.352 -3.08409 2.87162 0
M  V30 3671 H 347.076 -2.8134 1.65878 0
M  V30 3672 H 345.735 -1.50508 3.3428 0
M  V30 3673 H 345.383 -3.9683 3.09088 0
M  V30 3674 H 345.083 -3.43831 4.76502 0
M  V30 3675 H 346.607 -4.27708 4.35773 0
M  V30 3676 H 348.021 -2.20642 5.29141 0
M  V30 3677 H 346.418 -1.58942 5.78669 0
M  V30 3678 H 347.488 -0.561506 4.81638 0
M  V30 3679 N 348.832 -1.54138 -0.328536 0
M  V30 3680 C 350.078 -1.7236 -1.06865 0
M  V30 3681 C 350.411 -0.493231 -1.87832 0
M  V30 3682 O 349.686 0.5098 -1.877 0
M  V30 3683 C 349.969 -2.99621 -1.99747 0
M  V30 3684 C 349.822 -4.32899 -1.22143 0
M  V30 3685 C 351.141 -3.22615 -2.99345 0
M  V30 3686 H 348.26 -0.627151 -0.387105 0
M  V30 3687 H 350.902 -1.86827 -0.345767 0
M  V30 3688 H 349.052 -2.87418 -2.61387 0
M  V30 3689 H 350.724 -4.56978 -0.630017 0
M  V30 3690 H 348.967 -4.30628 -0.523628 0
M  V30 3691 H 349.638 -5.18154 -1.90318 0
M  V30 3692 H 352.114 -3.34248 -2.47826 0
M  V30 3693 H 350.99 -4.13027 -3.61524 0
M  V30 3694 H 351.251 -2.3961 -3.71536 0
M  V30 3695 N 350.31 0.590341 -1.46126 0
M  V30 3696 C 351.538 1.37504 -1.54597 0
M  V30 3697 C 351.953 1.87897 -0.184447 0
M  V30 3698 O 351.31 1.63192 0.816984 0
M  V30 3699 C 351.361 2.56779 -2.54454 0
M  V30 3700 O 351.082 2.08476 -3.85317 0
M  V30 3701 C 352.583 3.49427 -2.72792 0
M  V30 3702 H 349.803 0.420325 -0.523037 0
M  V30 3703 H 352.347 0.718383 -1.91467 0
M  V30 3704 H 350.502 3.1845 -2.20609 0
M  V30 3705 H 350.916 2.86097 -4.396 0
M  V30 3706 H 352.39 4.29619 -3.466 0
M  V30 3707 H 352.867 4.00876 -1.79429 0
M  V30 3708 H 353.473 2.93598 -3.07702 0
M  V30 3709 N 351.788 1.33704 0.83433 0
M  V30 3710 C 352.698 1.26382 1.97648 0
M  V30 3711 C 353.714 0.173548 1.73132 0
M  V30 3712 O 354.89 0.397962 1.97429 0
M  V30 3713 C 351.955 1.00769 3.31733 0
M  V30 3714 C 351.016 2.1884 3.69334 0
M  V30 3715 C 350.249 1.9444 4.9702 0
M  V30 3716 O 350.472 0.896961 5.63303 0
M  V30 3717 O 349.406 2.81093 5.32231 0
M  V30 3718 H 353.232 2.22444 2.06767 0
M  V30 3719 H 350.817 1.13795 0.968037 0
M  V30 3720 H 352.699 0.882186 4.12062 0
M  V30 3721 H 351.374 0.0773783 3.23608 0
M  V30 3722 H 350.281 2.36946 2.89495 0
M  V30 3723 H 351.614 3.10221 3.82131 0
M  V30 3724 N 353.266 -1.05314 1.17247 0
M  V30 3725 C 354.229 -2.112 0.890357 0
M  V30 3726 C 355.229 -1.60359 -0.118943 0
M  V30 3727 O 356.419 -1.73833 0.113086 0
M  V30 3728 C 353.551 -3.39266 0.333422 0
M  V30 3729 H 354.744 -2.37659 1.82916 0
M  V30 3730 H 352.297 -1.21538 0.982758 0
M  V30 3731 H 353.032 -3.18462 -0.612587 0
M  V30 3732 H 352.817 -3.77477 1.06082 0
M  V30 3733 H 354.307 -4.17315 0.154322 0
M  V30 3734 N 354.744 -0.972509 -1.24016 0
M  V30 3735 C 355.99 -0.637978 -1.92504 0
M  V30 3736 C 356.323 0.825383 -1.75787 0
M  V30 3737 O 355.598 1.59442 -1.11393 0
M  V30 3738 C 355.881 -1.01942 -3.45369 0
M  V30 3739 C 355.734 -2.53983 -3.71231 0
M  V30 3740 C 357.053 -0.55751 -4.36555 0
M  V30 3741 H 354.172 -0.233248 -0.699117 0
M  V30 3742 H 356.814 -1.21238 -1.46292 0
M  V30 3743 H 354.964 -0.530656 -3.84859 0
M  V30 3744 H 356.636 -3.10374 -3.41271 0
M  V30 3745 H 354.879 -2.96968 -3.16216 0
M  V30 3746 H 355.55 -2.75723 -4.78206 0
M  V30 3747 H 358.026 -0.977029 -4.04467 0
M  V30 3748 H 356.902 -0.85292 -5.42233 0
M  V30 3749 H 357.163 0.542328 -4.38761 0
M  V30 3750 N 356.222 1.38976 -0.743202 0
M  V30 3751 C 357.169 2.30544 -0.10861 0
M  V30 3752 C 358.139 1.49642 0.720869 0
M  V30 3753 O 359.324 1.78304 0.679142 0
M  V30 3754 C 356.464 3.36018 0.786496 0
M  V30 3755 C 355.577 4.31963 -0.0564849 0
M  V30 3756 C 354.712 5.24506 0.840657 0
M  V30 3757 C 353.751 6.121 -0.00658363 0
M  V30 3758 N 352.888 6.96973 0.846943 0
M  V30 3759 H 357.728 2.8424 -0.895088 0
M  V30 3760 H 355.265 1.3995 -0.453048 0
M  V30 3761 H 357.223 3.95768 1.31999 0
M  V30 3762 H 355.853 2.83758 1.53887 0
M  V30 3763 H 354.905 3.73763 -0.707492 0
M  V30 3764 H 356.217 4.93703 -0.711229 0
M  V30 3765 H 355.371 5.89322 1.4417 0
M  V30 3766 H 354.11 4.63107 1.52916 0
M  V30 3767 H 353.115 5.46289 -0.620366 0
M  V30 3768 H 354.34 6.75565 -0.691992 0
M  V30 3769 H 352.286 6.38133 1.52059 0
M  V30 3770 H 352.203 7.5559 0.248864 0
M  V30 3771 H 353.471 7.6621 1.43328 0
M  V30 3772 N 357.7 0.491464 1.49741 0
M  V30 3773 C 358.61 -0.296835 2.32715 0
M  V30 3774 C 359.626 -0.976536 1.44013 0
M  V30 3775 O 360.802 -0.960023 1.77047 0
M  V30 3776 C 357.867 -1.35288 3.19215 0
M  V30 3777 C 356.928 -0.687632 4.23757 0
M  V30 3778 C 356.161 -1.69336 5.06123 0
M  V30 3779 O 356.384 -2.92219 4.89861 0
M  V30 3780 O 355.318 -1.25394 5.88693 0
M  V30 3781 H 359.144 0.382048 3.01287 0
M  V30 3782 H 356.729 0.252953 1.47243 0
M  V30 3783 H 358.611 -1.96411 3.72828 0
M  V30 3784 H 357.286 -2.01487 2.53347 0
M  V30 3785 H 356.193 -0.0369159 3.74082 0
M  V30 3786 H 357.526 -0.0682566 4.92153 0
M  V30 3787 N 359.178 -1.55987 0.224894 0
M  V30 3788 C 360.425 -1.9839 -0.4059 0
M  V30 3789 C 360.753 -1.11261 -1.59535 0
M  V30 3790 O 360.008 -0.158314 -1.95059 0
M  V30 3791 C 360.307 -3.46394 -0.880106 0
M  V30 3792 C 359.973 -4.5046 0.19918 0
M  V30 3793 C 358.635 -4.7864 0.495661 0
M  V30 3794 C 360.987 -5.12855 0.928939 0
M  V30 3795 C 358.315 -5.66497 1.52636 0
M  V30 3796 C 360.667 -6.01828 1.949 0
M  V30 3797 C 359.331 -6.28351 2.25236 0
M  V30 3798 H 358.601 -0.725961 -0.148529 0
M  V30 3799 H 361.248 -1.88668 0.328113 0
M  V30 3800 H 359.553 -3.53337 -1.69294 0
M  V30 3801 H 361.25 -3.76577 -1.37808 0
M  V30 3802 H 357.84 -4.28579 -0.0420526 0
M  V30 3803 H 362.024 -4.9115 0.713129 0
M  V30 3804 H 357.28 -5.8531 1.76698 0
M  V30 3805 H 361.454 -6.49225 2.51951 0
M  V30 3806 H 359.081 -6.96226 3.05244 0
M  V30 3807 N 360.656 0.0484629 -1.57525 0
M  V30 3808 C 361.589 1.08755 -2.00618 0
M  V30 3809 C 362.567 1.36272 -0.887058 0
M  V30 3810 O 363.751 1.49255 -1.15131 0
M  V30 3811 C 360.878 2.42675 -2.36277 0
M  V30 3812 C 359.924 2.31142 -3.58435 0
M  V30 3813 S 360.757 1.68326 -5.08357 0
M  V30 3814 C 361.913 3.03776 -5.47239 0
M  V30 3815 H 362.146 0.720415 -2.88439 0
M  V30 3816 H 359.679 0.257801 -1.52233 0
M  V30 3817 H 361.637 3.19699 -2.57494 0
M  V30 3818 H 360.298 2.76541 -1.48942 0
M  V30 3819 H 359.491 3.29957 -3.80978 0
M  V30 3820 H 359.093 1.62258 -3.36969 0
M  V30 3821 H 361.385 4.00106 -5.46737 0
M  V30 3822 H 362.328 2.85988 -6.47778 0
M  V30 3823 H 362.736 3.05456 -4.74718 0
M  V30 3824 N 362.134 1.5431 0.320358 0
M  V30 3825 C 363.064 1.86912 1.3995 0
M  V30 3826 C 364.045 0.726211 1.53819 0
M  V30 3827 O 365.23 0.980233 1.67646 0
M  V30 3828 C 362.36 2.09932 2.7667 0
M  V30 3829 C 361.314 3.25776 2.77586 0
M  V30 3830 C 360.64 3.34173 4.17412 0
M  V30 3831 C 361.94 4.6335 2.41048 0
M  V30 3832 H 363.634 2.77292 1.12914 0
M  V30 3833 H 361.18 1.33421 0.541738 0
M  V30 3834 H 363.133 2.31324 3.52232 0
M  V30 3835 H 361.857 1.16304 3.0519 0
M  V30 3836 H 360.516 3.04276 2.04479 0
M  V30 3837 H 360.164 2.38098 4.43078 0
M  V30 3838 H 359.864 4.12033 4.18931 0
M  V30 3839 H 361.388 3.57803 4.94782 0
M  V30 3840 H 362.802 4.84602 3.06324 0
M  V30 3841 H 361.199 5.43782 2.53813 0
M  V30 3842 H 362.269 4.65381 1.36193 0
M  V30 3843 N 363.613 -0.582584 1.46437 0
M  V30 3844 C 364.523 -1.71949 1.59595 0
M  V30 3845 C 365.539 -1.67264 0.479443 0
M  V30 3846 O 366.715 -1.87171 0.743579 0
M  V30 3847 C 363.78 -3.08452 1.58298 0
M  V30 3848 C 362.841 -3.244 2.81182 0
M  V30 3849 C 362.074 -4.54391 2.79937 0
M  V30 3850 O 362.297 -5.38287 1.8869 0
M  V30 3851 O 361.231 -4.73588 3.71481 0
M  V30 3852 H 365.057 -1.63795 2.55744 0
M  V30 3853 H 362.642 -0.749643 1.29231 0
M  V30 3854 H 364.524 -3.89732 1.60271 0
M  V30 3855 H 363.199 -3.17043 0.653094 0
M  V30 3856 H 362.106 -2.42613 2.84763 0
M  V30 3857 H 363.439 -3.20699 3.7338 0
M  V30 3858 N 365.091 -1.34144 -0.827227 0
M  V30 3859 C 366.023 -1.21206 -1.9453 0
M  V30 3860 C 367.036 -0.140176 -1.62195 0
M  V30 3861 O 368.225 -0.391647 -1.7415 0
M  V30 3862 C 365.325 -0.839141 -3.28347 0
M  V30 3863 C 364.498 -2.0051 -3.88734 0
M  V30 3864 C 363.557 -1.61128 -5.00923 0
M  V30 3865 O 362.583 -2.32726 -5.19449 0
M  V30 3866 N 363.785 -0.522958 -5.7814 0
M  V30 3867 H 366.55 -2.17525 -2.06162 0
M  V30 3868 H 364.111 -1.27043 -1.00358 0
M  V30 3869 H 366.103 -0.557556 -4.00841 0
M  V30 3870 H 364.673 0.0337293 -3.12582 0
M  V30 3871 H 363.893 -2.45166 -3.08686 0
M  V30 3872 H 365.181 -2.78498 -4.25812 0
M  V30 3873 H 364.579 0.0723518 -5.65654 0
M  V30 3874 H 363.136 -0.301089 -6.51104 0
M  V30 3875 N 366.569 1.04691 -1.17803 0
M  V30 3876 C 367.818 1.77176 -0.963931 0
M  V30 3877 C 368.131 1.88888 0.508015 0
M  V30 3878 O 369.337 2.58164 0.840465 0
M  V30 3879 C 367.793 3.18518 -1.67555 0
M  V30 3880 C 367.401 3.14919 -3.18637 0
M  V30 3881 C 369.145 3.95424 -1.54402 0
M  V30 3882 C 367.052 4.51081 -3.82466 0
M  V30 3883 H 365.982 0.664116 -0.357023 0
M  V30 3884 H 368.633 1.17303 -1.4111 0
M  V30 3885 H 367.015 3.78748 -1.15613 0
M  V30 3886 H 368.189 2.64178 -3.77554 0
M  V30 3887 H 366.504 2.51512 -3.31859 0
M  V30 3888 H 369.101 4.96106 -1.99456 0
M  V30 3889 H 369.444 4.13343 -0.495329 0
M  V30 3890 H 369.977 3.41754 -2.0359 0
M  V30 3891 H 366.716 4.38368 -4.87354 0
M  V30 3892 H 366.236 5.01951 -3.28337 0
M  V30 3893 H 367.915 5.2001 -3.84965 0
M  V30 3894 N 368.047 0.979072 1.23499 0
M  V30 3895 C 369.01 0.523244 2.23147 0
M  V30 3896 C 370.01 -0.386406 1.56088 0
M  V30 3897 O 371.2 -0.180283 1.73265 0
M  V30 3898 C 368.332 -0.240739 3.40049 0
M  V30 3899 H 369.525 1.40432 2.64989 0
M  V30 3900 H 367.078 0.764824 1.36309 0
M  V30 3901 H 367.813 -1.13841 3.03662 0
M  V30 3902 H 367.598 0.412207 3.89927 0
M  V30 3903 H 369.088 -0.548297 4.13985 0
M  V30 3904 N 369.525 -1.3858 0.750561 0
M  V30 3905 C 370.472 -2.30483 0.120835 0
M  V30 3906 C 371.442 -1.50022 -0.712923 0
M  V30 3907 O 372.627 -1.78662 -0.669676 0
M  V30 3908 C 369.767 -3.36431 -0.768666 0
M  V30 3909 C 368.88 -4.31927 0.0793922 0
M  V30 3910 C 368.015 -5.24944 -0.81283 0
M  V30 3911 C 367.054 -6.12088 0.0390447 0
M  V30 3912 N 366.191 -6.97412 -0.809969 0
M  V30 3913 H 371.031 -2.83761 0.91015 0
M  V30 3914 H 368.568 -1.39707 0.460463 0
M  V30 3915 H 370.526 -3.96462 -1.29898 0
M  V30 3916 H 369.156 -2.8457 -1.5238 0
M  V30 3917 H 368.208 -3.73382 0.727303 0
M  V30 3918 H 369.52 -4.93319 0.737401 0
M  V30 3919 H 368.674 -5.90078 -1.41042 0
M  V30 3920 H 367.413 -4.63911 -1.50458 0
M  V30 3921 H 366.418 -5.45952 0.649328 0
M  V30 3922 H 367.643 -6.75189 0.727809 0
M  V30 3923 H 365.589 -6.38931 -1.48672 0
M  V30 3924 H 365.506 -7.55712 -0.208789 0
M  V30 3925 H 366.774 -7.66959 -1.39263 0
M  V30 3926 O 371.042 -0.64105 -1.48232 0
M  V30 3927 H 371.733 -0.162855 -1.93014 0
M  V30 END ATOM
M  V30 BEGIN BOND
M  V30 END BOND
M  V30 END CTAB
M  END
$$$$
