drugbank_target|P11474 Steroid hormone receptor ERR1 (DB00197; DB00255; DB01645; DB04468; DB06732; DB06833; DB07776)
 OpenBabel12092120373D

  0  0  0     0  0            999 V3000
M  V30 BEGIN CTAB
M  V30 COUNTS 6441 6503 0 0 0
M  V30 BEGIN ATOM
M  V30 1 H -0.908 1.98254 -0.117106 0
M  V30 2 N 0 1.576 0 0
M  V30 3 C 0.933 2.03868 1.02534 0
M  V30 4 C 1.911 0.928543 1.3348 0
M  V30 5 O 3.095 1.19667 1.45644 0
M  V30 6 C 0.222 2.43627 2.35294 0
M  V30 7 C -0.732 3.65373 2.2001 0
M  V30 8 S 0.101 5.13292 1.52614 0
M  V30 9 C 1.257 5.56322 2.86805 0
M  V30 10 H 1.49 2.90518 0.631377 0
M  V30 11 H -0.977 1.52953 0.210867 0
M  V30 12 H 0.981 2.67203 3.11629 0
M  V30 13 H -0.358 1.57376 2.7183 0
M  V30 14 H -1.165 3.90944 3.18086 0
M  V30 15 H -1.563 3.418 1.51819 0
M  V30 16 H 0.729 5.58782 3.83104 0
M  V30 17 H 1.672 6.56266 2.65933 0
M  V30 18 H 2.08 4.83886 2.90714 0
M  V30 19 N 1.4781 -0.272755 1.55222 0
M  V30 20 C 2.7031 -1.02683 1.80197 0
M  V30 21 C 3.1281 -1.79142 0.573551 0
M  V30 22 O 2.4861 -1.74917 -0.476849 0
M  V30 23 C 2.5341 -1.9609 3.02624 0
M  V30 24 O 1.6381 -3.04863 2.77727 0
M  V30 25 H 0.9791 -0.293557 0.595584 0
M  V30 26 H 3.5091 -0.30159 2.02365 0
M  V30 27 H 3.5191 -2.38039 3.31363 0
M  V30 28 H 2.1941 -1.39851 3.91682 0
M  V30 29 H 0.7711 -2.67228 2.60084 0
M  V30 30 N 2.9562 -1.48159 -0.537278 0
M  V30 31 C 4.1812 -1.59707 -1.32319 0
M  V30 32 C 4.6062 -0.254859 -1.86365 0
M  V30 33 O 3.9642 0.772378 -1.64024 0
M  V30 34 C 4.0122 -2.6412 -2.45505 0
M  V30 35 O 3.1162 -2.20774 -3.48328 0
M  V30 36 H 2.4572 -0.535791 -0.392204 0
M  V30 37 H 4.9872 -1.94092 -0.647268 0
M  V30 38 H 4.9972 -2.85166 -2.91795 0
M  V30 39 H 3.6722 -3.61567 -2.05528 0
M  V30 40 H 2.2492 -2.09911 -3.08207 0
M  V30 41 N 4.4343 0.785586 -1.36625 0
M  V30 42 C 5.3663 1.90711 -1.2713 0
M  V30 43 C 6.3793 1.61688 -0.189986 0
M  V30 44 O 7.5683 1.72864 -0.445014 0
M  V30 45 C 4.6683 3.25611 -0.939713 0
M  V30 46 C 3.8413 3.82385 -2.12369 0
M  V30 47 C 2.9003 4.95732 -1.76456 0
M  V30 48 O 1.9263 5.12047 -2.48589 0
M  V30 49 N 3.1283 5.76258 -0.700492 0
M  V30 50 H 5.8933 1.99376 -2.23762 0
M  V30 51 H 3.4543 0.964041 -1.30069 0
M  V30 52 H 5.4463 3.98937 -0.680554 0
M  V30 53 H 4.0163 3.12538 -0.0624074 0
M  V30 54 H 3.2363 3.01001 -2.54543 0
M  V30 55 H 4.5243 4.17047 -2.9146 0
M  V30 56 H 3.9223 5.65609 -0.101624 0
M  V30 57 H 2.4793 6.4987 -0.501165 0
M  V30 58 N 5.9124 1.20967 1.01018 0
M  V30 59 C 7.1584 1.02526 1.74975 0
M  V30 60 C 7.4914 -0.4408 1.89131 0
M  V30 61 O 6.7664 -1.32718 1.42184 0
M  V30 62 C 7.0494 1.71699 3.1653 0
M  V30 63 C 6.9024 3.25791 3.10129 0
M  V30 64 C 8.2214 1.45531 4.15342 0
M  V30 65 H 5.3404 0.373863 0.635134 0
M  V30 66 H 7.9824 1.49071 1.17805 0
M  V30 67 H 6.1324 1.32128 3.65341 0
M  V30 68 H 7.8044 3.74697 2.69072 0
M  V30 69 H 6.0474 3.56363 2.47362 0
M  V30 70 H 6.7184 3.69353 4.10222 0
M  V30 71 H 9.1944 1.79872 3.75213 0
M  V30 72 H 8.0704 1.96453 5.1254 0
M  V30 73 H 8.3314 0.384237 4.40427 0
M  V30 74 N 7.3905 -1.2043 1.01659 0
M  V30 75 C 8.6365 -1.90079 0.706963 0
M  V30 76 C 8.9695 -1.78648 -0.761474 0
M  V30 77 O 8.2445 -1.17069 -1.55323 0
M  V30 78 C 8.5275 -3.41469 1.14327 0
M  V30 79 C 8.3805 -3.61833 2.67201 0
M  V30 80 C 9.6995 -4.34261 0.714529 0
M  V30 81 H 6.8185 -0.690254 0.2583 0
M  V30 82 H 9.4605 -1.41826 1.26433 0
M  V30 83 H 7.6105 -3.82696 0.669056 0
M  V30 84 H 9.2825 -3.2986 3.22475 0
M  V30 85 H 7.5255 -3.05304 3.08175 0
M  V30 86 H 8.1965 -4.67955 2.92783 0
M  V30 87 H 10.6725 -4.00682 1.12221 0
M  V30 88 H 9.5485 -5.38806 1.04784 0
M  V30 89 H 9.8095 -4.40431 -0.383799 0
M  V30 90 N 8.8686 -0.792821 -1.36206 0
M  V30 91 C 10.1166 -0.366062 -1.98757 0
M  V30 92 C 10.4376 1.0668 -1.63231 0
M  V30 93 O 9.7076 1.73587 -0.907978 0
M  V30 94 H 8.2876 -0.132364 -0.735179 0
M  V30 95 H 10.9496 -1.01562 -1.66347 0
M  V30 96 H 10.0456 -0.460638 -3.08682 0
M  V30 97 N 10.3467 1.47872 -0.545128 0
M  V30 98 C 11.5957 2.01695 -0.0145033 0
M  V30 99 C 11.9087 1.42609 1.33873 0
M  V30 100 O 13.1147 1.88021 1.95858 0
M  V30 101 C 11.5707 3.59892 0.0245068 0
M  V30 102 C 11.1787 4.27966 -1.32475 0
M  V30 103 C 12.9227 4.21507 0.50316 0
M  V30 104 C 10.8297 5.78136 -1.2455 0
M  V30 105 H 9.7597 0.753998 -0.00165172 0
M  V30 106 H 12.4107 1.69985 -0.691175 0
M  V30 107 H 10.7927 3.88509 0.766575 0
M  V30 108 H 11.9667 4.11003 -2.08357 0
M  V30 109 H 10.2817 3.78286 -1.74036 0
M  V30 110 H 12.8787 5.31538 0.580656 0
M  V30 111 H 13.2217 3.87855 1.51243 0
M  V30 112 H 13.7547 3.97376 -0.183681 0
M  V30 113 H 10.4937 6.16388 -2.23039 0
M  V30 114 H 10.0137 5.97469 -0.528282 0
M  V30 115 H 11.6927 6.40099 -0.942488 0
M  V30 116 N 11.8248 0.280983 1.55075 0
M  V30 117 C 12.7348 -0.61388 2.26426 0
M  V30 118 C 13.7508 -1.16521 1.29224 0
M  V30 119 O 14.9268 -1.19426 1.62171 0
M  V30 120 C 11.9918 -1.7788 2.9759 0
M  V30 121 C 11.0528 -1.26355 4.10284 0
M  V30 122 C 10.2858 -2.37295 4.78045 0
M  V30 123 O 10.5088 -3.56777 4.45047 0
M  V30 124 O 9.4428 -2.05119 5.65871 0
M  V30 125 H 13.2688 -0.0356932 3.03679 0
M  V30 126 H 10.8538 0.0481686 1.49322 0
M  V30 127 H 12.7358 -2.45791 3.42293 0
M  V30 128 H 11.4108 -2.34397 2.23249 0
M  V30 129 H 10.3178 -0.550735 3.70024 0
M  V30 130 H 11.6508 -0.744065 4.86543 0
M  V30 131 N 13.3029 -1.57598 0.00835791 0
M  V30 132 C 14.7139 -1.7892 -0.53333 0
M  V30 133 C 15.0649 -0.916609 -1.73473 0
M  V30 134 O 14.1899 -0.121336 -2.1606 0
M  V30 135 C 14.7849 -3.24488 -0.974313 0
M  V30 136 C 13.3439 -3.46878 -1.46125 0
M  V30 137 C 12.4909 -2.74157 -0.416302 0
M  V30 138 H 15.4419 -1.56958 0.234495 0
M  V30 139 H 15.4629 -3.3306 -1.83988 0
M  V30 140 H 14.9749 -3.87972 -0.099718 0
M  V30 141 H 13.0759 -2.8862 -2.35646 0
M  V30 142 H 13.1889 -4.55572 -1.48295 0
M  V30 143 H 11.5529 -2.39022 -0.87981 0
M  V30 144 H 12.3359 -3.40345 0.44947 0
M  V30 145 N 14.781 0.264519 -1.55364 0
M  V30 146 C 15.711 1.33121 -1.91836 0
M  V30 147 C 16.692 1.51101 -0.781192 0
M  V30 148 O 17.877 1.64003 -1.04003 0
M  V30 149 C 15.007 2.68921 -2.19769 0
M  V30 150 C 13.961 2.65661 -3.35571 0
M  V30 151 C 13.287 4.05093 -3.49004 0
M  V30 152 C 14.587 2.24187 -4.71739 0
M  V30 153 H 16.281 1.02844 -2.81182 0
M  V30 154 H 13.827 0.493286 -1.35287 0
M  V30 155 H 15.78 3.43663 -2.43872 0
M  V30 156 H 14.504 3.00799 -1.27231 0
M  V30 157 H 13.163 1.93377 -3.1145 0
M  V30 158 H 12.811 4.34206 -2.53917 0
M  V30 159 H 12.511 4.03804 -4.26868 0
M  V30 160 H 14.035 4.81561 -3.75408 0
M  V30 161 H 15.449 2.88654 -4.9533 0
M  V30 162 H 13.846 2.34044 -5.52579 0
M  V30 163 H 14.916 1.19327 -4.69988 0
M  V30 164 N 16.2591 1.48442 0.529413 0
M  V30 165 C 17.4891 1.59919 1.30804 0
M  V30 166 C 17.8971 0.258792 1.87422 0
M  V30 167 O 17.2401 -0.762096 1.67146 0
M  V30 168 C 17.3021 2.58693 2.49636 0
M  V30 169 C 16.9661 4.03745 2.14101 0
M  V30 170 C 17.9631 4.9141 1.6974 0
M  V30 171 C 15.6481 4.49285 2.24607 0
M  V30 172 C 17.6421 6.22645 1.36351 0
M  V30 173 C 15.3291 5.8054 1.9083 0
M  V30 174 C 16.3271 6.67043 1.46773 0
M  V30 175 O 16.0151 7.95856 1.1344 0
M  V30 176 H 15.7471 0.541981 0.404021 0
M  V30 177 H 18.3011 1.95 0.645309 0
M  V30 178 H 16.5311 2.18734 3.18892 0
M  V30 179 H 18.2201 2.59999 3.11698 0
M  V30 180 H 18.9861 4.57465 1.61094 0
M  V30 181 H 14.8651 3.82142 2.57854 0
M  V30 182 H 18.4091 6.90119 1.01891 0
M  V30 183 H 14.3061 6.14022 1.99117 0
M  V30 184 H 15.0741 8.08613 1.26832 0
M  V30 185 N 17.7372 -0.778329 1.37039 0
M  V30 186 C 18.9862 -1.53189 1.3121 0
M  V30 187 C 19.2992 -1.95328 -0.103095 0
M  V30 188 O 20.5052 -2.70012 -0.283826 0
M  V30 189 C 18.9612 -2.76591 2.30272 0
M  V30 190 C 18.5692 -2.41577 3.77286 0
M  V30 191 C 20.3132 -3.5455 2.33441 0
M  V30 192 C 18.2202 -3.61441 4.68096 0
M  V30 193 H 17.1502 -0.5751 0.487622 0
M  V30 194 H 19.8012 -0.853101 1.62464 0
M  V30 195 H 18.1832 -3.46326 1.92027 0
M  V30 196 H 19.3572 -1.79668 4.2433 0
M  V30 197 H 17.6722 -1.76806 3.76999 0
M  V30 198 H 20.2692 -4.43628 2.98493 0
M  V30 199 H 20.6122 -3.93936 1.34611 0
M  V30 200 H 21.1452 -2.91805 2.7036 0
M  V30 201 H 17.8842 -3.27142 5.6803 0
M  V30 202 H 17.4042 -4.22478 4.25761 0
M  V30 203 H 19.0832 -4.28335 4.8491 0
M  V30 204 N 19.2153 -1.21501 -1.00376 0
M  V30 205 C 20.1623 -0.975387 -2.09177 0
M  V30 206 C 21.1323 0.0990615 -1.65804 0
M  V30 207 O 22.3173 -0.0483147 -1.90739 0
M  V30 208 C 19.4573 -0.547507 -3.40729 0
M  V30 209 C 18.5703 -1.69153 -3.97506 0
M  V30 210 C 17.7053 -1.2127 -5.17172 0
M  V30 211 C 16.7443 -2.32897 -5.66061 0
M  V30 212 N 15.8813 -1.86138 -6.76976 0
M  V30 213 H 20.7213 -1.9068 -2.29009 0
M  V30 214 H 18.2583 -0.950257 -1.12288 0
M  V30 215 H 20.2163 -0.280667 -4.16255 0
M  V30 216 H 18.8463 0.346904 -3.20931 0
M  V30 217 H 17.8983 -2.07298 -3.18954 0
M  V30 218 H 19.2103 -2.5316 -4.29781 0
M  V30 219 H 18.3643 -0.902591 -5.99948 0
M  V30 220 H 17.1033 -0.342692 -4.86495 0
M  V30 221 H 16.1083 -2.64709 -4.81881 0
M  V30 222 H 17.3333 -3.20396 -5.98768 0
M  V30 223 H 15.2793 -1.01484 -6.48103 0
M  V30 224 H 15.1963 -2.63717 -7.08512 0
M  V30 225 H 16.4643 -1.58165 -7.63285 0
M  V30 226 N 20.6934 1.19889 -1.02296 0
M  V30 227 C 21.6564 2.21116 -0.603351 0
M  V30 228 C 22.6564 1.5738 0.329884 0
M  V30 229 O 23.8464 1.73802 0.117702 0
M  V30 230 C 20.9784 3.40696 0.117992 0
M  V30 231 H 22.1714 2.59754 -1.49893 0
M  V30 232 H 19.7244 1.33463 -0.813468 0
M  V30 233 H 20.4594 3.07569 1.0282 0
M  V30 234 H 20.2444 3.88188 -0.552511 0
M  V30 235 H 21.7344 4.15692 0.398696 0
M  V30 236 N 22.1715 0.800033 1.35784 0
M  V30 237 C 23.0815 0.207204 2.33683 0
M  V30 238 C 24.0975 -0.64631 1.61551 0
M  V30 239 O 25.2735 -0.559604 1.93469 0
M  V30 240 C 22.3385 -0.639659 3.40748 0
M  V30 241 C 21.3995 0.233585 4.28664 0
M  V30 242 C 20.6325 -0.572954 5.30616 0
M  V30 243 O 20.8555 -1.80816 5.40982 0
M  V30 244 O 19.7895 0.0327285 6.01891 0
M  V30 245 H 23.6155 1.01692 2.86169 0
M  V30 246 H 21.2005 0.561691 1.38439 0
M  V30 247 H 23.0825 -1.12223 4.06182 0
M  V30 248 H 21.7575 -1.42708 2.90544 0
M  V30 249 H 20.6645 0.763147 3.66233 0
M  V30 250 H 21.9975 0.984784 4.82248 0
M  V30 251 N 23.6496 -1.47581 0.552962 0
M  V30 252 C 25.0606 -1.86324 0.118463 0
M  V30 253 C 25.4116 -1.46006 -1.3106 0
M  V30 254 O 24.5366 -0.861182 -1.98526 0
M  V30 255 C 25.1316 -3.3816 0.20821 0
M  V30 256 C 23.6906 -3.7601 -0.171226 0
M  V30 257 C 22.8376 -2.71634 0.557686 0
M  V30 258 H 25.7886 -1.39159 0.762928 0
M  V30 259 H 25.8096 -3.76141 -0.574278 0
M  V30 260 H 25.3216 -3.67473 1.24841 0
M  V30 261 H 23.4226 -3.52313 -1.21269 0
M  V30 262 H 23.5356 -4.78745 0.184379 0
M  V30 263 H 21.8996 -2.547 0.00125792 0
M  V30 264 H 22.6826 -3.0379 1.59896 0
M  V30 265 N 25.1277 -0.289203 -1.54924 0
M  V30 266 C 26.0907 0.579144 -2.21762 0
M  V30 267 C 27.0907 1.07047 -1.1999 0
M  V30 268 O 28.2807 0.968384 -1.44803 0
M  V30 269 C 25.4127 1.80055 -2.8947 0
M  V30 270 H 26.6057 -0.00464908 -2.999 0
M  V30 271 H 24.1587 -0.0399306 -1.56249 0
M  V30 272 H 24.8937 2.42449 -2.15381 0
M  V30 273 H 24.6787 1.45602 -3.64064 0
M  V30 274 H 26.1687 2.41773 -3.40493 0
M  V30 275 N 26.6058 1.57591 -0.0167156 0
M  V30 276 C 27.8308 1.9598 0.67872 0
M  V30 277 C 28.2558 0.892546 1.65575 0
M  V30 278 O 27.6138 -0.147772 1.80697 0
M  V30 279 C 27.6618 3.33468 1.37227 0
M  V30 280 O 26.7658 3.28954 2.48722 0
M  V30 281 H 26.1068 0.639339 0.17928 0
M  V30 282 H 28.6368 2.04463 -0.0748802 0
M  V30 283 H 28.6468 3.69417 1.7319 0
M  V30 284 H 27.3218 4.10694 0.656007 0
M  V30 285 H 25.8988 3.04705 2.14963 0
M  V30 286 N 28.0839 -0.256276 1.55502 0
M  V30 287 C 29.4949 -0.826068 1.67431 0
M  V30 288 C 29.8459 -1.86396 0.612446 0
M  V30 289 O 28.9709 -2.15031 -0.243025 0
M  V30 290 C 29.5659 -1.50512 3.03532 0
M  V30 291 C 28.1249 -2.02273 3.17431 0
M  V30 292 C 27.2719 -0.870548 2.63281 0
M  V30 293 H 30.2229 -0.0322728 1.58667 0
M  V30 294 H 30.2439 -2.37279 2.97454 0
M  V30 295 H 29.7559 -0.749484 3.80794 0
M  V30 296 H 27.8569 -2.80746 2.44974 0
M  V30 297 H 27.9699 -2.22655 4.24219 0
M  V30 298 H 26.3339 -1.26851 2.20864 0
M  V30 299 H 27.1169 -0.128149 3.43061 0
M  V30 300 N 29.562 -1.4872 -0.521534 0
M  V30 301 C 30.839 -1.4766 -1.2828 0
M  V30 302 C 31.219 -0.19292 -2.10217 0
M  V30 303 O 30.567 0.825193 -2.13079 0
M  V30 304 C 30.777 -2.74358 -2.15705 0
M  V30 305 C 32.125 -3.23028 -2.75569 0
M  V30 306 O 33.149 -2.75333 -2.25987 0
M  V30 307 O 32.008 -4.0604 -3.65778 0
M  V30 308 H 29.102 -0.590085 -0.579421 0
M  V30 309 H 31.648 -1.60963 -0.537492 0
M  V30 310 H 30.42 -3.59292 -1.54999 0
M  V30 311 H 30.043 -2.63816 -2.97467 0
M  V30 312 N 31.0401 0.771051 -1.3745 0
M  V30 313 C 32.2651 1.56529 -1.36065 0
M  V30 314 C 32.6901 1.88029 0.0515859 0
M  V30 315 O 32.0481 1.49282 1.02882 0
M  V30 316 C 32.0961 2.85187 -2.20683 0
M  V30 317 O 31.2001 3.79593 -1.61193 0
M  V30 318 H 30.5411 0.47411 -0.464883 0
M  V30 319 H 33.0711 0.954269 -1.80983 0
M  V30 320 H 33.0811 3.34283 -2.33921 0
M  V30 321 H 31.7561 2.61588 -3.23334 0
M  V30 322 H 30.3331 3.38239 -1.56999 0
M  V30 323 N 32.5182 1.22032 0.997298 0
M  V30 324 C 33.9292 1.0397 1.55071 0
M  V30 325 C 34.2802 -0.398192 1.92117 0
M  V30 326 O 33.4052 -1.28254 1.74298 0
M  V30 327 C 34.0002 1.88109 2.81781 0
M  V30 328 C 32.5592 1.74357 3.33581 0
M  V30 329 C 31.7062 1.84846 2.06706 0
M  V30 330 H 34.6572 1.35941 0.818883 0
M  V30 331 H 34.6782 1.39589 3.53971 0
M  V30 332 H 34.1902 2.92754 2.54787 0
M  V30 333 H 32.2912 0.72427 3.65493 0
M  V30 334 H 32.4042 2.56772 4.04481 0
M  V30 335 H 30.7682 1.28238 2.20062 0
M  V30 336 H 31.5512 2.91014 1.82114 0
M  V30 337 N 33.9963 -1.19345 1.0293 0
M  V30 338 C 34.9433 -2.2258 0.610464 0
M  V30 339 C 35.9133 -1.6179 -0.375946 0
M  V30 340 O 37.0983 -1.88844 -0.272511 0
M  V30 341 C 34.2383 -3.45085 -0.0321473 0
M  V30 342 C 33.3513 -4.20258 1.00035 0
M  V30 343 C 32.4863 -5.3019 0.32746 0
M  V30 344 C 31.5253 -5.97121 1.34584 0
M  V30 345 N 30.6623 -6.98615 0.698726 0
M  V30 346 H 35.5023 -2.57764 1.49538 0
M  V30 347 H 33.0393 -1.26644 0.748311 0
M  V30 348 H 34.9973 -4.15061 -0.421966 0
M  V30 349 H 33.6273 -3.10555 -0.88064 0
M  V30 350 H 32.6793 -3.49223 1.50823 0
M  V30 351 H 33.9913 -4.66175 1.77433 0
M  V30 352 H 33.1453 -6.06587 -0.11718 0
M  V30 353 H 31.8843 -4.85345 -0.478713 0
M  V30 354 H 30.8893 -5.19474 1.80074 0
M  V30 355 H 32.1143 -6.4405 2.15352 0
M  V30 356 H 30.0603 -6.55942 -0.0873471 0
M  V30 357 H 29.9773 -7.42724 1.41058 0
M  V30 358 H 31.2453 -7.79004 0.278102 0
M  V30 359 N 35.4744 -0.807222 -1.35358 0
M  V30 360 C 36.7224 -0.387122 -1.98358 0
M  V30 361 C 37.0434 1.04942 -1.64354 0
M  V30 362 O 36.3134 1.72615 -0.926339 0
M  V30 363 H 34.8934 -0.140154 -0.733734 0
M  V30 364 H 37.5554 -1.0332 -1.6526 0
M  V30 365 H 36.6514 -0.493352 -3.08176 0
M  V30 366 N 36.9525 1.47285 -0.560781 0
M  V30 367 C 38.1775 2.07359 -0.0410566 0
M  V30 368 C 38.6025 1.41017 1.24483 0
M  V30 369 O 37.9605 0.486368 1.74654 0
M  V30 370 C 38.0085 3.6035 0.134123 0
M  V30 371 O 37.1125 3.94681 1.19587 0
M  V30 372 H 36.4535 0.661887 -0.0529291 0
M  V30 373 H 38.9835 1.89252 -0.777482 0
M  V30 374 H 38.9935 4.0652 0.347207 0
M  V30 375 H 37.6685 4.08034 -0.805047 0
M  V30 376 H 36.2455 3.60251 0.962987 0
M  V30 377 N 38.4306 0.297415 1.54768 0
M  V30 378 C 39.6556 -0.318435 2.04941 0
M  V30 379 C 40.0806 -1.4701 1.17345 0
M  V30 380 O 39.4386 -1.80436 0.176758 0
M  V30 381 C 39.4866 -0.755749 3.52592 0
M  V30 382 O 38.5906 -1.86088 3.68028 0
M  V30 383 H 37.9316 -0.062421 0.661059 0
M  V30 384 H 40.4616 0.438215 1.99852 0
M  V30 385 H 40.4716 -1.04552 3.94376 0
M  V30 386 H 39.1466 0.0867233 4.1581 0
M  V30 387 H 37.7236 -1.57193 3.38149 0
M  V30 388 N 39.9087 -1.5758 0.0250728 0
M  V30 389 C 40.8187 -2.1343 -0.973905 0
M  V30 390 C 41.8347 -1.08556 -1.35984 0
M  V30 391 O 43.0107 -1.40592 -1.44207 0
M  V30 392 C 40.0757 -2.64703 -2.23904 0
M  V30 393 C 39.1367 -3.84276 -1.91391 0
M  V30 394 C 38.3697 -4.33095 -3.11873 0
M  V30 395 O 38.5927 -3.81107 -4.24398 0
M  V30 396 O 37.5267 -5.24984 -2.94406 0
M  V30 397 H 41.3527 -2.99057 -0.529036 0
M  V30 398 H 38.9377 -1.48118 -0.195288 0
M  V30 399 H 40.8197 -2.97769 -2.98181 0
M  V30 400 H 39.4947 -1.82161 -2.6758 0
M  V30 401 H 38.4017 -3.56143 -1.14511 0
M  V30 402 H 39.7347 -4.67968 -1.52534 0
M  V30 403 N 41.3868 0.248026 -1.55636 0
M  V30 404 C 42.6148 0.993808 -1.81469 0
M  V30 405 C 43.0298 1.78991 -0.60064 0
M  V30 406 O 42.3868 1.77345 0.430682 0
M  V30 407 C 42.4378 1.93258 -3.05506 0
M  V30 408 O 42.1588 1.16869 -4.22224 0
M  V30 409 C 43.6598 2.79444 -3.4413 0
M  V30 410 H 40.8798 0.292486 -0.603898 0
M  V30 411 H 43.4238 0.271253 -2.02693 0
M  V30 412 H 41.5788 2.60943 -2.86335 0
M  V30 413 H 41.9928 1.80359 -4.92515 0
M  V30 414 H 43.4668 3.41066 -4.34026 0
M  V30 415 H 43.9438 3.50499 -2.64665 0
M  V30 416 H 44.5498 2.17214 -3.65648 0
M  V30 417 N 42.8649 1.48995 0.513639 0
M  V30 418 C 43.7749 1.67443 1.64317 0
M  V30 419 C 44.7909 0.556947 1.64846 0
M  V30 420 O 45.9669 0.830082 1.83498 0
M  V30 421 C 43.0319 1.72515 3.00732 0
M  V30 422 C 42.0929 2.96009 3.1093 0
M  V30 423 C 41.3259 3.00829 4.40837 0
M  V30 424 O 41.5489 2.13594 5.28898 0
M  V30 425 O 40.4829 3.93168 4.55744 0
M  V30 426 H 44.3089 2.63106 1.51687 0
M  V30 427 H 41.8939 1.32588 0.688543 0
M  V30 428 H 43.7759 1.78277 3.81831 0
M  V30 429 H 42.4509 0.800278 3.13651 0
M  V30 430 H 41.3579 2.9577 2.29065 0
M  V30 431 H 42.6909 3.87934 3.02933 0
M  V30 432 N 44.343 -0.763751 1.37857 0
M  V30 433 C 45.571 -1.55293 1.36718 0
M  V30 434 C 45.986 -1.88745 -0.0455434 0
M  V30 435 O 45.343 -1.52039 -1.00947 0
M  V30 436 C 45.394 -2.85831 2.2132 0
M  V30 437 O 45.115 -2.5381 3.57089 0
M  V30 438 C 46.616 -3.80023 2.28249 0
M  V30 439 H 43.836 -0.480841 0.468009 0
M  V30 440 H 46.38 -0.946009 1.81303 0
M  V30 441 H 44.535 -3.42926 1.80223 0
M  V30 442 H 44.949 -3.37459 4.01524 0
M  V30 443 H 46.423 -4.68599 2.91752 0
M  V30 444 H 46.9 -4.1973 1.2932 0
M  V30 445 H 47.506 -3.28855 2.69693 0
M  V30 446 N 45.8211 -1.22559 -0.990812 0
M  V30 447 C 46.7311 -1.01394 -2.11557 0
M  V30 448 C 47.7471 0.0383962 -1.73958 0
M  V30 449 O 48.9231 -0.154787 -2.00804 0
M  V30 450 C 45.9881 -0.596569 -3.41529 0
M  V30 451 C 45.0491 -1.72276 -3.93217 0
M  V30 452 C 44.2821 -1.32521 -5.16985 0
M  V30 453 O 44.5051 -0.204909 -5.70032 0
M  V30 454 O 43.4391 -2.14247 -5.62478 0
M  V30 455 H 47.2651 -1.95633 -2.32296 0
M  V30 456 H 44.8501 -1.01172 -1.0993 0
M  V30 457 H 46.7321 -0.374263 -4.19735 0
M  V30 458 H 45.4071 0.316939 -3.22145 0
M  V30 459 H 44.3141 -1.99961 -3.16174 0
M  V30 460 H 45.6471 -2.61421 -4.17037 0
M  V30 461 N 47.2992 1.18797 -1.03562 0
M  V30 462 C 48.7102 1.70322 -0.764676 0
M  V30 463 C 49.0612 1.82708 0.714996 0
M  V30 464 O 48.1862 1.50299 1.55689 0
M  V30 465 C 48.7812 3.09356 -1.38145 0
M  V30 466 C 47.3402 3.58114 -1.15895 0
M  V30 467 C 46.4872 2.34798 -1.4753 0
M  V30 468 H 49.4382 1.03543 -1.20268 0
M  V30 469 H 49.4592 3.72378 -0.781977 0
M  V30 470 H 48.9712 3.00309 -2.45837 0
M  V30 471 H 47.0722 3.72464 -0.100544 0
M  V30 472 H 47.1852 4.4184 -1.8524 0
M  V30 473 H 45.5492 2.38464 -0.894829 0
M  V30 474 H 46.3322 2.28375 -2.56319 0
M  V30 475 N 48.7773 0.814389 1.34928 0
M  V30 476 C 50.1883 0.458364 1.80986 0
M  V30 477 C 50.5393 -1.02042 1.67577 0
M  V30 478 O 49.6643 -1.79352 1.21086 0
M  V30 479 C 50.2593 0.825212 3.28597 0
M  V30 480 C 48.8183 0.521677 3.72767 0
M  V30 481 C 47.9653 1.04668 2.56788 0
M  V30 482 H 50.9163 1.00533 1.22795 0
M  V30 483 H 50.9373 0.12571 3.80292 0
M  V30 484 H 50.4493 1.90154 3.38324 0
M  V30 485 H 48.5503 -0.545589 3.68584 0
M  V30 486 H 48.6633 1.05977 4.67232 0
M  V30 487 H 47.0273 0.468622 2.50352 0
M  V30 488 H 47.8103 2.12927 2.6929 0
M  V30 489 N 50.2554 -1.46986 0.568584 0
M  V30 490 C 51.5014 -2.02741 0.0488709 0
M  V30 491 C 51.8344 -1.44077 -1.30214 0
M  V30 492 O 51.1094 -0.600552 -1.84996 0
M  V30 493 C 51.3924 -3.60086 -0.032047 0
M  V30 494 C 51.2454 -4.29162 1.34686 0
M  V30 495 C 52.5644 -4.33838 -0.739798 0
M  V30 496 H 49.6834 -0.736749 0.0192338 0
M  V30 497 H 52.3254 -1.75289 0.733065 0
M  V30 498 H 50.4754 -3.83606 -0.61473 0
M  V30 499 H 52.1474 -4.16948 1.97362 0
M  V30 500 H 50.3904 -3.89073 1.91846 0
M  V30 501 H 51.0614 -5.37826 1.24285 0
M  V30 502 H 53.5374 -4.15378 -0.244939 0
M  V30 503 H 52.4134 -5.43537 -0.765406 0
M  V30 504 H 52.6744 -4.03875 -1.79827 0
M  V30 505 N 51.7335 -0.305618 -1.54608 0
M  V30 506 C 52.6965 0.555591 -2.22364 0
M  V30 507 C 53.6965 1.05768 -1.21119 0
M  V30 508 O 54.8865 0.952972 -1.45822 0
M  V30 509 C 52.0185 1.76974 -2.91364 0
M  V30 510 H 53.2115 -0.0364572 -2.99878 0
M  V30 511 H 50.7645 -0.0565007 -1.56198 0
M  V30 512 H 51.4995 2.40151 -2.17941 0
M  V30 513 H 51.2845 1.41732 -3.65588 0
M  V30 514 H 52.7745 2.38148 -3.43038 0
M  V30 515 N 53.2116 1.57565 -0.0334293 0
M  V30 516 C 54.1416 2.13511 0.945265 0
M  V30 517 C 55.1226 1.05231 1.33643 0
M  V30 518 O 56.3076 1.33084 1.41429 0
M  V30 519 C 53.4376 2.6657 2.22616 0
M  V30 520 C 52.3916 3.79676 1.97561 0
M  V30 521 C 51.7176 4.1918 3.31952 0
M  V30 522 C 53.0176 5.0557 1.31135 0
M  V30 523 H 54.7116 2.95538 0.479325 0
M  V30 524 H 52.2576 1.42166 0.229115 0
M  V30 525 H 54.2106 3.04344 2.91466 0
M  V30 526 H 52.9346 1.8171 2.71384 0
M  V30 527 H 51.5936 3.42347 1.31127 0
M  V30 528 H 51.2416 3.31296 3.78487 0
M  V30 529 H 50.9416 4.95402 3.15992 0
M  V30 530 H 52.4656 4.59541 4.02063 0
M  V30 531 H 53.8796 5.40903 1.89992 0
M  V30 532 H 52.2766 5.86818 1.25559 0
M  V30 533 H 53.3466 4.84062 0.284894 0
M  V30 534 N 54.6897 -0.239769 1.55765 0
M  V30 535 C 55.6527 -1.28038 1.90103 0
M  V30 536 C 56.6527 -1.40723 0.778055 0
M  V30 537 O 57.8427 -1.39301 1.04599 0
M  V30 538 C 54.9747 -2.65702 2.13577 0
M  V30 539 H 56.1677 -0.988048 2.83157 0
M  V30 540 H 53.7207 -0.479382 1.48767 0
M  V30 541 H 54.4557 -3.00063 1.23015 0
M  V30 542 H 54.2407 -2.57875 2.95369 0
M  V30 543 H 55.7307 -3.40828 2.41301 0
M  V30 544 N 56.1678 -1.49265 -0.50573 0
M  V30 545 C 57.5788 -1.51769 -1.08734 0
M  V30 546 C 57.9298 -0.301192 -1.93874 0
M  V30 547 O 57.0548 0.589456 -2.08217 0
M  V30 548 C 57.6498 -2.75017 -1.97867 0
M  V30 549 C 56.2088 -2.80314 -2.51199 0
M  V30 550 C 55.3558 -2.4562 -1.28709 0
M  V30 551 H 58.3068 -1.56031 -0.289855 0
M  V30 552 H 58.3278 -2.5491 -2.82491 0
M  V30 553 H 57.8398 -3.63539 -1.35873 0
M  V30 554 H 55.9408 -1.96061 -3.16845 0
M  V30 555 H 56.0538 -3.82366 -2.88675 0
M  V30 556 H 54.4178 -1.97297 -1.61078 0
M  V30 557 H 55.2008 -3.36411 -0.6843 0
M  V30 558 N 57.6459 0.756429 -1.3826 0
M  V30 559 C 58.8939 1.51248 -1.34047 0
M  V30 560 C 59.2149 1.94875 0.0698372 0
M  V30 561 O 58.4849 1.67436 1.01696 0
M  V30 562 H 57.0649 0.561018 -0.493222 0
M  V30 563 H 59.7269 0.899347 -1.7291 0
M  V30 564 H 58.8229 2.40472 -1.98947 0
M  V30 565 N 59.124 1.23083 0.984299 0
M  V30 566 C 60.535 1.05609 1.5396 0
M  V30 567 C 60.886 -0.377793 1.92528 0
M  V30 568 O 60.011 -1.26398 1.75649 0
M  V30 569 C 60.606 1.91087 2.7977 0
M  V30 570 C 59.165 1.77885 3.31713 0
M  V30 571 C 58.312 1.87028 2.04733 0
M  V30 572 H 61.263 1.36802 0.804419 0
M  V30 573 H 61.284 1.43336 3.5247 0
M  V30 574 H 60.796 2.9544 2.51668 0
M  V30 575 H 58.897 0.762995 3.64704 0
M  V30 576 H 59.01 2.61047 4.01735 0
M  V30 577 H 57.374 1.30565 2.18689 0
M  V30 578 H 58.157 2.92929 1.79017 0
M  V30 579 N 60.6021 -1.18246 1.0419 0
M  V30 580 C 61.5651 -2.20128 0.638452 0
M  V30 581 C 62.5651 -1.57885 -0.304805 0
M  V30 582 O 63.7551 -1.73967 -0.0900369 0
M  V30 583 C 60.8871 -3.4084 -0.0637751 0
M  V30 584 H 62.0801 -2.57336 1.54007 0
M  V30 585 H 59.6331 -1.32152 0.834598 0
M  V30 586 H 60.3681 -3.09166 -0.979136 0
M  V30 587 H 60.1531 -3.8726 0.614198 0
M  V30 588 H 61.6431 -4.16274 -0.332512 0
M  V30 589 N 62.0802 -0.821533 -1.34494 0
M  V30 590 C 63.4912 -0.467956 -1.8074 0
M  V30 591 C 63.8422 1.01151 -1.68116 0
M  V30 592 O 62.9672 1.78707 -1.22036 0
M  V30 593 C 63.5622 -0.842627 -3.28154 0
M  V30 594 C 62.1212 -0.541439 -3.72485 0
M  V30 595 C 61.2682 -1.06028 -2.56229 0
M  V30 596 H 64.2192 -1.01183 -1.22261 0
M  V30 597 H 64.2402 -0.145876 -3.8022 0
M  V30 598 H 63.7522 -1.91945 -3.37311 0
M  V30 599 H 61.8532 0.526034 -3.68868 0
M  V30 600 H 61.9662 -1.08453 -4.66663 0
M  V30 601 H 60.3302 -0.481892 -2.501 0
M  V30 602 H 61.1132 -2.14352 -2.68157 0
M  V30 603 N 63.5583 1.46682 -0.576371 0
M  V30 604 C 64.7863 2.06798 -0.0649635 0
M  V30 605 C 65.2013 1.42612 1.23723 0
M  V30 606 O 64.5583 0.529203 1.74659 0
M  V30 607 C 64.6093 3.6132 0.114202 0
M  V30 608 O 64.3303 4.23104 -1.13644 0
M  V30 609 C 65.8313 4.38349 0.66069 0
M  V30 610 H 63.0513 0.668778 -0.0545616 0
M  V30 611 H 65.5953 1.88404 -0.795237 0
M  V30 612 H 63.7503 3.79162 0.794673 0
M  V30 613 H 64.1643 5.15894 -0.946253 0
M  V30 614 H 65.6383 5.47081 0.73526 0
M  V30 615 H 66.1153 4.05953 1.67627 0
M  V30 616 H 66.7213 4.25297 0.0152951 0
M  V30 617 N 65.0364 0.313813 1.54444 0
M  V30 618 C 66.4524 -0.0391619 1.59552 0
M  V30 619 C 66.6524 -1.51322 1.33056 0
M  V30 620 O 65.7084 -2.26782 1.11022 0
M  V30 621 C 67.0214 0.370302 2.98411 0
M  V30 622 C 68.5694 0.320139 3.11358 0
M  V30 623 C 69.0444 0.704617 4.52547 0
M  V30 624 N 70.5354 0.657645 4.58508 0
M  V30 625 C 71.2704 0.927453 5.6585 0
M  V30 626 N 70.7664 1.26389 6.81174 0
M  V30 627 N 72.5594 0.853662 5.5558 0
M  V30 628 H 64.7104 1.27433 1.69925 0
M  V30 629 H 66.9734 0.517511 0.794284 0
M  V30 630 H 66.6794 1.39694 3.22767 0
M  V30 631 H 66.5534 -0.269619 3.76235 0
M  V30 632 H 68.9404 -0.697275 2.86744 0
M  V30 633 H 69.0214 0.99486 2.35661 0
M  V30 634 H 68.6654 1.7199 4.77893 0
M  V30 635 H 68.5954 0.00768843 5.26599 0
M  V30 636 H 71.0864 0.409067 3.75679 0
M  V30 637 H 71.3994 1.4554 7.58972 0
M  V30 638 H 69.7444 1.30206 6.82694 0
M  V30 639 H 72.9354 0.590383 4.64362 0
M  V30 640 H 73.1084 1.0673 6.3915 0
M  V30 641 N 66.5145 -1.57545 0.0417849 0
M  V30 642 C 67.7545 -1.94185 -0.63809 0
M  V30 643 C 68.1185 -0.919339 -1.68559 0
M  V30 644 O 69.3195 -1.17236 -2.41886 0
M  V30 645 C 67.5905 -3.35672 -1.22714 0
M  V30 646 S 69.1495 -3.94256 -1.92633 0
M  V30 647 H 65.9675 -0.679353 -0.209764 0
M  V30 648 H 68.5695 -1.95199 0.108479 0
M  V30 649 H 67.2735 -4.07898 -0.452503 0
M  V30 650 H 66.8045 -3.38132 -2.01073 0
M  V30 651 H 68.8195 -3.7872 -3.20602 0
M  V30 652 N 67.9926 0.231505 -1.5589 0
M  V30 653 C 68.9226 1.29022 -1.94617 0
M  V30 654 C 69.9036 1.4941 -0.813067 0
M  V30 655 O 71.0886 1.6176 -1.07459 0
M  V30 656 C 68.2186 2.64199 -2.25424 0
M  V30 657 C 67.1726 2.58484 -3.41131 0
M  V30 658 C 66.4986 3.97599 -3.57518 0
M  V30 659 C 67.7986 2.1413 -4.76388 0
M  V30 660 H 69.4926 0.968563 -2.83301 0
M  V30 661 H 67.0386 0.464479 -1.36303 0
M  V30 662 H 68.9916 3.38413 -2.51107 0
M  V30 663 H 67.7156 2.98032 -1.33583 0
M  V30 664 H 66.3746 1.86727 -3.15481 0
M  V30 665 H 66.0226 4.28723 -2.6307 0
M  V30 666 H 65.7226 3.94659 -4.35337 0
M  V30 667 H 67.2466 4.7349 -3.85538 0
M  V30 668 H 68.6606 2.78083 -5.01341 0
M  V30 669 H 67.0576 2.2227 -5.57419 0
M  V30 670 H 68.1276 1.09331 -4.72414 0
M  V30 671 N 69.4707 1.49531 0.497807 0
M  V30 672 C 70.8817 1.52344 1.07927 0
M  V30 673 C 71.2327 0.311469 1.93712 0
M  V30 674 O 70.3577 -0.578405 2.08527 0
M  V30 675 C 70.9527 2.76062 1.96405 0
M  V30 676 C 69.5117 2.81643 2.49709 0
M  V30 677 C 68.6587 2.46299 1.27404 0
M  V30 678 H 71.6097 1.56182 0.281576 0
M  V30 679 H 71.6307 2.56405 2.81135 0
M  V30 680 H 71.1427 3.64254 1.33943 0
M  V30 681 H 69.2437 1.97739 3.15801 0
M  V30 682 H 69.3567 3.83891 2.86643 0
M  V30 683 H 67.7207 1.98148 1.60029 0
M  V30 684 H 68.5037 3.36769 0.66645 0
M  V30 685 N 70.9488 -0.749086 1.3866 0
M  V30 686 C 72.1968 -1.50535 1.34847 0
M  V30 687 C 72.5178 -1.94909 -0.0595016 0
M  V30 688 O 71.7878 -1.67973 -1.00806 0
M  V30 689 H 70.3678 -0.558395 0.49619 0
M  V30 690 H 73.0298 -0.890165 1.73384 0
M  V30 691 H 72.1258 -2.39413 2.00219 0
M  V30 692 N 72.4269 -1.23603 -0.977757 0
M  V30 693 C 73.3769 -0.986664 -2.05545 0
M  V30 694 C 74.3609 0.0683009 -1.60755 0
M  V30 695 O 75.5529 -0.144162 -1.76412 0
M  V30 696 C 72.6819 -0.582623 -3.3832 0
M  V30 697 C 71.7679 -1.67313 -3.89701 0
M  V30 698 N 72.1589 -2.90394 -4.14132 0
M  V30 699 C 70.4569 -1.54832 -4.18262 0
M  V30 700 C 71.1579 -3.61017 -4.56116 0
M  V30 701 N 70.1339 -2.8854 -4.60701 0
M  V30 702 H 73.9359 -1.92139 -2.22396 0
M  V30 703 H 71.4499 -1.1358 -1.16074 0
M  V30 704 H 73.4469 -0.38524 -4.15116 0
M  V30 705 H 72.1069 0.34503 -3.22862 0
M  V30 706 H 73.1179 -3.26673 -4.01877 0
M  V30 707 H 69.7949 -0.687969 -4.11793 0
M  V30 708 H 71.1849 -4.66544 -4.83514 0
M  V30 709 N 73.905 1.17692 -1.04816 0
M  V30 710 C 74.852 2.21581 -0.645797 0
M  V30 711 C 75.822 1.62367 0.350159 0
M  V30 712 O 77.007 1.89254 0.242433 0
M  V30 713 C 74.147 3.45092 -0.0227568 0
M  V30 714 C 73.26 4.18613 -1.06709 0
M  V30 715 C 72.395 5.29602 -0.411767 0
M  V30 716 C 71.434 5.94904 -1.44067 0
M  V30 717 N 70.571 6.97414 -0.809781 0
M  V30 718 H 75.411 2.55353 -1.5362 0
M  V30 719 H 72.948 1.25438 -0.768364 0
M  V30 720 H 74.906 4.15679 0.35588 0
M  V30 721 H 73.536 3.11917 0.831122 0
M  V30 722 H 72.588 3.46779 -1.5636 0
M  V30 723 H 73.9 4.63293 -1.84827 0
M  V30 724 H 73.054 6.06696 0.0206623 0
M  V30 725 H 71.793 4.86045 0.401438 0
M  V30 726 H 70.798 5.16544 -1.88316 0
M  V30 727 H 72.023 6.40542 -2.25571 0
M  V30 728 H 69.969 6.55998 -0.0170186 0
M  V30 729 H 69.886 7.40386 -1.52856 0
M  V30 730 H 71.154 7.78463 -0.401999 0
M  V30 731 N 75.3831 0.828654 1.34056 0
M  V30 732 C 76.2931 0.256725 2.33191 0
M  V30 733 C 77.3091 -0.611898 1.62886 0
M  V30 734 O 78.4851 -0.51844 1.94613 0
M  V30 735 C 75.5501 -0.567238 3.42028 0
M  V30 736 C 74.6111 0.324458 4.28072 0
M  V30 737 C 73.8441 -0.460274 5.31712 0
M  V30 738 O 74.0671 -1.693 5.44696 0
M  V30 739 O 73.0011 0.160391 6.01686 0
M  V30 740 H 76.8271 1.07739 2.83947 0
M  V30 741 H 74.4121 0.59093 1.37217 0
M  V30 742 H 76.2941 -1.03582 4.08471 0
M  V30 743 H 74.9691 -1.36513 2.93506 0
M  V30 744 H 73.8761 0.840659 3.64532 0
M  V30 745 H 75.2091 1.08685 4.8005 0
M  V30 746 N 76.8612 -1.46375 0.584142 0
M  V30 747 C 77.7712 -2.34115 -0.150728 0
M  V30 748 C 78.7872 -1.49838 -0.884567 0
M  V30 749 O 79.9632 -1.82704 -0.847429 0
M  V30 750 C 77.0282 -3.2705 -1.15062 0
M  V30 751 C 76.0892 -4.27228 -0.421293 0
M  V30 752 C 75.3222 -5.15722 -1.37355 0
M  V30 753 O 75.5452 -5.07176 -2.61014 0
M  V30 754 O 74.4792 -5.95383 -0.883355 0
M  V30 755 H 78.3052 -2.98309 0.569708 0
M  V30 756 H 75.8902 -1.45373 0.344535 0
M  V30 757 H 77.7722 -3.84381 -1.72712 0
M  V30 758 H 76.4472 -2.65451 -1.8525 0
M  V30 759 H 75.3542 -3.7358 0.197085 0
M  V30 760 H 76.6872 -4.91616 0.239641 0
M  V30 761 N 78.3393 -0.321999 -1.54275 0
M  V30 762 C 79.2493 0.553631 -2.27974 0
M  V30 763 C 80.2653 1.13054 -1.32268 0
M  V30 764 O 81.4413 1.15084 -1.6528 0
M  V30 765 C 78.5063 1.69927 -3.02201 0
M  V30 766 C 77.5673 1.15433 -4.1349 0
M  V30 767 C 76.8003 2.24537 -4.84168 0
M  V30 768 O 77.0233 3.44852 -4.5435 0
M  V30 769 O 75.9573 1.90044 -5.7111 0
M  V30 770 H 79.7833 -0.0448345 -3.03667 0
M  V30 771 H 77.3683 -0.0877418 -1.49142 0
M  V30 772 H 79.2503 2.3663 -3.48689 0
M  V30 773 H 77.9253 2.28395 -2.29385 0
M  V30 774 H 76.8323 0.452436 -3.71354 0
M  V30 775 H 78.1653 0.614805 -4.88345 0
M  V30 776 N 79.8174 1.5752 -0.0501392 0
M  V30 777 C 81.0944 1.83996 0.663685 0
M  V30 778 C 81.4744 0.938339 1.89099 0
M  V30 779 O 80.8224 -0.00087759 2.285 0
M  V30 780 C 81.0324 3.33702 1.02196 0
M  V30 781 C 82.3804 4.00691 1.40469 0
M  V30 782 O 83.4044 3.38321 1.11433 0
M  V30 783 O 82.2634 5.10658 1.94654 0
M  V30 784 H 79.3574 0.759385 0.32751 0
M  V30 785 H 81.9034 1.69514 -0.0794238 0
M  V30 786 H 80.6754 3.91015 0.149364 0
M  V30 787 H 80.2984 3.53368 1.82255 0
M  V30 788 N 81.2955 -0.223234 1.56011 0
M  V30 789 C 82.5435 -0.946003 1.78592 0
M  V30 790 C 82.8645 -1.84936 0.618349 0
M  V30 791 O 82.1345 -1.92473 -0.364833 0
M  V30 792 H 80.7145 -0.352298 0.658707 0
M  V30 793 H 83.3765 -0.235494 1.93472 0
M  V30 794 H 82.4725 -1.55381 2.70672 0
M  V30 795 N 82.7736 -1.49793 -0.48987 0
M  V30 796 C 83.6836 -1.70036 -1.61632 0
M  V30 797 C 84.6996 -0.583102 -1.63939 0
M  V30 798 O 85.8756 -0.859169 -1.82154 0
M  V30 799 C 82.9406 -1.77277 -2.97949 0
M  V30 800 C 82.0016 -3.00918 -3.06181 0
M  V30 801 C 81.2346 -3.07804 -4.35996 0
M  V30 802 O 81.4576 -2.21982 -5.25433 0
M  V30 803 O 80.3916 -4.00369 -4.49431 0
M  V30 804 H 84.2176 -2.65486 -1.47482 0
M  V30 805 H 81.8026 -1.33666 -0.667362 0
M  V30 806 H 83.6846 -1.84329 -3.78947 0
M  V30 807 H 82.3596 -0.850076 -3.12339 0
M  V30 808 H 81.2666 -2.99377 -2.2433 0
M  V30 809 H 82.5996 -3.92704 -2.96723 0
M  V30 810 N 84.2517 0.741722 -1.39055 0
M  V30 811 C 85.4997 1.49818 -1.35643 0
M  V30 812 C 85.8207 1.94938 0.0491642 0
M  V30 813 O 85.0907 1.68505 0.999141 0
M  V30 814 H 83.6707 0.555755 -0.499144 0
M  V30 815 H 86.3327 0.880957 -1.73854 0
M  V30 816 H 85.4287 2.38348 -2.01486 0
M  V30 817 N 85.7298 1.2412 0.971189 0
M  V30 818 C 86.6928 1.03156 2.04674 0
M  V30 819 C 87.6928 -0.00990322 1.60797 0
M  V30 820 O 88.8828 0.230729 1.72665 0
M  V30 821 C 86.0148 0.562765 3.36223 0
M  V30 822 H 87.2078 1.98614 2.24705 0
M  V30 823 H 84.7608 1.06293 1.14593 0
M  V30 824 H 85.4958 -0.395176 3.21883 0
M  V30 825 H 85.2808 1.31441 3.69413 0
M  V30 826 H 86.7708 0.437015 4.15307 0
M  V30 827 N 87.2079 -1.17134 1.05439 0
M  V30 828 C 88.4559 -1.87085 0.764429 0
M  V30 829 C 88.7769 -1.81584 -0.710787 0
M  V30 830 O 88.0469 -1.24349 -1.51374 0
M  V30 831 H 86.6269 -0.692627 0.279779 0
M  V30 832 H 89.2889 -1.42087 1.33406 0
M  V30 833 H 88.3849 -2.92759 1.0816 0
M  V30 834 N 88.686 -0.835752 -1.33615 0
M  V30 835 C 90.097 -0.487099 -1.80234 0
M  V30 836 C 90.448 0.993627 -1.69179 0
M  V30 837 O 89.573 1.77403 -1.23924 0
M  V30 838 C 90.168 -0.877385 -3.27242 0
M  V30 839 C 88.727 -0.580915 -3.7189 0
M  V30 840 C 87.874 -1.0874 -2.5509 0
M  V30 841 H 90.825 -1.02474 -1.2118 0
M  V30 842 H 90.846 -0.186195 -3.80044 0
M  V30 843 H 90.358 -1.95512 -3.35256 0
M  V30 844 H 88.459 0.486881 -3.69405 0
M  V30 845 H 88.572 -1.13396 -4.65487 0
M  V30 846 H 86.936 -0.508392 -2.49575 0
M  V30 847 H 87.719 -2.17184 -2.65868 0
M  V30 848 N 90.1641 1.46063 -0.591896 0
M  V30 849 C 91.4121 2.01938 -0.0808391 0
M  V30 850 C 91.7331 1.46475 1.28725 0
M  V30 851 O 91.0031 0.652944 1.84698 0
M  V30 852 H 89.5831 0.746516 -0.0268938 0
M  V30 853 H 92.2451 1.79055 -0.769752 0
M  V30 854 H 91.3411 3.12094 -0.0187578 0
M  V30 855 N 91.6422 0.330177 1.54103 0
M  V30 856 C 92.5522 -0.541534 2.28264 0
M  V30 857 C 93.5682 -1.12351 1.32866 0
M  V30 858 O 94.7442 -1.14206 1.65888 0
M  V30 859 C 91.8092 -1.68322 3.03098 0
M  V30 860 C 90.8702 -1.13238 4.14096 0
M  V30 861 C 90.1032 -2.21966 4.85352 0
M  V30 862 O 90.3262 -3.42437 4.56172 0
M  V30 863 O 89.2602 -1.87013 5.7211 0
M  V30 864 H 93.0862 0.060938 3.03639 0
M  V30 865 H 90.6712 0.09565 1.49093 0
M  V30 866 H 92.5532 -2.34777 3.49939 0
M  V30 867 H 91.2282 -2.27176 2.30593 0
M  V30 868 H 90.1352 -0.432736 3.71589 0
M  V30 869 H 91.4682 -0.588898 4.88664 0
M  V30 870 N 93.1203 -1.57491 0.0584922 0
M  V30 871 C 94.0523 -2.08916 -0.942694 0
M  V30 872 C 95.0653 -1.0185 -1.27006 0
M  V30 873 O 96.2543 -1.29398 -1.22957 0
M  V30 874 C 93.3543 -2.52341 -2.26224 0
M  V30 875 C 92.5273 -3.82827 -2.1157 0
M  V30 876 C 91.5863 -4.12487 -3.26712 0
M  V30 877 O 90.6123 -4.82295 -3.02292 0
M  V30 878 N 91.8143 -3.64978 -4.5141 0
M  V30 879 H 94.5793 -2.95437 -0.503722 0
M  V30 880 H 92.1403 -1.61397 -0.12757 0
M  V30 881 H 94.1323 -2.69254 -3.02133 0
M  V30 882 H 92.7023 -1.7103 -2.61663 0
M  V30 883 H 91.9223 -3.75425 -1.20208 0
M  V30 884 H 93.2103 -4.68263 -1.99015 0
M  V30 885 H 92.6083 -3.08558 -4.7414 0
M  V30 886 H 91.1653 -3.87115 -5.2439 0
M  V30 887 N 94.5984 0.214957 -1.56127 0
M  V30 888 C 95.8464 0.936518 -1.79091 0
M  V30 889 C 96.1674 1.84606 -0.628148 0
M  V30 890 O 95.4374 1.92664 0.35462 0
M  V30 891 H 94.0174 0.3488 -0.660566 0
M  V30 892 H 96.6794 0.22523 -1.93594 0
M  V30 893 H 95.7754 1.53943 -2.71492 0
M  V30 894 N 96.0765 1.50051 0.48192 0
M  V30 895 C 97.3245 1.60181 1.23234 0
M  V30 896 C 97.6455 0.299176 1.92691 0
M  V30 897 O 96.9155 -0.682708 1.83619 0
M  V30 898 H 95.4955 0.590232 0.457859 0
M  V30 899 H 98.1575 1.86775 0.556881 0
M  V30 900 H 97.2535 2.40753 1.98607 0
M  V30 901 N 97.5546 -0.734337 1.39446 0
M  V30 902 C 98.8026 -1.49096 1.36436 0
M  V30 903 C 99.1236 -1.94961 -0.0388255 0
M  V30 904 O 98.3936 -1.69033 -0.990191 0
M  V30 905 H 96.9736 -0.5531 0.502085 0
M  V30 906 H 99.6356 -0.871725 1.74319 0
M  V30 907 H 98.7316 -2.37276 2.02747 0
M  V30 908 N 99.0327 -1.24633 -0.964593 0
M  V30 909 C 99.9797 -1.04144 -2.05968 0
M  V30 910 C 100.95 0.046262 -1.66036 0
M  V30 911 O 102.135 -0.108972 -1.90489 0
M  V30 912 C 99.2747 -0.65563 -3.38815 0
M  V30 913 C 98.3877 -1.81714 -3.91923 0
M  V30 914 C 97.5227 -1.37662 -5.13052 0
M  V30 915 C 96.5617 -2.50788 -5.58365 0
M  V30 916 N 95.6987 -2.07582 -6.70712 0
M  V30 917 H 100.539 -1.9787 -2.22827 0
M  V30 918 H 98.0757 -0.9855 -1.09208 0
M  V30 919 H 100.034 -0.412954 -4.15151 0
M  V30 920 H 98.6637 0.244627 -3.21872 0
M  V30 921 H 97.7157 -2.1734 -3.12198 0
M  V30 922 H 99.0277 -2.66705 -4.21509 0
M  V30 923 H 98.1817 -1.093 -5.96773 0
M  V30 924 H 96.9207 -0.497293 -4.85158 0
M  V30 925 H 95.9257 -2.79906 -4.73215 0
M  V30 926 H 97.1507 -3.39283 -5.88272 0
M  V30 927 H 95.0967 -1.22051 -6.44546 0
M  V30 928 H 95.0137 -2.86125 -6.99763 0
M  V30 929 H 96.2817 -1.82369 -7.57867 0
M  V30 930 N 100.511 1.16574 -1.06058 0
M  V30 931 C 101.441 2.23057 -0.690488 0
M  V30 932 C 102.422 1.67141 0.315901 0
M  V30 933 O 103.607 1.93253 0.191556 0
M  V30 934 C 100.737 3.47222 -0.073625 0
M  V30 935 C 99.6908 4.16016 -1.00573 0
M  V30 936 C 99.0168 5.34104 -0.252289 0
M  V30 937 C 100.317 4.67264 -2.33371 0
M  V30 938 H 102.011 2.54271 -1.58072 0
M  V30 939 H 99.5568 1.22218 -0.76149 0
M  V30 940 H 101.51 4.20939 0.19714 0
M  V30 941 H 100.234 3.15302 0.85161 0
M  V30 942 H 98.8928 3.44223 -1.2612 0
M  V30 943 H 98.5408 4.98437 0.675988 0
M  V30 944 H 98.2408 5.81072 -0.873455 0
M  V30 945 H 99.7648 6.10599 0.0109857 0
M  V30 946 H 101.179 5.32573 -2.12223 0
M  V30 947 H 99.5758 5.24843 -2.90963 0
M  V30 948 H 100.646 3.83602 -2.96611 0
M  V30 949 N 101.989 0.842826 1.3317 0
M  V30 950 C 103.235 0.441099 1.97945 0
M  V30 951 C 103.568 -0.998024 1.66593 0
M  V30 952 O 102.843 -1.69839 0.947898 0
M  V30 953 C 103.126 0.666841 3.53872 0
M  V30 954 C 102.979 2.15352 3.94897 0
M  V30 955 C 104.298 0.115544 4.39948 0
M  V30 956 H 101.417 0.161739 0.719034 0
M  V30 957 H 104.059 1.05907 1.57746 0
M  V30 958 H 102.209 0.140828 3.88245 0
M  V30 959 H 103.881 2.7447 3.70761 0
M  V30 960 H 102.124 2.63653 3.44484 0
M  V30 961 H 102.795 2.26221 5.03516 0
M  V30 962 H 105.271 0.565213 4.12243 0
M  V30 963 H 104.147 0.303152 5.48062 0
M  V30 964 H 104.408 -0.980935 4.3108 0
M  V30 965 N 103.467 -1.45747 0.599634 0
M  V30 966 C 104.397 -2.33235 -0.111306 0
M  V30 967 C 105.378 -1.46359 -0.866781 0
M  V30 968 O 106.563 -1.75146 -0.838904 0
M  V30 969 C 103.693 -3.28932 -1.11451 0
M  V30 970 C 102.647 -4.25381 -0.472772 0
M  V30 971 C 101.973 -5.1071 -1.58365 0
M  V30 972 C 103.273 -5.18831 0.600948 0
M  V30 973 H 104.967 -2.92927 0.61919 0
M  V30 974 H 102.513 -1.40857 0.299215 0
M  V30 975 H 104.466 -3.89002 -1.62036 0
M  V30 976 H 103.19 -2.67381 -1.8755 0
M  V30 977 H 101.849 -3.66598 0.0121472 0
M  V30 978 H 101.497 -4.45533 -2.33473 0
M  V30 979 H 101.197 -5.7604 -1.15982 0
M  V30 980 H 102.721 -5.73647 -2.09194 0
M  V30 981 H 104.135 -5.73019 0.179491 0
M  V30 982 H 102.532 -5.92595 0.946076 0
M  V30 983 H 103.602 -4.6174 1.48068 0
M  V30 984 N 104.945 -0.338344 -1.53925 0
M  V30 985 C 106.17 0.263987 -2.05713 0
M  V30 986 C 106.595 1.43847 -1.21201 0
M  V30 987 O 105.953 1.79904 -0.224535 0
M  V30 988 C 106.001 0.662 -3.54471 0
M  V30 989 O 105.105 1.76265 -3.72833 0
M  V30 990 H 104.446 0.0448722 -0.662482 0
M  V30 991 H 106.976 -0.491048 -1.9862 0
M  V30 992 H 106.986 0.940594 -3.9701 0
M  V30 993 H 105.661 -0.196937 -4.15433 0
M  V30 994 H 104.238 1.48173 -3.42198 0
M  V30 995 N 106.423 1.57458 -0.0668435 0
M  V30 996 C 107.648 1.9804 0.616027 0
M  V30 997 C 108.073 0.944771 1.62652 0
M  V30 998 O 107.431 -0.0902094 1.81075 0
M  V30 999 C 107.479 3.37665 1.26549 0
M  V30 1000 O 106.583 3.36701 2.38131 0
M  V30 1001 H 105.924 0.644719 0.158849 0
M  V30 1002 H 108.454 2.04121 -0.139891 0
M  V30 1003 H 108.464 3.7474 1.6135 0
M  V30 1004 H 107.139 4.12573 0.525016 0
M  V30 1005 H 105.716 3.1139 2.0516 0
M  V30 1006 N 107.901 -0.206675 1.56239 0
M  V30 1007 C 108.831 -1.25909 1.96645 0
M  V30 1008 C 109.812 -1.48097 0.836734 0
M  V30 1009 O 110.997 -1.6003 1.10019 0
M  V30 1010 C 108.127 -2.6058 2.29599 0
M  V30 1011 C 107.081 -2.53024 3.452 0
M  V30 1012 C 106.407 -3.91861 3.63798 0
M  V30 1013 C 107.707 -2.06524 4.79734 0
M  V30 1014 H 109.401 -0.923369 2.84806 0
M  V30 1015 H 106.947 -0.442735 1.37025 0
M  V30 1016 H 108.9 -3.34375 2.56459 0
M  V30 1017 H 107.624 -2.95869 1.38307 0
M  V30 1018 H 106.283 -1.81684 3.18412 0
M  V30 1019 H 105.931 -4.24483 2.69857 0
M  V30 1020 H 105.631 -3.87683 4.4156 0
M  V30 1021 H 107.155 -4.67296 3.93022 0
M  V30 1022 H 108.569 -2.70072 5.05702 0
M  V30 1023 H 106.966 -2.13374 5.60885 0
M  V30 1024 H 108.036 -1.01802 4.74093 0
M  V30 1025 N 109.379 -1.50304 -0.473955 0
M  V30 1026 C 110.79 -1.54042 -1.0549 0
M  V30 1027 C 111.141 -0.342248 -1.93192 0
M  V30 1028 O 110.266 0.545157 -2.09421 0
M  V30 1029 C 110.861 -2.79152 -1.91989 0
M  V30 1030 C 109.42 -2.8558 -2.45196 0
M  V30 1031 C 108.567 -2.48295 -1.2347 0
M  V30 1032 H 111.518 -1.5661 -0.256693 0
M  V30 1033 H 111.539 -2.60845 -2.7702 0
M  V30 1034 H 111.051 -3.66339 -1.28131 0
M  V30 1035 H 109.152 -2.02738 -3.12615 0
M  V30 1036 H 109.265 -3.88403 -2.80499 0
M  V30 1037 H 107.629 -2.00669 -1.56856 0
M  V30 1038 H 108.412 -3.37787 -0.612789 0
M  V30 1039 N 110.857 0.726932 -1.39834 0
M  V30 1040 C 111.804 1.841 -1.39197 0
M  V30 1041 C 112.774 1.642 -0.250502 0
M  V30 1042 O 113.959 1.85494 -0.446846 0
M  V30 1043 C 111.099 3.21697 -1.24919 0
M  V30 1044 C 110.212 3.53247 -2.48678 0
M  V30 1045 C 109.347 4.80289 -2.26928 0
M  V30 1046 C 108.386 5.04707 -3.4632 0
M  V30 1047 N 107.523 6.22956 -3.23836 0
M  V30 1048 H 112.363 1.83979 -2.34427 0
M  V30 1049 H 109.9 0.898876 -1.16442 0
M  V30 1050 H 111.858 4.01137 -1.1465 0
M  V30 1051 H 110.488 3.21076 -0.333153 0
M  V30 1052 H 109.54 2.68447 -2.69519 0
M  V30 1053 H 110.852 3.67205 -3.37582 0
M  V30 1054 H 110.006 5.67725 -2.13947 0
M  V30 1055 H 108.745 4.68519 -1.35431 0
M  V30 1056 H 107.75 4.1573 -3.5979 0
M  V30 1057 H 108.975 5.18357 -4.38729 0
M  V30 1058 H 106.921 6.12459 -2.35011 0
M  V30 1059 H 106.838 6.37539 -4.063 0
M  V30 1060 H 108.106 7.1321 -3.14566 0
M  V30 1061 N 112.336 1.25143 0.95797 0
M  V30 1062 C 113.752 1.01892 1.22842 0
M  V30 1063 C 113.952 -0.266311 1.99732 0
M  V30 1064 O 113.008 -0.979913 2.3271 0
M  V30 1065 C 114.321 2.24004 2.00606 0
M  V30 1066 C 115.869 2.28731 2.13662 0
M  V30 1067 C 116.344 3.5049 2.94823 0
M  V30 1068 N 117.835 3.50866 3.02403 0
M  V30 1069 C 118.57 4.4174 3.65586 0
M  V30 1070 N 118.066 5.42882 4.30408 0
M  V30 1071 N 119.859 4.29429 3.62694 0
M  V30 1072 H 112.01 2.07718 0.443493 0
M  V30 1073 H 114.273 0.912031 0.258657 0
M  V30 1074 H 113.979 3.17395 1.51503 0
M  V30 1075 H 113.853 2.26907 3.01319 0
M  V30 1076 H 116.24 1.35865 2.61963 0
M  V30 1077 H 116.321 2.29848 1.12265 0
M  V30 1078 H 115.965 4.43676 2.47213 0
M  V30 1079 H 115.895 3.46617 3.96439 0
M  V30 1080 H 118.386 2.777 2.56302 0
M  V30 1081 H 118.699 6.0844 4.76467 0
M  V30 1082 H 117.044 5.46758 4.29047 0
M  V30 1083 H 120.235 3.49643 3.11236 0
M  V30 1084 H 120.408 5.00448 4.1165 0
M  V30 1085 N 113.814 -1.1601 1.06675 0
M  V30 1086 C 114.744 -2.22688 0.702307 0
M  V30 1087 C 115.725 -1.67306 -0.307032 0
M  V30 1088 O 116.91 -1.93352 -0.181305 0
M  V30 1089 C 114.04 -3.47178 0.092038 0
M  V30 1090 C 112.994 -4.15477 1.02777 0
M  V30 1091 C 112.32 -5.33963 0.28061 0
M  V30 1092 C 113.62 -4.66019 2.35846 0
M  V30 1093 H 115.314 -2.53429 1.59419 0
M  V30 1094 H 112.86 -1.21813 0.767961 0
M  V30 1095 H 114.813 -4.21037 -0.174814 0
M  V30 1096 H 113.537 -3.15749 -0.834877 0
M  V30 1097 H 112.196 -3.43549 1.27944 0
M  V30 1098 H 111.844 -4.98788 -0.649545 0
M  V30 1099 H 111.544 -5.806 0.904258 0
M  V30 1100 H 113.068 -6.10596 0.021396 0
M  V30 1101 H 114.482 -5.3144 2.15045 0
M  V30 1102 H 112.879 -5.23293 2.93743 0
M  V30 1103 H 113.949 -3.82023 2.98641 0
M  V30 1104 N 115.292 -0.849877 -1.32721 0
M  V30 1105 C 116.532 -0.457146 -1.99222 0
M  V30 1106 C 116.896 0.968038 -1.6581 0
M  V30 1107 O 118.097 1.46507 -2.25364 0
M  V30 1108 C 116.368 -0.683966 -3.50794 0
M  V30 1109 S 117.927 -0.388095 -4.3708 0
M  V30 1110 H 114.745 -0.171464 -0.690015 0
M  V30 1111 H 117.347 -1.10155 -1.61512 0
M  V30 1112 H 116.051 -1.72038 -3.726 0
M  V30 1113 H 115.582 -0.0258086 -3.93392 0
M  V30 1114 H 117.597 0.787791 -4.89906 0
M  V30 1115 N 116.77 1.45427 -0.607355 0
M  V30 1116 C 117.7 2.3329 0.0989352 0
M  V30 1117 C 118.681 1.46816 0.859007 0
M  V30 1118 O 119.866 1.75588 0.829604 0
M  V30 1119 C 116.996 3.29518 1.09705 0
M  V30 1120 C 115.95 4.25626 0.450206 0
M  V30 1121 C 115.276 5.11542 1.55655 0
M  V30 1122 C 116.576 5.18505 -0.628455 0
M  V30 1123 H 118.27 2.92595 -0.634716 0
M  V30 1124 H 115.816 1.40696 -0.306681 0
M  V30 1125 H 117.769 3.89855 1.59971 0
M  V30 1126 H 116.493 2.68372 1.86129 0
M  V30 1127 H 115.152 3.66586 -0.0315886 0
M  V30 1128 H 114.8 4.46765 2.31107 0
M  V30 1129 H 114.5 5.76647 1.12925 0
M  V30 1130 H 116.024 5.74748 2.06148 0
M  V30 1131 H 117.438 5.72916 -0.209877 0
M  V30 1132 H 115.835 5.92085 -0.977489 0
M  V30 1133 H 116.905 4.60948 -1.50514 0
M  V30 1134 N 118.248 0.346503 1.53744 0
M  V30 1135 C 119.494 -0.249473 2.0126 0
M  V30 1136 C 119.827 -1.49965 1.23386 0
M  V30 1137 O 119.102 -1.91811 0.32229 0
M  V30 1138 C 119.385 -0.560643 3.55709 0
M  V30 1139 C 119.238 0.701836 4.44291 0
M  V30 1140 C 120.557 -1.36905 4.18264 0
M  V30 1141 H 117.676 -0.0891987 0.731582 0
M  V30 1142 H 120.318 0.467624 1.84156 0
M  V30 1143 H 118.468 -1.17156 3.70414 0
M  V30 1144 H 120.14 1.33974 4.41417 0
M  V30 1145 H 118.383 1.32612 4.13033 0
M  V30 1146 H 119.054 0.43933 5.50249 0
M  V30 1147 H 121.53 -0.852448 4.07275 0
M  V30 1148 H 120.406 -1.55553 5.26398 0
M  V30 1149 H 120.667 -2.37203 3.73078 0
M  V30 1150 N 119.726 -1.57421 0.075193 0
M  V30 1151 C 120.966 -1.95495 -0.596757 0
M  V30 1152 C 121.33 -0.954886 -1.66571 0
M  V30 1153 O 122.531 -1.22341 -2.39345 0
M  V30 1154 C 120.802 -3.382 -1.15566 0
M  V30 1155 S 122.361 -3.98254 -1.84226 0
M  V30 1156 H 119.179 -0.683649 -0.195307 0
M  V30 1157 H 121.781 -1.94925 0.149859 0
M  V30 1158 H 120.485 -4.08766 -0.36588 0
M  V30 1159 H 120.016 -3.42321 -1.93856 0
M  V30 1160 H 122.031 -3.85435 -3.12497 0
M  V30 1161 N 121.204 0.198386 -1.56346 0
M  V30 1162 C 122.452 0.91747 -1.80075 0
M  V30 1163 C 122.773 1.83929 -0.647692 0
M  V30 1164 O 122.043 1.93029 0.334166 0
M  V30 1165 H 120.623 0.341774 -0.664228 0
M  V30 1166 H 123.285 0.204684 -1.93822 0
M  V30 1167 H 122.381 1.51055 -2.7311 0
M  V30 1168 N 122.682 1.50554 0.465978 0
M  V30 1169 C 123.959 1.5232 1.22712 0
M  V30 1170 C 124.339 0.270807 2.09356 0
M  V30 1171 O 123.687 -0.745541 2.15995 0
M  V30 1172 C 123.897 2.82175 2.05374 0
M  V30 1173 C 125.245 3.33033 2.6339 0
M  V30 1174 O 126.269 2.83531 2.15612 0
M  V30 1175 O 125.128 4.19336 3.50456 0
M  V30 1176 H 122.222 0.611183 0.557122 0
M  V30 1177 H 124.768 1.62847 0.477381 0
M  V30 1178 H 123.54 3.64797 1.41558 0
M  V30 1179 H 123.163 2.74675 2.87471 0
M  V30 1180 N 124.16 -0.719506 1.40217 0
M  V30 1181 C 125.406 -1.48152 1.38488 0
M  V30 1182 C 125.739 -1.94195 -0.0141867 0
M  V30 1183 O 125.014 -1.67884 -0.982096 0
M  V30 1184 C 125.297 -2.71035 2.37091 0
M  V30 1185 C 125.15 -2.30912 3.86005 0
M  V30 1186 C 126.469 -3.73182 2.33288 0
M  V30 1187 H 123.588 -0.537395 0.504357 0
M  V30 1188 H 126.23 -0.821472 1.71324 0
M  V30 1189 H 124.38 -3.27352 2.0922 0
M  V30 1190 H 126.052 -1.80107 4.24687 0
M  V30 1191 H 124.295 -1.62958 4.02029 0
M  V30 1192 H 124.966 -3.18978 4.50508 0
M  V30 1193 H 127.442 -3.26485 2.57966 0
M  V30 1194 H 126.318 -4.56806 3.04334 0
M  V30 1195 H 126.579 -4.21202 1.34317 0
M  V30 1196 N 125.638 -1.25649 -0.95132 0
M  V30 1197 C 126.601 -1.06399 -2.03007 0
M  V30 1198 C 127.601 -0.0156794 -1.60792 0
M  V30 1199 O 128.791 -0.25817 -1.72276 0
M  V30 1200 C 125.923 -0.616184 -3.35285 0
M  V30 1201 H 127.116 -2.02164 -2.21517 0
M  V30 1202 H 124.669 -1.08103 -1.12887 0
M  V30 1203 H 125.404 0.343917 -3.22471 0
M  V30 1204 H 125.189 -1.37301 -3.67275 0
M  V30 1205 H 126.679 -0.503032 -4.14559 0
M  V30 1206 N 127.117 1.15442 -1.07289 0
M  V30 1207 C 128.342 1.90638 -0.816828 0
M  V30 1208 C 128.767 1.77445 0.624083 0
M  V30 1209 O 128.125 1.10671 1.43602 0
M  V30 1210 C 128.173 3.39008 -1.22906 0
M  V30 1211 O 127.277 4.10701 -0.373975 0
M  V30 1212 H 126.618 0.593555 -0.297638 0
M  V30 1213 H 129.148 1.46198 -1.43134 0
M  V30 1214 H 129.158 3.89801 -1.20497 0
M  V30 1215 H 127.833 3.47929 -2.27856 0
M  V30 1216 H 126.41 3.70046 -0.460499 0
M  V30 1217 N 128.595 0.856903 1.32268 0
M  V30 1218 C 129.843 0.460474 1.96784 0
M  V30 1219 C 130.164 -0.987701 1.68135 0
M  V30 1220 O 129.434 -1.69058 0.989765 0
M  V30 1221 H 128.014 0.167289 0.728027 0
M  V30 1222 H 130.676 1.09383 1.61312 0
M  V30 1223 H 129.772 0.60739 3.06133 0
M  V30 1224 N 130.073 -1.45103 0.615059 0
M  V30 1225 C 131.303 -2.06254 0.119596 0
M  V30 1226 C 131.711 -1.4591 -1.20445 0
M  V30 1227 O 131.054 -0.570384 -1.7462 0
M  V30 1228 C 131.116 -3.59396 -0.0865591 0
M  V30 1229 C 130.78 -4.42116 1.15683 0
M  V30 1230 C 131.777 -4.7662 2.07676 0
M  V30 1231 C 129.462 -4.82749 1.38775 0
M  V30 1232 C 131.456 -5.50622 3.21082 0
M  V30 1233 C 129.143 -5.56504 2.52481 0
M  V30 1234 C 130.141 -5.90358 3.43463 0
M  V30 1235 O 129.829 -6.62615 4.55189 0
M  V30 1236 H 129.561 -0.672423 0.0694512 0
M  V30 1237 H 132.115 -1.87219 0.844885 0
M  V30 1238 H 130.345 -3.76859 -0.866823 0
M  V30 1239 H 132.034 -4.02365 -0.534555 0
M  V30 1240 H 132.8 -4.4578 1.91063 0
M  V30 1241 H 128.679 -4.55829 0.688545 0
M  V30 1242 H 132.223 -5.76965 3.92119 0
M  V30 1243 H 128.12 -5.86759 2.69043 0
M  V30 1244 H 128.888 -6.81071 4.53966 0
M  V30 1245 N 131.551 -0.354651 -1.53558 0
M  V30 1246 C 132.501 0.513179 -2.2215 0
M  V30 1247 C 133.485 1.05734 -1.21281 0
M  V30 1248 O 134.677 0.989202 -1.46778 0
M  V30 1249 C 131.806 1.65798 -3.00609 0
M  V30 1250 C 130.892 1.12722 -4.08845 0
M  V30 1251 N 131.283 0.318563 -5.04796 0
M  V30 1252 C 129.581 1.40307 -4.23356 0
M  V30 1253 C 130.282 0.0292224 -5.81693 0
M  V30 1254 N 129.258 0.623891 -5.40008 0
M  V30 1255 H 133.06 -0.111586 -2.93688 0
M  V30 1256 H 130.574 -0.162091 -1.61589 0
M  V30 1257 H 132.571 2.29176 -3.48258 0
M  V30 1258 H 131.231 2.28591 -2.306 0
M  V30 1259 H 132.242 -0.0413091 -5.17884 0
M  V30 1260 H 128.919 2.03458 -3.6457 0
M  V30 1261 H 130.309 -0.623808 -6.68998 0
M  V30 1262 N 133.029 1.57378 -0.0835403 0
M  V30 1263 C 134.259 1.97975 0.590713 0
M  V30 1264 C 134.667 0.961083 1.62972 0
M  V30 1265 O 134.01 -0.0590879 1.83605 0
M  V30 1266 C 134.072 3.34915 1.3066 0
M  V30 1267 C 133.736 4.55069 0.419698 0
M  V30 1268 C 134.733 5.18868 -0.32749 0
M  V30 1269 C 132.418 5.0114 0.341137 0
M  V30 1270 C 134.412 6.27098 -1.14134 0
M  V30 1271 C 132.099 6.0924 -0.476374 0
M  V30 1272 C 133.097 6.72083 -1.21627 0
M  V30 1273 O 132.785 7.781 -2.02028 0
M  V30 1274 H 132.517 0.655818 0.163947 0
M  V30 1275 H 135.071 2.04807 -0.156021 0
M  V30 1276 H 133.301 3.24733 2.09966 0
M  V30 1277 H 134.99 3.60037 1.87424 0
M  V30 1278 H 135.756 4.84211 -0.276459 0
M  V30 1279 H 131.635 4.51996 0.90668 0
M  V30 1280 H 135.179 6.7608 -1.71935 0
M  V30 1281 H 131.076 6.43329 -0.528927 0
M  V30 1282 H 131.844 7.95034 -1.94586 0
M  V30 1283 N 134.507 -0.190092 1.56449 0
M  V30 1284 C 135.755 -0.907908 1.80559 0
M  V30 1285 C 136.076 -1.83583 0.657438 0
M  V30 1286 O 135.346 -1.93203 -0.323924 0
M  V30 1287 H 133.926 -0.338247 0.666032 0
M  V30 1288 H 136.588 -0.194403 1.93928 0
M  V30 1289 H 135.684 -1.49604 2.73907 0
M  V30 1290 N 135.985 -1.50799 -0.457987 0
M  V30 1291 C 137.231 -1.62683 -1.21088 0
M  V30 1292 C 137.564 -0.332268 -1.91336 0
M  V30 1293 O 136.839 0.667043 -1.82704 0
M  V30 1294 C 137.122 -2.81615 -2.24422 0
M  V30 1295 C 136.975 -4.20989 -1.58392 0
M  V30 1296 C 138.294 -2.96085 -3.2561 0
M  V30 1297 H 135.413 -0.592087 -0.438864 0
M  V30 1298 H 138.055 -1.83225 -0.50286 0
M  V30 1299 H 136.205 -2.64231 -2.84806 0
M  V30 1300 H 137.877 -4.49994 -1.01504 0
M  V30 1301 H 136.12 -4.24641 -0.886704 0
M  V30 1302 H 136.791 -5.0016 -2.33547 0
M  V30 1303 H 139.267 -3.12042 -2.75262 0
M  V30 1304 H 138.143 -3.80902 -3.95228 0
M  V30 1305 H 138.404 -2.0726 -3.90507 0
M  V30 1306 N 137.463 0.71206 -1.40597 0
M  V30 1307 C 138.426 1.80785 -1.40888 0
M  V30 1308 C 139.426 1.57937 -0.302103 0
M  V30 1309 O 140.616 1.64913 -0.561182 0
M  V30 1310 C 137.748 3.18927 -1.20409 0
M  V30 1311 H 138.941 1.81924 -2.38419 0
M  V30 1312 H 136.494 0.91805 -1.26497 0
M  V30 1313 H 137.229 3.23436 -0.236522 0
M  V30 1314 H 137.014 3.36911 -2.00582 0
M  V30 1315 H 138.504 3.98949 -1.23408 0
M  V30 1316 N 138.941 1.26152 0.944643 0
M  V30 1317 C 140.166 1.14363 1.7302 0
M  V30 1318 C 140.591 -0.29772 1.85729 0
M  V30 1319 O 139.949 -1.2157 1.34501 0
M  V30 1320 C 139.997 1.81378 3.11664 0
M  V30 1321 O 139.101 1.10022 3.97453 0
M  V30 1322 H 138.442 0.398694 0.53098 0
M  V30 1323 H 140.972 1.66906 1.18337 0
M  V30 1324 H 140.982 1.88064 3.62072 0
M  V30 1325 H 139.657 2.86237 3.0173 0
M  V30 1326 H 138.234 1.11287 3.55907 0
M  V30 1327 N 140.419 -1.14872 1.07899 0
M  V30 1328 C 141.659 -1.8745 0.814965 0
M  V30 1329 C 142.023 -1.80758 -0.64733 0
M  V30 1330 O 143.224 -2.48422 -1.02664 0
M  V30 1331 C 141.495 -3.32286 1.31607 0
M  V30 1332 S 143.054 -4.22537 1.18357 0
M  V30 1333 H 139.872 -0.646833 0.295174 0
M  V30 1334 H 142.474 -1.38555 1.37923 0
M  V30 1335 H 141.178 -3.34703 2.37491 0
M  V30 1336 H 140.709 -3.86238 0.747261 0
M  V30 1337 H 142.724 -4.96044 0.124586 0
M  V30 1338 N 141.898 -0.863906 -1.31812 0
M  V30 1339 C 142.808 -0.318461 -2.32428 0
M  V30 1340 C 143.824 0.568496 -1.64451 0
M  V30 1341 O 145 0.46666 -1.95919 0
M  V30 1342 C 142.065 0.476355 -3.43412 0
M  V30 1343 C 141.126 -0.43784 -4.27061 0
M  V30 1344 C 140.359 0.319138 -5.32745 0
M  V30 1345 O 140.582 1.54799 -5.48993 0
M  V30 1346 O 139.516 -0.319861 -6.01049 0
M  V30 1347 H 143.342 -1.15229 -2.80991 0
M  V30 1348 H 140.927 -0.627103 -1.35602 0
M  V30 1349 H 142.809 0.927156 -4.11074 0
M  V30 1350 H 141.484 1.28683 -2.97022 0
M  V30 1351 H 140.391 -0.937013 -3.62175 0
M  V30 1352 H 141.724 -1.21375 -4.77 0
M  V30 1353 N 143.376 1.44774 -0.622745 0
M  V30 1354 C 144.339 2.29069 0.0774015 0
M  V30 1355 C 145.339 1.4059 0.780461 0
M  V30 1356 O 146.529 1.62551 0.626322 0
M  V30 1357 C 143.661 3.21974 1.12006 0
M  V30 1358 H 144.854 2.92459 -0.663901 0
M  V30 1359 H 142.407 1.51548 -0.382486 0
M  V30 1360 H 143.142 2.63417 1.89162 0
M  V30 1361 H 142.927 3.87168 0.619951 0
M  V30 1362 H 144.417 3.85318 1.60995 0
M  V30 1363 N 144.854 0.36279 1.53368 0
M  V30 1364 C 146.094 -0.227882 2.03126 0
M  V30 1365 C 146.458 -1.4622 1.24434 0
M  V30 1366 O 147.659 -2.12831 1.64184 0
M  V30 1367 C 145.93 -0.515427 3.53664 0
M  V30 1368 S 147.489 -1.08017 4.25297 0
M  V30 1369 H 144.307 -0.0665377 0.70788 0
M  V30 1370 H 146.909 0.50501 1.88865 0
M  V30 1371 H 145.613 0.390436 4.08539 0
M  V30 1372 H 145.144 -1.27747 3.72081 0
M  V30 1373 H 147.159 -2.36462 4.36234 0
M  V30 1374 N 146.332 -1.57332 0.0918853 0
M  V30 1375 C 147.279 -2.13847 -0.868211 0
M  V30 1376 C 148.249 -1.05618 -1.28196 0
M  V30 1377 O 149.434 -1.33387 -1.36427 0
M  V30 1378 C 146.574 -2.72062 -2.12312 0
M  V30 1379 C 145.687 -3.94514 -1.7602 0
M  V30 1380 C 144.822 -4.40903 -2.96273 0
M  V30 1381 C 143.861 -5.55953 -2.56092 0
M  V30 1382 N 142.998 -5.97209 -3.69169 0
M  V30 1383 H 147.838 -2.95575 -0.379406 0
M  V30 1384 H 145.375 -1.46048 -0.175606 0
M  V30 1385 H 147.333 -3.03931 -2.858 0
M  V30 1386 H 145.963 -1.93068 -2.58698 0
M  V30 1387 H 145.015 -3.68979 -0.925135 0
M  V30 1388 H 146.327 -4.7802 -1.42472 0
M  V30 1389 H 145.481 -4.74539 -3.78018 0
M  V30 1390 H 144.22 -3.56291 -3.33029 0
M  V30 1391 H 143.225 -5.21948 -1.72773 0
M  V30 1392 H 144.45 -6.42311 -2.20484 0
M  V30 1393 H 142.396 -5.15543 -4.05649 0
M  V30 1394 H 142.313 -6.75504 -3.39456 0
M  V30 1395 H 143.581 -6.35475 -4.51434 0
M  V30 1396 N 147.81 0.181792 -1.56548 0
M  V30 1397 C 148.773 1.20894 -1.94724 0
M  V30 1398 C 149.773 1.37738 -0.829747 0
M  V30 1399 O 150.963 1.35323 -1.09697 0
M  V30 1400 C 148.095 2.57593 -2.23291 0
M  V30 1401 H 149.288 0.882275 -2.86629 0
M  V30 1402 H 146.841 0.423838 -1.50444 0
M  V30 1403 H 147.576 2.95291 -1.34067 0
M  V30 1404 H 147.361 2.46735 -3.04736 0
M  V30 1405 H 148.851 3.31637 -2.53785 0
M  V30 1406 N 149.288 1.51039 0.449983 0
M  V30 1407 C 150.535 1.63081 1.20045 0
M  V30 1408 C 150.863 0.341024 1.91487 0
M  V30 1409 O 150.118 -0.674276 1.83717 0
M  V30 1410 C 150.417 2.77556 2.25161 0
M  V30 1411 C 150.083 4.17289 1.70823 0
M  V30 1412 C 148.745 4.55305 1.55725 0
M  V30 1413 C 151.097 5.04536 1.3074 0
M  V30 1414 C 148.425 5.78287 0.989999 0
M  V30 1415 C 150.777 6.28085 0.754482 0
M  V30 1416 C 149.441 6.64885 0.590308 0
M  V30 1417 H 148.711 0.596755 0.439277 0
M  V30 1418 H 151.358 1.85037 0.49333 0
M  V30 1419 H 149.663 2.49771 3.01863 0
M  V30 1420 H 151.36 2.84073 2.83026 0
M  V30 1421 H 147.95 3.8731 1.83546 0
M  V30 1422 H 152.134 4.75782 1.41229 0
M  V30 1423 H 147.39 6.05456 0.850451 0
M  V30 1424 H 151.564 6.95038 0.435324 0
M  V30 1425 H 149.191 7.60055 0.14862 0
M  V30 1426 N 150.766 -0.704594 1.40972 0
M  V30 1427 C 152.013 -1.46458 1.39844 0
M  V30 1428 C 152.341 -1.94499 0.00447594 0
M  V30 1429 O 151.596 -1.69275 -0.982057 0
M  V30 1430 C 151.895 -2.698 2.34399 0
M  V30 1431 C 151.561 -2.40464 3.81429 0
M  V30 1432 C 150.223 -2.32174 4.21484 0
M  V30 1433 C 152.575 -2.16086 4.74296 0
M  V30 1434 C 149.903 -1.97589 5.52427 0
M  V30 1435 C 152.255 -1.83011 6.05549 0
M  V30 1436 C 150.919 -1.7321 6.44635 0
M  V30 1437 H 150.189 -0.535927 0.511725 0
M  V30 1438 H 152.836 -0.806124 1.73706 0
M  V30 1439 H 151.141 -3.40536 1.93759 0
M  V30 1440 H 152.838 -3.27919 2.30804 0
M  V30 1441 H 149.428 -2.47808 3.49699 0
M  V30 1442 H 153.612 -2.2144 4.4416 0
M  V30 1443 H 148.868 -1.88547 5.81601 0
M  V30 1444 H 153.042 -1.63164 6.77016 0
M  V30 1445 H 150.669 -1.46179 7.46013 0
M  V30 1446 N 152.244 -1.26651 -0.937939 0
M  V30 1447 C 153.191 -1.0849 -2.03712 0
M  V30 1448 C 154.161 0.011033 -1.66096 0
M  V30 1449 O 155.346 -0.149353 -1.90215 0
M  V30 1450 C 152.486 -0.72735 -3.37348 0
M  V30 1451 C 151.599 -1.89986 -3.87981 0
M  V30 1452 C 150.734 -1.48513 -5.10017 0
M  V30 1453 C 149.773 -2.62575 -5.5292 0
M  V30 1454 N 148.91 -2.21762 -6.66158 0
M  V30 1455 H 153.75 -2.02551 -2.18579 0
M  V30 1456 H 151.287 -1.00844 -1.07093 0
M  V30 1457 H 153.245 -0.50092 -4.14182 0
M  V30 1458 H 151.875 0.176298 -3.22318 0
M  V30 1459 H 150.927 -2.23913 -3.07518 0
M  V30 1460 H 152.239 -2.75586 -4.15757 0
M  V30 1461 H 151.393 -1.21934 -5.94321 0
M  V30 1462 H 150.132 -0.60009 -4.83994 0
M  V30 1463 H 149.137 -2.8988 -4.67172 0
M  V30 1464 H 150.362 -3.51685 -5.80943 0
M  V30 1465 H 148.308 -1.35696 -6.41812 0
M  V30 1466 H 148.225 -3.00903 -6.93537 0
M  V30 1467 H 149.493 -1.98403 -7.53828 0
M  V30 1468 N 153.722 1.14298 -1.08507 0
M  V30 1469 C 155.138 1.37347 -0.812901 0
M  V30 1470 C 155.338 1.93052 0.577325 0
M  V30 1471 O 154.394 2.14389 1.33393 0
M  V30 1472 C 155.707 2.33359 -1.89642 0
M  V30 1473 C 157.255 2.46996 -1.92255 0
M  V30 1474 C 157.73 3.46309 -2.99724 0
M  V30 1475 N 159.221 3.53853 -2.98902 0
M  V30 1476 C 159.956 4.3055 -3.787 0
M  V30 1477 N 159.452 5.10482 -4.6838 0
M  V30 1478 N 161.245 4.25757 -3.66998 0
M  V30 1479 H 153.396 0.764867 -1.9815 0
M  V30 1480 H 155.659 0.398966 -0.859959 0
M  V30 1481 H 155.365 1.99565 -2.89597 0
M  V30 1482 H 155.239 3.33274 -1.76659 0
M  V30 1483 H 157.626 2.80081 -0.929445 0
M  V30 1484 H 157.707 1.47039 -2.09316 0
M  V30 1485 H 157.351 3.13957 -3.99241 0
M  V30 1486 H 157.281 4.46049 -2.79907 0
M  V30 1487 H 159.772 2.96812 -2.33904 0
M  V30 1488 H 160.085 5.66284 -5.25873 0
M  V30 1489 H 158.43 5.09747 -4.72422 0
M  V30 1490 H 161.621 3.62383 -2.96304 0
M  V30 1491 H 161.794 4.85279 -4.29427 0
M  V30 1492 N 155.201 0.870884 1.31352 0
M  V30 1493 C 156.429 0.49677 2.00848 0
M  V30 1494 C 156.844 -0.910998 1.65367 0
M  V30 1495 O 156.201 -1.59696 0.883374 0
M  V30 1496 C 156.252 0.645308 3.55694 0
M  V30 1497 O 155.973 1.99764 3.89905 0
M  V30 1498 C 157.474 0.272326 4.42463 0
M  V30 1499 H 154.694 0.193462 0.642506 0
M  V30 1500 H 157.238 1.1723 1.67563 0
M  V30 1501 H 155.393 0.0173176 3.87396 0
M  V30 1502 H 155.807 2.00607 4.84621 0
M  V30 1503 H 157.281 0.427208 5.50344 0
M  V30 1504 H 157.758 -0.788587 4.32062 0
M  V30 1505 H 158.364 0.876054 4.1618 0
M  V30 1506 N 156.679 -1.44442 0.630414 0
M  V30 1507 C 157.928 -2.01267 0.132073 0
M  V30 1508 C 158.241 -1.50172 -1.25331 0
M  V30 1509 O 159.447 -1.9912 -1.84562 0
M  V30 1510 C 157.903 -3.59422 0.185362 0
M  V30 1511 C 157.511 -4.19514 1.57201 0
M  V30 1512 C 159.255 -4.23724 -0.256553 0
M  V30 1513 C 157.162 -5.69891 1.58045 0
M  V30 1514 H 156.092 -0.752619 0.0456092 0
M  V30 1515 H 158.743 -1.65666 0.789106 0
M  V30 1516 H 157.125 -3.92318 -0.538759 0
M  V30 1517 H 158.299 -3.98156 2.31966 0
M  V30 1518 H 156.614 -3.67496 1.95795 0
M  V30 1519 H 159.211 -5.34019 -0.269767 0
M  V30 1520 H 159.554 -3.96013 -1.28372 0
M  V30 1521 H 160.087 -3.95629 0.41505 0
M  V30 1522 H 156.826 -6.02336 2.58597 0
M  V30 1523 H 156.346 -5.93373 0.875725 0
M  V30 1524 H 158.025 -6.33515 1.31408 0
M  V30 1525 N 158.157 -0.370918 -1.53173 0
M  V30 1526 C 159.089 0.507823 -2.23503 0
M  V30 1527 C 160.102 1.04182 -1.251 0
M  V30 1528 O 161.291 0.947286 -1.5129 0
M  V30 1529 C 158.391 1.71447 -2.92334 0
M  V30 1530 C 157.564 1.31105 -4.17289 0
M  V30 1531 C 156.623 2.38035 -4.69282 0
M  V30 1532 O 155.649 2.00204 -5.32829 0
M  V30 1533 N 156.851 3.69697 -4.47554 0
M  V30 1534 H 159.616 -0.0946382 -2.99551 0
M  V30 1535 H 157.177 -0.196358 -1.60705 0
M  V30 1536 H 159.169 2.42469 -3.24023 0
M  V30 1537 H 157.739 2.22368 -2.19707 0
M  V30 1538 H 156.959 0.430462 -3.91843 0
M  V30 1539 H 158.247 1.0179 -4.98514 0
M  V30 1540 H 157.645 4.03205 -3.9679 0
M  V30 1541 H 156.202 4.36807 -4.8378 0
M  V30 1542 N 159.635 1.57281 -0.100228 0
M  V30 1543 C 160.883 1.94153 0.561157 0
M  V30 1544 C 161.204 0.983157 1.68401 0
M  V30 1545 O 160.474 0.0361132 1.95867 0
M  V30 1546 H 159.054 0.716791 0.210283 0
M  V30 1547 H 161.716 1.94202 -0.164765 0
M  V30 1548 H 160.812 2.96709 0.968008 0
M  V30 1549 N 161.113 -0.173488 1.56642 0
M  V30 1550 C 162.338 -0.910149 1.86363 0
M  V30 1551 C 162.763 -1.75132 0.686318 0
M  V30 1552 O 162.121 -1.77595 -0.364643 0
M  V30 1553 C 162.169 -1.76447 3.14482 0
M  V30 1554 O 161.273 -2.86584 2.96553 0
M  V30 1555 H 160.614 -0.255086 0.613047 0
M  V30 1556 H 163.144 -0.172283 2.03873 0
M  V30 1557 H 163.154 -2.16483 3.45831 0
M  V30 1558 H 161.829 -1.14658 3.99783 0
M  V30 1559 H 160.406 -2.50146 2.76553 0
M  V30 1560 N 162.591 -1.51276 -0.441967 0
M  V30 1561 C 163.84 -1.6295 -1.18871 0
M  V30 1562 C 164.153 -0.349312 -1.92456 0
M  V30 1563 O 165.359 -0.345355 -2.69295 0
M  V30 1564 C 163.815 -2.87759 -2.16155 0
M  V30 1565 C 163.423 -4.22764 -1.48239 0
M  V30 1566 C 165.167 -3.08788 -2.91291 0
M  V30 1567 C 163.074 -5.38728 -2.4398 0
M  V30 1568 H 162.004 -0.606913 -0.447406 0
M  V30 1569 H 164.655 -1.77739 -0.456205 0
M  V30 1570 H 163.037 -2.66593 -2.92821 0
M  V30 1571 H 164.211 -4.54293 -0.771635 0
M  V30 1572 H 162.526 -4.07575 -0.852741 0
M  V30 1573 H 165.123 -3.92599 -3.63002 0
M  V30 1574 H 165.466 -2.21679 -3.5237 0
M  V30 1575 H 165.999 -3.30272 -2.21733 0
M  V30 1576 H 162.738 -6.28082 -1.87598 0
M  V30 1577 H 162.258 -5.1158 -3.13123 0
M  V30 1578 H 163.937 -5.70489 -3.05207 0
M  V30 1579 N 164.069 0.697108 -1.41344 0
M  V30 1580 C 164.979 1.84088 -1.45427 0
M  V30 1581 C 165.995 1.70545 -0.34501 0
M  V30 1582 O 167.171 1.92488 -0.592492 0
M  V30 1583 C 164.236 3.20056 -1.33286 0
M  V30 1584 C 163.297 3.45718 -2.54514 0
M  V30 1585 C 162.53 4.75199 -2.42944 0
M  V30 1586 O 162.753 5.51579 -1.45318 0
M  V30 1587 O 161.687 5.0161 -3.32672 0
M  V30 1588 H 165.513 1.836 -2.41919 0
M  V30 1589 H 163.098 0.849966 -1.22866 0
M  V30 1590 H 164.98 4.01236 -1.28794 0
M  V30 1591 H 163.655 3.2123 -0.39909 0
M  V30 1592 H 162.562 2.64474 -2.64583 0
M  V30 1593 H 163.895 3.49356 -3.46715 0
M  V30 1594 N 165.547 1.27147 0.931209 0
M  V30 1595 C 166.777 1.15914 1.71019 0
M  V30 1596 C 167.185 -0.287112 1.87009 0
M  V30 1597 O 166.528 -1.20761 1.38429 0
M  V30 1598 C 166.59 1.76647 3.13107 0
M  V30 1599 C 166.254 3.25807 3.20467 0
M  V30 1600 C 167.251 4.22489 3.02983 0
M  V30 1601 C 164.936 3.66452 3.43538 0
M  V30 1602 C 166.93 5.57794 3.08454 0
M  V30 1603 C 164.617 5.01888 3.48643 0
M  V30 1604 C 165.615 5.97369 3.31119 0
M  V30 1605 O 165.303 7.30337 3.35952 0
M  V30 1606 H 165.035 0.404062 0.54195 0
M  V30 1607 H 167.589 1.68457 1.17521 0
M  V30 1608 H 165.819 1.18578 3.68071 0
M  V30 1609 H 167.508 1.60179 3.72958 0
M  V30 1610 H 168.274 3.92425 2.85004 0
M  V30 1611 H 164.153 2.92611 3.5623 0
M  V30 1612 H 167.697 6.32298 2.94694 0
M  V30 1613 H 163.594 5.31609 3.66145 0
M  V30 1614 H 164.362 7.38739 3.5243 0
M  V30 1615 N 167.025 -1.13721 1.09112 0
M  V30 1616 C 168.25 -1.89314 0.847053 0
M  V30 1617 C 168.675 -1.78416 -0.595774 0
M  V30 1618 O 168.033 -1.12942 -1.41823 0
M  V30 1619 C 168.081 -3.3701 1.28284 0
M  V30 1620 O 167.185 -4.10054 0.439267 0
M  V30 1621 H 166.526 -0.588745 0.307044 0
M  V30 1622 H 169.056 -1.43902 1.45442 0
M  V30 1623 H 169.066 -3.87834 1.26683 0
M  V30 1624 H 167.741 -3.4426 2.33363 0
M  V30 1625 H 166.318 -3.69266 0.519312 0
M  V30 1626 N 168.503 -0.877838 -1.30888 0
M  V30 1627 C 169.743 -0.499301 -1.98208 0
M  V30 1628 C 170.107 0.932649 -1.67826 0
M  V30 1629 O 171.308 1.41694 -2.28421 0
M  V30 1630 C 169.579 -0.758221 -3.49265 0
M  V30 1631 S 171.138 -0.480719 -4.36159 0
M  V30 1632 H 167.956 -0.186062 -0.686223 0
M  V30 1633 H 170.558 -1.13556 -1.59139 0
M  V30 1634 H 169.262 -1.79903 -3.68867 0
M  V30 1635 H 168.793 -0.109247 -3.93248 0
M  V30 1636 H 170.808 0.683698 -4.91467 0
M  V30 1637 N 169.982 1.44106 -0.638065 0
M  V30 1638 C 171.393 1.85316 -0.226894 0
M  V30 1639 C 171.744 1.53399 1.22324 0
M  V30 1640 O 170.869 0.975463 1.93167 0
M  V30 1641 C 171.464 3.3637 -0.405013 0
M  V30 1642 C 170.023 3.76369 -0.0482902 0
M  V30 1643 C 169.17 2.67921 -0.715108 0
M  V30 1644 H 172.121 1.34474 -0.842764 0
M  V30 1645 H 172.142 3.7885 0.354 0
M  V30 1646 H 171.654 3.59569 -1.46053 0
M  V30 1647 H 169.755 3.58784 1.00522 0
M  V30 1648 H 169.868 4.76856 -0.463187 0
M  V30 1649 H 168.232 2.54259 -0.149753 0
M  V30 1650 H 169.015 2.93951 -1.77335 0
M  V30 1651 N 171.46 0.379036 1.52974 0
M  V30 1652 C 172.423 -0.448865 2.24762 0
M  V30 1653 C 173.423 -0.998689 1.26027 0
M  V30 1654 O 174.613 -0.882313 1.50203 0
M  V30 1655 C 171.745 -1.62872 2.99476 0
M  V30 1656 H 172.938 0.179491 2.99362 0
M  V30 1657 H 170.491 0.13096 1.5575 0
M  V30 1658 H 171.226 -2.29479 2.29151 0
M  V30 1659 H 171.011 -1.24128 3.71934 0
M  V30 1660 H 172.501 -2.2151 3.5401 0
M  V30 1661 N 172.938 -1.57226 0.108567 0
M  V30 1662 C 174.163 -1.99604 -0.563303 0
M  V30 1663 C 174.588 -0.987563 -1.6009 0
M  V30 1664 O 173.946 0.0421687 -1.81251 0
M  V30 1665 C 173.994 -3.40902 -1.17552 0
M  V30 1666 O 173.098 -3.42896 -2.2912 0
M  V30 1667 H 172.439 -0.648704 -0.1417 0
M  V30 1668 H 174.969 -2.03679 0.193961 0
M  V30 1669 H 174.979 -3.78886 -1.51357 0
M  V30 1670 H 173.654 -4.1382 -0.415445 0
M  V30 1671 H 172.231 -3.1672 -1.96832 0
M  V30 1672 N 174.416 0.165178 -1.56732 0
M  V30 1673 C 175.364 1.22369 -1.97809 0
M  V30 1674 C 176.358 1.45488 -0.867741 0
M  V30 1675 O 177.564 1.45995 -1.05288 0
M  V30 1676 H 173.939 0.411486 -0.629431 0
M  V30 1677 H 175.91 0.850425 -2.86025 0
M  V30 1678 C 174.659 2.55403 -2.35934 0
M  V30 1679 H 173.982 2.38438 -3.20916 0
M  V30 1680 H 175.422 3.2814 -2.68514 0
M  V30 1681 C 173.881 3.14611 -1.20506 0
M  V30 1682 O 174.411 3.98626 -0.496016 0
M  V30 1683 N 172.617 2.7379 -0.97403 0
M  V30 1684 H 172.164 2.0557 -1.55238 0
M  V30 1685 H 172.122 3.1374 -0.203573 0
M  V30 1686 N 175.894 1.51508 0.433938 0
M  V30 1687 C 176.804 1.75917 1.5521 0
M  V30 1688 C 177.82 0.643545 1.61662 0
M  V30 1689 O 178.996 0.926183 1.7884 0
M  V30 1690 C 176.061 1.88213 2.91164 0
M  V30 1691 C 175.122 3.12074 2.94802 0
M  V30 1692 C 174.355 3.23774 4.24271 0
M  V30 1693 O 174.578 2.4133 5.16833 0
M  V30 1694 O 173.512 4.16774 4.34262 0
M  V30 1695 H 177.338 2.70777 1.37527 0
M  V30 1696 H 174.923 1.36051 0.617293 0
M  V30 1697 H 176.805 1.98267 3.71845 0
M  V30 1698 H 175.48 0.965413 3.08968 0
M  V30 1699 H 174.387 3.07497 2.13065 0
M  V30 1700 H 175.72 4.03446 2.81943 0
M  V30 1701 N 177.372 -0.689602 1.41712 0
M  V30 1702 C 178.612 -1.46184 1.42862 0
M  V30 1703 C 178.976 -1.91962 0.0382204 0
M  V30 1704 O 180.177 -2.68694 -0.0755019 0
M  V30 1705 C 178.448 -2.6371 2.4123 0
M  V30 1706 S 180.007 -3.52768 2.6096 0
M  V30 1707 H 176.825 -0.49947 0.506015 0
M  V30 1708 H 179.427 -0.804107 1.78198 0
M  V30 1709 H 178.131 -2.28293 3.41044 0
M  V30 1710 H 177.662 -3.3437 2.07269 0
M  V30 1711 H 179.677 -4.59146 1.88148 0
M  V30 1712 N 178.85 -1.27639 -0.924453 0
M  V30 1713 C 179.76 -1.12466 -2.05885 0
M  V30 1714 C 180.776 -0.053869 -1.73917 0
M  V30 1715 O 181.952 -0.261012 -1.99702 0
M  V30 1716 C 179.017 -0.776768 -3.37886 0
M  V30 1717 C 178.078 -1.92878 -3.83532 0
M  V30 1718 C 177.311 -1.59739 -5.09234 0
M  V30 1719 O 177.534 -0.506782 -5.68144 0
M  V30 1720 O 176.468 -2.43761 -5.50331 0
M  V30 1721 H 180.294 -2.07671 -2.21599 0
M  V30 1722 H 177.879 -1.06857 -1.04413 0
M  V30 1723 H 179.761 -0.596229 -4.17161 0
M  V30 1724 H 178.436 0.145732 -3.23372 0
M  V30 1725 H 177.343 -2.1644 -3.0513 0
M  V30 1726 H 178.676 -2.8316 -4.02593 0
M  V30 1727 N 180.328 1.1314 -1.09713 0
M  V30 1728 C 181.577 1.83838 -0.829851 0
M  V30 1729 C 181.89 1.84599 0.646728 0
M  V30 1730 O 183.096 2.51218 1.02965 0
M  V30 1731 C 181.552 3.30069 -1.43466 0
M  V30 1732 C 181.16 3.37688 -2.94399 0
M  V30 1733 C 182.904 4.05788 -1.24645 0
M  V30 1734 C 180.811 4.78209 -3.47952 0
M  V30 1735 H 179.741 0.68877 -0.306777 0
M  V30 1736 H 182.392 1.27448 -1.3202 0
M  V30 1737 H 180.774 3.8628 -0.871996 0
M  V30 1738 H 181.948 2.91456 -3.56918 0
M  V30 1739 H 180.263 2.75436 -3.12289 0
M  V30 1740 H 182.86 5.09535 -1.62107 0
M  V30 1741 H 183.203 4.15878 -0.187357 0
M  V30 1742 H 183.736 3.55915 -1.77678 0
M  V30 1743 H 180.475 4.73311 -4.53495 0
M  V30 1744 H 179.995 5.24924 -2.90198 0
M  V30 1745 H 181.674 5.47133 -3.45332 0
M  V30 1746 N 181.806 0.884767 1.30421 0
M  V30 1747 C 183.034 0.518044 2.0031 0
M  V30 1748 C 183.449 -0.893408 1.66324 0
M  V30 1749 O 182.806 -1.5875 0.900262 0
M  V30 1750 C 182.857 0.682997 3.54989 0
M  V30 1751 O 182.578 2.03888 3.87764 0
M  V30 1752 C 184.079 0.31924 4.42149 0
M  V30 1753 H 181.299 0.200265 0.640418 0
M  V30 1754 H 183.843 1.19001 1.6631 0
M  V30 1755 H 181.998 0.0584052 3.87356 0
M  V30 1756 H 182.412 2.05735 4.82466 0
M  V30 1757 H 183.886 0.485555 5.4986 0
M  V30 1758 H 184.363 -0.742717 4.32875 0
M  V30 1759 H 184.969 0.920147 4.15227 0
M  V30 1760 N 183.284 -1.43765 0.645699 0
M  V30 1761 C 184.231 -2.30745 -0.0504648 0
M  V30 1762 C 185.201 -1.4432 -0.822241 0
M  V30 1763 O 186.386 -1.73202 -0.800358 0
M  V30 1764 C 183.526 -3.29802 -1.0161 0
M  V30 1765 C 182.639 -4.31326 -0.241219 0
M  V30 1766 C 181.774 -5.17469 -1.19998 0
M  V30 1767 C 180.813 -6.10691 -0.415094 0
M  V30 1768 N 179.95 -6.89483 -1.32506 0
M  V30 1769 H 184.79 -2.8973 0.697155 0
M  V30 1770 H 182.327 -1.42738 0.355563 0
M  V30 1771 H 184.285 -3.85734 -1.58949 0
M  V30 1772 H 182.915 -2.72483 -1.73069 0
M  V30 1773 H 181.967 -3.77749 0.448334 0
M  V30 1774 H 183.279 -4.9743 0.369437 0
M  V30 1775 H 182.433 -5.7799 -1.84424 0
M  V30 1776 H 181.172 -4.51473 -1.84455 0
M  V30 1777 H 180.177 -5.49265 0.242565 0
M  V30 1778 H 181.402 -6.78727 0.224966 0
M  V30 1779 H 179.348 -6.26142 -1.95657 0
M  V30 1780 H 179.265 -7.52081 -0.768783 0
M  V30 1781 H 180.533 -7.54516 -1.9577 0
M  V30 1782 N 184.763 -0.387143 -1.52771 0
M  V30 1783 C 186.179 -0.037007 -1.59557 0
M  V30 1784 C 186.379 1.44801 -1.40124 0
M  V30 1785 O 185.435 2.21227 -1.21716 0
M  V30 1786 C 186.748 -0.512256 -2.96305 0
M  V30 1787 C 188.296 -0.468328 -3.09476 0
M  V30 1788 C 188.771 -0.919731 -4.4867 0
M  V30 1789 N 190.262 -0.875656 -4.54848 0
M  V30 1790 C 190.997 -1.19637 -5.6078 0
M  V30 1791 N 190.493 -1.58745 -6.74368 0
M  V30 1792 N 192.286 -1.11776 -5.50874 0
M  V30 1793 H 184.437 -1.35395 -1.63652 0
M  V30 1794 H 186.7 -0.554818 -0.768688 0
M  V30 1795 H 186.406 -1.54935 -3.15734 0
M  V30 1796 H 186.28 0.089805 -3.77093 0
M  V30 1797 H 188.667 0.559671 -2.89744 0
M  V30 1798 H 188.748 -1.10616 -2.30646 0
M  V30 1799 H 188.392 -1.94595 -4.69143 0
M  V30 1800 H 188.322 -0.258927 -5.25963 0
M  V30 1801 H 190.813 -0.587843 -3.733 0
M  V30 1802 H 191.126 -1.81586 -7.51163 0
M  V30 1803 H 189.471 -1.6263 -6.75705 0
M  V30 1804 H 192.662 -0.811264 -4.61016 0
M  V30 1805 H 192.835 -1.37103 -6.3333 0
M  V30 1806 N 186.241 1.57166 -0.116904 0
M  V30 1807 C 187.657 1.5779 0.239693 0
M  V30 1808 C 187.857 1.1295 1.66867 0
M  V30 1809 O 186.913 0.81592 2.38954 0
M  V30 1810 C 188.226 3.00699 0.00828202 0
M  V30 1811 C 189.774 3.12912 0.0743438 0
M  V30 1812 C 190.249 4.57817 -0.129348 0
M  V30 1813 N 191.74 4.63139 -0.075247 0
M  V30 1814 C 192.475 5.73023 -0.207788 0
M  V30 1815 N 191.971 6.91665 -0.396382 0
M  V30 1816 N 193.764 5.61906 -0.14751 0
M  V30 1817 H 185.915 1.84615 -1.05029 0
M  V30 1818 H 188.178 0.85311 -0.41341 0
M  V30 1819 H 187.884 3.37784 -0.979531 0
M  V30 1820 H 187.758 3.69848 0.741077 0
M  V30 1821 H 190.145 2.75686 1.05268 0
M  V30 1822 H 190.226 2.4631 -0.690297 0
M  V30 1823 H 189.87 4.95742 -1.10465 0
M  V30 1824 H 189.8 5.22507 0.655253 0
M  V30 1825 H 192.291 3.7784 0.0670898 0
M  V30 1826 H 192.604 7.71255 -0.488437 0
M  V30 1827 H 190.949 6.93654 -0.432329 0
M  V30 1828 H 194.14 4.681 -0.00115036 0
M  V30 1829 H 194.313 6.47501 -0.254247 0
M  V30 1830 N 187.719 -0.156864 1.56817 0
M  V30 1831 C 189.135 -0.50916 1.5126 0
M  V30 1832 C 189.335 -1.83897 0.823658 0
M  V30 1833 O 188.391 -2.49469 0.390055 0
M  V30 1834 C 189.704 -0.52857 2.96018 0
M  V30 1835 C 191.252 -0.614771 3.06903 0
M  V30 1836 C 191.727 -0.664938 4.53147 0
M  V30 1837 N 193.218 -0.727433 4.57452 0
M  V30 1838 C 193.953 -0.787067 5.67973 0
M  V30 1839 N 193.449 -0.806649 6.88088 0
M  V30 1840 N 195.242 -0.827195 5.5598 0
M  V30 1841 H 187.393 0.714935 2.00006 0
M  V30 1842 H 189.656 0.259526 0.911784 0
M  V30 1843 H 189.362 0.380154 3.49639 0
M  V30 1844 H 189.236 -1.36998 3.51442 0
M  V30 1845 H 191.623 -1.51392 2.53307 0
M  V30 1846 H 191.704 0.253597 2.5454 0
M  V30 1847 H 191.348 0.230011 5.07379 0
M  V30 1848 H 191.278 -1.54966 5.03282 0
M  V30 1849 H 193.769 -0.719998 3.70978 0
M  V30 1850 H 194.082 -0.853727 7.6807 0
M  V30 1851 H 192.427 -0.774687 6.90669 0
M  V30 1852 H 195.618 -0.808998 4.61056 0
M  V30 1853 H 195.791 -0.870206 6.4213 0
M  V30 1854 N 189.197 -1.51736 -0.425897 0
M  V30 1855 C 190.144 -1.73875 -1.51776 0
M  V30 1856 C 191.114 -0.580702 -1.55618 0
M  V30 1857 O 192.299 -0.81641 -1.72451 0
M  V30 1858 C 189.439 -1.88012 -2.89388 0
M  V30 1859 C 188.552 -3.15606 -2.94986 0
M  V30 1860 C 187.687 -3.20271 -4.23793 0
M  V30 1861 C 186.726 -4.42134 -4.23302 0
M  V30 1862 N 185.863 -4.44284 -5.43651 0
M  V30 1863 H 190.703 -2.67071 -1.32201 0
M  V30 1864 H 188.24 -1.32351 -0.642008 0
M  V30 1865 H 190.198 -1.9419 -3.69251 0
M  V30 1866 H 188.828 -0.98213 -3.07496 0
M  V30 1867 H 187.88 -3.18681 -2.07717 0
M  V30 1868 H 189.192 -4.05486 -2.90486 0
M  V30 1869 H 188.346 -3.25428 -5.12036 0
M  V30 1870 H 187.085 -2.28299 -4.30965 0
M  V30 1871 H 186.09 -4.3714 -3.3345 0
M  V30 1872 H 187.315 -5.35382 -4.17783 0
M  V30 1873 H 185.261 -3.55188 -5.51523 0
M  V30 1874 H 185.178 -5.27988 -5.41078 0
M  V30 1875 H 186.446 -4.53649 -6.33895 0
M  V30 1876 N 190.675 0.682077 -1.42076 0
M  V30 1877 C 191.638 1.77756 -1.44691 0
M  V30 1878 C 192.638 1.5726 -0.335535 0
M  V30 1879 O 193.828 1.63686 -0.596037 0
M  V30 1880 C 190.96 3.16301 -1.27146 0
M  V30 1881 H 192.153 1.76826 -2.42224 0
M  V30 1882 H 189.706 0.891012 -1.28416 0
M  V30 1883 H 190.441 3.22862 -0.305075 0
M  V30 1884 H 190.226 3.32581 -2.07683 0
M  V30 1885 H 191.716 3.96241 -1.31843 0
M  V30 1886 N 192.153 1.28127 0.917671 0
M  V30 1887 C 193.393 1.163 1.68088 0
M  V30 1888 C 193.757 -0.284515 1.8988 0
M  V30 1889 O 194.958 -0.525413 2.63615 0
M  V30 1890 C 193.229 1.93546 3.00457 0
M  V30 1891 S 194.788 1.98048 3.91564 0
M  V30 1892 H 191.606 0.415005 0.577315 0
M  V30 1893 H 194.208 1.62173 1.09179 0
M  V30 1894 H 192.912 2.97888 2.82295 0
M  V30 1895 H 192.443 1.48207 3.64415 0
M  V30 1896 H 194.458 1.08415 4.84211 0
M  V30 1897 N 193.631 -1.12557 1.10312 0
M  V30 1898 C 194.563 -2.17971 0.708625 0
M  V30 1899 C 195.576 -1.60806 -0.254027 0
M  V30 1900 O 196.765 -1.78458 -0.0386891 0
M  V30 1901 C 193.865 -3.38891 0.0248198 0
M  V30 1902 C 193.038 -4.25548 1.01132 0
M  V30 1903 C 192.097 -5.24972 0.35924 0
M  V30 1904 O 191.123 -5.60174 1.00965 0
M  V30 1905 N 192.325 -5.73747 -0.882847 0
M  V30 1906 H 195.09 -2.52427 1.61557 0
M  V30 1907 H 192.651 -1.27967 0.991771 0
M  V30 1908 H 194.643 -4.02485 -0.422852 0
M  V30 1909 H 193.213 -3.02596 -0.784514 0
M  V30 1910 H 192.433 -3.58589 1.6373 0
M  V30 1911 H 193.721 -4.80294 1.67914 0
M  V30 1912 H 193.119 -5.4731 -1.43065 0
M  V30 1913 H 191.676 -6.39234 -1.27369 0
M  V30 1914 N 195.109 -0.891671 -1.2995 0
M  V30 1915 C 196.072 -0.36828 -2.26222 0
M  V30 1916 C 197.072 0.493014 -1.53056 0
M  V30 1917 O 198.262 0.299213 -1.71611 0
M  V30 1918 C 195.394 0.47442 -3.37583 0
M  V30 1919 H 196.587 -1.21844 -2.74033 0
M  V30 1920 H 194.14 -0.669107 -1.41254 0
M  V30 1921 H 194.875 1.34489 -2.95099 0
M  V30 1922 H 194.66 -0.142615 -3.91841 0
M  V30 1923 H 196.15 0.83218 -4.09224 0
M  V30 1924 N 196.587 1.43421 -0.653314 0
M  V30 1925 C 197.827 2.03689 -0.170346 0
M  V30 1926 C 198.191 1.50427 1.19314 0
M  V30 1927 O 199.392 2.0234 1.76952 0
M  V30 1928 C 197.663 3.56946 -0.180183 0
M  V30 1929 S 199.222 4.38171 0.234925 0
M  V30 1930 H 196.04 0.707345 -0.0719976 0
M  V30 1931 H 198.642 1.75486 -0.86167 0
M  V30 1932 H 197.346 3.93212 -1.17526 0
M  V30 1933 H 196.877 3.89791 0.531675 0
M  V30 1934 H 198.892 4.73808 1.47378 0
M  V30 1935 N 198.065 0.39524 1.52563 0
M  V30 1936 C 199.481 0.0454682 1.59535 0
M  V30 1937 C 199.681 -1.44056 1.4089 0
M  V30 1938 O 198.737 -2.20579 1.22888 0
M  V30 1939 C 200.05 0.527963 2.96029 0
M  V30 1940 C 201.598 0.484733 3.09224 0
M  V30 1941 C 202.073 0.943512 4.48176 0
M  V30 1942 N 203.564 0.899765 4.54377 0
M  V30 1943 C 204.299 1.22609 5.60138 0
M  V30 1944 N 203.795 1.62319 6.73516 0
M  V30 1945 N 205.588 1.14696 5.50274 0
M  V30 1946 H 197.739 1.36261 1.62931 0
M  V30 1947 H 200.002 0.558887 0.765735 0
M  V30 1948 H 199.708 1.56607 3.14908 0
M  V30 1949 H 199.582 -0.0698056 3.77135 0
M  V30 1950 H 201.969 -0.544298 2.90037 0
M  V30 1951 H 202.05 1.11838 2.30056 0
M  V30 1952 H 201.694 1.9708 4.68104 0
M  V30 1953 H 201.624 0.286817 5.25818 0
M  V30 1954 H 204.115 0.607632 3.72983 0
M  V30 1955 H 204.428 1.85567 7.5019 0
M  V30 1956 H 202.773 1.66211 6.74833 0
M  V30 1957 H 205.964 0.835701 4.6058 0
M  V30 1958 H 206.137 1.40459 6.32594 0
M  V30 1959 N 199.544 -1.57102 0.125237 0
M  V30 1960 C 200.791 -1.95407 -0.531248 0
M  V30 1961 C 201.119 -1.0089 -1.66287 0
M  V30 1962 O 200.374 -0.0339431 -1.95671 0
M  V30 1963 C 200.673 -3.40096 -1.09862 0
M  V30 1964 C 200.339 -4.50815 -0.0876989 0
M  V30 1965 C 199.001 -4.80824 0.19026 0
M  V30 1966 C 201.353 -5.17724 0.600902 0
M  V30 1967 C 198.681 -5.75058 1.163 0
M  V30 1968 C 201.033 -6.13005 1.56231 0
M  V30 1969 C 199.697 -6.41403 1.8482 0
M  V30 1970 H 198.967 -0.715046 -0.194397 0
M  V30 1971 H 201.614 -1.90373 0.207463 0
M  V30 1972 H 199.919 -3.41855 -1.91422 0
M  V30 1973 H 201.616 -3.6705 -1.61478 0
M  V30 1974 H 198.206 -4.27444 -0.314528 0
M  V30 1975 H 202.39 -4.94691 0.399333 0
M  V30 1976 H 197.646 -5.95362 1.39117 0
M  V30 1977 H 201.82 -6.63934 2.10153 0
M  V30 1978 H 199.447 -7.14229 2.60349 0
M  V30 1979 N 201.022 0.148545 -1.56898 0
M  V30 1980 C 202.25 0.876389 -1.87422 0
M  V30 1981 C 202.665 1.74809 -0.713256 0
M  V30 1982 O 202.022 1.79725 0.317025 0
M  V30 1983 C 202.073 1.73438 -3.17178 0
M  V30 1984 O 201.794 0.897809 -4.28802 0
M  V30 1985 C 203.295 2.56993 -3.61205 0
M  V30 1986 H 200.515 0.253489 -0.621277 0
M  V30 1987 H 203.059 0.141798 -2.04008 0
M  V30 1988 H 201.214 2.42205 -3.0235 0
M  V30 1989 H 201.628 1.48672 -5.02988 0
M  V30 1990 H 203.102 3.12773 -4.54838 0
M  V30 1991 H 203.579 3.32958 -2.86419 0
M  V30 1992 H 204.185 1.9352 -3.78722 0
M  V30 1993 N 202.5 1.5196 0.417844 0
M  V30 1994 C 203.447 1.74678 1.50852 0
M  V30 1995 C 204.417 0.588947 1.55308 0
M  V30 1996 O 205.602 0.825544 1.72016 0
M  V30 1997 C 202.742 1.89544 2.88387 0
M  V30 1998 C 201.855 3.17166 2.93309 0
M  V30 1999 C 200.99 3.22513 4.22088 0
M  V30 2000 C 200.029 4.44372 4.20951 0
M  V30 2001 N 199.166 4.47161 5.41287 0
M  V30 2002 H 204.006 2.67768 1.30783 0
M  V30 2003 H 201.543 1.32689 0.63498 0
M  V30 2004 H 203.501 1.96146 3.68216 0
M  V30 2005 H 202.131 0.998424 3.06971 0
M  V30 2006 H 201.183 3.19778 2.06024 0
M  V30 2007 H 202.495 4.07021 2.88332 0
M  V30 2008 H 201.649 3.28139 5.10303 0
M  V30 2009 H 200.388 2.30581 4.29748 0
M  V30 2010 H 199.393 4.38902 3.31127 0
M  V30 2011 H 200.618 5.3759 4.14938 0
M  V30 2012 H 198.564 3.58108 5.49632 0
M  V30 2013 H 198.481 5.3085 5.3827 0
M  V30 2014 H 199.749 4.57005 6.3148 0
M  V30 2015 N 203.978 -0.674533 1.42435 0
M  V30 2016 C 205.218 -1.4466 1.44405 0
M  V30 2017 C 205.582 -1.91911 0.0585784 0
M  V30 2018 O 206.783 -2.68759 -0.0469991 0
M  V30 2019 C 205.054 -2.61136 2.44013 0
M  V30 2020 S 206.613 -3.49981 2.64687 0
M  V30 2021 H 203.431 -0.494074 0.511284 0
M  V30 2022 H 206.033 -0.785162 1.7904 0
M  V30 2023 H 204.737 -2.24662 3.43446 0
M  V30 2024 H 204.268 -3.32153 2.10803 0
M  V30 2025 H 206.283 -4.57124 1.93007 0
M  V30 2026 N 205.456 -1.28612 -0.910864 0
M  V30 2027 C 206.386 -1.15326 -2.03032 0
M  V30 2028 C 207.367 -0.0502924 -1.70026 0
M  V30 2029 O 208.552 -0.227797 -1.92859 0
M  V30 2030 C 205.682 -0.817343 -3.37545 0
M  V30 2031 C 204.636 -1.8754 -3.84724 0
M  V30 2032 C 203.962 -1.39305 -5.16235 0
M  V30 2033 C 205.262 -3.28244 -4.06267 0
M  V30 2034 H 206.956 -2.08975 -2.14406 0
M  V30 2035 H 204.502 -1.00612 -1.03021 0
M  V30 2036 H 206.455 -0.711151 -4.15356 0
M  V30 2037 H 205.179 0.154846 -3.26233 0
M  V30 2038 H 203.838 -1.97079 -3.09121 0
M  V30 2039 H 203.486 -0.409846 -5.01328 0
M  V30 2040 H 203.186 -2.10057 -5.48771 0
M  V30 2041 H 204.71 -1.30014 -5.96598 0
M  V30 2042 H 206.124 -3.21611 -4.74594 0
M  V30 2043 H 204.521 -3.96855 -4.5014 0
M  V30 2044 H 205.591 -3.72048 -3.10979 0
M  V30 2045 N 206.934 1.1197 -1.10907 0
M  V30 2046 C 208.35 1.35591 -0.841852 0
M  V30 2047 C 208.55 1.94233 0.536246 0
M  V30 2048 O 207.606 2.1717 1.28816 0
M  V30 2049 C 208.919 2.29284 -1.94549 0
M  V30 2050 C 210.467 2.42862 -1.97451 0
M  V30 2051 C 210.942 3.39873 -3.07002 0
M  V30 2052 N 212.433 3.47433 -3.06341 0
M  V30 2053 C 213.168 4.22421 -3.87748 0
M  V30 2054 N 212.664 5.00432 -4.79103 0
M  V30 2055 N 214.457 4.17876 -3.75946 0
M  V30 2056 H 206.608 0.722664 -1.99728 0
M  V30 2057 H 208.871 0.380635 -0.868229 0
M  V30 2058 H 208.577 1.93378 -2.93765 0
M  V30 2059 H 208.451 3.29452 -1.83688 0
M  V30 2060 H 210.838 2.78046 -0.988645 0
M  V30 2061 H 210.919 1.42566 -2.12388 0
M  V30 2062 H 210.563 3.05417 -4.05811 0
M  V30 2063 H 210.493 4.40011 -2.89306 0
M  V30 2064 H 212.984 2.91784 -2.40147 0
M  V30 2065 H 213.297 5.55002 -5.37766 0
M  V30 2066 H 211.642 4.99612 -4.83128 0
M  V30 2067 H 214.833 3.56016 -3.03924 0
M  V30 2068 H 215.006 4.76061 -4.39624 0
M  V30 2069 N 208.412 0.89855 1.29475 0
M  V30 2070 C 209.658 0.524658 1.95896 0
M  V30 2071 C 209.991 -0.926468 1.70676 0
M  V30 2072 O 209.266 -1.65665 1.01908 0
M  V30 2073 C 209.549 0.81633 3.50725 0
M  V30 2074 C 209.402 2.31907 3.85408 0
M  V30 2075 C 210.721 0.302038 4.39062 0
M  V30 2076 H 207.84 0.19209 0.711527 0
M  V30 2077 H 210.482 1.12502 1.53112 0
M  V30 2078 H 208.632 0.305369 3.87298 0
M  V30 2079 H 210.304 2.89949 3.58786 0
M  V30 2080 H 208.547 2.78027 3.32992 0
M  V30 2081 H 209.218 2.47373 4.93468 0
M  V30 2082 H 211.694 0.739551 4.09475 0
M  V30 2083 H 210.57 0.535331 5.46283 0
M  V30 2084 H 210.831 -0.797216 4.34853 0
M  V30 2085 N 209.89 -1.43072 0.660911 0
M  V30 2086 C 211.138 -2.01323 0.177094 0
M  V30 2087 C 211.459 -1.5245 -1.2159 0
M  V30 2088 O 210.729 -0.740322 -1.81373 0
M  V30 2089 H 209.309 -0.744382 0.0624804 0
M  V30 2090 H 211.971 -1.75179 0.854305 0
M  V30 2091 H 211.067 -3.11649 0.167641 0
M  V30 2092 N 211.368 -0.403325 -1.52352 0
M  V30 2093 C 212.301 0.469463 -2.23319 0
M  V30 2094 C 213.279 1.05272 -1.23922 0
M  V30 2095 O 214.463 1.10169 -1.52954 0
M  V30 2096 C 211.59 1.6511 -2.9573 0
M  V30 2097 C 210.636 1.19178 -4.0951 0
M  V30 2098 S 211.469 0.161718 -5.35256 0
M  V30 2099 C 212.625 1.34882 -6.11194 0
M  V30 2100 H 212.858 -0.133134 -2.97002 0
M  V30 2101 H 210.391 -0.187588 -1.53256 0
M  V30 2102 H 212.349 2.3287 -3.38056 0
M  V30 2103 H 211.01 2.22503 -2.21701 0
M  V30 2104 H 210.203 2.07444 -4.59329 0
M  V30 2105 H 209.805 0.592911 -3.6927 0
M  V30 2106 H 212.097 2.27345 -6.38217 0
M  V30 2107 H 213.04 0.89128 -7.02468 0
M  V30 2108 H 213.448 1.57198 -5.42171 0
M  V30 2109 N 212.846 1.57033 -0.133567 0
M  V30 2110 C 213.776 2.1909 0.807567 0
M  V30 2111 C 214.757 1.13517 1.26681 0
M  V30 2112 O 215.942 1.41809 1.32679 0
M  V30 2113 C 213.072 2.80188 2.05212 0
M  V30 2114 C 212.026 3.91471 1.73015 0
M  V30 2115 C 211.352 4.39443 3.04622 0
M  V30 2116 C 212.652 5.12886 0.987168 0
M  V30 2117 H 214.346 2.97988 0.290403 0
M  V30 2118 H 211.892 1.43335 0.138239 0
M  V30 2119 H 213.845 3.22264 2.71521 0
M  V30 2120 H 212.569 1.98601 2.59278 0
M  V30 2121 H 211.228 3.49993 1.0909 0
M  V30 2122 H 210.876 3.54695 3.56651 0
M  V30 2123 H 210.576 5.14495 2.83847 0
M  V30 2124 H 212.1 4.8418 3.72024 0
M  V30 2125 H 213.514 5.51891 1.55208 0
M  V30 2126 H 211.911 5.93615 0.87985 0
M  V30 2127 H 212.981 4.84894 -0.0235286 0
M  V30 2128 N 214.325 -0.140222 1.56975 0
M  V30 2129 C 215.272 -1.17292 1.98774 0
M  V30 2130 C 216.242 -1.4232 0.856408 0
M  V30 2131 O 217.427 -1.54541 1.119 0
M  V30 2132 C 214.567 -2.49973 2.37923 0
M  V30 2133 C 213.68 -2.32062 3.64378 0
M  V30 2134 C 212.815 -3.57825 3.926 0
M  V30 2135 C 211.854 -3.3498 5.12303 0
M  V30 2136 N 210.991 -4.52891 5.36502 0
M  V30 2137 H 215.831 -0.809472 2.86795 0
M  V30 2138 H 213.368 -0.388237 1.41884 0
M  V30 2139 H 215.326 -3.27346 2.58652 0
M  V30 2140 H 213.956 -2.84252 1.52972 0
M  V30 2141 H 213.008 -1.45711 3.51387 0
M  V30 2142 H 214.32 -2.11145 4.51906 0
M  V30 2143 H 213.474 -4.43624 4.13863 0
M  V30 2144 H 212.213 -3.81753 3.03506 0
M  V30 2145 H 211.218 -2.4757 4.90906 0
M  V30 2146 H 212.443 -3.12444 6.02956 0
M  V30 2147 H 210.389 -4.76979 4.50363 0
M  V30 2148 H 210.306 -4.35001 6.18312 0
M  V30 2149 H 211.574 -5.39884 5.62268 0
M  V30 2150 N 215.803 -1.52179 -0.40978 0
M  V30 2151 C 216.713 -1.78364 -1.52392 0
M  V30 2152 C 217.729 -0.669183 -1.60617 0
M  V30 2153 O 218.905 -0.954518 -1.77344 0
M  V30 2154 C 215.97 -1.92822 -2.88133 0
M  V30 2155 C 215.031 -3.16725 -2.898 0
M  V30 2156 C 214.264 -3.30483 -4.19067 0
M  V30 2157 O 214.487 -2.49522 -5.12928 0
M  V30 2158 O 213.421 -4.2363 -4.27576 0
M  V30 2159 H 217.247 -2.72931 -1.33201 0
M  V30 2160 H 214.832 -1.37016 -0.59557 0
M  V30 2161 H 216.714 -2.04157 -3.68643 0
M  V30 2162 H 215.389 -1.01444 -3.07393 0
M  V30 2163 H 214.296 -3.10848 -2.08146 0
M  V30 2164 H 215.629 -4.07881 -2.75489 0
M  V30 2165 N 217.281 0.66697 -1.42791 0
M  V30 2166 C 218.529 1.42417 -1.43394 0
M  V30 2167 C 218.85 1.94925 -0.0542373 0
M  V30 2168 O 218.12 1.73564 0.908415 0
M  V30 2169 H 216.7 0.528515 -0.527902 0
M  V30 2170 H 219.362 0.787562 -1.78279 0
M  V30 2171 H 218.458 2.27333 -2.13837 0
M  V30 2172 N 218.759 1.29093 0.90403 0
M  V30 2173 C 220.005 1.16986 1.65656 0
M  V30 2174 C 220.338 -0.278925 1.92186 0
M  V30 2175 O 219.613 -1.2019 1.5292 0
M  V30 2176 C 219.896 1.97908 3.0084 0
M  V30 2177 C 219.749 3.50903 2.81403 0
M  V30 2178 C 221.068 1.80208 4.01513 0
M  V30 2179 H 218.187 0.426346 0.601164 0
M  V30 2180 H 220.829 1.58518 1.04747 0
M  V30 2181 H 218.979 1.62616 3.52829 0
M  V30 2182 H 220.651 3.96153 2.36348 0
M  V30 2183 H 218.894 3.76045 2.1627 0
M  V30 2184 H 219.565 4.02791 3.77443 0
M  V30 2185 H 222.041 2.11025 3.58619 0
M  V30 2186 H 220.917 2.39184 4.94047 0
M  V30 2187 H 221.178 0.756119 4.35586 0
M  V30 2188 N 220.237 -1.11381 1.11499 0
M  V30 2189 C 221.653 -1.35143 0.849031 0
M  V30 2190 C 221.853 -1.94515 -0.525938 0
M  V30 2191 O 220.909 -2.1785 -1.27662 0
M  V30 2192 C 222.222 -2.28249 1.95762 0
M  V30 2193 C 223.77 -2.41812 1.98736 0
M  V30 2194 C 224.245 -3.3824 3.088 0
M  V30 2195 N 225.736 -3.45803 3.08179 0
M  V30 2196 C 226.471 -4.20358 3.89982 0
M  V30 2197 N 225.967 -4.97884 4.8175 0
M  V30 2198 N 227.76 -4.15877 3.78157 0
M  V30 2199 H 219.911 -0.712062 2.00109 0
M  V30 2200 H 222.174 -0.376025 0.870235 0
M  V30 2201 H 221.88 -1.91817 2.94787 0
M  V30 2202 H 221.754 -3.28473 1.85433 0
M  V30 2203 H 224.141 -2.77518 1.00338 0
M  V30 2204 H 224.222 -1.41437 2.13141 0
M  V30 2205 H 223.866 -3.03261 4.07425 0
M  V30 2206 H 223.796 -4.38471 2.91635 0
M  V30 2207 H 226.287 -2.90506 2.41691 0
M  V30 2208 H 226.6 -5.52142 5.40702 0
M  V30 2209 H 224.945 -4.97043 4.85771 0
M  V30 2210 H 228.136 -3.544 3.05808 0
M  V30 2211 H 228.309 -4.73723 4.42143 0
M  V30 2212 N 221.715 -0.905404 -1.28997 0
M  V30 2213 C 222.645 -0.404212 -2.29975 0
M  V30 2214 C 223.626 0.523784 -1.61835 0
M  V30 2215 O 224.811 0.433298 -1.89304 0
M  V30 2216 C 221.941 0.364042 -3.45387 0
M  V30 2217 C 220.895 -0.474048 -4.25367 0
M  V30 2218 C 220.221 0.422045 -5.33032 0
M  V30 2219 C 221.521 -1.72696 -4.92923 0
M  V30 2220 H 223.215 -1.24807 -2.72146 0
M  V30 2221 H 220.761 -0.601585 -1.30832 0
M  V30 2222 H 222.714 0.725447 -4.15109 0
M  V30 2223 H 221.438 1.24174 -3.02074 0
M  V30 2224 H 220.097 -0.81786 -3.57361 0
M  V30 2225 H 219.745 1.29804 -4.85963 0
M  V30 2226 H 219.445 -0.135057 -5.87445 0
M  V30 2227 H 220.969 0.779517 -6.05604 0
M  V30 2228 H 222.383 -1.43495 -5.55051 0
M  V30 2229 H 220.78 -2.22582 -5.57295 0
M  V30 2230 H 221.85 -2.45964 -4.17887 0
M  V30 2231 N 223.193 1.4272 -0.668489 0
M  V30 2232 C 224.47 1.95248 -0.117373 0
M  V30 2233 C 224.85 1.60919 1.36632 0
M  V30 2234 O 224.198 0.902095 2.09939 0
M  V30 2235 C 224.408 3.46927 -0.379806 0
M  V30 2236 C 225.756 4.23588 -0.292923 0
M  V30 2237 O 226.78 3.5482 -0.313204 0
M  V30 2238 O 225.639 5.46017 -0.229697 0
M  V30 2239 H 222.733 0.827 0.00079152 0
M  V30 2240 H 225.279 1.52581 -0.742783 0
M  V30 2241 H 224.051 3.65096 -1.40786 0
M  V30 2242 H 223.674 3.96627 0.277923 0
M  V30 2243 N 224.671 0.411399 1.52136 0
M  V30 2244 C 226.087 0.0623865 1.59478 0
M  V30 2245 C 226.287 -1.42554 1.4241 0
M  V30 2246 O 225.343 -2.19263 1.2522 0
M  V30 2247 C 226.656 0.559331 2.95452 0
M  V30 2248 C 228.204 0.517503 3.08692 0
M  V30 2249 C 228.679 0.990994 4.4715 0
M  V30 2250 N 230.17 0.947908 4.53397 0
M  V30 2251 C 230.905 1.28544 5.58806 0
M  V30 2252 N 230.401 1.69454 6.71757 0
M  V30 2253 N 232.194 1.20526 5.49026 0
M  V30 2254 H 224.345 1.37982 1.61477 0
M  V30 2255 H 226.608 0.566977 0.759764 0
M  V30 2256 H 226.314 1.59938 3.1323 0
M  V30 2257 H 226.188 -0.0298014 3.77188 0
M  V30 2258 H 228.575 -0.513505 2.90598 0
M  V30 2259 H 228.656 1.14272 2.28857 0
M  V30 2260 H 228.3 2.02034 4.65988 0
M  V30 2261 H 228.23 0.34257 5.25485 0
M  V30 2262 H 230.721 0.647157 3.72317 0
M  V30 2263 H 231.034 1.93513 7.48179 0
M  V30 2264 H 229.379 1.73359 6.73032 0
M  V30 2265 H 232.57 0.884505 4.59667 0
M  V30 2266 H 232.743 1.47161 6.31069 0
M  V30 2267 N 226.149 -1.5696 0.141893 0
M  V30 2268 C 227.395 -1.9625 -0.511248 0
M  V30 2269 C 227.728 -1.02654 -1.64851 0
M  V30 2270 O 227.003 -0.0679676 -1.94381 0
M  V30 2271 C 227.286 -3.45285 -1.02227 0
M  V30 2272 C 227.139 -4.49658 0.113138 0
M  V30 2273 C 228.458 -3.96698 -1.90574 0
M  V30 2274 H 225.577 -0.713567 -0.184367 0
M  V30 2275 H 228.219 -1.88698 0.222087 0
M  V30 2276 H 226.369 -3.51852 -1.64719 0
M  V30 2277 H 228.041 -4.55174 0.749302 0
M  V30 2278 H 226.284 -4.26857 0.773026 0
M  V30 2279 H 226.955 -5.51258 -0.286053 0
M  V30 2280 H 229.431 -3.92578 -1.37918 0
M  V30 2281 H 228.307 -5.01453 -2.2324 0
M  V30 2282 H 228.568 -3.3875 -2.84079 0
M  V30 2283 N 227.627 0.131896 -1.57047 0
M  V30 2284 C 229.043 0.485031 -1.52051 0
M  V30 2285 C 229.243 1.82563 -0.85281 0
M  V30 2286 O 228.299 2.48817 -0.429694 0
M  V30 2287 C 229.612 0.481409 -2.96821 0
M  V30 2288 C 231.16 0.565868 -3.07842 0
M  V30 2289 C 231.635 0.592762 -4.54148 0
M  V30 2290 N 233.126 0.654564 -4.58552 0
M  V30 2291 C 233.861 0.696608 -5.69153 0
M  V30 2292 N 233.357 0.697078 -6.89284 0
M  V30 2293 N 235.15 0.738639 -5.57226 0
M  V30 2294 H 227.301 -0.746664 -1.98843 0
M  V30 2295 H 229.564 -0.273999 -0.90754 0
M  V30 2296 H 229.27 -0.435731 -3.4899 0
M  V30 2297 H 229.144 1.3139 -3.53577 0
M  V30 2298 H 231.531 1.47343 -2.55684 0
M  V30 2299 H 231.612 -0.29406 -2.54104 0
M  V30 2300 H 231.256 -0.310701 -5.06949 0
M  V30 2301 H 231.186 1.46939 -5.05684 0
M  V30 2302 H 233.677 0.660887 -3.72076 0
M  V30 2303 H 233.99 0.731426 -7.69331 0
M  V30 2304 H 232.335 0.66471 -6.91814 0
M  V30 2305 H 235.526 0.735545 -4.62285 0
M  V30 2306 H 235.699 0.767938 -6.43434 0
M  V30 2307 N 229.106 1.52395 0.401703 0
M  V30 2308 C 230.354 1.66488 1.14569 0
M  V30 2309 C 230.675 0.400897 1.90835 0
M  V30 2310 O 229.945 -0.584415 1.8698 0
M  V30 2311 H 228.525 0.613672 0.425929 0
M  V30 2312 H 231.187 1.89464 0.457093 0
M  V30 2313 H 230.283 2.50942 1.85566 0
M  V30 2314 N 230.584 -0.659388 1.43143 0
M  V30 2315 C 231.832 -1.41654 1.44147 0
M  V30 2316 C 232.153 -1.94893 0.0645739 0
M  V30 2317 O 231.423 -1.74044 -0.899198 0
M  V30 2318 H 230.003 -0.525708 0.530697 0
M  V30 2319 H 232.665 -0.778097 1.78694 0
M  V30 2320 H 231.761 -2.26195 2.1504 0
M  V30 2321 N 232.062 -1.29571 -0.897171 0
M  V30 2322 C 233.478 -1.07637 -1.17841 0
M  V30 2323 C 233.678 0.170713 -2.00776 0
M  V30 2324 O 232.734 0.867768 -2.3712 0
M  V30 2325 C 234.047 -2.3332 -1.8969 0
M  V30 2326 C 235.595 -2.38664 -2.02505 0
M  V30 2327 C 236.07 -3.64157 -2.77765 0
M  V30 2328 N 237.561 -3.64894 -2.85318 0
M  V30 2329 C 238.296 -4.58679 -3.44094 0
M  V30 2330 N 237.792 -5.62799 -4.04017 0
M  V30 2331 N 239.585 -4.46245 -3.41793 0
M  V30 2332 H 231.736 -2.09598 -0.343883 0
M  V30 2333 H 233.999 -0.923333 -0.214848 0
M  V30 2334 H 233.705 -3.24262 -1.36187 0
M  V30 2335 H 233.579 -2.41025 -2.9015 0
M  V30 2336 H 235.966 -1.48208 -2.55183 0
M  V30 2337 H 236.047 -2.34943 -1.01171 0
M  V30 2338 H 235.691 -4.54965 -2.25763 0
M  V30 2339 H 235.621 -3.65137 -3.7945 0
M  V30 2340 H 238.112 -2.89613 -2.42761 0
M  V30 2341 H 238.425 -6.3048 -4.46895 0
M  V30 2342 H 236.77 -5.66605 -4.02472 0
M  V30 2343 H 239.961 -3.64094 -2.94199 0
M  V30 2344 H 240.134 -5.19518 -3.87304 0
M  V30 2345 N 233.54 1.10788 -1.12088 0
M  V30 2346 C 234.472 2.16816 -0.743213 0
M  V30 2347 C 235.485 1.6119 0.228412 0
M  V30 2348 O 236.674 1.78497 0.0102931 0
M  V30 2349 C 233.774 3.38809 -0.0787313 0
M  V30 2350 C 232.947 4.23885 -1.0789 0
M  V30 2351 C 232.006 5.24334 -0.442713 0
M  V30 2352 O 231.032 5.58497 -1.09864 0
M  V30 2353 N 232.234 5.75079 0.791457 0
M  V30 2354 H 234.999 2.49825 -1.65552 0
M  V30 2355 H 232.56 1.26373 -1.012 0
M  V30 2356 H 234.552 4.03107 0.358766 0
M  V30 2357 H 233.122 3.03805 0.736275 0
M  V30 2358 H 232.342 3.55939 -1.69414 0
M  V30 2359 H 233.63 4.77562 -1.75533 0
M  V30 2360 H 233.028 5.49517 1.3434 0
M  V30 2361 H 231.585 6.4118 1.17183 0
M  V30 2362 N 235.018 0.912232 1.28515 0
M  V30 2363 C 235.965 0.397954 2.27343 0
M  V30 2364 C 236.935 -0.526766 1.57526 0
M  V30 2365 O 238.12 -0.449292 1.85435 0
M  V30 2366 C 235.26 -0.357263 3.43246 0
M  V30 2367 C 234.373 0.599788 4.27816 0
M  V30 2368 C 233.508 -0.173725 5.30916 0
M  V30 2369 C 232.547 0.777039 6.07148 0
M  V30 2370 N 231.684 0.0371398 7.0209 0
M  V30 2371 H 236.524 1.24577 2.70711 0
M  V30 2372 H 234.061 0.625612 1.33133 0
M  V30 2373 H 236.019 -0.8113 4.09236 0
M  V30 2374 H 234.649 -1.16943 3.00872 0
M  V30 2375 H 233.701 1.17235 3.61884 0
M  V30 2376 H 235.013 1.32704 4.80823 0
M  V30 2377 H 234.167 -0.688394 6.02782 0
M  V30 2378 H 232.906 -0.934041 4.78672 0
M  V30 2379 H 231.911 1.3031 5.34134 0
M  V30 2380 H 233.136 1.53689 6.61481 0
M  V30 2381 H 231.082 -0.705213 6.52198 0
M  V30 2382 H 230.999 0.704249 7.52713 0
M  V30 2383 H 232.267 -0.457383 7.78157 0
M  V30 2384 N 236.496 -1.42363 0.676048 0
M  V30 2385 C 237.726 -2.05561 0.206967 0
M  V30 2386 C 238.134 -1.50887 -1.14148 0
M  V30 2387 O 237.477 -0.643933 -1.72044 0
M  V30 2388 C 237.539 -3.5944 0.0659508 0
M  V30 2389 C 237.203 -4.36812 1.34331 0
M  V30 2390 C 238.2 -4.67383 2.27704 0
M  V30 2391 C 235.885 -4.76429 1.59125 0
M  V30 2392 C 237.879 -5.36509 3.44147 0
M  V30 2393 C 235.566 -5.45294 2.75857 0
M  V30 2394 C 236.564 -5.75259 3.68193 0
M  V30 2395 O 236.252 -6.42712 4.82883 0
M  V30 2396 H 235.984 -0.668872 0.0979084 0
M  V30 2397 H 238.538 -1.83467 0.923531 0
M  V30 2398 H 236.768 -3.80197 -0.706204 0
M  V30 2399 H 238.457 -4.0427 -0.363418 0
M  V30 2400 H 239.223 -4.37275 2.09799 0
M  V30 2401 H 235.102 -4.52498 0.881258 0
M  V30 2402 H 238.646 -5.59814 4.16238 0
M  V30 2403 H 234.543 -5.7482 2.93688 0
M  V30 2404 H 235.311 -6.61204 4.82444 0
M  V30 2405 N 237.974 -0.419461 -1.51915 0
M  V30 2406 C 238.921 0.400927 -2.27291 0
M  V30 2407 C 239.891 1.03224 -1.30131 0
M  V30 2408 O 241.076 1.05455 -1.59009 0
M  V30 2409 C 238.216 1.50603 -3.10504 0
M  V30 2410 C 237.329 0.89462 -4.22635 0
M  V30 2411 C 236.464 1.97328 -4.93189 0
M  V30 2412 C 235.503 1.33935 -5.97267 0
M  V30 2413 N 234.64 2.3586 -6.61298 0
M  V30 2414 H 239.48 -0.248251 -2.96964 0
M  V30 2415 H 237.017 -0.134266 -1.46486 0
M  V30 2416 H 238.975 2.15783 -3.57062 0
M  V30 2417 H 237.605 2.12509 -2.42981 0
M  V30 2418 H 236.657 0.131583 -3.80172 0
M  V30 2419 H 237.969 0.391641 -4.9726 0
M  V30 2420 H 237.123 2.70211 -5.43204 0
M  V30 2421 H 235.862 2.50994 -4.18155 0
M  V30 2422 H 234.867 0.595896 -5.46561 0
M  V30 2423 H 236.092 0.810252 -6.74249 0
M  V30 2424 H 234.038 2.88639 -5.89087 0
M  V30 2425 H 233.955 1.90403 -7.3163 0
M  V30 2426 H 235.223 3.08282 -7.15949 0
M  V30 2427 N 239.452 1.56882 -0.150215 0
M  V30 2428 C 240.868 1.58263 0.20617 0
M  V30 2429 C 241.068 1.16464 1.64434 0
M  V30 2430 O 240.124 0.866422 2.3717 0
M  V30 2431 C 241.437 3.00649 -0.0555025 0
M  V30 2432 C 242.985 3.12999 0.00795388 0
M  V30 2433 C 243.46 4.5744 -0.226429 0
M  V30 2434 N 244.951 4.62875 -0.173469 0
M  V30 2435 C 245.686 5.72454 -0.329288 0
M  V30 2436 N 245.182 6.90669 -0.543005 0
M  V30 2437 N 246.975 5.61467 -0.266666 0
M  V30 2438 H 239.126 1.82345 -1.08922 0
M  V30 2439 H 241.389 0.844149 -0.431413 0
M  V30 2440 H 241.095 3.3563 -1.05096 0
M  V30 2441 H 240.969 3.71337 0.66246 0
M  V30 2442 H 243.356 2.77857 0.993966 0
M  V30 2443 H 243.437 2.4479 -0.742388 0
M  V30 2444 H 243.081 4.93287 -1.20956 0
M  V30 2445 H 243.011 5.2378 0.544274 0
M  V30 2446 H 245.502 3.77898 -0.0130709 0
M  V30 2447 H 245.815 7.70045 -0.651922 0
M  V30 2448 H 244.16 6.92581 -0.579366 0
M  V30 2449 H 247.351 4.67992 -0.100441 0
M  V30 2450 H 247.524 6.46816 -0.391535 0
M  V30 2451 N 240.93 -0.123565 1.57115 0
M  V30 2452 C 242.346 -0.476961 1.52306 0
M  V30 2453 C 242.546 -1.82109 0.86248 0
M  V30 2454 O 241.602 -2.48586 0.442884 0
M  V30 2455 C 242.915 -0.465661 2.97073 0
M  V30 2456 C 244.463 -0.549534 3.08138 0
M  V30 2457 C 244.938 -0.568669 4.54456 0
M  V30 2458 N 246.429 -0.630237 4.58892 0
M  V30 2459 C 247.164 -0.666415 5.69514 0
M  V30 2460 N 246.66 -0.660514 6.89644 0
M  V30 2461 N 248.453 -0.709077 5.5761 0
M  V30 2462 H 240.604 0.757198 1.98445 0
M  V30 2463 H 242.867 0.278808 0.906074 0
M  V30 2464 H 242.573 0.454232 3.48754 0
M  V30 2465 H 242.447 -1.29513 3.54269 0
M  V30 2466 H 244.834 -1.45985 2.56461 0
M  V30 2467 H 244.915 0.307532 2.53945 0
M  V30 2468 H 244.559 0.337581 5.06777 0
M  V30 2469 H 244.489 -1.44256 5.06456 0
M  V30 2470 H 246.98 -0.641146 3.72421 0
M  V30 2471 H 247.293 -0.690616 7.69708 0
M  V30 2472 H 245.638 -0.628012 6.92157 0
M  V30 2473 H 248.829 -0.711019 4.62668 0
M  V30 2474 H 249.002 -0.733804 6.43832 0
M  V30 2475 N 242.408 -1.52605 -0.393616 0
M  V30 2476 C 243.819 -1.59417 -0.971761 0
M  V30 2477 C 244.17 -0.444173 -1.91106 0
M  V30 2478 O 243.295 0.433382 -2.12016 0
M  V30 2479 C 243.89 -2.88936 -1.76921 0
M  V30 2480 C 242.449 -2.98175 -2.29714 0
M  V30 2481 C 241.596 -2.54491 -1.10135 0
M  V30 2482 H 244.547 -1.57751 -0.173317 0
M  V30 2483 H 244.568 -2.75163 -2.62804 0
M  V30 2484 H 244.08 -3.72616 -1.08532 0
M  V30 2485 H 242.181 -2.19024 -3.01429 0
M  V30 2486 H 242.294 -4.02726 -2.59517 0
M  V30 2487 H 240.658 -2.08702 -1.45999 0
M  V30 2488 H 241.441 -3.4056 -0.432874 0
M  V30 2489 N 243.887 0.651787 -1.4349 0
M  V30 2490 C 244.797 1.79368 -1.5121 0
M  V30 2491 C 245.813 1.69361 -0.399093 0
M  V30 2492 O 246.989 1.90505 -0.653431 0
M  V30 2493 C 244.054 3.15653 -1.43401 0
M  V30 2494 C 243.115 3.37446 -2.65384 0
M  V30 2495 C 242.348 4.67229 -2.57939 0
M  V30 2496 O 242.571 5.46676 -1.62792 0
M  V30 2497 O 241.505 4.90773 -3.48462 0
M  V30 2498 H 245.331 1.7581 -2.47638 0
M  V30 2499 H 242.916 0.810447 -1.25507 0
M  V30 2500 H 244.798 3.96935 -1.41494 0
M  V30 2501 H 243.473 3.19798 -0.501085 0
M  V30 2502 H 242.38 2.55923 -2.72863 0
M  V30 2503 H 243.713 3.38148 -3.57654 0
M  V30 2504 N 245.365 1.30045 0.890287 0
M  V30 2505 C 246.611 1.18737 1.64406 0
M  V30 2506 C 246.944 -0.258525 1.92472 0
M  V30 2507 O 246.219 -1.18562 1.54186 0
M  V30 2508 C 246.502 2.01087 2.98724 0
M  V30 2509 C 246.355 3.53867 2.77665 0
M  V30 2510 C 247.674 1.84457 3.9958 0
M  V30 2511 H 244.793 0.432698 0.596608 0
M  V30 2512 H 247.435 1.5962 1.0306 0
M  V30 2513 H 245.585 1.66349 3.51084 0
M  V30 2514 H 247.257 3.98637 2.32133 0
M  V30 2515 H 245.5 3.78318 2.12269 0
M  V30 2516 H 246.171 4.06772 3.7315 0
M  V30 2517 H 248.647 2.14817 3.56361 0
M  V30 2518 H 247.523 2.44411 4.91482 0
M  V30 2519 H 247.784 0.802276 4.3476 0
M  V30 2520 N 246.843 -1.10192 1.12674 0
M  V30 2521 C 248.12 -1.78717 0.794965 0
M  V30 2522 C 248.5 -1.98628 -0.714853 0
M  V30 2523 O 247.848 -1.58135 -1.64941 0
M  V30 2524 C 248.058 -3.11546 1.5729 0
M  V30 2525 C 249.406 -3.86382 1.76052 0
M  V30 2526 O 250.43 -3.21274 1.53823 0
M  V30 2527 O 249.289 -5.03246 2.13087 0
M  V30 2528 H 246.383 -0.774702 0.289423 0
M  V30 2529 H 248.929 -1.16819 1.23091 0
M  V30 2530 H 247.701 -2.92489 2.59935 0
M  V30 2531 H 247.324 -3.81164 1.13137 0
M  V30 2532 N 248.321 -0.919034 -1.28029 0
M  V30 2533 C 249.732 -0.600735 -1.76771 0
M  V30 2534 C 250.083 0.884024 -1.75156 0
M  V30 2535 O 249.208 1.69163 -1.34956 0
M  V30 2536 C 249.803 -1.08372 -3.21 0
M  V30 2537 C 248.362 -0.816248 -3.67443 0
M  V30 2538 C 247.509 -1.24742 -2.47658 0
M  V30 2539 H 250.46 -1.09974 -1.14418 0
M  V30 2540 H 250.481 -0.427512 -3.78091 0
M  V30 2541 H 249.993 -2.16437 -3.22144 0
M  V30 2542 H 248.094 0.250968 -3.71754 0
M  V30 2543 H 248.207 -1.4277 -4.57333 0
M  V30 2544 H 246.571 -0.666083 -2.45836 0
M  V30 2545 H 247.354 -2.33653 -2.51518 0
M  V30 2546 N 249.799 1.42003 -0.683588 0
M  V30 2547 C 250.729 2.33487 -0.024866 0
M  V30 2548 C 251.71 1.51163 0.779975 0
M  V30 2549 O 252.895 1.79739 0.735362 0
M  V30 2550 C 250.025 3.3487 0.920836 0
M  V30 2551 C 248.979 4.27414 0.223958 0
M  V30 2552 C 248.305 5.19074 1.2832 0
M  V30 2553 C 249.605 5.14445 -0.90242 0
M  V30 2554 H 251.299 2.88819 -0.788921 0
M  V30 2555 H 248.845 1.38873 -0.38083 0
M  V30 2556 H 250.798 3.97787 1.39081 0
M  V30 2557 H 249.522 2.77861 1.71642 0
M  V30 2558 H 248.181 3.65904 -0.225864 0
M  V30 2559 H 247.829 4.58387 2.071 0
M  V30 2560 H 247.529 5.81822 0.821995 0
M  V30 2561 H 249.053 5.84867 1.75392 0
M  V30 2562 H 250.467 5.70998 -0.513272 0
M  V30 2563 H 248.864 5.86072 -1.28997 0
M  V30 2564 H 249.934 4.52322 -1.74737 0
M  V30 2565 N 251.277 0.427512 1.51691 0
M  V30 2566 C 252.688 -0.0378867 1.86662 0
M  V30 2567 C 253.039 -1.42819 1.34525 0
M  V30 2568 O 252.164 -2.05037 0.692014 0
M  V30 2569 C 252.759 -0.0755266 3.38716 0
M  V30 2570 C 251.318 -0.485309 3.73258 0
M  V30 2571 C 250.465 0.328399 2.75349 0
M  V30 2572 H 253.416 0.64379 1.45055 0
M  V30 2573 H 253.437 -0.887056 3.70016 0
M  V30 2574 H 252.949 0.936487 3.76632 0
M  V30 2575 H 251.05 -1.50329 3.40928 0
M  V30 2576 H 251.163 -0.21693 4.78609 0
M  V30 2577 H 249.527 -0.211905 2.53817 0
M  V30 2578 H 250.31 1.3391 3.16106 0
M  V30 2579 N 252.755 -1.56801 0.158532 0
M  V30 2580 C 254.002 -1.9649 -0.489679 0
M  V30 2581 C 254.33 -1.04394 -1.6411 0
M  V30 2582 O 253.585 -0.0754401 -1.95555 0
M  V30 2583 C 253.884 -3.4235 -1.02623 0
M  V30 2584 C 253.55 -4.50899 0.00794526 0
M  V30 2585 C 252.212 -4.80312 0.292207 0
M  V30 2586 C 254.564 -5.16333 0.710584 0
M  V30 2587 C 251.892 -5.72461 1.28472 0
M  V30 2588 C 254.244 -6.09553 1.69199 0
M  V30 2589 C 252.908 -6.37339 1.98383 0
M  V30 2590 H 252.178 -0.719009 -0.179186 0
M  V30 2591 H 254.825 -1.8989 0.247798 0
M  V30 2592 H 253.13 -3.45838 -1.84128 0
M  V30 2593 H 254.827 -3.70393 -1.53656 0
M  V30 2594 H 251.417 -4.28015 -0.22379 0
M  V30 2595 H 255.601 -4.93732 0.504174 0
M  V30 2596 H 250.857 -5.92278 1.51714 0
M  V30 2597 H 255.031 -6.59327 2.24189 0
M  V30 2598 H 252.658 -7.08546 2.7544 0
M  V30 2599 N 254.233 0.115231 -1.57178 0
M  V30 2600 C 255.644 0.67197 -1.74188 0
M  V30 2601 C 255.995 1.80125 -0.777777 0
M  V30 2602 O 255.12 2.16346 0.0484376 0
M  V30 2603 C 255.715 1.22573 -3.1585 0
M  V30 2604 C 254.274 1.72872 -3.34353 0
M  V30 2605 C 253.421 0.629972 -2.70049 0
M  V30 2606 H 256.372 -0.110712 -1.58313 0
M  V30 2607 H 256.393 2.09535 -3.17609 0
M  V30 2608 H 255.905 0.403598 -3.85996 0
M  V30 2609 H 254.006 2.5755 -2.69256 0
M  V30 2610 H 254.119 1.83557 -4.42542 0
M  V30 2611 H 252.483 1.0645 -2.31388 0
M  V30 2612 H 253.266 -0.181241 -3.42821 0
M  V30 2613 N 255.711 1.52812 0.385517 0
M  V30 2614 C 256.959 1.67694 1.12797 0
M  V30 2615 C 257.28 0.421115 1.90399 0
M  V30 2616 O 256.55 -0.564551 1.87589 0
M  V30 2617 H 255.13 0.618155 0.419396 0
M  V30 2618 H 257.792 1.89938 0.436972 0
M  V30 2619 H 256.888 2.52896 1.82894 0
M  V30 2620 N 257.189 -0.644168 1.43834 0
M  V30 2621 C 258.6 -1.22554 1.40845 0
M  V30 2622 C 258.951 -1.9585 0.117115 0
M  V30 2623 O 258.076 -2.01734 -0.783086 0
M  V30 2624 C 258.671 -2.22907 2.55143 0
M  V30 2625 C 257.23 -2.76501 2.5539 0
M  V30 2626 C 256.377 -1.51287 2.32396 0
M  V30 2627 H 259.328 -0.43563 1.52604 0
M  V30 2628 H 259.349 -3.05259 2.2715 0
M  V30 2629 H 258.861 -1.69533 3.49114 0
M  V30 2630 H 256.962 -3.33914 1.65324 0
M  V30 2631 H 257.075 -3.23429 3.53455 0
M  V30 2632 H 255.439 -1.78957 1.81236 0
M  V30 2633 H 256.222 -0.998336 3.28463 0
M  V30 2634 N 258.668 -1.30515 -0.883378 0
M  V30 2635 C 259.915 -1.1943 -1.63532 0
M  V30 2636 C 260.243 0.250627 -1.92878 0
M  V30 2637 O 259.498 1.19556 -1.54935 0
M  V30 2638 C 259.797 -1.96994 -2.98209 0
M  V30 2639 C 259.463 -3.466 -2.88408 0
M  V30 2640 C 258.125 -3.87397 -2.85442 0
M  V30 2641 C 260.477 -4.41863 -2.76418 0
M  V30 2642 C 257.805 -5.21745 -2.68327 0
M  V30 2643 C 260.157 -5.7632 -2.60841 0
M  V30 2644 C 258.821 -6.16354 -2.56251 0
M  V30 2645 H 258.091 -0.437025 -0.598406 0
M  V30 2646 H 260.738 -1.61635 -1.02696 0
M  V30 2647 H 259.043 -1.47429 -3.63004 0
M  V30 2648 H 260.74 -1.85808 -3.55354 0
M  V30 2649 H 257.33 -3.14182 -2.91527 0
M  V30 2650 H 261.514 -4.11285 -2.77775 0
M  V30 2651 H 256.77 -5.51853 -2.63189 0
M  V30 2652 H 260.944 -6.49772 -2.50538 0
M  V30 2653 H 258.571 -7.20401 -2.42748 0
M  V30 2654 N 260.146 1.09593 -1.13257 0
M  V30 2655 C 261.557 1.63229 -0.906274 0
M  V30 2656 C 261.908 1.8811 0.557578 0
M  V30 2657 O 261.033 1.62953 1.42391 0
M  V30 2658 C 261.628 2.96535 -1.63867 0
M  V30 2659 C 260.187 3.47003 -1.45828 0
M  V30 2660 C 259.334 2.2145 -1.66898 0
M  V30 2661 H 262.285 0.92978 -1.28611 0
M  V30 2662 H 262.306 3.64411 -1.09476 0
M  V30 2663 H 261.818 2.78394 -2.70404 0
M  V30 2664 H 259.919 3.70272 -0.415848 0
M  V30 2665 H 260.032 4.24551 -2.2202 0
M  V30 2666 H 258.396 2.30022 -1.09371 0
M  V30 2667 H 259.179 2.0583 -2.74752 0
M  V30 2668 N 261.624 0.925811 1.2754 0
M  V30 2669 C 262.587 0.428129 2.25166 0
M  V30 2670 C 263.587 -0.452261 1.54309 0
M  V30 2671 O 264.777 -0.253608 1.72344 0
M  V30 2672 C 261.909 -0.384749 3.38722 0
M  V30 2673 H 263.102 1.29066 2.70706 0
M  V30 2674 H 260.655 0.706323 1.3943 0
M  V30 2675 H 261.39 -1.26618 2.98561 0
M  V30 2676 H 261.175 0.246454 3.91325 0
M  V30 2677 H 262.665 -0.723389 4.11287 0
M  V30 2678 N 263.102 -1.41638 0.69111 0
M  V30 2679 C 264.35 -2.00902 0.219758 0
M  V30 2680 C 264.671 -1.54994 -1.18329 0
M  V30 2681 O 263.941 -0.778628 -1.79762 0
M  V30 2682 H 262.521 -0.74289 0.0782558 0
M  V30 2683 H 265.183 -1.73327 0.891271 0
M  V30 2684 H 264.279 -3.11224 0.233708 0
M  V30 2685 N 264.58 -0.43555 -1.51462 0
M  V30 2686 C 265.991 0.0279871 -1.86679 0
M  V30 2687 C 266.342 1.42104 -1.35281 0
M  V30 2688 O 265.467 2.04667 -0.702878 0
M  V30 2689 C 266.062 0.0575626 -3.38751 0
M  V30 2690 C 264.621 0.465507 -3.7351 0
M  V30 2691 C 263.768 -0.342996 -2.75171 0
M  V30 2692 H 266.719 -0.651473 -1.44712 0
M  V30 2693 H 266.74 0.867421 -3.70481 0
M  V30 2694 H 266.252 -0.956448 -3.7613 0
M  V30 2695 H 264.353 1.48519 -3.41721 0
M  V30 2696 H 264.466 0.191546 -4.78717 0
M  V30 2697 H 262.83 0.198442 -2.53926 0
M  V30 2698 H 263.613 -1.35585 -3.15391 0
M  V30 2699 N 266.058 1.56714 -0.166846 0
M  V30 2700 C 266.988 2.20754 0.760913 0
M  V30 2701 C 267.969 1.16178 1.24244 0
M  V30 2702 O 269.154 1.44592 1.29641 0
M  V30 2703 C 266.284 2.84478 1.99223 0
M  V30 2704 C 265.238 3.95053 1.64672 0
M  V30 2705 C 264.564 4.45805 2.95232 0
M  V30 2706 C 265.864 5.14865 0.878155 0
M  V30 2707 H 267.558 2.98537 0.22713 0
M  V30 2708 H 265.104 1.43596 0.107805 0
M  V30 2709 H 267.057 3.27951 2.64624 0
M  V30 2710 H 265.781 2.04056 2.55007 0
M  V30 2711 H 264.44 3.52228 1.01641 0
M  V30 2712 H 264.088 3.62181 3.49047 0
M  V30 2713 H 263.788 5.204 2.7287 0
M  V30 2714 H 265.312 4.91962 3.6167 0
M  V30 2715 H 266.726 5.55059 1.43466 0
M  V30 2716 H 265.123 5.95348 0.753738 0
M  V30 2717 H 266.193 4.84735 -0.126377 0
M  V30 2718 N 267.536 -0.106894 1.57237 0
M  V30 2719 C 268.499 -1.11466 2.0027 0
M  V30 2720 C 269.499 -1.33623 0.894519 0
M  V30 2721 O 270.689 -1.29935 1.16028 0
M  V30 2722 C 267.821 -2.46646 2.35327 0
M  V30 2723 H 269.014 -0.744516 2.90512 0
M  V30 2724 H 266.567 -0.351576 1.52295 0
M  V30 2725 H 267.302 -2.88558 1.48003 0
M  V30 2726 H 267.087 -2.31915 3.16161 0
M  V30 2727 H 268.577 -3.19151 2.69318 0
M  V30 2728 N 269.014 -1.53014 -0.377408 0
M  V30 2729 C 270.26 -1.68872 -1.12294 0
M  V30 2730 C 270.593 -0.433224 -1.89306 0
M  V30 2731 O 269.868 0.569258 -1.85983 0
M  V30 2732 C 270.151 -2.93115 -2.09179 0
M  V30 2733 C 270.004 -4.28794 -1.35853 0
M  V30 2734 C 271.323 -3.12928 -3.09458 0
M  V30 2735 H 268.442 -0.614518 -0.406862 0
M  V30 2736 H 271.084 -1.85633 -0.40503 0
M  V30 2737 H 269.234 -2.78956 -2.70399 0
M  V30 2738 H 270.906 -4.54742 -0.775082 0
M  V30 2739 H 269.149 -4.28744 -0.660364 0
M  V30 2740 H 269.82 -5.11837 -2.06706 0
M  V30 2741 H 272.296 -3.26194 -2.58334 0
M  V30 2742 H 271.172 -4.01316 -3.74482 0
M  V30 2743 H 271.433 -2.27669 -3.78971 0
M  V30 2744 N 270.492 0.636531 -1.44174 0
M  V30 2745 C 271.455 1.73063 -1.50273 0
M  V30 2746 C 272.455 1.56113 -0.385397 0
M  V30 2747 O 273.645 1.61707 -0.64781 0
M  V30 2748 C 270.777 3.12096 -1.37145 0
M  V30 2749 H 271.97 1.69031 -2.47727 0
M  V30 2750 H 269.523 0.849706 -1.31186 0
M  V30 2751 H 270.258 3.21728 -0.407636 0
M  V30 2752 H 270.043 3.25805 -2.18159 0
M  V30 2753 H 271.533 3.91846 -1.44382 0
M  V30 2754 N 271.97 1.30982 0.876444 0
M  V30 2755 C 273.218 1.20058 1.62575 0
M  V30 2756 C 273.539 -0.242947 1.93481 0
M  V30 2757 O 272.809 -1.1619 1.57724 0
M  V30 2758 H 271.389 0.44135 0.602677 0
M  V30 2759 H 274.051 1.64222 1.04962 0
M  V30 2760 H 273.147 1.76762 2.57219 0
M  V30 2761 N 273.449 -1.08991 1.13837 0
M  V30 2762 C 274.697 -1.80899 0.901098 0
M  V30 2763 C 275.018 -1.86356 -0.574134 0
M  V30 2764 O 274.288 -1.35235 -1.41733 0
M  V30 2765 H 272.868 -0.669966 0.330386 0
M  V30 2766 H 275.53 -1.318 1.43578 0
M  V30 2767 H 274.626 -2.83929 1.29578 0
M  V30 2768 N 274.927 -0.932562 -1.27047 0
M  V30 2769 C 276.338 -0.619451 -1.76124 0
M  V30 2770 C 276.689 0.865397 -1.76083 0
M  V30 2771 O 275.814 1.67722 -1.36742 0
M  V30 2772 C 276.409 -1.11771 -3.19832 0
M  V30 2773 C 274.968 -0.855174 -3.66557 0
M  V30 2774 C 274.115 -1.27362 -2.46321 0
M  V30 2775 H 277.066 -1.11181 -1.13245 0
M  V30 2776 H 277.087 -0.46759 -3.77616 0
M  V30 2777 H 276.599 -2.19842 -3.1983 0
M  V30 2778 H 274.7 0.211524 -3.71999 0
M  V30 2779 H 274.813 -1.47613 -4.55793 0
M  V30 2780 H 273.177 -0.692119 -2.45116 0
M  V30 2781 H 273.96 -2.36307 -2.49025 0
M  V30 2782 N 276.405 1.4127 -0.698611 0
M  V30 2783 C 277.821 1.55241 -0.370462 0
M  V30 2784 C 278.021 1.67351 1.12231 0
M  V30 2785 O 277.077 1.65363 1.90818 0
M  V30 2786 C 278.39 2.78997 -1.12165 0
M  V30 2787 C 279.938 2.92797 -1.1063 0
M  V30 2788 C 280.413 4.19445 -1.8393 0
M  V30 2789 N 281.904 4.26409 -1.80914 0
M  V30 2790 C 282.639 5.23271 -2.34467 0
M  V30 2791 N 282.135 6.26145 -2.96504 0
M  V30 2792 N 283.928 5.15232 -2.24706 0
M  V30 2793 H 276.079 1.31654 -1.66676 0
M  V30 2794 H 278.342 0.635393 -0.703548 0
M  V30 2795 H 278.048 2.76268 -2.17644 0
M  V30 2796 H 277.922 3.70606 -0.702209 0
M  V30 2797 H 280.309 2.95039 -0.0597713 0
M  V30 2798 H 280.39 2.02353 -1.56483 0
M  V30 2799 H 280.034 4.17964 -2.88563 0
M  V30 2800 H 279.964 5.08866 -1.35509 0
M  V30 2801 H 282.455 3.527 -1.35687 0
M  V30 2802 H 282.768 6.96451 -3.34927 0
M  V30 2803 H 281.113 6.26638 -3.00583 0
M  V30 2804 H 284.304 4.33789 -1.7591 0
M  V30 2805 H 284.477 5.90552 -2.66745 0
M  V30 2806 N 277.883 0.443576 1.51229 0
M  V30 2807 C 278.83 -0.364716 2.279 0
M  V30 2808 C 279.8 -1.0114 1.31757 0
M  V30 2809 O 280.985 -1.02912 1.60667 0
M  V30 2810 C 278.125 -1.45644 3.12861 0
M  V30 2811 C 277.238 -0.827269 4.24005 0
M  V30 2812 C 276.373 -1.89456 4.96266 0
M  V30 2813 C 275.412 -1.24416 5.99322 0
M  V30 2814 N 274.549 -2.25309 6.64966 0
M  V30 2815 H 279.389 0.295464 2.96532 0
M  V30 2816 H 276.926 0.157554 1.46254 0
M  V30 2817 H 278.884 -2.10076 3.6045 0
M  V30 2818 H 277.514 -2.08616 2.46331 0
M  V30 2819 H 276.566 -0.0710839 3.80334 0
M  V30 2820 H 277.878 -0.312481 4.9782 0
M  V30 2821 H 277.032 -2.61535 5.47434 0
M  V30 2822 H 275.771 -2.4431 4.22095 0
M  V30 2823 H 274.776 -0.508868 5.4744 0
M  V30 2824 H 276.001 -0.702882 6.75453 0
M  V30 2825 H 273.947 -2.79231 5.93604 0
M  V30 2826 H 273.864 -1.78739 7.34567 0
M  V30 2827 H 275.132 -2.96853 7.20763 0
M  V30 2828 N 279.361 -1.56624 0.175154 0
M  V30 2829 C 280.589 -2.01374 -0.474971 0
M  V30 2830 C 281.004 -1.05537 -1.56548 0
M  V30 2831 O 280.361 -0.0568668 -1.82411 0
M  V30 2832 C 280.412 -3.45923 -1.04975 0
M  V30 2833 O 280.133 -4.381 -0.00276605 0
M  V30 2834 C 281.634 -4.06093 -1.77773 0
M  V30 2835 H 278.854 -0.659962 -0.121206 0
M  V30 2836 H 281.398 -2.02601 0.27801 0
M  V30 2837 H 279.553 -3.45458 -1.75321 0
M  V30 2838 H 279.967 -5.22753 -0.427681 0
M  V30 2839 H 281.441 -5.09147 -2.13245 0
M  V30 2840 H 281.918 -3.48405 -2.67414 0
M  V30 2841 H 282.524 -4.10272 -1.12059 0
M  V30 2842 N 280.839 0.0985539 -1.57292 0
M  V30 2843 C 281.802 1.10402 -2.00858 0
M  V30 2844 C 282.802 1.33146 -0.901593 0
M  V30 2845 O 283.992 1.29318 -1.16716 0
M  V30 2846 C 281.124 2.45394 -2.36632 0
M  V30 2847 H 282.317 0.729099 -2.90902 0
M  V30 2848 H 279.87 0.343495 -1.52479 0
M  V30 2849 H 280.605 2.87769 -1.49531 0
M  V30 2850 H 280.39 2.30235 -3.17387 0
M  V30 2851 H 281.88 3.17718 -2.71007 0
M  V30 2852 N 282.317 1.53212 0.369288 0
M  V30 2853 C 283.28 1.7872 1.43498 0
M  V30 2854 C 284.28 0.657554 1.46741 0
M  V30 2855 O 285.47 0.925736 1.47566 0
M  V30 2856 C 282.602 1.90591 2.82645 0
M  V30 2857 H 283.795 2.73894 1.22156 0
M  V30 2858 H 281.348 1.44233 0.602203 0
M  V30 2859 H 282.083 0.974709 3.09306 0
M  V30 2860 H 281.868 2.72751 2.8169 0
M  V30 2861 H 283.358 2.11931 3.59826 0
M  V30 2862 N 283.795 -0.628877 1.44509 0
M  V30 2863 C 285.206 -1.21054 1.42137 0
M  V30 2864 C 285.557 -1.95715 0.137881 0
M  V30 2865 O 284.682 -2.02554 -0.761645 0
M  V30 2866 C 285.277 -2.20189 2.57493 0
M  V30 2867 C 283.836 -2.73777 2.58308 0
M  V30 2868 C 282.983 -1.48813 2.33987 0
M  V30 2869 H 285.934 -0.41942 1.53057 0
M  V30 2870 H 285.955 -3.02833 2.30375 0
M  V30 2871 H 285.467 -1.6582 3.50892 0
M  V30 2872 H 283.568 -3.32142 1.68856 0
M  V30 2873 H 283.681 -3.19662 3.56865 0
M  V30 2874 H 282.045 -1.77024 1.83124 0
M  V30 2875 H 282.828 -0.963442 3.29504 0
M  V30 2876 N 285.273 -1.31445 -0.869486 0
M  V30 2877 C 286.519 -1.21337 -1.62496 0
M  V30 2878 C 286.852 0.227872 -1.92858 0
M  V30 2879 O 286.127 1.16094 -1.56053 0
M  V30 2880 C 286.41 -2.05814 -2.95487 0
M  V30 2881 C 286.263 -3.5824 -2.72 0
M  V30 2882 C 287.582 -1.9079 -3.96594 0
M  V30 2883 H 284.701 -0.442135 -0.589649 0
M  V30 2884 H 287.343 -1.6124 -1.00507 0
M  V30 2885 H 285.493 -1.71913 -3.48394 0
M  V30 2886 H 287.165 -4.0228 -2.25762 0
M  V30 2887 H 285.408 -3.81647 -2.06224 0
M  V30 2888 H 286.079 -4.12657 -3.66631 0
M  V30 2889 H 288.555 -2.20459 -3.52898 0
M  V30 2890 H 287.431 -2.52199 -4.87531 0
M  V30 2891 H 287.692 -0.871341 -4.33428 0
M  V30 2892 N 286.751 1.08385 -1.14413 0
M  V30 2893 C 287.699 2.17406 -0.826888 0
M  V30 2894 C 288.693 1.6827 0.195312 0
M  V30 2895 O 289.899 1.79927 0.0513892 0
M  V30 2896 H 286.274 0.70934 -0.249681 0
M  V30 2897 H 288.245 2.41388 -1.75426 0
M  V30 2898 C 286.994 3.46215 -0.320979 0
M  V30 2899 H 286.317 3.84401 -1.0989 0
M  V30 2900 H 287.757 4.23777 -0.137549 0
M  V30 2901 C 286.216 3.23067 0.955472 0
M  V30 2902 O 286.746 3.4668 2.02918 0
M  V30 2903 N 284.952 2.7661 0.890798 0
M  V30 2904 H 284.499 2.57594 0.0168815 0
M  V30 2905 H 284.457 2.61501 1.74542 0
M  V30 2906 N 288.23 0.939286 1.26551 0
M  V30 2907 C 289.193 0.451987 2.24699 0
M  V30 2908 C 290.193 -0.435869 1.5478 0
M  V30 2909 O 291.383 -0.235314 1.72603 0
M  V30 2910 C 288.515 -0.348801 3.39111 0
M  V30 2911 H 289.708 1.3193 2.69322 0
M  V30 2912 H 287.261 0.721072 1.38673 0
M  V30 2913 H 287.996 -1.23444 2.99887 0
M  V30 2914 H 287.781 0.287945 3.91041 0
M  V30 2915 H 289.271 -0.679726 4.12031 0
M  V30 2916 N 289.708 -1.40897 0.706093 0
M  V30 2917 C 290.638 -2.33418 0.0620085 0
M  V30 2918 C 291.619 -1.52385 -0.755827 0
M  V30 2919 O 292.804 -1.80886 -0.706674 0
M  V30 2920 C 289.934 -3.36293 -0.867445 0
M  V30 2921 C 288.888 -4.27716 -0.155932 0
M  V30 2922 C 288.214 -5.2105 -1.20046 0
M  V30 2923 C 289.514 -5.12944 0.984149 0
M  V30 2924 H 291.208 -2.87527 0.83477 0
M  V30 2925 H 288.754 -1.38249 0.402875 0
M  V30 2926 H 290.707 -3.99949 -1.32735 0
M  V30 2927 H 289.431 -2.80556 -1.67199 0
M  V30 2928 H 288.09 -3.65498 0.284047 0
M  V30 2929 H 287.738 -4.61624 -1.99781 0
M  V30 2930 H 287.438 -5.83056 -0.729328 0
M  V30 2931 H 288.962 -5.87584 -1.66066 0
M  V30 2932 H 290.376 -5.70109 0.604048 0
M  V30 2933 H 288.773 -5.83945 1.38304 0
M  V30 2934 H 289.843 -4.49485 1.81911 0
M  V30 2935 N 291.186 -0.45159 -1.50991 0
M  V30 2936 C 292.432 0.110237 -2.025 0
M  V30 2937 C 292.765 1.41109 -1.33424 0
M  V30 2938 O 292.04 1.89135 -0.453659 0
M  V30 2939 C 292.323 0.314271 -3.58726 0
M  V30 2940 C 292.176 -1.00623 -4.38401 0
M  V30 2941 C 293.495 1.07767 -4.26702 0
M  V30 2942 H 290.614 0.0385897 -0.735989 0
M  V30 2943 H 293.256 -0.593374 -1.80497 0
M  V30 2944 H 291.406 0.913601 -3.77605 0
M  V30 2945 H 293.078 -1.64064 -4.31139 0
M  V30 2946 H 291.321 -1.6075 -4.02917 0
M  V30 2947 H 291.992 -0.817341 -5.45915 0
M  V30 2948 H 294.468 0.56986 -4.12179 0
M  V30 2949 H 293.344 1.18921 -5.35863 0
M  V30 2950 H 293.605 2.10939 -3.88532 0
M  V30 2951 N 292.664 1.56529 -0.183458 0
M  V30 2952 C 293.889 2.02064 0.467428 0
M  V30 2953 C 294.314 1.06282 1.55196 0
M  V30 2954 O 293.672 0.0443565 1.81246 0
M  V30 2955 C 293.72 3.46122 1.01153 0
M  V30 2956 O 292.824 3.53437 2.12499 0
M  V30 2957 H 292.165 0.654726 0.110588 0
M  V30 2958 H 294.695 2.02521 -0.290917 0
M  V30 2959 H 294.705 3.85676 1.33108 0
M  V30 2960 H 293.38 4.15331 0.217533 0
M  V30 2961 H 291.957 3.2575 1.81497 0
M  V30 2962 N 294.142 -0.090211 1.57342 0
M  V30 2963 C 295.092 -1.11557 1.98844 0
M  V30 2964 C 296.076 -1.35503 0.867624 0
M  V30 2965 O 297.268 -1.36113 1.13148 0
M  V30 2966 C 294.397 -2.43446 2.42051 0
M  V30 2967 C 293.483 -2.22853 3.60828 0
M  V30 2968 N 293.874 -1.72141 4.75606 0
M  V30 2969 C 292.172 -2.53401 3.67021 0
M  V30 2970 C 292.873 -1.65932 5.57531 0
M  V30 2971 N 291.849 -2.11323 5.00843 0
M  V30 2972 H 295.651 -0.716499 2.85032 0
M  V30 2973 H 293.165 -0.297567 1.59651 0
M  V30 2974 H 295.162 -3.17644 2.70014 0
M  V30 2975 H 293.822 -2.84087 1.57241 0
M  V30 2976 H 294.833 -1.41268 4.98261 0
M  V30 2977 H 291.51 -2.97532 2.92884 0
M  V30 2978 H 292.9 -1.27733 6.59647 0
M  V30 2979 N 295.62 -1.53406 -0.361157 0
M  V30 2980 C 296.55 -1.83136 -1.44857 0
M  V30 2981 C 297.531 -0.685174 -1.5569 0
M  V30 2982 O 298.716 -0.93544 -1.70186 0
M  V30 2983 C 295.846 -2.02522 -2.82138 0
M  V30 2984 C 294.8 -3.18302 -2.86126 0
M  V30 2985 C 294.126 -3.22989 -4.26125 0
M  V30 2986 C 295.426 -4.56796 -2.53248 0
M  V30 2987 H 297.12 -2.74201 -1.20226 0
M  V30 2988 H 294.666 -1.31938 -0.576922 0
M  V30 2989 H 296.619 -2.21904 -3.58241 0
M  V30 2990 H 295.343 -1.08172 -3.08166 0
M  V30 2991 H 294.002 -2.98747 -2.12475 0
M  V30 2992 H 293.65 -2.26267 -4.49235 0
M  V30 2993 H 293.35 -4.00781 -4.29708 0
M  V30 2994 H 294.874 -3.44559 -5.04094 0
M  V30 2995 H 296.288 -4.7631 -3.19064 0
M  V30 2996 H 294.685 -5.36862 -2.68141 0
M  V30 2997 H 295.755 -4.61606 -1.48484 0
M  V30 2998 N 297.098 0.621204 -1.44841 0
M  V30 2999 C 298.028 1.74366 -1.55303 0
M  V30 3000 C 299.009 1.65199 -0.405385 0
M  V30 3001 O 300.194 1.83807 -0.626787 0
M  V30 3002 C 297.324 3.12931 -1.50637 0
M  V30 3003 C 296.278 3.36896 -2.63979 0
M  V30 3004 C 295.604 4.75594 -2.44366 0
M  V30 3005 C 296.904 3.28483 -4.06074 0
M  V30 3006 H 298.598 1.65867 -2.49256 0
M  V30 3007 H 296.144 0.796558 -1.19962 0
M  V30 3008 H 298.097 3.9124 -1.56555 0
M  V30 3009 H 296.821 3.22237 -0.532057 0
M  V30 3010 H 295.48 2.60972 -2.57467 0
M  V30 3011 H 295.128 4.81616 -1.45105 0
M  V30 3012 H 294.828 4.92586 -3.20364 0
M  V30 3013 H 296.352 5.5612 -2.52117 0
M  V30 3014 H 297.766 3.96684 -4.13902 0
M  V30 3015 H 296.163 3.57008 -4.82354 0
M  V30 3016 H 297.233 2.26133 -4.28943 0
M  V30 3017 N 298.576 1.31904 0.862503 0
M  V30 3018 C 299.822 1.22197 1.61851 0
M  V30 3019 C 300.155 -0.217641 1.92977 0
M  V30 3020 O 299.43 -1.15264 1.56666 0
M  V30 3021 C 299.713 2.07378 2.94391 0
M  V30 3022 C 299.566 3.59678 2.70096 0
M  V30 3023 C 300.885 1.92891 3.95577 0
M  V30 3024 H 298.004 0.445255 0.587296 0
M  V30 3025 H 300.646 1.6177 0.99651 0
M  V30 3026 H 298.796 1.73758 3.47477 0
M  V30 3027 H 300.468 4.03472 2.23625 0
M  V30 3028 H 298.711 3.82735 2.04197 0
M  V30 3029 H 299.382 4.14595 3.64438 0
M  V30 3030 H 301.858 2.22327 3.51724 0
M  V30 3031 H 300.734 2.54781 4.86187 0
M  V30 3032 H 300.995 0.894315 4.3296 0
M  V30 3033 N 300.054 -1.07777 1.14986 0
M  V30 3034 C 301.3 -1.80557 0.923422 0
M  V30 3035 C 301.633 -1.86298 -0.548337 0
M  V30 3036 O 300.908 -1.34354 -1.40639 0
M  V30 3037 C 301.191 -3.25839 1.53299 0
M  V30 3038 C 301.044 -3.28269 3.07505 0
M  V30 3039 C 302.363 -4.22991 1.21518 0
M  V30 3040 H 299.482 -0.655493 0.336894 0
M  V30 3041 H 302.124 -1.26144 1.42083 0
M  V30 3042 H 300.274 -3.72306 1.10999 0
M  V30 3043 H 301.946 -2.90079 3.58681 0
M  V30 3044 H 300.189 -2.67355 3.4162 0
M  V30 3045 H 300.86 -4.30691 3.45266 0
M  V30 3046 H 303.336 -3.84894 1.581 0
M  V30 3047 H 302.212 -5.22945 1.66793 0
M  V30 3048 H 302.473 -4.41904 0.131505 0
M  V30 3049 N 301.532 -0.945985 -1.26051 0
M  V30 3050 C 302.442 -0.465633 -2.29933 0
M  V30 3051 C 303.458 0.462761 -1.67733 0
M  V30 3052 O 304.634 0.341118 -1.9849 0
M  V30 3053 C 301.699 0.256994 -3.45746 0
M  V30 3054 C 300.76 -0.708549 -4.23412 0
M  V30 3055 C 299.993 -0.0203135 -5.33696 0
M  V30 3056 O 300.216 1.19571 -5.57726 0
M  V30 3057 O 299.15 -0.701459 -5.97799 0
M  V30 3058 H 302.976 -1.32866 -2.73094 0
M  V30 3059 H 300.561 -0.712071 -1.31339 0
M  V30 3060 H 302.443 0.663852 -4.16138 0
M  V30 3061 H 301.118 1.09533 -3.04605 0
M  V30 3062 H 300.025 -1.16545 -3.55483 0
M  V30 3063 H 301.358 -1.51465 -4.68315 0
M  V30 3064 N 303.011 1.40521 -0.713556 0
M  V30 3065 C 304.422 1.83853 -0.324807 0
M  V30 3066 C 304.773 1.59667 1.14021 0
M  V30 3067 O 303.898 1.07649 1.87725 0
M  V30 3068 C 304.493 3.33751 -0.582746 0
M  V30 3069 C 303.052 3.75584 -0.247727 0
M  V30 3070 C 302.199 2.63753 -0.856121 0
M  V30 3071 H 305.15 1.29817 -0.91286 0
M  V30 3072 H 305.171 3.80194 0.152682 0
M  V30 3073 H 304.683 3.51322 -1.64908 0
M  V30 3074 H 302.784 3.63608 0.813624 0
M  V30 3075 H 302.897 4.7373 -0.715307 0
M  V30 3076 H 301.261 2.53108 -0.28432 0
M  V30 3077 H 302.044 2.84137 -1.92668 0
M  V30 3078 N 304.489 0.459591 1.5075 0
M  V30 3079 C 305.399 -0.34613 2.32033 0
M  V30 3080 C 306.415 -1.00686 1.41909 0
M  V30 3081 O 307.591 -0.997361 1.7497 0
M  V30 3082 C 304.656 -1.42029 3.16273 0
M  V30 3083 C 303.717 -0.777362 4.22203 0
M  V30 3084 C 302.95 -1.80034 5.02418 0
M  V30 3085 O 303.173 -3.02544 4.83553 0
M  V30 3086 O 302.107 -1.37853 5.85901 0
M  V30 3087 H 305.933 0.318054 3.0203 0
M  V30 3088 H 303.518 0.221663 1.47746 0
M  V30 3089 H 305.4 -2.04275 3.68578 0
M  V30 3090 H 304.075 -2.06815 2.49016 0
M  V30 3091 H 302.982 -0.116256 3.73919 0
M  V30 3092 H 304.315 -0.172634 4.91897 0
M  V30 3093 N 305.967 -1.56429 0.191757 0
M  V30 3094 C 306.914 -2.18936 -0.730454 0
M  V30 3095 C 307.884 -1.13557 -1.21219 0
M  V30 3096 O 309.069 -1.41794 -1.27668 0
M  V30 3097 C 306.209 -2.85013 -1.9458 0
M  V30 3098 C 305.322 -4.04909 -1.50574 0
M  V30 3099 C 304.457 -4.58853 -2.67634 0
M  V30 3100 C 303.496 -5.71114 -2.20217 0
M  V30 3101 N 302.633 -6.19478 -3.30442 0
M  V30 3102 H 307.473 -2.97389 -0.190664 0
M  V30 3103 H 305.01 -1.46869 -0.0823694 0
M  V30 3104 H 306.968 -3.21492 -2.65893 0
M  V30 3105 H 305.598 -2.09129 -2.45896 0
M  V30 3106 H 304.65 -3.74115 -0.688605 0
M  V30 3107 H 305.962 -4.86113 -1.11784 0
M  V30 3108 H 305.116 -4.97619 -3.47074 0
M  V30 3109 H 303.855 -3.76749 -3.09696 0
M  V30 3110 H 302.86 -5.31879 -1.3923 0
M  V30 3111 H 304.085 -6.55033 -1.79189 0
M  V30 3112 H 302.031 -5.40297 -3.72041 0
M  V30 3113 H 301.948 -6.95725 -2.9581 0
M  V30 3114 H 303.216 -6.62898 -4.10106 0
M  V30 3115 N 307.445 0.0818655 -1.57387 0
M  V30 3116 C 308.375 1.09885 -2.06028 0
M  V30 3117 C 309.356 1.4098 -0.951774 0
M  V30 3118 O 310.541 1.50781 -1.22387 0
M  V30 3119 C 307.671 2.4151 -2.4958 0
M  V30 3120 C 306.625 2.24792 -3.64215 0
M  V30 3121 C 305.951 3.61712 -3.93787 0
M  V30 3122 C 307.251 1.67749 -4.94629 0
M  V30 3123 H 308.945 0.694128 -2.91243 0
M  V30 3124 H 306.491 0.332448 -1.4011 0
M  V30 3125 H 308.444 3.12939 -2.82219 0
M  V30 3126 H 307.168 2.83943 -1.61381 0
M  V30 3127 H 305.827 1.55807 -3.31843 0
M  V30 3128 H 305.475 4.01697 -3.02735 0
M  V30 3129 H 305.175 3.51368 -4.70971 0
M  V30 3130 H 306.699 4.34587 -4.28913 0
M  V30 3131 H 308.113 2.29032 -5.25564 0
M  V30 3132 H 306.51 1.68128 -5.76067 0
M  V30 3133 H 307.58 0.638059 -4.80684 0
M  V30 3134 N 308.923 1.53595 0.353017 0
M  V30 3135 C 310.153 1.74058 1.11299 0
M  V30 3136 C 310.561 0.475205 1.83135 0
M  V30 3137 O 309.904 -0.562344 1.74881 0
M  V30 3138 C 309.966 2.85994 2.17825 0
M  V30 3139 C 309.63 4.25923 1.65647 0
M  V30 3140 C 310.627 5.07829 1.11383 0
M  V30 3141 C 308.312 4.72377 1.7078 0
M  V30 3142 C 310.306 6.34285 0.629439 0
M  V30 3143 C 307.993 5.98808 1.21953 0
M  V30 3144 C 308.991 6.79594 0.681265 0
M  V30 3145 O 308.679 8.03651 0.200248 0
M  V30 3146 H 308.411 0.585327 0.338183 0
M  V30 3147 H 310.965 2.01186 0.413927 0
M  V30 3148 H 309.195 2.54368 2.91262 0
M  V30 3149 H 310.884 2.94515 2.79313 0
M  V30 3150 H 311.65 4.73107 1.06746 0
M  V30 3151 H 307.529 4.0956 2.11617 0
M  V30 3152 H 311.073 6.97288 0.208636 0
M  V30 3153 H 306.97 6.33026 1.26287 0
M  V30 3154 H 307.738 8.1788 0.318416 0
M  V30 3155 N 310.401 -0.613514 1.45168 0
M  V30 3156 C 311.364 -1.7065 1.53007 0
M  V30 3157 C 312.364 -1.5548 0.410184 0
M  V30 3158 O 313.554 -1.60656 0.673455 0
M  V30 3159 C 310.686 -3.09875 1.42093 0
M  V30 3160 H 311.879 -1.65068 2.50385 0
M  V30 3161 H 309.432 -0.828728 1.32521 0
M  V30 3162 H 310.167 -3.21039 0.458769 0
M  V30 3163 H 309.952 -3.22293 2.23315 0
M  V30 3164 H 311.442 -3.895 1.50598 0
M  V30 3165 N 311.879 -1.3236 -0.855495 0
M  V30 3166 C 312.812 -1.15559 -1.96777 0
M  V30 3167 C 313.79 -0.0552681 -1.62506 0
M  V30 3168 O 314.974 -0.214419 -1.87277 0
M  V30 3169 C 312.101 -0.768851 -3.29858 0
M  V30 3170 C 311.147 -1.87429 -3.83109 0
M  V30 3171 S 311.98 -3.48243 -4.06801 0
M  V30 3172 C 313.136 -3.11539 -5.42858 0
M  V30 3173 H 313.369 -2.09717 -2.10727 0
M  V30 3174 H 310.902 -1.17011 -1.00737 0
M  V30 3175 H 312.86 -0.55248 -4.06765 0
M  V30 3176 H 311.521 0.153857 -3.13723 0
M  V30 3177 H 310.714 -1.55667 -4.79358 0
M  V30 3178 H 310.316 -2.04647 -3.13042 0
M  V30 3179 H 312.608 -2.61331 -6.2507 0
M  V30 3180 H 313.551 -4.06806 -5.79582 0
M  V30 3181 H 313.959 -2.48582 -5.06821 0
M  V30 3182 N 313.357 1.07166 -1.15556 0
M  V30 3183 C 314.768 1.6127 -0.940693 0
M  V30 3184 C 315.119 1.89251 0.517551 0
M  V30 3185 O 314.244 1.65937 1.38903 0
M  V30 3186 C 314.839 2.92993 -1.7012 0
M  V30 3187 C 313.398 3.43832 -1.53156 0
M  V30 3188 C 312.545 2.1786 -1.71558 0
M  V30 3189 H 315.496 0.90229 -1.30554 0
M  V30 3190 H 315.517 3.62007 -1.17181 0
M  V30 3191 H 315.029 2.72596 -2.76248 0
M  V30 3192 H 313.13 3.69307 -0.494294 0
M  V30 3193 H 313.243 4.19747 -2.30975 0
M  V30 3194 H 311.607 2.2765 -1.14225 0
M  V30 3195 H 312.39 1.99956 -2.79056 0
M  V30 3196 N 314.835 0.952656 1.25548 0
M  V30 3197 C 316.112 0.523818 1.88456 0
M  V30 3198 C 316.492 -0.998871 1.85973 0
M  V30 3199 O 315.84 -1.86381 1.3219 0
M  V30 3200 C 316.05 1.0982 3.31271 0
M  V30 3201 C 317.398 1.17385 4.08051 0
M  V30 3202 O 318.422 1.04961 3.40384 0
M  V30 3203 O 317.281 1.36852 5.29088 0
M  V30 3204 H 314.375 0.172485 0.808813 0
M  V30 3205 H 316.921 1.04596 1.33633 0
M  V30 3206 H 315.693 2.1415 3.27499 0
M  V30 3207 H 315.316 0.559191 3.93648 0
M  V30 3208 N 316.313 -1.40141 0.720998 0
M  V30 3209 C 317.724 -1.83678 0.334553 0
M  V30 3210 C 318.075 -1.6027 -1.13173 0
M  V30 3211 O 317.2 -1.08643 -1.87152 0
M  V30 3212 C 317.795 -3.33437 0.600437 0
M  V30 3213 C 316.354 -3.75447 0.267642 0
M  V30 3214 C 315.501 -2.63296 0.870097 0
M  V30 3215 H 318.452 -1.29331 0.919732 0
M  V30 3216 H 318.473 -3.80269 -0.132517 0
M  V30 3217 H 317.985 -3.50442 1.66768 0
M  V30 3218 H 316.086 -3.64035 -0.794329 0
M  V30 3219 H 316.199 -4.73344 0.74042 0
M  V30 3220 H 314.563 -2.52954 0.297739 0
M  V30 3221 H 315.346 -2.83112 1.94172 0
M  V30 3222 N 317.792 -0.46758 -1.50504 0
M  V30 3223 C 318.755 0.317059 -2.26996 0
M  V30 3224 C 319.755 0.923513 -1.31635 0
M  V30 3225 O 320.945 0.793239 -1.55091 0
M  V30 3226 C 318.077 1.45134 -3.08462 0
M  V30 3227 H 319.27 -0.353723 -2.97807 0
M  V30 3228 H 316.823 -0.221545 -1.54722 0
M  V30 3229 H 317.558 2.15728 -2.4214 0
M  V30 3230 H 317.343 1.02232 -3.78538 0
M  V30 3231 H 318.833 2.00493 -3.66323 0
M  V30 3232 N 319.27 1.56325 -0.20005 0
M  V30 3233 C 320.518 1.97329 0.436547 0
M  V30 3234 C 320.839 1.08826 1.61808 0
M  V30 3235 O 320.109 0.160604 1.95241 0
M  V30 3236 H 318.689 0.728714 0.164272 0
M  V30 3237 H 321.351 1.92761 -0.287937 0
M  V30 3238 H 320.447 3.02264 0.777353 0
M  V30 3239 N 320.748 -0.0735177 1.57428 0
M  V30 3240 C 322.159 -0.625551 1.75908 0
M  V30 3241 C 322.51 -1.78 0.825261 0
M  V30 3242 O 321.635 -2.16398 0.00893964 0
M  V30 3243 C 322.23 -1.14155 3.18989 0
M  V30 3244 C 320.789 -1.63946 3.38819 0
M  V30 3245 C 319.936 -0.558151 2.71625 0
M  V30 3246 H 322.887 0.152647 1.57964 0
M  V30 3247 H 322.908 -2.0104 3.23053 0
M  V30 3248 H 322.42 -0.301116 3.8693 0
M  V30 3249 H 320.521 -2.50321 2.7599 0
M  V30 3250 H 320.634 -1.71759 4.47253 0
M  V30 3251 H 318.998 -1.00278 2.34129 0
M  V30 3252 H 319.781 0.272071 3.4222 0
M  V30 3253 N 322.226 -1.5378 -0.344866 0
M  V30 3254 C 323.503 -1.61589 -1.10219 0
M  V30 3255 C 323.883 -0.436316 -2.06542 0
M  V30 3256 O 323.231 0.571543 -2.21237 0
M  V30 3257 C 323.441 -2.97602 -1.82301 0
M  V30 3258 C 324.789 -3.5291 -2.36093 0
M  V30 3259 O 325.813 -2.99768 -1.924 0
M  V30 3260 O 324.672 -4.45859 -3.16026 0
M  V30 3261 H 321.766 -0.653522 -0.506792 0
M  V30 3262 H 324.312 -1.66126 -0.346465 0
M  V30 3263 H 323.084 -3.74893 -1.12121 0
M  V30 3264 H 322.707 -2.9665 -2.64735 0
M  V30 3265 N 323.704 0.605807 -1.45491 0
M  V30 3266 C 324.952 1.36207 -1.49305 0
M  V30 3267 C 325.273 1.94519 -0.136863 0
M  V30 3268 O 324.543 1.77261 0.833983 0
M  V30 3269 H 323.123 0.50565 -0.549843 0
M  V30 3270 H 325.785 0.711239 -1.81459 0
M  V30 3271 H 324.881 2.18058 -2.23287 0
M  V30 3272 N 325.182 1.32811 0.848464 0
M  V30 3273 C 326.132 1.18842 1.94578 0
M  V30 3274 C 327.116 0.0937517 1.60627 0
M  V30 3275 O 328.308 0.320887 1.74067 0
M  V30 3276 C 325.437 0.91999 3.30743 0
M  V30 3277 C 324.523 2.05665 3.70894 0
M  V30 3278 N 324.914 3.30579 3.8282 0
M  V30 3279 C 323.212 1.9612 4.00566 0
M  V30 3280 C 323.913 4.05067 4.17487 0
M  V30 3281 N 322.889 3.33419 4.2934 0
M  V30 3282 H 326.691 2.13536 2.0194 0
M  V30 3283 H 324.205 1.2468 1.0406 0
M  V30 3284 H 326.202 0.800859 4.09136 0
M  V30 3285 H 324.862 -0.0185076 3.24695 0
M  V30 3286 H 325.873 3.65441 3.66978 0
M  V30 3287 H 322.55 1.09871 4.02784 0
M  V30 3288 H 323.94 5.12815 4.34131 0
M  V30 3289 N 326.66 -1.06551 1.16123 0
M  V30 3290 C 327.59 -2.15935 0.88851 0
M  V30 3291 C 328.571 -1.69306 -0.164135 0
M  V30 3292 O 329.756 -1.94193 -0.0167857 0
M  V30 3293 C 326.886 -3.45149 0.385942 0
M  V30 3294 C 325.84 -4.05271 1.3762 0
M  V30 3295 C 325.166 -5.29664 0.732137 0
M  V30 3296 C 326.466 -4.44355 2.74493 0
M  V30 3297 H 328.16 -2.39006 1.80323 0
M  V30 3298 H 325.706 -1.14866 0.868435 0
M  V30 3299 H 327.659 -4.21004 0.182647 0
M  V30 3300 H 326.383 -3.21689 -0.564274 0
M  V30 3301 H 325.042 -3.3147 1.56599 0
M  V30 3302 H 324.69 -5.02499 -0.224483 0
M  V30 3303 H 324.39 -5.70848 1.39307 0
M  V30 3304 H 325.914 -6.08218 0.538802 0
M  V30 3305 H 327.328 -5.11303 2.59311 0
M  V30 3306 H 325.725 -4.96515 3.37035 0
M  V30 3307 H 326.795 -3.55339 3.29943 0
M  V30 3308 N 328.138 -0.959301 -1.25041 0
M  V30 3309 C 329.549 -0.65667 -1.74771 0
M  V30 3310 C 329.9 0.827852 -1.77879 0
M  V30 3311 O 329.025 1.64783 -1.40269 0
M  V30 3312 C 329.62 -1.1853 -3.1739 0
M  V30 3313 C 328.179 -0.932734 -3.6466 0
M  V30 3314 C 327.326 -1.32558 -2.43564 0
M  V30 3315 H 330.277 -1.13558 -1.10862 0
M  V30 3316 H 330.298 -0.547582 -3.76539 0
M  V30 3317 H 329.81 -2.26576 -3.15095 0
M  V30 3318 H 327.911 0.13257 -3.72364 0
M  V30 3319 H 328.024 -1.57248 -4.52559 0
M  V30 3320 H 326.388 -0.743956 -2.43593 0
M  V30 3321 H 327.171 -2.41537 -2.43957 0
M  V30 3322 N 329.616 1.39756 -0.72842 0
M  V30 3323 C 330.579 2.29012 -0.0927297 0
M  V30 3324 C 331.579 1.45992 0.674025 0
M  V30 3325 O 332.769 1.66749 0.50402 0
M  V30 3326 C 329.901 3.29396 0.878137 0
M  V30 3327 H 331.094 2.86729 -0.879011 0
M  V30 3328 H 328.647 1.48293 -0.493847 0
M  V30 3329 H 329.382 2.76722 1.69101 0
M  V30 3330 H 329.167 3.907 0.331051 0
M  V30 3331 H 330.657 3.96199 1.3197 0
M  V30 3332 N 331.094 0.475555 1.50254 0
M  V30 3333 C 332.34 -0.0780073 2.0265 0
M  V30 3334 C 332.673 -1.38968 1.35652 0
M  V30 3335 O 331.948 -1.8839 0.483691 0
M  V30 3336 C 332.231 -0.257161 3.59181 0
M  V30 3337 C 332.084 1.07585 4.36744 0
M  V30 3338 C 333.403 -1.00965 4.28362 0
M  V30 3339 H 330.522 -0.0268758 0.73651 0
M  V30 3340 H 333.164 0.622015 1.7953 0
M  V30 3341 H 331.314 -0.853412 3.79011 0
M  V30 3342 H 332.986 1.70902 4.28474 0
M  V30 3343 H 331.229 1.6714 4.00308 0
M  V30 3344 H 331.9 0.904088 5.44546 0
M  V30 3345 H 334.376 -0.504214 4.13034 0
M  V30 3346 H 333.252 -1.10381 5.37687 0
M  V30 3347 H 333.513 -2.04731 3.91839 0
M  V30 3348 N 332.573 -1.56217 0.208337 0
M  V30 3349 C 333.536 -2.18455 -0.693557 0
M  V30 3350 C 334.536 -1.14268 -1.13135 0
M  V30 3351 O 335.726 -1.39577 -1.0423 0
M  V30 3352 C 332.858 -2.79727 -1.94848 0
M  V30 3353 H 334.051 -2.99519 -0.15114 0
M  V30 3354 H 331.604 -1.56245 -0.041287 0
M  V30 3355 H 332.339 -2.02497 -2.53309 0
M  V30 3356 H 332.124 -3.56009 -1.64316 0
M  V30 3357 H 333.614 -3.27475 -2.59133 0
M  V30 3358 N 334.051 0.0651679 -1.57465 0
M  V30 3359 C 335.279 0.775808 -1.91804 0
M  V30 3360 C 335.694 1.70782 -0.804916 0
M  V30 3361 O 335.051 1.81153 0.221311 0
M  V30 3362 C 335.102 1.56381 -3.25925 0
M  V30 3363 O 334.823 0.669248 -4.32958 0
M  V30 3364 C 336.324 2.37485 -3.7432 0
M  V30 3365 H 333.544 0.2202 -0.63384 0
M  V30 3366 H 336.088 0.0334587 -2.04473 0
M  V30 3367 H 334.243 2.25837 -3.14764 0
M  V30 3368 H 334.657 1.21801 -5.10162 0
M  V30 3369 H 336.131 2.88223 -4.70778 0
M  V30 3370 H 336.608 3.17307 -3.03666 0
M  V30 3371 H 337.214 1.73173 -3.88447 0
M  V30 3372 N 335.529 1.53961 0.336706 0
M  V30 3373 C 336.459 1.85417 1.41925 0
M  V30 3374 C 337.44 0.709856 1.5458 0
M  V30 3375 O 338.625 0.962396 1.68676 0
M  V30 3376 C 335.755 2.06985 2.78881 0
M  V30 3377 C 334.709 3.22813 2.81026 0
M  V30 3378 C 334.035 3.29727 4.20932 0
M  V30 3379 C 335.335 4.60767 2.45949 0
M  V30 3380 H 337.029 2.76079 1.15848 0
M  V30 3381 H 334.575 1.32839 0.555859 0
M  V30 3382 H 336.528 2.27575 3.54665 0
M  V30 3383 H 335.252 1.13061 3.06406 0
M  V30 3384 H 333.911 3.0209 2.07695 0
M  V30 3385 H 333.559 2.33385 4.45579 0
M  V30 3386 H 333.259 4.07566 4.23277 0
M  V30 3387 H 334.783 3.52536 4.98549 0
M  V30 3388 H 336.197 4.81325 3.11446 0
M  V30 3389 H 334.594 5.4106 2.59566 0
M  V30 3390 H 335.664 4.6391 1.41122 0
M  V30 3391 N 337.007 -0.598083 1.45811 0
M  V30 3392 C 338.247 -1.36802 1.5187 0
M  V30 3393 C 338.611 -1.9133 0.160224 0
M  V30 3394 O 339.812 -2.6863 0.0955302 0
M  V30 3395 C 338.083 -2.47835 2.57513 0
M  V30 3396 S 339.642 -3.35458 2.82866 0
M  V30 3397 H 336.46 -0.466278 0.536755 0
M  V30 3398 H 339.062 -0.689152 1.82951 0
M  V30 3399 H 337.766 -2.06141 3.54872 0
M  V30 3400 H 337.297 -3.20512 2.28114 0
M  V30 3401 H 339.312 -4.46251 2.16967 0
M  V30 3402 N 338.485 -1.33259 -0.841409 0
M  V30 3403 C 339.762 -1.15174 -1.58096 0
M  V30 3404 C 340.142 0.282858 -2.09196 0
M  V30 3405 O 339.49 1.28151 -1.89181 0
M  V30 3406 C 339.7 -2.1907 -2.71679 0
M  V30 3407 C 341.048 -2.53093 -3.40924 0
M  V30 3408 O 342.072 -2.17717 -2.81918 0
M  V30 3409 O 340.931 -3.1379 -4.47435 0
M  V30 3410 H 338.025 -0.445303 -0.696875 0
M  V30 3411 H 340.571 -1.44833 -0.884385 0
M  V30 3412 H 339.343 -3.15443 -2.31541 0
M  V30 3413 H 338.966 -1.90481 -3.49002 0
M  V30 3414 N 339.963 1.05934 -1.16686 0
M  V30 3415 C 340.893 2.1546 -0.899949 0
M  V30 3416 C 341.874 1.69391 0.155154 0
M  V30 3417 O 343.059 1.94199 0.00648693 0
M  V30 3418 C 340.189 3.44939 -0.404241 0
M  V30 3419 C 339.143 4.04536 -1.39767 0
M  V30 3420 C 338.469 5.29268 -0.760216 0
M  V30 3421 C 339.769 4.42893 -2.76845 0
M  V30 3422 H 341.463 2.38046 -1.81588 0
M  V30 3423 H 339.009 1.14404 -0.874514 0
M  V30 3424 H 340.962 4.20901 -0.204971 0
M  V30 3425 H 339.686 3.21983 0.547206 0
M  V30 3426 H 338.345 3.30635 -1.58355 0
M  V30 3427 H 337.993 5.02611 0.197831 0
M  V30 3428 H 337.693 5.70101 -1.42332 0
M  V30 3429 H 339.217 6.07924 -0.57105 0
M  V30 3430 H 340.631 5.09921 -2.62019 0
M  V30 3431 H 339.028 4.94721 -3.39663 0
M  V30 3432 H 340.098 3.53584 -3.31823 0
M  V30 3433 N 341.441 0.965919 1.2453 0
M  V30 3434 C 342.688 0.626831 1.92554 0
M  V30 3435 C 343.016 -0.837739 1.75534 0
M  V30 3436 O 342.271 -1.61793 1.10098 0
M  V30 3437 C 342.57 0.945428 3.44669 0
M  V30 3438 C 342.236 2.39785 3.81856 0
M  V30 3439 C 340.898 2.79483 3.91718 0
M  V30 3440 C 343.25 3.34055 4.00071 0
M  V30 3441 C 340.578 4.12496 4.1721 0
M  V30 3442 C 342.93 4.66694 4.27059 0
M  V30 3443 C 341.594 5.06172 4.3514 0
M  V30 3444 H 340.864 0.229374 0.704605 0
M  V30 3445 H 343.511 1.21707 1.4785 0
M  V30 3446 H 341.816 0.272926 3.90848 0
M  V30 3447 H 343.513 0.661484 3.95507 0
M  V30 3448 H 340.103 2.08003 3.74743 0
M  V30 3449 H 344.287 3.04571 3.91855 0
M  V30 3450 H 339.543 4.42709 4.21685 0
M  V30 3451 H 343.717 5.3971 4.40097 0
M  V30 3452 H 341.344 6.09262 4.54646 0
M  V30 3453 N 342.919 -1.39368 0.735821 0
M  V30 3454 C 344.196 -1.94465 0.210395 0
M  V30 3455 C 344.576 -1.67254 -1.28799 0
M  V30 3456 O 343.924 -1.00123 -2.05396 0
M  V30 3457 C 344.134 -3.4472 0.544897 0
M  V30 3458 C 345.482 -4.21708 0.494689 0
M  V30 3459 O 346.506 -3.52922 0.482136 0
M  V30 3460 O 345.365 -5.44299 0.489947 0
M  V30 3461 H 342.459 -0.826096 0.0386666 0
M  V30 3462 H 345.005 -1.48863 0.814735 0
M  V30 3463 H 343.777 -3.57963 1.58045 0
M  V30 3464 H 343.4 -3.97502 -0.08837 0
M  V30 3465 N 344.397 -0.483516 -1.5 0
M  V30 3466 C 345.813 -0.138404 -1.58999 0
M  V30 3467 C 346.013 1.35597 -1.4905 0
M  V30 3468 O 345.069 2.13039 -1.35539 0
M  V30 3469 C 346.382 -0.699658 -2.92447 0
M  V30 3470 C 347.93 -0.664195 -3.05872 0
M  V30 3471 C 348.405 -1.20321 -4.41913 0
M  V30 3472 N 349.896 -1.16315 -4.48358 0
M  V30 3473 C 350.631 -1.55058 -5.52037 0
M  V30 3474 N 350.127 -2.01311 -6.62907 0
M  V30 3475 N 351.92 -1.46584 -5.42651 0
M  V30 3476 H 344.071 -1.45529 -1.5471 0
M  V30 3477 H 346.334 -0.60258 -0.731848 0
M  V30 3478 H 346.04 -1.747 -3.05242 0
M  V30 3479 H 345.914 -0.150194 -3.76901 0
M  V30 3480 H 348.301 0.374272 -2.92717 0
M  V30 3481 H 348.382 -1.25061 -2.23144 0
M  V30 3482 H 348.026 -2.24037 -4.55818 0
M  V30 3483 H 347.956 -0.592896 -5.23252 0
M  V30 3484 H 350.447 -0.824058 -3.68806 0
M  V30 3485 H 350.76 -2.2899 -7.38095 0
M  V30 3486 H 349.105 -2.05273 -6.63994 0
M  V30 3487 H 352.296 -1.10281 -4.54924 0
M  V30 3488 H 352.469 -1.77103 -6.23329 0
M  V30 3489 N 345.875 1.56104 -0.216619 0
M  V30 3490 C 346.785 2.23694 0.706982 0
M  V30 3491 C 347.801 1.24295 1.21765 0
M  V30 3492 O 348.977 1.57094 1.2603 0
M  V30 3493 C 346.042 2.8998 1.90033 0
M  V30 3494 C 345.103 4.04708 1.43213 0
M  V30 3495 C 344.336 4.67824 2.56859 0
M  V30 3496 O 344.559 4.29913 3.74874 0
M  V30 3497 O 343.493 5.56905 2.28343 0
M  V30 3498 H 347.319 3.03272 0.161235 0
M  V30 3499 H 344.904 1.49394 0.0136177 0
M  V30 3500 H 346.786 3.31837 2.59735 0
M  V30 3501 H 345.461 2.13365 2.43428 0
M  V30 3502 H 344.368 3.6743 0.70327 0
M  V30 3503 H 345.701 4.83051 0.944615 0
M  V30 3504 N 347.353 -0.0568162 1.57498 0
M  V30 3505 C 348.602 -0.752001 1.87157 0
M  V30 3506 C 348.915 -1.77978 0.811375 0
M  V30 3507 O 350.121 -2.52559 0.996293 0
M  V30 3508 C 348.577 -1.38844 3.3204 0
M  V30 3509 C 348.185 -0.398456 4.46225 0
M  V30 3510 C 349.929 -2.06512 3.70882 0
M  V30 3511 C 347.836 -1.04166 5.82154 0
M  V30 3512 H 346.766 -0.28461 0.698222 0
M  V30 3513 H 349.417 -0.00561272 1.83499 0
M  V30 3514 H 347.799 -2.1836 3.30356 0
M  V30 3515 H 348.973 0.367977 4.59328 0
M  V30 3516 H 347.288 0.174592 4.16034 0
M  V30 3517 H 349.885 -2.55437 4.6974 0
M  V30 3518 H 350.228 -2.87117 3.01445 0
M  V30 3519 H 350.761 -1.33808 3.7462 0
M  V30 3520 H 347.5 -0.275614 6.5492 0
M  V30 3521 H 347.02 -1.7786 5.72823 0
M  V30 3522 H 348.699 -1.55715 6.27982 0
M  V30 3523 N 348.832 -1.54138 -0.328536 0
M  V30 3524 C 350.078 -1.7236 -1.06865 0
M  V30 3525 C 350.411 -0.493231 -1.87832 0
M  V30 3526 O 349.686 0.5098 -1.877 0
M  V30 3527 C 349.969 -2.99621 -1.99747 0
M  V30 3528 C 349.822 -4.32899 -1.22143 0
M  V30 3529 C 351.141 -3.22615 -2.99345 0
M  V30 3530 H 348.26 -0.627151 -0.387105 0
M  V30 3531 H 350.902 -1.86827 -0.345767 0
M  V30 3532 H 349.052 -2.87418 -2.61387 0
M  V30 3533 H 350.724 -4.56978 -0.630017 0
M  V30 3534 H 348.967 -4.30628 -0.523628 0
M  V30 3535 H 349.638 -5.18154 -1.90318 0
M  V30 3536 H 352.114 -3.34248 -2.47826 0
M  V30 3537 H 350.99 -4.13027 -3.61524 0
M  V30 3538 H 351.251 -2.3961 -3.71536 0
M  V30 3539 N 350.31 0.590341 -1.46126 0
M  V30 3540 C 351.556 1.35082 -1.51264 0
M  V30 3541 C 351.889 1.93534 -0.160711 0
M  V30 3542 O 351.164 1.76045 0.826956 0
M  V30 3543 C 351.447 2.48588 -2.6053 0
M  V30 3544 C 351.3 1.95221 -4.05227 0
M  V30 3545 C 352.619 3.50662 -2.6594 0
M  V30 3546 H 349.738 0.489803 -0.550692 0
M  V30 3547 H 352.38 0.663887 -1.78024 0
M  V30 3548 H 350.53 3.07186 -2.37843 0
M  V30 3549 H 352.202 1.41139 -4.39178 0
M  V30 3550 H 350.445 1.26101 -4.15068 0
M  V30 3551 H 351.116 2.77121 -4.77397 0
M  V30 3552 H 353.592 3.01934 -2.86313 0
M  V30 3553 H 352.468 4.27551 -3.44226 0
M  V30 3554 H 352.729 4.07399 -1.71694 0
M  V30 3555 N 351.788 1.33704 0.83433 0
M  V30 3556 C 353.016 1.28467 1.62185 0
M  V30 3557 C 353.431 -0.143526 1.88254 0
M  V30 3558 O 352.788 -1.08709 1.4659 0
M  V30 3559 C 352.839 2.06174 2.96942 0
M  V30 3560 O 352.56 3.43422 2.72016 0
M  V30 3561 C 354.061 2.08201 3.91366 0
M  V30 3562 H 351.281 0.4424 0.504503 0
M  V30 3563 H 353.825 1.76145 1.03891 0
M  V30 3564 H 351.98 1.62167 3.51825 0
M  V30 3565 H 352.394 3.83453 3.57861 0
M  V30 3566 H 353.868 2.67017 4.83121 0
M  V30 3567 H 354.345 1.07343 4.2588 0
M  V30 3568 H 354.951 2.52246 3.42421 0
M  V30 3569 N 353.266 -1.05314 1.17247 0
M  V30 3570 C 354.515 -1.77685 0.954521 0
M  V30 3571 C 354.828 -1.88616 -0.518025 0
M  V30 3572 O 356.034 -2.57714 -0.854144 0
M  V30 3573 C 354.49 -3.19402 1.65863 0
M  V30 3574 C 354.098 -3.16605 3.16963 0
M  V30 3575 C 355.842 -3.96237 1.52303 0
M  V30 3576 C 353.749 -4.53103 3.80068 0
M  V30 3577 H 352.679 -0.666 0.353496 0
M  V30 3578 H 355.33 -1.1805 1.40486 0
M  V30 3579 H 353.712 -3.79355 1.13602 0
M  V30 3580 H 354.886 -2.66176 3.76148 0
M  V30 3581 H 353.201 -2.53268 3.30521 0
M  V30 3582 H 355.798 -4.97157 1.96822 0
M  V30 3583 H 356.141 -4.136 0.473401 0
M  V30 3584 H 356.674 -3.42829 2.01775 0
M  V30 3585 H 353.413 -4.40946 4.85023 0
M  V30 3586 H 352.933 -5.03686 3.2567 0
M  V30 3587 H 354.612 -5.22045 3.82202 0
M  V30 3588 N 354.744 -0.972509 -1.24016 0
M  V30 3589 C 355.969 -0.654417 -1.96805 0
M  V30 3590 C 356.394 0.770398 -1.716 0
M  V30 3591 O 355.752 1.52361 -0.982647 0
M  V30 3592 C 355.8 -0.941031 -3.48105 0
M  V30 3593 O 354.904 -0.0289472 -4.1239 0
M  V30 3594 H 354.245 -0.24692 -0.616382 0
M  V30 3595 H 356.775 -1.30396 -1.57664 0
M  V30 3596 H 356.785 -0.87452 -3.98517 0
M  V30 3597 H 355.46 -1.97939 -3.65777 0
M  V30 3598 H 354.037 -0.149192 -3.72601 0
M  V30 3599 N 356.222 1.38976 -0.743202 0
M  V30 3600 C 357.468 2.01114 -0.304109 0
M  V30 3601 C 357.823 1.57929 1.09892 0
M  V30 3602 O 357.116 0.801983 1.74008 0
M  V30 3603 C 357.31 3.55647 -0.353517 0
M  V30 3604 C 357.139 4.13837 -1.75981 0
M  V30 3605 C 355.909 4.46062 -2.37395 0
M  V30 3606 C 358.107 4.36812 -2.71477 0
M  V30 3607 N 356.089 4.898 -3.70093 0
M  V30 3608 C 357.46 4.82844 -3.88923 0
M  V30 3609 C 359.515 4.18893 -2.69134 0
M  V30 3610 C 358.218 5.12837 -5.04371 0
M  V30 3611 C 360.244 4.50005 -3.83731 0
M  V30 3612 C 359.606 4.96251 -4.99914 0
M  V30 3613 H 355.705 0.765931 -0.157716 0
M  V30 3614 H 358.289 1.68763 -0.970931 0
M  V30 3615 H 356.46 3.87368 0.282987 0
M  V30 3616 H 358.192 4.04564 0.104904 0
M  V30 3617 H 354.947 4.34145 -1.89248 0
M  V30 3618 H 355.371 5.16016 -4.38242 0
M  V30 3619 H 360.013 3.82335 -1.80499 0
M  V30 3620 H 357.731 5.48297 -5.9363 0
M  V30 3621 H 361.317 4.37755 -3.83225 0
M  V30 3622 H 360.197 5.19867 -5.87118 0
M  V30 3623 N 357.7 0.491464 1.49741 0
M  V30 3624 C 358.663 -0.280906 2.27472 0
M  V30 3625 C 359.663 -0.902454 1.33088 0
M  V30 3626 O 360.853 -0.768465 1.56334 0
M  V30 3627 C 357.985 -1.40209 3.10732 0
M  V30 3628 H 359.178 0.401056 2.97206 0
M  V30 3629 H 356.731 0.246131 1.5435 0
M  V30 3630 H 357.466 -2.11849 2.45541 0
M  V30 3631 H 357.251 -0.961969 3.80117 0
M  V30 3632 H 358.741 -1.9464 3.69466 0
M  V30 3633 N 359.178 -1.55987 0.224894 0
M  V30 3634 C 360.125 -2.20436 -0.68385 0
M  V30 3635 C 361.095 -1.16102 -1.18783 0
M  V30 3636 O 362.28 -1.4447 -1.24632 0
M  V30 3637 C 359.42 -2.89076 -1.88491 0
M  V30 3638 C 358.533 -4.08012 -1.41951 0
M  V30 3639 C 357.668 -4.64426 -2.5784 0
M  V30 3640 C 356.707 -5.75656 -2.08053 0
M  V30 3641 N 355.844 -6.26347 -3.17227 0
M  V30 3642 H 360.684 -2.97727 -0.12754 0
M  V30 3643 H 358.221 -1.47011 -0.0511978 0
M  V30 3644 H 360.179 -3.27059 -2.59014 0
M  V30 3645 H 358.809 -2.14298 -2.41405 0
M  V30 3646 H 357.861 -3.75492 -0.609095 0
M  V30 3647 H 359.173 -4.88375 -1.01447 0
M  V30 3648 H 358.327 -5.04869 -3.3644 0
M  V30 3649 H 357.066 -3.83233 -3.01635 0
M  V30 3650 H 356.071 -5.34712 -1.27916 0
M  V30 3651 H 357.296 -6.58686 -1.65255 0
M  V30 3652 H 355.242 -5.48067 -3.60497 0
M  V30 3653 H 355.159 -7.01843 -2.80986 0
M  V30 3654 H 356.427 -6.71447 -3.95953 0
M  V30 3655 N 360.656 0.0484629 -1.57525 0
M  V30 3656 C 361.881 0.759177 -1.93006 0
M  V30 3657 C 362.306 1.69125 -0.823317 0
M  V30 3658 O 361.664 1.79931 0.222364 0
M  V30 3659 C 361.712 1.50899 -3.27509 0
M  V30 3660 O 360.816 2.62112 -3.18388 0
M  V30 3661 H 360.157 0.205564 -0.631379 0
M  V30 3662 H 362.687 0.00972959 -2.04598 0
M  V30 3663 H 362.697 1.88317 -3.6194 0
M  V30 3664 H 361.372 0.825269 -4.0763 0
M  V30 3665 H 359.949 2.27379 -2.95556 0
M  V30 3666 N 362.134 1.5431 0.320358 0
M  V30 3667 C 363.383 1.7188 1.05546 0
M  V30 3668 C 363.696 0.501143 1.89071 0
M  V30 3669 O 364.902 0.558258 2.65699 0
M  V30 3670 C 363.358 3.04025 1.92605 0
M  V30 3671 C 362.966 4.33207 1.14176 0
M  V30 3672 C 364.71 3.30959 2.65832 0
M  V30 3673 C 362.617 5.56412 2.00399 0
M  V30 3674 H 361.547 0.640547 0.397763 0
M  V30 3675 H 364.198 1.80802 0.313522 0
M  V30 3676 H 362.58 2.89019 2.7071 0
M  V30 3677 H 363.754 4.58989 0.40819 0
M  V30 3678 H 362.069 4.13062 0.526165 0
M  V30 3679 H 364.666 4.20203 3.30656 0
M  V30 3680 H 365.009 2.48979 3.33639 0
M  V30 3681 H 365.542 3.46847 1.94787 0
M  V30 3682 H 362.281 6.41004 1.37094 0
M  V30 3683 H 361.801 5.34844 2.7148 0
M  V30 3684 H 363.48 5.92938 2.58908 0
M  V30 3685 N 363.613 -0.582584 1.46437 0
M  V30 3686 C 365.024 -1.1647 1.45916 0
M  V30 3687 C 365.375 -1.95177 0.200077 0
M  V30 3688 O 364.5 -2.04874 -0.696819 0
M  V30 3689 C 365.095 -2.11885 2.64367 0
M  V30 3690 C 363.654 -2.65421 2.66887 0
M  V30 3691 C 362.801 -1.41294 2.38603 0
M  V30 3692 H 365.752 -0.370514 1.54314 0
M  V30 3693 H 365.773 -2.9535 2.39892 0
M  V30 3694 H 365.285 -1.54573 3.5599 0
M  V30 3695 H 363.386 -3.26602 1.79338 0
M  V30 3696 H 363.499 -3.08147 3.66854 0
M  V30 3697 H 361.863 -1.71109 1.88663 0
M  V30 3698 H 362.646 -0.858125 3.32402 0
M  V30 3699 N 365.091 -1.34144 -0.827227 0
M  V30 3700 C 366.339 -1.26009 -1.58007 0
M  V30 3701 C 366.66 0.170971 -1.94249 0
M  V30 3702 O 365.93 1.10256 -1.61927 0
M  V30 3703 H 364.51 -0.463414 -0.585881 0
M  V30 3704 H 367.172 -1.68005 -0.987951 0
M  V30 3705 H 366.268 -1.86187 -2.50481 0
M  V30 3706 N 366.569 1.04691 -1.17803 0
M  V30 3707 C 367.816 1.77782 -0.969532 0
M  V30 3708 C 368.144 1.87926 0.501401 0
M  V30 3709 O 367.399 1.37918 1.38842 0
M  V30 3710 C 367.698 3.21467 -1.56186 0
M  V30 3711 C 367.364 3.3137 -3.05786 0
M  V30 3712 C 366.026 3.3378 -3.46619 0
M  V30 3713 C 368.378 3.31976 -4.01797 0
M  V30 3714 C 365.706 3.34431 -4.82051 0
M  V30 3715 C 368.058 3.34167 -5.37136 0
M  V30 3716 C 366.722 3.34866 -5.77426 0
M  V30 3717 H 365.992 0.650549 -0.354777 0
M  V30 3718 H 368.639 1.23006 -1.46772 0
M  V30 3719 H 366.944 3.79203 -0.985515 0
M  V30 3720 H 368.641 3.76652 -1.37602 0
M  V30 3721 H 365.231 3.3021 -2.73238 0
M  V30 3722 H 369.415 3.29311 -3.71306 0
M  V30 3723 H 364.671 3.33285 -5.12573 0
M  V30 3724 H 368.845 3.33585 -6.11305 0
M  V30 3725 H 366.472 3.35124 -6.82346 0
M  V30 3726 N 368.047 0.979072 1.23499 0
M  V30 3727 C 369.272 0.664845 1.96455 0
M  V30 3728 C 369.697 -0.761287 1.72006 0
M  V30 3729 O 369.055 -1.51837 0.990713 0
M  V30 3730 C 369.103 0.959479 3.47601 0
M  V30 3731 O 368.207 0.0508168 4.12369 0
M  V30 3732 H 367.548 0.250185 0.615064 0
M  V30 3733 H 370.078 1.31231 1.5697 0
M  V30 3734 H 370.088 0.895642 3.98048 0
M  V30 3735 H 368.763 1.99876 3.64723 0
M  V30 3736 H 367.34 0.16895 3.72517 0
M  V30 3737 N 369.525 -1.3858 0.750561 0
M  V30 3738 C 370.75 -2.04997 0.314812 0
M  V30 3739 C 371.175 -1.56235 -1.04749 0
M  V30 3740 O 370.533 -0.712981 -1.66692 0
M  V30 3741 C 370.581 -3.58961 0.343415 0
M  V30 3742 O 369.685 -4.07025 -0.663628 0
M  V30 3743 H 369.026 -0.649081 0.139962 0
M  V30 3744 H 371.556 -1.77313 1.02084 0
M  V30 3745 H 371.566 -4.07542 0.193233 0
M  V30 3746 H 370.241 -3.93811 1.33738 0
M  V30 3747 H 368.818 -3.6982 -0.478307 0
M  V30 3748 N 371.003 -0.499398 -1.49478 0
M  V30 3749 C 371.933 0.269244 -2.31943 0
M  V30 3750 C 372.914 0.964054 -1.40143 0
M  V30 3751 O 374.099 0.955767 -1.69052 0
M  V30 3752 C 371.229 1.33504 -3.20615 0
M  V30 3753 C 370.183 0.760202 -4.21195 0
M  V30 3754 C 369.509 1.9264 -4.98792 0
M  V30 3755 C 370.809 -0.247661 -5.21712 0
M  V30 3756 H 372.503 -0.419082 -2.96452 0
M  V30 3757 H 370.049 -0.202988 -1.42562 0
M  V30 3758 H 372.002 1.88048 -3.77115 0
M  V30 3759 H 370.726 2.05253 -2.54045 0
M  V30 3760 H 369.385 0.23653 -3.65836 0
M  V30 3761 H 369.033 2.63154 -4.28671 0
M  V30 3762 H 368.733 1.54785 -5.66847 0
M  V30 3763 H 370.257 2.4762 -5.58137 0
M  V30 3764 H 371.671 0.209579 -5.72917 0
M  V30 3765 H 370.068 -0.541962 -5.97648 0
M  V30 3766 H 371.138 -1.16409 -4.7072 0
M  V30 3767 N 372.481 1.55866 -0.233164 0
M  V30 3768 C 373.706 2.03449 0.402906 0
M  V30 3769 C 374.131 1.11166 1.51736 0
M  V30 3770 O 373.489 0.101996 1.81013 0
M  V30 3771 C 373.537 3.49165 0.9009 0
M  V30 3772 O 372.641 3.60019 2.01147 0
M  V30 3773 H 371.982 0.657913 0.0897025 0
M  V30 3774 H 374.512 2.01493 -0.355201 0
M  V30 3775 H 374.522 3.89716 1.2077 0
M  V30 3776 H 373.197 4.15813 0.0852889 0
M  V30 3777 H 371.774 3.3136 1.71042 0
M  V30 3778 N 373.959 -0.0401083 1.57549 0
M  V30 3779 C 374.889 -1.04384 2.08869 0
M  V30 3780 C 375.87 -1.38407 0.988817 0
M  V30 3781 O 377.055 -1.47483 1.26342 0
M  V30 3782 C 374.185 -2.34808 2.55895 0
M  V30 3783 C 373.139 -2.15057 3.70047 0
M  V30 3784 C 372.465 -3.51145 4.03239 0
M  V30 3785 C 373.765 -1.54576 4.98902 0
M  V30 3786 H 375.459 -0.616666 2.92981 0
M  V30 3787 H 373.005 -0.295184 1.40942 0
M  V30 3788 H 374.958 -3.05346 2.90417 0
M  V30 3789 H 373.682 -2.79565 1.68853 0
M  V30 3790 H 372.341 -1.46954 3.35857 0
M  V30 3791 H 371.989 -3.93529 3.13279 0
M  V30 3792 H 371.689 -3.38758 4.80122 0
M  V30 3793 H 373.213 -4.23062 4.40285 0
M  V30 3794 H 374.627 -2.15017 5.31451 0
M  V30 3795 H 373.024 -1.52796 5.80322 0
M  V30 3796 H 374.094 -0.51039 4.82206 0
M  V30 3797 N 375.437 -1.54477 -0.31217 0
M  V30 3798 C 376.662 -1.77526 -1.07235 0
M  V30 3799 C 377.087 -0.527775 -1.80544 0
M  V30 3800 O 376.445 0.52121 -1.73646 0
M  V30 3801 C 376.493 -2.97535 -2.03728 0
M  V30 3802 O 375.597 -2.69878 -3.11833 0
M  V30 3803 H 374.938 -0.58792 -0.30862 0
M  V30 3804 H 377.468 -2.01532 -0.352993 0
M  V30 3805 H 377.478 -3.25198 -2.46395 0
M  V30 3806 H 376.153 -3.87996 -1.49774 0
M  V30 3807 H 374.73 -2.53199 -2.7376 0
M  V30 3808 N 376.915 0.57481 -1.46744 0
M  V30 3809 C 378.192 1.3352 -1.4294 0
M  V30 3810 C 378.572 2.10775 -0.117009 0
M  V30 3811 O 377.92 2.09966 0.901474 0
M  V30 3812 C 378.13 2.25456 -2.66403 0
M  V30 3813 C 379.478 2.87035 -3.12883 0
M  V30 3814 O 380.502 2.35766 -2.67007 0
M  V30 3815 O 379.361 3.80179 -3.92589 0
M  V30 3816 H 376.455 0.600318 -0.568812 0
M  V30 3817 H 379.001 0.595171 -1.58921 0
M  V30 3818 H 377.773 1.67851 -3.53471 0
M  V30 3819 H 377.396 3.06785 -2.52921 0
M  V30 3820 N 378.394 1.34581 0.820102 0
M  V30 3821 C 379.326 1.22236 1.93884 0
M  V30 3822 C 380.339 0.148776 1.62119 0
M  V30 3823 O 381.528 0.400877 1.7394 0
M  V30 3824 C 378.628 0.856542 3.27897 0
M  V30 3825 C 377.801 2.02569 3.87666 0
M  V30 3826 C 376.86 1.63782 5.00062 0
M  V30 3827 O 375.886 2.35477 5.18208 0
M  V30 3828 N 377.088 0.553611 5.77854 0
M  V30 3829 H 379.853 2.18615 2.05006 0
M  V30 3830 H 377.414 1.27573 0.99683 0
M  V30 3831 H 379.406 0.578806 4.0054 0
M  V30 3832 H 377.976 -0.0171518 3.12595 0
M  V30 3833 H 377.196 2.468 3.07382 0
M  V30 3834 H 378.484 2.80752 4.24329 0
M  V30 3835 H 377.882 -0.0423528 5.65684 0
M  V30 3836 H 376.439 0.335614 6.50935 0
M  V30 3837 N 379.872 -1.04064 1.18357 0
M  V30 3838 C 380.805 -2.11618 0.854 0
M  V30 3839 C 381.783 -1.61555 -0.184043 0
M  V30 3840 O 382.967 -1.88395 -0.0630048 0
M  V30 3841 C 380.094 -3.37574 0.27597 0
M  V30 3842 C 379.14 -4.06485 1.2912 0
M  V30 3843 S 379.973 -4.53543 2.84709 0
M  V30 3844 C 381.129 -5.82732 2.28417 0
M  V30 3845 H 381.362 -2.39247 1.76488 0
M  V30 3846 H 378.895 -1.16832 1.00944 0
M  V30 3847 H 380.853 -4.10468 -0.051026 0
M  V30 3848 H 379.514 -3.0806 -0.613028 0
M  V30 3849 H 378.707 -4.97024 0.835633 0
M  V30 3850 H 378.309 -3.39708 1.56443 0
M  V30 3851 H 380.601 -6.56677 1.66677 0
M  V30 3852 H 381.544 -6.33052 3.17256 0
M  V30 3853 H 381.952 -5.37838 1.71436 0
M  V30 3854 N 381.35 -0.985608 -1.22978 0
M  V30 3855 C 382.575 -0.675254 -1.961 0
M  V30 3856 C 383 0.752154 -1.72407 0
M  V30 3857 O 382.358 1.5131 -0.998751 0
M  V30 3858 C 382.406 -0.977899 -3.47087 0
M  V30 3859 O 381.51 -0.072685 -4.12336 0
M  V30 3860 H 380.851 -0.253443 -0.613728 0
M  V30 3861 H 383.381 -1.32061 -1.56272 0
M  V30 3862 H 383.391 -0.916739 -3.97567 0
M  V30 3863 H 382.066 -2.01807 -3.63657 0
M  V30 3864 H 380.643 -0.188703 -3.72422 0
M  V30 3865 N 382.828 1.3818 -0.7579 0
M  V30 3866 C 384.074 2.00316 -0.316453 0
M  V30 3867 C 384.407 1.60026 1.10025 0
M  V30 3868 O 383.682 0.839835 1.75434 0
M  V30 3869 C 383.965 3.57349 -0.444245 0
M  V30 3870 C 383.818 4.07591 -1.90236 0
M  V30 3871 C 385.137 4.3981 0.1598 0
M  V30 3872 H 382.256 0.727741 -0.116459 0
M  V30 3873 H 384.898 1.6406 -0.958352 0
M  V30 3874 H 383.048 3.88365 0.102233 0
M  V30 3875 H 384.72 3.87199 -2.50748 0
M  V30 3876 H 382.963 3.60297 -2.41595 0
M  V30 3877 H 383.634 5.16677 -1.94291 0
M  V30 3878 H 386.11 4.14971 -0.306314 0
M  V30 3879 H 384.986 5.48885 0.0401675 0
M  V30 3880 H 385.247 4.24102 1.24859 0
M  V30 3881 N 384.306 0.507319 1.49211 0
M  V30 3882 C 385.236 -0.256939 2.32082 0
M  V30 3883 C 386.217 -0.956609 1.40652 0
M  V30 3884 O 387.402 -0.946788 1.69557 0
M  V30 3885 C 384.532 -1.31802 3.21318 0
M  V30 3886 C 383.486 -0.737855 4.21592 0
M  V30 3887 C 382.812 -1.89992 4.99807 0
M  V30 3888 C 384.112 0.275325 5.21574 0
M  V30 3889 H 385.806 0.434798 2.96226 0
M  V30 3890 H 383.352 0.210546 1.42452 0
M  V30 3891 H 385.305 -1.86045 3.78107 0
M  V30 3892 H 384.029 -2.03903 2.5513 0
M  V30 3893 H 382.688 -0.217126 3.65956 0
M  V30 3894 H 382.336 -2.60877 4.30061 0
M  V30 3895 H 382.036 -1.51777 5.6766 0
M  V30 3896 H 383.56 -2.44657 5.59442 0
M  V30 3897 H 384.974 -0.179193 5.7302 0
M  V30 3898 H 383.371 0.573649 5.97352 0
M  V30 3899 H 384.441 1.18903 4.70096 0
M  V30 3900 N 385.784 -1.5574 0.241426 0
M  V30 3901 C 386.716 -2.18469 -0.693091 0
M  V30 3902 C 387.729 -1.15942 -1.14286 0
M  V30 3903 O 388.918 -1.42832 -1.07058 0
M  V30 3904 C 386.018 -2.7696 -1.95311 0
M  V30 3905 C 385.191 -4.04853 -1.65568 0
M  V30 3906 C 384.25 -4.47715 -2.76474 0
M  V30 3907 O 383.276 -5.14205 -2.44094 0
M  V30 3908 N 384.478 -4.15044 -4.05855 0
M  V30 3909 H 387.243 -2.99292 -0.156388 0
M  V30 3910 H 384.804 -1.61784 0.0611752 0
M  V30 3911 H 386.796 -3.02594 -2.68736 0
M  V30 3912 H 385.366 -2.00326 -2.39975 0
M  V30 3913 H 384.586 -3.86865 -0.756886 0
M  V30 3914 H 385.874 -4.88246 -1.43153 0
M  V30 3915 H 385.272 -3.61654 -4.34998 0
M  V30 3916 H 383.829 -4.45526 -4.75762 0
M  V30 3917 N 387.262 0.0317525 -1.57568 0
M  V30 3918 C 388.487 0.738664 -1.938 0
M  V30 3919 C 388.912 1.68242 -0.841208 0
M  V30 3920 O 388.27 1.80157 0.203267 0
M  V30 3921 C 388.318 1.47417 -3.29091 0
M  V30 3922 O 387.422 2.5872 -3.2115 0
M  V30 3923 H 386.763 0.198856 -0.633524 0
M  V30 3924 H 389.293 -0.0119713 -2.04596 0
M  V30 3925 H 389.303 1.84468 -3.63917 0
M  V30 3926 H 387.978 0.781988 -4.08482 0
M  V30 3927 H 386.555 2.24231 -2.97951 0
M  V30 3928 N 388.74 1.54641 0.303973 0
M  V30 3929 C 389.986 1.74038 1.04109 0
M  V30 3930 C 390.319 0.523051 1.87024 0
M  V30 3931 O 389.594 -0.479874 1.88487 0
M  V30 3932 C 389.877 3.02761 1.94955 0
M  V30 3933 C 389.73 4.34787 1.1524 0
M  V30 3934 C 391.049 3.27336 2.94175 0
M  V30 3935 H 388.168 0.63323 0.377079 0
M  V30 3936 H 390.81 1.87354 0.316001 0
M  V30 3937 H 388.96 2.9154 2.56782 0
M  V30 3938 H 390.632 4.57922 0.557236 0
M  V30 3939 H 388.875 4.31407 0.455053 0
M  V30 3940 H 389.546 5.21116 1.8205 0
M  V30 3941 H 392.022 3.38148 2.42477 0
M  V30 3942 H 390.898 4.18726 3.54908 0
M  V30 3943 H 391.159 2.45491 3.67677 0
M  V30 3944 N 390.218 -0.567019 1.47046 0
M  V30 3945 C 391.464 -1.32434 1.54379 0
M  V30 3946 C 391.819 -1.91365 0.199276 0
M  V30 3947 O 391.112 -1.74378 -0.793915 0
M  V30 3948 C 391.306 -2.4623 2.59047 0
M  V30 3949 C 391.135 -1.98448 4.03545 0
M  V30 3950 C 389.905 -1.82741 4.71098 0
M  V30 3951 C 392.103 -1.53477 4.90866 0
M  V30 3952 N 390.085 -1.29196 6.00151 0
M  V30 3953 C 391.456 -1.1163 6.09868 0
M  V30 3954 C 393.511 -1.41438 4.77388 0
M  V30 3955 C 392.214 -0.589425 7.16881 0
M  V30 3956 C 394.24 -0.901528 5.84488 0
M  V30 3957 C 393.602 -0.492932 7.02673 0
M  V30 3958 H 389.701 -0.477005 0.61967 0
M  V30 3959 H 392.285 -0.643856 1.83746 0
M  V30 3960 H 390.456 -3.11821 2.31564 0
M  V30 3961 H 392.188 -3.13213 2.56281 0
M  V30 3962 H 388.943 -2.05162 4.26855 0
M  V30 3963 H 389.367 -1.0454 6.6888 0
M  V30 3964 H 394.009 -1.71643 3.86392 0
M  V30 3965 H 391.727 -0.274994 8.07632 0
M  V30 3966 H 395.313 -0.812071 5.76105 0
M  V30 3967 H 394.193 -0.102227 7.84133 0
M  V30 3968 N 391.696 -1.35014 -0.812953 0
M  V30 3969 C 392.629 -1.21761 -1.93001 0
M  V30 3970 C 393.607 -0.10694 -1.62248 0
M  V30 3971 O 394.791 -0.273891 -1.865 0
M  V30 3972 C 391.918 -0.873404 -3.27245 0
M  V30 3973 C 390.964 -1.99523 -3.76952 0
M  V30 3974 S 391.797 -3.61009 -3.95516 0
M  V30 3975 C 392.953 -3.28651 -5.32672 0
M  V30 3976 H 393.186 -2.16315 -2.03948 0
M  V30 3977 H 390.719 -1.20156 -0.969631 0
M  V30 3978 H 392.677 -0.68161 -4.04802 0
M  V30 3979 H 391.338 0.053971 -3.14054 0
M  V30 3980 H 390.531 -1.70838 -4.74163 0
M  V30 3981 H 390.133 -2.14503 -3.06373 0
M  V30 3982 H 392.425 -2.81085 -6.1644 0
M  V30 3983 H 393.368 -4.25039 -5.66346 0
M  V30 3984 H 393.776 -2.6458 -4.98656 0
M  V30 3985 N 393.175 1.03435 -1.18907 0
M  V30 3986 C 394.085 2.15075 -0.937015 0
M  V30 3987 C 395.101 1.73706 0.101085 0
M  V30 3988 O 396.277 2.01232 -0.0822948 0
M  V30 3989 C 393.342 3.43458 -0.473057 0
M  V30 3990 C 392.403 3.99172 -1.57989 0
M  V30 3991 C 391.636 5.21427 -1.13797 0
M  V30 3992 O 391.859 5.704 0.000725941 0
M  V30 3993 O 390.793 5.69837 -1.9383 0
M  V30 3994 H 394.619 2.39198 -1.87131 0
M  V30 3995 H 392.204 1.13506 -0.971427 0
M  V30 3996 H 394.086 4.20811 -0.222702 0
M  V30 3997 H 392.761 3.20793 0.432869 0
M  V30 3998 H 391.668 3.23178 -1.88433 0
M  V30 3999 H 393.001 4.2619 -2.46217 0
M  V30 4000 N 394.653 0.992116 1.22453 0
M  V30 4001 C 395.899 0.668523 1.91464 0
M  V30 4002 C 396.232 -0.797313 1.77078 0
M  V30 4003 O 395.507 -1.5765 1.13916 0
M  V30 4004 C 395.79 1.07424 3.43703 0
M  V30 4005 C 395.643 2.59857 3.67143 0
M  V30 4006 C 396.962 0.626891 4.35612 0
M  V30 4007 H 394.081 0.244341 0.695318 0
M  V30 4008 H 396.723 1.2355 1.44345 0
M  V30 4009 H 394.873 0.591816 3.83966 0
M  V30 4010 H 396.545 3.15764 3.3629 0
M  V30 4011 H 394.788 3.01961 3.11451 0
M  V30 4012 H 395.459 2.83296 4.73759 0
M  V30 4013 H 397.935 1.04125 4.02861 0
M  V30 4014 H 396.811 0.939076 5.40807 0
M  V30 4015 H 397.072 -0.472457 4.39568 0
M  V30 4016 N 396.131 -1.37776 0.765217 0
M  V30 4017 C 397.061 -2.32945 0.160953 0
M  V30 4018 C 398.042 -1.55454 -0.690516 0
M  V30 4019 O 399.227 -1.83721 -0.629318 0
M  V30 4020 C 396.357 -3.39669 -0.724031 0
M  V30 4021 C 395.311 -4.27992 0.0256173 0
M  V30 4022 C 394.637 -5.25673 -0.978383 0
M  V30 4023 C 395.937 -5.08309 1.20082 0
M  V30 4024 H 397.631 -2.83728 0.955969 0
M  V30 4025 H 395.177 -1.36416 0.461149 0
M  V30 4026 H 397.13 -4.05219 -1.15652 0
M  V30 4027 H 395.854 -2.87396 -1.5515 0
M  V30 4028 H 394.513 -3.63964 0.438812 0
M  V30 4029 H 394.161 -4.69682 -1.80022 0
M  V30 4030 H 393.861 -5.85625 -0.481378 0
M  V30 4031 H 395.385 -5.94098 -1.40995 0
M  V30 4032 H 396.799 -5.67034 0.845307 0
M  V30 4033 H 395.196 -5.77554 1.62947 0
M  V30 4034 H 396.266 -4.41365 2.00811 0
M  V30 4035 N 397.609 -0.515225 -1.4894 0
M  V30 4036 C 398.855 0.0242508 -2.02785 0
M  V30 4037 C 399.188 1.35323 -1.39289 0
M  V30 4038 O 398.463 1.87041 -0.533469 0
M  V30 4039 C 398.746 0.16184 -3.59736 0
M  V30 4040 C 398.599 -1.19127 -4.33738 0
M  V30 4041 C 399.918 0.895719 -4.30888 0
M  V30 4042 H 397.037 0.00733914 -0.736963 0
M  V30 4043 H 399.679 -0.669395 -1.77818 0
M  V30 4044 H 397.829 0.752624 -3.8114 0
M  V30 4045 H 399.501 -1.82202 -4.23792 0
M  V30 4046 H 397.744 -1.77695 -3.95736 0
M  V30 4047 H 398.415 -1.04815 -5.41957 0
M  V30 4048 H 400.891 0.394528 -4.14225 0
M  V30 4049 H 399.767 0.960859 -5.40425 0
M  V30 4050 H 400.028 1.9427 -3.97129 0
M  V30 4051 N 399.087 1.5561 -0.249682 0
M  V30 4052 C 400.017 2.24477 0.642826 0
M  V30 4053 C 400.998 1.22601 1.17911 0
M  V30 4054 O 402.183 1.5126 1.21795 0
M  V30 4055 C 399.313 2.94638 1.83863 0
M  V30 4056 C 398.267 4.03227 1.435 0
M  V30 4057 C 397.593 4.60828 2.71186 0
M  V30 4058 C 398.893 5.18796 0.604002 0
M  V30 4059 H 400.587 2.99321 0.0685625 0
M  V30 4060 H 398.133 1.43965 0.0315363 0
M  V30 4061 H 400.086 3.41517 2.46868 0
M  V30 4062 H 398.81 2.17287 2.43832 0
M  V30 4063 H 397.469 3.57121 0.828275 0
M  V30 4064 H 397.117 3.80174 3.29358 0
M  V30 4065 H 396.817 5.34132 2.44901 0
M  V30 4066 H 398.341 5.10442 3.35084 0
M  V30 4067 H 399.755 5.61883 1.13842 0
M  V30 4068 H 398.152 5.98506 0.437097 0
M  V30 4069 H 399.222 4.83384 -0.383147 0
M  V30 4070 N 400.565 -0.0233959 1.57583 0
M  V30 4071 C 401.813 -0.711654 1.89156 0
M  V30 4072 C 402.134 -1.75591 0.848096 0
M  V30 4073 O 401.404 -1.95547 -0.117566 0
M  V30 4074 H 399.984 -0.265835 0.698098 0
M  V30 4075 H 402.646 0.0119948 1.94896 0
M  V30 4076 H 401.742 -1.19766 2.88206 0
M  V30 4077 N 402.043 -1.548 -0.295768 0
M  V30 4078 C 403.289 -1.74588 -1.03184 0
M  V30 4079 C 403.622 -0.532962 -1.86744 0
M  V30 4080 O 402.897 0.469872 -1.88739 0
M  V30 4081 C 403.18 -3.03791 -1.93347 0
M  V30 4082 C 403.033 -4.35392 -1.12933 0
M  V30 4083 C 404.352 -3.28892 -2.92435 0
M  V30 4084 H 401.471 -0.635221 -0.373715 0
M  V30 4085 H 404.113 -1.87519 -0.30606 0
M  V30 4086 H 402.263 -2.92898 -2.55232 0
M  V30 4087 H 403.935 -4.58211 -0.532943 0
M  V30 4088 H 402.178 -4.31642 -0.432168 0
M  V30 4089 H 402.849 -5.22074 -1.79284 0
M  V30 4090 H 405.325 -3.39429 -2.4068 0
M  V30 4091 H 404.201 -4.20603 -3.52682 0
M  V30 4092 H 404.462 -2.47437 -3.6637 0
M  V30 4093 N 403.521 0.559213 -1.47345 0
M  V30 4094 C 404.484 1.64854 -1.59235 0
M  V30 4095 C 405.484 1.53851 -0.467607 0
M  V30 4096 O 406.674 1.58045 -0.732617 0
M  V30 4097 C 403.806 3.04388 -1.53496 0
M  V30 4098 H 404.999 1.55662 -2.56339 0
M  V30 4099 H 402.552 0.778973 -1.35505 0
M  V30 4100 H 403.287 3.19115 -0.577604 0
M  V30 4101 H 403.072 3.13783 -2.35123 0
M  V30 4102 H 404.562 3.83642 -1.6495 0
M  V30 4103 N 404.999 1.35443 0.805782 0
M  V30 4104 C 405.931 1.24285 1.92577 0
M  V30 4105 C 406.944 0.165962 1.61952 0
M  V30 4106 O 408.133 0.419303 1.73505 0
M  V30 4107 C 405.233 0.891272 3.2697 0
M  V30 4108 C 404.406 2.06669 3.85495 0
M  V30 4109 C 403.465 1.69077 4.98297 0
M  V30 4110 O 402.491 2.4096 5.15681 0
M  V30 4111 N 403.693 0.614869 5.77234 0
M  V30 4112 H 406.458 2.20777 2.02676 0
M  V30 4113 H 404.019 1.28623 0.983243 0
M  V30 4114 H 406.011 0.621256 3.99903 0
M  V30 4115 H 404.581 0.016004 3.12596 0
M  V30 4116 H 403.801 2.50046 3.04747 0
M  V30 4117 H 405.089 2.85237 4.21328 0
M  V30 4118 H 404.487 0.017648 5.65697 0
M  V30 4119 H 403.044 0.404636 6.50543 0
M  V30 4120 N 406.477 -1.02803 1.19454 0
M  V30 4121 C 407.893 -1.28473 0.946937 0
M  V30 4122 C 408.093 -1.97881 -0.380202 0
M  V30 4123 O 407.149 -2.26719 -1.11151 0
M  V30 4124 C 408.462 -2.13099 2.12154 0
M  V30 4125 C 410.01 -2.26404 2.16126 0
M  V30 4126 C 410.485 -3.14402 3.33039 0
M  V30 4127 N 411.976 -3.21991 3.32981 0
M  V30 4128 C 412.711 -3.90272 4.20089 0
M  V30 4129 N 412.207 -4.60777 5.17355 0
M  V30 4130 N 414 -3.8668 4.07964 0
M  V30 4131 H 406.151 -0.561665 2.04839 0
M  V30 4132 H 408.414 -0.310438 0.89573 0
M  V30 4133 H 408.12 -1.69422 3.08203 0
M  V30 4134 H 407.994 -3.13813 2.09287 0
M  V30 4135 H 410.381 -2.69311 1.20647 0
M  V30 4136 H 410.462 -1.25237 2.23045 0
M  V30 4137 H 410.106 -2.72204 4.28798 0
M  V30 4138 H 410.036 -4.1563 3.23356 0
M  V30 4139 H 412.527 -2.71778 2.62574 0
M  V30 4140 H 412.84 -5.10513 5.80169 0
M  V30 4141 H 411.185 -4.5964 5.21302 0
M  V30 4142 H 414.376 -3.30739 3.31254 0
M  V30 4143 H 414.549 -4.39621 4.76064 0
M  V30 4144 N 407.956 -0.998596 -1.21925 0
M  V30 4145 C 409.181 -0.696015 -1.95372 0
M  V30 4146 C 409.606 0.733826 -1.73195 0
M  V30 4147 O 408.964 1.50242 -1.01474 0
M  V30 4148 C 409.012 -1.01466 -3.4603 0
M  V30 4149 O 408.116 -0.116415 -4.12236 0
M  V30 4150 H 407.457 -0.259938 -0.611006 0
M  V30 4151 H 409.987 -1.33711 -1.54863 0
M  V30 4152 H 409.997 -0.958855 -3.96573 0
M  V30 4153 H 408.672 -2.05653 -3.61497 0
M  V30 4154 H 407.249 -0.228193 -3.72201 0
M  V30 4155 N 409.434 1.37368 -0.772513 0
M  V30 4156 C 410.364 2.32856 -0.173304 0
M  V30 4157 C 411.345 1.55818 0.682262 0
M  V30 4158 O 412.53 1.84052 0.619566 0
M  V30 4159 C 409.66 3.40048 0.706007 0
M  V30 4160 C 408.614 4.27973 -0.0483144 0
M  V30 4161 C 407.94 5.26184 0.950491 0
M  V30 4162 C 409.24 5.07665 -1.22776 0
M  V30 4163 H 410.934 2.83217 -0.971002 0
M  V30 4164 H 408.48 1.3617 -0.468377 0
M  V30 4165 H 410.433 4.05827 1.13501 0
M  V30 4166 H 409.157 2.88214 1.53623 0
M  V30 4167 H 407.816 3.63726 -0.458107 0
M  V30 4168 H 407.464 4.7063 1.77529 0
M  V30 4169 H 407.164 5.85872 0.450314 0
M  V30 4170 H 408.688 5.94838 1.37842 0
M  V30 4171 H 410.102 5.66578 -0.875366 0
M  V30 4172 H 408.499 5.76681 -1.66007 0
M  V30 4173 H 409.569 4.40294 -2.03149 0
M  V30 4174 N 410.912 0.523116 1.48665 0
M  V30 4175 C 412.323 0.0808997 1.86525 0
M  V30 4176 C 412.674 -1.33975 1.43336 0
M  V30 4177 O 411.799 -2.00221 0.821009 0
M  V30 4178 C 412.394 0.140037 3.3851 0
M  V30 4179 C 410.953 -0.246948 3.75589 0
M  V30 4180 C 410.1 0.502845 2.72703 0
M  V30 4181 H 413.051 0.734736 1.40667 0
M  V30 4182 H 413.072 -0.649945 3.74908 0
M  V30 4183 H 412.584 1.17412 3.69914 0
M  V30 4184 H 410.685 -1.28343 3.49798 0
M  V30 4185 H 410.798 0.0878859 4.79019 0
M  V30 4186 H 409.162 -0.0500581 2.54651 0
M  V30 4187 H 409.945 1.53743 3.0695 0
M  V30 4188 N 412.39 -1.55475 0.257931 0
M  V30 4189 C 413.32 -2.24815 -0.630912 0
M  V30 4190 C 414.301 -1.23224 -1.17259 0
M  V30 4191 O 415.486 -1.51904 -1.20991 0
M  V30 4192 C 412.616 -2.95609 -1.82298 0
M  V30 4193 C 411.57 -4.03982 -1.41359 0
M  V30 4194 C 410.896 -4.6226 -2.68738 0
M  V30 4195 C 412.196 -5.19109 -0.57648 0
M  V30 4196 H 413.89 -2.99354 -0.0526878 0
M  V30 4197 H 411.436 -1.4398 -0.023901 0
M  V30 4198 H 413.389 -3.42822 -2.45054 0
M  V30 4199 H 412.113 -2.18577 -2.42676 0
M  V30 4200 H 410.772 -3.57555 -0.809324 0
M  V30 4201 H 410.42 -3.81915 -3.27338 0
M  V30 4202 H 410.12 -5.35424 -2.42065 0
M  V30 4203 H 411.644 -5.12212 -3.32372 0
M  V30 4204 H 413.058 -5.62479 -1.10861 0
M  V30 4205 H 411.455 -5.98729 -0.405351 0
M  V30 4206 H 412.525 -4.83174 0.408776 0
M  V30 4207 N 413.868 0.0150385 -1.57593 0
M  V30 4208 C 414.8 1.03912 -2.04291 0
M  V30 4209 C 415.813 1.31618 -0.958146 0
M  V30 4210 O 417.002 1.28859 -1.23522 0
M  V30 4211 C 414.102 2.37749 -2.41514 0
M  V30 4212 C 413.275 2.29198 -3.72541 0
M  V30 4213 C 412.334 3.45598 -3.96797 0
M  V30 4214 O 411.36 3.24461 -4.67668 0
M  V30 4215 N 412.562 4.67945 -3.43523 0
M  V30 4216 H 415.327 0.64099 -2.92765 0
M  V30 4217 H 412.888 0.20272 -1.60626 0
M  V30 4218 H 414.88 3.14364 -2.54867 0
M  V30 4219 H 413.45 2.69357 -1.58637 0
M  V30 4220 H 412.67 1.3759 -3.69408 0
M  V30 4221 H 413.958 2.20642 -4.5847 0
M  V30 4222 H 413.356 4.88017 -2.86104 0
M  V30 4223 H 411.913 5.41878 -3.62232 0
M  V30 4224 N 415.346 1.54954 0.287554 0
M  V30 4225 C 416.623 1.65569 1.04146 0
M  V30 4226 C 417.003 0.512672 2.0478 0
M  V30 4227 O 416.351 -0.489038 2.23205 0
M  V30 4228 C 416.561 3.04163 1.71131 0
M  V30 4229 C 417.909 3.61429 2.22832 0
M  V30 4230 O 418.933 3.06702 1.81141 0
M  V30 4231 O 417.792 4.57281 2.9926 0
M  V30 4232 H 414.886 0.671881 0.482188 0
M  V30 4233 H 417.432 1.67297 0.28457 0
M  V30 4234 H 416.204 3.78796 0.981303 0
M  V30 4235 H 415.827 3.06271 2.53543 0
M  V30 4236 N 416.824 -0.551391 1.4764 0
M  V30 4237 C 417.734 -1.68525 1.63207 0
M  V30 4238 C 418.75 -1.6621 0.514815 0
M  V30 4239 O 419.926 -1.85551 0.783113 0
M  V30 4240 C 416.991 -3.05025 1.64805 0
M  V30 4241 C 416.052 -3.18362 2.88 0
M  V30 4242 C 415.285 -4.4835 2.89513 0
M  V30 4243 O 415.508 -5.34163 2.00065 0
M  V30 4244 O 414.442 -4.65602 3.81443 0
M  V30 4245 H 418.268 -1.58333 2.59161 0
M  V30 4246 H 415.853 -0.722063 1.30792 0
M  V30 4247 H 417.735 -3.86245 1.68502 0
M  V30 4248 H 416.41 -3.15587 0.720197 0
M  V30 4249 H 415.317 -2.36518 2.89845 0
M  V30 4250 H 416.65 -3.12707 3.80099 0
M  V30 4251 N 418.302 -1.35869 -0.798587 0
M  V30 4252 C 419.232 -1.32118 -1.92528 0
M  V30 4253 C 420.213 -0.194209 -1.68988 0
M  V30 4254 O 421.398 -0.390426 -1.90235 0
M  V30 4255 C 418.528 -1.10047 -3.29404 0
M  V30 4256 C 417.482 -2.19471 -3.67446 0
M  V30 4257 C 416.808 -1.82555 -5.02571 0
M  V30 4258 C 418.108 -3.61495 -3.76987 0
M  V30 4259 H 419.802 -2.26394 -1.95924 0
M  V30 4260 H 417.348 -1.08981 -0.94123 0
M  V30 4261 H 419.301 -1.06061 -4.07835 0
M  V30 4262 H 418.025 -0.122195 -3.26371 0
M  V30 4263 H 416.684 -2.22568 -2.91306 0
M  V30 4264 H 416.332 -0.833249 -4.9605 0
M  V30 4265 H 416.032 -2.5581 -5.28995 0
M  V30 4266 H 417.556 -1.80108 -5.83432 0
M  V30 4267 H 418.97 -3.60676 -4.4563 0
M  V30 4268 H 417.367 -4.33577 -4.14887 0
M  V30 4269 H 418.437 -3.97065 -2.78329 0
M  V30 4270 N 419.78 1.02168 -1.19998 0
M  V30 4271 C 420.743 2.08765 -0.94604 0
M  V30 4272 C 421.743 1.60618 0.0763846 0
M  V30 4273 O 422.933 1.73472 -0.159135 0
M  V30 4274 C 420.065 3.38262 -0.423255 0
M  V30 4275 H 421.258 2.32726 -1.89153 0
M  V30 4276 H 418.811 1.1889 -1.01464 0
M  V30 4277 H 419.546 3.19974 0.527938 0
M  V30 4278 H 419.331 3.74532 -1.16053 0
M  V30 4279 H 420.821 4.16759 -0.264911 0
M  V30 4280 N 421.258 1.00505 1.21394 0
M  V30 4281 C 422.505 0.687774 1.90462 0
M  V30 4282 C 422.833 -0.78147 1.7811 0
M  V30 4283 O 422.088 -1.58208 1.1519 0
M  V30 4284 C 422.387 1.0546 3.41486 0
M  V30 4285 C 422.053 2.51812 3.74034 0
M  V30 4286 C 420.715 2.91804 3.82628 0
M  V30 4287 C 423.067 3.46614 3.8924 0
M  V30 4288 C 420.395 4.2556 4.03876 0
M  V30 4289 C 422.747 4.80044 4.11995 0
M  V30 4290 C 421.411 5.19759 4.18816 0
M  V30 4291 H 420.681 0.251674 0.696951 0
M  V30 4292 H 423.328 1.26349 1.43903 0
M  V30 4293 H 421.633 0.397133 3.89782 0
M  V30 4294 H 423.33 0.786976 3.93202 0
M  V30 4295 H 419.92 2.1982 3.67936 0
M  V30 4296 H 424.104 3.16883 3.81967 0
M  V30 4297 H 419.36 4.55901 4.07387 0
M  V30 4298 H 423.534 5.53439 4.22704 0
M  V30 4299 H 421.161 6.23418 4.35033 0
M  V30 4300 N 422.737 -1.36956 0.779787 0
M  V30 4301 C 423.7 -2.2851 0.177662 0
M  V30 4302 C 424.7 -1.48393 -0.619377 0
M  V30 4303 O 425.89 -1.68505 -0.441785 0
M  V30 4304 C 423.022 -3.32428 -0.755279 0
M  V30 4305 H 424.215 -2.83269 0.984823 0
M  V30 4306 H 421.768 -1.46358 0.548544 0
M  V30 4307 H 422.503 -2.82808 -1.58714 0
M  V30 4308 H 422.288 -3.91659 -0.185817 0
M  V30 4309 H 423.778 -4.00824 -1.17174 0
M  V30 4310 N 424.215 -0.530993 -1.48385 0
M  V30 4311 C 425.125 0.23503 -2.3342 0
M  V30 4312 C 426.141 0.93801 -1.46552 0
M  V30 4313 O 427.317 0.912745 -1.7953 0
M  V30 4314 C 424.382 1.26778 -3.22689 0
M  V30 4315 C 423.443 0.575038 -4.25431 0
M  V30 4316 C 422.676 1.55858 -5.10435 0
M  V30 4317 O 422.899 2.79129 -4.97437 0
M  V30 4318 O 421.833 1.09742 -5.91811 0
M  V30 4319 H 425.659 -0.461794 -3.00169 0
M  V30 4320 H 423.244 -0.291903 -1.46521 0
M  V30 4321 H 425.126 1.86457 -3.77904 0
M  V30 4322 H 423.801 1.94699 -2.586 0
M  V30 4323 H 422.708 -0.0622782 -3.74048 0
M  V30 4324 H 424.041 -0.062253 -4.92161 0
M  V30 4325 N 425.693 1.55336 -0.266172 0
M  V30 4326 C 426.97 1.91372 0.404486 0
M  V30 4327 C 427.35 1.18935 1.74407 0
M  V30 4328 O 426.698 0.3132 2.26343 0
M  V30 4329 C 426.908 3.44581 0.553593 0
M  V30 4330 C 428.256 4.16196 0.840618 0
M  V30 4331 O 429.28 3.50426 0.638739 0
M  V30 4332 O 428.139 5.32567 1.22618 0
M  V30 4333 H 425.233 0.797194 0.220025 0
M  V30 4334 H 427.779 1.66813 -0.311664 0
M  V30 4335 H 426.551 3.89357 -0.389498 0
M  V30 4336 H 426.174 3.75065 1.31955 0
M  V30 4337 N 427.171 -0.0066808 1.57599 0
M  V30 4338 C 428.101 -0.999296 2.11036 0
M  V30 4339 C 429.082 -1.36278 1.01795 0
M  V30 4340 O 430.267 -1.4477 1.29442 0
M  V30 4341 C 427.397 -2.29328 2.60818 0
M  V30 4342 C 426.351 -2.07159 3.74525 0
M  V30 4343 C 425.677 -3.42512 4.10596 0
M  V30 4344 C 426.977 -1.43959 5.02069 0
M  V30 4345 H 428.671 -0.554382 2.94223 0
M  V30 4346 H 426.217 -0.265221 1.41536 0
M  V30 4347 H 428.17 -2.99117 2.96828 0
M  V30 4348 H 426.894 -2.7592 1.74745 0
M  V30 4349 H 425.553 -1.39797 3.38899 0
M  V30 4350 H 425.201 -3.86795 3.21556 0
M  V30 4351 H 424.901 -3.28498 4.87199 0
M  V30 4352 H 426.425 -4.13628 4.4916 0
M  V30 4353 H 427.839 -2.03696 5.35893 0
M  V30 4354 H 426.236 -1.40452 5.83432 0
M  V30 4355 H 427.306 -0.407992 4.83181 0
M  V30 4356 N 428.649 -1.55105 -0.279332 0
M  V30 4357 C 429.895 -1.75672 -1.01327 0
M  V30 4358 C 430.228 -0.552739 -1.86168 0
M  V30 4359 O 429.503 0.449827 -1.89227 0
M  V30 4360 C 429.786 -3.05825 -1.90114 0
M  V30 4361 C 429.639 -4.36565 -1.08309 0
M  V30 4362 C 430.958 -3.31975 -2.8893 0
M  V30 4363 H 428.077 -0.639149 -0.366957 0
M  V30 4364 H 430.719 -1.87833 -0.286154 0
M  V30 4365 H 428.869 -2.95588 -2.52111 0
M  V30 4366 H 430.541 -4.58751 -0.484314 0
M  V30 4367 H 428.784 -4.32076 -0.386362 0
M  V30 4368 H 429.455 -5.23946 -1.73737 0
M  V30 4369 H 431.931 -3.41963 -2.37067 0
M  V30 4370 H 430.807 -4.2432 -3.48201 0
M  V30 4371 H 431.068 -2.51309 -3.63725 0
M  V30 4372 N 430.127 0.543554 -1.4793 0
M  V30 4373 C 431.057 1.65888 -1.64327 0
M  V30 4374 C 432.038 1.62818 -0.492383 0
M  V30 4375 O 433.223 1.80226 -0.723338 0
M  V30 4376 C 430.353 3.04506 -1.67013 0
M  V30 4377 C 429.307 3.2243 -2.81466 0
M  V30 4378 C 428.633 4.61972 -2.69233 0
M  V30 4379 C 429.933 3.06496 -4.22915 0
M  V30 4380 H 431.627 1.52421 -2.57698 0
M  V30 4381 H 429.173 0.731849 -1.24016 0
M  V30 4382 H 431.126 3.82391 -1.77074 0
M  V30 4383 H 429.85 3.18964 -0.70212 0
M  V30 4384 H 428.509 2.46957 -2.70938 0
M  V30 4385 H 428.157 4.73247 -1.7043 0
M  V30 4386 H 427.857 4.74911 -3.46025 0
M  V30 4387 H 429.381 5.41974 -2.81242 0
M  V30 4388 H 430.795 3.74186 -4.34348 0
M  V30 4389 H 429.192 3.30938 -5.006 0
M  V30 4390 H 430.262 2.03077 -4.40327 0
M  V30 4391 N 431.605 1.3629 0.791371 0
M  V30 4392 C 432.882 1.20962 1.53712 0
M  V30 4393 C 433.262 -0.205021 2.10102 0
M  V30 4394 O 432.61 -1.21042 1.93807 0
M  V30 4395 C 432.82 2.29002 2.63361 0
M  V30 4396 C 434.168 2.65572 3.31295 0
M  V30 4397 O 435.192 2.2803 2.73643 0
M  V30 4398 O 434.051 3.3018 4.35481 0
M  V30 4399 H 431.145 0.47086 0.679867 0
M  V30 4400 H 433.691 1.48016 0.830021 0
M  V30 4401 H 432.463 3.2382 2.19674 0
M  V30 4402 H 432.086 2.03303 3.41692 0
M  V30 4403 N 433.083 -1.0153 1.20538 0
M  V30 4404 C 433.993 -2.13557 0.971113 0
M  V30 4405 C 435.009 -1.73845 -0.0734366 0
M  V30 4406 O 436.185 -2.01075 0.114299 0
M  V30 4407 C 433.25 -3.42661 0.527639 0
M  V30 4408 C 432.311 -3.96608 1.64319 0
M  V30 4409 C 431.544 -5.1955 1.22078 0
M  V30 4410 O 431.767 -5.70329 0.0900198 0
M  V30 4411 O 430.701 -5.66681 2.02871 0
M  V30 4412 H 434.527 -2.3619 1.90913 0
M  V30 4413 H 432.112 -1.11946 0.989362 0
M  V30 4414 H 433.994 -4.20404 0.289621 0
M  V30 4415 H 432.669 -3.21441 -0.381779 0
M  V30 4416 H 431.576 -3.20139 1.93551 0
M  V30 4417 H 432.909 -4.22219 2.52966 0
M  V30 4418 N 434.561 -1.01147 -1.20859 0
M  V30 4419 C 435.471 -0.58686 -2.27141 0
M  V30 4420 C 436.487 0.373198 -1.69951 0
M  V30 4421 O 437.663 0.235423 -2.00019 0
M  V30 4422 C 434.728 0.0733602 -3.46622 0
M  V30 4423 C 433.789 -0.931995 -4.19061 0
M  V30 4424 C 433.022 -0.303186 -5.32838 0
M  V30 4425 O 433.245 0.898395 -5.63281 0
M  V30 4426 O 432.179 -1.01735 -5.9324 0
M  V30 4427 H 436.005 -1.47155 -2.65667 0
M  V30 4428 H 433.59 -0.780689 -1.2738 0
M  V30 4429 H 435.472 0.442333 -4.19072 0
M  V30 4430 H 434.147 0.932329 -3.09983 0
M  V30 4431 H 433.054 -1.35224 -3.48805 0
M  V30 4432 H 434.387 -1.76076 -4.59628 0
M  V30 4433 N 436.039 1.36541 -0.78704 0
M  V30 4434 C 437.287 1.98911 -0.357633 0
M  V30 4435 C 437.608 1.62778 1.07371 0
M  V30 4436 O 436.878 0.900612 1.73971 0
M  V30 4437 H 435.458 0.735734 -0.129246 0
M  V30 4438 H 438.12 1.66776 -1.00855 0
M  V30 4439 H 437.216 3.08874 -0.447549 0
M  V30 4440 N 437.518 0.538854 1.48102 0
M  V30 4441 C 438.481 -0.208395 2.28251 0
M  V30 4442 C 439.481 -0.859656 1.35892 0
M  V30 4443 O 440.671 -0.71834 1.58699 0
M  V30 4444 C 437.803 -1.30252 3.15035 0
M  V30 4445 H 438.996 0.495407 2.9578 0
M  V30 4446 H 436.549 0.295112 1.53489 0
M  V30 4447 H 437.284 -2.0393 2.52157 0
M  V30 4448 H 437.069 -0.840551 3.82985 0
M  V30 4449 H 438.559 -1.82787 3.75471 0
M  V30 4450 N 438.996 -1.55193 0.274407 0
M  V30 4451 C 440.412 -1.59401 -0.0797543 0
M  V30 4452 C 440.612 -1.29162 -1.54659 0
M  V30 4453 O 439.668 -1.05215 -2.29534 0
M  V30 4454 C 440.981 -2.99257 0.294238 0
M  V30 4455 C 442.529 -3.12072 0.240796 0
M  V30 4456 C 443.004 -4.54194 0.589218 0
M  V30 4457 N 444.495 -4.60033 0.540744 0
M  V30 4458 C 445.23 -5.68027 0.783147 0
M  V30 4459 N 444.726 -6.8417 1.09013 0
M  V30 4460 N 446.519 -5.57572 0.711993 0
M  V30 4461 H 438.67 -1.73113 1.23067 0
M  V30 4462 H 440.933 -0.807197 0.497129 0
M  V30 4463 H 440.639 -3.26217 1.31435 0
M  V30 4464 H 440.513 -3.75427 -0.365281 0
M  V30 4465 H 442.9 -2.84877 -0.770024 0
M  V30 4466 H 442.981 -2.38117 0.934563 0
M  V30 4467 H 442.625 -4.82115 1.59772 0
M  V30 4468 H 442.555 -5.26448 -0.126331 0
M  V30 4469 H 445.046 -3.76599 0.313327 0
M  V30 4470 H 445.359 -7.6243 1.26178 0
M  V30 4471 H 443.704 -6.85787 1.12789 0
M  V30 4472 H 446.895 -4.65714 0.472014 0
M  V30 4473 H 447.068 -6.41659 0.90429 0
M  V30 4474 N 440.474 -0.00167713 -1.576 0
M  V30 4475 C 441.437 0.974046 -2.07473 0
M  V30 4476 C 442.437 1.27143 -0.984444 0
M  V30 4477 O 443.627 1.21633 -1.24703 0
M  V30 4478 C 440.759 2.29849 -2.51759 0
M  V30 4479 H 441.952 0.54262 -2.9495 0
M  V30 4480 H 439.505 0.245829 -1.54355 0
M  V30 4481 H 440.24 2.77677 -1.67529 0
M  V30 4482 H 440.025 2.09584 -3.31386 0
M  V30 4483 H 441.515 2.9984 -2.90664 0
M  V30 4484 N 441.952 1.55251 0.271103 0
M  V30 4485 C 442.915 1.87484 1.31842 0
M  V30 4486 C 443.915 0.749545 1.42262 0
M  V30 4487 O 445.105 1.01771 1.4138 0
M  V30 4488 C 442.237 2.0818 2.69951 0
M  V30 4489 H 443.43 2.81108 1.0449 0
M  V30 4490 H 440.983 1.47771 0.509258 0
M  V30 4491 H 441.718 1.16944 3.02481 0
M  V30 4492 H 441.503 2.90114 2.63774 0
M  V30 4493 H 442.993 2.34385 3.4562 0
M  V30 4494 N 443.43 -0.535701 1.48216 0
M  V30 4495 C 444.678 -1.28928 1.55634 0
M  V30 4496 C 444.999 -1.93645 0.229514 0
M  V30 4497 O 444.269 -1.81038 -0.74846 0
M  V30 4498 H 442.849 -0.47884 0.573342 0
M  V30 4499 H 445.511 -0.623853 1.84646 0
M  V30 4500 H 444.607 -2.07157 2.33436 0
M  V30 4501 N 444.908 -1.36708 -0.784132 0
M  V30 4502 C 445.838 -1.34153 -1.91116 0
M  V30 4503 C 446.819 -0.212121 -1.68772 0
M  V30 4504 O 448.004 -0.410581 -1.8981 0
M  V30 4505 C 445.134 -1.13535 -3.28218 0
M  V30 4506 C 444.088 -2.23356 -3.65097 0
M  V30 4507 C 443.414 -1.87875 -5.00607 0
M  V30 4508 C 444.714 -3.65473 -3.73131 0
M  V30 4509 H 446.408 -2.28459 -1.93512 0
M  V30 4510 H 443.954 -1.09973 -0.929618 0
M  V30 4511 H 445.907 -1.10381 -4.06687 0
M  V30 4512 H 444.631 -0.156804 -3.26223 0
M  V30 4513 H 443.29 -2.25645 -2.88929 0
M  V30 4514 H 442.938 -0.885814 -4.95139 0
M  V30 4515 H 442.638 -2.61406 -5.26252 0
M  V30 4516 H 444.162 -1.86286 -5.81489 0
M  V30 4517 H 445.576 -3.65382 -4.41779 0
M  V30 4518 H 443.973 -4.37953 -4.10265 0
M  V30 4519 H 445.043 -3.99995 -2.74102 0
M  V30 4520 N 446.386 1.0089 -1.21074 0
M  V30 4521 C 447.634 1.74262 -1.02358 0
M  V30 4522 C 447.955 1.89869 0.444393 0
M  V30 4523 O 447.225 1.44677 1.32081 0
M  V30 4524 H 445.805 0.645615 -0.375754 0
M  V30 4525 H 448.467 1.21596 -1.52317 0
M  V30 4526 H 447.563 2.74328 -1.4883 0
M  V30 4527 N 447.864 1.01787 1.20321 0
M  V30 4528 C 448.774 0.598898 2.26827 0
M  V30 4529 C 449.79 -0.36418 1.70146 0
M  V30 4530 O 450.966 -0.224812 2.00141 0
M  V30 4531 C 448.031 -0.0549769 3.46656 0
M  V30 4532 C 447.092 0.954205 4.18561 0
M  V30 4533 C 446.325 0.331439 5.3267 0
M  V30 4534 O 446.548 -0.86851 5.63749 0
M  V30 4535 O 445.482 1.0488 5.92692 0
M  V30 4536 H 449.308 1.48562 2.64883 0
M  V30 4537 H 446.893 0.787434 1.26964 0
M  V30 4538 H 448.775 -0.420102 4.19301 0
M  V30 4539 H 447.45 -0.915876 3.10473 0
M  V30 4540 H 446.357 1.37072 3.48083 0
M  V30 4541 H 447.69 1.78511 4.58688 0
M  V30 4542 N 449.342 -1.36122 0.79427 0
M  V30 4543 C 450.272 -2.32551 0.210328 0
M  V30 4544 C 451.253 -1.56884 -0.657386 0
M  V30 4545 O 452.438 -1.85014 -0.590207 0
M  V30 4546 C 449.568 -3.41128 -0.651819 0
M  V30 4547 C 448.522 -4.27842 0.116395 0
M  V30 4548 C 447.848 -5.2763 -0.86666 0
M  V30 4549 C 449.148 -5.05647 1.30837 0
M  V30 4550 H 450.842 -2.81636 1.01594 0
M  V30 4551 H 448.388 -1.35407 0.489981 0
M  V30 4552 H 450.341 -4.07581 -1.07031 0
M  V30 4553 H 449.065 -2.90622 -1.49019 0
M  V30 4554 H 447.724 -3.62952 0.515915 0
M  V30 4555 H 447.372 -4.73395 -1.70019 0
M  V30 4556 H 447.072 -5.86514 -0.35705 0
M  V30 4557 H 448.596 -5.96955 -1.28361 0
M  V30 4558 H 450.01 -5.65113 0.965393 0
M  V30 4559 H 448.407 -5.73967 1.75161 0
M  V30 4560 H 449.477 -4.37006 2.10128 0
M  V30 4561 N 450.82 -0.546701 -1.47814 0
M  V30 4562 C 452.068 -0.0187037 -2.02091 0
M  V30 4563 C 452.389 1.33168 -1.42447 0
M  V30 4564 O 451.659 1.86619 -0.595839 0
M  V30 4565 H 450.239 -0.00392531 -0.74699 0
M  V30 4566 H 452.901 -0.714327 -1.81338 0
M  V30 4567 H 451.997 0.0772219 -3.12004 0
M  V30 4568 N 452.299 1.55045 -0.282633 0
M  V30 4569 C 453.262 2.21515 0.588539 0
M  V30 4570 C 454.262 1.19535 1.07554 0
M  V30 4571 O 455.452 1.44391 0.974514 0
M  V30 4572 C 452.584 2.88704 1.8128 0
M  V30 4573 H 453.777 2.99899 0.00806397 0
M  V30 4574 H 451.33 1.56265 -0.0333067 0
M  V30 4575 H 452.065 2.14352 2.43359 0
M  V30 4576 H 451.85 3.63443 1.47144 0
M  V30 4577 H 453.34 3.39465 2.43214 0
M  V30 4578 N 453.777 0.010035 1.57597 0
M  V30 4579 C 454.74 -0.963029 2.07986 0
M  V30 4580 C 455.74 -1.26619 0.991173 0
M  V30 4581 O 456.93 -1.2097 1.25347 0
M  V30 4582 C 454.062 -2.2851 2.52974 0
M  V30 4583 H 455.255 -0.526971 2.95234 0
M  V30 4584 H 452.808 -0.237639 1.54483 0
M  V30 4585 H 453.543 -2.76784 1.69 0
M  V30 4586 H 453.328 -2.07824 3.32493 0
M  V30 4587 H 454.818 -2.98294 2.9225 0
M  V30 4588 N 455.255 -1.55392 -0.262866 0
M  V30 4589 C 456.185 -1.91978 -1.32917 0
M  V30 4590 C 457.166 -0.7828 -1.51017 0
M  V30 4591 O 458.351 -1.04178 -1.63892 0
M  V30 4592 C 455.481 -2.20055 -2.68687 0
M  V30 4593 C 454.435 -3.35854 -2.65304 0
M  V30 4594 C 453.761 -3.49435 -4.04721 0
M  V30 4595 C 455.061 -4.71977 -2.23685 0
M  V30 4596 H 456.755 -2.81292 -1.02544 0
M  V30 4597 H 454.301 -1.3534 -0.491846 0
M  V30 4598 H 456.254 -2.44237 -3.43404 0
M  V30 4599 H 454.978 -1.27551 -3.00663 0
M  V30 4600 H 453.637 -3.11655 -1.93045 0
M  V30 4601 H 453.285 -2.54379 -4.33936 0
M  V30 4602 H 452.985 -4.27297 -4.0335 0
M  V30 4603 H 454.509 -3.7592 -4.81161 0
M  V30 4604 H 455.923 -4.95637 -2.88127 0
M  V30 4605 H 454.32 -5.52828 -2.33456 0
M  V30 4606 H 455.39 -4.70115 -1.18827 0
M  V30 4607 N 456.733 0.527833 -1.48498 0
M  V30 4608 C 457.663 1.64136 -1.66077 0
M  V30 4609 C 458.644 1.62286 -0.509625 0
M  V30 4610 O 459.829 1.79449 -0.742413 0
M  V30 4611 C 456.959 3.02717 -1.70234 0
M  V30 4612 C 455.913 3.19426 -2.8487 0
M  V30 4613 C 455.239 4.5909 -2.74118 0
M  V30 4614 C 456.539 3.01993 -4.26142 0
M  V30 4615 H 458.233 1.4968 -2.593 0
M  V30 4616 H 455.779 0.718654 -1.24785 0
M  V30 4617 H 457.732 3.80491 -1.8112 0
M  V30 4618 H 456.456 3.18201 -0.735911 0
M  V30 4619 H 455.115 2.4407 -2.73542 0
M  V30 4620 H 454.763 4.71413 -1.7544 0
M  V30 4621 H 454.463 4.71214 -3.51042 0
M  V30 4622 H 455.987 5.3896 -2.86974 0
M  V30 4623 H 457.401 3.69558 -4.38292 0
M  V30 4624 H 455.798 3.2561 -5.04082 0
M  V30 4625 H 456.868 1.98396 -4.42456 0
M  V30 4626 N 458.211 1.37122 0.776871 0
M  V30 4627 C 459.143 1.28342 1.89897 0
M  V30 4628 C 460.156 0.200277 1.61563 0
M  V30 4629 O 461.345 0.456012 1.72577 0
M  V30 4630 C 458.445 0.960427 3.25006 0
M  V30 4631 C 457.618 2.148 3.81025 0
M  V30 4632 C 456.677 1.79608 4.94598 0
M  V30 4633 O 455.703 2.51845 5.10454 0
M  V30 4634 N 456.905 0.737171 5.758 0
M  V30 4635 H 459.67 2.25027 1.97947 0
M  V30 4636 H 457.231 1.3068 0.955739 0
M  V30 4637 H 459.223 0.705942 3.98495 0
M  V30 4638 H 457.793 0.0823066 3.12492 0
M  V30 4639 H 457.013 2.56454 2.99374 0
M  V30 4640 H 458.301 2.9411 4.15183 0
M  V30 4641 H 457.699 0.137637 5.65533 0
M  V30 4642 H 456.256 0.542534 6.49538 0
M  V30 4643 N 459.689 -1.00246 1.21608 0
M  V30 4644 C 460.619 -2.10921 1.00172 0
M  V30 4645 C 461.6 -1.69938 -0.0741587 0
M  V30 4646 O 462.785 -1.94009 0.0861753 0
M  V30 4647 C 459.915 -3.42618 0.568355 0
M  V30 4648 C 458.869 -3.97407 1.58909 0
M  V30 4649 C 458.195 -5.25038 1.01187 0
M  V30 4650 C 459.495 -4.2918 2.97661 0
M  V30 4651 H 461.189 -2.29112 1.92739 0
M  V30 4652 H 458.735 -1.10101 0.928102 0
M  V30 4653 H 460.688 -4.19444 0.405555 0
M  V30 4654 H 459.412 -3.24227 -0.392961 0
M  V30 4655 H 458.071 -3.22703 1.73949 0
M  V30 4656 H 457.719 -5.02982 0.0421965 0
M  V30 4657 H 457.419 -5.62661 1.6937 0
M  V30 4658 H 458.943 -6.04507 0.860448 0
M  V30 4659 H 460.357 -4.96839 2.86049 0
M  V30 4660 H 458.754 -4.77952 3.6288 0
M  V30 4661 H 459.824 -3.3735 3.48315 0
M  V30 4662 N 461.167 -1.02423 -1.1978 0
M  V30 4663 C 462.413 -0.719051 -1.89625 0
M  V30 4664 C 462.746 0.750083 -1.7913 0
M  V30 4665 O 462.021 1.54574 -1.18056 0
M  V30 4666 C 462.304 -1.16499 -3.40735 0
M  V30 4667 C 462.157 -2.695 -3.60125 0
M  V30 4668 C 463.476 -0.742166 -4.33797 0
M  V30 4669 H 460.595 -0.26269 -0.688595 0
M  V30 4670 H 463.237 -1.27333 -1.41018 0
M  V30 4671 H 461.387 -0.69341 -3.82262 0
M  V30 4672 H 463.059 -3.24569 -3.278 0
M  V30 4673 H 461.302 -3.10113 -3.03336 0
M  V30 4674 H 461.973 -2.95757 -4.66081 0
M  V30 4675 H 464.449 -1.1477 -3.99959 0
M  V30 4676 H 463.325 -1.08213 -5.38127 0
M  V30 4677 H 463.586 0.355747 -4.40666 0
M  V30 4678 N 462.645 1.35699 -0.801477 0
M  V30 4679 C 464.061 1.52065 -0.484596 0
M  V30 4680 C 464.261 1.75215 0.995084 0
M  V30 4681 O 463.317 1.79061 1.78026 0
M  V30 4682 C 464.63 2.69908 -1.32552 0
M  V30 4683 C 466.178 2.83784 -1.32044 0
M  V30 4684 C 466.653 4.04646 -2.14536 0
M  V30 4685 N 468.144 4.11814 -2.12046 0
M  V30 4686 C 468.879 5.04437 -2.72636 0
M  V30 4687 N 468.375 6.02426 -3.42133 0
M  V30 4688 N 470.168 4.97144 -2.62305 0
M  V30 4689 H 462.319 1.18928 -1.75983 0
M  V30 4690 H 464.582 0.581455 -0.748741 0
M  V30 4691 H 464.288 2.59363 -2.37537 0
M  V30 4692 H 464.162 3.64376 -0.975181 0
M  V30 4693 H 466.549 2.93783 -0.27846 0
M  V30 4694 H 466.63 1.90188 -1.71062 0
M  V30 4695 H 466.274 3.95407 -3.18772 0
M  V30 4696 H 466.204 4.97413 -1.72882 0
M  V30 4697 H 468.695 3.41664 -1.61476 0
M  V30 4698 H 469.008 6.69688 -3.85666 0
M  V30 4699 H 467.353 6.02615 -3.46237 0
M  V30 4700 H 470.544 4.19546 -2.07603 0
M  V30 4701 H 470.717 5.69138 -3.09815 0
M  V30 4702 N 464.123 0.554532 1.47522 0
M  V30 4703 C 465.539 0.214107 1.58157 0
M  V30 4704 C 465.739 -1.28331 1.55349 0
M  V30 4705 O 464.795 -2.06329 1.45549 0
M  V30 4706 C 466.108 0.838391 2.88776 0
M  V30 4707 C 467.656 0.809374 3.02354 0
M  V30 4708 C 468.131 1.41268 4.35669 0
M  V30 4709 N 469.622 1.37574 4.42298 0
M  V30 4710 C 470.357 1.8122 5.4401 0
M  V30 4711 N 469.853 2.3271 6.52547 0
M  V30 4712 N 471.646 1.72307 5.35039 0
M  V30 4713 H 463.797 1.52744 1.4759 0
M  V30 4714 H 466.06 0.636812 0.702264 0
M  V30 4715 H 465.766 1.89065 2.96559 0
M  V30 4716 H 465.64 0.329847 3.75755 0
M  V30 4717 H 468.027 -0.234187 2.94169 0
M  V30 4718 H 468.108 1.35565 2.16924 0
M  V30 4719 H 467.752 2.45529 4.4461 0
M  V30 4720 H 467.682 0.841871 5.19827 0
M  V30 4721 H 470.173 0.999081 3.64454 0
M  V30 4722 H 470.486 2.63944 7.26329 0
M  V30 4723 H 468.831 2.36719 6.53444 0
M  V30 4724 H 472.022 1.3186 4.49144 0
M  V30 4725 H 472.195 2.06641 6.14169 0
M  V30 4726 N 465.601 -1.54893 0.290851 0
M  V30 4727 C 466.531 -2.26103 -0.583084 0
M  V30 4728 C 467.512 -1.25684 -1.14619 0
M  V30 4729 O 468.697 -1.54436 -1.17741 0
M  V30 4730 C 465.827 -2.99409 -1.75987 0
M  V30 4731 C 464.781 -4.0689 -1.32758 0
M  V30 4732 C 464.107 -4.67856 -2.58872 0
M  V30 4733 C 465.407 -5.20215 -0.46624 0
M  V30 4734 H 467.101 -2.99398 0.0108214 0
M  V30 4735 H 464.647 -1.43998 0.00664468 0
M  V30 4736 H 466.6 -3.47943 -2.37727 0
M  V30 4737 H 465.324 -2.23675 -2.37985 0
M  V30 4738 H 463.983 -3.59191 -0.733299 0
M  V30 4739 H 463.631 -3.88772 -3.19163 0
M  V30 4740 H 463.331 -5.40438 -2.30653 0
M  V30 4741 H 464.855 -5.19147 -3.21433 0
M  V30 4742 H 466.269 -5.64704 -0.989047 0
M  V30 4743 H 464.666 -5.99455 -0.27826 0
M  V30 4744 H 465.736 -4.82198 0.511173 0
M  V30 4745 N 467.08 -0.0183926 -1.57589 0
M  V30 4746 C 468.012 0.995557 -2.06449 0
M  V30 4747 C 469.025 1.29556 -0.985849 0
M  V30 4748 O 470.214 1.2621 -1.26227 0
M  V30 4749 C 467.314 2.32572 -2.46502 0
M  V30 4750 C 466.487 2.21245 -3.77319 0
M  V30 4751 C 465.546 3.37104 -4.04039 0
M  V30 4752 O 464.572 3.14468 -4.74445 0
M  V30 4753 N 465.774 4.60553 -3.53372 0
M  V30 4754 H 468.539 0.578746 -2.94059 0
M  V30 4755 H 466.1 0.168603 -1.6102 0
M  V30 4756 H 468.092 3.08887 -2.61478 0
M  V30 4757 H 466.662 2.65931 -1.64315 0
M  V30 4758 H 465.882 1.29723 -3.72244 0
M  V30 4759 H 467.17 2.10868 -4.63047 0
M  V30 4760 H 466.568 4.81839 -2.96391 0
M  V30 4761 H 465.125 5.34072 -3.73644 0
M  V30 4762 N 468.558 1.5553 0.254621 0
M  V30 4763 C 469.521 1.88872 1.29846 0
M  V30 4764 C 470.521 0.764591 1.41459 0
M  V30 4765 O 471.711 1.03265 1.40293 0
M  V30 4766 C 468.843 2.11032 2.67728 0
M  V30 4767 H 470.036 2.82201 1.01502 0
M  V30 4768 H 467.589 1.48303 0.493556 0
M  V30 4769 H 468.324 1.20146 3.01223 0
M  V30 4770 H 468.109 2.92895 2.60682 0
M  V30 4771 H 469.599 2.38038 3.43115 0
M  V30 4772 N 470.036 -0.519951 1.48776 0
M  V30 4773 C 470.966 -1.63253 1.66945 0
M  V30 4774 C 471.947 -1.62014 0.518224 0
M  V30 4775 O 473.132 -1.79053 0.751919 0
M  V30 4776 C 470.262 -3.0181 1.71836 0
M  V30 4777 C 469.216 -3.17911 2.8656 0
M  V30 4778 C 468.542 -4.5763 2.76548 0
M  V30 4779 C 469.842 -2.99729 4.27738 0
M  V30 4780 H 471.536 -1.48302 2.6009 0
M  V30 4781 H 469.082 -0.712026 1.25165 0
M  V30 4782 H 471.035 -3.79525 1.83135 0
M  V30 4783 H 469.759 -3.17806 0.752775 0
M  V30 4784 H 468.418 -2.42616 2.74833 0
M  V30 4785 H 468.066 -4.70476 1.77937 0
M  V30 4786 H 467.766 -4.69346 3.53536 0
M  V30 4787 H 469.29 -5.37431 2.89828 0
M  V30 4788 H 470.704 -3.67228 4.40246 0
M  V30 4789 H 469.101 -3.22932 5.05801 0
M  V30 4790 H 470.171 -1.96047 4.43502 0
M  V30 4791 N 471.514 -1.37532 -0.769588 0
M  V30 4792 C 472.93 -1.18379 -1.07045 0
M  V30 4793 C 473.13 -0.0214312 -2.01489 0
M  V30 4794 O 472.186 0.637809 -2.44312 0
M  V30 4795 C 473.499 -2.50338 -1.66588 0
M  V30 4796 C 475.047 -2.56879 -1.78835 0
M  V30 4797 C 475.522 -3.88974 -2.41792 0
M  V30 4798 N 477.013 -3.90428 -2.4924 0
M  V30 4799 C 477.748 -4.89388 -2.98809 0
M  V30 4800 N 477.244 -5.98745 -3.48535 0
M  V30 4801 N 479.037 -4.76791 -2.97703 0
M  V30 4802 H 471.188 -2.11921 -0.142541 0
M  V30 4803 H 473.451 -0.939608 -0.125863 0
M  V30 4804 H 473.157 -3.35767 -1.0466 0
M  V30 4805 H 473.031 -2.67583 -2.65856 0
M  V30 4806 H 475.418 -1.71856 -2.39895 0
M  V30 4807 H 475.499 -2.43516 -0.783166 0
M  V30 4808 H 475.143 -4.74412 -1.81371 0
M  V30 4809 H 475.073 -3.99641 -3.4292 0
M  V30 4810 H 477.564 -3.11433 -2.14052 0
M  V30 4811 H 477.877 -6.70205 -3.84767 0
M  V30 4812 H 476.222 -6.02387 -3.46634 0
M  V30 4813 H 479.413 -3.90478 -2.58157 0
M  V30 4814 H 479.586 -5.54069 -3.36024 0
M  V30 4815 N 472.992 0.995999 -1.22138 0
M  V30 4816 C 473.922 2.10387 -1.01289 0
M  V30 4817 C 474.903 1.69975 0.0651454 0
M  V30 4818 O 476.088 1.9396 -0.0964628 0
M  V30 4819 C 473.218 3.42312 -0.586517 0
M  V30 4820 C 472.172 3.96558 -1.61014 0
M  V30 4821 C 471.498 5.24494 -1.0397 0
M  V30 4822 C 472.798 4.27595 -2.99933 0
M  V30 4823 H 474.492 2.28086 -1.93951 0
M  V30 4824 H 472.038 1.09607 -0.933928 0
M  V30 4825 H 473.991 4.19223 -0.427793 0
M  V30 4826 H 472.715 3.24431 0.375761 0
M  V30 4827 H 471.374 3.21776 -1.75658 0
M  V30 4828 H 471.022 5.02953 -0.0688703 0
M  V30 4829 H 470.722 5.61755 -1.72352 0
M  V30 4830 H 472.246 6.04042 -0.892494 0
M  V30 4831 H 473.66 4.95315 -2.8868 0
M  V30 4832 H 472.057 4.76021 -3.6541 0
M  V30 4833 H 473.127 3.35498 -3.50099 0
M  V30 4834 N 474.47 1.03057 1.19235 0
M  V30 4835 C 475.38 0.622922 2.26179 0
M  V30 4836 C 476.396 -0.346113 1.70523 0
M  V30 4837 O 477.572 -0.203572 2.00369 0
M  V30 4838 C 474.637 -0.0182063 3.46695 0
M  V30 4839 C 473.698 0.998546 4.17526 0
M  V30 4840 C 472.931 0.387917 5.32288 0
M  V30 4841 O 473.154 -0.808668 5.64639 0
M  V30 4842 O 472.088 1.1116 5.91546 0
M  V30 4843 H 475.914 1.51363 2.63292 0
M  V30 4844 H 473.499 0.800856 1.26122 0
M  V30 4845 H 475.381 -0.375606 4.19723 0
M  V30 4846 H 474.056 -0.882895 3.11427 0
M  V30 4847 H 472.963 1.40756 3.4661 0
M  V30 4848 H 474.296 1.83366 4.56769 0
M  V30 4849 N 475.948 -1.35272 0.808662 0
M  V30 4850 C 477.364 -1.51806 0.492653 0
M  V30 4851 C 477.564 -1.7574 -0.985778 0
M  V30 4852 O 476.62 -1.80003 -1.77074 0
M  V30 4853 C 477.933 -2.69202 1.33981 0
M  V30 4854 C 479.481 -2.8308 1.33547 0
M  V30 4855 C 479.956 -4.03502 2.16679 0
M  V30 4856 N 481.447 -4.10684 2.14227 0
M  V30 4857 C 482.182 -5.02984 2.75308 0
M  V30 4858 N 481.678 -6.00603 3.45323 0
M  V30 4859 N 483.471 -4.95746 2.64938 0
M  V30 4860 H 475.622 -1.17993 1.76611 0
M  V30 4861 H 477.885 -0.577476 0.751814 0
M  V30 4862 H 477.591 -2.581 2.38909 0
M  V30 4863 H 477.465 -3.63854 0.994491 0
M  V30 4864 H 479.852 -2.93631 0.294036 0
M  V30 4865 H 479.933 -1.89278 1.72068 0
M  V30 4866 H 479.577 -3.93711 3.20864 0
M  V30 4867 H 479.507 -4.96489 1.75517 0
M  V30 4868 H 481.998 -3.40802 1.63285 0
M  V30 4869 H 482.311 -6.67633 3.89212 0
M  V30 4870 H 480.656 -6.0077 3.49428 0
M  V30 4871 H 483.847 -4.18439 2.09825 0
M  V30 4872 H 484.02 -5.67487 3.12829 0
M  V30 4873 N 477.426 -0.562348 -1.47226 0
M  V30 4874 C 478.336 0.185466 -2.33866 0
M  V30 4875 C 479.352 0.906713 -1.48508 0
M  V30 4876 O 480.528 0.874458 -1.81425 0
M  V30 4877 C 477.593 1.19904 -3.25306 0
M  V30 4878 C 476.654 0.484669 -4.26555 0
M  V30 4879 C 475.887 1.44996 -5.13626 0
M  V30 4880 O 476.11 2.68515 -5.03245 0
M  V30 4881 O 475.044 0.971642 -5.94006 0
M  V30 4882 H 478.87 -0.525361 -2.99121 0
M  V30 4883 H 476.455 -0.322916 -1.45868 0
M  V30 4884 H 478.337 1.78399 -3.81774 0
M  V30 4885 H 477.012 1.8917 -2.62672 0
M  V30 4886 H 475.919 -0.141605 -3.73832 0
M  V30 4887 H 477.252 -0.166634 -4.91918 0
M  V30 4888 N 478.904 1.54736 -0.299062 0
M  V30 4889 C 479.814 2.27127 0.587413 0
M  V30 4890 C 480.83 1.30575 1.15005 0
M  V30 4891 O 482.006 1.63554 1.17525 0
M  V30 4892 C 479.071 2.99645 1.74395 0
M  V30 4893 C 478.132 4.11731 1.21559 0
M  V30 4894 C 477.365 4.80781 2.317 0
M  V30 4895 O 477.588 4.4918 3.51558 0
M  V30 4896 O 476.522 5.68226 1.98501 0
M  V30 4897 H 480.348 3.037 0.000250109 0
M  V30 4898 H 477.933 1.49256 -0.0655919 0
M  V30 4899 H 479.815 3.45138 2.4178 0
M  V30 4900 H 478.49 2.25969 2.31775 0
M  V30 4901 H 477.397 3.70641 0.507514 0
M  V30 4902 H 478.73 4.87379 0.687233 0
M  V30 4903 N 480.382 0.0267497 1.57577 0
M  V30 4904 C 481.612 -0.6617 1.95717 0
M  V30 4905 C 482.02 -1.66331 0.901706 0
M  V30 4906 O 481.363 -1.83273 -0.125241 0
M  V30 4907 C 481.425 -1.42649 3.29987 0
M  V30 4908 C 481.089 -0.583482 4.5326 0
M  V30 4909 C 482.086 0.140221 5.19711 0
M  V30 4910 C 479.771 -0.521581 4.99585 0
M  V30 4911 C 481.765 0.914523 6.30805 0
M  V30 4912 C 479.452 0.256428 6.10562 0
M  V30 4913 C 480.45 0.973189 6.76031 0
M  V30 4914 O 480.138 1.73845 7.84878 0
M  V30 4915 H 479.87 -0.187483 0.649481 0
M  V30 4916 H 482.424 0.0820847 2.05236 0
M  V30 4917 H 480.654 -2.21536 3.16952 0
M  V30 4918 H 482.343 -2.00282 3.53047 0
M  V30 4919 H 483.109 0.101716 4.84893 0
M  V30 4920 H 478.988 -1.06904 4.48433 0
M  V30 4921 H 482.532 1.4745 6.81839 0
M  V30 4922 H 478.429 0.296657 6.44818 0
M  V30 4923 H 479.197 1.65797 8.01532 0
M  V30 4924 N 481.861 -1.55662 -0.24637 0
M  V30 4925 C 483.107 -1.77782 -0.975779 0
M  V30 4926 C 483.44 -0.592103 -1.84953 0
M  V30 4927 O 482.715 0.409588 -1.90138 0
M  V30 4928 C 482.998 -3.09788 -1.83584 0
M  V30 4929 C 482.851 -4.38764 -0.990241 0
M  V30 4930 C 484.17 -3.38029 -2.81823 0
M  V30 4931 H 481.289 -0.646789 -0.353317 0
M  V30 4932 H 483.931 -1.88398 -0.246248 0
M  V30 4933 H 482.081 -3.00869 -2.45784 0
M  V30 4934 H 483.753 -4.59675 -0.386897 0
M  V30 4935 H 481.996 -4.32798 -0.294626 0
M  V30 4936 H 482.667 -5.27514 -1.62584 0
M  V30 4937 H 485.143 -3.46915 -2.2976 0
M  V30 4938 H 484.019 -4.3161 -3.39122 0
M  V30 4939 H 484.28 -2.58968 -3.58313 0
M  V30 4940 N 483.339 0.512053 -1.4905 0
M  V30 4941 C 484.269 1.62365 -1.67809 0
M  V30 4942 C 485.25 1.61737 -0.526809 0
M  V30 4943 O 486.435 1.78651 -0.761404 0
M  V30 4944 C 483.565 3.00895 -1.73435 0
M  V30 4945 C 482.519 3.16387 -2.88242 0
M  V30 4946 C 481.845 4.56157 -2.78971 0
M  V30 4947 C 483.145 2.97457 -4.29321 0
M  V30 4948 H 484.839 1.46921 -2.60873 0
M  V30 4949 H 482.385 0.705379 -1.2554 0
M  V30 4950 H 484.338 3.78549 -1.85145 0
M  V30 4951 H 483.062 3.17403 -0.769619 0
M  V30 4952 H 481.721 2.41155 -2.76116 0
M  V30 4953 H 481.369 4.69525 -1.8043 0
M  V30 4954 H 481.069 4.67465 -3.5602 0
M  V30 4955 H 482.593 5.35886 -2.92675 0
M  V30 4956 H 484.007 3.64888 -4.42187 0
M  V30 4957 H 482.404 3.20245 -5.07507 0
M  V30 4958 H 483.474 1.93692 -4.44535 0
M  V30 4959 N 484.817 1.37938 0.762283 0
M  V30 4960 C 485.747 1.37176 1.88958 0
M  V30 4961 C 486.728 0.238945 1.68413 0
M  V30 4962 O 487.913 0.440726 1.89133 0
M  V30 4963 C 485.043 1.18742 3.2637 0
M  V30 4964 C 483.997 2.29136 3.61498 0
M  V30 4965 C 483.323 1.95816 4.97554 0
M  V30 4966 C 484.623 3.71363 3.6727 0
M  V30 4967 H 486.317 2.31509 1.89853 0
M  V30 4968 H 483.863 1.11438 0.912005 0
M  V30 4969 H 485.816 1.16837 4.04879 0
M  V30 4970 H 484.54 0.208683 3.25933 0
M  V30 4971 H 483.199 2.30213 2.85303 0
M  V30 4972 H 482.847 0.964475 4.93667 0
M  V30 4973 H 482.547 2.69745 5.22026 0
M  V30 4974 H 484.071 1.95513 5.78452 0
M  V30 4975 H 485.485 3.72364 4.35911 0
M  V30 4976 H 483.882 4.44425 4.03245 0
M  V30 4977 H 484.952 4.04305 2.67704 0
M  V30 4978 N 486.295 -0.989507 1.22664 0
M  V30 4979 C 487.242 -2.08024 0.999733 0
M  V30 4980 C 488.212 -1.65909 -0.0797047 0
M  V30 4981 O 489.397 -1.90669 0.0705715 0
M  V30 4982 C 486.537 -3.40067 0.587234 0
M  V30 4983 C 485.65 -3.95505 1.73781 0
M  V30 4984 C 484.785 -5.15722 1.27297 0
M  V30 4985 C 483.824 -5.63305 2.39488 0
M  V30 4986 N 482.961 -6.74758 1.94026 0
M  V30 4987 H 487.801 -2.26768 1.9334 0
M  V30 4988 H 485.338 -1.11171 0.963297 0
M  V30 4989 H 487.296 -4.15899 0.329227 0
M  V30 4990 H 485.926 -3.21314 -0.309426 0
M  V30 4991 H 484.978 -3.16513 2.11006 0
M  V30 4992 H 486.29 -4.26797 2.58158 0
M  V30 4993 H 485.444 -5.98854 0.972546 0
M  V30 4994 H 484.183 -4.86061 0.399445 0
M  V30 4995 H 483.188 -4.78759 2.70315 0
M  V30 4996 H 484.413 -5.94988 3.27362 0
M  V30 4997 H 482.359 -6.46874 1.09041 0
M  V30 4998 H 482.276 -7.05386 2.71968 0
M  V30 4999 H 483.544 -7.61387 1.67062 0
M  V30 5000 N 487.773 -1.03688 -1.18687 0
M  V30 5001 C 488.736 -0.629115 -2.20397 0
M  V30 5002 C 489.736 0.311495 -1.57754 0
M  V30 5003 O 490.926 0.0974107 -1.73927 0
M  V30 5004 C 488.058 0.0782231 -3.4081 0
M  V30 5005 H 489.251 -1.52915 -2.57987 0
M  V30 5006 H 486.804 -0.828988 -1.32505 0
M  V30 5007 H 487.539 0.992233 -3.08748 0
M  V30 5008 H 487.324 -0.597776 -3.87517 0
M  V30 5009 H 488.814 0.350156 -4.16129 0
M  V30 5010 N 489.251 1.34841 -0.815825 0
M  V30 5011 C 490.181 2.32187 -0.247298 0
M  V30 5012 C 491.162 1.5791 0.632344 0
M  V30 5013 O 492.347 1.8593 0.560698 0
M  V30 5014 C 489.477 3.42122 0.597466 0
M  V30 5015 C 488.431 4.27602 -0.184446 0
M  V30 5016 C 487.757 5.28942 0.782609 0
M  V30 5017 C 489.057 5.03502 -1.38865 0
M  V30 5018 H 490.751 2.79985 -1.06061 0
M  V30 5019 H 488.297 1.34611 -0.511461 0
M  V30 5020 H 490.25 4.09232 1.00533 0
M  V30 5021 H 488.974 2.92956 1.44376 0
M  V30 5022 H 487.633 3.62085 -0.573592 0
M  V30 5023 H 487.281 4.7604 1.62466 0
M  V30 5024 H 486.981 5.87008 0.263695 0
M  V30 5025 H 488.505 5.98922 1.18848 0
M  V30 5026 H 489.919 5.63506 -1.05518 0
M  V30 5027 H 488.316 5.71108 -1.8427 0
M  V30 5028 H 489.386 4.33608 -2.17054 0
M  V30 5029 N 490.729 0.570148 1.46925 0
M  V30 5030 C 491.692 -0.159933 2.28641 0
M  V30 5031 C 492.692 -0.830638 1.37685 0
M  V30 5032 O 493.882 -0.684516 1.60187 0
M  V30 5033 C 491.014 -1.2354 3.17727 0
M  V30 5034 H 492.207 0.558035 2.94662 0
M  V30 5035 H 489.76 0.327603 1.52828 0
M  V30 5036 H 490.495 -1.98535 2.56426 0
M  V30 5037 H 490.28 -0.759125 3.84681 0
M  V30 5038 H 491.77 -1.74782 3.79264 0
M  V30 5039 N 492.207 -1.54576 0.307264 0
M  V30 5040 C 493.137 -2.26708 -0.55907 0
M  V30 5041 C 494.118 -1.26893 -1.1328 0
M  V30 5042 O 495.303 -1.55677 -1.16097 0
M  V30 5043 C 492.433 -3.01259 -1.72801 0
M  V30 5044 C 491.387 -4.08275 -1.28435 0
M  V30 5045 C 490.713 -4.70575 -2.53895 0
M  V30 5046 C 492.013 -5.2068 -0.411038 0
M  V30 5047 H 493.707 -2.9937 0.042576 0
M  V30 5048 H 491.253 -1.43983 0.0219173 0
M  V30 5049 H 493.206 -3.50444 -2.34023 0
M  V30 5050 H 491.93 -2.26187 -2.356 0
M  V30 5051 H 490.589 -3.59949 -0.695161 0
M  V30 5052 H 490.237 -3.92136 -3.15021 0
M  V30 5053 H 489.937 -5.42854 -2.24908 0
M  V30 5054 H 491.461 -5.22527 -3.15908 0
M  V30 5055 H 492.875 -5.65721 -0.929097 0
M  V30 5056 H 491.272 -5.99716 -0.214664 0
M  V30 5057 H 492.342 -4.81629 0.562287 0
M  V30 5058 N 493.685 -0.035106 -1.57561 0
M  V30 5059 C 494.648 0.929819 -2.09492 0
M  V30 5060 C 495.648 1.25026 -1.01119 0
M  V30 5061 O 496.838 1.18961 -1.27255 0
M  V30 5062 C 493.97 2.24457 -2.56577 0
M  V30 5063 H 495.163 0.479935 -2.96035 0
M  V30 5064 H 492.716 0.213033 -1.54841 0
M  V30 5065 H 493.451 2.74061 -1.73382 0
M  V30 5066 H 493.236 2.02508 -3.35757 0
M  V30 5067 H 494.726 2.93607 -2.96959 0
M  V30 5068 N 495.163 1.55791 0.238111 0
M  V30 5069 C 496.111 1.91885 1.31464 0
M  V30 5070 C 497.105 0.798929 1.49377 0
M  V30 5071 O 498.311 0.983626 1.50747 0
M  V30 5072 H 494.686 0.609551 0.440399 0
M  V30 5073 H 496.657 2.81747 0.982925 0
M  V30 5074 C 495.406 2.23763 2.6613 0
M  V30 5075 H 494.729 3.09444 2.53149 0
M  V30 5076 H 496.169 2.52915 3.40309 0
M  V30 5077 C 494.628 1.05699 3.1989 0
M  V30 5078 O 495.158 0.309524 4.00506 0
M  V30 5079 N 493.364 0.845251 2.78036 0
M  V30 5080 H 492.911 1.4548 2.12588 0
M  V30 5081 H 492.869 0.0569973 3.14348 0
M  V30 5082 N 496.642 -0.504142 1.49319 0
M  V30 5083 C 497.867 -1.28729 1.62615 0
M  V30 5084 C 498.292 -1.85752 0.296309 0
M  V30 5085 O 497.65 -1.65704 -0.735649 0
M  V30 5086 C 497.698 -2.39561 2.69524 0
M  V30 5087 O 496.802 -3.43324 2.28478 0
M  V30 5088 H 496.143 -0.380172 0.544395 0
M  V30 5089 H 498.673 -0.603872 1.95485 0
M  V30 5090 H 498.683 -2.8537 2.91595 0
M  V30 5091 H 497.358 -1.97423 3.66056 0
M  V30 5092 H 495.935 -3.03455 2.16725 0
M  V30 5093 N 498.12 -1.38341 -0.754957 0
M  V30 5094 C 499.397 -1.24995 -1.50451 0
M  V30 5095 C 499.777 0.149244 -2.10572 0
M  V30 5096 O 499.125 1.15861 -1.96948 0
M  V30 5097 C 499.335 -2.35904 -2.57197 0
M  V30 5098 C 500.683 -2.74262 -3.24138 0
M  V30 5099 O 501.707 -2.35205 -2.67501 0
M  V30 5100 O 500.566 -3.4161 -4.26574 0
M  V30 5101 H 497.66 -0.48872 -0.667144 0
M  V30 5102 H 500.206 -1.50165 -0.790486 0
M  V30 5103 H 498.978 -3.2953 -2.11011 0
M  V30 5104 H 498.601 -2.12291 -3.36182 0
M  V30 5105 N 499.598 0.982988 -1.23187 0
M  V30 5106 C 500.823 1.76455 -1.08988 0
M  V30 5107 C 501.248 1.84726 0.354691 0
M  V30 5108 O 500.606 1.30699 1.25649 0
M  V30 5109 C 500.654 3.17094 -1.71708 0
M  V30 5110 O 499.758 4.00648 -0.977477 0
M  V30 5111 H 499.099 0.542988 -0.382177 0
M  V30 5112 H 501.629 1.23413 -1.63188 0
M  V30 5113 H 501.639 3.67684 -1.76841 0
M  V30 5114 H 500.314 3.10389 -2.76823 0
M  V30 5115 H 498.891 3.59161 -1.0029 0
M  V30 5116 N 501.076 1.04316 1.18135 0
M  V30 5117 C 502.322 0.749128 1.88457 0
M  V30 5118 C 502.655 -0.72149 1.803 0
M  V30 5119 O 501.93 -1.52676 1.205 0
M  V30 5120 C 502.213 1.21905 3.38838 0
M  V30 5121 C 502.066 2.75195 3.55792 0
M  V30 5122 C 503.385 0.811085 4.32561 0
M  V30 5123 H 500.504 0.273611 0.684329 0
M  V30 5124 H 503.146 1.29561 1.38975 0
M  V30 5125 H 501.296 0.754137 3.8111 0
M  V30 5126 H 502.968 3.29743 3.22595 0
M  V30 5127 H 501.211 3.14899 2.98364 0
M  V30 5128 H 501.882 3.03135 4.61317 0
M  V30 5129 H 504.358 1.21118 3.98082 0
M  V30 5130 H 503.234 1.16761 5.36338 0
M  V30 5131 H 503.495 -0.285596 4.41177 0
M  V30 5132 N 502.554 -1.34406 0.822964 0
M  V30 5133 C 503.504 -2.26963 0.217208 0
M  V30 5134 C 504.488 -1.48536 -0.618545 0
M  V30 5135 O 505.68 -1.7056 -0.473118 0
M  V30 5136 C 502.809 -3.37655 -0.619973 0
M  V30 5137 C 501.895 -4.23495 0.226411 0
M  V30 5138 N 502.286 -4.88876 1.29744 0
M  V30 5139 C 500.584 -4.45999 0.0107554 0
M  V30 5140 C 501.285 -5.52642 1.81553 0
M  V30 5141 N 500.261 -5.31949 1.11942 0
M  V30 5142 H 504.063 -2.75017 1.03647 0
M  V30 5143 H 501.577 -1.48126 0.665777 0
M  V30 5144 H 503.574 -4.02932 -1.07011 0
M  V30 5145 H 502.234 -2.91151 -1.43739 0
M  V30 5146 H 503.245 -4.89886 1.68024 0
M  V30 5147 H 499.922 -4.10253 -0.774495 0
M  V30 5148 H 501.312 -6.14755 2.71156 0
M  V30 5149 N 504.032 -0.577932 -1.46621 0
M  V30 5150 C 505.281 -0.0594281 -2.01612 0
M  V30 5151 C 505.594 1.30663 -1.45556 0
M  V30 5152 O 506.8 1.91621 -1.92337 0
M  V30 5153 C 505.256 -0.0556666 -3.59857 0
M  V30 5154 C 504.864 -1.41975 -4.24908 0
M  V30 5155 C 506.608 0.409143 -4.22524 0
M  V30 5156 C 504.515 -1.37397 -5.75218 0
M  V30 5157 H 503.445 -0.0184469 -0.753774 0
M  V30 5158 H 506.096 -0.728869 -1.68404 0
M  V30 5159 H 504.478 0.679843 -3.90121 0
M  V30 5160 H 505.652 -2.17461 -4.0626 0
M  V30 5161 H 503.967 -1.82419 -3.74316 0
M  V30 5162 H 506.564 0.46211 -5.32699 0
M  V30 5163 H 506.907 1.42565 -3.91128 0
M  V30 5164 H 507.44 -0.272152 -3.96868 0
M  V30 5165 H 504.179 -2.36714 -6.11267 0
M  V30 5166 H 503.699 -0.661239 -5.96144 0
M  V30 5167 H 505.378 -1.08484 -6.3784 0
M  V30 5168 N 505.51 1.54411 -0.315457 0
M  V30 5169 C 506.42 2.27737 0.56329 0
M  V30 5170 C 507.436 1.31787 1.13614 0
M  V30 5171 O 508.612 1.64791 1.15784 0
M  V30 5172 C 505.677 3.01478 1.71207 0
M  V30 5173 C 504.738 4.12997 1.17185 0
M  V30 5174 C 503.971 4.83212 2.26588 0
M  V30 5175 O 504.194 4.52884 3.46775 0
M  V30 5176 O 503.128 5.70299 1.92463 0
M  V30 5177 H 506.954 3.03683 -0.0319614 0
M  V30 5178 H 504.539 1.49178 -0.0814188 0
M  V30 5179 H 506.421 3.47683 2.38106 0
M  V30 5180 H 505.096 2.28414 2.29366 0
M  V30 5181 H 504.003 3.71159 0.468174 0
M  V30 5182 H 505.336 4.8808 0.635501 0
M  V30 5183 N 506.988 0.0434614 1.5754 0
M  V30 5184 C 508.265 -0.671479 1.83713 0
M  V30 5185 C 508.645 -1.89495 0.930315 0
M  V30 5186 O 507.993 -2.28498 -0.0105639 0
M  V30 5187 C 508.203 -1.0361 3.33266 0
M  V30 5188 C 509.551 -1.42167 4.00092 0
M  V30 5189 O 510.575 -1.12866 3.37846 0
M  V30 5190 O 509.434 -1.96817 5.09829 0
M  V30 5191 H 506.528 -0.330726 0.75799 0
M  V30 5192 H 509.074 0.0722373 1.69546 0
M  V30 5193 H 507.846 -0.165938 3.90948 0
M  V30 5194 H 507.469 -1.83751 3.52592 0
M  V30 5195 N 508.466 -1.55915 -0.229846 0
M  V30 5196 C 509.429 -1.90914 -1.26824 0
M  V30 5197 C 510.429 -0.786999 -1.40225 0
M  V30 5198 O 511.619 -1.05484 -1.38632 0
M  V30 5199 C 508.751 -2.15264 -2.64337 0
M  V30 5200 H 509.944 -2.8378 -0.969998 0
M  V30 5201 H 507.497 -1.49069 -0.4699 0
M  V30 5202 H 508.232 -1.24923 -2.99274 0
M  V30 5203 H 508.017 -2.97005 -2.55989 0
M  V30 5204 H 509.507 -2.43467 -3.39284 0
M  V30 5205 N 509.944 0.496216 -1.49584 0
M  V30 5206 C 510.854 1.62352 -1.69349 0
M  V30 5207 C 511.87 1.64184 -0.576147 0
M  V30 5208 O 513.046 1.82517 -0.85144 0
M  V30 5209 C 510.111 2.98698 -1.76013 0
M  V30 5210 C 509.172 3.07454 -2.99617 0
M  V30 5211 C 508.405 4.37296 -3.05953 0
M  V30 5212 O 508.628 5.2637 -2.19752 0
M  V30 5213 O 507.562 4.51124 -3.9846 0
M  V30 5214 H 511.388 1.48606 -2.64859 0
M  V30 5215 H 508.973 0.673022 -1.33382 0
M  V30 5216 H 510.855 3.79725 -1.82721 0
M  V30 5217 H 509.53 3.12696 -0.836828 0
M  V30 5218 H 508.437 2.25597 -2.98424 0
M  V30 5219 H 509.77 2.98385 -3.91443 0
M  V30 5220 N 511.423 1.38739 0.74761 0
M  V30 5221 C 512.386 1.36241 1.84312 0
M  V30 5222 C 513.386 0.261811 1.58654 0
M  V30 5223 O 514.576 0.519031 1.66288 0
M  V30 5224 C 511.708 1.12253 3.21888 0
M  V30 5225 H 512.901 2.33712 1.87933 0
M  V30 5226 H 510.454 1.2412 0.949946 0
M  V30 5227 H 511.189 0.154133 3.23934 0
M  V30 5228 H 510.974 1.91943 3.41907 0
M  V30 5229 H 512.464 1.13215 4.0196 0
M  V30 5230 N 512.901 -0.976442 1.23707 0
M  V30 5231 C 514.147 -1.72081 1.07312 0
M  V30 5232 C 514.48 -1.90275 -0.388476 0
M  V30 5233 O 513.755 -1.4579 -1.28746 0
M  V30 5234 C 514.038 -3.11675 1.80363 0
M  V30 5235 C 513.891 -3.01027 3.3422 0
M  V30 5236 C 515.21 -4.1117 1.5693 0
M  V30 5237 H 512.329 -0.624583 0.391236 0
M  V30 5238 H 514.971 -1.13649 1.52263 0
M  V30 5239 H 513.121 -3.61559 1.42153 0
M  V30 5240 H 514.793 -2.58637 3.81975 0
M  V30 5241 H 513.036 -2.3744 3.63049 0
M  V30 5242 H 513.707 -3.9988 3.80525 0
M  V30 5243 H 516.183 -3.7011 1.90151 0
M  V30 5244 H 515.059 -5.06928 2.10513 0
M  V30 5245 H 515.32 -4.392 0.505548 0
M  V30 5246 N 514.379 -1.04941 -1.1758 0
M  V30 5247 C 515.289 -0.658826 -2.25159 0
M  V30 5248 C 516.305 0.318941 -1.71052 0
M  V30 5249 O 517.481 0.171669 -2.00667 0
M  V30 5250 C 514.546 -0.0369522 -3.4668 0
M  V30 5251 C 513.607 -1.06484 -4.15884 0
M  V30 5252 C 512.84 -0.472551 -5.31604 0
M  V30 5253 O 513.063 0.718736 -5.65854 0
M  V30 5254 O 511.997 -1.20557 -5.89703 0
M  V30 5255 H 515.823 -1.55533 -2.60851 0
M  V30 5256 H 513.408 -0.820819 -1.24832 0
M  V30 5257 H 515.29 0.308784 -4.20267 0
M  V30 5258 H 513.965 0.833238 -3.12792 0
M  V30 5259 H 512.872 -1.46253 -3.44327 0
M  V30 5260 H 514.205 -1.9061 -4.53794 0
M  V30 5261 N 515.857 1.33968 -0.830081 0
M  V30 5262 C 516.789 2.28194 -0.21448 0
M  V30 5263 C 517.802 1.5135 0.599752 0
M  V30 5264 O 518.991 1.73286 0.42826 0
M  V30 5265 C 516.091 3.31221 0.717356 0
M  V30 5266 C 515.264 4.37365 -0.055613 0
M  V30 5267 C 514.323 5.2011 0.798231 0
M  V30 5268 O 513.349 5.68691 0.240616 0
M  V30 5269 N 514.551 5.40523 2.11695 0
M  V30 5270 H 517.316 2.81662 -1.02405 0
M  V30 5271 H 514.877 1.46568 -0.687713 0
M  V30 5272 H 516.869 3.83477 1.29334 0
M  V30 5273 H 515.439 2.78095 1.42765 0
M  V30 5274 H 514.659 3.85727 -0.812936 0
M  V30 5275 H 515.947 5.05397 -0.587444 0
M  V30 5276 H 515.345 5.0274 2.59363 0
M  V30 5277 H 513.902 5.95871 2.64162 0
M  V30 5278 N 517.335 0.585699 1.46312 0
M  V30 5279 C 518.265 -0.133556 2.33118 0
M  V30 5280 C 519.246 -0.880707 1.45525 0
M  V30 5281 O 520.431 -0.855579 1.74337 0
M  V30 5282 C 517.561 -1.14585 3.27853 0
M  V30 5283 C 516.515 -0.513341 4.2491 0
M  V30 5284 C 515.841 -1.63231 5.09175 0
M  V30 5285 C 517.141 0.551413 5.19381 0
M  V30 5286 H 518.835 0.59121 2.93505 0
M  V30 5287 H 516.381 0.285761 1.41136 0
M  V30 5288 H 518.334 -1.65741 3.87438 0
M  V30 5289 H 517.058 -1.90093 2.65579 0
M  V30 5290 H 515.717 -0.0228349 3.66593 0
M  V30 5291 H 515.365 -2.37713 4.43285 0
M  V30 5292 H 515.065 -1.21473 5.74907 0
M  V30 5293 H 516.589 -2.14658 5.71624 0
M  V30 5294 H 518.003 0.124804 5.73164 0
M  V30 5295 H 516.4 0.889486 5.93471 0
M  V30 5296 H 517.47 1.43655 4.63132 0
M  V30 5297 N 518.813 -1.54241 0.323641 0
M  V30 5298 C 520.229 -1.59574 -0.0290018 0
M  V30 5299 C 520.429 -1.34017 -1.50472 0
M  V30 5300 O 519.485 -1.12464 -2.26071 0
M  V30 5301 C 520.798 -2.98169 0.389295 0
M  V30 5302 C 522.346 -3.11148 0.339958 0
M  V30 5303 C 522.821 -4.5209 0.733418 0
M  V30 5304 N 524.312 -4.5808 0.686827 0
M  V30 5305 C 525.047 -5.65248 0.963464 0
M  V30 5306 N 524.543 -6.80355 1.30724 0
M  V30 5307 N 526.336 -5.55025 0.88902 0
M  V30 5308 H 518.487 -1.6911 1.28512 0
M  V30 5309 H 520.75 -0.790972 0.522558 0
M  V30 5310 H 520.456 -3.21871 1.41746 0
M  V30 5311 H 520.33 -3.76399 -0.245657 0
M  V30 5312 H 522.717 -2.87182 -0.679002 0
M  V30 5313 H 522.798 -2.35023 1.00985 0
M  V30 5314 H 522.442 -4.76788 1.75029 0
M  V30 5315 H 522.372 -5.26584 0.0412189 0
M  V30 5316 H 524.863 -3.75411 0.43298 0
M  V30 5317 H 525.176 -7.58029 1.5037 0
M  V30 5318 H 523.521 -6.81851 1.3455 0
M  V30 5319 H 526.712 -4.63977 0.619939 0
M  V30 5320 H 526.885 -6.38458 1.10797 0
M  V30 5321 N 520.291 -0.0518155 -1.57515 0
M  V30 5322 C 521.201 0.937539 -2.15052 0
M  V30 5323 C 522.217 1.34121 -1.10849 0
M  V30 5324 O 523.393 1.418 -1.4302 0
M  V30 5325 C 520.458 2.19379 -2.68466 0
M  V30 5326 C 519.519 1.84841 -3.87469 0
M  V30 5327 C 518.752 3.04477 -4.38326 0
M  V30 5328 O 518.975 4.17868 -3.88256 0
M  V30 5329 O 517.909 2.85453 -5.29906 0
M  V30 5330 H 521.735 0.478201 -2.99912 0
M  V30 5331 H 519.32 0.17012 -1.48428 0
M  V30 5332 H 521.202 2.93084 -3.02787 0
M  V30 5333 H 519.877 2.64449 -1.86677 0
M  V30 5334 H 518.784 1.08449 -3.58036 0
M  V30 5335 H 520.117 1.44569 -4.7049 0
M  V30 5336 N 521.769 1.56035 0.221574 0
M  V30 5337 C 522.732 1.91584 1.2581 0
M  V30 5338 C 523.732 0.794425 1.39805 0
M  V30 5339 O 524.922 1.06217 1.38071 0
M  V30 5340 C 522.054 2.16663 2.63192 0
M  V30 5341 H 523.247 2.8429 0.954935 0
M  V30 5342 H 520.8 1.49316 0.461988 0
M  V30 5343 H 521.535 1.26508 2.98607 0
M  V30 5344 H 521.32 2.98358 2.5441 0
M  V30 5345 H 522.81 2.45262 3.37988 0
M  V30 5346 N 523.247 -0.488276 1.49845 0
M  V30 5347 C 524.177 -1.59675 1.70371 0
M  V30 5348 C 525.158 -1.60878 0.552473 0
M  V30 5349 O 526.343 -1.77417 0.78973 0
M  V30 5350 C 523.473 -2.98098 1.782 0
M  V30 5351 C 522.427 -3.11761 2.93239 0
M  V30 5352 C 521.753 -4.51661 2.86193 0
M  V30 5353 C 523.053 -2.90589 4.33999 0
M  V30 5354 H 524.747 -1.42752 2.63177 0
M  V30 5355 H 522.293 -0.685317 1.26647 0
M  V30 5356 H 524.246 -3.75555 1.91144 0
M  V30 5357 H 522.97 -3.16138 0.820018 0
M  V30 5358 H 521.629 -2.36732 2.79917 0
M  V30 5359 H 521.277 -4.66595 1.87877 0
M  V30 5360 H 520.977 -4.61742 3.63412 0
M  V30 5361 H 522.501 -5.31162 3.01163 0
M  V30 5362 H 523.915 -3.57807 4.47936 0
M  V30 5363 H 522.312 -3.1213 5.12538 0
M  V30 5364 H 523.382 -1.86595 4.4756 0
M  V30 5365 N 524.725 -1.39134 -0.740242 0
M  V30 5366 C 525.675 -1.33928 -1.84519 0
M  V30 5367 C 526.659 -0.221097 -1.59374 0
M  V30 5368 O 527.851 -0.458195 -1.70967 0
M  V30 5369 C 524.98 -1.17991 -3.22387 0
M  V30 5370 C 524.066 -2.34488 -3.53378 0
M  V30 5371 N 524.457 -3.59954 -3.5534 0
M  V30 5372 C 522.755 -2.27331 -3.83714 0
M  V30 5373 C 523.456 -4.36962 -3.83978 0
M  V30 5374 N 522.432 -3.66482 -4.01487 0
M  V30 5375 H 526.234 -2.28907 -1.84333 0
M  V30 5376 H 523.748 -1.32555 -0.938237 0
M  V30 5377 H 525.745 -1.12345 -4.01478 0
M  V30 5378 H 524.405 -0.23957 -3.23815 0
M  V30 5379 H 525.416 -3.93448 -3.36778 0
M  V30 5380 H 522.093 -1.41531 -3.92779 0
M  V30 5381 H 523.483 -5.45692 -3.92008 0
M  V30 5382 N 526.204 0.969867 -1.24223 0
M  V30 5383 C 527.114 2.09806 -1.0497 0
M  V30 5384 C 528.13 1.73998 0.00886455 0
M  V30 5385 O 529.306 2.00513 -0.188848 0
M  V30 5386 C 526.371 3.40467 -0.654452 0
M  V30 5387 C 525.432 3.90236 -1.78926 0
M  V30 5388 C 524.665 5.14662 -1.41277 0
M  V30 5389 O 524.888 5.69602 -0.301632 0
M  V30 5390 O 523.822 5.58761 -2.23763 0
M  V30 5391 H 527.648 2.28942 -1.99548 0
M  V30 5392 H 525.233 1.08197 -1.03023 0
M  V30 5393 H 527.115 4.19039 -0.445452 0
M  V30 5394 H 525.79 3.22636 0.262216 0
M  V30 5395 H 524.697 3.12735 -2.05299 0
M  V30 5396 H 526.03 4.1254 -2.68462 0
M  V30 5397 N 527.682 1.05563 1.17022 0
M  V30 5398 C 528.645 0.664098 2.19368 0
M  V30 5399 C 529.645 -0.286358 1.5823 0
M  V30 5400 O 530.835 -0.069728 1.7406 0
M  V30 5401 C 527.967 -0.0239932 3.40892 0
M  V30 5402 H 529.16 1.57 2.55521 0
M  V30 5403 H 526.713 0.849964 1.31169 0
M  V30 5404 H 527.448 -0.942988 3.10287 0
M  V30 5405 H 527.233 0.659351 3.86516 0
M  V30 5406 H 528.723 -0.283909 4.16634 0
M  V30 5407 N 529.16 -1.33526 0.837174 0
M  V30 5408 C 530.09 -2.31764 0.284206 0
M  V30 5409 C 531.071 -1.58896 -0.607142 0
M  V30 5410 O 532.256 -1.86798 -0.531047 0
M  V30 5411 C 529.386 -3.43029 -0.542962 0
M  V30 5412 C 528.34 -4.27255 0.252451 0
M  V30 5413 C 527.666 -5.3012 -0.69836 0
M  V30 5414 C 528.966 -5.01229 1.46858 0
M  V30 5415 H 530.66 -2.78262 1.10502 0
M  V30 5416 H 528.206 -1.3378 0.532812 0
M  V30 5417 H 530.159 -4.1078 -0.940096 0
M  V30 5418 H 528.883 -2.95216 -1.39697 0
M  V30 5419 H 527.542 -3.61127 0.631124 0
M  V30 5420 H 527.19 -4.78564 -1.54872 0
M  V30 5421 H 526.89 -5.87353 -0.170274 0
M  V30 5422 H 528.414 -6.00737 -1.09305 0
M  V30 5423 H 529.828 -5.61756 1.14469 0
M  V30 5424 H 528.225 -5.68104 1.93333 0
M  V30 5425 H 529.295 -4.301 2.23924 0
M  V30 5426 N 530.638 -0.59345 -1.46 0
M  V30 5427 C 531.568 0.121192 -2.33185 0
M  V30 5428 C 532.549 0.872977 -1.4599 0
M  V30 5429 O 533.734 0.846321 -1.74789 0
M  V30 5430 C 530.864 1.12844 -3.28456 0
M  V30 5431 C 529.818 0.4908 -4.25177 0
M  V30 5432 C 529.144 1.60529 -5.10034 0
M  V30 5433 C 530.444 -0.578949 -5.19081 0
M  V30 5434 H 532.138 -0.606767 -2.93187 0
M  V30 5435 H 529.684 -0.293242 -1.40983 0
M  V30 5436 H 531.637 1.63684 -3.88311 0
M  V30 5437 H 530.361 1.88681 -2.66584 0
M  V30 5438 H 529.02 0.00339328 -3.666 0
M  V30 5439 H 528.668 2.35359 -4.44539 0
M  V30 5440 H 528.368 1.18422 -5.75543 0
M  V30 5441 H 529.892 2.11623 -5.72755 0
M  V30 5442 H 531.306 -0.155199 -5.7309 0
M  V30 5443 H 529.703 -0.920947 -5.92991 0
M  V30 5444 H 530.773 -1.46109 -4.62364 0
M  V30 5445 N 532.116 1.54067 -0.331816 0
M  V30 5446 C 533.026 2.28322 0.539104 0
M  V30 5447 C 534.042 1.32985 1.1221 0
M  V30 5448 O 535.218 1.6601 1.1403 0
M  V30 5449 C 532.283 3.03277 1.68 0
M  V30 5450 C 531.344 4.14216 1.12798 0
M  V30 5451 C 530.577 4.85588 2.2145 0
M  V30 5452 O 530.8 4.56536 3.41952 0
M  V30 5453 O 529.734 5.72309 1.86404 0
M  V30 5454 H 533.56 3.03632 -0.0641692 0
M  V30 5455 H 531.145 1.49083 -0.0972365 0
M  V30 5456 H 533.027 3.50189 2.34405 0
M  V30 5457 H 531.702 2.30834 2.2693 0
M  V30 5458 H 530.609 3.71635 0.428782 0
M  V30 5459 H 531.942 4.88727 0.583698 0
M  V30 5460 N 533.594 0.0601682 1.57485 0
M  V30 5461 C 534.824 -0.620037 1.97076 0
M  V30 5462 C 535.232 -1.64381 0.936784 0
M  V30 5463 O 534.575 -1.83497 -0.0863377 0
M  V30 5464 C 534.637 -1.35617 3.32939 0
M  V30 5465 C 534.301 -0.487208 4.54396 0
M  V30 5466 C 535.298 0.250428 5.19297 0
M  V30 5467 C 532.983 -0.415494 5.00579 0
M  V30 5468 C 534.977 1.04812 6.28723 0
M  V30 5469 C 532.664 0.385879 6.0988 0
M  V30 5470 C 533.662 1.11637 6.73815 0
M  V30 5471 O 533.35 1.90454 7.81014 0
M  V30 5472 H 533.082 -0.173664 0.653312 0
M  V30 5473 H 535.636 0.1256 2.05016 0
M  V30 5474 H 533.866 -2.14763 3.2158 0
M  V30 5475 H 535.555 -1.92749 3.57215 0
M  V30 5476 H 536.321 0.204546 4.84568 0
M  V30 5477 H 532.2 -0.973679 4.506 0
M  V30 5478 H 535.744 1.6188 6.78558 0
M  V30 5479 H 531.641 0.433366 6.44044 0
M  V30 5480 H 532.409 1.82762 7.97835 0
M  V30 5481 N 535.072 -1.5615 -0.213296 0
M  V30 5482 C 535.982 -1.96265 -1.28519 0
M  V30 5483 C 536.998 -0.86765 -1.50824 0
M  V30 5484 O 538.174 -1.17191 -1.63793 0
M  V30 5485 C 535.239 -2.27836 -2.61327 0
M  V30 5486 C 534.3 -3.50949 -2.47252 0
M  V30 5487 C 533.533 -3.81004 -3.73727 0
M  V30 5488 O 533.756 -3.12612 -4.77106 0
M  V30 5489 O 532.69 -4.74477 -3.70344 0
M  V30 5490 H 536.516 -2.87631 -0.974795 0
M  V30 5491 H 534.101 -1.43467 -0.416832 0
M  V30 5492 H 535.983 -2.49299 -3.39747 0
M  V30 5493 H 534.658 -1.39643 -2.9203 0
M  V30 5494 H 533.565 -3.34754 -1.67004 0
M  V30 5495 H 534.898 -4.39551 -2.21486 0
M  V30 5496 N 536.55 0.480323 -1.50102 0
M  V30 5497 C 537.513 1.56181 -1.6775 0
M  V30 5498 C 538.513 1.51156 -0.548503 0
M  V30 5499 O 539.703 1.5394 -0.815363 0
M  V30 5500 C 536.835 2.95823 -1.69415 0
M  V30 5501 H 538.028 1.41855 -2.6423 0
M  V30 5502 H 535.581 0.70605 -1.39444 0
M  V30 5503 H 536.316 3.15604 -0.745948 0
M  V30 5504 H 536.101 3.00878 -2.51425 0
M  V30 5505 H 537.591 3.74359 -1.85054 0
M  V30 5506 N 538.028 1.39524 0.732853 0
M  V30 5507 C 539.276 1.36594 1.48951 0
M  V30 5508 C 539.597 -0.0367507 1.94965 0
M  V30 5509 O 538.867 -0.988391 1.69138 0
M  V30 5510 H 537.447 0.502673 0.552566 0
M  V30 5511 H 540.109 1.74411 0.869869 0
M  V30 5512 H 539.205 2.03 2.3706 0
M  V30 5513 N 539.506 -0.963266 1.24736 0
M  V30 5514 C 540.922 -1.23273 1.01371 0
M  V30 5515 C 541.122 -1.99618 -0.274776 0
M  V30 5516 O 540.178 -2.32293 -0.989769 0
M  V30 5517 C 541.491 -2.01554 2.23152 0
M  V30 5518 C 543.039 -2.14629 2.27823 0
M  V30 5519 C 543.514 -2.96307 3.49237 0
M  V30 5520 N 545.005 -3.03887 3.49581 0
M  V30 5521 C 545.74 -3.67456 4.40186 0
M  V30 5522 N 545.236 -4.32706 5.41052 0
M  V30 5523 N 547.029 -3.64511 4.27888 0
M  V30 5524 H 539.18 -0.452294 2.07528 0
M  V30 5525 H 541.443 -0.262521 0.910926 0
M  V30 5526 H 541.149 -1.52847 3.1675 0
M  V30 5527 H 541.023 -3.02278 2.25628 0
M  V30 5528 H 543.41 -2.62537 1.34753 0
M  V30 5529 H 543.491 -1.13238 2.2937 0
M  V30 5530 H 543.135 -2.49091 4.42624 0
M  V30 5531 H 543.065 -3.97905 3.44933 0
M  V30 5532 H 545.556 -2.57477 2.76611 0
M  V30 5533 H 545.869 -4.79042 6.06415 0
M  V30 5534 H 544.214 -4.31361 5.44934 0
M  V30 5535 H 547.405 -3.12715 3.4832 0
M  V30 5536 H 547.578 -4.13768 4.98698 0
M  V30 5537 N 540.985 -1.06182 -1.16461 0
M  V30 5538 C 541.948 -0.675723 -2.19013 0
M  V30 5539 C 542.948 0.277963 -1.58379 0
M  V30 5540 O 544.138 0.0604962 -1.74095 0
M  V30 5541 C 541.27 0.00591459 -3.40899 0
M  V30 5542 H 542.463 -1.58353 -2.54685 0
M  V30 5543 H 540.016 -0.856908 -1.30716 0
M  V30 5544 H 540.751 0.92652 -3.10783 0
M  V30 5545 H 540.536 -0.67984 -3.86161 0
M  V30 5546 H 542.026 0.26181 -4.16778 0
M  V30 5547 N 542.463 1.3308 -0.844243 0
M  V30 5548 C 543.711 1.97215 -0.441676 0
M  V30 5549 C 544.032 1.67185 1.0037 0
M  V30 5550 O 543.302 0.973588 1.69994 0
M  V30 5551 H 541.882 0.72959 -0.160335 0
M  V30 5552 H 544.544 1.62348 -1.07838 0
M  V30 5553 H 543.64 3.06698 -0.57815 0
M  V30 5554 N 543.941 0.601185 1.45683 0
M  V30 5555 C 545.352 0.179659 1.85834 0
M  V30 5556 C 545.703 -1.26189 1.50236 0
M  V30 5557 O 544.828 -1.95587 0.925987 0
M  V30 5558 C 545.423 0.319277 3.37292 0
M  V30 5559 C 543.982 -0.0475092 3.7637 0
M  V30 5560 C 543.129 0.646692 2.69654 0
M  V30 5561 H 546.08 0.808268 1.36575 0
M  V30 5562 H 546.101 -0.4503 3.77826 0
M  V30 5563 H 545.613 1.36855 3.6317 0
M  V30 5564 H 543.714 -1.0962 3.5611 0
M  V30 5565 H 543.827 0.34168 4.7788 0
M  V30 5566 H 542.191 0.0849971 2.54558 0
M  V30 5567 H 542.974 1.69797 2.98369 0
M  V30 5568 N 545.419 -1.53889 0.339982 0
M  V30 5569 C 546.667 -2.00458 -0.257112 0
M  V30 5570 C 546.988 -1.22953 -1.51353 0
M  V30 5571 O 546.258 -0.335734 -1.93002 0
M  V30 5572 H 544.838 -0.740544 -0.0979965 0
M  V30 5573 H 547.5 -1.89386 0.460317 0
M  V30 5574 H 546.596 -3.08035 -0.502057 0
M  V30 5575 N 546.897 -0.0685191 -1.57451 0
M  V30 5576 C 548.145 0.60016 -1.92983 0
M  V30 5577 C 548.466 1.70348 -0.949028 0
M  V30 5578 O 547.736 1.959 0.00335647 0
M  V30 5579 H 546.316 0.224682 -0.712409 0
M  V30 5580 H 548.978 -0.125605 -1.94495 0
M  V30 5581 H 548.074 1.02759 -2.94698 0
M  V30 5582 N 548.375 1.56261 0.205012 0
M  V30 5583 C 549.623 1.79684 0.925096 0
M  V30 5584 C 549.944 0.63989 1.84202 0
M  V30 5585 O 549.214 -0.342345 1.92885 0
M  V30 5586 H 547.794 0.662774 0.344587 0
M  V30 5587 H 550.456 1.93734 0.212899 0
M  V30 5588 H 549.552 2.72467 1.52211 0
M  V30 5589 N 549.853 -0.472356 1.50355 0
M  V30 5590 C 550.816 -1.5529 1.68576 0
M  V30 5591 C 551.816 -1.50863 0.556511 0
M  V30 5592 O 553.006 -1.53505 0.823516 0
M  V30 5593 C 550.138 -2.94921 1.70981 0
M  V30 5594 H 551.331 -1.40451 2.64978 0
M  V30 5595 H 548.884 -0.698645 1.39816 0
M  V30 5596 H 549.619 -3.15204 0.762675 0
M  V30 5597 H 549.404 -2.99541 2.53017 0
M  V30 5598 H 550.894 -3.73372 1.87037 0
M  V30 5599 N 551.331 -1.39911 -0.725443 0
M  V30 5600 C 552.241 -1.41688 -1.8698 0
M  V30 5601 C 553.257 -0.310579 -1.71206 0
M  V30 5602 O 554.433 -0.55359 -1.93642 0
M  V30 5603 C 551.498 -1.26811 -3.22676 0
M  V30 5604 C 550.559 -2.47497 -3.50776 0
M  V30 5605 C 549.792 -2.3332 -4.79997 0
M  V30 5606 O 550.015 -1.34175 -5.54394 0
M  V30 5607 O 548.949 -3.22498 -5.08211 0
M  V30 5608 H 552.775 -2.38171 -1.88436 0
M  V30 5609 H 550.36 -1.21128 -0.874548 0
M  V30 5610 H 552.242 -1.20684 -4.03749 0
M  V30 5611 H 550.917 -0.334289 -3.21969 0
M  V30 5612 H 549.824 -2.59201 -2.69751 0
M  V30 5613 H 551.157 -3.39606 -3.5627 0
M  V30 5614 N 552.809 0.956637 -1.25245 0
M  V30 5615 C 554.225 1.22733 -1.02023 0
M  V30 5616 C 554.425 1.99761 0.264186 0
M  V30 5617 O 553.481 2.32814 0.977436 0
M  V30 5618 C 554.794 2.00367 -2.24217 0
M  V30 5619 C 556.342 2.13418 -2.28958 0
M  V30 5620 C 556.817 2.9445 -3.50803 0
M  V30 5621 N 558.308 3.02029 -3.51187 0
M  V30 5622 C 559.043 3.65116 -4.42129 0
M  V30 5623 N 558.539 4.2983 -5.43339 0
M  V30 5624 N 560.332 3.62237 -4.29815 0
M  V30 5625 H 552.483 0.441282 -2.07765 0
M  V30 5626 H 554.746 0.257686 -0.912306 0
M  V30 5627 H 554.452 1.51165 -3.17556 0
M  V30 5628 H 554.326 3.01077 -2.27228 0
M  V30 5629 H 556.713 2.61819 -1.36143 0
M  V30 5630 H 556.794 1.1202 -2.29968 0
M  V30 5631 H 556.438 2.46741 -4.43939 0
M  V30 5632 H 556.368 3.9607 -3.47039 0
M  V30 5633 H 558.859 2.56007 -2.77973 0
M  V30 5634 H 559.172 4.75819 -6.08947 0
M  V30 5635 H 557.517 4.28465 -5.47214 0
M  V30 5636 H 560.708 3.10863 -3.49974 0
M  V30 5637 H 560.881 4.11117 -5.00886 0
M  V30 5638 N 554.287 1.06798 1.15896 0
M  V30 5639 C 555.703 0.792423 1.38538 0
M  V30 5640 C 555.903 -0.60592 1.92174 0
M  V30 5641 O 554.959 -1.36561 2.12385 0
M  V30 5642 C 556.272 1.86157 2.36149 0
M  V30 5643 C 557.82 1.88567 2.49823 0
M  V30 5644 C 558.295 2.9455 3.5072 0
M  V30 5645 N 559.786 2.93616 3.58251 0
M  V30 5646 C 560.521 3.72267 4.36125 0
M  V30 5647 N 560.017 4.60751 5.17379 0
M  V30 5648 N 561.81 3.60637 4.31158 0
M  V30 5649 H 553.961 1.96993 0.794198 0
M  V30 5650 H 556.224 0.853942 0.411688 0
M  V30 5651 H 555.93 2.86603 2.03843 0
M  V30 5652 H 555.804 1.71692 3.3586 0
M  V30 5653 H 558.191 0.887765 2.8143 0
M  V30 5654 H 558.272 2.0711 1.5013 0
M  V30 5655 H 557.916 3.94537 3.19849 0
M  V30 5656 H 557.846 2.73255 4.50155 0
M  V30 5657 H 560.337 2.29472 3.00252 0
M  V30 5658 H 560.65 5.17408 5.74028 0
M  V30 5659 H 558.995 4.64803 5.16704 0
M  V30 5660 H 562.186 2.90892 3.66742 0
M  V30 5661 H 562.359 4.22176 4.91601 0
M  V30 5662 N 555.766 -1.3263 0.851289 0
M  V30 5663 C 557.182 -1.50162 0.5407 0
M  V30 5664 C 557.382 -1.78788 -0.929369 0
M  V30 5665 O 556.438 -1.85545 -1.71258 0
M  V30 5666 C 557.751 -2.64803 1.42478 0
M  V30 5667 C 559.299 -2.78688 1.42485 0
M  V30 5668 C 559.774 -3.96405 2.29407 0
M  V30 5669 N 561.265 -4.0366 2.27184 0
M  V30 5670 C 562 -4.93971 2.9117 0
M  V30 5671 N 561.496 -5.89313 3.64256 0
M  V30 5672 N 563.289 -4.87066 2.80576 0
M  V30 5673 H 555.44 -1.12315 1.80275 0
M  V30 5674 H 557.703 -0.553266 0.769806 0
M  V30 5675 H 557.409 -2.50368 2.46999 0
M  V30 5676 H 557.283 -3.60506 1.10974 0
M  V30 5677 H 559.67 -2.92547 0.387304 0
M  V30 5678 H 559.751 -1.83708 1.78002 0
M  V30 5679 H 559.395 -3.83304 3.33228 0
M  V30 5680 H 559.325 -4.90654 1.91224 0
M  V30 5681 H 561.816 -3.35435 1.74045 0
M  V30 5682 H 562.129 -6.54913 4.10255 0
M  V30 5683 H 560.474 -5.8935 3.68364 0
M  V30 5684 H 563.665 -4.11552 2.23031 0
M  V30 5685 H 563.838 -5.57248 3.30725 0
M  V30 5686 N 557.244 -0.608902 -1.45362 0
M  V30 5687 C 558.207 0.0992563 -2.28985 0
M  V30 5688 C 559.207 0.793841 -1.39838 0
M  V30 5689 O 560.397 0.641804 -1.61946 0
M  V30 5690 C 557.529 1.15073 -3.20891 0
M  V30 5691 H 558.722 -0.635964 -2.93079 0
M  V30 5692 H 556.275 -0.368007 -1.51906 0
M  V30 5693 H 557.01 1.91667 -2.616 0
M  V30 5694 H 556.795 0.656867 -3.86559 0
M  V30 5695 H 558.285 1.64665 -3.83765 0
M  V30 5696 N 558.722 1.53707 -0.348139 0
M  V30 5697 C 559.97 2.00591 0.246478 0
M  V30 5698 C 560.291 1.23753 1.50699 0
M  V30 5699 O 559.561 0.345964 1.92821 0
M  V30 5700 H 558.141 0.741053 0.0940679 0
M  V30 5701 H 560.803 1.89139 -0.470354 0
M  V30 5702 H 559.899 3.08297 0.485714 0
M  V30 5703 N 560.2 0.0768682 1.57412 0
M  V30 5704 C 561.616 -0.279772 1.57129 0
M  V30 5705 C 561.816 -1.69688 1.08666 0
M  V30 5706 O 560.872 -2.40953 0.754843 0
M  V30 5707 C 562.185 -0.0848055 3.0058 0
M  V30 5708 C 563.733 -0.153954 3.12621 0
M  V30 5709 C 564.208 0.0127946 4.57998 0
M  V30 5710 N 565.699 -0.0426435 4.6318 0
M  V30 5711 C 566.434 0.0618892 5.73367 0
M  V30 5712 N 565.93 0.220229 6.9245 0
M  V30 5713 N 567.723 0.00446072 5.621 0
M  V30 5714 H 559.874 1.00297 1.87228 0
M  V30 5715 H 562.137 0.391565 0.863354 0
M  V30 5716 H 561.843 0.89325 3.40168 0
M  V30 5717 H 561.717 -0.834961 3.67843 0
M  V30 5718 H 564.104 -1.1225 2.72917 0
M  V30 5719 H 564.185 0.627389 2.47987 0
M  V30 5720 H 563.829 0.978128 4.98392 0
M  V30 5721 H 563.759 -0.788016 5.20671 0
M  V30 5722 H 566.25 -0.163226 3.77547 0
M  V30 5723 H 566.563 0.291999 7.72248 0
M  V30 5724 H 564.908 0.255658 6.9453 0
M  V30 5725 H 568.099 -0.117979 4.67951 0
M  V30 5726 H 568.272 0.0893796 6.47938 0
M  V30 5727 N 561.678 -1.56367 -0.196722 0
M  V30 5728 C 562.608 -1.97442 -1.24655 0
M  V30 5729 C 563.589 -0.846147 -1.47561 0
M  V30 5730 O 564.774 -1.11035 -1.59326 0
M  V30 5731 C 561.904 -2.31253 -2.59112 0
M  V30 5732 C 560.858 -3.46804 -2.50821 0
M  V30 5733 C 560.184 -3.66286 -3.89536 0
M  V30 5734 C 561.484 -4.8104 -2.03465 0
M  V30 5735 H 563.178 -2.85388 -0.905216 0
M  V30 5736 H 560.724 -1.37304 -0.434002 0
M  V30 5737 H 562.677 -2.58583 -3.32736 0
M  V30 5738 H 561.401 -1.40188 -2.94983 0
M  V30 5739 H 560.06 -3.19563 -1.79653 0
M  V30 5740 H 559.708 -2.72555 -4.22756 0
M  V30 5741 H 559.408 -4.4402 -3.84864 0
M  V30 5742 H 560.932 -3.9599 -4.64784 0
M  V30 5743 H 562.346 -5.07411 -2.66846 0
M  V30 5744 H 560.743 -5.62232 -2.09798 0
M  V30 5745 H 561.813 -4.74732 -0.98781 0
M  V30 5746 N 563.156 0.464375 -1.50603 0
M  V30 5747 C 564.086 1.56944 -1.72889 0
M  V30 5748 C 565.067 1.59979 -0.577997 0
M  V30 5749 O 566.252 1.76138 -0.817855 0
M  V30 5750 C 563.382 2.95225 -1.8292 0
M  V30 5751 C 562.336 3.07056 -2.98162 0
M  V30 5752 C 561.662 4.47051 -2.93343 0
M  V30 5753 C 562.962 2.83648 -4.38567 0
M  V30 5754 H 564.656 1.38547 -2.65415 0
M  V30 5755 H 562.202 0.665082 -1.27721 0
M  V30 5756 H 564.155 3.72467 -1.97095 0
M  V30 5757 H 562.879 3.14793 -0.870209 0
M  V30 5758 H 561.538 2.32248 -2.83648 0
M  V30 5759 H 561.186 4.63547 -1.95276 0
M  V30 5760 H 560.886 4.55902 -3.70712 0
M  V30 5761 H 562.41 5.26304 -3.09575 0
M  V30 5762 H 563.824 3.50636 -4.53572 0
M  V30 5763 H 562.221 3.03937 -5.17438 0
M  V30 5764 H 563.291 1.79451 -4.50472 0
M  V30 5765 N 564.634 1.40294 0.718013 0
M  V30 5766 C 565.564 1.43118 1.84498 0
M  V30 5767 C 566.545 0.292403 1.67568 0
M  V30 5768 O 567.73 0.500675 1.87635 0
M  V30 5769 C 564.86 1.29065 3.22427 0
M  V30 5770 C 563.814 2.40521 3.54025 0
M  V30 5771 C 563.14 2.11546 4.91073 0
M  V30 5772 C 564.44 3.82859 3.55269 0
M  V30 5773 H 566.134 2.37432 1.82391 0
M  V30 5774 H 563.68 1.14283 0.87609 0
M  V30 5775 H 565.633 1.29658 4.00957 0
M  V30 5776 H 564.357 0.312271 3.25104 0
M  V30 5777 H 563.016 2.39173 2.77834 0
M  V30 5778 H 562.664 1.12104 4.90348 0
M  V30 5779 H 562.364 2.86216 5.1318 0
M  V30 5780 H 563.888 2.13817 5.71939 0
M  V30 5781 H 565.302 3.86044 4.23843 0
M  V30 5782 H 563.699 4.57029 3.88902 0
M  V30 5783 H 564.769 4.12617 2.54706 0
M  V30 5784 N 566.112 -0.949982 1.2575 0
M  V30 5785 C 567.34 -1.72972 1.13527 0
M  V30 5786 C 567.755 -1.8623 -0.310453 0
M  V30 5787 O 567.112 -1.36336 -1.2132 0
M  V30 5788 C 567.163 -3.14108 1.78936 0
M  V30 5789 O 566.884 -3.01493 3.17858 0
M  V30 5790 C 568.385 -4.08338 1.72554 0
M  V30 5791 H 565.605 -0.541864 0.395758 0
M  V30 5792 H 568.149 -1.19151 1.66202 0
M  V30 5793 H 566.304 -3.64858 1.30221 0
M  V30 5794 H 566.718 -3.90559 3.50092 0
M  V30 5795 H 568.192 -5.04963 2.22973 0
M  V30 5796 H 568.669 -4.33742 0.690251 0
M  V30 5797 H 569.275 -3.63506 2.2078 0
M  V30 5798 N 567.59 -1.07411 -1.15328 0
M  V30 5799 C 568.52 -0.716472 -2.22236 0
M  V30 5800 C 569.501 0.296373 -1.67498 0
M  V30 5801 O 570.686 0.168989 -1.93463 0
M  V30 5802 C 567.816 -0.114142 -3.47112 0
M  V30 5803 C 566.77 -1.05421 -4.14814 0
M  V30 5804 C 566.096 -0.314604 -5.33774 0
M  V30 5805 C 567.396 -2.38808 -4.64508 0
M  V30 5806 H 569.09 -1.61029 -2.52408 0
M  V30 5807 H 566.636 -0.775702 -1.21321 0
M  V30 5808 H 568.589 0.148001 -4.2114 0
M  V30 5809 H 567.313 0.814755 -3.16274 0
M  V30 5810 H 565.972 -1.30128 -3.42728 0
M  V30 5811 H 565.62 0.617772 -4.99192 0
M  V30 5812 H 565.32 -0.941209 -5.80013 0
M  V30 5813 H 566.844 -0.0602747 -6.1057 0
M  V30 5814 H 568.258 -2.18424 -5.3006 0
M  V30 5815 H 566.655 -2.97069 -5.21412 0
M  V30 5816 H 567.725 -3.01067 -3.80114 0
M  V30 5817 N 569.068 1.32177 -0.85831 0
M  V30 5818 C 570.479 1.79381 -0.517621 0
M  V30 5819 C 570.83 1.70841 0.964769 0
M  V30 5820 O 569.955 1.26917 1.75274 0
M  V30 5821 C 570.55 3.25706 -0.932801 0
M  V30 5822 C 569.109 3.70851 -0.643953 0
M  V30 5823 C 568.256 2.53208 -1.13054 0
M  V30 5824 H 571.207 1.19424 -1.04516 0
M  V30 5825 H 571.228 3.79673 -0.250674 0
M  V30 5826 H 570.74 3.31889 -2.01174 0
M  V30 5827 H 568.841 3.70178 0.424112 0
M  V30 5828 H 568.954 4.63495 -1.21281 0
M  V30 5829 H 567.318 2.48676 -0.550679 0
M  V30 5830 H 568.101 2.62143 -2.21666 0
M  V30 5831 N 570.547 0.616602 1.45037 0
M  V30 5832 C 571.477 -0.0840787 2.33349 0
M  V30 5833 C 572.458 -0.849641 1.4736 0
M  V30 5834 O 573.643 -0.818407 1.76113 0
M  V30 5835 C 570.773 -1.07604 3.3021 0
M  V30 5836 C 569.727 -0.423096 4.25904 0
M  V30 5837 C 569.053 -1.52394 5.12523 0
M  V30 5838 C 570.353 0.661457 5.18095 0
M  V30 5839 H 572.047 0.653333 2.92185 0
M  V30 5840 H 569.593 0.315634 1.40498 0
M  V30 5841 H 571.546 -1.57485 3.90866 0
M  V30 5842 H 570.27 -1.84416 2.69552 0
M  V30 5843 H 568.929 0.05493 3.66559 0
M  V30 5844 H 568.577 -2.28257 4.48227 0
M  V30 5845 H 568.277 -1.09251 5.77354 0
M  V30 5846 H 569.801 -2.02485 5.76049 0
M  V30 5847 H 571.215 0.246353 5.7277 0
M  V30 5848 H 569.612 1.01517 5.91451 0
M  V30 5849 H 570.682 1.53446 4.59981 0
M  V30 5850 N 572.025 -1.5352 0.356285 0
M  V30 5851 C 572.955 -2.28372 -0.486661 0
M  V30 5852 C 573.936 -1.30432 -1.09185 0
M  V30 5853 O 575.121 -1.59291 -1.11085 0
M  V30 5854 C 572.251 -3.06604 -1.63129 0
M  V30 5855 C 571.205 -4.12154 -1.15381 0
M  V30 5856 C 570.531 -4.78415 -2.38796 0
M  V30 5857 C 571.831 -5.21724 -0.245179 0
M  V30 5858 H 573.525 -2.99083 0.137797 0
M  V30 5859 H 571.071 -1.43841 0.0677134 0
M  V30 5860 H 573.024 -3.57712 -2.22755 0
M  V30 5861 H 571.748 -2.33568 -2.28284 0
M  V30 5862 H 570.407 -3.61978 -0.580294 0
M  V30 5863 H 570.055 -4.01959 -3.02387 0
M  V30 5864 H 569.755 -5.49734 -2.07524 0
M  V30 5865 H 571.279 -5.32313 -2.99125 0
M  V30 5866 H 572.693 -5.68391 -0.748646 0
M  V30 5867 H 571.09 -6.00095 -0.0237608 0
M  V30 5868 H 572.16 -4.79596 0.715229 0
M  V30 5869 N 573.503 -0.0852151 -1.57369 0
M  V30 5870 C 574.919 0.271436 -1.57275 0
M  V30 5871 C 575.119 1.69109 -1.09565 0
M  V30 5872 O 574.175 2.40549 -0.767611 0
M  V30 5873 C 575.488 0.0688638 -3.00621 0
M  V30 5874 C 577.036 0.137373 -3.12698 0
M  V30 5875 C 577.511 -0.0370832 -4.57985 0
M  V30 5876 N 579.002 0.0180794 -4.63196 0
M  V30 5877 C 579.737 -0.0922953 -5.73326 0
M  V30 5878 N 579.233 -0.256948 -6.92323 0
M  V30 5879 N 581.026 -0.0342702 -5.6209 0
M  V30 5880 H 573.177 -1.01288 -1.86693 0
M  V30 5881 H 575.44 -0.396138 -0.861266 0
M  V30 5882 H 575.146 -0.911277 -3.39689 0
M  V30 5883 H 575.02 0.815442 -3.6828 0
M  V30 5884 H 577.407 1.10801 -2.73509 0
M  V30 5885 H 577.488 -0.640532 -2.47651 0
M  V30 5886 H 577.132 -1.00455 -4.97867 0
M  V30 5887 H 577.062 0.760392 -5.21081 0
M  V30 5888 H 579.553 0.143202 -3.77629 0
M  V30 5889 H 579.866 -0.332949 -7.72082 0
M  V30 5890 H 578.211 -0.292487 -6.94384 0
M  V30 5891 H 581.402 0.0931605 -4.68007 0
M  V30 5892 H 581.575 -0.12374 -6.47882 0
M  V30 5893 N 574.981 1.5647 0.188427 0
M  V30 5894 C 575.913 1.91611 1.25769 0
M  V30 5895 C 576.926 0.807436 1.41366 0
M  V30 5896 O 578.115 1.08586 1.41673 0
M  V30 5897 C 575.215 2.13874 2.6289 0
M  V30 5898 C 574.388 3.45047 2.68815 0
M  V30 5899 C 573.447 3.56342 3.87178 0
M  V30 5900 O 572.473 4.29109 3.73971 0
M  V30 5901 N 573.675 2.89924 5.02916 0
M  V30 5902 H 576.44 2.8393 0.959373 0
M  V30 5903 H 574.001 1.57418 0.378306 0
M  V30 5904 H 575.993 2.18713 3.4051 0
M  V30 5905 H 574.563 1.28022 2.85183 0
M  V30 5906 H 573.783 3.52017 1.77419 0
M  V30 5907 H 575.071 4.31395 2.6977 0
M  V30 5908 H 574.469 2.30644 5.16546 0
M  V30 5909 H 573.026 3.0038 5.78459 0
M  V30 5910 N 576.459 -0.456382 1.50847 0
M  V30 5911 C 577.687 -1.23026 1.66349 0
M  V30 5912 C 578.102 -1.85473 0.352868 0
M  V30 5913 O 577.459 -1.69885 -0.666739 0
M  V30 5914 C 577.51 -2.32827 2.76539 0
M  V30 5915 O 577.231 -1.72938 4.02522 0
M  V30 5916 C 578.732 -3.23448 3.03144 0
M  V30 5917 H 575.952 -0.371527 0.558756 0
M  V30 5918 H 578.496 -0.543082 1.97157 0
M  V30 5919 H 576.651 -2.97294 2.48384 0
M  V30 5920 H 577.065 -2.45357 4.63573 0
M  V30 5921 H 578.539 -3.96669 3.83872 0
M  V30 5922 H 579.016 -3.83094 2.14793 0
M  V30 5923 H 579.622 -2.64702 3.32886 0
M  V30 5924 N 577.937 -1.40673 -0.710563 0
M  V30 5925 C 578.9 -1.4108 -1.80635 0
M  V30 5926 C 579.9 -0.303783 -1.57904 0
M  V30 5927 O 581.09 -0.562937 -1.64853 0
M  V30 5928 C 578.222 -1.20748 -3.18799 0
M  V30 5929 H 579.415 -2.38612 -1.81671 0
M  V30 5930 H 576.968 -1.26595 -0.916704 0
M  V30 5931 H 577.703 -0.239964 -3.23411 0
M  V30 5932 H 577.488 -2.00941 -3.36698 0
M  V30 5933 H 578.978 -1.23833 -3.98817 0
M  V30 5934 N 579.415 0.9433 -1.26252 0
M  V30 5935 C 580.663 1.68592 -1.11451 0
M  V30 5936 C 580.984 1.91957 0.343123 0
M  V30 5937 O 580.254 1.51475 1.24226 0
M  V30 5938 H 578.834 0.624789 -0.409448 0
M  V30 5939 H 581.496 1.13351 -1.58548 0
M  V30 5940 H 580.592 2.66054 -1.63162 0
M  V30 5941 N 580.893 1.08022 1.14757 0
M  V30 5942 C 581.84 0.706657 2.19716 0
M  V30 5943 C 582.81 -0.30525 1.63271 0
M  V30 5944 O 583.995 -0.19015 1.8985 0
M  V30 5945 C 581.135 0.117914 3.44898 0
M  V30 5946 C 580.248 1.18212 4.15512 0
M  V30 5947 C 579.383 0.557659 5.28265 0
M  V30 5948 C 578.422 1.60418 5.90705 0
M  V30 5949 N 577.559 1.0018 6.94916 0
M  V30 5950 H 582.399 1.60603 2.51019 0
M  V30 5951 H 579.936 0.802664 1.23271 0
M  V30 5952 H 581.894 -0.241112 4.16503 0
M  V30 5953 H 580.524 -0.744788 3.1409 0
M  V30 5954 H 579.576 1.65863 3.42335 0
M  V30 5955 H 580.888 1.97533 4.5802 0
M  V30 5956 H 580.042 0.146654 6.06523 0
M  V30 5957 H 578.781 -0.267249 4.86967 0
M  V30 5958 H 577.786 2.02489 5.11154 0
M  V30 5959 H 579.011 2.43149 6.34078 0
M  V30 5960 H 576.957 0.197917 6.55701 0
M  V30 5961 H 576.874 1.73216 7.35889 0
M  V30 5962 H 578.142 0.616523 7.77058 0
M  V30 5963 N 582.371 -1.3172 0.865308 0
M  V30 5964 C 583.617 -1.97168 0.474633 0
M  V30 5965 C 583.95 -1.68263 -0.969604 0
M  V30 5966 O 583.225 -0.976588 -1.68205 0
M  V30 5967 C 583.508 -3.52689 0.726808 0
M  V30 5968 C 583.361 -3.91185 2.22024 0
M  V30 5969 C 584.68 -4.39689 0.190201 0
M  V30 5970 H 581.799 -0.716185 0.17392 0
M  V30 5971 H 584.441 -1.55925 1.08569 0
M  V30 5972 H 582.591 -3.8795 0.206705 0
M  V30 5973 H 584.263 -3.66049 2.80724 0
M  V30 5974 H 582.506 -3.3996 2.69462 0
M  V30 5975 H 583.177 -4.99604 2.34735 0
M  V30 5976 H 585.653 -4.11225 0.635103 0
M  V30 5977 H 584.529 -5.47469 0.396132 0
M  V30 5978 H 584.79 -4.32683 -0.907625 0
M  V30 5979 N 583.85 -0.624285 -1.44708 0
M  V30 5980 C 584.779 0.0717025 -2.3339 0
M  V30 5981 C 585.76 0.841814 -1.47809 0
M  V30 5982 O 586.946 0.809056 -1.76544 0
M  V30 5983 C 584.076 1.05852 -3.30776 0
M  V30 5984 C 583.029 0.400503 -4.26122 0
M  V30 5985 C 582.356 1.49674 -5.13324 0
M  V30 5986 C 583.656 -0.688924 -5.17737 0
M  V30 5987 H 585.35 -0.668819 -2.91834 0
M  V30 5988 H 582.896 -0.32308 -1.40329 0
M  V30 5989 H 584.849 1.5541 -3.91696 0
M  V30 5990 H 583.572 1.82984 -2.70526 0
M  V30 5991 H 582.231 -0.0743687 -3.66525 0
M  V30 5992 H 581.88 2.25877 -4.49431 0
M  V30 5993 H 581.58 1.06188 -5.77926 0
M  V30 5994 H 583.104 1.99427 -5.77115 0
M  V30 5995 H 584.518 -0.276724 -5.72632 0
M  V30 5996 H 582.915 -1.04652 -5.90904 0
M  V30 5997 H 583.985 -1.55884 -4.5916 0
M  V30 5998 N 585.328 1.53329 -0.364422 0
M  V30 5999 C 586.291 2.24323 0.470292 0
M  V30 6000 C 587.291 1.25068 1.01067 0
M  V30 6001 O 588.481 1.49354 0.896605 0
M  V30 6002 C 585.613 2.97908 1.65722 0
M  V30 6003 H 586.806 2.9952 -0.150917 0
M  V30 6004 H 584.359 1.55868 -0.116092 0
M  V30 6005 H 585.094 2.2695 2.31655 0
M  V30 6006 H 584.879 3.70732 1.27671 0
M  V30 6007 H 586.369 3.5188 2.24878 0
M  V30 6008 N 586.806 0.0935595 1.57322 0
M  V30 6009 C 587.756 -0.876521 2.10478 0
M  V30 6010 C 588.74 -1.24482 1.01946 0
M  V30 6011 O 589.932 -1.22016 1.28223 0
M  V30 6012 C 587.061 -2.13615 2.68745 0
M  V30 6013 C 586.147 -1.79335 3.84317 0
M  V30 6014 N 586.538 -1.15606 4.92411 0
M  V30 6015 C 584.836 -2.08954 3.94023 0
M  V30 6016 C 585.537 -0.999036 5.73057 0
M  V30 6017 N 584.513 -1.51585 5.22037 0
M  V30 6018 H 588.315 -0.379829 2.91435 0
M  V30 6019 H 585.829 -0.109699 1.62029 0
M  V30 6020 H 587.826 -2.84053 3.05155 0
M  V30 6021 H 586.486 -2.63851 1.89242 0
M  V30 6022 H 587.497 -0.823063 5.11318 0
M  V30 6023 H 584.174 -2.61416 3.25527 0
M  V30 6024 H 585.564 -0.500772 6.70031 0
M  V30 6025 N 588.284 -1.56567 -0.180126 0
M  V30 6026 C 589.531 -1.81492 -0.898167 0
M  V30 6027 C 589.859 -0.669225 -1.82624 0
M  V30 6028 O 589.114 0.344096 -1.92651 0
M  V30 6029 C 589.413 -3.1252 -1.73395 0
M  V30 6030 C 589.079 -4.40658 -0.955567 0
M  V30 6031 C 587.741 -4.75465 -0.740707 0
M  V30 6032 C 590.093 -5.19593 -0.408948 0
M  V30 6033 C 587.421 -5.86691 0.0320128 0
M  V30 6034 C 589.773 -6.31627 0.350638 0
M  V30 6035 C 588.437 -6.65007 0.576378 0
M  V30 6036 H 587.707 -0.664125 -0.328662 0
M  V30 6037 H 590.354 -1.908 -0.163616 0
M  V30 6038 H 588.659 -2.98515 -2.53763 0
M  V30 6039 H 590.356 -3.29013 -2.29241 0
M  V30 6040 H 586.946 -4.13352 -1.13306 0
M  V30 6041 H 591.13 -4.93104 -0.562307 0
M  V30 6042 H 586.386 -6.11016 0.216735 0
M  V30 6043 H 590.56 -6.92001 0.781497 0
M  V30 6044 H 588.187 -7.51033 1.17703 0
M  V30 6045 N 589.762 0.448376 -1.51087 0
M  V30 6046 C 590.992 1.21965 -1.66757 0
M  V30 6047 C 591.4 1.85748 -0.359753 0
M  V30 6048 O 590.743 1.71022 0.670604 0
M  V30 6049 C 590.805 2.35284 -2.71812 0
M  V30 6050 C 590.469 1.91957 -4.1473 0
M  V30 6051 C 591.466 1.42921 -4.9987 0
M  V30 6052 C 589.151 1.99985 -4.60772 0
M  V30 6053 C 591.145 1.02485 -6.29107 0
M  V30 6054 C 588.832 1.5916 -5.90009 0
M  V30 6055 C 589.83 1.10491 -6.74004 0
M  V30 6056 O 589.518 0.702413 -8.00825 0
M  V30 6057 H 589.25 0.374125 -0.563034 0
M  V30 6058 H 591.804 0.538927 -1.98204 0
M  V30 6059 H 590.034 3.06599 -2.35657 0
M  V30 6060 H 591.723 2.97184 -2.76472 0
M  V30 6061 H 592.489 1.36123 -4.65506 0
M  V30 6062 H 588.368 2.36814 -3.95525 0
M  V30 6063 H 591.912 0.644271 -6.94619 0
M  V30 6064 H 587.809 1.65626 -6.2389 0
M  V30 6065 H 588.577 0.829248 -8.14288 0
M  V30 6066 N 591.24 1.41047 0.703093 0
M  V30 6067 C 592.488 1.39723 1.4602 0
M  V30 6068 C 592.809 0.00461257 1.94999 0
M  V30 6069 O 592.079 -0.952292 1.71196 0
M  V30 6070 H 590.659 0.514281 0.541779 0
M  V30 6071 H 593.321 1.76217 0.832678 0
M  V30 6072 H 592.417 2.07982 2.32701 0
M  V30 6073 N 592.718 -0.936591 1.26751 0
M  V30 6074 C 593.964 -1.6858 1.12733 0
M  V30 6075 C 594.297 -1.91414 -0.327745 0
M  V30 6076 O 593.572 -1.49812 -1.24043 0
M  V30 6077 C 593.855 -3.05779 1.90187 0
M  V30 6078 C 593.708 -2.90242 3.43627 0
M  V30 6079 C 595.027 -4.0597 1.69931 0
M  V30 6080 H 592.146 -0.61182 0.410908 0
M  V30 6081 H 594.788 -1.08747 1.55801 0
M  V30 6082 H 592.938 -3.56853 1.53584 0
M  V30 6083 H 594.61 -2.46354 3.9001 0
M  V30 6084 H 592.853 -2.2577 3.70419 0
M  V30 6085 H 593.524 -3.87572 3.93055 0
M  V30 6086 H 596 -3.63874 2.0183 0
M  V30 6087 H 594.876 -4.99974 2.26534 0
M  V30 6088 H 595.137 -4.37369 0.64502 0
M  V30 6089 N 594.196 -1.08629 -1.14182 0
M  V30 6090 C 595.143 -0.718299 -2.19338 0
M  V30 6091 C 596.113 0.296587 -1.63431 0
M  V30 6092 O 597.298 0.180079 -1.89948 0
M  V30 6093 C 594.438 -0.136203 -3.44831 0
M  V30 6094 C 593.551 -1.20414 -4.14879 0
M  V30 6095 C 592.686 -0.585666 -5.27962 0
M  V30 6096 C 591.725 -1.63548 -5.89846 0
M  V30 6097 N 590.862 -1.03864 -6.94375 0
M  V30 6098 H 595.702 -1.61932 -2.50164 0
M  V30 6099 H 593.239 -0.80919 -1.22844 0
M  V30 6100 H 595.197 0.219021 -4.16625 0
M  V30 6101 H 593.827 0.728121 -3.14481 0
M  V30 6102 H 592.879 -1.67676 -3.41451 0
M  V30 6103 H 594.191 -1.99959 -4.56966 0
M  V30 6104 H 593.345 -0.178818 -6.06436 0
M  V30 6105 H 592.084 0.24142 -4.87102 0
M  V30 6106 H 591.089 -2.05197 -5.10073 0
M  V30 6107 H 592.314 -2.46509 -6.3278 0
M  V30 6108 H 590.26 -0.232687 -6.55587 0
M  V30 6109 H 590.177 -1.77116 -7.3496 0
M  V30 6110 H 591.445 -0.657724 -7.7672 0
M  V30 6111 N 595.674 1.31259 -0.872281 0
M  V30 6112 C 596.604 2.30929 -0.345554 0
M  V30 6113 C 597.585 1.60449 0.5648 0
M  V30 6114 O 598.77 1.8814 0.481335 0
M  V30 6115 C 595.9 3.44348 0.451823 0
M  V30 6116 C 594.854 4.26435 -0.365641 0
M  V30 6117 C 594.18 5.31785 0.557562 0
M  V30 6118 C 595.48 4.97159 -1.60095 0
M  V30 6119 H 597.174 2.75234 -1.17841 0
M  V30 6120 H 594.72 1.3232 -0.568094 0
M  V30 6121 H 596.673 4.13128 0.830854 0
M  V30 6122 H 595.397 2.98816 1.31821 0
M  V30 6123 H 594.056 3.59326 -0.726649 0
M  V30 6124 H 593.704 4.82502 1.4213 0
M  V30 6125 H 593.404 5.87598 0.0144878 0
M  V30 6126 H 594.928 6.03424 0.933387 0
M  V30 6127 H 596.342 5.58523 -1.29323 0
M  V30 6128 H 594.739 5.62779 -2.08327 0
M  V30 6129 H 595.809 4.24012 -2.35249 0
M  V30 6130 N 597.152 0.631951 1.44375 0
M  V30 6131 C 598.062 -0.073674 2.34484 0
M  V30 6132 C 599.078 -0.834825 1.52665 0
M  V30 6133 O 600.254 -0.786902 1.85391 0
M  V30 6134 C 597.319 -1.04247 3.30656 0
M  V30 6135 C 596.38 -0.280602 4.28382 0
M  V30 6136 C 595.613 -1.20325 5.19959 0
M  V30 6137 O 595.836 -2.44199 5.15484 0
M  V30 6138 O 594.77 -0.687128 5.97965 0
M  V30 6139 H 598.596 0.667477 2.96274 0
M  V30 6140 H 596.181 0.392144 1.44162 0
M  V30 6141 H 598.063 -1.59981 3.89851 0
M  V30 6142 H 596.738 -1.76422 2.71398 0
M  V30 6143 H 595.645 0.319804 3.72731 0
M  V30 6144 H 596.978 0.401144 4.90563 0
M  V30 6145 N 598.631 -1.53133 0.372548 0
M  V30 6146 C 599.879 -2.00958 -0.214534 0
M  V30 6147 C 600.2 -1.26135 -1.48711 0
M  V30 6148 O 599.47 -0.376597 -1.92246 0
M  V30 6149 H 598.05 -0.742456 -0.0822664 0
M  V30 6150 H 600.712 -1.88367 0.500385 0
M  V30 6151 H 599.808 -3.09031 -0.436605 0
M  V30 6152 N 600.109 -0.101901 -1.5727 0
M  V30 6153 C 601.056 0.854577 -2.14396 0
M  V30 6154 C 602.026 1.27521 -1.06432 0
M  V30 6155 O 603.211 1.35575 -1.34253 0
M  V30 6156 C 600.351 2.10576 -2.73408 0
M  V30 6157 C 599.464 1.73504 -3.95626 0
M  V30 6158 C 598.599 2.9346 -4.42781 0
M  V30 6159 C 597.638 2.52547 -5.57572 0
M  V30 6160 N 596.775 3.65359 -5.99547 0
M  V30 6161 H 601.615 0.360578 -2.9581 0
M  V30 6162 H 599.152 0.166303 -1.46157 0
M  V30 6163 H 601.11 2.83859 -3.05745 0
M  V30 6164 H 599.74 2.57463 -1.94711 0
M  V30 6165 H 598.792 0.901622 -3.6956 0
M  V30 6166 H 600.104 1.39426 -4.78917 0
M  V30 6167 H 599.258 3.74988 -4.76937 0
M  V30 6168 H 597.997 3.30753 -3.58404 0
M  V30 6169 H 597.002 1.69446 -5.23037 0
M  V30 6170 H 598.227 2.1639 -6.43702 0
M  V30 6171 H 596.173 4.02358 -5.18116 0
M  V30 6172 H 596.09 3.35148 -6.77652 0
M  V30 6173 H 597.358 4.47378 -6.38336 0
M  V30 6174 N 601.587 1.56661 0.17182 0
M  V30 6175 C 602.833 1.82235 0.889845 0
M  V30 6176 C 603.166 0.679673 1.81918 0
M  V30 6177 O 602.441 -0.318404 1.91876 0
M  V30 6178 C 602.724 3.18195 1.68595 0
M  V30 6179 C 602.577 4.42989 0.779773 0
M  V30 6180 C 603.896 3.5109 2.65375 0
M  V30 6181 H 601.015 0.66291 0.322056 0
M  V30 6182 H 603.657 1.89358 0.15608 0
M  V30 6183 H 601.807 3.12253 2.3115 0
M  V30 6184 H 603.479 4.60997 0.16714 0
M  V30 6185 H 601.722 4.33711 0.0877964 0
M  V30 6186 H 602.393 5.3467 1.3723 0
M  V30 6187 H 604.869 3.57482 2.12946 0
M  V30 6188 H 603.745 4.47298 3.18144 0
M  V30 6189 H 604.006 2.75768 3.45549 0
M  V30 6190 N 603.065 -0.440357 1.51323 0
M  V30 6191 C 604.476 -1.02032 1.56353 0
M  V30 6192 C 604.827 -1.92382 0.385197 0
M  V30 6193 O 603.952 -2.10583 -0.498373 0
M  V30 6194 C 604.547 -1.85723 2.83359 0
M  V30 6195 C 603.106 -2.38774 2.90971 0
M  V30 6196 C 602.253 -1.17908 2.50984 0
M  V30 6197 H 605.204 -0.221744 1.57143 0
M  V30 6198 H 605.225 -2.71141 2.66951 0
M  V30 6199 H 604.737 -1.19939 3.69102 0
M  V30 6200 H 602.838 -3.08021 2.09651 0
M  V30 6201 H 602.951 -2.71778 3.94555 0
M  V30 6202 H 601.315 -1.52347 2.04114 0
M  V30 6203 H 602.098 -0.537393 3.39068 0
M  V30 6204 N 604.543 -1.41418 -0.695603 0
M  V30 6205 C 605.476 -1.3768 -1.81988 0
M  V30 6206 C 606.454 -0.244061 -1.60758 0
M  V30 6207 O 607.638 -0.430965 -1.83507 0
M  V30 6208 C 604.765 -1.1476 -3.18666 0
M  V30 6209 C 603.811 -2.30752 -3.58686 0
M  V30 6210 S 604.644 -3.9323 -3.63498 0
M  V30 6211 C 605.8 -3.72613 -5.02902 0
M  V30 6212 H 606.033 -2.32822 -1.84882 0
M  V30 6213 H 603.566 -1.27942 -0.86431 0
M  V30 6214 H 605.524 -1.02223 -3.97569 0
M  V30 6215 H 604.185 -0.212385 -3.13381 0
M  V30 6216 H 603.378 -2.10409 -4.57978 0
M  V30 6217 H 602.98 -2.39696 -2.87092 0
M  V30 6218 H 605.272 -3.32317 -5.904 0
M  V30 6219 H 606.215 -4.71507 -5.28286 0
M  V30 6220 H 606.623 -3.0589 -4.74438 0
M  V30 6221 N 606.021 0.929856 -1.27246 0
M  V30 6222 C 606.971 2.01629 -1.06442 0
M  V30 6223 C 607.955 1.60899 0.00687842 0
M  V30 6224 O 609.147 1.75733 -0.211407 0
M  V30 6225 C 606.276 3.35849 -0.711361 0
M  V30 6226 C 605.362 3.8303 -1.82069 0
M  V30 6227 N 605.753 4.02743 -3.05993 0
M  V30 6228 C 604.051 4.12046 -1.70687 0
M  V30 6229 C 604.752 4.42001 -3.78167 0
M  V30 6230 N 603.728 4.4935 -3.05918 0
M  V30 6231 H 607.53 2.14898 -2.00489 0
M  V30 6232 H 605.044 1.11654 -1.17929 0
M  V30 6233 H 607.041 4.13343 -0.543442 0
M  V30 6234 H 605.701 3.23944 0.221517 0
M  V30 6235 H 606.712 3.89112 -3.41778 0
M  V30 6236 H 603.389 4.08866 -0.844681 0
M  V30 6237 H 604.779 4.6535 -4.84664 0
M  V30 6238 N 607.499 1.09233 1.13605 0
M  V30 6239 C 608.446 0.729921 2.18954 0
M  V30 6240 C 609.416 -0.287916 1.63586 0
M  V30 6241 O 610.601 -0.170003 1.90041 0
M  V30 6242 C 607.741 0.154489 3.44754 0
M  V30 6243 C 606.854 1.22613 4.14234 0
M  V30 6244 C 605.989 0.613657 5.27644 0
M  V30 6245 C 605.028 1.66674 5.8897 0
M  V30 6246 N 604.165 1.07545 6.93814 0
M  V30 6247 H 609.005 1.63257 2.49302 0
M  V30 6248 H 606.542 0.815693 1.22413 0
M  V30 6249 H 608.5 -0.196923 4.16735 0
M  V30 6250 H 607.13 -0.711433 3.14863 0
M  V30 6251 H 606.182 1.69485 3.40557 0
M  V30 6252 H 607.494 2.0238 4.55899 0
M  V30 6253 H 606.648 0.210976 6.06333 0
M  V30 6254 H 605.387 -0.215584 4.87223 0
M  V30 6255 H 604.392 2.07899 5.08978 0
M  V30 6256 H 605.617 2.49861 6.31464 0
M  V30 6257 H 603.563 0.267451 6.55455 0
M  V30 6258 H 603.48 1.81011 7.3401 0
M  V30 6259 H 604.748 0.698906 7.7636 0
M  V30 6260 N 608.977 -1.30795 0.87923 0
M  V30 6261 C 609.907 -2.30742 0.357796 0
M  V30 6262 C 610.888 -1.60747 -0.556283 0
M  V30 6263 O 612.073 -1.88393 -0.47135 0
M  V30 6264 C 609.203 -3.44583 -0.433555 0
M  V30 6265 C 608.157 -4.26235 0.388251 0
M  V30 6266 C 607.483 -5.32073 -0.529352 0
M  V30 6267 C 608.783 -4.96303 1.62729 0
M  V30 6268 H 610.477 -2.74605 1.19299 0
M  V30 6269 H 608.023 -1.32017 0.575104 0
M  V30 6270 H 609.976 -4.13563 -0.808934 0
M  V30 6271 H 608.7 -2.99511 -1.30234 0
M  V30 6272 H 607.359 -3.58936 0.745695 0
M  V30 6273 H 607.007 -4.83249 -1.39569 0
M  V30 6274 H 606.707 -5.87598 0.0166741 0
M  V30 6275 H 608.231 -6.0391 -0.901373 0
M  V30 6276 H 609.645 -5.5783 1.32283 0
M  V30 6277 H 608.042 -5.61666 2.11309 0
M  V30 6278 H 609.112 -4.22758 2.37494 0
M  V30 6279 N 610.455 -0.639598 -1.44038 0
M  V30 6280 C 611.702 -0.14748 -2.01962 0
M  V30 6281 C 612.03 1.23372 -1.50365 0
M  V30 6282 O 611.285 1.8345 -0.681501 0
M  V30 6283 C 611.584 -0.0925348 -3.5728 0
M  V30 6284 C 611.25 -1.41365 -4.28167 0
M  V30 6285 C 609.912 -1.77545 -4.47248 0
M  V30 6286 C 612.264 -2.2853 -4.68427 0
M  V30 6287 C 609.592 -3.00583 -5.03852 0
M  V30 6288 C 611.944 -3.50846 -5.26393 0
M  V30 6289 C 610.608 -3.8724 -5.43692 0
M  V30 6290 H 609.878 -0.0539666 -0.739032 0
M  V30 6291 H 612.525 -0.827599 -1.72694 0
M  V30 6292 H 610.83 0.670987 -3.86012 0
M  V30 6293 H 612.527 0.304891 -3.99839 0
M  V30 6294 H 609.117 -1.1221 -4.13651 0
M  V30 6295 H 613.301 -2.0187 -4.5339 0
M  V30 6296 H 608.557 -3.28846 -5.15432 0
M  V30 6297 H 612.731 -4.18616 -5.56537 0
M  V30 6298 H 610.358 -4.8266 -5.87319 0
M  V30 6299 N 611.933 1.52934 -0.380664 0
M  V30 6300 C 612.863 2.29118 0.450268 0
M  V30 6301 C 613.844 1.32153 1.07096 0
M  V30 6302 O 615.029 1.61038 1.08537 0
M  V30 6303 C 612.159 3.09161 1.58231 0
M  V30 6304 C 611.113 4.13938 1.0881 0
M  V30 6305 C 610.439 4.82153 2.31155 0
M  V30 6306 C 611.739 5.22048 0.162146 0
M  V30 6307 H 613.433 2.98826 -0.185361 0
M  V30 6308 H 610.979 1.43715 -0.0905886 0
M  V30 6309 H 612.932 3.61211 2.17036 0
M  V30 6310 H 611.656 2.3717 2.2454 0
M  V30 6311 H 610.315 3.62855 0.522633 0
M  V30 6312 H 609.963 4.06719 2.95953 0
M  V30 6313 H 609.663 5.52966 1.98752 0
M  V30 6314 H 611.187 5.37004 2.90618 0
M  V30 6315 H 612.601 5.6951 0.658126 0
M  V30 6316 H 610.998 6.00057 -0.0717122 0
M  V30 6317 H 612.068 4.78398 -0.791438 0
M  V30 6318 N 613.412 0.11024 1.57214 0
M  V30 6319 C 614.322 -0.857077 2.18383 0
M  V30 6320 C 615.338 -1.29915 1.1575 0
M  V30 6321 O 616.514 -1.36394 1.48184 0
M  V30 6322 C 613.579 -2.09264 2.76423 0
M  V30 6323 C 612.64 -1.70333 3.94063 0
M  V30 6324 C 611.873 -2.87999 4.49324 0
M  V30 6325 O 612.096 -4.0317 4.03497 0
M  V30 6326 O 611.03 -2.6559 5.40135 0
M  V30 6327 H 614.856 -0.366561 3.0148 0
M  V30 6328 H 612.441 -0.114914 1.48957 0
M  V30 6329 H 614.323 -2.81644 3.13456 0
M  V30 6330 H 612.998 -2.57339 1.96363 0
M  V30 6331 H 611.905 -0.950864 3.61814 0
M  V30 6332 H 613.238 -1.27007 4.75531 0
M  V30 6333 N 614.89 -1.56749 -0.16351 0
M  V30 6334 C 615.823 -1.9213 -1.23132 0
M  V30 6335 C 616.801 -0.785047 -1.42393 0
M  V30 6336 O 617.985 -1.0391 -1.57273 0
M  V30 6337 C 615.112 -2.17901 -2.59301 0
M  V30 6338 C 614.158 -3.40576 -2.5673 0
M  V30 6339 S 614.991 -4.94689 -2.05045 0
M  V30 6340 C 616.147 -5.23564 -3.42975 0
M  V30 6341 H 616.38 -2.824 -0.929383 0
M  V30 6342 H 613.913 -1.4994 -0.368418 0
M  V30 6343 H 615.871 -2.33429 -3.3767 0
M  V30 6344 H 614.532 -1.28324 -2.86691 0
M  V30 6345 H 613.725 -3.55833 -3.5693 0
M  V30 6346 H 613.327 -3.24204 -1.86462 0
M  V30 6347 H 615.619 -5.16019 -4.3901 0
M  V30 6348 H 616.562 -6.25134 -3.32586 0
M  V30 6349 H 616.97 -4.51113 -3.39348 0
M  V30 6350 N 616.368 0.432326 -1.51554 0
M  V30 6351 C 617.298 1.53242 -1.76179 0
M  V30 6352 C 618.279 1.58717 -0.611801 0
M  V30 6353 O 619.464 1.74364 -0.855033 0
M  V30 6354 C 616.594 2.91278 -1.89141 0
M  V30 6355 C 615.548 3.00663 -3.04608 0
M  V30 6356 C 614.874 4.40728 -3.02759 0
M  V30 6357 C 616.174 2.74281 -4.44485 0
M  V30 6358 H 617.868 1.32886 -2.68294 0
M  V30 6359 H 615.414 0.637841 -1.29103 0
M  V30 6360 H 617.367 3.68203 -2.04951 0
M  V30 6361 H 616.091 3.12877 -0.936785 0
M  V30 6362 H 614.75 2.26179 -2.88511 0
M  V30 6363 H 614.398 4.59301 -2.05065 0
M  V30 6364 H 614.098 4.47936 -3.80299 0
M  V30 6365 H 615.622 5.19619 -3.20669 0
M  V30 6366 H 617.036 3.40936 -4.60907 0
M  V30 6367 H 615.433 2.92893 -5.23769 0
M  V30 6368 H 616.503 1.69856 -4.54177 0
M  V30 6369 N 617.846 1.41785 0.688094 0
M  V30 6370 C 618.756 1.46596 1.83158 0
M  V30 6371 C 619.772 0.355862 1.70322 0
M  V30 6372 O 620.948 0.604737 1.92106 0
M  V30 6373 C 618.013 1.35322 3.192 0
M  V30 6374 C 617.074 2.56711 3.4409 0
M  V30 6375 C 616.307 2.45965 4.73642 0
M  V30 6376 O 616.53 1.48827 5.50642 0
M  V30 6377 O 615.464 3.35859 4.99482 0
M  V30 6378 H 619.29 2.43083 1.82056 0
M  V30 6379 H 616.875 1.23404 0.842126 0
M  V30 6380 H 618.757 1.31347 4.00407 0
M  V30 6381 H 617.432 0.419536 3.2097 0
M  V30 6382 H 616.339 2.66262 2.62784 0
M  V30 6383 H 617.672 3.48933 3.47141 0
M  V30 6384 N 619.324 -0.923095 1.27737 0
M  V30 6385 C 620.287 -2.00587 1.10894 0
M  V30 6386 C 621.287 -1.60718 0.0514927 0
M  V30 6387 O 622.477 -1.71658 0.296481 0
M  V30 6388 C 619.609 -3.33829 0.690717 0
M  V30 6389 H 620.802 -2.16959 2.07048 0
M  V30 6390 H 618.355 -1.10451 1.1059 0
M  V30 6391 H 619.09 -3.23157 -0.272 0
M  V30 6392 H 618.875 -3.64125 1.45448 0
M  V30 6393 H 620.365 -4.13336 0.595252 0
M  V30 6394 N 620.802 -1.09834 -1.13024 0
M  V30 6395 C 621.735 -0.685453 -2.17662 0
M  V30 6396 C 622.713 0.310142 -1.59615 0
M  V30 6397 O 623.897 0.21052 -1.87321 0
M  V30 6398 C 621.024 -0.0104476 -3.38698 0
M  V30 6399 C 620.07 -0.968522 -4.15358 0
M  V30 6400 S 620.903 -2.48272 -4.74469 0
M  V30 6401 C 622.059 -1.82025 -5.98847 0
M  V30 6402 H 622.292 -1.57187 -2.52348 0
M  V30 6403 H 619.825 -0.914728 -1.24387 0
M  V30 6404 H 621.783 0.372694 -4.08805 0
M  V30 6405 H 620.444 0.852673 -3.02305 0
M  V30 6406 H 619.637 -0.443373 -5.02046 0
M  V30 6407 H 619.239 -1.29327 -3.50928 0
M  V30 6408 H 621.531 -1.14678 -6.67724 0
M  V30 6409 H 622.474 -2.66645 -6.55977 0
M  V30 6410 H 622.882 -1.2874 -5.49624 0
M  V30 6411 N 622.28 1.30327 -0.886154 0
M  V30 6412 C 623.213 2.26241 -0.298407 0
M  V30 6413 C 624.191 1.51839 0.581704 0
M  V30 6414 O 625.375 1.80851 0.531536 0
M  V30 6415 C 622.502 3.33768 0.575888 0
M  V30 6416 C 621.548 4.25852 -0.235057 0
M  V30 6417 S 622.381 5.10277 -1.62411 0
M  V30 6418 C 623.537 6.21313 -0.756368 0
M  V30 6419 H 623.77 2.75744 -1.11141 0
M  V30 6420 H 621.303 1.38341 -0.685651 0
M  V30 6421 H 623.261 3.96186 1.07458 0
M  V30 6422 H 621.922 2.82986 1.363 0
M  V30 6423 H 621.115 5.02143 0.432198 0
M  V30 6424 H 620.717 3.68015 -0.666409 0
M  V30 6425 H 623.009 6.77495 0.0261451 0
M  V30 6426 H 623.952 6.92226 -1.49093 0
M  V30 6427 H 624.36 5.63611 -0.316749 0
M  V30 6428 N 623.758 0.647228 1.43697 0
M  V30 6429 C 625.035 0.0883758 1.954 0
M  V30 6430 C 625.415 -1.39006 1.58873 0
M  V30 6431 O 624.763 -2.11255 0.87083 0
M  V30 6432 C 624.973 0.328263 3.47453 0
M  V30 6433 C 626.321 0.230009 4.23977 0
M  V30 6434 O 627.345 0.260496 3.55246 0
M  V30 6435 O 626.204 0.148615 5.46298 0
M  V30 6436 H 623.298 -0.0130683 0.826897 0
M  V30 6437 H 625.844 0.72005 1.53666 0
M  V30 6438 H 624.616 1.3535 3.67146 0
M  V30 6439 H 624.239 -0.336772 3.96171 0
M  V30 6440 O 625.275 -1.52523 0.530952 0
M  V30 6441 H 625.966 -1.93688 0.0212942 0
M  V30 END ATOM
M  V30 BEGIN BOND
M  V30 END BOND
M  V30 END CTAB
M  END
$$$$
