drugbank_target|P22364 Amicyanin (DB02467; DB08646)
 OpenBabel12092120243D

  0  0  0     0  0            999 V3000
M  V30 BEGIN CTAB
M  V30 COUNTS 1962 1984 0 0 0
M  V30 BEGIN ATOM
M  V30 1 H -0.908 1.98254 -0.117106 0
M  V30 2 N 0 1.576 0 0
M  V30 3 C 0.933 2.03868 1.02534 0
M  V30 4 C 1.911 0.928543 1.3348 0
M  V30 5 O 3.095 1.19667 1.45644 0
M  V30 6 C 0.222 2.43627 2.35294 0
M  V30 7 C -0.732 3.65373 2.2001 0
M  V30 8 S 0.101 5.13292 1.52614 0
M  V30 9 C 1.257 5.56322 2.86805 0
M  V30 10 H 1.49 2.90518 0.631377 0
M  V30 11 H -0.977 1.52953 0.210867 0
M  V30 12 H 0.981 2.67203 3.11629 0
M  V30 13 H -0.358 1.57376 2.7183 0
M  V30 14 H -1.165 3.90944 3.18086 0
M  V30 15 H -1.563 3.418 1.51819 0
M  V30 16 H 0.729 5.58782 3.83104 0
M  V30 17 H 1.672 6.56266 2.65933 0
M  V30 18 H 2.08 4.83886 2.90714 0
M  V30 19 N 1.4781 -0.272755 1.55222 0
M  V30 20 C 2.7271 -1.00211 1.75045 0
M  V30 21 C 3.0401 -1.87441 0.559046 0
M  V30 22 O 4.2461 -2.63856 0.639698 0
M  V30 23 C 2.7021 -1.83165 3.09804 0
M  V30 24 C 2.3101 -1.008 4.36513 0
M  V30 25 C 4.0541 -2.55529 3.38977 0
M  V30 26 C 1.9611 -1.83194 5.62311 0
M  V30 27 H 0.8911 -0.377878 0.652476 0
M  V30 28 H 3.5421 -0.257776 1.8168 0
M  V30 29 H 1.9241 -2.61694 2.97207 0
M  V30 30 H 3.0981 -0.266855 4.60027 0
M  V30 31 H 1.4131 -0.398897 4.14485 0
M  V30 32 H 4.0101 -3.17578 4.30172 0
M  V30 33 H 4.3531 -3.25825 2.59121 0
M  V30 34 H 4.8861 -1.84029 3.52673 0
M  V30 35 H 1.6251 -1.17318 6.44916 0
M  V30 36 H 1.1451 -2.54905 5.4294 0
M  V30 37 H 2.8241 -2.40552 6.00619 0
M  V30 38 N 2.9562 -1.48159 -0.537278 0
M  V30 39 C 4.1812 -1.59707 -1.32319 0
M  V30 40 C 4.6062 -0.254859 -1.86365 0
M  V30 41 O 3.9642 0.772378 -1.64024 0
M  V30 42 C 4.0122 -2.6412 -2.45505 0
M  V30 43 O 3.1162 -2.20774 -3.48328 0
M  V30 44 H 2.4572 -0.535791 -0.392204 0
M  V30 45 H 4.9872 -1.94092 -0.647268 0
M  V30 46 H 4.9972 -2.85166 -2.91795 0
M  V30 47 H 3.6722 -3.61567 -2.05528 0
M  V30 48 H 2.2492 -2.09911 -3.08207 0
M  V30 49 N 4.4343 0.785586 -1.36625 0
M  V30 50 C 5.3973 1.87999 -1.31107 0
M  V30 51 C 6.3973 1.59316 -0.217959 0
M  V30 52 O 7.5873 1.67656 -0.472977 0
M  V30 53 C 4.7193 3.24861 -1.03334 0
M  V30 54 H 5.9123 1.94307 -2.2844 0
M  V30 55 H 3.4653 0.983813 -1.21453 0
M  V30 56 H 4.2003 3.24235 -0.0647432 0
M  V30 57 H 3.9853 3.4707 -1.82441 0
M  V30 58 H 5.4753 4.04929 -1.02088 0
M  V30 59 N 5.9124 1.20967 1.01018 0
M  V30 60 C 7.1404 1.04956 1.78303 0
M  V30 61 C 7.5554 -0.400915 1.84494 0
M  V30 62 O 6.9124 -1.27826 1.30257 0
M  V30 63 C 6.9634 1.63403 3.22462 0
M  V30 64 O 6.6844 3.02775 3.16637 0
M  V30 65 C 8.1854 1.52432 4.16268 0
M  V30 66 H 5.4054 0.368858 0.560522 0
M  V30 67 H 7.9494 1.60193 1.27116 0
M  V30 68 H 6.1044 1.1227 3.70775 0
M  V30 69 H 6.5184 3.30626 4.07169 0
M  V30 70 H 7.9924 1.98078 5.15237 0
M  V30 71 H 8.4694 0.477875 4.36592 0
M  V30 72 H 9.0754 2.02787 3.73841 0
M  V30 73 N 7.3905 -1.2043 1.01659 0
M  V30 74 C 8.3375 -2.23215 0.586822 0
M  V30 75 C 9.3075 -1.61382 -0.393085 0
M  V30 76 O 10.4925 -1.88544 -0.292525 0
M  V30 77 C 7.6325 -3.45032 -0.0687464 0
M  V30 78 C 6.7455 -4.21296 0.955724 0
M  V30 79 C 5.8805 -5.30507 0.271208 0
M  V30 80 C 4.9195 -5.98515 1.28244 0
M  V30 81 N 4.0565 -6.99316 0.62459 0
M  V30 82 H 8.8965 -2.59336 1.46796 0
M  V30 83 H 6.4335 -1.27431 0.734836 0
M  V30 84 H 8.3915 -4.1459 -0.465965 0
M  V30 85 H 7.0215 -3.09604 -0.913529 0
M  V30 86 H 6.0735 -3.50803 1.4711 0
M  V30 87 H 7.3855 -4.6803 1.72479 0
M  V30 88 H 6.5395 -6.06428 -0.18151 0
M  V30 89 H 5.2785 -4.8481 -0.530163 0
M  V30 90 H 4.2835 -5.21355 1.74554 0
M  V30 91 H 5.5085 -6.46298 2.08509 0
M  V30 92 H 3.4545 -6.55812 -0.156914 0
M  V30 93 H 3.3715 -7.44178 1.33172 0
M  V30 94 H 4.6395 -7.79255 0.195462 0
M  V30 95 N 8.8686 -0.792821 -1.36206 0
M  V30 96 C 10.1176 -0.363353 -1.984 0
M  V30 97 C 10.4306 1.07172 -1.63626 0
M  V30 98 O 11.6366 1.60362 -2.19081 0
M  V30 99 C 10.0926 -0.59872 -3.54885 0
M  V30 100 C 9.7006 -2.04543 -3.9858 0
M  V30 101 C 11.4446 -0.233926 -4.23855 0
M  V30 102 C 9.3516 -2.22727 -5.47856 0
M  V30 103 H 8.2816 -0.13212 -0.742334 0
M  V30 104 H 10.9326 -0.974935 -1.55458 0
M  V30 105 H 9.3146 0.0826222 -3.95914 0
M  V30 106 H 10.4886 -2.76345 -3.68741 0
M  V30 107 H 8.8036 -2.36879 -3.42458 0
M  V30 108 H 11.4006 -0.348027 -5.33566 0
M  V30 109 H 11.7436 0.818351 -4.08177 0
M  V30 110 H 12.2766 -0.868639 -3.882 0
M  V30 111 H 9.0156 -3.2635 -5.68486 0
M  V30 112 H 8.5356 -1.55434 -5.7931 0
M  V30 113 H 10.2146 -2.03607 -6.14128 0
M  V30 114 N 10.3467 1.47872 -0.545128 0
M  V30 115 C 11.7627 1.5829 -0.204032 0
M  V30 116 C 11.9627 1.54529 1.29317 0
M  V30 117 O 11.0187 1.44232 2.07252 0
M  V30 118 C 12.3317 2.89304 -0.819987 0
M  V30 119 C 13.8797 3.02864 -0.790105 0
M  V30 120 C 14.3547 4.3656 -1.38491 0
M  V30 121 N 15.8457 4.43165 -1.34755 0
M  V30 122 C 16.5807 5.45153 -1.77753 0
M  V30 123 N 16.0767 6.54016 -2.2855 0
M  V30 124 N 17.8697 5.36125 -1.68897 0
M  V30 125 H 10.0207 1.4856 -1.51802 0
M  V30 126 H 12.2837 0.706305 -0.632327 0
M  V30 127 H 11.9897 2.97757 -1.87173 0
M  V30 128 H 11.8637 3.75957 -0.305915 0
M  V30 129 H 14.2507 2.94014 0.252913 0
M  V30 130 H 14.3317 2.17782 -1.34181 0
M  V30 131 H 13.9757 4.46164 -2.42693 0
M  V30 132 H 13.9057 5.20353 -0.808754 0
M  V30 133 H 16.3967 3.65083 -0.975855 0
M  V30 134 H 16.7097 7.27994 -2.59314 0
M  V30 135 H 15.0547 6.54938 -2.32553 0
M  V30 136 H 18.2457 4.49975 -1.28998 0
M  V30 137 H 18.4187 6.15472 -2.02726 0
M  V30 138 N 11.8248 0.280983 1.55075 0
M  V30 139 C 13.0498 -0.340154 2.04592 0
M  V30 140 C 13.4748 -1.48246 1.15779 0
M  V30 141 O 12.8328 -1.80614 0.15761 0
M  V30 142 C 12.8808 -0.793104 3.5177 0
M  V30 143 O 11.9848 -1.89981 3.66034 0
M  V30 144 H 11.3258 -0.0694289 0.66036 0
M  V30 145 H 13.8558 0.416993 2.00306 0
M  V30 146 H 13.8658 -1.08729 3.93245 0
M  V30 147 H 12.5408 0.0426163 4.15878 0
M  V30 148 H 11.1178 -1.60771 3.36463 0
M  V30 149 N 13.3029 -1.57598 0.00835791 0
M  V30 150 C 14.5429 -1.92788 -0.679136 0
M  V30 151 C 14.9069 -0.883378 -1.70471 0
M  V30 152 O 16.1079 -1.12079 -2.44319 0
M  V30 153 C 14.3789 -3.32994 -1.29807 0
M  V30 154 S 15.9379 -3.90082 -2.00952 0
M  V30 155 H 12.7559 -0.67475 -0.224127 0
M  V30 156 H 15.3579 -1.95385 0.0670497 0
M  V30 157 H 14.0619 -4.06846 -0.538922 0
M  V30 158 H 13.5929 -3.33791 -2.082 0
M  V30 159 H 15.6079 -3.71834 -3.28563 0
M  V30 160 N 14.781 0.264519 -1.55364 0
M  V30 161 C 15.711 1.33121 -1.91836 0
M  V30 162 C 16.692 1.51101 -0.781192 0
M  V30 163 O 17.877 1.64003 -1.04003 0
M  V30 164 C 15.007 2.68921 -2.19769 0
M  V30 165 C 13.961 2.65661 -3.35571 0
M  V30 166 C 13.287 4.05093 -3.49004 0
M  V30 167 C 14.587 2.24187 -4.71739 0
M  V30 168 H 16.281 1.02844 -2.81182 0
M  V30 169 H 13.827 0.493286 -1.35287 0
M  V30 170 H 15.78 3.43663 -2.43872 0
M  V30 171 H 14.504 3.00799 -1.27231 0
M  V30 172 H 13.163 1.93377 -3.1145 0
M  V30 173 H 12.811 4.34206 -2.53917 0
M  V30 174 H 12.511 4.03804 -4.26868 0
M  V30 175 H 14.035 4.81561 -3.75408 0
M  V30 176 H 15.449 2.88654 -4.9533 0
M  V30 177 H 13.846 2.34044 -5.52579 0
M  V30 178 H 14.916 1.19327 -4.69988 0
M  V30 179 N 16.2591 1.48442 0.529413 0
M  V30 180 C 17.2221 1.62524 1.61612 0
M  V30 181 C 18.2221 0.498509 1.52877 0
M  V30 182 O 19.4121 0.76431 1.56537 0
M  V30 183 C 16.5441 1.59597 3.01233 0
M  V30 184 H 17.7371 2.59423 1.50465 0
M  V30 185 H 15.2901 1.37047 0.751514 0
M  V30 186 H 16.0251 0.641781 3.17886 0
M  V30 187 H 15.8101 2.41397 3.08982 0
M  V30 188 H 17.3001 1.72646 3.80241 0
M  V30 189 N 17.7372 -0.778329 1.37039 0
M  V30 190 C 18.7002 -1.87301 1.32102 0
M  V30 191 C 19.7002 -1.59198 0.226405 0
M  V30 192 O 20.8902 -1.67403 0.481861 0
M  V30 193 C 18.0222 -3.24309 1.05055 0
M  V30 194 H 19.2152 -1.93093 2.29467 0
M  V30 195 H 16.7682 -0.977358 1.21973 0
M  V30 196 H 17.5032 -3.24196 0.0819373 0
M  V30 197 H 17.2882 -3.46098 1.84279 0
M  V30 198 H 18.7782 -4.04382 1.04234 0
M  V30 199 N 19.2153 -1.21501 -1.00376 0
M  V30 200 C 20.4553 -1.04444 -1.75701 0
M  V30 201 C 20.8193 0.414644 -1.87469 0
M  V30 202 O 22.0203 0.705763 -2.59369 0
M  V30 203 C 20.2913 -1.72389 -3.13077 0
M  V30 204 S 21.8503 -1.70604 -4.04277 0
M  V30 205 H 18.6683 -0.374249 -0.604532 0
M  V30 206 H 21.2703 -1.54267 -1.20091 0
M  V30 207 H 19.9743 -2.77734 -3.02146 0
M  V30 208 H 19.5053 -1.22751 -3.73759 0
M  V30 209 H 21.5203 -0.748012 -4.9053 0
M  V30 210 N 20.6934 1.19889 -1.02296 0
M  V30 211 C 21.9394 1.89701 -0.717033 0
M  V30 212 C 22.2724 1.7905 0.751989 0
M  V30 213 O 21.5474 1.17891 1.547 0
M  V30 214 C 21.8304 3.40858 -1.16136 0
M  V30 215 C 21.6834 3.60411 -2.69117 0
M  V30 216 C 23.0024 4.33876 -0.737549 0
M  V30 217 H 20.1214 0.688874 -0.261957 0
M  V30 218 H 22.7634 1.41154 -1.27183 0
M  V30 219 H 20.9134 3.82335 -0.689342 0
M  V30 220 H 22.5854 3.28145 -3.2422 0
M  V30 221 H 20.8284 3.03665 -3.0979 0
M  V30 222 H 21.4994 4.66396 -2.95261 0
M  V30 223 H 23.9754 4.00081 -1.14344 0
M  V30 224 H 22.8514 5.38242 -1.0764 0
M  V30 225 H 23.1124 4.40628 0.360436 0
M  V30 226 N 22.1715 0.800033 1.35784 0
M  V30 227 C 23.1015 0.220184 2.3246 0
M  V30 228 C 24.0825 -0.65073 1.57161 0
M  V30 229 O 25.2675 -0.582359 1.85263 0
M  V30 230 C 22.3975 -0.637353 3.41402 0
M  V30 231 C 21.3515 0.134531 4.27789 0
M  V30 232 C 20.6775 -0.844285 5.27992 0
M  V30 233 C 21.9775 1.32979 5.05088 0
M  V30 234 H 23.6715 1.02787 2.81203 0
M  V30 235 H 21.2175 0.495717 1.35199 0
M  V30 236 H 23.1705 -1.05302 4.08031 0
M  V30 237 H 21.8945 -1.47785 2.91251 0
M  V30 238 H 20.5535 0.531296 3.6273 0
M  V30 239 H 20.2015 -1.68011 4.74111 0
M  V30 240 H 19.9015 -0.332184 5.8666 0
M  V30 241 H 21.4255 -1.2583 5.97494 0
M  V30 242 H 22.8395 0.98934 5.64699 0
M  V30 243 H 21.2365 1.77593 5.7322 0
M  V30 244 H 22.3065 2.11978 4.36111 0
M  V30 245 N 23.6496 -1.47581 0.552962 0
M  V30 246 C 24.6126 -2.28439 -0.186605 0
M  V30 247 C 25.6126 -1.36706 -0.84665 0
M  V30 248 O 26.8026 -1.59378 -0.703164 0
M  V30 249 C 23.9346 -3.16264 -1.2724 0
M  V30 250 H 25.1276 -2.95294 0.523609 0
M  V30 251 H 22.6806 -1.532 0.309745 0
M  V30 252 H 23.4156 -2.54091 -2.01514 0
M  V30 253 H 23.2006 -3.83769 -0.803968 0
M  V30 254 H 24.6906 -3.77198 -1.79196 0
M  V30 255 N 25.1277 -0.289203 -1.54924 0
M  V30 256 C 26.0907 0.579144 -2.21762 0
M  V30 257 C 27.0907 1.07047 -1.1999 0
M  V30 258 O 28.2807 0.968384 -1.44803 0
M  V30 259 C 25.4127 1.80055 -2.8947 0
M  V30 260 H 26.6057 -0.00464908 -2.999 0
M  V30 261 H 24.1587 -0.0399306 -1.56249 0
M  V30 262 H 24.8937 2.42449 -2.15381 0
M  V30 263 H 24.6787 1.45602 -3.64064 0
M  V30 264 H 26.1687 2.41773 -3.40493 0
M  V30 265 N 26.6058 1.57591 -0.0167156 0
M  V30 266 C 27.8528 1.91283 0.664597 0
M  V30 267 C 28.1808 0.891949 1.72842 0
M  V30 268 O 27.4358 -0.100931 1.9544 0
M  V30 269 C 27.7348 3.3172 1.33029 0
M  V30 270 C 27.4008 4.4914 0.398047 0
M  V30 271 C 26.0628 4.80992 0.141421 0
M  V30 272 C 28.4148 5.20634 -0.242825 0
M  V30 273 C 25.7428 5.81703 -0.764092 0
M  V30 274 C 28.0948 6.22311 -1.13632 0
M  V30 275 C 26.7588 6.52611 -1.40196 0
M  V30 276 H 26.0288 0.699956 0.243193 0
M  V30 277 H 28.6758 1.9135 -0.0758267 0
M  V30 278 H 26.9808 3.27856 2.14517 0
M  V30 279 H 28.6778 3.55055 1.86379 0
M  V30 280 H 25.2678 4.24262 0.608238 0
M  V30 281 H 29.4518 4.96267 -0.0576019 0
M  V30 282 H 24.7078 6.03532 -0.977732 0
M  V30 283 H 28.8818 6.76834 -1.63917 0
M  V30 284 H 26.5088 7.30467 -2.10529 0
M  V30 285 N 28.0839 -0.256276 1.55502 0
M  V30 286 C 29.3319 -0.983672 1.76545 0
M  V30 287 C 29.6529 -1.86206 0.578982 0
M  V30 288 O 28.9229 -1.91656 -0.405577 0
M  V30 289 H 27.5029 -0.366191 0.651086 0
M  V30 290 H 30.1649 -0.276479 1.92929 0
M  V30 291 H 29.2609 -1.61087 2.67315 0
M  V30 292 N 29.562 -1.4872 -0.521534 0
M  V30 293 C 30.525 -1.63379 -1.60748 0
M  V30 294 C 31.525 -0.50661 -1.52611 0
M  V30 295 O 32.715 -0.772601 -1.5613 0
M  V30 296 C 29.847 -1.61192 -3.00383 0
M  V30 297 H 31.04 -2.60217 -1.49087 0
M  V30 298 H 28.593 -1.37444 -0.744235 0
M  V30 299 H 29.328 -0.65863 -3.17541 0
M  V30 300 H 29.113 -2.43032 -3.07698 0
M  V30 301 H 30.603 -1.7466 -3.7932 0
M  V30 302 N 31.0401 0.771051 -1.3745 0
M  V30 303 C 32.2681 1.56015 -1.35893 0
M  V30 304 C 32.6831 1.88718 0.0555523 0
M  V30 305 O 32.0401 1.51502 1.01752 0
M  V30 306 C 32.0911 2.87001 -2.19801 0
M  V30 307 O 31.8121 2.557 -3.55738 0
M  V30 308 C 33.3131 3.81228 -2.26231 0
M  V30 309 H 30.5331 0.483317 -0.465453 0
M  V30 310 H 33.0771 0.955611 -1.80799 0
M  V30 311 H 31.2321 3.43877 -1.78402 0
M  V30 312 H 31.6461 3.39584 -3.99729 0
M  V30 313 H 33.1201 4.70139 -2.89263 0
M  V30 314 H 33.5971 4.20409 -1.27093 0
M  V30 315 H 34.2031 3.30281 -2.67945 0
M  V30 316 N 32.5182 1.22032 0.997298 0
M  V30 317 C 33.7662 1.04016 1.73278 0
M  V30 318 C 34.0872 -0.426255 1.90284 0
M  V30 319 O 33.3572 -1.30694 1.45931 0
M  V30 320 H 31.9372 0.381897 0.642 0
M  V30 321 H 34.5992 1.5347 1.20137 0
M  V30 322 H 33.6952 1.51441 2.72896 0
M  V30 323 N 33.9963 -1.19345 1.0293 0
M  V30 324 C 34.9593 -2.20793 0.615069 0
M  V30 325 C 35.9593 -1.57553 -0.321533 0
M  V30 326 O 37.1493 -1.73862 -0.108483 0
M  V30 327 C 34.2813 -3.40754 -0.0999222 0
M  V30 328 H 35.4743 -2.58955 1.51269 0
M  V30 329 H 33.0273 -1.3303 0.820534 0
M  V30 330 H 33.7623 -3.0811 -1.01187 0
M  V30 331 H 33.5473 -3.87889 0.57309 0
M  V30 332 H 35.0373 -4.15898 -0.376645 0
M  V30 333 N 35.4744 -0.807222 -1.35358 0
M  V30 334 C 36.4044 -0.232509 -2.3234 0
M  V30 335 C 37.3854 0.642386 -1.57504 0
M  V30 336 O 38.5704 0.572526 -1.85569 0
M  V30 337 C 35.7004 0.619238 -3.41735 0
M  V30 338 C 34.6544 -0.157215 -4.27711 0
M  V30 339 C 33.9804 0.816273 -5.28433 0
M  V30 340 C 35.2804 -1.35656 -5.04376 0
M  V30 341 H 36.9744 -1.04276 -2.80654 0
M  V30 342 H 34.5204 -0.50288 -1.34934 0
M  V30 343 H 36.4734 1.03137 -4.08584 0
M  V30 344 H 35.1974 1.46239 -2.92031 0
M  V30 345 H 33.8564 -0.550525 -3.62443 0
M  V30 346 H 33.5044 1.65494 -4.74996 0
M  V30 347 H 33.2044 0.301067 -5.86828 0
M  V30 348 H 34.7284 1.22659 -5.98153 0
M  V30 349 H 36.1424 -1.01927 -5.64166 0
M  V30 350 H 34.5394 -1.8063 -5.7227 0
M  V30 351 H 35.6094 -2.14288 -4.34981 0
M  V30 352 N 36.9525 1.47285 -0.560781 0
M  V30 353 C 37.9155 2.28535 0.174488 0
M  V30 354 C 38.9155 1.37153 0.839388 0
M  V30 355 O 40.1055 1.59748 0.694702 0
M  V30 356 C 37.2375 3.16934 1.25561 0
M  V30 357 H 38.4305 2.95012 -0.539262 0
M  V30 358 H 35.9835 1.53034 -0.317865 0
M  V30 359 H 36.7185 2.55157 2.00164 0
M  V30 360 H 36.5035 3.8419 0.783604 0
M  V30 361 H 37.9935 3.78143 1.77193 0
M  V30 362 N 38.4306 0.297415 1.54768 0
M  V30 363 C 39.7076 -0.365847 1.92148 0
M  V30 364 C 40.0876 -1.71975 1.22424 0
M  V30 365 O 39.4356 -2.25666 0.358739 0
M  V30 366 C 39.6456 -0.484056 3.45627 0
M  V30 367 C 40.9936 -0.756594 4.17805 0
M  V30 368 O 42.0176 -0.568007 3.51642 0
M  V30 369 O 40.8766 -1.11863 5.34929 0
M  V30 370 H 37.9706 -0.203919 0.801465 0
M  V30 371 H 40.5166 0.34521 1.66152 0
M  V30 372 H 39.2886 0.467865 3.88493 0
M  V30 373 H 38.9116 -1.24372 3.77647 0
M  V30 374 N 39.9087 -1.5758 0.0250728 0
M  V30 375 C 40.8557 -2.09973 -0.958129 0
M  V30 376 C 41.8257 -1.00085 -1.3256 0
M  V30 377 O 43.0107 -1.27481 -1.41962 0
M  V30 378 C 40.1507 -2.62812 -2.2366 0
M  V30 379 C 39.2637 -3.86693 -1.92594 0
M  V30 380 C 38.3987 -4.27941 -3.14707 0
M  V30 381 C 37.4377 -5.44591 -2.79442 0
M  V30 382 N 36.5747 -5.81014 -3.94167 0
M  V30 383 H 41.4147 -2.937 -0.504428 0
M  V30 384 H 38.9517 -1.45172 -0.237392 0
M  V30 385 H 40.9097 -2.91536 -2.98434 0
M  V30 386 H 39.5397 -1.81922 -2.66654 0
M  V30 387 H 38.5917 -3.64723 -1.0808 0
M  V30 388 H 39.9037 -4.71547 -1.62619 0
M  V30 389 H 39.0577 -4.58079 -3.97804 0
M  V30 390 H 37.7967 -3.41845 -3.4784 0
M  V30 391 H 36.8017 -5.1415 -1.94755 0
M  V30 392 H 38.0267 -6.32382 -2.47528 0
M  V30 393 H 35.9727 -4.97874 -4.2715 0
M  V30 394 H 35.8897 -6.60498 -3.67801 0
M  V30 395 H 37.1577 -6.15756 -4.7798 0
M  V30 396 N 41.3868 0.248026 -1.55636 0
M  V30 397 C 42.3498 1.29044 -1.89421 0
M  V30 398 C 43.3498 1.41134 -0.770581 0
M  V30 399 O 44.5398 1.39854 -1.03858 0
M  V30 400 C 41.6718 2.66831 -2.12165 0
M  V30 401 H 42.8648 1.00305 -2.82629 0
M  V30 402 H 40.4178 0.487265 -1.48511 0
M  V30 403 H 41.1528 3.00711 -1.21422 0
M  V30 404 H 40.9378 2.59438 -2.93997 0
M  V30 405 H 42.4278 3.42103 -2.3949 0
M  V30 406 N 42.8649 1.48995 0.513639 0
M  V30 407 C 44.0929 1.61531 1.29288 0
M  V30 408 C 44.5079 0.281801 1.86685 0
M  V30 409 O 43.8649 -0.731111 1.67215 0
M  V30 410 C 43.9159 2.67449 2.43215 0
M  V30 411 O 43.6369 3.95626 1.88179 0
M  V30 412 C 45.1379 2.90575 3.34785 0
M  V30 413 H 42.3579 0.544165 0.392588 0
M  V30 414 H 44.9019 1.9494 0.617956 0
M  V30 415 H 43.0569 2.36853 3.0656 0
M  V30 416 H 43.4709 4.53868 2.62876 0
M  V30 417 H 44.9449 3.68449 4.11035 0
M  V30 418 H 45.4219 2.00011 3.91015 0
M  V30 419 H 46.0279 3.22538 2.77218 0
M  V30 420 N 44.343 -0.763751 1.37857 0
M  V30 421 C 45.592 -1.51789 1.32827 0
M  V30 422 C 45.905 -1.95426 -0.0823719 0
M  V30 423 O 47.111 -2.70298 -0.255172 0
M  V30 424 C 45.567 -2.74133 2.33193 0
M  V30 425 C 45.175 -2.37562 3.79827 0
M  V30 426 C 46.919 -3.52054 2.37188 0
M  V30 427 C 44.826 -3.56456 4.71904 0
M  V30 428 H 43.756 -0.569896 0.493695 0
M  V30 429 H 46.407 -0.835822 1.63359 0
M  V30 430 H 44.789 -3.4427 1.9569 0
M  V30 431 H 45.963 -1.75157 4.26212 0
M  V30 432 H 44.278 -1.72798 3.78853 0
M  V30 433 H 46.875 -4.40437 3.03182 0
M  V30 434 H 47.218 -3.92486 1.38782 0
M  V30 435 H 47.751 -2.88921 2.7344 0
M  V30 436 H 44.49 -3.21099 5.71468 0
M  V30 437 H 44.01 -4.17938 4.30218 0
M  V30 438 H 45.689 -4.23168 4.89426 0
M  V30 439 N 45.8211 -1.22559 -0.990812 0
M  V30 440 C 47.2321 -1.04791 -1.54518 0
M  V30 441 C 47.5831 0.387998 -1.92325 0
M  V30 442 O 46.7081 1.27328 -1.74976 0
M  V30 443 C 47.3031 -1.896 -2.80779 0
M  V30 444 C 45.8621 -1.76124 -3.32652 0
M  V30 445 C 45.0091 -1.8594 -2.05722 0
M  V30 446 H 47.9601 -1.36374 -0.811662 0
M  V30 447 H 47.9811 -1.41464 -3.53225 0
M  V30 448 H 47.4931 -2.94101 -2.53231 0
M  V30 449 H 45.5941 -0.743643 -3.65104 0
M  V30 450 H 45.7071 -2.58913 -4.03114 0
M  V30 451 H 44.0711 -1.29403 -2.19379 0
M  V30 452 H 44.8541 -2.91976 -1.80568 0
M  V30 453 N 47.2992 1.18797 -1.03562 0
M  V30 454 C 48.5242 1.9314 -0.755764 0
M  V30 455 C 48.9492 1.7537 0.68022 0
M  V30 456 O 48.3072 1.06046 1.47051 0
M  V30 457 C 48.3552 3.42747 -1.12058 0
M  V30 458 O 47.4592 4.11683 -0.243124 0
M  V30 459 H 46.8002 0.602724 -0.278604 0
M  V30 460 H 49.3302 1.50678 -1.3841 0
M  V30 461 H 49.3402 3.93437 -1.08035 0
M  V30 462 H 48.0152 3.55002 -2.16672 0
M  V30 463 H 46.5922 3.71323 -0.342539 0
M  V30 464 N 48.7773 0.814389 1.34928 0
M  V30 465 C 49.6873 0.231978 2.3345 0
M  V30 466 C 50.7033 -0.629139 1.62228 0
M  V30 467 O 51.8793 -0.539052 1.94052 0
M  V30 468 C 48.9443 -0.603482 3.41407 0
M  V30 469 C 48.0053 0.279037 4.28392 0
M  V30 470 C 47.2383 -0.516643 5.31193 0
M  V30 471 O 47.4613 -1.75068 5.4287 0
M  V30 472 O 46.3953 0.0965652 6.01823 0
M  V30 473 H 50.2213 1.04721 2.85074 0
M  V30 474 H 47.8063 0.576343 1.37836 0
M  V30 475 H 49.6883 -1.07908 4.0735 0
M  V30 476 H 48.3633 -1.39618 2.92042 0
M  V30 477 H 47.2703 0.801948 3.65403 0
M  V30 478 H 48.6033 1.03588 4.81176 0
M  V30 479 N 50.2554 -1.46986 0.568584 0
M  V30 480 C 51.4804 -2.07335 0.0520528 0
M  V30 481 C 51.9054 -1.41675 -1.23733 0
M  V30 482 O 51.2634 -0.495623 -1.74394 0
M  V30 483 C 51.3114 -3.60417 -0.11501 0
M  V30 484 O 50.4154 -3.95309 -1.17492 0
M  V30 485 H 49.7564 -0.661597 0.0564385 0
M  V30 486 H 52.2864 -1.88837 0.787507 0
M  V30 487 H 52.2964 -4.06698 -0.325644 0
M  V30 488 H 50.9714 -4.07601 0.826675 0
M  V30 489 H 49.5484 -3.60757 -0.943869 0
M  V30 490 N 51.7335 -0.305618 -1.54608 0
M  V30 491 C 53.1445 0.186098 -1.8577 0
M  V30 492 C 53.4955 1.53058 -1.22751 0
M  V30 493 O 52.6205 2.09888 -0.526893 0
M  V30 494 C 53.2155 0.344449 -3.37044 0
M  V30 495 C 51.7745 0.780384 -3.68221 0
M  V30 496 C 50.9215 -0.108554 -2.77087 0
M  V30 497 H 53.8725 -0.526485 -1.49712 0
M  V30 498 H 53.8935 1.17828 -3.61796 0
M  V30 499 H 53.4055 -0.634235 -3.82883 0
M  V30 500 H 51.5065 1.76945 -3.27904 0
M  V30 501 H 51.6195 0.596572 -4.75371 0
M  V30 502 H 49.9835 0.412931 -2.5133 0
M  V30 503 H 50.7665 -1.08368 -3.25747 0
M  V30 504 N 53.2116 1.57565 -0.0334293 0
M  V30 505 C 54.4586 1.91978 0.644272 0
M  V30 506 C 54.7866 0.910231 1.71887 0
M  V30 507 O 54.0416 -0.0801961 1.95536 0
M  V30 508 C 54.3406 3.33112 1.29504 0
M  V30 509 C 54.0066 4.49537 0.350388 0
M  V30 510 C 52.6686 4.81115 0.0903974 0
M  V30 511 C 55.0206 5.20347 -0.298032 0
M  V30 512 C 52.3486 5.8086 -0.825746 0
M  V30 513 C 54.7006 6.2107 -1.20226 0
M  V30 514 C 53.3646 6.51088 -1.4711 0
M  V30 515 H 52.6346 0.702496 0.235756 0
M  V30 516 H 55.2816 1.91259 -0.0961176 0
M  V30 517 H 53.5866 3.30113 2.11028 0
M  V30 518 H 55.2836 3.57011 1.82603 0
M  V30 519 H 51.8736 4.24883 0.563205 0
M  V30 520 H 56.0576 4.96178 -0.110234 0
M  V30 521 H 51.3136 6.02461 -1.04169 0
M  V30 522 H 55.4876 6.75057 -1.71086 0
M  V30 523 H 53.1146 7.28193 -2.18264 0
M  V30 524 N 54.6897 -0.239769 1.55765 0
M  V30 525 C 55.6527 -1.28038 1.90103 0
M  V30 526 C 56.6527 -1.40723 0.778055 0
M  V30 527 O 57.8427 -1.39301 1.04599 0
M  V30 528 C 54.9747 -2.65702 2.13577 0
M  V30 529 H 56.1677 -0.988048 2.83157 0
M  V30 530 H 53.7207 -0.479382 1.48767 0
M  V30 531 H 54.4557 -3.00063 1.23015 0
M  V30 532 H 54.2407 -2.57875 2.95369 0
M  V30 533 H 55.7307 -3.40828 2.41301 0
M  V30 534 N 56.1678 -1.49265 -0.50573 0
M  V30 535 C 57.1308 -1.65075 -1.59006 0
M  V30 536 C 58.1308 -0.522768 -1.52065 0
M  V30 537 O 59.3208 -0.789117 -1.55302 0
M  V30 538 C 56.4528 -1.64369 -2.98656 0
M  V30 539 H 57.6458 -2.61784 -1.46319 0
M  V30 540 H 55.1988 -1.38226 -0.729616 0
M  V30 541 H 55.9338 -0.692272 -3.16825 0
M  V30 542 H 55.7188 -2.46282 -3.05103 0
M  V30 543 H 57.2088 -1.78674 -3.77446 0
M  V30 544 N 57.6459 0.756429 -1.3826 0
M  V30 545 C 58.6089 1.85176 -1.35065 0
M  V30 546 C 59.6089 1.58818 -0.251703 0
M  V30 547 O 60.7989 1.66615 -0.508433 0
M  V30 548 C 57.9309 3.22596 -1.10201 0
M  V30 549 H 59.1239 1.89417 -2.3251 0
M  V30 550 H 56.6769 0.95783 -1.23512 0
M  V30 551 H 57.4119 3.24025 -0.133504 0
M  V30 552 H 57.1969 3.43122 -1.89762 0
M  V30 553 H 58.6869 4.02673 -1.10654 0
M  V30 554 N 59.124 1.23083 0.984299 0
M  V30 555 C 60.034 1.02515 2.11016 0
M  V30 556 C 61.05 -0.0291702 1.73976 0
M  V30 557 O 62.226 0.165434 2.00719 0
M  V30 558 C 59.291 0.614673 3.41208 0
M  V30 559 C 58.352 1.74359 3.92297 0
M  V30 560 C 57.585 1.35261 5.16275 0
M  V30 561 O 57.808 0.235136 5.69915 0
M  V30 562 O 56.742 2.17227 5.61334 0
M  V30 563 H 60.568 1.96862 2.31255 0
M  V30 564 H 58.153 1.01753 1.09392 0
M  V30 565 H 60.035 0.396518 4.1953 0
M  V30 566 H 58.71 -0.299851 3.22308 0
M  V30 567 H 57.617 2.01635 3.1511 0
M  V30 568 H 58.95 2.63629 4.15645 0
M  V30 569 N 60.6021 -1.18246 1.0419 0
M  V30 570 C 61.8481 -1.88536 0.747122 0
M  V30 571 C 62.1811 -1.80223 -0.723409 0
M  V30 572 O 61.4561 -1.20337 -1.52804 0
M  V30 573 C 61.7391 -3.38968 1.21544 0
M  V30 574 C 61.5921 -3.56084 2.74816 0
M  V30 575 C 62.9111 -4.32648 0.806482 0
M  V30 576 H 60.0301 -0.684619 0.272883 0
M  V30 577 H 62.6721 -1.39113 1.29413 0
M  V30 578 H 60.8221 -3.8119 0.750081 0
M  V30 579 H 62.4941 -3.22946 3.29399 0
M  V30 580 H 60.7371 -2.98699 3.14582 0
M  V30 581 H 61.4081 -4.61639 3.02644 0
M  V30 582 H 63.8841 -3.98211 1.20695 0
M  V30 583 H 62.7601 -5.36462 1.1619 0
M  V30 584 H 63.0211 -4.41146 -0.29029 0
M  V30 585 N 62.0802 -0.821533 -1.34494 0
M  V30 586 C 63.0432 -0.247847 -2.27856 0
M  V30 587 C 64.0432 0.573453 -1.50227 0
M  V30 588 O 65.2332 0.389759 -1.69784 0
M  V30 589 C 62.3652 0.652698 -3.34593 0
M  V30 590 H 63.5582 -1.07146 -2.80107 0
M  V30 591 H 61.1112 -0.593291 -1.44602 0
M  V30 592 H 61.8462 1.49943 -2.87555 0
M  V30 593 H 61.6312 0.065292 -3.92046 0
M  V30 594 H 63.1212 1.04793 -4.04238 0
M  V30 595 N 63.5583 1.46682 -0.576371 0
M  V30 596 C 64.8353 1.95599 0.00703437 0
M  V30 597 C 65.2153 1.51904 1.46589 0
M  V30 598 O 64.5633 0.766755 2.15251 0
M  V30 599 C 64.7733 3.4864 -0.158404 0
M  V30 600 C 66.1213 4.24594 -0.0229439 0
M  V30 601 O 67.1453 3.56094 -0.0869173 0
M  V30 602 O 66.0043 5.46373 0.118015 0
M  V30 603 H 63.0983 0.825275 0.053384 0
M  V30 604 H 65.6443 1.56996 -0.644244 0
M  V30 605 H 64.4163 3.7331 -1.17282 0
M  V30 606 H 64.0393 3.94057 0.5296 0
M  V30 607 N 65.0364 0.313813 1.54444 0
M  V30 608 C 66.2844 -0.291099 1.99993 0
M  V30 609 C 66.6054 -1.53418 1.20366 0
M  V30 610 O 65.8754 -1.93544 0.302927 0
M  V30 611 H 64.4554 -0.110552 0.738774 0
M  V30 612 H 67.1174 0.428106 1.9014 0
M  V30 613 H 66.2134 -0.554268 3.07139 0
M  V30 614 N 66.5145 -1.57545 0.0417849 0
M  V30 615 C 67.4775 -2.09885 -0.92093 0
M  V30 616 C 68.4775 -1.01648 -1.24596 0
M  V30 617 O 69.6675 -1.27759 -1.1842 0
M  V30 618 C 66.7995 -2.57527 -2.23367 0
M  V30 619 H 67.9925 -2.96236 -0.467382 0
M  V30 620 H 65.5455 -1.5493 -0.206467 0
M  V30 621 H 66.2805 -1.74542 -2.73323 0
M  V30 622 H 66.0655 -3.36613 -2.01083 0
M  V30 623 H 67.5555 -2.98201 -2.92346 0
M  V30 624 N 67.9926 0.231505 -1.5589 0
M  V30 625 C 69.2416 0.955346 -1.7764 0
M  V30 626 C 69.5546 1.85893 -0.608546 0
M  V30 627 O 70.7606 2.62067 -0.70943 0
M  V30 628 C 69.2166 1.74886 -3.14552 0
M  V30 629 C 68.8246 0.891915 -4.39032 0
M  V30 630 C 70.5686 2.46452 -3.45633 0
M  V30 631 C 68.4756 1.68221 -5.66971 0
M  V30 632 H 67.4056 0.360446 -0.662265 0
M  V30 633 H 70.0566 0.209516 -1.823 0
M  V30 634 H 68.4386 2.53723 -3.04041 0
M  V30 635 H 69.6126 0.144793 -4.60572 0
M  V30 636 H 67.9276 0.288863 -4.15397 0
M  V30 637 H 70.5246 3.06061 -4.38441 0
M  V30 638 H 70.8676 3.18841 -2.67668 0
M  V30 639 H 71.4006 1.74613 -3.57428 0
M  V30 640 H 68.1396 1.00178 -6.478 0
M  V30 641 H 67.6596 2.4042 -5.49507 0
M  V30 642 H 69.3386 2.24544 -6.06786 0
M  V30 643 N 69.4707 1.49531 0.497807 0
M  V30 644 C 70.7167 1.59415 1.25358 0
M  V30 645 C 71.0497 0.281422 1.9215 0
M  V30 646 O 70.3247 -0.715249 1.80871 0
M  V30 647 C 70.6077 2.75566 2.3181 0
M  V30 648 C 70.4607 4.16642 1.69498 0
M  V30 649 C 71.7797 2.87347 3.33346 0
M  V30 650 H 68.8987 0.580244 0.454408 0
M  V30 651 H 71.5407 1.81827 0.551262 0
M  V30 652 H 69.6907 2.56587 2.91711 0
M  V30 653 H 71.3627 4.47145 1.13399 0
M  V30 654 H 69.6057 4.22141 0.998978 0
M  V30 655 H 70.2767 4.93792 2.46725 0
M  V30 656 H 72.7527 3.04634 2.83438 0
M  V30 657 H 71.6287 3.70289 4.05188 0
M  V30 658 H 71.8897 1.96834 3.95865 0
M  V30 659 N 70.9488 -0.749086 1.3866 0
M  V30 660 C 72.1948 -1.51056 1.35314 0
M  V30 661 C 72.5278 -1.94121 -0.0553751 0
M  V30 662 O 71.8028 -1.65763 -1.01749 0
M  V30 663 C 72.0858 -2.76003 2.31288 0
M  V30 664 C 71.9388 -2.39047 3.8102 0
M  V30 665 C 73.2578 -3.78046 2.2532 0
M  V30 666 H 70.3768 -0.547972 0.492844 0
M  V30 667 H 73.0188 -0.857628 1.69543 0
M  V30 668 H 71.1688 -3.31716 2.02229 0
M  V30 669 H 72.8408 -1.89074 4.20771 0
M  V30 670 H 71.0838 -1.71449 3.98482 0
M  V30 671 H 71.7548 -3.28462 4.4364 0
M  V30 672 H 74.2308 -3.31884 2.50983 0
M  V30 673 H 73.1068 -4.63159 2.94576 0
M  V30 674 H 73.3678 -4.23957 1.25352 0
M  V30 675 N 72.4269 -1.23603 -0.977757 0
M  V30 676 C 73.7039 -0.977897 -1.69401 0
M  V30 677 C 74.0839 0.502738 -2.05026 0
M  V30 678 O 73.4319 1.47459 -1.74551 0
M  V30 679 C 73.6419 -1.89077 -2.93345 0
M  V30 680 C 74.9899 -2.15579 -3.65802 0
M  V30 681 O 76.0139 -1.86648 -3.03383 0
M  V30 682 O 74.8729 -2.64658 -4.78141 0
M  V30 683 H 71.9669 -0.369025 -0.740101 0
M  V30 684 H 74.5129 -1.34657 -1.03274 0
M  V30 685 H 73.2849 -2.89158 -2.63634 0
M  V30 686 H 72.9079 -1.52463 -3.67207 0
M  V30 687 N 73.905 1.17692 -1.04816 0
M  V30 688 C 75.154 1.87192 -0.751132 0
M  V30 689 C 75.467 1.8169 0.724441 0
M  V30 690 O 76.673 2.46625 1.13527 0
M  V30 691 C 75.129 3.35857 -1.29338 0
M  V30 692 C 74.737 3.4987 -2.79812 0
M  V30 693 C 76.481 4.10709 -1.07322 0
M  V30 694 C 74.388 4.92536 -3.27356 0
M  V30 695 H 73.318 0.701162 -0.277288 0
M  V30 696 H 75.969 1.32932 -1.26496 0
M  V30 697 H 74.351 3.89631 -0.707376 0
M  V30 698 H 75.525 3.06332 -3.44235 0
M  V30 699 H 73.84 2.88433 -3.00325 0
M  V30 700 H 76.437 5.15952 -1.4035 0
M  V30 701 H 76.78 4.16299 -0.0108001 0
M  V30 702 H 77.313 3.6313 -1.62423 0
M  V30 703 H 74.052 4.92119 -4.33012 0
M  V30 704 H 73.572 5.3676 -2.67673 0
M  V30 705 H 75.251 5.61288 -3.21815 0
M  V30 706 N 75.3831 0.828654 1.34056 0
M  V30 707 C 76.3461 0.259927 2.27721 0
M  V30 708 C 77.3461 -0.565478 1.50529 0
M  V30 709 O 78.5361 -0.38075 1.69988 0
M  V30 710 C 75.6681 -0.634944 3.34935 0
M  V30 711 H 76.8611 1.0863 2.79534 0
M  V30 712 H 74.4141 0.600951 1.44285 0
M  V30 713 H 75.1491 -1.48416 2.88346 0
M  V30 714 H 74.9341 -0.0444999 3.92075 0
M  V30 715 H 76.4241 -1.02648 4.04788 0
M  V30 716 N 76.8612 -1.46375 0.584142 0
M  V30 717 C 77.8082 -2.30323 -0.148286 0
M  V30 718 C 78.7782 -1.40703 -0.882713 0
M  V30 719 O 79.9632 -1.69651 -0.873099 0
M  V30 720 C 77.1032 -3.25196 -1.15507 0
M  V30 721 C 76.2162 -4.29915 -0.423943 0
M  V30 722 C 75.3512 -5.11914 -1.41838 0
M  V30 723 C 74.3902 -6.08381 -0.673736 0
M  V30 724 N 73.5272 -6.83242 -1.6163 0
M  V30 725 H 78.3672 -2.92427 0.573644 0
M  V30 726 H 75.9042 -1.44118 0.294703 0
M  V30 727 H 77.8622 -3.78646 -1.75166 0
M  V30 728 H 76.4922 -2.64898 -1.8447 0
M  V30 729 H 75.5442 -3.7931 0.287714 0
M  V30 730 H 76.8562 -4.98549 0.158128 0
M  V30 731 H 76.0102 -5.69648 -2.08773 0
M  V30 732 H 74.7492 -4.43243 -2.03438 0
M  V30 733 H 73.7542 -5.49799 0.00938483 0
M  V30 734 H 74.9792 -6.79071 -0.0631082 0
M  V30 735 H 72.9252 -6.1728 -2.22038 0
M  V30 736 H 72.8422 -7.48144 -1.08707 0
M  V30 737 H 74.1102 -7.45534 -2.27596 0
M  V30 738 N 78.3393 -0.321999 -1.54275 0
M  V30 739 C 79.2723 0.58718 -2.20516 0
M  V30 740 C 80.2503 1.11693 -1.18167 0
M  V30 741 O 81.4343 1.18122 -1.46899 0
M  V30 742 C 78.5613 1.80554 -2.86562 0
M  V30 743 C 77.6073 1.40718 -4.02617 0
M  V30 744 S 78.4403 0.445218 -5.33646 0
M  V30 745 C 79.5963 1.6709 -6.03185 0
M  V30 746 H 79.8293 0.0244875 -2.9729 0
M  V30 747 H 77.3623 -0.106087 -1.54035 0
M  V30 748 H 79.3203 2.50462 -3.25237 0
M  V30 749 H 77.9813 2.33942 -2.09595 0
M  V30 750 H 77.1743 2.31501 -4.47687 0
M  V30 751 H 76.7763 0.78782 -3.65608 0
M  V30 752 H 79.0683 2.60856 -6.25268 0
M  V30 753 H 80.0113 1.26239 -6.96756 0
M  V30 754 H 80.4193 1.85716 -5.33076 0
M  V30 755 N 79.8174 1.5752 -0.0501392 0
M  V30 756 C 80.7644 2.1147 0.924603 0
M  V30 757 C 81.7344 1.02182 1.30951 0
M  V30 758 O 82.9194 1.29723 1.39916 0
M  V30 759 C 80.0594 2.66337 2.19451 0
M  V30 760 C 79.1724 3.89708 1.86418 0
M  V30 761 C 78.3074 4.32893 3.07859 0
M  V30 762 C 77.3464 5.48967 2.70742 0
M  V30 763 N 76.4834 5.87211 3.84874 0
M  V30 764 H 81.3234 2.94465 0.457639 0
M  V30 765 H 78.8604 1.45531 0.214266 0
M  V30 766 H 80.8184 2.96247 2.93758 0
M  V30 767 H 79.4484 1.86141 2.63726 0
M  V30 768 H 78.5004 3.66396 1.02264 0
M  V30 769 H 79.8124 4.74074 1.55096 0
M  V30 770 H 78.9664 4.6435 3.90466 0
M  V30 771 H 77.7054 3.47336 3.42358 0
M  V30 772 H 76.7104 5.17183 1.86551 0
M  V30 773 H 77.9354 6.3624 2.37436 0
M  V30 774 H 75.8814 5.04607 4.19175 0
M  V30 775 H 75.7984 6.66266 3.57247 0
M  V30 776 H 77.0664 6.23282 4.68123 0
M  V30 777 N 81.2955 -0.223234 1.56011 0
M  V30 778 C 82.5255 -0.963413 1.82762 0
M  V30 779 C 82.9335 -1.78516 0.626804 0
M  V30 780 O 82.2765 -1.78974 -0.414014 0
M  V30 781 C 82.3385 -1.93126 3.0322 0
M  V30 782 C 82.0025 -1.2942 4.38291 0
M  V30 783 C 82.9995 -0.684916 5.15369 0
M  V30 784 C 80.6845 -1.30647 4.85012 0
M  V30 785 C 82.6785 -0.0963971 6.37327 0
M  V30 786 C 80.3655 -0.71411 6.06913 0
M  V30 787 C 81.3635 -0.110123 6.82911 0
M  V30 788 O 81.0515 0.47303 8.02507 0
M  V30 789 H 80.7835 -0.288011 0.611576 0
M  V30 790 H 83.3375 -0.244103 2.03944 0
M  V30 791 H 81.5675 -2.68952 2.77852 0
M  V30 792 H 83.2565 -2.53685 3.16857 0
M  V30 793 H 84.0225 -0.667774 4.80381 0
M  V30 794 H 79.9015 -1.76598 4.25833 0
M  V30 795 H 83.4455 0.375657 6.96588 0
M  V30 796 H 79.3425 -0.728659 6.41374 0
M  V30 797 H 80.1105 0.367186 8.17676 0
M  V30 798 N 82.7736 -1.49793 -0.48987 0
M  V30 799 C 83.6836 -1.70036 -1.61632 0
M  V30 800 C 84.6996 -0.583102 -1.63939 0
M  V30 801 O 85.8756 -0.859169 -1.82154 0
M  V30 802 C 82.9406 -1.77277 -2.97949 0
M  V30 803 C 82.0016 -3.00918 -3.06181 0
M  V30 804 C 81.2346 -3.07804 -4.35996 0
M  V30 805 O 81.4576 -2.21982 -5.25433 0
M  V30 806 O 80.3916 -4.00369 -4.49431 0
M  V30 807 H 84.2176 -2.65486 -1.47482 0
M  V30 808 H 81.8026 -1.33666 -0.667362 0
M  V30 809 H 83.6846 -1.84329 -3.78947 0
M  V30 810 H 82.3596 -0.850076 -3.12339 0
M  V30 811 H 81.2666 -2.99377 -2.2433 0
M  V30 812 H 82.5996 -3.92704 -2.96723 0
M  V30 813 N 84.2517 0.741722 -1.39055 0
M  V30 814 C 85.4797 1.53098 -1.39171 0
M  V30 815 C 85.8947 1.88794 0.0155099 0
M  V30 816 O 85.2517 1.53626 0.985159 0
M  V30 817 C 85.3027 2.82274 -2.2584 0
M  V30 818 O 85.0237 2.48097 -3.61081 0
M  V30 819 C 86.5247 3.76343 -2.34266 0
M  V30 820 H 83.7447 0.473335 -0.4756 0
M  V30 821 H 86.2887 0.917045 -1.82785 0
M  V30 822 H 84.4437 3.40015 -1.85656 0
M  V30 823 H 84.8577 3.31029 -4.06842 0
M  V30 824 H 86.3317 4.63898 -2.9917 0
M  V30 825 H 86.8087 4.17619 -1.35982 0
M  V30 826 H 87.4147 3.24523 -2.74891 0
M  V30 827 N 85.7298 1.2412 0.971189 0
M  V30 828 C 87.1408 1.07236 1.52831 0
M  V30 829 C 87.4918 -0.357352 1.92918 0
M  V30 830 O 86.6168 -1.24528 1.76979 0
M  V30 831 C 87.2118 1.94043 2.77728 0
M  V30 832 C 85.7708 1.81394 3.29808 0
M  V30 833 C 84.9178 1.89189 2.02738 0
M  V30 834 H 87.8688 1.37648 0.789864 0
M  V30 835 H 87.8898 1.47066 3.5093 0
M  V30 836 H 87.4018 2.98093 2.4852 0
M  V30 837 H 85.5028 0.801634 3.63874 0
M  V30 838 H 85.6158 2.65294 3.98944 0
M  V30 839 H 83.9798 1.32877 2.17292 0
M  V30 840 H 84.7628 2.94812 1.759 0
M  V30 841 N 87.2079 -1.17134 1.05439 0
M  V30 842 C 88.1179 -2.24878 0.668365 0
M  V30 843 C 89.1339 -1.71186 -0.311687 0
M  V30 844 O 90.3099 -2.00738 -0.163161 0
M  V30 845 C 87.3749 -3.46662 0.051648 0
M  V30 846 C 86.4359 -4.15429 1.08246 0
M  V30 847 C 85.6689 -5.31399 0.495082 0
M  V30 848 O 85.8919 -5.66153 -0.694743 0
M  V30 849 O 84.8259 -5.89187 1.23056 0
M  V30 850 H 88.6519 -2.60189 1.56637 0
M  V30 851 H 86.2369 -1.24482 0.826104 0
M  V30 852 H 88.1189 -4.20394 -0.290966 0
M  V30 853 H 86.7939 -3.13142 -0.819971 0
M  V30 854 H 85.7009 -3.43704 1.47711 0
M  V30 855 H 87.0339 -4.52982 1.92532 0
M  V30 856 N 88.686 -0.835752 -1.33615 0
M  V30 857 C 89.616 -0.281739 -2.31794 0
M  V30 858 C 90.597 0.608833 -1.58831 0
M  V30 859 O 91.782 0.533035 -1.86741 0
M  V30 860 C 88.912 0.546612 -3.42971 0
M  V30 861 C 87.866 -0.247904 -4.27281 0
M  V30 862 C 87.192 0.704001 -5.30045 0
M  V30 863 C 88.492 -1.46324 -5.01385 0
M  V30 864 H 90.186 -1.10206 -2.78379 0
M  V30 865 H 87.732 -0.531388 -1.33837 0
M  V30 866 H 89.685 0.944467 -4.1068 0
M  V30 867 H 88.409 1.40011 -2.95067 0
M  V30 868 H 87.068 -0.627281 -3.61194 0
M  V30 869 H 86.716 1.55381 -4.78399 0
M  V30 870 H 86.416 0.176524 -5.87335 0
M  V30 871 H 87.94 1.09944 -6.0062 0
M  V30 872 H 89.354 -1.13871 -5.61877 0
M  V30 873 H 87.751 -1.92728 -5.6831 0
M  V30 874 H 88.821 -2.23467 -4.30338 0
M  V30 875 N 90.1641 1.46063 -0.591896 0
M  V30 876 C 91.1141 2.27458 0.157172 0
M  V30 877 C 92.0981 1.3641 0.853301 0
M  V30 878 O 93.2901 1.60517 0.74588 0
M  V30 879 C 90.4191 3.22956 1.16423 0
M  V30 880 C 89.5051 4.2149 0.469742 0
M  V30 881 N 89.8961 5.03519 -0.479839 0
M  V30 882 C 88.1941 4.40161 0.719319 0
M  V30 883 C 88.8951 5.74904 -0.886591 0
M  V30 884 N 87.8711 5.43097 -0.233731 0
M  V30 885 H 91.6731 2.88272 -0.572392 0
M  V30 886 H 89.1871 1.57024 -0.414375 0
M  V30 887 H 91.1841 3.79986 1.71513 0
M  V30 888 H 89.8441 2.63701 1.89451 0
M  V30 889 H 90.8551 5.1078 -0.855823 0
M  V30 890 H 87.5321 3.92046 1.43548 0
M  V30 891 H 88.9221 6.50844 -1.66888 0
M  V30 892 N 91.6422 0.330177 1.54103 0
M  V30 893 C 92.8882 -0.270806 2.00984 0
M  V30 894 C 93.2212 -1.51265 1.21789 0
M  V30 895 O 92.4962 -1.92142 0.301927 0
M  V30 896 C 92.7792 -0.598339 3.55094 0
M  V30 897 C 92.6322 0.654674 4.4501 0
M  V30 898 C 93.9512 -1.41334 4.16789 0
M  V30 899 H 91.0702 -0.0969531 0.730595 0
M  V30 900 H 93.7122 0.448066 1.84641 0
M  V30 901 H 91.8622 -1.21078 3.69151 0
M  V30 902 H 93.5342 1.29285 4.42813 0
M  V30 903 H 91.7772 1.28224 4.14416 0
M  V30 904 H 92.4482 0.380944 5.50684 0
M  V30 905 H 94.9242 -0.895597 4.06347 0
M  V30 906 H 93.8002 -1.61127 5.24718 0
M  V30 907 H 94.0612 -2.41146 3.70541 0
M  V30 908 N 93.1203 -1.57491 0.0584922 0
M  V30 909 C 94.0673 -2.11958 -0.913376 0
M  V30 910 C 95.0373 -1.02875 -1.30407 0
M  V30 911 O 96.2223 -1.30464 -1.39226 0
M  V30 912 C 93.3623 -2.67497 -2.18035 0
M  V30 913 C 92.4753 -3.90691 -1.84349 0
M  V30 914 C 91.6103 -4.3452 -3.05559 0
M  V30 915 C 90.6493 -5.50395 -2.67827 0
M  V30 916 N 89.7863 -5.89244 -3.81754 0
M  V30 917 H 94.6263 -2.94704 -0.442017 0
M  V30 918 H 92.1633 -1.45643 -0.206545 0
M  V30 919 H 94.1213 -2.978 -2.92183 0
M  V30 920 H 92.7513 -1.87537 -2.62735 0
M  V30 921 H 91.8033 -3.66934 -1.00319 0
M  V30 922 H 93.1153 -4.7489 -1.5258 0
M  V30 923 H 92.2693 -4.66414 -3.87998 0
M  V30 924 H 91.0083 -3.49147 -3.40511 0
M  V30 925 H 90.0133 -5.18165 -1.83806 0
M  V30 926 H 91.2383 -6.3749 -2.34059 0
M  V30 927 H 89.1843 -5.06823 -4.16493 0
M  V30 928 H 89.1013 -6.68151 -3.53708 0
M  V30 929 H 90.3693 -6.25756 -4.64811 0
M  V30 930 N 94.5984 0.214957 -1.56127 0
M  V30 931 C 95.8444 0.939762 -1.79712 0
M  V30 932 C 96.1774 1.83723 -0.629247 0
M  V30 933 O 95.4524 1.90925 0.371197 0
M  V30 934 C 95.7354 1.77306 -3.13424 0
M  V30 935 C 95.5884 0.90164 -4.40671 0
M  V30 936 C 96.9074 2.74956 -3.43638 0
M  V30 937 H 94.0264 0.340214 -0.653776 0
M  V30 938 H 96.6684 0.20824 -1.88855 0
M  V30 939 H 94.8184 2.39673 -3.0576 0
M  V30 940 H 96.4904 0.294206 -4.60361 0
M  V30 941 H 94.7334 0.207368 -4.33304 0
M  V30 942 H 95.4044 1.51923 -5.30682 0
M  V30 943 H 97.8804 2.22724 -3.51473 0
M  V30 944 H 96.7564 3.30358 -4.38355 0
M  V30 945 H 97.0174 3.53023 -2.66134 0
M  V30 946 N 96.0765 1.50051 0.48192 0
M  V30 947 C 97.3245 1.60181 1.23234 0
M  V30 948 C 97.6455 0.299176 1.92691 0
M  V30 949 O 96.9155 -0.682708 1.83619 0
M  V30 950 H 95.4955 0.590232 0.457859 0
M  V30 951 H 98.1575 1.86775 0.556881 0
M  V30 952 H 97.2535 2.40753 1.98607 0
M  V30 953 N 97.5546 -0.734337 1.39446 0
M  V30 954 C 98.8316 -1.48579 1.27215 0
M  V30 955 C 99.2116 -2.1077 -0.117968 0
M  V30 956 O 98.5596 -1.98646 -1.12924 0
M  V30 957 C 98.7696 -2.53667 2.39696 0
M  V30 958 C 100.118 -3.20031 2.79044 0
M  V30 959 O 101.142 -2.6398 2.39151 0
M  V30 960 O 100.001 -4.21455 3.47905 0
M  V30 961 H 97.0946 -0.659816 0.49857 0
M  V30 962 H 99.6406 -0.768106 1.51322 0
M  V30 963 H 98.4126 -2.06096 3.32626 0
M  V30 964 H 98.0356 -3.32994 2.17258 0
M  V30 965 N 99.0327 -1.24633 -0.964593 0
M  V30 966 C 100.261 -1.11501 -1.74285 0
M  V30 967 C 100.676 0.332165 -1.85855 0
M  V30 968 O 100.033 1.22903 -1.34911 0
M  V30 969 C 100.084 -1.75258 -3.16175 0
M  V30 970 O 99.8047 -3.14318 -3.05182 0
M  V30 971 C 101.306 -1.67776 -4.10324 0
M  V30 972 H 98.5257 -0.389407 -0.546446 0
M  V30 973 H 101.07 -1.64801 -1.21083 0
M  V30 974 H 99.2247 -1.25954 -3.66353 0
M  V30 975 H 99.6387 -3.4551 -3.94618 0
M  V30 976 H 101.113 -2.17064 -5.0753 0
M  V30 977 H 101.59 -0.639584 -4.34518 0
M  V30 978 H 102.196 -2.16522 -3.66058 0
M  V30 979 N 100.511 1.16574 -1.06058 0
M  V30 980 C 101.757 1.87324 -0.777022 0
M  V30 981 C 102.09 1.81351 0.694645 0
M  V30 982 O 101.365 1.22753 1.50871 0
M  V30 983 C 101.648 3.36991 -1.26922 0
M  V30 984 C 101.501 3.51667 -2.80447 0
M  V30 985 C 102.82 4.3131 -0.87521 0
M  V30 986 H 99.9388 0.680191 -0.28374 0
M  V30 987 H 102.581 1.37036 -1.3161 0
M  V30 988 H 100.731 3.79949 -0.81063 0
M  V30 989 H 102.403 3.17664 -3.34495 0
M  V30 990 H 100.646 2.93656 -3.19294 0
M  V30 991 H 101.317 4.56766 -3.0995 0
M  V30 992 H 103.793 3.9624 -1.27014 0
M  V30 993 H 102.669 5.34545 -1.2471 0
M  V30 994 H 102.93 4.41552 0.220071 0
M  V30 995 N 101.989 0.842826 1.3317 0
M  V30 996 C 103.217 0.454055 2.01856 0
M  V30 997 C 103.632 -0.94587 1.63397 0
M  V30 998 O 102.989 -1.61534 0.849302 0
M  V30 999 C 103.04 0.569715 3.56982 0
M  V30 1000 O 102.761 1.91448 3.94055 0
M  V30 1001 C 104.262 0.178412 4.42941 0
M  V30 1002 H 101.482 0.17979 0.646465 0
M  V30 1003 H 104.026 1.1365 1.70012 0
M  V30 1004 H 102.181 -0.0648587 3.87346 0
M  V30 1005 H 102.595 1.90282 4.88767 0
M  V30 1006 H 104.069 0.310376 5.51127 0
M  V30 1007 H 104.546 -0.880056 4.30293 0
M  V30 1008 H 105.152 0.787579 4.17944 0
M  V30 1009 N 103.467 -1.45747 0.599634 0
M  V30 1010 C 104.713 -2.03153 0.100263 0
M  V30 1011 C 105.068 -1.46073 -1.25221 0
M  V30 1012 O 104.361 -0.622878 -1.81193 0
M  V30 1013 C 104.555 -3.57399 -0.00602758 0
M  V30 1014 C 104.384 -4.2944 1.3346 0
M  V30 1015 C 103.154 -4.6768 1.91321 0
M  V30 1016 C 105.352 -4.61905 2.2616 0
M  V30 1017 N 103.334 -5.24544 3.18946 0
M  V30 1018 C 104.705 -5.19518 3.3838 0
M  V30 1019 C 106.76 -4.43841 2.25631 0
M  V30 1020 C 105.463 -5.60972 4.50226 0
M  V30 1021 C 107.489 -4.86322 3.36518 0
M  V30 1022 C 106.851 -5.44021 4.4746 0
M  V30 1023 H 102.95 -0.777911 0.0798696 0
M  V30 1024 H 105.534 -1.77674 0.796244 0
M  V30 1025 H 103.705 -3.82556 -0.671212 0
M  V30 1026 H 105.437 -4.01457 -0.51133 0
M  V30 1027 H 102.192 -4.5098 1.44617 0
M  V30 1028 H 102.616 -5.57483 3.84112 0
M  V30 1029 H 107.258 -3.98552 1.41123 0
M  V30 1030 H 104.976 -6.0523 5.35464 0
M  V30 1031 H 108.562 -4.74084 3.37247 0
M  V30 1032 H 107.442 -5.76289 5.31846 0
M  V30 1033 N 104.945 -0.338344 -1.53925 0
M  V30 1034 C 106.194 0.260732 -2.00008 0
M  V30 1035 C 106.507 1.52073 -1.23017 0
M  V30 1036 O 107.713 2.19672 -1.5955 0
M  V30 1037 C 106.169 0.51515 -3.56194 0
M  V30 1038 C 105.777 -0.728645 -4.42035 0
M  V30 1039 C 107.521 1.07337 -4.10706 0
M  V30 1040 C 105.428 -0.445315 -5.89721 0
M  V30 1041 H 104.358 0.101205 -0.747177 0
M  V30 1042 H 107.009 -0.452866 -1.77824 0
M  V30 1043 H 105.391 1.28932 -3.74423 0
M  V30 1044 H 106.565 -1.50352 -4.35581 0
M  V30 1045 H 104.88 -1.20813 -3.98489 0
M  V30 1046 H 107.477 1.30022 -5.18651 0
M  V30 1047 H 107.82 2.0273 -3.63602 0
M  V30 1048 H 108.353 0.360034 -3.96167 0
M  V30 1049 H 105.092 -1.36883 -6.41049 0
M  V30 1050 H 104.612 0.291569 -5.99091 0
M  V30 1051 H 106.291 -0.0606218 -6.46972 0
M  V30 1052 N 106.423 1.57458 -0.0668435 0
M  V30 1053 C 107.371 2.13639 0.919851 0
M  V30 1054 C 108.365 1.07204 1.31163 0
M  V30 1055 O 109.571 1.25591 1.28945 0
M  V30 1056 H 105.946 0.683048 0.314562 0
M  V30 1057 H 107.917 2.95415 0.421047 0
M  V30 1058 C 106.666 2.70892 2.17975 0
M  V30 1059 H 105.989 3.5246 1.88711 0
M  V30 1060 H 107.429 3.13803 2.85138 0
M  V30 1061 C 105.888 1.65414 2.93496 0
M  V30 1062 O 106.418 1.07619 3.87015 0
M  V30 1063 N 104.624 1.36564 2.56512 0
M  V30 1064 H 104.171 1.83751 1.80536 0
M  V30 1065 H 104.129 0.66223 3.07347 0
M  V30 1066 N 107.901 -0.206675 1.56239 0
M  V30 1067 C 109.317 -0.557025 1.49564 0
M  V30 1068 C 109.517 -1.86424 0.764735 0
M  V30 1069 O 108.573 -2.50584 0.310491 0
M  V30 1070 C 109.886 -0.622478 2.94186 0
M  V30 1071 C 111.434 -0.712099 3.04792 0
M  V30 1072 C 111.909 -0.808767 4.50803 0
M  V30 1073 N 113.4 -0.8726 4.54907 0
M  V30 1074 C 114.135 -0.967365 5.65181 0
M  V30 1075 N 113.631 -1.02515 6.85173 0
M  V30 1076 N 115.424 -1.00366 5.53067 0
M  V30 1077 H 107.575 0.650943 2.02179 0
M  V30 1078 H 109.838 0.230387 0.919579 0
M  V30 1079 H 109.544 0.268727 3.50672 0
M  V30 1080 H 109.418 -1.4811 3.46905 0
M  V30 1081 H 111.805 -1.59374 2.48363 0
M  V30 1082 H 111.886 0.172489 2.55218 0
M  V30 1083 H 111.53 0.0684754 5.07854 0
M  V30 1084 H 111.46 -1.70899 4.98098 0
M  V30 1085 H 113.951 -0.837657 3.68499 0
M  V30 1086 H 114.264 -1.09765 7.64965 0
M  V30 1087 H 112.609 -0.994026 6.87855 0
M  V30 1088 H 115.8 -0.95527 4.58249 0
M  V30 1089 H 115.973 -1.07405 6.39037 0
M  V30 1090 N 109.379 -1.50304 -0.473955 0
M  V30 1091 C 110.289 -1.7174 -1.5982 0
M  V30 1092 C 111.305 -0.600457 -1.63311 0
M  V30 1093 O 112.481 -0.878441 -1.81233 0
M  V30 1094 C 109.546 -1.80427 -2.96052 0
M  V30 1095 C 108.607 -3.04148 -3.02972 0
M  V30 1096 C 107.84 -3.12411 -4.32706 0
M  V30 1097 O 108.063 -2.27542 -5.23049 0
M  V30 1098 O 106.997 -4.05113 -4.45159 0
M  V30 1099 H 110.823 -2.67035 -1.44657 0
M  V30 1100 H 108.408 -1.34366 -0.653148 0
M  V30 1101 H 110.29 -1.88338 -3.7697 0
M  V30 1102 H 108.965 -0.883156 -3.11419 0
M  V30 1103 H 107.872 -3.0174 -2.21142 0
M  V30 1104 H 109.205 -3.95829 -2.92541 0
M  V30 1105 N 110.857 0.726932 -1.39834 0
M  V30 1106 C 111.82 1.82269 -1.38962 0
M  V30 1107 C 112.82 1.58248 -0.285334 0
M  V30 1108 O 114.01 1.65499 -0.54366 0
M  V30 1109 C 111.142 3.20186 -1.17019 0
M  V30 1110 H 112.335 1.84443 -2.36476 0
M  V30 1111 H 109.888 0.931416 -1.25516 0
M  V30 1112 H 110.623 3.23669 -0.202204 0
M  V30 1113 H 110.408 3.3902 -1.96998 0
M  V30 1114 H 111.898 4.00235 -1.1917 0
M  V30 1115 N 112.336 1.25143 0.95797 0
M  V30 1116 C 113.269 0.995565 2.05338 0
M  V30 1117 C 114.247 -0.0740423 1.62431 0
M  V30 1118 O 115.431 0.0649212 1.88388 0
M  V30 1119 C 112.558 0.504298 3.34925 0
M  V30 1120 C 111.604 1.56393 3.96792 0
M  V30 1121 S 112.437 3.14815 4.33188 0
M  V30 1122 C 113.593 2.67415 5.65898 0
M  V30 1123 H 113.826 1.92309 2.26726 0
M  V30 1124 H 111.359 1.08635 1.09716 0
M  V30 1125 H 113.317 0.227497 4.09869 0
M  V30 1126 H 111.978 -0.402671 3.11508 0
M  V30 1127 H 111.171 1.17082 4.90212 0
M  V30 1128 H 110.773 1.79124 3.28315 0
M  V30 1129 H 113.065 2.10833 6.4386 0
M  V30 1130 H 114.008 3.59463 6.10076 0
M  V30 1131 H 114.416 2.07521 5.24972 0
M  V30 1132 N 113.814 -1.1601 1.06675 0
M  V30 1133 C 115.225 -1.68235 0.809565 0
M  V30 1134 C 115.576 -1.8454 -0.666303 0
M  V30 1135 O 114.701 -1.54374 -1.5165 0
M  V30 1136 C 115.296 -3.05585 1.46299 0
M  V30 1137 C 113.855 -3.54915 1.25349 0
M  V30 1138 C 113.002 -2.30804 1.53703 0
M  V30 1139 H 115.953 -1.00318 1.22971 0
M  V30 1140 H 115.974 -3.70174 0.880431 0
M  V30 1141 H 115.486 -2.93686 2.53713 0
M  V30 1142 H 113.587 -3.72067 0.199261 0
M  V30 1143 H 113.7 -4.36774 1.9689 0
M  V30 1144 H 112.064 -2.36007 0.957739 0
M  V30 1145 H 112.847 -2.21499 2.62284 0
M  V30 1146 N 115.292 -0.849877 -1.32721 0
M  V30 1147 C 116.242 -0.262892 -2.26479 0
M  V30 1148 C 117.226 0.588493 -1.49752 0
M  V30 1149 O 118.418 0.438659 -1.71478 0
M  V30 1150 C 115.547 0.551818 -3.38836 0
M  V30 1151 C 114.633 -0.311689 -4.22953 0
M  V30 1152 N 115.024 -1.39567 -4.86163 0
M  V30 1153 C 113.322 -0.100611 -4.45887 0
M  V30 1154 C 114.023 -1.92651 -5.48872 0
M  V30 1155 N 112.999 -1.22637 -5.29586 0
M  V30 1156 H 116.801 -1.09166 -2.72873 0
M  V30 1157 H 114.315 -0.695486 -1.46754 0
M  V30 1158 H 116.312 0.988713 -4.05006 0
M  V30 1159 H 114.972 1.37844 -2.93988 0
M  V30 1160 H 115.983 -1.77859 -4.86402 0
M  V30 1161 H 112.66 0.691681 -4.11731 0
M  V30 1162 H 114.05 -2.83487 -6.09167 0
M  V30 1163 N 116.77 1.45427 -0.607355 0
M  V30 1164 C 117.718 2.32269 0.12411 0
M  V30 1165 C 118.712 1.45955 0.859854 0
M  V30 1166 O 119.918 1.6244 0.775447 0
M  V30 1167 H 116.293 0.749691 0.0588839 0
M  V30 1168 H 118.264 2.91743 -0.626762 0
M  V30 1169 C 117.013 3.29567 1.1082 0
M  V30 1170 H 116.336 3.95978 0.551492 0
M  V30 1171 H 117.776 3.93061 1.58995 0
M  V30 1172 C 116.235 2.56722 2.18164 0
M  V30 1173 O 116.765 2.34842 3.25902 0
M  V30 1174 N 114.971 2.16861 1.93442 0
M  V30 1175 H 114.518 2.34855 1.05834 0
M  V30 1176 H 114.476 1.68444 2.65469 0
M  V30 1177 N 118.248 0.346503 1.53744 0
M  V30 1178 C 119.494 -0.249473 2.0126 0
M  V30 1179 C 119.827 -1.49965 1.23386 0
M  V30 1180 O 119.102 -1.91811 0.32229 0
M  V30 1181 C 119.385 -0.560643 3.55709 0
M  V30 1182 C 119.238 0.701836 4.44291 0
M  V30 1183 C 120.557 -1.36905 4.18264 0
M  V30 1184 H 117.676 -0.0891987 0.731582 0
M  V30 1185 H 120.318 0.467624 1.84156 0
M  V30 1186 H 118.468 -1.17156 3.70414 0
M  V30 1187 H 120.14 1.33974 4.41417 0
M  V30 1188 H 118.383 1.32612 4.13033 0
M  V30 1189 H 119.054 0.43933 5.50249 0
M  V30 1190 H 121.53 -0.852448 4.07275 0
M  V30 1191 H 120.406 -1.55553 5.26398 0
M  V30 1192 H 120.667 -2.37203 3.73078 0
M  V30 1193 N 119.726 -1.57421 0.075193 0
M  V30 1194 C 120.676 -2.09441 -0.901025 0
M  V30 1195 C 121.66 -1.00486 -1.25663 0
M  V30 1196 O 122.852 -1.2679 -1.23504 0
M  V30 1197 C 119.981 -2.66233 -2.16737 0
M  V30 1198 C 119.067 -3.82198 -1.83808 0
M  V30 1199 N 119.458 -4.91028 -1.21345 0
M  V30 1200 C 117.756 -3.91558 -2.13538 0
M  V30 1201 C 118.457 -5.71852 -1.06585 0
M  V30 1202 N 117.433 -5.20233 -1.57667 0
M  V30 1203 H 121.235 -2.90972 -0.413815 0
M  V30 1204 H 118.749 -1.6189 -0.128601 0
M  V30 1205 H 120.746 -3.01819 -2.87595 0
M  V30 1206 H 119.406 -1.8615 -2.66042 0
M  V30 1207 H 120.417 -5.10323 -0.88268 0
M  V30 1208 H 117.094 -3.22454 -2.65197 0
M  V30 1209 H 118.484 -6.69401 -0.578933 0
M  V30 1210 N 121.204 0.198386 -1.56346 0
M  V30 1211 C 122.451 0.919286 -1.80431 0
M  V30 1212 C 122.779 1.83393 -0.647866 0
M  V30 1213 O 122.034 1.92236 0.366556 0
M  V30 1214 C 122.333 1.77031 -3.10475 0
M  V30 1215 C 121.999 1.00693 -4.39513 0
M  V30 1216 C 120.661 0.796145 -4.74568 0
M  V30 1217 C 123.013 0.469559 -5.19081 0
M  V30 1218 C 120.341 0.0364588 -5.86689 0
M  V30 1219 C 122.693 -0.2769 -6.31994 0
M  V30 1220 C 121.357 -0.49873 -6.65634 0
M  V30 1221 H 120.627 0.336391 -0.660244 0
M  V30 1222 H 123.274 0.185872 -1.90596 0
M  V30 1223 H 121.579 2.5723 -2.95533 0
M  V30 1224 H 123.276 2.33065 -3.26315 0
M  V30 1225 H 119.866 1.18122 -4.12001 0
M  V30 1226 H 124.05 0.619816 -4.92414 0
M  V30 1227 H 119.306 -0.145412 -6.11227 0
M  V30 1228 H 123.48 -0.700684 -6.92866 0
M  V30 1229 H 121.107 -1.0893 -7.52355 0
M  V30 1230 N 122.682 1.50554 0.465978 0
M  V30 1231 C 123.928 1.62038 1.21949 0
M  V30 1232 C 124.261 0.322116 1.9151 0
M  V30 1233 O 123.536 -0.676723 1.82348 0
M  V30 1234 C 123.819 2.80421 2.25912 0
M  V30 1235 C 123.672 4.20144 1.60622 0
M  V30 1236 C 124.991 2.94354 3.27176 0
M  V30 1237 H 122.11 0.589752 0.441998 0
M  V30 1238 H 124.752 1.82956 0.51257 0
M  V30 1239 H 122.902 2.62717 2.86203 0
M  V30 1240 H 124.574 4.49449 1.03889 0
M  V30 1241 H 122.817 4.24165 0.909211 0
M  V30 1242 H 123.488 4.98914 2.36196 0
M  V30 1243 H 125.964 3.10578 2.76913 0
M  V30 1244 H 124.84 3.788 3.97242 0
M  V30 1245 H 125.101 2.05186 3.916 0
M  V30 1246 N 124.16 -0.719506 1.40217 0
M  V30 1247 C 125.123 -1.8153 1.39927 0
M  V30 1248 C 126.123 -1.58095 0.293723 0
M  V30 1249 O 127.313 -1.65209 0.552429 0
M  V30 1250 C 124.445 -3.19561 1.18716 0
M  V30 1251 H 125.638 -1.83186 2.37451 0
M  V30 1252 H 123.191 -0.924746 1.26008 0
M  V30 1253 H 123.926 -3.23557 0.219366 0
M  V30 1254 H 123.711 -3.3797 1.98793 0
M  V30 1255 H 125.201 -3.99598 1.21291 0
M  V30 1256 N 125.638 -1.25649 -0.95132 0
M  V30 1257 C 126.886 -1.10375 -1.69298 0
M  V30 1258 C 127.207 0.355339 -1.91735 0
M  V30 1259 O 126.477 1.25188 -1.50681 0
M  V30 1260 H 125.057 -0.405461 -0.627384 0
M  V30 1261 H 127.719 -1.57823 -1.14358 0
M  V30 1262 H 126.815 -1.61465 -2.67087 0
M  V30 1263 N 127.117 1.15442 -1.07289 0
M  V30 1264 C 128.363 1.86489 -0.796846 0
M  V30 1265 C 128.696 1.82078 0.675371 0
M  V30 1266 O 127.971 1.24346 1.4956 0
M  V30 1267 C 128.254 3.35626 -1.30489 0
M  V30 1268 C 128.107 3.48673 -2.84161 0
M  V30 1269 C 129.426 4.30357 -0.920907 0
M  V30 1270 H 126.545 0.677144 -0.290939 0
M  V30 1271 H 129.187 1.35633 -1.33056 0
M  V30 1272 H 127.337 3.79068 -0.850883 0
M  V30 1273 H 129.009 3.14099 -3.37846 0
M  V30 1274 H 127.252 2.90253 -3.22391 0
M  V30 1275 H 127.923 4.53453 -3.14777 0
M  V30 1276 H 130.399 3.94871 -1.3121 0
M  V30 1277 H 129.275 5.33193 -1.30372 0
M  V30 1278 H 129.536 4.4176 0.173226 0
M  V30 1279 N 128.595 0.856903 1.32268 0
M  V30 1280 C 129.525 0.31858 2.31316 0
M  V30 1281 C 130.506 -0.583487 1.59779 0
M  V30 1282 O 131.691 -0.503259 1.87566 0
M  V30 1283 C 128.821 -0.491979 3.43798 0
M  V30 1284 C 127.775 0.315849 4.26833 0
M  V30 1285 C 127.101 -0.619586 5.31098 0
M  V30 1286 C 128.401 1.54282 4.98993 0
M  V30 1287 H 130.095 1.14621 2.76591 0
M  V30 1288 H 127.641 0.552613 1.32974 0
M  V30 1289 H 129.594 -0.879012 4.1213 0
M  V30 1290 H 128.318 -1.35299 2.97257 0
M  V30 1291 H 126.977 0.684664 3.6015 0
M  V30 1292 H 126.625 -1.47751 4.8081 0
M  V30 1293 H 126.325 -0.0830621 5.87541 0
M  V30 1294 H 127.849 -1.00375 6.02293 0
M  V30 1295 H 129.263 1.22796 5.59995 0
M  V30 1296 H 127.66 2.01745 5.65172 0
M  V30 1297 H 128.73 2.30285 4.26728 0
M  V30 1298 N 130.073 -1.45103 0.615059 0
M  V30 1299 C 131.321 -2.01784 0.112955 0
M  V30 1300 C 131.642 -1.48504 -1.26378 0
M  V30 1301 O 130.912 -0.682245 -1.83636 0
M  V30 1302 H 129.492 -0.745993 0.0387668 0
M  V30 1303 H 132.154 -1.77808 0.798141 0
M  V30 1304 H 131.25 -3.12025 0.0684069 0
M  V30 1305 N 131.551 -0.354651 -1.53558 0
M  V30 1306 C 132.461 0.50515 -2.29097 0
M  V30 1307 C 133.477 1.10223 -1.34636 0
M  V30 1308 O 134.653 1.11553 -1.67684 0
M  V30 1309 C 131.718 1.63479 -3.05738 0
M  V30 1310 C 130.779 1.06636 -4.15845 0
M  V30 1311 C 130.012 2.14217 -4.88822 0
M  V30 1312 O 130.235 3.35137 -4.61562 0
M  V30 1313 O 129.169 1.77887 -5.75013 0
M  V30 1314 H 132.995 -0.109237 -3.03503 0
M  V30 1315 H 130.58 -0.119357 -1.48922 0
M  V30 1316 H 132.462 2.2918 -3.5363 0
M  V30 1317 H 131.137 2.23478 -2.34178 0
M  V30 1318 H 130.044 0.373565 -3.7223 0
M  V30 1319 H 131.377 0.511081 -4.89539 0
M  V30 1320 N 133.029 1.57378 -0.0835403 0
M  V30 1321 C 133.992 2.12252 0.864959 0
M  V30 1322 C 134.992 1.04916 1.21858 0
M  V30 1323 O 136.182 1.30853 1.14991 0
M  V30 1324 C 133.314 2.63358 2.16461 0
M  V30 1325 H 134.507 2.97371 0.388676 0
M  V30 1326 H 132.06 1.55423 0.165317 0
M  V30 1327 H 132.795 1.81727 2.686 0
M  V30 1328 H 132.58 3.41826 1.92087 0
M  V30 1329 H 134.07 3.05847 2.84337 0
M  V30 1330 N 134.507 -0.190092 1.56449 0
M  V30 1331 C 135.47 -1.21925 1.9408 0
M  V30 1332 C 136.47 -1.38176 0.822431 0
M  V30 1333 O 137.66 -1.35903 1.08977 0
M  V30 1334 C 134.792 -2.58773 2.21922 0
M  V30 1335 H 135.985 -0.897464 2.86157 0
M  V30 1336 H 133.538 -0.43181 1.50217 0
M  V30 1337 H 134.273 -2.95998 1.32499 0
M  V30 1338 H 134.058 -2.48348 3.03424 0
M  V30 1339 H 135.548 -3.32978 2.52022 0
M  V30 1340 N 135.985 -1.50799 -0.457987 0
M  V30 1341 C 136.915 -1.73553 -1.5621 0
M  V30 1342 C 137.896 -0.584774 -1.59732 0
M  V30 1343 O 139.081 -0.825314 -1.7579 0
M  V30 1344 C 136.211 -1.84169 -2.94447 0
M  V30 1345 C 135.165 -2.99461 -3.0579 0
M  V30 1346 C 134.491 -2.95235 -4.45803 0
M  V30 1347 C 135.791 -4.39766 -2.81786 0
M  V30 1348 H 137.485 -2.66 -1.37421 0
M  V30 1349 H 135.031 -1.28002 -0.659662 0
M  V30 1350 H 136.984 -1.98672 -3.71628 0
M  V30 1351 H 135.708 -0.883545 -3.14422 0
M  V30 1352 H 134.367 -2.8463 -2.31044 0
M  V30 1353 H 134.015 -1.97239 -4.62715 0
M  V30 1354 H 133.715 -3.72642 -4.54326 0
M  V30 1355 H 135.239 -3.11803 -5.24987 0
M  V30 1356 H 136.653 -4.55054 -3.4871 0
M  V30 1357 H 135.05 -5.18722 -3.0174 0
M  V30 1358 H 136.12 -4.51229 -1.7754 0
M  V30 1359 N 137.463 0.71206 -1.40597 0
M  V30 1360 C 138.41 1.82613 -1.41142 0
M  V30 1361 C 139.38 1.63925 -0.267903 0
M  V30 1362 O 140.565 1.85009 -0.466495 0
M  V30 1363 C 137.705 3.20354 -1.28324 0
M  V30 1364 C 136.818 3.50589 -2.52411 0
M  V30 1365 C 135.953 4.77855 -2.32009 0
M  V30 1366 C 134.992 5.01005 -3.51654 0
M  V30 1367 N 134.129 6.19487 -3.30425 0
M  V30 1368 H 138.969 1.81482 -2.36365 0
M  V30 1369 H 136.506 0.886475 -1.17388 0
M  V30 1370 H 138.464 3.99899 -1.18899 0
M  V30 1371 H 137.094 3.20705 -0.367189 0
M  V30 1372 H 136.146 2.65573 -2.72351 0
M  V30 1373 H 137.458 3.63604 -3.41458 0
M  V30 1374 H 136.612 5.65424 -2.19956 0
M  V30 1375 H 135.351 4.67056 -1.40392 0
M  V30 1376 H 134.356 4.1189 -3.64179 0
M  V30 1377 H 135.581 5.13674 -4.44202 0
M  V30 1378 H 133.527 6.09932 -2.41494 0
M  V30 1379 H 133.444 6.33194 -4.13039 0
M  V30 1380 H 134.712 7.09834 -3.22113 0
M  V30 1381 N 138.941 1.26152 0.944643 0
M  V30 1382 C 140.189 1.11271 1.6871 0
M  V30 1383 C 140.51 -0.345166 1.91921 0
M  V30 1384 O 139.78 -1.24387 1.51343 0
M  V30 1385 H 138.36 0.408783 0.625224 0
M  V30 1386 H 141.022 1.58427 1.1352 0
M  V30 1387 H 140.118 1.62879 2.66227 0
M  V30 1388 N 140.419 -1.14872 1.07899 0
M  V30 1389 C 141.83 -1.67367 0.827363 0
M  V30 1390 C 142.181 -1.85236 -0.646693 0
M  V30 1391 O 141.306 -1.55974 -1.50004 0
M  V30 1392 C 141.901 -3.04016 1.49532 0
M  V30 1393 C 140.46 -3.53566 1.29106 0
M  V30 1394 C 139.607 -2.29161 1.56143 0
M  V30 1395 H 142.558 -0.990083 1.24028 0
M  V30 1396 H 142.579 -3.69219 0.919643 0
M  V30 1397 H 142.091 -2.90978 2.56814 0
M  V30 1398 H 140.192 -3.71835 0.238713 0
M  V30 1399 H 140.305 -4.34661 2.01511 0
M  V30 1400 H 138.669 -2.34978 0.982717 0
M  V30 1401 H 139.452 -2.18705 2.64619 0
M  V30 1402 N 141.898 -0.863906 -1.31812 0
M  V30 1403 C 142.831 -0.259963 -2.26714 0
M  V30 1404 C 143.809 0.607392 -1.50829 0
M  V30 1405 O 144.993 0.562155 -1.79922 0
M  V30 1406 C 142.12 0.632456 -3.32743 0
M  V30 1407 C 141.166 -0.162743 -4.26189 0
M  V30 1408 S 141.999 -1.53726 -5.12961 0
M  V30 1409 C 143.155 -0.650803 -6.22507 0
M  V30 1410 H 143.388 -1.06445 -2.77591 0
M  V30 1411 H 140.921 -0.662071 -1.39485 0
M  V30 1412 H 142.879 1.14167 -3.94305 0
M  V30 1413 H 141.54 1.41083 -2.80632 0
M  V30 1414 H 140.733 0.517366 -5.01338 0
M  V30 1415 H 140.335 -0.60385 -3.69093 0
M  V30 1416 H 142.627 0.141134 -6.77353 0
M  V30 1417 H 143.57 -1.37322 -6.94657 0
M  V30 1418 H 143.978 -0.221041 -5.64067 0
M  V30 1419 N 143.376 1.44774 -0.622745 0
M  V30 1420 C 144.309 2.27792 0.136329 0
M  V30 1421 C 145.287 1.38041 0.859264 0
M  V30 1422 O 146.471 1.67478 0.86506 0
M  V30 1423 C 143.598 3.16776 1.19878 0
M  V30 1424 C 142.644 4.22575 0.57731 0
M  V30 1425 S 143.477 5.31825 -0.626294 0
M  V30 1426 C 144.633 6.24377 0.436378 0
M  V30 1427 H 144.866 2.91824 -0.567967 0
M  V30 1428 H 142.399 1.48838 -0.410677 0
M  V30 1429 H 144.357 3.68596 1.80686 0
M  V30 1430 H 143.018 2.5198 1.87523 0
M  V30 1431 H 142.211 4.84818 1.37721 0
M  V30 1432 H 141.813 3.73974 0.0440439 0
M  V30 1433 H 144.105 6.64689 1.31128 0
M  V30 1434 H 145.048 7.07941 -0.150271 0
M  V30 1435 H 145.456 5.59381 0.758513 0
M  V30 1436 N 144.854 0.36279 1.53368 0
M  V30 1437 C 145.801 -0.485008 2.25646 0
M  V30 1438 C 146.771 -1.07982 1.2621 0
M  V30 1439 O 147.956 -1.11284 1.54986 0
M  V30 1440 C 145.096 -1.62023 3.04701 0
M  V30 1441 C 144.209 -1.05086 4.19024 0
M  V30 1442 C 143.344 -2.15496 4.85525 0
M  V30 1443 C 142.383 -1.5601 5.91884 0
M  V30 1444 N 141.52 -2.60241 6.52088 0
M  V30 1445 H 146.36 0.137864 2.97681 0
M  V30 1446 H 143.897 0.0798061 1.46883 0
M  V30 1447 H 145.855 -2.28887 3.48807 0
M  V30 1448 H 144.485 -2.2138 2.34927 0
M  V30 1449 H 143.537 -0.27259 3.79422 0
M  V30 1450 H 144.849 -0.575926 4.95464 0
M  V30 1451 H 144.003 -2.90186 5.32801 0
M  V30 1452 H 142.742 -2.66341 4.08551 0
M  V30 1453 H 141.747 -0.798338 5.43973 0
M  V30 1454 H 142.972 -1.05994 6.70777 0
M  V30 1455 H 140.918 -3.10304 5.77968 0
M  V30 1456 H 140.835 -2.17426 7.24059 0
M  V30 1457 H 142.103 -3.34641 7.04014 0
M  V30 1458 N 146.332 -1.57332 0.0918853 0
M  V30 1459 C 147.279 -2.13847 -0.868211 0
M  V30 1460 C 148.249 -1.05618 -1.28196 0
M  V30 1461 O 149.434 -1.33387 -1.36427 0
M  V30 1462 C 146.574 -2.72062 -2.12312 0
M  V30 1463 C 145.687 -3.94514 -1.7602 0
M  V30 1464 C 144.822 -4.40903 -2.96273 0
M  V30 1465 C 143.861 -5.55953 -2.56092 0
M  V30 1466 N 142.998 -5.97209 -3.69169 0
M  V30 1467 H 147.838 -2.95575 -0.379406 0
M  V30 1468 H 145.375 -1.46048 -0.175606 0
M  V30 1469 H 147.333 -3.03931 -2.858 0
M  V30 1470 H 145.963 -1.93068 -2.58698 0
M  V30 1471 H 145.015 -3.68979 -0.925135 0
M  V30 1472 H 146.327 -4.7802 -1.42472 0
M  V30 1473 H 145.481 -4.74539 -3.78018 0
M  V30 1474 H 144.22 -3.56291 -3.33029 0
M  V30 1475 H 143.225 -5.21948 -1.72773 0
M  V30 1476 H 144.45 -6.42311 -2.20484 0
M  V30 1477 H 142.396 -5.15543 -4.05649 0
M  V30 1478 H 142.313 -6.75504 -3.39456 0
M  V30 1479 H 143.581 -6.35475 -4.51434 0
M  V30 1480 N 147.81 0.181792 -1.56548 0
M  V30 1481 C 148.72 1.24538 -1.98815 0
M  V30 1482 C 149.736 1.49045 -0.897861 0
M  V30 1483 O 150.912 1.61399 -1.20467 0
M  V30 1484 C 147.977 2.56683 -2.33055 0
M  V30 1485 C 147.038 2.40131 -3.55859 0
M  V30 1486 C 146.271 3.65975 -3.88456 0
M  V30 1487 O 146.494 4.70711 -3.22161 0
M  V30 1488 O 145.428 3.6071 -4.81842 0
M  V30 1489 H 149.254 0.916647 -2.89536 0
M  V30 1490 H 146.839 0.387842 -1.44278 0
M  V30 1491 H 148.721 3.34655 -2.56094 0
M  V30 1492 H 147.396 2.89157 -1.45498 0
M  V30 1493 H 146.303 1.60226 -3.38051 0
M  V30 1494 H 147.636 2.12585 -4.43924 0
M  V30 1495 N 149.288 1.51039 0.449983 0
M  V30 1496 C 150.22 1.67617 1.56324 0
M  V30 1497 C 151.233 0.557083 1.52972 0
M  V30 1498 O 152.422 0.830989 1.57977 0
M  V30 1499 C 149.522 1.66402 2.95235 0
M  V30 1500 C 148.695 2.9469 3.23229 0
M  V30 1501 C 147.754 2.85832 4.41799 0
M  V30 1502 O 146.78 3.59785 4.41071 0
M  V30 1503 N 147.982 2.00821 5.44657 0
M  V30 1504 H 150.747 2.63648 1.42512 0
M  V30 1505 H 148.308 1.48767 0.638737 0
M  V30 1506 H 150.3 1.58062 3.72557 0
M  V30 1507 H 148.87 0.780182 3.02708 0
M  V30 1508 H 148.09 3.16996 2.34323 0
M  V30 1509 H 149.378 3.79636 3.38754 0
M  V30 1510 H 148.776 1.40091 5.48079 0
M  V30 1511 H 147.333 1.98368 6.20881 0
M  V30 1512 N 150.766 -0.704594 1.40972 0
M  V30 1513 C 151.729 -1.80035 1.41845 0
M  V30 1514 C 152.729 -1.57774 0.310474 0
M  V30 1515 O 153.919 -1.64613 0.56992 0
M  V30 1516 C 151.051 -3.18284 1.22098 0
M  V30 1517 H 152.244 -1.80658 2.3938 0
M  V30 1518 H 149.797 -0.911329 1.26982 0
M  V30 1519 H 150.532 -3.23306 0.253672 0
M  V30 1520 H 150.317 -3.35843 2.02366 0
M  V30 1521 H 151.807 -3.98289 1.25522 0
M  V30 1522 N 152.244 -1.26651 -0.937939 0
M  V30 1523 C 153.474 -1.15006 -1.71631 0
M  V30 1524 C 153.882 0.297026 -1.86854 0
M  V30 1525 O 153.225 1.21493 -1.37786 0
M  V30 1526 C 153.287 -1.74984 -3.14039 0
M  V30 1527 C 152.951 -3.24103 -3.2219 0
M  V30 1528 C 153.948 -4.20877 -3.05219 0
M  V30 1529 C 151.633 -3.64625 -3.45476 0
M  V30 1530 C 153.627 -5.56151 -3.11408 0
M  V30 1531 C 151.314 -5.00032 -3.513 0
M  V30 1532 C 152.312 -5.95604 -3.34282 0
M  V30 1533 O 152 -7.28545 -3.3982 0
M  V30 1534 H 151.732 -0.401183 -0.544085 0
M  V30 1535 H 154.286 -1.67832 -1.18413 0
M  V30 1536 H 152.516 -1.16624 -3.68695 0
M  V30 1537 H 154.205 -1.58199 -3.73802 0
M  V30 1538 H 154.971 -3.90908 -2.87081 0
M  V30 1539 H 150.85 -2.90718 -3.57777 0
M  V30 1540 H 154.394 -6.30727 -2.98043 0
M  V30 1541 H 150.291 -5.29659 -3.68959 0
M  V30 1542 H 151.059 -7.3686 -3.56343 0
M  V30 1543 N 153.722 1.14298 -1.08507 0
M  V30 1544 C 154.947 1.8976 -0.837001 0
M  V30 1545 C 155.372 1.78097 0.605228 0
M  V30 1546 O 154.73 1.12188 1.4242 0
M  V30 1547 C 154.778 3.37685 -1.26495 0
M  V30 1548 O 153.882 4.10281 -0.417514 0
M  V30 1549 H 153.223 0.590365 -0.303917 0
M  V30 1550 H 155.753 1.44672 -1.44676 0
M  V30 1551 H 155.763 3.88501 -1.24625 0
M  V30 1552 H 154.438 3.45492 -2.31534 0
M  V30 1553 H 153.015 3.69536 -0.499722 0
M  V30 1554 N 155.201 0.870884 1.31352 0
M  V30 1555 C 156.131 0.343096 2.30966 0
M  V30 1556 C 157.112 -0.566507 1.60389 0
M  V30 1557 O 158.297 -0.483336 1.88089 0
M  V30 1558 C 155.427 -0.455487 3.443 0
M  V30 1559 C 154.381 0.361103 4.26474 0
M  V30 1560 C 153.707 -0.563221 5.31725 0
M  V30 1561 C 155.007 1.59566 4.97329 0
M  V30 1562 H 156.701 1.17548 2.75359 0
M  V30 1563 H 154.247 0.566686 1.32381 0
M  V30 1564 H 156.2 -0.83525 4.13039 0
M  V30 1565 H 154.924 -1.32139 2.98675 0
M  V30 1566 H 153.583 0.722825 3.59403 0
M  V30 1567 H 153.231 -1.42643 4.82351 0
M  V30 1568 H 152.931 -0.0207409 5.87596 0
M  V30 1569 H 154.455 -0.939808 6.03324 0
M  V30 1570 H 155.869 1.28728 5.58661 0
M  V30 1571 H 154.266 2.07728 5.63 0
M  V30 1572 H 155.336 2.34798 4.24262 0
M  V30 1573 N 156.679 -1.44442 0.630414 0
M  V30 1574 C 157.907 -2.06414 0.141671 0
M  V30 1575 C 158.322 -1.47105 -1.18345 0
M  V30 1576 O 157.679 -0.593662 -1.72574 0
M  V30 1577 C 157.73 -3.61494 0.0199784 0
M  V30 1578 O 157.451 -4.18594 1.29269 0
M  V30 1579 C 158.952 -4.40499 -0.497544 0
M  V30 1580 H 156.172 -0.666292 0.0793452 0
M  V30 1581 H 158.716 -1.85323 0.864614 0
M  V30 1582 H 156.871 -3.8185 -0.653402 0
M  V30 1583 H 157.285 -5.12026 1.13707 0
M  V30 1584 H 158.759 -5.49433 -0.531708 0
M  V30 1585 H 159.236 -4.11895 -1.52445 0
M  V30 1586 H 159.842 -4.25061 0.142562 0
M  V30 1587 N 158.157 -0.370918 -1.53173 0
M  V30 1588 C 159.404 0.217102 -2.01333 0
M  V30 1589 C 159.732 1.48338 -1.25802 0
M  V30 1590 O 158.987 1.92698 -0.34146 0
M  V30 1591 C 159.286 0.549696 -3.53147 0
M  V30 1592 C 158.952 -0.622872 -4.46577 0
M  V30 1593 C 157.614 -0.944595 -4.71838 0
M  V30 1594 C 159.966 -1.40819 -5.01816 0
M  V30 1595 C 157.294 -2.05351 -5.49589 0
M  V30 1596 C 159.646 -2.50757 -5.80778 0
M  V30 1597 C 158.31 -2.83458 -6.04324 0
M  V30 1598 H 157.58 0.0794431 -0.736729 0
M  V30 1599 H 160.227 -0.504481 -1.84736 0
M  V30 1600 H 158.532 1.35237 -3.6772 0
M  V30 1601 H 160.229 1.017 -3.87889 0
M  V30 1602 H 156.819 -0.36209 -4.27068 0
M  V30 1603 H 161.003 -1.17289 -4.82242 0
M  V30 1604 H 156.259 -2.3108 -5.6605 0
M  V30 1605 H 160.433 -3.12022 -6.22588 0
M  V30 1606 H 158.06 -3.69508 -6.64355 0
M  V30 1607 N 159.635 1.57281 -0.100228 0
M  V30 1608 C 160.863 1.98879 0.570509 0
M  V30 1609 C 161.278 0.979476 1.61405 0
M  V30 1610 O 160.635 -0.0302288 1.82475 0
M  V30 1611 C 160.686 3.4052 1.2136 0
M  V30 1612 O 160.407 4.37588 0.211786 0
M  V30 1613 C 161.908 3.97149 1.96945 0
M  V30 1614 H 159.128 0.653428 0.152555 0
M  V30 1615 H 161.672 2.03697 -0.18103 0
M  V30 1616 H 159.827 3.367 1.91603 0
M  V30 1617 H 160.241 5.20118 0.676607 0
M  V30 1618 H 161.715 4.98393 2.37294 0
M  V30 1619 H 162.192 3.3525 2.83733 0
M  V30 1620 H 162.798 4.04458 1.31506 0
M  V30 1621 N 161.113 -0.173488 1.56642 0
M  V30 1622 C 162.023 -1.23482 1.99473 0
M  V30 1623 C 163.039 -1.48567 0.905752 0
M  V30 1624 O 164.215 -1.60758 1.21321 0
M  V30 1625 C 161.28 -2.55444 2.34413 0
M  V30 1626 C 160.341 -2.38241 3.57127 0
M  V30 1627 C 159.574 -3.63909 3.90392 0
M  V30 1628 O 159.797 -4.68996 3.24653 0
M  V30 1629 O 158.731 -3.58149 4.83749 0
M  V30 1630 H 162.557 -0.901279 2.90018 0
M  V30 1631 H 160.142 -0.380185 1.44482 0
M  V30 1632 H 162.024 -3.33292 2.57865 0
M  V30 1633 H 160.699 -2.88382 1.4703 0
M  V30 1634 H 159.606 -1.58431 3.38896 0
M  V30 1635 H 160.939 -2.10228 4.45045 0
M  V30 1636 N 162.591 -1.51276 -0.441967 0
M  V30 1637 C 163.554 -1.7167 -1.51862 0
M  V30 1638 C 164.554 -0.586793 -1.49711 0
M  V30 1639 O 165.744 -0.854276 -1.51815 0
M  V30 1640 C 162.876 -1.76889 -2.91416 0
M  V30 1641 H 164.069 -2.67754 -1.35084 0
M  V30 1642 H 161.622 -1.41196 -0.670333 0
M  V30 1643 H 162.357 -0.826026 -3.13604 0
M  V30 1644 H 162.142 -2.59001 -2.94382 0
M  V30 1645 H 163.632 -1.94522 -3.69528 0
M  V30 1646 N 164.069 0.697108 -1.41344 0
M  V30 1647 C 165.317 1.45426 -1.40341 0
M  V30 1648 C 165.638 1.94996 -0.0128787 0
M  V30 1649 O 164.908 1.71599 0.945027 0
M  V30 1650 H 163.488 0.539594 -0.516573 0
M  V30 1651 H 166.15 0.825201 -1.76569 0
M  V30 1652 H 165.246 2.31817 -2.08967 0
M  V30 1653 N 165.547 1.27147 0.931209 0
M  V30 1654 C 166.775 1.16082 1.71267 0
M  V30 1655 C 167.19 -0.282772 1.8667 0
M  V30 1656 O 166.547 -1.19283 1.38122 0
M  V30 1657 C 166.598 1.8358 3.11417 0
M  V30 1658 O 166.319 3.22299 2.96741 0
M  V30 1659 C 167.82 1.78597 4.05732 0
M  V30 1660 H 165.04 0.403758 0.535929 0
M  V30 1661 H 167.584 1.67953 1.16671 0
M  V30 1662 H 165.739 1.35623 3.62885 0
M  V30 1663 H 166.153 3.55851 3.85319 0
M  V30 1664 H 167.627 2.30444 5.01597 0
M  V30 1665 H 168.104 0.754564 4.3267 0
M  V30 1666 H 168.71 2.26152 3.60188 0
M  V30 1667 N 167.025 -1.13721 1.09112 0
M  V30 1668 C 168.255 -1.88499 0.845671 0
M  V30 1669 C 168.663 -1.79218 -0.606432 0
M  V30 1670 O 168.006 -1.1544 -1.42896 0
M  V30 1671 C 168.068 -3.38954 1.19793 0
M  V30 1672 C 167.732 -3.72018 2.65428 0
M  V30 1673 C 168.729 -3.7153 3.63677 0
M  V30 1674 C 166.414 -4.01775 3.01467 0
M  V30 1675 C 168.408 -4.00336 4.95994 0
M  V30 1676 C 166.095 -4.30243 4.33975 0
M  V30 1677 C 167.093 -4.29508 5.31048 0
M  V30 1678 O 166.781 -4.5728 6.61173 0
M  V30 1679 H 166.513 -0.603702 0.304171 0
M  V30 1680 H 169.067 -1.44903 1.45576 0
M  V30 1681 H 167.297 -3.83039 0.530871 0
M  V30 1682 H 168.986 -3.95052 0.932146 0
M  V30 1683 H 169.752 -3.4862 3.37179 0
M  V30 1684 H 165.631 -4.01496 2.26544 0
M  V30 1685 H 169.175 -3.99678 5.71755 0
M  V30 1686 H 165.072 -4.52625 4.60219 0
M  V30 1687 H 165.84 -4.74964 6.66597 0
M  V30 1688 N 168.503 -0.877838 -1.30888 0
M  V30 1689 C 169.78 -0.413052 -1.91189 0
M  V30 1690 C 170.16 1.1056 -1.79832 0
M  V30 1691 O 169.508 1.93771 -1.21099 0
M  V30 1692 C 169.718 -0.903191 -3.3711 0
M  V30 1693 C 171.066 -0.93395 -4.14201 0
M  V30 1694 O 172.09 -0.849373 -3.45925 0
M  V30 1695 O 170.949 -1.05772 -5.36167 0
M  V30 1696 H 168.043 -0.125035 -0.817493 0
M  V30 1697 H 170.589 -0.966269 -1.39504 0
M  V30 1698 H 169.361 -1.94692 -3.39427 0
M  V30 1699 H 168.984 -0.328732 -3.96239 0
M  V30 1700 N 169.982 1.44106 -0.638065 0
M  V30 1701 C 171.212 2.06037 -0.152394 0
M  V30 1702 C 171.62 1.47808 1.18108 0
M  V30 1703 O 170.963 0.598092 1.73691 0
M  V30 1704 C 171.025 3.59488 0.0293714 0
M  V30 1705 C 170.689 4.4022 -1.22702 0
M  V30 1706 C 171.686 4.73256 -2.15232 0
M  V30 1707 C 169.371 4.8048 -1.46437 0
M  V30 1708 C 171.365 5.45444 -3.29802 0
M  V30 1709 C 169.052 5.52417 -2.61303 0
M  V30 1710 C 170.05 5.84819 -3.52811 0
M  V30 1711 O 169.738 6.55289 -4.65673 0
M  V30 1712 H 169.47 0.671233 -0.0801401 0
M  V30 1713 H 172.024 1.85851 -0.874563 0
M  V30 1714 H 170.254 3.78191 0.806758 0
M  V30 1715 H 171.943 4.03164 0.470475 0
M  V30 1716 H 172.709 4.42684 -1.98131 0
M  V30 1717 H 168.588 4.54676 -0.760977 0
M  V30 1718 H 172.132 5.70653 -4.01249 0
M  V30 1719 H 168.029 5.82404 -2.78344 0
M  V30 1720 H 168.797 6.73762 -4.64744 0
M  V30 1721 N 171.46 0.379036 1.52974 0
M  V30 1722 C 172.41 -0.477772 2.22938 0
M  V30 1723 C 173.394 -1.03792 1.22948 0
M  V30 1724 O 174.586 -0.965725 1.48333 0
M  V30 1725 C 171.715 -1.60994 3.03209 0
M  V30 1726 C 170.801 -1.06203 4.10587 0
M  V30 1727 N 171.192 -0.238214 5.05239 0
M  V30 1728 C 169.49 -1.33554 4.25534 0
M  V30 1729 C 170.191 0.0633235 5.81666 0
M  V30 1730 N 169.167 -0.537901 5.40932 0
M  V30 1731 H 172.969 0.158295 2.93473 0
M  V30 1732 H 170.483 0.187778 1.61311 0
M  V30 1733 H 172.48 -2.23607 3.5186 0
M  V30 1734 H 171.14 -2.24893 2.34207 0
M  V30 1735 H 172.151 0.123695 5.17752 0
M  V30 1736 H 168.828 -1.97632 3.6776 0
M  V30 1737 H 170.218 0.730161 6.67921 0
M  V30 1738 N 172.938 -1.57226 0.108567 0
M  V30 1739 C 174.178 -1.96717 -0.555155 0
M  V30 1740 C 174.542 -0.990003 -1.64508 0
M  V30 1741 O 175.743 -1.2739 -2.36696 0
M  V30 1742 C 174.014 -3.40575 -1.08367 0
M  V30 1743 S 175.573 -4.02072 -1.75737 0
M  V30 1744 H 172.391 -0.687638 -0.180762 0
M  V30 1745 H 174.993 -1.94563 0.191172 0
M  V30 1746 H 173.697 -4.0945 -0.279092 0
M  V30 1747 H 173.228 -3.46356 -1.86551 0
M  V30 1748 H 175.243 -3.91977 -3.04251 0
M  V30 1749 N 174.416 0.165178 -1.56732 0
M  V30 1750 C 175.644 0.896218 -1.86482 0
M  V30 1751 C 176.059 1.75555 -0.694675 0
M  V30 1752 O 175.416 1.79379 0.33607 0
M  V30 1753 C 175.467 1.76792 -3.1532 0
M  V30 1754 O 175.188 0.943239 -4.27825 0
M  V30 1755 C 176.689 2.6081 -3.58459 0
M  V30 1756 H 173.909 0.260064 -0.618553 0
M  V30 1757 H 176.453 0.163428 -2.03846 0
M  V30 1758 H 174.608 2.45398 -2.99764 0
M  V30 1759 H 175.022 1.53998 -5.01383 0
M  V30 1760 H 176.496 3.17579 -4.51495 0
M  V30 1761 H 176.973 3.35977 -2.82872 0
M  V30 1762 H 177.579 1.97526 -3.76648 0
M  V30 1763 N 175.894 1.51508 0.433938 0
M  V30 1764 C 177.305 1.56784 1.01369 0
M  V30 1765 C 177.656 0.393349 1.92217 0
M  V30 1766 O 176.781 -0.489441 2.10792 0
M  V30 1767 C 177.376 2.84144 1.8452 0
M  V30 1768 C 175.935 2.9198 2.37539 0
M  V30 1769 C 175.082 2.51482 1.16843 0
M  V30 1770 H 178.033 1.57236 0.215081 0
M  V30 1771 H 178.054 2.68098 2.70007 0
M  V30 1772 H 177.566 3.69607 1.18373 0
M  V30 1773 H 175.667 2.10955 3.0713 0
M  V30 1774 H 175.78 3.95704 2.70103 0
M  V30 1775 H 174.144 2.04758 1.51481 0
M  V30 1776 H 174.927 3.39293 0.523015 0
M  V30 1777 N 177.372 -0.689602 1.41712 0
M  V30 1778 C 178.322 -1.79571 1.40493 0
M  V30 1779 C 179.306 -1.58473 0.278409 0
M  V30 1780 O 180.498 -1.69204 0.519532 0
M  V30 1781 C 177.627 -3.17923 1.29536 0
M  V30 1782 C 176.713 -3.44695 2.47075 0
M  V30 1783 N 177.104 -3.42132 3.72531 0
M  V30 1784 C 175.402 -3.75269 2.41017 0
M  V30 1785 C 176.103 -3.67976 4.50521 0
M  V30 1786 N 175.079 -3.88014 3.80718 0
M  V30 1787 H 178.881 -1.75961 2.35404 0
M  V30 1788 H 176.395 -0.889839 1.35851 0
M  V30 1789 H 178.392 -3.97167 1.26745 0
M  V30 1790 H 177.052 -3.22741 0.356153 0
M  V30 1791 H 178.063 -3.22375 4.05333 0
M  V30 1792 H 174.74 -3.87421 1.55599 0
M  V30 1793 H 176.13 -3.7208 5.59469 0
M  V30 1794 N 178.85 -1.27639 -0.924453 0
M  V30 1795 C 180.261 -1.12834 -1.48746 0
M  V30 1796 C 180.612 0.285505 -1.94112 0
M  V30 1797 O 179.737 1.17874 -1.81479 0
M  V30 1798 C 180.332 -2.04217 -2.70334 0
M  V30 1799 C 178.891 -1.93509 -3.22848 0
M  V30 1800 C 178.038 -1.96583 -1.95577 0
M  V30 1801 H 180.989 -1.40484 -0.738233 0
M  V30 1802 H 181.01 -1.59989 -3.4523 0
M  V30 1803 H 180.522 -3.07111 -2.37285 0
M  V30 1804 H 178.623 -0.936131 -3.60649 0
M  V30 1805 H 178.736 -2.79917 -3.88823 0
M  V30 1806 H 177.1 -1.4085 -2.12211 0
M  V30 1807 H 177.883 -3.01137 -1.64837 0
M  V30 1808 N 180.328 1.1314 -1.09713 0
M  V30 1809 C 181.575 1.84484 -0.834987 0
M  V30 1810 C 181.903 1.83689 0.639418 0
M  V30 1811 O 181.158 1.2724 1.4869 0
M  V30 1812 C 181.457 3.32167 -1.3191 0
M  V30 1813 C 181.123 3.53139 -2.80363 0
M  V30 1814 C 179.785 3.58571 -3.20905 0
M  V30 1815 C 182.137 3.60866 -3.76065 0
M  V30 1816 C 179.465 3.69267 -4.55916 0
M  V30 1817 C 181.817 3.73089 -5.10869 0
M  V30 1818 C 180.481 3.76775 -5.50996 0
M  V30 1819 H 179.751 0.675073 -0.305544 0
M  V30 1820 H 182.398 1.33554 -1.37243 0
M  V30 1821 H 180.703 3.85469 -0.701517 0
M  V30 1822 H 182.4 3.85821 -1.09284 0
M  V30 1823 H 178.99 3.49569 -2.47991 0
M  V30 1824 H 183.174 3.55946 -3.45855 0
M  V30 1825 H 178.43 3.70388 -4.86438 0
M  V30 1826 H 182.604 3.78011 -5.84877 0
M  V30 1827 H 180.231 3.84815 -6.55608 0
M  V30 1828 N 181.806 0.884767 1.30421 0
M  V30 1829 C 182.739 0.295999 2.26272 0
M  V30 1830 C 183.717 -0.58332 1.51777 0
M  V30 1831 O 184.901 -0.53346 1.80794 0
M  V30 1832 C 182.028 -0.57944 3.33707 0
M  V30 1833 C 181.074 0.230525 4.25877 0
M  V30 1834 S 181.907 1.61867 5.1045 0
M  V30 1835 C 183.063 0.749756 6.21393 0
M  V30 1836 H 183.296 1.10848 2.75862 0
M  V30 1837 H 180.829 0.684178 1.38414 0
M  V30 1838 H 182.787 -1.07879 3.96071 0
M  V30 1839 H 181.448 -1.36601 2.82841 0
M  V30 1840 H 180.641 -0.437542 5.02097 0
M  V30 1841 H 180.243 0.662493 3.68086 0
M  V30 1842 H 182.535 -0.0333547 6.77492 0
M  V30 1843 H 183.478 1.48356 6.92384 0
M  V30 1844 H 183.886 0.310751 5.63644 0
M  V30 1845 N 183.284 -1.43765 0.645699 0
M  V30 1846 C 184.7 -1.56509 0.312591 0
M  V30 1847 C 184.9 -1.6307 -1.18365 0
M  V30 1848 O 183.956 -1.58167 -1.96824 0
M  V30 1849 C 185.269 -2.82968 1.01733 0
M  V30 1850 C 186.817 -2.96701 0.996865 0
M  V30 1851 C 187.292 -4.25982 1.68236 0
M  V30 1852 N 188.783 -4.32829 1.64964 0
M  V30 1853 C 189.518 -5.31613 2.14885 0
M  V30 1854 N 189.014 -6.36718 2.73061 0
M  V30 1855 N 190.807 -5.23217 2.05428 0
M  V30 1856 H 182.958 -1.3775 1.61675 0
M  V30 1857 H 185.221 -0.661067 0.679481 0
M  V30 1858 H 184.927 -2.84156 2.0724 0
M  V30 1859 H 184.801 -3.72957 0.564177 0
M  V30 1860 H 187.188 -2.95058 -0.0497719 0
M  V30 1861 H 187.269 -2.08022 1.48865 0
M  V30 1862 H 186.913 -4.28386 2.72852 0
M  V30 1863 H 186.843 -5.13545 1.16529 0
M  V30 1864 H 189.334 -3.57493 1.22503 0
M  V30 1865 H 189.647 -7.08401 3.08848 0
M  V30 1866 H 187.992 -6.37362 2.77118 0
M  V30 1867 H 191.183 -4.40019 1.59689 0
M  V30 1868 H 191.356 -6.00045 2.44643 0
M  V30 1869 N 184.763 -0.387143 -1.52771 0
M  V30 1870 C 186.011 0.195349 -2.01154 0
M  V30 1871 C 186.332 1.475 -1.27549 0
M  V30 1872 O 185.602 1.91878 -0.394924 0
M  V30 1873 H 184.182 0.075178 -0.743207 0
M  V30 1874 H 186.844 -0.518337 -1.87881 0
M  V30 1875 H 185.94 0.407096 -3.09434 0
M  V30 1876 N 186.241 1.57166 -0.116904 0
M  V30 1877 C 187.188 2.15202 0.83408 0
M  V30 1878 C 188.158 1.07644 1.26499 0
M  V30 1879 O 189.343 1.35541 1.34288 0
M  V30 1880 C 186.483 2.75405 2.07957 0
M  V30 1881 C 185.596 3.97264 1.69721 0
M  V30 1882 C 184.731 4.45561 2.89221 0
M  V30 1883 C 183.77 5.59956 2.47215 0
M  V30 1884 N 182.907 6.03006 3.59622 0
M  V30 1885 H 187.747 2.96141 0.332335 0
M  V30 1886 H 185.284 1.46309 0.152349 0
M  V30 1887 H 187.242 3.08439 2.80929 0
M  V30 1888 H 185.872 1.97159 2.55594 0
M  V30 1889 H 184.924 3.70404 0.866316 0
M  V30 1890 H 186.236 4.80226 1.34849 0
M  V30 1891 H 185.39 4.80493 3.7042 0
M  V30 1892 H 184.129 3.61544 3.27318 0
M  V30 1893 H 183.134 5.2463 1.64448 0
M  V30 1894 H 184.359 6.45738 2.10238 0
M  V30 1895 H 182.305 5.21931 3.97396 0
M  V30 1896 H 182.222 6.80819 3.28667 0
M  V30 1897 H 183.49 6.42576 4.41267 0
M  V30 1898 N 187.719 -0.156864 1.56817 0
M  V30 1899 C 188.965 -0.872416 1.83076 0
M  V30 1900 C 189.298 -1.81261 0.697001 0
M  V30 1901 O 188.573 -1.92171 -0.30008 0
M  V30 1902 C 188.856 -1.65551 3.19789 0
M  V30 1903 C 188.709 -0.737467 4.43713 0
M  V30 1904 C 190.028 -2.62012 3.53606 0
M  V30 1905 H 187.147 -0.315715 0.665953 0
M  V30 1906 H 189.789 -0.138004 1.89498 0
M  V30 1907 H 187.939 -2.28159 3.14445 0
M  V30 1908 H 189.611 -0.123143 4.61136 0
M  V30 1909 H 187.854 -0.0464067 4.33775 0
M  V30 1910 H 188.525 -1.32122 5.35955 0
M  V30 1911 H 191.001 -2.09525 3.59497 0
M  V30 1912 H 189.877 -3.13861 4.50314 0
M  V30 1913 H 190.138 -3.42902 2.79053 0
M  V30 1914 N 189.197 -1.51736 -0.425897 0
M  V30 1915 C 190.443 -1.65214 -1.1761 0
M  V30 1916 C 190.776 -0.372778 -1.90589 0
M  V30 1917 O 190.051 0.628139 -1.84078 0
M  V30 1918 C 190.334 -2.86312 -2.18398 0
M  V30 1919 C 190.187 -4.24254 -1.49426 0
M  V30 1920 C 191.506 -3.02925 -3.19256 0
M  V30 1921 H 188.625 -0.601263 -0.426206 0
M  V30 1922 H 191.267 -1.8425 -0.463882 0
M  V30 1923 H 189.417 -2.70213 -2.79137 0
M  V30 1924 H 191.089 -4.52046 -0.919362 0
M  V30 1925 H 189.332 -4.26426 -0.796432 0
M  V30 1926 H 190.003 -5.05001 -2.22885 0
M  V30 1927 H 192.479 -3.1781 -2.68581 0
M  V30 1928 H 191.355 -3.89199 -3.8706 0
M  V30 1929 H 191.616 -2.15497 -3.86023 0
M  V30 1930 N 190.675 0.682077 -1.42076 0
M  V30 1931 C 191.921 1.44428 -1.42367 0
M  V30 1932 C 192.254 1.94164 -0.0373056 0
M  V30 1933 O 191.529 1.70429 0.937239 0
M  V30 1934 C 191.812 2.64654 -2.44194 0
M  V30 1935 C 191.665 2.20596 -3.91991 0
M  V30 1936 C 192.984 3.66865 -2.431 0
M  V30 1937 H 190.103 0.523834 -0.518428 0
M  V30 1938 H 192.745 0.77576 -1.73442 0
M  V30 1939 H 190.895 3.2169 -2.17826 0
M  V30 1940 H 192.567 1.68783 -4.29313 0
M  V30 1941 H 190.81 1.52242 -4.06208 0
M  V30 1942 H 191.481 3.06921 -4.58807 0
M  V30 1943 H 193.957 3.19531 -2.66532 0
M  V30 1944 H 192.833 4.48577 -3.16339 0
M  V30 1945 H 193.094 4.17493 -1.45437 0
M  V30 1946 N 192.153 1.28127 0.917671 0
M  V30 1947 C 193.063 1.13556 2.05286 0
M  V30 1948 C 194.079 0.0630914 1.73886 0
M  V30 1949 O 195.255 0.271598 1.9956 0
M  V30 1950 C 192.32 0.794676 3.3747 0
M  V30 1951 C 191.381 1.94909 3.82504 0
M  V30 1952 C 190.614 1.62437 5.0838 0
M  V30 1953 O 190.837 0.536905 5.67867 0
M  V30 1954 O 189.771 2.46677 5.4903 0
M  V30 1955 H 193.597 2.08844 2.20495 0
M  V30 1956 H 191.182 1.07409 1.03845 0
M  V30 1957 H 193.064 0.618344 4.16839 0
M  V30 1958 H 191.739 -0.128581 3.23445 0
M  V30 1959 H 190.646 2.18055 3.03978 0
M  V30 1960 H 191.979 2.85291 4.01086 0
M  V30 1961 O 193.67 -1.05238 1.22504 0
M  V30 1962 H 194.361 -1.6643 0.990999 0
M  V30 END ATOM
M  V30 BEGIN BOND
M  V30 END BOND
M  V30 END CTAB
M  END
$$$$
