drugbank_target|Q7NSZ5 Putative uncharacterized protein (DB03884)
 OpenBabel12092120513D

  0  0  0     0  0            999 V3000
M  V30 BEGIN CTAB
M  V30 COUNTS 3014 3056 0 0 0
M  V30 BEGIN ATOM
M  V30 1 H -0.908 1.98254 -0.117106 0
M  V30 2 N 0 1.576 0 0
M  V30 3 C 0.933 2.03868 1.02534 0
M  V30 4 C 1.911 0.928543 1.3348 0
M  V30 5 O 3.095 1.19667 1.45644 0
M  V30 6 C 0.222 2.43627 2.35294 0
M  V30 7 C -0.732 3.65373 2.2001 0
M  V30 8 S 0.101 5.13292 1.52614 0
M  V30 9 C 1.257 5.56322 2.86805 0
M  V30 10 H 1.49 2.90518 0.631377 0
M  V30 11 H -0.977 1.52953 0.210867 0
M  V30 12 H 0.981 2.67203 3.11629 0
M  V30 13 H -0.358 1.57376 2.7183 0
M  V30 14 H -1.165 3.90944 3.18086 0
M  V30 15 H -1.563 3.418 1.51819 0
M  V30 16 H 0.729 5.58782 3.83104 0
M  V30 17 H 1.672 6.56266 2.65933 0
M  V30 18 H 2.08 4.83886 2.90714 0
M  V30 19 N 1.4781 -0.272755 1.55222 0
M  V30 20 C 2.3881 -1.35918 1.91216 0
M  V30 21 C 3.4041 -1.54026 0.809436 0
M  V30 22 O 4.5801 -1.68148 1.10852 0
M  V30 23 C 1.6451 -2.69834 2.17693 0
M  V30 24 C 0.7061 -2.6047 3.41253 0
M  V30 25 C -0.0609 -3.88 3.66458 0
M  V30 26 O 0.1621 -4.88693 2.94169 0
M  V30 27 O -0.9039 -3.88189 4.59992 0
M  V30 28 H 2.9221 -1.0839 2.83699 0
M  V30 29 H 0.5071 -0.471301 1.41771 0
M  V30 30 H 2.3891 -3.49017 2.36147 0
M  V30 31 H 1.0641 -2.97148 1.28392 0
M  V30 32 H -0.0289 -1.79663 3.28134 0
M  V30 33 H 1.3041 -2.38106 4.30774 0
M  V30 34 N 2.9562 -1.48159 -0.537278 0
M  V30 35 C 3.9042 -1.62573 -1.66352 0
M  V30 36 C 4.8982 -0.492366 -1.62087 0
M  V30 37 O 6.1042 -0.670847 -1.67032 0
M  V30 38 H 2.4792 -0.511992 -0.550789 0
M  V30 39 H 4.4502 -2.57176 -1.51337 0
M  V30 40 C 3.1992 -1.67583 -3.04649 0
M  V30 41 H 2.5222 -2.54151 -3.08622 0
M  V30 42 H 3.9622 -1.81713 -3.83088 0
M  V30 43 C 2.4212 -0.413039 -3.34358 0
M  V30 44 O 2.9512 0.477259 -3.98855 0
M  V30 45 N 1.1572 -0.286961 -2.8918 0
M  V30 46 H 0.7042 -1.01241 -2.36871 0
M  V30 47 H 0.6622 0.556963 -3.09427 0
M  V30 48 N 4.4343 0.785586 -1.36625 0
M  V30 49 C 5.8503 1.08419 -1.17122 0
M  V30 50 C 6.0503 2.015 0.00208491 0
M  V30 51 O 5.1063 2.43551 0.666278 0
M  V30 52 C 6.4193 1.69498 -2.48377 0
M  V30 53 C 7.9673 1.81821 -2.54775 0
M  V30 54 C 8.4423 2.46315 -3.86126 0
M  V30 55 N 9.9333 2.53779 -3.87492 0
M  V30 56 C 10.6683 3.045 -4.85868 0
M  V30 57 N 10.1643 3.55499 -5.94637 0
M  V30 58 N 11.9573 3.03247 -4.73284 0
M  V30 59 H 4.1083 0.167264 -2.1174 0
M  V30 60 H 6.3713 0.13682 -0.938075 0
M  V30 61 H 6.0773 1.08571 -3.34522 0
M  V30 62 H 5.9513 2.6896 -2.64462 0
M  V30 63 H 8.3383 2.41884 -1.69045 0
M  V30 64 H 8.4193 0.811532 -2.42586 0
M  V30 65 H 8.0633 1.86895 -4.72263 0
M  V30 66 H 7.9933 3.47561 -3.95612 0
M  V30 67 H 10.4843 2.17672 -3.08913 0
M  V30 68 H 10.7973 3.92562 -6.65669 0
M  V30 69 H 9.1423 3.5364 -5.98301 0
M  V30 70 H 12.3333 2.62696 -3.87438 0
M  V30 71 H 12.5063 3.42467 -5.50109 0
M  V30 72 N 5.9124 1.20967 1.01018 0
M  V30 73 C 6.8224 0.980157 2.13143 0
M  V30 74 C 7.8384 -0.0660665 1.73875 0
M  V30 75 O 9.0144 0.122821 2.01025 0
M  V30 76 C 6.0794 0.54216 3.42435 0
M  V30 77 C 5.1404 1.65999 3.95908 0
M  V30 78 C 4.3734 1.2428 5.19028 0
M  V30 79 O 4.5964 0.114196 5.70286 0
M  V30 80 O 3.5304 2.05271 5.65816 0
M  V30 81 H 7.3564 1.91913 2.35379 0
M  V30 82 H 4.9414 0.994099 1.11526 0
M  V30 83 H 6.8234 0.30744 4.20277 0
M  V30 84 H 5.4984 -0.36815 3.216 0
M  V30 85 H 4.4054 1.94906 3.19316 0
M  V30 86 H 5.7384 2.54753 4.21143 0
M  V30 87 N 7.3905 -1.2043 1.01659 0
M  V30 88 C 8.8015 -1.71517 0.737482 0
M  V30 89 C 9.1525 -1.81547 -0.743973 0
M  V30 90 O 8.2775 -1.47803 -1.58061 0
M  V30 91 C 8.8725 -3.11515 1.33206 0
M  V30 92 C 7.4315 -3.59912 1.10183 0
M  V30 93 C 6.5785 -2.37116 1.43776 0
M  V30 94 H 9.5295 -1.05444 1.18606 0
M  V30 95 H 9.5505 -3.73575 0.722636 0
M  V30 96 H 9.0625 -3.04182 2.41028 0
M  V30 97 H 7.1635 -3.72577 0.0412756 0
M  V30 98 H 7.2765 -4.44731 1.78188 0
M  V30 99 H 5.6405 -2.39857 0.856778 0
M  V30 100 H 6.4235 -2.32424 2.52654 0
M  V30 101 N 8.8686 -0.792821 -1.36206 0
M  V30 102 C 10.2796 -0.429513 -1.81692 0
M  V30 103 C 10.6306 1.04695 -1.65932 0
M  V30 104 O 9.7556 1.81256 -1.18218 0
M  V30 105 C 10.3506 -0.772831 -3.29868 0
M  V30 106 C 8.9096 -0.462307 -3.7355 0
M  V30 107 C 8.0566 -1.00569 -2.5842 0
M  V30 108 H 11.0076 -0.985672 -1.24379 0
M  V30 109 H 11.0286 -0.0651928 -3.80444 0
M  V30 110 H 10.5406 -1.84747 -3.41307 0
M  V30 111 H 8.6416 0.604158 -3.67669 0
M  V30 112 H 8.7546 -0.985299 -4.68859 0
M  V30 113 H 7.1186 -0.428734 -2.51066 0
M  V30 114 H 7.9016 -2.08616 -2.72643 0
M  V30 115 N 10.3467 1.47872 -0.545128 0
M  V30 116 C 11.2767 2.32661 0.197793 0
M  V30 117 C 12.2577 1.43041 0.920504 0
M  V30 118 O 13.4427 1.71912 0.90333 0
M  V30 119 C 10.5727 3.24569 1.23582 0
M  V30 120 C 9.5267 4.23333 0.630323 0
M  V30 121 C 8.8527 5.0448 1.77211 0
M  V30 122 C 10.1527 5.20704 -0.407974 0
M  V30 123 H 11.8467 2.95024 -0.510045 0
M  V30 124 H 9.3927 1.4187 -0.246731 0
M  V30 125 H 11.3457 3.8272 1.76362 0
M  V30 126 H 10.0697 2.60236 1.97344 0
M  V30 127 H 8.7287 3.6639 0.123922 0
M  V30 128 H 8.3767 4.36561 2.49847 0
M  V30 129 H 8.0767 5.71339 1.37281 0
M  V30 130 H 9.6007 5.65487 2.3034 0
M  V30 131 H 11.0147 5.7329 0.033305 0
M  V30 132 H 9.4117 5.95699 -0.725486 0
M  V30 133 H 10.4817 4.66917 -1.30828 0
M  V30 134 N 11.8248 0.280983 1.55075 0
M  V30 135 C 12.7548 -0.597469 2.25727 0
M  V30 136 C 13.7358 -1.15417 1.24952 0
M  V30 137 O 14.9208 -1.18722 1.53684 0
M  V30 138 C 12.0508 -1.7789 2.98283 0
M  V30 139 C 11.0048 -1.35347 4.06036 0
M  V30 140 C 10.3308 -2.61846 4.66198 0
M  V30 141 C 11.6308 -0.499354 5.19907 0
M  V30 142 H 13.3248 -0.00824265 2.99399 0
M  V30 143 H 10.8708 -0.0025244 1.44 0
M  V30 144 H 12.8238 -2.39937 3.46422 0
M  V30 145 H 11.5478 -2.39405 2.22155 0
M  V30 146 H 10.2068 -0.756156 3.58717 0
M  V30 147 H 9.8548 -3.21632 3.86732 0
M  V30 148 H 9.5548 -2.3409 5.38958 0
M  V30 149 H 11.0788 -3.24732 5.1709 0
M  V30 150 H 12.4928 -1.02498 5.64063 0
M  V30 151 H 10.8898 -0.316424 5.99265 0
M  V30 152 H 11.9598 0.480459 4.82514 0
M  V30 153 N 13.3029 -1.57598 0.00835791 0
M  V30 154 C 14.7139 -1.7892 -0.53333 0
M  V30 155 C 15.0649 -0.916609 -1.73473 0
M  V30 156 O 14.1899 -0.121336 -2.1606 0
M  V30 157 C 14.7849 -3.24488 -0.974313 0
M  V30 158 C 13.3439 -3.46878 -1.46125 0
M  V30 159 C 12.4909 -2.74157 -0.416302 0
M  V30 160 H 15.4419 -1.56958 0.234495 0
M  V30 161 H 15.4629 -3.3306 -1.83988 0
M  V30 162 H 14.9749 -3.87972 -0.099718 0
M  V30 163 H 13.0759 -2.8862 -2.35646 0
M  V30 164 H 13.1889 -4.55572 -1.48295 0
M  V30 165 H 11.5529 -2.39022 -0.87981 0
M  V30 166 H 12.3359 -3.40345 0.44947 0
M  V30 167 N 14.781 0.264519 -1.55364 0
M  V30 168 C 15.744 1.31046 -1.88042 0
M  V30 169 C 16.744 1.41943 -0.755569 0
M  V30 170 O 17.934 1.40947 -1.02369 0
M  V30 171 C 15.066 2.69067 -2.09323 0
M  V30 172 H 16.259 1.03297 -2.81549 0
M  V30 173 H 13.812 0.502989 -1.47986 0
M  V30 174 H 14.547 3.01982 -1.18226 0
M  V30 175 H 14.332 2.62542 -2.91229 0
M  V30 176 H 15.822 3.44623 -2.35848 0
M  V30 177 N 16.2591 1.48442 0.529413 0
M  V30 178 C 17.6751 1.34575 0.858004 0
M  V30 179 C 17.8751 0.3572 1.98309 0
M  V30 180 O 16.9311 -0.221379 2.51528 0
M  V30 181 C 18.2441 2.74617 1.22499 0
M  V30 182 C 19.7921 2.83109 1.33484 0
M  V30 183 C 20.2671 4.23854 1.73526 0
M  V30 184 N 21.7581 4.2653 1.80628 0
M  V30 185 C 22.4931 5.32372 2.12997 0
M  V30 186 N 21.9891 6.48491 2.43786 0
M  V30 187 N 23.7821 5.19766 2.14008 0
M  V30 188 H 15.9331 2.1133 -0.212925 0
M  V30 189 H 18.1961 0.947439 -0.0326199 0
M  V30 190 H 17.9021 3.4852 0.471905 0
M  V30 191 H 17.7761 3.08177 2.17501 0
M  V30 192 H 20.1631 2.09462 2.0787 0
M  V30 193 H 20.2441 2.53168 0.366027 0
M  V30 194 H 19.8881 4.98018 0.997013 0
M  V30 195 H 19.8181 4.5124 2.71459 0
M  V30 196 H 22.3091 3.42772 1.59108 0
M  V30 197 H 22.6221 7.24993 2.67592 0
M  V30 198 H 20.9671 6.51765 2.41304 0
M  V30 199 H 24.1581 4.28066 1.89412 0
M  V30 200 H 24.3311 6.02354 2.38902 0
M  V30 201 N 17.7372 -0.778329 1.37039 0
M  V30 202 C 18.9832 -1.53817 1.33086 0
M  V30 203 C 19.3382 -1.92208 -0.0860346 0
M  V30 204 O 18.6312 -1.60713 -1.04316 0
M  V30 205 C 18.8252 -2.81845 2.19768 0
M  V30 206 C 18.6542 -2.55967 3.69744 0
M  V30 207 C 17.4242 -2.50428 4.38878 0
M  V30 208 C 19.6222 -2.2441 4.62758 0
M  V30 209 N 17.6042 -2.16564 5.74433 0
M  V30 210 C 18.9752 -2.0063 5.86641 0
M  V30 211 C 21.0302 -2.1051 4.5121 0
M  V30 212 C 19.7332 -1.64354 7.00272 0
M  V30 213 C 21.7592 -1.75634 5.64718 0
M  V30 214 C 21.1212 -1.52709 6.87648 0
M  V30 215 H 17.2202 -0.563434 0.542279 0
M  V30 216 H 19.8042 -0.908617 1.72198 0
M  V30 217 H 17.9752 -3.42649 1.82883 0
M  V30 218 H 19.7072 -3.47682 2.07122 0
M  V30 219 H 16.4622 -2.66056 3.91805 0
M  V30 220 H 16.8862 -2.02348 6.46053 0
M  V30 221 H 21.5282 -2.26919 3.56746 0
M  V30 222 H 19.2462 -1.46683 7.94676 0
M  V30 223 H 22.8322 -1.65546 5.57751 0
M  V30 224 H 21.7122 -1.2612 7.73992 0
M  V30 225 N 19.2153 -1.21501 -1.00376 0
M  V30 226 C 20.4403 -1.05977 -1.78279 0
M  V30 227 C 20.8653 0.385994 -1.84097 0
M  V30 228 O 20.2233 1.27849 -1.28547 0
M  V30 229 C 20.2713 -1.66302 -3.19963 0
M  V30 230 O 19.3753 -0.909333 -4.0225 0
M  V30 231 H 18.7163 -0.372906 -0.549397 0
M  V30 232 H 21.2463 -1.6107 -1.26165 0
M  V30 233 H 21.2563 -1.70574 -3.70632 0
M  V30 234 H 19.9313 -2.71515 -3.15043 0
M  V30 235 H 18.5083 -0.941795 -3.60811 0
M  V30 236 N 20.6934 1.19889 -1.02296 0
M  V30 237 C 21.9184 1.9393 -0.735237 0
M  V30 238 C 22.3434 1.74639 0.698782 0
M  V30 239 O 21.7014 1.04481 1.48167 0
M  V30 240 C 21.7494 3.43916 -1.08417 0
M  V30 241 O 20.8534 4.11917 -0.199446 0
M  V30 242 H 20.1944 0.605645 -0.272196 0
M  V30 243 H 22.7244 1.52137 -1.36804 0
M  V30 244 H 22.7344 3.9456 -1.03856 0
M  V30 245 H 21.4094 3.5728 -2.12894 0
M  V30 246 H 19.9864 3.71666 -0.303136 0
M  V30 247 N 22.1715 0.800033 1.35784 0
M  V30 248 C 23.1345 0.211565 2.28221 0
M  V30 249 C 24.1345 -0.59728 1.49296 0
M  V30 250 O 25.3245 -0.416721 1.69142 0
M  V30 251 C 22.4565 -0.705846 3.33513 0
M  V30 252 H 23.6495 1.02677 2.81776 0
M  V30 253 H 21.2025 0.570211 1.45528 0
M  V30 254 H 21.9375 -1.54498 2.85133 0
M  V30 255 H 21.7225 -0.127655 3.91892 0
M  V30 256 H 23.2125 -1.11211 4.02519 0
M  V30 257 N 23.6496 -1.47581 0.552962 0
M  V30 258 C 24.8796 -2.06575 0.0320091 0
M  V30 259 C 25.2876 -1.4067 -1.26525 0
M  V30 260 O 24.6306 -0.495808 -1.76883 0
M  V30 261 C 24.6926 -3.58705 -0.238913 0
M  V30 262 C 24.3566 -4.46625 0.968272 0
M  V30 263 C 25.3536 -4.85 1.87274 0
M  V30 264 C 23.0386 -4.88201 1.18175 0
M  V30 265 C 25.0326 -5.63745 2.9744 0
M  V30 266 C 22.7196 -5.66712 2.28651 0
M  V30 267 C 23.7176 -6.04394 3.18114 0
M  V30 268 O 23.4056 -6.81324 4.26676 0
M  V30 269 H 23.1376 -0.674763 0.0408689 0
M  V30 270 H 25.6916 -1.90634 0.764719 0
M  V30 271 H 23.9216 -3.72844 -1.02588 0
M  V30 272 H 25.6106 -3.99735 -0.704731 0
M  V30 273 H 26.3766 -4.53482 1.71984 0
M  V30 274 H 22.2556 -4.58339 0.494593 0
M  V30 275 H 25.7996 -5.93077 3.67296 0
M  V30 276 H 21.6966 -5.97642 2.43915 0
M  V30 277 H 22.4646 -6.99712 4.24671 0
M  V30 278 N 25.1277 -0.289203 -1.54924 0
M  V30 279 C 26.3737 0.323998 -2.00195 0
M  V30 280 C 26.7067 1.54441 -1.17735 0
M  V30 281 O 25.9817 1.92875 -0.250878 0
M  V30 282 C 26.2647 0.692276 -3.53383 0
M  V30 283 C 26.1177 -0.536457 -4.46589 0
M  V30 284 C 27.4367 1.52335 -4.12895 0
M  V30 285 H 24.5557 0.116289 -0.727768 0
M  V30 286 H 27.1977 -0.398954 -1.85764 0
M  V30 287 H 25.3477 1.30822 -3.65811 0
M  V30 288 H 27.0197 -1.17499 -4.46085 0
M  V30 289 H 25.2627 -1.17192 -4.1767 0
M  V30 290 H 25.9337 -0.234806 -5.515 0
M  V30 291 H 28.4097 1.00302 -4.0383 0
M  V30 292 H 27.2857 1.74982 -5.20262 0
M  V30 293 H 27.5467 2.50886 -3.64018 0
M  V30 294 N 26.6058 1.57591 -0.0167156 0
M  V30 295 C 27.8308 1.9598 0.67872 0
M  V30 296 C 28.2558 0.892546 1.65575 0
M  V30 297 O 27.6138 -0.147772 1.80697 0
M  V30 298 C 27.6618 3.33468 1.37227 0
M  V30 299 O 26.7658 3.28954 2.48722 0
M  V30 300 H 26.1068 0.639339 0.17928 0
M  V30 301 H 28.6368 2.04463 -0.0748802 0
M  V30 302 H 28.6468 3.69417 1.7319 0
M  V30 303 H 27.3218 4.10694 0.656007 0
M  V30 304 H 25.8988 3.04705 2.14963 0
M  V30 305 N 28.0839 -0.256276 1.55502 0
M  V30 306 C 29.3139 -1.00196 1.80677 0
M  V30 307 C 29.7219 -1.79805 0.588797 0
M  V30 308 O 29.0649 -1.78055 -0.451883 0
M  V30 309 C 29.1269 -1.99515 2.99055 0
M  V30 310 C 28.7909 -1.38688 4.35448 0
M  V30 311 C 29.7879 -0.794079 5.138 0
M  V30 312 C 27.4729 -1.40906 4.82132 0
M  V30 313 C 29.4669 -0.231562 6.36979 0
M  V30 314 C 27.1539 -0.842684 6.05262 0
M  V30 315 C 28.1519 -0.254953 6.82524 0
M  V30 316 O 27.8399 0.3027 8.0333 0
M  V30 317 H 27.5719 -0.300919 0.60533 0
M  V30 318 H 30.1259 -0.287307 2.03381 0
M  V30 319 H 28.3559 -2.74785 2.72084 0
M  V30 320 H 30.0449 -2.60349 3.11405 0
M  V30 321 H 30.8109 -0.769519 4.78856 0
M  V30 322 H 26.6899 -1.85591 4.21992 0
M  V30 323 H 30.2339 0.227816 6.97228 0
M  V30 324 H 26.1309 -0.86454 6.39684 0
M  V30 325 H 26.8989 0.193662 8.18271 0
M  V30 326 N 29.562 -1.4872 -0.521534 0
M  V30 327 C 30.808 -1.58378 -1.27624 0
M  V30 328 C 31.163 -0.258028 -1.90662 0
M  V30 329 O 30.456 0.739917 -1.76736 0
M  V30 330 C 30.65 -2.66497 -2.38148 0
M  V30 331 C 30.479 -4.09456 -1.85945 0
M  V30 332 C 29.249 -4.76495 -1.68168 0
M  V30 333 C 31.447 -4.95353 -1.3831 0
M  V30 334 N 29.429 -6.0384 -1.1068 0
M  V30 335 C 30.8 -6.13012 -0.928238 0
M  V30 336 C 32.855 -4.81512 -1.26692 0
M  V30 337 C 31.558 -7.18354 -0.368701 0
M  V30 338 C 33.584 -5.86984 -0.721368 0
M  V30 339 C 32.946 -7.03857 -0.276623 0
M  V30 340 H 29.045 -0.634045 -0.457724 0
M  V30 341 H 31.629 -1.85639 -0.587049 0
M  V30 342 H 29.8 -2.41043 -3.04553 0
M  V30 343 H 31.532 -2.65791 -3.05184 0
M  V30 344 H 28.287 -4.32962 -1.91939 0
M  V30 345 H 28.711 -6.71778 -0.839217 0
M  V30 346 H 33.353 -3.91487 -1.5968 0
M  V30 347 H 31.071 -8.08096 -0.0265122 0
M  V30 348 H 34.657 -5.78329 -0.634531 0
M  V30 349 H 33.537 -7.84077 0.138947 0
M  V30 350 N 31.0401 0.771051 -1.3745 0
M  V30 351 C 32.2651 1.56529 -1.36065 0
M  V30 352 C 32.6901 1.88029 0.0515859 0
M  V30 353 O 32.0481 1.49282 1.02882 0
M  V30 354 C 32.0961 2.85187 -2.20683 0
M  V30 355 O 31.2001 3.79593 -1.61193 0
M  V30 356 H 30.5411 0.47411 -0.464883 0
M  V30 357 H 33.0711 0.954269 -1.80983 0
M  V30 358 H 33.0811 3.34283 -2.33921 0
M  V30 359 H 31.7561 2.61588 -3.23334 0
M  V30 360 H 30.3331 3.38239 -1.56999 0
M  V30 361 N 32.5182 1.22032 0.997298 0
M  V30 362 C 33.9292 1.0397 1.55071 0
M  V30 363 C 34.2802 -0.398192 1.92117 0
M  V30 364 O 33.4052 -1.28254 1.74298 0
M  V30 365 C 34.0002 1.88109 2.81781 0
M  V30 366 C 32.5592 1.74357 3.33581 0
M  V30 367 C 31.7062 1.84846 2.06706 0
M  V30 368 H 34.6572 1.35941 0.818883 0
M  V30 369 H 34.6782 1.39589 3.53971 0
M  V30 370 H 34.1902 2.92754 2.54787 0
M  V30 371 H 32.2912 0.72427 3.65493 0
M  V30 372 H 32.4042 2.56772 4.04481 0
M  V30 373 H 30.7682 1.28238 2.20062 0
M  V30 374 H 31.5512 2.91014 1.82114 0
M  V30 375 N 33.9963 -1.19345 1.0293 0
M  V30 376 C 34.9293 -2.21347 0.555029 0
M  V30 377 C 35.9073 -1.57492 -0.404351 0
M  V30 378 O 37.0913 -1.85741 -0.321352 0
M  V30 379 C 34.2183 -3.38163 -0.19064 0
M  V30 380 C 33.2643 -4.20375 0.720236 0
M  V30 381 S 34.0973 -4.88371 2.19668 0
M  V30 382 C 35.2533 -6.08597 1.46153 0
M  V30 383 H 35.4863 -2.61235 1.41929 0
M  V30 384 H 33.0193 -1.29598 0.839272 0
M  V30 385 H 34.9773 -4.05871 -0.614724 0
M  V30 386 H 33.6383 -2.9671 -1.03063 0
M  V30 387 H 32.8313 -5.03793 0.14455 0
M  V30 388 H 32.4333 -3.57987 1.08266 0
M  V30 389 H 34.7253 -6.73354 0.748357 0
M  V30 390 H 35.6683 -6.7065 2.27233 0
M  V30 391 H 36.0763 -5.56297 0.958842 0
M  V30 392 N 35.4744 -0.807222 -1.35358 0
M  V30 393 C 36.4044 -0.232509 -2.3234 0
M  V30 394 C 37.3854 0.642386 -1.57504 0
M  V30 395 O 38.5704 0.572526 -1.85569 0
M  V30 396 C 35.7004 0.619238 -3.41735 0
M  V30 397 C 34.6544 -0.157215 -4.27711 0
M  V30 398 C 33.9804 0.816273 -5.28433 0
M  V30 399 C 35.2804 -1.35656 -5.04376 0
M  V30 400 H 36.9744 -1.04276 -2.80654 0
M  V30 401 H 34.5204 -0.50288 -1.34934 0
M  V30 402 H 36.4734 1.03137 -4.08584 0
M  V30 403 H 35.1974 1.46239 -2.92031 0
M  V30 404 H 33.8564 -0.550525 -3.62443 0
M  V30 405 H 33.5044 1.65494 -4.74996 0
M  V30 406 H 33.2044 0.301067 -5.86828 0
M  V30 407 H 34.7284 1.22659 -5.98153 0
M  V30 408 H 36.1424 -1.01927 -5.64166 0
M  V30 409 H 34.5394 -1.8063 -5.7227 0
M  V30 410 H 35.6094 -2.14288 -4.34981 0
M  V30 411 N 36.9525 1.47285 -0.560781 0
M  V30 412 C 38.3635 1.86258 -0.128343 0
M  V30 413 C 38.7145 1.46699 1.30284 0
M  V30 414 O 37.8395 0.871698 1.98067 0
M  V30 415 C 38.4345 3.38044 -0.22614 0
M  V30 416 C 36.9935 3.76096 0.151283 0
M  V30 417 C 36.1405 2.71335 -0.572084 0
M  V30 418 H 39.0915 1.38752 -0.770297 0
M  V30 419 H 39.1125 3.76441 0.554322 0
M  V30 420 H 38.6245 3.66806 -1.26788 0
M  V30 421 H 36.7255 3.52951 1.19399 0
M  V30 422 H 36.8385 4.78641 -0.209765 0
M  V30 423 H 35.2025 2.54696 -0.0147653 0
M  V30 424 H 35.9855 3.02938 -1.61504 0
M  V30 425 N 38.4306 0.297415 1.54768 0
M  V30 426 C 39.7076 -0.365847 1.92148 0
M  V30 427 C 40.0876 -1.71975 1.22424 0
M  V30 428 O 39.4356 -2.25666 0.358739 0
M  V30 429 C 39.6456 -0.484056 3.45627 0
M  V30 430 C 40.9936 -0.756594 4.17805 0
M  V30 431 O 42.0176 -0.568007 3.51642 0
M  V30 432 O 40.8766 -1.11863 5.34929 0
M  V30 433 H 37.9706 -0.203919 0.801465 0
M  V30 434 H 40.5166 0.34521 1.66152 0
M  V30 435 H 39.2886 0.467865 3.88493 0
M  V30 436 H 38.9116 -1.24372 3.77647 0
M  V30 437 N 39.9087 -1.5758 0.0250728 0
M  V30 438 C 41.1857 -1.82917 -0.692873 0
M  V30 439 C 41.5657 -0.908137 -1.90568 0
M  V30 440 O 40.9137 0.0372298 -2.2847 0
M  V30 441 C 41.1237 -3.32034 -1.07492 0
M  V30 442 C 42.4717 -3.98406 -1.46826 0
M  V30 443 O 43.4957 -3.36505 -1.16801 0
M  V30 444 O 42.3547 -5.07497 -2.02754 0
M  V30 445 H 39.4487 -0.754079 -0.33955 0
M  V30 446 H 41.9947 -1.69619 0.0524456 0
M  V30 447 H 40.7667 -3.90728 -0.211552 0
M  V30 448 H 40.3897 -3.50424 -1.87854 0
M  V30 449 N 41.3868 0.248026 -1.55636 0
M  V30 450 C 42.3188 1.32993 -1.8667 0
M  V30 451 C 43.3318 1.44345 -0.752877 0
M  V30 452 O 44.5208 1.45715 -1.03098 0
M  V30 453 C 41.6208 2.70863 -2.03682 0
M  V30 454 C 40.7938 2.81792 -3.34532 0
M  V30 455 C 39.8528 4.005 -3.41301 0
M  V30 456 O 38.8788 3.9008 -4.14519 0
M  V30 457 N 40.0808 5.13618 -2.70512 0
M  V30 458 H 42.8458 1.06707 -2.8006 0
M  V30 459 H 40.4068 0.438129 -1.55859 0
M  V30 460 H 42.3988 3.48612 -2.05553 0
M  V30 461 H 40.9688 2.89862 -1.17041 0
M  V30 462 H 40.1888 1.90729 -3.44987 0
M  V30 463 H 41.4768 2.86043 -4.20781 0
M  V30 464 H 40.8748 5.24975 -2.10755 0
M  V30 465 H 39.4318 5.89505 -2.78077 0
M  V30 466 N 42.8649 1.48995 0.513639 0
M  V30 467 C 43.7949 1.67636 1.62544 0
M  V30 468 C 44.7759 0.525087 1.61793 0
M  V30 469 O 45.9609 0.759502 1.78732 0
M  V30 470 C 43.0909 1.73114 3.01079 0
M  V30 471 C 42.0449 2.87905 3.16693 0
M  V30 472 C 41.3709 2.78486 4.56453 0
M  V30 473 C 42.6709 4.29005 2.97913 0
M  V30 474 H 44.3649 2.60716 1.47198 0
M  V30 475 H 41.9109 1.25465 0.706714 0
M  V30 476 H 43.8639 1.84742 3.78746 0
M  V30 477 H 42.5879 0.766241 3.17484 0
M  V30 478 H 41.2469 2.75859 2.41448 0
M  V30 479 H 40.8949 1.7993 4.69717 0
M  V30 480 H 40.5949 3.55523 4.67843 0
M  V30 481 H 42.1189 2.92104 5.36197 0
M  V30 482 H 43.5329 4.41798 3.65359 0
M  V30 483 H 41.9299 5.07166 3.20785 0
M  V30 484 H 42.9999 4.44329 1.94165 0
M  V30 485 N 44.343 -0.763751 1.37857 0
M  V30 486 C 45.571 -1.55293 1.36718 0
M  V30 487 C 45.986 -1.88745 -0.0455434 0
M  V30 488 O 45.343 -1.52039 -1.00947 0
M  V30 489 C 45.394 -2.85831 2.2132 0
M  V30 490 O 45.115 -2.5381 3.57089 0
M  V30 491 C 46.616 -3.80023 2.28249 0
M  V30 492 H 43.836 -0.480841 0.468009 0
M  V30 493 H 46.38 -0.946009 1.81303 0
M  V30 494 H 44.535 -3.42926 1.80223 0
M  V30 495 H 44.949 -3.37459 4.01524 0
M  V30 496 H 46.423 -4.68599 2.91752 0
M  V30 497 H 46.9 -4.1973 1.2932 0
M  V30 498 H 47.506 -3.28855 2.69693 0
M  V30 499 N 45.8211 -1.22559 -0.990812 0
M  V30 500 C 47.0461 -1.07862 -1.77145 0
M  V30 501 C 47.4711 0.366447 -1.84496 0
M  V30 502 O 46.8291 1.26478 -1.29896 0
M  V30 503 C 46.8771 -1.69686 -3.18181 0
M  V30 504 O 45.9811 -0.951946 -4.01263 0
M  V30 505 H 45.3221 -0.378712 -0.545411 0
M  V30 506 H 47.8521 -1.62399 -1.2445 0
M  V30 507 H 47.8621 -1.74496 -3.68802 0
M  V30 508 H 46.5371 -2.74841 -3.12146 0
M  V30 509 H 45.1141 -0.980011 -3.59792 0
M  V30 510 N 47.2992 1.18797 -1.03562 0
M  V30 511 C 48.5472 1.88278 -0.734569 0
M  V30 512 C 48.8682 1.8043 0.739586 0
M  V30 513 O 48.1382 1.21925 1.53333 0
M  V30 514 H 46.7182 0.696991 -0.268725 0
M  V30 515 H 49.3802 1.44192 -1.31129 0
M  V30 516 H 48.4762 2.94443 -1.03489 0
M  V30 517 N 48.7773 0.814389 1.34928 0
M  V30 518 C 50.0073 0.41054 2.0248 0
M  V30 519 C 50.4153 -0.985625 1.61499 0
M  V30 520 O 49.7583 -1.64781 0.811976 0
M  V30 521 C 49.8203 0.423384 3.56998 0
M  V30 522 C 49.4843 1.77141 4.21272 0
M  V30 523 C 50.4813 2.73093 4.42398 0
M  V30 524 C 48.1663 2.05755 4.58225 0
M  V30 525 C 50.1603 3.95838 4.9959 0
M  V30 526 C 47.8473 3.28762 5.1513 0
M  V30 527 C 48.8453 4.23621 5.35755 0
M  V30 528 O 48.5333 5.44456 5.91458 0
M  V30 529 H 48.2653 0.163997 0.655806 0
M  V30 530 H 50.8193 1.10155 1.73364 0
M  V30 531 H 49.0493 -0.324276 3.85338 0
M  V30 532 H 50.7383 0.0407683 4.0588 0
M  V30 533 H 51.5043 2.5228 4.14222 0
M  V30 534 H 47.3833 1.32727 4.4148 0
M  V30 535 H 50.9273 4.69891 5.15605 0
M  V30 536 H 46.8243 3.49443 5.42734 0
M  V30 537 H 47.5923 5.4586 6.09901 0
M  V30 538 N 50.2554 -1.46986 0.568584 0
M  V30 539 C 51.4954 -2.04336 0.0512999 0
M  V30 540 C 51.8594 -1.43214 -1.27881 0
M  V30 541 O 53.0604 -1.91679 -1.88448 0
M  V30 542 C 51.3314 -3.57389 -0.0282328 0
M  V30 543 S 52.8904 -4.36056 -0.489991 0
M  V30 544 H 49.7084 -0.71034 0.0306349 0
M  V30 545 H 52.3104 -1.80212 0.757891 0
M  V30 546 H 51.0144 -3.99395 0.944011 0
M  V30 547 H 50.5454 -3.86028 -0.75803 0
M  V30 548 H 52.5604 -4.6441 -1.74752 0
M  V30 549 N 51.7335 -0.305618 -1.54608 0
M  V30 550 C 52.9795 0.295595 -2.01241 0
M  V30 551 C 53.3345 1.51171 -1.19018 0
M  V30 552 O 52.6275 1.89832 -0.259684 0
M  V30 553 C 52.8215 0.698983 -3.50498 0
M  V30 554 C 52.6505 -0.476491 -4.47168 0
M  V30 555 C 51.4205 -0.969963 -4.95903 0
M  V30 556 C 53.6185 -1.32294 -4.96994 0
M  V30 557 N 51.6005 -2.11172 -5.76437 0
M  V30 558 C 52.9715 -2.31212 -5.75275 0
M  V30 559 C 55.0265 -1.35278 -4.7917 0
M  V30 560 C 53.7295 -3.32896 -6.37631 0
M  V30 561 C 55.7555 -2.35823 -5.42348 0
M  V30 562 C 55.1175 -3.33469 -6.20466 0
M  V30 563 H 51.2165 0.0724992 -0.778632 0
M  V30 564 H 53.8005 -0.436583 -1.89742 0
M  V30 565 H 51.9715 1.40032 -3.62278 0
M  V30 566 H 53.7035 1.28013 -3.8392 0
M  V30 567 H 50.4585 -0.544178 -4.70463 0
M  V30 568 H 50.8825 -2.68714 -6.21387 0
M  V30 569 H 55.5245 -0.61157 -4.18354 0
M  V30 570 H 53.2425 -4.07933 -6.97579 0
M  V30 571 H 56.8285 -2.38911 -5.30484 0
M  V30 572 H 55.7085 -4.09996 -6.68485 0
M  V30 573 N 53.2116 1.57565 -0.0334293 0
M  V30 574 C 54.4586 1.91978 0.644272 0
M  V30 575 C 54.7866 0.910231 1.71887 0
M  V30 576 O 54.0416 -0.0801961 1.95536 0
M  V30 577 C 54.3406 3.33112 1.29504 0
M  V30 578 C 54.0066 4.49537 0.350388 0
M  V30 579 C 52.6686 4.81115 0.0903974 0
M  V30 580 C 55.0206 5.20347 -0.298032 0
M  V30 581 C 52.3486 5.8086 -0.825746 0
M  V30 582 C 54.7006 6.2107 -1.20226 0
M  V30 583 C 53.3646 6.51088 -1.4711 0
M  V30 584 H 52.6346 0.702496 0.235756 0
M  V30 585 H 55.2816 1.91259 -0.0961176 0
M  V30 586 H 53.5866 3.30113 2.11028 0
M  V30 587 H 55.2836 3.57011 1.82603 0
M  V30 588 H 51.8736 4.24883 0.563205 0
M  V30 589 H 56.0576 4.96178 -0.110234 0
M  V30 590 H 51.3136 6.02461 -1.04169 0
M  V30 591 H 55.4876 6.75057 -1.71086 0
M  V30 592 H 53.1146 7.28193 -2.18264 0
M  V30 593 N 54.6897 -0.239769 1.55765 0
M  V30 594 C 55.9667 -0.990056 1.68693 0
M  V30 595 C 56.3467 -2.03107 0.5754 0
M  V30 596 O 55.6947 -2.24604 -0.42017 0
M  V30 597 C 55.9047 -1.61696 3.09282 0
M  V30 598 C 57.2527 -2.11613 3.6811 0
M  V30 599 O 58.2767 -1.71624 3.12127 0
M  V30 600 O 57.1357 -2.85057 4.66267 0
M  V30 601 H 54.2297 -0.461299 0.686391 0
M  V30 602 H 56.7757 -0.232991 1.68093 0
M  V30 603 H 55.5477 -0.864357 3.81634 0
M  V30 604 H 55.1707 -2.44005 3.13923 0
M  V30 605 N 56.1678 -1.49265 -0.50573 0
M  V30 606 C 57.3978 -1.61979 -1.28243 0
M  V30 607 C 57.8058 -0.288576 -1.86986 0
M  V30 608 O 57.1488 0.735408 -1.68337 0
M  V30 609 C 57.2108 -2.62632 -2.45489 0
M  V30 610 C 56.8748 -4.071 -2.07651 0
M  V30 611 C 57.8718 -4.94049 -1.61901 0
M  V30 612 C 55.5568 -4.52801 -2.17431 0
M  V30 613 C 57.5508 -6.24736 -1.26428 0
M  V30 614 C 55.2378 -5.83503 -1.8157 0
M  V30 615 C 56.2358 -6.69294 -1.36142 0
M  V30 616 O 55.9238 -7.9756 -1.00764 0
M  V30 617 H 55.6558 -0.54834 -0.395347 0
M  V30 618 H 58.2098 -1.96002 -0.614204 0
M  V30 619 H 56.4398 -2.2378 -3.15372 0
M  V30 620 H 58.1288 -2.64925 -3.07522 0
M  V30 621 H 58.8948 -4.5997 -1.53795 0
M  V30 622 H 54.7738 -3.86196 -2.51742 0
M  V30 623 H 58.3178 -6.91652 -0.908992 0
M  V30 624 H 54.2148 -6.17112 -1.89324 0
M  V30 625 H 54.9828 -8.10529 -1.13952 0
M  V30 626 N 57.6459 0.756429 -1.3826 0
M  V30 627 C 58.5559 1.9009 -1.37488 0
M  V30 628 C 59.5719 1.71855 -0.272366 0
M  V30 629 O 60.7479 1.94827 -0.510318 0
M  V30 630 C 57.8129 3.25421 -1.19592 0
M  V30 631 C 56.8739 3.56202 -2.39622 0
M  V30 632 C 56.1069 4.85075 -2.2257 0
M  V30 633 O 56.3299 5.57246 -1.21793 0
M  V30 634 O 55.2639 5.15269 -3.11098 0
M  V30 635 H 59.0899 1.93695 -2.33914 0
M  V30 636 H 56.6749 0.901313 -1.1915 0
M  V30 637 H 58.5569 4.06337 -1.11661 0
M  V30 638 H 57.2319 3.22634 -0.262486 0
M  V30 639 H 56.1389 2.75458 -2.53128 0
M  V30 640 H 57.4719 3.63747 -3.31586 0
M  V30 641 N 59.124 1.23083 0.984299 0
M  V30 642 C 60.54 0.992637 1.24975 0
M  V30 643 C 60.74 -0.308618 1.99123 0
M  V30 644 O 59.796 -1.02905 2.30579 0
M  V30 645 C 61.109 2.19698 2.05312 0
M  V30 646 C 62.657 2.24147 2.18465 0
M  V30 647 C 63.132 3.44157 3.02192 0
M  V30 648 N 64.623 3.44372 3.09777 0
M  V30 649 C 65.358 4.33886 3.74874 0
M  V30 650 N 64.854 5.3363 4.41827 0
M  V30 651 N 66.647 4.21639 3.71721 0
M  V30 652 H 58.798 2.06731 0.487453 0
M  V30 653 H 61.061 0.906339 0.277944 0
M  V30 654 H 60.767 3.1411 1.58201 0
M  V30 655 H 60.641 2.20465 3.06064 0
M  V30 656 H 63.028 1.30277 2.64786 0
M  V30 657 H 63.109 2.27415 1.17115 0
M  V30 658 H 62.753 4.38332 2.56568 0
M  V30 659 H 62.683 3.3813 4.03702 0
M  V30 660 H 65.174 2.72201 2.62135 0
M  V30 661 H 65.487 5.98196 4.89266 0
M  V30 662 H 63.832 5.37534 4.40548 0
M  V30 663 H 67.023 3.42962 3.18582 0
M  V30 664 H 67.196 4.91604 4.22173 0
M  V30 665 N 60.6021 -1.18246 1.0419 0
M  V30 666 C 61.8791 -1.84121 0.660208 0
M  V30 667 C 62.2591 -1.92778 -0.860221 0
M  V30 668 O 61.6071 -1.45464 -1.76217 0
M  V30 669 C 61.8171 -3.22355 1.33747 0
M  V30 670 C 63.1651 -3.98376 1.46906 0
M  V30 671 O 64.1891 -3.31799 1.29568 0
M  V30 672 O 63.0481 -5.17665 1.75171 0
M  V30 673 H 60.1421 -0.794036 0.231161 0
M  V30 674 H 62.6881 -1.25628 1.14087 0
M  V30 675 H 61.4601 -3.10964 2.37522 0
M  V30 676 H 61.0831 -3.88506 0.845515 0
M  V30 677 N 62.0802 -0.821533 -1.34494 0
M  V30 678 C 63.3292 -0.405355 -1.97585 0
M  V30 679 C 63.6422 1.03677 -1.65863 0
M  V30 680 O 64.8482 1.55679 -2.22433 0
M  V30 681 C 63.3042 -0.673861 -3.53535 0
M  V30 682 C 62.9122 -2.12951 -3.94152 0
M  V30 683 C 64.6562 -0.32378 -4.23263 0
M  V30 684 C 62.5632 -2.34298 -5.43009 0
M  V30 685 H 61.4932 -0.147836 -0.739365 0
M  V30 686 H 64.1442 -1.00769 -1.53355 0
M  V30 687 H 62.5262 -0.00137554 -3.96 0
M  V30 688 H 63.7002 -2.84104 -3.62797 0
M  V30 689 H 62.0152 -2.44089 -3.37356 0
M  V30 690 H 64.6122 -0.461126 -5.32708 0
M  V30 691 H 64.9552 0.731586 -4.09821 0
M  V30 692 H 65.4882 -0.950786 -3.8627 0
M  V30 693 H 62.2272 -3.38335 -5.61435 0
M  V30 694 H 61.7472 -1.67687 -5.75883 0
M  V30 695 H 63.4262 -2.16588 -6.09671 0
M  V30 696 N 63.5583 1.46682 -0.576371 0
M  V30 697 C 64.7983 2.04306 -0.0621356 0
M  V30 698 C 65.1623 1.4389 1.2712 0
M  V30 699 O 66.3633 1.92675 1.87429 0
M  V30 700 C 64.6343 3.57399 0.00927922 0
M  V30 701 S 66.1933 4.36309 0.466859 0
M  V30 702 H 63.0113 0.710167 -0.0344016 0
M  V30 703 H 65.6133 1.79807 -0.767437 0
M  V30 704 H 64.3173 3.98889 -0.965178 0
M  V30 705 H 63.8483 3.86424 0.737547 0
M  V30 706 H 65.8633 4.6533 1.72287 0
M  V30 707 N 65.0364 0.313813 1.54444 0
M  V30 708 C 66.4524 -0.0391619 1.59552 0
M  V30 709 C 66.6524 -1.51322 1.33056 0
M  V30 710 O 65.7084 -2.26782 1.11022 0
M  V30 711 C 67.0214 0.370302 2.98411 0
M  V30 712 C 68.5694 0.320139 3.11358 0
M  V30 713 C 69.0444 0.704617 4.52547 0
M  V30 714 N 70.5354 0.657645 4.58508 0
M  V30 715 C 71.2704 0.927453 5.6585 0
M  V30 716 N 70.7664 1.26389 6.81174 0
M  V30 717 N 72.5594 0.853662 5.5558 0
M  V30 718 H 64.7104 1.27433 1.69925 0
M  V30 719 H 66.9734 0.517511 0.794284 0
M  V30 720 H 66.6794 1.39694 3.22767 0
M  V30 721 H 66.5534 -0.269619 3.76235 0
M  V30 722 H 68.9404 -0.697275 2.86744 0
M  V30 723 H 69.0214 0.99486 2.35661 0
M  V30 724 H 68.6654 1.7199 4.77893 0
M  V30 725 H 68.5954 0.00768843 5.26599 0
M  V30 726 H 71.0864 0.409067 3.75679 0
M  V30 727 H 71.3994 1.4554 7.58972 0
M  V30 728 H 69.7444 1.30206 6.82694 0
M  V30 729 H 72.9354 0.590383 4.64362 0
M  V30 730 H 73.1084 1.0673 6.3915 0
M  V30 731 N 66.5145 -1.57545 0.0417849 0
M  V30 732 C 67.7635 -1.91494 -0.633492 0
M  V30 733 C 68.0765 -0.921084 -1.72556 0
M  V30 734 O 69.2825 -1.15228 -2.45835 0
M  V30 735 C 67.7385 -3.40072 -1.17808 0
M  V30 736 C 67.3465 -4.47843 -0.118633 0
M  V30 737 C 69.0905 -3.8307 -1.82915 0
M  V30 738 C 66.9975 -5.87529 -0.675578 0
M  V30 739 H 65.9275 -0.714653 -0.24039 0
M  V30 740 H 68.5785 -1.83175 0.109148 0
M  V30 741 H 66.9605 -3.43364 -1.97274 0
M  V30 742 H 68.1345 -4.56128 0.654494 0
M  V30 743 H 66.4495 -4.14128 0.434414 0
M  V30 744 H 69.0465 -4.84794 -2.25563 0
M  V30 745 H 69.3895 -3.1881 -2.67705 0
M  V30 746 H 69.9225 -3.82255 -1.10119 0
M  V30 747 H 66.6615 -6.55362 0.134475 0
M  V30 748 H 66.1815 -5.82824 -1.4169 0
M  V30 749 H 67.8605 -6.36491 -1.1614 0
M  V30 750 N 67.9926 0.231505 -1.5589 0
M  V30 751 C 69.2696 0.981096 -1.69215 0
M  V30 752 C 69.6496 2.02799 -0.586164 0
M  V30 753 O 68.9976 2.24823 0.408253 0
M  V30 754 C 69.2076 1.60054 -3.10135 0
M  V30 755 C 70.5556 2.09658 -3.69227 0
M  V30 756 O 71.5796 1.69967 -3.13033 0
M  V30 757 O 70.4386 2.8258 -4.67772 0
M  V30 758 H 67.5326 0.457653 -0.688827 0
M  V30 759 H 70.0786 0.224073 -1.68214 0
M  V30 760 H 68.8506 0.844105 -3.82087 0
M  V30 761 H 68.4736 2.42336 -3.15212 0
M  V30 762 N 69.4707 1.49531 0.497807 0
M  V30 763 C 70.7187 1.58865 1.24926 0
M  V30 764 C 71.0397 0.278721 1.92998 0
M  V30 765 O 70.3097 -0.702144 1.82885 0
M  V30 766 H 68.8897 0.585343 0.464094 0
M  V30 767 H 71.5517 1.86174 0.57666 0
M  V30 768 H 70.6477 2.38633 2.01149 0
M  V30 769 N 70.9488 -0.749086 1.3866 0
M  V30 770 C 71.8788 -1.8764 1.38973 0
M  V30 771 C 72.8598 -1.68178 0.255004 0
M  V30 772 O 74.0448 -1.88704 0.458754 0
M  V30 773 C 71.1748 -3.25222 1.21851 0
M  V30 774 C 70.1288 -3.59295 2.32575 0
M  V30 775 C 69.4548 -4.95663 2.00555 0
M  V30 776 C 70.7548 -3.63709 3.7485 0
M  V30 777 H 72.4488 -1.87635 2.3331 0
M  V30 778 H 69.9948 -0.901329 1.12303 0
M  V30 779 H 71.9478 -4.03746 1.20695 0
M  V30 780 H 70.6718 -3.25719 0.239775 0
M  V30 781 H 69.3308 -2.83093 2.32925 0
M  V30 782 H 68.9788 -4.92724 1.01154 0
M  V30 783 H 68.6788 -5.19429 2.74714 0
M  V30 784 H 70.2028 -5.7656 2.01024 0
M  V30 785 H 71.6168 -4.32338 3.76506 0
M  V30 786 H 70.0138 -3.98986 4.48252 0
M  V30 787 H 71.0838 -2.63834 4.06841 0
M  V30 788 N 72.4269 -1.23603 -0.977757 0
M  V30 789 C 73.6739 -1.06971 -1.71941 0
M  V30 790 C 74.0019 0.393009 -1.90488 0
M  V30 791 O 73.2569 1.30719 -1.4564 0
M  V30 792 C 73.5559 -1.7433 -3.11999 0
M  V30 793 C 73.2219 -3.24252 -3.13323 0
M  V30 794 C 71.8839 -3.65156 -3.13392 0
M  V30 795 C 74.2359 -4.20141 -3.08433 0
M  V30 796 C 71.5639 -5.00403 -3.0629 0
M  V30 797 C 73.9159 -5.55384 -3.02873 0
M  V30 798 C 72.5799 -5.95647 -3.01265 0
M  V30 799 H 71.8499 -0.391433 -0.629175 0
M  V30 800 H 74.4969 -1.53572 -1.14403 0
M  V30 801 H 72.8019 -1.20096 -3.7294 0
M  V30 802 H 74.4989 -1.58936 -3.68158 0
M  V30 803 H 71.0889 -2.91692 -3.14029 0
M  V30 804 H 75.2729 -3.89547 -3.07517 0
M  V30 805 H 70.5289 -5.3081 -3.03399 0
M  V30 806 H 74.7029 -6.29398 -2.98046 0
M  V30 807 H 72.3299 -7.0041 -2.95516 0
M  V30 808 N 73.905 1.17692 -1.04816 0
M  V30 809 C 74.853 2.23632 -0.63966 0
M  V30 810 C 75.847 1.6601 0.337219 0
M  V30 811 O 77.053 1.78844 0.203693 0
M  V30 812 H 73.428 0.727949 -0.188665 0
M  V30 813 H 75.399 2.55387 -1.54337 0
M  V30 814 C 74.148 3.4769 -0.0264051 0
M  V30 815 H 73.471 3.92331 -0.769164 0
M  V30 816 H 74.911 4.23418 0.222098 0
M  V30 817 C 73.37 3.13807 1.22584 0
M  V30 818 O 73.9 3.28236 2.31569 0
M  V30 819 N 72.106 2.68065 1.12202 0
M  V30 820 H 71.653 2.56525 0.235133 0
M  V30 821 H 71.611 2.45767 1.96076 0
M  V30 822 N 75.3831 0.828654 1.34056 0
M  V30 823 C 76.7941 0.477534 1.8049 0
M  V30 824 C 77.1451 -1.00258 1.6865 0
M  V30 825 O 76.2701 -1.78057 1.22982 0
M  V30 826 C 76.8651 0.860018 3.27703 0
M  V30 827 C 75.4241 0.561185 3.72193 0
M  V30 828 C 74.5711 1.07385 2.55663 0
M  V30 829 H 77.5221 1.0183 1.21722 0
M  V30 830 H 77.5431 0.166038 3.80138 0
M  V30 831 H 77.0551 1.93731 3.36288 0
M  V30 832 H 75.1561 -0.506465 3.69142 0
M  V30 833 H 75.2691 1.10926 4.66082 0
M  V30 834 H 73.6331 0.495149 2.49841 0
M  V30 835 H 74.4161 2.15771 2.67016 0
M  V30 836 N 76.8612 -1.46375 0.584142 0
M  V30 837 C 78.1072 -2.03248 0.0787103 0
M  V30 838 C 78.4622 -1.44737 -1.26763 0
M  V30 839 O 77.7552 -0.603625 -1.81843 0
M  V30 840 C 77.9492 -3.57373 -0.0439342 0
M  V30 841 C 77.7782 -4.30831 1.28897 0
M  V30 842 C 76.5482 -4.69683 1.8635 0
M  V30 843 C 78.7462 -4.64278 2.21248 0
M  V30 844 N 76.7282 -5.27898 3.13365 0
M  V30 845 C 78.0992 -5.23078 3.32851 0
M  V30 846 C 80.1542 -4.46209 2.20911 0
M  V30 847 C 78.8572 -5.65715 4.44251 0
M  V30 848 C 80.8832 -4.89864 3.31341 0
M  V30 849 C 80.2452 -5.48736 4.41665 0
M  V30 850 H 76.3442 -0.778714 0.0716144 0
M  V30 851 H 78.9282 -1.78509 0.777355 0
M  V30 852 H 77.0992 -3.81823 -0.711749 0
M  V30 853 H 78.8312 -4.00892 -0.553881 0
M  V30 854 H 75.5862 -4.52488 1.39826 0
M  V30 855 H 76.0102 -5.61525 3.78178 0
M  V30 856 H 80.6522 -4.00027 1.36888 0
M  V30 857 H 78.3702 -6.10875 5.29015 0
M  V30 858 H 81.9562 -4.77634 3.322 0
M  V30 859 H 80.8362 -5.81898 5.25704 0
M  V30 860 N 78.3393 -0.321999 -1.54275 0
M  V30 861 C 79.5643 0.285791 -2.05422 0
M  V30 862 C 79.9893 1.45124 -1.19669 0
M  V30 863 O 79.3473 1.80132 -0.205441 0
M  V30 864 C 79.3953 0.69956 -3.53749 0
M  V30 865 O 78.4993 1.8021 -3.70942 0
M  V30 866 H 77.8403 0.0518962 -0.661969 0
M  V30 867 H 80.3703 -0.469954 -1.9913 0
M  V30 868 H 80.3803 0.982649 -3.9599 0
M  V30 869 H 79.0553 -0.152864 -4.15619 0
M  V30 870 H 77.6323 1.51794 -3.40607 0
M  V30 871 N 79.8174 1.5752 -0.0501392 0
M  V30 872 C 80.7274 2.14952 0.939827 0
M  V30 873 C 81.7434 1.10706 1.34239 0
M  V30 874 O 82.9194 1.42869 1.41952 0
M  V30 875 C 79.9844 2.68232 2.19665 0
M  V30 876 C 79.0454 3.87272 1.85253 0
M  V30 877 C 78.2784 4.38002 3.04943 0
M  V30 878 O 78.5014 3.87811 4.18281 0
M  V30 879 O 77.4354 5.29602 2.86017 0
M  V30 880 H 81.2614 2.9986 0.481392 0
M  V30 881 H 78.8464 1.4841 0.171699 0
M  V30 882 H 80.7284 3.02475 2.93406 0
M  V30 883 H 79.4034 1.86395 2.64648 0
M  V30 884 H 78.3104 3.5792 1.0883 0
M  V30 885 H 79.6434 4.70336 1.4507 0
M  V30 886 N 81.2955 -0.223234 1.56011 0
M  V30 887 C 82.7115 -0.572856 1.48965 0
M  V30 888 C 82.9115 -1.87225 0.74492 0
M  V30 889 O 81.9675 -2.50899 0.283896 0
M  V30 890 C 83.2805 -0.653646 2.9351 0
M  V30 891 C 84.8285 -0.744386 3.0402 0
M  V30 892 C 85.3035 -0.856535 4.49919 0
M  V30 893 N 86.7945 -0.9208 4.53955 0
M  V30 894 C 87.5295 -1.02726 5.64123 0
M  V30 895 N 87.0255 -1.09777 6.84047 0
M  V30 896 N 88.8185 -1.06226 5.51971 0
M  V30 897 H 80.9695 0.629462 2.02858 0
M  V30 898 H 83.2325 0.220621 0.921971 0
M  V30 899 H 82.9385 0.231518 3.50937 0
M  V30 900 H 82.8125 -1.51781 3.45315 0
M  V30 901 H 85.1995 -1.61999 2.46658 0
M  V30 902 H 85.2805 0.14541 2.55386 0
M  V30 903 H 84.9245 0.0146069 5.07898 0
M  V30 904 H 84.8545 -1.76172 4.96257 0
M  V30 905 H 87.3455 -0.876694 3.6759 0
M  V30 906 H 87.6585 -1.17872 7.63758 0
M  V30 907 H 86.0035 -1.06693 6.86762 0
M  V30 908 H 89.1945 -1.00382 4.5721 0
M  V30 909 H 89.3675 -1.14177 6.37862 0
M  V30 910 N 82.7736 -1.49793 -0.48987 0
M  V30 911 C 84.0506 -1.50348 -1.25119 0
M  V30 912 C 84.4306 -0.237466 -2.0976 0
M  V30 913 O 83.7786 0.77981 -2.14782 0
M  V30 914 C 83.9886 -2.78872 -2.09837 0
M  V30 915 C 85.3366 -3.288 -2.68655 0
M  V30 916 O 86.3606 -2.80065 -2.20096 0
M  V30 917 O 85.2196 -4.13707 -3.57083 0
M  V30 918 H 82.3136 -0.602242 -0.566775 0
M  V30 919 H 84.8596 -1.62067 -0.503229 0
M  V30 920 H 83.6316 -3.62499 -1.47343 0
M  V30 921 H 83.2546 -2.70066 -2.91805 0
M  V30 922 N 84.2517 0.741722 -1.39055 0
M  V30 923 C 85.4797 1.53098 -1.39171 0
M  V30 924 C 85.8947 1.88794 0.0155099 0
M  V30 925 O 85.2517 1.53626 0.985159 0
M  V30 926 C 85.3027 2.82274 -2.2584 0
M  V30 927 O 85.0237 2.48097 -3.61081 0
M  V30 928 C 86.5247 3.76343 -2.34266 0
M  V30 929 H 83.7447 0.473335 -0.4756 0
M  V30 930 H 86.2887 0.917045 -1.82785 0
M  V30 931 H 84.4437 3.40015 -1.85656 0
M  V30 932 H 84.8577 3.31029 -4.06842 0
M  V30 933 H 86.3317 4.63898 -2.9917 0
M  V30 934 H 86.8087 4.17619 -1.35982 0
M  V30 935 H 87.4147 3.24523 -2.74891 0
M  V30 936 N 85.7298 1.2412 0.971189 0
M  V30 937 C 86.9778 1.07668 1.71032 0
M  V30 938 C 87.2988 -0.385797 1.91146 0
M  V30 939 O 86.5688 -1.27569 1.4867 0
M  V30 940 H 85.1488 0.395429 0.633755 0
M  V30 941 H 87.8108 1.55984 1.16855 0
M  V30 942 H 86.9068 1.57195 2.69622 0
M  V30 943 N 87.2079 -1.17134 1.05439 0
M  V30 944 C 88.4379 -1.91094 0.785274 0
M  V30 945 C 88.8459 -1.77198 -0.663142 0
M  V30 946 O 88.1889 -1.10835 -1.46497 0
M  V30 947 C 88.2509 -3.42594 1.08949 0
M  V30 948 C 87.9149 -3.80274 2.53458 0
M  V30 949 C 88.9119 -3.82912 3.51673 0
M  V30 950 C 86.5969 -4.11162 2.88532 0
M  V30 951 C 88.5909 -4.15913 4.83006 0
M  V30 952 C 86.2779 -4.43831 4.20068 0
M  V30 953 C 87.2759 -4.46185 5.17115 0
M  V30 954 O 86.9639 -4.78083 6.46291 0
M  V30 955 H 86.6959 -0.613073 0.284811 0
M  V30 956 H 89.2499 -1.49461 1.40893 0
M  V30 957 H 87.4799 -3.84534 0.408741 0
M  V30 958 H 89.1689 -3.97817 0.805991 0
M  V30 959 H 89.9349 -3.5917 3.25917 0
M  V30 960 H 85.8139 -4.085 2.13656 0
M  V30 961 H 89.3579 -4.17665 5.5875 0
M  V30 962 H 85.2549 -4.67037 4.45586 0
M  V30 963 H 86.0229 -4.9593 6.51149 0
M  V30 964 N 88.686 -0.835752 -1.33615 0
M  V30 965 C 90.102 -0.523139 -1.50783 0
M  V30 966 C 90.302 0.950171 -1.77691 0
M  V30 967 O 89.358 1.73411 -1.83534 0
M  V30 968 C 90.671 -1.39378 -2.66448 0
M  V30 969 C 92.219 -1.39223 -2.80332 0
M  V30 970 C 92.694 -2.24765 -3.99055 0
M  V30 971 N 94.185 -2.22458 -4.06284 0
M  V30 972 C 94.92 -2.85386 -4.97336 0
M  V30 973 N 94.416 -3.57354 -5.93523 0
M  V30 974 N 96.209 -2.74872 -4.90308 0
M  V30 975 H 88.36 -1.78952 -1.14411 0
M  V30 976 H 90.623 -0.763297 -0.562212 0
M  V30 977 H 90.329 -2.44061 -2.53234 0
M  V30 978 H 90.203 -1.0676 -3.61776 0
M  V30 979 H 92.59 -0.353136 -2.92979 0
M  V30 980 H 92.671 -1.75846 -1.85773 0
M  V30 981 H 92.315 -3.28732 -3.87167 0
M  V30 982 H 92.245 -1.85485 -4.92852 0
M  V30 983 H 94.736 -1.70119 -3.37443 0
M  V30 984 H 95.049 -4.02584 -6.59656 0
M  V30 985 H 93.394 -3.61461 -5.93608 0
M  V30 986 H 96.585 -2.18213 -4.14126 0
M  V30 987 H 96.758 -3.24199 -5.61069 0
M  V30 988 N 90.1641 1.46063 -0.591896 0
M  V30 989 C 91.0941 2.33172 0.123673 0
M  V30 990 C 92.0751 1.45897 0.87453 0
M  V30 991 O 93.2601 1.74698 0.848181 0
M  V30 992 C 90.3901 3.28336 1.13194 0
M  V30 993 C 89.3441 4.25124 0.495324 0
M  V30 994 C 88.6701 5.09863 1.61071 0
M  V30 995 C 89.9701 5.19143 -0.573425 0
M  V30 996 H 91.6641 2.93252 -0.603646 0
M  V30 997 H 89.2101 1.41014 -0.291741 0
M  V30 998 H 91.1631 3.88137 1.64097 0
M  V30 999 H 89.8871 2.66383 1.88965 0
M  V30 1000 H 88.5461 3.66599 0.00729452 0
M  V30 1001 H 88.1941 4.44288 2.35832 0
M  V30 1002 H 87.8941 5.75417 1.19035 0
M  V30 1003 H 89.4181 5.72529 2.12233 0
M  V30 1004 H 90.8321 5.73106 -0.1491 0
M  V30 1005 H 89.2291 5.93089 -0.914636 0
M  V30 1006 H 90.2991 4.62519 -1.45617 0
M  V30 1007 N 91.6422 0.330177 1.54103 0
M  V30 1008 C 92.8882 -0.263542 2.01685 0
M  V30 1009 C 93.2432 -1.49258 1.21408 0
M  V30 1010 O 92.5362 -1.89395 0.289852 0
M  V30 1011 C 92.7302 -0.643134 3.51566 0
M  V30 1012 C 92.5592 0.547571 4.46354 0
M  V30 1013 C 91.3292 1.04873 4.94297 0
M  V30 1014 C 93.5272 1.40184 4.94826 0
M  V30 1015 N 91.5092 2.20316 5.73005 0
M  V30 1016 C 92.8802 2.40335 5.71524 0
M  V30 1017 C 94.9352 1.42884 4.76958 0
M  V30 1018 C 93.6382 3.42998 6.32254 0
M  V30 1019 C 95.6642 2.44421 5.38528 0
M  V30 1020 C 95.0262 3.43298 6.15082 0
M  V30 1021 H 91.1252 -0.0601026 0.779687 0
M  V30 1022 H 93.7092 0.466714 1.89023 0
M  V30 1023 H 91.8802 -1.34251 3.6446 0
M  V30 1024 H 93.6122 -1.21889 3.85908 0
M  V30 1025 H 90.3672 0.618956 4.69538 0
M  V30 1026 H 90.7912 2.78565 6.17034 0
M  V30 1027 H 95.4332 0.678049 4.17328 0
M  V30 1028 H 93.1512 4.1898 6.91 0
M  V30 1029 H 96.7372 2.4732 5.26616 0
M  V30 1030 H 95.6172 4.20579 6.61878 0
M  V30 1031 N 93.1203 -1.57491 0.0584922 0
M  V30 1032 C 94.0533 -2.07533 -0.948969 0
M  V30 1033 C 95.0313 -0.977444 -1.29942 0
M  V30 1034 O 96.2153 -1.2499 -1.41102 0
M  V30 1035 C 93.3423 -2.52192 -2.2609 0
M  V30 1036 C 92.3883 -3.73287 -2.06298 0
M  V30 1037 S 93.2213 -5.18603 -1.33459 0
M  V30 1038 C 94.3773 -5.66583 -2.65959 0
M  V30 1039 H 94.6103 -2.92662 -0.523118 0
M  V30 1040 H 92.1433 -1.53631 -0.153954 0
M  V30 1041 H 94.1013 -2.78585 -3.01498 0
M  V30 1042 H 92.7623 -1.67356 -2.65802 0
M  V30 1043 H 91.9553 -4.0248 -3.03357 0
M  V30 1044 H 91.5573 -3.47199 -1.39029 0
M  V30 1045 H 93.8493 -5.72616 -3.62101 0
M  V30 1046 H 94.7923 -6.65684 -2.41393 0
M  V30 1047 H 95.2003 -4.94342 -2.72554 0
M  V30 1048 N 94.5984 0.214957 -1.56127 0
M  V30 1049 C 95.8234 0.95924 -1.83884 0
M  V30 1050 C 96.2484 1.7689 -0.639644 0
M  V30 1051 O 95.6064 1.76566 0.411601 0
M  V30 1052 C 95.6544 1.84723 -3.09693 0
M  V30 1053 O 94.7584 2.94346 -2.8885 0
M  V30 1054 H 94.0994 0.27125 -0.606069 0
M  V30 1055 H 96.6294 0.226276 -2.03345 0
M  V30 1056 H 96.6394 2.25576 -3.39969 0
M  V30 1057 H 95.3144 1.25218 -3.96602 0
M  V30 1058 H 93.8914 2.57391 -2.69823 0
M  V30 1059 N 96.0765 1.50051 0.48192 0
M  V30 1060 C 96.9865 1.7089 1.60728 0
M  V30 1061 C 98.0025 0.591788 1.63627 0
M  V30 1062 O 99.1785 0.868817 1.81696 0
M  V30 1063 C 96.2435 1.78855 2.97005 0
M  V30 1064 C 95.3045 3.02537 3.04581 0
M  V30 1065 C 94.5375 3.10112 4.34357 0
M  V30 1066 O 94.7605 2.24765 5.24249 0
M  V30 1067 O 93.6945 4.02747 4.47301 0
M  V30 1068 H 97.5205 2.66264 1.46072 0
M  V30 1069 H 95.1055 1.34018 0.660264 0
M  V30 1070 H 96.9875 1.86336 3.77964 0
M  V30 1071 H 95.6625 0.866628 3.11883 0
M  V30 1072 H 94.5695 3.00563 2.22739 0
M  V30 1073 H 95.9025 3.94272 2.94636 0
M  V30 1074 N 97.5546 -0.734337 1.39446 0
M  V30 1075 C 98.8006 -1.49613 1.36908 0
M  V30 1076 C 99.1336 -1.94169 -0.0347829 0
M  V30 1077 O 98.4086 -1.66833 -0.999847 0
M  V30 1078 C 98.6916 -2.73534 2.34203 0
M  V30 1079 C 98.5446 -2.34993 3.83534 0
M  V30 1080 C 99.8636 -3.75635 2.29317 0
M  V30 1081 H 96.9826 -0.542714 0.498629 0
M  V30 1082 H 99.6246 -0.839597 1.70443 0
M  V30 1083 H 97.7746 -3.29553 2.05736 0
M  V30 1084 H 99.4466 -1.84601 4.22753 0
M  V30 1085 H 97.6896 -1.67213 4.00278 0
M  V30 1086 H 98.3606 -3.23738 4.47099 0
M  V30 1087 H 100.837 -3.29203 2.54489 0
M  V30 1088 H 99.7126 -4.60008 2.99472 0
M  V30 1089 H 99.9736 -4.22603 1.29842 0
M  V30 1090 N 99.0327 -1.24633 -0.964593 0
M  V30 1091 C 100.281 -1.08573 -1.70459 0
M  V30 1092 C 100.602 0.375655 -1.91347 0
M  V30 1093 O 99.8717 1.26779 -1.49345 0
M  V30 1094 H 98.4517 -0.398784 -0.631649 0
M  V30 1095 H 101.114 -1.56601 -1.16026 0
M  V30 1096 H 100.21 -1.58623 -2.68785 0
M  V30 1097 N 100.511 1.16574 -1.06058 0
M  V30 1098 C 101.459 2.22941 -0.663343 0
M  V30 1099 C 102.453 1.66358 0.319593 0
M  V30 1100 O 103.659 1.7905 0.184713 0
M  V30 1101 H 100.034 0.725907 -0.196376 0
M  V30 1102 H 102.005 2.53736 -1.57037 0
M  V30 1103 C 100.754 3.47642 -0.0632808 0
M  V30 1104 H 100.077 3.91493 -0.810733 0
M  V30 1105 H 101.517 4.2363 0.177177 0
M  V30 1106 C 99.9758 3.1509 1.19248 0
M  V30 1107 O 100.506 3.30673 2.28075 0
M  V30 1108 N 98.7118 2.6924 1.09353 0
M  V30 1109 H 98.2588 2.5676 0.207912 0
M  V30 1110 H 98.2168 2.47833 1.93458 0
M  V30 1111 N 101.989 0.842826 1.3317 0
M  V30 1112 C 102.952 0.284065 2.27433 0
M  V30 1113 C 103.952 -0.54948 1.5112 0
M  V30 1114 O 105.142 -0.362699 1.70382 0
M  V30 1115 C 102.274 -0.599384 3.35589 0
M  V30 1116 H 103.467 1.11589 2.78366 0
M  V30 1117 H 101.02 0.616221 1.4364 0
M  V30 1118 H 101.755 -1.45349 2.89904 0
M  V30 1119 H 101.54 -0.00291266 3.921 0
M  V30 1120 H 103.03 -0.983488 4.05854 0
M  V30 1121 N 103.467 -1.45747 0.599634 0
M  V30 1122 C 104.43 -2.28917 -0.113835 0
M  V30 1123 C 105.43 -1.3933 -0.802729 0
M  V30 1124 O 106.62 -1.61534 -0.652103 0
M  V30 1125 C 103.752 -3.20152 -1.17114 0
M  V30 1126 H 104.945 -2.93478 0.617289 0
M  V30 1127 H 102.498 -1.52137 0.358327 0
M  V30 1128 H 103.233 -2.60374 -1.93329 0
M  V30 1129 H 103.018 -3.86133 -0.681468 0
M  V30 1130 H 104.508 -3.82708 -1.67105 0
M  V30 1131 N 104.945 -0.338344 -1.53925 0
M  V30 1132 C 106.17 0.263987 -2.05713 0
M  V30 1133 C 106.595 1.43847 -1.21201 0
M  V30 1134 O 105.953 1.79904 -0.224535 0
M  V30 1135 C 106.001 0.662 -3.54471 0
M  V30 1136 O 105.105 1.76265 -3.72833 0
M  V30 1137 H 104.446 0.0448722 -0.662482 0
M  V30 1138 H 106.976 -0.491048 -1.9862 0
M  V30 1139 H 106.986 0.940594 -3.9701 0
M  V30 1140 H 105.661 -0.196937 -4.15433 0
M  V30 1141 H 104.238 1.48173 -3.42198 0
M  V30 1142 N 106.423 1.57458 -0.0668435 0
M  V30 1143 C 107.671 1.92919 0.602214 0
M  V30 1144 C 107.992 0.947215 1.70449 0
M  V30 1145 O 107.262 -0.00544117 1.95899 0
M  V30 1146 H 105.842 0.71217 0.22544 0
M  V30 1147 H 108.504 1.94508 -0.123535 0
M  V30 1148 H 107.6 2.94589 1.03073 0
M  V30 1149 N 107.901 -0.206675 1.56239 0
M  V30 1150 C 109.317 -0.557025 1.49564 0
M  V30 1151 C 109.517 -1.86424 0.764735 0
M  V30 1152 O 108.573 -2.50584 0.310491 0
M  V30 1153 C 109.886 -0.622478 2.94186 0
M  V30 1154 C 111.434 -0.712099 3.04792 0
M  V30 1155 C 111.909 -0.808767 4.50803 0
M  V30 1156 N 113.4 -0.8726 4.54907 0
M  V30 1157 C 114.135 -0.967365 5.65181 0
M  V30 1158 N 113.631 -1.02515 6.85173 0
M  V30 1159 N 115.424 -1.00366 5.53067 0
M  V30 1160 H 107.575 0.650943 2.02179 0
M  V30 1161 H 109.838 0.230387 0.919579 0
M  V30 1162 H 109.544 0.268727 3.50672 0
M  V30 1163 H 109.418 -1.4811 3.46905 0
M  V30 1164 H 111.805 -1.59374 2.48363 0
M  V30 1165 H 111.886 0.172489 2.55218 0
M  V30 1166 H 111.53 0.0684754 5.07854 0
M  V30 1167 H 111.46 -1.70899 4.98098 0
M  V30 1168 H 113.951 -0.837657 3.68499 0
M  V30 1169 H 114.264 -1.09765 7.64965 0
M  V30 1170 H 112.609 -0.994026 6.87855 0
M  V30 1171 H 115.8 -0.95527 4.58249 0
M  V30 1172 H 115.973 -1.07405 6.39037 0
M  V30 1173 N 109.379 -1.50304 -0.473955 0
M  V30 1174 C 110.607 -1.64902 -1.24959 0
M  V30 1175 C 111.022 -0.331198 -1.85872 0
M  V30 1176 O 110.379 0.68652 -1.69095 0
M  V30 1177 C 110.43 -2.73803 -2.36038 0
M  V30 1178 O 110.151 -4.00477 -1.77624 0
M  V30 1179 C 111.652 -2.99349 -3.26964 0
M  V30 1180 H 108.872 -0.554383 -0.378022 0
M  V30 1181 H 111.416 -1.9651 -0.566054 0
M  V30 1182 H 109.571 -2.44898 -3.00173 0
M  V30 1183 H 109.985 -4.60678 -2.5075 0
M  V30 1184 H 111.459 -3.79217 -4.01121 0
M  V30 1185 H 111.936 -2.10307 -3.85574 0
M  V30 1186 H 112.542 -3.29774 -2.68569 0
M  V30 1187 N 110.857 0.726932 -1.39834 0
M  V30 1188 C 112.103 1.48771 -1.38704 0
M  V30 1189 C 112.458 1.92394 0.0146387 0
M  V30 1190 O 111.751 1.64474 0.982797 0
M  V30 1191 C 111.945 2.73495 -2.30077 0
M  V30 1192 C 111.774 2.42068 -3.78989 0
M  V30 1193 C 110.544 2.33966 -4.4787 0
M  V30 1194 C 112.742 2.0708 -4.70768 0
M  V30 1195 N 110.724 1.95095 -5.82075 0
M  V30 1196 C 112.095 1.78719 -5.93683 0
M  V30 1197 C 114.15 1.93618 -4.58712 0
M  V30 1198 C 112.853 1.3825 -7.05889 0
M  V30 1199 C 114.879 1.54553 -5.70848 0
M  V30 1200 C 114.241 1.27082 -6.92842 0
M  V30 1201 H 110.34 0.542919 -0.562817 0
M  V30 1202 H 112.924 0.84408 -1.75452 0
M  V30 1203 H 111.095 3.35625 -1.95474 0
M  V30 1204 H 112.827 3.39755 -2.19883 0
M  V30 1205 H 109.582 2.51331 -4.0141 0
M  V30 1206 H 110.006 1.7823 -6.53118 0
M  V30 1207 H 114.648 2.13522 -3.64922 0
M  V30 1208 H 112.366 1.17088 -7.99572 0
M  V30 1209 H 115.952 1.44731 -5.6351 0
M  V30 1210 H 114.832 0.973069 -7.78139 0
M  V30 1211 N 112.336 1.25143 0.95797 0
M  V30 1212 C 113.283 1.05235 2.05412 0
M  V30 1213 C 114.253 -0.0374561 1.66058 0
M  V30 1214 O 115.438 0.119073 1.90428 0
M  V30 1215 C 112.578 0.673589 3.38462 0
M  V30 1216 C 111.691 1.8379 3.90954 0
M  V30 1217 C 110.826 1.40381 5.12315 0
M  V30 1218 C 109.865 2.53746 5.57027 0
M  V30 1219 N 109.002 2.11136 6.69601 0
M  V30 1220 H 113.842 1.99048 2.21774 0
M  V30 1221 H 111.379 0.991277 1.08683 0
M  V30 1222 H 113.337 0.434964 4.14926 0
M  V30 1223 H 111.967 -0.227554 3.21997 0
M  V30 1224 H 111.019 2.18992 3.11041 0
M  V30 1225 H 112.331 2.68937 4.20089 0
M  V30 1226 H 111.485 1.12464 5.96185 0
M  V30 1227 H 110.224 0.523015 4.84887 0
M  V30 1228 H 109.229 2.82412 4.71724 0
M  V30 1229 H 110.454 3.42398 5.86464 0
M  V30 1230 H 108.4 1.25468 6.4389 0
M  V30 1231 H 108.317 2.89832 6.98236 0
M  V30 1232 H 109.585 1.86385 7.56889 0
M  V30 1233 N 113.814 -1.1601 1.06675 0
M  V30 1234 C 114.746 -2.20115 0.638921 0
M  V30 1235 C 115.759 -1.59916 -0.305057 0
M  V30 1236 O 116.948 -1.78245 -0.0954446 0
M  V30 1237 C 114.048 -3.38798 -0.0830083 0
M  V30 1238 C 113.221 -4.2855 0.875426 0
M  V30 1239 C 112.28 -5.25849 0.192042 0
M  V30 1240 O 111.306 -5.63102 0.830921 0
M  V30 1241 N 112.508 -5.70648 -1.06493 0
M  V30 1242 H 115.273 -2.57439 1.53444 0
M  V30 1243 H 112.834 -1.31057 0.950557 0
M  V30 1244 H 114.826 -4.00936 -0.550685 0
M  V30 1245 H 113.396 -2.99947 -0.880386 0
M  V30 1246 H 112.616 -3.63617 1.52238 0
M  V30 1247 H 113.904 -4.85393 1.52548 0
M  V30 1248 H 113.302 -5.42482 -1.60405 0
M  V30 1249 H 111.859 -6.34859 -1.47641 0
M  V30 1250 N 115.292 -0.849877 -1.32721 0
M  V30 1251 C 116.239 -0.289033 -2.28983 0
M  V30 1252 C 117.209 0.601324 -1.54833 0
M  V30 1253 O 118.394 0.537253 -1.8308 0
M  V30 1254 C 115.534 0.520623 -3.4115 0
M  V30 1255 C 114.647 -0.394989 -4.3019 0
M  V30 1256 C 113.782 0.426834 -5.29482 0
M  V30 1257 C 112.821 -0.486476 -6.10164 0
M  V30 1258 N 111.958 0.297879 -7.01468 0
M  V30 1259 H 116.798 -1.11519 -2.76347 0
M  V30 1260 H 114.335 -0.56138 -1.35967 0
M  V30 1261 H 116.293 1.00563 -4.04899 0
M  V30 1262 H 114.923 1.31165 -2.9495 0
M  V30 1263 H 113.975 -0.99836 -3.67065 0
M  V30 1264 H 115.287 -1.09612 -4.86607 0
M  V30 1265 H 114.441 0.975205 -5.98811 0
M  V30 1266 H 113.18 1.16136 -4.73671 0
M  V30 1267 H 112.185 -1.04677 -5.39743 0
M  V30 1268 H 113.41 -1.21953 -6.6806 0
M  V30 1269 H 111.356 1.01558 -6.48091 0
M  V30 1270 H 111.273 -0.344318 -7.55216 0
M  V30 1271 H 112.541 0.828131 -7.75089 0
M  V30 1272 N 116.77 1.45427 -0.607355 0
M  V30 1273 C 118.016 2.0254 -0.102607 0
M  V30 1274 C 118.349 1.47478 1.26348 0
M  V30 1275 O 117.624 0.64939 1.83339 0
M  V30 1276 C 117.907 3.60044 -0.0634347 0
M  V30 1277 C 117.76 4.2544 -1.46017 0
M  V30 1278 C 119.079 4.35646 0.624514 0
M  V30 1279 H 116.198 0.73598 -0.0387607 0
M  V30 1280 H 118.84 1.73284 -0.779282 0
M  V30 1281 H 116.99 3.85101 0.512808 0
M  V30 1282 H 118.662 4.11569 -2.08347 0
M  V30 1283 H 116.905 3.83849 -2.02094 0
M  V30 1284 H 117.576 5.34342 -1.385 0
M  V30 1285 H 120.052 4.15882 0.134723 0
M  V30 1286 H 118.928 5.45376 0.621028 0
M  V30 1287 H 119.189 4.08501 1.69055 0
M  V30 1288 N 118.248 0.346503 1.53744 0
M  V30 1289 C 119.211 -0.496439 2.23759 0
M  V30 1290 C 120.211 -1.0252 1.2388 0
M  V30 1291 O 121.401 -0.913974 1.48297 0
M  V30 1292 C 118.533 -1.69187 2.95954 0
M  V30 1293 H 119.726 0.115952 2.99676 0
M  V30 1294 H 117.279 0.0978939 1.55993 0
M  V30 1295 H 118.014 -2.34288 2.24231 0
M  V30 1296 H 117.799 -1.31989 3.69217 0
M  V30 1297 H 119.289 -2.28969 3.49232 0
M  V30 1298 N 119.726 -1.57421 0.075193 0
M  V30 1299 C 120.956 -1.97659 -0.601203 0
M  V30 1300 C 121.364 -0.952427 -1.63479 0
M  V30 1301 O 120.707 0.0688241 -1.83571 0
M  V30 1302 C 120.769 -3.34218 -1.32434 0
M  V30 1303 C 120.433 -4.5484 -0.443826 0
M  V30 1304 C 121.43 -5.19034 0.299969 0
M  V30 1305 C 119.115 -5.00952 -0.367709 0
M  V30 1306 C 121.109 -6.27695 1.10807 0
M  V30 1307 C 118.796 -6.09484 0.444058 0
M  V30 1308 C 119.794 -6.72719 1.18061 0
M  V30 1309 O 119.482 -7.79161 1.97898 0
M  V30 1310 H 119.214 -0.65494 -0.167422 0
M  V30 1311 H 121.768 -2.04886 0.145157 0
M  V30 1312 H 119.998 -3.23615 -2.11685 0
M  V30 1313 H 121.687 -3.59038 -1.89331 0
M  V30 1314 H 122.453 -4.84351 0.250776 0
M  V30 1315 H 118.332 -4.51509 -0.930638 0
M  V30 1316 H 121.876 -6.76982 1.68347 0
M  V30 1317 H 117.773 -6.43601 0.494803 0
M  V30 1318 H 118.541 -7.96055 1.90367 0
M  V30 1319 N 121.204 0.198386 -1.56346 0
M  V30 1320 C 122.452 0.91747 -1.80075 0
M  V30 1321 C 122.773 1.83929 -0.647692 0
M  V30 1322 O 122.043 1.93029 0.334166 0
M  V30 1323 H 120.623 0.341774 -0.664228 0
M  V30 1324 H 123.285 0.204684 -1.93822 0
M  V30 1325 H 122.381 1.51055 -2.7311 0
M  V30 1326 N 122.682 1.50554 0.465978 0
M  V30 1327 C 124.098 1.38093 0.800154 0
M  V30 1328 C 124.298 0.440988 1.96615 0
M  V30 1329 O 123.354 -0.114499 2.5224 0
M  V30 1330 C 124.667 2.79565 1.10742 0
M  V30 1331 C 126.215 2.88516 1.21357 0
M  V30 1332 C 126.69 4.30833 1.55393 0
M  V30 1333 N 128.181 4.33807 1.62375 0
M  V30 1334 C 128.916 5.40927 1.90225 0
M  V30 1335 N 128.412 6.58247 2.16062 0
M  V30 1336 N 130.205 5.28376 1.9177 0
M  V30 1337 H 122.356 2.10237 -0.302366 0
M  V30 1338 H 124.619 0.945203 -0.0727746 0
M  V30 1339 H 124.325 3.50208 0.323661 0
M  V30 1340 H 124.199 3.17125 2.04234 0
M  V30 1341 H 126.586 2.1809 1.98799 0
M  V30 1342 H 126.667 2.54492 0.258321 0
M  V30 1343 H 126.311 5.01799 0.784889 0
M  V30 1344 H 126.241 4.62347 2.52076 0
M  V30 1345 H 128.732 3.49212 1.44427 0
M  V30 1346 H 129.045 7.3569 2.36601 0
M  V30 1347 H 127.39 6.61413 2.13444 0
M  V30 1348 H 130.581 4.35715 1.71085 0
M  V30 1349 H 130.754 6.11944 2.13139 0
M  V30 1350 N 124.16 -0.719506 1.40217 0
M  V30 1351 C 125.07 -1.86378 1.42479 0
M  V30 1352 C 126.086 -1.71073 0.317834 0
M  V30 1353 O 127.262 -1.93406 0.561794 0
M  V30 1354 C 124.327 -3.22136 1.28178 0
M  V30 1355 C 123.388 -3.49723 2.48982 0
M  V30 1356 C 122.621 -4.79004 2.35353 0
M  V30 1357 O 122.844 -5.53821 1.36524 0
M  V30 1358 O 121.778 -5.06839 3.2465 0
M  V30 1359 H 125.604 -1.87425 2.38968 0
M  V30 1360 H 123.189 -0.869405 1.21498 0
M  V30 1361 H 125.071 -4.03234 1.22395 0
M  V30 1362 H 123.746 -3.21825 0.347934 0
M  V30 1363 H 122.653 -2.6865 2.60342 0
M  V30 1364 H 123.986 -3.54828 3.41113 0
M  V30 1365 N 125.638 -1.25649 -0.95132 0
M  V30 1366 C 127.054 -1.02542 -1.223 0
M  V30 1367 C 127.254 0.255715 -1.99871 0
M  V30 1368 O 126.31 0.967558 -2.33226 0
M  V30 1369 C 127.623 -2.25065 -1.99415 0
M  V30 1370 C 129.171 -2.29861 -2.12446 0
M  V30 1371 C 129.646 -3.52048 -2.92961 0
M  V30 1372 N 131.137 -3.52465 -3.00538 0
M  V30 1373 C 131.872 -4.43672 -3.63239 0
M  V30 1374 N 131.368 -5.45157 -4.27523 0
M  V30 1375 N 133.161 -4.31346 -3.60412 0
M  V30 1376 H 125.312 -2.07951 -0.432471 0
M  V30 1377 H 127.575 -0.91339 -0.253816 0
M  V30 1378 H 127.281 -3.18194 -1.49817 0
M  V30 1379 H 127.155 -2.28502 -3.00111 0
M  V30 1380 H 129.542 -1.37252 -2.61239 0
M  V30 1381 H 129.623 -2.3044 -1.11044 0
M  V30 1382 H 129.267 -4.44981 -2.44856 0
M  V30 1383 H 129.197 -3.48715 -3.94596 0
M  V30 1384 H 131.688 -2.79056 -2.54826 0
M  V30 1385 H 132.001 -6.10958 -4.73234 0
M  V30 1386 H 130.346 -5.49025 -4.26141 0
M  V30 1387 H 133.537 -3.51288 -3.09377 0
M  V30 1388 H 133.71 -5.02624 -4.0899 0
M  V30 1389 N 127.117 1.15442 -1.07289 0
M  V30 1390 C 128.345 1.90096 -0.81676 0
M  V30 1391 C 128.76 1.7798 0.629966 0
M  V30 1392 O 128.117 1.1313 1.43206 0
M  V30 1393 C 128.168 3.40466 -1.21512 0
M  V30 1394 O 127.889 3.52232 -2.60508 0
M  V30 1395 C 129.39 4.32145 -0.988198 0
M  V30 1396 H 126.61 0.602495 -0.295366 0
M  V30 1397 H 129.154 1.4627 -1.42918 0
M  V30 1398 H 127.309 3.81958 -0.647039 0
M  V30 1399 H 127.723 4.45549 -2.76742 0
M  V30 1400 H 129.197 5.36072 -1.31645 0
M  V30 1401 H 129.674 4.39135 0.0755063 0
M  V30 1402 H 130.28 3.96395 -1.54115 0
M  V30 1403 N 128.595 0.856903 1.32268 0
M  V30 1404 C 129.558 0.308171 2.27119 0
M  V30 1405 C 130.558 -0.533421 1.51695 0
M  V30 1406 O 131.748 -0.344607 1.70757 0
M  V30 1407 C 128.88 -0.563757 3.36206 0
M  V30 1408 H 130.073 1.14535 2.77167 0
M  V30 1409 H 127.626 0.631421 1.42978 0
M  V30 1410 H 128.361 -1.42266 2.91429 0
M  V30 1411 H 128.146 0.0386749 3.92081 0
M  V30 1412 H 129.636 -0.940386 4.06874 0
M  V30 1413 N 130.073 -1.45103 0.615059 0
M  V30 1414 C 131.003 -2.33339 -0.0865619 0
M  V30 1415 C 131.984 -1.4727 -0.851209 0
M  V30 1416 O 133.169 -1.76026 -0.820281 0
M  V30 1417 C 130.299 -3.30095 -1.07956 0
M  V30 1418 C 129.253 -4.25858 -0.427628 0
M  V30 1419 C 128.579 -5.12361 -1.5294 0
M  V30 1420 C 129.879 -5.18165 0.655944 0
M  V30 1421 H 131.573 -2.92254 0.650224 0
M  V30 1422 H 129.119 -1.40532 0.314138 0
M  V30 1423 H 131.072 -3.90698 -1.57901 0
M  V30 1424 H 129.796 -2.69355 -1.84703 0
M  V30 1425 H 128.455 -3.66564 0.0510292 0
M  V30 1426 H 128.103 -4.47984 -2.28734 0
M  V30 1427 H 127.803 -5.77238 -1.09865 0
M  V30 1428 H 129.327 -5.75833 -2.03098 0
M  V30 1429 H 130.741 -5.72796 0.240257 0
M  V30 1430 H 129.138 -5.91559 1.00888 0
M  V30 1431 H 130.208 -4.60144 1.52957 0
M  V30 1432 N 131.551 -0.354651 -1.53558 0
M  V30 1433 C 132.799 0.237972 -2.00694 0
M  V30 1434 C 133.12 1.50173 -1.24391 0
M  V30 1435 O 132.39 1.92673 -0.354135 0
M  V30 1436 H 130.97 0.0909256 -0.741446 0
M  V30 1437 H 133.632 -0.478368 -1.88938 0
M  V30 1438 H 132.728 0.47264 -3.085 0
M  V30 1439 N 133.029 1.57378 -0.0835403 0
M  V30 1440 C 133.939 2.16897 0.894021 0
M  V30 1441 C 134.955 1.13528 1.31861 0
M  V30 1442 O 136.131 1.45848 1.3889 0
M  V30 1443 C 133.196 2.72831 2.13925 0
M  V30 1444 C 132.257 3.91115 1.76997 0
M  V30 1445 C 131.49 4.44371 2.95584 0
M  V30 1446 O 131.713 3.96596 4.09961 0
M  V30 1447 O 130.647 5.35549 2.74719 0
M  V30 1448 H 134.473 3.00814 0.417679 0
M  V30 1449 H 132.058 1.48741 0.140181 0
M  V30 1450 H 133.94 3.0863 2.86924 0
M  V30 1451 H 132.615 1.91967 2.60635 0
M  V30 1452 H 131.522 3.60148 1.01214 0
M  V30 1453 H 132.855 4.73307 1.3506 0
M  V30 1454 N 134.507 -0.190092 1.56449 0
M  V30 1455 C 135.439 -1.25973 1.91477 0
M  V30 1456 C 136.452 -1.41452 0.805931 0
M  V30 1457 O 137.641 -1.41789 1.08435 0
M  V30 1458 C 134.741 -2.63117 2.13594 0
M  V30 1459 C 133.914 -2.69182 3.4476 0
M  V30 1460 C 132.973 -3.87557 3.5593 0
M  V30 1461 O 131.999 -3.74427 4.28711 0
M  V30 1462 N 133.201 -5.03224 2.89388 0
M  V30 1463 H 135.966 -0.962394 2.83828 0
M  V30 1464 H 133.527 -0.379981 1.57378 0
M  V30 1465 H 135.519 -3.40742 2.1835 0
M  V30 1466 H 134.089 -2.85319 1.27719 0
M  V30 1467 H 133.309 -1.77793 3.51828 0
M  V30 1468 H 134.597 -2.70229 4.31107 0
M  V30 1469 H 133.995 -5.16791 2.30094 0
M  V30 1470 H 132.552 -5.78778 2.99764 0
M  V30 1471 N 135.985 -1.50799 -0.457987 0
M  V30 1472 C 136.915 -1.73553 -1.5621 0
M  V30 1473 C 137.896 -0.584774 -1.59732 0
M  V30 1474 O 139.081 -0.825314 -1.7579 0
M  V30 1475 C 136.211 -1.84169 -2.94447 0
M  V30 1476 C 135.165 -2.99461 -3.0579 0
M  V30 1477 C 134.491 -2.95235 -4.45803 0
M  V30 1478 C 135.791 -4.39766 -2.81786 0
M  V30 1479 H 137.485 -2.66 -1.37421 0
M  V30 1480 H 135.031 -1.28002 -0.659662 0
M  V30 1481 H 136.984 -1.98672 -3.71628 0
M  V30 1482 H 135.708 -0.883545 -3.14422 0
M  V30 1483 H 134.367 -2.8463 -2.31044 0
M  V30 1484 H 134.015 -1.97239 -4.62715 0
M  V30 1485 H 133.715 -3.72642 -4.54326 0
M  V30 1486 H 135.239 -3.11803 -5.24987 0
M  V30 1487 H 136.653 -4.55054 -3.4871 0
M  V30 1488 H 135.05 -5.18722 -3.0174 0
M  V30 1489 H 136.12 -4.51229 -1.7754 0
M  V30 1490 N 137.463 0.71206 -1.40597 0
M  V30 1491 C 138.703 1.48438 -1.40519 0
M  V30 1492 C 139.067 1.91998 -0.00767611 0
M  V30 1493 O 140.268 2.6854 0.118239 0
M  V30 1494 C 138.539 2.67514 -2.37004 0
M  V30 1495 S 140.098 3.56875 -2.55315 0
M  V30 1496 H 136.916 0.507457 -0.498005 0
M  V30 1497 H 139.518 0.832355 -1.76896 0
M  V30 1498 H 138.222 2.33689 -3.37368 0
M  V30 1499 H 137.753 3.37625 -2.01923 0
M  V30 1500 H 139.768 4.62081 -1.8082 0
M  V30 1501 N 138.941 1.26152 0.944643 0
M  V30 1502 C 139.851 1.09176 2.07648 0
M  V30 1503 C 140.867 0.0261935 1.7398 0
M  V30 1504 O 142.043 0.229208 2.00091 0
M  V30 1505 C 139.108 0.722915 3.39079 0
M  V30 1506 C 138.169 1.86752 3.86552 0
M  V30 1507 C 137.402 1.51617 5.11711 0
M  V30 1508 O 137.625 0.416331 5.68879 0
M  V30 1509 O 136.559 2.34975 5.54139 0
M  V30 1510 H 140.385 2.0412 2.24875 0
M  V30 1511 H 137.97 1.05182 1.061 0
M  V30 1512 H 139.852 0.529787 4.18056 0
M  V30 1513 H 138.527 -0.197159 3.23099 0
M  V30 1514 H 137.434 2.11558 3.08535 0
M  V30 1515 H 138.767 2.76719 4.07047 0
M  V30 1516 N 140.419 -1.14872 1.07899 0
M  V30 1517 C 141.835 -1.37776 0.805606 0
M  V30 1518 C 142.035 -1.92743 -0.587555 0
M  V30 1519 O 141.091 -2.13678 -1.34528 0
M  V30 1520 C 142.404 -2.34361 1.88402 0
M  V30 1521 C 143.952 -2.48012 1.90942 0
M  V30 1522 C 144.427 -3.47893 2.97883 0
M  V30 1523 N 145.918 -3.55433 2.97021 0
M  V30 1524 C 146.653 -4.32553 3.76412 0
M  V30 1525 N 146.149 -5.12959 4.65666 0
M  V30 1526 N 147.942 -4.27697 3.64735 0
M  V30 1527 H 140.093 -0.775365 1.97742 0
M  V30 1528 H 142.356 -0.403521 0.857831 0
M  V30 1529 H 142.062 -2.01098 2.88535 0
M  V30 1530 H 141.936 -3.34206 1.74889 0
M  V30 1531 H 144.323 -2.8057 0.914579 0
M  V30 1532 H 144.404 -1.48147 2.08534 0
M  V30 1533 H 144.048 -3.16069 3.97571 0
M  V30 1534 H 143.978 -4.47527 2.77538 0
M  V30 1535 H 146.469 -2.98048 2.32326 0
M  V30 1536 H 146.782 -5.69065 5.22862 0
M  V30 1537 H 145.127 -5.12245 4.69712 0
M  V30 1538 H 148.318 -3.63949 2.94378 0
M  V30 1539 H 148.491 -4.8755 4.26848 0
M  V30 1540 N 141.898 -0.863906 -1.31812 0
M  V30 1541 C 143.309 -0.52522 -1.7916 0
M  V30 1542 C 143.66 0.957518 -1.71248 0
M  V30 1543 O 142.785 1.74734 -1.27659 0
M  V30 1544 C 143.38 -0.9466 -3.25307 0
M  V30 1545 C 141.939 -0.659668 -3.70574 0
M  V30 1546 C 141.086 -1.14126 -2.52726 0
M  V30 1547 H 144.037 -1.05022 -1.1898 0
M  V30 1548 H 144.058 -0.266766 -3.79564 0
M  V30 1549 H 143.57 -2.02579 -3.31034 0
M  V30 1550 H 141.671 0.408416 -3.70355 0
M  V30 1551 H 141.784 -1.23245 -4.62977 0
M  V30 1552 H 140.148 -0.561216 -2.4844 0
M  V30 1553 H 140.931 -2.22775 -2.61201 0
M  V30 1554 N 143.376 1.44774 -0.622745 0
M  V30 1555 C 144.306 2.33382 0.0741861 0
M  V30 1556 C 145.287 1.47719 0.843387 0
M  V30 1557 O 146.472 1.76458 0.810934 0
M  V30 1558 C 143.602 3.30663 1.06204 0
M  V30 1559 C 142.556 4.26079 0.405037 0
M  V30 1560 C 141.882 5.13165 1.5022 0
M  V30 1561 C 143.182 5.1781 -0.683414 0
M  V30 1562 H 144.876 2.91905 -0.665713 0
M  V30 1563 H 142.422 1.40363 -0.321587 0
M  V30 1564 H 144.375 3.9153 1.55827 0
M  V30 1565 H 143.099 2.70331 1.83272 0
M  V30 1566 H 141.758 3.66532 -0.0704683 0
M  V30 1567 H 141.406 4.49191 2.26355 0
M  V30 1568 H 141.106 5.77812 1.06803 0
M  V30 1569 H 142.63 5.76902 2.00041 0
M  V30 1570 H 144.044 5.72661 -0.270631 0
M  V30 1571 H 142.441 5.91015 -1.04023 0
M  V30 1572 H 143.511 4.59326 -1.55395 0
M  V30 1573 N 144.854 0.36279 1.53368 0
M  V30 1574 C 146.131 -0.284021 1.93527 0
M  V30 1575 C 146.511 -1.66628 1.29608 0
M  V30 1576 O 145.859 -2.23942 0.45413 0
M  V30 1577 C 146.069 -0.337028 3.47369 0
M  V30 1578 C 147.417 -0.578708 4.20638 0
M  V30 1579 O 148.441 -0.418352 3.53735 0
M  V30 1580 O 147.3 -0.89074 5.39192 0
M  V30 1581 H 144.394 -0.169743 0.809393 0
M  V30 1582 H 146.94 0.41537 1.64538 0
M  V30 1583 H 145.712 0.632217 3.86159 0
M  V30 1584 H 145.335 -1.08243 3.82582 0
M  V30 1585 N 146.332 -1.57332 0.0918853 0
M  V30 1586 C 147.609 -1.85691 -0.614668 0
M  V30 1587 C 147.989 -0.988146 -1.86545 0
M  V30 1588 O 147.337 -0.0597055 -2.28422 0
M  V30 1589 C 147.547 -3.36294 -0.933126 0
M  V30 1590 C 148.895 -4.04275 -1.29796 0
M  V30 1591 O 149.919 -3.41157 -1.02424 0
M  V30 1592 O 148.778 -5.1564 -1.81047 0
M  V30 1593 H 145.872 -0.767802 -0.307261 0
M  V30 1594 H 148.418 -1.69244 0.12434 0
M  V30 1595 H 147.19 -3.91273 -0.0456404 0
M  V30 1596 H 146.813 -3.58076 -1.72822 0
M  V30 1597 N 147.81 0.181792 -1.56548 0
M  V30 1598 C 148.72 1.24538 -1.98815 0
M  V30 1599 C 149.736 1.49045 -0.897861 0
M  V30 1600 O 150.912 1.61399 -1.20467 0
M  V30 1601 C 147.977 2.56683 -2.33055 0
M  V30 1602 C 147.038 2.40131 -3.55859 0
M  V30 1603 C 146.271 3.65975 -3.88456 0
M  V30 1604 O 146.494 4.70711 -3.22161 0
M  V30 1605 O 145.428 3.6071 -4.81842 0
M  V30 1606 H 149.254 0.916647 -2.89536 0
M  V30 1607 H 146.839 0.387842 -1.44278 0
M  V30 1608 H 148.721 3.34655 -2.56094 0
M  V30 1609 H 147.396 2.89157 -1.45498 0
M  V30 1610 H 146.303 1.60226 -3.38051 0
M  V30 1611 H 147.636 2.12585 -4.43924 0
M  V30 1612 N 149.288 1.51039 0.449983 0
M  V30 1613 C 150.516 1.66869 1.2232 0
M  V30 1614 C 150.931 0.360727 1.85322 0
M  V30 1615 O 150.288 -0.659531 1.70166 0
M  V30 1616 C 150.339 2.77524 2.31652 0
M  V30 1617 O 150.06 4.03252 1.7123 0
M  V30 1618 C 151.561 3.04512 3.2216 0
M  V30 1619 H 148.781 0.560326 0.369155 0
M  V30 1620 H 151.325 1.97385 0.534719 0
M  V30 1621 H 149.48 2.49642 2.96239 0
M  V30 1622 H 149.894 4.64609 2.43389 0
M  V30 1623 H 151.368 3.85551 3.95038 0
M  V30 1624 H 151.845 2.16415 3.8218 0
M  V30 1625 H 152.451 3.34005 2.63288 0
M  V30 1626 N 150.766 -0.704594 1.40972 0
M  V30 1627 C 152.014 -1.46169 1.39568 0
M  V30 1628 C 152.335 -1.95 0.00253745 0
M  V30 1629 O 151.605 -1.71095 -0.954114 0
M  V30 1630 H 150.185 -0.542326 0.513704 0
M  V30 1631 H 152.847 -0.834553 1.76128 0
M  V30 1632 H 151.943 -2.32922 2.07735 0
M  V30 1633 N 152.244 -1.26651 -0.937939 0
M  V30 1634 C 153.655 -1.1125 -1.49934 0
M  V30 1635 C 154.006 0.306077 -1.93798 0
M  V30 1636 O 153.131 1.19792 -1.80219 0
M  V30 1637 C 153.726 -2.01339 -2.72485 0
M  V30 1638 C 152.285 -1.90074 -3.24883 0
M  V30 1639 C 151.432 -1.94498 -1.97651 0
M  V30 1640 H 154.383 -1.39693 -0.753091 0
M  V30 1641 H 154.404 -1.56319 -3.46907 0
M  V30 1642 H 153.916 -3.04577 -2.40529 0
M  V30 1643 H 152.017 -0.897827 -3.61621 0
M  V30 1644 H 152.13 -2.75778 -3.9177 0
M  V30 1645 H 150.494 -1.38591 -2.13693 0
M  V30 1646 H 151.277 -2.99372 -1.68022 0
M  V30 1647 N 153.722 1.14298 -1.08507 0
M  V30 1648 C 154.969 1.85359 -0.815373 0
M  V30 1649 C 155.297 1.83001 0.658865 0
M  V30 1650 O 154.552 1.25655 1.50031 0
M  V30 1651 C 154.851 3.33547 -1.28379 0
M  V30 1652 C 154.517 3.56093 -2.76602 0
M  V30 1653 C 153.179 3.61955 -3.17084 0
M  V30 1654 C 155.531 3.64834 -3.72217 0
M  V30 1655 C 152.859 3.74082 -4.51973 0
M  V30 1656 C 155.211 3.78487 -5.06883 0
M  V30 1657 C 153.875 3.82598 -5.46969 0
M  V30 1658 H 153.145 0.678276 -0.298366 0
M  V30 1659 H 155.792 1.35002 -1.35819 0
M  V30 1660 H 154.097 3.86191 -0.660593 0
M  V30 1661 H 155.794 3.86959 -1.05186 0
M  V30 1662 H 152.384 3.52179 -2.4427 0
M  V30 1663 H 156.568 3.59595 -3.42061 0
M  V30 1664 H 151.824 3.75527 -4.82483 0
M  V30 1665 H 155.998 3.84193 -5.80834 0
M  V30 1666 H 153.625 3.91747 -6.51489 0
M  V30 1667 N 155.201 0.870884 1.31352 0
M  V30 1668 C 156.164 0.332243 2.26779 0
M  V30 1669 C 157.164 -0.517302 1.52252 0
M  V30 1670 O 158.354 -0.326477 1.71113 0
M  V30 1671 C 155.486 -0.528066 3.36785 0
M  V30 1672 H 156.679 1.17469 2.75937 0
M  V30 1673 H 154.232 0.64655 1.423 0
M  V30 1674 H 154.967 -1.39167 2.92922 0
M  V30 1675 H 154.752 0.0802582 3.92018 0
M  V30 1676 H 156.242 -0.897179 4.07849 0
M  V30 1677 N 156.679 -1.44442 0.630414 0
M  V30 1678 C 157.589 -2.34476 -0.0761693 0
M  V30 1679 C 158.605 -1.52576 -0.836449 0
M  V30 1680 O 159.781 -1.85307 -0.788874 0
M  V30 1681 C 156.846 -3.30545 -1.04599 0
M  V30 1682 C 155.907 -4.28352 -0.28516 0
M  V30 1683 C 155.14 -5.19831 -1.20878 0
M  V30 1684 O 155.363 -5.15223 -2.44747 0
M  V30 1685 O 154.297 -5.97892 -0.693491 0
M  V30 1686 H 158.123 -2.96345 0.664324 0
M  V30 1687 H 155.708 -1.44203 0.39061 0
M  V30 1688 H 157.59 -3.89681 -1.60396 0
M  V30 1689 H 156.265 -2.7121 -1.76711 0
M  V30 1690 H 155.172 -3.72764 0.315837 0
M  V30 1691 H 156.505 -4.90605 0.395924 0
M  V30 1692 N 158.157 -0.370918 -1.53173 0
M  V30 1693 C 159.087 0.464847 -2.28826 0
M  V30 1694 C 160.068 1.07936 -1.31468 0
M  V30 1695 O 161.253 1.0956 -1.60344 0
M  V30 1696 C 158.383 1.60196 -3.08147 0
M  V30 1697 C 157.337 1.11443 -4.13237 0
M  V30 1698 C 156.663 2.3422 -4.80672 0
M  V30 1699 C 157.963 0.195384 -5.21934 0
M  V30 1700 H 159.657 -0.166329 -2.98938 0
M  V30 1701 H 157.203 -0.0814359 -1.4377 0
M  V30 1702 H 159.156 2.19332 -3.59822 0
M  V30 1703 H 157.88 2.26045 -2.35735 0
M  V30 1704 H 156.539 0.545727 -3.62515 0
M  V30 1705 H 156.187 2.98537 -4.04827 0
M  V30 1706 H 155.887 2.02269 -5.51689 0
M  V30 1707 H 157.411 2.94032 -5.35143 0
M  V30 1708 H 158.825 0.694375 -5.69079 0
M  V30 1709 H 157.222 -0.0335027 -6.00091 0
M  V30 1710 H 158.292 -0.760961 -4.78892 0
M  V30 1711 N 159.635 1.57281 -0.100228 0
M  V30 1712 C 160.882 1.94537 0.562268 0
M  V30 1713 C 161.21 0.982315 1.67871 0
M  V30 1714 O 160.465 0.00280936 1.957 0
M  V30 1715 C 160.764 3.38305 1.15259 0
M  V30 1716 C 160.43 4.50618 0.159409 0
M  V30 1717 C 159.092 4.81066 -0.113741 0
M  V30 1718 C 161.444 5.18615 -0.518461 0
M  V30 1719 C 158.772 5.76835 -1.07137 0
M  V30 1720 C 161.124 6.15412 -1.46459 0
M  V30 1721 C 159.788 6.44262 -1.74592 0
M  V30 1722 H 159.058 0.711863 0.205748 0
M  V30 1723 H 161.705 1.90679 -0.17715 0
M  V30 1724 H 160.01 3.38766 1.96836 0
M  V30 1725 H 161.707 3.64435 1.67297 0
M  V30 1726 H 158.297 4.2689 0.382491 0
M  V30 1727 H 162.481 4.95264 -0.320581 0
M  V30 1728 H 157.737 5.975 -1.29628 0
M  V30 1729 H 161.911 6.67194 -1.99564 0
M  V30 1730 H 159.538 7.1828 -2.48953 0
M  V30 1731 N 161.113 -0.173488 1.56642 0
M  V30 1732 C 162.043 -1.2171 1.99271 0
M  V30 1733 C 163.024 -1.46289 0.867959 0
M  V30 1734 O 164.209 -1.5766 1.13388 0
M  V30 1735 C 161.339 -2.55651 2.35074 0
M  V30 1736 C 160.293 -2.45645 3.50489 0
M  V30 1737 C 159.619 -3.84056 3.72028 0
M  V30 1738 C 160.919 -1.96302 4.84007 0
M  V30 1739 H 162.613 -0.86275 2.867 0
M  V30 1740 H 160.159 -0.413571 1.37933 0
M  V30 1741 H 162.112 -3.2886 2.63494 0
M  V30 1742 H 160.836 -2.92869 1.44552 0
M  V30 1743 H 159.495 -1.7489 3.22194 0
M  V30 1744 H 159.143 -4.18664 2.788 0
M  V30 1745 H 158.843 -3.7823 4.49684 0
M  V30 1746 H 160.367 -4.58854 4.02846 0
M  V30 1747 H 161.781 -2.59284 5.11317 0
M  V30 1748 H 160.178 -2.01429 5.65284 0
M  V30 1749 H 161.248 -0.917226 4.76146 0
M  V30 1750 N 162.591 -1.51276 -0.441967 0
M  V30 1751 C 164.002 -1.56244 -1.02199 0
M  V30 1752 C 164.353 -0.383149 -1.92422 0
M  V30 1753 O 163.478 0.500613 -2.1053 0
M  V30 1754 C 164.073 -2.83162 -1.86024 0
M  V30 1755 C 162.632 -2.90716 -2.39084 0
M  V30 1756 C 161.779 -2.50858 -1.18175 0
M  V30 1757 H 164.73 -1.5712 -0.223416 0
M  V30 1758 H 164.751 -2.66663 -2.71425 0
M  V30 1759 H 164.263 -3.68974 -1.20331 0
M  V30 1760 H 162.364 -2.09323 -3.08244 0
M  V30 1761 H 162.477 -3.94266 -2.72198 0
M  V30 1762 H 160.841 -2.03951 -1.52565 0
M  V30 1763 H 161.624 -3.3901 -0.541001 0
M  V30 1764 N 164.069 0.697108 -1.41344 0
M  V30 1765 C 165.485 1.00751 -1.2378 0
M  V30 1766 C 165.685 2.01105 -0.126066 0
M  V30 1767 O 164.741 2.47295 0.51004 0
M  V30 1768 C 166.054 1.53359 -2.58653 0
M  V30 1769 C 167.602 1.6525 -2.65822 0
M  V30 1770 C 168.077 2.2126 -4.01009 0
M  V30 1771 N 169.568 2.28622 -4.02847 0
M  V30 1772 C 170.303 2.72984 -5.04249 0
M  V30 1773 N 169.799 3.16962 -6.16041 0
M  V30 1774 N 171.592 2.72534 -4.91611 0
M  V30 1775 H 163.743 0.0322662 -2.12375 0
M  V30 1776 H 166.006 0.0768853 -0.944877 0
M  V30 1777 H 165.712 0.870773 -3.4075 0
M  V30 1778 H 165.586 2.51597 -2.81032 0
M  V30 1779 H 167.973 2.30644 -1.84086 0
M  V30 1780 H 168.054 0.655614 -2.47256 0
M  V30 1781 H 167.698 1.56482 -4.83193 0
M  V30 1782 H 167.628 3.21698 -4.16915 0
M  V30 1783 H 170.119 1.97585 -3.22131 0
M  V30 1784 H 170.432 3.49434 -6.89287 0
M  V30 1785 H 168.777 3.14875 -6.1958 0
M  V30 1786 H 171.968 2.37525 -4.0336 0
M  V30 1787 H 172.141 3.06789 -5.70775 0
M  V30 1788 N 165.547 1.27147 0.931209 0
M  V30 1789 C 166.824 1.0401 1.65654 0
M  V30 1790 C 167.204 -0.426297 2.06751 0
M  V30 1791 O 166.552 -1.40879 1.79904 0
M  V30 1792 C 166.762 1.99834 2.86125 0
M  V30 1793 C 168.11 2.29007 3.57549 0
M  V30 1794 O 169.134 1.97779 2.96246 0
M  V30 1795 O 167.993 2.82222 4.67989 0
M  V30 1796 H 165.087 0.396239 0.725895 0
M  V30 1797 H 167.633 1.38397 0.982056 0
M  V30 1798 H 166.405 2.98744 2.52721 0
M  V30 1799 H 166.028 1.65987 3.61295 0
M  V30 1800 N 167.025 -1.13721 1.09112 0
M  V30 1801 C 168.271 -1.85198 0.826414 0
M  V30 1802 C 168.604 -1.83129 -0.646319 0
M  V30 1803 O 167.879 -1.2671 -1.47563 0
M  V30 1804 C 168.162 -3.33507 1.35812 0
M  V30 1805 C 168.015 -3.44108 2.89672 0
M  V30 1806 C 169.334 -4.28838 0.989256 0
M  V30 1807 H 166.453 -0.67243 0.301675 0
M  V30 1808 H 169.095 -1.33499 1.35197 0
M  V30 1809 H 167.245 -3.77666 0.911082 0
M  V30 1810 H 168.917 -3.08684 3.428 0
M  V30 1811 H 167.16 -2.85087 3.26967 0
M  V30 1812 H 167.831 -4.48388 3.21951 0
M  V30 1813 H 170.307 -3.92734 1.37475 0
M  V30 1814 H 169.183 -5.31051 1.38838 0
M  V30 1815 H 169.444 -4.4198 -0.102924 0
M  V30 1816 N 168.503 -0.877838 -1.30888 0
M  V30 1817 C 169.433 -0.35534 -2.3078 0
M  V30 1818 C 170.414 0.557994 -1.60687 0
M  V30 1819 O 171.599 0.473355 -1.88343 0
M  V30 1820 C 168.729 0.437221 -3.44537 0
M  V30 1821 C 167.683 -0.383715 -4.26276 0
M  V30 1822 C 167.009 0.535014 -5.32017 0
M  V30 1823 C 168.309 -1.62201 -4.96476 0
M  V30 1824 H 170.003 -1.19007 -2.74732 0
M  V30 1825 H 167.549 -0.573698 -1.32078 0
M  V30 1826 H 169.502 0.813334 -4.13477 0
M  V30 1827 H 168.226 1.30553 -2.99372 0
M  V30 1828 H 166.885 -0.741874 -3.59015 0
M  V30 1829 H 166.533 1.40083 -4.831 0
M  V30 1830 H 166.233 -0.0104211 -5.87599 0
M  V30 1831 H 167.757 0.907799 -6.03814 0
M  V30 1832 H 169.171 -1.31689 -5.5797 0
M  V30 1833 H 167.568 -2.10711 -5.61891 0
M  V30 1834 H 168.638 -2.37044 -4.23011 0
M  V30 1835 N 169.982 1.44106 -0.638065 0
M  V30 1836 C 171.398 1.56672 -0.304286 0
M  V30 1837 C 171.598 1.6244 1.19228 0
M  V30 1838 O 170.654 1.57121 1.9766 0
M  V30 1839 C 171.967 2.83503 -1.00231 0
M  V30 1840 C 173.515 2.97226 -0.981116 0
M  V30 1841 C 173.99 4.26868 -1.65974 0
M  V30 1842 N 175.481 4.33698 -1.62666 0
M  V30 1843 C 176.216 5.32745 -2.12063 0
M  V30 1844 N 175.712 6.38157 -2.6968 0
M  V30 1845 N 177.505 5.24299 -2.02651 0
M  V30 1846 H 169.656 1.38605 -1.60942 0
M  V30 1847 H 171.919 0.664661 -0.675965 0
M  V30 1848 H 171.625 2.85251 -2.0573 0
M  V30 1849 H 171.499 3.73251 -0.54439 0
M  V30 1850 H 173.886 2.95027 0.0654188 0
M  V30 1851 H 173.967 2.08808 -1.47759 0
M  V30 1852 H 173.611 4.29826 -2.70576 0
M  V30 1853 H 173.541 5.14156 -1.13804 0
M  V30 1854 H 176.032 3.58138 -1.20606 0
M  V30 1855 H 176.345 7.10029 -3.05087 0
M  V30 1856 H 174.69 6.38823 -2.73734 0
M  V30 1857 H 177.881 4.4086 -1.57353 0
M  V30 1858 H 178.054 6.01334 -2.41457 0
M  V30 1859 N 171.46 0.379036 1.52974 0
M  V30 1860 C 172.876 0.0285448 1.59574 0
M  V30 1861 C 173.076 -1.45542 1.39355 0
M  V30 1862 O 172.132 -2.2187 1.20541 0
M  V30 1863 C 173.445 0.496535 2.96572 0
M  V30 1864 C 174.993 0.451909 3.0972 0
M  V30 1865 C 175.468 0.895924 4.49152 0
M  V30 1866 N 176.959 0.851522 4.55306 0
M  V30 1867 C 177.694 1.16661 5.61407 0
M  V30 1868 N 177.19 1.55166 6.752 0
M  V30 1869 N 178.983 1.08853 5.51459 0
M  V30 1870 H 171.134 1.34525 1.64367 0
M  V30 1871 H 173.397 0.550733 0.771619 0
M  V30 1872 H 173.103 1.53258 3.16552 0
M  V30 1873 H 172.977 -0.109802 3.7704 0
M  V30 1874 H 175.364 -0.575029 2.89443 0
M  V30 1875 H 175.445 1.09392 2.3123 0
M  V30 1876 H 175.089 1.92104 4.70168 0
M  V30 1877 H 175.019 0.23103 5.26093 0
M  V30 1878 H 177.51 0.568038 3.73606 0
M  V30 1879 H 177.823 1.776 7.52116 0
M  V30 1880 H 176.168 1.59044 6.76557 0
M  V30 1881 H 179.359 0.786803 4.6144 0
M  V30 1882 H 179.532 1.33742 6.34048 0
M  V30 1883 N 172.938 -1.57226 0.108567 0
M  V30 1884 C 173.868 -2.17778 -0.84232 0
M  V30 1885 C 174.849 -1.11487 -1.2847 0
M  V30 1886 O 176.034 -1.39681 -1.34918 0
M  V30 1887 C 173.164 -2.76888 -2.09644 0
M  V30 1888 C 172.118 -3.88669 -1.79221 0
M  V30 1889 C 171.444 -4.34541 -3.11574 0
M  V30 1890 C 172.744 -5.11251 -1.06864 0
M  V30 1891 H 174.438 -2.97489 -0.337774 0
M  V30 1892 H 171.984 -1.43097 -0.161025 0
M  V30 1893 H 173.937 -3.17904 -2.76614 0
M  V30 1894 H 172.661 -1.94451 -2.62405 0
M  V30 1895 H 171.32 -3.48213 -1.14644 0
M  V30 1896 H 170.968 -3.48977 -3.62249 0
M  V30 1897 H 170.668 -5.09914 -2.91996 0
M  V30 1898 H 172.192 -4.782 -3.7968 0
M  V30 1899 H 173.606 -5.49352 -1.63968 0
M  V30 1900 H 172.003 -5.9214 -0.974178 0
M  V30 1901 H 173.073 -4.8487 -0.0536168 0
M  V30 1902 N 174.416 0.165178 -1.56732 0
M  V30 1903 C 175.664 0.879068 -1.8198 0
M  V30 1904 C 175.985 1.82514 -0.686561 0
M  V30 1905 O 175.255 1.93694 0.293146 0
M  V30 1906 H 173.835 0.327608 -0.671329 0
M  V30 1907 H 176.497 0.163526 -1.94213 0
M  V30 1908 H 175.593 1.45228 -2.76252 0
M  V30 1909 N 175.894 1.51508 0.433938 0
M  V30 1910 C 176.857 1.72473 1.50949 0
M  V30 1911 C 177.857 0.594725 1.49398 0
M  V30 1912 O 179.047 0.862315 1.5136 0
M  V30 1913 C 176.179 1.78431 2.90474 0
M  V30 1914 H 177.372 2.68467 1.33662 0
M  V30 1915 H 174.925 1.41549 0.662836 0
M  V30 1916 H 175.66 0.842645 3.13161 0
M  V30 1917 H 175.445 2.60558 2.93005 0
M  V30 1918 H 176.935 1.96479 3.68491 0
M  V30 1919 N 177.372 -0.689602 1.41712 0
M  V30 1920 C 178.788 -1.00093 1.24312 0
M  V30 1921 C 178.988 -2.01036 0.136729 0
M  V30 1922 O 178.044 -2.47562 -0.496918 0
M  V30 1923 C 179.357 -1.51985 2.59463 0
M  V30 1924 C 180.905 -1.63838 2.66695 0
M  V30 1925 C 181.38 -2.1913 4.02177 0
M  V30 1926 N 182.871 -2.26483 4.04054 0
M  V30 1927 C 183.606 -2.70306 5.0569 0
M  V30 1928 N 183.102 -3.13691 6.17713 0
M  V30 1929 N 184.895 -2.69923 4.9305 0
M  V30 1930 H 177.046 -0.0210029 2.1239 0
M  V30 1931 H 179.309 -0.0718733 0.945272 0
M  V30 1932 H 179.015 -0.85269 3.41207 0
M  V30 1933 H 178.889 -2.50103 2.82362 0
M  V30 1934 H 181.276 -2.29664 1.85306 0
M  V30 1935 H 181.357 -0.642492 2.476 0
M  V30 1936 H 181.001 -1.53918 4.84016 0
M  V30 1937 H 180.931 -3.19482 4.18615 0
M  V30 1938 H 183.422 -1.95874 3.23174 0
M  V30 1939 H 183.735 -3.45773 6.9113 0
M  V30 1940 H 182.08 -3.11585 6.21241 0
M  V30 1941 H 185.271 -2.35382 4.04614 0
M  V30 1942 H 185.444 -3.03758 5.72394 0
M  V30 1943 N 178.85 -1.27639 -0.924453 0
M  V30 1944 C 179.8 -1.07295 -2.01176 0
M  V30 1945 C 180.784 5.77352e-05 -1.609 0
M  V30 1946 O 181.976 -0.218855 -1.75642 0
M  V30 1947 C 179.105 -0.725592 -3.35544 0
M  V30 1948 C 178.191 -1.83691 -3.82254 0
M  V30 1949 N 178.582 -3.07697 -4.01443 0
M  V30 1950 C 176.88 -1.72433 -4.11319 0
M  V30 1951 C 177.581 -3.80037 -4.40394 0
M  V30 1952 N 176.557 -3.0782 -4.48049 0
M  V30 1953 H 180.359 -2.01399 -2.14046 0
M  V30 1954 H 177.873 -1.18401 -1.11153 0
M  V30 1955 H 179.87 -0.560959 -4.13109 0
M  V30 1956 H 178.53 0.207782 -3.24034 0
M  V30 1957 H 179.541 -3.43424 -3.8766 0
M  V30 1958 H 176.218 -0.862005 -4.08504 0
M  V30 1959 H 177.608 -4.86632 -4.63291 0
M  V30 1960 N 180.328 1.1314 -1.09713 0
M  V30 1961 C 181.577 1.83838 -0.829851 0
M  V30 1962 C 181.89 1.84599 0.646728 0
M  V30 1963 O 183.096 2.51218 1.02965 0
M  V30 1964 C 181.552 3.30069 -1.43466 0
M  V30 1965 C 181.16 3.37688 -2.94399 0
M  V30 1966 C 182.904 4.05788 -1.24645 0
M  V30 1967 C 180.811 4.78209 -3.47952 0
M  V30 1968 H 179.741 0.68877 -0.306777 0
M  V30 1969 H 182.392 1.27448 -1.3202 0
M  V30 1970 H 180.774 3.8628 -0.871996 0
M  V30 1971 H 181.948 2.91456 -3.56918 0
M  V30 1972 H 180.263 2.75436 -3.12289 0
M  V30 1973 H 182.86 5.09535 -1.62107 0
M  V30 1974 H 183.203 4.15878 -0.187357 0
M  V30 1975 H 183.736 3.55915 -1.77678 0
M  V30 1976 H 180.475 4.73311 -4.53495 0
M  V30 1977 H 179.995 5.24924 -2.90198 0
M  V30 1978 H 181.674 5.47133 -3.45332 0
M  V30 1979 N 181.806 0.884767 1.30421 0
M  V30 1980 C 183.054 0.502112 1.95763 0
M  V30 1981 C 183.375 -0.951815 1.70192 0
M  V30 1982 O 182.645 -1.6692 1.0254 0
M  V30 1983 H 181.225 0.182694 0.724315 0
M  V30 1984 H 183.887 1.1278 1.58955 0
M  V30 1985 H 182.983 0.672188 3.04775 0
M  V30 1986 N 183.284 -1.43765 0.645699 0
M  V30 1987 C 184.7 -1.56509 0.312591 0
M  V30 1988 C 184.9 -1.6307 -1.18365 0
M  V30 1989 O 183.956 -1.58167 -1.96824 0
M  V30 1990 C 185.269 -2.82968 1.01733 0
M  V30 1991 C 186.817 -2.96701 0.996865 0
M  V30 1992 C 187.292 -4.25982 1.68236 0
M  V30 1993 N 188.783 -4.32829 1.64964 0
M  V30 1994 C 189.518 -5.31613 2.14885 0
M  V30 1995 N 189.014 -6.36718 2.73061 0
M  V30 1996 N 190.807 -5.23217 2.05428 0
M  V30 1997 H 182.958 -1.3775 1.61675 0
M  V30 1998 H 185.221 -0.661067 0.679481 0
M  V30 1999 H 184.927 -2.84156 2.0724 0
M  V30 2000 H 184.801 -3.72957 0.564177 0
M  V30 2001 H 187.188 -2.95058 -0.0497719 0
M  V30 2002 H 187.269 -2.08022 1.48865 0
M  V30 2003 H 186.913 -4.28386 2.72852 0
M  V30 2004 H 186.843 -5.13545 1.16529 0
M  V30 2005 H 189.334 -3.57493 1.22503 0
M  V30 2006 H 189.647 -7.08401 3.08848 0
M  V30 2007 H 187.992 -6.37362 2.77118 0
M  V30 2008 H 191.183 -4.40019 1.59689 0
M  V30 2009 H 191.356 -6.00045 2.44643 0
M  V30 2010 N 184.763 -0.387143 -1.52771 0
M  V30 2011 C 186.179 -0.037007 -1.59557 0
M  V30 2012 C 186.379 1.44801 -1.40124 0
M  V30 2013 O 185.435 2.21227 -1.21716 0
M  V30 2014 C 186.748 -0.512256 -2.96305 0
M  V30 2015 C 188.296 -0.468328 -3.09476 0
M  V30 2016 C 188.771 -0.919731 -4.4867 0
M  V30 2017 N 190.262 -0.875656 -4.54848 0
M  V30 2018 C 190.997 -1.19637 -5.6078 0
M  V30 2019 N 190.493 -1.58745 -6.74368 0
M  V30 2020 N 192.286 -1.11776 -5.50874 0
M  V30 2021 H 184.437 -1.35395 -1.63652 0
M  V30 2022 H 186.7 -0.554818 -0.768688 0
M  V30 2023 H 186.406 -1.54935 -3.15734 0
M  V30 2024 H 186.28 0.089805 -3.77093 0
M  V30 2025 H 188.667 0.559671 -2.89744 0
M  V30 2026 H 188.748 -1.10616 -2.30646 0
M  V30 2027 H 188.392 -1.94595 -4.69143 0
M  V30 2028 H 188.322 -0.258927 -5.25963 0
M  V30 2029 H 190.813 -0.587843 -3.733 0
M  V30 2030 H 191.126 -1.81586 -7.51163 0
M  V30 2031 H 189.471 -1.6263 -6.75705 0
M  V30 2032 H 192.662 -0.811264 -4.61016 0
M  V30 2033 H 192.835 -1.37103 -6.3333 0
M  V30 2034 N 186.241 1.57166 -0.116904 0
M  V30 2035 C 187.487 1.95412 0.542405 0
M  V30 2036 C 187.82 1.00019 1.66463 0
M  V30 2037 O 187.095 0.0370346 1.94465 0
M  V30 2038 C 187.378 3.43615 1.07708 0
M  V30 2039 C 187.231 4.49781 -0.0415868 0
M  V30 2040 C 188.55 3.93616 1.96861 0
M  V30 2041 H 185.669 0.710543 0.195696 0
M  V30 2042 H 188.311 1.89027 -0.192038 0
M  V30 2043 H 186.461 3.49187 1.70296 0
M  V30 2044 H 188.133 4.56308 -0.676793 0
M  V30 2045 H 186.376 4.28033 -0.705019 0
M  V30 2046 H 187.047 5.50733 0.373717 0
M  V30 2047 H 189.523 3.90335 1.44146 0
M  V30 2048 H 188.399 4.97838 2.3119 0
M  V30 2049 H 188.66 3.34188 2.89432 0
M  V30 2050 N 187.719 -0.156864 1.56817 0
M  V30 2051 C 188.965 -0.872416 1.83076 0
M  V30 2052 C 189.298 -1.81261 0.697001 0
M  V30 2053 O 188.573 -1.92171 -0.30008 0
M  V30 2054 C 188.856 -1.65551 3.19789 0
M  V30 2055 C 188.709 -0.737467 4.43713 0
M  V30 2056 C 190.028 -2.62012 3.53606 0
M  V30 2057 H 187.147 -0.315715 0.665953 0
M  V30 2058 H 189.789 -0.138004 1.89498 0
M  V30 2059 H 187.939 -2.28159 3.14445 0
M  V30 2060 H 189.611 -0.123143 4.61136 0
M  V30 2061 H 187.854 -0.0464067 4.33775 0
M  V30 2062 H 188.525 -1.32122 5.35955 0
M  V30 2063 H 191.001 -2.09525 3.59497 0
M  V30 2064 H 189.877 -3.13861 4.50314 0
M  V30 2065 H 190.138 -3.42902 2.79053 0
M  V30 2066 N 189.197 -1.51736 -0.425897 0
M  V30 2067 C 190.127 -1.76827 -1.52494 0
M  V30 2068 C 191.108 -0.618524 -1.58456 0
M  V30 2069 O 192.293 -0.862416 -1.74 0
M  V30 2070 C 189.423 -1.90374 -2.90474 0
M  V30 2071 C 188.377 -3.0588 -2.99369 0
M  V30 2072 C 187.703 -3.04625 -4.3944 0
M  V30 2073 C 189.003 -4.45644 -2.72394 0
M  V30 2074 H 190.697 -2.68855 -1.31748 0
M  V30 2075 H 188.243 -1.29372 -0.632362 0
M  V30 2076 H 190.196 -2.0651 -3.6733 0
M  V30 2077 H 188.92 -0.95004 -3.12477 0
M  V30 2078 H 187.579 -2.89467 -2.24954 0
M  V30 2079 H 187.227 -2.0701 -4.58428 0
M  V30 2080 H 186.927 -3.82195 -4.46319 0
M  V30 2081 H 188.451 -3.22869 -5.18255 0
M  V30 2082 H 189.865 -4.62348 -3.38979 0
M  V30 2083 H 188.262 -5.25006 -2.9067 0
M  V30 2084 H 189.332 -4.54893 -1.67929 0
M  V30 2085 N 190.675 0.682077 -1.42076 0
M  V30 2086 C 191.923 1.4393 -1.41876 0
M  V30 2087 C 192.244 1.94971 -0.0335599 0
M  V30 2088 O 191.514 1.72591 0.926773 0
M  V30 2089 H 190.094 0.534085 -0.522267 0
M  V30 2090 H 192.756 0.806427 -1.77434 0
M  V30 2091 H 191.852 2.29588 -2.11414 0
M  V30 2092 N 192.153 1.28127 0.917671 0
M  V30 2093 C 193.569 1.05749 1.19538 0
M  V30 2094 C 193.769 -0.202633 2.00479 0
M  V30 2095 O 192.825 -0.905382 2.3571 0
M  V30 2096 C 194.138 2.30273 1.93378 0
M  V30 2097 C 195.686 2.35412 2.06277 0
M  V30 2098 C 196.161 3.59692 2.83524 0
M  V30 2099 N 197.652 3.60309 2.91087 0
M  V30 2100 C 198.387 4.53147 3.51348 0
M  V30 2101 N 197.883 5.563 4.12919 0
M  V30 2102 N 199.676 4.40751 3.48849 0
M  V30 2103 H 191.827 2.09024 0.377184 0
M  V30 2104 H 194.09 0.919798 0.22951 0
M  V30 2105 H 193.796 3.22055 1.41328 0
M  V30 2106 H 193.67 2.36378 2.93947 0
M  V30 2107 H 196.057 1.4413 2.57508 0
M  V30 2108 H 196.138 2.33304 1.04895 0
M  V30 2109 H 195.782 4.51316 2.32973 0
M  V30 2110 H 195.712 3.59054 3.85211 0
M  V30 2111 H 198.203 2.85714 2.47338 0
M  V30 2112 H 198.516 6.2329 4.56869 0
M  V30 2113 H 196.861 5.60131 4.11435 0
M  V30 2114 H 200.052 3.59367 2.99955 0
M  V30 2115 H 200.225 5.13291 3.9552 0
M  V30 2116 N 193.631 -1.12557 1.10312 0
M  V30 2117 C 194.541 -2.21841 0.763142 0
M  V30 2118 C 195.557 -1.72354 -0.238801 0
M  V30 2119 O 196.733 -2.01249 -0.0778746 0
M  V30 2120 C 193.798 -3.46131 0.198632 0
M  V30 2121 C 192.859 -4.10464 1.25769 0
M  V30 2122 C 192.092 -5.28821 0.72002 0
M  V30 2123 O 192.315 -5.6859 -0.453993 0
M  V30 2124 O 191.249 -5.83437 1.47935 0
M  V30 2125 H 195.075 -2.53312 1.67532 0
M  V30 2126 H 192.66 -1.20867 0.878157 0
M  V30 2127 H 194.542 -4.2125 -0.112401 0
M  V30 2128 H 193.217 -3.16338 -0.686419 0
M  V30 2129 H 192.124 -3.3713 1.62156 0
M  V30 2130 H 193.457 -4.44408 2.11571 0
M  V30 2131 N 195.109 -0.891671 -1.2995 0
M  V30 2132 C 196.072 -0.36828 -2.26222 0
M  V30 2133 C 197.072 0.493014 -1.53056 0
M  V30 2134 O 198.262 0.299213 -1.71611 0
M  V30 2135 C 195.394 0.47442 -3.37583 0
M  V30 2136 H 196.587 -1.21844 -2.74033 0
M  V30 2137 H 194.14 -0.669107 -1.41254 0
M  V30 2138 H 194.875 1.34489 -2.95099 0
M  V30 2139 H 194.66 -0.142615 -3.91841 0
M  V30 2140 H 196.15 0.83218 -4.09224 0
M  V30 2141 N 196.587 1.43421 -0.653314 0
M  V30 2142 C 197.864 1.95361 -0.0966581 0
M  V30 2143 C 198.244 1.59461 1.38331 0
M  V30 2144 O 197.592 0.879777 2.10884 0
M  V30 2145 C 197.802 3.47311 -0.342988 0
M  V30 2146 C 199.15 4.23875 -0.24798 0
M  V30 2147 O 200.174 3.55133 -0.275553 0
M  V30 2148 O 199.033 5.4623 -0.171771 0
M  V30 2149 H 196.127 0.826945 0.00956291 0
M  V30 2150 H 198.673 1.5336 -0.726558 0
M  V30 2151 H 197.445 3.66569 -1.36906 0
M  V30 2152 H 197.068 3.9631 0.319975 0
M  V30 2153 N 198.065 0.39524 1.52563 0
M  V30 2154 C 199.313 -0.184678 2.01254 0
M  V30 2155 C 199.634 -1.46822 1.28329 0
M  V30 2156 O 198.904 -1.91666 0.405094 0
M  V30 2157 H 197.484 -0.0712355 0.743596 0
M  V30 2158 H 200.146 0.528293 1.87603 0
M  V30 2159 H 199.242 -0.390681 3.09645 0
M  V30 2160 N 199.544 -1.57102 0.125237 0
M  V30 2161 C 200.79 -1.96488 -0.525753 0
M  V30 2162 C 201.145 -1.00786 -1.6389 0
M  V30 2163 O 200.438 -0.038979 -1.9156 0
M  V30 2164 C 200.632 -3.40096 -1.09862 0
M  V30 2165 C 200.461 -4.4968 -0.0425004 0
M  V30 2166 C 199.231 -5.03781 0.391463 0
M  V30 2167 C 201.429 -5.08936 0.740829 0
M  V30 2168 N 199.411 -5.96948 1.4327 0
M  V30 2169 C 200.782 -5.98105 1.6331 0
M  V30 2170 C 202.837 -4.91576 0.791029 0
M  V30 2171 C 201.54 -6.71774 2.57122 0
M  V30 2172 C 203.566 -5.6593 1.71688 0
M  V30 2173 C 202.928 -6.5479 2.59672 0
M  V30 2174 H 199.027 -0.765072 -0.161831 0
M  V30 2175 H 201.611 -1.93511 0.214801 0
M  V30 2176 H 199.782 -3.43707 -1.80887 0
M  V30 2177 H 201.514 -3.66591 -1.71444 0
M  V30 2178 H 198.269 -4.736 -0.00213584 0
M  V30 2179 H 198.693 -6.48236 1.95243 0
M  V30 2180 H 203.335 -4.22615 0.124915 0
M  V30 2181 H 201.053 -7.39977 3.24744 0
M  V30 2182 H 204.639 -5.54501 1.76125 0
M  V30 2183 H 203.519 -7.11316 3.30149 0
M  V30 2184 N 201.022 0.148545 -1.56898 0
M  V30 2185 C 202.438 0.501131 -1.51528 0
M  V30 2186 C 202.638 1.83458 -0.833399 0
M  V30 2187 O 201.694 2.49259 -0.40328 0
M  V30 2188 C 203.007 0.512864 -2.96294 0
M  V30 2189 C 204.555 0.598487 -3.07225 0
M  V30 2190 C 205.03 0.640897 -4.53494 0
M  V30 2191 N 206.521 0.703163 -4.57832 0
M  V30 2192 C 207.256 0.756935 -5.68382 0
M  V30 2193 N 206.752 0.770147 -6.88506 0
M  V30 2194 N 208.545 0.797698 -5.56411 0
M  V30 2195 H 200.696 -0.725532 -1.99624 0
M  V30 2196 H 202.959 -0.264358 -0.910395 0
M  V30 2197 H 202.665 -0.398691 -3.49433 0
M  V30 2198 H 202.539 1.35133 -3.52163 0
M  V30 2199 H 204.926 1.50046 -2.54106 0
M  V30 2200 H 205.007 -0.267093 -2.54402 0
M  V30 2201 H 204.651 -0.256915 -5.0725 0
M  V30 2202 H 204.581 1.52295 -5.04097 0
M  V30 2203 H 207.072 0.700314 -3.71354 0
M  V30 2204 H 207.385 0.812983 -7.68512 0
M  V30 2205 H 205.73 0.738049 -6.9107 0
M  V30 2206 H 208.921 0.784535 -4.61479 0
M  V30 2207 H 209.094 0.83614 -6.42583 0
M  V30 2208 N 202.5 1.5196 0.417844 0
M  V30 2209 C 203.73 1.69181 1.18581 0
M  V30 2210 C 204.138 0.397104 1.84986 0
M  V30 2211 O 203.481 -0.636011 1.72339 0
M  V30 2212 C 203.543 2.76497 2.29759 0
M  V30 2213 C 203.207 4.18514 1.83563 0
M  V30 2214 C 204.204 5.02648 1.32821 0
M  V30 2215 C 201.889 4.64708 1.90661 0
M  V30 2216 C 203.883 6.31044 0.897894 0
M  V30 2217 C 201.57 5.93096 1.47241 0
M  V30 2218 C 202.568 6.76093 0.968891 0
M  V30 2219 O 202.256 8.02078 0.540924 0
M  V30 2220 H 201.988 0.570457 0.362705 0
M  V30 2221 H 204.542 1.99249 0.498885 0
M  V30 2222 H 202.772 2.41786 3.01789 0
M  V30 2223 H 204.461 2.82403 2.91553 0
M  V30 2224 H 205.227 4.68154 1.26716 0
M  V30 2225 H 201.106 4.00216 2.28797 0
M  V30 2226 H 204.65 6.95776 0.504192 0
M  V30 2227 H 200.547 6.271 1.53022 0
M  V30 2228 H 201.315 8.15794 0.66502 0
M  V30 2229 N 203.978 -0.674533 1.42435 0
M  V30 2230 C 204.91 -1.80005 1.41883 0
M  V30 2231 C 205.923 -1.59667 0.31787 0
M  V30 2232 O 207.112 -1.68781 0.580973 0
M  V30 2233 C 204.212 -3.17114 1.19549 0
M  V30 2234 C 203.385 -3.64299 2.42084 0
M  V30 2235 C 202.444 -4.80142 2.15291 0
M  V30 2236 O 201.47 -4.90673 2.88493 0
M  V30 2237 N 202.672 -5.68869 1.1562 0
M  V30 2238 H 205.437 -1.80964 2.38898 0
M  V30 2239 H 202.998 -0.857633 1.37318 0
M  V30 2240 H 204.99 -3.92267 0.995417 0
M  V30 2241 H 203.56 -3.11053 0.310569 0
M  V30 2242 H 202.78 -2.79822 2.77657 0
M  V30 2243 H 204.068 -3.92567 3.23679 0
M  V30 2244 H 203.466 -5.63012 0.550765 0
M  V30 2245 H 202.023 -6.43833 1.016 0
M  V30 2246 N 205.456 -1.28612 -0.910864 0
M  V30 2247 C 206.872 -1.06381 -1.18976 0
M  V30 2248 C 207.072 0.191998 -2.00583 0
M  V30 2249 O 206.128 0.892869 -2.36187 0
M  V30 2250 C 207.441 -2.31295 -1.92154 0
M  V30 2251 C 208.989 -2.36503 -2.05025 0
M  V30 2252 C 209.464 -3.61191 -2.81612 0
M  V30 2253 N 210.955 -3.61847 -2.89172 0
M  V30 2254 C 211.69 -4.55004 -3.4894 0
M  V30 2255 N 211.186 -5.58482 -4.09963 0
M  V30 2256 N 212.979 -4.42594 -3.46506 0
M  V30 2257 H 205.13 -2.09221 -0.366094 0
M  V30 2258 H 207.393 -0.921003 -0.224629 0
M  V30 2259 H 207.099 -3.228 -1.39618 0
M  V30 2260 H 206.973 -2.37934 -2.9269 0
M  V30 2261 H 209.36 -1.45494 -2.5674 0
M  V30 2262 H 209.441 -2.33857 -1.03657 0
M  V30 2263 H 209.085 -4.52545 -2.30576 0
M  V30 2264 H 209.015 -3.61092 -3.83302 0
M  V30 2265 H 211.506 -2.87022 -2.45819 0
M  V30 2266 H 211.819 -6.25704 -4.53557 0
M  V30 2267 H 210.164 -5.62305 -4.08459 0
M  V30 2268 H 213.355 -3.60953 -2.98045 0
M  V30 2269 H 213.528 -5.15381 -3.92793 0
M  V30 2270 N 206.934 1.1197 -1.10907 0
M  V30 2271 C 208.345 1.65114 -0.871446 0
M  V30 2272 C 208.696 1.86885 0.597353 0
M  V30 2273 O 207.821 1.59896 1.45816 0
M  V30 2274 C 208.416 2.99944 -1.5754 0
M  V30 2275 C 206.975 3.50018 -1.38435 0
M  V30 2276 C 206.122 2.24941 -1.62164 0
M  V30 2277 H 209.073 0.956851 -1.2661 0
M  V30 2278 H 209.094 3.66651 -1.01721 0
M  V30 2279 H 208.606 2.84067 -2.64438 0
M  V30 2280 H 206.707 3.71071 -0.337214 0
M  V30 2281 H 206.82 4.29165 -2.12965 0
M  V30 2282 H 205.184 2.3229 -1.04467 0
M  V30 2283 H 205.967 2.11612 -2.70324 0
M  V30 2284 N 208.412 0.89855 1.29475 0
M  V30 2285 C 209.66 0.522847 1.9522 0
M  V30 2286 C 209.981 -0.93371 1.71192 0
M  V30 2287 O 209.251 -1.65823 1.04305 0
M  V30 2288 H 207.831 0.190366 0.722336 0
M  V30 2289 H 210.493 1.14459 1.5775 0
M  V30 2290 H 209.589 0.704476 3.04045 0
M  V30 2291 N 209.89 -1.43072 0.660911 0
M  V30 2292 C 210.837 -2.30785 -0.0259884 0
M  V30 2293 C 211.807 -1.45184 -0.806888 0
M  V30 2294 O 212.992 -1.74041 -0.781943 0
M  V30 2295 C 210.132 -3.30861 -0.981067 0
M  V30 2296 C 209.245 -4.31558 -0.195458 0
M  V30 2297 C 208.38 -5.18712 -1.14503 0
M  V30 2298 C 207.419 -6.11097 -0.350299 0
M  V30 2299 N 206.556 -6.90849 -1.25186 0
M  V30 2300 H 211.396 -2.88975 0.727846 0
M  V30 2301 H 208.933 -1.42353 0.370682 0
M  V30 2302 H 210.891 -3.87399 -1.54849 0
M  V30 2303 H 209.521 -2.74304 -1.70169 0
M  V30 2304 H 208.573 -3.77252 0.488374 0
M  V30 2305 H 209.885 -4.9701 0.422176 0
M  V30 2306 H 209.039 -5.79914 -1.78284 0
M  V30 2307 H 207.778 -4.53404 -1.79656 0
M  V30 2308 H 206.783 -5.48976 0.300808 0
M  V30 2309 H 208.008 -6.7845 0.296941 0
M  V30 2310 H 205.954 -6.28182 -1.89005 0
M  V30 2311 H 205.871 -7.52854 -0.688971 0
M  V30 2312 H 207.139 -7.5655 -1.87757 0
M  V30 2313 N 211.368 -0.403325 -1.52352 0
M  V30 2314 C 212.616 0.174003 -2.0135 0
M  V30 2315 C 212.937 1.46139 -1.29106 0
M  V30 2316 O 212.207 1.91448 -0.415253 0
M  V30 2317 H 210.787 0.0672911 -0.743963 0
M  V30 2318 H 213.449 -0.538235 -1.87321 0
M  V30 2319 H 212.545 0.374254 -3.09848 0
M  V30 2320 N 212.846 1.57033 -0.133567 0
M  V30 2321 C 214.257 1.82593 0.389464 0
M  V30 2322 C 214.608 1.05156 1.6564 0
M  V30 2323 O 213.733 0.292644 2.14412 0
M  V30 2324 C 214.328 3.31204 0.713377 0
M  V30 2325 C 212.887 3.57393 1.18098 0
M  V30 2326 C 212.034 2.76598 0.197126 0
M  V30 2327 H 214.985 1.54598 -0.358481 0
M  V30 2328 H 215.006 3.46627 1.56939 0
M  V30 2329 H 214.518 3.87537 -0.2089 0
M  V30 2330 H 212.619 3.06433 2.11966 0
M  V30 2331 H 212.732 4.65915 1.11624 0
M  V30 2332 H 211.096 2.45257 0.687088 0
M  V30 2333 H 211.879 3.35697 -0.718504 0
M  V30 2334 N 214.325 -0.140222 1.56975 0
M  V30 2335 C 215.55 -0.870414 1.88251 0
M  V30 2336 C 215.975 -1.73637 0.723312 0
M  V30 2337 O 215.333 -1.78329 -0.32689 0
M  V30 2338 C 215.381 -1.69737 3.18154 0
M  V30 2339 O 214.485 -2.80229 3.02565 0
M  V30 2340 H 213.826 -0.242025 0.61832 0
M  V30 2341 H 216.356 -0.128999 2.04193 0
M  V30 2342 H 216.366 -2.09099 3.50345 0
M  V30 2343 H 215.041 -1.06152 4.02125 0
M  V30 2344 H 213.618 -2.44224 2.81796 0
M  V30 2345 N 215.803 -1.52179 -0.40978 0
M  V30 2346 C 217.031 -1.70054 -1.17853 0
M  V30 2347 C 217.446 -0.409735 -1.843 0
M  V30 2348 O 216.803 0.614183 -1.71855 0
M  V30 2349 C 216.854 -2.83568 -2.24213 0
M  V30 2350 O 216.575 -4.0765 -1.60478 0
M  V30 2351 C 218.076 -3.12947 -3.13973 0
M  V30 2352 H 215.296 -0.569917 -0.354169 0
M  V30 2353 H 217.84 -1.98734 -0.482198 0
M  V30 2354 H 215.995 -2.57409 -2.89516 0
M  V30 2355 H 216.409 -4.70899 -2.30986 0
M  V30 2356 H 217.883 -3.95889 -3.84677 0
M  V30 2357 H 218.36 -2.26472 -3.76307 0
M  V30 2358 H 218.966 -3.40868 -2.5434 0
M  V30 2359 N 217.281 0.66697 -1.42791 0
M  V30 2360 C 218.211 1.79218 -1.49677 0
M  V30 2361 C 219.192 1.66405 -0.352623 0
M  V30 2362 O 220.377 1.85708 -0.567993 0
M  V30 2363 C 217.507 3.17565 -1.40605 0
M  V30 2364 C 216.461 3.45124 -2.53127 0
M  V30 2365 C 215.787 4.83127 -2.29112 0
M  V30 2366 C 217.087 3.41236 -3.95418 0
M  V30 2367 H 218.781 1.73713 -2.43853 0
M  V30 2368 H 216.327 0.83432 -1.17367 0
M  V30 2369 H 218.28 3.96022 -1.44029 0
M  V30 2370 H 217.004 3.23767 -0.429271 0
M  V30 2371 H 215.663 2.69031 -2.49034 0
M  V30 2372 H 215.311 4.85988 -1.29709 0
M  V30 2373 H 215.011 5.02528 -3.04531 0
M  V30 2374 H 216.535 5.63859 -2.34297 0
M  V30 2375 H 217.949 4.09651 -4.01073 0
M  V30 2376 H 216.346 3.72173 -4.70752 0
M  V30 2377 H 217.416 2.39665 -4.21532 0
M  V30 2378 N 218.759 1.29093 0.90403 0
M  V30 2379 C 219.989 1.19516 1.68522 0
M  V30 2380 C 220.397 -0.24738 1.87576 0
M  V30 2381 O 219.74 -1.17798 1.40959 0
M  V30 2382 C 219.802 1.83249 3.0929 0
M  V30 2383 C 219.466 3.32531 3.13484 0
M  V30 2384 C 220.463 4.28821 2.93953 0
M  V30 2385 C 218.148 3.73656 3.35688 0
M  V30 2386 C 220.142 5.64212 2.96553 0
M  V30 2387 C 217.829 5.0917 3.37919 0
M  V30 2388 C 218.827 6.04258 3.18373 0
M  V30 2389 O 218.515 7.37298 3.20385 0
M  V30 2390 H 218.247 0.415467 0.533257 0
M  V30 2391 H 220.801 1.70912 1.13922 0
M  V30 2392 H 219.031 1.26358 3.65473 0
M  V30 2393 H 220.72 1.68054 3.69476 0
M  V30 2394 H 221.486 3.98382 2.76616 0
M  V30 2395 H 217.365 3.00101 3.49943 0
M  V30 2396 H 220.909 6.38407 2.81216 0
M  V30 2397 H 216.806 5.39256 3.54787 0
M  V30 2398 H 217.574 7.46048 3.36681 0
M  V30 2399 N 220.237 -1.11381 1.11499 0
M  V30 2400 C 221.167 -2.19509 0.796125 0
M  V30 2401 C 222.148 -1.68458 -0.235796 0
M  V30 2402 O 223.333 -1.93947 -0.0991344 0
M  V30 2403 C 220.463 -3.46475 0.239205 0
M  V30 2404 C 219.417 -4.10744 1.20307 0
M  V30 2405 C 218.743 -5.32293 0.50683 0
M  V30 2406 C 220.043 -4.55597 2.55399 0
M  V30 2407 H 221.737 -2.46439 1.70024 0
M  V30 2408 H 219.283 -1.18446 0.818935 0
M  V30 2409 H 221.236 -4.214 0.00392006 0
M  V30 2410 H 219.96 -3.19006 -0.700206 0
M  V30 2411 H 218.619 -3.37813 1.42399 0
M  V30 2412 H 218.267 -5.01095 -0.437408 0
M  V30 2413 H 217.967 -5.76243 1.1497 0
M  V30 2414 H 219.491 -6.09956 0.280351 0
M  V30 2415 H 220.905 -5.21841 2.37391 0
M  V30 2416 H 219.302 -5.10363 3.15673 0
M  V30 2417 H 220.372 -3.69013 3.14575 0
M  V30 2418 N 221.715 -0.905404 -1.28997 0
M  V30 2419 C 222.992 -0.453513 -1.9027 0
M  V30 2420 C 223.372 1.06721 -1.82137 0
M  V30 2421 O 222.72 1.91159 -1.25182 0
M  V30 2422 C 222.93 -0.974494 -3.35119 0
M  V30 2423 C 224.278 -1.0216 -4.12127 0
M  V30 2424 O 225.302 -0.922557 -3.44046 0
M  V30 2425 O 224.161 -1.17121 -5.33802 0
M  V30 2426 H 221.255 -0.142347 -0.814657 0
M  V30 2427 H 223.801 -0.995642 -1.37423 0
M  V30 2428 H 222.573 -2.01848 -3.35221 0
M  V30 2429 H 222.196 -0.412706 -3.95452 0
M  V30 2430 N 223.193 1.4272 -0.668489 0
M  V30 2431 C 224.156 2.292 0.00448567 0
M  V30 2432 C 225.156 1.43001 0.735339 0
M  V30 2433 O 226.346 1.64461 0.57429 0
M  V30 2434 C 223.478 3.25375 1.01705 0
M  V30 2435 H 224.671 2.90199 -0.756608 0
M  V30 2436 H 222.224 1.50254 -0.430506 0
M  V30 2437 H 222.959 2.69301 1.80686 0
M  V30 2438 H 222.744 3.88944 0.496463 0
M  V30 2439 H 224.234 3.90245 1.48655 0
M  V30 2440 N 224.671 0.411399 1.52136 0
M  V30 2441 C 225.634 -0.401089 2.25663 0
M  V30 2442 C 226.634 -0.971732 1.28117 0
M  V30 2443 O 227.824 -0.850254 1.52041 0
M  V30 2444 C 224.956 -1.56483 3.02863 0
M  V30 2445 H 226.149 0.24295 2.98914 0
M  V30 2446 H 223.702 0.163968 1.55438 0
M  V30 2447 H 224.437 -2.24567 2.33967 0
M  V30 2448 H 224.222 -1.16211 3.74483 0
M  V30 2449 H 225.712 -2.13951 3.58629 0
M  V30 2450 N 226.149 -1.5696 0.141893 0
M  V30 2451 C 227.374 -2.00754 -0.520838 0
M  V30 2452 C 227.799 -1.0213 -1.57959 0
M  V30 2453 O 227.157 0.00371324 -1.813 0
M  V30 2454 C 227.205 -3.43318 -1.10294 0
M  V30 2455 O 226.309 -3.47679 -2.21795 0
M  V30 2456 H 225.65 -0.651564 -0.127908 0
M  V30 2457 H 228.18 -2.03221 0.23712 0
M  V30 2458 H 228.19 -3.82012 -1.43287 0
M  V30 2459 H 226.865 -4.14608 -0.327574 0
M  V30 2460 H 225.442 -3.20824 -1.9007 0
M  V30 2461 N 227.627 0.131896 -1.57047 0
M  V30 2462 C 228.875 0.840269 -1.83804 0
M  V30 2463 C 229.196 1.81017 -0.72512 0
M  V30 2464 O 228.466 1.94272 0.251995 0
M  V30 2465 H 227.046 0.313294 -0.678127 0
M  V30 2466 H 229.708 0.122294 -1.94516 0
M  V30 2467 H 228.804 1.39335 -2.79271 0
M  V30 2468 N 229.106 1.52395 0.401703 0
M  V30 2469 C 230.334 1.70676 1.16949 0
M  V30 2470 C 230.749 0.419503 1.8408 0
M  V30 2471 O 230.106 -0.605061 1.72178 0
M  V30 2472 C 230.157 2.84753 2.22706 0
M  V30 2473 O 229.878 4.08495 1.58314 0
M  V30 2474 C 231.379 3.14608 3.12309 0
M  V30 2475 H 228.599 0.571787 0.351142 0
M  V30 2476 H 231.143 1.98987 0.471652 0
M  V30 2477 H 229.298 2.58941 2.88147 0
M  V30 2478 H 229.712 4.72117 2.28485 0
M  V30 2479 H 231.186 3.97923 3.82572 0
M  V30 2480 H 231.663 2.28464 3.75101 0
M  V30 2481 H 232.269 3.42212 2.52529 0
M  V30 2482 N 230.584 -0.659388 1.43143 0
M  V30 2483 C 231.995 -1.24041 1.39537 0
M  V30 2484 C 232.346 -1.95963 0.0963364 0
M  V30 2485 O 231.471 -2.00892 -0.804438 0
M  V30 2486 C 232.066 -2.25601 2.52764 0
M  V30 2487 C 230.625 -2.79195 2.52443 0
M  V30 2488 C 229.772 -1.53743 2.30778 0
M  V30 2489 H 232.723 -0.451792 1.52133 0
M  V30 2490 H 232.744 -3.07651 2.23899 0
M  V30 2491 H 232.256 -1.73226 3.47296 0
M  V30 2492 H 230.357 -3.35649 1.61773 0
M  V30 2493 H 230.47 -3.2716 3.50004 0
M  V30 2494 H 228.834 -1.80869 1.79328 0
M  V30 2495 H 229.617 -1.03312 3.27386 0
M  V30 2496 N 232.062 -1.29571 -0.897171 0
M  V30 2497 C 232.992 -1.17473 -2.01798 0
M  V30 2498 C 233.973 -0.068323 -1.69963 0
M  V30 2499 O 235.158 -0.248239 -1.92607 0
M  V30 2500 C 232.288 -0.853099 -3.36659 0
M  V30 2501 C 231.242 -1.9161 -3.82713 0
M  V30 2502 C 230.568 -1.44773 -5.14728 0
M  V30 2503 C 231.868 -3.32535 -4.02763 0
M  V30 2504 H 233.562 -2.11237 -2.12177 0
M  V30 2505 H 231.108 -1.01699 -1.01948 0
M  V30 2506 H 233.061 -0.755165 -4.14578 0
M  V30 2507 H 231.785 0.120236 -3.26379 0
M  V30 2508 H 230.444 -2.00346 -3.07013 0
M  V30 2509 H 230.092 -0.462995 -5.00865 0
M  V30 2510 H 229.792 -2.15865 -5.46513 0
M  V30 2511 H 231.316 -1.36334 -5.95185 0
M  V30 2512 H 232.73 -3.26626 -4.71156 0
M  V30 2513 H 231.127 -4.01607 -4.45905 0
M  V30 2514 H 232.197 -3.75326 -3.07016 0
M  V30 2515 N 233.54 1.10788 -1.12088 0
M  V30 2516 C 234.956 1.34691 -0.856186 0
M  V30 2517 C 235.156 1.94791 0.515615 0
M  V30 2518 O 234.212 2.18524 1.26505 0
M  V30 2519 C 235.525 2.27208 -1.9697 0
M  V30 2520 C 237.073 2.40755 -2.00016 0
M  V30 2521 C 237.548 3.36598 -3.1059 0
M  V30 2522 N 239.039 3.44164 -3.10008 0
M  V30 2523 C 239.774 4.18284 -3.92206 0
M  V30 2524 N 239.27 4.95322 -4.84384 0
M  V30 2525 N 241.063 4.13865 -3.80357 0
M  V30 2526 H 233.214 0.70144 -2.00483 0
M  V30 2527 H 235.477 0.371405 -0.872217 0
M  V30 2528 H 235.183 1.90251 -2.958 0
M  V30 2529 H 235.057 3.27485 -1.87172 0
M  V30 2530 H 237.444 2.76982 -1.01808 0
M  V30 2531 H 237.525 1.40305 -2.13888 0
M  V30 2532 H 237.169 3.01096 -4.09028 0
M  V30 2533 H 237.099 4.36918 -2.93956 0
M  V30 2534 H 239.59 2.8922 -2.43228 0
M  V30 2535 H 239.903 5.49267 -5.43623 0
M  V30 2536 H 238.248 4.94459 -4.884 0
M  V30 2537 H 241.439 3.52773 -3.07683 0
M  V30 2538 H 241.612 4.71372 -4.44649 0
M  V30 2539 N 235.018 0.912232 1.28515 0
M  V30 2540 C 235.951 0.343928 2.25593 0
M  V30 2541 C 236.929 -0.550994 1.5298 0
M  V30 2542 O 238.113 -0.494991 1.81885 0
M  V30 2543 C 235.24 -0.508525 3.34861 0
M  V30 2544 C 234.286 0.320808 4.25292 0
M  V30 2545 S 235.119 1.72658 5.06902 0
M  V30 2546 C 236.275 0.881394 6.19663 0
M  V30 2547 H 236.508 1.16674 2.73449 0
M  V30 2548 H 234.041 0.713384 1.36931 0
M  V30 2549 H 235.999 -0.994539 3.9827 0
M  V30 2550 H 234.66 -1.30571 2.85675 0
M  V30 2551 H 233.853 -0.330941 5.02912 0
M  V30 2552 H 233.455 0.74042 3.66598 0
M  V30 2553 H 235.747 0.110359 6.7741 0
M  V30 2554 H 236.69 1.63009 6.89082 0
M  V30 2555 H 237.098 0.430239 5.62858 0
M  V30 2556 N 236.496 -1.42363 0.676048 0
M  V30 2557 C 237.742 -2.0182 0.199125 0
M  V30 2558 C 238.075 -1.53339 -1.19168 0
M  V30 2559 O 237.35 -0.736124 -1.80032 0
M  V30 2560 C 237.633 -3.59331 0.235144 0
M  V30 2561 C 237.486 -4.17989 1.66149 0
M  V30 2562 C 238.805 -4.3813 -0.41595 0
M  V30 2563 H 235.924 -0.733293 0.0738311 0
M  V30 2564 H 238.566 -1.69368 0.86107 0
M  V30 2565 H 236.716 -3.87109 -0.328487 0
M  V30 2566 H 238.388 -4.0116 2.27747 0
M  V30 2567 H 236.631 -3.7377 2.20178 0
M  V30 2568 H 237.302 -5.27126 1.63837 0
M  V30 2569 H 239.778 -4.16051 0.0638529 0
M  V30 2570 H 238.654 -5.47717 -0.360115 0
M  V30 2571 H 238.915 -4.16101 -1.49373 0
M  V30 2572 N 237.974 -0.419461 -1.51915 0
M  V30 2573 C 239.202 0.152136 -2.0634 0
M  V30 2574 C 239.617 1.37988 -1.28859 0
M  V30 2575 O 238.974 1.79243 -0.343232 0
M  V30 2576 C 239.025 0.492266 -3.58133 0
M  V30 2577 O 238.746 -0.686736 -4.32684 0
M  V30 2578 C 240.247 1.11648 -4.2901 0
M  V30 2579 H 237.467 0.0158325 -0.670813 0
M  V30 2580 H 240.011 -0.593394 -1.95702 0
M  V30 2581 H 238.166 1.18769 -3.68745 0
M  V30 2582 H 238.58 -0.400341 -5.2297 0
M  V30 2583 H 240.054 1.3046 -5.36362 0
M  V30 2584 H 240.531 2.09251 -3.86148 0
M  V30 2585 H 241.137 0.460958 -4.22795 0
M  V30 2586 N 239.452 1.56882 -0.150215 0
M  V30 2587 C 240.7 1.9584 0.499105 0
M  V30 2588 C 241.021 1.03623 1.65188 0
M  V30 2589 O 240.291 0.0984084 1.95653 0
M  V30 2590 H 238.871 0.723119 0.187373 0
M  V30 2591 H 241.533 1.9358 -0.226466 0
M  V30 2592 H 240.629 2.99638 0.873122 0
M  V30 2593 N 240.93 -0.123565 1.57115 0
M  V30 2594 C 242.207 -0.862196 1.75572 0
M  V30 2595 C 242.587 -1.98279 0.724475 0
M  V30 2596 O 241.935 -2.27102 -0.252407 0
M  V30 2597 C 242.145 -1.38309 3.20424 0
M  V30 2598 C 243.493 -1.83724 3.82793 0
M  V30 2599 O 244.517 -1.47999 3.23998 0
M  V30 2600 O 243.376 -2.49685 4.86127 0
M  V30 2601 H 240.47 -0.409113 0.718718 0
M  V30 2602 H 243.016 -0.107661 1.69358 0
M  V30 2603 H 241.788 -0.578889 3.86994 0
M  V30 2604 H 241.411 -2.20046 3.31158 0
M  V30 2605 N 242.408 -1.52605 -0.393616 0
M  V30 2606 C 243.318 -1.79971 -1.50492 0
M  V30 2607 C 244.334 -0.686181 -1.59899 0
M  V30 2608 O 245.51 -0.973274 -1.76322 0
M  V30 2609 C 242.575 -1.95867 -2.86072 0
M  V30 2610 C 241.636 -3.19781 -2.86424 0
M  V30 2611 C 240.869 -3.34909 -4.15538 0
M  V30 2612 O 241.092 -2.54948 -5.10253 0
M  V30 2613 O 240.026 -4.28141 -4.23059 0
M  V30 2614 H 243.852 -2.74328 -1.30299 0
M  V30 2615 H 241.437 -1.3764 -0.581005 0
M  V30 2616 H 243.319 -2.08056 -3.66457 0
M  V30 2617 H 241.994 -1.04699 -3.063 0
M  V30 2618 H 240.901 -3.13038 -2.04837 0
M  V30 2619 H 242.234 -4.1078 -2.71147 0
M  V30 2620 N 243.887 0.651787 -1.4349 0
M  V30 2621 C 244.85 1.74647 -1.48429 0
M  V30 2622 C 245.85 1.56513 -0.368817 0
M  V30 2623 O 247.04 1.62385 -0.630623 0
M  V30 2624 C 244.172 3.13533 -1.33827 0
M  V30 2625 H 245.365 1.71649 -2.4592 0
M  V30 2626 H 242.918 0.863573 -1.30277 0
M  V30 2627 H 243.653 3.22142 -0.37349 0
M  V30 2628 H 243.438 3.28101 -2.14691 0
M  V30 2629 H 244.928 3.93356 -1.40218 0
M  V30 2630 N 245.365 1.30045 0.890287 0
M  V30 2631 C 246.59 1.21598 1.68014 0
M  V30 2632 C 247.015 -0.218678 1.86825 0
M  V30 2633 O 246.373 -1.15756 1.39536 0
M  V30 2634 C 246.421 1.94434 3.03691 0
M  V30 2635 O 245.525 1.2678 3.92429 0
M  V30 2636 H 244.866 0.420856 0.513592 0
M  V30 2637 H 247.396 1.71775 1.11151 0
M  V30 2638 H 247.406 2.03251 3.5377 0
M  V30 2639 H 246.081 2.98777 2.89318 0
M  V30 2640 H 244.658 1.26282 3.50866 0
M  V30 2641 N 246.843 -1.10192 1.12674 0
M  V30 2642 C 248.259 -1.34235 0.863317 0
M  V30 2643 C 248.459 -1.95062 -0.505277 0
M  V30 2644 O 247.515 -2.19192 -1.25345 0
M  V30 2645 C 248.828 -2.2616 1.98172 0
M  V30 2646 C 250.376 -2.3969 2.0129 0
M  V30 2647 C 250.851 -3.34946 3.1237 0
M  V30 2648 N 252.342 -3.42515 3.11829 0
M  V30 2649 C 253.077 -4.16199 3.94419 0
M  V30 2650 N 252.573 -4.92747 4.87004 0
M  V30 2651 N 254.366 -4.11843 3.82547 0
M  V30 2652 H 246.517 -0.690798 2.00853 0
M  V30 2653 H 248.78 -0.366774 0.874174 0
M  V30 2654 H 248.486 -1.8868 2.96804 0
M  V30 2655 H 248.36 -3.26488 1.88906 0
M  V30 2656 H 250.747 -2.76438 1.03276 0
M  V30 2657 H 250.828 -1.39169 2.14629 0
M  V30 2658 H 250.472 -2.98923 4.10619 0
M  V30 2659 H 250.402 -4.35353 2.96269 0
M  V30 2660 H 252.893 -2.87926 2.44759 0
M  V30 2661 H 253.206 -5.46376 5.46528 0
M  V30 2662 H 251.551 -4.91862 4.91016 0
M  V30 2663 H 254.742 -3.51136 3.0955 0
M  V30 2664 H 254.915 -4.69007 4.47142 0
M  V30 2665 N 248.321 -0.919034 -1.28029 0
M  V30 2666 C 249.284 -0.416182 -2.2539 0
M  V30 2667 C 250.284 0.460438 -1.54067 0
M  V30 2668 O 251.474 0.262744 -1.72207 0
M  V30 2669 C 248.606 0.402707 -3.38513 0
M  V30 2670 H 249.799 -1.27629 -2.71387 0
M  V30 2671 H 247.352 -0.698919 -1.39803 0
M  V30 2672 H 248.087 1.282 -2.97885 0
M  V30 2673 H 247.872 -0.225698 -3.9145 0
M  V30 2674 H 249.362 0.745191 -4.10897 0
M  V30 2675 N 249.799 1.42003 -0.683588 0
M  V30 2676 C 251.024 2.06265 -0.216647 0
M  V30 2677 C 251.449 1.51059 1.12083 0
M  V30 2678 O 250.807 0.632638 1.69904 0
M  V30 2679 C 250.855 3.60191 -0.171759 0
M  V30 2680 O 249.959 4.03396 0.857069 0
M  V30 2681 H 249.3 0.65502 -0.108834 0
M  V30 2682 H 251.83 1.81982 -0.935077 0
M  V30 2683 H 251.84 4.08 0.0014303 0
M  V30 2684 H 250.515 3.99743 -1.14796 0
M  V30 2685 H 249.092 3.67117 0.654208 0
M  V30 2686 N 251.277 0.427512 1.51691 0
M  V30 2687 C 252.207 -0.3796 2.30394 0
M  V30 2688 C 253.188 -1.02982 1.35384 0
M  V30 2689 O 254.373 -1.03534 1.643 0
M  V30 2690 C 251.503 -1.48649 3.1388 0
M  V30 2691 C 250.457 -0.960294 4.17088 0
M  V30 2692 C 249.783 -2.16219 4.89033 0
M  V30 2693 C 251.083 -0.00153679 5.223 0
M  V30 2694 H 252.777 0.277164 2.98114 0
M  V30 2695 H 250.323 0.134739 1.43368 0
M  V30 2696 H 252.276 -2.05826 3.67714 0
M  V30 2697 H 251 -2.1714 2.43962 0
M  V30 2698 H 249.659 -0.410806 3.64291 0
M  V30 2699 H 249.307 -2.83307 4.15628 0
M  V30 2700 H 249.007 -1.81654 5.58816 0
M  V30 2701 H 250.531 -2.73968 5.45687 0
M  V30 2702 H 251.945 -0.482687 5.71264 0
M  V30 2703 H 250.342 0.256199 5.99553 0
M  V30 2704 H 251.412 0.938174 4.75738 0
M  V30 2705 N 252.755 -1.56801 0.158532 0
M  V30 2706 C 254.171 -1.5837 -0.197774 0
M  V30 2707 C 254.371 -1.17334 -1.63814 0
M  V30 2708 O 253.427 -0.878988 -2.36707 0
M  V30 2709 C 254.74 -3.00615 0.0714459 0
M  V30 2710 C 256.288 -3.12999 0.00864533 0
M  V30 2711 C 256.763 -4.57313 0.250685 0
M  V30 2712 N 258.254 -4.62777 0.198014 0
M  V30 2713 C 258.989 -5.72271 0.359642 0
M  V30 2714 N 258.485 -6.90371 0.579625 0
M  V30 2715 N 260.278 -5.61318 0.296438 0
M  V30 2716 H 252.429 -1.81765 1.09887 0
M  V30 2717 H 254.692 -0.841849 0.435884 0
M  V30 2718 H 254.398 -3.35068 1.06874 0
M  V30 2719 H 254.272 -3.71683 -0.642757 0
M  V30 2720 H 256.659 -2.7838 -0.979217 0
M  V30 2721 H 256.74 -2.44393 0.755359 0
M  V30 2722 H 256.384 -4.92639 1.2357 0
M  V30 2723 H 256.314 -5.24061 -0.516489 0
M  V30 2724 H 258.805 -3.77885 0.0331115 0
M  V30 2725 H 259.118 -7.69689 0.69275 0
M  V30 2726 H 257.463 -6.92264 0.616087 0
M  V30 2727 H 260.654 -4.67932 0.125258 0
M  V30 2728 H 260.827 -6.46599 0.425831 0
M  V30 2729 N 254.233 0.115231 -1.57178 0
M  V30 2730 C 255.51 0.852873 -1.76027 0
M  V30 2731 C 255.89 1.97892 -0.73498 0
M  V30 2732 O 255.238 2.27232 0.24036 0
M  V30 2733 C 255.448 1.36608 -3.21153 0
M  V30 2734 C 256.796 1.81692 -3.83762 0
M  V30 2735 O 257.82 1.46278 -3.24779 0
M  V30 2736 O 256.679 2.47104 -4.87444 0
M  V30 2737 H 253.773 0.405296 -0.720877 0
M  V30 2738 H 256.319 0.0986785 -1.69413 0
M  V30 2739 H 255.091 0.558357 -3.87296 0
M  V30 2740 H 254.714 2.18287 -3.3232 0
M  V30 2741 N 255.711 1.52812 0.385517 0
M  V30 2742 C 256.958 1.68026 1.1302 0
M  V30 2743 C 257.286 0.421934 1.89868 0
M  V30 2744 O 256.541 -0.595749 1.86412 0
M  V30 2745 C 256.84 2.86856 2.13187 0
M  V30 2746 C 256.506 4.24159 1.5297 0
M  V30 2747 C 255.168 4.61501 1.36274 0
M  V30 2748 C 257.52 5.09627 1.09223 0
M  V30 2749 C 254.848 5.81966 0.743837 0
M  V30 2750 C 257.2 6.30719 0.487411 0
M  V30 2751 C 255.864 6.6679 0.307777 0
M  V30 2752 H 255.134 0.614849 0.413571 0
M  V30 2753 H 257.781 1.86962 0.414405 0
M  V30 2754 H 256.086 2.6235 2.90998 0
M  V30 2755 H 257.783 2.95821 2.70722 0
M  V30 2756 H 254.373 3.94746 1.66954 0
M  V30 2757 H 258.557 4.81343 1.20922 0
M  V30 2758 H 253.813 6.08519 0.592891 0
M  V30 2759 H 257.987 6.96259 0.140143 0
M  V30 2760 H 255.614 7.60001 -0.173879 0
M  V30 2761 N 257.189 -0.644168 1.43834 0
M  V30 2762 C 258.6 -1.22554 1.40845 0
M  V30 2763 C 258.951 -1.9585 0.117115 0
M  V30 2764 O 258.076 -2.01734 -0.783086 0
M  V30 2765 C 258.671 -2.22907 2.55143 0
M  V30 2766 C 257.23 -2.76501 2.5539 0
M  V30 2767 C 256.377 -1.51287 2.32396 0
M  V30 2768 H 259.328 -0.43563 1.52604 0
M  V30 2769 H 259.349 -3.05259 2.2715 0
M  V30 2770 H 258.861 -1.69533 3.49114 0
M  V30 2771 H 256.962 -3.33914 1.65324 0
M  V30 2772 H 257.075 -3.23429 3.53455 0
M  V30 2773 H 255.439 -1.78957 1.81236 0
M  V30 2774 H 256.222 -0.998336 3.28463 0
M  V30 2775 N 258.668 -1.30515 -0.883378 0
M  V30 2776 C 259.616 -1.16941 -2.01066 0
M  V30 2777 C 260.61 -0.0809148 -1.69207 0
M  V30 2778 O 261.816 -0.241877 -1.78367 0
M  V30 2779 H 258.191 -0.361705 -0.659298 0
M  V30 2780 H 260.162 -2.12344 -2.09649 0
M  V30 2781 C 258.911 -0.879694 -3.36388 0
M  V30 2782 H 258.234 -1.70936 -3.61415 0
M  V30 2783 H 259.674 -0.82483 -4.159 0
M  V30 2784 C 258.133 0.417409 -3.34304 0
M  V30 2785 O 258.663 1.43843 -3.75063 0
M  V30 2786 N 256.869 0.429141 -2.87414 0
M  V30 2787 H 256.416 -0.402222 -2.5444 0
M  V30 2788 H 256.374 1.29696 -2.86403 0
M  V30 2789 N 260.146 1.09593 -1.13257 0
M  V30 2790 C 261.392 1.82003 -0.89458 0
M  V30 2791 C 261.725 1.85402 0.577906 0
M  V30 2792 O 261 1.32099 1.42759 0
M  V30 2793 C 261.283 3.28237 -1.48096 0
M  V30 2794 C 261.136 3.3312 -3.02244 0
M  V30 2795 C 262.455 4.24871 -1.14774 0
M  V30 2796 H 259.574 0.66077 -0.326424 0
M  V30 2797 H 262.216 1.28389 -1.40058 0
M  V30 2798 H 260.366 3.74024 -1.05062 0
M  V30 2799 H 262.038 2.95748 -3.54021 0
M  V30 2800 H 260.281 2.72756 -3.37323 0
M  V30 2801 H 260.952 4.3613 -3.38371 0
M  V30 2802 H 263.428 3.87361 -1.51957 0
M  V30 2803 H 262.304 5.25532 -1.58452 0
M  V30 2804 H 262.565 4.42058 -0.0611849 0
M  V30 2805 N 261.624 0.925811 1.2754 0
M  V30 2806 C 262.849 0.580924 1.99098 0
M  V30 2807 C 263.274 -0.833555 1.68622 0
M  V30 2808 O 262.632 -1.55903 0.925422 0
M  V30 2809 C 262.68 0.811186 3.51358 0
M  V30 2810 O 261.784 -0.124129 4.12213 0
M  V30 2811 H 261.125 0.223873 0.625122 0
M  V30 2812 H 263.655 1.24455 1.62395 0
M  V30 2813 H 263.665 0.72601 4.01489 0
M  V30 2814 H 262.34 1.84227 3.72872 0
M  V30 2815 H 260.917 0.0108006 3.72898 0
M  V30 2816 N 263.102 -1.41638 0.69111 0
M  V30 2817 C 264.012 -2.34588 0.0233487 0
M  V30 2818 C 265.028 -1.55987 -0.770984 0
M  V30 2819 O 266.204 -1.88486 -0.709569 0
M  V30 2820 C 263.269 -3.34684 -0.904851 0
M  V30 2821 C 262.33 -4.29176 -0.103225 0
M  V30 2822 C 261.563 -5.2449 -0.987216 0
M  V30 2823 O 261.786 -5.2514 -2.22674 0
M  V30 2824 O 260.72 -6.00295 -0.439281 0
M  V30 2825 H 264.546 -2.93261 0.789416 0
M  V30 2826 H 262.131 -1.42417 0.45142 0
M  V30 2827 H 264.013 -3.96133 -1.43724 0
M  V30 2828 H 262.688 -2.78461 -1.65049 0
M  V30 2829 H 261.595 -3.71089 0.473655 0
M  V30 2830 H 262.928 -4.88484 0.60365 0
M  V30 2831 N 264.58 -0.43555 -1.51462 0
M  V30 2832 C 265.543 0.365137 -2.26273 0
M  V30 2833 C 266.543 0.951227 -1.29647 0
M  V30 2834 O 267.733 0.825958 -1.53374 0
M  V30 2835 C 264.865 1.51645 -3.05314 0
M  V30 2836 H 266.058 -0.290474 -2.9849 0
M  V30 2837 H 263.611 -0.188676 -1.55157 0
M  V30 2838 H 264.346 2.20816 -2.3751 0
M  V30 2839 H 264.131 1.10238 -3.76284 0
M  V30 2840 H 265.621 2.08218 -3.61987 0
M  V30 2841 N 266.058 1.56714 -0.166846 0
M  V30 2842 C 266.968 2.21331 0.777791 0
M  V30 2843 C 267.984 1.20358 1.25658 0
M  V30 2844 O 269.16 1.53005 1.30964 0
M  V30 2845 C 266.225 2.83787 1.99163 0
M  V30 2846 C 265.286 3.99947 1.56016 0
M  V30 2847 C 264.519 4.59415 2.71613 0
M  V30 2848 O 264.742 4.17769 3.88362 0
M  V30 2849 O 263.676 5.49359 2.45945 0
M  V30 2850 H 267.502 3.02605 0.257636 0
M  V30 2851 H 265.087 1.49275 0.0611393 0
M  V30 2852 H 266.969 3.23405 2.70161 0
M  V30 2853 H 265.644 2.05513 2.50092 0
M  V30 2854 H 264.551 3.65007 0.819809 0
M  V30 2855 H 265.884 4.79801 1.09782 0
M  V30 2856 N 267.536 -0.106894 1.57237 0
M  V30 2857 C 268.785 -0.811163 1.8467 0
M  V30 2858 C 269.098 -1.80469 0.754342 0
M  V30 2859 O 270.304 -2.55601 0.915439 0
M  V30 2860 C 268.76 -1.49337 3.27454 0
M  V30 2861 C 268.368 -0.540217 4.44731 0
M  V30 2862 C 270.112 -2.18206 3.64124 0
M  V30 2863 C 268.019 -1.22634 5.78545 0
M  V30 2864 H 266.949 -0.306679 0.688813 0
M  V30 2865 H 269.6 -0.0639887 1.83388 0
M  V30 2866 H 267.982 -2.2876 3.23241 0
M  V30 2867 H 269.156 0.221659 4.60267 0
M  V30 2868 H 267.471 0.042146 4.16379 0
M  V30 2869 H 270.068 -2.70253 4.61376 0
M  V30 2870 H 270.411 -2.96562 2.92158 0
M  V30 2871 H 270.944 -1.45658 3.70174 0
M  V30 2872 H 267.683 -0.483832 6.53712 0
M  V30 2873 H 267.203 -1.95993 5.66874 0
M  V30 2874 H 268.882 -1.75615 6.2271 0
M  V30 2875 N 269.014 -1.53014 -0.377408 0
M  V30 2876 C 270.425 -1.60438 -0.954798 0
M  V30 2877 C 270.776 -0.464418 -1.90624 0
M  V30 2878 O 269.901 0.41087 -2.12464 0
M  V30 2879 C 270.496 -2.90797 -1.73847 0
M  V30 2880 C 269.055 -3.00595 -2.26538 0
M  V30 2881 C 268.202 -2.55645 -1.07429 0
M  V30 2882 H 271.153 -1.57926 -0.156575 0
M  V30 2883 H 271.174 -2.77935 -2.5987 0
M  V30 2884 H 270.686 -3.73746 -1.04574 0
M  V30 2885 H 268.787 -2.22208 -2.99089 0
M  V30 2886 H 268.9 -4.05456 -2.5523 0
M  V30 2887 H 267.264 -2.10239 -1.43777 0
M  V30 2888 H 268.047 -3.41 -0.396728 0
M  V30 2889 N 270.492 0.636531 -1.44174 0
M  V30 2890 C 271.769 1.39463 -1.37148 0
M  V30 2891 C 272.149 2.11082 -0.027507 0
M  V30 2892 O 271.497 2.05954 0.989716 0
M  V30 2893 C 271.707 2.36552 -2.56601 0
M  V30 2894 C 273.055 3.00048 -3.00427 0
M  V30 2895 O 274.079 2.46878 -2.56767 0
M  V30 2896 O 272.938 3.96488 -3.76111 0
M  V30 2897 H 270.032 0.623903 -0.542839 0
M  V30 2898 H 272.578 0.662039 -1.56253 0
M  V30 2899 H 271.35 1.82692 -3.46034 0
M  V30 2900 H 270.973 3.17236 -2.39681 0
M  V30 2901 N 271.97 1.30982 0.876444 0
M  V30 2902 C 272.933 1.18054 1.96459 0
M  V30 2903 C 273.933 0.109399 1.60427 0
M  V30 2904 O 275.123 0.358173 1.70478 0
M  V30 2905 C 272.255 0.810616 3.31122 0
M  V30 2906 H 273.448 2.14735 2.09354 0
M  V30 2907 H 271.001 1.145 1.06392 0
M  V30 2908 H 271.736 -0.155322 3.23928 0
M  V30 2909 H 271.521 1.58481 3.58645 0
M  V30 2910 H 273.011 0.743876 4.10921 0
M  V30 2911 N 273.449 -1.08991 1.13837 0
M  V30 2912 C 274.695 -1.81526 0.90422 0
M  V30 2913 C 275.028 -1.85706 -0.568066 0
M  V30 2914 O 274.303 -1.32855 -1.42056 0
M  V30 2915 C 274.586 -3.27447 1.49835 0
M  V30 2916 C 274.439 -3.31512 3.04006 0
M  V30 2917 C 275.758 -4.24256 1.17025 0
M  V30 2918 H 272.877 -0.659029 0.329923 0
M  V30 2919 H 275.519 -1.27644 1.40737 0
M  V30 2920 H 273.669 -3.73462 1.07044 0
M  V30 2921 H 275.341 -2.93867 3.55584 0
M  V30 2922 H 273.584 -2.70963 3.38765 0
M  V30 2923 H 274.255 -4.34329 3.40679 0
M  V30 2924 H 276.731 -3.86549 1.54009 0
M  V30 2925 H 275.607 -5.24684 1.61237 0
M  V30 2926 H 275.868 -4.42019 0.0846274 0
M  V30 2927 N 274.927 -0.932562 -1.27047 0
M  V30 2928 C 276.174 -0.575559 -1.94148 0
M  V30 2929 C 276.502 0.883984 -1.73251 0
M  V30 2930 O 275.757 1.64655 -1.0577 0
M  V30 2931 C 276.056 -0.853713 -3.47054 0
M  V30 2932 C 275.722 -2.29577 -3.88079 0
M  V30 2933 C 274.384 -2.68999 -3.9899 0
M  V30 2934 C 276.736 -3.23331 -4.08787 0
M  V30 2935 C 274.064 -4.01289 -4.28 0
M  V30 2936 C 276.416 -4.55207 -4.39282 0
M  V30 2937 C 275.08 -4.94457 -4.48407 0
M  V30 2938 H 274.35 -0.210612 -0.710439 0
M  V30 2939 H 276.997 -1.17744 -1.51025 0
M  V30 2940 H 275.302 -0.169204 -3.91434 0
M  V30 2941 H 276.999 -0.55639 -3.97121 0
M  V30 2942 H 273.589 -1.97994 -3.80127 0
M  V30 2943 H 277.773 -2.94074 -3.99793 0
M  V30 2944 H 273.029 -4.31374 -4.33275 0
M  V30 2945 H 277.203 -5.27852 -4.54252 0
M  V30 2946 H 274.83 -5.96994 -4.7064 0
M  V30 2947 N 276.405 1.4127 -0.698611 0
M  V30 2948 C 277.368 2.29158 -0.044132 0
M  V30 2949 C 278.368 1.44529 0.704841 0
M  V30 2950 O 279.558 1.65643 0.539276 0
M  V30 2951 C 276.69 3.27459 0.947809 0
M  V30 2952 H 277.883 2.88529 -0.817994 0
M  V30 2953 H 275.436 1.49307 -0.46228 0
M  V30 2954 H 276.171 2.73073 1.74933 0
M  V30 2955 H 275.956 3.8991 0.41385 0
M  V30 2956 H 277.446 3.93311 1.40344 0
M  V30 2957 N 277.883 0.443576 1.51229 0
M  V30 2958 C 278.846 -0.353132 2.26463 0
M  V30 2959 C 279.846 -0.944338 1.3015 0
M  V30 2960 O 281.036 -0.817813 1.5381 0
M  V30 2961 C 278.168 -1.50023 3.06114 0
M  V30 2962 H 279.361 0.3063 2.98332 0
M  V30 2963 H 276.914 0.196902 1.55055 0
M  V30 2964 H 277.649 -2.19553 2.38677 0
M  V30 2965 H 277.434 -1.08241 3.76864 0
M  V30 2966 H 278.924 -2.06296 3.63087 0
M  V30 2967 N 279.361 -1.56624 0.175154 0
M  V30 2968 C 280.308 -2.18149 -0.753634 0
M  V30 2969 C 281.278 -1.12265 -1.22417 0
M  V30 2970 O 282.463 -1.40432 -1.29165 0
M  V30 2971 C 279.603 -2.82933 -1.97592 0
M  V30 2972 C 278.716 -4.03289 -1.5486 0
M  V30 2973 C 277.851 -4.55988 -2.72485 0
M  V30 2974 C 276.89 -5.68746 -2.26262 0
M  V30 2975 N 276.027 -6.15938 -3.36994 0
M  V30 2976 H 280.867 -2.9717 -0.222195 0
M  V30 2977 H 278.404 -1.46774 -0.0979422 0
M  V30 2978 H 280.362 -3.18653 -2.69288 0
M  V30 2979 H 278.992 -2.06509 -2.481 0
M  V30 2980 H 278.044 -3.73364 -0.728246 0
M  V30 2981 H 279.356 -4.849 -1.16933 0
M  V30 2982 H 278.51 -4.9391 -3.52332 0
M  V30 2983 H 277.249 -3.73443 -3.13674 0
M  V30 2984 H 276.254 -5.30372 -1.44863 0
M  V30 2985 H 277.479 -6.53095 -1.86127 0
M  V30 2986 H 275.425 -5.36321 -3.77751 0
M  V30 2987 H 275.342 -6.92548 -3.03172 0
M  V30 2988 H 276.61 -6.58511 -4.17114 0
M  V30 2989 N 280.839 0.0985539 -1.57292 0
M  V30 2990 C 282.255 0.45267 -1.53046 0
M  V30 2991 C 282.455 1.80713 -0.891342 0
M  V30 2992 O 281.511 2.4785 -0.482375 0
M  V30 2993 C 282.824 0.418341 -2.97776 0
M  V30 2994 C 284.372 0.500443 -3.08973 0
M  V30 2995 C 284.847 0.496297 -4.55303 0
M  V30 2996 N 286.338 0.557151 -4.59837 0
M  V30 2997 C 287.073 0.575726 -5.70502 0
M  V30 2998 N 286.569 0.550714 -6.90608 0
M  V30 2999 N 288.362 0.620277 -5.58667 0
M  V30 3000 H 280.513 -0.788673 -1.97215 0
M  V30 3001 H 282.776 -0.293188 -0.901524 0
M  V30 3002 H 282.482 -0.509659 -3.47988 0
M  V30 3003 H 282.356 1.2386 -3.56284 0
M  V30 3004 H 284.743 1.41886 -2.58751 0
M  V30 3005 H 284.824 -0.347894 -2.53423 0
M  V30 3006 H 284.468 -0.418162 -5.06176 0
M  V30 3007 H 284.398 1.3618 -5.08687 0
M  V30 3008 H 286.889 0.581816 -3.73394 0
M  V30 3009 H 287.202 0.568075 -7.70709 0
M  V30 3010 H 285.547 0.517816 -6.93068 0
M  V30 3011 H 288.738 0.637322 -4.63741 0
M  V30 3012 H 288.911 0.631283 -6.44918 0
M  V30 3013 O 282.356 1.59668 0.242586 0
M  V30 3014 H 283.047 1.72276 0.885483 0
M  V30 END ATOM
M  V30 BEGIN BOND
M  V30 END BOND
M  V30 END CTAB
M  END
$$$$
