drugbank_target|Q60037 Endo-1,4-beta-xylanase A (DB02379)
 OpenBabel12092120283D

  0  0  0     0  0            999 V3000
M  V30 BEGIN CTAB
M  V30 COUNTS 16757 16955 0 0 0
M  V30 BEGIN ATOM
M  V30 1 H -0.908 1.98254 -0.117106 0
M  V30 2 N 0 1.576 0 0
M  V30 3 C 0.933 2.03868 1.02534 0
M  V30 4 C 1.911 0.928543 1.3348 0
M  V30 5 O 3.095 1.19667 1.45644 0
M  V30 6 C 0.222 2.43627 2.35294 0
M  V30 7 C -0.732 3.65373 2.2001 0
M  V30 8 S 0.101 5.13292 1.52614 0
M  V30 9 C 1.257 5.56322 2.86805 0
M  V30 10 H 1.49 2.90518 0.631377 0
M  V30 11 H -0.977 1.52953 0.210867 0
M  V30 12 H 0.981 2.67203 3.11629 0
M  V30 13 H -0.358 1.57376 2.7183 0
M  V30 14 H -1.165 3.90944 3.18086 0
M  V30 15 H -1.563 3.418 1.51819 0
M  V30 16 H 0.729 5.58782 3.83104 0
M  V30 17 H 1.672 6.56266 2.65933 0
M  V30 18 H 2.08 4.83886 2.90714 0
M  V30 19 N 1.4781 -0.272755 1.55222 0
M  V30 20 C 2.4101 -1.35946 1.8453 0
M  V30 21 C 3.4231 -1.45525 0.729818 0
M  V30 22 O 4.6121 -1.47337 1.00767 0
M  V30 23 C 1.7121 -2.74069 1.99347 0
M  V30 24 C 0.8851 -2.87079 3.30007 0
M  V30 25 C -0.0559 -4.05879 3.34886 0
M  V30 26 O -1.0299 -3.96626 4.08261 0
M  V30 27 N 0.1721 -5.17857 2.62307 0
M  V30 28 H 2.9371 -1.11149 2.78327 0
M  V30 29 H 0.4981 -0.462869 1.55142 0
M  V30 30 H 2.4901 -3.51838 1.99981 0
M  V30 31 H 1.0601 -2.91688 1.12415 0
M  V30 32 H 0.2801 -1.96193 3.41909 0
M  V30 33 H 1.5681 -2.92701 4.16177 0
M  V30 34 H 0.9661 -5.28261 2.02377 0
M  V30 35 H -0.4769 -5.93855 2.68663 0
M  V30 36 N 2.9562 -1.48159 -0.537278 0
M  V30 37 C 4.2022 -1.56035 -1.29541 0
M  V30 38 C 4.5352 -0.230377 -1.92829 0
M  V30 39 O 3.8102 0.762952 -1.78911 0
M  V30 40 C 4.0932 -2.69323 -2.39034 0
M  V30 41 C 3.9462 -4.12002 -1.80485 0
M  V30 42 C 5.2652 -2.78408 -3.40847 0
M  V30 43 H 2.3842 -0.567992 -0.469632 0
M  V30 44 H 5.0262 -1.80302 -0.599277 0
M  V30 45 H 3.1762 -2.48763 -2.98412 0
M  V30 46 H 4.8482 -4.43981 -1.25215 0
M  V30 47 H 3.0912 -4.19344 -1.11055 0
M  V30 48 H 3.7622 -4.87077 -2.59731 0
M  V30 49 H 6.2382 -2.97012 -2.91416 0
M  V30 50 H 5.1142 -3.59416 -4.14863 0
M  V30 51 H 5.3752 -1.86269 -4.00944 0
M  V30 52 N 4.4343 0.785586 -1.36625 0
M  V30 53 C 5.8503 1.08419 -1.17122 0
M  V30 54 C 6.0503 2.015 0.00208491 0
M  V30 55 O 5.1063 2.43551 0.666278 0
M  V30 56 C 6.4193 1.69498 -2.48377 0
M  V30 57 C 7.9673 1.81821 -2.54775 0
M  V30 58 C 8.4423 2.46315 -3.86126 0
M  V30 59 N 9.9333 2.53779 -3.87492 0
M  V30 60 C 10.6683 3.045 -4.85868 0
M  V30 61 N 10.1643 3.55499 -5.94637 0
M  V30 62 N 11.9573 3.03247 -4.73284 0
M  V30 63 H 4.1083 0.167264 -2.1174 0
M  V30 64 H 6.3713 0.13682 -0.938075 0
M  V30 65 H 6.0773 1.08571 -3.34522 0
M  V30 66 H 5.9513 2.6896 -2.64462 0
M  V30 67 H 8.3383 2.41884 -1.69045 0
M  V30 68 H 8.4193 0.811532 -2.42586 0
M  V30 69 H 8.0633 1.86895 -4.72263 0
M  V30 70 H 7.9933 3.47561 -3.95612 0
M  V30 71 H 10.4843 2.17672 -3.08913 0
M  V30 72 H 10.7973 3.92562 -6.65669 0
M  V30 73 H 9.1423 3.5364 -5.98301 0
M  V30 74 H 12.3333 2.62696 -3.87438 0
M  V30 75 H 12.5063 3.42467 -5.50109 0
M  V30 76 N 5.9124 1.20967 1.01018 0
M  V30 77 C 6.8594 0.964281 2.09691 0
M  V30 78 C 7.8294 -0.107853 1.65749 0
M  V30 79 O 9.0144 0.0381987 1.90762 0
M  V30 80 C 6.1544 0.52943 3.41015 0
M  V30 81 C 5.2674 1.67043 3.98398 0
M  V30 82 C 4.4024 1.18525 5.17808 0
M  V30 83 C 3.4414 2.29892 5.67288 0
M  V30 84 N 2.5784 1.82546 6.77954 0
M  V30 85 H 7.4184 1.89463 2.30017 0
M  V30 86 H 4.9554 0.944289 1.1279 0
M  V30 87 H 6.9134 0.258588 4.16398 0
M  V30 88 H 5.5434 -0.363919 3.20742 0
M  V30 89 H 4.5954 2.05603 3.20049 0
M  V30 90 H 5.9074 2.50877 4.31117 0
M  V30 91 H 5.0614 0.870762 6.00419 0
M  V30 92 H 3.8004 0.316887 4.86669 0
M  V30 93 H 2.8054 2.6215 4.83278 0
M  V30 94 H 4.0304 3.17216 6.00459 0
M  V30 95 H 1.9764 0.980454 6.48632 0
M  V30 96 H 1.8934 2.59956 7.09901 0
M  V30 97 H 3.1614 1.54115 7.64113 0
M  V30 98 N 7.3905 -1.2043 1.01659 0
M  V30 99 C 8.8065 -1.41852 0.731442 0
M  V30 100 C 9.0065 -1.89358 -0.688898 0
M  V30 101 O 8.0625 -2.06247 -1.45666 0
M  V30 102 C 9.3755 -2.44019 1.75714 0
M  V30 103 C 10.9235 -2.57785 1.77527 0
M  V30 104 C 11.3985 -3.63194 2.79023 0
M  V30 105 N 12.8895 -3.70678 2.77763 0
M  V30 106 C 13.6245 -4.51897 3.52954 0
M  V30 107 N 13.1205 -5.36921 4.37821 0
M  V30 108 N 14.9135 -4.4643 3.41551 0
M  V30 109 H 7.0645 -0.879093 1.93354 0
M  V30 110 H 9.3275 -0.448425 0.835236 0
M  V30 111 H 9.0335 -2.1611 2.77469 0
M  V30 112 H 8.9075 -3.43007 1.56927 0
M  V30 113 H 11.2945 -2.85023 0.764569 0
M  V30 114 H 11.3755 -1.58992 2.00387 0
M  V30 115 H 11.0195 -3.36699 3.80258 0
M  V30 116 H 10.9495 -4.61609 2.53425 0
M  V30 117 H 13.4405 -3.09944 2.16201 0
M  V30 118 H 13.7535 -5.95981 4.91962 0
M  V30 119 H 12.0985 -5.36424 4.41899 0
M  V30 120 H 15.2895 -3.79042 2.74672 0
M  V30 121 H 15.4625 -5.09491 4.00404 0
M  V30 122 N 8.8686 -0.792821 -1.36206 0
M  V30 123 C 10.2846 -0.474903 -1.52371 0
M  V30 124 C 10.4846 1.00622 -1.74578 0
M  V30 125 O 9.5406 1.79162 -1.77924 0
M  V30 126 C 10.8536 -1.3083 -2.70747 0
M  V30 127 C 12.4016 -1.30234 -2.84619 0
M  V30 128 C 12.8766 -2.11956 -4.06004 0
M  V30 129 N 14.3676 -2.09419 -4.13156 0
M  V30 130 C 15.1026 -2.69419 -5.06163 0
M  V30 131 N 14.5986 -3.3829 -6.04592 0
M  V30 132 N 16.3916 -2.59134 -4.98804 0
M  V30 133 H 8.5426 -1.75222 -1.20046 0
M  V30 134 H 10.8056 -0.745024 -0.586211 0
M  V30 135 H 10.5116 -2.35881 -2.6087 0
M  V30 136 H 10.3856 -0.95196 -3.6499 0
M  V30 137 H 12.7726 -0.259748 -2.93955 0
M  V30 138 H 12.8536 -1.69847 -1.91274 0
M  V30 139 H 12.4976 -3.16248 -3.97429 0
M  V30 140 H 12.4276 -1.69711 -4.98503 0
M  V30 141 H 14.9186 -1.59297 -3.42685 0
M  V30 142 H 15.2316 -3.81394 -6.7213 0
M  V30 143 H 13.5766 -3.42393 -6.04807 0
M  V30 144 H 16.7676 -2.04927 -4.20859 0
M  V30 145 H 16.9406 -3.06185 -5.711 0
M  V30 146 N 10.3467 1.47872 -0.545128 0
M  V30 147 C 11.5947 2.02093 -0.016553 0
M  V30 148 C 11.9157 1.42305 1.3332 0
M  V30 149 O 11.1857 0.593853 1.86682 0
M  V30 150 H 9.7657 0.746993 -0.00313038 0
M  V30 151 H 12.4277 1.81414 -0.712397 0
M  V30 152 H 11.5237 3.11996 0.0805422 0
M  V30 153 N 11.8248 0.280983 1.55075 0
M  V30 154 C 12.7548 -0.597469 2.25727 0
M  V30 155 C 13.7358 -1.15417 1.24952 0
M  V30 156 O 14.9208 -1.18722 1.53684 0
M  V30 157 C 12.0508 -1.7789 2.98283 0
M  V30 158 C 11.0048 -1.35347 4.06036 0
M  V30 159 C 10.3308 -2.61846 4.66198 0
M  V30 160 C 11.6308 -0.499354 5.19907 0
M  V30 161 H 13.3248 -0.00824265 2.99399 0
M  V30 162 H 10.8708 -0.0025244 1.44 0
M  V30 163 H 12.8238 -2.39937 3.46422 0
M  V30 164 H 11.5478 -2.39405 2.22155 0
M  V30 165 H 10.2068 -0.756156 3.58717 0
M  V30 166 H 9.8548 -3.21632 3.86732 0
M  V30 167 H 9.5548 -2.3409 5.38958 0
M  V30 168 H 11.0788 -3.24732 5.1709 0
M  V30 169 H 12.4928 -1.02498 5.64063 0
M  V30 170 H 10.8898 -0.316424 5.99265 0
M  V30 171 H 11.9598 0.480459 4.82514 0
M  V30 172 N 13.3029 -1.57598 0.00835791 0
M  V30 173 C 14.2329 -2.1198 -0.979113 0
M  V30 174 C 15.2139 -1.03091 -1.35301 0
M  V30 175 O 16.3989 -1.30818 -1.43528 0
M  V30 176 C 13.5289 -2.62995 -2.26828 0
M  V30 177 C 12.4829 -3.76485 -2.03576 0
M  V30 178 C 11.8089 -4.13846 -3.38579 0
M  V30 179 C 13.1089 -5.0342 -1.39161 0
M  V30 180 H 14.8029 -2.94738 -0.526281 0
M  V30 181 H 12.3489 -1.41783 -0.251704 0
M  V30 182 H 14.3019 -2.99669 -2.96271 0
M  V30 183 H 13.0259 -1.7737 -2.7424 0
M  V30 184 H 11.6849 -3.40217 -1.36557 0
M  V30 185 H 11.3329 -3.25232 -3.83709 0
M  V30 186 H 11.0329 -4.90312 -3.23834 0
M  V30 187 H 12.5569 -4.53086 -4.09323 0
M  V30 188 H 13.9709 -5.37812 -1.98573 0
M  V30 189 H 12.3679 -5.84746 -1.34878 0
M  V30 190 H 13.4379 -4.83548 -0.361868 0
M  V30 191 N 14.781 0.264519 -1.55364 0
M  V30 192 C 16.058 1.01677 -1.67096 0
M  V30 193 C 16.438 2.03996 -0.543015 0
M  V30 194 O 15.786 2.23907 0.45585 0
M  V30 195 C 15.996 1.66596 -3.0667 0
M  V30 196 C 17.344 2.17442 -3.64697 0
M  V30 197 O 18.368 1.76568 -3.09358 0
M  V30 198 O 17.227 2.92439 -4.61673 0
M  V30 199 H 14.321 0.472161 -0.678965 0
M  V30 200 H 16.867 0.259703 -1.67701 0
M  V30 201 H 15.639 0.924962 -3.80211 0
M  V30 202 H 15.262 2.48968 -3.10001 0
M  V30 203 N 16.2591 1.48442 0.529413 0
M  V30 204 C 17.5051 1.5672 1.28711 0
M  V30 205 C 17.8381 0.2406 1.92704 0
M  V30 206 O 17.1131 -0.753454 1.79313 0
M  V30 207 C 17.3961 2.70587 2.37603 0
M  V30 208 C 17.2491 4.12953 1.78297 0
M  V30 209 C 18.5681 2.80212 3.39366 0
M  V30 210 H 15.6871 0.570474 0.466613 0
M  V30 211 H 18.3291 1.80617 0.589706 0
M  V30 212 H 16.4791 2.50342 2.97088 0
M  V30 213 H 18.1511 4.44639 1.22858 0
M  V30 214 H 16.3941 4.19927 1.0883 0
M  V30 215 H 17.0651 4.88448 2.57144 0
M  V30 216 H 19.5411 2.98553 2.89836 0
M  V30 217 H 18.4171 3.61611 4.12951 0
M  V30 218 H 18.6781 1.88393 3.99951 0
M  V30 219 N 17.7372 -0.778329 1.37039 0
M  V30 220 C 18.9622 -1.57248 1.35233 0
M  V30 221 C 19.3872 -1.87999 -0.0615568 0
M  V30 222 O 18.7452 -1.48734 -1.03672 0
M  V30 223 C 18.7932 -2.86353 2.19167 0
M  V30 224 O 17.8972 -3.80442 1.59178 0
M  V30 225 H 17.2382 -0.476569 0.462362 0
M  V30 226 H 19.7682 -0.963853 1.80474 0
M  V30 227 H 19.7782 -3.35519 2.32145 0
M  V30 228 H 18.4532 -2.63299 3.21942 0
M  V30 229 H 17.0302 -3.39067 1.55203 0
M  V30 230 N 19.2153 -1.21501 -1.00376 0
M  V30 231 C 20.4433 -1.059 -1.77744 0
M  V30 232 C 20.8583 0.391125 -1.84704 0
M  V30 233 O 20.2153 1.27133 -1.30933 0
M  V30 234 C 20.2663 -1.65111 -3.21591 0
M  V30 235 O 19.9873 -3.0445 -3.15027 0
M  V30 236 C 21.4883 -1.54637 -4.15454 0
M  V30 237 H 18.7083 -0.371825 -0.558558 0
M  V30 238 H 21.2523 -1.60865 -1.26264 0
M  V30 239 H 19.4073 -1.14235 -3.70175 0
M  V30 240 H 19.8213 -3.3278 -4.0541 0
M  V30 241 H 21.2953 -2.00808 -5.14179 0
M  V30 242 H 21.7723 -0.501022 -4.36333 0
M  V30 243 H 22.3783 -2.04767 -3.72761 0
M  V30 244 N 20.6934 1.19889 -1.02296 0
M  V30 245 C 21.6564 2.21116 -0.603351 0
M  V30 246 C 22.6564 1.5738 0.329884 0
M  V30 247 O 23.8464 1.73802 0.117702 0
M  V30 248 C 20.9784 3.40696 0.117992 0
M  V30 249 H 22.1714 2.59754 -1.49893 0
M  V30 250 H 19.7244 1.33463 -0.813468 0
M  V30 251 H 20.4594 3.07569 1.0282 0
M  V30 252 H 20.2444 3.88188 -0.552511 0
M  V30 253 H 21.7344 4.15692 0.398696 0
M  V30 254 N 22.1715 0.800033 1.35784 0
M  V30 255 C 23.4175 0.377901 1.99248 0
M  V30 256 C 23.7505 -1.05052 1.63333 0
M  V30 257 O 23.0255 -1.72768 0.893385 0
M  V30 258 C 23.3085 0.553922 3.55814 0
M  V30 259 C 23.1615 2.0268 4.01548 0
M  V30 260 C 24.4805 -0.0244802 4.40093 0
M  V30 261 H 21.5995 0.138782 0.723815 0
M  V30 262 H 24.2415 1.00835 1.61035 0
M  V30 263 H 22.3915 0.0172398 3.88496 0
M  V30 264 H 24.0635 2.62536 3.79305 0
M  V30 265 H 22.3065 2.5256 3.52698 0
M  V30 266 H 22.9775 2.10087 5.10458 0
M  V30 267 H 25.4535 0.433775 4.13833 0
M  V30 268 H 24.3295 0.128637 5.48749 0
M  V30 269 H 24.5905 -1.11758 4.27741 0
M  V30 270 N 23.6496 -1.47581 0.552962 0
M  V30 271 C 24.5796 -2.32762 -0.185451 0
M  V30 272 C 25.5606 -1.43527 -0.912905 0
M  V30 273 O 26.7456 -1.72388 -0.894201 0
M  V30 274 C 23.8756 -3.25219 -1.21859 0
M  V30 275 C 22.8296 -4.23661 -0.607864 0
M  V30 276 C 22.1556 -5.05413 -1.74533 0
M  V30 277 C 23.4556 -5.20481 0.435582 0
M  V30 278 H 25.1496 -2.94749 0.525684 0
M  V30 279 H 22.6956 -1.41738 0.254251 0
M  V30 280 H 24.6486 -3.8365 -1.7433 0
M  V30 281 H 23.3726 -2.61279 -1.95961 0
M  V30 282 H 22.0316 -3.66451 -0.104489 0
M  V30 283 H 21.6796 -4.3788 -2.47529 0
M  V30 284 H 21.3796 -5.72059 -1.34249 0
M  V30 285 H 22.9036 -5.66701 -2.27338 0
M  V30 286 H 24.3176 -5.733 -0.00290157 0
M  V30 287 H 22.7146 -5.95305 0.757067 0
M  V30 288 H 23.7846 -4.66217 1.33303 0
M  V30 289 N 25.1277 -0.289203 -1.54924 0
M  V30 290 C 26.3737 0.323998 -2.00195 0
M  V30 291 C 26.7067 1.54441 -1.17735 0
M  V30 292 O 25.9817 1.92875 -0.250878 0
M  V30 293 C 26.2647 0.692276 -3.53383 0
M  V30 294 C 26.1177 -0.536457 -4.46589 0
M  V30 295 C 27.4367 1.52335 -4.12895 0
M  V30 296 H 24.5557 0.116289 -0.727768 0
M  V30 297 H 27.1977 -0.398954 -1.85764 0
M  V30 298 H 25.3477 1.30822 -3.65811 0
M  V30 299 H 27.0197 -1.17499 -4.46085 0
M  V30 300 H 25.2627 -1.17192 -4.1767 0
M  V30 301 H 25.9337 -0.234806 -5.515 0
M  V30 302 H 28.4097 1.00302 -4.0383 0
M  V30 303 H 27.2857 1.74982 -5.20262 0
M  V30 304 H 27.5467 2.50886 -3.64018 0
M  V30 305 N 26.6058 1.57591 -0.0167156 0
M  V30 306 C 27.8538 1.90906 0.663285 0
M  V30 307 C 28.1748 0.892509 1.73376 0
M  V30 308 O 27.4448 -0.0677623 1.95783 0
M  V30 309 H 26.0248 0.704637 0.247983 0
M  V30 310 H 28.6868 1.94803 -0.0615909 0
M  V30 311 H 27.7828 2.9116 1.12393 0
M  V30 312 N 28.0839 -0.256276 1.55502 0
M  V30 313 C 29.3329 -0.983486 1.76098 0
M  V30 314 C 29.6459 -1.86837 0.578896 0
M  V30 315 O 30.8519 -2.63163 0.667648 0
M  V30 316 C 29.3079 -1.79868 3.1173 0
M  V30 317 C 28.9159 -0.961648 4.37557 0
M  V30 318 C 30.6599 -2.51919 3.41668 0
M  V30 319 C 28.5669 -1.77219 5.64223 0
M  V30 320 H 27.4969 -0.370936 0.656447 0
M  V30 321 H 30.1479 -0.238492 1.81944 0
M  V30 322 H 28.5299 -2.58527 2.99966 0
M  V30 323 H 29.7039 -0.218048 4.60284 0
M  V30 324 H 28.0189 -0.354913 4.14885 0
M  V30 325 H 30.6159 -3.12998 4.33516 0
M  V30 326 H 30.9589 -3.23059 2.62562 0
M  V30 327 H 31.4919 -1.80278 3.54605 0
M  V30 328 H 28.2309 -1.10471 6.46124 0
M  V30 329 H 27.7509 -2.49132 5.45613 0
M  V30 330 H 29.4299 -2.34169 6.03137 0
M  V30 331 N 29.562 -1.4872 -0.521534 0
M  V30 332 C 30.492 -1.66771 -1.63431 0
M  V30 333 C 31.473 -0.516499 -1.62069 0
M  V30 334 O 32.658 -0.750013 -1.79132 0
M  V30 335 C 29.788 -1.71515 -3.01993 0
M  V30 336 C 28.742 -2.86222 -3.18216 0
M  V30 337 C 28.068 -2.76061 -4.57924 0
M  V30 338 C 29.368 -4.27419 -3.00184 0
M  V30 339 H 31.062 -2.59932 -1.48579 0
M  V30 340 H 28.608 -1.25089 -0.713358 0
M  V30 341 H 30.561 -1.82731 -3.7972 0
M  V30 342 H 29.285 -0.749393 -3.17886 0
M  V30 343 H 27.944 -2.74575 -2.42908 0
M  V30 344 H 27.592 -1.77437 -4.70665 0
M  V30 345 H 27.292 -3.53037 -4.69722 0
M  V30 346 H 28.816 -2.89256 -5.37739 0
M  V30 347 H 30.23 -4.39855 -3.67697 0
M  V30 348 H 28.627 -5.05458 -3.2347 0
M  V30 349 H 29.697 -4.43293 -1.96518 0
M  V30 350 N 31.0401 0.771051 -1.3745 0
M  V30 351 C 32.0031 1.86598 -1.33093 0
M  V30 352 C 33.0031 1.59076 -0.234845 0
M  V30 353 O 34.1931 1.67145 -0.490732 0
M  V30 354 C 31.3251 3.23747 -1.06773 0
M  V30 355 H 32.5181 1.91873 -2.30488 0
M  V30 356 H 30.0711 0.970876 -1.2249 0
M  V30 357 H 30.8061 3.24148 -0.099129 0
M  V30 358 H 30.5911 3.45115 -1.86112 0
M  V30 359 H 32.0811 4.03824 -1.06377 0
M  V30 360 N 32.5182 1.22032 0.997298 0
M  V30 361 C 33.7662 1.04016 1.73278 0
M  V30 362 C 34.0872 -0.426255 1.90284 0
M  V30 363 O 33.3572 -1.30694 1.45931 0
M  V30 364 H 31.9372 0.381897 0.642 0
M  V30 365 H 34.5992 1.5347 1.20137 0
M  V30 366 H 33.6952 1.51441 2.72896 0
M  V30 367 N 33.9963 -1.19345 1.0293 0
M  V30 368 C 35.2433 -1.89038 0.726008 0
M  V30 369 C 35.5713 -1.79649 -0.745427 0
M  V30 370 O 34.8263 -1.18354 -1.55855 0
M  V30 371 C 35.1253 -3.39292 1.12319 0
M  V30 372 C 34.7913 -3.68885 2.59297 0
M  V30 373 C 33.4533 -3.76671 2.99453 0
M  V30 374 C 35.8053 -3.82178 3.54386 0
M  V30 375 C 33.1333 -3.9522 4.33611 0
M  V30 376 C 35.4853 -4.0224 4.88248 0
M  V30 377 C 34.1493 -4.08259 5.28092 0
M  V30 378 H 33.4193 -0.691739 0.265665 0
M  V30 379 H 36.0663 -1.41328 1.29223 0
M  V30 380 H 34.3713 -3.88903 0.475584 0
M  V30 381 H 36.0683 -3.91536 0.866037 0
M  V30 382 H 32.6583 -3.63433 2.27189 0
M  V30 383 H 36.8423 -3.75505 3.24514 0
M  V30 384 H 32.0983 -3.98119 4.64016 0
M  V30 385 H 36.2723 -4.11468 5.61843 0
M  V30 386 H 33.8993 -4.22384 6.32057 0
M  V30 387 N 35.4744 -0.807222 -1.35358 0
M  V30 388 C 36.4044 -0.232509 -2.3234 0
M  V30 389 C 37.3854 0.642386 -1.57504 0
M  V30 390 O 38.5704 0.572526 -1.85569 0
M  V30 391 C 35.7004 0.619238 -3.41735 0
M  V30 392 C 34.6544 -0.157215 -4.27711 0
M  V30 393 C 33.9804 0.816273 -5.28433 0
M  V30 394 C 35.2804 -1.35656 -5.04376 0
M  V30 395 H 36.9744 -1.04276 -2.80654 0
M  V30 396 H 34.5204 -0.50288 -1.34934 0
M  V30 397 H 36.4734 1.03137 -4.08584 0
M  V30 398 H 35.1974 1.46239 -2.92031 0
M  V30 399 H 33.8564 -0.550525 -3.62443 0
M  V30 400 H 33.5044 1.65494 -4.74996 0
M  V30 401 H 33.2044 0.301067 -5.86828 0
M  V30 402 H 34.7284 1.22659 -5.98153 0
M  V30 403 H 36.1424 -1.01927 -5.64166 0
M  V30 404 H 34.5394 -1.8063 -5.7227 0
M  V30 405 H 35.6094 -2.14288 -4.34981 0
M  V30 406 N 36.9525 1.47285 -0.560781 0
M  V30 407 C 38.2005 2.02064 -0.0379868 0
M  V30 408 C 38.5215 1.43711 1.31803 0
M  V30 409 O 37.7915 0.61362 1.86042 0
M  V30 410 H 36.3715 0.746918 -0.0110531 0
M  V30 411 H 39.0335 1.80648 -0.731598 0
M  V30 412 H 38.1295 3.12064 0.0474463 0
M  V30 413 N 38.4306 0.297415 1.54768 0
M  V30 414 C 39.6766 -0.313376 2.00364 0
M  V30 415 C 40.0096 -1.53815 1.18553 0
M  V30 416 O 39.2846 -1.92739 0.261103 0
M  V30 417 C 39.5676 -0.673525 3.53745 0
M  V30 418 C 39.4206 0.560133 4.46299 0
M  V30 419 C 40.7396 -1.50143 4.13697 0
M  V30 420 H 37.8586 -0.112428 0.728374 0
M  V30 421 H 40.5006 0.4088 1.8555 0
M  V30 422 H 38.6506 -1.28881 3.665 0
M  V30 423 H 40.3226 1.19863 4.45455 0
M  V30 424 H 38.5656 1.19405 4.17043 0
M  V30 425 H 39.2366 0.26405 5.51368 0
M  V30 426 H 41.7126 -0.981588 4.04356 0
M  V30 427 H 40.5886 -1.72221 5.21182 0
M  V30 428 H 40.8496 -2.48952 3.65343 0
M  V30 429 N 39.9087 -1.5758 0.0250728 0
M  V30 430 C 41.1547 -1.91917 -0.655413 0
M  V30 431 C 41.4877 -0.901433 -1.72011 0
M  V30 432 O 40.7627 0.0764069 -1.9435 0
M  V30 433 C 41.0457 -3.36751 -1.27558 0
M  V30 434 C 40.8987 -4.49258 -0.220719 0
M  V30 435 C 42.2177 -3.81469 -2.19475 0
M  V30 436 H 39.3367 -0.697925 -0.23679 0
M  V30 437 H 41.9787 -1.89825 0.0815036 0
M  V30 438 H 40.1287 -3.38664 -1.90365 0
M  V30 439 H 41.8007 -4.59478 0.409601 0
M  V30 440 H 40.0437 -4.31415 0.454264 0
M  V30 441 H 40.7147 -5.47618 -0.694175 0
M  V30 442 H 43.1907 -3.81266 -1.66659 0
M  V30 443 H 42.0667 -4.83512 -2.59822 0
M  V30 444 H 42.3277 -3.16744 -3.08424 0
M  V30 445 N 41.3868 0.248026 -1.55636 0
M  V30 446 C 42.3168 1.31079 -1.93237 0
M  V30 447 C 43.2978 1.50264 -0.797174 0
M  V30 448 O 44.4828 1.62891 -1.05737 0
M  V30 449 C 41.6128 2.66575 -2.22609 0
M  V30 450 C 40.5668 2.62087 -3.3837 0
M  V30 451 C 39.8928 4.01369 -3.53281 0
M  V30 452 C 41.1928 2.19171 -4.7409 0
M  V30 453 H 42.8868 0.998556 -2.82257 0
M  V30 454 H 40.4328 0.47891 -1.35803 0
M  V30 455 H 42.3858 3.41057 -2.47503 0
M  V30 456 H 41.1098 2.99432 -1.30414 0
M  V30 457 H 39.7688 1.90063 -3.13483 0
M  V30 458 H 39.4168 4.31489 -2.58508 0
M  V30 459 H 39.1168 3.99254 -4.31127 0
M  V30 460 H 40.6408 4.77552 -3.80495 0
M  V30 461 H 42.0548 2.83384 -4.98363 0
M  V30 462 H 40.4518 2.2817 -5.5503 0
M  V30 463 H 41.5218 1.14336 -4.71227 0
M  V30 464 N 42.8649 1.48995 0.513639 0
M  V30 465 C 43.8279 1.64229 1.59879 0
M  V30 466 C 44.8279 0.514696 1.5234 0
M  V30 467 O 46.0179 0.78087 1.55718 0
M  V30 468 C 43.1499 1.62783 2.99524 0
M  V30 469 H 44.3429 2.61004 1.47705 0
M  V30 470 H 41.8959 1.37837 0.736936 0
M  V30 471 H 42.6309 0.675461 3.17188 0
M  V30 472 H 42.4159 2.4466 3.06404 0
M  V30 473 H 43.9059 1.76669 3.78388 0
M  V30 474 N 44.343 -0.763751 1.37857 0
M  V30 475 C 45.306 -1.85889 1.34081 0
M  V30 476 C 46.306 -1.58949 0.243277 0
M  V30 477 O 47.496 -1.66882 0.499589 0
M  V30 478 C 44.628 -3.23176 1.08489 0
M  V30 479 H 45.821 -1.90648 2.31502 0
M  V30 480 H 43.374 -0.964367 1.23003 0
M  V30 481 H 44.109 -3.24091 0.116318 0
M  V30 482 H 43.894 -3.44124 1.8794 0
M  V30 483 H 45.384 -4.03254 1.08517 0
M  V30 484 N 45.8211 -1.22559 -0.990812 0
M  V30 485 C 47.0461 -1.07862 -1.77145 0
M  V30 486 C 47.4711 0.366447 -1.84496 0
M  V30 487 O 46.8291 1.26478 -1.29896 0
M  V30 488 C 46.8771 -1.69686 -3.18181 0
M  V30 489 O 45.9811 -0.951946 -4.01263 0
M  V30 490 H 45.3221 -0.378712 -0.545411 0
M  V30 491 H 47.8521 -1.62399 -1.2445 0
M  V30 492 H 47.8621 -1.74496 -3.68802 0
M  V30 493 H 46.5371 -2.74841 -3.12146 0
M  V30 494 H 45.1141 -0.980011 -3.59792 0
M  V30 495 N 47.2992 1.18797 -1.03562 0
M  V30 496 C 48.5472 1.88278 -0.734569 0
M  V30 497 C 48.8682 1.8043 0.739586 0
M  V30 498 O 48.1382 1.21925 1.53333 0
M  V30 499 H 46.7182 0.696991 -0.268725 0
M  V30 500 H 49.3802 1.44192 -1.31129 0
M  V30 501 H 48.4762 2.94443 -1.03489 0
M  V30 502 N 48.7773 0.814389 1.34928 0
M  V30 503 C 50.0233 0.399013 1.98836 0
M  V30 504 C 50.3563 -1.03314 1.64438 0
M  V30 505 O 49.6313 -1.71811 0.911659 0
M  V30 506 C 49.9143 0.591629 3.55207 0
M  V30 507 C 49.7673 2.06928 3.99376 0
M  V30 508 C 51.0863 0.022199 4.40094 0
M  V30 509 H 48.2053 0.146451 0.722303 0
M  V30 510 H 50.8473 1.02537 1.59957 0
M  V30 511 H 48.9973 0.0584441 3.88456 0
M  V30 512 H 50.6693 2.66544 3.76499 0
M  V30 513 H 48.9123 2.56287 3.49999 0
M  V30 514 H 49.5833 2.1549 5.08201 0
M  V30 515 H 52.0593 0.477643 4.13349 0
M  V30 516 H 50.9353 0.186832 5.48582 0
M  V30 517 H 51.1963 -1.07215 4.28902 0
M  V30 518 N 50.2554 -1.46986 0.568584 0
M  V30 519 C 51.1854 -2.32946 -0.160753 0
M  V30 520 C 52.1664 -1.44487 -0.897631 0
M  V30 521 O 53.3514 -1.73327 -0.875867 0
M  V30 522 C 50.4814 -3.26494 -1.18403 0
M  V30 523 C 49.4354 -4.24282 -0.562895 0
M  V30 524 C 48.7614 -5.07236 -1.69163 0
M  V30 525 C 50.0614 -5.19989 0.490761 0
M  V30 526 H 51.7554 -2.94175 0.556916 0
M  V30 527 H 49.3014 -1.4146 0.26927 0
M  V30 528 H 51.2544 -3.85477 -1.70251 0
M  V30 529 H 49.9784 -2.63343 -1.93179 0
M  V30 530 H 48.6374 -3.66541 -0.0656164 0
M  V30 531 H 48.2854 -4.4048 -2.42871 0
M  V30 532 H 47.9854 -5.7345 -1.28174 0
M  V30 533 H 49.5094 -5.6908 -2.21314 0
M  V30 534 H 50.9234 -5.73271 0.0579047 0
M  V30 535 H 49.3204 -5.94469 0.820165 0
M  V30 536 H 50.3904 -4.64777 1.3824 0
M  V30 537 N 51.7335 -0.305618 -1.54608 0
M  V30 538 C 52.9585 0.307562 -2.05107 0
M  V30 539 C 53.3835 1.46385 -1.18123 0
M  V30 540 O 52.7415 1.8034 -0.186324 0
M  V30 541 C 52.7895 0.73704 -3.52987 0
M  V30 542 O 51.8935 1.84134 -3.6901 0
M  V30 543 H 51.2345 0.0589143 -0.661381 0
M  V30 544 H 53.7645 -0.448807 -1.99617 0
M  V30 545 H 53.7745 1.02459 -3.94925 0
M  V30 546 H 52.4495 -0.108773 -4.15758 0
M  V30 547 H 51.0265 1.55398 -3.38978 0
M  V30 548 N 53.2116 1.57565 -0.0334293 0
M  V30 549 C 54.4586 1.91978 0.644272 0
M  V30 550 C 54.7866 0.910231 1.71887 0
M  V30 551 O 54.0416 -0.0801961 1.95536 0
M  V30 552 C 54.3406 3.33112 1.29504 0
M  V30 553 C 54.0066 4.49537 0.350388 0
M  V30 554 C 52.6686 4.81115 0.0903974 0
M  V30 555 C 55.0206 5.20347 -0.298032 0
M  V30 556 C 52.3486 5.8086 -0.825746 0
M  V30 557 C 54.7006 6.2107 -1.20226 0
M  V30 558 C 53.3646 6.51088 -1.4711 0
M  V30 559 H 52.6346 0.702496 0.235756 0
M  V30 560 H 55.2816 1.91259 -0.0961176 0
M  V30 561 H 53.5866 3.30113 2.11028 0
M  V30 562 H 55.2836 3.57011 1.82603 0
M  V30 563 H 51.8736 4.24883 0.563205 0
M  V30 564 H 56.0576 4.96178 -0.110234 0
M  V30 565 H 51.3136 6.02461 -1.04169 0
M  V30 566 H 55.4876 6.75057 -1.71086 0
M  V30 567 H 53.1146 7.28193 -2.18264 0
M  V30 568 N 54.6897 -0.239769 1.55765 0
M  V30 569 C 55.9377 -0.964892 1.77579 0
M  V30 570 C 56.2587 -1.85582 0.598699 0
M  V30 571 O 55.5287 -1.92075 -0.385226 0
M  V30 572 H 54.1087 -0.359265 0.654933 0
M  V30 573 H 56.7707 -0.256001 1.93211 0
M  V30 574 H 55.8667 -1.58243 2.69009 0
M  V30 575 N 56.1678 -1.49265 -0.50573 0
M  V30 576 C 57.1148 -1.65585 -1.6078 0
M  V30 577 C 58.0848 -0.497396 -1.58478 0
M  V30 578 O 59.2698 -0.72385 -1.76536 0
M  V30 579 C 56.4098 -1.72408 -2.98948 0
M  V30 580 C 55.5228 -2.99525 -3.11301 0
M  V30 581 C 54.6578 -2.97356 -4.40174 0
M  V30 582 C 53.6968 -4.19074 -4.46143 0
M  V30 583 N 52.8338 -4.14841 -5.66437 0
M  V30 584 H 57.6738 -2.59688 -1.46172 0
M  V30 585 H 55.2108 -1.28761 -0.711261 0
M  V30 586 H 57.1688 -1.74344 -3.79025 0
M  V30 587 H 55.7988 -0.817753 -3.1227 0
M  V30 588 H 54.8508 -3.07222 -2.24318 0
M  V30 589 H 56.1628 -3.89518 -3.11572 0
M  V30 590 H 55.3168 -2.97829 -5.28567 0
M  V30 591 H 54.0558 -2.05133 -4.42461 0
M  V30 592 H 53.0608 -4.1885 -3.56153 0
M  V30 593 H 54.2858 -5.12483 -4.45575 0
M  V30 594 H 52.2318 -3.25453 -5.69575 0
M  V30 595 H 52.1488 -4.98564 -5.68304 0
M  V30 596 H 53.4168 -4.1941 -6.57051 0
M  V30 597 N 57.6459 0.756429 -1.3826 0
M  V30 598 C 58.5559 1.9009 -1.37488 0
M  V30 599 C 59.5719 1.71855 -0.272366 0
M  V30 600 O 60.7479 1.94827 -0.510318 0
M  V30 601 C 57.8129 3.25421 -1.19592 0
M  V30 602 C 56.8739 3.56202 -2.39622 0
M  V30 603 C 56.1069 4.85075 -2.2257 0
M  V30 604 O 56.3299 5.57246 -1.21793 0
M  V30 605 O 55.2639 5.15269 -3.11098 0
M  V30 606 H 59.0899 1.93695 -2.33914 0
M  V30 607 H 56.6749 0.901313 -1.1915 0
M  V30 608 H 58.5569 4.06337 -1.11661 0
M  V30 609 H 57.2319 3.22634 -0.262486 0
M  V30 610 H 56.1389 2.75458 -2.53128 0
M  V30 611 H 57.4719 3.63747 -3.31586 0
M  V30 612 N 59.124 1.23083 0.984299 0
M  V30 613 C 60.087 1.00979 2.05757 0
M  V30 614 C 61.087 -0.0269573 1.60777 0
M  V30 615 O 62.277 0.212403 1.729 0
M  V30 616 C 59.409 0.527072 3.36801 0
M  V30 617 H 60.602 1.9622 2.26799 0
M  V30 618 H 58.155 1.05072 1.15714 0
M  V30 619 H 58.89 -0.429294 3.21446 0
M  V30 620 H 58.675 1.27515 3.70786 0
M  V30 621 H 60.165 0.392942 4.15747 0
M  V30 622 N 60.6021 -1.18246 1.0419 0
M  V30 623 C 61.8271 -1.92736 0.765996 0
M  V30 624 C 62.2521 -1.75728 -0.67091 0
M  V30 625 O 61.6101 -1.06825 -1.46486 0
M  V30 626 C 61.6581 -3.42148 1.13875 0
M  V30 627 O 60.7621 -4.11548 0.264954 0
M  V30 628 H 60.1031 -0.601238 0.281797 0
M  V30 629 H 62.6331 -1.49942 1.39207 0
M  V30 630 H 62.6431 -3.92858 1.1012 0
M  V30 631 H 61.3181 -3.53848 2.18551 0
M  V30 632 H 59.8951 -3.71137 0.362226 0
M  V30 633 N 62.0802 -0.821533 -1.34494 0
M  V30 634 C 63.3052 -0.420873 -2.03085 0
M  V30 635 C 63.7302 0.964915 -1.61465 0
M  V30 636 O 63.0882 1.62763 -0.798607 0
M  V30 637 C 63.1362 -0.529414 -3.56693 0
M  V30 638 O 62.2402 0.451302 -4.09923 0
M  V30 639 H 61.5812 -0.173489 -0.640935 0
M  V30 640 H 64.1112 -1.11157 -1.71771 0
M  V30 641 H 64.1212 -0.404671 -4.05988 0
M  V30 642 H 62.7962 -1.54014 -3.86332 0
M  V30 643 H 61.3732 0.285558 -3.71805 0
M  V30 644 N 63.5583 1.46682 -0.576371 0
M  V30 645 C 64.5053 2.30241 0.160499 0
M  V30 646 C 65.4753 1.40233 0.890162 0
M  V30 647 O 66.6603 1.69186 0.882084 0
M  V30 648 C 63.8003 3.24578 1.1723 0
M  V30 649 C 62.9133 4.29684 0.446736 0
M  V30 650 C 62.0483 5.11154 1.44551 0
M  V30 651 C 61.0873 6.08015 0.70599 0
M  V30 652 N 60.2243 6.82376 1.65251 0
M  V30 653 H 65.0643 2.92727 -0.558127 0
M  V30 654 H 62.6013 1.44272 -0.287056 0
M  V30 655 H 64.5593 3.77711 1.77172 0
M  V30 656 H 63.1893 2.63916 1.85872 0
M  V30 657 H 62.2413 3.79458 -0.267594 0
M  V30 658 H 63.5533 4.98626 -0.131686 0
M  V30 659 H 62.7073 5.68533 2.11791 0
M  V30 660 H 61.4463 4.42158 2.05786 0
M  V30 661 H 60.4513 5.49796 0.0197725 0
M  V30 662 H 61.6763 6.79028 0.09912 0
M  V30 663 H 59.6223 6.16094 2.25308 0
M  V30 664 H 59.5393 7.47556 1.12673 0
M  V30 665 H 60.8073 7.44316 2.31546 0
M  V30 666 N 65.0364 0.313813 1.54444 0
M  V30 667 C 66.2844 -0.291099 1.99993 0
M  V30 668 C 66.6054 -1.53418 1.20366 0
M  V30 669 O 65.8754 -1.93544 0.302927 0
M  V30 670 H 64.4554 -0.110552 0.738774 0
M  V30 671 H 67.1174 0.428106 1.9014 0
M  V30 672 H 66.2134 -0.554268 3.07139 0
M  V30 673 N 66.5145 -1.57545 0.0417849 0
M  V30 674 C 67.7915 -1.83642 -0.673433 0
M  V30 675 C 68.1715 -0.928298 -1.89594 0
M  V30 676 O 67.5195 0.0129955 -2.28496 0
M  V30 677 C 67.7295 -3.33155 -1.03964 0
M  V30 678 C 69.0775 -3.99941 -1.42592 0
M  V30 679 O 70.1015 -3.37725 -1.13226 0
M  V30 680 O 68.9605 -5.09619 -1.9736 0
M  V30 681 H 66.0545 -0.757638 -0.331533 0
M  V30 682 H 68.6005 -1.69554 0.070433 0
M  V30 683 H 67.3725 -3.9093 -0.170098 0
M  V30 684 H 66.9955 -3.52396 -1.84126 0
M  V30 685 N 67.9926 0.231505 -1.5589 0
M  V30 686 C 69.2176 0.978689 -1.82856 0
M  V30 687 C 69.6426 1.77559 -0.620846 0
M  V30 688 O 69.0006 1.76119 0.430305 0
M  V30 689 C 69.0486 1.87997 -3.07716 0
M  V30 690 O 68.1526 2.97393 -2.85712 0
M  V30 691 H 67.4936 0.277663 -0.603158 0
M  V30 692 H 70.0236 0.24783 -2.03093 0
M  V30 693 H 70.0336 2.2917 -3.37558 0
M  V30 694 H 68.7086 1.29417 -3.95252 0
M  V30 695 H 67.2856 2.60238 -2.67078 0
M  V30 696 N 69.4707 1.49531 0.497807 0
M  V30 697 C 70.6957 1.63159 1.28039 0
M  V30 698 C 71.1207 0.30418 1.85624 0
M  V30 699 O 70.4787 -0.728618 1.66015 0
M  V30 700 C 70.5267 2.70537 2.38416 0
M  V30 701 O 69.6307 2.29931 3.42353 0
M  V30 702 H 68.9717 0.546001 0.377861 0
M  V30 703 H 71.5017 1.9574 0.59558 0
M  V30 704 H 71.5117 2.92802 2.84132 0
M  V30 705 H 70.1867 3.6689 1.95869 0
M  V30 706 H 68.7637 2.18009 3.02533 0
M  V30 707 N 70.9488 -0.749086 1.3866 0
M  V30 708 C 71.8788 -1.8764 1.38973 0
M  V30 709 C 72.8598 -1.68178 0.255004 0
M  V30 710 O 74.0448 -1.88704 0.458754 0
M  V30 711 C 71.1748 -3.25222 1.21851 0
M  V30 712 C 70.1288 -3.59295 2.32575 0
M  V30 713 C 69.4548 -4.95663 2.00555 0
M  V30 714 C 70.7548 -3.63709 3.7485 0
M  V30 715 H 72.4488 -1.87635 2.3331 0
M  V30 716 H 69.9948 -0.901329 1.12303 0
M  V30 717 H 71.9478 -4.03746 1.20695 0
M  V30 718 H 70.6718 -3.25719 0.239775 0
M  V30 719 H 69.3308 -2.83093 2.32925 0
M  V30 720 H 68.9788 -4.92724 1.01154 0
M  V30 721 H 68.6788 -5.19429 2.74714 0
M  V30 722 H 70.2028 -5.7656 2.01024 0
M  V30 723 H 71.6168 -4.32338 3.76506 0
M  V30 724 H 70.0138 -3.98986 4.48252 0
M  V30 725 H 71.0838 -2.63834 4.06841 0
M  V30 726 N 72.4269 -1.23603 -0.977757 0
M  V30 727 C 73.3369 -1.03632 -2.1047 0
M  V30 728 C 74.3529 0.0199435 -1.73989 0
M  V30 729 O 75.5289 -0.176076 -2.00629 0
M  V30 730 C 72.5939 -0.63276 -3.40877 0
M  V30 731 C 71.6549 -1.76437 -3.91367 0
M  V30 732 C 70.8879 -1.37997 -5.15551 0
M  V30 733 O 71.1109 -0.265357 -5.69782 0
M  V30 734 O 70.0449 -2.20201 -5.60174 0
M  V30 735 H 73.8709 -1.98086 -2.30208 0
M  V30 736 H 71.4559 -1.02332 -1.08851 0
M  V30 737 H 73.3379 -0.418761 -4.19314 0
M  V30 738 H 72.0129 0.282754 -3.22463 0
M  V30 739 H 70.9199 -2.03304 -3.14036 0
M  V30 740 H 72.2529 -2.6583 -4.14241 0
M  V30 741 N 73.905 1.17692 -1.04816 0
M  V30 742 C 75.133 1.91786 -0.776254 0
M  V30 743 C 75.548 1.76604 0.667577 0
M  V30 744 O 74.905 1.10067 1.45573 0
M  V30 745 C 74.956 3.42967 -1.14263 0
M  V30 746 O 74.677 3.57678 -2.52978 0
M  V30 747 C 76.178 4.34144 -0.896311 0
M  V30 748 H 73.398 0.608624 -0.282519 0
M  V30 749 H 75.942 1.49268 -1.39783 0
M  V30 750 H 74.097 3.83245 -0.565874 0
M  V30 751 H 74.511 4.51319 -2.67229 0
M  V30 752 H 75.985 5.38744 -1.20244 0
M  V30 753 H 76.462 4.38876 0.168636 0
M  V30 754 H 77.068 3.99574 -1.45672 0
M  V30 755 N 75.3831 0.828654 1.34056 0
M  V30 756 C 76.6291 0.42008 1.98402 0
M  V30 757 C 76.9621 -1.01564 1.65525 0
M  V30 758 O 76.2371 -1.70834 0.929831 0
M  V30 759 C 76.5201 0.62927 3.54559 0
M  V30 760 C 76.3731 2.11152 3.97159 0
M  V30 761 C 77.6921 0.0688756 4.40046 0
M  V30 762 H 74.8111 0.154104 0.720709 0
M  V30 763 H 77.4531 1.04228 1.5886 0
M  V30 764 H 75.6031 0.0996418 3.88372 0
M  V30 765 H 77.2751 2.70522 3.73651 0
M  V30 766 H 75.5181 2.59985 3.47261 0
M  V30 767 H 76.1891 2.20868 5.05887 0
M  V30 768 H 78.6651 0.521458 4.1282 0
M  V30 769 H 77.5411 0.245006 5.48353 0
M  V30 770 H 77.8021 -1.0266 4.30015 0
M  V30 771 N 76.8612 -1.46375 0.584142 0
M  V30 772 C 77.7912 -2.33103 -0.136037 0
M  V30 773 C 78.7722 -1.45431 -0.882255 0
M  V30 774 O 79.9572 -1.74246 -0.857434 0
M  V30 775 C 77.0872 -3.27731 -1.14933 0
M  V30 776 C 76.0412 -4.24855 -0.517862 0
M  V30 777 C 75.3672 -5.09001 -1.63773 0
M  V30 778 C 76.6672 -5.19439 0.545886 0
M  V30 779 H 78.3612 -2.93568 0.588086 0
M  V30 780 H 75.9072 -1.41166 0.284259 0
M  V30 781 H 77.8602 -3.87261 -1.66153 0
M  V30 782 H 76.5842 -2.65377 -1.90375 0
M  V30 783 H 75.2432 -3.6659 -0.0267361 0
M  V30 784 H 74.8912 -4.43031 -2.38185 0
M  V30 785 H 74.5912 -5.74777 -1.22085 0
M  V30 786 H 76.1152 -5.71396 -2.15266 0
M  V30 787 H 77.5292 -5.73177 0.118704 0
M  V30 788 H 75.9262 -5.93566 0.88317 0
M  V30 789 H 76.9962 -4.63285 1.43162 0
M  V30 790 N 78.3393 -0.321999 -1.54275 0
M  V30 791 C 79.3023 0.531975 -2.22941 0
M  V30 792 C 80.3023 1.04478 -1.22234 0
M  V30 793 O 81.4923 0.937452 -1.46825 0
M  V30 794 C 78.6243 1.73874 -2.93224 0
M  V30 795 H 79.8173 -0.0682612 -2.99822 0
M  V30 796 H 77.3703 -0.0730644 -1.56129 0
M  V30 797 H 78.1053 2.37825 -2.20476 0
M  V30 798 H 77.8903 1.37847 -3.6707 0
M  V30 799 H 79.3803 2.34496 -3.45545 0
M  V30 800 N 79.8174 1.5752 -0.0501392 0
M  V30 801 C 80.7474 2.14502 0.922566 0
M  V30 802 C 81.7284 1.06642 1.3252 0
M  V30 803 O 82.9134 1.34577 1.4001 0
M  V30 804 C 80.0434 2.68916 2.19776 0
M  V30 805 C 78.9974 3.8175 1.93523 0
M  V30 806 C 78.3234 4.22677 3.27487 0
M  V30 807 C 79.6234 5.06932 1.25765 0
M  V30 808 H 81.3174 2.9603 0.447952 0
M  V30 809 H 78.8634 1.42401 0.214024 0
M  V30 810 H 80.8164 3.07419 2.88222 0
M  V30 811 H 79.5404 1.84578 2.69441 0
M  V30 812 H 78.1994 3.43718 1.27489 0
M  V30 813 H 77.8474 3.35291 3.74952 0
M  V30 814 H 77.5474 4.98725 3.1072 0
M  V30 815 H 79.0714 4.63779 3.97166 0
M  V30 816 H 80.4854 5.42888 1.84244 0
M  V30 817 H 78.8824 5.88116 1.19328 0
M  V30 818 H 79.9524 4.84337 0.233536 0
M  V30 819 N 81.2955 -0.223234 1.56011 0
M  V30 820 C 82.5205 -0.968978 1.83373 0
M  V30 821 C 82.9455 -1.77227 0.630254 0
M  V30 822 O 82.3035 -1.76345 -0.420959 0
M  V30 823 C 82.3515 -1.86363 3.08709 0
M  V30 824 O 81.4555 -2.95873 2.87285 0
M  V30 825 H 80.7965 -0.274461 0.604622 0
M  V30 826 H 83.3265 -0.237056 2.03222 0
M  V30 827 H 83.3365 -2.27376 3.38768 0
M  V30 828 H 82.0115 -1.27319 3.95933 0
M  V30 829 H 80.5885 -2.58818 2.68454 0
M  V30 830 N 82.7736 -1.49793 -0.48987 0
M  V30 831 C 84.0206 -1.59841 -1.24327 0
M  V30 832 C 84.3486 -0.290135 -1.92324 0
M  V30 833 O 83.6036 0.722749 -1.81865 0
M  V30 834 C 83.9026 -2.71488 -2.32441 0
M  V30 835 C 83.5686 -4.12614 -1.81826 0
M  V30 836 C 82.2306 -4.51017 -1.67742 0
M  V30 837 C 84.5826 -5.00892 -1.4407 0
M  V30 838 C 81.9106 -5.75459 -1.14297 0
M  V30 839 C 84.2626 -6.25863 -0.920742 0
M  V30 840 C 82.9266 -6.63086 -0.766383 0
M  V30 841 H 82.1966 -0.584899 -0.454944 0
M  V30 842 H 84.8436 -1.83663 -0.542215 0
M  V30 843 H 83.1486 -2.4168 -3.0838 0
M  V30 844 H 84.8456 -2.76469 -2.90458 0
M  V30 845 H 81.4356 -3.82307 -1.93751 0
M  V30 846 H 85.6196 -4.7187 -1.53794 0
M  V30 847 H 80.8756 -6.02989 -1.01068 0
M  V30 848 H 85.0496 -6.9364 -0.619448 0
M  V30 849 H 82.6766 -7.59393 -0.350083 0
M  V30 850 N 84.2517 0.741722 -1.39055 0
M  V30 851 C 85.1617 1.88621 -1.39496 0
M  V30 852 C 86.1777 1.71557 -0.290578 0
M  V30 853 O 87.3537 1.94275 -0.530954 0
M  V30 854 C 84.4187 3.24134 -1.23037 0
M  V30 855 C 83.4797 3.5364 -2.43387 0
M  V30 856 C 82.7127 4.82687 -2.27703 0
M  V30 857 O 82.9357 5.55922 -1.27696 0
M  V30 858 O 81.8697 5.1194 -3.16545 0
M  V30 859 H 85.6957 1.91203 -2.35956 0
M  V30 860 H 83.2807 0.888625 -1.20099 0
M  V30 861 H 85.1627 4.0513 -1.15964 0
M  V30 862 H 83.8377 3.22337 -0.296691 0
M  V30 863 H 82.7447 2.72758 -2.56035 0
M  V30 864 H 84.0777 3.60209 -3.35425 0
M  V30 865 N 85.7298 1.2412 0.971189 0
M  V30 866 C 86.9778 1.07668 1.71032 0
M  V30 867 C 87.2988 -0.385797 1.91146 0
M  V30 868 O 86.5688 -1.27569 1.4867 0
M  V30 869 H 85.1488 0.395429 0.633755 0
M  V30 870 H 87.8108 1.55984 1.16855 0
M  V30 871 H 86.9068 1.57195 2.69622 0
M  V30 872 N 87.2079 -1.17134 1.05439 0
M  V30 873 C 88.4359 -1.91372 0.786414 0
M  V30 874 C 88.8509 -1.76955 -0.658202 0
M  V30 875 O 88.2079 -1.10838 -1.44987 0
M  V30 876 C 88.2589 -3.42356 1.1608 0
M  V30 877 O 87.9799 -3.56332 2.54871 0
M  V30 878 C 89.4809 -4.33663 0.919322 0
M  V30 879 H 86.7009 -0.607118 0.285743 0
M  V30 880 H 89.2449 -1.48525 1.40572 0
M  V30 881 H 87.3999 -3.82939 0.586191 0
M  V30 882 H 87.8139 -4.49896 2.69618 0
M  V30 883 H 89.2879 -5.38099 1.231 0
M  V30 884 H 89.7649 -4.38959 -0.145359 0
M  V30 885 H 90.3709 -3.98796 1.47789 0
M  V30 886 N 88.686 -0.835752 -1.33615 0
M  V30 887 C 89.914 -0.443344 -2.02094 0
M  V30 888 C 90.329 0.954522 -1.62894 0
M  V30 889 O 89.686 1.61982 -0.840723 0
M  V30 890 C 89.737 -0.550775 -3.5728 0
M  V30 891 O 89.458 -1.89356 -3.95065 0
M  V30 892 C 90.959 -0.154919 -4.43029 0
M  V30 893 H 88.179 -0.176359 -0.647409 0
M  V30 894 H 90.723 -1.12746 -1.70612 0
M  V30 895 H 88.878 0.0853997 -3.87306 0
M  V30 896 H 89.292 -1.87687 -4.89769 0
M  V30 897 H 90.766 -0.281144 -5.51284 0
M  V30 898 H 91.243 0.902863 -4.2982 0
M  V30 899 H 91.849 -0.765404 -4.18356 0
M  V30 900 N 90.1641 1.46063 -0.591896 0
M  V30 901 C 91.0741 2.34192 0.13831 0
M  V30 902 C 92.0901 1.50305 0.876608 0
M  V30 903 O 93.2661 1.8315 0.837728 0
M  V30 904 C 90.3311 3.27656 1.13326 0
M  V30 905 C 89.3921 4.27445 0.39863 0
M  V30 906 C 88.6251 5.16443 1.34618 0
M  V30 907 O 88.8481 5.08553 2.58321 0
M  V30 908 O 87.7821 5.95843 0.851768 0
M  V30 909 H 91.6081 2.98002 -0.58552 0
M  V30 910 H 89.1931 1.45188 -0.352239 0
M  V30 911 H 91.0751 3.85291 1.70671 0
M  V30 912 H 89.7501 2.6643 1.83839 0
M  V30 913 H 88.6571 3.73471 -0.216895 0
M  V30 914 H 89.9901 4.91482 -0.265709 0
M  V30 915 N 91.6422 0.330177 1.54103 0
M  V30 916 C 92.8902 -0.269871 2.0029 0
M  V30 917 C 93.2112 -1.52133 1.21986 0
M  V30 918 O 92.4812 -1.93212 0.323438 0
M  V30 919 H 91.0612 -0.10271 0.739905 0
M  V30 920 H 93.7232 0.448249 1.89675 0
M  V30 921 H 92.8192 -0.52166 3.07709 0
M  V30 922 N 93.1203 -1.57491 0.0584922 0
M  V30 923 C 94.3663 -1.93264 -0.614558 0
M  V30 924 C 94.6993 -0.937717 -1.7006 0
M  V30 925 O 93.9743 0.0351652 -1.94468 0
M  V30 926 C 94.2573 -3.3938 -1.20386 0
M  V30 927 C 94.1103 -4.49625 -0.125375 0
M  V30 928 C 95.4293 -3.86039 -2.11334 0
M  V30 929 H 92.5483 -0.702791 -0.221933 0
M  V30 930 H 95.1903 -1.8961 0.12175 0
M  V30 931 H 93.3403 -3.42626 -1.83139 0
M  V30 932 H 95.0123 -4.58506 0.506971 0
M  V30 933 H 93.2553 -4.30354 0.545672 0
M  V30 934 H 93.9263 -5.48967 -0.577861 0
M  V30 935 H 96.4023 -3.84716 -1.58534 0
M  V30 936 H 95.2783 -4.88914 -2.49507 0
M  V30 937 H 95.5393 -3.23215 -3.01636 0
M  V30 938 N 94.5984 0.214957 -1.56127 0
M  V30 939 C 95.8444 0.939762 -1.79712 0
M  V30 940 C 96.1774 1.83723 -0.629247 0
M  V30 941 O 95.4524 1.90925 0.371197 0
M  V30 942 C 95.7354 1.77306 -3.13424 0
M  V30 943 C 95.5884 0.90164 -4.40671 0
M  V30 944 C 96.9074 2.74956 -3.43638 0
M  V30 945 H 94.0264 0.340214 -0.653776 0
M  V30 946 H 96.6684 0.20824 -1.88855 0
M  V30 947 H 94.8184 2.39673 -3.0576 0
M  V30 948 H 96.4904 0.294206 -4.60361 0
M  V30 949 H 94.7334 0.207368 -4.33304 0
M  V30 950 H 95.4044 1.51923 -5.30682 0
M  V30 951 H 97.8804 2.22724 -3.51473 0
M  V30 952 H 96.7564 3.30358 -4.38355 0
M  V30 953 H 97.0174 3.53023 -2.66134 0
M  V30 954 N 96.0765 1.50051 0.48192 0
M  V30 955 C 97.4875 1.5348 1.06305 0
M  V30 956 C 97.8385 0.331997 1.93371 0
M  V30 957 O 96.9635 -0.556256 2.09129 0
M  V30 958 C 97.5585 2.7813 1.93466 0
M  V30 959 C 96.1175 2.84275 2.46707 0
M  V30 960 C 95.2645 2.47637 1.24785 0
M  V30 961 H 98.2155 1.56472 0.264995 0
M  V30 962 H 98.2365 2.59372 2.78399 0
M  V30 963 H 97.7485 3.65654 1.30072 0
M  V30 964 H 95.8495 2.01077 3.13686 0
M  V30 965 H 95.9625 3.8691 2.82555 0
M  V30 966 H 94.3265 1.99835 1.57918 0
M  V30 967 H 95.1095 3.37457 0.630694 0
M  V30 968 N 97.5546 -0.734337 1.39446 0
M  V30 969 C 98.8016 -1.49391 1.36706 0
M  V30 970 C 99.1296 -1.94465 -0.0367813 0
M  V30 971 O 98.3846 -1.67154 -1.01774 0
M  V30 972 C 98.6836 -2.74711 2.28623 0
M  V30 973 C 98.3496 -2.48501 3.76242 0
M  V30 974 C 97.0116 -2.41062 4.16464 0
M  V30 975 C 99.3636 -2.26098 4.69606 0
M  V30 976 C 96.6916 -2.09262 5.48112 0
M  V30 977 C 99.0436 -1.95814 6.01531 0
M  V30 978 C 97.7076 -1.86845 6.40816 0
M  V30 979 H 96.9776 -0.546661 0.500243 0
M  V30 980 H 99.6246 -0.842788 1.71957 0
M  V30 981 H 97.9296 -3.44569 1.86492 0
M  V30 982 H 99.6266 -3.32741 2.23796 0
M  V30 983 H 96.2166 -2.55169 3.44364 0
M  V30 984 H 100.401 -2.30812 4.39363 0
M  V30 985 H 95.6566 -2.00841 5.77471 0
M  V30 986 H 99.8306 -1.77488 6.73403 0
M  V30 987 H 97.4576 -1.6197 7.42745 0
M  V30 988 N 99.0327 -1.24633 -0.964593 0
M  V30 989 C 100.281 -1.08573 -1.70459 0
M  V30 990 C 100.602 0.375655 -1.91347 0
M  V30 991 O 99.8717 1.26779 -1.49345 0
M  V30 992 H 98.4517 -0.398784 -0.631649 0
M  V30 993 H 101.114 -1.56601 -1.16026 0
M  V30 994 H 100.21 -1.58623 -2.68785 0
M  V30 995 N 100.511 1.16574 -1.06058 0
M  V30 996 C 101.458 2.20883 -0.669263 0
M  V30 997 C 102.428 1.62729 0.332918 0
M  V30 998 O 103.613 1.895 0.222346 0
M  V30 999 C 100.753 3.45049 -0.0593572 0
M  V30 1000 C 99.8658 4.17458 -1.11143 0
M  V30 1001 C 99.0008 5.29135 -0.467916 0
M  V30 1002 C 98.0398 5.93343 -1.50369 0
M  V30 1003 N 97.1768 6.96516 -0.883706 0
M  V30 1004 H 102.017 2.53709 -1.5632 0
M  V30 1005 H 99.5538 1.24616 -0.781625 0
M  V30 1006 H 101.512 4.16033 0.311771 0
M  V30 1007 H 100.142 3.12781 0.797992 0
M  V30 1008 H 99.1938 3.45101 -1.60029 0
M  V30 1009 H 100.506 4.61307 -1.89731 0
M  V30 1010 H 99.6598 6.06684 -0.0436871 0
M  V30 1011 H 98.3988 4.86443 0.349864 0
M  V30 1012 H 97.4038 5.14517 -1.93784 0
M  V30 1013 H 98.6288 6.38114 -2.32352 0
M  V30 1014 H 96.5748 6.55943 -0.086595 0
M  V30 1015 H 96.4918 7.38723 -1.607 0
M  V30 1016 H 97.7598 7.77993 -0.484543 0
M  V30 1017 N 101.989 0.842826 1.3317 0
M  V30 1018 C 103.266 0.362216 1.92217 0
M  V30 1019 C 103.646 -1.15289 1.76838 0
M  V30 1020 O 102.994 -1.96914 1.15919 0
M  V30 1021 C 103.204 0.813495 3.39387 0
M  V30 1022 C 104.552 0.823804 4.16532 0
M  V30 1023 O 105.576 0.757358 3.48055 0
M  V30 1024 O 104.435 0.915193 5.38782 0
M  V30 1025 H 101.529 0.103317 0.820521 0
M  V30 1026 H 104.075 0.928942 1.42017 0
M  V30 1027 H 102.847 1.85624 3.4447 0
M  V30 1028 H 102.47 0.223561 3.96971 0
M  V30 1029 N 103.467 -1.45747 0.599634 0
M  V30 1030 C 104.713 -2.02592 0.0918643 0
M  V30 1031 C 105.046 -1.46806 -1.27128 0
M  V30 1032 O 104.321 -0.639658 -1.83681 0
M  V30 1033 C 104.604 -3.60073 0.0443398 0
M  V30 1034 C 104.457 -4.26208 1.43759 0
M  V30 1035 C 105.776 -4.35309 -0.647608 0
M  V30 1036 H 102.895 -0.736175 0.034857 0
M  V30 1037 H 105.537 -1.73694 0.770081 0
M  V30 1038 H 103.687 -3.84823 -0.533224 0
M  V30 1039 H 105.359 -4.12668 2.06162 0
M  V30 1040 H 103.602 -3.84916 2.00056 0
M  V30 1041 H 104.273 -5.35069 1.35665 0
M  V30 1042 H 106.749 -4.15805 -0.156776 0
M  V30 1043 H 105.625 -5.45038 -0.649942 0
M  V30 1044 H 105.886 -4.07598 -1.71219 0
M  V30 1045 N 104.945 -0.338344 -1.53925 0
M  V30 1046 C 106.191 0.260143 -2.01125 0
M  V30 1047 C 106.524 1.50617 -1.22589 0
M  V30 1048 O 105.799 1.91979 -0.312113 0
M  V30 1049 C 106.082 0.579499 -3.55407 0
M  V30 1050 C 105.935 -0.678264 -4.44657 0
M  V30 1051 C 107.254 1.39122 -4.17532 0
M  V30 1052 H 104.373 0.0930772 -0.731099 0
M  V30 1053 H 107.015 -0.457852 -1.84401 0
M  V30 1054 H 105.165 1.19118 -3.69788 0
M  V30 1055 H 106.837 -1.31631 -4.42121 0
M  V30 1056 H 105.08 -1.3042 -4.13731 0
M  V30 1057 H 105.751 -0.410143 -5.50474 0
M  V30 1058 H 108.227 0.874035 -4.06817 0
M  V30 1059 H 107.103 1.58342 -5.25565 0
M  V30 1060 H 107.364 2.39178 -3.71815 0
M  V30 1061 N 106.423 1.57458 -0.0668435 0
M  V30 1062 C 107.353 2.15468 0.899764 0
M  V30 1063 C 108.334 1.08042 1.31381 0
M  V30 1064 O 109.519 1.36054 1.38574 0
M  V30 1065 C 106.649 2.71232 2.16911 0
M  V30 1066 C 105.603 3.83781 1.89463 0
M  V30 1067 C 104.929 4.26127 3.22986 0
M  V30 1068 C 106.229 5.08238 1.20381 0
M  V30 1069 H 107.923 2.96488 0.416529 0
M  V30 1070 H 105.469 1.4262 0.198908 0
M  V30 1071 H 107.422 3.10458 2.84945 0
M  V30 1072 H 106.146 1.87426 2.67468 0
M  V30 1073 H 104.805 3.45051 1.23836 0
M  V30 1074 H 104.453 3.39249 3.71374 0
M  V30 1075 H 104.153 5.01993 3.05413 0
M  V30 1076 H 105.677 4.67966 3.92225 0
M  V30 1077 H 107.091 5.44811 1.78475 0
M  V30 1078 H 105.488 5.89349 1.13083 0
M  V30 1079 H 106.558 4.84558 0.182153 0
M  V30 1080 N 107.901 -0.206675 1.56239 0
M  V30 1081 C 109.129 -0.945345 1.8404 0
M  V30 1082 C 109.544 -1.77336 0.647885 0
M  V30 1083 O 108.901 -1.78425 -0.383511 0
M  V30 1084 C 108.952 -1.8509 3.10522 0
M  V30 1085 O 108.673 -1.05634 4.25174 0
M  V30 1086 C 110.174 -2.70222 3.51418 0
M  V30 1087 H 107.394 -0.276372 0.61144 0
M  V30 1088 H 109.938 -0.217417 2.03341 0
M  V30 1089 H 108.093 -2.53259 2.93153 0
M  V30 1090 H 108.507 -1.67238 4.97124 0
M  V30 1091 H 109.981 -3.29438 4.42916 0
M  V30 1092 H 110.458 -3.43358 2.73864 0
M  V30 1093 H 111.064 -2.07443 3.71278 0
M  V30 1094 N 109.379 -1.50304 -0.473955 0
M  V30 1095 C 110.342 -1.6841 -1.55469 0
M  V30 1096 C 111.342 -0.554905 -1.50922 0
M  V30 1097 O 112.532 -0.821882 -1.53593 0
M  V30 1098 C 109.664 -1.70667 -2.95102 0
M  V30 1099 H 110.857 -2.64828 -1.40733 0
M  V30 1100 H 108.41 -1.39742 -0.700132 0
M  V30 1101 H 109.145 -0.75932 -3.15285 0
M  V30 1102 H 108.93 -2.52698 -2.9981 0
M  V30 1103 H 110.42 -1.8664 -3.73571 0
M  V30 1104 N 110.857 0.726932 -1.39834 0
M  V30 1105 C 112.082 1.52121 -1.40976 0
M  V30 1106 C 112.507 1.88098 -0.00826029 0
M  V30 1107 O 111.865 1.52479 0.980807 0
M  V30 1108 C 111.913 2.78021 -2.29644 0
M  V30 1109 O 111.017 3.74272 -1.73188 0
M  V30 1110 H 110.358 0.45908 -0.479731 0
M  V30 1111 H 112.888 0.896207 -1.83927 0
M  V30 1112 H 112.898 3.26671 -2.44438 0
M  V30 1113 H 111.573 2.51169 -3.31492 0
M  V30 1114 H 110.15 3.33073 -1.6768 0
M  V30 1115 N 112.336 1.25143 0.95797 0
M  V30 1116 C 113.268 1.01023 2.05735 0
M  V30 1117 C 114.281 -0.0236902 1.62783 0
M  V30 1118 O 115.47 0.21448 1.77207 0
M  V30 1119 C 112.57 0.504595 3.35122 0
M  V30 1120 C 111.743 1.6039 4.06932 0
M  V30 1121 C 110.802 1.09922 5.14591 0
M  V30 1122 O 109.828 1.79293 5.40225 0
M  V30 1123 N 111.03 -0.0612545 5.80468 0
M  V30 1124 H 113.795 1.95683 2.26998 0
M  V30 1125 H 111.356 1.16303 1.12629 0
M  V30 1126 H 113.348 0.151516 4.04416 0
M  V30 1127 H 111.918 -0.347989 3.10657 0
M  V30 1128 H 111.138 2.12872 3.31782 0
M  V30 1129 H 112.426 2.34252 4.51667 0
M  V30 1130 H 111.824 -0.640985 5.62057 0
M  V30 1131 H 110.381 -0.355395 6.5083 0
M  V30 1132 N 113.814 -1.1601 1.06675 0
M  V30 1133 C 115.091 -1.82679 0.699114 0
M  V30 1134 C 115.471 -1.94559 -0.819137 0
M  V30 1135 O 114.819 -1.49169 -1.73092 0
M  V30 1136 C 115.029 -3.19445 1.40555 0
M  V30 1137 C 116.377 -3.95171 1.55323 0
M  V30 1138 O 117.401 -3.28976 1.36577 0
M  V30 1139 O 116.26 -5.13833 1.86112 0
M  V30 1140 H 113.354 -0.788954 0.247951 0
M  V30 1141 H 115.9 -1.23179 1.16726 0
M  V30 1142 H 114.672 -3.05856 2.44065 0
M  V30 1143 H 114.295 -3.86625 0.927733 0
M  V30 1144 N 115.292 -0.849877 -1.32721 0
M  V30 1145 C 116.538 -0.451591 -1.97708 0
M  V30 1146 C 116.871 0.989175 -1.6712 0
M  V30 1147 O 116.146 1.69334 -0.956891 0
M  V30 1148 C 116.429 -0.685598 -3.53513 0
M  V30 1149 C 116.282 -2.17444 -3.93749 0
M  V30 1150 C 117.601 -0.138874 -4.39881 0
M  V30 1151 H 114.72 -0.16555 -0.718166 0
M  V30 1152 H 117.362 -1.06742 -1.57182 0
M  V30 1153 H 115.512 -0.161416 -3.88165 0
M  V30 1154 H 117.184 -2.76433 -3.693 0
M  V30 1155 H 115.427 -2.65476 -3.43081 0
M  V30 1156 H 116.098 -2.28888 -5.02309 0
M  V30 1157 H 118.574 -0.587068 -4.11938 0
M  V30 1158 H 117.45 -0.332213 -5.47894 0
M  V30 1159 H 117.711 0.95806 -4.31594 0
M  V30 1160 N 116.77 1.45427 -0.607355 0
M  V30 1161 C 117.733 2.28974 0.101693 0
M  V30 1162 C 118.733 1.39754 0.795329 0
M  V30 1163 O 119.923 1.61878 0.643527 0
M  V30 1164 C 117.055 3.20768 1.15414 0
M  V30 1165 H 118.248 2.93147 -0.632844 0
M  V30 1166 H 115.801 1.51945 -0.366391 0
M  V30 1167 H 116.536 2.61395 1.91945 0
M  V30 1168 H 116.321 3.86489 0.66098 0
M  V30 1169 H 117.811 3.83589 1.65073 0
M  V30 1170 N 118.248 0.346503 1.53744 0
M  V30 1171 C 119.211 -0.496439 2.23759 0
M  V30 1172 C 120.211 -1.0252 1.2388 0
M  V30 1173 O 121.401 -0.913974 1.48297 0
M  V30 1174 C 118.533 -1.69187 2.95954 0
M  V30 1175 H 119.726 0.115952 2.99676 0
M  V30 1176 H 117.279 0.0978939 1.55993 0
M  V30 1177 H 118.014 -2.34288 2.24231 0
M  V30 1178 H 117.799 -1.31989 3.69217 0
M  V30 1179 H 119.289 -2.28969 3.49232 0
M  V30 1180 N 119.726 -1.57421 0.075193 0
M  V30 1181 C 121.003 -1.85029 -0.634329 0
M  V30 1182 C 121.383 -0.968305 -1.87582 0
M  V30 1183 O 120.731 -0.0354749 -2.28472 0
M  V30 1184 C 120.941 -3.35286 -0.968742 0
M  V30 1185 C 122.289 -4.02875 -1.34077 0
M  V30 1186 O 123.313 -3.40051 -1.06037 0
M  V30 1187 O 122.172 -5.13691 -1.86506 0
M  V30 1188 H 119.266 -0.7645 -0.315387 0
M  V30 1189 H 121.812 -1.69366 0.106382 0
M  V30 1190 H 120.584 -3.91203 -0.0871376 0
M  V30 1191 H 120.207 -3.56223 -1.7661 0
M  V30 1192 N 121.204 0.198386 -1.56346 0
M  V30 1193 C 122.452 0.91747 -1.80075 0
M  V30 1194 C 122.773 1.83929 -0.647692 0
M  V30 1195 O 122.043 1.93029 0.334166 0
M  V30 1196 H 120.623 0.341774 -0.664228 0
M  V30 1197 H 123.285 0.204684 -1.93822 0
M  V30 1198 H 122.381 1.51055 -2.7311 0
M  V30 1199 N 122.682 1.50554 0.465978 0
M  V30 1200 C 123.592 1.72585 1.58907 0
M  V30 1201 C 124.608 0.60911 1.6299 0
M  V30 1202 O 125.784 0.88804 1.80765 0
M  V30 1203 C 122.849 1.81995 2.95091 0
M  V30 1204 C 121.91 3.05751 3.01355 0
M  V30 1205 C 121.143 3.14702 4.31043 0
M  V30 1206 O 121.366 2.30313 5.21835 0
M  V30 1207 O 120.3 4.07468 4.43005 0
M  V30 1208 H 124.126 2.67799 1.43239 0
M  V30 1209 H 121.711 1.34711 0.646013 0
M  V30 1210 H 123.593 1.90335 3.75966 0
M  V30 1211 H 122.268 0.899659 3.10947 0
M  V30 1212 H 121.175 3.02908 2.19539 0
M  V30 1213 H 122.508 3.97375 2.90437 0
M  V30 1214 N 124.16 -0.719506 1.40217 0
M  V30 1215 C 125.39 -1.50646 1.41384 0
M  V30 1216 C 125.798 -1.89197 0.0107743 0
M  V30 1217 O 125.141 -1.55709 -0.974708 0
M  V30 1218 C 125.203 -2.81405 2.23722 0
M  V30 1219 C 124.867 -2.65199 3.72181 0
M  V30 1220 C 125.864 -2.32717 4.64907 0
M  V30 1221 C 123.549 -2.81586 4.1595 0
M  V30 1222 C 125.543 -2.16827 5.99387 0
M  V30 1223 C 123.23 -2.65313 5.50502 0
M  V30 1224 C 124.228 -2.32981 6.42035 0
M  V30 1225 O 123.916 -2.16827 7.74107 0
M  V30 1226 H 123.648 -0.471606 0.484318 0
M  V30 1227 H 126.202 -0.895456 1.84853 0
M  V30 1228 H 124.432 -3.44823 1.75026 0
M  V30 1229 H 126.121 -3.43102 2.16878 0
M  V30 1230 H 126.887 -2.19694 4.32388 0
M  V30 1231 H 122.766 -3.0574 3.45027 0
M  V30 1232 H 126.31 -1.91513 6.70797 0
M  V30 1233 H 122.207 -2.7792 5.82607 0
M  V30 1234 H 122.975 -2.31778 7.84998 0
M  V30 1235 N 125.638 -1.25649 -0.95132 0
M  V30 1236 C 126.863 -1.13443 -1.73624 0
M  V30 1237 C 127.288 0.307565 -1.85568 0
M  V30 1238 O 126.646 1.22282 -1.33854 0
M  V30 1239 C 126.694 -1.79723 -3.12621 0
M  V30 1240 O 125.798 -1.07912 -3.98031 0
M  V30 1241 H 125.139 -0.395872 -0.533086 0
M  V30 1242 H 127.669 -1.66276 -1.1922 0
M  V30 1243 H 127.679 -1.86141 -3.63064 0
M  V30 1244 H 126.354 -2.84633 -3.03244 0
M  V30 1245 H 124.931 -1.09398 -3.56492 0
M  V30 1246 N 127.117 1.15442 -1.07289 0
M  V30 1247 C 128.047 2.22312 -0.714107 0
M  V30 1248 C 129.028 1.67467 0.298155 0
M  V30 1249 O 130.213 1.93445 0.171048 0
M  V30 1250 C 127.343 3.47124 -0.110448 0
M  V30 1251 C 126.297 4.14926 -1.04979 0
M  V30 1252 C 125.623 5.33807 -0.308924 0
M  V30 1253 C 126.923 4.64762 -2.38314 0
M  V30 1254 H 128.617 2.5258 -1.6076 0
M  V30 1255 H 126.163 1.21404 -0.77441 0
M  V30 1256 H 128.116 4.21124 0.152482 0
M  V30 1257 H 126.84 3.16187 0.81812 0
M  V30 1258 H 125.499 3.42866 -1.29764 0
M  V30 1259 H 125.147 4.99126 0.623084 0
M  V30 1260 H 124.847 5.80113 -0.935036 0
M  V30 1261 H 126.371 6.10576 -0.0537771 0
M  V30 1262 H 127.785 5.30292 -2.1786 0
M  V30 1263 H 126.182 5.21728 -2.96514 0
M  V30 1264 H 127.252 3.80434 -3.00663 0
M  V30 1265 N 128.595 0.856903 1.32268 0
M  V30 1266 C 129.542 0.301172 2.28827 0
M  V30 1267 C 130.512 -0.593104 1.5515 0
M  V30 1268 O 131.697 -0.527537 1.83362 0
M  V30 1269 C 128.837 -0.502523 3.41422 0
M  V30 1270 C 127.95 0.417797 4.29975 0
M  V30 1271 C 127.085 -0.398749 5.29701 0
M  V30 1272 C 126.124 0.518827 6.09897 0
M  V30 1273 N 125.261 -0.260674 7.01616 0
M  V30 1274 H 130.101 1.12983 2.75751 0
M  V30 1275 H 127.638 0.568582 1.35667 0
M  V30 1276 H 129.596 -0.984141 4.05426 0
M  V30 1277 H 128.226 -1.29599 2.95642 0
M  V30 1278 H 127.278 1.01781 3.66531 0
M  V30 1279 H 128.59 1.12191 4.86019 0
M  V30 1280 H 127.744 -0.943435 5.9932 0
M  V30 1281 H 126.483 -1.13622 4.7428 0
M  V30 1282 H 125.488 1.07538 5.39181 0
M  V30 1283 H 126.713 1.25495 6.67404 0
M  V30 1284 H 124.659 -0.981198 6.4862 0
M  V30 1285 H 124.576 0.384364 7.55022 0
M  V30 1286 H 125.844 -0.787014 7.75517 0
M  V30 1287 N 130.073 -1.45103 0.615059 0
M  V30 1288 C 131.319 -2.02483 0.113347 0
M  V30 1289 C 131.652 -1.48146 -1.25564 0
M  V30 1290 O 130.927 -0.659104 -1.82992 0
M  V30 1291 C 131.21 -3.60005 0.0825278 0
M  V30 1292 C 131.063 -4.2466 1.48271 0
M  V30 1293 C 132.382 -4.35972 -0.601401 0
M  V30 1294 H 129.501 -0.735764 0.0426632 0
M  V30 1295 H 132.143 -1.72868 0.788461 0
M  V30 1296 H 130.293 -3.85367 -0.492378 0
M  V30 1297 H 131.965 -4.10458 2.10527 0
M  V30 1298 H 130.208 -3.82772 2.04127 0
M  V30 1299 H 130.879 -5.336 1.41332 0
M  V30 1300 H 133.355 -4.15947 -0.112666 0
M  V30 1301 H 132.231 -5.45697 -0.592097 0
M  V30 1302 H 132.492 -4.09391 -1.66887 0
M  V30 1303 N 131.551 -0.354651 -1.53558 0
M  V30 1304 C 132.461 0.50515 -2.29097 0
M  V30 1305 C 133.477 1.10223 -1.34636 0
M  V30 1306 O 134.653 1.11553 -1.67684 0
M  V30 1307 C 131.718 1.63479 -3.05738 0
M  V30 1308 C 130.779 1.06636 -4.15845 0
M  V30 1309 C 130.012 2.14217 -4.88822 0
M  V30 1310 O 130.235 3.35137 -4.61562 0
M  V30 1311 O 129.169 1.77887 -5.75013 0
M  V30 1312 H 132.995 -0.109237 -3.03503 0
M  V30 1313 H 130.58 -0.119357 -1.48922 0
M  V30 1314 H 132.462 2.2918 -3.5363 0
M  V30 1315 H 131.137 2.23478 -2.34178 0
M  V30 1316 H 130.044 0.373565 -3.7223 0
M  V30 1317 H 131.377 0.511081 -4.89539 0
M  V30 1318 N 133.029 1.57378 -0.0835403 0
M  V30 1319 C 133.977 2.14602 0.89714 0
M  V30 1320 C 134.971 1.08589 1.30018 0
M  V30 1321 O 136.177 1.26952 1.27606 0
M  V30 1322 H 132.552 0.686346 0.3073 0
M  V30 1323 H 134.523 2.95845 0.38969 0
M  V30 1324 C 133.272 2.73188 2.15089 0
M  V30 1325 H 132.595 3.54442 1.84962 0
M  V30 1326 H 134.035 3.1681 2.81793 0
M  V30 1327 C 132.494 1.68517 2.91725 0
M  V30 1328 O 133.024 1.11718 3.85852 0
M  V30 1329 N 131.23 1.39277 2.55049 0
M  V30 1330 H 130.777 1.85655 1.78577 0
M  V30 1331 H 130.735 0.694791 3.06627 0
M  V30 1332 N 134.507 -0.190092 1.56449 0
M  V30 1333 C 135.923 -0.54113 1.50146 0
M  V30 1334 C 136.123 -1.85603 0.784465 0
M  V30 1335 O 135.179 -2.5024 0.337051 0
M  V30 1336 C 136.492 -0.591241 2.9483 0
M  V30 1337 C 138.04 -0.679732 3.0553 0
M  V30 1338 C 138.515 -0.760908 4.51635 0
M  V30 1339 N 140.006 -0.824302 4.55806 0
M  V30 1340 C 140.741 -0.907365 5.66175 0
M  V30 1341 N 140.237 -0.952422 6.86222 0
M  V30 1342 N 142.03 -0.94494 5.541 0
M  V30 1343 H 134.181 0.67235 2.01478 0
M  V30 1344 H 136.444 0.240127 0.917084 0
M  V30 1345 H 136.15 0.305905 3.50367 0
M  V30 1346 H 136.024 -1.44422 3.48457 0
M  V30 1347 H 138.411 -1.56731 2.50039 0
M  V30 1348 H 138.492 0.199549 2.5502 0
M  V30 1349 H 138.136 0.122336 5.07753 0
M  V30 1350 H 138.066 -1.65606 4.99882 0
M  V30 1351 H 140.557 -0.798526 3.69367 0
M  V30 1352 H 140.87 -1.01645 7.66086 0
M  V30 1353 H 139.215 -0.921014 6.8887 0
M  V30 1354 H 142.406 -0.906612 4.59236 0
M  V30 1355 H 142.579 -1.00622 6.4014 0
M  V30 1356 N 135.985 -1.50799 -0.457987 0
M  V30 1357 C 137.213 -1.66218 -1.23203 0
M  V30 1358 C 137.628 -0.350894 -1.85511 0
M  V30 1359 O 136.985 0.668546 -1.69814 0
M  V30 1360 C 137.036 -2.76291 -2.33121 0
M  V30 1361 O 136.757 -4.02338 -1.73366 0
M  V30 1362 C 138.258 -3.028 -3.2377 0
M  V30 1363 H 135.478 -0.558361 -0.372121 0
M  V30 1364 H 138.022 -1.97099 -0.545179 0
M  V30 1365 H 136.177 -2.48068 -2.97558 0
M  V30 1366 H 136.591 -4.63312 -2.4585 0
M  V30 1367 H 138.065 -3.8345 -3.97077 0
M  V30 1368 H 138.542 -2.14385 -3.83322 0
M  V30 1369 H 139.148 -3.32604 -2.65056 0
M  V30 1370 N 137.463 0.71206 -1.40597 0
M  V30 1371 C 138.688 1.50617 -1.42581 0
M  V30 1372 C 139.113 1.88079 -0.0282102 0
M  V30 1373 O 138.471 1.53511 0.964579 0
M  V30 1374 C 138.519 2.7557 -2.3258 0
M  V30 1375 O 137.623 3.72414 -1.77148 0
M  V30 1376 H 136.964 0.453966 -0.484573 0
M  V30 1377 H 139.494 0.876649 -1.84868 0
M  V30 1378 H 139.504 3.2406 -2.47889 0
M  V30 1379 H 138.179 2.47639 -3.34138 0
M  V30 1380 H 136.756 3.31276 -1.71204 0
M  V30 1381 N 138.941 1.26152 0.944643 0
M  V30 1382 C 140.352 1.10454 1.50522 0
M  V30 1383 C 140.703 -0.31635 1.93633 0
M  V30 1384 O 139.828 -1.20746 1.79581 0
M  V30 1385 C 140.423 1.99891 2.73549 0
M  V30 1386 C 138.982 1.88348 3.25886 0
M  V30 1387 C 138.129 1.93447 1.9868 0
M  V30 1388 H 141.08 1.39292 0.760489 0
M  V30 1389 H 141.101 1.54477 3.47732 0
M  V30 1390 H 140.613 3.03297 2.42141 0
M  V30 1391 H 138.714 0.878636 3.62092 0
M  V30 1392 H 138.827 2.73696 3.93227 0
M  V30 1393 H 137.191 1.37456 2.14425 0
M  V30 1394 H 137.974 2.98476 1.69607 0
M  V30 1395 N 140.419 -1.14872 1.07899 0
M  V30 1396 C 141.665 -1.86289 0.81657 0
M  V30 1397 C 142.02 -1.8107 -0.65049 0
M  V30 1398 O 141.313 -1.22684 -1.47171 0
M  V30 1399 C 141.507 -3.34223 1.26609 0
M  V30 1400 C 141.336 -3.53846 2.77531 0
M  V30 1401 C 140.106 -3.68995 3.45212 0
M  V30 1402 C 142.304 -3.51201 3.75716 0
M  V30 1403 N 140.286 -3.76725 4.84718 0
M  V30 1404 C 141.657 -3.65112 5.01092 0
M  V30 1405 C 143.712 -3.34507 3.68794 0
M  V30 1406 C 142.415 -3.64056 6.20368 0
M  V30 1407 C 144.441 -3.34752 4.8754 0
M  V30 1408 C 143.803 -3.49199 6.11751 0
M  V30 1409 H 139.902 -0.698579 0.351443 0
M  V30 1410 H 142.486 -1.37713 1.37634 0
M  V30 1411 H 140.657 -3.81402 0.73395 0
M  V30 1412 H 142.389 -3.93377 0.95062 0
M  V30 1413 H 139.144 -3.70006 2.95622 0
M  V30 1414 H 139.568 -3.8432 5.5734 0
M  V30 1415 H 144.21 -3.22253 2.73702 0
M  V30 1416 H 141.928 -3.75087 7.15776 0
M  V30 1417 H 145.514 -3.23055 4.83866 0
M  V30 1418 H 144.394 -3.49328 7.02097 0
M  V30 1419 N 141.898 -0.863906 -1.31812 0
M  V30 1420 C 143.175 -0.39275 -1.91616 0
M  V30 1421 C 143.555 1.12461 -1.7865 0
M  V30 1422 O 142.903 1.95045 -1.19037 0
M  V30 1423 C 143.113 -0.867385 -3.38049 0
M  V30 1424 C 144.461 -0.889966 -4.15168 0
M  V30 1425 O 145.485 -0.812635 -3.46806 0
M  V30 1426 O 144.344 -1.00079 -5.37258 0
M  V30 1427 H 141.438 -0.116358 -0.818773 0
M  V30 1428 H 143.984 -0.951418 -1.40521 0
M  V30 1429 H 142.756 -1.91081 -3.41473 0
M  V30 1430 H 142.379 -0.286687 -3.96565 0
M  V30 1431 N 143.376 1.44774 -0.622745 0
M  V30 1432 C 144.624 2.01721 -0.123655 0
M  V30 1433 C 144.945 1.49172 1.25589 0
M  V30 1434 O 144.215 0.691974 1.83272 0
M  V30 1435 H 142.795 0.745777 -0.0427225 0
M  V30 1436 H 145.457 1.77382 -0.807559 0
M  V30 1437 H 144.553 3.11984 -0.0849534 0
M  V30 1438 N 144.854 0.36279 1.53368 0
M  V30 1439 C 146.1 -0.228113 2.01513 0
M  V30 1440 C 146.433 -1.48648 1.2497 0
M  V30 1441 O 145.708 -1.91459 0.342616 0
M  V30 1442 C 145.991 -0.522884 3.56284 0
M  V30 1443 C 145.844 0.74892 4.43521 0
M  V30 1444 C 147.163 -1.32461 4.19693 0
M  V30 1445 H 144.282 -0.0814343 0.732487 0
M  V30 1446 H 146.924 0.48713 1.83649 0
M  V30 1447 H 145.074 -1.1322 3.71636 0
M  V30 1448 H 146.746 1.38648 4.39971 0
M  V30 1449 H 144.989 1.36986 4.11603 0
M  V30 1450 H 145.66 0.497667 5.49752 0
M  V30 1451 H 148.136 -0.809203 4.08156 0
M  V30 1452 H 147.012 -1.49961 5.28018 0
M  V30 1453 H 147.273 -2.33232 3.75573 0
M  V30 1454 N 146.332 -1.57332 0.0918853 0
M  V30 1455 C 147.242 -2.17368 -0.882505 0
M  V30 1456 C 148.258 -1.14226 -1.31257 0
M  V30 1457 O 149.434 -1.46582 -1.38115 0
M  V30 1458 C 146.499 -2.73962 -2.12476 0
M  V30 1459 C 145.56 -3.92048 -1.7492 0
M  V30 1460 C 144.793 -4.45933 -2.93223 0
M  V30 1461 O 145.016 -3.98764 -4.07852 0
M  V30 1462 O 143.95 -5.36999 -2.71875 0
M  V30 1463 H 147.776 -3.01031 -0.40172 0
M  V30 1464 H 145.361 -1.48813 -0.132291 0
M  V30 1465 H 147.243 -3.10147 -2.85283 0
M  V30 1466 H 145.918 -1.93347 -2.59613 0
M  V30 1467 H 144.825 -3.6068 -0.993025 0
M  V30 1468 H 146.158 -4.74017 -1.32548 0
M  V30 1469 N 147.81 0.181792 -1.56548 0
M  V30 1470 C 149.059 0.898348 -1.8059 0
M  V30 1471 C 149.372 1.83862 -0.667379 0
M  V30 1472 O 150.578 2.59678 -0.792446 0
M  V30 1473 C 149.034 1.64791 -3.19956 0
M  V30 1474 C 148.642 0.751789 -4.41647 0
M  V30 1475 C 150.386 2.35331 -3.53298 0
M  V30 1476 C 148.293 1.50098 -5.72035 0
M  V30 1477 H 147.223 0.339194 -0.673397 0
M  V30 1478 H 149.874 0.151413 -1.82874 0
M  V30 1479 H 148.256 2.43921 -3.11959 0
M  V30 1480 H 149.43 -0.0018076 -4.608 0
M  V30 1481 H 147.745 0.156562 -4.16106 0
M  V30 1482 H 150.342 2.91958 -4.47956 0
M  V30 1483 H 150.685 3.10164 -2.77676 0
M  V30 1484 H 151.218 1.63154 -3.62803 0
M  V30 1485 H 147.957 0.795175 -6.50659 0
M  V30 1486 H 147.477 2.22817 -5.56878 0
M  V30 1487 H 149.156 2.05125 -6.13622 0
M  V30 1488 N 149.288 1.51039 0.449983 0
M  V30 1489 C 150.565 1.53612 1.21089 0
M  V30 1490 C 150.945 0.292997 2.09057 0
M  V30 1491 O 150.293 -0.72259 2.16774 0
M  V30 1492 C 150.503 2.84337 2.0237 0
M  V30 1493 C 151.851 3.35807 2.59843 0
M  V30 1494 O 152.875 2.85802 2.12593 0
M  V30 1495 O 151.734 4.23029 3.45989 0
M  V30 1496 H 148.828 0.617057 0.550608 0
M  V30 1497 H 151.374 1.63344 0.460082 0
M  V30 1498 H 150.146 3.66278 1.37681 0
M  V30 1499 H 149.769 2.77708 2.84542 0
M  V30 1500 N 150.766 -0.704594 1.40972 0
M  V30 1501 C 151.696 -1.83124 1.44872 0
M  V30 1502 C 152.677 -1.67281 0.30838 0
M  V30 1503 O 153.862 -1.87149 0.518556 0
M  V30 1504 C 150.992 -3.21181 1.32136 0
M  V30 1505 C 149.946 -3.51714 2.43888 0
M  V30 1506 C 149.272 -4.89032 2.16222 0
M  V30 1507 C 150.572 -3.516 3.86232 0
M  V30 1508 H 152.266 -1.80117 2.39161 0
M  V30 1509 H 149.812 -0.865145 1.15114 0
M  V30 1510 H 151.765 -3.99702 1.33479 0
M  V30 1511 H 150.489 -3.24791 0.343279 0
M  V30 1512 H 149.148 -2.75539 2.41813 0
M  V30 1513 H 148.796 -4.89256 1.16778 0
M  V30 1514 H 148.496 -5.10426 2.911 0
M  V30 1515 H 150.02 -5.69873 2.19265 0
M  V30 1516 H 151.434 -4.2014 3.9007 0
M  V30 1517 H 149.831 -3.84523 4.60719 0
M  V30 1518 H 150.901 -2.50757 4.15029 0
M  V30 1519 N 152.244 -1.26651 -0.937939 0
M  V30 1520 C 153.472 -1.15173 -1.7188 0
M  V30 1521 C 153.887 0.292668 -1.86518 0
M  V30 1522 O 153.244 1.20014 -1.37488 0
M  V30 1523 C 153.295 -1.81925 -3.12387 0
M  V30 1524 O 153.016 -3.2072 -2.98446 0
M  V30 1525 C 154.517 -1.76442 -4.06673 0
M  V30 1526 H 151.737 -0.400911 -0.538063 0
M  V30 1527 H 154.281 -1.67332 -1.1756 0
M  V30 1528 H 152.436 -1.33696 -3.63599 0
M  V30 1529 H 152.85 -3.53802 -3.872 0
M  V30 1530 H 154.324 -2.27781 -5.02812 0
M  V30 1531 H 154.801 -0.731608 -4.33064 0
M  V30 1532 H 155.407 -2.24238 -3.61382 0
M  V30 1533 N 153.722 1.14298 -1.08507 0
M  V30 1534 C 154.97 1.84993 -0.813763 0
M  V30 1535 C 155.291 1.83405 0.662393 0
M  V30 1536 O 154.561 1.28319 1.48024 0
M  V30 1537 H 153.141 0.684966 -0.298045 0
M  V30 1538 H 155.803 1.385 -1.37126 0
M  V30 1539 H 154.899 2.89788 -1.15884 0
M  V30 1540 N 155.201 0.870884 1.31352 0
M  V30 1541 C 156.148 0.325425 2.28494 0
M  V30 1542 C 157.118 -0.576615 1.5577 0
M  V30 1543 O 158.303 -0.508059 1.83911 0
M  V30 1544 C 155.443 -0.466283 3.41935 0
M  V30 1545 C 154.556 0.463378 4.29508 0
M  V30 1546 C 153.691 -0.342544 5.30094 0
M  V30 1547 C 152.73 0.583486 6.09313 0
M  V30 1548 N 151.867 -0.186244 7.01853 0
M  V30 1549 H 156.707 1.15901 2.74538 0
M  V30 1550 H 154.244 0.58294 1.35056 0
M  V30 1551 H 156.202 -0.941085 4.06447 0
M  V30 1552 H 154.832 -1.26456 2.97 0
M  V30 1553 H 153.884 1.05663 3.65431 0
M  V30 1554 H 155.196 1.1734 4.84802 0
M  V30 1555 H 154.35 -0.879816 6.00287 0
M  V30 1556 H 153.089 -1.08585 4.75458 0
M  V30 1557 H 152.094 1.13251 5.3801 0
M  V30 1558 H 153.319 1.32566 6.66035 0
M  V30 1559 H 151.265 -0.912348 6.49625 0
M  V30 1560 H 151.182 0.464422 7.54572 0
M  V30 1561 H 152.45 -0.704716 7.76308 0
M  V30 1562 N 156.679 -1.44442 0.630414 0
M  V30 1563 C 157.925 -2.02351 0.134816 0
M  V30 1564 C 158.258 -1.4947 -1.23986 0
M  V30 1565 O 157.533 -0.678475 -1.82283 0
M  V30 1566 C 157.816 -3.59898 0.120707 0
M  V30 1567 C 157.669 -4.23063 1.52767 0
M  V30 1568 C 158.988 -4.36585 -0.555127 0
M  V30 1569 H 156.107 -0.73527 0.0504646 0
M  V30 1570 H 158.749 -1.72022 0.806751 0
M  V30 1571 H 156.899 -3.85868 -0.451477 0
M  V30 1572 H 158.571 -4.08202 2.14869 0
M  V30 1573 H 156.814 -3.80586 2.08175 0
M  V30 1574 H 157.485 -5.32071 1.46984 0
M  V30 1575 H 159.961 -4.16044 -0.0685429 0
M  V30 1576 H 158.837 -5.46294 -0.534185 0
M  V30 1577 H 159.098 -4.11138 -1.62535 0
M  V30 1578 N 158.157 -0.370918 -1.53173 0
M  V30 1579 C 159.104 0.473035 -2.259 0
M  V30 1580 C 160.074 1.07311 -1.26781 0
M  V30 1581 O 161.259 1.1046 -1.55574 0
M  V30 1582 C 158.399 1.60405 -3.05556 0
M  V30 1583 C 157.512 1.02863 -4.19575 0
M  V30 1584 C 156.647 2.12918 -4.86661 0
M  V30 1585 C 155.686 1.52869 -5.92704 0
M  V30 1586 N 154.823 2.56779 -6.53459 0
M  V30 1587 H 159.663 -0.153649 -2.97604 0
M  V30 1588 H 157.2 -0.0875946 -1.46839 0
M  V30 1589 H 159.158 2.27034 -3.50016 0
M  V30 1590 H 157.788 2.20131 -2.36097 0
M  V30 1591 H 156.84 0.252465 -3.79561 0
M  V30 1592 H 158.152 0.549642 -4.95762 0
M  V30 1593 H 157.306 2.87356 -5.34333 0
M  V30 1594 H 156.045 2.6417 -4.09958 0
M  V30 1595 H 155.05 0.769479 -5.44389 0
M  V30 1596 H 156.275 1.02435 -6.7133 0
M  V30 1597 H 154.221 3.07235 -5.79606 0
M  V30 1598 H 154.138 2.13583 -7.25202 0
M  V30 1599 H 155.406 3.30903 -7.05779 0
M  V30 1600 N 159.635 1.57281 -0.100228 0
M  V30 1601 C 160.86 1.99302 0.573881 0
M  V30 1602 C 161.285 0.979059 1.60611 0
M  V30 1603 O 160.643 -0.0517803 1.81226 0
M  V30 1604 C 160.691 3.40274 1.19358 0
M  V30 1605 O 159.795 3.41676 2.30935 0
M  V30 1606 H 159.136 0.647944 0.145138 0
M  V30 1607 H 161.666 2.03779 -0.183156 0
M  V30 1608 H 161.676 3.78078 1.53365 0
M  V30 1609 H 160.351 4.13594 0.437385 0
M  V30 1610 H 158.928 3.15672 1.98509 0
M  V30 1611 N 161.113 -0.173488 1.56642 0
M  V30 1612 C 162.361 -0.888706 1.81512 0
M  V30 1613 C 162.682 -1.82875 0.676872 0
M  V30 1614 O 161.952 -1.93536 -0.303414 0
M  V30 1615 H 160.532 -0.331164 0.669582 0
M  V30 1616 H 163.194 -0.173823 1.94123 0
M  V30 1617 H 162.29 -1.46691 2.75478 0
M  V30 1618 N 162.591 -1.51276 -0.441967 0
M  V30 1619 C 163.554 -1.7167 -1.51862 0
M  V30 1620 C 164.554 -0.586793 -1.49711 0
M  V30 1621 O 165.744 -0.854276 -1.51815 0
M  V30 1622 C 162.876 -1.76889 -2.91416 0
M  V30 1623 H 164.069 -2.67754 -1.35084 0
M  V30 1624 H 161.622 -1.41196 -0.670333 0
M  V30 1625 H 162.357 -0.826026 -3.13604 0
M  V30 1626 H 162.142 -2.59001 -2.94382 0
M  V30 1627 H 163.632 -1.94522 -3.69528 0
M  V30 1628 N 164.069 0.697108 -1.41344 0
M  V30 1629 C 165.346 1.45154 -1.31109 0
M  V30 1630 C 165.726 2.11009 0.0620449 0
M  V30 1631 O 165.074 2.01571 1.07618 0
M  V30 1632 C 165.284 2.47223 -2.46337 0
M  V30 1633 C 166.632 3.1252 -2.87431 0
M  V30 1634 O 167.656 2.57547 -2.46065 0
M  V30 1635 O 166.515 4.12083 -3.58957 0
M  V30 1636 H 163.609 0.646365 -0.515889 0
M  V30 1637 H 166.155 0.727716 -1.53305 0
M  V30 1638 H 164.927 1.97204 -3.37974 0
M  V30 1639 H 164.55 3.27116 -2.2601 0
M  V30 1640 N 165.547 1.27147 0.931209 0
M  V30 1641 C 166.777 1.15914 1.71019 0
M  V30 1642 C 167.185 -0.287112 1.87009 0
M  V30 1643 O 166.528 -1.20761 1.38429 0
M  V30 1644 C 166.59 1.76647 3.13107 0
M  V30 1645 C 166.254 3.25807 3.20467 0
M  V30 1646 C 167.251 4.22489 3.02983 0
M  V30 1647 C 164.936 3.66452 3.43538 0
M  V30 1648 C 166.93 5.57794 3.08454 0
M  V30 1649 C 164.617 5.01888 3.48643 0
M  V30 1650 C 165.615 5.97369 3.31119 0
M  V30 1651 O 165.303 7.30337 3.35952 0
M  V30 1652 H 165.035 0.404062 0.54195 0
M  V30 1653 H 167.589 1.68457 1.17521 0
M  V30 1654 H 165.819 1.18578 3.68071 0
M  V30 1655 H 167.508 1.60179 3.72958 0
M  V30 1656 H 168.274 3.92425 2.85004 0
M  V30 1657 H 164.153 2.92611 3.5623 0
M  V30 1658 H 167.697 6.32298 2.94694 0
M  V30 1659 H 163.594 5.31609 3.66145 0
M  V30 1660 H 164.362 7.38739 3.5243 0
M  V30 1661 N 167.025 -1.13721 1.09112 0
M  V30 1662 C 167.955 -2.21148 0.749385 0
M  V30 1663 C 168.936 -1.6792 -0.271475 0
M  V30 1664 O 170.121 -1.93693 -0.140251 0
M  V30 1665 C 167.251 -3.46905 0.165659 0
M  V30 1666 C 166.205 -4.13203 1.11567 0
M  V30 1667 C 165.531 -5.33248 0.393809 0
M  V30 1668 C 166.831 -4.60912 2.45678 0
M  V30 1669 H 168.525 -2.4999 1.64758 0
M  V30 1670 H 166.071 -1.20156 0.793626 0
M  V30 1671 H 168.024 -4.21313 -0.085466 0
M  V30 1672 H 166.748 -3.17449 -0.767714 0
M  V30 1673 H 165.407 -3.40758 1.35202 0
M  V30 1674 H 165.055 -5.00054 -0.543599 0
M  V30 1675 H 164.755 -5.78552 1.02721 0
M  V30 1676 H 166.279 -6.10413 0.150908 0
M  V30 1677 H 167.693 -5.26759 2.26269 0
M  V30 1678 H 166.09 -5.16944 3.04776 0
M  V30 1679 H 167.16 -3.75603 3.06677 0
M  V30 1680 N 168.503 -0.877838 -1.30888 0
M  V30 1681 C 169.433 -0.35534 -2.3078 0
M  V30 1682 C 170.414 0.557994 -1.60687 0
M  V30 1683 O 171.599 0.473355 -1.88343 0
M  V30 1684 C 168.729 0.437221 -3.44537 0
M  V30 1685 C 167.683 -0.383715 -4.26276 0
M  V30 1686 C 167.009 0.535014 -5.32017 0
M  V30 1687 C 168.309 -1.62201 -4.96476 0
M  V30 1688 H 170.003 -1.19007 -2.74732 0
M  V30 1689 H 167.549 -0.573698 -1.32078 0
M  V30 1690 H 169.502 0.813334 -4.13477 0
M  V30 1691 H 168.226 1.30553 -2.99372 0
M  V30 1692 H 166.885 -0.741874 -3.59015 0
M  V30 1693 H 166.533 1.40083 -4.831 0
M  V30 1694 H 166.233 -0.0104211 -5.87599 0
M  V30 1695 H 167.757 0.907799 -6.03814 0
M  V30 1696 H 169.171 -1.31689 -5.5797 0
M  V30 1697 H 167.568 -2.10711 -5.61891 0
M  V30 1698 H 168.638 -2.37044 -4.23011 0
M  V30 1699 N 169.982 1.44106 -0.638065 0
M  V30 1700 C 171.207 2.0685 -0.150916 0
M  V30 1701 C 171.632 1.47417 1.16833 0
M  V30 1702 O 170.99 0.578264 1.71831 0
M  V30 1703 C 171.038 3.60555 -0.05708 0
M  V30 1704 O 170.142 4.00465 0.984972 0
M  V30 1705 H 169.483 0.658151 -0.0879399 0
M  V30 1706 H 172.013 1.84865 -0.876707 0
M  V30 1707 H 172.023 4.07789 0.131232 0
M  V30 1708 H 170.698 4.03193 -1.02021 0
M  V30 1709 H 169.275 3.64849 0.770672 0
M  V30 1710 N 171.46 0.379036 1.52974 0
M  V30 1711 C 172.707 -0.206421 2.01445 0
M  V30 1712 C 173.035 -1.47668 1.26587 0
M  V30 1713 O 172.29 -1.92514 0.351675 0
M  V30 1714 C 172.589 -0.53096 3.53434 0
M  V30 1715 C 172.255 0.646546 4.46241 0
M  V30 1716 C 170.917 0.969604 4.7133 0
M  V30 1717 C 173.269 1.43479 5.01062 0
M  V30 1718 C 170.597 2.08263 5.48492 0
M  V30 1719 C 172.949 2.53834 5.7944 0
M  V30 1720 C 171.613 2.86659 6.02812 0
M  V30 1721 H 170.883 -0.0755349 0.73714 0
M  V30 1722 H 173.53 0.514271 1.84465 0
M  V30 1723 H 171.835 -1.33285 3.68432 0
M  V30 1724 H 173.532 -0.996417 3.88423 0
M  V30 1725 H 170.122 0.384734 4.2687 0
M  V30 1726 H 174.306 1.19844 4.81613 0
M  V30 1727 H 169.562 2.34078 5.64816 0
M  V30 1728 H 173.736 3.15319 6.20924 0
M  V30 1729 H 171.363 3.73026 6.62387 0
M  V30 1730 N 172.938 -1.57226 0.108567 0
M  V30 1731 C 173.87 -2.11809 -0.875752 0
M  V30 1732 C 174.883 -1.05839 -1.23701 0
M  V30 1733 O 176.072 -1.33245 -1.18778 0
M  V30 1734 C 173.172 -2.59411 -2.18081 0
M  V30 1735 C 172.345 -3.89364 -1.99284 0
M  V30 1736 C 171.404 -4.22672 -3.13424 0
M  V30 1737 O 170.43 -4.91668 -2.86795 0
M  V30 1738 N 171.632 -3.79154 -4.3957 0
M  V30 1739 H 174.397 -2.9689 -0.409477 0
M  V30 1740 H 171.958 -1.61721 -0.076158 0
M  V30 1741 H 173.95 -2.7873 -2.93414 0
M  V30 1742 H 172.52 -1.79268 -2.5609 0
M  V30 1743 H 171.74 -3.79059 -1.08203 0
M  V30 1744 H 173.028 -4.74358 -1.84017 0
M  V30 1745 H 172.426 -3.23486 -4.64083 0
M  V30 1746 H 170.983 -4.03602 -5.11809 0
M  V30 1747 N 174.416 0.165178 -1.56732 0
M  V30 1748 C 175.662 0.882112 -1.82611 0
M  V30 1749 C 175.995 1.81628 -0.687378 0
M  V30 1750 O 175.27 1.92009 0.310267 0
M  V30 1751 C 175.553 1.67245 -3.18906 0
M  V30 1752 C 175.406 0.760987 -4.43316 0
M  V30 1753 C 176.725 2.63884 -3.52212 0
M  V30 1754 H 173.844 0.319242 -0.664269 0
M  V30 1755 H 176.486 0.148052 -1.89422 0
M  V30 1756 H 174.636 2.29824 -3.1323 0
M  V30 1757 H 176.308 0.147596 -4.61064 0
M  V30 1758 H 174.551 0.0694102 -4.33744 0
M  V30 1759 H 175.222 1.34962 -5.35247 0
M  V30 1760 H 177.698 2.11429 -3.58381 0
M  V30 1761 H 176.574 3.16245 -4.48643 0
M  V30 1762 H 176.835 3.44377 -2.77231 0
M  V30 1763 N 175.894 1.51508 0.433938 0
M  V30 1764 C 177.124 1.67914 1.20369 0
M  V30 1765 C 177.532 0.377461 1.85397 0
M  V30 1766 O 176.875 -0.654255 1.71654 0
M  V30 1767 C 176.937 2.74045 2.32679 0
M  V30 1768 C 176.601 4.16543 1.87991 0
M  V30 1769 C 177.598 5.01211 1.38145 0
M  V30 1770 C 175.283 4.6266 1.95579 0
M  V30 1771 C 177.277 6.30056 0.964774 0
M  V30 1772 C 174.964 5.91501 1.53523 0
M  V30 1773 C 175.962 6.75027 1.04055 0
M  V30 1774 O 175.65 8.01459 0.625964 0
M  V30 1775 H 175.382 0.566578 0.368735 0
M  V30 1776 H 177.936 1.98709 0.51999 0
M  V30 1777 H 176.166 2.38572 3.04336 0
M  V30 1778 H 177.855 2.79295 2.94532 0
M  V30 1779 H 178.621 4.66783 1.31675 0
M  V30 1780 H 174.5 3.97767 2.33029 0
M  V30 1781 H 178.044 6.95202 0.57796 0
M  V30 1782 H 173.941 6.25442 1.59665 0
M  V30 1783 H 174.709 8.15043 0.751509 0
M  V30 1784 N 177.372 -0.689602 1.41712 0
M  V30 1785 C 178.304 -1.815 1.39966 0
M  V30 1786 C 179.317 -1.59995 0.300917 0
M  V30 1787 O 180.506 -1.69387 0.563039 0
M  V30 1788 C 177.606 -3.18364 1.16179 0
M  V30 1789 C 176.779 -3.66847 2.38206 0
M  V30 1790 C 175.838 -4.82398 2.10186 0
M  V30 1791 O 174.864 -4.93706 2.83272 0
M  V30 1792 N 176.066 -5.70064 1.0958 0
M  V30 1793 H 178.831 -1.83488 2.36965 0
M  V30 1794 H 176.392 -0.872149 1.36401 0
M  V30 1795 H 178.384 -3.93301 0.953756 0
M  V30 1796 H 176.954 -3.11365 0.27756 0
M  V30 1797 H 176.174 -2.82751 2.74673 0
M  V30 1798 H 177.462 -3.95978 3.19498 0
M  V30 1799 H 176.86 -5.63565 0.491019 0
M  V30 1800 H 175.417 -6.44874 0.947656 0
M  V30 1801 N 178.85 -1.27639 -0.924453 0
M  V30 1802 C 180.075 -1.17101 -1.71179 0
M  V30 1803 C 180.5 0.268134 -1.86179 0
M  V30 1804 O 179.858 1.19415 -1.36418 0
M  V30 1805 C 179.906 -1.86313 -3.08739 0
M  V30 1806 O 179.01 -1.16331 -3.95652 0
M  V30 1807 H 178.351 -0.407091 -0.524569 0
M  V30 1808 H 180.881 -1.68767 -1.15666 0
M  V30 1809 H 180.891 -1.938 -3.59034 0
M  V30 1810 H 179.566 -2.91001 -2.97138 0
M  V30 1811 H 178.143 -1.16935 -3.54091 0
M  V30 1812 N 180.328 1.1314 -1.09713 0
M  V30 1813 C 181.553 1.88862 -0.857081 0
M  V30 1814 C 181.978 1.78729 0.586304 0
M  V30 1815 O 181.336 1.13692 1.41222 0
M  V30 1816 C 181.384 3.36325 -1.30069 0
M  V30 1817 O 180.488 4.09815 -0.461007 0
M  V30 1818 H 179.829 0.587108 -0.310162 0
M  V30 1819 H 182.359 1.43129 -1.46203 0
M  V30 1820 H 182.369 3.87157 -1.28738 0
M  V30 1821 H 181.044 3.43017 -2.35185 0
M  V30 1822 H 179.621 3.68986 -0.538888 0
M  V30 1823 N 181.806 0.884767 1.30421 0
M  V30 1824 C 183.083 0.423185 1.90967 0
M  V30 1825 C 183.463 -1.09605 1.80416 0
M  V30 1826 O 182.811 -1.93126 1.22125 0
M  V30 1827 C 183.021 0.921056 3.36627 0
M  V30 1828 C 184.369 0.955903 4.137 0
M  V30 1829 O 185.393 0.867706 3.4547 0
M  V30 1830 O 184.252 1.08614 5.35598 0
M  V30 1831 H 181.346 0.129369 0.816819 0
M  V30 1832 H 183.892 0.973653 1.3899 0
M  V30 1833 H 182.664 1.96489 3.3839 0
M  V30 1834 H 182.287 0.349741 3.96059 0
M  V30 1835 N 183.284 -1.43765 0.645699 0
M  V30 1836 C 184.247 -2.29163 -0.0409488 0
M  V30 1837 C 185.247 -1.41813 -0.757996 0
M  V30 1838 O 186.437 -1.63527 -0.600382 0
M  V30 1839 C 183.569 -3.23716 -1.06869 0
M  V30 1840 H 184.762 -2.91366 0.710345 0
M  V30 1841 H 182.315 -1.5092 0.406547 0
M  V30 1842 H 183.05 -2.66393 -1.84947 0
M  V30 1843 H 182.835 -3.88105 -0.558277 0
M  V30 1844 H 184.325 -3.87831 -1.54845 0
M  V30 1845 N 184.763 -0.387143 -1.52771 0
M  V30 1846 C 186.174 0.0873634 -1.86495 0
M  V30 1847 C 186.525 1.46336 -1.30691 0
M  V30 1848 O 185.65 2.068 -0.637409 0
M  V30 1849 C 186.245 0.165305 -3.38396 0
M  V30 1850 C 184.804 0.584101 -3.7184 0
M  V30 1851 C 183.951 -0.255279 -2.76122 0
M  V30 1852 H 186.902 -0.605104 -1.46711 0
M  V30 1853 H 186.923 0.984848 -3.67534 0
M  V30 1854 H 186.435 -0.836301 -3.78982 0
M  V30 1855 H 184.536 1.59315 -3.36823 0
M  V30 1856 H 184.649 0.343749 -4.77865 0
M  V30 1857 H 183.013 0.279126 -2.53166 0
M  V30 1858 H 183.796 -1.25482 -3.19545 0
M  V30 1859 N 186.241 1.57166 -0.116904 0
M  V30 1860 C 187.173 2.12271 0.864507 0
M  V30 1861 C 188.186 1.06494 1.23138 0
M  V30 1862 O 189.375 1.33873 1.18069 0
M  V30 1863 C 186.475 2.60564 2.16702 0
M  V30 1864 C 185.648 3.90416 1.97216 0
M  V30 1865 C 184.707 4.24329 3.11178 0
M  V30 1866 O 183.733 4.93182 2.84184 0
M  V30 1867 N 184.935 3.8148 4.37554 0
M  V30 1868 H 187.7 2.97102 0.393726 0
M  V30 1869 H 185.261 1.61759 0.0675805 0
M  V30 1870 H 187.253 2.80282 2.91932 0
M  V30 1871 H 185.823 1.80623 2.55135 0
M  V30 1872 H 185.043 3.79627 1.06192 0
M  V30 1873 H 186.331 4.75327 1.81499 0
M  V30 1874 H 185.729 3.25943 4.62361 0
M  V30 1875 H 184.286 4.06311 5.09661 0
M  V30 1876 N 187.719 -0.156864 1.56817 0
M  V30 1877 C 188.649 -1.19589 2.00551 0
M  V30 1878 C 189.63 -1.4536 0.883426 0
M  V30 1879 O 190.815 -1.56449 1.15054 0
M  V30 1880 C 187.945 -2.53143 2.37773 0
M  V30 1881 C 186.899 -2.41913 3.53075 0
M  V30 1882 C 186.225 -3.80088 3.76081 0
M  V30 1883 C 187.525 -1.91157 4.86062 0
M  V30 1884 H 189.219 -0.832293 2.87599 0
M  V30 1885 H 186.765 -0.398918 1.38364 0
M  V30 1886 H 188.718 -3.26047 2.66967 0
M  V30 1887 H 187.442 -2.91319 1.4765 0
M  V30 1888 H 186.101 -1.71462 3.24031 0
M  V30 1889 H 185.749 -4.15683 2.83225 0
M  V30 1890 H 185.449 -3.73439 4.53671 0
M  V30 1891 H 186.973 -4.54556 4.0769 0
M  V30 1892 H 188.387 -2.53846 5.14038 0
M  V30 1893 H 186.784 -1.95422 5.67389 0
M  V30 1894 H 187.854 -0.866673 4.77092 0
M  V30 1895 N 189.197 -1.51736 -0.425897 0
M  V30 1896 C 190.444 -1.6497 -1.17436 0
M  V30 1897 C 190.772 -0.371445 -1.9092 0
M  V30 1898 O 190.027 0.644963 -1.84767 0
M  V30 1899 C 190.326 -2.81103 -2.20717 0
M  V30 1900 C 189.992 -4.19954 -1.64162 0
M  V30 1901 C 188.654 -4.57725 -1.48462 0
M  V30 1902 C 191.006 -5.06552 -1.22696 0
M  V30 1903 C 188.334 -5.79789 -0.897873 0
M  V30 1904 C 190.686 -6.29205 -0.654464 0
M  V30 1905 C 189.35 -6.6574 -0.484456 0
M  V30 1906 H 188.62 -0.603668 -0.429727 0
M  V30 1907 H 191.267 -1.85798 -0.463829 0
M  V30 1908 H 189.572 -2.54542 -2.97852 0
M  V30 1909 H 191.269 -2.8854 -2.78471 0
M  V30 1910 H 187.859 -3.90181 -1.77361 0
M  V30 1911 H 192.043 -4.77968 -1.33642 0
M  V30 1912 H 187.299 -6.06733 -0.75402 0
M  V30 1913 H 191.473 -6.95643 -0.324694 0
M  V30 1914 H 189.1 -7.60195 -0.0276833 0
M  V30 1915 N 190.675 0.682077 -1.42076 0
M  V30 1916 C 191.623 1.81707 -1.45208 0
M  V30 1917 C 192.617 1.66183 -0.328591 0
M  V30 1918 O 193.823 1.7288 -0.501264 0
M  V30 1919 H 190.198 0.599014 -0.454628 0
M  V30 1920 H 192.169 1.76183 -2.40836 0
M  V30 1921 C 190.918 3.19816 -1.36428 0
M  V30 1922 H 190.241 3.32385 -2.22171 0
M  V30 1923 H 191.681 3.99272 -1.42681 0
M  V30 1924 C 190.14 3.36809 -0.078191 0
M  V30 1925 O 190.67 3.92124 0.87188 0
M  V30 1926 N 188.876 2.906 0.00229266 0
M  V30 1927 H 188.423 2.45772 -0.771616 0
M  V30 1928 H 188.381 3.02347 0.862179 0
M  V30 1929 N 192.153 1.28127 0.917671 0
M  V30 1930 C 193.399 1.15223 1.66888 0
M  V30 1931 C 193.732 -0.299293 1.9188 0
M  V30 1932 O 193.007 -1.21805 1.51637 0
M  V30 1933 C 193.29 1.94706 3.02922 0
M  V30 1934 C 193.143 3.47898 2.85109 0
M  V30 1935 C 194.462 1.75939 4.03402 0
M  V30 1936 H 191.581 0.419946 0.605652 0
M  V30 1937 H 194.223 1.57398 1.06423 0
M  V30 1938 H 192.373 1.58864 3.54534 0
M  V30 1939 H 194.045 3.93624 2.40537 0
M  V30 1940 H 192.288 3.7373 2.20246 0
M  V30 1941 H 192.959 3.98765 3.81694 0
M  V30 1942 H 195.435 2.07209 3.60837 0
M  V30 1943 H 194.311 2.33931 4.96556 0
M  V30 1944 H 194.572 0.709877 4.36364 0
M  V30 1945 N 193.631 -1.12557 1.10312 0
M  V30 1946 C 194.877 -1.84311 0.846011 0
M  V30 1947 C 195.21 -1.83805 -0.626859 0
M  V30 1948 O 194.485 -1.28268 -1.46211 0
M  V30 1949 C 194.768 -3.32048 1.39341 0
M  V30 1950 C 194.621 -3.41016 2.93305 0
M  V30 1951 C 195.94 -4.27764 1.03468 0
M  V30 1952 H 193.059 -0.669192 0.30879 0
M  V30 1953 H 195.701 -1.32057 1.36605 0
M  V30 1954 H 193.851 -3.76678 0.951087 0
M  V30 1955 H 195.523 -3.05031 3.46055 0
M  V30 1956 H 193.766 -2.81603 3.29973 0
M  V30 1957 H 194.437 -4.44948 3.26689 0
M  V30 1958 H 196.913 -3.91253 1.41633 0
M  V30 1959 H 195.789 -5.29549 1.44463 0
M  V30 1960 H 196.05 -4.42064 -0.0560404 0
M  V30 1961 N 195.109 -0.891671 -1.2995 0
M  V30 1962 C 196.072 -0.36828 -2.26222 0
M  V30 1963 C 197.072 0.493014 -1.53056 0
M  V30 1964 O 198.262 0.299213 -1.71611 0
M  V30 1965 C 195.394 0.47442 -3.37583 0
M  V30 1966 H 196.587 -1.21844 -2.74033 0
M  V30 1967 H 194.14 -0.669107 -1.41254 0
M  V30 1968 H 194.875 1.34489 -2.95099 0
M  V30 1969 H 194.66 -0.142615 -3.91841 0
M  V30 1970 H 196.15 0.83218 -4.09224 0
M  V30 1971 N 196.587 1.43421 -0.653314 0
M  V30 1972 C 198.003 1.56341 -0.320886 0
M  V30 1973 C 198.203 1.63696 1.17499 0
M  V30 1974 O 197.259 1.59208 1.95982 0
M  V30 1975 C 198.572 2.82424 -1.03233 0
M  V30 1976 C 200.12 2.96168 -1.01259 0
M  V30 1977 C 200.595 4.25084 -1.70492 0
M  V30 1978 N 202.086 4.31948 -1.67257 0
M  V30 1979 C 202.821 5.30466 -2.17701 0
M  V30 1980 N 202.317 6.35261 -2.76434 0
M  V30 1981 N 204.11 5.2212 -2.082 0
M  V30 1982 H 196.261 1.3689 -1.62403 0
M  V30 1983 H 198.524 0.657455 -0.682977 0
M  V30 1984 H 198.23 2.83053 -2.08744 0
M  V30 1985 H 198.104 3.72653 -0.583948 0
M  V30 1986 H 200.491 2.9508 0.0341235 0
M  V30 1987 H 200.572 2.07229 -1.49966 0
M  V30 1988 H 200.216 4.26932 -2.7512 0
M  V30 1989 H 200.146 5.1292 -1.19251 0
M  V30 1990 H 202.637 3.56838 -1.24398 0
M  V30 1991 H 202.95 7.06754 -3.12601 0
M  V30 1992 H 201.295 6.35884 -2.80495 0
M  V30 1993 H 204.486 4.39166 -1.62021 0
M  V30 1994 H 204.659 5.98739 -2.47822 0
M  V30 1995 N 198.065 0.39524 1.52563 0
M  V30 1996 C 199.293 -0.184943 2.06072 0
M  V30 1997 C 199.708 -1.40021 1.26647 0
M  V30 1998 O 199.065 -1.79767 0.314672 0
M  V30 1999 C 199.116 -0.549179 3.57304 0
M  V30 2000 O 198.837 0.617813 4.33722 0
M  V30 2001 C 200.338 -1.18459 4.2718 0
M  V30 2002 H 197.558 -0.0265025 0.670476 0
M  V30 2003 H 200.102 0.562184 1.96621 0
M  V30 2004 H 198.257 -1.2462 3.66809 0
M  V30 2005 H 198.671 0.317091 5.23541 0
M  V30 2006 H 200.145 -1.38976 5.34219 0
M  V30 2007 H 200.622 -2.15368 3.82771 0
M  V30 2008 H 201.228 -0.528163 4.22008 0
M  V30 2009 N 199.544 -1.57102 0.125237 0
M  V30 2010 C 200.454 -2.19191 -0.8362 0
M  V30 2011 C 201.47 -1.16985 -1.28805 0
M  V30 2012 O 202.646 -1.49479 -1.34974 0
M  V30 2013 C 199.711 -2.78407 -2.06617 0
M  V30 2014 C 198.772 -3.9567 -1.66565 0
M  V30 2015 C 198.005 -4.52052 -2.83698 0
M  V30 2016 O 198.228 -4.07326 -3.99302 0
M  V30 2017 O 197.162 -5.42645 -2.60423 0
M  V30 2018 H 200.988 -3.01816 -0.337776 0
M  V30 2019 H 198.573 -1.4906 -0.100695 0
M  V30 2020 H 200.455 -3.16129 -2.7864 0
M  V30 2021 H 199.13 -1.9881 -2.55453 0
M  V30 2022 H 198.037 -3.62705 -0.916296 0
M  V30 2023 H 199.37 -4.76722 -1.22464 0
M  V30 2024 N 201.022 0.148545 -1.56898 0
M  V30 2025 C 202.299 0.890019 -1.74178 0
M  V30 2026 C 202.679 1.99407 -0.692839 0
M  V30 2027 O 202.027 2.26671 0.288505 0
M  V30 2028 C 202.237 1.43389 -3.18183 0
M  V30 2029 C 203.585 1.89791 -3.79822 0
M  V30 2030 O 204.609 1.53134 -3.21603 0
M  V30 2031 O 203.468 2.57387 -4.82093 0
M  V30 2032 H 200.562 0.420496 -0.712118 0
M  V30 2033 H 203.108 0.134591 -1.69165 0
M  V30 2034 H 201.88 0.640383 -3.86024 0
M  V30 2035 H 201.503 2.25287 -3.27615 0
M  V30 2036 N 202.5 1.5196 0.417844 0
M  V30 2037 C 203.41 1.77554 1.53336 0
M  V30 2038 C 204.426 0.660655 1.6097 0
M  V30 2039 O 205.602 0.945099 1.77848 0
M  V30 2040 C 202.667 1.91291 2.89152 0
M  V30 2041 C 201.728 3.15183 2.91475 0
M  V30 2042 C 200.961 3.28256 4.20813 0
M  V30 2043 O 201.184 2.46798 5.14244 0
M  V30 2044 O 200.118 4.21356 4.29817 0
M  V30 2045 H 203.944 2.7222 1.34647 0
M  V30 2046 H 201.529 1.36698 0.602828 0
M  V30 2047 H 203.411 2.02199 3.69721 0
M  V30 2048 H 202.086 0.998129 3.07927 0
M  V30 2049 H 200.993 3.09739 2.09791 0
M  V30 2050 H 202.326 4.06414 2.77648 0
M  V30 2051 N 203.978 -0.674533 1.42435 0
M  V30 2052 C 204.925 -1.78807 1.45934 0
M  V30 2053 C 205.895 -1.63157 0.311271 0
M  V30 2054 O 207.08 -1.83707 0.515383 0
M  V30 2055 C 204.22 -3.16839 1.36773 0
M  V30 2056 C 203.333 -3.43774 2.61617 0
M  V30 2057 C 202.468 -4.71536 2.44597 0
M  V30 2058 C 201.507 -4.91505 3.64814 0
M  V30 2059 N 200.644 -6.10508 3.46734 0
M  V30 2060 H 205.484 -1.75151 2.41093 0
M  V30 2061 H 203.021 -0.85504 1.19697 0
M  V30 2062 H 204.979 -3.96606 1.29459 0
M  V30 2063 H 203.609 -3.19619 0.452089 0
M  V30 2064 H 202.661 -2.58259 2.79297 0
M  V30 2065 H 203.973 -3.54423 3.50978 0
M  V30 2066 H 203.127 -5.59393 2.3487 0
M  V30 2067 H 201.866 -4.6317 1.52726 0
M  V30 2068 H 200.871 -4.0209 3.74972 0
M  V30 2069 H 202.096 -5.01716 4.57665 0
M  V30 2070 H 200.042 -6.03315 2.5758 0
M  V30 2071 H 199.959 -6.2202 4.29682 0
M  V30 2072 H 201.227 -7.01044 3.40819 0
M  V30 2073 N 205.456 -1.28612 -0.910864 0
M  V30 2074 C 206.704 -1.15705 -1.65701 0
M  V30 2075 C 207.025 0.29416 -1.92769 0
M  V30 2076 O 206.295 1.20331 -1.54588 0
M  V30 2077 H 204.875 -0.425216 -0.614167 0
M  V30 2078 H 207.537 -1.61381 -1.0928 0
M  V30 2079 H 206.633 -1.6988 -2.61815 0
M  V30 2080 N 206.934 1.1197 -1.10907 0
M  V30 2081 C 207.844 2.21433 -0.774896 0
M  V30 2082 C 208.86 1.72478 0.229657 0
M  V30 2083 O 210.036 2.01288 0.0672008 0
M  V30 2084 C 207.101 3.4602 -0.216986 0
M  V30 2085 C 206.162 4.09791 -1.27944 0
M  V30 2086 C 205.395 5.28431 -0.748055 0
M  V30 2087 O 205.618 5.68823 0.423833 0
M  V30 2088 O 204.552 5.82644 -1.51027 0
M  V30 2089 H 208.378 2.5242 -1.68873 0
M  V30 2090 H 205.963 1.20399 -0.884555 0
M  V30 2091 H 207.845 4.21304 0.090059 0
M  V30 2092 H 206.52 3.16698 0.669633 0
M  V30 2093 H 205.427 3.36265 -1.63941 0
M  V30 2094 H 206.76 4.4328 -2.13925 0
M  V30 2095 N 208.412 0.89855 1.29475 0
M  V30 2096 C 209.828 0.594483 1.48115 0
M  V30 2097 C 210.028 -0.86431 1.82022 0
M  V30 2098 O 209.084 -1.64457 1.91599 0
M  V30 2099 C 210.397 1.51932 2.59494 0
M  V30 2100 C 211.945 1.5244 2.7337 0
M  V30 2101 C 212.42 2.43548 3.87877 0
M  V30 2102 N 213.911 2.41589 3.95208 0
M  V30 2103 C 214.646 3.08789 4.83153 0
M  V30 2104 N 214.142 3.85265 5.75798 0
M  V30 2105 N 215.935 2.97952 4.76635 0
M  V30 2106 H 208.086 1.84207 1.05742 0
M  V30 2107 H 210.349 0.789251 0.525154 0
M  V30 2108 H 210.055 2.55865 2.41301 0
M  V30 2109 H 209.929 1.23899 3.56271 0
M  V30 2110 H 212.316 0.492518 2.90961 0
M  V30 2111 H 212.397 1.8451 1.77172 0
M  V30 2112 H 212.041 3.46829 3.71041 0
M  V30 2113 H 211.971 2.08788 4.83441 0
M  V30 2114 H 214.462 1.86025 3.28943 0
M  V30 2115 H 214.775 4.33598 6.39697 0
M  V30 2116 H 213.12 3.89371 5.75687 0
M  V30 2117 H 216.311 2.37723 4.03244 0
M  V30 2118 H 216.484 3.50599 5.44962 0
M  V30 2119 N 209.89 -1.43072 0.660911 0
M  V30 2120 C 211.12 -2.05769 0.185153 0
M  V30 2121 C 211.528 -1.49668 -1.15742 0
M  V30 2122 O 210.871 -0.625649 -1.72717 0
M  V30 2123 C 210.933 -3.59489 0.0278237 0
M  V30 2124 C 210.597 -4.38212 1.2969 0
M  V30 2125 C 211.594 -4.69772 2.22734 0
M  V30 2126 C 209.279 -4.7809 1.54063 0
M  V30 2127 C 211.273 -5.40129 3.38437 0
M  V30 2128 C 208.96 -5.4819 2.70058 0
M  V30 2129 C 209.958 -5.79132 3.62071 0
M  V30 2130 O 209.646 -6.47798 4.76039 0
M  V30 2131 H 209.378 -0.669873 0.0908086 0
M  V30 2132 H 211.932 -1.84436 0.90402 0
M  V30 2133 H 210.162 -3.79426 -0.746489 0
M  V30 2134 H 211.851 -4.03862 -0.406275 0
M  V30 2135 H 212.617 -4.39476 2.05149 0
M  V30 2136 H 208.496 -4.53408 0.833215 0
M  V30 2137 H 212.04 -5.64198 4.10277 0
M  V30 2138 H 207.937 -5.77902 2.87574 0
M  V30 2139 H 208.705 -6.66283 4.75404 0
M  V30 2140 N 211.368 -0.403325 -1.52352 0
M  V30 2141 C 212.645 0.232611 -1.94212 0
M  V30 2142 C 213.025 1.63133 -1.33981 0
M  V30 2143 O 212.373 2.22659 -0.513344 0
M  V30 2144 C 212.583 0.244811 -3.4814 0
M  V30 2145 C 213.931 0.46698 -4.22024 0
M  V30 2146 O 214.955 0.324419 -3.5472 0
M  V30 2147 O 213.814 0.74747 -5.41364 0
M  V30 2148 H 210.908 0.148223 -0.813609 0
M  V30 2149 H 213.454 -0.458848 -1.63379 0
M  V30 2150 H 212.226 -0.734378 -3.84347 0
M  V30 2151 H 211.849 0.980611 -3.85318 0
M  V30 2152 N 212.846 1.57033 -0.133567 0
M  V30 2153 C 214.092 1.95976 0.521649 0
M  V30 2154 C 214.425 1.01779 1.65393 0
M  V30 2155 O 213.7 0.0576581 1.94415 0
M  V30 2156 C 213.983 3.44738 1.04057 0
M  V30 2157 C 213.836 4.49711 -0.0892897 0
M  V30 2158 C 215.155 3.95682 1.92675 0
M  V30 2159 H 212.274 0.712579 0.188149 0
M  V30 2160 H 214.916 1.88813 -0.212076 0
M  V30 2161 H 213.066 3.50973 1.66583 0
M  V30 2162 H 214.738 4.55565 -0.725152 0
M  V30 2163 H 212.981 4.27261 -0.750378 0
M  V30 2164 H 213.652 5.51099 0.315284 0
M  V30 2165 H 216.128 3.91841 1.39998 0
M  V30 2166 H 215.004 5.00262 2.25897 0
M  V30 2167 H 215.265 3.37239 2.85872 0
M  V30 2168 N 214.325 -0.140222 1.56975 0
M  V30 2169 C 215.574 -0.850152 1.82908 0
M  V30 2170 C 215.887 -1.82028 0.715892 0
M  V30 2171 O 217.093 -2.57485 0.861016 0
M  V30 2172 C 215.549 -1.5625 3.24213 0
M  V30 2173 C 215.157 -0.63443 4.43485 0
M  V30 2174 C 216.901 -2.25881 3.59413 0
M  V30 2175 C 214.808 -1.34879 5.75814 0
M  V30 2176 H 213.738 -0.321221 0.682153 0
M  V30 2177 H 216.389 -0.102874 1.83211 0
M  V30 2178 H 214.771 -2.35565 3.18316 0
M  V30 2179 H 215.945 0.12398 4.60633 0
M  V30 2180 H 214.26 -0.0461836 4.16374 0
M  V30 2181 H 216.857 -2.79978 4.5554 0
M  V30 2182 H 217.2 -3.02693 2.85802 0
M  V30 2183 H 217.733 -1.53477 3.67001 0
M  V30 2184 H 214.472 -0.622385 6.52539 0
M  V30 2185 H 213.992 -2.07974 5.6259 0
M  V30 2186 H 215.671 -1.88784 6.18845 0
M  V30 2187 N 215.803 -1.52179 -0.40978 0
M  V30 2188 C 216.733 -1.78435 -1.5061 0
M  V30 2189 C 217.714 -0.635295 -1.57791 0
M  V30 2190 O 218.899 -0.880823 -1.73076 0
M  V30 2191 C 216.029 -1.93444 -2.88439 0
M  V30 2192 C 214.983 -3.09038 -2.96108 0
M  V30 2193 C 214.309 -3.09268 -4.36185 0
M  V30 2194 C 215.609 -4.48508 -2.67652 0
M  V30 2195 H 217.303 -2.70237 -1.28889 0
M  V30 2196 H 214.849 -1.30036 -0.618605 0
M  V30 2197 H 216.802 -2.10394 -3.65119 0
M  V30 2198 H 215.526 -0.983129 -3.11452 0
M  V30 2199 H 214.185 -2.91837 -2.21872 0
M  V30 2200 H 213.833 -2.11861 -4.56206 0
M  V30 2201 H 213.533 -3.86907 -4.42241 0
M  V30 2202 H 215.057 -3.28348 -5.14801 0
M  V30 2203 H 216.471 -4.65918 -3.34056 0
M  V30 2204 H 214.868 -5.28059 -2.85085 0
M  V30 2205 H 215.938 -4.56649 -1.63095 0
M  V30 2206 N 217.281 0.66697 -1.42791 0
M  V30 2207 C 218.558 1.4234 -1.34159 0
M  V30 2208 C 218.938 2.11093 0.0172729 0
M  V30 2209 O 218.286 2.03808 1.03318 0
M  V30 2210 C 218.496 2.41942 -2.51526 0
M  V30 2211 C 219.844 3.06353 -2.93995 0
M  V30 2212 O 220.868 2.52269 -2.51473 0
M  V30 2213 O 219.727 4.04376 -3.67617 0
M  V30 2214 H 216.821 0.635277 -0.529483 0
M  V30 2215 H 219.367 0.695034 -1.54814 0
M  V30 2216 H 218.139 1.89991 -3.42081 0
M  V30 2217 H 217.762 3.22249 -2.32898 0
M  V30 2218 N 218.759 1.29093 0.90403 0
M  V30 2219 C 219.706 1.13853 2.00764 0
M  V30 2220 C 220.676 0.0330084 1.66067 0
M  V30 2221 O 221.861 0.199733 1.89752 0
M  V30 2222 C 219.001 0.816537 3.35301 0
M  V30 2223 C 218.114 2.00206 3.82807 0
M  V30 2224 C 217.249 1.61983 5.059 0
M  V30 2225 C 216.288 2.77143 5.45764 0
M  V30 2226 N 215.425 2.39346 6.60044 0
M  V30 2227 H 220.265 2.08276 2.13132 0
M  V30 2228 H 217.802 1.03648 1.04381 0
M  V30 2229 H 219.76 0.610557 4.12708 0
M  V30 2230 H 218.39 -0.090779 3.22672 0
M  V30 2231 H 217.442 2.31988 3.01473 0
M  V30 2232 H 218.754 2.86512 4.08304 0
M  V30 2233 H 217.908 1.37649 5.90879 0
M  V30 2234 H 216.647 0.728202 4.82233 0
M  V30 2235 H 215.652 3.02165 4.59322 0
M  V30 2236 H 216.877 3.66964 5.71414 0
M  V30 2237 H 214.823 1.52665 6.37989 0
M  V30 2238 H 214.74 3.19185 6.85315 0
M  V30 2239 H 216.008 2.1832 7.48303 0
M  V30 2240 N 220.237 -1.11381 1.11499 0
M  V30 2241 C 221.483 -1.83403 0.865512 0
M  V30 2242 C 221.816 -1.84459 -0.607329 0
M  V30 2243 O 221.091 -1.29811 -1.44842 0
M  V30 2244 C 221.374 -3.30552 1.42855 0
M  V30 2245 C 221.227 -3.37886 2.96906 0
M  V30 2246 C 222.546 -4.26643 1.08 0
M  V30 2247 H 219.665 -0.665879 0.31587 0
M  V30 2248 H 222.307 -1.30601 1.37998 0
M  V30 2249 H 220.457 -3.75648 0.990985 0
M  V30 2250 H 222.129 -3.01343 3.49271 0
M  V30 2251 H 220.372 -2.78088 3.32941 0
M  V30 2252 H 221.043 -4.41458 3.31389 0
M  V30 2253 H 223.519 -3.89729 1.45775 0
M  V30 2254 H 222.395 -5.27986 1.50072 0
M  V30 2255 H 222.656 -4.42099 -0.00915037 0
M  V30 2256 N 221.715 -0.905404 -1.28997 0
M  V30 2257 C 222.961 -0.535039 -1.95615 0
M  V30 2258 C 223.294 0.917404 -1.71165 0
M  V30 2259 O 222.569 1.65123 -1.02785 0
M  V30 2260 C 222.852 -0.834918 -3.50287 0
M  V30 2261 C 222.705 -2.33948 -3.84172 0
M  V30 2262 C 224.024 -0.325318 -4.38896 0
M  V30 2263 H 221.143 -0.195861 -0.710498 0
M  V30 2264 H 223.785 -1.13313 -1.52513 0
M  V30 2265 H 221.935 -0.325904 -3.87131 0
M  V30 2266 H 223.607 -2.91847 -3.57243 0
M  V30 2267 H 221.85 -2.79789 -3.31513 0
M  V30 2268 H 222.521 -2.49987 -4.92149 0
M  V30 2269 H 224.997 -0.761256 -4.09077 0
M  V30 2270 H 223.873 -0.564295 -5.45992 0
M  V30 2271 H 224.134 0.774144 -4.35269 0
M  V30 2272 N 223.193 1.4272 -0.668489 0
M  V30 2273 C 224.439 2.01923 -0.188419 0
M  V30 2274 C 224.772 1.52704 1.19979 0
M  V30 2275 O 224.047 0.726566 1.8042 0
M  V30 2276 C 224.33 3.59451 -0.216085 0
M  V30 2277 C 224.183 4.18864 -1.6393 0
M  V30 2278 C 225.502 4.37903 0.439179 0
M  V30 2279 H 222.621 0.733674 -0.0699412 0
M  V30 2280 H 225.263 1.69822 -0.852076 0
M  V30 2281 H 223.413 3.86929 0.349012 0
M  V30 2282 H 225.085 4.02362 -2.25616 0
M  V30 2283 H 223.328 3.74933 -2.18193 0
M  V30 2284 H 223.999 5.27987 -1.61039 0
M  V30 2285 H 226.475 4.16079 -0.0417878 0
M  V30 2286 H 225.351 5.47519 0.389157 0
M  V30 2287 H 225.612 4.15303 1.51577 0
M  V30 2288 N 224.671 0.411399 1.52136 0
M  V30 2289 C 225.896 -0.165538 2.06738 0
M  V30 2290 C 226.321 -1.379 1.27926 0
M  V30 2291 O 225.679 -1.78628 0.310114 0
M  V30 2292 C 225.727 -0.492124 3.57226 0
M  V30 2293 O 224.831 -1.58276 3.80818 0
M  V30 2294 H 224.172 -0.0132132 0.663869 0
M  V30 2295 H 226.702 0.585253 1.96051 0
M  V30 2296 H 226.712 -0.750104 4.01045 0
M  V30 2297 H 225.387 0.394922 4.14021 0
M  V30 2298 H 223.964 -1.31677 3.48877 0
M  V30 2299 N 226.149 -1.5696 0.141893 0
M  V30 2300 C 227.426 -1.87553 -0.555281 0
M  V30 2301 C 227.806 -1.04699 -1.83306 0
M  V30 2302 O 227.154 -0.132346 -2.28116 0
M  V30 2303 C 227.364 -3.39093 -0.825664 0
M  V30 2304 C 228.712 -4.08199 -1.16869 0
M  V30 2305 O 229.736 -3.44242 -0.915185 0
M  V30 2306 O 228.595 -5.21139 -1.6455 0
M  V30 2307 H 225.689 -0.777188 -0.282679 0
M  V30 2308 H 228.235 -1.68763 0.17812 0
M  V30 2309 H 227.007 -3.91221 0.0788633 0
M  V30 2310 H 226.63 -3.63393 -1.61343 0
M  V30 2311 N 227.627 0.131896 -1.57047 0
M  V30 2312 C 228.577 1.1679 -1.95816 0
M  V30 2313 C 229.561 1.37756 -0.831393 0
M  V30 2314 O 230.753 1.39065 -1.09499 0
M  V30 2315 C 227.882 2.49778 -2.35512 0
M  V30 2316 C 226.968 2.32342 -3.54793 0
M  V30 2317 N 227.359 1.8469 -4.70875 0
M  V30 2318 C 225.657 2.63043 -3.60173 0
M  V30 2319 C 226.358 1.80656 -5.52936 0
M  V30 2320 N 225.334 2.24528 -4.95064 0
M  V30 2321 H 229.136 0.791818 -2.83033 0
M  V30 2322 H 226.65 0.339791 -1.58805 0
M  V30 2323 H 228.647 3.24692 -2.61498 0
M  V30 2324 H 227.307 2.88156 -1.49654 0
M  V30 2325 H 228.318 1.54429 -4.9434 0
M  V30 2326 H 224.995 3.05193 -2.84892 0
M  V30 2327 H 226.385 1.45178 -6.56028 0
M  V30 2328 N 229.106 1.52395 0.401703 0
M  V30 2329 C 230.352 1.68019 1.14635 0
M  V30 2330 C 230.707 0.408722 1.88009 0
M  V30 2331 O 230 -0.597133 1.82057 0
M  V30 2332 C 230.194 2.84578 2.16217 0
M  V30 2333 C 230.023 4.22938 1.5282 0
M  V30 2334 C 228.793 4.88352 1.29772 0
M  V30 2335 C 230.991 5.04778 0.985094 0
M  V30 2336 N 228.973 6.10726 0.623455 0
M  V30 2337 C 230.344 6.1845 0.438172 0
M  V30 2338 C 232.399 4.90057 0.880275 0
M  V30 2339 C 231.102 7.19013 -0.203306 0
M  V30 2340 C 233.128 5.9086 0.252639 0
M  V30 2341 C 232.49 7.03829 -0.283573 0
M  V30 2342 H 228.589 0.668413 0.405892 0
M  V30 2343 H 231.173 1.89717 0.437674 0
M  V30 2344 H 229.344 2.64483 2.84435 0
M  V30 2345 H 231.076 2.89202 2.83098 0
M  V30 2346 H 227.831 4.46846 1.56926 0
M  V30 2347 H 228.255 6.76323 0.302733 0
M  V30 2348 H 232.897 4.02938 1.28065 0
M  V30 2349 H 230.615 8.05751 -0.615726 0
M  V30 2350 H 234.201 5.81543 0.172954 0
M  V30 2351 H 233.081 7.80493 -0.761575 0
M  V30 2352 N 230.584 -0.659388 1.43143 0
M  V30 2353 C 231.531 -1.77249 1.47822 0
M  V30 2354 C 232.501 -1.62818 0.328558 0
M  V30 2355 O 233.686 -1.83151 0.534838 0
M  V30 2356 C 230.826 -3.15371 1.40126 0
M  V30 2357 C 229.939 -3.4098 2.65249 0
M  V30 2358 C 229.074 -4.68915 2.49584 0
M  V30 2359 C 228.113 -4.87608 3.70006 0
M  V30 2360 N 227.25 -6.06796 3.53189 0
M  V30 2361 H 232.09 -1.72584 2.42938 0
M  V30 2362 H 229.627 -0.842297 1.20598 0
M  V30 2363 H 231.585 -3.9521 1.33659 0
M  V30 2364 H 230.215 -3.19121 0.485964 0
M  V30 2365 H 229.267 -2.55282 2.8202 0
M  V30 2366 H 230.579 -3.50681 3.54717 0
M  V30 2367 H 229.733 -5.56871 2.4079 0
M  V30 2368 H 228.472 -4.61524 1.5763 0
M  V30 2369 H 227.477 -3.9809 3.79215 0
M  V30 2370 H 228.702 -4.96834 4.62961 0
M  V30 2371 H 226.648 -6.00549 2.63965 0
M  V30 2372 H 226.565 -6.17428 4.36255 0
M  V30 2373 H 227.833 -6.9739 3.48236 0
M  V30 2374 N 232.062 -1.29571 -0.897171 0
M  V30 2375 C 232.972 -1.16808 -2.03453 0
M  V30 2376 C 233.988 -0.0907471 -1.73763 0
M  V30 2377 O 235.164 -0.303312 -1.99103 0
M  V30 2378 C 232.229 -0.848264 -3.36163 0
M  V30 2379 C 231.29 -2.0097 -3.79354 0
M  V30 2380 C 230.523 -1.70505 -5.05731 0
M  V30 2381 O 230.746 -0.62718 -5.66941 0
M  V30 2382 O 229.68 -2.5538 -5.45036 0
M  V30 2383 H 233.506 -2.12325 -2.17144 0
M  V30 2384 H 231.091 -1.09047 -1.02123 0
M  V30 2385 H 232.973 -0.684581 -4.15802 0
M  V30 2386 H 231.648 0.0771071 -3.23608 0
M  V30 2387 H 230.555 -2.22863 -3.00471 0
M  V30 2388 H 231.888 -2.91636 -3.96496 0
M  V30 2389 N 233.54 1.10788 -1.12088 0
M  V30 2390 C 234.789 1.82036 -0.868659 0
M  V30 2391 C 235.102 1.85929 0.607426 0
M  V30 2392 O 236.308 2.53346 0.97613 0
M  V30 2393 C 234.764 3.26951 -1.50435 0
M  V30 2394 C 234.372 3.31367 -3.01496 0
M  V30 2395 C 236.116 4.03053 -1.33225 0
M  V30 2396 C 234.023 4.7072 -3.58017 0
M  V30 2397 H 232.953 0.682108 -0.321318 0
M  V30 2398 H 235.604 1.24618 -1.34694 0
M  V30 2399 H 233.986 3.84343 -0.953735 0
M  V30 2400 H 235.16 2.83819 -3.6302 0
M  V30 2401 H 233.475 2.6875 -3.18061 0
M  V30 2402 H 236.072 5.05981 -1.72878 0
M  V30 2403 H 236.415 4.15387 -0.275529 0
M  V30 2404 H 236.948 3.52066 -1.85188 0
M  V30 2405 H 233.687 4.63585 -4.63432 0
M  V30 2406 H 233.207 5.1865 -3.01268 0
M  V30 2407 H 234.886 5.39685 -3.56859 0
M  V30 2408 N 235.018 0.912232 1.28515 0
M  V30 2409 C 235.948 0.416403 2.29757 0
M  V30 2410 C 236.929 -0.515194 1.6211 0
M  V30 2411 O 238.114 -0.423253 1.89532 0
M  V30 2412 C 235.244 -0.34572 3.45575 0
M  V30 2413 C 234.198 0.496599 4.25109 0
M  V30 2414 C 233.524 -0.393771 5.33248 0
M  V30 2415 C 234.824 1.75307 4.92001 0
M  V30 2416 H 236.518 1.26249 2.7148 0
M  V30 2417 H 234.064 0.608515 1.30511 0
M  V30 2418 H 236.017 -0.703422 4.15488 0
M  V30 2419 H 234.741 -1.2257 3.02728 0
M  V30 2420 H 233.4 0.8368 3.56922 0
M  V30 2421 H 233.048 -1.27225 4.86644 0
M  V30 2422 H 232.748 0.166209 5.87365 0
M  V30 2423 H 234.272 -0.747389 6.06009 0
M  V30 2424 H 235.686 1.46437 5.54283 0
M  V30 2425 H 234.083 2.25534 5.56106 0
M  V30 2426 H 235.153 2.48176 4.16577 0
M  V30 2427 N 236.496 -1.42363 0.676048 0
M  V30 2428 C 237.742 -2.0182 0.199125 0
M  V30 2429 C 238.075 -1.53339 -1.19168 0
M  V30 2430 O 237.35 -0.736124 -1.80032 0
M  V30 2431 C 237.633 -3.59331 0.235144 0
M  V30 2432 C 237.486 -4.17989 1.66149 0
M  V30 2433 C 238.805 -4.3813 -0.41595 0
M  V30 2434 H 235.924 -0.733293 0.0738311 0
M  V30 2435 H 238.566 -1.69368 0.86107 0
M  V30 2436 H 236.716 -3.87109 -0.328487 0
M  V30 2437 H 238.388 -4.0116 2.27747 0
M  V30 2438 H 236.631 -3.7377 2.20178 0
M  V30 2439 H 237.302 -5.27126 1.63837 0
M  V30 2440 H 239.778 -4.16051 0.0638529 0
M  V30 2441 H 238.654 -5.47717 -0.360115 0
M  V30 2442 H 238.915 -4.16101 -1.49373 0
M  V30 2443 N 237.974 -0.419461 -1.51915 0
M  V30 2444 C 239.385 0.0477853 -1.86639 0
M  V30 2445 C 239.736 1.43531 -1.33766 0
M  V30 2446 O 238.861 2.05401 -0.68113 0
M  V30 2447 C 239.456 0.0934885 -3.38671 0
M  V30 2448 C 238.015 0.505097 -3.72996 0
M  V30 2449 C 237.162 -0.313792 -2.75519 0
M  V30 2450 H 240.113 -0.636088 -1.45395 0
M  V30 2451 H 240.134 0.906667 -3.6954 0
M  V30 2452 H 239.646 -0.916501 -3.77123 0
M  V30 2453 H 237.747 1.52135 -3.40126 0
M  V30 2454 H 237.86 0.242309 -4.78487 0
M  V30 2455 H 236.224 0.225363 -2.53701 0
M  V30 2456 H 237.007 -1.32232 -3.16812 0
M  V30 2457 N 239.452 1.56882 -0.150215 0
M  V30 2458 C 240.699 1.96228 0.500093 0
M  V30 2459 C 241.027 1.03522 1.64661 0
M  V30 2460 O 240.282 0.0650683 1.95592 0
M  V30 2461 C 240.581 3.41801 1.04437 0
M  V30 2462 C 240.247 4.50897 0.0159671 0
M  V30 2463 C 238.909 4.8046 -0.266731 0
M  V30 2464 C 241.261 5.16703 -0.683192 0
M  V30 2465 C 238.589 5.73135 -1.25434 0
M  V30 2466 C 240.941 6.10441 -1.65964 0
M  V30 2467 C 239.605 6.38382 -1.95 0
M  V30 2468 H 238.875 0.718048 0.182997 0
M  V30 2469 H 241.522 1.90019 -0.237724 0
M  V30 2470 H 239.827 3.44857 1.85959 0
M  V30 2471 H 241.524 3.69573 1.55618 0
M  V30 2472 H 238.114 4.27891 0.246485 0
M  V30 2473 H 242.298 4.93993 -0.477983 0
M  V30 2474 H 237.554 5.93074 -1.48571 0
M  V30 2475 H 241.728 6.60507 -2.20689 0
M  V30 2476 H 239.355 7.09996 -2.71679 0
M  V30 2477 N 240.93 -0.123565 1.57115 0
M  V30 2478 C 242.155 -0.850398 1.89164 0
M  V30 2479 C 242.58 -1.7286 0.741688 0
M  V30 2480 O 241.938 -1.78665 -0.307958 0
M  V30 2481 C 241.986 -1.66353 3.19936 0
M  V30 2482 O 241.09 -2.77004 3.0552 0
M  V30 2483 H 240.431 -0.235454 0.620852 0
M  V30 2484 H 242.961 -0.107335 2.04318 0
M  V30 2485 H 242.971 -2.05372 3.52543 0
M  V30 2486 H 241.646 -1.01881 4.03228 0
M  V30 2487 H 240.223 -2.41221 2.84371 0
M  V30 2488 N 242.408 -1.52605 -0.393616 0
M  V30 2489 C 243.819 -1.59417 -0.971761 0
M  V30 2490 C 244.17 -0.444173 -1.91106 0
M  V30 2491 O 243.295 0.433382 -2.12016 0
M  V30 2492 C 243.89 -2.88936 -1.76921 0
M  V30 2493 C 242.449 -2.98175 -2.29714 0
M  V30 2494 C 241.596 -2.54491 -1.10135 0
M  V30 2495 H 244.547 -1.57751 -0.173317 0
M  V30 2496 H 244.568 -2.75163 -2.62804 0
M  V30 2497 H 244.08 -3.72616 -1.08532 0
M  V30 2498 H 242.181 -2.19024 -3.01429 0
M  V30 2499 H 242.294 -4.02726 -2.59517 0
M  V30 2500 H 240.658 -2.08702 -1.45999 0
M  V30 2501 H 241.441 -3.4056 -0.432874 0
M  V30 2502 N 243.887 0.651787 -1.4349 0
M  V30 2503 C 245.115 1.43937 -1.48626 0
M  V30 2504 C 245.53 1.8851 -0.104587 0
M  V30 2505 O 244.887 1.5958 0.885464 0
M  V30 2506 C 244.938 2.6734 -2.43334 0
M  V30 2507 O 244.659 2.24631 -3.76128 0
M  V30 2508 C 246.16 3.60683 -2.57726 0
M  V30 2509 H 243.38 0.44213 -0.504739 0
M  V30 2510 H 245.924 0.798944 -1.88248 0
M  V30 2511 H 244.079 3.2752 -2.06904 0
M  V30 2512 H 244.493 3.04485 -4.2707 0
M  V30 2513 H 245.967 4.43933 -3.28067 0
M  V30 2514 H 246.444 4.08126 -1.62265 0
M  V30 2515 H 247.05 3.06384 -2.94973 0
M  V30 2516 N 245.365 1.30045 0.890287 0
M  V30 2517 C 246.612 1.18561 1.64163 0
M  V30 2518 C 246.94 -0.260852 1.92743 0
M  V30 2519 O 246.195 -1.20376 1.54299 0
M  V30 2520 C 246.494 1.95409 2.99249 0
M  V30 2521 C 246.16 3.45066 2.90242 0
M  V30 2522 C 244.822 3.85878 2.87492 0
M  V30 2523 C 247.174 4.4039 2.78758 0
M  V30 2524 C 244.502 5.20314 2.7109 0
M  V30 2525 C 246.854 5.74928 2.63894 0
M  V30 2526 C 245.518 6.14986 2.59516 0
M  V30 2527 H 244.788 0.433846 0.600715 0
M  V30 2528 H 247.435 1.61088 1.03552 0
M  V30 2529 H 245.74 1.45501 3.63781 0
M  V30 2530 H 247.437 1.8392 3.56334 0
M  V30 2531 H 244.027 3.12631 2.93189 0
M  V30 2532 H 248.211 4.09806 2.79952 0
M  V30 2533 H 243.467 5.50449 2.66112 0
M  V30 2534 H 247.641 6.48434 2.53981 0
M  V30 2535 H 245.268 7.19104 2.46565 0
M  V30 2536 N 246.843 -1.10192 1.12674 0
M  V30 2537 C 247.753 -2.20172 0.810026 0
M  V30 2538 C 248.769 -1.72821 -0.202188 0
M  V30 2539 O 249.945 -2.01369 -0.0351691 0
M  V30 2540 C 247.01 -3.45631 0.272007 0
M  V30 2541 C 246.071 -4.07704 1.34447 0
M  V30 2542 C 245.304 -5.27175 0.832029 0
M  V30 2543 O 245.527 -5.69425 -0.333284 0
M  V30 2544 O 244.461 -5.80168 1.60277 0
M  V30 2545 H 248.287 -2.49701 1.72867 0
M  V30 2546 H 245.872 -1.18977 0.903597 0
M  V30 2547 H 247.754 -4.21394 -0.0230219 0
M  V30 2548 H 246.429 -3.17723 -0.619164 0
M  V30 2549 H 245.336 -3.33614 1.6927 0
M  V30 2550 H 246.669 -4.3982 2.2095 0
M  V30 2551 N 248.321 -0.919034 -1.28029 0
M  V30 2552 C 249.569 -0.553838 -1.94363 0
M  V30 2553 C 249.89 0.906357 -1.72656 0
M  V30 2554 O 249.16 1.64143 -1.0693 0
M  V30 2555 H 247.74 -0.201834 -0.719216 0
M  V30 2556 H 250.402 -1.16954 -1.55909 0
M  V30 2557 H 249.498 -0.752758 -3.02886 0
M  V30 2558 N 249.799 1.42003 -0.683588 0
M  V30 2559 C 251.027 2.05746 -0.218182 0
M  V30 2560 C 251.442 1.51396 1.12804 0
M  V30 2561 O 250.799 0.657303 1.70252 0
M  V30 2562 C 250.85 3.61171 -0.154131 0
M  V30 2563 O 250.571 4.13508 -1.44716 0
M  V30 2564 C 252.072 4.42042 0.333713 0
M  V30 2565 H 249.292 0.662888 -0.10402 0
M  V30 2566 H 251.836 1.81987 -0.9328 0
M  V30 2567 H 249.991 3.84012 0.511231 0
M  V30 2568 H 250.405 5.07453 -1.32632 0
M  V30 2569 H 251.879 5.51028 0.327423 0
M  V30 2570 H 252.356 4.17269 1.37053 0
M  V30 2571 H 252.962 4.24239 -0.300222 0
M  V30 2572 N 251.277 0.427512 1.51691 0
M  V30 2573 C 252.688 -0.0378867 1.86662 0
M  V30 2574 C 253.039 -1.42819 1.34525 0
M  V30 2575 O 252.164 -2.05037 0.692014 0
M  V30 2576 C 252.759 -0.0755266 3.38716 0
M  V30 2577 C 251.318 -0.485309 3.73258 0
M  V30 2578 C 250.465 0.328399 2.75349 0
M  V30 2579 H 253.416 0.64379 1.45055 0
M  V30 2580 H 253.437 -0.887056 3.70016 0
M  V30 2581 H 252.949 0.936487 3.76632 0
M  V30 2582 H 251.05 -1.50329 3.40928 0
M  V30 2583 H 251.163 -0.21693 4.78609 0
M  V30 2584 H 249.527 -0.211905 2.53817 0
M  V30 2585 H 250.31 1.3391 3.16106 0
M  V30 2586 N 252.755 -1.56801 0.158532 0
M  V30 2587 C 253.718 -2.16138 -0.762705 0
M  V30 2588 C 254.718 -1.1061 -1.16713 0
M  V30 2589 O 255.908 -1.36191 -1.08617 0
M  V30 2590 C 253.04 -2.73386 -2.03649 0
M  V30 2591 H 254.233 -2.98886 -0.246354 0
M  V30 2592 H 251.786 -1.56035 -0.0909744 0
M  V30 2593 H 252.521 -1.94335 -2.59623 0
M  V30 2594 H 252.306 -3.50601 -1.75559 0
M  V30 2595 H 253.796 -3.19065 -2.6942 0
M  V30 2596 N 254.233 0.115231 -1.57178 0
M  V30 2597 C 255.18 1.14115 -2.00615 0
M  V30 2598 C 256.15 1.40939 -0.878941 0
M  V30 2599 O 257.335 1.52741 -1.14345 0
M  V30 2600 C 254.475 2.46156 -2.4187 0
M  V30 2601 C 253.588 2.26236 -3.68024 0
M  V30 2602 C 252.723 3.51534 -3.98243 0
M  V30 2603 C 251.762 3.26787 -5.17568 0
M  V30 2604 N 250.899 4.44298 -5.43639 0
M  V30 2605 H 255.739 0.763743 -2.88047 0
M  V30 2606 H 253.276 0.365615 -1.42484 0
M  V30 2607 H 255.234 3.23189 -2.63827 0
M  V30 2608 H 253.864 2.81783 -1.57475 0
M  V30 2609 H 252.916 1.40102 -3.5366 0
M  V30 2610 H 254.228 2.03929 -4.55208 0
M  V30 2611 H 253.382 4.36984 -4.20868 0
M  V30 2612 H 252.121 3.76876 -3.09541 0
M  V30 2613 H 251.126 2.39729 -4.94783 0
M  V30 2614 H 252.351 3.02812 -6.0785 0
M  V30 2615 H 250.297 4.69754 -4.57895 0
M  V30 2616 H 250.214 4.25109 -6.25154 0
M  V30 2617 H 251.482 5.3087 -5.70786 0
M  V30 2618 N 255.711 1.52812 0.385517 0
M  V30 2619 C 256.941 1.71658 1.14966 0
M  V30 2620 C 257.349 0.436253 1.84102 0
M  V30 2621 O 256.692 -0.599313 1.73649 0
M  V30 2622 C 256.754 2.81309 2.23843 0
M  V30 2623 C 256.418 4.22313 1.74644 0
M  V30 2624 C 257.415 5.05352 1.22129 0
M  V30 2625 C 255.1 4.68648 1.80761 0
M  V30 2626 C 257.094 6.32807 0.763838 0
M  V30 2627 C 254.781 5.96086 1.34627 0
M  V30 2628 C 255.779 6.77996 0.825264 0
M  V30 2629 O 255.467 8.03045 0.370669 0
M  V30 2630 H 255.199 0.578022 0.350523 0
M  V30 2631 H 257.753 2.00263 0.456509 0
M  V30 2632 H 255.983 2.48133 2.96592 0
M  V30 2633 H 257.672 2.88524 2.85497 0
M  V30 2634 H 258.438 4.70736 1.16758 0
M  V30 2635 H 254.317 4.04979 2.20256 0
M  V30 2636 H 257.861 6.96689 0.356494 0
M  V30 2637 H 253.758 6.30205 1.39686 0
M  V30 2638 H 254.526 8.17021 0.491829 0
M  V30 2639 N 257.189 -0.644168 1.43834 0
M  V30 2640 C 258.414 -1.43642 1.49605 0
M  V30 2641 C 258.839 -1.8773 0.117913 0
M  V30 2642 O 258.197 -1.57938 -0.890239 0
M  V30 2643 C 258.245 -2.6416 2.45463 0
M  V30 2644 O 257.349 -3.63538 1.94714 0
M  V30 2645 H 256.69 -0.430329 0.50568 0
M  V30 2646 H 259.22 -0.787448 1.8884 0
M  V30 2647 H 259.23 -3.11864 2.63068 0
M  V30 2648 H 257.905 -2.31414 3.45572 0
M  V30 2649 H 256.482 -3.2273 1.86814 0
M  V30 2650 N 258.668 -1.30515 -0.883378 0
M  V30 2651 C 259.598 -1.19607 -2.00541 0
M  V30 2652 C 260.579 -0.086346 -1.69881 0
M  V30 2653 O 261.764 -0.268654 -1.92333 0
M  V30 2654 C 258.894 -0.888758 -3.35736 0
M  V30 2655 C 257.848 -1.95659 -3.8066 0
M  V30 2656 C 257.174 -1.50224 -5.13164 0
M  V30 2657 C 258.474 -3.36788 -3.99213 0
M  V30 2658 H 260.168 -2.13476 -2.09925 0
M  V30 2659 H 257.714 -1.02775 -1.00863 0
M  V30 2660 H 259.667 -0.799094 -4.13754 0
M  V30 2661 H 258.391 0.0856125 -3.26488 0
M  V30 2662 H 257.05 -2.03591 -3.04871 0
M  V30 2663 H 256.698 -0.516092 -5.00345 0
M  V30 2664 H 256.398 -2.2165 -5.44192 0
M  V30 2665 H 257.922 -1.42639 -5.93706 0
M  V30 2666 H 259.336 -3.31605 -4.67665 0
M  V30 2667 H 257.733 -4.06314 -4.41621 0
M  V30 2668 H 258.803 -3.78561 -3.03017 0
M  V30 2669 N 260.146 1.09593 -1.13257 0
M  V30 2670 C 261.395 1.81105 -0.887917 0
M  V30 2671 C 261.708 1.86563 0.587672 0
M  V30 2672 O 262.914 2.54367 0.949204 0
M  V30 2673 C 261.37 3.25338 -1.53895 0
M  V30 2674 C 260.978 3.28151 -3.04994 0
M  V30 2675 C 262.722 4.01617 -1.37492 0
M  V30 2676 C 260.629 4.66897 -3.6299 0
M  V30 2677 H 259.559 0.678661 -0.328534 0
M  V30 2678 H 262.21 1.23183 -1.36008 0
M  V30 2679 H 260.592 3.8331 -0.994446 0
M  V30 2680 H 261.766 2.79953 -3.66009 0
M  V30 2681 H 260.081 2.65361 -3.20893 0
M  V30 2682 H 262.678 5.04119 -1.78235 0
M  V30 2683 H 263.021 4.15072 -0.31957 0
M  V30 2684 H 263.554 3.50082 -1.88912 0
M  V30 2685 H 260.293 4.58643 -4.68323 0
M  V30 2686 H 259.813 5.15426 -3.06752 0
M  V30 2687 H 261.492 5.3587 -3.62563 0
M  V30 2688 N 261.624 0.925811 1.2754 0
M  V30 2689 C 262.873 0.561084 1.93739 0
M  V30 2690 C 263.186 -0.901685 1.73577 0
M  V30 2691 O 264.392 -1.37511 2.34101 0
M  V30 2692 C 262.848 0.952668 3.47062 0
M  V30 2693 C 262.456 2.43599 3.75983 0
M  V30 2694 C 264.2 0.659103 4.19352 0
M  V30 2695 C 262.107 2.76707 5.22673 0
M  V30 2696 H 261.037 0.206122 0.725279 0
M  V30 2697 H 263.688 1.12637 1.44863 0
M  V30 2698 H 262.07 0.316053 3.94737 0
M  V30 2699 H 263.244 3.12035 3.39073 0
M  V30 2700 H 261.559 2.70125 3.16893 0
M  V30 2701 H 264.156 0.882985 5.27359 0
M  V30 2702 H 264.499 -0.403607 4.14339 0
M  V30 2703 H 265.032 1.25473 3.77494 0
M  V30 2704 H 261.771 3.8188 5.32774 0
M  V30 2705 H 261.291 2.12919 5.60737 0
M  V30 2706 H 262.97 2.6435 5.90532 0
M  V30 2707 N 263.102 -1.41638 0.69111 0
M  V30 2708 C 264.348 -2.01598 0.220519 0
M  V30 2709 C 264.681 -1.54594 -1.17535 0
M  V30 2710 O 263.956 -0.755177 -1.79241 0
M  V30 2711 C 264.239 -3.59062 0.273243 0
M  V30 2712 C 264.092 -4.16203 1.70573 0
M  V30 2713 C 265.411 -4.38546 -0.369457 0
M  V30 2714 H 262.53 -0.732468 0.0816045 0
M  V30 2715 H 265.172 -1.68445 0.878986 0
M  V30 2716 H 263.322 -3.87435 -0.287411 0
M  V30 2717 H 264.994 -3.98722 2.31989 0
M  V30 2718 H 263.237 -3.71414 2.2413 0
M  V30 2719 H 263.908 -5.25358 1.69419 0
M  V30 2720 H 266.384 -4.1596 0.107977 0
M  V30 2721 H 265.26 -5.48069 -0.302002 0
M  V30 2722 H 265.521 -4.17662 -1.44951 0
M  V30 2723 N 264.58 -0.43555 -1.51462 0
M  V30 2724 C 265.543 0.365137 -2.26273 0
M  V30 2725 C 266.543 0.951227 -1.29647 0
M  V30 2726 O 267.733 0.825958 -1.53374 0
M  V30 2727 C 264.865 1.51645 -3.05314 0
M  V30 2728 H 266.058 -0.290474 -2.9849 0
M  V30 2729 H 263.611 -0.188676 -1.55157 0
M  V30 2730 H 264.346 2.20816 -2.3751 0
M  V30 2731 H 264.131 1.10238 -3.76284 0
M  V30 2732 H 265.621 2.08218 -3.61987 0
M  V30 2733 N 266.058 1.56714 -0.166846 0
M  V30 2734 C 267.283 2.01557 0.488833 0
M  V30 2735 C 267.708 1.0463 1.56314 0
M  V30 2736 O 267.066 0.0251304 1.81283 0
M  V30 2737 C 267.114 3.4503 1.04818 0
M  V30 2738 O 266.218 3.51163 2.16236 0
M  V30 2739 H 265.559 0.653516 0.117526 0
M  V30 2740 H 268.089 2.02818 -0.269421 0
M  V30 2741 H 268.099 3.84243 1.37191 0
M  V30 2742 H 266.774 4.15077 0.261572 0
M  V30 2743 H 265.351 3.23807 1.84942 0
M  V30 2744 N 267.536 -0.106894 1.57237 0
M  V30 2745 C 268.483 -1.13049 2.01217 0
M  V30 2746 C 269.453 -1.40471 0.886403 0
M  V30 2747 O 270.638 -1.52133 1.15153 0
M  V30 2748 C 267.778 -2.4487 2.43172 0
M  V30 2749 C 266.891 -2.24281 3.69218 0
M  V30 2750 C 266.026 -3.49417 4.00101 0
M  V30 2751 C 265.065 -3.24038 5.19294 0
M  V30 2752 N 264.202 -4.41409 5.45988 0
M  V30 2753 H 269.042 -0.748456 2.88448 0
M  V30 2754 H 266.579 -0.358054 1.42676 0
M  V30 2755 H 268.537 -3.21786 2.65537 0
M  V30 2756 H 267.167 -2.80944 1.58967 0
M  V30 2757 H 266.219 -1.38224 3.54398 0
M  V30 2758 H 267.531 -2.01512 4.56283 0
M  V30 2759 H 266.685 -4.34746 4.2318 0
M  V30 2760 H 265.424 -3.75229 3.11535 0
M  V30 2761 H 264.429 -2.37102 4.96047 0
M  V30 2762 H 265.654 -2.99584 6.09447 0
M  V30 2763 H 263.6 -4.67319 4.60379 0
M  V30 2764 H 263.517 -4.21788 6.274 0
M  V30 2765 H 264.785 -5.27836 5.73593 0
M  V30 2766 N 269.014 -1.53014 -0.377408 0
M  V30 2767 C 269.962 -1.7927 -1.48206 0
M  V30 2768 C 270.956 -0.661195 -1.55963 0
M  V30 2769 O 272.162 -0.843908 -1.58991 0
M  V30 2770 H 268.537 -0.567425 -0.493491 0
M  V30 2771 H 270.508 -2.71753 -1.2326 0
M  V30 2772 C 269.257 -1.98894 -2.85196 0
M  V30 2773 H 268.58 -2.85395 -2.79981 0
M  V30 2774 H 270.02 -2.21249 -3.61698 0
M  V30 2775 C 268.479 -0.764691 -3.28107 0
M  V30 2776 O 269.009 0.0523226 -4.01666 0
M  V30 2777 N 267.215 -0.591493 -2.84517 0
M  V30 2778 H 266.762 -1.25749 -2.24822 0
M  V30 2779 H 266.72 0.226253 -3.13585 0
M  V30 2780 N 270.492 0.636531 -1.44174 0
M  V30 2781 C 271.72 1.42353 -1.50144 0
M  V30 2782 C 272.135 1.88389 -0.124575 0
M  V30 2783 O 271.492 1.6051 0.868489 0
M  V30 2784 C 271.543 2.64744 -2.46156 0
M  V30 2785 O 271.264 2.20629 -3.7849 0
M  V30 2786 C 272.765 3.57929 -2.61537 0
M  V30 2787 H 269.985 0.436752 -0.5094 0
M  V30 2788 H 272.529 0.778933 -1.89084 0
M  V30 2789 H 270.684 3.25307 -2.10366 0
M  V30 2790 H 271.098 2.99938 -4.30276 0
M  V30 2791 H 272.572 4.40428 -3.32757 0
M  V30 2792 H 273.049 4.06382 -1.66585 0
M  V30 2793 H 273.655 3.03238 -2.98206 0
M  V30 2794 N 271.97 1.30982 0.876444 0
M  V30 2795 C 272.918 1.18006 2.00443 0
M  V30 2796 C 273.912 0.0898871 1.69161 0
M  V30 2797 O 275.118 0.251333 1.78237 0
M  V30 2798 H 271.493 0.365196 0.65737 0
M  V30 2799 H 273.464 2.13453 2.0852 0
M  V30 2800 C 272.213 0.897521 3.35916 0
M  V30 2801 H 271.536 1.7285 3.60504 0
M  V30 2802 H 272.976 0.846874 4.15456 0
M  V30 2803 C 271.435 -0.399674 3.34521 0
M  V30 2804 O 271.965 -1.41852 3.7582 0
M  V30 2805 N 270.171 -0.413893 2.87637 0
M  V30 2806 H 269.718 0.41571 2.54224 0
M  V30 2807 H 269.676 -1.28175 2.87086 0
M  V30 2808 N 273.449 -1.08991 1.13837 0
M  V30 2809 C 274.696 -1.81258 0.902882 0
M  V30 2810 C 275.024 -1.85936 -0.570803 0
M  V30 2811 O 274.279 -1.3267 -1.43865 0
M  V30 2812 C 274.578 -3.27042 1.44147 0
M  V30 2813 C 274.244 -3.4249 2.93276 0
M  V30 2814 C 272.906 -3.46414 3.33992 0
M  V30 2815 C 275.258 -3.4666 3.892 0
M  V30 2816 C 272.586 -3.52091 4.69307 0
M  V30 2817 C 274.938 -3.53872 5.24364 0
M  V30 2818 C 273.602 -3.56066 5.646 0
M  V30 2819 H 272.872 -0.663268 0.330388 0
M  V30 2820 H 275.519 -1.28368 1.42105 0
M  V30 2821 H 273.824 -3.82599 0.844097 0
M  V30 2822 H 275.521 -3.81499 1.23528 0
M  V30 2823 H 272.111 -3.40124 2.60794 0
M  V30 2824 H 276.295 -3.42865 3.58828 0
M  V30 2825 H 271.551 -3.52079 4.9985 0
M  V30 2826 H 275.725 -3.56043 5.98503 0
M  V30 2827 H 273.352 -3.60218 6.69438 0
M  V30 2828 N 274.927 -0.932562 -1.27047 0
M  V30 2829 C 275.875 -0.42603 -2.28665 0
M  V30 2830 C 276.869 0.49219 -1.62092 0
M  V30 2831 O 278.075 0.371355 -1.76128 0
M  V30 2832 H 274.45 -0.119213 -0.742491 0
M  V30 2833 H 276.421 -1.29579 -2.68797 0
M  V30 2834 C 275.17 0.301426 -3.46391 0
M  V30 2835 H 274.493 -0.39595 -3.97834 0
M  V30 2836 H 275.933 0.6202 -4.1944 0
M  V30 2837 C 274.392 1.51616 -3.00856 0
M  V30 2838 O 274.922 2.61476 -3.04948 0
M  V30 2839 N 273.128 1.36969 -2.56296 0
M  V30 2840 H 272.675 0.475873 -2.53166 0
M  V30 2841 H 272.633 2.18368 -2.26192 0
M  V30 2842 N 276.405 1.4127 -0.698611 0
M  V30 2843 C 277.652 2.0118 -0.230865 0
M  V30 2844 C 277.98 1.55338 1.17049 0
M  V30 2845 O 277.235 0.756775 1.80475 0
M  V30 2846 C 277.534 3.56592 -0.240192 0
M  V30 2847 C 277.2 4.21955 -1.58948 0
M  V30 2848 C 275.862 4.39524 -1.95887 0
M  V30 2849 C 278.214 4.58576 -2.47704 0
M  V30 2850 C 275.542 4.90992 -3.2116 0
M  V30 2851 C 277.894 5.11435 -3.72313 0
M  V30 2852 C 276.558 5.27215 -4.0939 0
M  V30 2853 H 275.828 0.736169 -0.0844796 0
M  V30 2854 H 278.475 1.69124 -0.8983 0
M  V30 2855 H 276.78 3.88456 0.510797 0
M  V30 2856 H 278.477 4.00758 0.139296 0
M  V30 2857 H 275.067 4.08657 -1.29219 0
M  V30 2858 H 279.251 4.44654 -2.20445 0
M  V30 2859 H 274.507 5.01393 -3.49878 0
M  V30 2860 H 278.681 5.38752 -4.4127 0
M  V30 2861 H 276.308 5.66859 -5.06533 0
M  V30 2862 N 277.883 0.443576 1.51229 0
M  V30 2863 C 279.113 -0.119117 2.06256 0
M  V30 2864 C 279.521 -1.36471 1.31043 0
M  V30 2865 O 278.864 -1.80034 0.365151 0
M  V30 2866 C 278.926 -0.500546 3.55998 0
M  V30 2867 C 278.59 0.639125 4.52509 0
M  V30 2868 C 279.587 1.51311 4.97394 0
M  V30 2869 C 277.272 0.821632 4.95535 0
M  V30 2870 C 279.266 2.55425 5.83984 0
M  V30 2871 C 276.953 1.86603 5.81913 0
M  V30 2872 C 277.951 2.73072 6.26036 0
M  V30 2873 O 277.639 3.75718 7.10698 0
M  V30 2874 H 277.371 -0.00857665 0.675946 0
M  V30 2875 H 279.925 0.623288 1.95715 0
M  V30 2876 H 278.155 -1.29575 3.64345 0
M  V30 2877 H 279.844 -0.995116 3.93513 0
M  V30 2878 H 280.61 1.38367 4.64844 0
M  V30 2879 H 276.489 0.158149 4.60729 0
M  V30 2880 H 280.033 3.22949 6.18344 0
M  V30 2881 H 275.93 1.99564 6.13876 0
M  V30 2882 H 276.698 3.72374 7.2889 0
M  V30 2883 N 279.361 -1.56624 0.175154 0
M  V30 2884 C 280.291 -2.21155 -0.749195 0
M  V30 2885 C 281.272 -1.16836 -1.23626 0
M  V30 2886 O 282.457 -1.45277 -1.28873 0
M  V30 2887 C 279.587 -2.8553 -1.97711 0
M  V30 2888 C 278.541 -3.95921 -1.62575 0
M  V30 2889 C 277.867 -4.47365 -2.92864 0
M  V30 2890 C 279.167 -5.15323 -0.850838 0
M  V30 2891 H 280.861 -2.98653 -0.211295 0
M  V30 2892 H 278.407 -1.43651 -0.100188 0
M  V30 2893 H 280.36 -3.2935 -2.62881 0
M  V30 2894 H 279.084 -2.05406 -2.53921 0
M  V30 2895 H 277.743 -3.52762 -0.997719 0
M  V30 2896 H 277.391 -3.64027 -3.47122 0
M  V30 2897 H 277.091 -5.21839 -2.70106 0
M  V30 2898 H 278.615 -4.93873 -3.59056 0
M  V30 2899 H 280.029 -5.55812 -1.40521 0
M  V30 2900 H 278.426 -5.95739 -0.722154 0
M  V30 2901 H 279.496 -4.84661 0.152082 0
M  V30 2902 N 280.839 0.0985539 -1.57292 0
M  V30 2903 C 282.116 0.834155 -1.76921 0
M  V30 2904 C 282.496 1.97101 -0.755928 0
M  V30 2905 O 281.844 2.27474 0.216245 0
M  V30 2906 C 282.054 1.33194 -3.22584 0
M  V30 2907 C 283.402 1.77611 -3.85668 0
M  V30 2908 O 284.426 1.42825 -3.26312 0
M  V30 2909 O 283.285 2.4192 -4.90038 0
M  V30 2910 H 280.379 0.397628 -0.725135 0
M  V30 2911 H 282.925 0.0807044 -1.69508 0
M  V30 2912 H 281.697 0.517248 -3.87866 0
M  V30 2913 H 281.32 2.1475 -3.34616 0
M  V30 2914 N 282.317 1.53212 0.369288 0
M  V30 2915 C 283.264 1.79388 1.45219 0
M  V30 2916 C 284.234 0.638059 1.53356 0
M  V30 2917 O 285.419 0.879852 1.69302 0
M  V30 2918 C 282.559 1.98623 2.82211 0
M  V30 2919 C 281.672 3.26337 2.8307 0
M  V30 2920 C 280.807 3.35779 4.11614 0
M  V30 2921 C 279.846 4.5754 4.06601 0
M  V30 2922 N 278.983 4.64155 5.26787 0
M  V30 2923 H 283.823 2.71794 1.22198 0
M  V30 2924 H 281.36 1.34642 0.592444 0
M  V30 2925 H 283.318 2.07761 3.61789 0
M  V30 2926 H 281.948 1.09558 3.03639 0
M  V30 2927 H 281 3.26171 1.95747 0
M  V30 2928 H 282.312 4.15988 2.75237 0
M  V30 2929 H 281.466 3.44208 4.99606 0
M  V30 2930 H 280.205 2.44137 4.22195 0
M  V30 2931 H 279.21 4.49215 3.16996 0
M  V30 2932 H 280.435 5.50519 3.97625 0
M  V30 2933 H 278.381 3.75413 5.3796 0
M  V30 2934 H 278.298 5.47706 5.21109 0
M  V30 2935 H 279.566 4.76863 6.16621 0
M  V30 2936 N 283.795 -0.628877 1.44509 0
M  V30 2937 C 285.041 -1.39045 1.47629 0
M  V30 2938 C 285.374 -1.93892 0.109343 0
M  V30 2939 O 284.649 -1.7379 -0.87334 0
M  V30 2940 C 284.932 -2.55408 2.53848 0
M  V30 2941 C 284.785 -2.05896 3.99909 0
M  V30 2942 C 286.104 -3.5759 2.56549 0
M  V30 2943 H 283.223 -0.504232 0.537512 0
M  V30 2944 H 285.865 -0.710854 1.76201 0
M  V30 2945 H 284.015 -3.13384 2.29615 0
M  V30 2946 H 285.687 -1.52734 4.35282 0
M  V30 2947 H 283.93 -1.37061 4.11578 0
M  V30 2948 H 284.601 -2.89681 4.69882 0
M  V30 2949 H 287.077 -3.09419 2.78207 0
M  V30 2950 H 285.953 -4.36527 3.32769 0
M  V30 2951 H 286.214 -4.11808 1.60832 0
M  V30 2952 N 285.273 -1.31445 -0.869486 0
M  V30 2953 C 286.205 -1.14955 -1.98287 0
M  V30 2954 C 287.218 -0.0885037 -1.62559 0
M  V30 2955 O 288.407 -0.336044 -1.75308 0
M  V30 2956 C 285.507 -0.734255 -3.3085 0
M  V30 2957 C 284.68 -1.88042 -3.94917 0
M  V30 2958 C 283.739 -1.4511 -5.05796 0
M  V30 2959 O 282.765 -2.16082 -5.2659 0
M  V30 2960 N 283.967 -0.338763 -5.79511 0
M  V30 2961 H 286.732 -2.10856 -2.12979 0
M  V30 2962 H 284.293 -1.23786 -1.04349 0
M  V30 2963 H 286.285 -0.42975 -4.02412 0
M  V30 2964 H 284.855 0.133158 -3.12316 0
M  V30 2965 H 284.075 -2.35222 -3.1633 0
M  V30 2966 H 285.363 -2.6481 -4.34457 0
M  V30 2967 H 284.761 0.252274 -5.65137 0
M  V30 2968 H 283.318 -0.0937925 -6.51733 0
M  V30 2969 N 286.751 1.08385 -1.14413 0
M  V30 2970 C 287.997 1.81044 -0.913834 0
M  V30 2971 C 288.33 1.86004 0.558209 0
M  V30 2972 O 287.605 1.33606 1.4135 0
M  V30 2973 C 287.888 3.26648 -1.51569 0
M  V30 2974 C 287.741 3.29895 -3.0576 0
M  V30 2975 C 289.06 4.23629 -1.19273 0
M  V30 2976 H 286.179 0.65727 -0.333414 0
M  V30 2977 H 288.821 1.26896 -1.41412 0
M  V30 2978 H 286.971 3.72889 -1.09023 0
M  V30 2979 H 288.643 2.91977 -3.57137 0
M  V30 2980 H 286.886 2.69163 -3.40197 0
M  V30 2981 H 287.557 4.32516 -3.42977 0
M  V30 2982 H 290.033 3.85727 -1.56057 0
M  V30 2983 H 288.909 5.23822 -1.64017 0
M  V30 2984 H 289.17 4.41968 -0.108068 0
M  V30 2985 N 288.23 0.939286 1.26551 0
M  V30 2986 C 289.16 0.465044 2.28822 0
M  V30 2987 C 290.141 -0.480692 1.63167 0
M  V30 2988 O 291.326 -0.382955 1.90387 0
M  V30 2989 C 288.456 -0.27234 3.46231 0
M  V30 2990 C 287.41 0.58666 4.2396 0
M  V30 2991 C 286.736 -0.280573 5.33963 0
M  V30 2992 C 288.036 1.85704 4.88171 0
M  V30 2993 H 289.73 1.31979 2.68741 0
M  V30 2994 H 287.276 0.636061 1.29191 0
M  V30 2995 H 289.229 -0.615133 4.16886 0
M  V30 2996 H 287.953 -1.16121 3.0526 0
M  V30 2997 H 286.612 0.91232 3.55067 0
M  V30 2998 H 286.26 -1.16874 4.89234 0
M  V30 2999 H 285.96 0.29076 5.8688 0
M  V30 3000 H 287.484 -0.618678 6.07458 0
M  V30 3001 H 288.898 1.58161 5.51052 0
M  V30 3002 H 287.295 2.37279 5.51197 0
M  V30 3003 H 288.365 2.56957 4.11219 0
M  V30 3004 N 289.708 -1.40897 0.706093 0
M  V30 3005 C 290.671 -2.29131 0.0562841 0
M  V30 3006 C 291.671 -1.44901 -0.697166 0
M  V30 3007 O 292.861 -1.65926 -0.530484 0
M  V30 3008 C 289.993 -3.27957 -0.93043 0
M  V30 3009 H 291.186 -2.88091 0.833284 0
M  V30 3010 H 288.739 -1.4906 0.470192 0
M  V30 3011 H 289.474 -2.73997 -1.73482 0
M  V30 3012 H 289.259 -3.90124 -0.393166 0
M  V30 3013 H 290.749 -3.94049 -1.38256 0
M  V30 3014 N 291.186 -0.45159 -1.50991 0
M  V30 3015 C 292.597 0.00818571 -1.86698 0
M  V30 3016 C 292.948 1.40661 -1.3678 0
M  V30 3017 O 292.073 2.0391 -0.724546 0
M  V30 3018 C 292.668 0.0216303 -3.38793 0
M  V30 3019 C 291.227 0.425865 -3.73983 0
M  V30 3020 C 290.374 -0.372163 -2.74791 0
M  V30 3021 H 293.325 -0.666785 -1.44013 0
M  V30 3022 H 293.346 0.828078 -3.7138 0
M  V30 3023 H 292.858 -0.996288 -3.75094 0
M  V30 3024 H 290.959 1.44886 -3.43277 0
M  V30 3025 H 291.072 0.140761 -4.78893 0
M  V30 3026 H 289.436 0.171498 -2.54122 0
M  V30 3027 H 290.219 -1.38922 -3.13935 0
M  V30 3028 N 292.664 1.56529 -0.183458 0
M  V30 3029 C 293.611 2.18546 0.742055 0
M  V30 3030 C 294.581 1.12912 1.2182 0
M  V30 3031 O 295.766 1.41115 1.28418 0
M  V30 3032 C 292.906 2.83977 1.96089 0
M  V30 3033 C 292.019 4.04105 1.52719 0
M  V30 3034 C 291.154 4.57427 2.70063 0
M  V30 3035 C 290.193 5.69938 2.23243 0
M  V30 3036 N 289.33 6.17717 3.33722 0
M  V30 3037 H 294.17 2.97284 0.206432 0
M  V30 3038 H 291.707 1.46823 0.0901571 0
M  V30 3039 H 293.665 3.20077 2.67594 0
M  V30 3040 H 292.295 2.07822 2.47002 0
M  V30 3041 H 291.347 3.73745 0.708436 0
M  V30 3042 H 292.659 4.85513 1.1436 0
M  V30 3043 H 291.813 4.95772 3.49708 0
M  V30 3044 H 290.552 3.75101 3.11689 0
M  V30 3045 H 289.557 5.31133 1.42048 0
M  V30 3046 H 290.782 6.54073 1.82661 0
M  V30 3047 H 288.728 5.38317 3.74902 0
M  V30 3048 H 288.645 6.94146 2.99495 0
M  V30 3049 H 289.913 6.60713 4.13616 0
M  V30 3050 N 294.142 -0.090211 1.57342 0
M  V30 3051 C 295.052 -1.12735 2.05738 0
M  V30 3052 C 296.068 -1.43557 0.983231 0
M  V30 3053 O 297.244 -1.54101 1.29672 0
M  V30 3054 C 294.309 -2.42659 2.47624 0
M  V30 3055 C 293.37 -2.18975 3.69254 0
M  V30 3056 C 292.603 -3.42704 4.09133 0
M  V30 3057 O 292.826 -4.51127 3.49057 0
M  V30 3058 O 291.76 -3.32003 5.02053 0
M  V30 3059 H 295.586 -0.746279 2.94388 0
M  V30 3060 H 293.171 -0.303064 1.46294 0
M  V30 3061 H 295.053 -3.19155 2.7517 0
M  V30 3062 H 293.728 -2.80182 1.62109 0
M  V30 3063 H 292.635 -1.40244 3.46818 0
M  V30 3064 H 293.968 -1.86342 4.55563 0
M  V30 3065 N 295.62 -1.53406 -0.361157 0
M  V30 3066 C 296.845 -1.74024 -1.12829 0
M  V30 3067 C 297.27 -0.470069 -1.82132 0
M  V30 3068 O 296.628 0.57619 -1.719 0
M  V30 3069 C 296.676 -2.90903 -2.13091 0
M  V30 3070 O 295.78 -2.59821 -3.20261 0
M  V30 3071 H 295.121 -0.577804 -0.327168 0
M  V30 3072 H 297.651 -2.00307 -0.41693 0
M  V30 3073 H 297.661 -3.17194 -2.56616 0
M  V30 3074 H 296.336 -3.83034 -1.62042 0
M  V30 3075 H 294.913 -2.44362 -2.81677 0
M  V30 3076 N 297.098 0.621204 -1.44841 0
M  V30 3077 C 298.346 1.37783 -1.47852 0
M  V30 3078 C 298.667 1.94653 -0.116224 0
M  V30 3079 O 297.937 1.76367 0.852737 0
M  V30 3080 H 296.517 0.511453 -0.544449 0
M  V30 3081 H 299.179 0.730446 -1.80694 0
M  V30 3082 H 298.275 2.20414 -2.20961 0
M  V30 3083 N 298.576 1.31904 0.862503 0
M  V30 3084 C 299.987 1.19803 1.43193 0
M  V30 3085 C 300.338 -0.192567 1.95253 0
M  V30 3086 O 299.463 -1.09081 1.86896 0
M  V30 3087 C 300.058 2.16883 2.60283 0
M  V30 3088 C 298.617 2.08692 3.13248 0
M  V30 3089 C 297.764 2.05691 1.85975 0
M  V30 3090 H 300.715 1.43846 0.670365 0
M  V30 3091 H 300.736 1.76278 3.37204 0
M  V30 3092 H 300.248 3.18083 2.22363 0
M  V30 3093 H 298.349 1.10713 3.55771 0
M  V30 3094 H 298.462 2.9815 3.75025 0
M  V30 3095 H 296.826 1.50814 2.05249 0
M  V30 3096 H 297.609 3.08659 1.50282 0
M  V30 3097 N 300.054 -1.07777 1.14986 0
M  V30 3098 C 301.001 -2.14867 0.842672 0
M  V30 3099 C 301.971 -1.6486 -0.202552 0
M  V30 3100 O 303.156 -1.90668 -0.0710568 0
M  V30 3101 C 300.296 -3.43486 0.333363 0
M  V30 3102 C 299.409 -4.07306 1.43965 0
M  V30 3103 C 298.544 -5.23744 0.886914 0
M  V30 3104 C 297.583 -5.79517 1.97043 0
M  V30 3105 N 296.72 -6.87291 1.4344 0
M  V30 3106 H 301.56 -2.40485 1.75986 0
M  V30 3107 H 299.097 -1.1801 0.878179 0
M  V30 3108 H 301.055 -4.17195 0.0198163 0
M  V30 3109 H 299.685 -3.18133 -0.546916 0
M  V30 3110 H 298.737 -3.31293 1.86946 0
M  V30 3111 H 300.049 -4.44771 2.25788 0
M  V30 3112 H 299.203 -6.04419 0.525651 0
M  V30 3113 H 297.942 -4.87685 0.0377957 0
M  V30 3114 H 296.947 -4.97491 2.34057 0
M  V30 3115 H 298.172 -6.17632 2.82325 0
M  V30 3116 H 296.118 -6.5318 0.607567 0
M  V30 3117 H 296.035 -7.23617 2.18895 0
M  V30 3118 H 297.303 -7.71682 1.10124 0
M  V30 3119 N 301.532 -0.945985 -1.26051 0
M  V30 3120 C 302.778 -0.597002 -1.93814 0
M  V30 3121 C 303.111 0.862484 -1.73997 0
M  V30 3122 O 302.386 1.61769 -1.07986 0
M  V30 3123 C 302.669 -0.945937 -3.47454 0
M  V30 3124 C 302.522 -2.46052 -3.76535 0
M  V30 3125 C 303.841 -0.464785 -4.37639 0
M  V30 3126 H 300.96 -0.218366 -0.703907 0
M  V30 3127 H 303.602 -1.18107 -1.48831 0
M  V30 3128 H 301.752 -0.448902 -3.85898 0
M  V30 3129 H 303.424 -3.03065 -3.47778 0
M  V30 3130 H 301.667 -2.90194 -3.22444 0
M  V30 3131 H 302.338 -2.65517 -4.83947 0
M  V30 3132 H 304.814 -0.891016 -4.06448 0
M  V30 3133 H 303.69 -0.737712 -5.4392 0
M  V30 3134 H 303.951 0.635274 -4.37512 0
M  V30 3135 N 303.011 1.40521 -0.713556 0
M  V30 3136 C 304.26 2.00155 -0.249192 0
M  V30 3137 C 304.573 1.57224 1.16362 0
M  V30 3138 O 305.779 2.09542 1.72639 0
M  V30 3139 C 304.235 3.5773 -0.3946 0
M  V30 3140 C 303.843 4.09635 -1.81392 0
M  V30 3141 C 305.587 4.24499 0.00907364 0
M  V30 3142 C 303.494 5.59707 -1.91003 0
M  V30 3143 H 302.424 0.74868 -0.0894114 0
M  V30 3144 H 305.075 1.60784 -0.884352 0
M  V30 3145 H 303.457 3.94792 0.30911 0
M  V30 3146 H 304.631 3.83955 -2.54785 0
M  V30 3147 H 302.946 3.55456 -2.16888 0
M  V30 3148 H 305.543 5.34683 -0.0420404 0
M  V30 3149 H 305.886 4.02824 1.05065 0
M  V30 3150 H 306.419 3.92536 -0.645007 0
M  V30 3151 H 303.158 5.86234 -2.93275 0
M  V30 3152 H 302.678 5.87258 -1.22019 0
M  V30 3153 H 304.357 6.24776 -1.6812 0
M  V30 3154 N 304.489 0.459591 1.5075 0
M  V30 3155 C 305.719 -0.0972338 2.06371 0
M  V30 3156 C 306.127 -1.35074 1.32483 0
M  V30 3157 O 305.47 -1.79637 0.384226 0
M  V30 3158 C 305.532 -0.462759 3.56509 0
M  V30 3159 C 305.196 0.687084 4.51805 0
M  V30 3160 C 306.193 1.56578 4.95761 0
M  V30 3161 C 303.878 0.874144 4.94635 0
M  V30 3162 C 305.872 2.61604 5.81242 0
M  V30 3163 C 303.559 1.92765 5.79901 0
M  V30 3164 C 304.557 2.79697 6.23104 0
M  V30 3165 O 304.245 3.83235 7.06673 0
M  V30 3166 H 303.977 -0.00140687 0.675999 0
M  V30 3167 H 306.531 0.644011 1.95043 0
M  V30 3168 H 304.761 -1.25703 3.65699 0
M  V30 3169 H 306.45 -0.953323 3.94546 0
M  V30 3170 H 307.216 1.4329 4.6335 0
M  V30 3171 H 303.095 0.207006 4.60535 0
M  V30 3172 H 306.639 3.29489 6.14884 0
M  V30 3173 H 302.536 2.06064 6.11725 0
M  V30 3174 H 303.304 3.80084 7.24899 0
M  V30 3175 N 305.967 -1.56429 0.191757 0
M  V30 3176 C 306.877 -2.22541 -0.742481 0
M  V30 3177 C 307.893 -1.22342 -1.23727 0
M  V30 3178 O 309.069 -1.55069 -1.28513 0
M  V30 3179 C 306.134 -2.8692 -1.94623 0
M  V30 3180 C 305.195 -4.02378 -1.49633 0
M  V30 3181 C 304.428 -4.63678 -2.6427 0
M  V30 3182 O 304.651 -4.23895 -3.81666 0
M  V30 3183 O 303.585 -5.53202 -2.37174 0
M  V30 3184 H 307.411 -3.02977 -0.209462 0
M  V30 3185 H 304.996 -1.49353 -0.0373832 0
M  V30 3186 H 306.878 -3.27663 -2.64982 0
M  V30 3187 H 305.553 -2.09466 -2.46791 0
M  V30 3188 H 304.46 -3.66265 -0.761636 0
M  V30 3189 H 305.793 -4.81487 -1.02134 0
M  V30 3190 N 307.445 0.0818655 -1.57387 0
M  V30 3191 C 308.673 0.796108 -1.9097 0
M  V30 3192 C 309.088 1.71626 -0.786757 0
M  V30 3193 O 308.445 1.80908 0.240513 0
M  V30 3194 C 308.496 1.59829 -3.24248 0
M  V30 3195 O 308.217 0.715131 -4.32224 0
M  V30 3196 C 309.718 2.41442 -3.7178 0
M  V30 3197 H 306.938 0.22691 -0.631469 0
M  V30 3198 H 309.482 0.0551439 -2.04426 0
M  V30 3199 H 307.637 2.29163 -3.12351 0
M  V30 3200 H 308.051 1.27205 -5.08841 0
M  V30 3201 H 309.525 2.932 -4.67694 0
M  V30 3202 H 310.002 3.2051 -3.00283 0
M  V30 3203 H 310.608 1.77283 -3.86589 0
M  V30 3204 N 308.923 1.53595 0.353017 0
M  V30 3205 C 310.148 1.7462 1.11904 0
M  V30 3206 C 310.573 0.479721 1.8188 0
M  V30 3207 O 309.931 -0.567066 1.72204 0
M  V30 3208 C 309.979 2.92029 2.11545 0
M  V30 3209 O 309.083 2.61516 3.18878 0
M  V30 3210 H 308.424 0.579531 0.324099 0
M  V30 3211 H 310.954 2.00525 0.406301 0
M  V30 3212 H 310.964 3.18551 2.5493 0
M  V30 3213 H 309.639 3.83888 1.60008 0
M  V30 3214 H 308.216 2.45852 2.80377 0
M  V30 3215 N 310.401 -0.613514 1.45168 0
M  V30 3216 C 311.648 -1.37268 1.48875 0
M  V30 3217 C 311.976 -1.94077 0.128161 0
M  V30 3218 O 311.231 -1.75178 -0.872416 0
M  V30 3219 C 311.53 -2.54347 2.51083 0
M  V30 3220 C 311.196 -2.1572 3.95949 0
M  V30 3221 C 309.858 -2.04899 4.35396 0
M  V30 3222 C 312.21 -1.85485 4.87078 0
M  V30 3223 C 309.538 -1.62057 5.63875 0
M  V30 3224 C 311.89 -1.4413 6.15962 0
M  V30 3225 C 310.554 -1.31863 6.54346 0
M  V30 3226 H 309.824 -0.502299 0.544773 0
M  V30 3227 H 312.471 -0.694021 1.78481 0
M  V30 3228 H 310.776 -3.27524 2.15024 0
M  V30 3229 H 312.473 -3.12577 2.51191 0
M  V30 3230 H 309.063 -2.25066 3.64751 0
M  V30 3231 H 313.247 -1.92745 4.57343 0
M  V30 3232 H 308.503 -1.51177 5.92415 0
M  V30 3233 H 312.677 -1.19778 6.86022 0
M  V30 3234 H 310.304 -0.984392 7.538 0
M  V30 3235 N 311.879 -1.3236 -0.855495 0
M  V30 3236 C 312.789 -1.23221 -1.99634 0
M  V30 3237 C 313.805 -0.145983 -1.73387 0
M  V30 3238 O 314.981 -0.366502 -1.98037 0
M  V30 3239 C 312.046 -0.954782 -3.33294 0
M  V30 3240 C 311.107 -2.12937 -3.72769 0
M  V30 3241 C 310.34 -1.86508 -5.00051 0
M  V30 3242 O 310.563 -0.807231 -5.64659 0
M  V30 3243 O 309.497 -2.72591 -5.36636 0
M  V30 3244 H 313.323 -2.19126 -2.1028 0
M  V30 3245 H 310.908 -1.12241 -0.986018 0
M  V30 3246 H 312.79 -0.816519 -4.13414 0
M  V30 3247 H 311.465 -0.0258854 -3.2369 0
M  V30 3248 H 310.372 -2.3231 -2.93228 0
M  V30 3249 H 311.705 -3.04102 -3.87018 0
M  V30 3250 N 313.357 1.07166 -1.15556 0
M  V30 3251 C 314.305 2.16517 -0.8499 0
M  V30 3252 C 315.299 1.68468 0.177454 0
M  V30 3253 O 316.505 1.79971 0.0323026 0
M  V30 3254 H 312.88 0.706652 -0.25719 0
M  V30 3255 H 314.851 2.39514 -1.77976 0
M  V30 3256 C 313.6 3.45855 -0.357682 0
M  V30 3257 H 312.923 3.83214 -1.13961 0
M  V30 3258 H 314.363 4.23607 -0.182489 0
M  V30 3259 C 312.822 3.24062 0.921152 0
M  V30 3260 O 313.352 3.48813 1.9923 0
M  V30 3261 N 311.558 2.77539 0.86141 0
M  V30 3262 H 311.105 2.57598 -0.0104408 0
M  V30 3263 H 311.063 2.63337 1.71758 0
M  V30 3264 N 314.835 0.952656 1.25548 0
M  V30 3265 C 316.083 0.605176 1.92826 0
M  V30 3266 C 316.404 -0.860261 1.74999 0
M  V30 3267 O 315.674 -1.6125 1.11244 0
M  V30 3268 H 314.254 0.220832 0.713612 0
M  V30 3269 H 316.916 1.21047 1.52754 0
M  V30 3270 H 316.012 0.832798 3.00784 0
M  V30 3271 N 316.313 -1.40141 0.720998 0
M  V30 3272 C 317.559 -2.01084 0.263231 0
M  V30 3273 C 317.892 -1.57052 -1.14229 0
M  V30 3274 O 317.167 -0.793027 -1.77599 0
M  V30 3275 C 317.45 -3.58401 0.349344 0
M  V30 3276 C 317.303 -4.12491 1.79363 0
M  V30 3277 C 318.622 -4.39231 -0.276351 0
M  V30 3278 H 315.741 -0.730572 0.0971228 0
M  V30 3279 H 318.383 -1.66543 0.914518 0
M  V30 3280 H 316.533 -3.87958 -0.205165 0
M  V30 3281 H 318.205 -3.93711 2.40394 0
M  V30 3282 H 316.448 -3.66576 2.31958 0
M  V30 3283 H 317.119 -5.21646 1.80524 0
M  V30 3284 H 319.595 -4.15637 0.196184 0
M  V30 3285 H 318.471 -5.48586 -0.185681 0
M  V30 3286 H 318.732 -4.20643 -1.36059 0
M  V30 3287 N 317.792 -0.46758 -1.50504 0
M  V30 3288 C 319.04 0.0884469 -2.01906 0
M  V30 3289 C 319.361 1.40532 -1.35188 0
M  V30 3290 O 318.631 1.89515 -0.496079 0
M  V30 3291 H 317.211 0.0356765 -0.746148 0
M  V30 3292 H 319.873 -0.6172 -1.84869 0
M  V30 3293 H 318.969 0.2425 -3.11156 0
M  V30 3294 N 319.27 1.56325 -0.20005 0
M  V30 3295 C 320.547 1.89484 0.48529 0
M  V30 3296 C 320.927 1.1143 1.79294 0
M  V30 3297 O 320.275 0.216919 2.27468 0
M  V30 3298 C 320.485 3.41923 0.699243 0
M  V30 3299 C 321.833 4.12256 1.01638 0
M  V30 3300 O 322.857 3.47402 0.786792 0
M  V30 3301 O 321.716 5.26887 1.45095 0
M  V30 3302 H 318.81 0.787144 0.253639 0
M  V30 3303 H 321.356 1.67985 -0.240633 0
M  V30 3304 H 320.128 3.90658 -0.224008 0
M  V30 3305 H 319.751 3.69131 1.47744 0
M  V30 3306 N 320.748 -0.0735177 1.57428 0
M  V30 3307 C 321.994 -0.768909 1.88307 0
M  V30 3308 C 322.349 -1.75273 0.793535 0
M  V30 3309 O 321.642 -1.90527 -0.202466 0
M  V30 3310 C 321.836 -1.51799 3.23561 0
M  V30 3311 C 321.665 -0.608217 4.45568 0
M  V30 3312 C 320.435 -0.245808 5.04702 0
M  V30 3313 C 322.633 0.0942904 5.14214 0
M  V30 3314 N 320.615 0.66987 6.10234 0
M  V30 3315 C 321.986 0.867222 6.13905 0
M  V30 3316 C 324.041 0.165943 4.97623 0
M  V30 3317 C 322.744 1.70515 6.98797 0
M  V30 3318 C 324.77 0.990837 5.83041 0
M  V30 3319 C 324.132 1.75182 6.82269 0
M  V30 3320 H 320.231 -0.25685 0.738615 0
M  V30 3321 H 322.815 -0.030499 1.94676 0
M  V30 3322 H 320.986 -2.22713 3.18203 0
M  V30 3323 H 322.718 -2.16226 3.42094 0
M  V30 3324 H 319.473 -0.598284 4.69806 0
M  V30 3325 H 319.897 1.1209 6.67656 0
M  V30 3326 H 324.539 -0.408064 4.20826 0
M  V30 3327 H 322.257 2.29013 7.7497 0
M  V30 3328 H 325.843 1.04923 5.72261 0
M  V30 3329 H 324.723 2.37983 7.47217 0
M  V30 3330 N 322.226 -1.5378 -0.344866 0
M  V30 3331 C 323.158 -1.77988 -1.44406 0
M  V30 3332 C 324.171 -0.661138 -1.48771 0
M  V30 3333 O 325.36 -0.937842 -1.51877 0
M  V30 3334 C 322.46 -1.86345 -2.8307 0
M  V30 3335 C 321.633 -3.16256 -3.0216 0
M  V30 3336 C 320.692 -3.15588 -4.21059 0
M  V30 3337 O 319.718 -3.89314 -4.15239 0
M  V30 3338 N 320.92 -2.37864 -5.29529 0
M  V30 3339 H 323.685 -2.72839 -1.24012 0
M  V30 3340 H 321.246 -1.52814 -0.534737 0
M  V30 3341 H 323.238 -1.83351 -3.60783 0
M  V30 3342 H 321.808 -0.986858 -2.96614 0
M  V30 3343 H 321.028 -3.32385 -2.11929 0
M  V30 3344 H 322.316 -4.0207 -3.11797 0
M  V30 3345 H 321.714 -1.77514 -5.37127 0
M  V30 3346 H 320.271 -2.40668 -6.05741 0
M  V30 3347 N 323.704 0.605807 -1.45491 0
M  V30 3348 C 325.115 1.18777 -1.44045 0
M  V30 3349 C 325.466 1.95471 -0.169001 0
M  V30 3350 O 324.591 2.0374 0.729324 0
M  V30 3351 C 325.186 2.16064 -2.60963 0
M  V30 3352 C 323.745 2.69633 -2.62631 0
M  V30 3353 C 322.892 1.45072 -2.36325 0
M  V30 3354 H 325.843 0.395017 -1.53705 0
M  V30 3355 H 325.864 2.9913 -2.35163 0
M  V30 3356 H 325.376 1.60217 -3.53486 0
M  V30 3357 H 323.477 3.29414 -1.74119 0
M  V30 3358 H 323.59 3.13944 -3.61906 0
M  V30 3359 H 321.954 1.74089 -1.85917 0
M  V30 3360 H 322.737 0.910899 -3.30995 0
M  V30 3361 N 325.182 1.32811 0.848464 0
M  V30 3362 C 326.598 1.11937 1.13764 0
M  V30 3363 C 326.798 -0.0960789 2.01271 0
M  V30 3364 O 325.854 -0.779165 2.40178 0
M  V30 3365 C 327.167 2.402 1.809 0
M  V30 3366 C 328.715 2.46016 1.93508 0
M  V30 3367 C 329.19 3.74215 2.64059 0
M  V30 3368 N 330.681 3.75232 2.71579 0
M  V30 3369 C 331.416 4.71134 3.26833 0
M  V30 3370 N 330.912 5.77406 3.8285 0
M  V30 3371 N 332.705 4.58623 3.24995 0
M  V30 3372 H 324.856 2.1073 0.265855 0
M  V30 3373 H 327.119 0.930671 0.180431 0
M  V30 3374 H 326.825 3.29093 1.24058 0
M  V30 3375 H 326.699 2.51628 2.81004 0
M  V30 3376 H 329.086 1.57577 2.49506 0
M  V30 3377 H 329.167 2.38536 0.923811 0
M  V30 3378 H 328.811 4.63031 2.08722 0
M  V30 3379 H 328.741 3.78968 3.65637 0
M  V30 3380 H 331.232 2.98423 2.31845 0
M  V30 3381 H 331.545 6.46632 4.23187 0
M  V30 3382 H 329.89 5.81152 3.81165 0
M  V30 3383 H 333.081 3.74762 2.80484 0
M  V30 3384 H 333.254 5.33535 3.67756 0
M  V30 3385 N 326.66 -1.06551 1.16123 0
M  V30 3386 C 327.908 -1.78947 0.939267 0
M  V30 3387 C 328.229 -1.87532 -0.534476 0
M  V30 3388 O 327.499 -1.38211 -1.38833 0
M  V30 3389 H 326.079 -0.662807 0.344523 0
M  V30 3390 H 328.741 -1.28725 1.46342 0
M  V30 3391 H 327.837 -2.81117 1.35572 0
M  V30 3392 N 328.138 -0.959301 -1.25041 0
M  V30 3393 C 329.415 -0.533805 -1.88175 0
M  V30 3394 C 329.795 0.988994 -1.865 0
M  V30 3395 O 329.143 1.85677 -1.33177 0
M  V30 3396 C 329.353 -1.11575 -3.30684 0
M  V30 3397 C 330.701 -1.19548 -4.07423 0
M  V30 3398 O 331.725 -1.06765 -3.39823 0
M  V30 3399 O 330.584 -1.39656 -5.28354 0
M  V30 3400 H 327.678 -0.176772 -0.807887 0
M  V30 3401 H 330.224 -1.05303 -1.33076 0
M  V30 3402 H 328.996 -2.15884 -3.26358 0
M  V30 3403 H 328.619 -0.580059 -3.93346 0
M  V30 3404 N 329.616 1.39756 -0.72842 0
M  V30 3405 C 330.862 2.00942 -0.273892 0
M  V30 3406 C 331.195 1.57656 1.13394 0
M  V30 3407 O 330.47 0.802434 1.77176 0
M  V30 3408 C 330.753 3.58211 -0.368346 0
M  V30 3409 C 330.606 4.11534 -1.81548 0
M  V30 3410 C 331.925 4.39372 0.253054 0
M  V30 3411 H 329.044 0.730047 -0.100996 0
M  V30 3412 H 331.686 1.66056 -0.923337 0
M  V30 3413 H 329.836 3.88061 0.184588 0
M  V30 3414 H 331.508 3.92431 -2.42478 0
M  V30 3415 H 329.751 3.65341 -2.33898 0
M  V30 3416 H 330.422 5.20682 -1.83288 0
M  V30 3417 H 332.898 4.15527 -0.218224 0
M  V30 3418 H 331.774 5.48677 0.156585 0
M  V30 3419 H 332.035 4.21358 1.33826 0
M  V30 3420 N 331.094 0.475555 1.50254 0
M  V30 3421 C 332.042 -0.330276 2.30243 0
M  V30 3422 C 333.036 -0.986306 1.37726 0
M  V30 3423 O 334.242 -0.9169 1.54897 0
M  V30 3424 H 330.617 -0.125353 0.741479 0
M  V30 3425 H 332.588 0.364702 2.96163 0
M  V30 3426 C 331.337 -1.39704 3.18399 0
M  V30 3427 H 330.66 -0.901621 3.89501 0
M  V30 3428 H 332.1 -1.93336 3.77355 0
M  V30 3429 C 330.559 -2.4014 2.36293 0
M  V30 3430 O 331.089 -3.45504 2.04914 0
M  V30 3431 N 329.295 -2.1197 1.98789 0
M  V30 3432 H 328.842 -1.2631 2.24507 0
M  V30 3433 H 328.8 -2.79403 1.44157 0
M  V30 3434 N 332.573 -1.56217 0.208337 0
M  V30 3435 C 333.822 -1.97124 -0.427204 0
M  V30 3436 C 334.135 -1.09859 -1.61835 0
M  V30 3437 O 335.341 -1.40606 -2.32255 0
M  V30 3438 C 333.797 -3.50633 -0.811442 0
M  V30 3439 C 333.405 -4.46582 0.35615 0
M  V30 3440 C 335.149 -4.00282 -1.41332 0
M  V30 3441 C 333.056 -5.91379 -0.0497852 0
M  V30 3442 H 331.986 -0.736086 -0.163381 0
M  V30 3443 H 334.637 -1.8099 0.302456 0
M  V30 3444 H 333.019 -3.62319 -1.59815 0
M  V30 3445 H 334.193 -4.46636 1.1337 0
M  V30 3446 H 332.508 -4.07202 0.870396 0
M  V30 3447 H 335.105 -5.0595 -1.72972 0
M  V30 3448 H 335.448 -3.45359 -2.32449 0
M  V30 3449 H 335.981 -3.91764 -0.690323 0
M  V30 3450 H 332.72 -6.50255 0.827529 0
M  V30 3451 H 332.24 -5.94549 -0.791926 0
M  V30 3452 H 333.919 -6.45209 -0.481042 0
M  V30 3453 N 334.051 0.0651679 -1.57465 0
M  V30 3454 C 334.961 1.09448 -2.07505 0
M  V30 3455 C 335.977 1.41974 -1.00595 0
M  V30 3456 O 337.153 1.52018 -1.32107 0
M  V30 3457 C 334.218 2.38689 -2.51453 0
M  V30 3458 C 333.279 2.13073 -3.72691 0
M  V30 3459 C 332.512 3.36152 -4.14533 0
M  V30 3460 O 332.735 4.45517 -3.56189 0
M  V30 3461 O 331.669 3.23974 -5.07272 0
M  V30 3462 H 335.495 0.69935 -2.95538 0
M  V30 3463 H 333.08 0.279752 -1.46757 0
M  V30 3464 H 334.962 3.14736 -2.80212 0
M  V30 3465 H 333.637 2.77568 -1.66546 0
M  V30 3466 H 332.544 1.34709 -3.49005 0
M  V30 3467 H 333.877 1.79071 -4.5847 0
M  V30 3468 N 335.529 1.53961 0.336706 0
M  V30 3469 C 336.492 1.81724 1.39675 0
M  V30 3470 C 337.492 0.688532 1.45313 0
M  V30 3471 O 338.682 0.956829 1.45569 0
M  V30 3472 C 335.814 1.96543 2.78538 0
M  V30 3473 H 337.007 2.76424 1.16318 0
M  V30 3474 H 334.56 1.45478 0.571474 0
M  V30 3475 H 335.295 1.0401 3.07168 0
M  V30 3476 H 335.08 2.78665 2.75841 0
M  V30 3477 H 336.57 2.19516 3.5525 0
M  V30 3478 N 337.007 -0.598083 1.45811 0
M  V30 3479 C 338.232 -1.3881 1.54099 0
M  V30 3480 C 338.657 -1.8726 0.177578 0
M  V30 3481 O 338.015 -1.6069 -0.839541 0
M  V30 3482 C 338.063 -2.56217 2.53743 0
M  V30 3483 O 337.167 -3.5716 2.06182 0
M  V30 3484 H 336.508 -0.414024 0.519115 0
M  V30 3485 H 339.038 -0.726971 1.91249 0
M  V30 3486 H 339.048 -3.03337 2.72856 0
M  V30 3487 H 337.723 -2.20303 3.5276 0
M  V30 3488 H 336.3 -3.16624 1.96987 0
M  V30 3489 N 338.485 -1.33259 -0.841409 0
M  V30 3490 C 339.71 -1.2775 -1.63385 0
M  V30 3491 C 340.135 0.149188 -1.87507 0
M  V30 3492 O 339.493 1.10498 -1.43736 0
M  V30 3493 C 339.541 -2.05571 -2.96265 0
M  V30 3494 O 338.645 -1.41257 -3.87453 0
M  V30 3495 H 337.986 -0.439627 -0.497618 0
M  V30 3496 H 340.516 -1.75782 -1.04699 0
M  V30 3497 H 340.526 -2.16241 -3.45982 0
M  V30 3498 H 339.201 -3.09309 -2.7803 0
M  V30 3499 H 337.778 -1.39217 -3.45938 0
M  V30 3500 N 339.963 1.05934 -1.16686 0
M  V30 3501 C 340.873 2.17014 -0.891183 0
M  V30 3502 C 341.889 1.73453 0.137907 0
M  V30 3503 O 343.065 2.01361 -0.039592 0
M  V30 3504 C 340.13 3.44384 -0.400099 0
M  V30 3505 C 339.191 4.02433 -1.49486 0
M  V30 3506 C 338.424 5.23723 -1.02711 0
M  V30 3507 O 338.647 5.7027 0.121716 0
M  V30 3508 O 337.581 5.7382 -1.81699 0
M  V30 3509 H 341.407 2.43113 -1.82015 0
M  V30 3510 H 338.992 1.15541 -0.947132 0
M  V30 3511 H 340.874 4.21189 -0.133392 0
M  V30 3512 H 339.549 3.19802 0.500817 0
M  V30 3513 H 338.456 3.27102 -1.81535 0
M  V30 3514 H 339.789 4.31317 -2.37121 0
M  V30 3515 N 341.441 0.965919 1.2453 0
M  V30 3516 C 342.687 0.62776 1.92839 0
M  V30 3517 C 343.02 -0.834694 1.75347 0
M  V30 3518 O 342.295 -1.60031 1.10546 0
M  V30 3519 C 342.578 1.00109 3.45905 0
M  V30 3520 C 342.431 2.52011 3.72573 0
M  V30 3521 C 343.75 0.53435 4.36844 0
M  V30 3522 H 340.869 0.229537 0.700344 0
M  V30 3523 H 343.511 1.2046 1.46933 0
M  V30 3524 H 341.661 0.510238 3.85135 0
M  V30 3525 H 343.333 3.08559 3.42912 0
M  V30 3526 H 341.576 2.95287 3.17786 0
M  V30 3527 H 342.247 2.73183 4.79661 0
M  V30 3528 H 344.723 0.955565 4.04979 0
M  V30 3529 H 343.599 0.824152 5.42678 0
M  V30 3530 H 343.86 -0.565589 4.38467 0
M  V30 3531 N 342.919 -1.39368 0.735821 0
M  V30 3532 C 343.882 -2.2896 0.104874 0
M  V30 3533 C 344.882 -1.46347 -0.666274 0
M  V30 3534 O 346.072 -1.67014 -0.49517 0
M  V30 3535 C 343.204 -3.29857 -0.860656 0
M  V30 3536 H 344.397 -2.86259 0.894205 0
M  V30 3537 H 341.95 -1.48029 0.501704 0
M  V30 3538 H 342.685 -2.77615 -1.67631 0
M  V30 3539 H 342.47 -3.9087 -0.310327 0
M  V30 3540 H 343.96 -3.96893 -1.29867 0
M  V30 3541 N 344.397 -0.483516 -1.5 0
M  V30 3542 C 345.347 0.32306 -2.257 0
M  V30 3543 C 346.331 0.950755 -1.29805 0
M  V30 3544 O 347.523 0.861247 -1.54634 0
M  V30 3545 C 344.652 1.39724 -3.13579 0
M  V30 3546 C 343.738 0.776663 -4.16928 0
M  V30 3547 N 344.129 -0.1104 -5.0568 0
M  V30 3548 C 342.427 1.03922 -4.33724 0
M  V30 3549 C 343.128 -0.46387 -5.79848 0
M  V30 3550 N 342.104 0.163987 -5.43353 0
M  V30 3551 H 345.906 -0.360086 -2.91686 0
M  V30 3552 H 343.42 -0.298456 -1.59634 0
M  V30 3553 H 345.417 1.98837 -3.66428 0
M  V30 3554 H 344.077 2.08225 -2.49143 0
M  V30 3555 H 345.088 -0.480069 -5.1567 0
M  V30 3556 H 341.765 1.71829 -3.80501 0
M  V30 3557 H 343.155 -1.18854 -6.61304 0
M  V30 3558 N 345.875 1.56104 -0.216619 0
M  V30 3559 C 347.1 2.0301 0.424462 0
M  V30 3560 C 347.525 1.0955 1.52907 0
M  V30 3561 O 346.883 0.0827914 1.81111 0
M  V30 3562 C 346.931 3.4819 0.937883 0
M  V30 3563 O 346.035 3.57865 2.04955 0
M  V30 3564 H 345.376 0.656925 0.0966755 0
M  V30 3565 H 347.906 2.01859 -0.33381 0
M  V30 3566 H 347.916 3.88413 1.24897 0
M  V30 3567 H 346.591 4.15699 0.129387 0
M  V30 3568 H 345.168 3.29527 1.74546 0
M  V30 3569 N 347.353 -0.0568162 1.57498 0
M  V30 3570 C 348.601 -0.751617 1.87604 0
M  V30 3571 C 348.922 -1.77351 0.81066 0
M  V30 3572 O 348.192 -1.95254 -0.159018 0
M  V30 3573 H 346.772 -0.280583 0.692302 0
M  V30 3574 H 349.434 -0.0293483 1.94878 0
M  V30 3575 H 348.53 -1.25852 2.856 0
M  V30 3576 N 348.832 -1.54138 -0.328536 0
M  V30 3577 C 349.779 -1.83176 -1.40411 0
M  V30 3578 C 350.749 -0.678494 -1.5161 0
M  V30 3579 O 351.934 -0.92443 -1.6691 0
M  V30 3580 C 349.074 -2.06035 -2.76846 0
M  V30 3581 C 348.187 -3.33727 -2.74318 0
M  V30 3582 C 347.322 -3.46574 -4.02567 0
M  V30 3583 C 346.361 -4.68159 -3.94327 0
M  V30 3584 N 345.498 -4.77959 -5.14296 0
M  V30 3585 H 350.338 -2.74938 -1.14948 0
M  V30 3586 H 347.875 -1.36166 -0.556538 0
M  V30 3587 H 349.833 -2.1728 -3.56153 0
M  V30 3588 H 348.463 -1.1757 -3.00628 0
M  V30 3589 H 347.515 -3.31246 -1.8703 0
M  V30 3590 H 348.827 -4.23139 -2.64111 0
M  V30 3591 H 347.981 -3.57333 -4.90304 0
M  V30 3592 H 346.72 -2.55245 -4.15574 0
M  V30 3593 H 345.725 -4.57461 -3.04974 0
M  V30 3594 H 346.95 -5.60868 -3.82889 0
M  V30 3595 H 344.896 -3.89544 -5.27818 0
M  V30 3596 H 344.813 -5.6133 -5.06404 0
M  V30 3597 H 346.081 -4.93044 -6.03761 0
M  V30 3598 N 350.31 0.590341 -1.46126 0
M  V30 3599 C 351.535 1.37991 -1.54833 0
M  V30 3600 C 351.96 1.87163 -0.187506 0
M  V30 3601 O 351.318 1.61133 0.831008 0
M  V30 3602 C 351.366 2.54867 -2.55098 0
M  V30 3603 O 350.47 3.56061 -2.08073 0
M  V30 3604 H 349.811 0.411265 -0.521303 0
M  V30 3605 H 352.341 0.716819 -1.91632 0
M  V30 3606 H 352.351 3.01886 -2.74461 0
M  V30 3607 H 351.026 2.18429 -3.53923 0
M  V30 3608 H 349.603 3.15574 -1.98664 0
M  V30 3609 N 351.788 1.33704 0.83433 0
M  V30 3610 C 353.013 1.28615 1.62705 0
M  V30 3611 C 353.438 -0.139242 1.87584 0
M  V30 3612 O 352.796 -1.09734 1.4432 0
M  V30 3613 C 352.844 2.07139 2.95171 0
M  V30 3614 O 351.948 1.4331 3.86699 0
M  V30 3615 H 351.289 0.44226 0.49528 0
M  V30 3616 H 353.819 1.76335 1.03766 0
M  V30 3617 H 353.829 2.18073 3.44831 0
M  V30 3618 H 352.504 3.10779 2.76386 0
M  V30 3619 H 351.081 1.4105 3.45195 0
M  V30 3620 N 353.266 -1.05314 1.17247 0
M  V30 3621 C 354.196 -2.1498 0.911362 0
M  V30 3622 C 355.177 -1.69471 -0.146169 0
M  V30 3623 O 356.362 -1.942 0.003812 0
M  V30 3624 C 353.492 -3.4472 0.422528 0
M  V30 3625 C 352.446 -4.03789 1.4191 0
M  V30 3626 C 351.772 -5.28858 0.788274 0
M  V30 3627 C 353.072 -4.41418 2.7919 0
M  V30 3628 H 354.766 -2.3708 1.82848 0
M  V30 3629 H 352.312 -1.13938 0.880569 0
M  V30 3630 H 354.265 -4.20787 0.227289 0
M  V30 3631 H 352.989 -3.22269 -0.530123 0
M  V30 3632 H 351.648 -3.2979 1.60106 0
M  V30 3633 H 351.296 -5.02709 -0.171173 0
M  V30 3634 H 350.996 -5.69338 1.45353 0
M  V30 3635 H 352.52 -6.07612 0.603282 0
M  V30 3636 H 353.934 -5.08524 2.64719 0
M  V30 3637 H 352.331 -4.92913 3.42282 0
M  V30 3638 H 353.401 -3.51819 3.33693 0
M  V30 3639 N 354.744 -0.972509 -1.24016 0
M  V30 3640 C 355.991 -0.637034 -1.92219 0
M  V30 3641 C 356.319 0.828418 -1.75976 0
M  V30 3642 O 355.574 1.61206 -1.10955 0
M  V30 3643 C 355.873 -0.963694 -3.44162 0
M  V30 3644 C 355.539 -2.41807 -3.80579 0
M  V30 3645 C 354.201 -2.81556 -3.9023 0
M  V30 3646 C 356.553 -3.36172 -3.98293 0
M  V30 3647 C 353.881 -4.14702 -4.15017 0
M  V30 3648 C 356.233 -4.68952 -4.24578 0
M  V30 3649 C 354.897 -5.08472 -4.32449 0
M  V30 3650 H 354.167 -0.233107 -0.703379 0
M  V30 3651 H 356.814 -1.2249 -1.47202 0
M  V30 3652 H 355.119 -0.29365 -3.90698 0
M  V30 3653 H 356.816 -0.682449 -3.9515 0
M  V30 3654 H 353.406 -2.09988 -3.73635 0
M  V30 3655 H 357.59 -3.06644 -3.90234 0
M  V30 3656 H 352.846 -4.4494 -4.19331 0
M  V30 3657 H 357.02 -5.42037 -4.37229 0
M  V30 3658 H 354.647 -6.11665 -4.51409 0
M  V30 3659 N 356.222 1.38976 -0.743202 0
M  V30 3660 C 357.471 1.99581 -0.291592 0
M  V30 3661 C 357.784 1.59656 1.13001 0
M  V30 3662 O 358.99 2.13157 1.68156 0
M  V30 3663 C 357.446 3.56813 -0.470391 0
M  V30 3664 C 357.054 4.05695 -1.90041 0
M  V30 3665 C 358.798 4.24423 -0.0809709 0
M  V30 3666 C 356.705 5.5553 -2.02832 0
M  V30 3667 H 355.635 0.746615 -0.105272 0
M  V30 3668 H 358.286 1.58872 -0.918258 0
M  V30 3669 H 356.668 3.95359 0.225299 0
M  V30 3670 H 357.842 3.78464 -2.62872 0
M  V30 3671 H 356.157 3.50775 -2.24379 0
M  V30 3672 H 358.754 5.34474 -0.155445 0
M  V30 3673 H 359.097 4.04962 0.96497 0
M  V30 3674 H 359.63 3.9108 -0.728124 0
M  V30 3675 H 356.369 5.79881 -3.05643 0
M  V30 3676 H 355.889 5.84537 -1.34448 0
M  V30 3677 H 357.568 6.21069 -1.81335 0
M  V30 3678 N 357.7 0.491464 1.49741 0
M  V30 3679 C 358.925 -0.0557177 2.07325 0
M  V30 3680 C 359.35 -1.30925 1.35056 0
M  V30 3681 O 358.708 -1.76733 0.404365 0
M  V30 3682 C 358.756 -0.302074 3.59333 0
M  V30 3683 O 357.86 -1.37868 3.88672 0
M  V30 3684 H 357.201 0.0219956 0.663636 0
M  V30 3685 H 359.731 0.688352 1.92673 0
M  V30 3686 H 359.741 -0.536464 4.04458 0
M  V30 3687 H 358.416 0.61383 4.11345 0
M  V30 3688 H 356.993 -1.12999 3.55367 0
M  V30 3689 N 359.178 -1.55987 0.224894 0
M  V30 3690 C 360.126 -2.21808 -0.700283 0
M  V30 3691 C 361.12 -1.19854 -1.19714 0
M  V30 3692 O 362.326 -1.37925 -1.15658 0
M  V30 3693 H 358.701 -0.711226 -0.244258 0
M  V30 3694 H 360.672 -2.98152 -0.121749 0
M  V30 3695 C 359.421 -2.91444 -1.8962 0
M  V30 3696 H 358.744 -3.69655 -1.52299 0
M  V30 3697 H 360.184 -3.40894 -2.52125 0
M  V30 3698 C 358.643 -1.94098 -2.75368 0
M  V30 3699 O 359.173 -1.46004 -3.74227 0
M  V30 3700 N 357.379 -1.61675 -2.41474 0
M  V30 3701 H 356.926 -2.00979 -1.61137 0
M  V30 3702 H 356.884 -0.968036 -2.99126 0
M  V30 3703 N 360.656 0.0484629 -1.57525 0
M  V30 3704 C 362.072 0.40375 -1.54409 0
M  V30 3705 C 362.272 1.77786 -0.948384 0
M  V30 3706 O 361.328 2.46189 -0.560983 0
M  V30 3707 C 362.641 0.323394 -2.98956 0
M  V30 3708 C 364.189 0.401892 -3.10409 0
M  V30 3709 C 364.664 0.351195 -4.56652 0
M  V30 3710 N 366.155 0.410576 -4.61377 0
M  V30 3711 C 366.89 0.393933 -5.72045 0
M  V30 3712 N 366.386 0.330724 -6.9201 0
M  V30 3713 N 368.179 0.442227 -5.60358 0
M  V30 3714 H 360.33 -0.851016 -1.94606 0
M  V30 3715 H 362.593 -0.321721 -0.89174 0
M  V30 3716 H 362.299 -0.62011 -3.4619 0
M  V30 3717 H 362.173 1.12463 -3.60044 0
M  V30 3718 H 364.56 1.33582 -2.63134 0
M  V30 3719 H 364.641 -0.428342 -2.52188 0
M  V30 3720 H 364.285 -0.578987 -5.04589 0
M  V30 3721 H 364.215 1.19928 -5.12762 0
M  V30 3722 H 366.706 0.462729 -3.75056 0
M  V30 3723 H 367.019 0.322592 -7.72126 0
M  V30 3724 H 365.364 0.29706 -6.94365 0
M  V30 3725 H 368.555 0.489464 -4.65534 0
M  V30 3726 H 368.728 0.425788 -6.466 0
M  V30 3727 N 362.134 1.5431 0.320358 0
M  V30 3728 C 363.066 1.80262 1.41556 0
M  V30 3729 C 364.079 0.684723 1.477 0
M  V30 3730 O 365.268 0.961886 1.50366 0
M  V30 3731 C 362.368 1.90825 2.8007 0
M  V30 3732 C 361.541 3.21023 2.97091 0
M  V30 3733 C 360.6 3.22247 4.15985 0
M  V30 3734 O 359.626 3.95871 4.08992 0
M  V30 3735 N 360.828 2.46258 5.25678 0
M  V30 3736 H 363.593 2.74778 1.19655 0
M  V30 3737 H 361.154 1.53646 0.510358 0
M  V30 3738 H 363.146 1.89067 3.57821 0
M  V30 3739 H 361.716 1.03392 2.95006 0
M  V30 3740 H 360.936 3.35715 2.06614 0
M  V30 3741 H 362.224 4.0698 3.05361 0
M  V30 3742 H 361.622 1.86037 5.34235 0
M  V30 3743 H 360.179 2.50275 6.01835 0
M  V30 3744 N 363.613 -0.582584 1.46437 0
M  V30 3745 C 364.56 -1.69164 1.5701 0
M  V30 3746 C 365.53 -1.60847 0.414403 0
M  V30 3747 O 366.715 -1.80058 0.631171 0
M  V30 3748 C 363.855 -3.075 1.56646 0
M  V30 3749 C 362.968 -3.2644 2.82951 0
M  V30 3750 C 362.103 -4.55026 2.7409 0
M  V30 3751 C 361.142 -4.6731 3.95333 0
M  V30 3752 N 360.279 -5.87221 3.84858 0
M  V30 3753 H 365.119 -1.59464 2.51744 0
M  V30 3754 H 362.656 -0.777186 1.24893 0
M  V30 3755 H 364.614 -3.8757 1.5442 0
M  V30 3756 H 363.244 -3.16096 0.654439 0
M  V30 3757 H 362.296 -2.39974 2.95155 0
M  V30 3758 H 363.608 -3.31385 3.72808 0
M  V30 3759 H 362.762 -5.43324 2.6997 0
M  V30 3760 H 361.501 -4.52519 1.81873 0
M  V30 3761 H 360.506 -3.77429 3.99784 0
M  V30 3762 H 361.731 -4.71595 4.88646 0
M  V30 3763 H 359.677 -5.85712 2.95427 0
M  V30 3764 H 359.594 -5.93435 4.6837 0
M  V30 3765 H 360.862 -6.7795 3.84713 0
M  V30 3766 N 365.091 -1.34144 -0.827227 0
M  V30 3767 C 366.339 -1.26009 -1.58007 0
M  V30 3768 C 366.66 0.170971 -1.94249 0
M  V30 3769 O 365.93 1.10256 -1.61927 0
M  V30 3770 H 364.51 -0.463414 -0.585881 0
M  V30 3771 H 367.172 -1.68005 -0.987951 0
M  V30 3772 H 366.268 -1.86187 -2.50481 0
M  V30 3773 N 366.569 1.04691 -1.17803 0
M  V30 3774 C 367.815 1.78181 -0.980977 0
M  V30 3775 C 368.17 1.86191 0.484825 0
M  V30 3776 O 367.463 1.35436 1.35527 0
M  V30 3777 C 367.657 3.21467 -1.56186 0
M  V30 3778 C 367.486 3.27422 -3.08261 0
M  V30 3779 C 366.256 3.36415 -3.77032 0
M  V30 3780 C 368.454 3.15947 -4.0581 0
M  V30 3781 N 366.436 3.31554 -5.16667 0
M  V30 3782 C 367.807 3.18514 -5.31929 0
M  V30 3783 C 369.862 2.99945 -3.97413 0
M  V30 3784 C 368.565 3.06723 -6.50625 0
M  V30 3785 C 370.591 2.89497 -5.15699 0
M  V30 3786 C 369.953 2.92702 -6.40706 0
M  V30 3787 H 366.052 0.6641 -0.412911 0
M  V30 3788 H 368.636 1.24762 -1.49474 0
M  V30 3789 H 366.807 3.73245 -1.07436 0
M  V30 3790 H 368.539 3.8322 -1.30093 0
M  V30 3791 H 365.294 3.41887 -3.27735 0
M  V30 3792 H 365.718 3.3258 -5.89678 0
M  V30 3793 H 370.36 2.96302 -3.01604 0
M  V30 3794 H 368.078 3.0912 -7.46639 0
M  V30 3795 H 371.664 2.78179 -5.10987 0
M  V30 3796 H 370.544 2.84697 -7.30696 0
M  V30 3797 N 368.047 0.979072 1.23499 0
M  V30 3798 C 368.979 0.476271 2.24197 0
M  V30 3799 C 369.992 -0.421166 1.57258 0
M  V30 3800 O 371.181 -0.225515 1.7707 0
M  V30 3801 C 368.281 -0.330503 3.37285 0
M  V30 3802 C 367.454 0.559744 4.33804 0
M  V30 3803 C 366.513 -0.192954 5.25846 0
M  V30 3804 O 365.539 0.416978 5.67671 0
M  V30 3805 N 366.741 -1.47932 5.61334 0
M  V30 3806 H 369.506 1.34211 2.67969 0
M  V30 3807 H 367.067 0.852189 1.37657 0
M  V30 3808 H 369.059 -0.842361 3.95836 0
M  V30 3809 H 367.629 -1.09734 2.92707 0
M  V30 3810 H 366.849 1.25245 3.73775 0
M  V30 3811 H 368.137 1.1665 4.95248 0
M  V30 3812 H 367.535 -1.9964 5.29302 0
M  V30 3813 H 366.092 -1.93664 6.22364 0
M  V30 3814 N 369.525 -1.3858 0.750561 0
M  V30 3815 C 370.773 -1.99789 0.30477 0
M  V30 3816 C 371.094 -1.59874 -1.11649 0
M  V30 3817 O 370.364 -0.85417 -1.76297 0
M  V30 3818 H 368.944 -0.738902 0.109694 0
M  V30 3819 H 371.606 -1.69391 0.963983 0
M  V30 3820 H 370.702 -3.09952 0.365499 0
M  V30 3821 N 371.003 -0.499398 -1.49478 0
M  V30 3822 C 371.966 0.268838 -2.27618 0
M  V30 3823 C 372.966 0.895383 -1.33565 0
M  V30 3824 O 374.156 0.760164 -1.56739 0
M  V30 3825 C 371.288 1.38559 -3.11471 0
M  V30 3826 H 372.481 -0.416812 -2.96989 0
M  V30 3827 H 370.034 -0.254313 -1.54217 0
M  V30 3828 H 370.769 2.10544 -2.46661 0
M  V30 3829 H 370.554 0.941797 -3.80621 0
M  V30 3830 H 372.044 1.92678 -3.70493 0
M  V30 3831 N 372.481 1.55866 -0.233164 0
M  V30 3832 C 373.413 2.18099 0.704668 0
M  V30 3833 C 374.426 1.15334 1.14899 0
M  V30 3834 O 375.615 1.42262 1.07814 0
M  V30 3835 C 372.715 2.7592 1.96777 0
M  V30 3836 C 371.888 4.03969 1.67713 0
M  V30 3837 C 370.947 4.46242 2.78845 0
M  V30 3838 O 369.973 5.12903 2.46818 0
M  V30 3839 N 371.175 4.12886 4.08051 0
M  V30 3840 H 373.94 2.99205 0.172258 0
M  V30 3841 H 371.501 1.61815 -0.0525945 0
M  V30 3842 H 373.493 3.01165 2.70337 0
M  V30 3843 H 372.063 1.99051 2.41034 0
M  V30 3844 H 371.283 3.86459 0.777391 0
M  V30 3845 H 372.571 4.8748 1.4574 0
M  V30 3846 H 371.969 3.59342 4.3691 0
M  V30 3847 H 370.526 4.42997 4.78118 0
M  V30 3848 N 373.959 -0.0401083 1.57549 0
M  V30 3849 C 375.208 -0.732108 1.87944 0
M  V30 3850 C 375.521 -1.77107 0.830206 0
M  V30 3851 O 376.727 -2.51488 1.02302 0
M  V30 3852 C 375.183 -1.35315 3.33494 0
M  V30 3853 C 374.791 -0.351105 4.46622 0
M  V30 3854 C 376.535 -2.02566 3.73051 0
M  V30 3855 C 374.442 -0.979859 5.83226 0
M  V30 3856 H 373.372 -0.277188 0.701201 0
M  V30 3857 H 376.023 0.0138501 1.83495 0
M  V30 3858 H 374.405 -2.14844 3.32653 0
M  V30 3859 H 375.579 0.416674 4.58912 0
M  V30 3860 H 373.894 0.218708 4.15825 0
M  V30 3861 H 376.491 -2.50441 4.72423 0
M  V30 3862 H 376.834 -2.83904 3.04474 0
M  V30 3863 H 377.367 -1.29827 3.76018 0
M  V30 3864 H 374.106 -0.206135 6.55176 0
M  V30 3865 H 373.626 -1.71774 5.74677 0
M  V30 3866 H 375.305 -1.49046 6.29599 0
M  V30 3867 N 375.437 -1.54477 -0.31217 0
M  V30 3868 C 376.385 -1.85395 -1.40469 0
M  V30 3869 C 377.379 -0.726749 -1.53019 0
M  V30 3870 O 378.585 -0.910582 -1.55269 0
M  V30 3871 H 374.96 -0.587845 -0.46898 0
M  V30 3872 H 376.931 -2.76736 -1.11623 0
M  V30 3873 C 375.68 -2.10811 -2.76503 0
M  V30 3874 H 375.003 -2.97014 -2.67625 0
M  V30 3875 H 376.443 -2.3639 -3.51988 0
M  V30 3876 C 374.902 -0.903165 -3.24568 0
M  V30 3877 O 375.432 -0.118085 -4.01526 0
M  V30 3878 N 373.638 -0.711634 -2.81752 0
M  V30 3879 H 373.185 -1.35171 -2.19286 0
M  V30 3880 H 373.143 0.0930473 -3.14262 0
M  V30 3881 N 376.915 0.57481 -1.46744 0
M  V30 3882 C 377.845 1.69337 -1.60771 0
M  V30 3883 C 378.826 1.63825 -0.457736 0
M  V30 3884 O 380.011 1.8172 -0.684947 0
M  V30 3885 C 377.141 3.0798 -1.60517 0
M  V30 3886 C 376.095 3.28327 -2.74564 0
M  V30 3887 C 375.421 4.67578 -2.59373 0
M  V30 3888 C 376.721 3.15398 -4.16319 0
M  V30 3889 H 378.415 1.57853 -2.54407 0
M  V30 3890 H 375.961 0.75799 -1.22436 0
M  V30 3891 H 377.914 3.86061 -1.68923 0
M  V30 3892 H 376.638 3.20381 -0.634305 0
M  V30 3893 H 375.297 2.52649 -2.65639 0
M  V30 3894 H 374.945 4.76755 -1.60353 0
M  V30 3895 H 374.645 4.82144 -3.35873 0
M  V30 3896 H 376.169 5.47817 -2.69682 0
M  V30 3897 H 377.583 3.83315 -4.26313 0
M  V30 3898 H 375.98 3.41482 -4.93468 0
M  V30 3899 H 377.05 2.12372 -4.3592 0
M  V30 3900 N 378.394 1.34581 0.820102 0
M  V30 3901 C 379.341 1.2639 1.93117 0
M  V30 3902 C 380.311 0.138554 1.65521 0
M  V30 3903 O 381.496 0.320004 1.88097 0
M  V30 3904 C 378.636 1.02812 3.29429 0
M  V30 3905 C 377.749 2.24146 3.693 0
M  V30 3906 C 376.884 1.93829 4.94574 0
M  V30 3907 C 375.923 3.1129 5.27034 0
M  V30 3908 N 375.06 2.80838 6.43486 0
M  V30 3909 H 379.9 2.21408 1.99455 0
M  V30 3910 H 377.437 1.10077 0.975784 0
M  V30 3911 H 379.395 0.871788 4.0799 0
M  V30 3912 H 378.025 0.114612 3.22596 0
M  V30 3913 H 377.077 2.50691 2.86109 0
M  V30 3914 H 378.389 3.11899 3.89257 0
M  V30 3915 H 377.543 1.74948 5.80929 0
M  V30 3916 H 376.282 1.03341 4.76626 0
M  V30 3917 H 375.287 3.30764 4.39175 0
M  V30 3918 H 376.512 4.02561 5.4692 0
M  V30 3919 H 374.458 1.92929 6.26988 0
M  V30 3920 H 374.375 3.62123 6.63629 0
M  V30 3921 H 375.643 2.65467 7.32903 0
M  V30 3922 N 379.872 -1.04064 1.18357 0
M  V30 3923 C 381.12 -1.76915 0.977013 0
M  V30 3924 C 381.441 -1.88624 -0.494577 0
M  V30 3925 O 380.711 -1.41125 -1.3587 0
M  V30 3926 H 379.291 -0.65535 0.358504 0
M  V30 3927 H 381.953 -1.25592 1.49039 0
M  V30 3928 H 381.049 -2.78178 1.41504 0
M  V30 3929 N 381.35 -0.985608 -1.22978 0
M  V30 3930 C 382.599 -0.652881 -1.90841 0
M  V30 3931 C 382.912 0.817842 -1.77681 0
M  V30 3932 O 384.118 1.26185 -2.40395 0
M  V30 3933 C 382.574 -1.11717 -3.42122 0
M  V30 3934 C 382.182 -2.6126 -3.63933 0
M  V30 3935 C 383.926 -0.85843 -4.1573 0
M  V30 3936 C 381.833 -3.0133 -5.08876 0
M  V30 3937 H 380.763 -0.240491 -0.714619 0
M  V30 3938 H 383.414 -1.1942 -1.39324 0
M  V30 3939 H 381.796 -0.504027 -3.92779 0
M  V30 3940 H 382.97 -3.27858 -3.23799 0
M  V30 3941 H 381.285 -2.84937 -3.03644 0
M  V30 3942 H 383.882 -1.13359 -5.22546 0
M  V30 3943 H 384.225 0.205461 -4.15793 0
M  V30 3944 H 384.758 -1.43341 -3.71077 0
M  V30 3945 H 381.497 -4.06864 -5.13947 0
M  V30 3946 H 381.017 -2.3943 -5.49939 0
M  V30 3947 H 382.696 -2.92224 -5.77247 0
M  V30 3948 N 382.828 1.3818 -0.7579 0
M  V30 3949 C 383.758 2.33027 -0.148597 0
M  V30 3950 C 384.739 1.55085 0.69875 0
M  V30 3951 O 385.924 1.83384 0.639053 0
M  V30 3952 C 383.054 3.3928 0.742034 0
M  V30 3953 C 382.008 4.28 -0.00291946 0
M  V30 3954 C 381.334 5.25146 1.00625 0
M  V30 3955 C 382.634 5.08938 -1.17385 0
M  V30 3956 H 384.328 2.84231 -0.940909 0
M  V30 3957 H 381.874 1.36659 -0.453908 0
M  V30 3958 H 383.827 4.046 1.17799 0
M  V30 3959 H 382.551 2.86569 1.56671 0
M  V30 3960 H 381.21 3.64192 -0.419504 0
M  V30 3961 H 380.858 4.68721 1.8251 0
M  V30 3962 H 380.558 5.85361 0.512428 0
M  V30 3963 H 382.082 5.93342 1.44143 0
M  V30 3964 H 383.496 5.67474 -0.815224 0
M  V30 3965 H 381.893 5.7841 -1.59882 0
M  V30 3966 H 382.963 4.42424 -1.98468 0
M  V30 3967 N 384.306 0.507319 1.49211 0
M  V30 3968 C 385.253 -0.267728 2.29242 0
M  V30 3969 C 386.223 -0.954609 1.35928 0
M  V30 3970 O 387.408 -0.960046 1.64887 0
M  V30 3971 C 384.548 -1.32243 3.18756 0
M  V30 3972 C 383.661 -0.64669 4.27132 0
M  V30 3973 C 382.796 -1.68238 5.03855 0
M  V30 3974 C 381.835 -0.98885 6.0406 0
M  V30 3975 N 380.972 -1.96903 6.73924 0
M  V30 3976 H 385.812 0.420968 2.95012 0
M  V30 3977 H 383.349 0.219443 1.45454 0
M  V30 3978 H 385.307 -1.94599 3.69036 0
M  V30 3979 H 383.937 -1.97981 2.54958 0
M  V30 3980 H 382.989 0.0902926 3.80293 0
M  V30 3981 H 384.301 -0.101058 4.98698 0
M  V30 3982 H 383.455 -2.38081 5.58034 0
M  V30 3983 H 382.194 -2.26187 4.32077 0
M  V30 3984 H 381.199 -0.276222 5.49106 0
M  V30 3985 H 382.424 -0.415767 6.77826 0
M  V30 3986 H 380.37 -2.53803 6.04913 0
M  V30 3987 H 380.287 -1.47423 7.41487 0
M  V30 3988 H 381.555 -2.66015 7.32705 0
M  V30 3989 N 385.784 -1.5574 0.241426 0
M  V30 3990 C 387.012 -2.03208 -0.389134 0
M  V30 3991 C 387.427 -1.12082 -1.51931 0
M  V30 3992 O 386.784 -0.134183 -1.82006 0
M  V30 3993 C 386.835 -3.50064 -0.902087 0
M  V30 3994 O 386.556 -4.37717 0.18305 0
M  V30 3995 C 388.057 -4.13268 -1.60389 0
M  V30 3996 H 385.277 -0.664509 -0.0931053 0
M  V30 3997 H 387.821 -2.0124 0.36369 0
M  V30 3998 H 385.976 -3.52583 -1.60511 0
M  V30 3999 H 386.39 -5.24097 -0.205579 0
M  V30 4000 H 387.864 -5.17733 -1.91458 0
M  V30 4001 H 388.341 -3.59434 -2.52397 0
M  V30 4002 H 388.947 -4.14655 -0.945576 0
M  V30 4003 N 387.262 0.0317525 -1.57568 0
M  V30 4004 C 388.51 0.721676 -1.88776 0
M  V30 4005 C 388.831 1.76039 -0.838772 0
M  V30 4006 O 388.101 1.95482 0.127935 0
M  V30 4007 H 386.681 0.269534 -0.696678 0
M  V30 4008 H 389.343 -0.00165879 -1.949 0
M  V30 4009 H 388.439 1.21293 -2.87566 0
M  V30 4010 N 388.74 1.54641 0.303973 0
M  V30 4011 C 389.687 1.85386 1.37479 0
M  V30 4012 C 390.657 0.702528 1.50512 0
M  V30 4013 O 391.842 0.950867 1.65418 0
M  V30 4014 C 388.982 2.10413 2.73533 0
M  V30 4015 C 388.095 3.38049 2.68974 0
M  V30 4016 C 387.23 3.52934 3.97002 0
M  V30 4017 C 386.269 4.74373 3.86829 0
M  V30 4018 N 385.406 4.8608 5.06627 0
M  V30 4019 H 390.246 2.76732 1.1056 0
M  V30 4020 H 387.783 1.37034 0.534805 0
M  V30 4021 H 389.741 2.22919 3.52652 0
M  V30 4022 H 388.371 1.22338 2.98719 0
M  V30 4023 H 387.423 3.3418 1.81736 0
M  V30 4024 H 388.735 4.27288 2.57346 0
M  V30 4025 H 387.889 3.65088 4.84557 0
M  V30 4026 H 386.628 2.61824 4.1146 0
M  V30 4027 H 385.633 4.62255 2.97658 0
M  V30 4028 H 386.858 5.66888 3.73918 0
M  V30 4029 H 384.804 3.97891 5.21554 0
M  V30 4030 H 384.721 5.69315 4.9741 0
M  V30 4031 H 385.989 5.02587 5.95841 0
M  V30 4032 N 390.218 -0.567019 1.47046 0
M  V30 4033 C 391.446 -1.35027 1.56765 0
M  V30 4034 C 391.861 -1.8758 0.214316 0
M  V30 4035 O 391.218 -1.64471 -0.790919 0
M  V30 4036 C 391.269 -2.52698 2.58507 0
M  V30 4037 O 390.99 -2.0232 3.88585 0
M  V30 4038 C 392.491 -3.45043 2.78316 0
M  V30 4039 H 389.711 -0.41195 0.529658 0
M  V30 4040 H 392.255 -0.687832 1.92585 0
M  V30 4041 H 390.41 -3.149 2.25648 0
M  V30 4042 H 390.824 -2.79068 4.44096 0
M  V30 4043 H 392.298 -4.2405 3.53391 0
M  V30 4044 H 392.775 -3.97971 1.85784 0
M  V30 4045 H 393.381 -2.88665 3.12334 0
M  V30 4046 N 391.696 -1.35014 -0.812953 0
M  V30 4047 C 392.926 -1.30841 -1.59888 0
M  V30 4048 C 393.334 0.117576 -1.88834 0
M  V30 4049 O 392.677 1.07807 -1.48739 0
M  V30 4050 C 392.739 -2.0412 -2.95931 0
M  V30 4051 C 392.403 -3.53336 -2.89832 0
M  V30 4052 C 393.4 -4.48052 -2.63714 0
M  V30 4053 C 391.085 -3.95894 -3.0915 0
M  V30 4054 C 393.079 -5.833 -2.56982 0
M  V30 4055 C 390.766 -5.31239 -3.0204 0
M  V30 4056 C 391.764 -6.24754 -2.75991 0
M  V30 4057 O 391.452 -7.57617 -2.68833 0
M  V30 4058 H 391.184 -0.451215 -0.50337 0
M  V30 4059 H 393.738 -1.78354 -1.01877 0
M  V30 4060 H 391.968 -1.51235 -3.559 0
M  V30 4061 H 393.657 -1.93107 -3.57022 0
M  V30 4062 H 394.423 -4.16492 -2.48515 0
M  V30 4063 H 390.302 -3.23495 -3.28438 0
M  V30 4064 H 393.846 -6.56263 -2.36569 0
M  V30 4065 H 389.743 -5.62415 -3.16796 0
M  V30 4066 H 390.511 -7.67469 -2.84487 0
M  V30 4067 N 393.175 1.03435 -1.18907 0
M  V30 4068 C 394.138 2.09756 -0.923844 0
M  V30 4069 C 395.138 1.60528 0.093416 0
M  V30 4070 O 396.328 1.73631 -0.140727 0
M  V30 4071 C 393.46 3.38692 -0.387354 0
M  V30 4072 H 394.653 2.34719 -1.86674 0
M  V30 4073 H 392.206 1.19959 -1.00197 0
M  V30 4074 H 392.941 3.19396 0.561845 0
M  V30 4075 H 392.726 3.75742 -1.12074 0
M  V30 4076 H 394.216 4.17016 -0.220694 0
M  V30 4077 N 394.653 0.992116 1.22453 0
M  V30 4078 C 395.9 0.667534 1.91181 0
M  V30 4079 C 396.228 -0.800317 1.77271 0
M  V30 4080 O 395.483 -1.59421 1.13505 0
M  V30 4081 C 395.782 1.01832 3.42586 0
M  V30 4082 C 395.448 2.47831 3.76684 0
M  V30 4083 C 394.11 2.87729 3.85701 0
M  V30 4084 C 396.462 3.42466 3.92895 0
M  V30 4085 C 393.79 4.21252 4.08367 0
M  V30 4086 C 396.142 4.75648 4.17064 0
M  V30 4087 C 394.806 5.15288 4.24305 0
M  V30 4088 H 394.076 0.244268 0.699581 0
M  V30 4089 H 396.723 1.24816 1.45235 0
M  V30 4090 H 395.028 0.355769 3.90181 0
M  V30 4091 H 396.725 0.745228 3.94014 0
M  V30 4092 H 393.315 2.15905 3.70247 0
M  V30 4093 H 397.499 3.12814 3.85307 0
M  V30 4094 H 392.755 4.51554 4.122 0
M  V30 4095 H 396.929 5.48924 4.2855 0
M  V30 4096 H 394.556 6.18769 4.41621 0
M  V30 4097 N 396.131 -1.37776 0.765217 0
M  V30 4098 C 397.041 -2.34135 0.147666 0
M  V30 4099 C 398.057 -1.59854 -0.687215 0
M  V30 4100 O 399.233 -1.91983 -0.608659 0
M  V30 4101 C 396.298 -3.3901 -0.72617 0
M  V30 4102 C 395.359 -4.2912 0.124417 0
M  V30 4103 C 394.592 -5.28986 -0.707807 0
M  V30 4104 O 394.815 -5.36205 -1.94525 0
M  V30 4105 O 393.749 -6.01779 -0.12046 0
M  V30 4106 H 397.575 -2.88664 0.943758 0
M  V30 4107 H 395.16 -1.39824 0.526277 0
M  V30 4108 H 397.042 -4.03195 -1.22524 0
M  V30 4109 H 395.717 -2.86819 -1.50056 0
M  V30 4110 H 394.624 -3.68057 0.669696 0
M  V30 4111 H 395.957 -4.84598 0.861736 0
M  V30 4112 N 397.609 -0.515225 -1.4894 0
M  V30 4113 C 398.572 0.244681 -2.2789 0
M  V30 4114 C 399.572 0.881166 -1.34507 0
M  V30 4115 O 400.762 0.743497 -1.57537 0
M  V30 4116 C 397.894 1.35247 -3.12923 0
M  V30 4117 H 399.087 -0.448289 -2.96531 0
M  V30 4118 H 396.64 -0.270656 -1.53939 0
M  V30 4119 H 397.375 2.07916 -2.48881 0
M  V30 4120 H 397.16 0.901374 -3.81599 0
M  V30 4121 H 398.65 1.88737 -3.72516 0
M  V30 4122 N 399.087 1.5561 -0.249682 0
M  V30 4123 C 400.333 2.00044 0.367952 0
M  V30 4124 C 400.688 1.1349 1.55363 0
M  V30 4125 O 399.981 0.191079 1.90645 0
M  V30 4126 C 400.175 3.4775 0.824887 0
M  V30 4127 C 400.004 4.48596 -0.314973 0
M  V30 4128 C 398.774 4.99077 -0.790555 0
M  V30 4129 C 400.972 5.0144 -1.14291 0
M  V30 4130 N 398.954 5.83675 -1.90254 0
M  V30 4131 C 400.325 5.83236 -2.10322 0
M  V30 4132 C 402.38 4.83736 -1.17916 0
M  V30 4133 C 401.083 6.49217 -3.09692 0
M  V30 4134 C 403.109 5.50497 -2.16117 0
M  V30 4135 C 402.471 6.32084 -3.10884 0
M  V30 4136 H 398.57 0.775512 0.100522 0
M  V30 4137 H 401.154 1.91193 -0.367896 0
M  V30 4138 H 399.325 3.56994 1.53002 0
M  V30 4139 H 401.057 3.79056 1.4177 0
M  V30 4140 H 397.812 4.72119 -0.374218 0
M  V30 4141 H 398.236 6.30671 -2.46137 0
M  V30 4142 H 402.878 4.20286 -0.460352 0
M  V30 4143 H 400.596 7.11832 -3.8252 0
M  V30 4144 H 404.182 5.38752 -2.19631 0
M  V30 4145 H 403.062 6.82832 -3.8563 0
M  V30 4146 N 400.565 -0.0233959 1.57583 0
M  V30 4147 C 401.811 -0.714119 1.89811 0
M  V30 4148 C 402.144 -1.74702 0.848113 0
M  V30 4149 O 401.419 -1.94023 -0.136135 0
M  V30 4150 C 401.702 -1.37853 3.32669 0
M  V30 4151 C 401.555 -0.358764 4.48367 0
M  V30 4152 C 402.874 -2.31101 3.7454 0
M  V30 4153 H 399.993 -0.25814 0.690314 0
M  V30 4154 H 402.635 0.0230927 1.89986 0
M  V30 4155 H 400.785 -2.00689 3.3265 0
M  V30 4156 H 402.457 0.268115 4.6052 0
M  V30 4157 H 400.7 0.321387 4.32608 0
M  V30 4158 H 401.371 -0.862242 5.45224 0
M  V30 4159 H 403.847 -1.78304 3.75961 0
M  V30 4160 H 402.723 -2.74567 4.75294 0
M  V30 4161 H 402.984 -3.18018 3.0711 0
M  V30 4162 N 402.043 -1.548 -0.295768 0
M  V30 4163 C 403.273 -1.78069 -1.04762 0
M  V30 4164 C 403.681 -0.542847 -1.81245 0
M  V30 4165 O 403.024 0.497051 -1.76848 0
M  V30 4166 C 403.086 -2.93881 -2.07061 0
M  V30 4167 C 402.75 -4.31777 -1.49725 0
M  V30 4168 C 403.747 -5.11613 -0.924581 0
M  V30 4169 C 401.432 -4.78389 -1.5313 0
M  V30 4170 C 403.426 -6.36184 -0.393594 0
M  V30 4171 C 401.113 -6.02921 -0.996447 0
M  V30 4172 C 402.111 -6.81654 -0.428569 0
M  V30 4173 O 401.799 -8.0384 0.0981593 0
M  V30 4174 H 401.531 -0.597475 -0.316226 0
M  V30 4175 H 404.085 -2.02584 -0.338973 0
M  V30 4176 H 402.315 -2.65003 -2.81621 0
M  V30 4177 H 404.004 -3.04679 -2.6819 0
M  V30 4178 H 404.77 -4.76743 -0.891136 0
M  V30 4179 H 400.649 -4.17132 -1.9627 0
M  V30 4180 H 404.193 -6.97582 0.0503014 0
M  V30 4181 H 400.09 -6.37277 -1.02706 0
M  V30 4182 H 400.858 -8.18499 -0.0146455 0
M  V30 4183 N 403.521 0.559213 -1.47345 0
M  V30 4184 C 404.453 1.68161 -1.55738 0
M  V30 4185 C 405.466 1.56636 -0.443744 0
M  V30 4186 O 406.655 1.6363 -0.713258 0
M  V30 4187 C 403.755 3.06611 -1.4437 0
M  V30 4188 C 402.928 3.4391 -2.70268 0
M  V30 4189 C 401.987 4.61515 -2.52765 0
M  V30 4190 O 401.013 4.66197 -3.26572 0
M  V30 4191 N 402.215 5.57883 -1.6046 0
M  V30 4192 H 404.98 1.61408 -2.52522 0
M  V30 4193 H 402.541 0.7458 -1.43699 0
M  V30 4194 H 404.533 3.83117 -1.30398 0
M  V30 4195 H 403.103 3.07602 -0.556766 0
M  V30 4196 H 402.323 2.56873 -2.99015 0
M  V30 4197 H 403.611 3.65605 -3.53851 0
M  V30 4198 H 403.009 5.56855 -0.996422 0
M  V30 4199 H 401.566 6.33723 -1.52441 0
M  V30 4200 N 404.999 1.35443 0.805782 0
M  V30 4201 C 405.947 1.28465 1.93906 0
M  V30 4202 C 406.941 0.17943 1.68447 0
M  V30 4203 O 408.147 0.345459 1.76654 0
M  V30 4204 H 404.522 0.399528 0.637088 0
M  V30 4205 H 406.493 2.24206 1.96912 0
M  V30 4206 C 405.242 1.07432 3.30687 0
M  V30 4207 H 404.565 1.91716 3.50835 0
M  V30 4208 H 406.005 1.06591 4.10383 0
M  V30 4209 C 404.464 -0.22179 3.36169 0
M  V30 4210 O 404.994 -1.21731 3.82811 0
M  V30 4211 N 403.2 -0.260841 2.89427 0
M  V30 4212 H 402.747 0.549884 2.51663 0
M  V30 4213 H 402.705 -1.12777 2.93477 0
M  V30 4214 N 406.477 -1.02803 1.19454 0
M  V30 4215 C 407.702 -1.80378 1.02364 0
M  V30 4216 C 408.127 -1.83282 -0.423007 0
M  V30 4217 O 407.485 -1.25945 -1.30413 0
M  V30 4218 C 407.533 -3.23248 1.59821 0
M  V30 4219 O 406.637 -4.04 0.828105 0
M  V30 4220 H 405.978 -0.556799 0.361761 0
M  V30 4221 H 408.508 -1.29385 1.58495 0
M  V30 4222 H 408.518 -3.73994 1.63073 0
M  V30 4223 H 407.193 -3.2045 2.65113 0
M  V30 4224 H 405.77 -3.62635 0.86891 0
M  V30 4225 N 407.956 -0.998596 -1.21925 0
M  V30 4226 C 409.204 -0.676325 -1.90448 0
M  V30 4227 C 409.525 0.794719 -1.78071 0
M  V30 4228 O 408.795 1.5701 -1.17152 0
M  V30 4229 H 407.375 -0.247165 -0.704925 0
M  V30 4230 H 410.037 -1.26633 -1.48156 0
M  V30 4231 H 409.133 -0.943858 -2.97486 0
M  V30 4232 N 409.434 1.37368 -0.772513 0
M  V30 4233 C 410.366 2.28899 -0.117502 0
M  V30 4234 C 411.379 1.4867 0.663405 0
M  V30 4235 O 412.568 1.71314 0.501372 0
M  V30 4236 C 409.668 3.2788 0.857192 0
M  V30 4237 C 408.841 4.37207 0.129938 0
M  V30 4238 C 407.9 5.16257 1.01811 0
M  V30 4239 O 406.926 5.67159 0.481601 0
M  V30 4240 N 408.128 5.31058 2.3443 0
M  V30 4241 H 410.893 2.85752 -0.903662 0
M  V30 4242 H 408.454 1.49353 -0.62493 0
M  V30 4243 H 410.446 3.77647 1.45482 0
M  V30 4244 H 409.016 2.7179 1.54432 0
M  V30 4245 H 408.236 3.88827 -0.648605 0
M  V30 4246 H 409.524 5.07434 -0.372559 0
M  V30 4247 H 408.922 4.91287 2.80452 0
M  V30 4248 H 407.479 5.84131 2.89197 0
M  V30 4249 N 410.912 0.523116 1.48665 0
M  V30 4250 C 412.189 -0.0775449 1.95446 0
M  V30 4251 C 412.569 -1.5197 1.4652 0
M  V30 4252 O 411.917 -2.17876 0.688657 0
M  V30 4253 C 412.127 0.0326135 3.48985 0
M  V30 4254 C 413.475 -0.130141 4.24401 0
M  V30 4255 O 414.499 -0.0415142 3.56176 0
M  V30 4256 O 413.358 -0.31491 5.45592 0
M  V30 4257 H 410.452 -0.0831012 0.822814 0
M  V30 4258 H 412.998 0.587227 1.59216 0
M  V30 4259 H 411.77 1.03748 3.77296 0
M  V30 4260 H 411.393 -0.671317 3.91892 0
M  V30 4261 N 412.39 -1.55475 0.257931 0
M  V30 4262 C 413.322 -2.19192 -0.669881 0
M  V30 4263 C 414.335 -1.17148 -1.1305 0
M  V30 4264 O 415.524 -1.43959 -1.05537 0
M  V30 4265 C 412.624 -2.79016 -1.92363 0
M  V30 4266 C 411.797 -4.06586 -1.61265 0
M  V30 4267 C 410.856 -4.50622 -2.7171 0
M  V30 4268 O 409.882 -5.16765 -2.38627 0
M  V30 4269 N 411.084 -4.19325 -4.01431 0
M  V30 4270 H 413.849 -2.99441 -0.124635 0
M  V30 4271 H 411.41 -1.6171 0.0783311 0
M  V30 4272 H 413.402 -3.05427 -2.65511 0
M  V30 4273 H 411.972 -2.0286 -2.37837 0
M  V30 4274 H 411.192 -3.87646 -0.715811 0
M  V30 4275 H 412.48 -4.89737 -1.37967 0
M  V30 4276 H 411.878 -3.66247 -4.31138 0
M  V30 4277 H 410.435 -4.50547 -4.7101 0
M  V30 4278 N 413.868 0.0150385 -1.57593 0
M  V30 4279 C 415.096 0.714395 -1.94175 0
M  V30 4280 C 415.511 1.68135 -0.858841 0
M  V30 4281 O 414.868 1.81766 0.163567 0
M  V30 4282 C 414.919 1.45933 -3.30735 0
M  V30 4283 O 414.64 0.531167 -4.34868 0
M  V30 4284 C 416.141 2.25456 -3.81686 0
M  V30 4285 H 413.361 0.199923 -0.640525 0
M  V30 4286 H 415.905 -0.0316096 -2.04476 0
M  V30 4287 H 414.06 2.15709 -3.21789 0
M  V30 4288 H 414.474 1.05509 -5.13778 0
M  V30 4289 H 415.948 2.731 -4.79709 0
M  V30 4290 H 416.425 3.07485 -3.13607 0
M  V30 4291 H 417.031 1.60727 -3.9376 0
M  V30 4292 N 415.346 1.54954 0.287554 0
M  V30 4293 C 416.595 1.74081 1.01877 0
M  V30 4294 C 416.908 0.541135 1.87966 0
M  V30 4295 O 418.114 0.614491 2.64455 0
M  V30 4296 C 416.57 3.08042 1.86113 0
M  V30 4297 C 416.178 4.35531 1.04961 0
M  V30 4298 C 417.922 3.36523 2.58752 0
M  V30 4299 C 415.829 5.60538 1.88551 0
M  V30 4300 H 414.759 0.64884 0.384087 0
M  V30 4301 H 417.41 1.81426 0.275101 0
M  V30 4302 H 415.792 2.94696 2.64519 0
M  V30 4303 H 416.966 4.59751 0.31074 0
M  V30 4304 H 415.281 4.14085 0.43843 0
M  V30 4305 H 417.878 4.27122 3.21668 0
M  V30 4306 H 418.221 2.56 3.28283 0
M  V30 4307 H 418.754 3.50901 1.87386 0
M  V30 4308 H 415.493 6.43767 1.23466 0
M  V30 4309 H 415.013 5.40483 2.60074 0
M  V30 4310 H 416.692 5.98297 2.46273 0
M  V30 4311 N 416.824 -0.551391 1.4764 0
M  V30 4312 C 418.073 -1.30467 1.53822 0
M  V30 4313 C 418.386 -1.94495 0.207661 0
M  V30 4314 O 419.592 -2.71099 0.147533 0
M  V30 4315 C 418.048 -2.36616 2.71184 0
M  V30 4316 C 417.656 -1.78754 4.10793 0
M  V30 4317 C 419.4 -3.13088 2.86663 0
M  V30 4318 C 417.307 -2.82717 5.19447 0
M  V30 4319 H 416.237 -0.490584 0.572576 0
M  V30 4320 H 418.888 -0.58494 1.73927 0
M  V30 4321 H 417.27 -3.11529 2.4447 0
M  V30 4322 H 418.444 -1.10173 4.47435 0
M  V30 4323 H 416.759 -1.14846 4.00249 0
M  V30 4324 H 419.356 -3.90736 3.65007 0
M  V30 4325 H 419.699 -3.67635 1.95321 0
M  V30 4326 H 420.232 -2.45288 3.13175 0
M  V30 4327 H 416.971 -2.33018 6.12685 0
M  V30 4328 H 416.491 -3.4969 4.87316 0
M  V30 4329 H 418.17 -3.46102 5.46646 0
M  V30 4330 N 418.302 -1.35869 -0.798587 0
M  V30 4331 C 419.235 -1.23801 -1.91699 0
M  V30 4332 C 420.213 -0.124143 -1.62125 0
M  V30 4333 O 421.397 -0.293656 -1.86199 0
M  V30 4334 C 418.524 -0.908063 -3.263 0
M  V30 4335 C 417.57 -2.0351 -3.74815 0
M  V30 4336 S 418.403 -3.65183 -3.91665 0
M  V30 4337 C 419.559 -3.34283 -5.29156 0
M  V30 4338 H 419.792 -2.18466 -2.01643 0
M  V30 4339 H 417.325 -1.21178 -0.956833 0
M  V30 4340 H 419.283 -0.724506 -4.04056 0
M  V30 4341 H 417.944 0.0206584 -3.14093 0
M  V30 4342 H 417.137 -1.75858 -4.72324 0
M  V30 4343 H 416.739 -2.1774 -3.04081 0
M  V30 4344 H 419.031 -2.87607 -6.13424 0
M  V30 4345 H 419.974 -4.31022 -5.61806 0
M  V30 4346 H 420.382 -2.69854 -4.95822 0
M  V30 4347 N 419.78 1.02168 -1.19998 0
M  V30 4348 C 421.008 1.79296 -1.03249 0
M  V30 4349 C 421.423 1.84103 0.418502 0
M  V30 4350 O 420.78 1.29031 1.29063 0
M  V30 4351 C 420.831 3.24007 -1.60319 0
M  V30 4352 O 420.552 3.19512 -2.99739 0
M  V30 4353 C 422.053 4.17704 -1.48453 0
M  V30 4354 H 419.273 0.564016 -0.363493 0
M  V30 4355 H 421.817 1.28639 -1.58973 0
M  V30 4356 H 419.972 3.7183 -1.08727 0
M  V30 4357 H 420.386 4.10306 -3.26725 0
M  V30 4358 H 421.86 5.17104 -1.93153 0
M  V30 4359 H 422.337 4.37029 -0.436193 0
M  V30 4360 H 422.943 3.7576 -1.99211 0
M  V30 4361 N 421.258 1.00505 1.21394 0
M  V30 4362 C 422.191 0.51032 2.22421 0
M  V30 4363 C 423.169 -0.436 1.56645 0
M  V30 4364 O 424.353 -0.358709 1.85055 0
M  V30 4365 C 421.48 -0.258733 3.3771 0
M  V30 4366 C 420.526 0.635395 4.2174 0
M  V30 4367 S 421.359 2.09783 4.92698 0
M  V30 4368 C 422.515 1.33862 6.11418 0
M  V30 4369 H 422.748 1.36637 2.64041 0
M  V30 4370 H 420.281 0.812991 1.31262 0
M  V30 4371 H 422.239 -0.696372 4.0455 0
M  V30 4372 H 420.9 -1.0902 2.94573 0
M  V30 4373 H 420.093 0.0430189 5.03982 0
M  V30 4374 H 419.695 1.01031 3.60095 0
M  V30 4375 H 421.987 0.612541 6.74725 0
M  V30 4376 H 422.93 2.13675 6.75092 0
M  V30 4377 H 423.338 0.846568 5.58116 0
M  V30 4378 N 422.737 -1.36956 0.779787 0
M  V30 4379 C 423.669 -2.28833 0.129639 0
M  V30 4380 C 424.682 -1.4902 -0.655511 0
M  V30 4381 O 425.871 -1.71578 -0.492279 0
M  V30 4382 C 422.971 -3.2833 -0.839792 0
M  V30 4383 C 422.144 -4.3727 -0.10675 0
M  V30 4384 C 421.203 -5.16789 -0.990717 0
M  V30 4385 O 420.229 -5.67406 -0.451516 0
M  V30 4386 N 421.431 -5.32294 -2.3161 0
M  V30 4387 H 424.196 -2.85268 0.918803 0
M  V30 4388 H 421.757 -1.49019 0.632841 0
M  V30 4389 H 423.749 -3.78413 -1.43477 0
M  V30 4390 H 422.319 -2.72605 -1.52988 0
M  V30 4391 H 421.539 -3.88478 0.669216 0
M  V30 4392 H 422.827 -5.07229 0.399464 0
M  V30 4393 H 422.225 -4.92768 -2.77843 0
M  V30 4394 H 420.782 -5.85656 -2.86095 0
M  V30 4395 N 424.215 -0.530993 -1.48385 0
M  V30 4396 C 425.631 -0.188919 -1.58478 0
M  V30 4397 C 425.831 1.30786 -1.53288 0
M  V30 4398 O 424.887 2.08619 -1.42248 0
M  V30 4399 C 426.2 -0.792343 -2.90073 0
M  V30 4400 C 427.748 -0.76117 -3.03604 0
M  V30 4401 C 428.223 -1.34319 -4.37861 0
M  V30 4402 N 429.714 -1.3052 -4.44431 0
M  V30 4403 C 430.449 -1.72543 -5.46824 0
M  V30 4404 N 429.945 -2.22299 -6.56167 0
M  V30 4405 N 431.738 -1.63773 -5.37712 0
M  V30 4406 H 423.889 -1.50377 -1.50002 0
M  V30 4407 H 426.152 -0.625559 -0.712306 0
M  V30 4408 H 425.858 -1.84323 -2.99529 0
M  V30 4409 H 425.732 -0.270026 -3.76232 0
M  V30 4410 H 428.119 0.280957 -2.93759 0
M  V30 4411 H 428.2 -1.32097 -2.19053 0
M  V30 4412 H 427.844 -2.38425 -4.4846 0
M  V30 4413 H 427.774 -0.759064 -5.21101 0
M  V30 4414 H 430.265 -0.940973 -3.65997 0
M  V30 4415 H 430.578 -2.52356 -7.30436 0
M  V30 4416 H 428.923 -2.26293 -6.57127 0
M  V30 4417 H 432.114 -1.24698 -4.51185 0
M  V30 4418 H 432.287 -1.96844 -6.17379 0
M  V30 4419 N 425.693 1.55336 -0.266172 0
M  V30 4420 C 426.64 2.22172 0.625165 0
M  V30 4421 C 427.61 1.19211 1.15663 0
M  V30 4422 O 428.795 1.47723 1.20758 0
M  V30 4423 C 425.935 2.93972 1.8076 0
M  V30 4424 C 425.048 4.11632 1.31084 0
M  V30 4425 C 424.183 4.71099 2.45436 0
M  V30 4426 C 423.222 5.8097 1.92718 0
M  V30 4427 N 422.359 6.34538 3.00509 0
M  V30 4428 H 427.199 2.9796 0.0485582 0
M  V30 4429 H 424.736 1.47095 0.0122024 0
M  V30 4430 H 426.694 3.33811 2.50251 0
M  V30 4431 H 425.324 2.20623 2.35638 0
M  V30 4432 H 424.376 3.76975 0.509326 0
M  V30 4433 H 425.688 4.90893 0.884633 0
M  V30 4434 H 424.842 5.13612 3.22936 0
M  V30 4435 H 423.581 3.91096 2.91368 0
M  V30 4436 H 422.586 5.37916 1.13695 0
M  V30 4437 H 423.811 6.62836 1.47733 0
M  V30 4438 H 421.757 5.57433 3.45839 0
M  V30 4439 H 421.674 7.09046 2.62279 0
M  V30 4440 H 422.942 6.81709 3.78011 0
M  V30 4441 N 427.171 -0.0066808 1.57599 0
M  V30 4442 C 428.401 -0.703066 1.94269 0
M  V30 4443 C 428.809 -1.68206 0.866222 0
M  V30 4444 O 428.152 -1.82966 -0.164087 0
M  V30 4445 C 428.214 -1.49616 3.26887 0
M  V30 4446 C 427.878 -0.679494 4.5192 0
M  V30 4447 C 428.875 0.0299508 5.19891 0
M  V30 4448 C 426.56 -0.627433 4.98366 0
M  V30 4449 C 428.554 0.780514 6.32603 0
M  V30 4450 C 426.241 0.126861 6.10968 0
M  V30 4451 C 427.239 0.829574 6.77943 0
M  V30 4452 O 426.927 1.57157 7.88389 0
M  V30 4453 H 426.659 -0.201217 0.645359 0
M  V30 4454 H 429.213 0.0385326 2.05364 0
M  V30 4455 H 427.443 -2.28209 3.12182 0
M  V30 4456 H 429.132 -2.07726 3.48719 0
M  V30 4457 H 429.898 -0.00115963 4.85 0
M  V30 4458 H 425.777 -1.16392 4.46065 0
M  V30 4459 H 429.321 1.32954 6.84813 0
M  V30 4460 H 425.218 0.159815 6.45302 0
M  V30 4461 H 425.986 1.48758 8.04868 0
M  V30 4462 N 428.649 -1.55105 -0.279332 0
M  V30 4463 C 429.874 -1.7976 -1.03446 0
M  V30 4464 C 430.299 -0.565952 -1.79384 0
M  V30 4465 O 429.657 0.484259 -1.74713 0
M  V30 4466 C 429.705 -3.0179 -1.97371 0
M  V30 4467 O 428.809 -2.76432 -3.06038 0
M  V30 4468 H 428.15 -0.594334 -0.29608 0
M  V30 4469 H 430.68 -2.02235 -0.310165 0
M  V30 4470 H 430.69 -3.30351 -2.39441 0
M  V30 4471 H 429.365 -3.91085 -1.4151 0
M  V30 4472 H 427.942 -2.58949 -2.68328 0
M  V30 4473 N 430.127 0.543554 -1.4793 0
M  V30 4474 C 431.352 1.32995 -1.59145 0
M  V30 4475 C 431.777 1.86472 -0.246956 0
M  V30 4476 O 431.135 1.63696 0.779324 0
M  V30 4477 C 431.183 2.46623 -2.63077 0
M  V30 4478 O 430.287 3.49261 -2.19295 0
M  V30 4479 H 429.628 0.394472 -0.534124 0
M  V30 4480 H 432.158 0.655489 -1.93816 0
M  V30 4481 H 432.168 2.93001 -2.83926 0
M  V30 4482 H 430.843 2.07059 -3.60693 0
M  V30 4483 H 429.42 3.09094 -2.08603 0
M  V30 4484 N 431.605 1.3629 0.791371 0
M  V30 4485 C 432.882 1.20962 1.53712 0
M  V30 4486 C 433.262 -0.205021 2.10102 0
M  V30 4487 O 432.61 -1.21042 1.93807 0
M  V30 4488 C 432.82 2.29002 2.63361 0
M  V30 4489 C 434.168 2.65572 3.31295 0
M  V30 4490 O 435.192 2.2803 2.73643 0
M  V30 4491 O 434.051 3.3018 4.35481 0
M  V30 4492 H 431.145 0.47086 0.679867 0
M  V30 4493 H 433.691 1.48016 0.830021 0
M  V30 4494 H 432.463 3.2382 2.19674 0
M  V30 4495 H 432.086 2.03303 3.41692 0
M  V30 4496 N 433.083 -1.0153 1.20538 0
M  V30 4497 C 434.046 -2.0826 0.957098 0
M  V30 4498 C 435.046 -1.60657 -0.0678655 0
M  V30 4499 O 436.236 -1.73385 0.168332 0
M  V30 4500 C 433.368 -3.38033 0.441188 0
M  V30 4501 H 434.561 -2.31719 1.90384 0
M  V30 4502 H 432.114 -1.1835 1.02093 0
M  V30 4503 H 432.849 -3.20249 -0.510961 0
M  V30 4504 H 432.634 -3.73911 1.18038 0
M  V30 4505 H 434.124 -4.16613 0.287009 0
M  V30 4506 N 434.561 -1.01147 -1.20859 0
M  V30 4507 C 435.786 -0.716698 -1.94623 0
M  V30 4508 C 436.211 0.715415 -1.73964 0
M  V30 4509 O 435.569 1.49157 -1.03062 0
M  V30 4510 C 435.617 -1.0513 -3.44935 0
M  V30 4511 O 434.721 -0.160131 -4.12089 0
M  V30 4512 H 434.062 -0.266404 -0.608214 0
M  V30 4513 H 436.592 -1.35346 -1.53436 0
M  V30 4514 H 436.602 -1.00086 -3.95533 0
M  V30 4515 H 435.277 -2.09475 -3.59295 0
M  V30 4516 H 433.854 -0.267657 -3.71938 0
M  V30 4517 N 436.039 1.36541 -0.78704 0
M  V30 4518 C 437.267 2.03561 -0.370199 0
M  V30 4519 C 437.682 1.59347 1.01263 0
M  V30 4520 O 437.039 0.781781 1.64907 0
M  V30 4521 C 437.09 3.59033 -0.421614 0
M  V30 4522 O 436.811 4.01634 -1.7499 0
M  V30 4523 C 438.312 4.433 0.00489763 0
M  V30 4524 H 435.532 0.653346 -0.152904 0
M  V30 4525 H 438.076 1.74566 -1.06522 0
M  V30 4526 H 436.231 3.86746 0.224971 0
M  V30 4527 H 436.645 4.96217 -1.69909 0
M  V30 4528 H 438.119 5.51939 -0.0822184 0
M  V30 4529 H 438.596 4.26285 1.05723 0
M  V30 4530 H 439.202 4.20843 -0.614085 0
M  V30 4531 N 437.518 0.538854 1.48102 0
M  V30 4532 C 438.45 -0.256278 2.27763 0
M  V30 4533 C 439.463 -0.89633 1.35904 0
M  V30 4534 O 440.652 -0.773275 1.60881 0
M  V30 4535 C 437.752 -1.37896 3.09577 0
M  V30 4536 C 436.925 -0.839159 4.29275 0
M  V30 4537 C 435.984 -1.84405 4.9283 0
M  V30 4538 O 435.01 -1.39746 5.51779 0
M  V30 4539 N 436.212 -3.17666 4.85869 0
M  V30 4540 H 438.977 0.426968 2.96643 0
M  V30 4541 H 436.538 0.373747 1.57527 0
M  V30 4542 H 438.53 -2.04955 3.48963 0
M  V30 4543 H 437.1 -1.96572 2.4306 0
M  V30 4544 H 436.32 0.00769287 3.94199 0
M  V30 4545 H 437.608 -0.457548 5.06739 0
M  V30 4546 H 437.006 -3.56609 4.39143 0
M  V30 4547 H 435.563 -3.80334 5.29329 0
M  V30 4548 N 438.996 -1.55193 0.274407 0
M  V30 4549 C 440.226 -2.03692 -0.345442 0
M  V30 4550 C 440.634 -1.15224 -1.50067 0
M  V30 4551 O 439.977 -0.164749 -1.8296 0
M  V30 4552 C 440.039 -3.48325 -0.88939 0
M  V30 4553 C 439.703 -4.56794 0.137115 0
M  V30 4554 C 440.7 -5.11028 0.956378 0
M  V30 4555 C 438.385 -5.01568 0.27115 0
M  V30 4556 C 440.379 -6.08552 1.89587 0
M  V30 4557 C 438.066 -5.98918 1.21412 0
M  V30 4558 C 439.064 -6.52291 2.02498 0
M  V30 4559 O 438.752 -7.47738 2.952 0
M  V30 4560 H 438.484 -0.670893 -0.0829332 0
M  V30 4561 H 441.038 -2.01387 0.404056 0
M  V30 4562 H 439.268 -3.47867 -1.68895 0
M  V30 4563 H 440.957 -3.80167 -1.42225 0
M  V30 4564 H 441.723 -4.7725 0.863559 0
M  V30 4565 H 437.602 -4.5967 -0.349987 0
M  V30 4566 H 441.146 -6.50137 2.52918 0
M  V30 4567 H 437.043 -6.32114 1.30776 0
M  V30 4568 H 437.811 -7.65451 2.89874 0
M  V30 4569 N 440.474 -0.00167713 -1.576 0
M  V30 4570 C 441.384 1.00548 -2.1196 0
M  V30 4571 C 442.4 1.3758 -1.06526 0
M  V30 4572 O 443.576 1.46278 -1.38436 0
M  V30 4573 C 440.641 2.27809 -2.6135 0
M  V30 4574 C 439.702 1.97074 -3.81393 0
M  V30 4575 C 438.935 3.18267 -4.28417 0
M  V30 4576 O 439.158 4.30009 -3.74765 0
M  V30 4577 O 438.092 3.02167 -5.20556 0
M  V30 4578 H 441.918 0.573373 -2.98238 0
M  V30 4579 H 439.503 0.217255 -1.47812 0
M  V30 4580 H 441.385 3.02568 -2.93309 0
M  V30 4581 H 440.06 2.70254 -1.78169 0
M  V30 4582 H 438.967 1.19785 -3.54404 0
M  V30 4583 H 440.3 1.59464 -4.65652 0
M  V30 4584 N 441.952 1.55251 0.271103 0
M  V30 4585 C 443.198 1.7713 0.999832 0
M  V30 4586 C 443.553 0.56659 1.83868 0
M  V30 4587 O 442.846 -0.44069 1.86463 0
M  V30 4588 C 443.04 3.01879 1.91321 0
M  V30 4589 C 442.869 4.34368 1.16426 0
M  V30 4590 C 441.639 4.97593 0.879169 0
M  V30 4591 C 443.837 5.1131 0.553749 0
M  V30 4592 N 441.819 6.13813 0.103618 0
M  V30 4593 C 443.19 6.19938 -0.0875442 0
M  V30 4594 C 445.245 4.95754 0.461782 0
M  V30 4595 C 443.948 7.14703 -0.811942 0
M  V30 4596 C 445.974 5.90875 -0.249027 0
M  V30 4597 C 445.336 6.98893 -0.879051 0
M  V30 4598 H 441.435 0.700407 0.347784 0
M  V30 4599 H 444.019 1.92744 0.275314 0
M  V30 4600 H 442.19 2.87637 2.60997 0
M  V30 4601 H 443.922 3.12154 2.57569 0
M  V30 4602 H 440.677 4.58538 1.18491 0
M  V30 4603 H 441.101 6.76455 -0.271543 0
M  V30 4604 H 445.743 4.12342 0.934552 0
M  V30 4605 H 443.461 7.97634 -1.29639 0
M  V30 4606 H 447.047 5.80916 -0.320529 0
M  V30 4607 H 445.927 7.71231 -1.42031 0
M  V30 4608 N 443.43 -0.535701 1.48216 0
M  V30 4609 C 444.679 -1.28828 1.55197 0
M  V30 4610 C 444.992 -1.94263 0.228278 0
M  V30 4611 O 446.198 -2.70927 0.176278 0
M  V30 4612 C 444.654 -2.33727 2.73678 0
M  V30 4613 C 444.262 -1.74386 4.12666 0
M  V30 4614 C 446.006 -3.1003 2.89968 0
M  V30 4615 C 443.913 -2.77192 5.22416 0
M  V30 4616 H 442.843 -0.484484 0.577747 0
M  V30 4617 H 445.494 -0.56646 1.74538 0
M  V30 4618 H 443.876 -3.08919 2.4776 0
M  V30 4619 H 445.05 -1.05421 4.48579 0
M  V30 4620 H 443.365 -1.10595 4.01445 0
M  V30 4621 H 445.962 -3.86842 3.6913 0
M  V30 4622 H 446.305 -3.65542 1.9921 0
M  V30 4623 H 446.838 -2.41952 3.15759 0
M  V30 4624 H 443.577 -2.26507 6.15122 0
M  V30 4625 H 443.097 -3.44502 4.90998 0
M  V30 4626 H 444.776 -3.40285 5.50286 0
M  V30 4627 N 444.908 -1.36708 -0.784132 0
M  V30 4628 C 445.855 -1.31466 -1.89698 0
M  V30 4629 C 446.825 -0.18239 -1.65096 0
M  V30 4630 O 448.01 -0.369762 -1.87183 0
M  V30 4631 C 445.15 -1.1151 -3.26588 0
M  V30 4632 C 444.263 -2.33859 -3.63227 0
M  V30 4633 C 443.398 -2.06873 -4.89262 0
M  V30 4634 C 442.437 -3.25154 -5.18595 0
M  V30 4635 N 441.574 -2.978 -6.35814 0
M  V30 4636 H 446.414 -2.26619 -1.93515 0
M  V30 4637 H 443.951 -1.12625 -0.946256 0
M  V30 4638 H 445.909 -0.979653 -4.05535 0
M  V30 4639 H 444.539 -0.200103 -3.22179 0
M  V30 4640 H 443.591 -2.58188 -2.79362 0
M  V30 4641 H 444.903 -3.22109 -3.8085 0
M  V30 4642 H 444.057 -1.90289 -5.76086 0
M  V30 4643 H 442.796 -1.15942 -4.73718 0
M  V30 4644 H 441.801 -3.42292 -4.30251 0
M  V30 4645 H 443.026 -4.1692 -5.36055 0
M  V30 4646 H 440.972 -2.09485 -6.21653 0
M  V30 4647 H 440.889 -3.7959 -6.53794 0
M  V30 4648 H 442.157 -2.84805 -7.25607 0
M  V30 4649 N 446.386 1.0089 -1.21074 0
M  V30 4650 C 447.611 1.78727 -1.05221 0
M  V30 4651 C 448.036 1.83932 0.393795 0
M  V30 4652 O 447.394 1.28004 1.28393 0
M  V30 4653 C 447.442 3.20665 -1.64944 0
M  V30 4654 O 446.546 4.02632 -0.892273 0
M  V30 4655 H 445.887 0.550973 -0.370574 0
M  V30 4656 H 448.417 1.26847 -1.60534 0
M  V30 4657 H 448.427 3.71352 -1.69002 0
M  V30 4658 H 447.102 3.16191 -2.70177 0
M  V30 4659 H 445.679 3.61207 -0.926492 0
M  V30 4660 N 447.864 1.01787 1.20321 0
M  V30 4661 C 448.827 0.593972 2.2137 0
M  V30 4662 C 449.827 -0.336553 1.57239 0
M  V30 4663 O 451.017 -0.125069 1.7375 0
M  V30 4664 C 448.149 -0.132433 3.40643 0
M  V30 4665 H 449.342 1.48791 2.60387 0
M  V30 4666 H 446.895 0.807803 1.33807 0
M  V30 4667 H 447.63 -1.04123 3.0713 0
M  V30 4668 H 447.415 0.53605 3.88418 0
M  V30 4669 H 448.905 -0.416314 4.1552 0
M  V30 4670 N 449.342 -1.36122 0.79427 0
M  V30 4671 C 450.57 -2.03362 0.380989 0
M  V30 4672 C 450.985 -1.59881 -1.00416 0
M  V30 4673 O 450.342 -0.790515 -1.6449 0
M  V30 4674 C 450.393 -3.58804 0.440649 0
M  V30 4675 O 450.114 -4.007 1.77118 0
M  V30 4676 C 451.615 -4.43296 0.0186117 0
M  V30 4677 H 448.835 -0.652526 0.156367 0
M  V30 4678 H 451.379 -1.73998 1.07447 0
M  V30 4679 H 449.534 -3.8686 -0.204458 0
M  V30 4680 H 449.948 -4.95309 1.72538 0
M  V30 4681 H 451.422 -5.51887 0.111488 0
M  V30 4682 H 451.899 -4.2684 -1.03461 0
M  V30 4683 H 452.505 -4.20512 0.636395 0
M  V30 4684 N 450.82 -0.546701 -1.47814 0
M  V30 4685 C 452.066 -0.0187684 -2.02791 0
M  V30 4686 C 452.399 1.32338 -1.42128 0
M  V30 4687 O 451.674 1.85867 -0.573023 0
M  V30 4688 C 451.957 0.0854985 -3.59998 0
M  V30 4689 C 451.81 -1.283 -4.31114 0
M  V30 4690 C 453.129 0.80412 -4.32691 0
M  V30 4691 H 450.248 -0.0082946 -0.736953 0
M  V30 4692 H 452.89 -0.706962 -1.76358 0
M  V30 4693 H 451.04 0.671609 -3.82651 0
M  V30 4694 H 452.712 -1.91151 -4.19832 0
M  V30 4695 H 450.955 -1.86049 -3.91878 0
M  V30 4696 H 451.626 -1.16287 -5.39612 0
M  V30 4697 H 454.102 0.306576 -4.14969 0
M  V30 4698 H 452.978 0.846011 -5.42341 0
M  V30 4699 H 453.239 1.85802 -4.01161 0
M  V30 4700 N 452.299 1.55045 -0.282633 0
M  V30 4701 C 453.71 1.85473 0.213655 0
M  V30 4702 C 454.061 1.20465 1.54863 0
M  V30 4703 O 453.186 0.495676 2.10647 0
M  V30 4704 C 453.781 3.36496 0.394445 0
M  V30 4705 C 452.34 3.67022 0.834961 0
M  V30 4706 C 451.487 2.77218 -0.0674081 0
M  V30 4707 H 454.438 1.50478 -0.504202 0
M  V30 4708 H 454.459 3.60007 1.23186 0
M  V30 4709 H 453.971 3.83782 -0.577326 0
M  V30 4710 H 452.072 3.25241 1.81794 0
M  V30 4711 H 452.185 4.74433 0.667075 0
M  V30 4712 H 450.549 2.5069 0.450196 0
M  V30 4713 H 451.332 3.2732 -1.0352 0
M  V30 4714 N 453.777 0.010035 1.57597 0
M  V30 4715 C 455.002 -0.687021 1.95691 0
M  V30 4716 C 455.427 -1.65952 0.885519 0
M  V30 4717 O 454.785 -1.80633 -0.15543 0
M  V30 4718 C 454.833 -1.3864 3.32884 0
M  V30 4719 O 453.937 -2.50115 3.27897 0
M  V30 4720 H 453.278 -0.181989 0.638573 0
M  V30 4721 H 455.808 0.0662122 2.04493 0
M  V30 4722 H 455.818 -1.74754 3.6868 0
M  V30 4723 H 454.493 -0.673411 4.10412 0
M  V30 4724 H 453.07 -2.16253 3.03791 0
M  V30 4725 N 455.255 -1.55392 -0.262866 0
M  V30 4726 C 456.503 -1.76127 -0.991147 0
M  V30 4727 C 456.824 -0.571083 -1.8645 0
M  V30 4728 O 456.094 0.413698 -1.91482 0
M  V30 4729 H 454.674 -0.649528 -0.368948 0
M  V30 4730 H 457.336 -1.9281 -0.284655 0
M  V30 4731 H 456.432 -2.6663 -1.62219 0
M  V30 4732 N 456.733 0.527833 -1.48498 0
M  V30 4733 C 457.665 1.6482 -1.5927 0
M  V30 4734 C 458.678 1.55659 -0.476869 0
M  V30 4735 O 459.867 1.62081 -0.747806 0
M  V30 4736 C 456.967 3.0348 -1.50842 0
M  V30 4737 C 456.14 3.381 -2.77502 0
M  V30 4738 C 455.199 4.5605 -2.62497 0
M  V30 4739 O 454.225 4.59165 -3.36387 0
M  V30 4740 N 455.427 5.54353 -1.72257 0
M  V30 4741 H 458.192 1.56015 -2.55889 0
M  V30 4742 H 455.753 0.715152 -1.45249 0
M  V30 4743 H 457.745 3.80264 -1.38496 0
M  V30 4744 H 456.315 3.06352 -0.621887 0
M  V30 4745 H 455.535 2.50473 -3.04396 0
M  V30 4746 H 456.823 3.58017 -3.61527 0
M  V30 4747 H 456.221 5.54617 -1.11431 0
M  V30 4748 H 454.778 6.30347 -1.65849 0
M  V30 4749 N 458.211 1.37122 0.776871 0
M  V30 4750 C 459.457 1.3325 1.53675 0
M  V30 4751 C 459.812 -0.0839891 1.92217 0
M  V30 4752 O 459.105 -1.04145 1.60824 0
M  V30 4753 C 459.299 2.20068 2.81611 0
M  V30 4754 C 459.128 3.70016 2.55574 0
M  V30 4755 C 457.898 4.39144 2.4996 0
M  V30 4756 C 460.096 4.62996 2.23917 0
M  V30 4757 N 458.078 5.74663 2.15953 0
M  V30 4758 C 459.449 5.86854 2.00005 0
M  V30 4759 C 461.504 4.51433 2.1003 0
M  V30 4760 C 460.207 7.00446 1.63609 0
M  V30 4761 C 462.233 5.64905 1.75033 0
M  V30 4762 C 461.595 6.8781 1.51977 0
M  V30 4763 H 457.694 0.542878 0.562856 0
M  V30 4764 H 460.278 1.72295 0.906784 0
M  V30 4765 H 458.449 1.83248 3.42454 0
M  V30 4766 H 460.181 2.07492 3.47461 0
M  V30 4767 H 456.936 3.92088 2.65639 0
M  V30 4768 H 457.36 6.46268 2.0166 0
M  V30 4769 H 462.002 3.56987 2.26539 0
M  V30 4770 H 459.72 7.94831 1.45837 0
M  V30 4771 H 463.306 5.57926 1.64952 0
M  V30 4772 H 462.186 7.74126 1.25296 0
M  V30 4773 N 459.689 -1.00246 1.21608 0
M  V30 4774 C 460.935 -1.74319 1.03638 0
M  V30 4775 C 461.268 -1.89408 -0.428749 0
M  V30 4776 O 460.543 -1.43026 -1.3181 0
M  V30 4777 C 460.826 -3.15431 1.73711 0
M  V30 4778 C 460.679 -3.08049 3.27759 0
M  V30 4779 C 461.998 -4.14407 1.48173 0
M  V30 4780 H 459.117 -0.632741 0.377899 0
M  V30 4781 H 461.759 -1.16853 1.49818 0
M  V30 4782 H 459.909 -3.64493 1.34452 0
M  V30 4783 H 461.581 -2.66681 3.76403 0
M  V30 4784 H 459.824 -2.45088 3.57931 0
M  V30 4785 H 460.495 -4.07862 3.71958 0
M  V30 4786 H 462.971 -3.74061 1.82258 0
M  V30 4787 H 461.847 -5.11279 1.99713 0
M  V30 4788 H 462.108 -4.40174 0.412273 0
M  V30 4789 N 461.167 -1.02423 -1.1978 0
M  V30 4790 C 462.099 -0.559152 -2.22275 0
M  V30 4791 C 463.112 0.36251 -1.58713 0
M  V30 4792 O 464.301 0.159641 -1.77785 0
M  V30 4793 C 461.401 0.205094 -3.38279 0
M  V30 4794 C 460.574 -0.720361 -4.31427 0
M  V30 4795 C 459.633 -0.00234368 -5.262 0
M  V30 4796 O 458.659 -0.627378 -5.65732 0
M  V30 4797 N 459.861 1.26996 -5.66438 0
M  V30 4798 H 462.626 -1.44064 -2.62804 0
M  V30 4799 H 460.187 -0.902692 -1.34399 0
M  V30 4800 H 462.179 0.694868 -3.9869 0
M  V30 4801 H 460.749 0.987947 -2.96578 0
M  V30 4802 H 459.969 -1.39031 -3.68869 0
M  V30 4803 H 461.257 -1.3495 -4.90577 0
M  V30 4804 H 460.655 1.79858 -5.36347 0
M  V30 4805 H 459.212 1.70432 -6.29123 0
M  V30 4806 N 462.645 1.35699 -0.801477 0
M  V30 4807 C 463.575 2.32436 -0.222658 0
M  V30 4808 C 464.556 1.5723 0.649057 0
M  V30 4809 O 465.741 1.85324 0.580387 0
M  V30 4810 C 462.871 3.41469 0.633719 0
M  V30 4811 C 461.825 4.27774 -0.139083 0
M  V30 4812 C 461.151 5.28082 0.838666 0
M  V30 4813 C 462.451 5.04946 -1.33517 0
M  V30 4814 H 464.145 2.81094 -1.03086 0
M  V30 4815 H 461.691 1.35146 -0.497155 0
M  V30 4816 H 463.644 4.08143 1.04868 0
M  V30 4817 H 462.368 2.91408 1.47475 0
M  V30 4818 H 461.027 3.62673 -0.535156 0
M  V30 4819 H 460.675 4.7429 1.67506 0
M  V30 4820 H 460.375 5.86695 0.32594 0
M  V30 4821 H 461.899 5.97628 1.25194 0
M  V30 4822 H 463.313 5.64593 -0.995349 0
M  V30 4823 H 461.71 5.7303 -1.78202 0
M  V30 4824 H 462.78 4.35886 -2.12442 0
M  V30 4825 N 464.123 0.554532 1.47522 0
M  V30 4826 C 465.348 0.0322661 2.07375 0
M  V30 4827 C 465.773 -1.25079 1.40488 0
M  V30 4828 O 465.131 -1.74859 0.47896 0
M  V30 4829 C 465.179 -0.149397 3.6029 0
M  V30 4830 O 464.283 -1.21259 3.9417 0
M  V30 4831 H 463.624 0.0501228 0.662106 0
M  V30 4832 H 466.154 0.769452 1.8958 0
M  V30 4833 H 466.164 -0.364437 4.06369 0
M  V30 4834 H 464.839 0.787743 4.08372 0
M  V30 4835 H 463.416 -0.97825 3.5984 0
M  V30 4836 N 465.601 -1.54893 0.290851 0
M  V30 4837 C 466.849 -1.99538 -0.320756 0
M  V30 4838 C 467.17 -1.18075 -1.55188 0
M  V30 4839 O 466.44 -0.274162 -1.93972 0
M  V30 4840 H 465.02 -0.737052 -0.121507 0
M  V30 4841 H 467.682 -1.90755 0.399832 0
M  V30 4842 H 466.778 -3.06282 -0.599802 0
M  V30 4843 N 467.08 -0.0183926 -1.57589 0
M  V30 4844 C 468.308 0.673046 -1.95647 0
M  V30 4845 C 468.723 1.66275 -0.894312 0
M  V30 4846 O 468.08 1.82072 0.124975 0
M  V30 4847 C 468.131 1.38884 -3.33756 0
M  V30 4848 O 467.852 0.438806 -4.35897 0
M  V30 4849 C 469.353 2.1731 -3.86383 0
M  V30 4850 H 466.573 0.186292 -0.644621 0
M  V30 4851 H 469.117 -0.0749748 -2.04363 0
M  V30 4852 H 467.272 2.08835 -3.26293 0
M  V30 4853 H 467.686 0.945869 -5.15901 0
M  V30 4854 H 469.16 2.62863 -4.85394 0
M  V30 4855 H 469.637 3.00764 -3.20059 0
M  V30 4856 H 470.243 1.52339 -3.97081 0
M  V30 4857 N 468.558 1.5553 0.254621 0
M  V30 4858 C 469.788 1.80784 1.00004 0
M  V30 4859 C 470.196 0.59071 1.79742 0
M  V30 4860 O 469.539 -0.449988 1.78103 0
M  V30 4861 C 469.601 2.99268 1.99196 0
M  V30 4862 C 469.265 4.35595 1.38224 0
M  V30 4863 C 470.262 5.13884 0.788611 0
M  V30 4864 C 467.947 4.82281 1.40393 0
M  V30 4865 C 469.941 6.37004 0.224783 0
M  V30 4866 C 467.628 6.05351 0.836243 0
M  V30 4867 C 468.626 6.82551 0.24769 0
M  V30 4868 O 468.314 8.03297 -0.311249 0
M  V30 4869 H 468.046 0.60565 0.300274 0
M  V30 4870 H 470.6 2.03411 0.285143 0
M  V30 4871 H 468.83 2.72377 2.74496 0
M  V30 4872 H 470.519 3.11682 2.60018 0
M  V30 4873 H 471.285 4.78938 0.764423 0
M  V30 4874 H 467.164 4.22189 1.85142 0
M  V30 4875 H 470.708 6.97203 -0.235235 0
M  V30 4876 H 466.605 6.39776 0.857733 0
M  V30 4877 H 467.373 8.1825 -0.20237 0
M  V30 4878 N 470.036 -0.519951 1.48776 0
M  V30 4879 C 471.264 -1.29971 1.60982 0
M  V30 4880 C 471.679 -1.86803 0.273885 0
M  V30 4881 O 471.036 -1.66904 -0.738193 0
M  V30 4882 C 471.087 -2.44346 2.66415 0
M  V30 4883 O 470.808 -1.89855 3.94825 0
M  V30 4884 C 472.309 -3.36014 2.89153 0
M  V30 4885 H 469.529 -0.394891 0.542496 0
M  V30 4886 H 472.073 -0.626214 1.94676 0
M  V30 4887 H 470.228 -3.07562 2.35552 0
M  V30 4888 H 470.642 -2.64798 4.5275 0
M  V30 4889 H 472.116 -4.12593 3.66703 0
M  V30 4890 H 472.593 -3.91859 1.98351 0
M  V30 4891 H 473.199 -2.78582 3.21359 0
M  V30 4892 N 471.514 -1.37532 -0.769588 0
M  V30 4893 C 472.763 -1.32183 -1.5235 0
M  V30 4894 C 473.076 0.0906555 -1.9539 0
M  V30 4895 O 474.282 0.266628 -2.70188 0
M  V30 4896 C 472.738 -2.32029 -2.75119 0
M  V30 4897 C 472.346 -3.78816 -2.3917 0
M  V30 4898 C 474.09 -2.35694 -3.53056 0
M  V30 4899 C 471.997 -4.70388 -3.58453 0
M  V30 4900 H 470.927 -0.491275 -0.571984 0
M  V30 4901 H 473.578 -1.63004 -0.842739 0
M  V30 4902 H 471.96 -1.94229 -3.45096 0
M  V30 4903 H 473.134 -4.25466 -1.76962 0
M  V30 4904 H 471.449 -3.78117 -1.74402 0
M  V30 4905 H 474.046 -3.01312 -4.41718 0
M  V30 4906 H 474.389 -1.37117 -3.93071 0
M  V30 4907 H 474.922 -2.72212 -2.90078 0
M  V30 4908 H 471.661 -5.70102 -3.23518 0
M  V30 4909 H 471.181 -4.28442 -4.19758 0
M  V30 4910 H 472.86 -4.87628 -4.25239 0
M  V30 4911 N 472.992 0.995999 -1.22138 0
M  V30 4912 C 474.403 1.54961 -1.04135 0
M  V30 4913 C 474.754 1.92159 0.396147 0
M  V30 4914 O 473.879 1.74435 1.28069 0
M  V30 4915 C 474.474 2.81581 -1.88408 0
M  V30 4916 C 473.033 3.33396 -1.74712 0
M  V30 4917 C 472.18 2.06509 -1.85066 0
M  V30 4918 H 475.131 0.817436 -1.36028 0
M  V30 4919 H 475.152 3.53822 -1.39966 0
M  V30 4920 H 474.664 2.54476 -2.93025 0
M  V30 4921 H 472.765 3.65416 -0.728159 0
M  V30 4922 H 472.878 4.04208 -2.57202 0
M  V30 4923 H 471.242 2.19925 -1.28472 0
M  V30 4924 H 472.025 1.81804 -2.91208 0
M  V30 4925 N 474.47 1.03057 1.19235 0
M  V30 4926 C 475.433 0.617418 2.20727 0
M  V30 4927 C 476.433 -0.319856 1.57587 0
M  V30 4928 O 477.623 -0.106633 1.73873 0
M  V30 4929 C 474.755 -0.096296 3.40764 0
M  V30 4930 H 475.948 1.51544 2.58794 0
M  V30 4931 H 473.501 0.821949 1.32942 0
M  V30 4932 H 474.236 -1.00859 3.08217 0
M  V30 4933 H 474.021 0.577217 3.87828 0
M  V30 4934 H 475.511 -0.372219 4.15938 0
M  V30 4935 N 475.948 -1.35272 0.808662 0
M  V30 4936 C 477.196 -1.98316 0.389233 0
M  V30 4937 C 477.517 -1.64465 -1.04767 0
M  V30 4938 O 476.787 -0.928175 -1.72516 0
M  V30 4939 H 475.367 -0.733585 0.140935 0
M  V30 4940 H 478.029 -1.6515 1.03496 0
M  V30 4941 H 477.125 -3.08123 0.496631 0
M  V30 4942 N 477.426 -0.562348 -1.47226 0
M  V30 4943 C 478.672 -0.0402761 -2.0276 0
M  V30 4944 C 479.005 1.30823 -1.43523 0
M  V30 4945 O 478.28 1.85249 -0.592705 0
M  V30 4946 C 478.563 0.047311 -3.60069 0
M  V30 4947 C 478.416 -1.32865 -4.29729 0
M  V30 4948 C 479.735 0.758182 -4.3352 0
M  V30 4949 H 476.854 -0.0161105 -0.736824 0
M  V30 4950 H 479.496 -0.725628 -1.75598 0
M  V30 4951 H 477.646 0.630986 -3.83342 0
M  V30 4952 H 479.318 -1.95593 -4.17781 0
M  V30 4953 H 477.561 -1.90195 -3.89882 0
M  V30 4954 H 478.232 -1.22004 -5.38349 0
M  V30 4955 H 480.708 0.262546 -4.15271 0
M  V30 4956 H 479.584 0.78844 -5.43208 0
M  V30 4957 H 479.845 1.81537 -4.03109 0
M  V30 4958 N 478.904 1.54736 -0.299062 0
M  V30 4959 C 480.132 2.04512 0.313447 0
M  V30 4960 C 480.547 1.17643 1.47667 0
M  V30 4961 O 479.904 0.20164 1.81383 0
M  V30 4962 C 479.955 3.53171 0.771542 0
M  V30 4963 O 479.676 4.36736 -0.345379 0
M  V30 4964 C 481.177 4.18936 1.4494 0
M  V30 4965 H 478.397 0.667507 0.0683784 0
M  V30 4966 H 480.941 1.99752 -0.438129 0
M  V30 4967 H 479.096 3.58298 1.47314 0
M  V30 4968 H 479.51 5.24499 0.0109219 0
M  V30 4969 H 480.984 5.24482 1.72111 0
M  V30 4970 H 481.461 3.68554 2.38883 0
M  V30 4971 H 482.067 4.17879 0.791028 0
M  V30 4972 N 480.382 0.0267497 1.57577 0
M  V30 4973 C 481.628 -0.653371 1.91987 0
M  V30 4974 C 481.961 -1.71915 0.903263 0
M  V30 4975 O 481.236 -1.94358 -0.0743387 0
M  V30 4976 C 481.519 -1.272 3.36886 0
M  V30 4977 C 481.372 -0.215938 4.49281 0
M  V30 4978 C 482.691 -2.19069 3.81703 0
M  V30 4979 H 479.81 -0.236047 0.698177 0
M  V30 4980 H 482.452 0.0835236 1.89816 0
M  V30 4981 H 480.602 -1.90005 3.38866 0
M  V30 4982 H 482.274 0.41449 4.59434 0
M  V30 4983 H 480.517 0.458855 4.31366 0
M  V30 4984 H 481.188 -0.688347 5.47691 0
M  V30 4985 H 483.664 -1.66253 3.81444 0
M  V30 4986 H 482.54 -2.59307 4.83788 0
M  V30 4987 H 482.801 -3.08087 3.17072 0
M  V30 4988 N 481.861 -1.55662 -0.24637 0
M  V30 4989 C 482.771 -1.93495 -1.32653 0
M  V30 4990 C 483.787 -0.835462 -1.5263 0
M  V30 4991 O 484.963 -1.1369 -1.66242 0
M  V30 4992 C 482.028 -2.22242 -2.66101 0
M  V30 4993 C 481.089 -3.45625 -2.54641 0
M  V30 4994 C 480.322 -3.72991 -3.81724 0
M  V30 4995 O 480.545 -3.02421 -4.8363 0
M  V30 4996 O 479.479 -4.66515 -3.80325 0
M  V30 4997 H 483.305 -2.85498 -1.03559 0
M  V30 4998 H 480.89 -1.42551 -0.44717 0
M  V30 4999 H 482.772 -2.42037 -3.44958 0
M  V30 5000 H 481.447 -1.33417 -2.94926 0
M  V30 5001 H 480.354 -3.31136 -1.74067 0
M  V30 5002 H 481.687 -4.34754 -2.3076 0
M  V30 5003 N 483.339 0.512053 -1.4905 0
M  V30 5004 C 484.616 1.27337 -1.48474 0
M  V30 5005 C 484.996 2.1009 -0.206301 0
M  V30 5006 O 484.344 2.136 0.811609 0
M  V30 5007 C 484.554 2.13954 -2.75726 0
M  V30 5008 C 485.902 2.73507 -3.24776 0
M  V30 5009 O 486.926 2.24229 -2.76767 0
M  V30 5010 O 485.785 3.63186 -4.08361 0
M  V30 5011 H 482.879 0.575652 -0.593762 0
M  V30 5012 H 485.425 0.527232 -1.61302 0
M  V30 5013 H 484.197 1.52709 -3.60272 0
M  V30 5014 H 483.82 2.95782 -2.65705 0
M  V30 5015 N 484.817 1.37938 0.762283 0
M  V30 5016 C 485.747 1.37176 1.88958 0
M  V30 5017 C 486.728 0.238945 1.68413 0
M  V30 5018 O 487.913 0.440726 1.89133 0
M  V30 5019 C 485.043 1.18742 3.2637 0
M  V30 5020 C 483.997 2.29136 3.61498 0
M  V30 5021 C 483.323 1.95816 4.97554 0
M  V30 5022 C 484.623 3.71363 3.6727 0
M  V30 5023 H 486.317 2.31509 1.89853 0
M  V30 5024 H 483.863 1.11438 0.912005 0
M  V30 5025 H 485.816 1.16837 4.04879 0
M  V30 5026 H 484.54 0.208683 3.25933 0
M  V30 5027 H 483.199 2.30213 2.85303 0
M  V30 5028 H 482.847 0.964475 4.93667 0
M  V30 5029 H 482.547 2.69745 5.22026 0
M  V30 5030 H 484.071 1.95513 5.78452 0
M  V30 5031 H 485.485 3.72364 4.35911 0
M  V30 5032 H 483.882 4.44425 4.03245 0
M  V30 5033 H 484.952 4.04305 2.67704 0
M  V30 5034 N 486.295 -0.989507 1.22664 0
M  V30 5035 C 487.523 -1.76496 1.07967 0
M  V30 5036 C 487.938 -1.85148 -0.369543 0
M  V30 5037 O 487.295 -1.32408 -1.25596 0
M  V30 5038 C 487.346 -3.19642 1.68853 0
M  V30 5039 O 487.067 -3.11453 3.08105 0
M  V30 5040 C 488.568 -4.13621 1.59475 0
M  V30 5041 H 485.788 -0.55418 0.378319 0
M  V30 5042 H 488.332 -1.24378 1.62328 0
M  V30 5043 H 486.487 -3.68816 1.18547 0
M  V30 5044 H 486.901 -4.01499 3.37489 0
M  V30 5045 H 488.375 -5.11801 2.06795 0
M  V30 5046 H 488.852 -4.35718 0.55191 0
M  V30 5047 H 489.458 -3.70346 2.09103 0
M  V30 5048 N 487.773 -1.03688 -1.18687 0
M  V30 5049 C 488.703 -0.645407 -2.24403 0
M  V30 5050 C 489.684 0.349511 -1.66471 0
M  V30 5051 O 490.869 0.230453 -1.92828 0
M  V30 5052 C 487.999 -0.00365337 -3.473 0
M  V30 5053 C 486.953 -0.921705 -4.17958 0
M  V30 5054 C 486.279 -0.144629 -5.34504 0
M  V30 5055 C 487.579 -2.23909 -4.71871 0
M  V30 5056 H 489.273 -1.52917 -2.57404 0
M  V30 5057 H 486.819 -0.736711 -1.23728 0
M  V30 5058 H 488.772 0.281908 -4.20456 0
M  V30 5059 H 487.496 0.914963 -3.13522 0
M  V30 5060 H 486.155 -1.19159 -3.46694 0
M  V30 5061 H 485.803 0.776274 -4.96974 0
M  V30 5062 H 485.503 -0.756206 -5.82714 0
M  V30 5063 H 487.027 0.134004 -6.10453 0
M  V30 5064 H 488.441 -2.0145 -5.36741 0
M  V30 5065 H 486.838 -2.8033 -5.30599 0
M  V30 5066 H 487.908 -2.88822 -3.895 0
M  V30 5067 N 489.251 1.34841 -0.815825 0
M  V30 5068 C 490.481 2.02436 -0.412695 0
M  V30 5069 C 490.889 1.61604 0.983906 0
M  V30 5070 O 490.232 0.813729 1.64694 0
M  V30 5071 C 490.294 3.56953 -0.427182 0
M  V30 5072 C 489.958 4.21083 -1.77589 0
M  V30 5073 C 490.955 4.42107 -2.73564 0
M  V30 5074 C 488.64 4.58006 -2.06243 0
M  V30 5075 C 490.634 4.99169 -3.9637 0
M  V30 5076 C 488.321 5.1478 -3.2931 0
M  V30 5077 C 489.319 5.35304 -4.24191 0
M  V30 5078 O 489.007 5.90878 -5.45086 0
M  V30 5079 H 488.739 0.655631 -0.164695 0
M  V30 5080 H 491.293 1.73246 -1.1034 0
M  V30 5081 H 489.523 3.85372 0.320175 0
M  V30 5082 H 491.212 4.05875 -0.0450875 0
M  V30 5083 H 491.978 4.13953 -2.52721 0
M  V30 5084 H 487.857 4.41339 -1.33196 0
M  V30 5085 H 491.401 5.15105 -4.70439 0
M  V30 5086 H 487.298 5.42362 -3.5002 0
M  V30 5087 H 488.066 6.0932 -5.46508 0
M  V30 5088 N 490.729 0.570148 1.46925 0
M  V30 5089 C 491.976 0.0509529 2.02436 0
M  V30 5090 C 492.304 -1.30405 1.44308 0
M  V30 5091 O 491.559 -1.86493 0.593198 0
M  V30 5092 C 491.858 -0.0780336 3.57315 0
M  V30 5093 C 491.524 1.20775 4.34424 0
M  V30 5094 C 490.186 1.56004 4.5521 0
M  V30 5095 C 492.538 2.0592 4.78797 0
M  V30 5096 C 489.866 2.76201 5.17619 0
M  V30 5097 C 492.218 3.25332 5.42533 0
M  V30 5098 C 490.882 3.60859 5.61549 0
M  V30 5099 H 490.152 0.018645 0.740765 0
M  V30 5100 H 492.799 0.744262 1.76445 0
M  V30 5101 H 491.104 -0.854394 3.82371 0
M  V30 5102 H 492.801 -0.495312 3.97929 0
M  V30 5103 H 489.391 0.923469 4.18533 0
M  V30 5104 H 493.575 1.80008 4.62505 0
M  V30 5105 H 488.831 3.0388 5.30535 0
M  V30 5106 H 493.005 3.91586 5.75876 0
M  V30 5107 H 490.632 4.54088 6.09678 0
M  V30 5108 N 492.207 -1.54576 0.307264 0
M  V30 5109 C 493.117 -2.27435 -0.57536 0
M  V30 5110 C 494.133 -1.31183 -1.14311 0
M  V30 5111 O 495.309 -1.64175 -1.16656 0
M  V30 5112 C 492.374 -3.00566 -1.72803 0
M  V30 5113 C 491.435 -4.12369 -1.19373 0
M  V30 5114 C 490.668 -4.82003 -2.29147 0
M  V30 5115 O 490.891 -4.51038 -3.49171 0
M  V30 5116 O 489.825 -5.69271 -1.95485 0
M  V30 5117 H 493.651 -3.03696 0.0158558 0
M  V30 5118 H 491.236 -1.49219 0.0735064 0
M  V30 5119 H 493.118 -3.46416 -2.39946 0
M  V30 5120 H 491.793 -2.27195 -2.30574 0
M  V30 5121 H 490.7 -3.70905 -0.487851 0
M  V30 5122 H 492.033 -4.87736 -0.661376 0
M  V30 5123 N 493.685 -0.035106 -1.57561 0
M  V30 5124 C 494.91 0.655802 -1.96759 0
M  V30 5125 C 495.335 1.64523 -0.911809 0
M  V30 5126 O 494.693 1.80857 0.126673 0
M  V30 5127 C 494.741 1.33326 -3.35047 0
M  V30 5128 O 493.845 2.44866 -3.31835 0
M  V30 5129 H 493.186 0.171807 -0.641388 0
M  V30 5130 H 495.716 -0.0987369 -2.04362 0
M  V30 5131 H 495.726 1.68867 -3.71413 0
M  V30 5132 H 494.401 0.608033 -4.11431 0
M  V30 5133 H 492.978 2.11392 -3.07193 0
M  V30 5134 N 495.163 1.55791 0.238111 0
M  V30 5135 C 496.095 1.87513 1.31802 0
M  V30 5136 C 497.108 0.762053 1.43863 0
M  V30 5137 O 498.297 1.04024 1.45056 0
M  V30 5138 C 495.397 2.05402 2.69561 0
M  V30 5139 C 494.57 3.3632 2.79656 0
M  V30 5140 C 493.629 3.43844 3.98319 0
M  V30 5141 O 492.655 4.16994 3.87433 0
M  V30 5142 N 493.857 2.73777 5.11885 0
M  V30 5143 H 496.622 2.80734 1.04922 0
M  V30 5144 H 494.183 1.56135 0.428196 0
M  V30 5145 H 496.175 2.07769 3.47296 0
M  V30 5146 H 494.745 1.18884 2.89111 0
M  V30 5147 H 493.965 3.46195 1.88528 0
M  V30 5148 H 495.253 4.22594 2.83358 0
M  V30 5149 H 494.651 2.14094 5.23622 0
M  V30 5150 H 493.208 2.81825 5.87723 0
M  V30 5151 N 496.642 -0.504142 1.49319 0
M  V30 5152 C 497.59 -1.62689 1.66238 0
M  V30 5153 C 498.584 -1.6095 0.528349 0
M  V30 5154 O 499.79 -1.65496 0.707887 0
M  V30 5155 H 496.165 -0.539247 0.524134 0
M  V30 5156 H 498.136 -1.45571 2.60484 0
M  V30 5157 C 496.885 -3.00841 1.74328 0
M  V30 5158 H 496.208 -3.02884 2.60963 0
M  V30 5159 H 497.648 -3.78945 1.90202 0
M  V30 5160 C 496.107 -3.33355 0.487416 0
M  V30 5161 O 496.637 -3.99819 -0.388294 0
M  V30 5162 N 494.843 -2.88469 0.351306 0
M  V30 5163 H 494.39 -2.34557 1.06492 0
M  V30 5164 H 494.348 -3.10591 -0.487899 0
M  V30 5165 N 498.12 -1.38341 -0.754957 0
M  V30 5166 C 499.531 -1.30803 -1.3322 0
M  V30 5167 C 499.882 0.0368 -1.96165 0
M  V30 5168 O 499.007 0.938844 -1.94974 0
M  V30 5169 C 499.602 -2.3688 -2.42225 0
M  V30 5170 C 498.161 -2.32925 -2.95674 0
M  V30 5171 C 497.308 -2.19819 -1.69042 0
M  V30 5172 H 500.259 -1.48719 -0.553937 0
M  V30 5173 H 500.28 -2.02517 -3.22129 0
M  V30 5174 H 499.792 -3.34747 -1.96383 0
M  V30 5175 H 497.893 -1.38635 -3.45848 0
M  V30 5176 H 498.006 -3.27008 -3.50146 0
M  V30 5177 H 496.37 -1.66648 -1.92615 0
M  V30 5178 H 497.153 -3.19625 -1.25279 0
M  V30 5179 N 499.598 0.982988 -1.23187 0
M  V30 5180 C 500.826 1.75921 -1.08901 0
M  V30 5181 C 501.241 1.85341 0.359719 0
M  V30 5182 O 500.598 1.33072 1.24892 0
M  V30 5183 C 500.649 3.18742 -1.70545 0
M  V30 5184 O 500.37 3.09814 -3.09753 0
M  V30 5185 C 501.871 4.1277 -1.61667 0
M  V30 5186 H 499.091 0.552166 -0.381252 0
M  V30 5187 H 501.635 1.23516 -1.62985 0
M  V30 5188 H 499.79 3.68182 -1.20501 0
M  V30 5189 H 500.204 3.99703 -3.39614 0
M  V30 5190 H 501.678 5.10697 -2.09506 0
M  V30 5191 H 502.155 4.3542 -0.575009 0
M  V30 5192 H 502.761 3.69232 -2.11064 0
M  V30 5193 N 501.076 1.04316 1.18135 0
M  V30 5194 C 502.006 0.657299 2.24058 0
M  V30 5195 C 502.987 -0.340678 1.66654 0
M  V30 5196 O 504.172 -0.220223 1.92947 0
M  V30 5197 C 501.302 0.0220715 3.47293 0
M  V30 5198 C 500.256 0.943857 4.17463 0
M  V30 5199 C 499.582 0.172973 5.3442 0
M  V30 5200 C 500.882 2.26409 4.70677 0
M  V30 5201 H 502.576 1.5428 2.56589 0
M  V30 5202 H 500.122 0.743263 1.23335 0
M  V30 5203 H 502.075 -0.259607 4.206 0
M  V30 5204 H 500.799 -0.898323 3.14003 0
M  V30 5205 H 499.458 1.20996 3.46057 0
M  V30 5206 H 499.106 -0.749907 4.97379 0
M  V30 5207 H 498.806 0.787098 5.82304 0
M  V30 5208 H 500.33 -0.101628 6.10515 0
M  V30 5209 H 501.744 2.04294 5.35665 0
M  V30 5210 H 500.141 2.8314 5.29105 0
M  V30 5211 H 501.211 2.90883 3.87962 0
M  V30 5212 N 502.554 -1.34406 0.822964 0
M  V30 5213 C 503.464 -2.33298 0.246838 0
M  V30 5214 C 504.48 -1.62625 -0.618797 0
M  V30 5215 O 505.656 -1.94391 -0.526685 0
M  V30 5216 C 502.721 -3.41785 -0.581731 0
M  V30 5217 C 501.782 -4.28206 0.306309 0
M  V30 5218 C 501.015 -5.31512 -0.48281 0
M  V30 5219 O 501.238 -5.43973 -1.71607 0
M  V30 5220 O 500.172 -6.01749 0.134884 0
M  V30 5221 H 503.998 -2.84401 1.06534 0
M  V30 5222 H 501.583 -1.37466 0.585108 0
M  V30 5223 H 503.465 -4.08028 -1.05313 0
M  V30 5224 H 502.14 -2.92925 -1.37756 0
M  V30 5225 H 501.047 -3.64885 0.825199 0
M  V30 5226 H 502.38 -4.80507 1.06649 0
M  V30 5227 N 504.032 -0.577932 -1.46621 0
M  V30 5228 C 505.279 -0.0616879 -2.02406 0
M  V30 5229 C 505.607 1.29638 -1.44997 0
M  V30 5230 O 504.862 1.86176 -0.60308 0
M  V30 5231 C 505.161 0.0590832 -3.57351 0
M  V30 5232 C 504.827 -1.23077 -4.33777 0
M  V30 5233 C 503.489 -1.58416 -4.54376 0
M  V30 5234 C 505.841 -2.08457 -4.77698 0
M  V30 5235 C 503.169 -2.78943 -5.16147 0
M  V30 5236 C 505.521 -3.28204 -5.408 0
M  V30 5237 C 504.185 -3.63832 -5.59627 0
M  V30 5238 H 503.455 -0.0225732 -0.740656 0
M  V30 5239 H 506.102 -0.753609 -1.76048 0
M  V30 5240 H 504.407 0.834104 -3.82818 0
M  V30 5241 H 506.104 0.474202 -3.98186 0
M  V30 5242 H 502.694 -0.945652 -4.18038 0
M  V30 5243 H 506.878 -1.82459 -4.61544 0
M  V30 5244 H 502.134 -3.06689 -5.28916 0
M  V30 5245 H 506.308 -3.94634 -5.73792 0
M  V30 5246 H 503.935 -4.57315 -6.07262 0
M  V30 5247 N 505.51 1.54411 -0.315457 0
M  V30 5248 C 506.74 2.04536 0.291315 0
M  V30 5249 C 507.148 1.19162 1.4696 0
M  V30 5250 O 506.491 0.213199 1.82459 0
M  V30 5251 C 506.553 3.5056 0.796725 0
M  V30 5252 C 506.217 4.5627 -0.258178 0
M  V30 5253 C 507.214 5.08312 -1.09153 0
M  V30 5254 C 504.899 5.00672 -0.404036 0
M  V30 5255 C 506.893 6.03312 -2.05655 0
M  V30 5256 C 504.58 5.95488 -1.37248 0
M  V30 5257 C 505.578 6.46693 -2.19721 0
M  V30 5258 O 505.266 7.39648 -3.14921 0
M  V30 5259 H 504.998 0.672856 0.0651165 0
M  V30 5260 H 507.552 2.00244 -0.457308 0
M  V30 5261 H 505.782 3.52223 1.59612 0
M  V30 5262 H 507.471 3.83804 1.32096 0
M  V30 5263 H 508.237 4.74793 -0.98979 0
M  V30 5264 H 504.116 4.60436 0.22799 0
M  V30 5265 H 507.66 6.43203 -2.70067 0
M  V30 5266 H 503.557 6.28424 -1.47489 0
M  V30 5267 H 504.325 7.57496 -3.10067 0
M  V30 5268 N 506.988 0.0434614 1.5754 0
M  V30 5269 C 508.234 -0.632971 1.92669 0
M  V30 5270 C 508.567 -1.70947 0.921446 0
M  V30 5271 O 507.842 -1.94426 -0.0537202 0
M  V30 5272 C 508.125 -1.23619 3.38216 0
M  V30 5273 C 507.978 -0.168274 4.49485 0
M  V30 5274 C 509.297 -2.15008 3.84005 0
M  V30 5275 H 506.416 -0.228629 0.700641 0
M  V30 5276 H 509.058 0.103651 1.89717 0
M  V30 5277 H 507.208 -1.864 3.40863 0
M  V30 5278 H 508.88 0.463196 4.58969 0
M  V30 5279 H 507.123 0.504581 4.30855 0
M  V30 5280 H 507.794 -0.630218 5.48391 0
M  V30 5281 H 510.27 -1.62198 3.83185 0
M  V30 5282 H 509.146 -2.54161 4.86511 0
M  V30 5283 H 509.407 -3.04707 3.20322 0
M  V30 5284 N 508.466 -1.55915 -0.229846 0
M  V30 5285 C 509.743 -1.6932 -0.979295 0
M  V30 5286 C 510.123 -0.588321 -2.02736 0
M  V30 5287 O 509.471 0.40586 -2.24867 0
M  V30 5288 C 509.681 -3.10305 -1.59724 0
M  V30 5289 C 511.029 -3.6945 -2.09264 0
M  V30 5290 O 512.053 -3.13214 -1.69633 0
M  V30 5291 O 510.912 -4.68072 -2.82082 0
M  V30 5292 H 508.006 -0.689314 -0.456919 0
M  V30 5293 H 510.552 -1.68238 -0.222283 0
M  V30 5294 H 509.324 -3.82177 -0.840039 0
M  V30 5295 H 508.947 -3.1547 -2.42001 0
M  V30 5296 N 509.944 0.496216 -1.49584 0
M  V30 5297 C 511.221 1.25755 -1.49816 0
M  V30 5298 C 511.601 2.09859 -0.228572 0
M  V30 5299 O 510.949 2.14449 0.788908 0
M  V30 5300 C 511.159 2.11017 -2.7798 0
M  V30 5301 C 512.507 2.70047 -3.27658 0
M  V30 5302 O 513.531 2.21281 -2.79129 0
M  V30 5303 O 512.39 3.58834 -4.1219 0
M  V30 5304 H 509.484 0.569322 -0.599834 0
M  V30 5305 H 512.03 0.510094 -1.61852 0
M  V30 5306 H 510.802 1.48879 -3.61871 0
M  V30 5307 H 510.425 2.92947 -2.68827 0
M  V30 5308 N 511.423 1.38739 0.74761 0
M  V30 5309 C 512.669 1.35475 1.50912 0
M  V30 5310 C 513.002 -0.0533093 1.94127 0
M  V30 5311 O 512.277 -1.01572 1.65871 0
M  V30 5312 C 512.56 2.31582 2.75757 0
M  V30 5313 C 512.413 3.81274 2.38642 0
M  V30 5314 C 513.732 2.25722 3.77806 0
M  V30 5315 H 510.851 0.493427 0.547447 0
M  V30 5316 H 513.493 1.69634 0.855823 0
M  V30 5317 H 511.643 2.02582 3.31501 0
M  V30 5318 H 513.315 4.20972 1.88626 0
M  V30 5319 H 511.558 3.98664 1.71025 0
M  V30 5320 H 512.229 4.4399 3.27989 0
M  V30 5321 H 514.705 2.51336 3.31616 0
M  V30 5322 H 513.581 2.95069 4.62845 0
M  V30 5323 H 513.842 1.25803 4.23823 0
M  V30 5324 N 512.901 -0.976442 1.23707 0
M  V30 5325 C 513.848 -2.06952 1.02174 0
M  V30 5326 C 514.818 -1.65984 -0.0621034 0
M  V30 5327 O 516.003 -1.90584 0.0907906 0
M  V30 5328 C 513.143 -3.39425 0.62327 0
M  V30 5329 C 512.256 -3.9364 1.77966 0
M  V30 5330 C 511.391 -5.14343 1.3276 0
M  V30 5331 C 510.43 -5.60733 2.45449 0
M  V30 5332 N 509.567 -6.72662 2.01172 0
M  V30 5333 H 514.407 -2.24704 1.95734 0
M  V30 5334 H 511.944 -1.10143 0.975034 0
M  V30 5335 H 513.902 -4.15526 0.37332 0
M  V30 5336 H 512.532 -3.21624 -0.275329 0
M  V30 5337 H 511.584 -3.14258 2.14351 0
M  V30 5338 H 512.896 -4.24035 2.62671 0
M  V30 5339 H 512.05 -5.97789 1.03601 0
M  V30 5340 H 510.789 -4.8561 0.450975 0
M  V30 5341 H 509.794 -4.75865 2.75378 0
M  V30 5342 H 511.019 -5.91483 3.33654 0
M  V30 5343 H 508.965 -6.45681 1.15895 0
M  V30 5344 H 508.882 -7.02462 2.79434 0
M  V30 5345 H 510.15 -7.59572 1.75129 0
M  V30 5346 N 514.379 -1.04941 -1.1758 0
M  V30 5347 C 515.628 -0.753124 -1.87112 0
M  V30 5348 C 515.941 0.722507 -1.81767 0
M  V30 5349 O 517.147 1.13265 -2.46746 0
M  V30 5350 C 515.603 -1.29695 -3.35719 0
M  V30 5351 C 515.211 -2.80184 -3.49572 0
M  V30 5352 C 516.955 -1.07759 -4.10595 0
M  V30 5353 C 514.862 -3.2788 -4.92187 0
M  V30 5354 H 513.792 -0.278034 -0.700866 0
M  V30 5355 H 516.443 -1.26637 -1.32798 0
M  V30 5356 H 514.825 -0.711522 -3.89555 0
M  V30 5357 H 515.999 -3.44561 -3.05965 0
M  V30 5358 H 514.314 -3.00632 -2.88113 0
M  V30 5359 H 516.911 -1.40899 -5.15802 0
M  V30 5360 H 517.254 -0.0152302 -4.16297 0
M  V30 5361 H 517.787 -1.62809 -3.62957 0
M  V30 5362 H 514.526 -4.33535 -4.91658 0
M  V30 5363 H 514.046 -2.68245 -5.36475 0
M  V30 5364 H 515.725 -3.22412 -5.60945 0
M  V30 5365 N 515.857 1.33968 -0.830081 0
M  V30 5366 C 517.103 1.98357 -0.422191 0
M  V30 5367 C 517.436 1.65633 1.01387 0
M  V30 5368 O 516.711 0.931648 1.70735 0
M  V30 5369 C 516.994 3.54492 -0.633043 0
M  V30 5370 C 516.847 3.96934 -2.11574 0
M  V30 5371 C 518.166 4.40039 -0.0735584 0
M  V30 5372 H 515.285 0.720544 -0.154871 0
M  V30 5373 H 517.927 1.58749 -1.04397 0
M  V30 5374 H 516.077 3.88361 -0.103775 0
M  V30 5375 H 517.749 3.73363 -2.7092 0
M  V30 5376 H 515.992 3.46984 -2.60354 0
M  V30 5377 H 516.663 5.05651 -2.21406 0
M  V30 5378 H 519.139 4.12764 -0.52585 0
M  V30 5379 H 518.015 5.48327 -0.250841 0
M  V30 5380 H 518.276 4.30124 1.02202 0
M  V30 5381 N 517.335 0.585699 1.46312 0
M  V30 5382 C 518.612 0.00542031 1.95599 0
M  V30 5383 C 518.992 -1.45619 1.52834 0
M  V30 5384 O 518.34 -2.14759 0.780446 0
M  V30 5385 C 518.55 0.180601 3.48532 0
M  V30 5386 C 519.898 0.049979 4.24571 0
M  V30 5387 O 520.922 0.109589 3.56031 0
M  V30 5388 O 519.781 -0.0832226 5.46437 0
M  V30 5389 H 516.875 -0.0481281 0.825598 0
M  V30 5390 H 519.421 0.654227 1.56582 0
M  V30 5391 H 518.193 1.19657 3.72556 0
M  V30 5392 H 517.816 -0.504498 3.94386 0
M  V30 5393 N 518.813 -1.54241 0.323641 0
M  V30 5394 C 520.041 -2.04985 -0.280871 0
M  V30 5395 C 520.456 -1.19978 -1.45777 0
M  V30 5396 O 519.813 -0.230471 -1.81039 0
M  V30 5397 C 519.864 -3.54353 -0.715258 0
M  V30 5398 O 519.585 -4.36132 0.414817 0
M  V30 5399 C 521.086 -4.21189 -1.38257 0
M  V30 5400 H 518.306 -0.66851 -0.0577502 0
M  V30 5401 H 520.85 -1.99029 0.469852 0
M  V30 5402 H 519.005 -3.60596 -1.41596 0
M  V30 5403 H 519.419 -5.2445 0.0725227 0
M  V30 5404 H 520.893 -5.27154 -1.63745 0
M  V30 5405 H 521.37 -3.72307 -2.32989 0
M  V30 5406 H 521.976 -4.19085 -0.724447 0
M  V30 5407 N 520.291 -0.0518155 -1.57515 0
M  V30 5408 C 521.519 0.631395 -1.9703 0
M  V30 5409 C 521.934 1.64341 -0.92938 0
M  V30 5410 O 521.291 1.82296 0.0863266 0
M  V30 5411 C 521.342 1.31774 -3.36627 0
M  V30 5412 O 521.063 0.346247 -4.3673 0
M  V30 5413 C 522.564 2.09065 -3.90905 0
M  V30 5414 H 519.784 0.172576 -0.648428 0
M  V30 5415 H 522.328 -0.118306 -2.04158 0
M  V30 5416 H 520.483 2.01867 -3.30649 0
M  V30 5417 H 520.897 0.836226 -5.17791 0
M  V30 5418 H 522.371 2.52508 -4.9086 0
M  V30 5419 H 522.848 2.93908 -3.26366 0
M  V30 5420 H 523.454 1.43882 -4.00223 0
M  V30 5421 N 521.769 1.56035 0.221574 0
M  V30 5422 C 522.994 1.83476 0.967026 0
M  V30 5423 C 523.419 0.632139 1.7716 0
M  V30 5424 O 522.777 -0.419082 1.7639 0
M  V30 5425 C 522.825 3.08907 1.86034 0
M  V30 5426 O 521.929 2.876 2.95567 0
M  V30 5427 H 521.27 0.604913 0.273817 0
M  V30 5428 H 523.8 2.03247 0.234893 0
M  V30 5429 H 523.81 3.3901 2.27016 0
M  V30 5430 H 522.485 3.96068 1.26898 0
M  V30 5431 H 521.062 2.6873 2.58532 0
M  V30 5432 N 523.247 -0.488276 1.49845 0
M  V30 5433 C 524.21 -1.57069 1.66919 0
M  V30 5434 C 525.21 -1.51445 0.540479 0
M  V30 5435 O 526.4 -1.5437 0.807188 0
M  V30 5436 C 523.532 -2.96718 1.67844 0
M  V30 5437 H 524.725 -1.43254 2.63474 0
M  V30 5438 H 522.278 -0.713435 1.39068 0
M  V30 5439 H 523.013 -3.15996 0.7292 0
M  V30 5440 H 522.798 -3.02208 2.49826 0
M  V30 5441 H 524.288 -3.75335 1.83066 0
M  V30 5442 N 524.725 -1.39134 -0.740242 0
M  V30 5443 C 525.635 -1.39697 -1.88473 0
M  V30 5444 C 526.651 -0.292403 -1.71526 0
M  V30 5445 O 527.827 -0.533021 -1.94219 0
M  V30 5446 C 524.892 -1.23382 -3.24003 0
M  V30 5447 C 523.953 -2.43763 -3.53381 0
M  V30 5448 C 523.186 -2.28216 -4.82445 0
M  V30 5449 O 523.409 -1.28288 -5.55786 0
M  V30 5450 O 522.343 -3.1709 -5.11603 0
M  V30 5451 H 526.169 -2.36159 -1.90952 0
M  V30 5452 H 523.754 -1.20194 -0.887346 0
M  V30 5453 H 525.636 -1.16395 -4.05006 0
M  V30 5454 H 524.311 -0.300121 -3.22306 0
M  V30 5455 H 523.218 -2.56325 -2.72485 0
M  V30 5456 H 524.551 -3.35808 -3.59852 0
M  V30 5457 N 526.204 0.969867 -1.24223 0
M  V30 5458 C 527.453 1.70687 -1.07466 0
M  V30 5459 C 527.766 1.91736 0.386861 0
M  V30 5460 O 528.972 2.62986 0.674581 0
M  V30 5461 C 527.428 3.07217 -1.87472 0
M  V30 5462 C 527.036 2.94018 -3.3802 0
M  V30 5463 C 528.78 3.84804 -1.79237 0
M  V30 5464 C 526.687 4.25844 -4.10379 0
M  V30 5465 H 525.617 0.640067 -0.398536 0
M  V30 5466 H 528.268 1.08092 -1.48285 0
M  V30 5467 H 526.65 3.70628 -1.39466 0
M  V30 5468 H 527.824 2.39632 -3.9359 0
M  V30 5469 H 526.139 2.29898 -3.47183 0
M  V30 5470 H 528.736 4.82417 -2.30603 0
M  V30 5471 H 529.079 4.09356 -0.757197 0
M  V30 5472 H 529.612 3.28115 -2.24912 0
M  V30 5473 H 526.351 4.06486 -5.14246 0
M  V30 5474 H 525.871 4.80054 -3.59594 0
M  V30 5475 H 527.55 4.94475 -4.17257 0
M  V30 5476 N 527.682 1.05563 1.17022 0
M  V30 5477 C 528.629 0.659893 2.21165 0
M  V30 5478 C 529.599 -0.339813 1.62587 0
M  V30 5479 O 530.784 -0.230378 1.89404 0
M  V30 5480 C 527.924 0.0447297 3.45071 0
M  V30 5481 C 527.037 1.09372 4.17926 0
M  V30 5482 C 526.172 0.445481 5.29329 0
M  V30 5483 C 525.211 1.47852 5.93975 0
M  V30 5484 N 524.348 0.854172 6.96885 0
M  V30 5485 H 529.188 1.55243 2.54369 0
M  V30 5486 H 526.725 0.776336 1.24946 0
M  V30 5487 H 528.683 -0.329404 4.15898 0
M  V30 5488 H 527.313 -0.811244 3.1244 0
M  V30 5489 H 526.365 1.58564 3.45777 0
M  V30 5490 H 527.677 1.87773 4.62107 0
M  V30 5491 H 526.831 0.0179688 6.06697 0
M  V30 5492 H 525.57 -0.370481 4.86291 0
M  V30 5493 H 524.575 1.91601 5.15334 0
M  V30 5494 H 525.8 2.29645 6.39093 0
M  V30 5495 H 523.746 0.0587882 6.55974 0
M  V30 5496 H 523.663 1.57567 7.39397 0
M  V30 5497 H 524.931 0.451559 7.78191 0
M  V30 5498 N 529.16 -1.33526 0.837174 0
M  V30 5499 C 530.409 -1.97098 0.428387 0
M  V30 5500 C 530.722 -1.67062 -1.01734 0
M  V30 5501 O 531.928 -2.24235 -1.53072 0
M  V30 5502 C 530.384 -3.52725 0.715075 0
M  V30 5503 C 529.992 -3.9164 2.17537 0
M  V30 5504 C 531.736 -4.22857 0.373154 0
M  V30 5505 C 529.643 -5.40237 2.40619 0
M  V30 5506 H 528.573 -0.737589 0.156455 0
M  V30 5507 H 531.224 -1.52169 1.02552 0
M  V30 5508 H 529.606 -3.95971 0.0475904 0
M  V30 5509 H 530.78 -3.59456 2.88319 0
M  V30 5510 H 529.095 -3.34485 2.4801 0
M  V30 5511 H 531.692 -5.32133 0.523264 0
M  V30 5512 H 532.035 -4.10647 -0.683708 0
M  V30 5513 H 532.568 -3.85135 0.995801 0
M  V30 5514 H 529.307 -5.57449 3.44864 0
M  V30 5515 H 528.827 -5.73887 1.74396 0
M  V30 5516 H 530.506 -6.07102 2.23688 0
M  V30 5517 N 530.638 -0.59345 -1.46 0
M  V30 5518 C 531.548 0.135817 -2.34207 0
M  V30 5519 C 532.564 0.875008 -1.50398 0
M  V30 5520 O 533.74 0.835778 -1.83239 0
M  V30 5521 C 530.805 1.12977 -3.27776 0
M  V30 5522 C 529.866 0.394081 -4.27487 0
M  V30 5523 C 529.099 1.34068 -5.16586 0
M  V30 5524 O 529.322 2.5778 -5.08828 0
M  V30 5525 O 528.256 0.845426 -5.95933 0
M  V30 5526 H 532.082 -0.588691 -2.9794 0
M  V30 5527 H 529.667 -0.353784 -1.45151 0
M  V30 5528 H 531.549 1.70261 -3.85473 0
M  V30 5529 H 530.224 1.83556 -2.66625 0
M  V30 5530 H 529.131 -0.220869 -3.73447 0
M  V30 5531 H 530.464 -0.270939 -4.91454 0
M  V30 5532 N 532.116 1.54067 -0.331816 0
M  V30 5533 C 533.049 2.20886 0.573127 0
M  V30 5534 C 534.027 1.18876 1.10938 0
M  V30 5535 O 535.211 1.47649 1.17184 0
M  V30 5536 C 532.338 2.87706 1.78726 0
M  V30 5537 C 531.384 4.03505 1.38152 0
M  V30 5538 S 532.217 5.33919 0.41123 0
M  V30 5539 C 533.373 6.04236 1.63246 0
M  V30 5540 H 533.606 2.97299 0.00555737 0
M  V30 5541 H 531.139 1.53964 -0.115893 0
M  V30 5542 H 533.097 3.26825 2.48386 0
M  V30 5543 H 531.758 2.1108 2.32603 0
M  V30 5544 H 530.951 4.49152 2.28645 0
M  V30 5545 H 530.553 3.66102 0.764524 0
M  V30 5546 H 532.845 6.26917 2.56869 0
M  V30 5547 H 533.788 6.97546 1.218 0
M  V30 5548 H 534.196 5.34247 1.82318 0
M  V30 5549 N 533.594 0.0601682 1.57485 0
M  V30 5550 C 534.504 -0.926121 2.15546 0
M  V30 5551 C 535.52 -1.33532 1.11558 0
M  V30 5552 O 536.696 -1.4104 1.4377 0
M  V30 5553 C 533.761 -2.17952 2.69625 0
M  V30 5554 C 532.822 -1.82783 3.88444 0
M  V30 5555 C 532.055 -3.02148 4.39935 0
M  V30 5556 O 532.278 -4.15803 3.90466 0
M  V30 5557 O 531.212 -2.82639 5.31412 0
M  V30 5558 H 535.038 -0.462289 3.00161 0
M  V30 5559 H 532.623 -0.162246 1.48516 0
M  V30 5560 H 534.505 -2.91474 3.04337 0
M  V30 5561 H 533.18 -2.63456 1.88077 0
M  V30 5562 H 532.087 -1.06549 3.58606 0
M  V30 5563 H 533.42 -1.42072 4.7125 0
M  V30 5564 N 535.072 -1.5615 -0.213296 0
M  V30 5565 C 536.483 -1.69645 -0.779582 0
M  V30 5566 C 536.834 -0.663615 -1.84636 0
M  V30 5567 O 535.959 0.183633 -2.15619 0
M  V30 5568 C 536.554 -3.07567 -1.42084 0
M  V30 5569 C 535.113 -3.22889 -1.93442 0
M  V30 5570 C 534.26 -2.65581 -0.797612 0
M  V30 5571 H 537.211 -1.58696 0.0114951 0
M  V30 5572 H 537.232 -3.03884 -2.28986 0
M  V30 5573 H 536.744 -3.82716 -0.644187 0
M  V30 5574 H 534.845 -2.52623 -2.73884 0
M  V30 5575 H 534.958 -4.30197 -2.10872 0
M  V30 5576 H 533.322 -2.24278 -1.20712 0
M  V30 5577 H 534.105 -3.43284 -0.033494 0
M  V30 5578 N 536.55 0.480323 -1.50102 0
M  V30 5579 C 537.46 1.60547 -1.71061 0
M  V30 5580 C 538.476 1.63564 -0.593529 0
M  V30 5581 O 539.652 1.81604 -0.870751 0
M  V30 5582 C 536.717 2.96814 -1.79171 0
M  V30 5583 C 535.778 3.04259 -3.02861 0
M  V30 5584 C 535.011 4.34027 -3.10574 0
M  V30 5585 O 535.234 5.24009 -2.25323 0
M  V30 5586 O 534.168 4.46873 -4.03223 0
M  V30 5587 H 537.994 1.45788 -2.6642 0
M  V30 5588 H 535.579 0.658838 -1.34088 0
M  V30 5589 H 537.461 3.77765 -1.86738 0
M  V30 5590 H 536.136 3.11791 -0.869947 0
M  V30 5591 H 535.043 2.22419 -3.008 0
M  V30 5592 H 536.376 2.94216 -3.94586 0
M  V30 5593 N 538.028 1.39524 0.732853 0
M  V30 5594 C 538.975 1.38416 1.84688 0
M  V30 5595 C 539.945 0.243539 1.64305 0
M  V30 5596 O 541.13 0.438979 1.85681 0
M  V30 5597 C 538.27 1.23555 3.22224 0
M  V30 5598 C 537.383 2.47179 3.54298 0
M  V30 5599 C 536.518 2.2489 4.81246 0
M  V30 5600 C 535.557 3.44178 5.0617 0
M  V30 5601 N 534.694 3.21192 6.24323 0
M  V30 5602 H 539.534 2.33645 1.84971 0
M  V30 5603 H 537.071 1.16059 0.903804 0
M  V30 5604 H 539.029 1.12949 4.0162 0
M  V30 5605 H 537.659 0.31954 3.21215 0
M  V30 5606 H 536.711 2.68379 2.69587 0
M  V30 5607 H 538.023 3.36022 3.68633 0
M  V30 5608 H 537.177 2.11538 5.68627 0
M  V30 5609 H 535.916 1.33443 4.69089 0
M  V30 5610 H 534.921 3.58025 4.17251 0
M  V30 5611 H 536.146 4.36528 5.20212 0
M  V30 5612 H 534.092 2.32413 6.1345 0
M  V30 5613 H 534.009 4.03594 6.39256 0
M  V30 5614 H 535.277 3.1154 7.14537 0
M  V30 5615 N 539.506 -0.963266 1.24736 0
M  V30 5616 C 540.416 -2.09246 1.06082 0
M  V30 5617 C 541.432 -1.74 0.000363101 0
M  V30 5618 O 542.608 -2.0041 0.199479 0
M  V30 5619 C 539.673 -3.40115 0.672498 0
M  V30 5620 C 538.734 -3.89282 1.80993 0
M  V30 5621 C 537.967 -5.13905 1.44004 0
M  V30 5622 O 538.19 -5.69434 0.331835 0
M  V30 5623 O 537.124 -5.57566 2.26723 0
M  V30 5624 H 540.95 -2.27881 2.00759 0
M  V30 5625 H 538.535 -1.07649 1.03595 0
M  V30 5626 H 540.417 -4.18797 0.467668 0
M  V30 5627 H 539.092 -3.22771 -0.245102 0
M  V30 5628 H 537.999 -3.11642 2.06955 0
M  V30 5629 H 539.332 -4.1111 2.70646 0
M  V30 5630 N 540.985 -1.06182 -1.16461 0
M  V30 5631 C 542.234 -0.772927 -1.86303 0
M  V30 5632 C 542.547 0.703187 -1.82523 0
M  V30 5633 O 543.753 1.10641 -2.47933 0
M  V30 5634 C 542.209 -1.33249 -3.34324 0
M  V30 5635 C 541.817 -2.83876 -3.46581 0
M  V30 5636 C 543.561 -1.12108 -4.09429 0
M  V30 5637 C 541.468 -3.33082 -4.88682 0
M  V30 5638 H 540.398 -0.285452 -0.697878 0
M  V30 5639 H 543.049 -1.28039 -1.31447 0
M  V30 5640 H 541.431 -0.7528 -3.88779 0
M  V30 5641 H 542.605 -3.47786 -3.02293 0
M  V30 5642 H 540.92 -3.03671 -2.84909 0
M  V30 5643 H 543.517 -1.46361 -5.14279 0
M  V30 5644 H 543.86 -0.0593832 -4.16258 0
M  V30 5645 H 544.393 -1.6665 -3.6121 0
M  V30 5646 H 541.132 -4.38726 -4.87032 0
M  V30 5647 H 540.652 -2.73919 -5.33599 0
M  V30 5648 H 542.331 -3.28344 -5.57494 0
M  V30 5649 N 542.463 1.3308 -0.844243 0
M  V30 5650 C 543.874 1.7992 -0.498566 0
M  V30 5651 C 544.225 1.69808 0.982834 0
M  V30 5652 O 543.35 1.25051 1.7661 0
M  V30 5653 C 543.945 3.26677 -0.898204 0
M  V30 5654 C 542.504 3.71513 -0.604583 0
M  V30 5655 C 541.651 2.54393 -1.10362 0
M  V30 5656 H 544.602 1.20526 -1.03244 0
M  V30 5657 H 544.623 3.79918 -0.21039 0
M  V30 5658 H 544.135 3.34004 -1.97643 0
M  V30 5659 H 542.236 3.69708 0.46335 0
M  V30 5660 H 542.349 4.64755 -1.16358 0
M  V30 5661 H 540.713 2.49246 -0.524273 0
M  V30 5662 H 541.496 2.6448 -2.18873 0
M  V30 5663 N 543.941 0.601185 1.45683 0
M  V30 5664 C 544.904 -0.111398 2.28929 0
M  V30 5665 C 545.904 -0.801246 1.39416 0
M  V30 5666 O 547.094 -0.650383 1.61603 0
M  V30 5667 C 544.226 -1.16773 3.20276 0
M  V30 5668 H 545.419 0.620412 2.93413 0
M  V30 5669 H 542.972 0.359946 1.52099 0
M  V30 5670 H 543.707 -1.93051 2.60579 0
M  V30 5671 H 543.492 -0.677358 3.86205 0
M  V30 5672 H 544.982 -1.66698 3.82886 0
M  V30 5673 N 545.419 -1.53889 0.339982 0
M  V30 5674 C 546.349 -2.27843 -0.510856 0
M  V30 5675 C 547.33 -1.29267 -1.10563 0
M  V30 5676 O 548.515 -1.58104 -1.12768 0
M  V30 5677 C 545.645 -3.04857 -1.66372 0
M  V30 5678 C 544.599 -4.10907 -1.19746 0
M  V30 5679 C 543.925 -4.75855 -2.43857 0
M  V30 5680 C 545.225 -5.21435 -0.300501 0
M  V30 5681 H 546.919 -2.99212 0.106067 0
M  V30 5682 H 544.465 -1.43904 0.0524533 0
M  V30 5683 H 546.418 -3.5533 -2.26537 0
M  V30 5684 H 545.142 -2.31133 -2.30749 0
M  V30 5685 H 543.801 -3.61342 -0.618654 0
M  V30 5686 H 543.449 -3.9873 -3.06633 0
M  V30 5687 H 543.149 -5.47502 -2.13343 0
M  V30 5688 H 544.673 -5.2911 -3.04754 0
M  V30 5689 H 546.087 -5.67565 -0.80889 0
M  V30 5690 H 544.484 -6.00036 -0.0874076 0
M  V30 5691 H 545.554 -4.80328 0.664321 0
M  V30 5692 N 546.897 -0.0685191 -1.57451 0
M  V30 5693 C 547.844 0.899861 -2.12535 0
M  V30 5694 C 548.814 1.29749 -1.03703 0
M  V30 5695 O 549.999 1.38392 -1.31348 0
M  V30 5696 C 547.139 2.16328 -2.6888 0
M  V30 5697 C 546.252 1.81857 -3.91857 0
M  V30 5698 C 545.387 3.02786 -4.36457 0
M  V30 5699 C 544.426 2.64317 -5.5209 0
M  V30 5700 N 543.563 3.77994 -5.91663 0
M  V30 5701 H 548.403 0.423243 -2.94979 0
M  V30 5702 H 545.94 0.197268 -1.45771 0
M  V30 5703 H 547.898 2.90281 -2.99655 0
M  V30 5704 H 546.528 2.61536 -1.89206 0
M  V30 5705 H 545.58 0.979808 -3.67565 0
M  V30 5706 H 546.892 1.49553 -4.75852 0
M  V30 5707 H 546.046 3.85021 -4.68875 0
M  V30 5708 H 544.785 3.38281 -3.51308 0
M  V30 5709 H 543.79 1.80503 -5.19325 0
M  V30 5710 H 545.015 2.29995 -6.38967 0
M  V30 5711 H 542.961 4.13258 -5.09464 0
M  V30 5712 H 542.878 3.49447 -6.7039 0
M  V30 5713 H 544.146 4.60818 -6.28703 0
M  V30 5714 N 548.375 1.56261 0.205012 0
M  V30 5715 C 549.285 1.96944 1.27476 0
M  V30 5716 C 550.301 0.875636 1.50362 0
M  V30 5717 O 551.477 1.18058 1.6317 0
M  V30 5718 C 548.542 2.29219 2.60115 0
M  V30 5719 C 547.603 3.52255 2.45387 0
M  V30 5720 C 546.836 3.8298 3.71701 0
M  V30 5721 O 547.059 3.15138 4.75441 0
M  V30 5722 O 545.993 4.76435 3.67823 0
M  V30 5723 H 549.819 2.88144 0.959527 0
M  V30 5724 H 547.404 1.43686 0.409217 0
M  V30 5725 H 549.286 2.51098 3.3842 0
M  V30 5726 H 547.961 1.4119 2.91285 0
M  V30 5727 H 546.868 3.35635 1.65227 0
M  V30 5728 H 548.201 4.40719 2.19152 0
M  V30 5729 N 549.853 -0.472356 1.50355 0
M  V30 5730 C 551.099 -1.22634 1.6152 0
M  V30 5731 C 551.432 -1.91645 0.313995 0
M  V30 5732 O 550.707 -1.82059 -0.684446 0
M  V30 5733 C 550.99 -2.27099 2.7946 0
M  V30 5734 C 550.843 -1.62402 4.19459 0
M  V30 5735 C 552.162 -3.28421 2.92964 0
M  V30 5736 H 549.281 -0.444494 0.587873 0
M  V30 5737 H 551.923 -0.520321 1.82737 0
M  V30 5738 H 550.073 -2.87314 2.61501 0
M  V30 5739 H 551.745 -1.05793 4.49005 0
M  V30 5740 H 549.988 -0.927184 4.23776 0
M  V30 5741 H 550.659 -2.38309 4.97909 0
M  V30 5742 H 553.135 -2.78227 3.09401 0
M  V30 5743 H 552.011 -3.98845 3.77113 0
M  V30 5744 H 552.272 -3.92467 2.03525 0
M  V30 5745 N 551.331 -1.39911 -0.725443 0
M  V30 5746 C 552.261 -1.42138 -1.85254 0
M  V30 5747 C 553.242 -0.283513 -1.67721 0
M  V30 5748 O 554.427 -0.490717 -1.87898 0
M  V30 5749 C 551.557 -1.27354 -3.23107 0
M  V30 5750 C 550.511 -2.3864 -3.55296 0
M  V30 5751 C 549.837 -2.08939 -4.92188 0
M  V30 5752 C 551.137 -3.8097 -3.57295 0
M  V30 5753 H 552.831 -2.36461 -1.83648 0
M  V30 5754 H 550.377 -1.13817 -0.882138 0
M  V30 5755 H 552.33 -1.2753 -4.01639 0
M  V30 5756 H 551.054 -0.295025 -3.25265 0
M  V30 5757 H 549.713 -2.37696 -2.79099 0
M  V30 5758 H 549.361 -1.09502 -4.90936 0
M  V30 5759 H 549.061 -2.83491 -5.14691 0
M  V30 5760 H 550.585 -2.10781 -5.73065 0
M  V30 5761 H 551.999 -3.8379 -4.25885 0
M  V30 5762 H 550.396 -4.5496 -3.9132 0
M  V30 5763 H 551.466 -4.11261 -2.5689 0
M  V30 5764 N 552.809 0.956637 -1.25245 0
M  V30 5765 C 553.756 2.053 -1.05454 0
M  V30 5766 C 554.726 1.66062 0.0356889 0
M  V30 5767 O 555.911 1.90415 -0.121099 0
M  V30 5768 C 553.051 3.38391 -0.677191 0
M  V30 5769 C 552.164 3.90758 -1.84206 0
M  V30 5770 C 551.299 5.12165 -1.40926 0
M  V30 5771 C 550.338 5.56757 -2.54338 0
M  V30 5772 N 549.475 6.69376 -2.11848 0
M  V30 5773 H 554.315 2.21562 -1.99284 0
M  V30 5774 H 551.852 1.08578 -0.992434 0
M  V30 5775 H 553.81 4.1488 -0.43938 0
M  V30 5776 H 552.44 3.22021 0.224127 0
M  V30 5777 H 551.492 3.10808 -2.19323 0
M  V30 5778 H 552.804 4.19802 -2.69383 0
M  V30 5779 H 551.958 5.96065 -1.13098 0
M  V30 5780 H 550.697 4.84832 -0.528175 0
M  V30 5781 H 549.702 4.71423 -2.82913 0
M  V30 5782 H 550.927 5.861 -3.43022 0
M  V30 5783 H 548.873 6.43756 -1.26153 0
M  V30 5784 H 548.79 6.97927 -2.90574 0
M  V30 5785 H 550.058 7.5669 -1.87191 0
M  V30 5786 N 554.287 1.06798 1.15896 0
M  V30 5787 C 555.564 0.701057 1.82605 0
M  V30 5788 C 555.944 -0.817066 1.94646 0
M  V30 5789 O 555.292 -1.72933 1.49353 0
M  V30 5790 C 555.502 1.40895 3.19296 0
M  V30 5791 C 556.85 1.55744 3.95005 0
M  V30 5792 O 557.874 1.36927 3.28831 0
M  V30 5793 O 556.733 1.86658 5.13635 0
M  V30 5794 H 553.827 0.248791 0.78869 0
M  V30 5795 H 556.373 1.16857 1.23055 0
M  V30 5796 H 555.145 2.4439 3.05596 0
M  V30 5797 H 554.768 0.931847 3.86526 0
M  V30 5798 N 555.766 -1.3263 0.851289 0
M  V30 5799 C 556.996 -2.01271 0.466222 0
M  V30 5800 C 557.404 -1.64156 -0.940714 0
M  V30 5801 O 556.747 -0.857109 -1.62479 0
M  V30 5802 C 556.809 -3.55695 0.521672 0
M  V30 5803 C 556.473 -4.16227 1.88691 0
M  V30 5804 C 557.47 -4.34699 2.85189 0
M  V30 5805 C 555.155 -4.52377 2.18313 0
M  V30 5806 C 557.149 -4.88484 4.09465 0
M  V30 5807 C 554.836 -5.05868 3.42843 0
M  V30 5808 C 555.834 -5.23869 4.38235 0
M  V30 5809 O 555.522 -5.76218 5.6056 0
M  V30 5810 H 555.254 -0.651034 0.18202 0
M  V30 5811 H 557.808 -1.7026 1.14894 0
M  V30 5812 H 556.038 -3.86086 -0.217888 0
M  V30 5813 H 557.727 -4.05613 0.152682 0
M  V30 5814 H 558.493 -4.07107 2.63607 0
M  V30 5815 H 554.372 -4.37652 1.44851 0
M  V30 5816 H 557.916 -5.02451 4.83931 0
M  V30 5817 H 553.813 -5.32891 3.64277 0
M  V30 5818 H 554.581 -5.94616 5.62471 0
M  V30 5819 N 557.244 -0.608902 -1.45362 0
M  V30 5820 C 558.491 -0.104607 -2.0223 0
M  V30 5821 C 558.819 1.26534 -1.47714 0
M  V30 5822 O 558.074 1.84855 -0.642435 0
M  V30 5823 C 558.373 -0.0167296 -3.57396 0
M  V30 5824 C 558.039 -1.32251 -4.31069 0
M  V30 5825 C 556.701 -1.68019 -4.50914 0
M  V30 5826 C 559.053 -2.18542 -4.73169 0
M  V30 5827 C 556.381 -2.89828 -5.10114 0
M  V30 5828 C 558.733 -3.39602 -5.33717 0
M  V30 5829 C 557.397 -3.7562 -5.51784 0
M  V30 5830 H 556.667 -0.0382785 -0.740011 0
M  V30 5831 H 559.314 -0.790782 -1.7441 0
M  V30 5832 H 557.619 0.752715 -3.84502 0
M  V30 5833 H 559.316 0.389634 -3.99103 0
M  V30 5834 H 555.906 -1.03411 -4.15938 0
M  V30 5835 H 560.09 -1.92208 -4.5757 0
M  V30 5836 H 555.346 -3.17839 -5.22291 0
M  V30 5837 H 559.52 -4.06716 -5.65292 0
M  V30 5838 H 557.147 -4.70093 -5.97425 0
M  V30 5839 N 558.722 1.53707 -0.348139 0
M  V30 5840 C 559.669 2.25173 0.506518 0
M  V30 5841 C 560.639 1.25174 1.09182 0
M  V30 5842 O 561.824 1.53917 1.12757 0
M  V30 5843 C 558.964 3.03141 1.64923 0
M  V30 5844 C 558.077 4.18002 1.0908 0
M  V30 5845 C 557.212 4.83447 2.20119 0
M  V30 5846 C 556.251 5.90369 1.61651 0
M  V30 5847 N 555.388 6.49575 2.66451 0
M  V30 5848 H 560.228 2.97799 -0.109452 0
M  V30 5849 H 557.765 1.46953 -0.0657866 0
M  V30 5850 H 559.723 3.46607 2.32205 0
M  V30 5851 H 558.353 2.32803 2.23612 0
M  V30 5852 H 557.405 3.79145 0.308783 0
M  V30 5853 H 558.717 4.94892 0.623178 0
M  V30 5854 H 557.871 5.30008 2.95257 0
M  V30 5855 H 556.61 4.05991 2.70227 0
M  V30 5856 H 555.615 5.43186 0.850209 0
M  V30 5857 H 556.84 6.69735 1.1239 0
M  V30 5858 H 554.786 5.74981 3.15805 0
M  V30 5859 H 554.703 7.21952 2.24325 0
M  V30 5860 H 555.971 7.00789 3.41344 0
M  V30 5861 N 560.2 0.0768682 1.57412 0
M  V30 5862 C 561.446 -0.591961 1.93968 0
M  V30 5863 C 561.779 -1.68954 0.9575 0
M  V30 5864 O 561.054 -1.94496 -0.0124675 0
M  V30 5865 C 561.337 -1.16418 3.40762 0
M  V30 5866 C 561.19 -0.0728933 4.49741 0
M  V30 5867 C 562.509 -2.06814 3.88479 0
M  V30 5868 H 559.628 -0.213716 0.705333 0
M  V30 5869 H 562.27 0.14387 1.89455 0
M  V30 5870 H 560.42 -1.79128 3.4474 0
M  V30 5871 H 562.092 0.560446 4.57883 0
M  V30 5872 H 560.335 0.595859 4.29688 0
M  V30 5873 H 561.006 -0.513755 5.49604 0
M  V30 5874 H 563.482 -1.54033 3.8654 0
M  V30 5875 H 562.358 -2.43785 4.91793 0
M  V30 5876 H 562.619 -2.97844 3.26713 0
M  V30 5877 N 561.678 -1.56367 -0.196722 0
M  V30 5878 C 562.926 -1.80172 -0.915554 0
M  V30 5879 C 563.247 -0.649649 -1.8386 0
M  V30 5880 O 562.517 0.332111 -1.93064 0
M  V30 5881 H 561.097 -0.664592 -0.341067 0
M  V30 5882 H 563.759 -1.93844 -0.202622 0
M  V30 5883 H 562.855 -2.7327 -1.50764 0
M  V30 5884 N 563.156 0.464375 -1.50603 0
M  V30 5885 C 564.402 1.21776 -1.62168 0
M  V30 5886 C 564.735 1.91476 -0.324154 0
M  V30 5887 O 564.01 1.8242 0.674782 0
M  V30 5888 C 564.293 2.25614 -2.80661 0
M  V30 5889 C 564.146 1.60175 -4.20314 0
M  V30 5890 C 565.465 3.26862 -2.94702 0
M  V30 5891 H 562.584 0.44137 -0.590222 0
M  V30 5892 H 565.226 0.510623 -1.8301 0
M  V30 5893 H 563.376 2.85923 -2.63021 0
M  V30 5894 H 565.048 1.03411 -4.4956 0
M  V30 5895 H 563.291 0.904697 -4.24261 0
M  V30 5896 H 563.962 2.35665 -4.99165 0
M  V30 5897 H 566.438 2.76582 -3.10872 0
M  V30 5898 H 565.314 3.96839 -3.79223 0
M  V30 5899 H 565.575 3.91382 -2.05603 0
M  V30 5900 N 564.634 1.40294 0.718013 0
M  V30 5901 C 565.597 1.4012 1.81381 0
M  V30 5902 C 566.597 0.295405 1.58063 0
M  V30 5903 O 567.787 0.554187 1.6515 0
M  V30 5904 C 564.919 1.19056 3.19435 0
M  V30 5905 H 566.112 2.37645 1.82933 0
M  V30 5906 H 563.665 1.26107 0.923405 0
M  V30 5907 H 564.4 0.222809 3.23534 0
M  V30 5908 H 564.185 1.99152 3.37758 0
M  V30 5909 H 565.675 1.21716 3.99468 0
M  V30 5910 N 566.112 -0.949982 1.2575 0
M  V30 5911 C 567.042 -2.06483 1.09028 0
M  V30 5912 C 568.023 -1.701 -0.00201532 0
M  V30 5913 O 569.208 -1.93469 0.168383 0
M  V30 5914 C 566.338 -3.39899 0.71316 0
M  V30 5915 C 565.292 -3.90309 1.75621 0
M  V30 5916 C 564.618 -5.20274 1.23365 0
M  V30 5917 C 565.918 -4.16169 3.15596 0
M  V30 5918 H 567.612 -2.20731 2.02283 0
M  V30 5919 H 565.158 -1.06066 0.973964 0
M  V30 5920 H 567.111 -4.17346 0.58309 0
M  V30 5921 H 565.835 -3.25602 -0.255091 0
M  V30 5922 H 564.494 -3.15035 1.8748 0
M  V30 5923 H 564.142 -5.02351 0.255491 0
M  V30 5924 H 563.842 -5.54971 1.93082 0
M  V30 5925 H 565.366 -6.00314 1.11607 0
M  V30 5926 H 566.78 -4.84259 3.06864 0
M  V30 5927 H 565.177 -4.62131 3.82825 0
M  V30 5928 H 566.247 -3.22273 3.6231 0
M  V30 5929 N 567.59 -1.07411 -1.15328 0
M  V30 5930 C 569.001 -0.820261 -1.67716 0
M  V30 5931 C 569.352 0.654539 -1.8496 0
M  V30 5932 O 568.477 1.50664 -1.55337 0
M  V30 5933 C 569.072 -1.48242 -3.04647 0
M  V30 5934 C 567.631 -1.27606 -3.5411 0
M  V30 5935 C 566.778 -1.5517 -2.29821 0
M  V30 5936 H 569.729 -1.23608 -0.995332 0
M  V30 5937 H 569.75 -0.903984 -3.69606 0
M  V30 5938 H 569.262 -2.55578 -2.92064 0
M  V30 5939 H 567.363 -0.222948 -3.71932 0
M  V30 5940 H 567.476 -1.99667 -4.35511 0
M  V30 5941 H 565.84 -0.972747 -2.35393 0
M  V30 5942 H 566.623 -2.63689 -2.19824 0
M  V30 5943 N 569.068 1.32177 -0.85831 0
M  V30 5944 C 570.293 2.01847 -0.476718 0
M  V30 5945 C 570.718 1.64065 0.920021 0
M  V30 5946 O 570.076 0.843189 1.60499 0
M  V30 5947 C 570.124 3.55097 -0.627578 0
M  V30 5948 O 569.228 4.11012 0.338086 0
M  V30 5949 H 568.569 0.635907 -0.191099 0
M  V30 5950 H 571.099 1.68641 -1.15851 0
M  V30 5951 H 571.109 4.04718 -0.516476 0
M  V30 5952 H 569.784 3.81938 -1.64609 0
M  V30 5953 H 568.361 3.72451 0.182917 0
M  V30 5954 N 570.547 0.616602 1.45037 0
M  V30 5955 C 571.494 -0.0969439 2.30596 0
M  V30 5956 C 572.464 -0.851151 1.42635 0
M  V30 5957 O 573.649 -0.835092 1.71554 0
M  V30 5958 C 570.789 -1.08234 3.27688 0
M  V30 5959 C 569.902 -0.328072 4.30752 0
M  V30 5960 C 569.037 -1.30399 5.14946 0
M  V30 5961 C 568.076 -0.538049 6.09731 0
M  V30 5962 N 567.213 -1.46371 6.86673 0
M  V30 5963 H 572.053 0.63864 2.91076 0
M  V30 5964 H 569.59 0.326733 1.43425 0
M  V30 5965 H 571.548 -1.66688 3.82454 0
M  V30 5966 H 570.178 -1.78523 2.68941 0
M  V30 5967 H 569.23 0.372136 3.78575 0
M  V30 5968 H 570.542 0.269142 4.98073 0
M  V30 5969 H 569.696 -1.96032 5.74157 0
M  V30 5970 H 568.435 -1.93514 4.47665 0
M  V30 5971 H 567.44 0.131852 5.49642 0
M  V30 5972 H 568.665 0.0881732 6.79043 0
M  V30 5973 H 566.611 -2.08233 6.22073 0
M  V30 5974 H 566.528 -0.920152 7.50379 0
M  V30 5975 H 567.796 -2.10932 7.50418 0
M  V30 5976 N 572.025 -1.5352 0.356285 0
M  V30 5977 C 573.271 -2.01414 -0.236653 0
M  V30 5978 C 573.604 -1.24339 -1.49176 0
M  V30 5979 O 572.879 -0.334496 -1.91602 0
M  V30 5980 C 573.162 -3.56059 -0.537982 0
M  V30 5981 C 573.015 -4.43835 0.730112 0
M  V30 5982 C 574.334 -4.19127 -1.34239 0
M  V30 5983 H 571.453 -0.732135 -0.0845386 0
M  V30 5984 H 574.095 -1.83854 0.479341 0
M  V30 5985 H 572.245 -3.71153 -1.14795 0
M  V30 5986 H 573.917 -4.40555 1.36782 0
M  V30 5987 H 572.16 -4.1218 1.3524 0
M  V30 5988 H 572.831 -5.49958 0.474358 0
M  V30 5989 H 575.307 -4.07809 -0.826498 0
M  V30 5990 H 574.183 -5.27378 -1.52198 0
M  V30 5991 H 574.444 -3.74581 -2.34822 0
M  V30 5992 N 573.503 -0.0852151 -1.57369 0
M  V30 5993 C 574.75 0.580806 -1.93992 0
M  V30 5994 C 575.078 1.68801 -0.966252 0
M  V30 5995 O 574.333 1.95694 0.0158649 0
M  V30 5996 C 574.632 1.18482 -3.3719 0
M  V30 5997 C 574.298 0.2024 -4.50446 0
M  V30 5998 C 572.96 -0.0678318 -4.81152 0
M  V30 5999 C 575.312 -0.46895 -5.19086 0
M  V30 6000 C 572.64 -1.01627 -5.77831 0
M  V30 6001 C 574.992 -1.4058 -6.16782 0
M  V30 6002 C 573.656 -1.68436 -6.45899 0
M  V30 6003 H 572.926 0.212532 -0.709867 0
M  V30 6004 H 575.573 -0.158947 -1.90839 0
M  V30 6005 H 573.878 2.0006 -3.36873 0
M  V30 6006 H 575.575 1.70767 -3.62822 0
M  V30 6007 H 572.165 0.423208 -4.26505 0
M  V30 6008 H 576.349 -0.273307 -4.95547 0
M  V30 6009 H 571.605 -1.2392 -5.9871 0
M  V30 6010 H 575.779 -1.93188 -6.69068 0
M  V30 6011 H 573.406 -2.42088 -7.20623 0
M  V30 6012 N 574.981 1.5647 0.188427 0
M  V30 6013 C 575.911 1.98101 1.23606 0
M  V30 6014 C 576.892 0.853961 1.47111 0
M  V30 6015 O 578.077 1.11879 1.58735 0
M  V30 6016 C 575.207 2.32624 2.57882 0
M  V30 6017 C 574.161 3.48129 2.48978 0
M  V30 6018 C 573.487 3.68347 3.87588 0
M  V30 6019 C 574.787 4.82112 2.00911 0
M  V30 6020 H 576.481 2.85864 0.890068 0
M  V30 6021 H 574.027 1.37532 0.426714 0
M  V30 6022 H 575.98 2.60343 3.3136 0
M  V30 6023 H 574.704 1.41751 2.94235 0
M  V30 6024 H 573.363 3.20511 1.77956 0
M  V30 6025 H 573.011 2.74793 4.21305 0
M  V30 6026 H 572.711 4.46055 3.82503 0
M  V30 6027 H 574.235 3.98449 4.62678 0
M  V30 6028 H 575.649 5.08819 2.64151 0
M  V30 6029 H 574.046 5.63337 2.06814 0
M  V30 6030 H 575.116 4.75249 0.96262 0
M  V30 6031 N 576.459 -0.456382 1.50847 0
M  V30 6032 C 577.407 -1.57318 1.71329 0
M  V30 6033 C 578.401 -1.59187 0.579287 0
M  V30 6034 O 579.607 -1.6316 0.76018 0
M  V30 6035 H 575.982 -0.5223 0.541024 0
M  V30 6036 H 577.953 -1.3721 2.64983 0
M  V30 6037 C 576.702 -2.95142 1.83811 0
M  V30 6038 H 576.025 -2.94428 2.70467 0
M  V30 6039 H 577.465 -3.72702 2.02161 0
M  V30 6040 C 575.924 -3.31636 0.593224 0
M  V30 6041 O 576.454 -4.00852 -0.260898 0
M  V30 6042 N 574.66 -2.87205 0.442902 0
M  V30 6043 H 574.207 -2.31051 1.13901 0
M  V30 6044 H 574.165 -3.11986 -0.38884 0
M  V30 6045 N 577.937 -1.40673 -0.710563 0
M  V30 6046 C 579.348 -1.34975 -1.28991 0
M  V30 6047 C 579.699 -0.0256272 -1.96183 0
M  V30 6048 O 578.824 0.876339 -1.97862 0
M  V30 6049 C 579.419 -2.44467 -2.34567 0
M  V30 6050 C 577.978 -2.42213 -2.88114 0
M  V30 6051 C 577.125 -2.25085 -1.61963 0
M  V30 6052 H 580.076 -1.50406 -0.506343 0
M  V30 6053 H 580.097 -2.12663 -3.15523 0
M  V30 6054 H 579.609 -3.40825 -1.85634 0
M  V30 6055 H 577.71 -1.49568 -3.41263 0
M  V30 6056 H 577.823 -3.37983 -3.39565 0
M  V30 6057 H 576.187 -1.72691 -1.87216 0
M  V30 6058 H 576.97 -3.23449 -1.15047 0
M  V30 6059 N 579.415 0.9433 -1.26252 0
M  V30 6060 C 580.362 2.0417 -1.07625 0
M  V30 6061 C 581.332 1.6609 0.0180738 0
M  V30 6062 O 582.517 1.90276 -0.141289 0
M  V30 6063 C 579.657 3.37653 -0.713043 0
M  V30 6064 C 578.77 3.88783 -1.8834 0
M  V30 6065 C 577.905 5.10642 -1.4635 0
M  V30 6066 C 576.944 5.54028 -2.60229 0
M  V30 6067 N 576.081 6.67092 -2.18936 0
M  V30 6068 H 580.921 2.19436 -2.01623 0
M  V30 6069 H 578.458 1.07519 -1.00389 0
M  V30 6070 H 580.416 4.14391 -0.483358 0
M  V30 6071 H 579.046 3.22241 0.18996 0
M  V30 6072 H 578.098 3.08464 -2.22608 0
M  V30 6073 H 579.41 4.16922 -2.73821 0
M  V30 6074 H 578.564 5.94832 -1.19414 0
M  V30 6075 H 577.303 4.84244 -0.579568 0
M  V30 6076 H 576.308 4.68396 -2.87898 0
M  V30 6077 H 577.533 5.82429 -3.49219 0
M  V30 6078 H 575.479 6.42381 -1.32974 0
M  V30 6079 H 575.396 6.94806 -2.97961 0
M  V30 6080 H 576.664 7.54662 -1.95206 0
M  V30 6081 N 580.893 1.08022 1.14757 0
M  V30 6082 C 582.17 0.720386 1.81851 0
M  V30 6083 C 582.55 -0.796375 1.95502 0
M  V30 6084 O 581.898 -1.71339 1.51179 0
M  V30 6085 C 582.108 1.44273 3.17783 0
M  V30 6086 C 583.456 1.59925 3.93331 0
M  V30 6087 O 584.48 1.40407 3.2736 0
M  V30 6088 O 583.339 1.92096 5.11626 0
M  V30 6089 H 580.433 0.257142 0.786007 0
M  V30 6090 H 582.979 1.18155 1.21809 0
M  V30 6091 H 581.751 2.47618 3.02987 0
M  V30 6092 H 581.374 0.97279 3.85516 0
M  V30 6093 N 582.371 -1.3172 0.865308 0
M  V30 6094 C 583.62 -1.96145 0.470098 0
M  V30 6095 C 583.933 -1.69182 -0.981674 0
M  V30 6096 O 585.139 -2.27431 -1.48281 0
M  V30 6097 C 583.595 -3.51129 0.789732 0
M  V30 6098 C 583.203 -3.86938 2.25795 0
M  V30 6099 C 584.947 -4.2197 0.462765 0
M  V30 6100 C 582.854 -5.35012 2.52024 0
M  V30 6101 H 581.784 -0.734105 0.172065 0
M  V30 6102 H 584.435 -1.49959 1.05757 0
M  V30 6103 H 582.817 -3.95781 0.131571 0
M  V30 6104 H 583.991 -3.5326 2.95879 0
M  V30 6105 H 582.306 -3.29149 2.55049 0
M  V30 6106 H 584.903 -5.30904 0.636019 0
M  V30 6107 H 585.246 -4.12005 -0.59645 0
M  V30 6108 H 585.779 -3.82936 1.07727 0
M  V30 6109 H 582.518 -5.50008 3.56611 0
M  V30 6110 H 582.038 -5.70058 1.8653 0
M  V30 6111 H 583.717 -6.0222 2.36515 0
M  V30 6112 N 583.85 -0.624285 -1.44708 0
M  V30 6113 C 584.76 0.0861083 -2.34442 0
M  V30 6114 C 585.776 0.84291 -1.5222 0
M  V30 6115 O 586.952 0.796723 -1.84971 0
M  V30 6116 C 584.017 1.05999 -3.30099 0
M  V30 6117 C 583.077 0.303316 -4.28227 0
M  V30 6118 C 582.311 1.23081 -5.19314 0
M  V30 6119 O 582.534 2.46929 -5.14181 0
M  V30 6120 O 581.468 0.71883 -5.97592 0
M  V30 6121 H 585.293 -0.651756 -2.96624 0
M  V30 6122 H 582.879 -0.384493 -1.44368 0
M  V30 6123 H 584.76 1.62046 -3.88997 0
M  V30 6124 H 583.436 1.77859 -2.70459 0
M  V30 6125 H 582.343 -0.300033 -3.72895 0
M  V30 6126 H 583.676 -0.375123 -4.90768 0
M  V30 6127 N 585.328 1.53329 -0.364422 0
M  V30 6128 C 586.258 2.28627 0.474543 0
M  V30 6129 C 587.239 1.31009 1.08492 0
M  V30 6130 O 588.424 1.59878 1.10239 0
M  V30 6131 C 585.554 3.07465 1.61501 0
M  V30 6132 C 584.508 4.1276 1.13194 0
M  V30 6133 C 583.834 4.79674 2.36255 0
M  V30 6134 C 585.134 5.21847 0.217507 0
M  V30 6135 H 586.828 2.99005 -0.153656 0
M  V30 6136 H 584.374 1.43803 -0.0753406 0
M  V30 6137 H 586.327 3.58889 2.20855 0
M  V30 6138 H 585.051 2.34775 2.27042 0
M  V30 6139 H 583.71 3.62281 0.56109 0
M  V30 6140 H 583.358 4.03557 3.00251 0
M  V30 6141 H 583.058 5.50827 2.04606 0
M  V30 6142 H 584.582 5.33892 2.96297 0
M  V30 6143 H 585.996 5.6878 0.718493 0
M  V30 6144 H 584.393 6.00099 -0.00806408 0
M  V30 6145 H 585.463 4.7921 -0.740653 0
M  V30 6146 N 586.806 0.0935595 1.57322 0
M  V30 6147 C 588.055 -0.570191 1.93473 0
M  V30 6148 C 588.368 -1.69434 0.977318 0
M  V30 6149 O 589.574 -2.41914 1.23248 0
M  V30 6150 C 588.03 -1.06564 3.43762 0
M  V30 6151 C 587.638 0.0286723 4.47991 0
M  V30 6152 C 589.382 -1.70221 3.88877 0
M  V30 6153 C 587.289 -0.482046 5.89432 0
M  V30 6154 H 586.219 -0.216764 0.72217 0
M  V30 6155 H 588.87 0.169313 1.82717 0
M  V30 6156 H 587.252 -1.85878 3.49664 0
M  V30 6157 H 588.426 0.804106 4.5373 0
M  V30 6158 H 586.741 0.570336 4.12476 0
M  V30 6159 H 589.338 -2.09502 4.91948 0
M  V30 6160 H 589.681 -2.57078 3.27439 0
M  V30 6161 H 590.214 -0.974919 3.85668 0
M  V30 6162 H 586.953 0.349871 6.54566 0
M  V30 6163 H 586.473 -1.22452 5.87167 0
M  V30 6164 H 588.152 -0.951508 6.39965 0
M  V30 6165 N 588.284 -1.56567 -0.180126 0
M  V30 6166 C 589.512 -1.85618 -0.913972 0
M  V30 6167 C 589.927 -0.677892 -1.7621 0
M  V30 6168 O 589.284 0.353171 -1.7905 0
M  V30 6169 C 589.335 -3.13619 -1.79793 0
M  V30 6170 O 589.056 -4.26906 -0.98402 0
M  V30 6171 C 590.557 -3.55954 -2.64219 0
M  V30 6172 H 587.777 -0.616043 -0.265954 0
M  V30 6173 H 590.321 -2.03681 -0.182872 0
M  V30 6174 H 588.476 -2.97409 -2.48247 0
M  V30 6175 H 588.89 -4.9989 -1.58776 0
M  V30 6176 H 590.364 -4.48444 -3.21873 0
M  V30 6177 H 590.841 -2.79653 -3.38661 0
M  V30 6178 H 591.447 -3.74746 -2.01111 0
M  V30 6179 N 589.762 0.448376 -1.51087 0
M  V30 6180 C 590.709 1.54341 -1.71603 0
M  V30 6181 C 591.679 1.56463 -0.557536 0
M  V30 6182 O 592.864 1.73644 -0.79072 0
M  V30 6183 C 590.004 2.92148 -1.83695 0
M  V30 6184 C 589.117 2.99639 -3.11192 0
M  V30 6185 C 588.252 4.285 -3.13944 0
M  V30 6186 C 587.291 4.29819 -4.35801 0
M  V30 6187 N 586.428 5.50186 -4.36164 0
M  V30 6188 H 591.268 1.36151 -2.65079 0
M  V30 6189 H 588.805 0.661585 -1.31383 0
M  V30 6190 H 590.763 3.72093 -1.88687 0
M  V30 6191 H 589.393 3.0892 -0.936374 0
M  V30 6192 H 588.445 2.12425 -3.15562 0
M  V30 6193 H 589.757 2.96474 -4.01129 0
M  V30 6194 H 588.911 5.16811 -3.17791 0
M  V30 6195 H 587.65 4.34307 -2.21876 0
M  V30 6196 H 586.655 3.39902 -4.32142 0
M  V30 6197 H 587.88 4.25685 -5.29121 0
M  V30 6198 H 585.826 5.56735 -3.46961 0
M  V30 6199 H 585.743 5.48856 -5.19897 0
M  V30 6200 H 587.011 6.40559 -4.44189 0
M  V30 6201 N 591.24 1.41047 0.703093 0
M  V30 6202 C 592.19 1.38774 1.80903 0
M  V30 6203 C 593.174 0.263275 1.58731 0
M  V30 6204 O 594.366 0.503362 1.69692 0
M  V30 6205 C 591.495 1.26497 3.19145 0
M  V30 6206 C 590.581 2.43775 3.47037 0
M  V30 6207 N 590.972 3.69249 3.45672 0
M  V30 6208 C 589.27 2.37425 3.77552 0
M  V30 6209 C 589.971 4.46989 3.72258 0
M  V30 6210 N 588.947 3.76998 3.91629 0
M  V30 6211 H 592.749 2.33714 1.78199 0
M  V30 6212 H 590.263 1.34996 0.902762 0
M  V30 6213 H 592.26 1.2295 3.98358 0
M  V30 6214 H 590.92 0.32534 3.23066 0
M  V30 6215 H 591.931 4.02239 3.26228 0
M  V30 6216 H 588.608 1.51895 3.88888 0
M  V30 6217 H 589.998 5.55894 3.77402 0
M  V30 6218 N 592.718 -0.936591 1.26751 0
M  V30 6219 C 593.965 -1.68331 1.12566 0
M  V30 6220 C 594.293 -1.91677 -0.330168 0
M  V30 6221 O 593.548 -1.49859 -1.2586 0
M  V30 6222 C 593.847 -3.06099 1.84494 0
M  V30 6223 C 593.513 -3.02493 3.34378 0
M  V30 6224 C 592.175 -3.01217 3.75262 0
M  V30 6225 C 594.527 -2.94453 4.30055 0
M  V30 6226 C 591.855 -2.89672 5.10203 0
M  V30 6227 C 594.207 -2.84449 5.65041 0
M  V30 6228 C 592.871 -2.81518 6.0523 0
M  V30 6229 H 592.141 -0.615965 0.411907 0
M  V30 6230 H 594.788 -1.09292 1.5725 0
M  V30 6231 H 593.093 -3.6879 1.32292 0
M  V30 6232 H 594.79 -3.62733 1.70955 0
M  V30 6233 H 591.38 -3.04269 3.01858 0
M  V30 6234 H 595.564 -2.94544 3.99447 0
M  V30 6235 H 590.82 -2.85783 5.40498 0
M  V30 6236 H 594.994 -2.77192 6.38856 0
M  V30 6237 H 592.621 -2.72329 7.09747 0
M  V30 6238 N 594.196 -1.08629 -1.14182 0
M  V30 6239 C 595.144 -0.71284 -2.21408 0
M  V30 6240 C 596.138 0.282457 -1.67029 0
M  V30 6241 O 597.344 0.144783 -1.79417 0
M  V30 6242 H 593.719 -0.212497 -0.721352 0
M  V30 6243 H 595.69 -1.6265 -2.50175 0
M  V30 6244 C 594.439 -0.140704 -3.47415 0
M  V30 6245 H 593.762 -0.897739 -3.8959 0
M  V30 6246 H 595.202 0.0827677 -4.23919 0
M  V30 6247 C 593.661 1.122 -3.17668 0
M  V30 6248 O 594.191 2.20652 -3.35672 0
M  V30 6249 N 592.397 1.03328 -2.71609 0
M  V30 6250 H 591.944 0.150666 -2.57159 0
M  V30 6251 H 591.902 1.8789 -2.52081 0
M  V30 6252 N 595.674 1.31259 -0.872281 0
M  V30 6253 C 596.899 2.0133 -0.498099 0
M  V30 6254 C 597.324 1.65031 0.902568 0
M  V30 6255 O 596.682 0.860164 1.59596 0
M  V30 6256 C 596.73 3.54411 -0.665205 0
M  V30 6257 O 595.834 4.11347 0.294473 0
M  V30 6258 H 595.175 0.633844 -0.197832 0
M  V30 6259 H 597.705 1.67402 -1.17633 0
M  V30 6260 H 597.715 4.04147 -0.559373 0
M  V30 6261 H 596.39 3.80171 -1.68651 0
M  V30 6262 H 594.967 3.72624 0.143403 0
M  V30 6263 N 597.152 0.631951 1.44375 0
M  V30 6264 C 598.401 0.134214 2.01253 0
M  V30 6265 C 598.714 -1.25171 1.50305 0
M  V30 6266 O 599.92 -1.8435 1.99317 0
M  V30 6267 C 598.376 0.189187 3.59402 0
M  V30 6268 C 597.984 1.57647 4.19346 0
M  V30 6269 C 599.728 -0.252044 4.23751 0
M  V30 6270 C 597.635 1.58651 5.69722 0
M  V30 6271 H 596.565 0.0464101 0.75257 0
M  V30 6272 H 599.216 0.790868 1.65582 0
M  V30 6273 H 597.598 -0.534584 3.92375 0
M  V30 6274 H 598.772 2.32389 3.97909 0
M  V30 6275 H 597.087 1.96186 3.67288 0
M  V30 6276 H 599.684 -0.264084 5.34047 0
M  V30 6277 H 600.027 -1.27951 3.96149 0
M  V30 6278 H 600.56 0.41926 3.95584 0
M  V30 6279 H 597.299 2.59237 6.0206 0
M  V30 6280 H 596.819 0.882039 5.93279 0
M  V30 6281 H 598.498 1.32082 6.33375 0
M  V30 6282 N 598.631 -1.53133 0.372548 0
M  V30 6283 C 599.859 -2.05774 -0.215515 0
M  V30 6284 C 600.274 -1.24555 -1.41886 0
M  V30 6285 O 599.631 -0.287951 -1.80214 0
M  V30 6286 C 599.682 -3.5645 -0.602161 0
M  V30 6287 O 599.403 -4.34591 0.553359 0
M  V30 6288 C 600.904 -4.25374 -1.24787 0
M  V30 6289 H 598.124 -0.670009 -0.0364529 0
M  V30 6290 H 600.668 -1.97434 0.532934 0
M  V30 6291 H 598.823 -3.64918 -1.30052 0
M  V30 6292 H 599.237 -5.23954 0.239336 0
M  V30 6293 H 600.711 -5.32097 -1.46891 0
M  V30 6294 H 601.188 -3.79531 -2.21026 0
M  V30 6295 H 601.794 -4.21177 -0.590752 0
M  V30 6296 N 600.109 -0.101901 -1.5727 0
M  V30 6297 C 601.072 0.840129 -2.13247 0
M  V30 6298 C 602.072 1.20625 -1.06331 0
M  V30 6299 O 603.262 1.13456 -1.32186 0
M  V30 6300 C 600.394 2.13372 -2.65867 0
M  V30 6301 H 601.587 0.353945 -2.97804 0
M  V30 6302 H 599.14 0.147167 -1.55606 0
M  V30 6303 H 599.875 2.66461 -1.84849 0
M  V30 6304 H 599.66 1.88085 -3.44044 0
M  V30 6305 H 601.15 2.80748 -3.09145 0
M  V30 6306 N 601.587 1.56661 0.17182 0
M  V30 6307 C 602.497 1.99604 1.2327 0
M  V30 6308 C 603.513 0.907333 1.4847 0
M  V30 6309 O 604.689 1.21492 1.60629 0
M  V30 6310 C 601.754 2.34685 2.55194 0
M  V30 6311 C 600.815 3.57381 2.3786 0
M  V30 6312 C 600.048 3.90779 3.63494 0
M  V30 6313 O 600.271 3.25152 4.6865 0
M  V30 6314 O 599.205 4.84129 3.57634 0
M  V30 6315 H 603.031 2.90114 0.898192 0
M  V30 6316 H 600.616 1.44522 0.378647 0
M  V30 6317 H 602.498 2.5822 3.33017 0
M  V30 6318 H 601.173 1.47336 2.88225 0
M  V30 6319 H 600.08 3.39064 1.5807 0
M  V30 6320 H 601.413 4.45268 2.09754 0
M  V30 6321 N 603.065 -0.440357 1.51323 0
M  V30 6322 C 604.013 -1.55492 1.72988 0
M  V30 6323 C 605.007 -1.58564 0.596138 0
M  V30 6324 O 606.213 -1.62345 0.777443 0
M  V30 6325 H 602.588 -0.516532 0.546533 0
M  V30 6326 H 604.559 -1.34392 2.66423 0
M  V30 6327 C 603.308 -2.93176 1.86931 0
M  V30 6328 H 602.631 -2.91543 2.73574 0
M  V30 6329 H 604.071 -3.70537 2.06103 0
M  V30 6330 C 602.53 -3.30988 0.628365 0
M  V30 6331 O 603.06 -4.01106 -0.218367 0
M  V30 6332 N 601.266 -2.86719 0.473339 0
M  V30 6333 H 600.813 -2.2983 1.16345 0
M  V30 6334 H 600.771 -3.12381 -0.355727 0
M  V30 6335 N 604.543 -1.41418 -0.695603 0
M  V30 6336 C 605.453 -1.45622 -1.83933 0
M  V30 6337 C 606.469 -0.346825 -1.70508 0
M  V30 6338 O 607.645 -0.59454 -1.92424 0
M  V30 6339 C 604.71 -1.33627 -3.19914 0
M  V30 6340 C 603.771 -2.54882 -3.45447 0
M  V30 6341 C 603.004 -2.43449 -4.7494 0
M  V30 6342 O 603.227 -1.45905 -5.51424 0
M  V30 6343 O 602.161 -3.33206 -5.01256 0
M  V30 6344 H 605.987 -2.42114 -1.83342 0
M  V30 6345 H 603.572 -1.22956 -0.848658 0
M  V30 6346 H 605.454 -1.29221 -4.01098 0
M  V30 6347 H 604.129 -0.402508 -3.21188 0
M  V30 6348 H 603.036 -2.64865 -2.64192 0
M  V30 6349 H 604.369 -3.47087 -3.48987 0
M  V30 6350 N 606.021 0.929856 -1.27246 0
M  V30 6351 C 606.954 2.03069 -1.04106 0
M  V30 6352 C 607.932 1.62556 0.0378417 0
M  V30 6353 O 609.116 1.88197 -0.106869 0
M  V30 6354 C 606.243 3.33718 -0.578778 0
M  V30 6355 C 605.289 3.93209 -1.65193 0
M  V30 6356 S 606.122 4.26068 -3.24386 0
M  V30 6357 C 607.278 5.598 -2.79954 0
M  V30 6358 H 607.511 2.22386 -1.97311 0
M  V30 6359 H 605.044 1.07269 -1.11053 0
M  V30 6360 H 607.002 4.09261 -0.31874 0
M  V30 6361 H 605.663 3.12328 0.333182 0
M  V30 6362 H 604.856 4.87482 -1.27973 0
M  V30 6363 H 604.458 3.24243 -1.86393 0
M  V30 6364 H 606.75 6.39004 -2.25123 0
M  V30 6365 H 607.693 6.01917 -3.72963 0
M  V30 6366 H 608.101 5.20219 -2.19164 0
M  V30 6367 N 607.499 1.09233 1.13605 0
M  V30 6368 C 608.446 0.729921 2.18954 0
M  V30 6369 C 609.416 -0.287916 1.63586 0
M  V30 6370 O 610.601 -0.170003 1.90041 0
M  V30 6371 C 607.741 0.154489 3.44754 0
M  V30 6372 C 606.854 1.22613 4.14234 0
M  V30 6373 C 605.989 0.613657 5.27644 0
M  V30 6374 C 605.028 1.66674 5.8897 0
M  V30 6375 N 604.165 1.07545 6.93814 0
M  V30 6376 H 609.005 1.63257 2.49302 0
M  V30 6377 H 606.542 0.815693 1.22413 0
M  V30 6378 H 608.5 -0.196923 4.16735 0
M  V30 6379 H 607.13 -0.711433 3.14863 0
M  V30 6380 H 606.182 1.69485 3.40557 0
M  V30 6381 H 607.494 2.0238 4.55899 0
M  V30 6382 H 606.648 0.210976 6.06333 0
M  V30 6383 H 605.387 -0.215584 4.87223 0
M  V30 6384 H 604.392 2.07899 5.08978 0
M  V30 6385 H 605.617 2.49861 6.31464 0
M  V30 6386 H 603.563 0.267451 6.55455 0
M  V30 6387 H 603.48 1.81011 7.3401 0
M  V30 6388 H 604.748 0.698906 7.7636 0
M  V30 6389 N 608.977 -1.30795 0.87923 0
M  V30 6390 C 610.388 -1.78535 0.546093 0
M  V30 6391 C 610.739 -1.72354 -0.937467 0
M  V30 6392 O 609.864 -1.2969 -1.73233 0
M  V30 6393 C 610.459 -3.24181 0.9845 0
M  V30 6394 C 609.018 -3.69779 0.702871 0
M  V30 6395 C 608.165 -2.51377 1.17068 0
M  V30 6396 H 611.116 -1.17746 1.06403 0
M  V30 6397 H 611.137 -3.79227 0.311045 0
M  V30 6398 H 610.649 -3.28647 2.06429 0
M  V30 6399 H 608.75 -3.70806 -0.365166 0
M  V30 6400 H 608.863 -4.61507 1.28639 0
M  V30 6401 H 607.227 -2.47768 0.590172 0
M  V30 6402 H 608.01 -2.58584 2.25808 0
M  V30 6403 N 610.455 -0.639598 -1.44038 0
M  V30 6404 C 611.365 0.0612377 -2.3452 0
M  V30 6405 C 612.381 0.826717 -1.53106 0
M  V30 6406 O 613.557 0.777059 -1.85806 0
M  V30 6407 C 610.622 1.02492 -3.31204 0
M  V30 6408 C 609.683 0.25788 -4.28525 0
M  V30 6409 C 608.916 1.17566 -5.2059 0
M  V30 6410 O 609.139 2.41461 -5.16771 0
M  V30 6411 O 608.073 0.655407 -5.98321 0
M  V30 6412 H 611.899 -0.68318 -2.95916 0
M  V30 6413 H 609.484 -0.399784 -1.43952 0
M  V30 6414 H 611.366 1.57911 -3.90694 0
M  V30 6415 H 610.041 1.7498 -2.7233 0
M  V30 6416 H 608.948 -0.339566 -3.72556 0
M  V30 6417 H 610.281 -0.427154 -4.90343 0
M  V30 6418 N 611.933 1.52934 -0.380664 0
M  V30 6419 C 613.158 2.06363 0.207157 0
M  V30 6420 C 613.583 1.25122 1.4045 0
M  V30 6421 O 612.941 0.274062 1.79217 0
M  V30 6422 C 612.989 3.56162 0.563996 0
M  V30 6423 O 612.093 3.77552 1.65917 0
M  V30 6424 H 611.434 0.663468 0.0265859 0
M  V30 6425 H 613.964 1.9719 -0.545635 0
M  V30 6426 H 613.974 3.99453 0.830752 0
M  V30 6427 H 612.649 4.14732 -0.311427 0
M  V30 6428 H 611.226 3.46154 1.3868 0
M  V30 6429 N 613.412 0.11024 1.57214 0
M  V30 6430 C 614.342 -0.840002 2.17867 0
M  V30 6431 C 615.323 -1.28352 1.11624 0
M  V30 6432 O 616.508 -1.3477 1.39824 0
M  V30 6433 C 613.638 -2.09349 2.77111 0
M  V30 6434 C 612.592 -1.78807 3.8886 0
M  V30 6435 C 611.918 -3.11112 4.34872 0
M  V30 6436 C 613.218 -1.0632 5.11364 0
M  V30 6437 H 614.912 -0.334608 2.97524 0
M  V30 6438 H 612.458 -0.159502 1.43114 0
M  V30 6439 H 614.411 -2.76275 3.18198 0
M  V30 6440 H 613.135 -2.62198 1.9473 0
M  V30 6441 H 611.794 -1.14273 3.48335 0
M  V30 6442 H 611.442 -3.61877 3.49362 0
M  V30 6443 H 611.142 -2.91453 5.10224 0
M  V30 6444 H 612.666 -3.79171 4.78604 0
M  V30 6445 H 614.08 -1.63383 5.49526 0
M  V30 6446 H 612.477 -0.967876 5.92243 0
M  V30 6447 H 613.547 -0.0484569 4.84876 0
M  V30 6448 N 614.89 -1.56749 -0.16351 0
M  V30 6449 C 615.82 -2.00042 -1.20438 0
M  V30 6450 C 616.801 -0.877256 -1.45733 0
M  V30 6451 O 617.986 -1.1439 -1.56935 0
M  V30 6452 C 615.116 -2.36697 -2.54149 0
M  V30 6453 C 614.07 -3.52046 -2.43408 0
M  V30 6454 C 613.396 -3.74466 -3.81679 0
M  V30 6455 C 614.696 -4.85247 -1.93216 0
M  V30 6456 H 616.39 -2.87244 -0.844477 0
M  V30 6457 H 613.936 -1.38194 -0.40478 0
M  V30 6458 H 615.889 -2.65582 -3.27176 0
M  V30 6459 H 614.613 -1.46414 -2.91943 0
M  V30 6460 H 613.272 -3.23301 -1.72834 0
M  V30 6461 H 612.92 -2.81461 -4.1688 0
M  V30 6462 H 612.62 -4.52084 -3.75359 0
M  V30 6463 H 614.144 -4.0576 -4.5628 0
M  V30 6464 H 615.558 -5.12957 -2.56023 0
M  V30 6465 H 613.955 -5.66556 -1.97825 0
M  V30 6466 H 615.025 -4.7672 -0.88689 0
M  V30 6467 N 616.368 0.432326 -1.51554 0
M  V30 6468 C 617.331 1.50765 -1.72634 0
M  V30 6469 C 618.331 1.49334 -0.596314 0
M  V30 6470 O 619.521 1.51268 -0.863925 0
M  V30 6471 C 616.653 2.90284 -1.7874 0
M  V30 6472 H 617.846 1.33377 -2.68609 0
M  V30 6473 H 615.399 0.661329 -1.4162 0
M  V30 6474 H 616.134 3.13071 -0.845977 0
M  V30 6475 H 615.919 2.92727 -2.6087 0
M  V30 6476 H 617.409 3.68282 -1.96871 0
M  V30 6477 N 617.846 1.41785 0.688094 0
M  V30 6478 C 619.094 1.41264 1.4453 0
M  V30 6479 C 619.415 0.0252946 1.94984 0
M  V30 6480 O 618.685 -0.934081 1.72197 0
M  V30 6481 H 617.265 0.519998 0.536294 0
M  V30 6482 H 619.927 1.7709 0.813941 0
M  V30 6483 H 619.023 2.10439 2.30482 0
M  V30 6484 N 619.324 -0.923095 1.27737 0
M  V30 6485 C 620.573 -1.66581 1.13727 0
M  V30 6486 C 620.886 -1.9304 -0.315433 0
M  V30 6487 O 622.092 -2.65309 -0.57651 0
M  V30 6488 C 620.548 -3.00047 1.98745 0
M  V30 6489 C 620.156 -2.8127 3.48699 0
M  V30 6490 C 621.9 -3.77887 1.93395 0
M  V30 6491 C 619.807 -4.1032 4.25901 0
M  V30 6492 H 618.737 -0.624834 0.422017 0
M  V30 6493 H 621.388 -1.02514 1.52194 0
M  V30 6494 H 619.77 -3.65197 1.53125 0
M  V30 6495 H 620.944 -2.24859 4.02213 0
M  V30 6496 H 619.259 -2.16854 3.55476 0
M  V30 6497 H 621.856 -4.73526 2.48348 0
M  V30 6498 H 622.199 -4.06264 0.908605 0
M  V30 6499 H 622.732 -3.19541 2.36935 0
M  V30 6500 H 619.471 -3.8712 5.28978 0
M  V30 6501 H 618.991 -4.66377 3.77163 0
M  V30 6502 H 620.67 -4.78648 4.35321 0
M  V30 6503 N 620.802 -1.09834 -1.13024 0
M  V30 6504 C 621.712 -0.753731 -2.22162 0
M  V30 6505 C 622.728 0.246105 -1.72251 0
M  V30 6506 O 623.904 0.0864051 -2.01215 0
M  V30 6507 C 620.969 -0.183958 -3.46212 0
M  V30 6508 C 620.03 -1.24028 -4.10993 0
M  V30 6509 C 619.263 -0.697597 -5.29121 0
M  V30 6510 O 619.486 0.478092 -5.68393 0
M  V30 6511 O 618.42 -1.4546 -5.84059 0
M  V30 6512 H 622.246 -1.66456 -2.5402 0
M  V30 6513 H 619.831 -0.873026 -1.21238 0
M  V30 6514 H 621.713 0.130257 -4.21199 0
M  V30 6515 H 620.388 0.699823 -3.16045 0
M  V30 6516 H 619.295 -1.60725 -3.37814 0
M  V30 6517 H 620.628 -2.09685 -4.45301 0
M  V30 6518 N 622.28 1.30327 -0.886154 0
M  V30 6519 C 623.228 2.30052 -0.343317 0
M  V30 6520 C 624.222 1.60212 0.550305 0
M  V30 6521 O 625.428 1.74674 0.434609 0
M  V30 6522 H 621.803 0.746306 -0.0923681 0
M  V30 6523 H 623.774 2.73294 -1.19804 0
M  V30 6524 C 622.523 3.45079 0.426107 0
M  V30 6525 H 621.846 3.99003 -0.25227 0
M  V30 6526 H 623.286 4.16931 0.771009 0
M  V30 6527 C 621.745 2.95195 1.62363 0
M  V30 6528 O 622.275 2.95323 2.723 0
M  V30 6529 N 620.481 2.51192 1.4612 0
M  V30 6530 H 620.028 2.51286 0.566832 0
M  V30 6531 H 619.986 2.18173 2.2638 0
M  V30 6532 N 623.758 0.647228 1.43697 0
M  V30 6533 C 625.006 0.157876 2.01482 0
M  V30 6534 C 625.327 -1.23039 1.51282 0
M  V30 6535 O 624.597 -1.82071 0.722982 0
M  V30 6536 H 623.177 0.0553745 0.744945 0
M  V30 6537 H 625.839 0.83755 1.75986 0
M  V30 6538 H 624.935 0.137895 3.11795 0
M  V30 6539 N 625.236 -1.5273 0.388769 0
M  V30 6540 C 626.183 -2.26437 -0.446639 0
M  V30 6541 C 627.153 -1.28025 -1.05824 0
M  V30 6542 O 628.338 -1.56852 -1.08637 0
M  V30 6543 C 625.478 -3.07407 -1.56828 0
M  V30 6544 C 624.591 -4.20747 -0.979589 0
M  V30 6545 C 623.726 -4.89113 -2.07224 0
M  V30 6546 C 622.765 -5.94447 -1.45942 0
M  V30 6547 N 621.902 -6.56411 -2.49135 0
M  V30 6548 H 626.742 -2.97404 0.18837 0
M  V30 6549 H 624.279 -1.46727 0.104725 0
M  V30 6550 H 626.237 -3.52642 -2.22934 0
M  V30 6551 H 624.867 -2.3865 -2.17361 0
M  V30 6552 H 623.919 -3.7983 -0.208151 0
M  V30 6553 H 625.231 -4.9637 -0.491747 0
M  V30 6554 H 624.385 -5.3765 -2.81101 0
M  V30 6555 H 623.124 -4.13013 -2.59368 0
M  V30 6556 H 622.129 -5.4525 -0.705894 0
M  V30 6557 H 623.354 -6.7248 -0.945932 0
M  V30 6558 H 621.3 -5.83152 -3.00449 0
M  V30 6559 H 621.217 -7.27645 -2.05105 0
M  V30 6560 H 622.485 -7.09592 -3.22644 0
M  V30 6561 N 626.714 -0.118576 -1.57153 0
M  V30 6562 C 627.644 0.828436 -2.1831 0
M  V30 6563 C 628.625 1.27758 -1.12303 0
M  V30 6564 O 629.81 1.34026 -1.40537 0
M  V30 6565 C 626.94 2.07876 -2.78217 0
M  V30 6566 C 625.894 1.76742 -3.89803 0
M  V30 6567 C 625.22 3.08801 -4.36516 0
M  V30 6568 C 626.52 1.03606 -5.11921 0
M  V30 6569 H 628.214 0.318824 -2.97698 0
M  V30 6570 H 625.76 0.151911 -1.43196 0
M  V30 6571 H 627.713 2.74584 -3.19659 0
M  V30 6572 H 626.437 2.61161 -1.96118 0
M  V30 6573 H 625.096 1.12424 -3.48936 0
M  V30 6574 H 624.744 3.6002 -3.51276 0
M  V30 6575 H 624.444 2.88743 -5.11763 0
M  V30 6576 H 625.968 3.76627 -4.80608 0
M  V30 6577 H 627.382 1.60467 -5.50385 0
M  V30 6578 H 625.779 0.936454 -5.92748 0
M  V30 6579 H 626.849 0.0227421 -4.84895 0
M  V30 6580 N 628.193 1.56834 0.155195 0
M  V30 6581 C 629.14 1.97646 1.19184 0
M  V30 6582 C 630.11 0.842788 1.4313 0
M  V30 6583 O 631.295 1.1042 1.55602 0
M  V30 6584 C 628.435 2.35527 2.52232 0
M  V30 6585 C 627.548 3.62147 2.35529 0
M  V30 6586 C 626.683 3.89167 3.61555 0
M  V30 6587 C 625.722 5.09084 3.39853 0
M  V30 6588 N 624.859 5.32156 4.5799 0
M  V30 6589 H 629.699 2.8601 0.836802 0
M  V30 6590 H 627.236 1.41507 0.401758 0
M  V30 6591 H 629.194 2.55516 3.29799 0
M  V30 6592 H 627.824 1.50253 2.85699 0
M  V30 6593 H 626.876 3.4998 1.49057 0
M  V30 6594 H 628.188 4.49871 2.15448 0
M  V30 6595 H 627.342 4.09611 4.47553 0
M  V30 6596 H 626.081 2.9985 3.84632 0
M  V30 6597 H 625.086 4.88522 2.52243 0
M  V30 6598 H 626.311 5.99947 3.18183 0
M  V30 6599 H 624.257 4.45791 4.81255 0
M  V30 6600 H 624.174 6.14133 4.40882 0
M  V30 6601 H 625.442 5.57091 5.45225 0
M  V30 6602 N 629.671 -0.424282 1.51781 0
M  V30 6603 C 630.918 -1.1726 1.65095 0
M  V30 6604 C 631.246 -1.90881 0.373477 0
M  V30 6605 O 630.501 -1.84835 -0.642997 0
M  V30 6606 C 630.8 -2.20418 2.81337 0
M  V30 6607 C 630.466 -1.63715 4.20129 0
M  V30 6608 C 629.128 -1.47975 4.57883 0
M  V30 6609 C 631.48 -1.22157 5.06682 0
M  V30 6610 C 628.808 -0.891703 5.79884 0
M  V30 6611 C 631.16 -0.647767 6.29275 0
M  V30 6612 C 629.824 -0.477371 6.65791 0
M  V30 6613 H 629.094 -0.429085 0.604125 0
M  V30 6614 H 631.741 -0.461852 1.85847 0
M  V30 6615 H 630.046 -2.97581 2.54859 0
M  V30 6616 H 631.743 -2.78163 2.88836 0
M  V30 6617 H 628.333 -1.76946 3.90369 0
M  V30 6618 H 632.517 -1.33133 4.7811 0
M  V30 6619 H 627.773 -0.747563 6.06813 0
M  V30 6620 H 631.947 -0.317291 6.95677 0
M  V30 6621 H 629.574 -0.0195936 7.60197 0
M  V30 6622 N 631.149 -1.42148 -0.680565 0
M  V30 6623 C 632.565 -1.24947 -0.992995 0
M  V30 6624 C 632.765 -0.149527 -2.00944 0
M  V30 6625 O 631.821 0.481145 -2.47873 0
M  V30 6626 C 633.134 -2.60426 -1.5033 0
M  V30 6627 C 634.682 -2.67733 -1.62137 0
M  V30 6628 C 635.157 -4.03564 -2.16565 0
M  V30 6629 N 636.648 -4.05488 -2.23905 0
M  V30 6630 C 637.383 -5.07401 -2.67081 0
M  V30 6631 N 636.879 -6.19698 -3.09751 0
M  V30 6632 N 638.672 -4.94758 -2.66778 0
M  V30 6633 H 630.823 -2.12399 -0.0074788 0
M  V30 6634 H 633.086 -0.94571 -0.0658529 0
M  V30 6635 H 632.792 -3.41743 -0.830947 0
M  V30 6636 H 632.666 -2.83949 -2.483 0
M  V30 6637 H 635.053 -1.86765 -2.2848 0
M  V30 6638 H 635.134 -2.48004 -0.626713 0
M  V30 6639 H 634.778 -4.84987 -1.50833 0
M  V30 6640 H 634.708 -4.20641 -3.1681 0
M  V30 6641 H 637.199 -3.24415 -1.93812 0
M  V30 6642 H 637.512 -6.93318 -3.41365 0
M  V30 6643 H 635.857 -6.23212 -3.07623 0
M  V30 6644 H 639.048 -4.06105 -2.32801 0
M  V30 6645 H 639.221 -5.74317 -3.00107 0
M  V30 6646 N 632.627 0.916307 -1.28225 0
M  V30 6647 C 633.874 1.66518 -1.1523 0
M  V30 6648 C 634.202 1.92178 0.299632 0
M  V30 6649 O 633.457 1.51842 1.2346 0
M  V30 6650 C 633.756 3.03125 -1.8934 0
M  V30 6651 C 633.422 2.97135 -3.39148 0
M  V30 6652 C 632.084 2.95208 -3.80007 0
M  V30 6653 C 634.436 2.87574 -4.34685 0
M  V30 6654 C 631.764 2.81518 -5.14747 0
M  V30 6655 C 634.116 2.75424 -5.69495 0
M  V30 6656 C 632.78 2.71854 -6.09632 0
M  V30 6657 H 632.05 0.609334 -0.421655 0
M  V30 6658 H 634.697 1.06776 -1.58969 0
M  V30 6659 H 633.002 3.66639 -1.38143 0
M  V30 6660 H 634.699 3.59968 -1.76704 0
M  V30 6661 H 631.289 2.99428 -3.06661 0
M  V30 6662 H 635.473 2.88152 -4.04082 0
M  V30 6663 H 630.729 2.77148 -5.44976 0
M  V30 6664 H 634.903 2.66993 -6.43185 0
M  V30 6665 H 632.53 2.61003 -7.1399 0
M  V30 6666 N 634.105 1.10431 1.1244 0
M  V30 6667 C 635.015 0.765502 2.21759 0
M  V30 6668 C 636.031 -0.236966 1.72379 0
M  V30 6669 O 637.207 -0.0757329 2.01258 0
M  V30 6670 C 634.272 0.202316 3.46109 0
M  V30 6671 C 633.333 1.26205 4.1033 0
M  V30 6672 C 632.566 0.725648 5.28744 0
M  V30 6673 O 632.789 -0.447942 5.68638 0
M  V30 6674 O 631.723 1.48555 5.83279 0
M  V30 6675 H 635.549 1.67801 2.53133 0
M  V30 6676 H 633.134 0.879443 1.20773 0
M  V30 6677 H 635.016 -0.107918 4.21262 0
M  V30 6678 H 633.691 -0.683052 3.16411 0
M  V30 6679 H 632.598 1.62514 3.36957 0
M  V30 6680 H 633.931 2.12044 4.44183 0
M  V30 6681 N 635.583 -1.29855 0.893053 0
M  V30 6682 C 636.811 -1.99976 0.530788 0
M  V30 6683 C 637.226 -1.66889 -0.882799 0
M  V30 6684 O 636.583 -0.910352 -1.58173 0
M  V30 6685 C 636.634 -3.54547 0.705587 0
M  V30 6686 O 636.355 -3.86458 2.06353 0
M  V30 6687 C 637.856 -4.41937 0.347387 0
M  V30 6688 H 635.076 -0.639129 0.204339 0
M  V30 6689 H 637.62 -1.65549 1.20057 0
M  V30 6690 H 635.775 -3.87311 0.0830685 0
M  V30 6691 H 636.189 -4.81146 2.08803 0
M  V30 6692 H 637.663 -5.4954 0.520557 0
M  V30 6693 H 638.14 -4.33339 -0.715139 0
M  V30 6694 H 638.746 -4.14633 0.946567 0
M  V30 6695 N 637.061 -0.65484 -1.43351 0
M  V30 6696 C 638.024 0.0263562 -2.29185 0
M  V30 6697 C 639.024 0.748951 -1.42293 0
M  V30 6698 O 640.214 0.589957 -1.63906 0
M  V30 6699 C 637.346 1.04806 -3.2439 0
M  V30 6700 H 638.539 -0.728883 -2.90908 0
M  V30 6701 H 636.092 -0.416149 -1.50658 0
M  V30 6702 H 636.827 1.83247 -2.67565 0
M  V30 6703 H 636.612 0.533554 -3.88453 0
M  V30 6704 H 638.102 1.52372 -3.88809 0
M  V30 6705 N 638.539 1.52521 -0.396863 0
M  V30 6706 C 639.816 1.94112 0.240842 0
M  V30 6707 C 640.196 1.33288 1.637 0
M  V30 6708 O 639.544 0.503901 2.22875 0
M  V30 6709 C 639.754 3.48033 0.259567 0
M  V30 6710 C 641.102 4.21822 0.484866 0
M  V30 6711 O 642.126 3.54579 0.339453 0
M  V30 6712 O 640.985 5.41042 0.770412 0
M  V30 6713 H 638.079 0.812973 0.151671 0
M  V30 6714 H 640.625 1.63572 -0.451918 0
M  V30 6715 H 639.397 3.84655 -0.718078 0
M  V30 6716 H 639.02 3.84899 0.996937 0
M  V30 6717 N 640.017 0.126909 1.57088 0
M  V30 6718 C 640.964 -0.82036 2.15728 0
M  V30 6719 C 641.934 -1.25811 1.08447 0
M  V30 6720 O 643.119 -1.33422 1.36393 0
M  V30 6721 C 640.259 -2.06199 2.76724 0
M  V30 6722 C 639.372 -1.67188 3.98337 0
M  V30 6723 C 638.507 -2.86378 4.47393 0
M  V30 6724 C 637.546 -2.43644 5.61519 0
M  V30 6725 N 636.683 -3.55775 6.05284 0
M  V30 6726 H 641.523 -0.313472 2.96347 0
M  V30 6727 H 639.06 -0.14303 1.46403 0
M  V30 6728 H 641.018 -2.78959 3.10222 0
M  V30 6729 H 639.648 -2.54333 1.98782 0
M  V30 6730 H 638.7 -0.842714 3.70948 0
M  V30 6731 H 640.012 -1.31789 4.81075 0
M  V30 6732 H 639.166 -3.67353 4.82842 0
M  V30 6733 H 637.905 -3.25009 3.63621 0
M  V30 6734 H 636.91 -1.61104 5.25667 0
M  V30 6735 H 638.135 -2.06122 6.47063 0
M  V30 6736 H 636.081 -3.94065 5.24451 0
M  V30 6737 H 635.998 -3.24325 6.82898 0
M  V30 6738 H 637.266 -4.37166 6.45373 0
M  V30 6739 N 641.495 -1.56914 -0.146875 0
M  V30 6740 C 642.725 -1.87243 -0.873126 0
M  V30 6741 C 643.133 -0.713127 -1.75246 0
M  V30 6742 O 642.476 0.326228 -1.8078 0
M  V30 6743 C 642.538 -3.12279 -1.78107 0
M  V30 6744 C 642.202 -4.44082 -1.07889 0
M  V30 6745 C 643.199 -5.18096 -0.432734 0
M  V30 6746 C 640.884 -4.90807 -1.06836 0
M  V30 6747 C 642.878 -6.37039 0.214569 0
M  V30 6748 C 640.565 -6.09674 -0.417243 0
M  V30 6749 C 641.563 -6.82636 0.223093 0
M  V30 6750 O 641.251 -7.99245 0.863884 0
M  V30 6751 H 640.983 -0.624896 -0.257839 0
M  V30 6752 H 643.537 -2.04892 -0.14434 0
M  V30 6753 H 641.767 -2.90639 -2.5508 0
M  V30 6754 H 643.456 -3.28854 -2.37929 0
M  V30 6755 H 644.222 -4.83066 -0.432677 0
M  V30 6756 H 640.101 -4.3394 -1.55618 0
M  V30 6757 H 643.645 -6.93927 0.714965 0
M  V30 6758 H 639.542 -6.44165 -0.414967 0
M  V30 6759 H 640.31 -8.14912 0.765564 0
M  V30 6760 N 642.974 0.416227 -1.52004 0
M  V30 6761 C 644.223 1.16088 -1.64944 0
M  V30 6762 C 644.536 1.91835 -0.381928 0
M  V30 6763 O 645.742 2.6867 -0.391013 0
M  V30 6764 C 644.198 2.1124 -2.91386 0
M  V30 6765 C 643.806 1.41042 -4.25219 0
M  V30 6766 C 645.55 2.86008 -3.13688 0
M  V30 6767 C 643.457 2.34801 -5.42791 0
M  V30 6768 H 642.387 0.437041 -0.61442 0
M  V30 6769 H 645.038 0.425971 -1.78487 0
M  V30 6770 H 643.42 2.88254 -2.71525 0
M  V30 6771 H 644.594 0.694416 -4.55538 0
M  V30 6772 H 642.909 0.78344 -4.08964 0
M  V30 6773 H 645.506 3.56286 -3.98703 0
M  V30 6774 H 645.849 3.48556 -2.27628 0
M  V30 6775 H 646.382 2.16095 -3.33988 0
M  V30 6776 H 643.121 1.7691 -6.31176 0
M  V30 6777 H 642.641 3.04395 -5.16821 0
M  V30 6778 H 644.32 2.9548 -5.75587 0
M  V30 6779 N 644.452 1.42507 0.673017 0
M  V30 6780 C 645.384 1.42074 1.79854 0
M  V30 6781 C 646.397 0.319569 1.59633 0
M  V30 6782 O 647.586 0.582769 1.68719 0
M  V30 6783 C 644.686 1.19886 3.16987 0
M  V30 6784 C 643.859 2.42471 3.64042 0
M  V30 6785 C 642.918 2.15802 4.79913 0
M  V30 6786 O 641.944 2.89015 4.90366 0
M  V30 6787 N 643.146 1.16225 5.68746 0
M  V30 6788 H 645.911 2.3909 1.8071 0
M  V30 6789 H 643.472 1.37409 0.856171 0
M  V30 6790 H 645.464 0.999591 3.92161 0
M  V30 6791 H 644.034 0.313879 3.1102 0
M  V30 6792 H 643.254 2.77954 2.79526 0
M  V30 6793 H 644.542 3.24097 3.92223 0
M  V30 6794 H 643.94 0.556756 5.62954 0
M  V30 6795 H 642.497 1.02285 6.43724 0
M  V30 6796 N 645.93 -0.909495 1.28709 0
M  V30 6797 C 647.177 -1.65905 1.16111 0
M  V30 6798 C 647.505 -1.92334 -0.289436 0
M  V30 6799 O 646.76 -1.52495 -1.22653 0
M  V30 6800 C 647.059 -3.02117 1.90945 0
M  V30 6801 C 646.725 -2.95332 3.40719 0
M  V30 6802 C 645.387 -2.93189 3.81567 0
M  V30 6803 C 647.739 -2.85264 4.36204 0
M  V30 6804 C 645.067 -2.78784 5.16233 0
M  V30 6805 C 647.419 -2.724 5.70948 0
M  V30 6806 C 646.083 -2.68617 6.11066 0
M  V30 6807 H 645.353 -0.60709 0.42488 0
M  V30 6808 H 648 -1.05932 1.59533 0
M  V30 6809 H 646.305 -3.65901 1.40085 0
M  V30 6810 H 648.002 -3.59026 1.7861 0
M  V30 6811 H 644.592 -2.97797 3.08245 0
M  V30 6812 H 648.776 -2.86005 4.05605 0
M  V30 6813 H 644.032 -2.74254 5.46438 0
M  V30 6814 H 648.206 -2.63579 6.44592 0
M  V30 6815 H 645.833 -2.57213 7.15364 0
M  V30 6816 N 647.408 -1.11026 -1.11852 0
M  V30 6817 C 648.654 -0.857729 -1.83768 0
M  V30 6818 C 648.987 0.615143 -1.842 0
M  V30 6819 O 648.262 1.45391 -1.29196 0
M  V30 6820 C 648.545 -1.41453 -3.31154 0
M  V30 6821 C 648.398 -2.95471 -3.39142 0
M  V30 6822 C 649.717 -1.0619 -4.27097 0
M  V30 6823 H 646.836 -0.313044 -0.667212 0
M  V30 6824 H 649.478 -1.37443 -1.31185 0
M  V30 6825 H 647.628 -0.975052 -3.76065 0
M  V30 6826 H 649.3 -3.4799 -3.02821 0
M  V30 6827 H 647.543 -3.31759 -2.79497 0
M  V30 6828 H 648.214 -3.29515 -4.42859 0
M  V30 6829 H 650.69 -1.44122 -3.90344 0
M  V30 6830 H 649.566 -1.47832 -5.28618 0
M  V30 6831 H 649.827 0.0278912 -4.42091 0
M  V30 6832 N 648.886 1.2938 -0.899927 0
M  V30 6833 C 649.796 2.31462 -0.382437 0
M  V30 6834 C 650.812 1.65956 0.522929 0
M  V30 6835 O 651.988 1.97131 0.412454 0
M  V30 6836 C 649.053 3.44595 0.381472 0
M  V30 6837 C 648.114 4.25692 -0.555444 0
M  V30 6838 C 647.347 5.33422 0.172102 0
M  V30 6839 O 647.57 5.53053 1.396 0
M  V30 6840 O 646.504 5.99939 -0.485491 0
M  V30 6841 H 650.33 2.77706 -1.22934 0
M  V30 6842 H 647.915 1.33821 -0.664259 0
M  V30 6843 H 649.797 4.13474 0.813442 0
M  V30 6844 H 648.472 3.00458 1.20443 0
M  V30 6845 H 647.379 3.59453 -1.03653 0
M  V30 6846 H 648.712 4.73471 -1.34483 0
M  V30 6847 N 650.364 0.662433 1.43002 0
M  V30 6848 C 651.274 -0.0239199 2.34588 0
M  V30 6849 C 652.29 -0.802255 1.54402 0
M  V30 6850 O 653.466 -0.747401 1.87018 0
M  V30 6851 C 650.531 -0.972098 3.32793 0
M  V30 6852 C 649.592 -0.189673 4.28881 0
M  V30 6853 C 648.825 -1.09269 5.22395 0
M  V30 6854 O 649.048 -2.33209 5.20547 0
M  V30 6855 O 647.982 -0.560136 5.99288 0
M  V30 6856 H 651.808 0.730171 2.94792 0
M  V30 6857 H 649.393 0.422635 1.43297 0
M  V30 6858 H 651.275 -1.51676 3.93157 0
M  V30 6859 H 649.95 -1.70626 2.75079 0
M  V30 6860 H 648.857 0.398794 3.71968 0
M  V30 6861 H 650.19 0.50511 4.89601 0
M  V30 6862 N 651.842 -1.52309 0.404946 0
M  V30 6863 C 652.79 -2.28452 -0.437321 0
M  V30 6864 C 653.784 -1.32975 -1.04948 0
M  V30 6865 O 654.99 -1.50451 -0.988159 0
M  V30 6866 H 651.365 -0.734824 -0.159805 0
M  V30 6867 H 653.336 -2.97542 0.22615 0
M  V30 6868 C 652.085 -3.11536 -1.54404 0
M  V30 6869 H 651.408 -3.84871 -1.08233 0
M  V30 6870 H 652.848 -3.67926 -2.10729 0
M  V30 6871 C 651.307 -2.24833 -2.50902 0
M  V30 6872 O 651.837 -1.88574 -3.54687 0
M  V30 6873 N 650.043 -1.88685 -2.21012 0
M  V30 6874 H 649.59 -2.18371 -1.36646 0
M  V30 6875 H 649.548 -1.30966 -2.85824 0
M  V30 6876 N 653.32 -0.135238 -1.57019 0
M  V30 6877 C 654.568 0.51777 -1.95355 0
M  V30 6878 C 654.889 1.6617 -1.02042 0
M  V30 6879 O 654.159 1.95738 -0.0797343 0
M  V30 6880 H 652.739 0.194264 -0.721298 0
M  V30 6881 H 655.401 -0.207983 -1.93787 0
M  V30 6882 H 654.497 0.901675 -2.98791 0
M  V30 6883 N 654.798 1.5699 0.138552 0
M  V30 6884 C 655.731 1.94064 1.2006 0
M  V30 6885 C 656.709 0.807601 1.41126 0
M  V30 6886 O 657.893 1.06399 1.556 0
M  V30 6887 C 655.02 2.21999 2.55801 0
M  V30 6888 C 654.066 3.44617 2.5128 0
M  V30 6889 S 654.899 4.97888 1.97149 0
M  V30 6890 C 656.055 5.28954 3.34602 0
M  V30 6891 H 656.288 2.83843 0.884337 0
M  V30 6892 H 653.821 1.50507 0.344517 0
M  V30 6893 H 655.779 2.38772 3.33914 0
M  V30 6894 H 654.44 1.32869 2.84613 0
M  V30 6895 H 653.633 3.61466 3.51224 0
M  V30 6896 H 653.235 3.27129 1.8128 0
M  V30 6897 H 655.527 5.22938 4.30745 0
M  V30 6898 H 656.47 6.30346 3.22598 0
M  V30 6899 H 656.878 4.56455 3.32128 0
M  V30 6900 N 656.276 -0.40816 1.52223 0
M  V30 6901 C 657.522 -1.15673 1.66576 0
M  V30 6902 C 657.855 -1.90141 0.394996 0
M  V30 6903 O 657.13 -1.84798 -0.606613 0
M  V30 6904 C 657.413 -2.15042 2.88841 0
M  V30 6905 C 657.266 -1.44465 4.25969 0
M  V30 6906 C 658.585 -3.15699 3.0663 0
M  V30 6907 H 655.704 -0.41916 0.606196 0
M  V30 6908 H 658.346 -0.442348 1.84779 0
M  V30 6909 H 656.496 -2.75964 2.73452 0
M  V30 6910 H 658.168 -0.866544 4.53088 0
M  V30 6911 H 656.411 -0.746612 4.27327 0
M  V30 6912 H 657.082 -2.16976 5.07568 0
M  V30 6913 H 659.558 -2.64854 3.20923 0
M  V30 6914 H 658.434 -3.82491 3.9369 0
M  V30 6915 H 658.695 -3.83481 2.19987 0
M  V30 6916 N 657.755 -1.42862 -0.66545 0
M  V30 6917 C 659.004 -1.43119 -1.42126 0
M  V30 6918 C 659.317 -0.0545297 -1.95524 0
M  V30 6919 O 660.523 0.0654747 -2.71421 0
M  V30 6920 C 658.979 -2.51797 -2.5715 0
M  V30 6921 C 658.587 -3.95514 -2.10411 0
M  V30 6922 C 660.331 -2.61233 -3.346 0
M  V30 6923 C 658.238 -4.95682 -3.22573 0
M  V30 6924 H 657.168 -0.532349 -0.533966 0
M  V30 6925 H 659.819 -1.68806 -0.719506 0
M  V30 6926 H 658.201 -2.19292 -3.29738 0
M  V30 6927 H 659.375 -4.3742 -1.44915 0
M  V30 6928 H 657.69 -3.90012 -1.45874 0
M  V30 6929 H 660.287 -3.33248 -4.18151 0
M  V30 6930 H 660.63 -1.65896 -3.81817 0
M  V30 6931 H 661.163 -2.9298 -2.69087 0
M  V30 6932 H 657.902 -5.92529 -2.80338 0
M  V30 6933 H 657.422 -4.58399 -3.86821 0
M  V30 6934 H 659.101 -5.17828 -3.87896 0
M  V30 6935 N 659.233 0.902656 -1.29189 0
M  V30 6936 C 660.649 1.18296 -1.07137 0
M  V30 6937 C 660.849 2.00701 0.179223 0
M  V30 6938 O 659.905 2.3675 0.877812 0
M  V30 6939 C 661.218 1.90677 -2.32514 0
M  V30 6940 C 662.766 2.03515 -2.37804 0
M  V30 6941 C 663.241 2.79307 -3.62976 0
M  V30 6942 N 664.732 2.86862 -3.63681 0
M  V30 6943 C 665.467 3.46035 -4.57217 0
M  V30 6944 N 664.963 4.06399 -5.61081 0
M  V30 6945 N 666.756 3.43681 -4.44792 0
M  V30 6946 H 658.907 0.352765 -2.0945 0
M  V30 6947 H 661.17 0.21876 -0.922414 0
M  V30 6948 H 660.876 1.3756 -3.23682 0
M  V30 6949 H 660.75 2.91169 -2.39793 0
M  V30 6950 H 663.137 2.55809 -1.47125 0
M  V30 6951 H 663.218 1.02166 -2.34512 0
M  V30 6952 H 662.862 2.2769 -4.54004 0
M  V30 6953 H 662.792 3.80995 -3.63525 0
M  V30 6954 H 665.283 2.43987 -2.88581 0
M  V30 6955 H 665.596 4.49564 -6.2858 0
M  V30 6956 H 663.941 4.0487 -5.64894 0
M  V30 6957 H 667.132 2.9574 -3.62843 0
M  V30 6958 H 667.305 3.89503 -5.17872 0
M  V30 6959 N 660.711 1.11618 1.11262 0
M  V30 6960 C 661.959 0.864469 1.82678 0
M  V30 6961 C 662.28 -0.611564 1.85162 0
M  V30 6962 O 661.55 -1.44429 1.32352 0
M  V30 6963 H 660.13 0.316821 0.676486 0
M  V30 6964 H 662.792 1.40894 1.34666 0
M  V30 6965 H 661.888 1.23832 2.86482 0
M  V30 6966 N 662.189 -1.289 0.906776 0
M  V30 6967 C 663.139 -2.25122 0.361109 0
M  V30 6968 C 664.123 -1.52169 -0.52283 0
M  V30 6969 O 665.315 -1.73223 -0.363691 0
M  V30 6970 C 662.444 -3.40915 -0.403982 0
M  V30 6971 C 661.53 -4.21198 0.495279 0
M  V30 6972 N 661.921 -4.79636 1.60572 0
M  V30 6973 C 660.219 -4.45027 0.294372 0
M  V30 6974 C 660.92 -5.39977 2.16332 0
M  V30 6975 N 659.896 -5.23753 1.45546 0
M  V30 6976 H 663.698 -2.67869 1.20927 0
M  V30 6977 H 661.212 -1.43592 0.758632 0
M  V30 6978 H 663.209 -4.08922 -0.811695 0
M  V30 6979 H 661.869 -2.99703 -1.24932 0
M  V30 6980 H 662.88 -4.78209 1.98838 0
M  V30 6981 H 659.557 -4.14348 -0.512021 0
M  V30 6982 H 660.947 -5.96266 3.09704 0
M  V30 6983 N 663.667 -0.670007 -1.42649 0
M  V30 6984 C 664.895 -0.19854 -2.05945 0
M  V30 6985 C 665.31 1.14243 -1.50313 0
M  V30 6986 O 664.667 1.70872 -0.641027 0
M  V30 6987 C 664.718 -0.11966 -3.61302 0
M  V30 6988 O 664.439 -1.40764 -4.1487 0
M  V30 6989 C 665.94 0.375878 -4.41704 0
M  V30 6990 H 663.16 -0.0976894 -0.663851 0
M  V30 6991 H 665.704 -0.915392 -1.82868 0
M  V30 6992 H 663.859 0.547851 -3.83507 0
M  V30 6993 H 664.273 -1.27784 -5.08696 0
M  V30 6994 H 665.747 0.379988 -5.50691 0
M  V30 6995 H 666.224 1.41028 -4.15942 0
M  V30 6996 H 666.83 -0.259727 -4.24506 0
M  V30 6997 N 665.145 1.52092 -0.413018 0
M  V30 6998 C 666.075 2.30021 0.401567 0
M  V30 6999 C 667.056 1.34395 1.04269 0
M  V30 7000 O 668.241 1.63304 1.05097 0
M  V30 7001 C 665.371 3.12447 1.51638 0
M  V30 7002 C 664.325 4.16153 1.00005 0
M  V30 7003 C 663.651 4.86948 2.20875 0
M  V30 7004 C 664.951 5.22275 0.0513757 0
M  V30 7005 H 666.645 2.98365 -0.248704 0
M  V30 7006 H 664.191 1.4349 -0.121052 0
M  V30 7007 H 666.144 3.65733 2.09326 0
M  V30 7008 H 664.868 2.41879 2.19458 0
M  V30 7009 H 663.527 3.63882 0.445549 0
M  V30 7010 H 663.175 4.12905 2.8726 0
M  V30 7011 H 662.875 5.57057 1.86978 0
M  V30 7012 H 664.399 5.43048 2.79162 0
M  V30 7013 H 665.813 5.70778 0.537176 0
M  V30 7014 H 664.21 5.9977 -0.198977 0
M  V30 7015 H 665.28 4.76611 -0.892736 0
M  V30 7016 N 666.623 0.143563 1.56945 0
M  V30 7017 C 667.869 -0.50916 1.96304 0
M  V30 7018 C 668.202 -1.64741 1.0283 0
M  V30 7019 O 667.477 -1.94374 0.0700361 0
M  V30 7020 C 667.76 -1.0186 3.45393 0
M  V30 7021 C 667.613 0.117923 4.49645 0
M  V30 7022 C 668.932 -1.90151 3.96901 0
M  V30 7023 H 666.051 -0.183608 0.713763 0
M  V30 7024 H 668.693 0.224095 1.88674 0
M  V30 7025 H 666.843 -1.64345 3.52027 0
M  V30 7026 H 668.515 0.754145 4.55094 0
M  V30 7027 H 666.758 0.777568 4.26774 0
M  V30 7028 H 667.429 -0.280187 5.51288 0
M  V30 7029 H 669.905 -1.375 3.92725 0
M  V30 7030 H 668.781 -2.22707 5.0169 0
M  V30 7031 H 669.042 -2.83718 3.39052 0
M  V30 7032 N 668.101 -1.57061 -0.130224 0
M  V30 7033 C 669.347 -1.85412 -0.836295 0
M  V30 7034 C 669.702 -0.729831 -1.7802 0
M  V30 7035 O 668.995 0.271021 -1.89673 0
M  V30 7036 C 669.189 -3.17878 -1.63365 0
M  V30 7037 C 669.018 -4.43086 -0.768453 0
M  V30 7038 C 667.788 -5.03488 -0.427598 0
M  V30 7039 C 669.986 -5.14219 -0.0911495 0
M  V30 7040 N 667.968 -6.12253 0.449439 0
M  V30 7041 C 669.339 -6.16632 0.645341 0
M  V30 7042 C 671.394 -4.97898 -0.0135625 0
M  V30 7043 C 670.097 -7.0449 1.45212 0
M  V30 7044 C 672.123 -5.86234 0.780001 0
M  V30 7045 C 671.485 -6.88141 1.50472 0
M  V30 7046 H 667.584 -0.728875 -0.283311 0
M  V30 7047 H 670.168 -1.9444 -0.100662 0
M  V30 7048 H 668.339 -3.09967 -2.3404 0
M  V30 7049 H 670.071 -3.34076 -2.28419 0
M  V30 7050 H 666.826 -4.67344 -0.767264 0
M  V30 7051 H 667.25 -6.71263 0.879476 0
M  V30 7052 H 671.892 -4.19082 -0.559511 0
M  V30 7053 H 669.61 -7.82722 2.00926 0
M  V30 7054 H 673.196 -5.75671 0.842246 0
M  V30 7055 H 672.076 -7.55311 2.1089 0
M  V30 7056 N 669.579 0.400081 -1.52437 0
M  V30 7057 C 670.529 1.48734 -1.72807 0
M  V30 7058 C 671.513 1.50004 -0.582032 0
M  V30 7059 O 672.705 1.55828 -0.839449 0
M  V30 7060 C 669.834 2.86568 -1.89034 0
M  V30 7061 C 668.92 2.8991 -3.09537 0
M  V30 7062 N 669.311 2.62937 -4.32086 0
M  V30 7063 C 667.609 3.21078 -3.09556 0
M  V30 7064 C 668.31 2.73079 -5.13617 0
M  V30 7065 N 667.286 3.06342 -4.49061 0
M  V30 7066 H 671.088 1.26689 -2.65193 0
M  V30 7067 H 668.602 0.607902 -1.50593 0
M  V30 7068 H 670.599 3.64834 -2.01746 0
M  V30 7069 H 669.259 3.09604 -0.978547 0
M  V30 7070 H 670.27 2.37163 -4.60406 0
M  V30 7071 H 666.947 3.49651 -2.28146 0
M  V30 7072 H 668.337 2.55863 -6.21276 0
M  V30 7073 N 671.057 1.43213 0.657864 0
M  V30 7074 C 672.005 1.48271 1.79216 0
M  V30 7075 C 672.999 0.35675 1.65601 0
M  V30 7076 O 674.205 0.530535 1.72004 0
M  V30 7077 H 670.58 0.464729 0.591211 0
M  V30 7078 H 672.551 2.43792 1.7207 0
M  V30 7079 C 671.3 1.41837 3.17455 0
M  V30 7080 H 670.623 2.27781 3.28567 0
M  V30 7081 H 672.063 1.49438 3.96793 0
M  V30 7082 C 670.522 0.135347 3.36628 0
M  V30 7083 O 671.052 -0.805199 3.93547 0
M  V30 7084 N 669.258 0.0470316 2.90562 0
M  V30 7085 H 668.805 0.813221 2.44427 0
M  V30 7086 H 668.763 -0.810737 3.03767 0
M  V30 7087 N 672.536 -0.895792 1.29666 0
M  V30 7088 C 673.468 -2.00563 1.10937 0
M  V30 7089 C 674.481 -1.62705 0.055734 0
M  V30 7090 O 675.67 -1.7595 0.300656 0
M  V30 7091 C 672.77 -3.32262 0.667448 0
M  V30 7092 C 671.943 -3.98625 1.80047 0
M  V30 7093 C 671.002 -5.08617 1.3489 0
M  V30 7094 O 670.028 -5.30837 2.05429 0
M  V30 7095 N 671.23 -5.80076 0.221937 0
M  V30 7096 H 673.995 -2.17184 2.06522 0
M  V30 7097 H 671.556 -1.06822 1.21658 0
M  V30 7098 H 673.548 -4.03196 0.348586 0
M  V30 7099 H 672.118 -3.11985 -0.196055 0
M  V30 7100 H 671.338 -3.21005 2.28801 0
M  V30 7101 H 672.626 -4.39704 2.56003 0
M  V30 7102 H 672.024 -5.64514 -0.366084 0
M  V30 7103 H 670.581 -6.51789 -0.0375346 0
M  V30 7104 N 674.014 -1.12206 -1.10668 0
M  V30 7105 C 675.242 -0.898635 -1.86366 0
M  V30 7106 C 675.657 0.551991 -1.80551 0
M  V30 7107 O 675.014 1.38152 -1.19249 0
M  V30 7108 C 675.065 -1.36199 -3.34861 0
M  V30 7109 O 674.786 -2.75576 -3.40573 0
M  V30 7110 C 676.287 -1.17515 -4.2744 0
M  V30 7111 H 673.507 -0.321281 -0.589084 0
M  V30 7112 H 676.051 -1.49142 -1.39918 0
M  V30 7113 H 674.206 -0.81249 -3.78784 0
M  V30 7114 H 674.62 -2.95851 -4.33096 0
M  V30 7115 H 676.094 -1.54827 -5.29842 0
M  V30 7116 H 676.571 -0.115486 -4.39048 0
M  V30 7117 H 677.177 -1.71203 -3.89319 0
M  V30 7118 N 675.492 1.28418 -0.913599 0
M  V30 7119 C 676.903 1.77024 -0.593237 0
M  V30 7120 C 677.254 1.74779 0.891441 0
M  V30 7121 O 676.379 1.34237 1.69733 0
M  V30 7122 C 676.974 3.21456 -1.07011 0
M  V30 7123 C 675.533 3.67786 -0.800664 0
M  V30 7124 C 674.68 2.48185 -1.23691 0
M  V30 7125 H 677.631 1.14883 -1.09487 0
M  V30 7126 H 677.652 3.78269 -0.411481 0
M  V30 7127 H 677.164 3.23058 -2.1507 0
M  V30 7128 H 675.265 3.71644 0.266725 0
M  V30 7129 H 675.378 4.57934 -1.4083 0
M  V30 7130 H 673.742 2.46116 -0.655655 0
M  V30 7131 H 674.525 2.52506 -2.32585 0
M  V30 7132 N 676.97 0.677563 1.42291 0
M  V30 7133 C 678.247 0.129803 1.95169 0
M  V30 7134 C 678.627 -1.35605 1.61786 0
M  V30 7135 O 677.975 -2.09361 0.915444 0
M  V30 7136 C 678.185 0.401889 3.46678 0
M  V30 7137 C 679.533 0.319889 4.23393 0
M  V30 7138 O 680.557 0.33579 3.54614 0
M  V30 7139 O 679.416 0.264459 5.4586 0
M  V30 7140 H 676.51 0.00447433 0.826988 0
M  V30 7141 H 679.056 0.752483 1.52105 0
M  V30 7142 H 677.828 1.43108 3.64192 0
M  V30 7143 H 677.451 -0.252662 3.96796 0
M  V30 7144 N 678.448 -1.51871 0.421078 0
M  V30 7145 C 679.694 -2.02894 -0.143346 0
M  V30 7146 C 680.049 -1.30054 -1.41787 0
M  V30 7147 O 679.342 -0.401776 -1.8734 0
M  V30 7148 C 679.536 -3.54764 -0.433292 0
M  V30 7149 C 679.365 -4.42316 0.811584 0
M  V30 7150 C 678.135 -4.872 1.34033 0
M  V30 7151 C 680.333 -4.85631 1.69313 0
M  V30 7152 N 678.315 -5.58915 2.53944 0
M  V30 7153 C 679.686 -5.56248 2.7384 0
M  V30 7154 C 681.741 -4.67634 1.70947 0
M  V30 7155 C 680.444 -6.10777 3.79927 0
M  V30 7156 C 682.47 -5.23068 2.7596 0
M  V30 7157 C 681.832 -5.93617 3.79207 0
M  V30 7158 H 677.931 -0.78188 -0.0137104 0
M  V30 7159 H 680.515 -1.85919 0.578105 0
M  V30 7160 H 678.686 -3.71787 -1.12378 0
M  V30 7161 H 680.418 -3.92464 -0.987644 0
M  V30 7162 H 677.173 -4.65035 0.896606 0
M  V30 7163 H 677.597 -5.99408 3.14704 0
M  V30 7164 H 682.239 -4.12566 0.9246 0
M  V30 7165 H 679.957 -6.64909 4.59262 0
M  V30 7166 H 683.543 -5.11005 2.78147 0
M  V30 7167 H 682.423 -6.35743 4.5913 0
M  V30 7168 N 679.926 -0.151884 -1.56866 0
M  V30 7169 C 681.173 0.498004 -1.96281 0
M  V30 7170 C 681.501 1.64551 -1.03698 0
M  V30 7171 O 680.756 1.95585 -0.0671497 0
M  V30 7172 C 681.055 1.04074 -3.41911 0
M  V30 7173 C 680.721 0.0111688 -4.50899 0
M  V30 7174 C 679.383 -0.271844 -4.80432 0
M  V30 7175 C 681.735 -0.68869 -5.1663 0
M  V30 7176 C 679.063 -1.26044 -5.73001 0
M  V30 7177 C 681.415 -1.66613 -6.10264 0
M  V30 7178 C 680.079 -1.9568 -6.38174 0
M  V30 7179 H 679.349 0.182233 -0.718242 0
M  V30 7180 H 681.996 -0.239746 -1.89993 0
M  V30 7181 H 680.301 1.85592 -3.45055 0
M  V30 7182 H 681.998 1.55224 -3.69738 0
M  V30 7183 H 678.588 0.241932 -4.27917 0
M  V30 7184 H 682.772 -0.48324 -4.93942 0
M  V30 7185 H 678.028 -1.49202 -5.92915 0
M  V30 7186 H 682.202 -2.21392 -6.60272 0
M  V30 7187 H 679.829 -2.72434 -7.09707 0
M  V30 7188 N 681.404 1.57128 0.121893 0
M  V30 7189 C 682.651 1.847 0.830188 0
M  V30 7190 C 682.979 0.736543 1.80015 0
M  V30 7191 O 682.234 -0.272358 1.93796 0
M  V30 7192 C 682.533 3.1874 1.61677 0
M  V30 7193 C 682.199 4.43901 0.791361 0
M  V30 7194 C 680.861 4.77887 0.563731 0
M  V30 7195 C 683.213 5.20753 0.215823 0
M  V30 7196 C 680.541 5.86168 -0.249737 0
M  V30 7197 C 682.893 6.29891 -0.584821 0
M  V30 7198 C 681.557 6.6241 -0.822794 0
M  V30 7199 H 680.827 0.675866 0.303787 0
M  V30 7200 H 683.474 1.91276 0.0926894 0
M  V30 7201 H 681.779 3.07728 2.42509 0
M  V30 7202 H 683.476 3.37295 2.16872 0
M  V30 7203 H 680.066 4.17272 0.978867 0
M  V30 7204 H 684.25 4.94851 0.378907 0
M  V30 7205 H 679.506 6.0979 -0.44336 0
M  V30 7206 H 683.68 6.88624 -1.03779 0
M  V30 7207 H 681.307 7.46147 -1.45496 0
M  V30 7208 N 682.882 -0.391992 1.52647 0
M  V30 7209 C 683.829 -1.47866 1.77213 0
M  V30 7210 C 684.799 -1.54286 0.615223 0
M  V30 7211 O 685.984 -1.7059 0.854622 0
M  V30 7212 C 683.124 -2.85129 1.94411 0
M  V30 7213 C 682.237 -2.87883 3.22098 0
M  V30 7214 C 681.372 -4.16553 3.29631 0
M  V30 7215 C 680.411 -4.13348 4.51453 0
M  V30 7216 N 679.548 -5.33619 4.56284 0
M  V30 7217 H 684.388 -1.26219 2.6995 0
M  V30 7218 H 681.925 -0.612367 1.33748 0
M  V30 7219 H 683.883 -3.64833 2.02367 0
M  V30 7220 H 682.513 -3.05232 1.05038 0
M  V30 7221 H 681.565 -2.00567 3.23229 0
M  V30 7222 H 682.877 -2.81382 4.11856 0
M  V30 7223 H 682.031 -5.0466 3.36753 0
M  V30 7224 H 680.77 -4.25773 2.37842 0
M  V30 7225 H 679.775 -3.23629 4.44459 0
M  V30 7226 H 681 -4.05754 5.44555 0
M  V30 7227 H 678.946 -5.43474 3.67385 0
M  V30 7228 H 678.863 -5.29182 5.3991 0
M  V30 7229 H 680.131 -6.23632 4.67657 0
M  V30 7230 N 684.36 -1.4356 -0.65026 0
M  V30 7231 C 685.637 -1.35811 -1.40765 0
M  V30 7232 C 686.017 -0.00736379 -2.11099 0
M  V30 7233 O 685.365 1.00932 -2.05 0
M  V30 7234 C 685.575 -2.54332 -2.3899 0
M  V30 7235 C 686.923 -2.97551 -3.02901 0
M  V30 7236 O 687.947 -2.544 -2.49317 0
M  V30 7237 O 686.806 -3.72311 -4.00059 0
M  V30 7238 H 683.9 -0.536861 -0.629054 0
M  V30 7239 H 686.446 -1.55615 -0.676919 0
M  V30 7240 H 685.218 -3.44274 -1.85986 0
M  V30 7241 H 684.841 -2.36643 -3.19509 0
M  V30 7242 N 685.838 0.888903 -1.30139 0
M  V30 7243 C 686.748 2.02705 -1.18101 0
M  V30 7244 C 687.764 1.73702 -0.101809 0
M  V30 7245 O 688.94 1.98906 -0.315984 0
M  V30 7246 C 686.005 3.35616 -0.869651 0
M  V30 7247 C 685.066 3.78067 -2.03381 0
M  V30 7248 C 684.299 5.04635 -1.73721 0
M  V30 7249 O 684.522 5.66531 -0.663267 0
M  V30 7250 O 683.456 5.43399 -2.58845 0
M  V30 7251 H 687.282 2.15788 -2.13704 0
M  V30 7252 H 684.867 1.01426 -1.09695 0
M  V30 7253 H 686.749 4.15358 -0.711043 0
M  V30 7254 H 685.424 3.23651 0.0565002 0
M  V30 7255 H 684.331 2.99046 -2.24772 0
M  V30 7256 H 685.664 3.94631 -2.94155 0
M  V30 7257 N 687.317 1.12792 1.10072 0
M  V30 7258 C 688.265 0.794523 2.18609 0
M  V30 7259 C 689.259 -0.220271 1.67962 0
M  V30 7260 O 690.465 -0.0780938 1.79831 0
M  V30 7261 H 686.84 0.239123 0.712969 0
M  V30 7262 H 688.811 1.71823 2.43966 0
M  V30 7263 C 687.56 0.269548 3.46654 0
M  V30 7264 H 686.883 1.04171 3.8599 0
M  V30 7265 H 688.323 0.0746242 4.23934 0
M  V30 7266 C 686.782 -1.00333 3.21613 0
M  V30 7267 O 687.312 -2.08042 3.4363 0
M  V30 7268 N 685.518 -0.931763 2.75257 0
M  V30 7269 H 685.065 -0.0551197 2.57541 0
M  V30 7270 H 685.023 -1.78405 2.58881 0
M  V30 7271 N 688.795 -1.27931 0.920396 0
M  V30 7272 C 690.043 -1.94304 0.555906 0
M  V30 7273 C 690.364 -1.72753 -0.904519 0
M  V30 7274 O 689.634 -1.07104 -1.64029 0
M  V30 7275 H 688.214 -0.719001 0.202599 0
M  V30 7276 H 690.876 -1.55785 1.1712 0
M  V30 7277 H 689.972 -3.02806 0.755981 0
M  V30 7278 N 690.273 -0.685099 -1.4193 0
M  V30 7279 C 691.221 -0.00165985 -2.326 0
M  V30 7280 C 692.215 0.779678 -1.50391 0
M  V30 7281 O 693.421 0.68648 -1.66395 0
M  V30 7282 H 689.796 0.0182616 -0.751778 0
M  V30 7283 H 691.767 -0.783592 -2.87928 0
M  V30 7284 C 690.516 0.928385 -3.35077 0
M  V30 7285 H 689.839 0.336578 -3.98381 0
M  V30 7286 H 691.279 1.37509 -4.01083 0
M  V30 7287 C 689.738 2.03964 -2.68142 0
M  V30 7288 O 690.268 3.12727 -2.5212 0
M  V30 7289 N 688.474 1.81433 -2.27003 0
M  V30 7290 H 688.021 0.929807 -2.40234 0
M  V30 7291 H 687.979 2.55973 -1.82552 0
M  V30 7292 N 691.751 1.51645 -0.429126 0
M  V30 7293 C 692.681 2.30434 0.377148 0
M  V30 7294 C 693.662 1.35493 1.02838 0
M  V30 7295 O 694.847 1.6441 1.03359 0
M  V30 7296 C 691.977 3.14038 1.48315 0
M  V30 7297 C 690.931 4.1719 0.955855 0
M  V30 7298 C 690.257 4.89263 2.15698 0
M  V30 7299 C 691.557 5.223 -0.00402136 0
M  V30 7300 H 693.251 2.98085 -0.280336 0
M  V30 7301 H 690.797 1.43354 -0.136265 0
M  V30 7302 H 692.75 3.67933 2.05435 0
M  V30 7303 H 691.474 2.44193 2.16881 0
M  V30 7304 H 690.133 3.64335 0.406929 0
M  V30 7305 H 689.781 4.15929 2.82864 0
M  V30 7306 H 689.481 5.59009 1.81059 0
M  V30 7307 H 691.005 5.45978 2.73387 0
M  V30 7308 H 692.419 5.71315 0.476607 0
M  V30 7309 H 690.816 5.99525 -0.26258 0
M  V30 7310 H 691.886 4.75638 -0.943236 0
M  V30 7311 N 693.229 0.160201 1.56784 0
M  V30 7312 C 694.159 -0.770264 2.2043 0
M  V30 7313 C 695.14 -1.24736 1.15651 0
M  V30 7314 O 696.325 -1.30253 1.44041 0
M  V30 7315 C 693.455 -2.00427 2.83631 0
M  V30 7316 C 692.409 -1.66345 3.94352 0
M  V30 7317 C 691.735 -2.97119 4.4455 0
M  V30 7318 C 693.035 -0.899972 5.14488 0
M  V30 7319 H 694.729 -0.239783 2.98438 0
M  V30 7320 H 692.275 -0.113891 1.43549 0
M  V30 7321 H 694.228 -2.66012 3.26827 0
M  V30 7322 H 692.952 -2.5587 2.02973 0
M  V30 7323 H 691.611 -1.03133 3.51794 0
M  V30 7324 H 691.259 -3.5058 3.60698 0
M  V30 7325 H 690.959 -2.75073 5.19238 0
M  V30 7326 H 692.483 -3.63753 4.90425 0
M  V30 7327 H 693.897 -1.45818 5.54446 0
M  V30 7328 H 692.294 -0.778968 5.95023 0
M  V30 7329 H 693.364 0.105827 4.84785 0
M  V30 7330 N 694.707 -1.5719 -0.113559 0
M  V30 7331 C 695.932 -1.89702 -0.838336 0
M  V30 7332 C 696.357 -0.752679 -1.72384 0
M  V30 7333 O 695.715 0.296575 -1.78858 0
M  V30 7334 C 695.763 -3.20989 -1.64312 0
M  V30 7335 O 694.867 -3.07278 -2.75053 0
M  V30 7336 H 694.208 -0.622339 -0.231496 0
M  V30 7337 H 696.738 -2.04382 -0.0943228 0
M  V30 7338 H 696.748 -3.53843 -2.03123 0
M  V30 7339 H 695.423 -4.03869 -0.993119 0
M  V30 7340 H 694 -2.85901 -2.39406 0
M  V30 7341 N 696.185 0.383891 -1.52853 0
M  V30 7342 C 697.132 1.46924 -1.77995 0
M  V30 7343 C 698.102 1.53958 -0.623396 0
M  V30 7344 O 699.287 1.70134 -0.863657 0
M  V30 7345 C 696.427 2.84093 -1.95921 0
M  V30 7346 C 695.54 2.86171 -3.23621 0
M  V30 7347 C 694.675 4.14799 -3.31836 0
M  V30 7348 C 693.714 4.10948 -4.53639 0
M  V30 7349 N 692.851 5.31192 -4.59107 0
M  V30 7350 H 697.691 1.24786 -2.70615 0
M  V30 7351 H 695.228 0.605265 -1.34071 0
M  V30 7352 H 697.186 3.63755 -2.04299 0
M  V30 7353 H 695.816 3.04671 -1.06656 0
M  V30 7354 H 694.868 1.9885 -3.24288 0
M  V30 7355 H 696.18 2.79194 -4.13343 0
M  V30 7356 H 695.334 5.02867 -3.39425 0
M  V30 7357 H 694.073 4.24505 -2.40097 0
M  V30 7358 H 693.078 3.21268 -4.46169 0
M  V30 7359 H 694.303 4.0286 -5.467 0
M  V30 7360 H 692.249 5.41518 -3.70262 0
M  V30 7361 H 692.166 5.26311 -5.42708 0
M  V30 7362 H 693.434 6.21143 -4.70958 0
M  V30 7363 N 697.663 1.43903 0.642637 0
M  V30 7364 C 698.573 1.52349 1.78401 0
M  V30 7365 C 699.589 0.409869 1.69104 0
M  V30 7366 O 700.765 0.665548 1.90085 0
M  V30 7367 C 697.83 1.45408 3.14734 0
M  V30 7368 C 696.891 2.67528 3.35749 0
M  V30 7369 C 696.124 2.60909 4.65577 0
M  V30 7370 O 696.347 1.6627 5.45628 0
M  V30 7371 O 695.281 3.5158 4.88544 0
M  V30 7372 H 699.107 2.48752 1.7423 0
M  V30 7373 H 696.692 1.26021 0.802439 0
M  V30 7374 H 698.574 1.44019 3.96026 0
M  V30 7375 H 697.249 0.521437 3.19473 0
M  V30 7376 H 696.156 2.74487 2.5418 0
M  V30 7377 H 697.489 3.598 3.35864 0
M  V30 7378 N 699.141 -0.881989 1.30609 0
M  V30 7379 C 700.104 -1.96957 1.1722 0
M  V30 7380 C 701.104 -1.60472 0.102598 0
M  V30 7381 O 702.294 -1.70628 0.350943 0
M  V30 7382 C 699.426 -3.31463 0.796572 0
M  V30 7383 H 700.619 -2.10262 2.13846 0
M  V30 7384 H 698.172 -1.06877 1.14048 0
M  V30 7385 H 698.907 -3.23859 -0.169053 0
M  V30 7386 H 698.692 -3.59314 1.56959 0
M  V30 7387 H 700.182 -4.11233 0.72645 0
M  V30 7388 N 700.619 -1.13374 -1.09472 0
M  V30 7389 C 701.552 -0.754354 -2.15371 0
M  V30 7390 C 702.53 0.259205 -1.60521 0
M  V30 7391 O 703.714 0.150819 -1.87896 0
M  V30 7392 C 700.841 -0.118197 -3.38494 0
M  V30 7393 C 699.887 -1.10017 -4.12066 0
M  V30 7394 S 700.72 -2.63242 -4.6633 0
M  V30 7395 C 701.876 -2.00984 -5.92753 0
M  V30 7396 H 702.109 -1.65135 -2.4722 0
M  V30 7397 H 699.642 -0.953838 -1.21414 0
M  V30 7398 H 701.6 0.242447 -4.09783 0
M  V30 7399 H 700.261 0.756065 -3.04865 0
M  V30 7400 H 699.454 -0.60287 -5.00381 0
M  V30 7401 H 699.056 -1.40426 -3.46636 0
M  V30 7402 H 701.348 -1.35863 -6.63738 0
M  V30 7403 H 702.291 -2.8738 -6.47162 0
M  V30 7404 H 702.699 -1.46161 -5.4525 0
M  V30 7405 N 702.098 1.27442 -0.927168 0
M  V30 7406 C 703.326 1.98498 -0.583622 0
M  V30 7407 C 703.741 1.69171 0.838241 0
M  V30 7408 O 703.098 0.951969 1.55704 0
M  V30 7409 C 703.149 3.52552 -0.799341 0
M  V30 7410 O 702.87 3.80851 -2.16527 0
M  V30 7411 C 704.371 4.4086 -0.464436 0
M  V30 7412 H 701.591 0.633487 -0.221213 0
M  V30 7413 H 704.135 1.62308 -1.24404 0
M  V30 7414 H 702.29 3.86955 -0.185728 0
M  V30 7415 H 702.704 4.75441 -2.21487 0
M  V30 7416 H 704.178 5.47967 -0.666075 0
M  V30 7417 H 704.655 4.35082 0.599995 0
M  V30 7418 H 705.261 4.11977 -1.05617 0
M  V30 7419 N 703.576 0.692616 1.41565 0
M  V30 7420 C 704.486 0.0258451 2.34586 0
M  V30 7421 C 705.502 -0.769324 1.56069 0
M  V30 7422 O 706.678 -0.707563 1.88562 0
M  V30 7423 C 703.743 -0.901289 3.3478 0
M  V30 7424 C 702.804 -0.0986579 4.29187 0
M  V30 7425 C 702.037 -0.981634 5.24595 0
M  V30 7426 O 702.26 -2.22115 5.25377 0
M  V30 7427 O 701.194 -0.432892 6.00341 0
M  V30 7428 H 705.02 0.792537 2.93177 0
M  V30 7429 H 702.605 0.452935 1.42369 0
M  V30 7430 H 704.487 -1.43302 3.96286 0
M  V30 7431 H 703.162 -1.64752 2.78637 0
M  V30 7432 H 702.069 0.477604 3.71039 0
M  V30 7433 H 703.402 0.608848 4.8842 0
M  V30 7434 N 705.054 -1.51416 0.437162 0
M  V30 7435 C 706.47 -1.59349 0.0894459 0
M  V30 7436 C 706.67 -1.44809 -1.40116 0
M  V30 7437 O 705.726 -1.28924 -2.17106 0
M  V30 7438 C 707.039 -2.9446 0.609398 0
M  V30 7439 C 708.587 -3.07769 0.569824 0
M  V30 7440 C 709.062 -4.45404 1.06675 0
M  V30 7441 N 710.553 -4.51723 1.02473 0
M  V30 7442 C 711.288 -5.56544 1.3801 0
M  V30 7443 N 710.784 -6.68784 1.80831 0
M  V30 7444 N 712.577 -5.46901 1.29828 0
M  V30 7445 H 704.728 -1.59112 1.40703 0
M  V30 7446 H 706.991 -0.750031 0.579791 0
M  V30 7447 H 706.697 -3.1047 1.65231 0
M  V30 7448 H 706.571 -3.77184 0.0342236 0
M  V30 7449 H 708.958 -2.91428 -0.464107 0
M  V30 7450 H 709.039 -2.26885 1.1814 0
M  V30 7451 H 708.683 -4.62492 2.09914 0
M  V30 7452 H 708.613 -5.24827 0.431712 0
M  V30 7453 H 711.104 -3.71165 0.710258 0
M  V30 7454 H 711.417 -7.44787 2.06185 0
M  V30 7455 H 709.762 -6.69992 1.84757 0
M  V30 7456 H 712.953 -4.581 0.962397 0
M  V30 7457 H 713.126 -6.2848 1.57851 0
M  V30 7458 N 706.532 -0.168513 -1.56696 0
M  V30 7459 C 707.462 0.758563 -2.20835 0
M  V30 7460 C 708.443 1.24121 -1.1631 0
M  V30 7461 O 709.628 1.29487 -1.4473 0
M  V30 7462 C 706.758 1.9892 -2.8469 0
M  V30 7463 C 705.712 1.64252 -3.95228 0
M  V30 7464 C 705.038 2.94757 -4.46119 0
M  V30 7465 C 706.338 0.872675 -5.14958 0
M  V30 7466 H 708.032 0.223953 -2.98561 0
M  V30 7467 H 705.578 0.106277 -1.43607 0
M  V30 7468 H 707.531 2.64275 -3.28233 0
M  V30 7469 H 706.255 2.5479 -2.04327 0
M  V30 7470 H 704.914 1.01266 -3.52336 0
M  V30 7471 H 704.562 3.48662 -3.62552 0
M  V30 7472 H 704.262 2.72316 -5.2069 0
M  V30 7473 H 705.786 3.61147 -4.92347 0
M  V30 7474 H 707.2 1.42875 -5.55211 0
M  V30 7475 H 705.597 0.747402 -5.95428 0
M  V30 7476 H 706.667 -0.131535 -4.84722 0
M  V30 7477 N 708.01 1.57248 0.105221 0
M  V30 7478 C 708.957 2.01338 1.12835 0
M  V30 7479 C 709.927 0.887897 1.40377 0
M  V30 7480 O 711.112 1.15315 1.5201 0
M  V30 7481 C 708.252 2.43432 2.44611 0
M  V30 7482 C 707.365 3.69457 2.23888 0
M  V30 7483 C 706.5 4.00473 3.48991 0
M  V30 7484 C 705.539 5.19638 3.23485 0
M  V30 7485 N 704.676 5.46457 4.40828 0
M  V30 7486 H 709.516 2.88527 0.745386 0
M  V30 7487 H 707.053 1.42714 0.356535 0
M  V30 7488 H 709.011 2.65879 3.21503 0
M  V30 7489 H 707.641 1.59266 2.80774 0
M  V30 7490 H 706.693 3.54545 1.37847 0
M  V30 7491 H 708.005 4.56497 2.01026 0
M  V30 7492 H 707.159 4.23642 4.34295 0
M  V30 7493 H 705.898 3.11935 3.74897 0
M  V30 7494 H 704.903 4.96299 2.36574 0
M  V30 7495 H 706.128 6.09766 2.98935 0
M  V30 7496 H 704.074 4.60876 4.66829 0
M  V30 7497 H 703.991 6.27849 4.2112 0
M  V30 7498 H 705.259 5.74155 5.27225 0
M  V30 7499 N 709.488 -0.375779 1.53054 0
M  V30 7500 C 710.398 -1.48381 1.81715 0
M  V30 7501 C 711.414 -1.59087 0.704795 0
M  V30 7502 O 712.59 -1.75174 0.993785 0
M  V30 7503 C 709.655 -2.83767 1.99192 0
M  V30 7504 C 708.716 -2.82673 3.23102 0
M  V30 7505 C 707.949 -4.11601 3.39736 0
M  V30 7506 O 708.172 -5.07243 2.60885 0
M  V30 7507 O 707.106 -4.18034 4.33049 0
M  V30 7508 H 710.932 -1.27089 2.7583 0
M  V30 7509 H 708.517 -0.564902 1.38308 0
M  V30 7510 H 710.399 -3.64004 2.12318 0
M  V30 7511 H 709.074 -3.05057 1.08267 0
M  V30 7512 H 707.981 -2.0117 3.15407 0
M  V30 7513 H 709.314 -2.66335 4.13916 0
M  V30 7514 N 710.966 -1.44241 -0.634997 0
M  V30 7515 C 712.196 -1.50078 -1.41987 0
M  V30 7516 C 712.604 -0.123072 -1.88799 0
M  V30 7517 O 711.947 0.880552 -1.6122 0
M  V30 7518 C 712.009 -2.40033 -2.67628 0
M  V30 7519 C 711.673 -3.87268 -2.42637 0
M  V30 7520 C 712.67 -4.77902 -2.04708 0
M  V30 7521 C 710.355 -4.31933 -2.56396 0
M  V30 7522 C 712.349 -6.11202 -1.80862 0
M  V30 7523 C 710.036 -5.65281 -2.32164 0
M  V30 7524 C 711.034 -6.54734 -1.94455 0
M  V30 7525 O 710.722 -7.85613 -1.7049 0
M  V30 7526 H 710.454 -0.51146 -0.442023 0
M  V30 7527 H 713.008 -1.89843 -0.784138 0
M  V30 7528 H 711.238 -1.95188 -3.33824 0
M  V30 7529 H 712.927 -2.36863 -3.29622 0
M  V30 7530 H 713.693 -4.44668 -1.93638 0
M  V30 7531 H 709.572 -3.62569 -2.84719 0
M  V30 7532 H 713.116 -6.80983 -1.51353 0
M  V30 7533 H 709.013 -5.98078 -2.42843 0
M  V30 7534 H 709.781 -7.97373 -1.84767 0
M  V30 7535 N 712.444 0.87505 -1.31075 0
M  V30 7536 C 713.693 1.62245 -1.19831 0
M  V30 7537 C 714.006 1.94078 0.24357 0
M  V30 7538 O 715.212 2.67265 0.477646 0
M  V30 7539 C 713.668 2.92464 -2.09744 0
M  V30 7540 C 713.276 2.68134 -3.58898 0
M  V30 7541 C 715.02 3.70449 -2.07287 0
M  V30 7542 C 712.927 3.9423 -4.40836 0
M  V30 7543 H 711.857 0.608741 -0.444916 0
M  V30 7544 H 714.508 0.967947 -1.55894 0
M  V30 7545 H 712.89 3.59262 -1.66574 0
M  V30 7546 H 714.064 2.09776 -4.10281 0
M  V30 7547 H 712.379 2.03511 -3.6328 0
M  V30 7548 H 714.976 4.63983 -2.65752 0
M  V30 7549 H 715.319 4.02611 -1.05876 0
M  V30 7550 H 715.852 3.10528 -2.48631 0
M  V30 7551 H 712.591 3.67221 -5.42982 0
M  V30 7552 H 712.111 4.52058 -3.94213 0
M  V30 7553 H 713.79 4.62162 -4.52786 0
M  V30 7554 N 713.922 1.13953 1.08869 0
M  V30 7555 C 714.872 0.790812 2.13846 0
M  V30 7556 C 715.856 -0.217819 1.59419 0
M  V30 7557 O 717.048 -0.0208723 1.76988 0
M  V30 7558 C 714.177 0.26479 3.42277 0
M  V30 7559 C 713.263 1.30267 4.03598 0
M  V30 7560 N 713.654 2.50535 4.39393 0
M  V30 7561 C 711.952 1.15178 4.30871 0
M  V30 7562 C 712.653 3.16938 4.87776 0
M  V30 7563 N 711.629 2.44349 4.85587 0
M  V30 7564 H 715.431 1.70577 2.39334 0
M  V30 7565 H 712.945 1.02268 1.26154 0
M  V30 7566 H 714.942 -0.00330398 4.169 0
M  V30 7567 H 713.602 -0.644419 3.18241 0
M  V30 7568 H 714.613 2.87798 4.30572 0
M  V30 7569 H 711.29 0.301204 4.16412 0
M  V30 7570 H 712.68 4.19453 5.2489 0
M  V30 7571 N 715.4 -1.26948 0.933913 0
M  V30 7572 C 716.628 -1.98186 0.59414 0
M  V30 7573 C 717.043 -1.69614 -0.829257 0
M  V30 7574 O 716.4 -0.960213 -1.55197 0
M  V30 7575 C 716.451 -3.52123 0.818026 0
M  V30 7576 O 716.172 -3.79698 2.18543 0
M  V30 7577 C 717.673 -4.40608 0.48781 0
M  V30 7578 H 714.893 -0.632305 0.224569 0
M  V30 7579 H 717.437 -1.61646 1.25263 0
M  V30 7580 H 715.592 -3.86851 0.206246 0
M  V30 7581 H 716.006 -4.7426 2.24005 0
M  V30 7582 H 717.48 -5.47606 0.695126 0
M  V30 7583 H 717.957 -4.35394 -0.576913 0
M  V30 7584 H 718.563 -4.11411 1.078 0
M  V30 7585 N 716.879 -0.700114 -1.41195 0
M  V30 7586 C 718.125 -0.233351 -2.01453 0
M  V30 7587 C 718.458 1.16548 -1.55339 0
M  V30 7588 O 717.733 1.78756 -0.766575 0
M  V30 7589 C 718.016 -0.2961 -3.58881 0
M  V30 7590 C 717.869 -1.7322 -4.15108 0
M  V30 7591 C 719.188 0.341525 -4.38773 0
M  V30 7592 H 716.307 -0.0862667 -0.731934 0
M  V30 7593 H 718.949 -0.889693 -1.67882 0
M  V30 7594 H 717.099 0.262736 -3.87611 0
M  V30 7595 H 718.771 -2.34523 -3.97236 0
M  V30 7596 H 717.014 -2.2649 -3.69979 0
M  V30 7597 H 717.685 -1.7276 -5.24269 0
M  V30 7598 H 720.161 -0.134461 -4.15883 0
M  V30 7599 H 719.037 0.267098 -5.4825 0
M  V30 7600 H 719.298 1.42289 -4.18577 0
M  V30 7601 N 718.357 1.51182 -0.445186 0
M  V30 7602 C 719.603 2.02452 0.11882 0
M  V30 7603 C 719.936 1.32824 1.41673 0
M  V30 7604 O 719.211 0.445637 1.89326 0
M  V30 7605 C 719.494 3.5859 0.329475 0
M  V30 7606 C 719.347 4.38823 -0.987638 0
M  V30 7607 C 720.666 4.26241 1.09575 0
M  V30 7608 H 717.785 0.735819 0.0417092 0
M  V30 7609 H 720.427 1.80747 -0.585718 0
M  V30 7610 H 718.577 3.77214 0.9296 0
M  V30 7611 H 720.249 4.3183 -1.62235 0
M  V30 7612 H 718.492 4.03594 -1.59041 0
M  V30 7613 H 719.163 5.46257 -0.794192 0
M  V30 7614 H 721.639 4.11934 0.587328 0
M  V30 7615 H 720.515 5.35354 1.21191 0
M  V30 7616 H 720.776 3.87635 2.12584 0
M  V30 7617 N 719.835 0.176821 1.56605 0
M  V30 7618 C 721.083 -0.465793 1.96659 0
M  V30 7619 C 721.404 -1.63406 1.06412 0
M  V30 7620 O 720.674 -1.95457 0.131603 0
M  V30 7621 H 719.254 -0.175072 0.726195 0
M  V30 7622 H 721.916 0.25929 1.93168 0
M  V30 7623 H 721.012 -0.822138 3.01077 0
M  V30 7624 N 721.313 -1.57302 -0.09688 0
M  V30 7625 C 722.263 -1.98369 -1.12399 0
M  V30 7626 C 723.247 -0.861872 -1.3587 0
M  V30 7627 O 724.439 -1.1257 -1.36591 0
M  V30 7628 C 721.568 -2.41017 -2.4447 0
M  V30 7629 C 720.654 -3.59881 -2.24381 0
M  V30 7630 N 721.045 -4.74872 -1.74155 0
M  V30 7631 C 719.343 -3.65943 -2.54954 0
M  V30 7632 C 720.044 -5.56823 -1.68294 0
M  V30 7633 N 719.02 -4.99942 -2.13444 0
M  V30 7634 H 722.822 -2.84726 -0.728575 0
M  V30 7635 H 720.336 -1.59523 -0.304332 0
M  V30 7636 H 722.333 -2.68665 -3.18786 0
M  V30 7637 H 720.993 -1.56036 -2.84751 0
M  V30 7638 H 722.004 -4.97657 -1.43379 0
M  V30 7639 H 718.681 -2.9162 -2.98771 0
M  V30 7640 H 720.071 -6.59099 -1.30528 0
M  V30 7641 N 722.791 0.367657 -1.53252 0
M  V30 7642 C 724.038 1.11052 -1.69333 0
M  V30 7643 C 724.366 1.89363 -0.444064 0
M  V30 7644 O 723.621 1.87094 0.573953 0
M  V30 7645 C 723.92 2.09825 -2.89324 0
M  V30 7646 C 723.586 1.4801 -4.25915 0
M  V30 7647 C 722.248 1.30879 -4.6306 0
M  V30 7648 C 724.6 1.03268 -5.10867 0
M  V30 7649 C 721.928 0.675868 -5.82794 0
M  V30 7650 C 724.28 0.41377 -6.31245 0
M  V30 7651 C 722.944 0.229939 -6.67104 0
M  V30 7652 H 722.214 0.406367 -0.619634 0
M  V30 7653 H 724.861 0.392558 -1.87433 0
M  V30 7654 H 723.166 2.87917 -2.65728 0
M  V30 7655 H 724.863 2.67252 -2.98961 0
M  V30 7656 H 721.453 1.62336 -3.96667 0
M  V30 7657 H 725.637 1.15297 -4.82722 0
M  V30 7658 H 720.893 0.521833 -6.09169 0
M  V30 7659 H 725.067 0.0588768 -6.96375 0
M  V30 7660 H 722.694 -0.262562 -7.59746 0
M  V30 7661 N 724.269 1.44576 0.627338 0
M  V30 7662 C 725.216 1.51734 1.73912 0
M  V30 7663 C 726.186 0.364745 1.62046 0
M  V30 7664 O 727.371 0.575503 1.81914 0
M  V30 7665 C 724.511 1.47116 3.12171 0
M  V30 7666 C 723.624 2.72778 3.34986 0
M  V30 7667 C 722.759 2.59968 4.63239 0
M  V30 7668 C 721.798 3.80776 4.79245 0
M  V30 7669 N 720.935 3.66618 5.98778 0
M  V30 7670 H 725.775 2.46722 1.6713 0
M  V30 7671 H 723.312 1.22444 0.815224 0
M  V30 7672 H 725.27 1.42429 3.92135 0
M  V30 7673 H 723.9 0.556928 3.17959 0
M  V30 7674 H 722.952 2.87637 2.48936 0
M  V30 7675 H 724.264 3.62441 3.42692 0
M  V30 7676 H 723.418 2.53135 5.51369 0
M  V30 7677 H 722.157 1.67872 4.57898 0
M  V30 7678 H 721.162 3.87989 3.89544 0
M  V30 7679 H 722.387 4.73913 4.86398 0
M  V30 7680 H 720.333 2.77277 5.9452 0
M  V30 7681 H 720.25 4.499 6.07557 0
M  V30 7682 H 721.518 3.63684 6.89459 0
M  V30 7683 N 725.747 -0.868086 1.31537 0
M  V30 7684 C 726.995 -1.61807 1.21091 0
M  V30 7685 C 727.316 -1.93631 -0.230623 0
M  V30 7686 O 726.586 -1.5846 -1.15183 0
M  V30 7687 H 725.166 -0.599854 0.445178 0
M  V30 7688 H 727.828 -1.03915 1.64887 0
M  V30 7689 H 726.924 -2.56088 1.78396 0
M  V30 7690 N 727.225 -1.14528 -1.08264 0
M  V30 7691 C 728.172 -0.833556 -2.15222 0
M  V30 7692 C 729.142 0.209539 -1.64773 0
M  V30 7693 O 730.327 0.0791388 -1.90636 0
M  V30 7694 C 727.467 -0.318799 -3.43624 0
M  V30 7695 C 726.58 -1.42237 -4.07913 0
M  V30 7696 C 725.715 -0.864704 -5.24115 0
M  V30 7697 C 724.754 -1.94585 -5.80347 0
M  V30 7698 N 723.891 -1.40525 -6.87893 0
M  V30 7699 H 728.731 -1.74965 -2.41228 0
M  V30 7700 H 726.268 -0.873169 -1.18381 0
M  V30 7701 H 728.226 -0.00213088 -4.172 0
M  V30 7702 H 726.856 0.560397 -3.17898 0
M  V30 7703 H 725.908 -1.8554 -3.32083 0
M  V30 7704 H 727.22 -2.23901 -4.45724 0
M  V30 7705 H 726.374 -0.500025 -6.04636 0
M  V30 7706 H 725.113 -0.0171219 -4.87697 0
M  V30 7707 H 724.118 -2.31946 -4.98479 0
M  V30 7708 H 725.343 -2.79704 -6.18823 0
M  V30 7709 H 723.289 -0.579873 -6.53432 0
M  V30 7710 H 723.206 -2.15825 -7.24538 0
M  V30 7711 H 724.474 -1.06852 -7.72142 0
M  V30 7712 N 728.703 1.26451 -0.940633 0
M  V30 7713 C 729.949 1.94065 -0.58878 0
M  V30 7714 C 730.282 1.7363 0.869853 0
M  V30 7715 O 729.557 1.073 1.62225 0
M  V30 7716 C 729.84 3.47852 -0.931199 0
M  V30 7717 C 729.693 3.77575 -2.44453 0
M  V30 7718 C 731.012 4.37832 -0.446229 0
M  V30 7719 H 728.131 0.704827 -0.21538 0
M  V30 7720 H 730.773 1.4933 -1.17475 0
M  V30 7721 H 728.923 3.86085 -0.432539 0
M  V30 7722 H 730.595 3.49059 -3.01588 0
M  V30 7723 H 728.838 3.23671 -2.88825 0
M  V30 7724 H 729.509 4.85068 -2.63464 0
M  V30 7725 H 731.985 4.06822 -0.873778 0
M  V30 7726 H 730.861 5.44228 -0.714648 0
M  V30 7727 H 731.122 4.37239 0.653815 0
M  V30 7728 N 730.181 0.707592 1.40822 0
M  V30 7729 C 731.411 0.252706 2.05049 0
M  V30 7730 C 731.819 -1.10758 1.53393 0
M  V30 7731 O 731.162 -1.70567 0.682097 0
M  V30 7732 C 731.224 0.146001 3.59203 0
M  V30 7733 C 730.888 1.44027 4.33711 0
M  V30 7734 C 731.885 2.38058 4.62195 0
M  V30 7735 C 729.57 1.69698 4.72766 0
M  V30 7736 C 731.564 3.56013 5.28709 0
M  V30 7737 C 729.251 2.87936 5.39014 0
M  V30 7738 C 730.249 3.80915 5.66915 0
M  V30 7739 O 729.937 4.9708 6.31796 0
M  V30 7740 H 729.669 0.112784 0.666525 0
M  V30 7741 H 732.223 0.96417 1.81364 0
M  V30 7742 H 730.453 -0.621338 3.81676 0
M  V30 7743 H 732.142 -0.273275 4.04979 0
M  V30 7744 H 732.908 2.19487 4.32493 0
M  V30 7745 H 728.787 0.981835 4.50423 0
M  V30 7746 H 732.331 4.28604 5.50404 0
M  V30 7747 H 728.228 3.06419 5.68135 0
M  V30 7748 H 728.996 4.97053 6.50293 0
M  V30 7749 N 731.66 -1.50943 0.453197 0
M  V30 7750 C 732.623 -2.26684 -0.338705 0
M  V30 7751 C 733.623 -1.30748 -0.936032 0
M  V30 7752 O 734.813 -1.54327 -0.808002 0
M  V30 7753 C 731.945 -3.07063 -1.48071 0
M  V30 7754 H 733.138 -2.98131 0.325289 0
M  V30 7755 H 730.691 -1.54926 0.206771 0
M  V30 7756 H 731.426 -2.4007 -2.18029 0
M  V30 7757 H 731.211 -3.77545 -1.0584 0
M  V30 7758 H 732.701 -3.64393 -2.0398 0
M  V30 7759 N 733.138 -0.185124 -1.56509 0
M  V30 7760 C 734.384 0.450356 -1.98352 0
M  V30 7761 C 734.739 1.59923 -1.06969 0
M  V30 7762 O 734.032 1.91272 -0.112084 0
M  V30 7763 C 734.226 0.967977 -3.44042 0
M  V30 7764 C 734.055 -0.129208 -4.49514 0
M  V30 7765 C 732.825 -0.58351 -5.0192 0
M  V30 7766 C 735.023 -0.93459 -5.05737 0
M  V30 7767 N 733.005 -1.65956 -5.91043 0
M  V30 7768 C 734.376 -1.86026 -5.91434 0
M  V30 7769 C 736.431 -0.978125 -4.88198 0
M  V30 7770 C 735.134 -2.82582 -6.61468 0
M  V30 7771 C 737.16 -1.93169 -5.58963 0
M  V30 7772 C 736.522 -2.84481 -6.44399 0
M  V30 7773 H 732.621 0.132504 -0.770692 0
M  V30 7774 H 735.205 -0.288523 -1.9255 0
M  V30 7775 H 733.376 1.67633 -3.50362 0
M  V30 7776 H 735.108 1.57323 -3.72869 0
M  V30 7777 H 731.863 -0.178676 -4.73263 0
M  V30 7778 H 732.287 -2.19848 -6.40309 0
M  V30 7779 H 736.929 -0.286169 -4.2183 0
M  V30 7780 H 734.647 -3.52758 -7.2704 0
M  V30 7781 H 738.233 -1.97166 -5.47373 0
M  V30 7782 H 737.113 -3.57065 -6.98194 0
M  V30 7783 N 734.616 1.57351 0.0885366 0
M  V30 7784 C 735.893 1.77449 0.822873 0
M  V30 7785 C 736.273 0.768463 1.96616 0
M  V30 7786 O 735.621 -0.201757 2.27608 0
M  V30 7787 C 735.831 3.23425 1.31137 0
M  V30 7788 C 737.179 3.86791 1.75152 0
M  V30 7789 O 738.203 3.27215 1.40745 0
M  V30 7790 O 737.062 4.91568 2.38794 0
M  V30 7791 H 734.156 0.727653 0.393002 0
M  V30 7792 H 736.702 1.69556 0.0699095 0
M  V30 7793 H 735.474 3.88188 0.49254 0
M  V30 7794 H 735.097 3.35977 2.12615 0
M  V30 7795 N 736.094 -0.359525 1.53444 0
M  V30 7796 C 737.34 -1.10315 1.70172 0
M  V30 7797 C 737.673 -1.88788 0.455287 0
M  V30 7798 O 736.948 -1.86635 -0.547514 0
M  V30 7799 C 737.231 -2.05744 2.95536 0
M  V30 7800 C 737.084 -1.3084 4.3035 0
M  V30 7801 C 738.403 -3.05784 3.16518 0
M  V30 7802 H 735.522 -0.399662 0.619225 0
M  V30 7803 H 738.164 -0.383338 1.86093 0
M  V30 7804 H 736.314 -2.67125 2.82093 0
M  V30 7805 H 737.986 -0.721959 4.55615 0
M  V30 7806 H 736.229 -0.610283 4.29486 0
M  V30 7807 H 736.9 -2.00718 5.14214 0
M  V30 7808 H 739.376 -2.5451 3.29187 0
M  V30 7809 H 738.252 -3.69772 4.05659 0
M  V30 7810 H 738.513 -3.76289 2.32076 0
M  V30 7811 N 737.572 -1.44907 -0.619662 0
M  V30 7812 C 738.818 -1.48512 -1.38102 0
M  V30 7813 C 739.151 -0.121686 -1.93818 0
M  V30 7814 O 738.426 0.862256 -1.74343 0
M  V30 7815 C 738.709 -2.55469 -2.53787 0
M  V30 7816 C 738.562 -4.01212 -2.03345 0
M  V30 7817 C 739.881 -2.58821 -3.55949 0
M  V30 7818 H 737 -0.540712 -0.500799 0
M  V30 7819 H 739.642 -1.7665 -0.69962 0
M  V30 7820 H 737.792 -2.31606 -3.11915 0
M  V30 7821 H 739.464 -4.36245 -1.49959 0
M  V30 7822 H 737.707 -4.12443 -1.34438 0
M  V30 7823 H 738.378 -4.71717 -2.86683 0
M  V30 7824 H 740.854 -2.80172 -3.07641 0
M  V30 7825 H 739.73 -3.35542 -4.34399 0
M  V30 7826 H 739.991 -1.63451 -4.10775 0
M  V30 7827 N 739.05 0.861098 -1.31996 0
M  V30 7828 C 739.998 1.99052 -1.20337 0
M  V30 7829 C 740.992 1.69045 -0.109623 0
M  V30 7830 O 742.198 1.77931 -0.272117 0
M  V30 7831 H 738.573 0.653064 -0.372843 0
M  V30 7832 H 740.544 2.06015 -2.15872 0
M  V30 7833 C 739.293 3.34846 -0.936663 0
M  V30 7834 H 738.616 3.58462 -1.77045 0
M  V30 7835 H 740.056 4.1444 -0.895302 0
M  V30 7836 C 738.515 3.34965 0.360607 0
M  V30 7837 O 739.045 3.7745 1.37456 0
M  V30 7838 N 737.251 2.88101 0.380296 0
M  V30 7839 H 736.798 2.53721 -0.445351 0
M  V30 7840 H 736.756 2.88563 1.24816 0
M  V30 7841 N 740.528 1.15101 1.07655 0
M  V30 7842 C 741.438 0.858869 2.18313 0
M  V30 7843 C 742.454 -0.163641 1.73229 0
M  V30 7844 O 743.63 0.00969541 2.01398 0
M  V30 7845 C 740.695 0.34893 3.4494 0
M  V30 7846 C 739.756 1.43495 4.04608 0
M  V30 7847 C 738.989 0.949253 5.2519 0
M  V30 7848 O 739.212 -0.20636 5.70027 0
M  V30 7849 O 738.146 1.73161 5.76454 0
M  V30 7850 H 741.972 1.78386 2.45788 0
M  V30 7851 H 739.557 0.929876 1.16934 0
M  V30 7852 H 741.439 0.070851 4.2134 0
M  V30 7853 H 740.114 -0.548237 3.19024 0
M  V30 7854 H 739.021 1.7666 3.29761 0
M  V30 7855 H 740.354 2.30692 4.3479 0
M  V30 7856 N 742.006 -1.2595 0.947325 0
M  V30 7857 C 742.969 -2.24407 0.466285 0
M  V30 7858 C 743.969 -1.55054 -0.426005 0
M  V30 7859 O 745.159 -1.7275 -0.224319 0
M  V30 7860 C 742.291 -3.39326 -0.327201 0
M  V30 7861 H 743.484 -2.68477 1.33642 0
M  V30 7862 H 741.037 -1.38211 0.729887 0
M  V30 7863 H 741.772 -3.00667 -1.21532 0
M  V30 7864 H 741.557 -3.9085 0.312839 0
M  V30 7865 H 743.047 -4.12455 -0.653477 0
M  V30 7866 N 743.484 -0.715051 -1.40445 0
M  V30 7867 C 744.73 -0.254705 -2.01194 0
M  V30 7868 C 745.063 1.14894 -1.56567 0
M  V30 7869 O 744.338 1.77933 -0.785491 0
M  V30 7870 C 744.621 -0.334148 -3.58546 0
M  V30 7871 C 744.474 -1.77613 -4.13248 0
M  V30 7872 C 745.793 0.294968 -4.3911 0
M  V30 7873 H 742.912 -0.094025 -0.730978 0
M  V30 7874 H 745.554 -0.907449 -1.66929 0
M  V30 7875 H 743.704 0.221609 -3.87867 0
M  V30 7876 H 745.376 -2.38723 -3.94727 0
M  V30 7877 H 743.619 -2.30402 -3.67556 0
M  V30 7878 H 744.29 -1.78311 -5.22407 0
M  V30 7879 H 746.766 -0.178563 -4.15717 0
M  V30 7880 H 745.642 0.208934 -5.48502 0
M  V30 7881 H 745.903 1.37841 -4.20062 0
M  V30 7882 N 744.962 1.50701 -0.461195 0
M  V30 7883 C 746.239 1.94958 0.158296 0
M  V30 7884 C 746.619 1.40111 1.57899 0
M  V30 7885 O 745.967 0.597976 2.20537 0
M  V30 7886 C 746.177 3.48821 0.11172 0
M  V30 7887 C 747.525 4.23499 0.30552 0
M  V30 7888 O 748.549 3.557 0.188758 0
M  V30 7889 O 747.408 5.43823 0.540244 0
M  V30 7890 H 744.502 0.818674 0.117054 0
M  V30 7891 H 747.048 1.61508 -0.520888 0
M  V30 7892 H 745.82 3.81263 -0.880577 0
M  V30 7893 H 745.443 3.88781 0.832791 0
M  V30 7894 N 746.441 0.193421 1.56409 0
M  V30 7895 C 747.852 -0.319471 1.83946 0
M  V30 7896 C 748.203 -1.61505 1.11403 0
M  V30 7897 O 747.328 -2.13139 0.374289 0
M  V30 7898 C 747.923 -0.586411 3.33686 0
M  V30 7899 C 746.482 -1.04368 3.61641 0
M  V30 7900 C 745.629 -0.0913834 2.77149 0
M  V30 7901 H 748.58 0.417242 1.53117 0
M  V30 7902 H 748.601 -1.43591 3.52366 0
M  V30 7903 H 748.113 0.356701 3.86457 0
M  V30 7904 H 746.214 -2.00113 3.14302 0
M  V30 7905 H 746.327 -0.937549 4.69837 0
M  V30 7906 H 744.691 -0.592954 2.47702 0
M  V30 7907 H 745.474 0.846142 3.32709 0
M  V30 7908 N 747.919 -1.57396 -0.0801906 0
M  V30 7909 C 748.867 -2.04136 -1.11495 0
M  V30 7910 C 749.861 -0.945137 -1.40583 0
M  V30 7911 O 751.067 -1.13028 -1.40088 0
M  V30 7912 H 747.442 -0.65076 -0.37685 0
M  V30 7913 H 749.413 -2.90205 -0.694526 0
M  V30 7914 C 748.162 -2.49399 -2.42272 0
M  V30 7915 H 747.485 -3.33339 -2.20737 0
M  V30 7916 H 748.925 -2.85864 -3.13142 0
M  V30 7917 C 747.384 -1.37341 -3.07635 0
M  V30 7918 O 747.914 -0.710829 -3.95361 0
M  V30 7919 N 746.12 -1.12064 -2.68123 0
M  V30 7920 H 745.667 -1.66126 -1.96875 0
M  V30 7921 H 745.625 -0.372916 -3.12181 0
M  V30 7922 N 749.397 0.351382 -1.53633 0
M  V30 7923 C 750.329 1.45159 -1.77374 0
M  V30 7924 C 751.342 1.4905 -0.654826 0
M  V30 7925 O 752.531 1.52274 -0.931396 0
M  V30 7926 C 749.631 2.83858 -1.85143 0
M  V30 7927 C 748.804 3.03498 -3.14972 0
M  V30 7928 C 747.863 4.22393 -3.138 0
M  V30 7929 O 746.889 4.16885 -3.87551 0
M  V30 7930 N 748.091 5.30533 -2.35617 0
M  V30 7931 H 750.856 1.25167 -2.72311 0
M  V30 7932 H 748.417 0.54121 -1.52586 0
M  V30 7933 H 750.409 3.61557 -1.8182 0
M  V30 7934 H 748.979 2.9703 -0.974275 0
M  V30 7935 H 748.199 2.13336 -3.31484 0
M  V30 7936 H 749.487 3.13498 -4.00745 0
M  V30 7937 H 748.885 5.37875 -1.75235 0
M  V30 7938 H 747.442 6.06756 -2.38098 0
M  V30 7939 N 750.875 1.45233 0.611969 0
M  V30 7940 C 752.286 1.4354 1.19387 0
M  V30 7941 C 752.637 0.160713 1.95541 0
M  V30 7942 O 751.762 -0.737954 2.03429 0
M  V30 7943 C 752.357 2.60045 2.17169 0
M  V30 7944 C 750.916 2.61486 2.70744 0
M  V30 7945 C 750.063 2.35708 1.46072 0
M  V30 7946 H 753.014 1.53536 0.401529 0
M  V30 7947 H 753.035 2.33893 3.00124 0
M  V30 7948 H 752.547 3.52803 1.61714 0
M  V30 7949 H 750.648 1.72721 3.30149 0
M  V30 7950 H 750.761 3.60572 3.15476 0
M  V30 7951 H 749.125 1.85178 1.74875 0
M  V30 7952 H 749.908 3.30606 0.924922 0
M  V30 7953 N 752.353 -0.854086 1.3245 0
M  V30 7954 C 753.63 -1.59188 1.1366 0
M  V30 7955 C 754.01 -2.08917 -0.302807 0
M  V30 7956 O 753.358 -1.8795 -1.29951 0
M  V30 7957 C 753.568 -2.73757 2.16467 0
M  V30 7958 C 754.916 -3.43323 2.49829 0
M  V30 7959 O 755.94 -2.83983 2.15017 0
M  V30 7960 O 754.799 -4.50409 3.09506 0
M  V30 7961 H 751.893 -0.701092 0.438633 0
M  V30 7962 H 754.439 -0.898165 1.43983 0
M  V30 7963 H 753.211 -2.3454 3.1322 0
M  V30 7964 H 752.834 -3.50804 1.87142 0
M  V30 7965 N 753.831 -1.1567 -1.07043 0
M  V30 7966 C 755.079 -0.931673 -1.79344 0
M  V30 7967 C 755.4 0.542421 -1.87304 0
M  V30 7968 O 754.67 1.39418 -1.37621 0
M  V30 7969 H 753.25 -0.34171 -0.664262 0
M  V30 7970 H 755.912 -1.45795 -1.29344 0
M  V30 7971 H 755.008 -1.34379 -2.81689 0
M  V30 7972 N 755.309 1.25446 -0.953992 0
M  V30 7973 C 756.239 2.28264 -0.491717 0
M  V30 7974 C 757.22 1.63717 0.461617 0
M  V30 7975 O 758.405 1.90821 0.36071 0
M  V30 7976 C 755.535 3.46525 0.231915 0
M  V30 7977 C 754.489 4.23247 -0.636098 0
M  V30 7978 C 753.815 5.34254 0.218238 0
M  V30 7979 C 755.115 4.85971 -1.91389 0
M  V30 7980 H 756.809 2.67183 -1.35106 0
M  V30 7981 H 754.355 1.2844 -0.651095 0
M  V30 7982 H 756.308 4.17576 0.566439 0
M  V30 7983 H 755.032 3.06594 1.12551 0
M  V30 7984 H 753.691 3.53978 -0.953696 0
M  V30 7985 H 753.339 4.90564 1.11156 0
M  V30 7986 H 753.039 5.86501 -0.359232 0
M  V30 7987 H 754.563 6.08138 0.547743 0
M  V30 7988 H 755.977 5.49168 -1.64581 0
M  V30 7989 H 754.374 5.48391 -2.43696 0
M  V30 7990 H 755.444 4.08192 -2.61738 0
M  V30 7991 N 756.787 0.722489 1.40064 0
M  V30 7992 C 758.203 0.396758 1.5459 0
M  V30 7993 C 758.403 -1.09375 1.69232 0
M  V30 7994 O 757.459 -1.87984 1.68578 0
M  V30 7995 C 758.772 1.16885 2.77053 0
M  V30 7996 C 760.32 1.15583 2.90877 0
M  V30 7997 C 760.795 1.91023 4.16262 0
M  V30 7998 N 762.286 1.88126 4.23276 0
M  V30 7999 C 763.021 2.43315 5.19216 0
M  V30 8000 N 762.517 3.07089 6.21022 0
M  V30 8001 N 764.31 2.33418 5.11344 0
M  V30 8002 H 756.461 1.68887 1.28806 0
M  V30 8003 H 758.724 0.714231 0.62336 0
M  V30 8004 H 758.43 2.22301 2.72534 0
M  V30 8005 H 758.304 0.765011 3.69361 0
M  V30 8006 H 760.691 0.10984 2.94896 0
M  V30 8007 H 760.772 1.59895 1.99668 0
M  V30 8008 H 760.416 2.95616 4.13006 0
M  V30 8009 H 760.346 1.44126 5.06493 0
M  V30 8010 H 762.837 1.41654 3.50346 0
M  V30 8011 H 763.15 3.467 6.90666 0
M  V30 8012 H 761.495 3.11175 6.21446 0
M  V30 8013 H 764.686 1.83248 4.30741 0
M  V30 8014 H 764.859 2.7673 5.85939 0
M  V30 8015 N 758.265 -1.50454 0.469181 0
M  V30 8016 C 759.681 -1.59124 0.123226 0
M  V30 8017 C 759.881 -1.47749 -1.37013 0
M  V30 8018 O 758.937 -1.335 -2.14322 0
M  V30 8019 C 760.25 -2.93101 0.67172 0
M  V30 8020 C 761.798 -3.06491 0.634978 0
M  V30 8021 C 762.273 -4.43041 1.16098 0
M  V30 8022 N 763.764 -4.49448 1.12031 0
M  V30 8023 C 764.499 -5.53491 1.49784 0
M  V30 8024 N 763.995 -6.64798 1.94976 0
M  V30 8025 N 765.788 -5.44025 1.41399 0
M  V30 8026 H 757.939 -1.56091 1.44046 0
M  V30 8027 H 760.202 -0.737564 0.59557 0
M  V30 8028 H 759.908 -3.06895 1.7178 0
M  V30 8029 H 759.782 -3.77027 0.114222 0
M  V30 8030 H 762.169 -2.92346 -0.402187 0
M  V30 8031 H 762.25 -2.24328 1.22926 0
M  V30 8032 H 761.894 -4.57935 2.19677 0
M  V30 8033 H 761.824 -5.23794 0.542939 0
M  V30 8034 H 764.315 -3.69575 0.788828 0
M  V30 8035 H 764.628 -7.40246 2.21936 0
M  V30 8036 H 762.973 -6.65923 1.98927 0
M  V30 8037 H 766.164 -4.55955 1.05935 0
M  V30 8038 H 766.337 -6.2499 1.71147 0
M  V30 8039 N 759.743 -0.201713 -1.56304 0
M  V30 8040 C 760.968 0.443815 -2.02596 0
M  V30 8041 C 761.393 1.53945 -1.08086 0
M  V30 8042 O 760.751 1.81182 -0.0655056 0
M  V30 8043 C 760.799 0.971066 -3.47279 0
M  V30 8044 O 759.903 2.0836 -3.55893 0
M  V30 8045 H 759.244 0.10294 -0.655972 0
M  V30 8046 H 761.774 -0.314533 -2.02168 0
M  V30 8047 H 761.784 1.28598 -3.87204 0
M  V30 8048 H 760.459 0.169048 -4.15556 0
M  V30 8049 H 759.036 1.77683 -3.27846 0
M  V30 8050 N 761.222 1.57436 0.0718424 0
M  V30 8051 C 762.45 1.91474 0.783932 0
M  V30 8052 C 762.865 0.797669 1.71122 0
M  V30 8053 O 762.222 -0.228989 1.81058 0
M  V30 8054 C 762.273 3.25259 1.57761 0
M  V30 8055 O 761.994 4.3267 0.687596 0
M  V30 8056 C 763.495 3.7331 2.3907 0
M  V30 8057 H 760.715 0.632901 0.222885 0
M  V30 8058 H 763.259 2.04457 0.0421262 0
M  V30 8059 H 761.414 3.13804 2.27169 0
M  V30 8060 H 761.828 5.09641 1.23962 0
M  V30 8061 H 763.302 4.69551 2.90216 0
M  V30 8062 H 763.779 3.02318 3.18591 0
M  V30 8063 H 764.385 3.8771 1.74818 0
M  V30 8064 N 762.7 -0.34323 1.53817 0
M  V30 8065 C 763.946 -1.08137 1.72273 0
M  V30 8066 C 764.301 -1.86311 0.480201 0
M  V30 8067 O 763.594 -1.84204 -0.527192 0
M  V30 8068 C 763.788 -2.05195 2.92626 0
M  V30 8069 C 763.617 -1.36561 4.28464 0
M  V30 8070 C 762.387 -1.11033 4.9295 0
M  V30 8071 C 764.585 -0.791663 5.0817 0
M  V30 8072 N 762.567 -0.389839 6.12661 0
M  V30 8073 C 763.938 -0.201742 6.19672 0
M  V30 8074 C 765.993 -0.692541 4.9306 0
M  V30 8075 C 764.696 0.477661 7.17712 0
M  V30 8076 C 766.722 -0.0268775 5.91394 0
M  V30 8077 C 766.084 0.552072 7.02233 0
M  V30 8078 H 762.183 -0.380078 0.683421 0
M  V30 8079 H 764.767 -0.364925 1.9125 0
M  V30 8080 H 762.938 -2.74131 2.75149 0
M  V30 8081 H 764.67 -2.7185 2.99799 0
M  V30 8082 H 761.425 -1.39752 4.52511 0
M  V30 8083 H 761.849 -0.0443076 6.76986 0
M  V30 8084 H 766.491 -1.12589 4.07534 0
M  V30 8085 H 764.209 0.922895 8.02813 0
M  V30 8086 H 767.795 0.0491921 5.81779 0
M  V30 8087 H 766.675 1.05899 7.77017 0
M  V30 8088 N 764.178 -1.45556 -0.604258 0
M  V30 8089 C 765.408 -1.53056 -1.38771 0
M  V30 8090 C 765.816 -0.163092 -1.88496 0
M  V30 8091 O 765.159 0.846157 -1.63052 0
M  V30 8092 C 765.221 -2.45656 -2.62476 0
M  V30 8093 C 764.885 -3.92328 -2.34367 0
M  V30 8094 C 765.882 -4.82137 -1.94525 0
M  V30 8095 C 763.567 -4.37275 -2.47177 0
M  V30 8096 C 765.561 -6.14901 -1.67856 0
M  V30 8097 C 763.248 -5.70079 -2.20122 0
M  V30 8098 C 764.246 -6.58711 -1.80524 0
M  V30 8099 O 763.934 -7.89053 -1.53788 0
M  V30 8100 H 763.666 -0.520721 -0.431075 0
M  V30 8101 H 766.22 -1.91464 -0.743693 0
M  V30 8102 H 764.45 -2.02225 -3.29609 0
M  V30 8103 H 766.139 -2.43802 -3.24523 0
M  V30 8104 H 766.905 -4.48675 -1.84162 0
M  V30 8105 H 762.784 -3.68527 -2.76964 0
M  V30 8106 H 766.328 -6.8404 -1.36874 0
M  V30 8107 H 762.225 -6.03095 -2.30102 0
M  V30 8108 H 762.993 -8.01113 -1.67812 0
M  V30 8109 N 765.656 0.84705 -1.32902 0
M  V30 8110 C 766.588 1.96308 -1.18304 0
M  V30 8111 C 767.601 1.62386 -0.116082 0
M  V30 8112 O 768.79 1.74713 -0.365751 0
M  V30 8113 C 765.89 3.29556 -0.790305 0
M  V30 8114 C 765.063 3.91668 -1.94717 0
M  V30 8115 C 764.122 5.0326 -1.53674 0
M  V30 8116 O 763.148 5.22847 -2.24989 0
M  V30 8117 N 764.35 5.78852 -0.437075 0
M  V30 8118 H 767.115 2.09369 -2.14441 0
M  V30 8119 H 764.676 1.02233 -1.25539 0
M  V30 8120 H 766.668 4.01624 -0.49799 0
M  V30 8121 H 765.238 3.12497 0.0801286 0
M  V30 8122 H 764.458 3.12292 -2.40557 0
M  V30 8123 H 765.746 4.299 -2.72146 0
M  V30 8124 H 765.144 5.65484 0.156316 0
M  V30 8125 H 763.701 6.51479 -0.204399 0
M  V30 8126 N 767.134 1.16236 1.06428 0
M  V30 8127 C 768.383 0.937523 1.78587 0
M  V30 8128 C 768.696 -0.536 1.88113 0
M  V30 8129 O 769.902 -0.878697 2.56887 0
M  V30 8130 C 768.358 1.62808 3.2097 0
M  V30 8131 C 767.966 3.13927 3.19615 0
M  V30 8132 C 769.71 1.48515 3.97673 0
M  V30 8133 C 767.617 3.75727 4.56709 0
M  V30 8134 H 766.547 0.347125 0.669343 0
M  V30 8135 H 769.198 1.39353 1.19385 0
M  V30 8136 H 767.58 1.09977 3.80422 0
M  V30 8137 H 768.754 3.7359 2.69753 0
M  V30 8138 H 767.069 3.28089 2.56411 0
M  V30 8139 H 769.666 1.92069 4.99013 0
M  V30 8140 H 770.009 0.433913 4.14032 0
M  V30 8141 H 770.542 1.98494 3.44739 0
M  V30 8142 H 767.281 4.80793 4.45554 0
M  V30 8143 H 766.801 3.20849 5.0677 0
M  V30 8144 H 768.48 3.77203 5.25668 0
M  V30 8145 N 768.612 -1.24939 0.960631 0
M  V30 8146 C 769.545 -2.24116 0.429804 0
M  V30 8147 C 770.523 -1.54972 -0.492188 0
M  V30 8148 O 771.707 -1.83642 -0.42519 0
M  V30 8149 C 768.834 -3.36558 -0.380312 0
M  V30 8150 C 767.88 -4.23757 0.482941 0
M  V30 8151 S 768.713 -4.9994 1.91885 0
M  V30 8152 C 769.869 -6.15846 1.11732 0
M  V30 8153 H 770.102 -2.68795 1.27029 0
M  V30 8154 H 767.635 -1.34108 0.765141 0
M  V30 8155 H 769.593 -4.01777 -0.841764 0
M  V30 8156 H 768.254 -2.90451 -1.19569 0
M  V30 8157 H 767.447 -5.03809 -0.138699 0
M  V30 8158 H 767.049 -3.63504 0.879839 0
M  V30 8159 H 769.341 -6.76495 0.368898 0
M  V30 8160 H 770.284 -6.82356 1.89198 0
M  V30 8161 H 770.692 -5.60805 0.644812 0
M  V30 8162 N 770.09 -0.729906 -1.39679 0
M  V30 8163 C 771.338 -0.275077 -2.00219 0
M  V30 8164 C 771.659 1.1401 -1.58199 0
M  V30 8165 O 770.929 1.77546 -0.827904 0
M  V30 8166 H 769.509 -0.0987127 -0.740449 0
M  V30 8167 H 772.171 -0.93873 -1.70804 0
M  V30 8168 H 771.267 -0.319446 -3.10461 0
M  V30 8169 N 771.568 1.50203 -0.477153 0
M  V30 8170 C 772.979 1.86685 -0.0235041 0
M  V30 8171 C 773.33 1.39148 1.38319 0
M  V30 8172 O 772.455 0.759051 2.02651 0
M  V30 8173 C 773.05 3.38781 -0.0358767 0
M  V30 8174 C 771.609 3.74652 0.362327 0
M  V30 8175 C 770.756 2.7412 -0.41875 0
M  V30 8176 H 773.707 1.4286 -0.691133 0
M  V30 8177 H 773.728 3.72732 0.764924 0
M  V30 8178 H 773.24 3.73349 -1.05981 0
M  V30 8179 H 771.341 3.45686 1.39039 0
M  V30 8180 H 771.454 4.79063 0.059457 0
M  V30 8181 H 769.818 2.54376 0.128341 0
M  V30 8182 H 770.601 3.11532 -1.44231 0
M  V30 8183 N 773.046 0.209999 1.56195 0
M  V30 8184 C 774.323 -0.473214 1.89789 0
M  V30 8185 C 774.703 -1.78581 1.1257 0
M  V30 8186 O 774.051 -2.27325 0.231398 0
M  V30 8187 C 774.261 -0.677458 3.42362 0
M  V30 8188 C 775.609 -0.990114 4.12895 0
M  V30 8189 O 776.633 -0.764655 3.47896 0
M  V30 8190 O 775.492 -1.41737 5.278 0
M  V30 8191 H 772.586 -0.248622 0.788743 0
M  V30 8192 H 775.132 0.251324 1.67829 0
M  V30 8193 H 773.904 0.248878 3.90508 0
M  V30 8194 H 773.527 -1.45391 3.70064 0
M  V30 8195 N 774.524 -1.57472 -0.0634922 0
M  V30 8196 C 775.754 -1.91608 -0.772645 0
M  V30 8197 C 776.162 -0.805019 -1.71219 0
M  V30 8198 O 775.505 0.229941 -1.82255 0
M  V30 8199 C 775.567 -3.21281 -1.61304 0
M  V30 8200 C 775.231 -4.49177 -0.841973 0
M  V30 8201 C 776.228 -5.19661 -0.157494 0
M  V30 8202 C 773.913 -4.9578 -0.80669 0
M  V30 8203 C 775.907 -6.35006 0.551948 0
M  V30 8204 C 773.594 -6.11028 -0.0934812 0
M  V30 8205 C 774.592 -6.80493 0.58463 0
M  V30 8206 O 774.28 -7.93542 1.28633 0
M  V30 8207 H 774.012 -0.637685 -0.224352 0
M  V30 8208 H 776.566 -2.05369 -0.0355279 0
M  V30 8209 H 774.796 -3.03752 -2.39315 0
M  V30 8210 H 776.485 -3.41003 -2.20162 0
M  V30 8211 H 777.251 -4.84681 -0.176006 0
M  V30 8212 H 773.13 -4.41579 -1.32397 0
M  V30 8213 H 776.674 -6.89161 1.0818 0
M  V30 8214 H 772.571 -6.45459 -0.0729258 0
M  V30 8215 H 773.339 -8.09708 1.19646 0
M  V30 8216 N 776.003 0.335068 -1.53997 0
M  V30 8217 C 777.252 1.07182 -1.70865 0
M  V30 8218 C 777.565 1.89541 -0.483078 0
M  V30 8219 O 778.771 2.66219 -0.532879 0
M  V30 8220 C 777.227 1.95497 -3.02174 0
M  V30 8221 C 776.835 1.18304 -4.32097 0
M  V30 8222 C 778.579 2.68978 -3.28407 0
M  V30 8223 C 776.486 2.05699 -5.54474 0
M  V30 8224 H 775.416 0.403857 -0.636722 0
M  V30 8225 H 778.067 0.33076 -1.80494 0
M  V30 8226 H 776.449 2.73456 -2.86423 0
M  V30 8227 H 777.623 0.451969 -4.58578 0
M  V30 8228 H 775.938 0.565556 -4.12541 0
M  V30 8229 H 778.535 3.34651 -4.17029 0
M  V30 8230 H 778.878 3.36 -2.45784 0
M  V30 8231 H 779.411 1.98087 -3.44973 0
M  V30 8232 H 776.15 1.43204 -6.39666 0
M  V30 8233 H 775.67 2.76572 -5.32229 0
M  V30 8234 H 777.349 2.64554 -5.90441 0
M  V30 8235 N 777.481 1.45874 0.596531 0
M  V30 8236 C 778.391 1.57947 1.73464 0
M  V30 8237 C 779.407 0.463461 1.67714 0
M  V30 8238 O 780.583 0.725685 1.87872 0
M  V30 8239 C 777.648 1.55348 3.09948 0
M  V30 8240 C 776.709 2.78074 3.27068 0
M  V30 8241 C 775.942 2.75589 4.57041 0
M  V30 8242 O 776.165 1.83545 5.40063 0
M  V30 8243 O 775.099 3.66945 4.77111 0
M  V30 8244 H 778.925 2.54169 1.66228 0
M  V30 8245 H 776.51 1.2851 0.76194 0
M  V30 8246 H 778.392 1.56545 3.91244 0
M  V30 8247 H 777.067 0.622811 3.17652 0
M  V30 8248 H 775.974 2.82435 2.45319 0
M  V30 8249 H 777.307 3.70303 3.24248 0
M  V30 8250 N 778.959 -0.83999 1.33349 0
M  V30 8251 C 779.889 -1.965 1.26135 0
M  V30 8252 C 780.87 -1.69505 0.142152 0
M  V30 8253 O 782.055 -1.91346 0.331743 0
M  V30 8254 C 779.185 -3.32632 0.99866 0
M  V30 8255 C 778.139 -3.74021 2.08068 0
M  V30 8256 C 777.465 -5.07947 1.67014 0
M  V30 8257 C 778.765 -3.87925 3.49731 0
M  V30 8258 H 780.459 -2.02793 2.20262 0
M  V30 8259 H 778.005 -0.974297 1.06035 0
M  V30 8260 H 779.958 -4.10903 0.934696 0
M  V30 8261 H 778.682 -3.26593 0.0217759 0
M  V30 8262 H 777.341 -2.98012 2.13505 0
M  V30 8263 H 776.989 -4.98378 0.680316 0
M  V30 8264 H 776.689 -5.36611 2.39422 0
M  V30 8265 H 778.213 -5.88695 1.62082 0
M  V30 8266 H 779.627 -4.5651 3.46802 0
M  V30 8267 H 778.024 -4.28023 4.20614 0
M  V30 8268 H 779.094 -2.90407 3.88319 0
M  V30 8269 N 780.437 -1.16799 -1.0581 0
M  V30 8270 C 781.4 -0.881396 -2.11575 0
M  V30 8271 C 782.4 0.12574 -1.60308 0
M  V30 8272 O 783.59 -0.105716 -1.73879 0
M  V30 8273 C 780.722 -0.319037 -3.39404 0
M  V30 8274 H 781.915 -1.81907 -2.38432 0
M  V30 8275 H 779.468 -0.977597 -1.21954 0
M  V30 8276 H 780.203 0.626082 -3.18199 0
M  V30 8277 H 779.988 -1.04481 -3.77923 0
M  V30 8278 H 781.478 -0.13663 -4.17376 0
M  V30 8279 N 781.915 1.24427 -0.967243 0
M  V30 8280 C 783.162 1.92487 -0.62888 0
M  V30 8281 C 783.49 1.75623 0.835871 0
M  V30 8282 O 782.745 1.1027 1.61675 0
M  V30 8283 C 783.044 3.44568 -0.949096 0
M  V30 8284 C 782.71 3.816 -2.40192 0
M  V30 8285 C 781.372 3.9142 -2.799 0
M  V30 8286 C 783.724 3.99715 -3.34481 0
M  V30 8287 C 781.052 4.16771 -4.12939 0
M  V30 8288 C 783.404 4.26562 -4.67148 0
M  V30 8289 C 782.068 4.34601 -5.06634 0
M  V30 8290 H 781.338 0.704361 -0.230124 0
M  V30 8291 H 783.985 1.4772 -1.21864 0
M  V30 8292 H 782.29 3.90819 -0.277085 0
M  V30 8293 H 783.987 3.95436 -0.665692 0
M  V30 8294 H 780.577 3.74522 -2.08402 0
M  V30 8295 H 784.761 3.91531 -3.04987 0
M  V30 8296 H 780.017 4.21214 -4.43158 0
M  V30 8297 H 784.191 4.39523 -5.40178 0
M  V30 8298 H 781.818 4.53998 -6.09746 0
M  V30 8299 N 783.393 0.737304 1.3929 0
M  V30 8300 C 784.34 0.0988364 2.30588 0
M  V30 8301 C 785.31 -0.727206 1.49335 0
M  V30 8302 O 786.495 -0.686694 1.78014 0
M  V30 8303 C 783.635 -0.800734 3.35682 0
M  V30 8304 C 782.748 0.0381731 4.31983 0
M  V30 8305 C 781.883 -0.862884 5.24145 0
M  V30 8306 C 780.922 -0.0193639 6.12097 0
M  V30 8307 N 780.059 -0.87648 6.96608 0
M  V30 8308 H 784.899 0.883031 2.84617 0
M  V30 8309 H 782.436 0.447111 1.4014 0
M  V30 8310 H 784.394 -1.33676 3.95205 0
M  V30 8311 H 783.024 -1.55088 2.83103 0
M  V30 8312 H 782.076 0.691641 3.74059 0
M  V30 8313 H 783.388 0.690294 4.94 0
M  V30 8314 H 782.542 -1.46667 5.88705 0
M  V30 8315 H 781.281 -1.54878 4.62454 0
M  V30 8316 H 780.286 0.597202 5.46547 0
M  V30 8317 H 781.511 0.663348 6.75852 0
M  V30 8318 H 779.457 -1.54762 6.37483 0
M  V30 8319 H 779.374 -0.280892 7.55478 0
M  V30 8320 H 780.642 -1.46575 7.65595 0
M  V30 8321 N 784.871 -1.49948 0.485112 0
M  V30 8322 C 786.118 -2.02396 -0.0650059 0
M  V30 8323 C 786.446 -1.36606 -1.38452 0
M  V30 8324 O 785.701 -0.485476 -1.89583 0
M  V30 8325 C 786 -3.56282 -0.282434 0
M  V30 8326 C 785.666 -4.40625 0.957106 0
M  V30 8327 C 784.328 -4.63393 1.29692 0
M  V30 8328 C 786.68 -4.89799 1.78176 0
M  V30 8329 C 784.008 -5.3258 2.4612 0
M  V30 8330 C 786.36 -5.60266 2.93743 0
M  V30 8331 C 785.024 -5.81284 3.28124 0
M  V30 8332 H 784.294 -0.740618 -0.0237873 0
M  V30 8333 H 786.941 -1.80416 0.642044 0
M  V30 8334 H 785.246 -3.76853 -1.07186 0
M  V30 8335 H 786.943 -3.94442 -0.722276 0
M  V30 8336 H 783.533 -4.23133 0.682384 0
M  V30 8337 H 787.717 -4.7205 1.53239 0
M  V30 8338 H 782.973 -5.47059 2.73014 0
M  V30 8339 H 787.147 -5.97347 3.5798 0
M  V30 8340 H 784.774 -6.34671 4.18446 0
M  V30 8341 N 786.349 -0.21828 -1.56081 0
M  V30 8342 C 787.312 0.679633 -2.18892 0
M  V30 8343 C 788.312 1.12405 -1.14986 0
M  V30 8344 O 789.502 1.03339 -1.40238 0
M  V30 8345 C 786.634 1.93063 -2.80962 0
M  V30 8346 H 787.827 0.132066 -2.99609 0
M  V30 8347 H 785.38 0.0313374 -1.56269 0
M  V30 8348 H 786.115 2.52015 -2.04106 0
M  V30 8349 H 785.9 1.62046 -3.57048 0
M  V30 8350 H 787.39 2.57043 -3.29118 0
M  V30 8351 N 787.827 1.57504 0.0551401 0
M  V30 8352 C 789.243 1.54236 0.410292 0
M  V30 8353 C 789.443 0.940839 1.78187 0
M  V30 8354 O 788.499 0.550541 2.46425 0
M  V30 8355 C 789.812 2.98816 0.336064 0
M  V30 8356 C 791.36 3.10236 0.415047 0
M  V30 8357 C 791.835 4.56499 0.37055 0
M  V30 8358 N 793.326 4.61199 0.43013 0
M  V30 8359 C 794.061 5.71873 0.418179 0
M  V30 8360 N 793.557 6.91864 0.360056 0
M  V30 8361 N 795.35 5.60165 0.465977 0
M  V30 8362 H 787.501 1.94965 -0.842759 0
M  V30 8363 H 789.764 0.893096 -0.317937 0
M  V30 8364 H 789.47 3.4645 -0.605429 0
M  V30 8365 H 789.344 3.59564 1.13988 0
M  V30 8366 H 791.731 2.62566 1.34697 0
M  V30 8367 H 791.812 2.52367 -0.417648 0
M  V30 8368 H 791.456 5.0483 -0.557592 0
M  V30 8369 H 791.386 5.12249 1.221 0
M  V30 8370 H 793.877 3.74857 0.478623 0
M  V30 8371 H 794.19 7.71983 0.35532 0
M  V30 8372 H 792.535 6.94233 0.326492 0
M  V30 8373 H 795.726 4.65322 0.509194 0
M  V30 8374 H 795.899 6.46413 0.453194 0
M  V30 8375 N 789.305 -0.326896 1.54172 0
M  V30 8376 C 790.215 -1.42525 1.86343 0
M  V30 8377 C 791.231 -1.56764 0.75505 0
M  V30 8378 O 792.407 -1.71924 1.04901 0
M  V30 8379 C 789.472 -2.77286 2.08119 0
M  V30 8380 C 788.533 -2.7225 3.31931 0
M  V30 8381 C 787.766 -4.00584 3.52659 0
M  V30 8382 O 787.989 -4.98686 2.76891 0
M  V30 8383 O 786.923 -4.04045 4.46129 0
M  V30 8384 H 790.749 -1.18249 2.79734 0
M  V30 8385 H 788.334 -0.520614 1.40036 0
M  V30 8386 H 790.216 -3.57065 2.23791 0
M  V30 8387 H 788.891 -3.01459 1.17917 0
M  V30 8388 H 787.798 -1.91033 3.21647 0
M  V30 8389 H 789.131 -2.53032 4.2218 0
M  V30 8390 N 790.784 -1.46188 -0.588786 0
M  V30 8391 C 791.747 -1.55882 -1.68029 0
M  V30 8392 C 792.747 -0.436515 -1.54762 0
M  V30 8393 O 793.937 -0.700626 -1.59489 0
M  V30 8394 C 791.069 -1.47332 -3.07418 0
M  V30 8395 H 792.262 -2.5315 -1.60795 0
M  V30 8396 H 789.815 -1.33908 -0.806116 0
M  V30 8397 H 790.55 -0.513193 -3.20214 0
M  V30 8398 H 790.335 -2.28753 -3.18456 0
M  V30 8399 H 791.825 -1.57187 -3.86887 0
M  V30 8400 N 792.262 0.832906 -1.33792 0
M  V30 8401 C 793.539 1.57359 -1.16178 0
M  V30 8402 C 793.919 2.09372 0.269532 0
M  V30 8403 O 793.267 1.89993 1.26944 0
M  V30 8404 C 793.477 2.70279 -2.20795 0
M  V30 8405 C 794.825 3.39305 -2.55259 0
M  V30 8406 O 795.849 2.80526 -2.19508 0
M  V30 8407 O 794.708 4.45428 -3.16632 0
M  V30 8408 H 791.802 0.694025 -0.449731 0
M  V30 8409 H 794.348 0.875144 -1.45394 0
M  V30 8410 H 793.12 2.29527 -3.16911 0
M  V30 8411 H 792.743 3.47782 -1.927 0
M  V30 8412 N 793.74 1.17359 1.05189 0
M  V30 8413 C 795.151 0.96793 1.5965 0
M  V30 8414 C 795.502 -0.485355 1.90102 0
M  V30 8415 O 794.627 -1.36066 1.6827 0
M  V30 8416 C 795.222 1.75068 2.90063 0
M  V30 8417 C 793.781 1.58969 3.41183 0
M  V30 8418 C 792.928 1.75231 2.14917 0
M  V30 8419 H 795.879 1.32067 0.880001 0
M  V30 8420 H 795.9 1.23308 3.59966 0
M  V30 8421 H 795.412 2.80835 2.67868 0
M  V30 8422 H 793.513 0.556906 3.68415 0
M  V30 8423 H 793.626 2.38067 4.15766 0
M  V30 8424 H 791.99 1.18073 2.25679 0
M  V30 8425 H 792.773 2.8241 1.95191 0
M  V30 8426 N 795.218 -1.23913 0.973828 0
M  V30 8427 C 796.495 -1.87539 0.555729 0
M  V30 8428 C 796.875 -1.87641 -0.967162 0
M  V30 8429 O 796.223 -1.35335 -1.84111 0
M  V30 8430 C 796.433 -3.29359 1.15427 0
M  V30 8431 C 797.781 -4.06 1.24294 0
M  V30 8432 O 798.805 -3.38554 1.10723 0
M  V30 8433 O 797.664 -5.26689 1.45813 0
M  V30 8434 H 794.758 -0.805769 0.186188 0
M  V30 8435 H 797.304 -1.31838 1.06849 0
M  V30 8436 H 796.076 -3.23817 2.19678 0
M  V30 8437 H 795.699 -3.92642 0.625925 0
M  V30 8438 N 796.696 -0.74468 -1.38897 0
M  V30 8439 C 797.659 -0.11945 -2.28889 0
M  V30 8440 C 798.659 0.656942 -1.46768 0
M  V30 8441 O 799.849 0.484525 -1.67326 0
M  V30 8442 C 796.981 0.839635 -3.30398 0
M  V30 8443 H 798.174 -0.912414 -2.85683 0
M  V30 8444 H 795.727 -0.511119 -1.47707 0
M  V30 8445 H 796.462 1.6586 -2.78677 0
M  V30 8446 H 796.247 0.285432 -3.9106 0
M  V30 8447 H 797.737 1.27337 -3.97712 0
M  V30 8448 N 798.174 1.49689 -0.493057 0
M  V30 8449 C 799.121 2.28976 0.28959 0
M  V30 8450 C 800.091 1.35011 0.967536 0
M  V30 8451 O 801.276 1.63964 0.975736 0
M  V30 8452 C 798.416 3.1748 1.35279 0
M  V30 8453 C 797.529 4.26496 0.687418 0
M  V30 8454 C 796.664 5.02226 1.73038 0
M  V30 8455 C 795.703 6.03089 1.04645 0
M  V30 8456 N 794.84 6.72014 2.03325 0
M  V30 8457 H 799.68 2.954 -0.392798 0
M  V30 8458 H 797.217 1.45657 -0.205554 0
M  V30 8459 H 799.175 3.67162 1.98111 0
M  V30 8460 H 797.805 2.53057 2.00405 0
M  V30 8461 H 796.857 3.80362 -0.0540001 0
M  V30 8462 H 798.169 4.98578 0.14864 0
M  V30 8463 H 797.323 5.55737 2.43395 0
M  V30 8464 H 796.062 4.29899 2.303 0
M  V30 8465 H 795.067 5.48817 0.328606 0
M  V30 8466 H 796.292 6.77398 0.480428 0
M  V30 8467 H 794.238 6.02464 2.59564 0
M  V30 8468 H 794.155 7.40046 1.54492 0
M  V30 8469 H 795.423 7.30133 2.72995 0
M  V30 8470 N 799.652 0.226554 1.55963 0
M  V30 8471 C 800.582 -0.676079 2.23498 0
M  V30 8472 C 801.563 -1.19718 1.20837 0
M  V30 8473 O 802.748 -1.24027 1.49436 0
M  V30 8474 C 799.878 -1.88217 2.91876 0
M  V30 8475 C 798.832 -1.4947 4.01052 0
M  V30 8476 C 798.158 -2.77997 4.56751 0
M  V30 8477 C 799.458 -0.680951 5.17842 0
M  V30 8478 H 801.152 -0.112989 2.99187 0
M  V30 8479 H 798.698 -0.0529046 1.43903 0
M  V30 8480 H 800.651 -2.51911 3.37815 0
M  V30 8481 H 799.375 -2.47031 2.13643 0
M  V30 8482 H 798.034 -0.881199 3.55852 0
M  V30 8483 H 797.682 -3.34966 3.75243 0
M  V30 8484 H 797.382 -2.52803 5.30438 0
M  V30 8485 H 798.906 -3.42625 5.05411 0
M  V30 8486 H 800.32 -1.22171 5.60131 0
M  V30 8487 H 798.717 -0.525898 5.97791 0
M  V30 8488 H 799.787 0.311346 4.83899 0
M  V30 8489 N 801.13 -1.57531 -0.0467866 0
M  V30 8490 C 802.377 -1.88451 -0.74112 0
M  V30 8491 C 802.705 -0.821592 -1.76296 0
M  V30 8492 O 801.96 0.179585 -1.94874 0
M  V30 8493 C 802.259 -3.26091 -1.46285 0
M  V30 8494 C 801.925 -4.47171 -0.578669 0
M  V30 8495 C 800.587 -4.80032 -0.335083 0
M  V30 8496 C 802.939 -5.2119 0.0328809 0
M  V30 8497 C 800.267 -5.84309 0.529121 0
M  V30 8498 C 802.619 -6.26383 0.884684 0
M  V30 8499 C 801.283 -6.57729 1.1379 0
M  V30 8500 H 800.553 -0.68959 -0.271195 0
M  V30 8501 H 803.2 -1.915 -0.00132378 0
M  V30 8502 H 801.505 -3.18948 -2.27551 0
M  V30 8503 H 803.202 -3.47258 -2.00532 0
M  V30 8504 H 799.792 -4.21467 -0.778666 0
M  V30 8505 H 803.976 -4.96096 -0.142375 0
M  V30 8506 H 799.232 -6.06981 0.733794 0
M  V30 8507 H 803.406 -6.82888 1.36516 0
M  V30 8508 H 801.033 -7.38355 1.80929 0
M  V30 8509 N 802.608 0.318715 -1.54344 0
M  V30 8510 C 803.838 1.07394 -1.76494 0
M  V30 8511 C 804.246 1.82031 -0.515881 0
M  V30 8512 O 803.589 1.7609 0.52325 0
M  V30 8513 C 803.651 2.11401 -2.90775 0
M  V30 8514 C 803.315 1.56118 -4.29507 0
M  V30 8515 C 804.312 1.00043 -5.10184 0
M  V30 8516 C 801.997 1.60215 -4.76063 0
M  V30 8517 C 803.991 0.487993 -6.35529 0
M  V30 8518 C 801.678 1.08584 -6.01376 0
M  V30 8519 C 802.676 0.529714 -6.80943 0
M  V30 8520 O 802.364 0.0211823 -8.03897 0
M  V30 8521 H 802.096 0.325061 -0.592715 0
M  V30 8522 H 804.65 0.36901 -2.02058 0
M  V30 8523 H 802.88 2.85524 -2.60793 0
M  V30 8524 H 804.569 2.72683 -3.00664 0
M  V30 8525 H 805.335 0.961811 -4.75367 0
M  V30 8526 H 801.214 2.02441 -4.14172 0
M  V30 8527 H 804.758 0.0532608 -6.9758 0
M  V30 8528 H 800.655 1.12155 -6.35682 0
M  V30 8529 H 801.423 0.136151 -8.18387 0
M  V30 8530 N 804.086 1.46499 0.581025 0
M  V30 8531 C 805.034 1.57562 1.71105 0
M  V30 8532 C 806.028 0.44403 1.63477 0
M  V30 8533 O 807.234 0.620964 1.6895 0
M  V30 8534 H 803.609 0.495415 0.565746 0
M  V30 8535 H 805.58 2.5257 1.58905 0
M  V30 8536 C 804.329 1.58465 3.0949 0
M  V30 8537 H 803.652 2.44877 3.16031 0
M  V30 8538 H 805.092 1.70261 3.88313 0
M  V30 8539 C 803.551 0.313596 3.35437 0
M  V30 8540 O 804.081 -0.595456 3.97262 0
M  V30 8541 N 802.287 0.200986 2.89904 0
M  V30 8542 H 801.834 0.941643 2.39773 0
M  V30 8543 H 801.792 -0.648577 3.07638 0
M  V30 8544 N 805.565 -0.825799 1.34232 0
M  V30 8545 C 806.842 -1.56741 1.17011 0
M  V30 8546 C 807.222 -2.09512 -0.258425 0
M  V30 8547 O 806.57 -1.90664 -1.25935 0
M  V30 8548 C 806.78 -2.69104 2.22225 0
M  V30 8549 C 808.128 -3.37947 2.57055 0
M  V30 8550 O 809.152 -2.79358 2.20992 0
M  V30 8551 O 808.011 -4.43743 3.1899 0
M  V30 8552 H 805.105 -0.69163 0.453405 0
M  V30 8553 H 807.651 -0.867422 1.45856 0
M  V30 8554 H 806.423 -2.27844 3.18124 0
M  V30 8555 H 806.046 -3.46756 1.94541 0
M  V30 8556 N 807.043 -1.17915 -1.04565 0
M  V30 8557 C 808.273 -0.994716 -1.81077 0
M  V30 8558 C 808.681 0.460146 -1.83519 0
M  V30 8559 O 808.024 1.33136 -1.26572 0
M  V30 8560 C 808.086 -1.46698 -3.28207 0
M  V30 8561 C 807.75 -2.94523 -3.49436 0
M  V30 8562 C 808.747 -3.92414 -3.41038 0
M  V30 8563 C 806.432 -3.32841 -3.76194 0
M  V30 8564 C 808.426 -5.2662 -3.59096 0
M  V30 8565 C 806.113 -4.67212 -3.93899 0
M  V30 8566 C 807.111 -5.6391 -3.8535 0
M  V30 8567 O 806.799 -6.95849 -4.02554 0
M  V30 8568 H 806.531 -0.351797 -0.577248 0
M  V30 8569 H 809.085 -1.56772 -1.32709 0
M  V30 8570 H 807.315 -0.837592 -3.7752 0
M  V30 8571 H 809.004 -1.24724 -3.86263 0
M  V30 8572 H 809.77 -3.64157 -3.20336 0
M  V30 8573 H 805.649 -2.58139 -3.81949 0
M  V30 8574 H 809.193 -6.02082 -3.52339 0
M  V30 8575 H 805.09 -4.95172 -4.14095 0
M  V30 8576 H 805.858 -7.02679 -4.19743 0
M  V30 8577 N 808.521 1.23394 -0.980386 0
M  V30 8578 C 809.469 2.26872 -0.513018 0
M  V30 8579 C 810.463 1.63853 0.429948 0
M  V30 8580 O 811.669 1.77417 0.303842 0
M  V30 8581 H 808.044 0.737398 -0.147473 0
M  V30 8582 H 810.015 2.63654 -1.39746 0
M  V30 8583 C 808.764 3.47289 0.168962 0
M  V30 8584 H 808.087 3.96033 -0.547546 0
M  V30 8585 H 809.527 4.21502 0.459616 0
M  V30 8586 C 807.986 3.06425 1.40019 0
M  V30 8587 O 808.516 3.14708 2.49643 0
M  V30 8588 N 806.722 2.61339 1.27084 0
M  V30 8589 H 806.269 2.54799 0.378872 0
M  V30 8590 H 806.227 2.34364 2.09573 0
M  V30 8591 N 809.999 0.752036 1.385 0
M  V30 8592 C 811.227 0.318274 2.04437 0
M  V30 8593 C 811.642 -1.05285 1.56718 0
M  V30 8594 O 810.999 -1.66844 0.73956 0
M  V30 8595 C 811.05 0.330106 3.5999 0
M  V30 8596 O 810.771 1.64712 4.05957 0
M  V30 8597 C 812.272 -0.117713 4.43144 0
M  V30 8598 H 809.492 0.136228 0.657026 0
M  V30 8599 H 812.036 1.02045 1.7722 0
M  V30 8600 H 810.191 -0.323323 3.86048 0
M  V30 8601 H 810.605 1.57225 5.0038 0
M  V30 8602 H 812.079 -0.0582735 5.51969 0
M  V30 8603 H 812.556 -1.16538 4.23457 0
M  V30 8604 H 813.162 0.506784 4.2227 0
M  V30 8605 N 811.477 -1.49425 0.500989 0
M  V30 8606 C 812.724 -2.02453 -0.0435355 0
M  V30 8607 C 813.052 -1.38067 -1.36995 0
M  V30 8608 O 812.307 -0.505557 -1.89057 0
M  V30 8609 C 812.606 -3.56562 -0.24463 0
M  V30 8610 C 812.272 -4.39585 1.00379 0
M  V30 8611 C 810.934 -4.61992 1.346 0
M  V30 8612 C 813.286 -4.87881 1.83361 0
M  V30 8613 C 810.614 -5.2994 2.51755 0
M  V30 8614 C 812.966 -5.57119 2.99669 0
M  V30 8615 C 811.63 -5.77771 3.3427 0
M  V30 8616 H 810.9 -0.740829 -0.0159308 0
M  V30 8617 H 813.547 -1.79725 0.661143 0
M  V30 8618 H 811.852 -3.77969 -1.03183 0
M  V30 8619 H 813.549 -3.95185 -0.6804 0
M  V30 8620 H 810.139 -4.22385 0.727225 0
M  V30 8621 H 814.323 -4.70398 1.58237 0
M  V30 8622 H 809.579 -5.44133 2.788 0
M  V30 8623 H 813.753 -5.93516 3.64296 0
M  V30 8624 H 811.38 -6.30197 4.25154 0
M  V30 8625 N 812.955 -0.234822 -1.55841 0
M  V30 8626 C 813.865 0.680828 -2.24504 0
M  V30 8627 C 814.881 1.20306 -1.25708 0
M  V30 8628 O 816.057 1.24188 -1.58554 0
M  V30 8629 C 813.122 1.86636 -2.92178 0
M  V30 8630 C 812.183 1.3848 -4.06352 0
M  V30 8631 C 811.416 2.51382 -4.70789 0
M  V30 8632 O 811.639 3.69831 -4.34259 0
M  V30 8633 O 810.573 2.21828 -5.59532 0
M  V30 8634 H 814.399 0.12583 -3.03439 0
M  V30 8635 H 811.984 -0.00381817 -1.494 0
M  V30 8636 H 813.866 2.55845 -3.34845 0
M  V30 8637 H 812.541 2.40921 -2.16192 0
M  V30 8638 H 811.448 0.660341 -3.68226 0
M  V30 8639 H 812.781 0.888177 -4.8412 0
M  V30 8640 N 814.433 1.57553 0.0384317 0
M  V30 8641 C 815.844 1.77258 0.586211 0
M  V30 8642 C 816.195 0.864706 1.76117 0
M  V30 8643 O 815.32 0.057141 2.16325 0
M  V30 8644 C 815.915 3.21453 1.07021 0
M  V30 8645 C 814.474 3.42387 1.56358 0
M  V30 8646 C 813.621 2.72801 0.497508 0
M  V30 8647 H 816.572 1.57585 -0.187796 0
M  V30 8648 H 816.593 3.27451 1.93794 0
M  V30 8649 H 816.105 3.87505 0.214851 0
M  V30 8650 H 814.206 2.81497 2.44111 0
M  V30 8651 H 814.319 4.50968 1.61754 0
M  V30 8652 H 812.683 2.36305 0.95038 0
M  V30 8653 H 813.466 3.41529 -0.348234 0
M  V30 8654 N 815.911 -0.310526 1.54511 0
M  V30 8655 C 817.327 -0.655637 1.45511 0
M  V30 8656 C 817.527 -1.91114 0.638564 0
M  V30 8657 O 816.583 -2.52098 0.142497 0
M  V30 8658 C 817.896 -0.817501 2.89374 0
M  V30 8659 C 819.444 -0.914003 2.99358 0
M  V30 8660 C 819.919 -1.10794 4.44397 0
M  V30 8661 N 821.41 -1.17437 4.48066 0
M  V30 8662 C 822.145 -1.34255 5.57461 0
M  V30 8663 N 821.641 -1.48032 6.768 0
M  V30 8664 N 823.434 -1.37067 5.45132 0
M  V30 8665 H 815.585 0.514506 2.06074 0
M  V30 8666 H 817.848 0.168478 0.932909 0
M  V30 8667 H 817.554 0.034003 3.51684 0
M  V30 8668 H 817.428 -1.7094 3.36243 0
M  V30 8669 H 819.815 -1.756 2.37168 0
M  V30 8670 H 819.896 0.00170958 2.558 0
M  V30 8671 H 819.54 -0.270743 5.07178 0
M  V30 8672 H 819.47 -2.03773 4.85576 0
M  V30 8673 H 821.961 -1.08181 3.62084 0
M  V30 8674 H 822.274 -1.60593 7.5593 0
M  V30 8675 H 820.619 -1.45105 6.79683 0
M  V30 8676 H 823.81 -1.25909 4.50849 0
M  V30 8677 H 823.983 -1.49831 6.3044 0
M  V30 8678 N 817.389 -1.46805 -0.573248 0
M  V30 8679 C 818.336 -1.58084 -1.68161 0
M  V30 8680 C 819.306 -0.424636 -1.6058 0
M  V30 8681 O 820.491 -0.642623 -1.79652 0
M  V30 8682 C 817.631 -1.58601 -3.06496 0
M  V30 8683 C 816.744 -2.85023 -3.24632 0
M  V30 8684 C 815.879 -2.76981 -4.53271 0
M  V30 8685 C 814.918 -3.983 -4.64783 0
M  V30 8686 N 814.055 -3.88589 -5.84759 0
M  V30 8687 H 818.895 -2.52755 -1.57858 0
M  V30 8688 H 816.432 -1.25385 -0.769218 0
M  V30 8689 H 818.39 -1.56885 -3.86579 0
M  V30 8690 H 817.02 -0.674553 -3.15673 0
M  V30 8691 H 816.072 -2.96678 -2.38089 0
M  V30 8692 H 817.384 -3.7491 -3.29004 0
M  V30 8693 H 816.538 -2.73424 -5.41594 0
M  V30 8694 H 815.277 -1.84751 -4.51352 0
M  V30 8695 H 814.282 -4.02179 -3.74876 0
M  V30 8696 H 815.507 -4.91639 -4.68474 0
M  V30 8697 H 813.453 -2.99151 -5.83819 0
M  V30 8698 H 813.37 -4.7214 -5.90441 0
M  V30 8699 H 814.638 -3.89022 -6.75486 0
M  V30 8700 N 818.867 0.818669 -1.34668 0
M  V30 8701 C 820.283 1.11243 -1.14443 0
M  V30 8702 C 820.483 2.01435 0.0512212 0
M  V30 8703 O 819.539 2.41854 0.725471 0
M  V30 8704 C 820.852 1.75504 -2.4417 0
M  V30 8705 C 822.4 1.8798 -2.50265 0
M  V30 8706 C 822.875 2.55657 -3.80004 0
M  V30 8707 N 824.366 2.63153 -3.81189 0
M  V30 8708 C 825.101 3.16258 -4.78298 0
M  V30 8709 N 824.597 3.69893 -5.85791 0
M  V30 8710 N 826.39 3.14698 -4.65748 0
M  V30 8711 H 818.541 0.218848 -2.1127 0
M  V30 8712 H 820.804 0.159655 -0.934459 0
M  V30 8713 H 820.51 1.16697 -3.31775 0
M  V30 8714 H 820.384 2.75329 -2.57825 0
M  V30 8715 H 822.771 2.45934 -1.63096 0
M  V30 8716 H 822.852 0.870447 -2.40535 0
M  V30 8717 H 822.496 1.98356 -4.67565 0
M  V30 8718 H 822.426 3.57105 -3.87019 0
M  V30 8719 H 824.917 2.2514 -3.03513 0
M  V30 8720 H 825.23 4.08678 -6.55898 0
M  V30 8721 H 823.575 3.68125 -5.89499 0
M  V30 8722 H 826.766 2.72066 -3.80917 0
M  V30 8723 H 826.939 3.5578 -5.41594 0
M  V30 8724 N 820.346 1.18468 1.03938 0
M  V30 8725 C 821.623 0.890435 1.74157 0
M  V30 8726 C 822.003 -0.606409 2.02203 0
M  V30 8727 O 821.351 -1.5615 1.66822 0
M  V30 8728 C 821.561 1.73906 3.02585 0
M  V30 8729 C 822.909 1.96686 3.76297 0
M  V30 8730 O 823.933 1.70969 3.12487 0
M  V30 8731 O 822.792 2.39986 4.90988 0
M  V30 8732 H 819.886 0.330889 0.757919 0
M  V30 8733 H 822.432 1.29228 1.09992 0
M  V30 8734 H 821.204 2.75369 2.78006 0
M  V30 8735 H 820.827 1.33581 3.74489 0
M  V30 8736 N 821.824 -1.22873 0.986916 0
M  V30 8737 C 823.073 -1.90772 0.654911 0
M  V30 8738 C 823.386 -1.77768 -0.81595 0
M  V30 8739 O 824.592 -2.40529 -1.25929 0
M  V30 8740 C 823.048 -3.42003 1.12081 0
M  V30 8741 C 822.656 -3.63655 2.61647 0
M  V30 8742 C 824.4 -4.15638 0.862854 0
M  V30 8743 C 822.307 -5.08555 3.01871 0
M  V30 8744 H 821.237 -0.714362 0.241252 0
M  V30 8745 H 823.888 -1.39196 1.19568 0
M  V30 8746 H 822.27 -3.92725 0.508207 0
M  V30 8747 H 823.444 -3.2345 3.28202 0
M  V30 8748 H 821.759 -3.03341 2.8526 0
M  V30 8749 H 824.356 -5.22425 1.13915 0
M  V30 8750 H 824.699 -4.15814 -0.201036 0
M  V30 8751 H 825.232 -3.70924 1.43736 0
M  V30 8752 H 821.971 -5.13514 4.07411 0
M  V30 8753 H 821.491 -5.49684 2.40015 0
M  V30 8754 H 823.17 -5.76936 2.92839 0
M  V30 8755 N 823.302 -0.75937 -1.38099 0
M  V30 8756 C 824.551 -0.314864 -1.99227 0
M  V30 8757 C 824.864 1.1113 -1.60964 0
M  V30 8758 O 826.07 1.65657 -2.15105 0
M  V30 8759 C 824.526 -0.512001 -3.56239 0
M  V30 8760 C 824.134 -1.94762 -4.0345 0
M  V30 8761 C 825.878 -0.130497 -4.24299 0
M  V30 8762 C 823.785 -2.09301 -5.53125 0
M  V30 8763 H 822.715 -0.113978 -0.745335 0
M  V30 8764 H 825.366 -0.936736 -1.57789 0
M  V30 8765 H 823.748 0.179144 -3.95595 0
M  V30 8766 H 824.922 -2.67271 -3.75371 0
M  V30 8767 H 823.237 -2.28457 -3.48133 0
M  V30 8768 H 825.834 -0.21781 -5.34256 0
M  V30 8769 H 826.177 0.917644 -4.0606 0
M  V30 8770 H 826.71 -0.773716 -3.90203 0
M  V30 8771 H 823.449 -3.1239 -5.76275 0
M  V30 8772 H 822.969 -1.41261 -5.82928 0
M  V30 8773 H 824.648 -1.88571 -6.1891 0
M  V30 8774 N 824.78 1.49157 -0.508906 0
M  V30 8775 C 826.01 2.06579 0.0293308 0
M  V30 8776 C 826.418 1.36852 1.30645 0
M  V30 8777 O 825.761 0.443079 1.78276 0
M  V30 8778 C 825.823 3.57838 0.345296 0
M  V30 8779 C 825.487 4.49302 -0.835256 0
M  V30 8780 C 826.484 4.90345 -1.72793 0
M  V30 8781 C 824.169 4.91494 -1.0363 0
M  V30 8782 C 826.163 5.72327 -2.80573 0
M  V30 8783 C 823.85 5.7325 -2.11726 0
M  V30 8784 C 824.848 6.13572 -3.00032 0
M  V30 8785 O 824.536 6.93691 -4.06261 0
M  V30 8786 H 824.268 0.675679 -0.0208193 0
M  V30 8787 H 826.822 1.9282 -0.707789 0
M  V30 8788 H 825.052 3.69634 1.13612 0
M  V30 8789 H 826.741 3.97467 0.823089 0
M  V30 8790 H 827.507 4.58388 -1.58446 0
M  V30 8791 H 823.386 4.59605 -0.358308 0
M  V30 8792 H 826.93 6.03719 -3.49527 0
M  V30 8793 H 822.827 6.0462 -2.26065 0
M  V30 8794 H 823.595 7.12011 -4.03711 0
M  V30 8795 N 826.258 0.243083 1.55714 0
M  V30 8796 C 827.206 -0.674349 2.2261 0
M  V30 8797 C 828.2 -1.18307 1.21243 0
M  V30 8798 O 829.406 -1.1404 1.39265 0
M  V30 8799 H 825.781 -0.235941 0.714028 0
M  V30 8800 H 827.752 -0.0869446 2.98273 0
M  V30 8801 C 826.501 -1.86206 2.93637 0
M  V30 8802 H 825.824 -1.47975 3.71407 0
M  V30 8803 H 827.264 -2.4813 3.43813 0
M  V30 8804 C 825.723 -2.73084 1.97298 0
M  V30 8805 O 826.253 -3.72497 1.50361 0
M  V30 8806 N 824.459 -2.39571 1.64482 0
M  V30 8807 H 824.006 -1.5878 2.02846 0
M  V30 8808 H 823.964 -2.97976 1.00288 0
M  V30 8809 N 827.736 -1.57571 -0.0300757 0
M  V30 8810 C 828.666 -2.0953 -1.03051 0
M  V30 8811 C 829.647 -0.99761 -1.37774 0
M  V30 8812 O 830.832 -1.27279 -1.46676 0
M  V30 8813 C 827.962 -2.57385 -2.33174 0
M  V30 8814 C 826.916 -3.71409 -2.12696 0
M  V30 8815 C 826.242 -4.05467 -3.4857 0
M  V30 8816 C 827.542 -4.99877 -1.51396 0
M  V30 8817 H 829.236 -2.93367 -0.597999 0
M  V30 8818 H 826.782 -1.41127 -0.286203 0
M  V30 8819 H 828.735 -2.92355 -3.03491 0
M  V30 8820 H 827.459 -1.70629 -2.78484 0
M  V30 8821 H 826.118 -3.36786 -1.44813 0
M  V30 8822 H 825.766 -3.15779 -3.91526 0
M  V30 8823 H 825.466 -4.82269 -3.35694 0
M  V30 8824 H 826.99 -4.4297 -4.2025 0
M  V30 8825 H 828.404 -5.3281 -2.11629 0
M  V30 8826 H 826.801 -5.81283 -1.49098 0
M  V30 8827 H 827.871 -4.82522 -0.479676 0
M  V30 8828 N 829.214 0.302327 -1.54673 0
M  V30 8829 C 830.46 1.03924 -1.74149 0
M  V30 8830 C 830.793 1.86968 -0.525041 0
M  V30 8831 O 830.068 1.88538 0.477868 0
M  V30 8832 C 830.351 1.94633 -3.02969 0
M  V30 8833 C 830.204 1.14778 -4.34909 0
M  V30 8834 C 831.523 2.93826 -3.27649 0
M  V30 8835 H 828.642 0.376405 -0.633631 0
M  V30 8836 H 831.284 0.314007 -1.87387 0
M  V30 8837 H 829.434 2.56471 -2.91813 0
M  V30 8838 H 831.106 0.552363 -4.57981 0
M  V30 8839 H 829.349 0.450462 -4.31455 0
M  V30 8840 H 830.02 1.81495 -5.21309 0
M  V30 8841 H 832.496 2.42117 -3.38406 0
M  V30 8842 H 831.372 3.54462 -4.19104 0
M  V30 8843 H 831.633 3.67416 -2.45882 0
M  V30 8844 N 830.692 1.47107 0.565454 0
M  V30 8845 C 831.639 1.58974 1.6732 0
M  V30 8846 C 832.609 0.433146 1.60353 0
M  V30 8847 O 833.794 0.652141 1.79309 0
M  V30 8848 C 830.934 1.60224 3.05651 0
M  V30 8849 C 830.047 2.86741 3.23116 0
M  V30 8850 C 829.182 2.79381 4.51796 0
M  V30 8851 C 828.221 4.0076 4.62664 0
M  V30 8852 N 827.358 3.91685 5.8269 0
M  V30 8853 H 832.198 2.53588 1.56515 0
M  V30 8854 H 829.735 1.25791 0.762558 0
M  V30 8855 H 831.693 1.58933 3.85741 0
M  V30 8856 H 830.323 0.691285 3.15311 0
M  V30 8857 H 829.375 2.97936 2.36513 0
M  V30 8858 H 830.687 3.7665 3.27011 0
M  V30 8859 H 829.841 2.76293 5.40136 0
M  V30 8860 H 828.58 1.87142 4.50366 0
M  V30 8861 H 827.585 4.04162 3.72738 0
M  V30 8862 H 828.81 4.94117 4.6586 0
M  V30 8863 H 826.756 3.02243 5.82224 0
M  V30 8864 H 826.673 4.75264 5.87929 0
M  V30 8865 H 827.941 3.92599 6.73414 0
M  V30 8866 N 832.17 -0.811516 1.35101 0
M  V30 8867 C 833.447 -1.55491 1.18667 0
M  V30 8868 C 833.827 -2.09775 -0.236189 0
M  V30 8869 O 833.175 -1.91989 -1.23905 0
M  V30 8870 C 833.385 -2.66732 2.25067 0
M  V30 8871 C 834.733 -3.35201 2.60625 0
M  V30 8872 O 835.757 -2.76998 2.23943 0
M  V30 8873 O 834.616 -4.40334 3.23679 0
M  V30 8874 H 831.71 -0.686783 0.460716 0
M  V30 8875 H 834.256 -0.851903 1.46768 0
M  V30 8876 H 833.028 -2.24457 3.20523 0
M  V30 8877 H 832.651 -3.44673 1.98208 0
M  V30 8878 N 833.648 -1.19017 -1.03309 0
M  V30 8879 C 834.578 -0.94772 -2.13402 0
M  V30 8880 C 835.559 0.117383 -1.69694 0
M  V30 8881 O 836.744 -0.0367733 -1.94165 0
M  V30 8882 C 833.874 -0.480977 -3.43953 0
M  V30 8883 C 832.828 -1.48743 -4.01322 0
M  V30 8884 C 832.154 -0.877924 -5.27443 0
M  V30 8885 C 833.454 -2.86642 -4.36616 0
M  V30 8886 H 835.148 -1.86846 -2.33942 0
M  V30 8887 H 832.694 -0.899781 -1.12427 0
M  V30 8888 H 834.647 -0.298677 -4.2034 0
M  V30 8889 H 833.371 0.475348 -3.23122 0
M  V30 8890 H 832.03 -1.65681 -3.27025 0
M  V30 8891 H 831.678 0.0858232 -5.02927 0
M  V30 8892 H 831.378 -1.54996 -5.66789 0
M  V30 8893 H 832.902 -0.706326 -6.06501 0
M  V30 8894 H 834.316 -2.73312 -5.03958 0
M  V30 8895 H 832.713 -3.50599 -4.87032 0
M  V30 8896 H 833.783 -3.39617 -3.46105 0
M  V30 8897 N 835.127 1.22348 -0.993418 0
M  V30 8898 C 836.074 2.24294 -0.544118 0
M  V30 8899 C 837.044 1.60602 0.42381 0
M  V30 8900 O 838.229 1.87952 0.328453 0
M  V30 8901 C 835.369 3.44837 0.134578 0
M  V30 8902 C 834.482 4.23043 -0.875151 0
M  V30 8903 C 833.617 5.30928 -0.169919 0
M  V30 8904 C 832.656 6.00853 -1.16798 0
M  V30 8905 N 831.793 7.00381 -0.491021 0
M  V30 8906 H 836.633 2.6209 -1.4182 0
M  V30 8907 H 834.17 1.2881 -0.710384 0
M  V30 8908 H 836.128 4.13625 0.544998 0
M  V30 8909 H 834.758 3.07804 0.972446 0
M  V30 8910 H 833.81 3.53546 -1.40389 0
M  V30 8911 H 835.122 4.71237 -1.63516 0
M  V30 8912 H 834.276 6.05972 0.297205 0
M  V30 8913 H 833.015 4.8371 0.622586 0
M  V30 8914 H 832.02 5.24591 -1.64573 0
M  V30 8915 H 833.245 6.50159 -1.96137 0
M  V30 8916 H 831.191 6.55393 0.282037 0
M  V30 8917 H 831.108 7.46584 -1.18947 0
M  V30 8918 H 832.376 7.79486 -0.0467169 0
M  V30 8919 N 836.605 0.766683 1.37694 0
M  V30 8920 C 837.515 0.150158 2.34119 0
M  V30 8921 C 838.531 -0.685513 1.59927 0
M  V30 8922 O 839.707 -0.606616 1.92047 0
M  V30 8923 C 836.772 -0.722562 3.39087 0
M  V30 8924 C 835.833 0.128983 4.29106 0
M  V30 8925 C 835.066 -0.702178 5.29061 0
M  V30 8926 O 835.289 -1.93954 5.36412 0
M  V30 8927 O 834.223 -0.114056 6.01792 0
M  V30 8928 H 838.049 0.946829 2.88563 0
M  V30 8929 H 835.634 0.527765 1.39768 0
M  V30 8930 H 837.516 -1.22095 4.03325 0
M  V30 8931 H 836.191 -1.49751 2.86978 0
M  V30 8932 H 835.098 0.673612 3.67985 0
M  V30 8933 H 836.431 0.866892 4.84506 0
M  V30 8934 N 838.083 -1.48885 0.516809 0
M  V30 8935 C 839.03 -2.29408 -0.253125 0
M  V30 8936 C 840 -1.36533 -0.945935 0
M  V30 8937 O 841.185 -1.65495 -0.949527 0
M  V30 8938 C 838.325 -3.19592 -1.30211 0
M  V30 8939 C 837.438 -4.27535 -0.61948 0
M  V30 8940 C 836.573 -5.04916 -1.65026 0
M  V30 8941 C 835.612 -6.04677 -0.950368 0
M  V30 8942 N 834.749 -6.75164 -1.92608 0
M  V30 8943 H 839.589 -2.94738 0.439744 0
M  V30 8944 H 837.126 -1.45311 0.2287 0
M  V30 8945 H 839.084 -3.70267 -1.92245 0
M  V30 8946 H 837.714 -2.56213 -1.96353 0
M  V30 8947 H 836.766 -3.80228 0.114505 0
M  V30 8948 H 838.078 -4.98752 -0.0693016 0
M  V30 8949 H 837.232 -5.59539 -2.34523 0
M  V30 8950 H 835.971 -4.33508 -2.23432 0
M  V30 8951 H 834.976 -5.4927 -0.241252 0
M  V30 8952 H 836.201 -6.78077 -0.372599 0
M  V30 8953 H 834.147 -6.06517 -2.49946 0
M  V30 8954 H 834.064 -7.4241 -1.42699 0
M  V30 8955 H 835.332 -7.34384 -2.61345 0
M  V30 8956 N 839.561 -0.251338 -1.55583 0
M  V30 8957 C 840.809 0.371434 -1.98657 0
M  V30 8958 C 841.13 1.58143 -1.14087 0
M  V30 8959 O 840.4 1.94607 -0.224708 0
M  V30 8960 H 838.98 0.140225 -0.733721 0
M  V30 8961 H 841.642 -0.351157 -1.9171 0
M  V30 8962 H 840.738 0.677554 -3.04657 0
M  V30 8963 N 841.039 1.57585 0.0217189 0
M  V30 8964 C 841.969 2.10073 1.01939 0
M  V30 8965 C 842.95 1.0049 1.37243 0
M  V30 8966 O 844.135 1.28055 1.45999 0
M  V30 8967 C 841.265 2.58618 2.31806 0
M  V30 8968 C 840.219 3.72531 2.10724 0
M  V30 8969 C 839.545 4.07309 3.46415 0
M  V30 8970 C 840.845 5.00672 1.48743 0
M  V30 8971 H 842.539 2.9368 0.582432 0
M  V30 8972 H 840.085 1.41277 0.278715 0
M  V30 8973 H 842.038 2.9396 3.01936 0
M  V30 8974 H 840.762 1.72104 2.77575 0
M  V30 8975 H 839.421 3.37549 1.43025 0
M  V30 8976 H 839.069 3.17851 3.89846 0
M  V30 8977 H 838.769 4.84042 3.33132 0
M  V30 8978 H 840.293 4.45192 4.17895 0
M  V30 8979 H 841.707 5.33925 2.088 0
M  V30 8980 H 840.104 5.82065 1.46013 0
M  V30 8981 H 841.174 4.82769 0.45408 0
M  V30 8982 N 842.517 -0.29412 1.54831 0
M  V30 8983 C 843.766 -1.02614 1.73647 0
M  V30 8984 C 844.079 -1.88193 0.533162 0
M  V30 8985 O 845.285 -2.64713 0.603275 0
M  V30 8986 C 843.741 -1.87417 3.07251 0
M  V30 8987 C 843.349 -1.06806 4.35082 0
M  V30 8988 C 845.093 -2.60176 3.35423 0
M  V30 8989 C 843 -1.90926 5.59733 0
M  V30 8990 H 841.93 -0.386834 0.647206 0
M  V30 8991 H 844.581 -0.282789 1.81308 0
M  V30 8992 H 842.963 -2.65765 2.93572 0
M  V30 8993 H 844.137 -0.330226 4.59615 0
M  V30 8994 H 842.452 -0.455979 4.13896 0
M  V30 8995 H 845.049 -3.23476 4.25755 0
M  V30 8996 H 845.392 -3.29365 2.54606 0
M  V30 8997 H 845.925 -1.88871 3.50103 0
M  V30 8998 H 842.664 -1.26194 6.43238 0
M  V30 8999 H 842.184 -2.62363 5.39375 0
M  V30 9000 H 843.863 -2.48807 5.97247 0
M  V30 9001 N 843.995 -1.47404 -0.557645 0
M  V30 9002 C 845.272 -1.44488 -1.31843 0
M  V30 9003 C 845.652 -0.1416 -2.10625 0
M  V30 9004 O 845 0.876908 -2.11004 0
M  V30 9005 C 845.21 -2.69016 -2.22331 0
M  V30 9006 C 846.558 -3.16212 -2.83364 0
M  V30 9007 O 847.582 -2.69741 -2.32634 0
M  V30 9008 O 846.441 -3.96999 -3.75571 0
M  V30 9009 H 843.535 -0.57578 -0.593639 0
M  V30 9010 H 846.081 -1.59605 -0.576584 0
M  V30 9011 H 844.853 -3.55406 -1.63715 0
M  V30 9012 H 844.476 -2.56484 -3.03812 0
M  V30 9013 N 845.473 0.80434 -1.35529 0
M  V30 9014 C 846.721 1.55845 -1.28673 0
M  V30 9015 C 847.042 1.94511 0.137976 0
M  V30 9016 O 846.312 1.63775 1.07492 0
M  V30 9017 H 844.892 0.577931 -0.473291 0
M  V30 9018 H 847.554 0.959293 -1.69657 0
M  V30 9019 H 846.65 2.47285 -1.90411 0
M  V30 9020 N 846.951 1.19563 1.02676 0
M  V30 9021 C 848.2 0.993864 1.75514 0
M  V30 9022 C 848.513 -0.475882 1.89723 0
M  V30 9023 O 849.719 -0.796525 2.59553 0
M  V30 9024 C 848.175 1.72937 3.15628 0
M  V30 9025 C 847.783 3.23937 3.09466 0
M  V30 9026 C 849.527 1.61092 3.92746 0
M  V30 9027 C 847.434 3.90067 4.44524 0
M  V30 9028 H 846.364 0.368244 0.657961 0
M  V30 9029 H 849.015 1.43081 1.14891 0
M  V30 9030 H 847.397 1.22025 3.76731 0
M  V30 9031 H 848.571 3.81983 2.57731 0
M  V30 9032 H 846.886 3.3608 2.45843 0
M  V30 9033 H 849.483 2.07848 4.92649 0
M  V30 9034 H 849.826 0.565415 4.12442 0
M  V30 9035 H 850.359 2.09361 3.3825 0
M  V30 9036 H 847.098 4.94725 4.30032 0
M  V30 9037 H 846.618 3.36809 4.96306 0
M  V30 9038 H 848.297 3.93736 5.13401 0
M  V30 9039 N 848.429 -1.21819 0.999893 0
M  V30 9040 C 849.677 -1.90375 0.678351 0
M  V30 9041 C 849.998 -1.78155 -0.792824 0
M  V30 9042 O 849.268 -1.17319 -1.56885 0
M  V30 9043 H 847.848 -0.704661 0.247915 0
M  V30 9044 H 850.51 -1.48021 1.2679 0
M  V30 9045 H 849.606 -2.97385 0.947023 0
M  V30 9046 N 849.908 -0.773975 -1.37286 0
M  V30 9047 C 850.841 -0.108019 -2.27944 0
M  V30 9048 C 851.819 0.706737 -1.46438 0
M  V30 9049 O 853.003 0.681025 -1.75768 0
M  V30 9050 C 850.13 0.853199 -3.27778 0
M  V30 9051 C 849.176 0.122164 -4.26325 0
M  V30 9052 S 850.009 -1.19136 -5.22079 0
M  V30 9053 C 851.165 -0.233737 -6.25463 0
M  V30 9054 H 851.398 -0.876743 -2.84078 0
M  V30 9055 H 848.931 -0.567468 -1.43594 0
M  V30 9056 H 850.889 1.40238 -3.85803 0
M  V30 9057 H 849.55 1.59505 -2.70586 0
M  V30 9058 H 848.743 0.850926 -4.96765 0
M  V30 9059 H 848.345 -0.356079 -3.72301 0
M  V30 9060 H 850.637 0.59305 -6.74899 0
M  V30 9061 H 851.58 -0.906373 -7.02275 0
M  V30 9062 H 851.988 0.156048 -5.64284 0
M  V30 9063 N 851.386 1.48609 -0.524698 0
M  V30 9064 C 852.318 2.27508 0.278 0
M  V30 9065 C 853.331 1.35042 0.909258 0
M  V30 9066 O 854.52 1.60136 0.788592 0
M  V30 9067 C 851.62 3.08247 1.40843 0
M  V30 9068 C 850.793 4.28455 0.880083 0
M  V30 9069 C 849.852 4.91048 1.891 0
M  V30 9070 O 848.878 5.5042 1.45005 0
M  V30 9071 N 850.08 4.82816 3.22288 0
M  V30 9072 H 852.845 2.97037 -0.398642 0
M  V30 9073 H 850.406 1.57876 -0.358698 0
M  V30 9074 H 852.398 3.46992 2.08276 0
M  V30 9075 H 850.968 2.41173 1.98883 0
M  V30 9076 H 850.188 3.94189 0.0299228 0
M  V30 9077 H 851.476 5.06279 0.505881 0
M  V30 9078 H 850.874 4.3572 3.60783 0
M  V30 9079 H 849.431 5.25676 3.85368 0
M  V30 9080 N 852.864 0.259585 1.55447 0
M  V30 9081 C 854.104 -0.362989 2.01151 0
M  V30 9082 C 854.468 -1.54201 1.14394 0
M  V30 9083 O 855.669 -2.23318 1.49608 0
M  V30 9084 C 853.94 -0.750399 3.49434 0
M  V30 9085 S 855.499 -1.3617 4.17137 0
M  V30 9086 H 852.317 -0.11365 0.701858 0
M  V30 9087 H 854.919 0.377788 1.91815 0
M  V30 9088 H 853.623 0.116807 4.10234 0
M  V30 9089 H 853.154 -1.52303 3.62722 0
M  V30 9090 H 855.169 -2.65059 4.19474 0
M  V30 9091 N 854.342 -1.57594 -0.0133615 0
M  V30 9092 C 855.292 -2.04048 -1.01726 0
M  V30 9093 C 856.276 -0.932682 -1.3111 0
M  V30 9094 O 857.468 -1.19652 -1.30432 0
M  V30 9095 C 854.597 -2.53637 -2.31351 0
M  V30 9096 C 853.683 -3.71269 -2.04989 0
M  V30 9097 N 854.074 -4.83436 -1.48739 0
M  V30 9098 C 852.372 -3.78943 -2.35198 0
M  V30 9099 C 853.073 -5.64961 -1.38542 0
M  V30 9100 N 852.049 -5.10554 -1.86643 0
M  V30 9101 H 855.851 -2.88188 -0.576623 0
M  V30 9102 H 853.365 -1.60912 -0.219344 0
M  V30 9103 H 855.362 -2.85186 -3.04096 0
M  V30 9104 H 854.022 -1.7091 -2.76079 0
M  V30 9105 H 855.033 -5.04558 -1.16798 0
M  V30 9106 H 851.71 -3.07047 -2.82893 0
M  V30 9107 H 853.1 -6.65092 -0.954075 0
M  V30 9108 N 855.82 0.285905 -1.54985 0
M  V30 9109 C 857.069 1.01691 -1.74189 0
M  V30 9110 C 857.382 1.87908 -0.543135 0
M  V30 9111 O 858.588 2.64389 -0.617305 0
M  V30 9112 C 857.044 1.85785 -3.0824 0
M  V30 9113 C 856.652 1.04497 -4.35642 0
M  V30 9114 C 858.396 2.58393 -3.36798 0
M  V30 9115 C 856.303 1.87955 -5.60738 0
M  V30 9116 H 855.233 0.383396 -0.649248 0
M  V30 9117 H 857.884 0.27317 -1.81455 0
M  V30 9118 H 856.266 2.64205 -2.94978 0
M  V30 9119 H 857.44 0.305847 -4.59784 0
M  V30 9120 H 855.755 0.434023 -4.14132 0
M  V30 9121 H 858.352 3.21214 -4.27464 0
M  V30 9122 H 858.695 3.28011 -2.56349 0
M  V30 9123 H 859.228 1.87012 -3.511 0
M  V30 9124 H 855.967 1.22781 -6.43898 0
M  V30 9125 H 855.487 2.59499 -5.40759 0
M  V30 9126 H 857.166 2.45636 -5.98558 0
M  V30 9127 N 857.298 1.47698 0.54982 0
M  V30 9128 C 858.523 1.58579 1.33669 0
M  V30 9129 C 858.948 0.239049 1.86575 0
M  V30 9130 O 858.306 -0.786256 1.63364 0
M  V30 9131 C 858.354 2.62029 2.47736 0
M  V30 9132 O 857.458 2.17813 3.50188 0
M  V30 9133 H 856.799 0.532447 0.396732 0
M  V30 9134 H 859.329 1.93536 0.6637 0
M  V30 9135 H 859.339 2.82682 2.94202 0
M  V30 9136 H 858.014 3.59812 2.08586 0
M  V30 9137 H 856.591 2.07291 3.09976 0
M  V30 9138 N 858.776 -0.797141 1.35954 0
M  V30 9139 C 859.706 -1.92387 1.32323 0
M  V30 9140 C 860.687 -1.68967 0.196007 0
M  V30 9141 O 861.872 -1.90193 0.39245 0
M  V30 9142 C 859.002 -3.29286 1.10398 0
M  V30 9143 C 857.956 -3.67212 2.19862 0
M  V30 9144 C 857.282 -5.02377 1.8309 0
M  V30 9145 C 858.582 -3.76602 3.61896 0
M  V30 9146 H 860.276 -1.95683 2.26602 0
M  V30 9147 H 857.822 -0.94007 1.09081 0
M  V30 9148 H 859.775 -4.07721 1.06495 0
M  V30 9149 H 858.499 -3.26358 0.125668 0
M  V30 9150 H 857.158 -2.91069 2.22878 0
M  V30 9151 H 856.806 -4.95961 0.838527 0
M  V30 9152 H 856.506 -5.28722 2.56372 0
M  V30 9153 H 858.03 -5.8324 1.80729 0
M  V30 9154 H 859.444 -4.45246 3.6115 0
M  V30 9155 H 857.841 -4.14425 4.34018 0
M  V30 9156 H 858.911 -2.77906 3.97361 0
M  V30 9157 N 860.254 -1.20106 -1.0204 0
M  V30 9158 C 861.217 -0.948261 -2.08664 0
M  V30 9159 C 862.217 0.0746753 -1.60627 0
M  V30 9160 O 863.407 -0.160981 -1.73455 0
M  V30 9161 C 860.539 -0.426854 -3.38217 0
M  V30 9162 H 861.732 -1.894 -2.32524 0
M  V30 9163 H 859.285 -1.0159 -1.18782 0
M  V30 9164 H 860.02 0.524532 -3.2003 0
M  V30 9165 H 859.805 -1.16451 -3.74408 0
M  V30 9166 H 861.295 -0.269346 -4.1673 0
M  V30 9167 N 861.732 1.21287 -1.00634 0
M  V30 9168 C 862.96 1.94385 -0.708678 0
M  V30 9169 C 863.375 1.7416 0.728957 0
M  V30 9170 O 862.732 1.04906 1.49335 0
M  V30 9171 C 862.783 3.46755 -1.02193 0
M  V30 9172 O 862.504 3.6631 -2.40309 0
M  V30 9173 C 864.005 4.37014 -0.743867 0
M  V30 9174 H 861.225 0.618136 -0.261052 0
M  V30 9175 H 863.769 1.54067 -1.34475 0
M  V30 9176 H 861.924 3.8499 -0.431441 0
M  V30 9177 H 862.338 4.60393 -2.51274 0
M  V30 9178 H 863.812 5.42621 -1.01321 0
M  V30 9179 H 864.289 4.38017 0.322084 0
M  V30 9180 H 864.895 4.04426 -1.31603 0
M  V30 9181 N 863.21 0.781244 1.36873 0
M  V30 9182 C 864.487 0.274217 1.93668 0
M  V30 9183 C 864.867 -1.2323 1.71399 0
M  V30 9184 O 864.215 -2.01993 1.06822 0
M  V30 9185 C 864.425 0.657939 3.42742 0
M  V30 9186 C 865.773 0.63307 4.19854 0
M  V30 9187 O 866.797 0.597909 3.51146 0
M  V30 9188 O 865.656 0.668636 5.42394 0
M  V30 9189 H 862.75 0.0658059 0.824378 0
M  V30 9190 H 865.296 0.863238 1.46104 0
M  V30 9191 H 864.068 1.69728 3.52573 0
M  V30 9192 H 863.691 0.0423678 3.97577 0
M  V30 9193 N 864.689 -1.48329 0.532571 0
M  V30 9194 C 865.938 -2.017 -0.00259705 0
M  V30 9195 C 866.251 -1.41469 -1.35077 0
M  V30 9196 O 867.457 -1.86354 -1.97445 0
M  V30 9197 C 865.913 -3.59858 -0.0550179 0
M  V30 9198 C 865.521 -4.29073 1.28842 0
M  V30 9199 C 867.265 -4.21066 -0.538878 0
M  V30 9200 C 865.172 -5.79171 1.19644 0
M  V30 9201 H 864.102 -0.753985 -0.00474081 0
M  V30 9202 H 866.753 -1.70565 0.676739 0
M  V30 9203 H 865.135 -3.87846 -0.799486 0
M  V30 9204 H 866.309 -4.12755 2.04865 0
M  V30 9205 H 864.624 -3.79748 1.70822 0
M  V30 9206 H 867.221 -5.31026 -0.6257 0
M  V30 9207 H 867.564 -3.86559 -1.54525 0
M  V30 9208 H 868.097 -3.97517 0.149984 0
M  V30 9209 H 864.836 -6.18257 2.17805 0
M  V30 9210 H 864.356 -5.97895 0.477609 0
M  V30 9211 H 866.035 -6.40875 0.888186 0
M  V30 9212 N 866.167 -0.267825 -1.55308 0
M  V30 9213 C 867.114 0.6228 -2.22238 0
M  V30 9214 C 868.084 1.15536 -1.19334 0
M  V30 9215 O 869.269 1.206 -1.47852 0
M  V30 9216 C 866.409 1.80447 -2.94164 0
M  V30 9217 C 865.522 1.30646 -4.11771 0
M  V30 9218 C 864.657 2.44935 -4.7136 0
M  V30 9219 C 863.696 1.92099 -5.81175 0
M  V30 9220 N 862.833 2.99834 -6.34857 0
M  V30 9221 H 867.673 0.0453874 -2.97965 0
M  V30 9222 H 865.21 0.0106371 -1.47096 0
M  V30 9223 H 867.168 2.49896 -3.34078 0
M  V30 9224 H 865.798 2.35403 -2.20874 0
M  V30 9225 H 864.85 0.505314 -3.77029 0
M  V30 9226 H 866.162 0.879409 -4.90987 0
M  V30 9227 H 865.316 3.2239 -5.13955 0
M  V30 9228 H 864.055 2.90951 -3.91406 0
M  V30 9229 H 863.06 1.13122 -5.38037 0
M  V30 9230 H 864.285 1.47027 -6.62993 0
M  V30 9231 H 862.231 3.45246 -5.578 0
M  V30 9232 H 862.148 2.61524 -7.09324 0
M  V30 9233 H 863.416 3.77286 -6.82111 0
M  V30 9234 N 867.645 1.57599 0.00500368 0
M  V30 9235 C 868.577 2.04949 1.02609 0
M  V30 9236 C 869.59 0.966507 1.31006 0
M  V30 9237 O 870.779 1.2434 1.2807 0
M  V30 9238 C 867.879 2.43023 2.36206 0
M  V30 9239 C 867.052 3.73993 2.26821 0
M  V30 9240 C 866.111 3.9899 3.43065 0
M  V30 9241 O 865.137 4.69725 3.21477 0
M  V30 9242 N 866.339 3.46496 4.65748 0
M  V30 9243 H 869.104 2.93167 0.622336 0
M  V30 9244 H 866.665 1.60752 0.192488 0
M  V30 9245 H 868.657 2.56863 3.12735 0
M  V30 9246 H 867.227 1.60349 2.68341 0
M  V30 9247 H 866.447 3.70277 1.35235 0
M  V30 9248 H 867.735 4.59865 2.17719 0
M  V30 9249 H 867.133 2.89206 4.86186 0
M  V30 9250 H 865.69 3.65675 5.3956 0
M  V30 9251 N 869.123 -0.277682 1.55134 0
M  V30 9252 C 870.372 -1.00766 1.74726 0
M  V30 9253 C 870.685 -1.87617 0.553092 0
M  V30 9254 O 871.891 -2.64058 0.631318 0
M  V30 9255 C 870.347 -1.84147 3.09221 0
M  V30 9256 C 869.955 -1.02186 4.3619 0
M  V30 9257 C 871.699 -2.56604 3.38164 0
M  V30 9258 C 869.606 -1.84978 5.61727 0
M  V30 9259 H 868.536 -0.379948 0.651273 0
M  V30 9260 H 871.187 -0.263543 1.81598 0
M  V30 9261 H 869.569 -2.62637 2.96375 0
M  V30 9262 H 870.743 -0.281459 4.5994 0
M  V30 9263 H 869.058 -0.412054 4.14356 0
M  V30 9264 H 871.655 -3.18942 4.29162 0
M  V30 9265 H 871.998 -3.26647 2.58085 0
M  V30 9266 H 872.531 -1.85147 3.52087 0
M  V30 9267 H 869.27 -1.19365 6.4454 0
M  V30 9268 H 868.79 -2.56628 5.42128 0
M  V30 9269 H 870.469 -2.42458 5.99853 0
M  V30 9270 N 870.601 -1.47988 -0.541979 0
M  V30 9271 C 871.511 -1.64276 -1.67483 0
M  V30 9272 C 872.527 -0.525387 -1.65879 0
M  V30 9273 O 873.703 -0.794912 -1.85049 0
M  V30 9274 C 870.768 -1.66744 -3.03969 0
M  V30 9275 C 869.829 -2.90021 -3.16522 0
M  V30 9276 C 869.062 -2.92362 -4.46498 0
M  V30 9277 O 869.285 -2.03462 -5.32878 0
M  V30 9278 O 868.219 -3.84399 -4.63164 0
M  V30 9279 H 872.045 -2.60164 -1.5668 0
M  V30 9280 H 869.63 -1.31249 -0.71372 0
M  V30 9281 H 871.512 -1.70958 -3.85164 0
M  V30 9282 H 870.187 -0.740277 -3.15122 0
M  V30 9283 H 869.094 -2.91345 -2.34667 0
M  V30 9284 H 870.427 -3.82082 -3.10281 0
M  V30 9285 N 872.079 0.78992 -1.36375 0
M  V30 9286 C 872.989 1.93386 -1.32812 0
M  V30 9287 C 874.005 1.72468 -0.230377 0
M  V30 9288 O 875.181 1.96014 -0.462657 0
M  V30 9289 C 872.246 3.2824 -1.11621 0
M  V30 9290 C 871.307 3.61939 -2.30865 0
M  V30 9291 C 870.54 4.90359 -2.10675 0
M  V30 9292 O 870.763 5.6005 -1.08168 0
M  V30 9293 O 869.697 5.22702 -2.9844 0
M  V30 9294 H 873.523 1.99342 -2.29121 0
M  V30 9295 H 871.108 0.9301 -1.16917 0
M  V30 9296 H 872.99 4.08939 -1.01719 0
M  V30 9297 H 871.665 3.23178 -0.183732 0
M  V30 9298 H 870.572 2.81549 -2.46335 0
M  V30 9299 H 871.905 3.71725 -3.22617 0
M  V30 9300 N 873.557 1.20646 1.01402 0
M  V30 9301 C 874.52 0.959314 2.08158 0
M  V30 9302 C 875.52 -0.0661558 1.60664 0
M  V30 9303 O 876.71 0.170177 1.73367 0
M  V30 9304 C 873.842 0.444785 3.37986 0
M  V30 9305 H 875.035 1.90631 2.31517 0
M  V30 9306 H 872.588 1.02219 1.18241 0
M  V30 9307 H 873.323 -0.507553 3.20304 0
M  V30 9308 H 873.108 1.18435 3.73785 0
M  V30 9309 H 874.598 0.291443 4.16582 0
M  V30 9310 N 875.035 -1.20752 1.01276 0
M  V30 9311 C 876.284 -1.8934 0.695229 0
M  V30 9312 C 876.597 -1.79459 -0.77806 0
M  V30 9313 O 877.803 -2.43146 -1.20799 0
M  V30 9314 C 876.259 -3.39548 1.1931 0
M  V30 9315 C 875.867 -3.58023 2.69302 0
M  V30 9316 C 877.611 -4.13714 0.950823 0
M  V30 9317 C 875.518 -5.02037 3.1259 0
M  V30 9318 H 874.448 -0.709084 0.25635 0
M  V30 9319 H 877.099 -1.36629 1.22494 0
M  V30 9320 H 875.481 -3.91559 0.591395 0
M  V30 9321 H 876.655 -3.16416 3.34989 0
M  V30 9322 H 874.97 -2.97222 2.9163 0
M  V30 9323 H 877.567 -5.19891 1.24971 0
M  V30 9324 H 877.91 -4.16147 -0.112791 0
M  V30 9325 H 878.443 -3.67792 1.51571 0
M  V30 9326 H 875.182 -5.04757 4.18211 0
M  V30 9327 H 874.702 -5.44469 2.51621 0
M  V30 9328 H 876.381 -5.70594 3.0501 0
M  V30 9329 N 876.513 -0.788492 -1.36457 0
M  V30 9330 C 877.46 -0.18435 -2.30063 0
M  V30 9331 C 878.43 0.67128 -1.51931 0
M  V30 9332 O 879.615 0.620152 -1.8044 0
M  V30 9333 C 876.755 0.675596 -3.38422 0
M  V30 9334 C 875.868 -0.198475 -4.31544 0
M  V30 9335 C 875.003 0.667757 -5.26986 0
M  V30 9336 C 874.042 -0.207825 -6.11747 0
M  V30 9337 N 873.179 0.617335 -6.99381 0
M  V30 9338 H 878.019 -0.988056 -2.81143 0
M  V30 9339 H 875.556 -0.498815 -1.38384 0
M  V30 9340 H 877.514 1.18916 -3.99894 0
M  V30 9341 H 876.144 1.44474 -2.88664 0
M  V30 9342 H 875.196 -0.829995 -3.71235 0
M  V30 9343 H 876.508 -0.873163 -4.91098 0
M  V30 9344 H 875.662 1.24716 -5.93743 0
M  V30 9345 H 874.401 1.37607 -4.67884 0
M  V30 9346 H 873.406 -0.799638 -5.43954 0
M  V30 9347 H 874.631 -0.913729 -6.72925 0
M  V30 9348 H 872.577 1.30996 -6.42788 0
M  V30 9349 H 872.494 0.000307255 -7.56 0
M  V30 9350 H 873.762 1.1806 -7.70508 0
M  V30 9351 N 877.991 1.48044 -0.54043 0
M  V30 9352 C 878.938 2.29781 0.216597 0
M  V30 9353 C 879.908 1.38021 0.924094 0
M  V30 9354 O 881.093 1.66985 0.923078 0
M  V30 9355 C 878.233 3.21623 1.2511 0
M  V30 9356 C 877.346 4.28467 0.551384 0
M  V30 9357 C 876.481 5.07477 1.56972 0
M  V30 9358 C 875.52 6.06113 0.854048 0
M  V30 9359 N 874.657 6.78143 1.81842 0
M  V30 9360 H 879.497 2.94001 -0.486578 0
M  V30 9361 H 877.034 1.44929 -0.251789 0
M  V30 9362 H 878.992 3.73279 1.8633 0
M  V30 9363 H 877.622 2.59305 1.92252 0
M  V30 9364 H 876.674 3.79997 -0.174982 0
M  V30 9365 H 877.986 4.98799 -0.0100542 0
M  V30 9366 H 877.14 5.63199 2.25592 0
M  V30 9367 H 875.879 4.37008 2.16507 0
M  V30 9368 H 874.884 5.49585 0.153838 0
M  V30 9369 H 876.109 6.78584 0.264675 0
M  V30 9370 H 874.055 6.10417 2.40265 0
M  V30 9371 H 873.972 7.44587 1.3087 0
M  V30 9372 H 875.24 7.38448 2.49628 0
M  V30 9373 N 879.47 0.276058 1.55163 0
M  V30 9374 C 880.717 -0.340455 1.99618 0
M  V30 9375 C 881.045 -1.5579 1.16446 0
M  V30 9376 O 880.3 -1.94433 0.222359 0
M  V30 9377 C 880.599 -0.765744 3.491 0
M  V30 9378 C 880.265 0.347174 4.49561 0
M  V30 9379 C 878.927 0.65276 4.76752 0
M  V30 9380 C 881.279 1.09705 5.09523 0
M  V30 9381 C 878.607 1.71179 5.61173 0
M  V30 9382 C 880.959 2.14581 5.95095 0
M  V30 9383 C 879.623 2.45773 6.20606 0
M  V30 9384 H 878.893 -0.124581 0.730452 0
M  V30 9385 H 881.54 0.389966 1.87487 0
M  V30 9386 H 879.845 -1.57585 3.58712 0
M  V30 9387 H 881.542 -1.25352 3.80904 0
M  V30 9388 H 878.132 0.0988779 4.28486 0
M  V30 9389 H 882.316 0.874223 4.8854 0
M  V30 9390 H 877.572 1.95846 5.79184 0
M  V30 9391 H 881.746 2.7316 6.40591 0
M  V30 9392 H 879.373 3.27969 6.85813 0
M  V30 9393 N 880.948 -1.576 0.00335426 0
M  V30 9394 C 882.173 -1.95398 -0.695311 0
M  V30 9395 C 882.598 -0.878476 -1.66326 0
M  V30 9396 O 881.956 0.163086 -1.80565 0
M  V30 9397 C 882.004 -3.32293 -1.40049 0
M  V30 9398 O 881.108 -3.26834 -2.51502 0
M  V30 9399 H 880.449 -0.637796 -0.184694 0
M  V30 9400 H 882.979 -2.04519 0.057543 0
M  V30 9401 H 882.989 -3.67936 -1.76316 0
M  V30 9402 H 881.664 -4.10123 -0.690803 0
M  V30 9403 H 880.241 -3.02872 -2.17539 0
M  V30 9404 N 882.426 0.269451 -1.5528 0
M  V30 9405 C 883.654 1.01872 -1.80082 0
M  V30 9406 C 884.069 1.79802 -0.575917 0
M  V30 9407 O 883.426 1.76735 0.455081 0
M  V30 9408 C 883.477 1.9745 -3.02813 0
M  V30 9409 O 883.198 1.22677 -4.20573 0
M  V30 9410 C 884.699 2.8416 -3.40247 0
M  V30 9411 H 881.919 0.300781 -0.59981 0
M  V30 9412 H 884.463 0.29916 -2.023 0
M  V30 9413 H 882.618 2.64864 -2.82712 0
M  V30 9414 H 883.032 1.87129 -4.89982 0
M  V30 9415 H 884.506 3.47014 -4.29284 0
M  V30 9416 H 884.983 3.54113 -2.59809 0
M  V30 9417 H 885.589 2.22232 -3.6262 0
M  V30 9418 N 883.904 1.48273 0.534124 0
M  V30 9419 C 885.153 1.55334 1.28663 0
M  V30 9420 C 885.466 0.230345 1.94239 0
M  V30 9421 O 886.672 0.179161 2.70908 0
M  V30 9422 C 885.128 2.73927 2.33435 0
M  V30 9423 C 884.736 4.12852 1.73947 0
M  V30 9424 C 886.48 2.90298 3.09722 0
M  V30 9425 C 884.387 5.22711 2.76636 0
M  V30 9426 H 883.317 0.578262 0.483869 0
M  V30 9427 H 885.968 1.74598 0.564602 0
M  V30 9428 H 884.35 2.48089 3.08655 0
M  V30 9429 H 885.524 4.48691 1.04944 0
M  V30 9430 H 883.839 4.01562 1.10167 0
M  V30 9431 H 886.436 3.69542 3.86449 0
M  V30 9432 H 886.779 1.99598 3.6533 0
M  V30 9433 H 887.312 3.16017 2.41616 0
M  V30 9434 H 884.051 6.15362 2.25852 0
M  V30 9435 H 883.571 4.91364 3.43979 0
M  V30 9436 H 885.25 5.50648 3.39699 0
M  V30 9437 N 885.382 -0.782676 1.36792 0
M  V30 9438 C 886.793 -1.35828 1.28092 0
M  V30 9439 C 887.144 -1.96052 -0.076315 0
M  V30 9440 O 886.269 -1.93042 -0.977935 0
M  V30 9441 C 886.864 -2.46949 2.31952 0
M  V30 9442 C 885.423 -3.00307 2.2692 0
M  V30 9443 C 884.57 -1.73436 2.16368 0
M  V30 9444 H 887.521 -0.583788 1.47572 0
M  V30 9445 H 887.542 -3.26144 1.95986 0
M  V30 9446 H 887.054 -2.03087 3.30722 0
M  V30 9447 H 885.155 -3.48571 1.31639 0
M  V30 9448 H 885.268 -3.56663 3.19887 0
M  V30 9449 H 883.632 -1.95934 1.62733 0
M  V30 9450 H 884.415 -1.31693 3.17036 0
M  V30 9451 N 886.86 -1.21182 -1.00761 0
M  V30 9452 C 888.108 -1.02543 -1.74153 0
M  V30 9453 C 888.429 0.442372 -1.89916 0
M  V30 9454 O 887.699 1.31927 -1.44818 0
M  V30 9455 H 886.279 -0.37644 -0.645214 0
M  V30 9456 H 888.941 -1.52446 -1.21434 0
M  V30 9457 H 888.037 -1.49122 -2.7417 0
M  V30 9458 N 888.338 1.20213 -1.01915 0
M  V30 9459 C 889.587 1.88968 -0.705261 0
M  V30 9460 C 889.9 1.79869 0.768531 0
M  V30 9461 O 891.106 2.43783 1.19508 0
M  V30 9462 C 889.562 3.38911 -1.21109 0
M  V30 9463 C 889.17 3.5659 -2.71197 0
M  V30 9464 C 890.914 4.13204 -0.97275 0
M  V30 9465 C 888.821 5.00372 -3.15248 0
M  V30 9466 H 887.751 0.707715 -0.260107 0
M  V30 9467 H 890.402 1.35977 -1.23217 0
M  V30 9468 H 888.784 3.9124 -0.612152 0
M  V30 9469 H 889.958 3.14635 -3.36662 0
M  V30 9470 H 888.273 2.95671 -2.93202 0
M  V30 9471 H 890.87 5.19221 -1.27726 0
M  V30 9472 H 891.213 4.16201 0.09072 0
M  V30 9473 H 891.746 3.66983 -1.5352 0
M  V30 9474 H 888.485 5.02532 -4.20882 0
M  V30 9475 H 888.005 5.43127 -2.54505 0
M  V30 9476 H 889.684 5.68969 -3.08032 0
M  V30 9477 N 889.816 0.795718 1.36037 0
M  V30 9478 C 890.726 0.199784 2.33748 0
M  V30 9479 C 891.742 -0.651436 1.61345 0
M  V30 9480 O 892.918 -0.565743 1.93291 0
M  V30 9481 C 889.983 -0.650475 3.40543 0
M  V30 9482 C 889.044 0.219974 4.28736 0
M  V30 9483 C 888.277 -0.589798 5.30431 0
M  V30 9484 O 888.5 -1.82532 5.40406 0
M  V30 9485 O 887.434 0.0136187 6.01898 0
M  V30 9486 H 891.26 1.00782 2.8649 0
M  V30 9487 H 888.845 0.557293 1.38617 0
M  V30 9488 H 890.727 -1.13512 4.05824 0
M  V30 9489 H 889.402 -1.4363 2.9009 0
M  V30 9490 H 888.309 0.751516 3.66474 0
M  V30 9491 H 889.642 0.969468 4.82558 0
M  V30 9492 N 891.294 -1.47756 0.548274 0
M  V30 9493 C 892.543 -2.01691 0.0187961 0
M  V30 9494 C 892.856 -1.42894 -1.33569 0
M  V30 9495 O 894.062 -1.88438 -1.95457 0
M  V30 9496 C 892.518 -3.59896 -0.016847 0
M  V30 9497 C 892.126 -4.27683 1.33385 0
M  V30 9498 C 893.87 -4.21614 -0.494188 0
M  V30 9499 C 891.777 -5.7787 1.2578 0
M  V30 9500 H 890.707 -0.753993 0.00325648 0
M  V30 9501 H 893.358 -1.69838 0.694792 0
M  V30 9502 H 891.74 -3.88672 -0.758304 0
M  V30 9503 H 892.914 -4.10559 2.09232 0
M  V30 9504 H 891.229 -3.77915 1.7484 0
M  V30 9505 H 893.826 -5.3166 -0.569342 0
M  V30 9506 H 894.169 -3.88176 -1.50417 0
M  V30 9507 H 894.702 -3.97336 0.192138 0
M  V30 9508 H 891.441 -6.15912 2.2435 0
M  V30 9509 H 890.961 -5.97355 0.540997 0
M  V30 9510 H 892.64 -6.39897 0.956109 0
M  V30 9511 N 892.772 -0.284283 -1.55015 0
M  V30 9512 C 893.722 0.613913 -2.19579 0
M  V30 9513 C 894.706 1.11153 -1.16335 0
M  V30 9514 O 895.898 1.05508 -1.42116 0
M  V30 9515 C 893.027 1.79329 -2.92739 0
M  V30 9516 C 892.113 1.31242 -4.03282 0
M  V30 9517 N 892.504 0.548344 -5.02819 0
M  V30 9518 C 890.802 1.5946 -4.1652 0
M  V30 9519 C 891.503 0.294358 -5.80955 0
M  V30 9520 N 890.479 0.869406 -5.36603 0
M  V30 9521 H 894.281 0.0224088 -2.93891 0
M  V30 9522 H 891.795 -0.0882619 -1.6216 0
M  V30 9523 H 893.792 2.44814 -3.37449 0
M  V30 9524 H 892.452 2.38865 -2.1994 0
M  V30 9525 H 893.463 0.194812 -5.17533 0
M  V30 9526 H 890.14 2.19866 -3.54916 0
M  V30 9527 H 891.53 -0.318195 -6.71146 0
M  V30 9528 N 894.251 1.57596 -0.0117121 0
M  V30 9529 C 895.5 1.9025 0.669921 0
M  V30 9530 C 895.813 0.887986 1.74282 0
M  V30 9531 O 897.019 1.10516 2.47989 0
M  V30 9532 C 895.475 3.37762 1.24277 0
M  V30 9533 C 895.083 4.47535 0.204076 0
M  V30 9534 C 896.827 3.79509 1.90192 0
M  V30 9535 C 894.734 5.86132 0.787577 0
M  V30 9536 H 893.664 0.709935 0.253984 0
M  V30 9537 H 896.315 1.8335 -0.0741718 0
M  V30 9538 H 894.697 3.39537 2.03791 0
M  V30 9539 H 895.871 4.57294 -0.56733 0
M  V30 9540 H 894.186 4.14881 -0.355305 0
M  V30 9541 H 896.783 4.80402 2.34773 0
M  V30 9542 H 897.126 3.13643 2.7374 0
M  V30 9543 H 897.659 3.80084 1.17394 0
M  V30 9544 H 894.398 6.55499 -0.00938418 0
M  V30 9545 H 893.918 5.80014 1.52787 0
M  V30 9546 H 895.597 6.34158 1.28265 0
M  V30 9547 N 895.729 -0.261212 1.5542 0
M  V30 9548 C 896.957 -1.00916 1.8062 0
M  V30 9549 C 897.372 -1.79494 0.585444 0
M  V30 9550 O 896.729 -1.76974 -0.445702 0
M  V30 9551 C 896.78 -1.95841 3.03856 0
M  V30 9552 O 896.501 -1.20445 4.21218 0
M  V30 9553 C 898.002 -2.82352 3.41749 0
M  V30 9554 H 895.222 -0.297596 0.601397 0
M  V30 9555 H 897.766 -0.288427 2.02456 0
M  V30 9556 H 895.921 -2.63361 2.84112 0
M  V30 9557 H 896.335 -1.84528 4.90968 0
M  V30 9558 H 897.809 -3.44733 4.31118 0
M  V30 9559 H 898.286 -3.5273 2.61683 0
M  V30 9560 H 898.892 -2.20306 3.63793 0
M  V30 9561 N 897.207 -1.48554 -0.526253 0
M  V30 9562 C 898.117 -1.66044 -1.65731 0
M  V30 9563 C 899.133 -0.542951 -1.65312 0
M  V30 9564 O 900.309 -0.814495 -1.84195 0
M  V30 9565 C 897.374 -1.69959 -3.02184 0
M  V30 9566 C 896.435 -2.93362 -3.13428 0
M  V30 9567 C 895.668 -2.97081 -4.43372 0
M  V30 9568 O 895.891 -2.09103 -5.3069 0
M  V30 9569 O 894.825 -3.8929 -4.59061 0
M  V30 9570 H 898.651 -2.61811 -1.53912 0
M  V30 9571 H 896.236 -1.31999 -0.699759 0
M  V30 9572 H 898.118 -1.75033 -3.83329 0
M  V30 9573 H 896.793 -0.773658 -3.14319 0
M  V30 9574 H 895.7 -2.93818 -2.31564 0
M  V30 9575 H 897.033 -3.85352 -3.06211 0
M  V30 9576 N 898.685 0.775411 -1.37205 0
M  V30 9577 C 899.615 1.90258 -1.35367 0
M  V30 9578 C 900.596 1.68634 -0.222864 0
M  V30 9579 O 901.781 1.89545 -0.422659 0
M  V30 9580 C 898.911 3.27488 -1.15623 0
M  V30 9581 C 897.865 3.63668 -2.25676 0
M  V30 9582 C 897.191 4.994 -1.91059 0
M  V30 9583 C 898.491 3.70797 -3.67841 0
M  V30 9584 H 900.185 1.92053 -2.29687 0
M  V30 9585 H 897.731 0.922597 -1.10563 0
M  V30 9586 H 899.684 4.05976 -1.12968 0
M  V30 9587 H 898.408 3.26117 -0.177573 0
M  V30 9588 H 897.067 2.87486 -2.2748 0
M  V30 9589 H 896.715 4.94565 -0.917324 0
M  V30 9590 H 896.415 5.24576 -2.64751 0
M  V30 9591 H 897.939 5.80291 -1.89985 0
M  V30 9592 H 899.353 4.39444 -3.68187 0
M  V30 9593 H 897.75 4.07468 -4.40556 0
M  V30 9594 H 898.82 2.71549 -4.01732 0
M  V30 9595 N 900.163 1.21714 1.00117 0
M  V30 9596 C 901.44 0.945391 1.71236 0
M  V30 9597 C 901.82 -0.541772 2.0403 0
M  V30 9598 O 901.168 -1.50763 1.71705 0
M  V30 9599 C 901.378 1.83444 2.96899 0
M  V30 9600 C 902.726 2.08558 3.69849 0
M  V30 9601 O 903.75 1.80824 3.06889 0
M  V30 9602 O 902.609 2.55485 4.83104 0
M  V30 9603 H 899.703 0.354834 0.747009 0
M  V30 9604 H 902.249 1.32661 1.05825 0
M  V30 9605 H 901.021 2.84075 2.69105 0
M  V30 9606 H 900.644 1.45428 3.70049 0
M  V30 9607 N 901.641 -1.19671 1.02551 0
M  V30 9608 C 902.574 -2.21522 0.547998 0
M  V30 9609 C 903.552 -1.57363 -0.409349 0
M  V30 9610 O 904.736 -1.85638 -0.327248 0
M  V30 9611 C 901.863 -3.38101 -0.201375 0
M  V30 9612 C 900.909 -4.20601 0.706886 0
M  V30 9613 S 901.742 -4.89066 2.18116 0
M  V30 9614 C 902.898 -6.09058 1.4422 0
M  V30 9615 H 903.131 -2.61684 1.41099 0
M  V30 9616 H 900.664 -1.29864 0.835153 0
M  V30 9617 H 902.622 -4.05674 -0.627607 0
M  V30 9618 H 901.283 -2.96381 -1.04005 0
M  V30 9619 H 900.476 -5.03836 0.128554 0
M  V30 9620 H 900.078 -3.58329 1.07129 0
M  V30 9621 H 902.37 -6.73588 0.726975 0
M  V30 9622 H 903.313 -6.71368 2.25102 0
M  V30 9623 H 903.721 -5.56599 0.941176 0
M  V30 9624 N 903.119 -0.802921 -1.35613 0
M  V30 9625 C 904.344 -0.392846 -2.03645 0
M  V30 9626 C 904.769 0.987075 -1.6012 0
M  V30 9627 O 904.127 1.63849 -0.776101 0
M  V30 9628 C 904.175 -0.480208 -3.57388 0
M  V30 9629 O 903.279 0.507751 -4.09262 0
M  V30 9630 H 902.62 -0.16464 -0.643265 0
M  V30 9631 H 905.15 -1.08779 -1.73287 0
M  V30 9632 H 905.16 -0.348683 -4.06507 0
M  V30 9633 H 903.835 -1.48675 -3.88418 0
M  V30 9634 H 902.412 0.336769 -3.71376 0
M  V30 9635 N 904.597 1.47463 -0.556102 0
M  V30 9636 C 905.843 2.02775 -0.0316806 0
M  V30 9637 C 906.176 1.42967 1.3143 0
M  V30 9638 O 905.451 0.584847 1.85499 0
M  V30 9639 C 905.734 3.60046 0.0625742 0
M  V30 9640 C 905.587 4.30288 -1.31043 0
M  V30 9641 C 906.906 4.33195 0.776553 0
M  V30 9642 H 904.025 0.736886 -0.0129869 0
M  V30 9643 H 906.667 1.75904 -0.718177 0
M  V30 9644 H 904.817 3.83071 0.647231 0
M  V30 9645 H 906.489 4.18607 -1.9382 0
M  V30 9646 H 904.732 3.90685 -1.8854 0
M  V30 9647 H 905.403 5.38861 -1.1972 0
M  V30 9648 H 907.879 4.15156 0.280147 0
M  V30 9649 H 906.755 5.42869 0.81146 0
M  V30 9650 H 907.016 4.02336 1.83244 0
M  V30 9651 N 906.075 0.2925 1.54862 0
M  V30 9652 C 907.305 -0.321646 2.04081 0
M  V30 9653 C 907.713 -1.48712 1.16967 0
M  V30 9654 O 907.056 -1.82755 0.18609 0
M  V30 9655 C 907.118 -0.848678 3.49339 0
M  V30 9656 C 906.782 0.190416 4.56603 0
M  V30 9657 C 907.779 1.01595 5.09877 0
M  V30 9658 C 905.464 0.329666 5.01217 0
M  V30 9659 C 907.458 1.96676 6.06298 0
M  V30 9660 C 905.145 1.28393 5.9746 0
M  V30 9661 C 906.143 2.10097 6.49883 0
M  V30 9662 O 905.831 3.03907 7.44242 0
M  V30 9663 H 905.563 -0.075098 0.671816 0
M  V30 9664 H 908.117 0.427531 2.00901 0
M  V30 9665 H 906.347 -1.64823 3.49815 0
M  V30 9666 H 908.036 -1.37779 3.81801 0
M  V30 9667 H 908.802 0.919197 4.7621 0
M  V30 9668 H 904.681 -0.296317 4.60047 0
M  V30 9669 H 908.225 2.60488 6.47141 0
M  V30 9670 H 904.122 1.38144 6.30545 0
M  V30 9671 H 904.89 2.98787 7.62016 0
M  V30 9672 N 907.553 -1.57587 0.0200696 0
M  V30 9673 C 908.969 -1.56018 -0.336237 0
M  V30 9674 C 909.169 -1.02478 -1.73495 0
M  V30 9675 O 908.225 -0.667487 -2.43518 0
M  V30 9676 C 909.538 -3.00079 -0.193112 0
M  V30 9677 C 911.086 -3.11863 -0.266557 0
M  V30 9678 C 911.561 -4.57747 -0.152326 0
M  V30 9679 N 913.052 -4.62726 -0.209596 0
M  V30 9680 C 913.787 -5.73217 -0.144855 0
M  V30 9681 N 913.283 -6.92794 -0.0295487 0
M  V30 9682 N 915.076 -5.61751 -0.198184 0
M  V30 9683 H 907.227 -1.90722 0.93482 0
M  V30 9684 H 909.49 -0.876909 0.360186 0
M  V30 9685 H 909.196 -3.43167 0.770036 0
M  V30 9686 H 909.07 -3.64593 -0.967029 0
M  V30 9687 H 911.457 -2.68693 -1.22016 0
M  V30 9688 H 911.538 -2.50087 0.53758 0
M  V30 9689 H 911.182 -5.01595 0.797817 0
M  V30 9690 H 911.112 -5.17491 -0.97521 0
M  V30 9691 H 913.603 -3.76713 -0.299229 0
M  V30 9692 H 913.916 -7.72799 0.0134071 0
M  V30 9693 H 912.261 -6.95 0.00510737 0
M  V30 9694 H 915.452 -4.67222 -0.286603 0
M  V30 9695 H 915.625 -6.47839 -0.144266 0
M  V30 9696 N 909.032 0.252966 -1.55557 0
M  V30 9697 C 910.309 1.00432 -1.67847 0
M  V30 9698 C 910.689 2.03587 -0.55816 0
M  V30 9699 O 910.037 2.24239 0.439197 0
M  V30 9700 C 910.247 1.64313 -3.079 0
M  V30 9701 C 911.595 2.14726 -3.66303 0
M  V30 9702 O 912.619 1.74264 -3.10661 0
M  V30 9703 O 911.478 2.89 -4.63833 0
M  V30 9704 H 908.572 0.467102 -0.682455 0
M  V30 9705 H 911.118 0.247233 -1.67889 0
M  V30 9706 H 909.89 0.896681 -3.80888 0
M  V30 9707 H 909.513 2.46657 -3.11843 0
M  V30 9708 N 910.51 1.48831 0.518367 0
M  V30 9709 C 911.735 1.61379 1.30275 0
M  V30 9710 C 912.16 0.278571 1.86026 0
M  V30 9711 O 911.518 -0.751427 1.64995 0
M  V30 9712 C 911.566 2.67225 2.42122 0
M  V30 9713 O 910.67 2.25192 3.45489 0
M  V30 9714 H 910.011 0.540742 0.385349 0
M  V30 9715 H 912.541 1.949 0.622498 0
M  V30 9716 H 912.551 2.88859 2.8814 0
M  V30 9717 H 911.226 3.64155 2.00907 0
M  V30 9718 H 909.803 2.13819 3.05509 0
M  V30 9719 N 911.988 -0.768124 1.37614 0
M  V30 9720 C 913.213 -1.56239 1.36397 0
M  V30 9721 C 913.638 -1.8804 -0.0475839 0
M  V30 9722 O 912.996 -1.495 -1.02564 0
M  V30 9723 C 913.044 -2.84716 2.21289 0
M  V30 9724 O 912.148 -3.79249 1.62001 0
M  V30 9725 H 911.489 -0.473119 0.465891 0
M  V30 9726 H 914.019 -0.950415 1.81186 0
M  V30 9727 H 914.029 -3.33784 2.34632 0
M  V30 9728 H 912.704 -2.60899 3.2389 0
M  V30 9729 H 911.281 -3.37904 1.57719 0
M  V30 9730 N 913.466 -1.22244 -0.994698 0
M  V30 9731 C 914.691 -1.07299 -1.77487 0
M  V30 9732 C 915.116 0.372302 -1.84379 0
M  V30 9733 O 914.474 1.2689 -1.29494 0
M  V30 9734 C 914.522 -1.68675 -3.18718 0
M  V30 9735 O 913.626 -0.939202 -4.01563 0
M  V30 9736 H 912.967 -0.376979 -0.546611 0
M  V30 9737 H 915.497 -1.62003 -1.24965 0
M  V30 9738 H 915.507 -1.73324 -3.69354 0
M  V30 9739 H 914.182 -2.73849 -3.13017 0
M  V30 9740 H 912.759 -0.968583 -3.60101 0
M  V30 9741 N 914.944 1.19125 -1.03184 0
M  V30 9742 C 915.892 2.24492 -0.608781 0
M  V30 9743 C 916.886 1.65529 0.360065 0
M  V30 9744 O 918.092 1.78546 0.22832 0
M  V30 9745 H 914.467 0.73048 -0.178616 0
M  V30 9746 H 916.438 2.5749 -1.50803 0
M  V30 9747 C 915.187 3.47693 0.0215126 0
M  V30 9748 H 914.51 3.93354 -0.715024 0
M  V30 9749 H 915.95 4.23072 0.280429 0
M  V30 9750 C 914.409 3.12088 1.26896 0
M  V30 9751 O 914.939 3.25013 2.36071 0
M  V30 9752 N 913.145 2.66494 1.15886 0
M  V30 9753 H 912.692 2.56176 0.270463 0
M  V30 9754 H 912.65 2.43042 1.99444 0
M  V30 9755 N 916.422 0.810101 1.35185 0
M  V30 9756 C 917.652 0.404109 2.02609 0
M  V30 9757 C 918.06 -0.990748 1.61186 0
M  V30 9758 O 917.403 -1.65038 0.80674 0
M  V30 9759 C 917.465 0.412047 3.57131 0
M  V30 9760 C 917.129 1.75802 4.21832 0
M  V30 9761 C 918.126 2.71687 4.43263 0
M  V30 9762 C 915.811 2.04299 4.58876 0
M  V30 9763 C 917.805 3.9425 5.00845 0
M  V30 9764 C 915.492 3.27125 5.16171 0
M  V30 9765 C 916.49 4.21918 5.37098 0
M  V30 9766 O 916.178 5.42576 5.93184 0
M  V30 9767 H 915.91 0.161914 0.656323 0
M  V30 9768 H 918.464 1.09605 1.73712 0
M  V30 9769 H 916.694 -0.336509 3.85233 0
M  V30 9770 H 918.383 0.0278817 4.0589 0
M  V30 9771 H 919.149 2.50964 4.15021 0
M  V30 9772 H 915.028 1.31324 4.41899 0
M  V30 9773 H 918.572 4.68251 5.17094 0
M  V30 9774 H 914.469 3.47718 5.43841 0
M  V30 9775 H 915.237 5.43921 6.11631 0
M  V30 9776 N 917.9 -1.47166 0.563914 0
M  V30 9777 C 919.311 -1.86231 0.132307 0
M  V30 9778 C 919.662 -1.46976 -1.29971 0
M  V30 9779 O 918.787 -0.875911 -1.97881 0
M  V30 9780 C 919.382 -3.37996 0.233335 0
M  V30 9781 C 917.941 -3.76127 -0.143278 0
M  V30 9782 C 917.088 -2.71212 0.577857 0
M  V30 9783 H 920.039 -1.38588 0.773249 0
M  V30 9784 H 920.06 -3.76558 -0.546309 0
M  V30 9785 H 919.572 -3.66535 1.27568 0
M  V30 9786 H 917.673 -3.53205 -1.18648 0
M  V30 9787 H 917.786 -4.78595 0.219952 0
M  V30 9788 H 916.15 -2.54692 0.020186 0
M  V30 9789 H 916.933 -3.02593 1.62149 0
M  V30 9790 N 919.378 -0.300708 -1.54705 0
M  V30 9791 C 920.288 0.584996 -2.27189 0
M  V30 9792 C 921.304 1.14866 -1.30697 0
M  V30 9793 O 922.48 1.17351 -1.63679 0
M  V30 9794 C 919.545 1.74076 -2.99831 0
M  V30 9795 C 918.606 1.2112 -4.1186 0
M  V30 9796 C 917.839 2.31188 -4.81028 0
M  V30 9797 O 918.062 3.5108 -4.49554 0
M  V30 9798 O 916.996 1.97897 -5.68437 0
M  V30 9799 H 920.822 -0.00298177 -3.037 0
M  V30 9800 H 918.407 -0.0671802 -1.49249 0
M  V30 9801 H 920.289 2.41413 -3.45395 0
M  V30 9802 H 918.964 2.31535 -2.26215 0
M  V30 9803 H 917.871 0.50357 -3.70695 0
M  V30 9804 H 919.204 0.682046 -4.87452 0
M  V30 9805 N 920.856 1.57574 -0.0284266 0
M  V30 9806 C 921.819 2.09096 0.938691 0
M  V30 9807 C 922.819 1.00588 1.25454 0
M  V30 9808 O 924.009 1.2675 1.19499 0
M  V30 9809 C 921.141 2.55624 2.25542 0
M  V30 9810 H 922.334 2.95829 0.49248 0
M  V30 9811 H 919.887 1.5475 0.219594 0
M  V30 9812 H 920.622 1.72218 2.74793 0
M  V30 9813 H 920.407 3.34896 2.03929 0
M  V30 9814 H 921.897 2.95712 2.94863 0
M  V30 9815 N 922.334 -0.244713 1.55689 0
M  V30 9816 C 923.745 -0.813603 1.6804 0
M  V30 9817 C 924.096 -1.85936 0.626281 0
M  V30 9818 O 923.221 -2.15206 -0.227038 0
M  V30 9819 C 923.816 -1.48252 3.04642 0
M  V30 9820 C 922.375 -1.99908 3.18926 0
M  V30 9821 C 921.522 -0.850958 2.6392 0
M  V30 9822 H 924.473 -0.0204805 1.58687 0
M  V30 9823 H 924.494 -2.35062 2.99209 0
M  V30 9824 H 924.006 -0.721164 3.81341 0
M  V30 9825 H 922.107 -2.78918 2.47054 0
M  V30 9826 H 922.22 -2.19497 4.25862 0
M  V30 9827 H 920.584 -1.25206 2.21801 0
M  V30 9828 H 921.367 -0.10265 3.43146 0
M  V30 9829 N 923.813 -1.49104 -0.510467 0
M  V30 9830 C 925.229 -1.35657 -0.840797 0
M  V30 9831 C 925.429 -0.382425 -1.97838 0
M  V30 9832 O 924.485 0.189331 -2.51789 0
M  V30 9833 C 925.798 -2.76155 -1.18992 0
M  V30 9834 C 927.346 -2.84786 -1.29868 0
M  V30 9835 C 927.821 -4.2603 -1.68115 0
M  V30 9836 N 929.312 -4.28796 -1.75181 0
M  V30 9837 C 930.047 -5.35041 -2.062 0
M  V30 9838 N 929.543 -6.51543 -2.35508 0
M  V30 9839 N 931.336 -5.2245 -2.07371 0
M  V30 9840 H 923.487 -2.11042 0.23982 0
M  V30 9841 H 925.75 -0.946946 0.0446824 0
M  V30 9842 H 925.456 -3.49092 -0.427484 0
M  V30 9843 H 925.33 -3.10922 -2.13558 0
M  V30 9844 H 927.717 -2.12092 -2.05186 0
M  V30 9845 H 927.798 -2.53613 -0.333758 0
M  V30 9846 H 927.442 -4.99247 -0.933512 0
M  V30 9847 H 927.372 -4.5466 -2.65691 0
M  V30 9848 H 929.863 -3.44771 -1.5473 0
M  V30 9849 H 930.176 -7.28342 -2.58337 0
M  V30 9850 H 928.521 -6.54785 -2.32985 0
M  V30 9851 H 931.712 -4.30444 -1.83945 0
M  V30 9852 H 931.885 -6.05347 -2.31212 0
M  V30 9853 N 925.291 0.760815 -1.38019 0
M  V30 9854 C 926.519 1.55001 -1.37048 0
M  V30 9855 C 926.934 1.88754 0.0415261 0
M  V30 9856 O 926.291 1.52254 1.00624 0
M  V30 9857 C 926.342 2.8536 -2.21928 0
M  V30 9858 O 926.063 2.53049 -3.57628 0
M  V30 9859 C 927.564 3.79536 -2.29057 0
M  V30 9860 H 924.784 0.479844 -0.469032 0
M  V30 9861 H 927.328 0.942148 -1.81504 0
M  V30 9862 H 925.483 3.42542 -1.80953 0
M  V30 9863 H 925.897 3.36604 -4.02241 0
M  V30 9864 H 927.371 4.67977 -2.92749 0
M  V30 9865 H 927.848 4.19453 -1.30213 0
M  V30 9866 H 928.454 3.28281 -2.70392 0
M  V30 9867 N 926.769 1.22769 0.988202 0
M  V30 9868 C 927.732 1.00325 2.06076 0
M  V30 9869 C 928.732 -0.0320618 1.60768 0
M  V30 9870 O 929.922 0.206912 1.72967 0
M  V30 9871 C 927.054 0.516376 3.36966 0
M  V30 9872 H 928.247 1.95499 2.27421 0
M  V30 9873 H 925.8 1.04704 1.16047 0
M  V30 9874 H 926.535 -0.439498 3.21308 0
M  V30 9875 H 926.32 1.26337 3.71189 0
M  V30 9876 H 927.81 0.37974 4.1587 0
M  V30 9877 N 928.247 -1.18576 1.03814 0
M  V30 9878 C 929.177 -2.24334 0.647795 0
M  V30 9879 C 930.158 -1.66508 -0.34774 0
M  V30 9880 O 931.343 -1.92852 -0.228401 0
M  V30 9881 C 928.473 -3.47299 0.00734922 0
M  V30 9882 C 927.427 -4.17859 0.926152 0
M  V30 9883 C 926.753 -5.34489 0.150317 0
M  V30 9884 C 928.053 -4.71632 2.24411 0
M  V30 9885 H 929.747 -2.57241 1.53191 0
M  V30 9886 H 927.293 -1.23649 0.738028 0
M  V30 9887 H 929.246 -4.20486 -0.277434 0
M  V30 9888 H 927.97 -3.13619 -0.911626 0
M  V30 9889 H 926.629 -3.46567 1.19528 0
M  V30 9890 H 926.277 -4.97056 -0.770985 0
M  V30 9891 H 925.977 -5.82633 0.762407 0
M  V30 9892 H 927.501 -6.10467 -0.127508 0
M  V30 9893 H 928.915 -5.36526 2.02021 0
M  V30 9894 H 927.312 -5.303 2.80894 0
M  V30 9895 H 928.382 -3.89192 2.89236 0
M  V30 9896 N 929.725 -0.817259 -1.34754 0
M  V30 9897 C 930.974 -0.39908 -1.97713 0
M  V30 9898 C 931.287 1.04203 -1.65533 0
M  V30 9899 O 932.493 1.56384 -2.21937 0
M  V30 9900 C 930.949 -0.662634 -3.53747 0
M  V30 9901 C 930.557 -2.11699 -3.94826 0
M  V30 9902 C 932.301 -0.31034 -4.23364 0
M  V30 9903 C 930.208 -2.32573 -5.4375 0
M  V30 9904 H 929.138 -0.145488 -0.739831 0
M  V30 9905 H 931.789 -1.00282 -1.53674 0
M  V30 9906 H 930.171 0.0111972 -3.95998 0
M  V30 9907 H 931.345 -2.82951 -3.63697 0
M  V30 9908 H 929.66 -2.43017 -3.3813 0
M  V30 9909 H 932.257 -0.44421 -5.32852 0
M  V30 9910 H 932.6 0.744594 -4.09587 0
M  V30 9911 H 933.133 -0.938518 -3.8657 0
M  V30 9912 H 929.872 -3.36551 -5.62507 0
M  V30 9913 H 929.392 -1.65858 -5.76412 0
M  V30 9914 H 931.071 -2.14651 -6.10356 0
M  V30 9915 N 931.203 1.46865 -0.571711 0
M  V30 9916 C 932.113 2.33979 0.170571 0
M  V30 9917 C 933.129 1.49083 0.897239 0
M  V30 9918 O 934.305 1.81979 0.862888 0
M  V30 9919 C 931.37 3.26063 1.17831 0
M  V30 9920 C 930.431 4.26855 0.457499 0
M  V30 9921 C 929.664 5.14539 1.41722 0
M  V30 9922 O 929.887 5.04945 2.65305 0
M  V30 9923 O 928.821 5.94612 0.9338 0
M  V30 9924 H 932.647 2.98781 -0.544396 0
M  V30 9925 H 930.232 1.4566 -0.332198 0
M  V30 9926 H 932.114 3.82903 1.75965 0
M  V30 9927 H 930.789 2.63871 1.87493 0
M  V30 9928 H 929.696 3.73734 -0.165406 0
M  V30 9929 H 931.029 4.91802 -0.197953 0
M  V30 9930 N 932.681 0.308908 1.54543 0
M  V30 9931 C 933.613 -0.597453 2.21276 0
M  V30 9932 C 934.626 -1.09137 1.20801 0
M  V30 9933 O 935.815 -1.00747 1.47351 0
M  V30 9934 C 932.915 -1.83085 2.85189 0
M  V30 9935 C 932.088 -1.4781 4.11669 0
M  V30 9936 C 931.147 -2.56748 4.59311 0
M  V30 9937 O 930.173 -2.21507 5.24331 0
M  V30 9938 N 931.375 -3.87427 4.32297 0
M  V30 9939 H 934.14 -0.0261183 2.99689 0
M  V30 9940 H 931.701 0.131456 1.61365 0
M  V30 9941 H 933.693 -2.55326 3.13992 0
M  V30 9942 H 932.263 -2.31039 2.1057 0
M  V30 9943 H 931.483 -0.587974 3.8979 0
M  V30 9944 H 932.771 -1.2179 4.94009 0
M  V30 9945 H 932.169 -4.18863 3.80224 0
M  V30 9946 H 930.726 -4.55942 4.6579 0
M  V30 9947 N 934.159 -1.57557 0.0367827 0
M  V30 9948 C 935.122 -2.09591 -0.927589 0
M  V30 9949 C 936.122 -1.01252 -1.24919 0
M  V30 9950 O 937.312 -1.27382 -1.18825 0
M  V30 9951 C 934.444 -2.56816 -2.24184 0
M  V30 9952 H 935.637 -2.96086 -0.476784 0
M  V30 9953 H 933.19 -1.54864 -0.211385 0
M  V30 9954 H 933.925 -1.73673 -2.73876 0
M  V30 9955 H 933.71 -3.35973 -2.0215 0
M  V30 9956 H 935.2 -2.97271 -2.93291 0
M  V30 9957 N 935.637 0.236453 -1.55816 0
M  V30 9958 C 936.587 1.29603 -1.87582 0
M  V30 9959 C 937.571 1.42999 -0.737566 0
M  V30 9960 O 938.763 1.46065 -0.999701 0
M  V30 9961 C 935.892 2.64945 -2.1831 0
M  V30 9962 C 934.978 2.55511 -3.38489 0
M  V30 9963 N 935.369 2.15716 -4.57494 0
M  V30 9964 C 933.667 2.86502 -3.41808 0
M  V30 9965 C 934.368 2.17169 -5.39641 0
M  V30 9966 N 933.344 2.5708 -4.78969 0
M  V30 9967 H 937.146 0.979016 -2.77115 0
M  V30 9968 H 934.66 0.445058 -1.56183 0
M  V30 9969 H 936.657 3.41426 -2.39236 0
M  V30 9970 H 935.317 2.97504 -1.30082 0
M  V30 9971 H 936.328 1.87089 -4.82927 0
M  V30 9972 H 933.005 3.23533 -2.6388 0
M  V30 9973 H 934.395 1.88653 -6.44872 0
M  V30 9974 N 937.115 1.49373 0.502552 0
M  V30 9975 C 938.062 1.65927 1.60427 0
M  V30 9976 C 939.032 0.500768 1.58371 0
M  V30 9977 O 940.217 0.727606 1.76382 0
M  V30 9978 C 937.357 1.73043 2.9858 0
M  V30 9979 C 936.47 3.00187 3.10663 0
M  V30 9980 C 935.605 2.98292 4.3954 0
M  V30 9981 C 934.644 4.20022 4.4525 0
M  V30 9982 N 933.781 4.16046 5.65553 0
M  V30 9983 H 938.621 2.59998 1.45619 0
M  V30 9984 H 936.158 1.28912 0.708519 0
M  V30 9985 H 938.116 1.7515 3.78653 0
M  V30 9986 H 936.746 0.824397 3.12095 0
M  V30 9987 H 935.798 3.07699 2.23663 0
M  V30 9988 H 937.11 3.9018 3.10742 0
M  V30 9989 H 936.264 2.98953 5.27932 0
M  V30 9990 H 935.003 2.06075 4.42023 0
M  V30 9991 H 934.008 4.19607 3.5526 0
M  V30 9992 H 935.233 5.13431 4.44484 0
M  V30 9993 H 933.179 3.26665 5.68881 0
M  V30 9994 H 933.096 4.99773 5.67242 0
M  V30 9995 H 934.364 4.20807 6.56156 0
M  V30 9996 N 938.594 -0.753485 1.38421 0
M  V30 9997 C 939.527 -1.87525 1.30037 0
M  V30 9998 C 940.505 -1.6163 0.177379 0
M  V30 9999 O 941.689 -1.85132 0.354716 0
M  V30 10000 C 938.816 -3.23138 1.01485 0
M  V30 10001 C 937.862 -3.67921 2.15723 0
M  V30 10002 S 938.695 -3.79447 3.77863 0
M  V30 10003 C 939.851 -5.17879 3.51499 0
M  V30 10004 H 940.084 -1.94351 2.24978 0
M  V30 10005 H 937.617 -0.916475 1.24258 0
M  V30 10006 H 939.575 -4.01455 0.856959 0
M  V30 10007 H 938.236 -3.13991 0.0826199 0
M  V30 10008 H 937.429 -4.66287 1.91292 0
M  V30 10009 H 937.031 -2.96758 2.2762 0
M  V30 10010 H 939.323 -6.03636 3.0762 0
M  V30 10011 H 940.266 -5.47331 4.49259 0
M  V30 10012 H 940.674 -4.86681 2.8601 0
M  V30 10013 N 940.072 -1.23292 -0.981677 0
M  V30 10014 C 941.005 -0.956198 -2.07201 0
M  V30 10015 C 941.983 0.105027 -1.6226 0
M  V30 10016 O 943.167 -0.0289582 -1.88478 0
M  V30 10017 C 940.294 -0.44029 -3.35826 0
M  V30 10018 C 939.34 -1.48792 -3.99704 0
M  V30 10019 S 940.173 -3.06491 -4.39117 0
M  V30 10020 C 941.329 -2.56567 -5.70898 0
M  V30 10021 H 941.562 -1.87947 -2.30355 0
M  V30 10022 H 939.095 -1.06522 -1.1177 0
M  V30 10023 H 941.053 -0.149237 -4.10229 0
M  V30 10024 H 939.714 0.462045 -3.10683 0
M  V30 10025 H 938.907 -1.07706 -4.92357 0
M  V30 10026 H 938.509 -1.72826 -3.31673 0
M  V30 10027 H 940.801 -1.98508 -6.47766 0
M  V30 10028 H 941.744 -3.47755 -6.16824 0
M  V30 10029 H 942.152 -1.97465 -5.28836 0
M  V30 10030 N 941.55 1.18024 -1.04442 0
M  V30 10031 C 942.482 2.21294 -0.596799 0
M  V30 10032 C 943.495 1.59305 0.33552 0
M  V30 10033 O 944.684 1.7803 0.129443 0
M  V30 10034 C 941.784 3.38578 0.147648 0
M  V30 10035 C 940.957 4.30143 -0.793484 0
M  V30 10036 C 940.016 5.2612 -0.0916561 0
M  V30 10037 O 939.042 5.64586 -0.72331 0
M  V30 10038 N 940.244 5.68512 1.17364 0
M  V30 10039 H 943.009 2.6032 -1.48504 0
M  V30 10040 H 940.57 1.32847 -0.925374 0
M  V30 10041 H 942.562 3.99812 0.627098 0
M  V30 10042 H 941.132 2.98212 0.937466 0
M  V30 10043 H 940.352 3.66456 -1.45272 0
M  V30 10044 H 941.64 4.88216 -1.43258 0
M  V30 10045 H 941.038 5.39322 1.70729 0
M  V30 10046 H 939.595 6.31925 1.5973 0
M  V30 10047 N 943.028 0.824394 1.34319 0
M  V30 10048 C 943.958 0.262077 2.32025 0
M  V30 10049 C 944.939 -0.622277 1.58309 0
M  V30 10050 O 946.124 -0.548848 1.86283 0
M  V30 10051 C 943.254 -0.57567 3.42496 0
M  V30 10052 C 942.208 0.21167 4.27476 0
M  V30 10053 C 941.534 -0.748913 5.29429 0
M  V30 10054 C 942.834 1.42068 5.02607 0
M  V30 10055 H 944.528 1.07842 2.79304 0
M  V30 10056 H 942.074 0.520022 1.34282 0
M  V30 10057 H 944.027 -0.979251 4.09864 0
M  V30 10058 H 942.751 -1.42508 2.93869 0
M  V30 10059 H 941.41 0.596636 3.61712 0
M  V30 10060 H 941.058 -1.59432 4.77064 0
M  V30 10061 H 940.758 -0.226313 5.87164 0
M  V30 10062 H 942.282 -1.15032 5.99667 0
M  V30 10063 H 943.696 1.09103 5.62823 0
M  V30 10064 H 942.093 1.87903 5.69923 0
M  V30 10065 H 943.163 2.1981 4.32217 0
M  V30 10066 N 944.506 -1.46559 0.579492 0
M  V30 10067 C 945.753 -2.02399 0.0638418 0
M  V30 10068 C 946.081 -1.45135 -1.29484 0
M  V30 10069 O 945.336 -0.605061 -1.86112 0
M  V30 10070 C 945.635 -3.57357 -0.0552803 0
M  V30 10071 C 945.301 -4.33646 1.23539 0
M  V30 10072 C 943.963 -4.54207 1.589 0
M  V30 10073 C 946.315 -4.77476 2.08965 0
M  V30 10074 C 943.643 -5.1585 2.79492 0
M  V30 10075 C 945.995 -5.4045 3.2878 0
M  V30 10076 C 944.659 -5.5924 3.64427 0
M  V30 10077 H 943.929 -0.740632 0.0233614 0
M  V30 10078 H 946.576 -1.75968 0.755482 0
M  V30 10079 H 944.881 -3.82907 -0.83003 0
M  V30 10080 H 946.578 -3.98237 -0.469964 0
M  V30 10081 H 943.168 -4.17937 0.9501 0
M  V30 10082 H 947.352 -4.61349 1.8295 0
M  V30 10083 H 942.608 -5.28589 3.07252 0
M  V30 10084 H 946.782 -5.73371 3.95245 0
M  V30 10085 H 944.409 -6.06775 4.57961 0
M  V30 10086 N 945.984 -0.3171 -1.54377 0
M  V30 10087 C 946.894 0.560867 -2.27797 0
M  V30 10088 C 947.91 1.13473 -1.31908 0
M  V30 10089 O 949.086 1.15608 -1.64914 0
M  V30 10090 C 946.151 1.70886 -3.0166 0
M  V30 10091 C 945.212 1.16745 -4.13121 0
M  V30 10092 C 944.445 2.26073 -4.83453 0
M  V30 10093 O 944.668 3.46292 -4.53252 0
M  V30 10094 O 943.602 1.91856 -5.70504 0
M  V30 10095 H 947.428 -0.035193 -3.0368 0
M  V30 10096 H 945.013 -0.0830062 -1.49169 0
M  V30 10097 H 946.895 2.37736 -3.47936 0
M  V30 10098 H 945.57 2.29122 -2.28658 0
M  V30 10099 H 944.477 0.464224 -3.71209 0
M  V30 10100 H 945.81 0.630307 -4.88147 0
M  V30 10101 N 947.462 1.57535 -0.0451378 0
M  V30 10102 C 948.711 1.91628 0.629415 0
M  V30 10103 C 949.024 0.924754 1.72359 0
M  V30 10104 O 950.23 1.15751 2.45589 0
M  V30 10105 C 948.686 3.40322 1.17084 0
M  V30 10106 C 948.294 4.47867 0.109101 0
M  V30 10107 C 950.038 3.83458 1.82099 0
M  V30 10108 C 947.945 5.87671 0.663072 0
M  V30 10109 H 946.875 0.715163 0.238868 0
M  V30 10110 H 949.526 1.83151 -0.113046 0
M  V30 10111 H 947.908 3.43783 1.96543 0
M  V30 10112 H 949.082 4.55988 -0.664201 0
M  V30 10113 H 947.397 4.14034 -0.443227 0
M  V30 10114 H 949.994 4.85273 2.2453 0
M  V30 10115 H 950.337 3.19379 2.67026 0
M  V30 10116 H 950.87 3.82488 1.09305 0
M  V30 10117 H 947.609 6.55332 -0.148423 0
M  V30 10118 H 947.129 5.83124 1.4045 0
M  V30 10119 H 948.808 6.36737 1.14785 0
M  V30 10120 N 948.94 -0.228186 1.55939 0
M  V30 10121 C 950.187 -0.953552 1.78644 0
M  V30 10122 C 950.515 -1.84596 0.61275 0
M  V30 10123 O 949.77 -1.91502 -0.403175 0
M  V30 10124 C 950.069 -1.82924 3.0704 0
M  V30 10125 C 949.735 -1.09062 4.37511 0
M  V30 10126 C 948.397 -0.886565 4.72962 0
M  V30 10127 C 950.749 -0.568533 5.1809 0
M  V30 10128 C 948.077 -0.148413 5.86512 0
M  V30 10129 C 950.429 0.156243 6.32407 0
M  V30 10130 C 949.093 0.371612 6.66465 0
M  V30 10131 H 948.363 -0.348929 0.653704 0
M  V30 10132 H 951.01 -0.222211 1.90206 0
M  V30 10133 H 949.315 -2.62823 2.90571 0
M  V30 10134 H 951.012 -2.3925 3.21808 0
M  V30 10135 H 947.602 -1.25963 4.09672 0
M  V30 10136 H 951.786 -0.713673 4.91142 0
M  V30 10137 H 947.042 0.0287418 6.11393 0
M  V30 10138 H 951.216 0.568333 6.94077 0
M  V30 10139 H 948.843 0.945522 7.54297 0
M  V30 10140 N 950.418 -1.49637 -0.494624 0
M  V30 10141 C 951.365 -1.66776 -1.59545 0
M  V30 10142 C 952.335 -0.509159 -1.58104 0
M  V30 10143 O 953.52 -0.736949 -1.75993 0
M  V30 10144 C 950.66 -1.74624 -2.97658 0
M  V30 10145 C 949.773 -3.01831 -3.09067 0
M  V30 10146 C 948.908 -3.00619 -4.37952 0
M  V30 10147 C 947.947 -4.22378 -4.43016 0
M  V30 10148 N 947.084 -4.1904 -5.63339 0
M  V30 10149 H 951.924 -2.60767 -1.44238 0
M  V30 10150 H 949.461 -1.29286 -0.701673 0
M  V30 10151 H 951.419 -1.77156 -3.77719 0
M  V30 10152 H 950.049 -0.840936 -3.11654 0
M  V30 10153 H 949.101 -3.08881 -2.22029 0
M  V30 10154 H 950.413 -3.91823 -3.08669 0
M  V30 10155 H 949.567 -3.01749 -5.26339 0
M  V30 10156 H 948.306 -2.08416 -4.40924 0
M  V30 10157 H 947.311 -4.21485 -3.5303 0
M  V30 10158 H 948.536 -5.15781 -4.41755 0
M  V30 10159 H 946.482 -3.29677 -5.67141 0
M  V30 10160 H 946.399 -5.02774 -5.64583 0
M  V30 10161 H 947.667 -4.24281 -6.53916 0
M  V30 10162 N 951.896 0.746133 -1.38819 0
M  V30 10163 C 952.843 1.86001 -1.36647 0
M  V30 10164 C 953.813 1.6453 -0.227849 0
M  V30 10165 O 954.998 1.86092 -0.421241 0
M  V30 10166 C 952.138 3.23388 -1.20474 0
M  V30 10167 C 951.251 3.5664 -2.43786 0
M  V30 10168 C 950.386 4.8337 -2.20287 0
M  V30 10169 C 949.425 5.09431 -3.39332 0
M  V30 10170 N 948.562 6.2736 -3.1522 0
M  V30 10171 H 953.402 1.87192 -2.31869 0
M  V30 10172 H 950.939 0.914838 -1.15192 0
M  V30 10173 H 952.897 4.02679 -1.09112 0
M  V30 10174 H 951.527 3.21505 -0.288874 0
M  V30 10175 H 950.579 2.72135 -2.65794 0
M  V30 10176 H 951.891 3.71823 -3.3249 0
M  V30 10177 H 951.045 5.70619 -2.06103 0
M  V30 10178 H 949.784 4.70341 -1.28961 0
M  V30 10179 H 948.789 4.20648 -3.54027 0
M  V30 10180 H 950.014 5.24354 -4.31544 0
M  V30 10181 H 947.96 6.15639 -2.26549 0
M  V30 10182 H 947.877 6.43078 -3.97476 0
M  V30 10183 H 949.145 7.17477 -3.04707 0
M  V30 10184 N 953.375 1.23811 0.975125 0
M  V30 10185 C 954.605 1.0986 1.7497 0
M  V30 10186 C 955.013 -0.352366 1.8589 0
M  V30 10187 O 954.356 -1.2553 1.34119 0
M  V30 10188 C 954.418 1.65584 3.19096 0
M  V30 10189 C 954.082 3.14395 3.3167 0
M  V30 10190 C 955.079 4.1163 3.17579 0
M  V30 10191 C 952.764 3.54208 3.56149 0
M  V30 10192 C 954.758 5.46661 3.27781 0
M  V30 10193 C 952.445 4.89382 3.65989 0
M  V30 10194 C 953.443 5.85418 3.51817 0
M  V30 10195 O 953.131 7.18135 3.61299 0
M  V30 10196 H 952.863 0.384854 0.555755 0
M  V30 10197 H 955.417 1.64242 1.23343 0
M  V30 10198 H 953.647 1.05627 3.71994 0
M  V30 10199 H 955.336 1.47032 3.78334 0
M  V30 10200 H 956.102 3.82214 2.98559 0
M  V30 10201 H 951.981 2.79968 3.66249 0
M  V30 10202 H 955.525 6.21601 3.16636 0
M  V30 10203 H 951.422 5.18473 3.84521 0
M  V30 10204 H 952.19 7.25956 3.78061 0
M  V30 10205 N 954.853 -1.17469 1.05066 0
M  V30 10206 C 956.078 -1.92162 0.780298 0
M  V30 10207 C 956.503 -1.76222 -0.657832 0
M  V30 10208 O 955.861 -1.0791 -1.45688 0
M  V30 10209 C 955.909 -3.41292 1.16414 0
M  V30 10210 O 955.013 -4.1134 0.295531 0
M  V30 10211 H 954.354 -0.599127 0.286257 0
M  V30 10212 H 956.884 -1.48903 1.40318 0
M  V30 10213 H 956.894 -3.92029 1.13036 0
M  V30 10214 H 955.569 -3.52214 2.21175 0
M  V30 10215 H 954.146 -3.70857 0.389797 0
M  V30 10216 N 956.331 -0.831506 -1.3388 0
M  V30 10217 C 957.279 -0.247896 -2.31275 0
M  V30 10218 C 958.273 0.616083 -1.578 0
M  V30 10219 O 959.479 0.506465 -1.72728 0
M  V30 10220 H 955.854 -0.0614293 -0.749487 0
M  V30 10221 H 957.825 -1.08401 -2.78014 0
M  V30 10222 C 956.574 0.568434 -3.43022 0
M  V30 10223 H 955.897 -0.0870654 -3.99705 0
M  V30 10224 H 957.337 0.942751 -4.13386 0
M  V30 10225 C 955.796 1.74431 -2.88228 0
M  V30 10226 O 956.326 2.84278 -2.83811 0
M  V30 10227 N 954.532 1.56382 -2.44935 0
M  V30 10228 H 954.079 0.670255 -2.48727 0
M  V30 10229 H 954.037 2.35208 -2.08625 0
M  V30 10230 N 957.809 1.4625 -0.587256 0
M  V30 10231 C 959.055 2.02662 -0.0746851 0
M  V30 10232 C 959.388 1.45723 1.28368 0
M  V30 10233 O 958.663 0.624062 1.84216 0
M  V30 10234 C 958.946 3.60097 -0.0138109 0
M  V30 10235 C 958.799 4.27412 -1.4014 0
M  V30 10236 C 960.118 4.34744 0.684491 0
M  V30 10237 H 957.237 0.736444 -0.0286144 0
M  V30 10238 H 959.879 1.74341 -0.755328 0
M  V30 10239 H 958.029 3.84357 0.56583 0
M  V30 10240 H 959.701 4.14401 -2.02656 0
M  V30 10241 H 957.944 3.86598 -1.96785 0
M  V30 10242 H 958.615 5.362 -1.31124 0
M  V30 10243 H 961.091 4.15657 0.192023 0
M  V30 10244 H 959.967 5.44468 0.696127 0
M  V30 10245 H 960.228 4.06132 1.74669 0
M  V30 10246 N 959.287 0.325282 1.54207 0
M  V30 10247 C 960.536 -0.27768 1.99779 0
M  V30 10248 C 960.849 -1.5311 1.21723 0
M  V30 10249 O 962.055 -2.21017 1.57682 0
M  V30 10250 C 960.511 -0.545329 3.55745 0
M  V30 10251 C 960.119 0.691143 4.42637 0
M  V30 10252 C 961.863 -1.10815 4.09781 0
M  V30 10253 C 959.77 0.395302 5.90077 0
M  V30 10254 H 958.7 -0.107536 0.746292 0
M  V30 10255 H 961.351 0.437773 1.78202 0
M  V30 10256 H 959.733 -1.32101 3.73317 0
M  V30 10257 H 960.907 1.46653 4.3684 0
M  V30 10258 H 959.222 1.1743 3.99499 0
M  V30 10259 H 961.819 -1.34414 5.1753 0
M  V30 10260 H 962.162 -2.05806 3.6187 0
M  V30 10261 H 962.695 -0.393608 3.95848 0
M  V30 10262 H 959.434 1.31443 6.42186 0
M  V30 10263 H 958.954 -0.34235 5.98822 0
M  V30 10264 H 960.633 0.00576877 6.47 0
M  V30 10265 N 960.765 -1.57509 0.0534917 0
M  V30 10266 C 961.993 -1.97098 -0.629298 0
M  V30 10267 C 962.408 -0.931128 -1.64242 0
M  V30 10268 O 961.765 0.0843866 -1.82305 0
M  V30 10269 C 961.816 -3.36767 -1.31415 0
M  V30 10270 O 961.537 -4.36766 -0.341599 0
M  V30 10271 C 963.038 -3.91127 -2.08649 0
M  V30 10272 H 960.258 -0.648611 -0.171886 0
M  V30 10273 H 962.802 -2.04145 0.120479 0
M  V30 10274 H 960.957 -3.30863 -2.01515 0
M  V30 10275 H 961.371 -5.1788 -0.830715 0
M  V30 10276 H 962.845 -4.91129 -2.51985 0
M  V30 10277 H 963.322 -3.26679 -2.9356 0
M  V30 10278 H 963.928 -4.00376 -1.43456 0
M  V30 10279 N 962.243 0.219913 -1.56058 0
M  V30 10280 C 963.191 1.29215 -1.93407 0
M  V30 10281 C 964.185 1.48434 -0.816307 0
M  V30 10282 O 965.391 1.49589 -1.00115 0
M  V30 10283 H 961.766 0.433256 -0.614649 0
M  V30 10284 H 963.737 0.949977 -2.82875 0
M  V30 10285 C 962.486 2.63501 -2.26854 0
M  V30 10286 H 961.809 2.4952 -3.12377 0
M  V30 10287 H 963.249 3.37334 -2.56869 0
M  V30 10288 C 961.708 3.18634 -1.09425 0
M  V30 10289 O 962.238 4.00117 -0.356243 0
M  V30 10290 N 960.444 2.7703 -0.877642 0
M  V30 10291 H 959.991 2.10875 -1.47951 0
M  V30 10292 H 959.949 3.1426 -0.0936792 0
M  V30 10293 N 963.721 1.49897 0.486681 0
M  V30 10294 C 964.967 1.60342 1.2417 0
M  V30 10295 C 965.3 0.295694 1.91936 0
M  V30 10296 O 964.575 -0.701788 1.81398 0
M  V30 10297 C 964.858 2.77281 2.29755 0
M  V30 10298 C 964.711 4.1789 1.66397 0
M  V30 10299 C 966.03 2.89817 3.31201 0
M  V30 10300 H 963.149 0.583605 0.450083 0
M  V30 10301 H 965.791 1.82232 0.537734 0
M  V30 10302 H 963.941 2.58748 2.89796 0
M  V30 10303 H 965.613 4.47975 1.10073 0
M  V30 10304 H 963.856 4.22872 0.967579 0
M  V30 10305 H 964.527 4.95612 2.43049 0
M  V30 10306 H 967.003 3.06732 2.81167 0
M  V30 10307 H 965.879 3.7329 4.02425 0
M  V30 10308 H 966.14 1.9977 3.94391 0
M  V30 10309 N 965.199 -0.738761 1.39212 0
M  V30 10310 C 966.427 -1.52801 1.39497 0
M  V30 10311 C 966.842 -1.88797 -0.0114917 0
M  V30 10312 O 966.199 -1.53835 -0.981887 0
M  V30 10313 C 966.25 -2.81793 2.2644 0
M  V30 10314 O 965.971 -2.47328 3.61608 0
M  V30 10315 C 967.472 -3.75844 2.35067 0
M  V30 10316 H 964.692 -0.472322 0.476606 0
M  V30 10317 H 967.236 -0.913153 1.8298 0
M  V30 10318 H 965.391 -3.3962 1.8638 0
M  V30 10319 H 965.805 -3.30162 4.07545 0
M  V30 10320 H 967.279 -4.6326 3.00157 0
M  V30 10321 H 967.756 -4.17329 1.3687 0
M  V30 10322 H 968.362 -3.23937 2.75581 0
M  V30 10323 N 966.677 -1.24326 -0.968545 0
M  V30 10324 C 967.924 -1.08245 -1.71141 0
M  V30 10325 C 968.252 0.378842 -1.90775 0
M  V30 10326 O 967.507 1.29634 -1.46607 0
M  V30 10327 C 967.806 -1.76644 -3.10695 0
M  V30 10328 C 967.472 -3.26572 -3.10905 0
M  V30 10329 C 966.134 -3.67475 -3.10669 0
M  V30 10330 C 968.486 -4.22422 -3.05302 0
M  V30 10331 C 965.814 -5.02666 -3.02562 0
M  V30 10332 C 968.166 -5.57619 -2.98737 0
M  V30 10333 C 966.83 -5.9787 -2.9683 0
M  V30 10334 H 966.1 -0.396098 -0.626249 0
M  V30 10335 H 968.747 -1.54418 -1.13258 0
M  V30 10336 H 967.052 -1.22864 -3.72037 0
M  V30 10337 H 968.749 -1.61668 -3.66967 0
M  V30 10338 H 965.339 -2.94017 -3.11852 0
M  V30 10339 H 969.523 -3.91821 -3.04614 0
M  V30 10340 H 964.779 -5.3305 -2.99446 0
M  V30 10341 H 968.953 -6.31595 -2.93361 0
M  V30 10342 H 966.58 -7.02587 -2.90303 0
M  V30 10343 N 968.156 1.1691 -1.05688 0
M  V30 10344 C 969.402 1.87814 -0.780871 0
M  V30 10345 C 969.757 1.79796 0.684926 0
M  V30 10346 O 969.05 1.19853 1.49485 0
M  V30 10347 C 969.244 3.36578 -1.20207 0
M  V30 10348 C 969.073 3.59078 -2.70727 0
M  V30 10349 C 967.843 3.75515 -3.38107 0
M  V30 10350 C 970.041 3.58307 -3.68946 0
M  V30 10351 N 968.023 3.85906 -4.77441 0
M  V30 10352 C 969.394 3.74608 -4.94033 0
M  V30 10353 C 971.449 3.41484 -3.62343 0
M  V30 10354 C 970.152 3.75828 -6.13307 0
M  V30 10355 C 972.178 3.43995 -4.81063 0
M  V30 10356 C 971.54 3.60809 -6.04976 0
M  V30 10357 H 967.639 0.705158 -0.338047 0
M  V30 10358 H 970.223 1.40315 -1.34981 0
M  V30 10359 H 968.394 3.82734 -0.661031 0
M  V30 10360 H 970.126 3.95119 -0.875377 0
M  V30 10361 H 966.881 3.7558 -2.88508 0
M  V30 10362 H 967.305 3.94886 -5.49904 0
M  V30 10363 H 971.947 3.27417 -2.67503 0
M  V30 10364 H 969.665 3.88679 -7.08487 0
M  V30 10365 H 973.251 3.3223 -4.77613 0
M  V30 10366 H 972.131 3.62663 -6.95302 0
M  V30 10367 N 969.634 0.838594 1.33437 0
M  V30 10368 C 970.882 0.433312 1.974 0
M  V30 10369 C 971.203 -1.01078 1.66758 0
M  V30 10370 O 970.473 -1.70406 0.966373 0
M  V30 10371 H 969.053 0.15724 0.730263 0
M  V30 10372 H 971.715 1.07149 1.62804 0
M  V30 10373 H 970.811 0.565144 3.06941 0
M  V30 10374 N 971.112 -1.45937 0.595003 0
M  V30 10375 C 972.042 -2.33198 -0.11871 0
M  V30 10376 C 973.023 -1.46083 -0.871423 0
M  V30 10377 O 974.208 -1.74879 -0.844461 0
M  V30 10378 C 971.338 -3.28576 -1.12495 0
M  V30 10379 C 970.292 -4.25229 -0.486275 0
M  V30 10380 C 969.618 -5.10204 -1.59986 0
M  V30 10381 C 970.918 -5.19019 0.584473 0
M  V30 10382 H 972.612 -2.93122 0.609886 0
M  V30 10383 H 970.158 -1.40951 0.294742 0
M  V30 10384 H 972.111 -3.88485 -1.6327 0
M  V30 10385 H 970.835 -2.66784 -1.88398 0
M  V30 10386 H 969.494 -3.666 0.000507962 0
M  V30 10387 H 969.142 -4.44789 -2.34886 0
M  V30 10388 H 968.842 -5.75669 -1.1781 0
M  V30 10389 H 970.366 -5.7298 -2.11014 0
M  V30 10390 H 971.78 -5.73073 0.161297 0
M  V30 10391 H 970.177 -5.92893 0.927256 0
M  V30 10392 H 971.247 -4.62208 1.46601 0
M  V30 10393 N 972.59 -0.333456 -1.54032 0
M  V30 10394 C 973.537 0.527981 -2.2468 0
M  V30 10395 C 974.507 1.10371 -1.24127 0
M  V30 10396 O 975.692 1.14221 -1.52834 0
M  V30 10397 C 972.832 1.67808 -3.01553 0
M  V30 10398 C 971.945 1.13064 -4.16942 0
M  V30 10399 C 971.08 2.24722 -4.81325 0
M  V30 10400 C 970.119 1.67277 -5.88799 0
M  V30 10401 N 969.256 2.72638 -6.47003 0
M  V30 10402 H 974.096 -0.0810308 -2.9789 0
M  V30 10403 H 971.633 -0.051761 -1.47009 0
M  V30 10404 H 973.591 2.35502 -3.44376 0
M  V30 10405 H 972.221 2.25823 -2.30659 0
M  V30 10406 H 971.273 0.344948 -3.78833 0
M  V30 10407 H 972.585 0.670373 -4.94275 0
M  V30 10408 H 971.739 3.00301 -5.27166 0
M  V30 10409 H 970.478 2.74089 -4.03394 0
M  V30 10410 H 969.483 0.902002 -5.4235 0
M  V30 10411 H 970.708 1.18775 -6.68632 0
M  V30 10412 H 968.654 3.21277 -5.71941 0
M  V30 10413 H 968.571 2.31204 -7.19778 0
M  V30 10414 H 969.839 3.48015 -6.97499 0
M  V30 10415 N 974.068 1.57479 -0.061844 0
M  V30 10416 C 975.345 1.84484 0.649993 0
M  V30 10417 C 975.725 0.952366 1.88396 0
M  V30 10418 O 975.073 0.0161035 2.28494 0
M  V30 10419 C 975.283 3.34452 0.997133 0
M  V30 10420 C 976.631 4.01724 1.37488 0
M  V30 10421 O 977.655 3.3914 1.08916 0
M  V30 10422 O 976.514 5.12091 1.90854 0
M  V30 10423 H 973.608 0.761798 0.321858 0
M  V30 10424 H 976.154 1.6945 -0.0920192 0
M  V30 10425 H 974.926 3.91115 0.120301 0
M  V30 10426 H 974.549 3.54713 1.79624 0
M  V30 10427 N 975.546 -0.211634 1.56173 0
M  V30 10428 C 976.823 -0.959467 1.70451 0
M  V30 10429 C 977.203 -2.02036 0.611942 0
M  V30 10430 O 976.551 -2.25325 -0.37959 0
M  V30 10431 C 976.761 -1.56092 3.12148 0
M  V30 10432 C 978.109 -2.04939 3.71867 0
M  V30 10433 O 979.133 -1.65966 3.15172 0
M  V30 10434 O 977.992 -2.766 4.71333 0
M  V30 10435 H 975.086 -0.448844 0.6946 0
M  V30 10436 H 977.632 -0.202633 1.68486 0
M  V30 10437 H 976.404 -0.79538 3.83131 0
M  V30 10438 H 976.027 -2.38303 3.18273 0
M  V30 10439 N 977.024 -1.50153 -0.478725 0
M  V30 10440 C 978.254 -1.64266 -1.253 0
M  V30 10441 C 978.662 -0.322256 -1.86435 0
M  V30 10442 O 978.005 0.704925 -1.69636 0
M  V30 10443 C 978.067 -2.67017 -2.40712 0
M  V30 10444 C 977.731 -4.10779 -2.00274 0
M  V30 10445 C 978.728 -4.96889 -1.52963 0
M  V30 10446 C 976.413 -4.5665 -2.09228 0
M  V30 10447 C 978.407 -6.26914 -1.15139 0
M  V30 10448 C 976.094 -5.86683 -1.71015 0
M  V30 10449 C 977.092 -6.71641 -1.24048 0
M  V30 10450 O 976.78 -7.99248 -0.863617 0
M  V30 10451 H 976.512 -0.555382 -0.385392 0
M  V30 10452 H 979.066 -1.97078 -0.578751 0
M  V30 10453 H 977.296 -2.29432 -3.11284 0
M  V30 10454 H 978.985 -2.70428 -3.02694 0
M  V30 10455 H 979.751 -4.62669 -1.45474 0
M  V30 10456 H 975.63 -3.90674 -2.44735 0
M  V30 10457 H 979.174 -6.93179 -0.784089 0
M  V30 10458 H 975.071 -6.20426 -1.78162 0
M  V30 10459 H 975.839 -8.12452 -0.993139 0
M  V30 10460 N 978.502 0.731368 -1.39602 0
M  V30 10461 C 979.727 1.52567 -1.40492 0
M  V30 10462 C 980.152 1.881 -0.00228828 0
M  V30 10463 O 979.51 1.52167 0.985643 0
M  V30 10464 C 979.558 2.78749 -2.2876 0
M  V30 10465 O 978.662 3.7482 -1.71999 0
M  V30 10466 H 978.003 0.460601 -0.478271 0
M  V30 10467 H 980.533 0.902042 -1.83642 0
M  V30 10468 H 980.543 3.27446 -2.43399 0
M  V30 10469 H 979.218 2.5222 -3.30693 0
M  V30 10470 H 977.795 3.33604 -1.66622 0
M  V30 10471 N 979.98 1.24838 0.961938 0
M  V30 10472 C 981.226 1.10321 1.70883 0
M  V30 10473 C 981.581 -0.353397 1.89127 0
M  V30 10474 O 980.874 -1.25721 1.44584 0
M  V30 10475 C 981.068 1.78289 3.09754 0
M  V30 10476 C 980.897 3.30409 3.05057 0
M  V30 10477 C 979.667 3.9964 3.09218 0
M  V30 10478 C 981.865 4.26916 2.86787 0
M  V30 10479 N 979.847 5.38594 2.94601 0
M  V30 10480 C 981.218 5.52906 2.80526 0
M  V30 10481 C 983.273 4.17421 2.71412 0
M  V30 10482 C 981.976 6.70487 2.60461 0
M  V30 10483 C 984.002 5.34686 2.52715 0
M  V30 10484 C 983.364 6.59611 2.47168 0
M  V30 10485 H 979.463 0.458353 0.63359 0
M  V30 10486 H 982.047 1.57835 1.14001 0
M  V30 10487 H 980.218 1.33281 3.64816 0
M  V30 10488 H 981.95 1.5658 3.73182 0
M  V30 10489 H 978.705 3.50847 3.18125 0
M  V30 10490 H 979.129 6.11497 2.90517 0
M  V30 10491 H 983.771 3.21592 2.74479 0
M  V30 10492 H 981.489 7.66433 2.56136 0
M  V30 10493 H 985.075 5.29194 2.41754 0
M  V30 10494 H 983.955 7.48821 2.32888 0
M  V30 10495 N 981.458 -1.16348 1.06306 0
M  V30 10496 C 982.874 -1.38873 0.786543 0
M  V30 10497 C 983.074 -1.91915 -0.614061 0
M  V30 10498 O 982.13 -2.11804 -1.3746 0
M  V30 10499 C 983.443 -2.36936 1.85154 0
M  V30 10500 C 984.991 -2.5062 1.87506 0
M  V30 10501 C 985.466 -3.51965 2.9306 0
M  V30 10502 N 986.957 -3.59492 2.92095 0
M  V30 10503 C 987.692 -4.37699 3.70415 0
M  V30 10504 N 987.188 -5.19327 4.58553 0
M  V30 10505 N 988.981 -4.32683 3.58806 0
M  V30 10506 H 981.132 -0.802542 1.96655 0
M  V30 10507 H 983.395 -0.415304 0.852189 0
M  V30 10508 H 983.101 -2.05056 2.85736 0
M  V30 10509 H 982.975 -3.36585 1.70267 0
M  V30 10510 H 985.362 -2.81804 0.875827 0
M  V30 10511 H 985.443 -1.51006 2.06472 0
M  V30 10512 H 985.087 -3.21518 3.93177 0
M  V30 10513 H 985.017 -4.51309 2.71344 0
M  V30 10514 H 987.508 -3.01222 2.28197 0
M  V30 10515 H 987.821 -5.76216 5.1497 0
M  V30 10516 H 986.166 -5.1867 4.62608 0
M  V30 10517 H 989.357 -3.67971 2.89335 0
M  V30 10518 H 989.53 -4.93386 4.20088 0
M  V30 10519 N 982.937 -0.845659 -1.3299 0
M  V30 10520 C 983.9 -0.288905 -2.27372 0
M  V30 10521 C 984.9 0.546263 -1.51237 0
M  V30 10522 O 986.09 0.359072 -1.70459 0
M  V30 10523 C 983.222 0.59224 -3.35716 0
M  V30 10524 H 984.415 -1.12181 -2.78128 0
M  V30 10525 H 981.968 -0.619276 -1.43508 0
M  V30 10526 H 982.703 1.44732 -2.90212 0
M  V30 10527 H 982.488 -0.00543255 -3.921 0
M  V30 10528 H 983.978 0.974848 -4.06062 0
M  V30 10529 N 984.415 1.45619 -0.602734 0
M  V30 10530 C 985.643 2.06647 -0.102253 0
M  V30 10531 C 986.058 1.4482 1.21131 0
M  V30 10532 O 985.415 0.560621 1.73676 0
M  V30 10533 C 985.466 3.61467 0.0490113 0
M  V30 10534 O 985.187 4.20985 -1.21257 0
M  V30 10535 C 986.688 4.39469 0.581517 0
M  V30 10536 H 983.908 0.667685 -0.0666155 0
M  V30 10537 H 986.452 1.86939 -0.829091 0
M  V30 10538 H 984.607 3.80534 0.726153 0
M  V30 10539 H 985.021 5.14103 -1.03915 0
M  V30 10540 H 986.495 5.48318 0.636462 0
M  V30 10541 H 986.972 4.0891 1.60277 0
M  V30 10542 H 987.578 4.25256 -0.061419 0
M  V30 10543 N 985.893 0.34162 1.53853 0
M  V30 10544 C 987.309 -0.0103769 1.59597 0
M  V30 10545 C 987.509 -1.48897 1.35764 0
M  V30 10546 O 986.565 -2.24743 1.15095 0
M  V30 10547 C 987.878 0.424067 2.97695 0
M  V30 10548 C 989.426 0.376247 3.1073 0
M  V30 10549 C 989.901 0.786129 4.51203 0
M  V30 10550 N 991.392 0.74024 4.57247 0
M  V30 10551 C 992.127 1.02937 5.64085 0
M  V30 10552 N 991.623 1.38655 6.78783 0
M  V30 10553 N 993.416 0.953734 5.5395 0
M  V30 10554 H 985.567 1.30477 1.67599 0
M  V30 10555 H 987.83 0.531753 0.78482 0
M  V30 10556 H 987.536 1.45493 3.20195 0
M  V30 10557 H 987.41 -0.201713 3.7666 0
M  V30 10558 H 989.797 -0.645441 2.87955 0
M  V30 10559 H 989.878 1.0372 2.33828 0
M  V30 10560 H 989.522 1.80582 4.74713 0
M  V30 10561 H 989.452 0.102671 5.265 0
M  V30 10562 H 991.943 0.476763 3.7488 0
M  V30 10563 H 992.256 1.59206 7.56223 0
M  V30 10564 H 990.601 1.42498 6.80235 0
M  V30 10565 H 993.792 0.674044 4.63222 0
M  V30 10566 H 993.965 1.18241 6.37121 0
M  V30 10567 N 987.371 -1.57444 0.0701946 0
M  V30 10568 C 988.787 -1.57009 -0.286431 0
M  V30 10569 C 988.987 -1.07946 -1.70147 0
M  V30 10570 O 988.043 -0.744622 -2.41271 0
M  V30 10571 C 989.356 -3.00542 -0.0975466 0
M  V30 10572 C 990.904 -3.12553 -0.167205 0
M  V30 10573 C 991.379 -4.58 -0.00662047 0
M  V30 10574 N 992.87 -4.63158 -0.0622778 0
M  V30 10575 C 993.605 -5.73388 0.0375831 0
M  V30 10576 N 993.101 -6.92537 0.190873 0
M  V30 10577 N 994.894 -5.62097 -0.0193672 0
M  V30 10578 H 987.045 -1.87651 0.995023 0
M  V30 10579 H 989.308 -0.865006 0.387902 0
M  V30 10580 H 989.014 -3.40543 0.878822 0
M  V30 10581 H 988.888 -3.67485 -0.850547 0
M  V30 10582 H 991.275 -2.72439 -1.13406 0
M  V30 10583 H 991.356 -2.48251 0.616871 0
M  V30 10584 H 991 -4.98803 0.956992 0
M  V30 10585 H 990.93 -5.20332 -0.810081 0
M  V30 10586 H 993.421 -3.77475 -0.179229 0
M  V30 10587 H 993.734 -7.72365 0.25926 0
M  V30 10588 H 992.079 -6.94632 0.226214 0
M  V30 10589 H 995.27 -4.67897 -0.137815 0
M  V30 10590 H 995.443 -6.4797 0.0619121 0
M  V30 10591 N 988.849 0.203349 -1.56283 0
M  V30 10592 C 989.797 1.27157 -1.94766 0
M  V30 10593 C 990.791 1.4756 -0.832005 0
M  V30 10594 O 991.997 1.48519 -1.01696 0
M  V30 10595 H 988.372 0.426712 -0.61921 0
M  V30 10596 H 990.343 0.919921 -2.83866 0
M  V30 10597 C 989.092 2.6108 -2.29636 0
M  V30 10598 H 988.415 2.46193 -3.15006 0
M  V30 10599 H 989.855 3.34591 -2.60433 0
M  V30 10600 C 988.314 3.17456 -1.12799 0
M  V30 10601 O 988.844 3.99717 -0.398661 0
M  V30 10602 N 987.05 2.76084 -0.906975 0
M  V30 10603 H 986.597 2.09294 -1.50179 0
M  V30 10604 H 986.555 3.14143 -0.127005 0
M  V30 10605 N 990.327 1.50405 0.470755 0
M  V30 10606 C 991.604 1.51929 1.23195 0
M  V30 10607 C 991.984 0.264159 2.09441 0
M  V30 10608 O 991.332 -0.752395 2.15757 0
M  V30 10609 C 991.542 2.81521 2.06269 0
M  V30 10610 C 992.89 3.32195 2.64446 0
M  V30 10611 O 993.914 2.82845 2.16511 0
M  V30 10612 O 992.773 4.18221 3.51786 0
M  V30 10613 H 989.867 0.609411 0.559059 0
M  V30 10614 H 992.413 1.62695 0.482549 0
M  V30 10615 H 991.185 3.64346 1.42715 0
M  V30 10616 H 990.808 2.7376 2.88342 0
M  V30 10617 N 991.805 -0.723954 1.39988 0
M  V30 10618 C 993.051 -1.48476 1.3902 0
M  V30 10619 C 993.406 -1.92397 -0.0105439 0
M  V30 10620 O 992.699 -1.64683 -0.979294 0
M  V30 10621 C 992.893 -2.73004 2.30659 0
M  V30 10622 C 992.722 -2.41261 3.79504 0
M  V30 10623 C 991.492 -2.33013 4.48367 0
M  V30 10624 C 993.69 -2.06078 4.71207 0
M  V30 10625 N 991.672 -1.93856 5.82489 0
M  V30 10626 C 993.043 -1.77455 5.94062 0
M  V30 10627 C 995.098 -1.92642 4.59123 0
M  V30 10628 C 993.801 -1.36748 7.06182 0
M  V30 10629 C 995.827 -1.53338 5.71175 0
M  V30 10630 C 995.189 -1.25607 6.93111 0
M  V30 10631 H 991.288 -0.54172 0.563971 0
M  V30 10632 H 993.872 -0.840344 1.75631 0
M  V30 10633 H 992.043 -3.35209 1.96188 0
M  V30 10634 H 993.775 -3.39286 2.20606 0
M  V30 10635 H 990.53 -2.50476 4.01944 0
M  V30 10636 H 990.954 -1.7684 6.53496 0
M  V30 10637 H 995.596 -2.12745 3.65376 0
M  V30 10638 H 993.314 -1.15386 7.9982 0
M  V30 10639 H 996.9 -1.43532 5.63817 0
M  V30 10640 H 995.78 -0.956505 7.78345 0
M  V30 10641 N 993.283 -1.25346 -0.955304 0
M  V30 10642 C 994.694 -1.09173 -1.51453 0
M  V30 10643 C 995.045 0.332755 -1.93358 0
M  V30 10644 O 994.17 1.22264 -1.78551 0
M  V30 10645 C 994.765 -1.97564 -2.75234 0
M  V30 10646 C 993.324 -1.85579 -3.27471 0
M  V30 10647 C 992.471 -1.91755 -2.00313 0
M  V30 10648 H 995.422 -1.38642 -0.772271 0
M  V30 10649 H 995.443 -1.51523 -3.49029 0
M  V30 10650 H 994.955 -3.01233 -2.44704 0
M  V30 10651 H 993.056 -0.847906 -3.62824 0
M  V30 10652 H 993.169 -2.70353 -3.95533 0
M  V30 10653 H 991.533 -1.35633 -2.15582 0
M  V30 10654 H 992.316 -2.97028 -1.72132 0
M  V30 10655 N 994.761 1.15782 -1.06922 0
M  V30 10656 C 995.691 2.22538 -0.707045 0
M  V30 10657 C 996.672 1.67371 0.303471 0
M  V30 10658 O 997.857 1.9339 0.177189 0
M  V30 10659 C 994.987 3.47158 -0.0994269 0
M  V30 10660 C 993.941 4.15257 -1.03661 0
M  V30 10661 C 993.267 5.33902 -0.291974 0
M  V30 10662 C 994.567 4.65516 -2.36837 0
M  V30 10663 H 996.261 2.53089 -1.59958 0
M  V30 10664 H 993.807 1.21649 -0.770552 0
M  V30 10665 H 995.76 4.21073 0.165852 0
M  V30 10666 H 994.484 3.15926 0.828155 0
M  V30 10667 H 993.143 3.43276 -1.28674 0
M  V30 10668 H 992.791 4.98926 0.638928 0
M  V30 10669 H 992.491 5.80407 -0.916613 0
M  V30 10670 H 994.015 6.1059 -0.0343915 0
M  V30 10671 H 995.429 5.30981 -2.16175 0
M  V30 10672 H 993.826 5.22666 -2.94856 0
M  V30 10673 H 994.896 3.81387 -2.99453 0
M  V30 10674 N 996.239 0.8527 1.3254 0
M  V30 10675 C 997.488 0.45136 1.96585 0
M  V30 10676 C 997.801 -0.997773 1.68237 0
M  V30 10677 O 999.007 -1.50445 2.26006 0
M  V30 10678 C 997.463 0.75619 3.51866 0
M  V30 10679 C 997.071 2.22092 3.89075 0
M  V30 10680 C 998.815 0.422478 4.22392 0
M  V30 10681 C 996.722 2.46908 5.37392 0
M  V30 10682 H 995.652 0.165052 0.735713 0
M  V30 10683 H 998.303 1.04321 1.50962 0
M  V30 10684 H 996.685 0.0937988 3.95889 0
M  V30 10685 H 997.859 2.92494 3.56067 0
M  V30 10686 H 996.174 2.51896 3.31568 0
M  V30 10687 H 998.771 0.58533 5.31487 0
M  V30 10688 H 999.114 -0.635737 4.11417 0
M  V30 10689 H 999.647 1.04068 3.83946 0
M  V30 10690 H 996.386 3.51346 5.53386 0
M  V30 10691 H 995.906 1.81082 5.71812 0
M  V30 10692 H 997.585 2.30758 6.0445 0
M  V30 10693 N 997.718 -1.45297 0.610449 0
M  V30 10694 C 998.965 -2.02218 0.106759 0
M  V30 10695 C 999.293 -1.47849 -1.26376 0
M  V30 10696 O 998.548 -0.644402 -1.84786 0
M  V30 10697 C 998.847 -3.57394 0.0205329 0
M  V30 10698 C 998.513 -4.30928 1.32709 0
M  V30 10699 C 997.175 -4.50735 1.68498 0
M  V30 10700 C 999.527 -4.72936 2.19046 0
M  V30 10701 C 996.855 -5.09806 2.90371 0
M  V30 10702 C 999.207 -5.33355 3.40169 0
M  V30 10703 C 997.871 -5.51384 3.76207 0
M  V30 10704 H 997.141 -0.739969 0.039066 0
M  V30 10705 H 999.788 -1.74326 0.792638 0
M  V30 10706 H 998.093 -3.84581 -0.748623 0
M  V30 10707 H 999.79 -3.99144 -0.385386 0
M  V30 10708 H 996.38 -4.15827 1.03854 0
M  V30 10709 H 1000.56 -4.57365 1.92695 0
M  V30 10710 H 995.82 -5.21953 3.18395 0
M  V30 10711 H 999.994 -5.64859 4.07318 0
M  V30 10712 H 997.621 -5.96924 4.70729 0
M  V30 10713 N 999.196 -0.349774 -1.5367 0
M  V30 10714 C 1000.47 0.300419 -1.93279 0
M  V30 10715 C 1000.85 1.67721 -1.28191 0
M  V30 10716 O 1000.2 2.24319 -0.435127 0
M  V30 10717 C 1000.41 0.366466 -3.47071 0
M  V30 10718 C 1001.76 0.614349 -4.20132 0
M  V30 10719 O 1002.78 0.448327 -3.53367 0
M  V30 10720 O 1001.64 0.936421 -5.38417 0
M  V30 10721 H 998.736 0.176599 -0.807924 0
M  V30 10722 H 1001.28 -0.401405 -1.64884 0
M  V30 10723 H 1000.05 -0.599455 -3.86681 0
M  V30 10724 H 999.677 1.11482 -3.81651 0
M  V30 10725 N 1000.67 1.57404 -0.0785433 0
M  V30 10726 C 1001.62 2.13104 0.88631 0
M  V30 10727 C 1002.59 1.04527 1.29086 0
M  V30 10728 O 1003.78 1.32226 1.37553 0
M  V30 10729 C 1000.92 2.70252 2.14611 0
M  V30 10730 C 1000.03 3.93007 1.79358 0
M  V30 10731 C 999.164 4.38376 3 0
M  V30 10732 C 998.203 5.53761 2.60796 0
M  V30 10733 N 997.34 5.94058 3.74219 0
M  V30 10734 H 1002.18 2.95243 0.404452 0
M  V30 10735 H 999.717 1.45894 0.187982 0
M  V30 10736 H 1001.67 3.01497 2.88367 0
M  V30 10737 H 1000.3 1.90868 2.60326 0
M  V30 10738 H 999.357 3.68181 0.956384 0
M  V30 10739 H 1000.67 4.76795 1.4652 0
M  V30 10740 H 999.823 4.71317 3.82027 0
M  V30 10741 H 998.562 3.53455 3.36037 0
M  V30 10742 H 997.567 5.20464 1.77192 0
M  V30 10743 H 998.792 6.40419 2.25922 0
M  V30 10744 H 996.738 5.12085 4.10005 0
M  V30 10745 H 996.655 6.72602 3.45171 0
M  V30 10746 H 997.923 6.31624 4.56805 0
M  V30 10747 N 1002.15 -0.195058 1.56388 0
M  V30 10748 C 1003.43 -0.941335 1.71459 0
M  V30 10749 C 1003.81 -2.01375 0.633336 0
M  V30 10750 O 1003.16 -2.25715 -0.35567 0
M  V30 10751 C 1003.37 -1.52772 3.13786 0
M  V30 10752 C 1004.71 -2.00983 3.7402 0
M  V30 10753 O 1005.74 -1.62614 3.16915 0
M  V30 10754 O 1004.6 -2.71586 4.7424 0
M  V30 10755 H 1001.69 -0.441451 0.699321 0
M  V30 10756 H 1004.24 -0.184752 1.68691 0
M  V30 10757 H 1003.01 -0.754699 3.83953 0
M  V30 10758 H 1002.63 -2.34914 3.20782 0
M  V30 10759 N 1003.63 -1.50653 -0.462772 0
M  V30 10760 C 1004.58 -1.66509 -1.55752 0
M  V30 10761 C 1005.56 -0.519508 -1.52282 0
M  V30 10762 O 1006.76 -0.774296 -1.59166 0
M  V30 10763 C 1003.88 -1.77023 -2.94139 0
M  V30 10764 C 1002.97 -2.97284 -3.02461 0
M  V30 10765 N 1003.36 -4.20843 -2.80579 0
M  V30 10766 C 1001.66 -2.96014 -3.33604 0
M  V30 10767 C 1002.36 -5.01886 -2.94084 0
M  V30 10768 N 1001.34 -4.3601 -3.24648 0
M  V30 10769 H 1005.14 -2.59727 -1.37546 0
M  V30 10770 H 1002.65 -1.47951 -0.669653 0
M  V30 10771 H 1004.65 -1.86488 -3.72864 0
M  V30 10772 H 1003.31 -0.849688 -3.13385 0
M  V30 10773 H 1004.32 -4.50206 -2.55998 0
M  V30 10774 H 1001 -2.13493 -3.58786 0
M  V30 10775 H 1002.39 -6.10164 -2.81334 0
M  V30 10776 N 1005.11 0.71652 -1.4037 0
M  V30 10777 C 1006.04 1.84138 -1.36477 0
M  V30 10778 C 1007.05 1.6054 -0.27033 0
M  V30 10779 O 1008.24 1.70431 -0.530612 0
M  V30 10780 C 1005.34 3.20523 -1.10082 0
M  V30 10781 C 1004.52 3.71326 -2.31162 0
M  V30 10782 C 1003.57 4.86322 -2.00942 0
M  V30 10783 O 1002.6 4.99022 -2.73799 0
M  V30 10784 N 1003.8 5.72051 -0.986812 0
M  V30 10785 H 1006.57 1.87977 -2.3342 0
M  V30 10786 H 1004.13 0.89802 -1.34712 0
M  V30 10787 H 1006.12 3.95049 -0.878526 0
M  V30 10788 H 1004.69 3.11838 -0.21809 0
M  V30 10789 H 1003.91 2.87941 -2.69227 0
M  V30 10790 H 1005.2 4.02003 -3.11883 0
M  V30 10791 H 1004.6 5.64399 -0.383381 0
M  V30 10792 H 1003.15 6.46565 -0.824419 0
M  V30 10793 N 1006.59 1.25851 0.948643 0
M  V30 10794 C 1007.55 1.0683 2.0278 0
M  V30 10795 C 1008.55 0.0191016 1.60789 0
M  V30 10796 O 1009.74 0.261836 1.72221 0
M  V30 10797 C 1006.87 0.623318 3.35153 0
M  V30 10798 H 1008.06 2.02635 2.21086 0
M  V30 10799 H 1005.62 1.08343 1.12657 0
M  V30 10800 H 1006.35 -0.337053 3.22544 0
M  V30 10801 H 1006.14 1.38082 3.66982 0
M  V30 10802 H 1007.63 0.511854 4.14451 0
M  V30 10803 N 1008.06 -1.15214 1.07534 0
M  V30 10804 C 1009.01 -2.20013 0.697337 0
M  V30 10805 C 1009.98 -1.6314 -0.312168 0
M  V30 10806 O 1011.17 -1.89768 -0.198196 0
M  V30 10807 C 1008.31 -3.44945 0.103293 0
M  V30 10808 C 1007.42 -4.16009 1.1645 0
M  V30 10809 C 1006.55 -5.28496 0.535261 0
M  V30 10810 C 1005.59 -5.9138 1.57912 0
M  V30 10811 N 1004.73 -6.95335 0.972332 0
M  V30 10812 H 1009.57 -2.51698 1.59538 0
M  V30 10813 H 1007.11 -1.2361 0.797431 0
M  V30 10814 H 1009.07 -4.16397 -0.258766 0
M  V30 10815 H 1007.7 -3.13772 -0.758096 0
M  V30 10816 H 1006.75 -3.43035 1.64411 0
M  V30 10817 H 1008.06 -4.58853 1.9559 0
M  V30 10818 H 1007.21 -6.06579 0.120942 0
M  V30 10819 H 1005.95 -4.8685 -0.287889 0
M  V30 10820 H 1004.96 -5.12008 2.0032 0
M  V30 10821 H 1006.18 -6.35103 2.40459 0
M  V30 10822 H 1004.13 -6.55779 0.170119 0
M  V30 10823 H 1004.05 -7.36616 1.70095 0
M  V30 10824 H 1005.31 -7.77312 0.583577 0
M  V30 10825 N 1009.54 -0.859717 -1.32086 0
M  V30 10826 C 1010.47 -0.323502 -2.31248 0
M  V30 10827 C 1011.45 0.580085 -1.59903 0
M  V30 10828 O 1012.64 0.499265 -1.87673 0
M  V30 10829 C 1009.77 0.484661 -3.43902 0
M  V30 10830 C 1008.72 -0.324933 -4.26765 0
M  V30 10831 C 1008.05 0.608281 -5.31229 0
M  V30 10832 C 1009.35 -1.55344 -4.98664 0
M  V30 10833 H 1011.04 -1.15209 -2.76346 0
M  V30 10834 H 1008.59 -0.555442 -1.32856 0
M  V30 10835 H 1010.54 0.870238 -4.12316 0
M  V30 10836 H 1009.27 1.34666 -2.97544 0
M  V30 10837 H 1007.92 -0.692328 -3.60003 0
M  V30 10838 H 1007.57 1.46727 -4.81124 0
M  V30 10839 H 1007.27 0.0705571 -5.87558 0
M  V30 10840 H 1008.8 0.990925 -6.02506 0
M  V30 10841 H 1010.21 -1.23987 -5.59732 0
M  V30 10842 H 1008.61 -2.02947 -5.64741 0
M  V30 10843 H 1009.68 -2.31192 -4.26237 0
M  V30 10844 N 1011.02 1.44971 -0.618145 0
M  V30 10845 C 1011.98 2.29044 0.0846739 0
M  V30 10846 C 1012.98 1.40341 0.784921 0
M  V30 10847 O 1014.17 1.62351 0.631479 0
M  V30 10848 C 1011.31 3.21617 1.13027 0
M  V30 10849 H 1012.5 2.92668 -0.654612 0
M  V30 10850 H 1010.05 1.51668 -0.377672 0
M  V30 10851 H 1010.79 2.62815 1.89997 0
M  V30 10852 H 1010.57 3.86969 0.63224 0
M  V30 10853 H 1012.06 3.84805 1.62218 0
M  V30 10854 N 1012.5 0.357919 1.53482 0
M  V30 10855 C 1013.73 -0.234799 2.05261 0
M  V30 10856 C 1014.14 -1.43618 1.23169 0
M  V30 10857 O 1013.48 -1.81801 0.263435 0
M  V30 10858 C 1013.54 -0.699748 3.52624 0
M  V30 10859 C 1013.21 0.383905 4.55385 0
M  V30 10860 C 1014.2 1.23129 5.05109 0
M  V30 10861 C 1011.89 0.541953 4.99368 0
M  V30 10862 C 1013.88 2.22214 5.97411 0
M  V30 10863 C 1011.57 1.53618 5.91477 0
M  V30 10864 C 1012.57 2.37471 6.40388 0
M  V30 10865 O 1012.25 3.35199 7.30682 0
M  V30 10866 H 1011.99 -0.0465364 0.674396 0
M  V30 10867 H 1014.54 0.512355 1.98907 0
M  V30 10868 H 1012.77 -1.49838 3.5649 0
M  V30 10869 H 1014.46 -1.21461 3.87301 0
M  V30 10870 H 1015.23 1.12035 4.71883 0
M  V30 10871 H 1011.1 -0.100929 4.6089 0
M  V30 10872 H 1014.65 2.87702 6.35511 0
M  V30 10873 H 1010.55 1.64763 6.24118 0
M  V30 10874 H 1011.31 3.30838 7.48658 0
M  V30 10875 N 1013.98 -1.5736 0.0868897 0
M  V30 10876 C 1015.22 -1.95147 -0.573512 0
M  V30 10877 C 1015.58 -0.967591 -1.66299 0
M  V30 10878 O 1014.87 0.00774571 -1.91598 0
M  V30 10879 C 1015.06 -3.37316 -1.18123 0
M  V30 10880 C 1014.89 -4.49443 -0.152145 0
M  V30 10881 C 1013.66 -5.04586 0.268496 0
M  V30 10882 C 1015.86 -5.10592 0.616502 0
M  V30 10883 N 1013.84 -6.00264 1.28671 0
M  V30 10884 C 1015.21 -6.0191 1.48677 0
M  V30 10885 C 1017.27 -4.93359 0.67092 0
M  V30 10886 C 1015.97 -6.77844 2.40664 0
M  V30 10887 C 1018 -5.69949 1.57837 0
M  V30 10888 C 1017.36 -6.60927 2.43628 0
M  V30 10889 H 1013.46 -0.760898 -0.180439 0
M  V30 10890 H 1016.04 -1.93978 0.167548 0
M  V30 10891 H 1014.21 -3.39194 -1.89214 0
M  V30 10892 H 1015.95 -3.62301 -1.80332 0
M  V30 10893 H 1012.7 -4.73454 -0.117625 0
M  V30 10894 H 1013.13 -6.52804 1.79377 0
M  V30 10895 H 1017.77 -4.22794 0.0218207 0
M  V30 10896 H 1015.49 -7.47677 3.06603 0
M  V30 10897 H 1019.07 -5.58631 1.6255 0
M  V30 10898 H 1017.95 -7.19156 3.12705 0
M  V30 10899 N 1015.45 0.186762 -1.56489 0
M  V30 10900 C 1016.42 1.21511 -1.94339 0
M  V30 10901 C 1017.42 1.38001 -0.82537 0
M  V30 10902 O 1018.61 1.3567 -1.09266 0
M  V30 10903 C 1015.74 2.583 -2.22472 0
M  V30 10904 H 1016.93 0.891371 -2.86347 0
M  V30 10905 H 1014.49 0.428612 -1.50308 0
M  V30 10906 H 1015.22 2.95715 -1.33129 0
M  V30 10907 H 1015.01 2.47701 -3.03951 0
M  V30 10908 H 1016.5 3.32441 -2.5273 0
M  V30 10909 N 1016.93 1.50896 0.454776 0
M  V30 10910 C 1018.18 1.61936 1.20248 0
M  V30 10911 C 1018.49 0.332983 1.92745 0
M  V30 10912 O 1019.7 0.322512 2.69578 0
M  V30 10913 C 1018.16 2.85916 2.18587 0
M  V30 10914 C 1017.76 4.21492 1.51818 0
M  V30 10915 C 1019.51 3.06307 2.93898 0
M  V30 10916 C 1017.42 5.3664 2.48539 0
M  V30 10917 H 1016.35 0.603098 0.452536 0
M  V30 10918 H 1019 1.77345 0.471257 0
M  V30 10919 H 1017.38 2.64101 2.95071 0
M  V30 10920 H 1018.55 4.53623 0.810123 0
M  V30 10921 H 1016.87 4.06837 0.887265 0
M  V30 10922 H 1019.46 3.89507 3.66317 0
M  V30 10923 H 1019.81 2.18683 3.54236 0
M  V30 10924 H 1020.34 3.2838 2.24525 0
M  V30 10925 H 1017.08 6.26469 1.92916 0
M  V30 10926 H 1016.6 5.08907 3.17449 0
M  V30 10927 H 1018.28 5.67881 3.10033 0
M  V30 10928 N 1018.41 -0.709066 1.40748 0
M  V30 10929 C 1019.66 -1.47119 1.39585 0
M  V30 10930 C 1019.99 -1.942 0.000245323 0
M  V30 10931 O 1019.26 -1.68609 -0.969593 0
M  V30 10932 C 1019.55 -2.69266 2.39099 0
M  V30 10933 C 1019.4 -2.28037 3.8771 0
M  V30 10934 C 1020.72 -3.71438 2.36055 0
M  V30 10935 H 1017.84 -0.533632 0.508336 0
M  V30 10936 H 1020.48 -0.808718 1.7193 0
M  V30 10937 H 1018.63 -3.25788 2.11647 0
M  V30 10938 H 1020.3 -1.76946 4.26014 0
M  V30 10939 H 1018.55 -1.59966 4.03229 0
M  V30 10940 H 1019.22 -3.15621 4.52866 0
M  V30 10941 H 1021.69 -3.24559 2.60385 0
M  V30 10942 H 1020.57 -4.54532 3.07721 0
M  V30 10943 H 1020.83 -4.20193 1.37443 0
M  V30 10944 N 1019.89 -1.26353 -0.941956 0
M  V30 10945 C 1020.85 -1.07904 -2.02211 0
M  V30 10946 C 1021.85 -0.0276283 -1.60776 0
M  V30 10947 O 1023.04 -0.270965 -1.7208 0
M  V30 10948 C 1020.17 -0.641084 -3.34818 0
M  V30 10949 H 1021.37 -2.03804 -2.20009 0
M  V30 10950 H 1018.92 -1.08939 -1.12081 0
M  V30 10951 H 1019.66 0.319943 -3.22718 0
M  V30 10952 H 1019.44 -1.40027 -3.66244 0
M  V30 10953 H 1020.93 -0.533826 -4.14174 0
M  V30 10954 N 1021.37 1.14642 -1.08144 0
M  V30 10955 C 1022.78 1.6719 -0.830923 0
M  V30 10956 C 1023.13 1.85373 0.642749 0
M  V30 10957 O 1022.25 1.56293 1.49671 0
M  V30 10958 C 1022.85 3.03697 -1.50179 0
M  V30 10959 C 1021.41 3.5329 -1.29858 0
M  V30 10960 C 1020.56 2.28828 -1.5663 0
M  V30 10961 H 1023.51 0.987441 -1.24239 0
M  V30 10962 H 1023.53 3.69023 -0.9275 0
M  V30 10963 H 1023.04 2.90431 -2.57432 0
M  V30 10964 H 1021.14 3.71783 -0.246626 0
M  V30 10965 H 1021.25 4.34231 -2.02436 0
M  V30 10966 H 1019.62 2.34769 -0.987716 0
M  V30 10967 H 1020.4 2.18141 -2.65084 0
M  V30 10968 N 1022.85 0.866709 1.31628 0
M  V30 10969 C 1023.76 0.323408 2.3236 0
M  V30 10970 C 1024.77 -0.564995 1.64572 0
M  V30 10971 O 1025.95 -0.462489 1.96018 0
M  V30 10972 C 1023.01 -0.469045 3.43513 0
M  V30 10973 C 1022.07 0.446928 4.26967 0
M  V30 10974 C 1021.31 -0.307799 5.32812 0
M  V30 10975 O 1021.53 -1.5363 5.49321 0
M  V30 10976 O 1020.46 0.332653 6.0098 0
M  V30 10977 H 1024.29 1.15827 2.80745 0
M  V30 10978 H 1021.87 0.629987 1.35468 0
M  V30 10979 H 1023.76 -0.918405 4.1127 0
M  V30 10980 H 1022.43 -1.28051 2.97296 0
M  V30 10981 H 1021.34 0.944719 3.61975 0
M  V30 10982 H 1022.67 1.2239 4.76741 0
M  V30 10983 N 1024.32 -1.44642 0.625825 0
M  V30 10984 C 1025.57 -2.02393 0.128391 0
M  V30 10985 C 1025.9 -1.49075 -1.2446 0
M  V30 10986 O 1025.18 -0.672684 -1.82497 0
M  V30 10987 C 1025.46 -3.59934 0.109279 0
M  V30 10988 C 1025.31 -4.23546 1.51423 0
M  V30 10989 C 1026.63 -4.36406 -0.568985 0
M  V30 10990 H 1023.75 -0.735427 0.0481299 0
M  V30 10991 H 1026.39 -1.72277 0.801286 0
M  V30 10992 H 1024.54 -3.85722 -0.463726 0
M  V30 10993 H 1026.22 -4.08882 2.13572 0
M  V30 10994 H 1024.46 -3.81245 2.06966 0
M  V30 10995 H 1025.13 -5.32535 1.45294 0
M  V30 10996 H 1027.61 -4.1602 -0.0817516 0
M  V30 10997 H 1026.48 -5.46122 -0.551527 0
M  V30 10998 H 1026.74 -4.1062 -1.6384 0
M  V30 10999 N 1025.8 -0.366053 -1.5329 0
M  V30 11000 C 1026.73 0.47211 -2.28677 0
M  V30 11001 C 1027.71 1.08353 -1.31125 0
M  V30 11002 O 1028.9 1.10069 -1.59995 0
M  V30 11003 C 1026.03 1.61174 -3.07637 0
M  V30 11004 C 1024.98 1.12755 -4.12881 0
M  V30 11005 C 1024.31 2.35745 -4.79925 0
M  V30 11006 C 1025.61 0.211954 -5.2187 0
M  V30 11007 H 1027.3 -0.156838 -2.98989 0
M  V30 11008 H 1024.85 -0.0768709 -1.43795 0
M  V30 11009 H 1026.8 2.20473 -3.59123 0
M  V30 11010 H 1025.52 2.26793 -2.35016 0
M  V30 11011 H 1024.18 0.557234 -3.6234 0
M  V30 11012 H 1023.83 2.99821 -4.03877 0
M  V30 11013 H 1023.53 2.04019 -5.51044 0
M  V30 11014 H 1025.06 2.95729 -5.34207 0
M  V30 11015 H 1026.47 0.71244 -5.68856 0
M  V30 11016 H 1024.87 -0.0144501 -6.00098 0
M  V30 11017 H 1025.94 -0.745753 -4.79131 0
M  V30 11018 N 1027.28 1.57312 -0.0952337 0
M  V30 11019 C 1028.69 1.81589 0.433875 0
M  V30 11020 C 1029.04 1.01086 1.68155 0
M  V30 11021 O 1028.17 0.240272 2.15062 0
M  V30 11022 C 1028.76 3.29366 0.793931 0
M  V30 11023 C 1027.32 3.54407 1.26778 0
M  V30 11024 C 1026.47 2.76035 0.264518 0
M  V30 11025 H 1029.42 1.55426 -0.320675 0
M  V30 11026 H 1029.44 3.42697 1.65345 0
M  V30 11027 H 1028.95 3.87932 -0.114334 0
M  V30 11028 H 1027.05 3.01173 2.19376 0
M  V30 11029 H 1027.17 4.63055 1.22952 0
M  V30 11030 H 1025.53 2.43509 0.746691 0
M  V30 11031 H 1026.31 3.37349 -0.636429 0
M  V30 11032 N 1028.76 -0.17846 1.56586 0
M  V30 11033 C 1030.17 -0.741599 1.71339 0
M  V30 11034 C 1030.52 -1.83112 0.704579 0
M  V30 11035 O 1029.64 -2.15975 -0.135557 0
M  V30 11036 C 1030.24 -1.35198 3.10656 0
M  V30 11037 C 1028.8 -1.86202 3.27118 0
M  V30 11038 C 1027.95 -0.738255 2.67292 0
M  V30 11039 H 1030.9 0.0468424 1.58631 0
M  V30 11040 H 1030.92 -2.2216 3.0891 0
M  V30 11041 H 1030.43 -0.558776 3.84056 0
M  V30 11042 H 1028.53 -2.68188 2.58661 0
M  V30 11043 H 1028.64 -2.01237 4.34788 0
M  V30 11044 H 1027.01 -1.15686 2.26912 0
M  V30 11045 H 1027.79 0.0429821 3.43273 0
M  V30 11046 N 1030.24 -1.51135 -0.446768 0
M  V30 11047 C 1031.17 -1.74709 -1.54916 0
M  V30 11048 C 1032.15 -0.596628 -1.59293 0
M  V30 11049 O 1033.33 -0.838356 -1.75172 0
M  V30 11050 C 1030.46 -1.86353 -2.9307 0
M  V30 11051 C 1029.42 -3.01725 -3.03556 0
M  V30 11052 C 1028.74 -2.9854 -4.43597 0
M  V30 11053 C 1030.04 -4.41848 -2.7851 0
M  V30 11054 H 1031.74 -2.67014 -1.3544 0
M  V30 11055 H 1029.28 -1.28489 -0.650131 0
M  V30 11056 H 1031.23 -2.01428 -3.70141 0
M  V30 11057 H 1029.96 -0.906887 -3.13756 0
M  V30 11058 H 1028.62 -2.86339 -2.28922 0
M  V30 11059 H 1028.27 -2.00673 -4.61237 0
M  V30 11060 H 1027.97 -3.76008 -4.51544 0
M  V30 11061 H 1029.49 -3.15696 -5.22655 0
M  V30 11062 H 1030.9 -4.57633 -3.45319 0
M  V30 11063 H 1029.3 -5.2095 -2.97877 0
M  V30 11064 H 1030.37 -4.52536 -1.74182 0
M  V30 11065 N 1031.71 0.701592 -1.41122 0
M  V30 11066 C 1033.12 1.28129 -1.35793 0
M  V30 11067 C 1033.48 1.96163 -0.0381185 0
M  V30 11068 O 1032.6 1.98416 0.863723 0
M  V30 11069 C 1033.2 2.33005 -2.45955 0
M  V30 11070 C 1031.75 2.86566 -2.44043 0
M  V30 11071 C 1030.9 1.60526 -2.26112 0
M  V30 11072 H 1033.85 0.496756 -1.50725 0
M  V30 11073 H 1033.87 3.14163 -2.14667 0
M  V30 11074 H 1033.39 1.8346 -3.42 0
M  V30 11075 H 1031.49 3.40304 -1.51737 0
M  V30 11076 H 1031.6 3.37406 -3.40138 0
M  V30 11077 H 1029.96 1.86113 -1.7388 0
M  V30 11078 H 1030.75 1.12985 -3.24175 0
M  V30 11079 N 1033.19 1.2685 0.935242 0
M  V30 11080 C 1034.14 1.08923 2.03481 0
M  V30 11081 C 1035.11 -0.00749786 1.66098 0
M  V30 11082 O 1036.29 0.153401 1.90182 0
M  V30 11083 C 1033.43 0.734529 3.37192 0
M  V30 11084 C 1032.55 1.90812 3.87576 0
M  V30 11085 C 1031.68 1.49599 5.097 0
M  V30 11086 C 1030.72 2.63752 5.5236 0
M  V30 11087 N 1029.86 2.23179 6.65684 0
M  V30 11088 H 1034.7 2.03016 2.18148 0
M  V30 11089 H 1032.23 1.01072 1.06878 0
M  V30 11090 H 1034.19 0.509734 4.14074 0
M  V30 11091 H 1032.82 -0.169438 3.22355 0
M  V30 11092 H 1031.87 2.24567 3.0704 0
M  V30 11093 H 1033.19 2.7647 4.1517 0
M  V30 11094 H 1032.34 1.23199 5.9406 0
M  V30 11095 H 1031.08 0.61039 4.83865 0
M  V30 11096 H 1030.08 2.90874 4.66554 0
M  V30 11097 H 1031.31 3.5292 5.80193 0
M  V30 11098 H 1029.26 1.37061 6.41522 0
M  V30 11099 H 1029.17 3.02379 6.92895 0
M  V30 11100 H 1030.44 2.00007 7.53404 0
M  V30 11101 N 1034.67 -1.14067 1.0875 0
M  V30 11102 C 1035.58 -2.22871 0.732498 0
M  V30 11103 C 1036.6 -1.72008 -0.26253 0
M  V30 11104 O 1037.77 -2.01123 -0.105601 0
M  V30 11105 C 1034.84 -3.46371 0.150913 0
M  V30 11106 C 1033.9 -4.12158 1.201 0
M  V30 11107 C 1033.13 -5.29763 0.647075 0
M  V30 11108 O 1033.35 -5.67911 -0.532307 0
M  V30 11109 O 1032.29 -5.8542 1.3988 0
M  V30 11110 H 1036.11 -2.55596 1.64025 0
M  V30 11111 H 1033.7 -1.22065 0.861417 0
M  V30 11112 H 1035.58 -4.21055 -0.170442 0
M  V30 11113 H 1034.26 -3.15362 -0.729948 0
M  V30 11114 H 1033.16 -3.39332 1.57494 0
M  V30 11115 H 1034.5 -4.47282 2.05426 0
M  V30 11116 N 1036.15 -0.873678 -1.31166 0
M  V30 11117 C 1037.37 -0.500242 -2.01277 0
M  V30 11118 C 1037.8 0.900811 -1.65127 0
M  V30 11119 O 1037.16 1.59504 -0.861862 0
M  V30 11120 C 1037.2 -0.668976 -3.5434 0
M  V30 11121 O 1036.31 0.290096 -4.11378 0
M  V30 11122 H 1035.65 -0.198507 -0.633633 0
M  V30 11123 H 1038.18 -1.17811 -1.67277 0
M  V30 11124 H 1038.19 -0.563673 -4.04088 0
M  V30 11125 H 1036.86 -1.69055 -3.79991 0
M  V30 11126 H 1035.44 0.139437 -3.72639 0
M  V30 11127 N 1037.63 1.44308 -0.633487 0
M  V30 11128 C 1039.04 1.56768 -0.29931 0
M  V30 11129 C 1039.24 1.62061 1.19743 0
M  V30 11130 O 1038.3 1.56492 1.98158 0
M  V30 11131 C 1039.61 2.8382 -0.993307 0
M  V30 11132 C 1041.16 2.97536 -0.971674 0
M  V30 11133 C 1041.63 4.27393 -1.64618 0
M  V30 11134 N 1043.13 4.34212 -1.61288 0
M  V30 11135 C 1043.86 5.33415 -2.1037 0
M  V30 11136 N 1043.36 6.3901 -2.67653 0
M  V30 11137 N 1045.15 5.24939 -2.00985 0
M  V30 11138 H 1037.3 1.39115 -1.60501 0
M  V30 11139 H 1039.56 0.666804 -0.673852 0
M  V30 11140 H 1039.27 2.85902 -2.04823 0
M  V30 11141 H 1039.14 3.73422 -0.532537 0
M  V30 11142 H 1041.53 2.95005 0.0747854 0
M  V30 11143 H 1041.61 2.09276 -1.47096 0
M  V30 11144 H 1041.26 4.30683 -2.6921 0
M  V30 11145 H 1041.19 5.14515 -1.12171 0
M  V30 11146 H 1043.68 3.58519 -1.19468 0
M  V30 11147 H 1043.99 7.10994 -3.02831 0
M  V30 11148 H 1042.33 6.39689 -2.71705 0
M  V30 11149 H 1045.53 4.41357 -1.55953 0
M  V30 11150 H 1045.7 6.02097 -2.39547 0
M  V30 11151 N 1039.1 0.374177 1.53094 0
M  V30 11152 C 1040.35 -0.213981 2.00562 0
M  V30 11153 C 1040.67 -1.4916 1.26533 0
M  V30 11154 O 1041.87 -2.15889 1.64634 0
M  V30 11155 C 1040.33 -0.431876 3.57299 0
M  V30 11156 C 1039.94 0.831615 4.40214 0
M  V30 11157 C 1041.68 -0.977222 4.13099 0
M  V30 11158 C 1039.59 0.582831 5.88521 0
M  V30 11159 H 1038.52 -0.0837386 0.749336 0
M  V30 11160 H 1041.17 0.494245 1.76719 0
M  V30 11161 H 1039.55 -1.20158 3.7733 0
M  V30 11162 H 1040.72 1.60477 4.31953 0
M  V30 11163 H 1039.04 1.30081 3.9556 0
M  V30 11164 H 1041.64 -1.17881 5.21544 0
M  V30 11165 H 1041.98 -1.94189 3.68234 0
M  V30 11166 H 1042.51 -0.267473 3.969 0
M  V30 11167 H 1039.25 1.51807 6.37679 0
M  V30 11168 H 1038.77 -0.151666 5.99608 0
M  V30 11169 H 1040.45 0.211604 6.46654 0
M  V30 11170 N 1040.58 -1.57259 0.103575 0
M  V30 11171 C 1041.81 -1.99424 -0.569638 0
M  V30 11172 C 1042.23 -0.982475 -1.60403 0
M  V30 11173 O 1041.59 0.0479231 -1.81237 0
M  V30 11174 C 1041.64 -3.40527 -1.18633 0
M  V30 11175 O 1040.74 -3.42167 -2.30208 0
M  V30 11176 H 1040.08 -0.648251 -0.143759 0
M  V30 11177 H 1042.61 -2.03739 0.187493 0
M  V30 11178 H 1042.62 -3.78404 -1.5256 0
M  V30 11179 H 1041.3 -4.13686 -0.428582 0
M  V30 11180 H 1039.88 -3.16093 -1.97837 0
M  V30 11181 N 1042.06 0.170153 -1.56679 0
M  V30 11182 C 1042.97 1.23057 -1.99735 0
M  V30 11183 C 1043.99 1.48374 -0.908912 0
M  V30 11184 O 1045.16 1.60499 -1.21663 0
M  V30 11185 C 1042.23 2.54944 -2.34956 0
M  V30 11186 C 1041.29 2.3748 -3.57634 0
M  V30 11187 C 1040.52 3.63078 -3.91165 0
M  V30 11188 O 1040.74 4.68304 -3.2565 0
M  V30 11189 O 1039.68 3.57119 -4.8451 0
M  V30 11190 H 1043.5 0.895104 -2.9021 0
M  V30 11191 H 1041.09 0.377109 -1.44562 0
M  V30 11192 H 1042.97 3.32742 -2.58574 0
M  V30 11193 H 1041.65 2.88068 -1.47643 0
M  V30 11194 H 1040.55 1.57709 -3.39232 0
M  V30 11195 H 1041.89 2.0928 -4.45491 0
M  V30 11196 N 1043.54 1.5137 0.438746 0
M  V30 11197 C 1044.79 1.63645 1.18595 0
M  V30 11198 C 1045.11 0.354241 1.91755 0
M  V30 11199 O 1044.38 -0.629838 1.85499 0
M  V30 11200 H 1042.96 0.603103 0.440767 0
M  V30 11201 H 1045.62 1.88293 0.503159 0
M  V30 11202 H 1044.72 2.46342 1.9163 0
M  V30 11203 N 1045.02 -0.694098 1.41492 0
M  V30 11204 C 1045.93 -1.83778 1.45818 0
M  V30 11205 C 1046.94 -1.70471 0.348639 0
M  V30 11206 O 1048.12 -1.92361 0.596588 0
M  V30 11207 C 1045.18 -3.19771 1.33967 0
M  V30 11208 C 1044.24 -3.45175 2.5525 0
M  V30 11209 C 1043.48 -4.74681 2.43955 0
M  V30 11210 O 1043.7 -5.51268 1.46491 0
M  V30 11211 O 1042.63 -5.00901 3.33739 0
M  V30 11212 H 1046.46 -1.83084 2.42309 0
M  V30 11213 H 1044.05 -0.847349 1.23046 0
M  V30 11214 H 1045.93 -4.00961 1.29648 0
M  V30 11215 H 1044.6 -3.21145 0.405926 0
M  V30 11216 H 1043.51 -2.6391 2.65146 0
M  V30 11217 H 1044.84 -3.48617 3.47458 0
M  V30 11218 N 1046.49 -1.27344 -0.928501 0
M  V30 11219 C 1047.46 -1.10043 -2.01055 0
M  V30 11220 C 1048.46 -0.0446793 -1.60738 0
M  V30 11221 O 1049.65 -0.289202 -1.71783 0
M  V30 11222 C 1046.78 -0.676559 -3.34119 0
M  V30 11223 H 1047.97 -2.06126 -2.17835 0
M  V30 11224 H 1045.53 -1.10121 -1.10919 0
M  V30 11225 H 1046.26 0.285697 -3.23039 0
M  V30 11226 H 1046.05 -1.43903 -3.64739 0
M  V30 11227 H 1047.54 -0.577725 -4.13584 0
M  V30 11228 N 1047.97 1.13488 -1.09353 0
M  V30 11229 C 1049.22 1.85022 -0.830354 0
M  V30 11230 C 1049.55 1.83266 0.64242 0
M  V30 11231 O 1048.83 1.27024 1.47293 0
M  V30 11232 C 1049.11 3.33218 -1.36521 0
M  V30 11233 C 1048.96 3.43491 -2.90404 0
M  V30 11234 C 1050.28 4.28626 -0.998381 0
M  V30 11235 H 1047.4 0.671786 -0.303105 0
M  V30 11236 H 1050.04 1.33211 -1.3548 0
M  V30 11237 H 1048.19 3.77471 -0.919117 0
M  V30 11238 H 1049.86 3.07954 -3.43456 0
M  V30 11239 H 1048.11 2.84391 -3.27573 0
M  V30 11240 H 1048.78 4.47702 -3.22905 0
M  V30 11241 H 1051.25 3.9244 -1.38311 0
M  V30 11242 H 1050.13 5.30754 -1.39968 0
M  V30 11243 H 1050.39 4.42001 0.093517 0
M  V30 11244 N 1049.45 0.880621 1.30701 0
M  V30 11245 C 1050.7 0.497611 1.966 0
M  V30 11246 C 1051.03 -0.949901 1.69383 0
M  V30 11247 O 1050.31 -1.67054 0.996152 0
M  V30 11248 C 1050.59 0.767919 3.51817 0
M  V30 11249 C 1050.44 2.26574 3.88567 0
M  V30 11250 C 1051.76 0.241502 4.39437 0
M  V30 11251 H 1048.88 0.182267 0.714106 0
M  V30 11252 H 1051.52 1.10382 1.54648 0
M  V30 11253 H 1049.67 0.251967 3.87682 0
M  V30 11254 H 1051.34 2.84977 3.62748 0
M  V30 11255 H 1049.59 2.73411 3.36792 0
M  V30 11256 H 1050.26 2.40549 4.9683 0
M  V30 11257 H 1052.73 0.683051 4.10455 0
M  V30 11258 H 1051.61 0.459997 5.46969 0
M  V30 11259 H 1051.87 -0.857068 4.33713 0
M  V30 11260 N 1050.93 -1.4397 0.641131 0
M  V30 11261 C 1052.18 -2.02246 0.14985 0
M  V30 11262 C 1052.51 -1.50387 -1.22871 0
M  V30 11263 O 1051.78 -0.692003 -1.81773 0
M  V30 11264 C 1052.07 -3.59798 0.147449 0
M  V30 11265 C 1051.92 -4.21916 1.55907 0
M  V30 11266 C 1053.24 -4.36985 -0.522667 0
M  V30 11267 H 1050.36 -0.734875 0.0559274 0
M  V30 11268 H 1053 -1.71418 0.819513 0
M  V30 11269 H 1051.15 -3.86193 -0.422789 0
M  V30 11270 H 1052.82 -4.06594 2.17896 0
M  V30 11271 H 1051.06 -3.79028 2.10998 0
M  V30 11272 H 1051.74 -5.30964 1.50934 0
M  V30 11273 H 1054.21 -4.16083 -0.0376226 0
M  V30 11274 H 1053.09 -5.46676 -0.493572 0
M  V30 11275 H 1053.35 -4.12335 -1.59475 0
M  V30 11276 N 1052.41 -0.382291 -1.52893 0
M  V30 11277 C 1053.66 0.201734 -2.01091 0
M  V30 11278 C 1053.98 1.47905 -1.2708 0
M  V30 11279 O 1053.25 1.92002 -0.38883 0
M  V30 11280 H 1051.83 0.0775373 -0.742965 0
M  V30 11281 H 1054.49 -0.512369 -1.88045 0
M  V30 11282 H 1053.58 0.416919 -3.09303 0
M  V30 11283 N 1053.89 1.57202 -0.111913 0
M  V30 11284 C 1054.82 2.10634 0.877983 0
M  V30 11285 C 1055.8 1.02098 1.26549 0
M  V30 11286 O 1056.98 1.29707 1.36779 0
M  V30 11287 C 1054.11 2.59721 2.174 0
M  V30 11288 C 1053.15 3.80074 1.93509 0
M  V30 11289 S 1053.99 5.22834 1.1578 0
M  V30 11290 C 1055.14 5.75284 2.46576 0
M  V30 11291 H 1055.38 2.94268 0.423483 0
M  V30 11292 H 1052.91 1.54065 0.101721 0
M  V30 11293 H 1054.87 2.88657 2.91868 0
M  V30 11294 H 1053.53 1.76281 2.59969 0
M  V30 11295 H 1052.72 4.12545 2.89522 0
M  V30 11296 H 1052.32 3.51718 1.27164 0
M  V30 11297 H 1054.61 5.84576 3.42457 0
M  V30 11298 H 1055.56 6.73493 2.1866 0
M  V30 11299 H 1055.97 5.03308 2.55619 0
M  V30 11300 N 1055.36 -0.161842 1.56767 0
M  V30 11301 C 1056.3 -1.22927 1.9226 0
M  V30 11302 C 1057.27 -1.42309 0.786562 0
M  V30 11303 O 1058.46 -1.57163 1.04078 0
M  V30 11304 C 1055.59 -2.59069 2.18177 0
M  V30 11305 C 1054.63 -2.56368 3.40849 0
M  V30 11306 S 1055.46 -2.04518 4.94907 0
M  V30 11307 C 1056.62 -3.42418 5.23928 0
M  V30 11308 H 1056.85 -0.926377 2.82499 0
M  V30 11309 H 1054.39 -0.366822 1.49979 0
M  V30 11310 H 1056.34 -3.37421 2.33789 0
M  V30 11311 H 1055.01 -2.86554 1.28629 0
M  V30 11312 H 1054.2 -3.56551 3.56213 0
M  V30 11313 H 1053.8 -1.86116 3.24402 0
M  V30 11314 H 1056.09 -4.38461 5.16486 0
M  V30 11315 H 1057.04 -3.3192 6.25487 0
M  V30 11316 H 1057.44 -3.38868 4.51474 0
M  V30 11317 N 1056.84 -1.516 -0.430713 0
M  V30 11318 C 1058.12 -1.55142 -1.19123 0
M  V30 11319 C 1058.5 -0.319596 -2.08667 0
M  V30 11320 O 1057.85 0.694927 -2.17676 0
M  V30 11321 C 1058.06 -2.86891 -1.98732 0
M  V30 11322 C 1059.4 -3.39089 -2.55546 0
M  V30 11323 O 1060.43 -2.88486 -2.08936 0
M  V30 11324 O 1059.29 -4.27401 -3.40574 0
M  V30 11325 H 1056.38 -0.624019 -0.542705 0
M  V30 11326 H 1058.93 -1.63917 -0.439244 0
M  V30 11327 H 1057.7 -3.68002 -1.33005 0
M  V30 11328 H 1057.32 -2.81309 -2.80982 0
M  V30 11329 N 1058.32 0.686584 -1.41858 0
M  V30 11330 C 1059.6 1.44176 -1.32185 0
M  V30 11331 C 1059.98 2.11049 0.046362 0
M  V30 11332 O 1059.32 2.02365 1.06117 0
M  V30 11333 C 1059.53 2.45385 -2.48168 0
M  V30 11334 C 1060.88 3.10375 -2.89746 0
M  V30 11335 O 1061.91 2.55711 -2.47973 0
M  V30 11336 O 1060.77 4.09404 -3.62009 0
M  V30 11337 H 1057.86 0.642513 -0.520678 0
M  V30 11338 H 1060.41 0.716303 -1.53841 0
M  V30 11339 H 1059.18 1.94687 -3.3943 0
M  V30 11340 H 1058.8 3.25428 -2.28435 0
M  V30 11341 N 1059.8 1.27835 0.921735 0
M  V30 11342 C 1061.02 1.17465 1.70929 0
M  V30 11343 C 1061.45 -0.264171 1.86236 0
M  V30 11344 O 1060.81 -1.19124 1.36671 0
M  V30 11345 C 1060.85 1.8697 3.08342 0
M  V30 11346 O 1059.96 1.17173 3.95404 0
M  V30 11347 H 1059.3 0.408206 0.523702 0
M  V30 11348 H 1061.83 1.69013 1.15307 0
M  V30 11349 H 1061.84 1.94564 3.58621 0
M  V30 11350 H 1060.51 2.91633 2.96518 0
M  V30 11351 H 1059.09 1.17688 3.53842 0
M  V30 11352 N 1061.28 -1.12907 1.09954 0
M  V30 11353 C 1062.51 -1.87866 0.859656 0
M  V30 11354 C 1062.91 -1.79664 -0.593096 0
M  V30 11355 O 1062.26 -1.16499 -1.42034 0
M  V30 11356 C 1062.32 -3.38055 1.22308 0
M  V30 11357 C 1061.98 -3.70035 2.68185 0
M  V30 11358 C 1062.98 -3.68817 3.66428 0
M  V30 11359 C 1060.66 -3.99523 3.04444 0
M  V30 11360 C 1062.66 -3.96639 4.98955 0
M  V30 11361 C 1060.35 -4.27006 4.37161 0
M  V30 11362 C 1061.34 -4.25549 5.34225 0
M  V30 11363 O 1061.03 -4.52354 6.64553 0
M  V30 11364 H 1060.76 -0.601425 0.308649 0
M  V30 11365 H 1063.32 -1.43817 1.46649 0
M  V30 11366 H 1061.55 -3.82634 0.559322 0
M  V30 11367 H 1063.24 -3.94348 0.961479 0
M  V30 11368 H 1064 -3.46104 3.3976 0
M  V30 11369 H 1059.88 -3.99801 2.29521 0
M  V30 11370 H 1063.43 -3.95418 5.74709 0
M  V30 11371 H 1059.32 -4.49192 4.6357 0
M  V30 11372 H 1060.09 -4.69997 6.70108 0
M  V30 11373 N 1062.75 -0.88754 -1.30232 0
M  V30 11374 C 1063.68 -0.372481 -2.3051 0
M  V30 11375 C 1064.66 0.546037 -1.61098 0
M  V30 11376 O 1065.85 0.459345 -1.88689 0
M  V30 11377 C 1062.98 0.411605 -3.44852 0
M  V30 11378 C 1061.93 -0.415383 -4.2598 0
M  V30 11379 C 1061.26 0.495463 -5.324 0
M  V30 11380 C 1062.56 -1.65886 -4.95257 0
M  V30 11381 H 1064.25 -1.21045 -2.7384 0
M  V30 11382 H 1061.8 -0.583498 -1.31648 0
M  V30 11383 H 1063.75 0.782584 -4.1407 0
M  V30 11384 H 1062.48 1.28325 -3.00334 0
M  V30 11385 H 1061.14 -0.768534 -3.58454 0
M  V30 11386 H 1060.78 1.36489 -4.84128 0
M  V30 11387 H 1060.48 -0.0540885 -5.87575 0
M  V30 11388 H 1062.01 0.862901 -6.04472 0
M  V30 11389 H 1063.42 -1.35832 -5.56976 0
M  V30 11390 H 1061.82 -2.14881 -5.60309 0
M  V30 11391 H 1062.89 -2.40181 -4.21237 0
M  V30 11392 N 1064.23 1.43628 -0.648757 0
M  V30 11393 C 1065.17 2.28001 0.0952198 0
M  V30 11394 C 1066.14 1.39569 0.834225 0
M  V30 11395 O 1067.33 1.69011 0.834711 0
M  V30 11396 C 1064.45 3.18886 1.14145 0
M  V30 11397 C 1063.5 4.23547 0.500996 0
M  V30 11398 S 1064.33 5.30609 -0.722118 0
M  V30 11399 C 1065.49 6.25062 0.323687 0
M  V30 11400 H 1065.72 2.90752 -0.620511 0
M  V30 11401 H 1063.26 1.48073 -0.437457 0
M  V30 11402 H 1065.21 3.71795 1.74008 0
M  V30 11403 H 1063.87 2.55322 1.82947 0
M  V30 11404 H 1063.07 4.87224 1.28954 0
M  V30 11405 H 1062.67 3.73993 -0.0234176 0
M  V30 11406 H 1064.96 6.66946 1.19118 0
M  V30 11407 H 1065.9 7.07554 -0.277939 0
M  V30 11408 H 1066.31 5.60658 0.657493 0
M  V30 11409 N 1065.71 0.390394 1.52688 0
M  V30 11410 C 1066.94 -0.194013 2.06491 0
M  V30 11411 C 1067.36 -1.3965 1.26014 0
M  V30 11412 O 1066.72 -1.79038 0.285468 0
M  V30 11413 C 1066.77 -0.541306 3.56514 0
M  V30 11414 O 1065.87 -1.63509 3.78601 0
M  V30 11415 H 1065.21 -0.0223608 0.663623 0
M  V30 11416 H 1067.74 0.558179 1.96839 0
M  V30 11417 H 1067.75 -0.805301 3.99974 0
M  V30 11418 H 1066.43 0.337828 4.14526 0
M  V30 11419 H 1065 -1.36473 3.4703 0
M  V30 11420 N 1067.19 -1.57141 0.120249 0
M  V30 11421 C 1068.14 -2.15379 -0.829497 0
M  V30 11422 C 1069.11 -1.07913 -1.2627 0
M  V30 11423 O 1070.29 -1.35827 -1.33999 0
M  V30 11424 C 1067.43 -2.75847 -2.0737 0
M  V30 11425 C 1066.54 -3.97624 -1.68875 0
M  V30 11426 C 1065.68 -4.46175 -2.88272 0
M  V30 11427 C 1064.72 -5.60481 -2.46023 0
M  V30 11428 N 1063.85 -6.0377 -3.58337 0
M  V30 11429 H 1068.69 -2.96211 -0.326031 0
M  V30 11430 H 1066.23 -1.46341 -0.149235 0
M  V30 11431 H 1068.19 -3.09037 -2.80272 0
M  V30 11432 H 1066.82 -1.97703 -2.55174 0
M  V30 11433 H 1065.87 -3.70588 -0.858431 0
M  V30 11434 H 1067.18 -4.80512 -1.33827 0
M  V30 11435 H 1066.34 -4.8128 -3.69397 0
M  V30 11436 H 1065.08 -3.6224 -3.26548 0
M  V30 11437 H 1064.08 -5.24979 -1.63331 0
M  V30 11438 H 1065.31 -6.46184 -2.08863 0
M  V30 11439 H 1063.25 -5.22776 -3.96284 0
M  V30 11440 H 1063.17 -6.81517 -3.27217 0
M  V30 11441 H 1064.44 -6.43514 -4.39898 0
M  V30 11442 N 1068.67 0.153526 -1.5685 0
M  V30 11443 C 1070.08 0.714247 -1.72498 0
M  V30 11444 C 1070.43 1.81968 -0.733621 0
M  V30 11445 O 1069.55 2.16163 0.10118 0
M  V30 11446 C 1070.15 1.30238 -3.12767 0
M  V30 11447 C 1068.71 1.80974 -3.30038 0
M  V30 11448 C 1067.85 0.695638 -2.68433 0
M  V30 11449 H 1070.81 -0.0720733 -1.58536 0
M  V30 11450 H 1070.83 2.17217 -3.12405 0
M  V30 11451 H 1070.34 0.497605 -3.84897 0
M  V30 11452 H 1068.44 2.64039 -2.62895 0
M  V30 11453 H 1068.55 1.94294 -4.37934 0
M  V30 11454 H 1066.92 1.12061 -2.28723 0
M  V30 11455 H 1067.7 -0.0975885 -3.43161 0
M  V30 11456 N 1070.14 1.51827 0.422667 0
M  V30 11457 C 1071.39 1.6445 1.16786 0
M  V30 11458 C 1071.71 0.373792 1.91995 0
M  V30 11459 O 1072.91 0.379621 2.68833 0
M  V30 11460 C 1071.37 2.90488 2.12473 0
M  V30 11461 C 1070.98 4.24617 1.42844 0
M  V30 11462 C 1072.72 3.12472 2.87335 0
M  V30 11463 C 1070.63 5.41791 2.371 0
M  V30 11464 H 1069.56 0.612561 0.439641 0
M  V30 11465 H 1072.21 1.78305 0.433534 0
M  V30 11466 H 1070.59 2.703 2.89402 0
M  V30 11467 H 1071.76 4.55239 0.71372 0
M  V30 11468 H 1070.08 4.08628 0.800769 0
M  V30 11469 H 1072.68 3.9719 3.57973 0
M  V30 11470 H 1073.02 2.26148 3.49518 0
M  V30 11471 H 1073.55 3.33069 2.17509 0
M  V30 11472 H 1070.29 6.3042 1.79584 0
M  V30 11473 H 1069.81 5.15526 3.06583 0
M  V30 11474 H 1071.49 5.74329 2.97918 0
M  V30 11475 N 1071.62 -0.679052 1.4222 0
M  V30 11476 C 1072.53 -1.82221 1.47759 0
M  V30 11477 C 1073.55 -1.70092 0.3667 0
M  V30 11478 O 1074.72 -1.91718 0.616957 0
M  V30 11479 C 1071.79 -3.18332 1.37351 0
M  V30 11480 C 1070.85 -3.42449 2.58896 0
M  V30 11481 C 1070.08 -4.72067 2.48976 0
M  V30 11482 O 1070.31 -5.49683 1.5233 0
M  V30 11483 O 1069.24 -4.97333 3.39033 0
M  V30 11484 H 1073.07 -1.80504 2.44238 0
M  V30 11485 H 1070.65 -0.834251 1.23938 0
M  V30 11486 H 1072.53 -3.99563 1.33893 0
M  V30 11487 H 1071.21 -3.20696 0.439965 0
M  V30 11488 H 1070.12 -2.61083 2.6793 0
M  V30 11489 H 1071.45 -3.44912 3.51136 0
M  V30 11490 N 1073.1 -1.28322 -0.914942 0
M  V30 11491 C 1074.35 -1.14785 -1.65853 0
M  V30 11492 C 1074.66 0.303135 -1.93237 0
M  V30 11493 O 1075.87 0.559606 -2.6567 0
M  V30 11494 C 1074.32 -2.00652 -2.98776 0
M  V30 11495 C 1073.93 -3.50483 -2.79044 0
M  V30 11496 C 1075.68 -1.95798 -3.76648 0
M  V30 11497 C 1073.58 -4.28505 -4.076 0
M  V30 11498 H 1072.51 -0.425987 -0.622135 0
M  V30 11499 H 1075.16 -1.52844 -1.01543 0
M  V30 11500 H 1073.55 -1.55447 -3.64214 0
M  V30 11501 H 1074.72 -4.03636 -2.22293 0
M  V30 11502 H 1073.04 -3.5685 -2.14586 0
M  V30 11503 H 1075.63 -2.51359 -4.71935 0
M  V30 11504 H 1075.98 -0.934455 -4.05677 0
M  V30 11505 H 1076.51 -2.38965 -3.18026 0
M  V30 11506 H 1073.25 -5.31433 -3.83744 0
M  V30 11507 H 1072.77 -3.80125 -4.63966 0
M  V30 11508 H 1074.45 -4.3836 -4.75867 0
M  V30 11509 N 1074.58 1.12322 -1.10551 0
M  V30 11510 C 1075.51 2.20176 -0.777486 0
M  V30 11511 C 1076.49 1.68252 0.250069 0
M  V30 11512 O 1077.67 1.93856 0.115574 0
M  V30 11513 C 1074.8 3.46666 -0.209822 0
M  V30 11514 C 1073.76 4.11749 -1.1682 0
M  V30 11515 C 1073.08 5.32703 -0.461684 0
M  V30 11516 C 1074.38 4.57746 -2.51527 0
M  V30 11517 H 1076.08 2.47872 -1.67928 0
M  V30 11518 H 1073.62 1.19136 -0.808863 0
M  V30 11519 H 1075.58 4.21388 0.0318068 0
M  V30 11520 H 1074.3 3.18401 0.727226 0
M  V30 11521 H 1072.96 3.39009 -1.3953 0
M  V30 11522 H 1072.61 5.00706 0.479875 0
M  V30 11523 H 1072.31 5.77197 -1.1008 0
M  V30 11524 H 1073.83 6.10172 -0.228629 0
M  V30 11525 H 1075.25 5.23835 -2.32958 0
M  V30 11526 H 1073.64 5.13021 -3.11335 0
M  V30 11527 H 1074.71 3.71667 -3.11435 0
M  V30 11528 N 1076.06 0.894434 1.2976 0
M  V30 11529 C 1077.33 0.437365 1.90648 0
M  V30 11530 C 1077.71 -1.08261 1.81226 0
M  V30 11531 O 1077.06 -1.92213 1.23557 0
M  V30 11532 C 1077.27 0.946047 3.35933 0
M  V30 11533 C 1078.62 0.986621 4.12978 0
M  V30 11534 O 1079.64 0.893356 3.44815 0
M  V30 11535 O 1078.5 1.12591 5.34776 0
M  V30 11536 H 1075.6 0.135436 0.815835 0
M  V30 11537 H 1078.14 0.983955 1.38262 0
M  V30 11538 H 1076.91 1.98998 3.3692 0
M  V30 11539 H 1076.54 0.379164 3.95788 0
M  V30 11540 N 1077.53 -1.43282 0.656365 0
M  V30 11541 C 1078.44 -2.34576 -0.033864 0
M  V30 11542 C 1079.46 -1.5406 -0.808793 0
M  V30 11543 O 1080.64 -1.867 -0.755322 0
M  V30 11544 C 1077.7 -3.32378 -0.986197 0
M  V30 11545 C 1076.76 -4.28797 -0.207851 0
M  V30 11546 C 1076 -5.21927 -1.11482 0
M  V30 11547 O 1076.22 -5.19554 -2.35414 0
M  V30 11548 O 1075.15 -5.99045 -0.585536 0
M  V30 11549 H 1078.98 -2.95099 0.717668 0
M  V30 11550 H 1076.56 -1.43475 0.416556 0
M  V30 11551 H 1078.45 -3.9251 -1.53341 0
M  V30 11552 H 1077.12 -2.74354 -1.7179 0
M  V30 11553 H 1076.03 -3.72134 0.383022 0
M  V30 11554 H 1077.36 -4.89811 0.48435 0
M  V30 11555 N 1079.01 -0.398486 -1.52479 0
M  V30 11556 C 1079.92 0.439328 -2.3045 0
M  V30 11557 C 1080.94 1.06322 -1.37738 0
M  V30 11558 O 1082.12 1.06704 -1.7081 0
M  V30 11559 C 1079.18 1.54655 -3.10294 0
M  V30 11560 C 1078.24 0.946824 -4.18729 0
M  V30 11561 C 1077.47 2.00129 -4.94757 0
M  V30 11562 O 1077.7 3.2178 -4.70971 0
M  V30 11563 O 1076.63 1.61345 -5.79872 0
M  V30 11564 H 1080.46 -0.196118 -3.03066 0
M  V30 11565 H 1078.04 -0.161961 -1.4852 0
M  V30 11566 H 1079.92 2.18958 -3.60049 0
M  V30 11567 H 1078.6 2.1668 -2.40482 0
M  V30 11568 H 1077.51 0.266802 -3.73147 0
M  V30 11569 H 1078.84 0.370664 -4.90802 0
M  V30 11570 N 1080.49 1.57075 -0.12858 0
M  V30 11571 C 1081.74 1.95134 0.526046 0
M  V30 11572 C 1082.06 1.01337 1.66601 0
M  V30 11573 O 1081.33 0.0714361 1.9577 0
M  V30 11574 H 1079.91 0.720468 0.19732 0
M  V30 11575 H 1082.57 1.93874 -0.199767 0
M  V30 11576 H 1081.67 2.98406 0.914332 0
M  V30 11577 N 1081.97 -0.145205 1.5693 0
M  V30 11578 C 1082.92 -1.19841 1.99351 0
M  V30 11579 C 1083.91 -1.44371 0.886197 0
M  V30 11580 O 1085.12 -1.44642 1.07138 0
M  V30 11581 H 1081.49 -0.403437 0.63462 0
M  V30 11582 H 1083.46 -0.813932 2.87085 0
M  V30 11583 C 1082.21 -2.52377 2.39167 0
M  V30 11584 H 1081.54 -2.34332 3.23927 0
M  V30 11585 H 1082.98 -3.24694 2.72671 0
M  V30 11586 C 1081.43 -3.1305 1.24503 0
M  V30 11587 O 1081.96 -3.97962 0.546739 0
M  V30 11588 N 1080.17 -2.72528 1.00882 0
M  V30 11589 H 1079.72 -2.03576 1.57843 0
M  V30 11590 H 1079.68 -3.13456 0.24351 0
M  V30 11591 N 1083.45 -1.52049 -0.414609 0
M  V30 11592 C 1084.69 -1.66084 -1.16379 0
M  V30 11593 C 1085.03 -0.386932 -1.90306 0
M  V30 11594 O 1084.3 0.614441 -1.8454 0
M  V30 11595 C 1084.58 -2.87927 -2.16264 0
M  V30 11596 C 1084.44 -4.25353 -1.46269 0
M  V30 11597 C 1085.76 -3.05289 -3.16996 0
M  V30 11598 H 1082.88 -0.604414 -0.421726 0
M  V30 11599 H 1085.52 -1.8459 -0.450177 0
M  V30 11600 H 1083.67 -2.7228 -2.77121 0
M  V30 11601 H 1085.34 -4.52717 -0.885743 0
M  V30 11602 H 1083.58 -4.27006 -0.76472 0
M  V30 11603 H 1084.25 -5.06644 -2.19126 0
M  V30 11604 H 1086.73 -3.19798 -2.66212 0
M  V30 11605 H 1085.61 -3.92065 -3.84156 0
M  V30 11606 H 1085.87 -2.1836 -3.84411 0
M  V30 11607 N 1084.93 0.6715 -1.42579 0
M  V30 11608 C 1085.87 1.78496 -1.46314 0
M  V30 11609 C 1086.84 1.63091 -0.314743 0
M  V30 11610 O 1088.03 1.83597 -0.519292 0
M  V30 11611 C 1085.17 3.16548 -1.37447 0
M  V30 11612 C 1084.28 3.43216 -2.62348 0
M  V30 11613 C 1083.42 4.71014 -2.456 0
M  V30 11614 C 1082.45 4.90728 -3.65859 0
M  V30 11615 N 1081.59 6.09769 -3.48032 0
M  V30 11616 H 1086.43 1.74638 -2.41466 0
M  V30 11617 H 1083.97 0.852491 -1.19879 0
M  V30 11618 H 1085.93 3.96329 -1.30303 0
M  V30 11619 H 1084.56 3.19522 -0.458891 0
M  V30 11620 H 1083.61 2.57664 -2.79846 0
M  V30 11621 H 1084.92 3.53675 -3.51732 0
M  V30 11622 H 1084.07 5.58892 -2.3606 0
M  V30 11623 H 1082.81 4.62843 -1.53712 0
M  V30 11624 H 1081.82 4.01291 -3.75827 0
M  V30 11625 H 1083.04 5.00741 -4.58732 0
M  V30 11626 H 1080.99 6.02765 -2.58864 0
M  V30 11627 H 1080.91 6.21104 -4.31005 0
M  V30 11628 H 1082.17 7.00317 -3.42311 0
M  V30 11629 N 1086.4 1.28806 0.908124 0
M  V30 11630 C 1087.37 1.13228 1.99279 0
M  V30 11631 C 1088.37 0.0702456 1.60646 0
M  V30 11632 O 1089.56 0.316494 1.71301 0
M  V30 11633 C 1086.69 0.729629 3.33 0
M  V30 11634 H 1087.88 2.09566 2.14528 0
M  V30 11635 H 1085.43 1.11872 1.09153 0
M  V30 11636 H 1086.17 -0.234268 3.23453 0
M  V30 11637 H 1085.95 1.49688 3.62403 0
M  V30 11638 H 1087.44 0.643449 4.12613 0
M  V30 11639 N 1087.88 -1.11734 1.11145 0
M  V30 11640 C 1089.11 -1.87215 0.880811 0
M  V30 11641 C 1089.52 -1.80016 -0.569195 0
M  V30 11642 O 1088.88 -1.17926 -1.39283 0
M  V30 11643 C 1088.93 -3.36146 1.32998 0
M  V30 11644 O 1088.65 -3.43187 2.72313 0
M  V30 11645 C 1090.15 -4.28542 1.1343 0
M  V30 11646 H 1087.37 -0.592123 0.315645 0
M  V30 11647 H 1089.92 -1.41335 1.478 0
M  V30 11648 H 1088.07 -3.79542 0.776308 0
M  V30 11649 H 1088.49 -4.359 2.91705 0
M  V30 11650 H 1089.96 -5.31295 1.49764 0
M  V30 11651 H 1090.44 -4.39138 0.0735859 0
M  V30 11652 H 1091.04 -3.90935 1.67481 0
M  V30 11653 N 1089.36 -0.901303 -1.29284 0
M  V30 11654 C 1090.61 -0.52401 -1.94774 0
M  V30 11655 C 1090.92 0.934645 -1.71825 0
M  V30 11656 O 1092.13 1.41953 -2.31434 0
M  V30 11657 C 1090.58 -0.886262 -3.48817 0
M  V30 11658 C 1090.19 -2.3638 -3.80564 0
M  V30 11659 C 1091.94 -0.578955 -4.20533 0
M  V30 11660 C 1089.84 -2.66682 -5.27858 0
M  V30 11661 H 1088.77 -0.192244 -0.72908 0
M  V30 11662 H 1091.42 -1.09852 -1.46986 0
M  V30 11663 H 1089.81 -0.240666 -3.95268 0
M  V30 11664 H 1090.98 -3.05508 -3.44966 0
M  V30 11665 H 1089.29 -2.64029 -3.2199 0
M  V30 11666 H 1091.89 -0.782185 -5.28948 0
M  V30 11667 H 1092.23 0.482605 -4.13493 0
M  V30 11668 H 1092.77 -1.18246 -3.79819 0
M  V30 11669 H 1089.51 -3.71643 -5.39965 0
M  V30 11670 H 1089.03 -2.02179 -5.64698 0
M  V30 11671 H 1090.71 -2.53033 -5.95469 0
M  V30 11672 N 1090.84 1.42931 -0.663954 0
M  V30 11673 C 1092.25 1.56098 -0.332496 0
M  V30 11674 C 1092.45 1.64564 1.16279 0
M  V30 11675 O 1091.51 1.6066 1.94794 0
M  V30 11676 C 1092.82 2.81649 -1.05329 0
M  V30 11677 C 1094.37 2.95408 -1.03457 0
M  V30 11678 C 1094.85 4.23805 -1.73647 0
M  V30 11679 N 1096.34 4.30693 -1.70462 0
M  V30 11680 C 1097.07 5.28833 -2.21637 0
M  V30 11681 N 1096.57 6.33189 -2.81147 0
M  V30 11682 N 1098.36 5.20558 -2.12075 0
M  V30 11683 H 1090.51 1.3568 -1.63416 0
M  V30 11684 H 1092.77 0.652361 -0.687844 0
M  V30 11685 H 1092.48 2.81494 -2.10842 0
M  V30 11686 H 1092.35 3.72208 -0.611626 0
M  V30 11687 H 1094.74 2.95097 0.0121936 0
M  V30 11688 H 1094.82 2.06109 -1.51502 0
M  V30 11689 H 1094.47 4.24876 -2.78285 0
M  V30 11690 H 1094.4 5.12019 -1.2306 0
M  V30 11691 H 1096.89 3.55904 -1.27046 0
M  V30 11692 H 1097.2 7.04411 -3.17844 0
M  V30 11693 H 1095.55 6.33781 -2.85212 0
M  V30 11694 H 1098.74 4.3795 -1.6528 0
M  V30 11695 H 1098.91 5.96881 -2.52264 0
M  V30 11696 N 1092.32 0.406567 1.52266 0
M  V30 11697 C 1093.28 -0.408251 2.25535 0
M  V30 11698 C 1094.28 -0.975795 1.27808 0
M  V30 11699 O 1095.47 -0.855077 1.5177 0
M  V30 11700 C 1092.6 -1.57443 3.02365 0
M  V30 11701 H 1093.79 0.233459 2.9899 0
M  V30 11702 H 1091.35 0.159032 1.55489 0
M  V30 11703 H 1092.08 -2.25308 2.33252 0
M  V30 11704 H 1091.87 -1.17399 3.74112 0
M  V30 11705 H 1093.36 -2.15088 3.57948 0
M  V30 11706 N 1093.79 -1.57004 0.136909 0
M  V30 11707 C 1095.04 -1.96087 -0.517477 0
M  V30 11708 C 1095.37 -1.0213 -1.65176 0
M  V30 11709 O 1094.65 -0.0617958 -1.94402 0
M  V30 11710 C 1094.93 -3.44958 -1.03323 0
M  V30 11711 C 1094.78 -4.49691 0.0988609 0
M  V30 11712 C 1096.1 -3.96091 -1.91832 0
M  V30 11713 H 1093.22 -0.712978 -0.186632 0
M  V30 11714 H 1095.86 -1.88767 0.216095 0
M  V30 11715 H 1094.01 -3.51327 -1.65836 0
M  V30 11716 H 1095.69 -4.55409 0.734847 0
M  V30 11717 H 1093.93 -4.271 0.75947 0
M  V30 11718 H 1094.6 -5.51165 -0.303554 0
M  V30 11719 H 1097.08 -3.92139 -1.39164 0
M  V30 11720 H 1095.95 -5.00742 -2.24831 0
M  V30 11721 H 1096.21 -3.37846 -2.85153 0
M  V30 11722 N 1095.27 0.136881 -1.57004 0
M  V30 11723 C 1096.52 0.844147 -1.85056 0
M  V30 11724 C 1096.87 1.78328 -0.722278 0
M  V30 11725 O 1096.17 1.89557 0.279059 0
M  V30 11726 C 1096.36 1.64711 -3.17183 0
M  V30 11727 C 1096.19 0.787229 -4.42756 0
M  V30 11728 C 1094.96 0.448938 -5.03302 0
M  V30 11729 C 1097.16 0.112947 -5.14176 0
M  V30 11730 N 1095.14 -0.423481 -6.12438 0
M  V30 11731 C 1096.51 -0.619195 -6.169 0
M  V30 11732 C 1098.57 0.0346687 -4.97888 0
M  V30 11733 C 1097.27 -1.42224 -7.05099 0
M  V30 11734 C 1099.29 -0.755143 -5.86559 0
M  V30 11735 C 1098.66 -1.47553 -6.88772 0
M  V30 11736 H 1094.76 0.286398 -0.727668 0
M  V30 11737 H 1097.34 0.108903 -1.94395 0
M  V30 11738 H 1095.51 2.35352 -3.08972 0
M  V30 11739 H 1097.24 2.29833 -3.33105 0
M  V30 11740 H 1094 0.787068 -4.67014 0
M  V30 11741 H 1094.42 -0.851013 -6.7163 0
M  V30 11742 H 1099.06 0.577271 -4.18841 0
M  V30 11743 H 1096.78 -1.97606 -7.83567 0
M  V30 11744 H 1100.37 -0.817835 -5.76023 0
M  V30 11745 H 1099.25 -2.07687 -7.56198 0
M  V30 11746 N 1096.75 1.52266 0.40654 0
M  V30 11747 C 1097.7 1.75794 1.4955 0
M  V30 11748 C 1098.67 0.600472 1.54866 0
M  V30 11749 O 1099.85 0.838305 1.71397 0
M  V30 11750 C 1096.99 1.91682 2.86971 0
M  V30 11751 C 1096.11 3.19337 2.90943 0
M  V30 11752 C 1095.24 3.25641 4.1968 0
M  V30 11753 C 1094.28 4.47488 4.17637 0
M  V30 11754 N 1093.42 4.51171 5.37949 0
M  V30 11755 H 1098.26 2.68733 1.28789 0
M  V30 11756 H 1095.79 1.33157 0.625102 0
M  V30 11757 H 1097.75 1.98877 3.66748 0
M  V30 11758 H 1096.38 1.02121 3.06221 0
M  V30 11759 H 1095.43 3.21301 2.03642 0
M  V30 11760 H 1096.75 4.09153 2.85299 0
M  V30 11761 H 1095.9 3.31922 5.07851 0
M  V30 11762 H 1094.64 2.33769 4.28023 0
M  V30 11763 H 1093.64 4.41351 3.27856 0
M  V30 11764 H 1094.87 5.40659 4.10932 0
M  V30 11765 H 1092.81 3.62182 5.46955 0
M  V30 11766 H 1092.73 5.34835 5.3431 0
M  V30 11767 H 1094 4.61685 6.28066 0
M  V30 11768 N 1098.23 -0.663929 1.42933 0
M  V30 11769 C 1099.51 -1.42054 1.34462 0
M  V30 11770 C 1099.89 -2.11096 -0.0127801 0
M  V30 11771 O 1099.23 -2.04027 -1.02884 0
M  V30 11772 C 1099.44 -2.41406 2.5204 0
M  V30 11773 C 1100.79 -3.05726 2.94647 0
M  V30 11774 O 1101.82 -2.51733 2.52009 0
M  V30 11775 O 1100.67 -4.03593 3.68477 0
M  V30 11776 H 1097.77 -0.634149 0.530834 0
M  V30 11777 H 1100.31 -0.691738 1.54962 0
M  V30 11778 H 1099.09 -1.89263 3.42484 0
M  V30 11779 H 1098.71 -3.21752 2.33584 0
M  V30 11780 N 1099.71 -1.29285 -0.901281 0
M  V30 11781 C 1100.93 -1.20169 -1.69039 0
M  V30 11782 C 1101.36 0.234509 -1.86632 0
M  V30 11783 O 1100.71 1.16935 -1.38549 0
M  V30 11784 C 1100.76 -1.91852 -3.05328 0
M  V30 11785 O 1099.87 -1.23448 -3.9349 0
M  V30 11786 H 1099.21 -0.416486 -0.517141 0
M  V30 11787 H 1101.74 -1.70826 -1.12603 0
M  V30 11788 H 1101.75 -2.00244 -3.5548 0
M  V30 11789 H 1100.42 -2.96313 -2.91841 0
M  V30 11790 H 1099 -1.23303 -3.51924 0
M  V30 11791 N 1101.18 1.11143 -1.11736 0
M  V30 11792 C 1102.41 1.86745 -0.890727 0
M  V30 11793 C 1102.83 1.80315 0.55964 0
M  V30 11794 O 1102.18 1.18663 1.38656 0
M  V30 11795 C 1102.24 3.35436 -1.34779 0
M  V30 11796 O 1101.96 3.41738 -2.74129 0
M  V30 11797 C 1103.46 4.27935 -1.15702 0
M  V30 11798 H 1100.68 0.59044 -0.318781 0
M  V30 11799 H 1103.22 1.40549 -1.48547 0
M  V30 11800 H 1101.38 3.79125 -0.796425 0
M  V30 11801 H 1101.79 4.34347 -2.94012 0
M  V30 11802 H 1103.26 5.30494 -1.52579 0
M  V30 11803 H 1103.74 4.39093 -0.0968735 0
M  V30 11804 H 1104.35 3.90042 -1.69551 0
M  V30 11805 N 1102.66 0.908147 1.28804 0
M  V30 11806 C 1103.91 0.534332 1.94494 0
M  V30 11807 C 1104.22 -0.92552 1.72318 0
M  V30 11808 O 1105.43 -1.40724 2.32183 0
M  V30 11809 C 1103.89 0.904748 3.48342 0
M  V30 11810 C 1103.49 2.38394 3.79305 0
M  V30 11811 C 1105.24 0.601249 4.2022 0
M  V30 11812 C 1103.15 2.69478 5.26437 0
M  V30 11813 H 1102.08 0.196107 0.728051 0
M  V30 11814 H 1104.73 1.1063 1.46401 0
M  V30 11815 H 1103.11 0.261624 3.95135 0
M  V30 11816 H 1104.28 3.07333 3.43341 0
M  V30 11817 H 1102.6 2.65733 3.20586 0
M  V30 11818 H 1105.19 0.810225 5.28526 0
M  V30 11819 H 1105.54 -0.460669 4.13743 0
M  V30 11820 H 1106.07 1.20259 3.79187 0
M  V30 11821 H 1102.81 3.74501 5.37986 0
M  V30 11822 H 1102.33 2.05171 5.63618 0
M  V30 11823 H 1104.01 2.56187 5.94119 0
M  V30 11824 N 1104.14 -1.42577 0.671525 0
M  V30 11825 C 1105.37 -2.05625 0.20044 0
M  V30 11826 C 1105.78 -1.50524 -1.14626 0
M  V30 11827 O 1105.12 -0.638468 -1.72248 0
M  V30 11828 C 1105.18 -3.59459 0.0545385 0
M  V30 11829 C 1104.85 -4.37236 1.32943 0
M  V30 11830 C 1105.84 -4.68104 2.26219 0
M  V30 11831 C 1103.53 -4.76932 1.57612 0
M  V30 11832 C 1105.52 -5.37599 3.42442 0
M  V30 11833 C 1103.21 -5.46167 2.74125 0
M  V30 11834 C 1104.21 -5.76425 3.66364 0
M  V30 11835 O 1103.9 -6.44242 4.8084 0
M  V30 11836 H 1103.63 -0.66918 0.0957843 0
M  V30 11837 H 1106.18 -1.83759 0.917701 0
M  V30 11838 H 1104.41 -3.79971 -0.718271 0
M  V30 11839 H 1106.1 -4.04152 -0.376251 0
M  V30 11840 H 1106.87 -4.37939 2.08409 0
M  V30 11841 H 1102.75 -4.52776 0.866887 0
M  V30 11842 H 1106.29 -5.61133 4.14458 0
M  V30 11843 H 1102.19 -5.75749 2.91861 0
M  V30 11844 H 1102.96 -6.62732 4.80342 0
M  V30 11845 N 1105.62 -0.414636 -1.52048 0
M  V30 11846 C 1106.87 0.16073 -2.01059 0
M  V30 11847 C 1107.18 1.45753 -1.30443 0
M  V30 11848 O 1108.39 2.11448 -1.703 0
M  V30 11849 C 1106.84 0.336993 -3.58319 0
M  V30 11850 C 1106.45 -0.948037 -4.37854 0
M  V30 11851 C 1108.19 0.867353 -4.15545 0
M  V30 11852 C 1106.1 -0.738662 -5.86769 0
M  V30 11853 H 1105.03 0.0638419 -0.751292 0
M  V30 11854 H 1107.68 -0.540925 -1.75346 0
M  V30 11855 H 1106.06 1.10111 -3.80383 0
M  V30 11856 H 1107.24 -1.71873 -4.27547 0
M  V30 11857 H 1105.55 -1.40522 -3.91972 0
M  V30 11858 H 1108.15 1.04012 -5.24486 0
M  V30 11859 H 1108.49 1.84358 -3.73253 0
M  V30 11860 H 1109.03 0.162148 -3.97469 0
M  V30 11861 H 1105.77 -1.6866 -6.3343 0
M  V30 11862 H 1105.29 -0.00736294 -5.998 0
M  V30 11863 H 1106.96 -0.382978 -6.45866 0
M  V30 11864 N 1107.1 1.56929 -0.145233 0
M  V30 11865 C 1108.33 2.00141 0.51257 0
M  V30 11866 C 1108.73 1.0243 1.59075 0
M  V30 11867 O 1108.08 0.0130063 1.83695 0
M  V30 11868 C 1108.14 3.39785 1.17417 0
M  V30 11869 C 1107.8 4.56365 0.240801 0
M  V30 11870 C 1108.8 5.17183 -0.530847 0
M  V30 11871 C 1106.49 5.02093 0.144221 0
M  V30 11872 C 1108.48 6.22136 -1.38654 0
M  V30 11873 C 1106.17 6.06902 -0.71508 0
M  V30 11874 C 1107.16 6.66793 -1.47907 0
M  V30 11875 O 1106.85 7.69573 -2.32405 0
M  V30 11876 H 1106.58 0.661747 0.138085 0
M  V30 11877 H 1109.14 2.04037 -0.236269 0
M  V30 11878 H 1107.37 3.32722 1.97061 0
M  V30 11879 H 1109.06 3.67115 1.73152 0
M  V30 11880 H 1109.82 4.82754 -0.466256 0
M  V30 11881 H 1105.7 4.55206 0.728613 0
M  V30 11882 H 1109.25 6.68812 -1.98333 0
M  V30 11883 H 1105.14 6.40758 -0.78097 0
M  V30 11884 H 1105.91 7.86786 -2.25634 0
M  V30 11885 N 1108.58 -0.128553 1.57075 0
M  V30 11886 C 1109.82 -0.836355 1.83982 0
M  V30 11887 C 1110.14 -1.80862 0.728971 0
M  V30 11888 O 1109.41 -1.94326 -0.247859 0
M  V30 11889 H 1107.99 -0.31185 0.678792 0
M  V30 11890 H 1110.66 -0.118153 1.94542 0
M  V30 11891 H 1109.75 -1.38741 2.79567 0
M  V30 11892 N 1110.05 -1.5248 -0.398459 0
M  V30 11893 C 1110.96 -1.79492 -1.51062 0
M  V30 11894 C 1111.98 -0.681101 -1.60116 0
M  V30 11895 O 1113.16 -0.967671 -1.7663 0
M  V30 11896 C 1110.22 -1.94958 -2.86692 0
M  V30 11897 C 1109.28 -3.1887 -2.87438 0
M  V30 11898 C 1108.51 -3.33588 -4.16599 0
M  V30 11899 O 1108.74 -2.53327 -5.11059 0
M  V30 11900 O 1107.67 -4.26795 -4.24416 0
M  V30 11901 H 1111.5 -2.73913 -1.31169 0
M  V30 11902 H 1109.08 -1.37455 -0.585372 0
M  V30 11903 H 1110.96 -2.06891 -3.67116 0
M  V30 11904 H 1109.64 -1.03726 -3.06631 0
M  V30 11905 H 1108.55 -3.12386 -2.0583 0
M  V30 11906 H 1109.88 -4.09917 -2.7245 0
M  V30 11907 N 1111.53 0.65634 -1.43283 0
M  V30 11908 C 1112.78 1.41837 -1.44949 0
M  V30 11909 C 1113.11 1.94065 -0.0723212 0
M  V30 11910 O 1112.39 1.72092 0.906346 0
M  V30 11911 C 1112.67 2.60206 -2.48927 0
M  V30 11912 C 1112.52 2.1349 -3.95907 0
M  V30 11913 C 1113.84 3.62421 -2.49678 0
M  V30 11914 H 1110.96 0.514398 -0.527792 0
M  V30 11915 H 1113.6 0.74435 -1.74813 0
M  V30 11916 H 1111.75 3.17708 -2.23592 0
M  V30 11917 H 1113.42 1.61012 -4.32288 0
M  V30 11918 H 1111.67 1.4489 -4.08888 0
M  V30 11919 H 1112.34 2.98596 -4.64268 0
M  V30 11920 H 1114.81 3.14671 -2.72252 0
M  V30 11921 H 1113.69 4.42798 -3.24378 0
M  V30 11922 H 1113.95 4.14802 -1.52944 0
M  V30 11923 N 1113.01 1.29761 0.894412 0
M  V30 11924 C 1113.94 1.1115 2.00445 0
M  V30 11925 C 1114.95 0.0574655 1.62699 0
M  V30 11926 O 1116.14 0.302528 1.75918 0
M  V30 11927 C 1113.24 0.670984 3.32191 0
M  V30 11928 C 1112.42 1.80471 3.98433 0
M  V30 11929 C 1111.48 1.35431 5.08473 0
M  V30 11930 O 1110.5 2.05994 5.30618 0
M  V30 11931 N 1111.7 0.22811 5.80052 0
M  V30 11932 H 1114.47 2.06753 2.16964 0
M  V30 11933 H 1112.03 1.21772 1.06692 0
M  V30 11934 H 1114.02 0.352877 4.03159 0
M  V30 11935 H 1112.59 -0.192735 3.12005 0
M  V30 11936 H 1111.81 2.29142 3.20761 0
M  V30 11937 H 1113.1 2.56471 4.39431 0
M  V30 11938 H 1112.5 -0.360076 5.64553 0
M  V30 11939 H 1111.05 -0.0305985 6.51793 0
M  V30 11940 N 1114.49 -1.10549 1.12324 0
M  V30 11941 C 1115.76 -1.78968 0.789287 0
M  V30 11942 C 1116.14 -1.984 -0.721156 0
M  V30 11943 O 1115.49 -1.5761 -1.65443 0
M  V30 11944 C 1115.7 -3.12044 1.563 0
M  V30 11945 C 1117.05 -3.86939 1.74825 0
M  V30 11946 O 1118.07 -3.21761 1.52802 0
M  V30 11947 O 1116.93 -5.0392 2.11488 0
M  V30 11948 H 1114.03 -0.775617 0.286962 0
M  V30 11949 H 1116.57 -1.17209 1.2272 0
M  V30 11950 H 1115.35 -2.93313 2.59005 0
M  V30 11951 H 1114.97 -3.81521 1.11926 0
M  V30 11952 N 1115.97 -0.914965 -1.28321 0
M  V30 11953 C 1116.91 -0.402792 -2.27258 0
M  V30 11954 C 1117.88 0.523412 -1.57638 0
M  V30 11955 O 1119.07 0.445344 -1.8553 0
M  V30 11956 C 1116.21 0.349956 -3.43321 0
M  V30 11957 C 1115.32 -0.608892 -4.27687 0
M  V30 11958 C 1114.46 0.162425 -5.30952 0
M  V30 11959 C 1113.49 -0.789959 -6.06981 0
M  V30 11960 N 1112.63 -0.0520826 -7.02081 0
M  V30 11961 H 1117.47 -1.25153 -2.70446 0
M  V30 11962 H 1115.01 -0.628444 -1.33 0
M  V30 11963 H 1116.97 0.802589 -4.09407 0
M  V30 11964 H 1115.6 1.16303 -3.01121 0
M  V30 11965 H 1114.65 -1.18005 -3.61634 0
M  V30 11966 H 1115.96 -1.33727 -4.8054 0
M  V30 11967 H 1115.11 0.675563 -6.02927 0
M  V30 11968 H 1113.85 0.923851 -4.7887 0
M  V30 11969 H 1112.86 -1.31446 -5.33856 0
M  V30 11970 H 1114.08 -1.55096 -6.61152 0
M  V30 11971 H 1112.03 0.691331 -6.52347 0
M  V30 11972 H 1111.95 -0.720267 -7.52561 0
M  V30 11973 H 1113.21 0.44082 -7.78253 0
M  V30 11974 N 1117.44 1.42219 -0.679077 0
M  V30 11975 C 1118.67 2.05815 -0.211649 0
M  V30 11976 C 1119.09 1.51037 1.13284 0
M  V30 11977 O 1118.44 0.651894 1.7046 0
M  V30 11978 C 1118.49 3.61218 -0.142663 0
M  V30 11979 O 1118.22 4.13965 -1.43402 0
M  V30 11980 C 1119.72 4.41934 0.347746 0
M  V30 11981 H 1116.94 0.663215 -0.101914 0
M  V30 11982 H 1119.48 1.82282 -0.927017 0
M  V30 11983 H 1117.64 3.83848 0.52342 0
M  V30 11984 H 1118.05 5.07872 -1.31021 0
M  V30 11985 H 1119.52 5.50921 0.344916 0
M  V30 11986 H 1120 4.16832 1.38377 0
M  V30 11987 H 1120.61 4.24332 -0.286751 0
M  V30 11988 N 1118.92 0.422693 1.51826 0
M  V30 11989 C 1119.87 -0.396088 2.27376 0
M  V30 11990 C 1120.84 -1.02946 1.30351 0
M  V30 11991 O 1122.02 -1.05116 1.59233 0
M  V30 11992 C 1119.16 -1.49942 3.10824 0
M  V30 11993 C 1118.28 -0.885623 4.22825 0
M  V30 11994 C 1117.41 -1.96278 4.93608 0
M  V30 11995 C 1116.45 -1.32664 5.97551 0
M  V30 11996 N 1115.59 -2.34452 6.61798 0
M  V30 11997 H 1120.43 0.254571 2.96911 0
M  V30 11998 H 1117.96 0.137383 1.46457 0
M  V30 11999 H 1119.92 -2.15023 3.57521 0
M  V30 12000 H 1118.55 -2.11991 2.43433 0
M  V30 12001 H 1117.6 -0.123491 3.80199 0
M  V30 12002 H 1118.92 -0.381057 4.97342 0
M  V30 12003 H 1118.07 -2.69055 5.43778 0
M  V30 12004 H 1116.81 -2.50103 4.18688 0
M  V30 12005 H 1115.81 -0.584262 5.46687 0
M  V30 12006 H 1117.04 -0.7959 6.7442 0
M  V30 12007 H 1114.99 -2.87385 5.897 0
M  V30 12008 H 1114.9 -1.88845 7.32034 0
M  V30 12009 H 1116.17 -3.06757 7.16603 0
M  V30 12010 N 1120.4 -1.5685 0.153553 0
M  V30 12011 C 1121.35 -2.1709 -0.783626 0
M  V30 12012 C 1122.32 -1.10567 -1.23952 0
M  V30 12013 O 1123.5 -1.38638 -1.31088 0
M  V30 12014 C 1120.64 -2.80183 -2.01473 0
M  V30 12015 C 1119.75 -4.01117 -1.60403 0
M  V30 12016 C 1118.89 -4.5219 -2.78743 0
M  V30 12017 C 1117.93 -5.65574 -2.34079 0
M  V30 12018 N 1117.07 -6.11235 -3.4545 0
M  V30 12019 H 1121.91 -2.96836 -0.263127 0
M  V30 12020 H 1119.44 -1.46625 -0.11816 0
M  V30 12021 H 1121.4 -3.14912 -2.73654 0
M  V30 12022 H 1120.03 -2.03071 -2.50923 0
M  V30 12023 H 1119.08 -3.72325 -0.779631 0
M  V30 12024 H 1120.39 -4.83243 -1.23605 0
M  V30 12025 H 1119.55 -4.89008 -3.59105 0
M  V30 12026 H 1118.29 -3.69085 -3.18791 0
M  V30 12027 H 1117.29 -5.28326 -1.52158 0
M  V30 12028 H 1118.52 -6.50468 -1.95109 0
M  V30 12029 H 1116.46 -5.31064 -3.85106 0
M  V30 12030 H 1116.38 -6.88304 -3.12687 0
M  V30 12031 H 1117.65 -6.527 -4.26149 0
M  V30 12032 N 1121.88 0.120221 -1.57141 0
M  V30 12033 C 1123.29 0.677497 -1.73974 0
M  V30 12034 C 1123.64 1.80371 -0.772055 0
M  V30 12035 O 1122.76 2.16329 0.0553062 0
M  V30 12036 C 1123.36 1.23575 -3.1546 0
M  V30 12037 C 1121.92 1.73933 -3.33803 0
M  V30 12038 C 1121.07 0.638542 -2.69848 0
M  V30 12039 H 1124.02 -0.105685 -1.58348 0
M  V30 12040 H 1124.04 2.10542 -3.16942 0
M  V30 12041 H 1123.55 0.415851 -3.85866 0
M  V30 12042 H 1121.65 2.58404 -2.68437 0
M  V30 12043 H 1121.76 1.84961 -4.41957 0
M  V30 12044 H 1120.13 1.07185 -2.31049 0
M  V30 12045 H 1120.91 -0.170356 -3.42877 0
M  V30 12046 N 1123.36 1.52689 0.390367 0
M  V30 12047 C 1124.32 1.76726 1.45947 0
M  V30 12048 C 1125.32 0.637269 1.47633 0
M  V30 12049 O 1126.51 0.905312 1.48828 0
M  V30 12050 C 1123.64 1.86678 2.85244 0
M  V30 12051 H 1124.83 2.72185 1.25918 0
M  V30 12052 H 1122.39 1.4339 0.622023 0
M  V30 12053 H 1123.12 0.931991 3.10619 0
M  V30 12054 H 1122.91 2.68843 2.85422 0
M  V30 12055 H 1124.4 2.06952 3.62713 0
M  V30 12056 N 1124.83 -0.648732 1.43629 0
M  V30 12057 C 1125.74 -1.79046 1.51591 0
M  V30 12058 C 1126.76 -1.69276 0.402697 0
M  V30 12059 O 1127.94 -1.90366 0.657484 0
M  V30 12060 C 1125 -3.15347 1.44073 0
M  V30 12061 C 1124.06 -3.3688 2.66102 0
M  V30 12062 C 1123.3 -4.66679 2.58933 0
M  V30 12063 O 1123.52 -5.46328 1.63956 0
M  V30 12064 O 1122.45 -4.9003 3.49506 0
M  V30 12065 H 1126.28 -1.75283 2.48011 0
M  V30 12066 H 1123.86 -0.807774 1.2568 0
M  V30 12067 H 1125.75 -3.96633 1.42339 0
M  V30 12068 H 1124.42 -3.19691 0.50789 0
M  V30 12069 H 1123.33 -2.55341 2.73407 0
M  V30 12070 H 1124.66 -3.37386 3.58373 0
M  V30 12071 N 1126.31 -1.30234 -0.887518 0
M  V30 12072 C 1127.59 -1.09572 -1.62029 0
M  V30 12073 C 1127.97 0.355877 -2.08079 0
M  V30 12074 O 1127.32 1.34692 -1.84582 0
M  V30 12075 C 1127.53 -2.0943 -2.79177 0
M  V30 12076 C 1128.88 -2.4101 -3.4957 0
M  V30 12077 O 1129.9 -2.0772 -2.89363 0
M  V30 12078 O 1128.76 -2.97943 -4.5814 0
M  V30 12079 H 1125.85 -0.420648 -0.712028 0
M  V30 12080 H 1128.4 -1.41651 -0.934517 0
M  V30 12081 H 1127.17 -3.07149 -2.42436 0
M  V30 12082 H 1126.79 -1.78154 -3.55453 0
M  V30 12083 N 1127.79 1.09952 -1.12909 0
M  V30 12084 C 1129.04 1.81657 -0.885729 0
M  V30 12085 C 1129.36 1.85863 0.589913 0
M  V30 12086 O 1128.63 1.34028 1.42875 0
M  V30 12087 H 1127.21 0.672743 -0.324694 0
M  V30 12088 H 1129.87 1.33013 -1.42456 0
M  V30 12089 H 1128.97 2.85018 -1.27167 0
M  V30 12090 N 1129.27 0.921757 1.27833 0
M  V30 12091 C 1130.51 0.559906 1.94918 0
M  V30 12092 C 1130.85 -0.895532 1.72319 0
M  V30 12093 O 1130.12 -1.638 1.04879 0
M  V30 12094 C 1130.41 0.879458 3.49196 0
M  V30 12095 C 1130.26 2.38821 3.81162 0
M  V30 12096 C 1131.58 0.381183 4.38446 0
M  V30 12097 H 1128.7 0.204893 0.707946 0
M  V30 12098 H 1131.34 1.15246 1.51058 0
M  V30 12099 H 1129.49 0.375177 3.86684 0
M  V30 12100 H 1131.16 2.96373 3.53498 0
M  V30 12101 H 1129.4 2.83988 3.27923 0
M  V30 12102 H 1130.07 2.56234 4.88926 0
M  V30 12103 H 1132.55 0.813289 4.08075 0
M  V30 12104 H 1131.43 0.633778 5.45229 0
M  V30 12105 H 1131.69 -0.718651 4.3622 0
M  V30 12106 N 1130.75 -1.41857 0.686609 0
M  V30 12107 C 1131.71 -2.29187 0.0247022 0
M  V30 12108 C 1132.71 -1.43926 -0.717069 0
M  V30 12109 O 1133.9 -1.65179 -0.5533 0
M  V30 12110 C 1131.03 -3.26644 -0.975537 0
M  V30 12111 H 1132.22 -2.89212 0.793503 0
M  V30 12112 H 1129.78 -1.49694 0.449605 0
M  V30 12113 H 1130.51 -2.7158 -1.77242 0
M  V30 12114 H 1130.3 -3.89545 -0.446892 0
M  V30 12115 H 1131.79 -3.92107 -1.43673 0
M  V30 12116 N 1132.22 -0.430739 -1.51599 0
M  V30 12117 C 1133.47 0.139396 -2.01218 0
M  V30 12118 C 1133.79 1.44361 -1.31982 0
M  V30 12119 O 1134.99 2.0963 -1.72533 0
M  V30 12120 C 1133.45 0.298969 -3.58656 0
M  V30 12121 C 1133.06 -0.994424 -4.36824 0
M  V30 12122 C 1134.8 0.82323 -4.16441 0
M  V30 12123 C 1132.71 -0.800855 -5.85952 0
M  V30 12124 H 1131.64 0.0558698 -0.751927 0
M  V30 12125 H 1134.29 -0.559493 -1.74762 0
M  V30 12126 H 1132.67 1.06071 -3.8153 0
M  V30 12127 H 1133.84 -1.76398 -4.257 0
M  V30 12128 H 1132.16 -1.44672 -3.9046 0
M  V30 12129 H 1134.76 0.984434 -5.2556 0
M  V30 12130 H 1135.1 1.80388 -3.75188 0
M  V30 12131 H 1135.63 0.119982 -3.97619 0
M  V30 12132 H 1132.37 -1.75369 -6.31606 0
M  V30 12133 H 1131.89 -0.0709793 -5.99758 0
M  V30 12134 H 1133.57 -0.451459 -6.45423 0
M  V30 12135 N 1133.7 1.56767 -0.161869 0
M  V30 12136 C 1134.95 1.96594 0.485496 0
M  V30 12137 C 1135.28 1.04743 1.63887 0
M  V30 12138 O 1134.53 0.079602 1.95538 0
M  V30 12139 C 1134.83 3.42567 1.01894 0
M  V30 12140 C 1134.5 4.50897 -0.0175419 0
M  V30 12141 C 1133.16 4.80249 -0.302429 0
M  V30 12142 C 1135.51 5.16181 -0.721572 0
M  V30 12143 C 1132.84 5.72187 -1.2969 0
M  V30 12144 C 1135.19 6.09191 -1.70496 0
M  V30 12145 C 1133.86 6.36915 -1.99739 0
M  V30 12146 H 1133.13 0.719388 0.177656 0
M  V30 12147 H 1135.77 1.89837 -0.251839 0
M  V30 12148 H 1134.08 3.4623 1.83391 0
M  V30 12149 H 1135.77 3.70719 1.52867 0
M  V30 12150 H 1132.36 4.28062 0.21468 0
M  V30 12151 H 1136.55 4.93624 -0.514681 0
M  V30 12152 H 1131.8 5.91953 -1.52974 0
M  V30 12153 H 1135.98 6.58849 -2.25591 0
M  V30 12154 H 1133.61 7.07958 -2.76948 0
M  V30 12155 N 1135.18 -0.111886 1.57202 0
M  V30 12156 C 1136.43 -0.817022 1.84412 0
M  V30 12157 C 1136.74 -1.80708 0.748608 0
M  V30 12158 O 1137.95 -2.55891 0.907319 0
M  V30 12159 C 1136.4 -1.50376 3.26979 0
M  V30 12160 C 1136.01 -0.554334 4.44557 0
M  V30 12161 C 1137.76 -2.19361 3.63429 0
M  V30 12162 C 1135.66 -1.24471 5.78153 0
M  V30 12163 H 1134.59 -0.308864 0.687836 0
M  V30 12164 H 1137.24 -0.0698109 1.83367 0
M  V30 12165 H 1135.63 -2.29785 3.22514 0
M  V30 12166 H 1136.8 0.207045 4.60335 0
M  V30 12167 H 1135.12 0.0289261 4.1639 0
M  V30 12168 H 1137.71 -2.71716 4.60515 0
M  V30 12169 H 1138.06 -2.97488 2.91215 0
M  V30 12170 H 1138.59 -1.46833 3.69709 0
M  V30 12171 H 1135.33 -0.504584 6.53555 0
M  V30 12172 H 1134.85 -1.97792 5.66249 0
M  V30 12173 H 1136.53 -1.77591 6.2215 0
M  V30 12174 N 1136.66 -1.52894 -0.382264 0
M  V30 12175 C 1137.61 -1.78799 -1.48774 0
M  V30 12176 C 1138.6 -0.65624 -1.56173 0
M  V30 12177 O 1139.81 -0.838856 -1.59258 0
M  V30 12178 H 1136.18 -0.565855 -0.49529 0
M  V30 12179 H 1138.15 -2.7136 -1.24122 0
M  V30 12180 C 1136.9 -1.97987 -2.85826 0
M  V30 12181 H 1136.22 -2.84505 -2.80886 0
M  V30 12182 H 1137.66 -2.20099 -3.62398 0
M  V30 12183 C 1136.12 -0.75427 -3.28348 0
M  V30 12184 O 1136.65 0.0650749 -4.01647 0
M  V30 12185 N 1134.86 -0.582457 -2.84703 0
M  V30 12186 H 1134.41 -1.25034 -2.2522 0
M  V30 12187 H 1134.36 0.236208 -3.13511 0
M  V30 12188 N 1138.14 0.641106 -1.43971 0
M  V30 12189 C 1139.55 1.22254 -1.41106 0
M  V30 12190 C 1139.9 1.95825 -0.121284 0
M  V30 12191 O 1139.02 2.01901 0.77879 0
M  V30 12192 C 1139.62 2.22364 -2.55617 0
M  V30 12193 C 1138.18 2.75957 -2.55978 0
M  V30 12194 C 1137.33 1.50792 -2.32717 0
M  V30 12195 H 1140.28 0.432381 -1.52696 0
M  V30 12196 H 1140.3 3.04775 -2.27799 0
M  V30 12197 H 1139.81 1.68789 -3.49474 0
M  V30 12198 H 1137.91 3.33562 -1.66034 0
M  V30 12199 H 1138.02 3.22676 -3.54142 0
M  V30 12200 H 1136.39 1.7857 -1.81617 0
M  V30 12201 H 1137.17 0.991343 -3.28675 0
M  V30 12202 N 1139.62 1.30703 0.880598 0
M  V30 12203 C 1140.56 1.17369 2.00817 0
M  V30 12204 C 1141.56 0.0845159 1.69189 0
M  V30 12205 O 1142.76 0.245673 1.78316 0
M  V30 12206 H 1139.14 0.363107 0.658527 0
M  V30 12207 H 1141.11 2.12789 2.09197 0
M  V30 12208 C 1139.86 0.886851 3.362 0
M  V30 12209 H 1139.18 1.71704 3.61051 0
M  V30 12210 H 1140.62 0.83368 4.15723 0
M  V30 12211 C 1139.08 -0.410293 3.34392 0
M  V30 12212 O 1139.61 -1.43044 3.75368 0
M  V30 12213 N 1137.82 -0.423023 2.87505 0
M  V30 12214 H 1137.36 0.407637 2.54354 0
M  V30 12215 H 1137.32 -1.29086 2.86678 0
M  V30 12216 N 1141.09 -1.09351 1.1349 0
M  V30 12217 C 1142.04 -2.18099 0.808426 0
M  V30 12218 C 1143.04 -1.68099 -0.209571 0
M  V30 12219 O 1144.24 -1.79877 -0.0666417 0
M  V30 12220 H 1140.62 -0.711432 0.243658 0
M  V30 12221 H 1142.59 -2.42867 1.73373 0
M  V30 12222 C 1141.34 -3.46475 0.291615 0
M  V30 12223 H 1140.66 -3.85319 1.06627 0
M  V30 12224 H 1142.1 -4.23878 0.101616 0
M  V30 12225 C 1140.56 -3.22245 -0.982827 0
M  V30 12226 O 1141.09 -3.44947 -2.0585 0
M  V30 12227 N 1139.29 -2.75845 -0.914218 0
M  V30 12228 H 1138.84 -2.57571 -0.03872 0
M  V30 12229 H 1138.8 -2.60011 -1.76753 0
M  V30 12230 N 1142.57 -0.928524 -1.27343 0
M  V30 12231 C 1143.48 -0.433901 -2.30553 0
M  V30 12232 C 1144.5 0.485832 -1.6708 0
M  V30 12233 O 1145.67 0.36844 -1.98001 0
M  V30 12234 C 1142.74 0.304617 -3.45359 0
M  V30 12235 C 1141.8 -0.650131 -4.24349 0
M  V30 12236 C 1141.03 0.0532372 -5.33673 0
M  V30 12237 O 1141.26 1.27246 -5.56026 0
M  V30 12238 O 1140.19 -0.619009 -5.98709 0
M  V30 12239 H 1144.02 -1.2909 -2.74899 0
M  V30 12240 H 1141.6 -0.693903 -1.32308 0
M  V30 12241 H 1143.48 0.721137 -4.15184 0
M  V30 12242 H 1142.16 1.13721 -3.03066 0
M  V30 12243 H 1141.06 -1.11635 -3.57055 0
M  V30 12244 H 1142.4 -1.44996 -4.70358 0
M  V30 12245 N 1144.05 1.41491 -0.694123 0
M  V30 12246 C 1145.47 1.55358 -0.365532 0
M  V30 12247 C 1145.67 1.66994 1.12762 0
M  V30 12248 O 1144.72 1.64756 1.91342 0
M  V30 12249 C 1146.03 2.79352 -1.11279 0
M  V30 12250 C 1147.58 2.93147 -1.097 0
M  V30 12251 C 1148.06 4.20027 -1.82597 0
M  V30 12252 N 1149.55 4.26981 -1.7956 0
M  V30 12253 C 1150.28 5.24013 -2.32805 0
M  V30 12254 N 1149.78 6.27083 -2.94515 0
M  V30 12255 N 1151.57 5.15943 -2.23069 0
M  V30 12256 H 1143.72 1.32183 -1.66257 0
M  V30 12257 H 1145.99 0.637624 -0.701527 0
M  V30 12258 H 1145.69 2.76958 -2.16765 0
M  V30 12259 H 1145.57 3.70827 -0.690439 0
M  V30 12260 H 1147.95 2.95057 -0.0504037 0
M  V30 12261 H 1148.03 2.02849 -1.55839 0
M  V30 12262 H 1147.68 4.18878 -2.87235 0
M  V30 12263 H 1147.61 5.09294 -1.33893 0
M  V30 12264 H 1150.1 3.53129 -1.34567 0
M  V30 12265 H 1150.41 6.97511 -3.32714 0
M  V30 12266 H 1148.76 6.27589 -2.98592 0
M  V30 12267 H 1151.95 4.34346 -1.74532 0
M  V30 12268 H 1152.12 5.91396 -2.64868 0
M  V30 12269 N 1145.53 0.438773 1.51369 0
M  V30 12270 C 1146.76 -0.125847 2.06517 0
M  V30 12271 C 1147.17 -1.36336 1.30606 0
M  V30 12272 O 1146.53 -1.78792 0.36603 0
M  V30 12273 C 1146.58 -0.446619 3.5873 0
M  V30 12274 O 1146.3 0.741781 4.31775 0
M  V30 12275 C 1147.8 -1.06175 4.30397 0
M  V30 12276 H 1145.02 -0.00728868 0.67096 0
M  V30 12277 H 1147.56 0.618267 1.9493 0
M  V30 12278 H 1145.72 -1.14064 3.70227 0
M  V30 12279 H 1146.13 0.466907 5.22418 0
M  V30 12280 H 1147.61 -1.23619 5.3798 0
M  V30 12281 H 1148.08 -2.04317 3.88782 0
M  V30 12282 H 1148.69 -0.40708 4.23347 0
M  V30 12283 N 1147.01 -1.56678 0.170181 0
M  V30 12284 C 1148.42 -1.83452 -0.346742 0
M  V30 12285 C 1148.77 -1.08993 -1.63141 0
M  V30 12286 O 1147.89 -0.342607 -2.13671 0
M  V30 12287 C 1148.49 -3.32779 -0.635882 0
M  V30 12288 C 1147.05 -3.60052 -1.09725 0
M  V30 12289 C 1146.19 -2.76983 -0.132516 0
M  V30 12290 H 1149.14 -1.53719 0.394465 0
M  V30 12291 H 1149.17 -3.50195 -1.48806 0
M  V30 12292 H 1148.68 -3.86944 0.299291 0
M  V30 12293 H 1146.78 -3.11297 -2.04756 0
M  V30 12294 H 1146.89 -4.68393 -1.00719 0
M  V30 12295 H 1145.26 -2.46794 -0.62966 0
M  V30 12296 H 1146.04 -3.33929 0.796658 0
M  V30 12297 N 1148.48 0.103547 -1.57259 0
M  V30 12298 C 1149.71 0.821158 -1.8958 0
M  V30 12299 C 1150.12 1.73213 -0.761184 0
M  V30 12300 O 1149.46 1.81611 0.27625 0
M  V30 12301 C 1149.53 1.69428 -3.17072 0
M  V30 12302 C 1149.19 0.956014 -4.46889 0
M  V30 12303 C 1150.19 0.289694 -5.19092 0
M  V30 12304 C 1147.87 0.932602 -4.93566 0
M  V30 12305 C 1149.87 -0.390164 -6.36205 0
M  V30 12306 C 1147.55 0.248954 -6.10593 0
M  V30 12307 C 1148.55 -0.411259 -6.81761 0
M  V30 12308 O 1148.24 -1.08396 -7.96559 0
M  V30 12309 H 1147.97 0.240508 -0.631769 0
M  V30 12310 H 1150.53 0.0877817 -2.05212 0
M  V30 12311 H 1148.76 2.46968 -2.97563 0
M  V30 12312 H 1150.44 2.28769 -3.3529 0
M  V30 12313 H 1151.21 0.299297 -4.84076 0
M  V30 12314 H 1147.09 1.43592 -4.38067 0
M  V30 12315 H 1150.63 -0.906057 -6.91691 0
M  V30 12316 H 1146.53 0.237168 -6.45064 0
M  V30 12317 H 1147.3 -0.990002 -8.12491 0
M  V30 12318 N 1149.96 1.53094 0.37415 0
M  V30 12319 C 1150.89 1.81901 1.46404 0
M  V30 12320 C 1151.87 0.671949 1.56265 0
M  V30 12321 O 1153.06 0.920978 1.70973 0
M  V30 12322 C 1150.19 2.00123 2.83845 0
M  V30 12323 C 1149.14 3.15864 2.88814 0
M  V30 12324 C 1148.47 3.19364 4.28848 0
M  V30 12325 C 1149.77 4.54633 2.57112 0
M  V30 12326 H 1151.46 2.73172 1.22546 0
M  V30 12327 H 1149.01 1.31444 0.588087 0
M  V30 12328 H 1150.96 2.18859 3.6011 0
M  V30 12329 H 1149.68 1.05555 3.09072 0
M  V30 12330 H 1148.34 2.96935 2.15 0
M  V30 12331 H 1147.99 2.2245 4.51137 0
M  V30 12332 H 1147.69 3.97123 4.3309 0
M  V30 12333 H 1149.22 3.40273 5.06997 0
M  V30 12334 H 1150.63 4.73587 3.23091 0
M  V30 12335 H 1149.03 5.34569 2.72683 0
M  V30 12336 H 1150.1 4.60331 1.52392 0
M  V30 12337 N 1151.44 -0.633461 1.44309 0
M  V30 12338 C 1152.37 -1.75868 1.4698 0
M  V30 12339 C 1153.38 -1.58691 0.363469 0
M  V30 12340 O 1154.57 -1.67048 0.629075 0
M  V30 12341 C 1151.67 -3.1356 1.28582 0
M  V30 12342 C 1150.85 -3.57217 2.52418 0
M  V30 12343 C 1149.91 -4.73779 2.28954 0
M  V30 12344 O 1148.93 -4.8221 3.02428 0
M  V30 12345 N 1150.13 -5.65324 1.31866 0
M  V30 12346 H 1152.9 -1.74048 2.43983 0
M  V30 12347 H 1150.46 -0.817952 1.39718 0
M  V30 12348 H 1152.45 -3.89255 1.10736 0
M  V30 12349 H 1151.02 -3.10036 0.399529 0
M  V30 12350 H 1150.24 -2.71755 2.85557 0
M  V30 12351 H 1151.53 -3.83136 3.3479 0
M  V30 12352 H 1150.93 -5.61204 0.71179 0
M  V30 12353 H 1149.48 -6.40659 1.19998 0
M  V30 12354 N 1152.92 -1.31168 -0.873655 0
M  V30 12355 C 1154.33 -1.18584 -1.44203 0
M  V30 12356 C 1154.68 0.209114 -1.95082 0
M  V30 12357 O 1153.81 1.10662 -1.85965 0
M  V30 12358 C 1154.4 -2.14668 -2.62112 0
M  V30 12359 C 1152.96 -2.06029 -3.15006 0
M  V30 12360 C 1152.11 -2.04106 -1.87712 0
M  V30 12361 H 1155.06 -1.43273 -0.682536 0
M  V30 12362 H 1155.08 -1.73413 -3.38686 0
M  V30 12363 H 1154.59 -3.16186 -2.25051 0
M  V30 12364 H 1152.69 -1.07693 -3.56697 0
M  V30 12365 H 1152.8 -2.9496 -3.77539 0
M  V30 12366 H 1151.17 -1.49069 -2.0652 0
M  V30 12367 H 1151.95 -3.07373 -1.52894 0
M  V30 12368 N 1154.4 1.08748 -1.14068 0
M  V30 12369 C 1155.67 1.7769 -0.81766 0
M  V30 12370 C 1156.05 1.99522 0.689501 0
M  V30 12371 O 1155.4 1.60222 1.62914 0
M  V30 12372 C 1155.61 3.09517 -1.61245 0
M  V30 12373 C 1156.96 3.84108 -1.80958 0
M  V30 12374 O 1157.98 3.19289 -1.57902 0
M  V30 12375 O 1156.84 5.00491 -2.19479 0
M  V30 12376 H 1153.94 0.770953 -0.299265 0
M  V30 12377 H 1156.48 1.15242 -1.24569 0
M  V30 12378 H 1155.25 2.89155 -2.63638 0
M  V30 12379 H 1154.88 3.79692 -1.17982 0
M  V30 12380 N 1155.87 0.935264 1.26849 0
M  V30 12381 C 1157.15 0.497797 1.8916 0
M  V30 12382 C 1157.53 -1.02441 1.84578 0
M  V30 12383 O 1156.88 -1.88185 1.29609 0
M  V30 12384 C 1157.09 1.05244 3.32753 0
M  V30 12385 C 1158.44 1.11751 4.0963 0
M  V30 12386 O 1159.46 1.0026 3.41799 0
M  V30 12387 O 1158.32 1.29548 5.30923 0
M  V30 12388 H 1155.41 0.161322 0.811113 0
M  V30 12389 H 1157.96 1.02744 1.35062 0
M  V30 12390 H 1156.73 2.09617 3.30419 0
M  V30 12391 H 1156.36 0.504889 3.94381 0
M  V30 12392 N 1157.35 -1.41121 0.701616 0
M  V30 12393 C 1158.58 -2.05452 0.244365 0
M  V30 12394 C 1159 -1.5282 -1.10866 0
M  V30 12395 O 1158.35 -0.67893 -1.69401 0
M  V30 12396 C 1158.4 -3.60946 0.200112 0
M  V30 12397 O 1158.12 -4.11632 1.4997 0
M  V30 12398 C 1159.63 -4.42431 -0.277394 0
M  V30 12399 H 1156.85 -0.66151 0.112453 0
M  V30 12400 H 1159.39 -1.80784 0.9559 0
M  V30 12401 H 1157.54 -3.84632 -0.462287 0
M  V30 12402 H 1157.96 -5.05723 1.39084 0
M  V30 12403 H 1159.43 -5.514 -0.257225 0
M  V30 12404 H 1159.91 -4.1898 -1.31728 0
M  V30 12405 H 1160.52 -4.23822 0.354223 0
M  V30 12406 N 1158.83 -0.446794 -1.51134 0
M  V30 12407 C 1160.06 0.114727 -2.06281 0
M  V30 12408 C 1160.47 1.36192 -1.31333 0
M  V30 12409 O 1159.81 1.79956 -0.368982 0
M  V30 12410 C 1159.87 0.492968 -3.56104 0
M  V30 12411 C 1159.54 -0.648755 -4.52372 0
M  V30 12412 C 1160.53 -1.52369 -4.97071 0
M  V30 12413 C 1158.22 -0.832177 -4.95359 0
M  V30 12414 C 1160.21 -2.56667 -5.83439 0
M  V30 12415 C 1157.9 -1.87841 -5.81514 0
M  V30 12416 C 1158.9 -2.74404 -6.25453 0
M  V30 12417 O 1158.59 -3.7723 -7.09896 0
M  V30 12418 H 1158.32 0.007138 -0.675962 0
M  V30 12419 H 1160.87 -0.627452 -1.95582 0
M  V30 12420 H 1159.1 1.28799 -3.6462 0
M  V30 12421 H 1160.79 0.986739 -3.93724 0
M  V30 12422 H 1161.56 -1.39356 -4.64548 0
M  V30 12423 H 1157.44 -0.167954 -4.60694 0
M  V30 12424 H 1160.98 -3.24264 -6.17656 0
M  V30 12425 H 1156.88 -2.00871 -6.1345 0
M  V30 12426 H 1157.65 -3.73924 -7.28095 0
M  V30 12427 N 1160.31 1.56586 -0.178487 0
M  V30 12428 C 1161.27 2.17091 0.73512 0
M  V30 12429 C 1162.27 1.12088 1.15295 0
M  V30 12430 O 1163.46 1.37563 1.06874 0
M  V30 12431 C 1160.59 2.75957 2.00151 0
M  V30 12432 H 1161.79 2.99176 0.208272 0
M  V30 12433 H 1159.34 1.56138 0.0710967 0
M  V30 12434 H 1160.07 1.97626 2.57127 0
M  V30 12435 H 1159.86 3.52809 1.7108 0
M  V30 12436 H 1161.35 3.2247 2.65335 0
M  V30 12437 N 1161.79 -0.095206 1.57312 0
M  V30 12438 C 1163.03 -0.799903 1.86358 0
M  V30 12439 C 1163.37 -1.78386 0.767593 0
M  V30 12440 O 1162.64 -1.93201 -0.224439 0
M  V30 12441 C 1162.92 -1.52875 3.26039 0
M  V30 12442 C 1162.78 -0.562781 4.46265 0
M  V30 12443 C 1164.1 -2.47935 3.63616 0
M  V30 12444 H 1161.21 -0.289339 0.677829 0
M  V30 12445 H 1163.86 -0.0635369 1.89894 0
M  V30 12446 H 1162.01 -2.15645 3.23156 0
M  V30 12447 H 1163.68 0.0579068 4.61264 0
M  V30 12448 H 1161.92 0.123847 4.33623 0
M  V30 12449 H 1162.59 -1.10989 5.40727 0
M  V30 12450 H 1165.07 -1.95257 3.67442 0
M  V30 12451 H 1163.94 -2.95948 4.62283 0
M  V30 12452 H 1164.21 -3.31687 2.92294 0
M  V30 12453 N 1163.26 -1.53291 -0.366026 0
M  V30 12454 C 1164.19 -1.82675 -1.45437 0
M  V30 12455 C 1165.18 -0.680227 -1.55907 0
M  V30 12456 O 1166.36 -0.930032 -1.70482 0
M  V30 12457 C 1163.49 -2.01626 -2.8278 0
M  V30 12458 C 1162.44 -3.17391 -2.87135 0
M  V30 12459 C 1161.77 -3.21634 -4.27148 0
M  V30 12460 C 1163.07 -4.5599 -2.54697 0
M  V30 12461 H 1164.76 -2.73818 -1.21096 0
M  V30 12462 H 1162.31 -1.31754 -0.581108 0
M  V30 12463 H 1164.26 -2.20765 -3.58944 0
M  V30 12464 H 1162.99 -1.07193 -3.08508 0
M  V30 12465 H 1161.65 -2.98071 -2.13422 0
M  V30 12466 H 1161.29 -2.2484 -4.49951 0
M  V30 12467 H 1160.99 -3.99414 -4.30978 0
M  V30 12468 H 1162.52 -3.42957 -5.05186 0
M  V30 12469 H 1163.93 -4.75294 -3.20575 0
M  V30 12470 H 1162.33 -5.36008 -2.69844 0
M  V30 12471 H 1163.4 -4.61133 -1.49949 0
M  V30 12472 N 1164.74 0.6258 -1.44643 0
M  V30 12473 C 1165.99 1.38546 -1.48918 0
M  V30 12474 C 1166.34 1.92013 -0.122019 0
M  V30 12475 O 1165.64 1.71038 0.863521 0
M  V30 12476 C 1165.83 2.56466 -2.48917 0
M  V30 12477 C 1165.66 2.14545 -3.95222 0
M  V30 12478 C 1164.43 2.01572 -4.63354 0
M  V30 12479 C 1166.63 1.73128 -4.84284 0
M  V30 12480 N 1164.61 1.53269 -5.94459 0
M  V30 12481 C 1165.98 1.36109 -6.04875 0
M  V30 12482 C 1168.04 1.60556 -4.71303 0
M  V30 12483 C 1166.74 0.877756 -7.13924 0
M  V30 12484 C 1168.76 1.13627 -5.80382 0
M  V30 12485 C 1168.13 0.775617 -7.00117 0
M  V30 12486 H 1164.23 0.501582 -0.599949 0
M  V30 12487 H 1166.81 0.717359 -1.81003 0
M  V30 12488 H 1164.98 3.20897 -2.18814 0
M  V30 12489 H 1166.71 3.23283 -2.43454 0
M  V30 12490 H 1163.47 2.22192 -4.18244 0
M  V30 12491 H 1163.89 1.31402 -6.64125 0
M  V30 12492 H 1168.53 1.8707 -3.79163 0
M  V30 12493 H 1166.25 0.60014 -8.05868 0
M  V30 12494 H 1169.84 1.04351 -5.72365 0
M  V30 12495 H 1168.72 0.418047 -7.83085 0
M  V30 12496 N 1166.22 1.31629 0.866686 0
M  V30 12497 C 1167.45 1.24474 1.65269 0
M  V30 12498 C 1167.86 -0.18939 1.87848 0
M  V30 12499 O 1167.22 -1.12251 1.43895 0
M  V30 12500 C 1167.27 1.98872 3.01881 0
M  V30 12501 O 1166.99 3.36687 2.8031 0
M  V30 12502 C 1168.49 1.98595 3.96327 0
M  V30 12503 H 1165.71 0.429966 0.515141 0
M  V30 12504 H 1168.26 1.73559 1.08156 0
M  V30 12505 H 1166.41 1.53539 3.55675 0
M  V30 12506 H 1166.83 3.74612 3.67105 0
M  V30 12507 H 1168.3 2.55156 4.89489 0
M  V30 12508 H 1168.78 0.969257 4.28371 0
M  V30 12509 H 1169.38 2.43821 3.4847 0
M  V30 12510 N 1167.7 -1.08142 1.14644 0
M  V30 12511 C 1168.65 -2.17229 0.831513 0
M  V30 12512 C 1169.64 -1.68311 -0.19173 0
M  V30 12513 O 1170.85 -1.79937 -0.0475596 0
M  V30 12514 H 1167.22 -0.708807 0.25119 0
M  V30 12515 H 1169.19 -2.41014 1.75939 0
M  V30 12516 C 1167.94 -3.46146 0.328347 0
M  V30 12517 H 1167.27 -3.84166 1.10708 0
M  V30 12518 H 1168.71 -4.23747 0.146568 0
M  V30 12519 C 1167.16 -3.2327 -0.948594 0
M  V30 12520 O 1167.69 -3.47111 -2.0218 0
M  V30 12521 N 1165.9 -2.76799 -0.884909 0
M  V30 12522 H 1165.45 -2.57597 -0.011399 0
M  V30 12523 H 1165.41 -2.61871 -1.73985 0
M  V30 12524 N 1169.18 -0.941978 -1.26351 0
M  V30 12525 C 1170.42 -0.600372 -1.94338 0
M  V30 12526 C 1170.78 0.851343 -1.7254 0
M  V30 12527 O 1170.07 1.60116 -1.0523 0
M  V30 12528 C 1170.27 -0.879481 -3.4641 0
M  V30 12529 C 1170.09 -2.35678 -3.82996 0
M  V30 12530 C 1168.86 -3.01208 -4.05712 0
M  V30 12531 C 1171.06 -3.33531 -3.91486 0
M  V30 12532 N 1169.04 -4.38942 -4.29189 0
M  V30 12533 C 1170.42 -4.56525 -4.19506 0
M  V30 12534 C 1172.47 -3.28544 -3.74117 0
M  V30 12535 C 1171.17 -5.75153 -4.31962 0
M  V30 12536 C 1173.2 -4.46498 -3.87806 0
M  V30 12537 C 1172.56 -5.68275 -4.16225 0
M  V30 12538 H 1168.66 -0.270078 -0.733881 0
M  V30 12539 H 1171.24 -1.21155 -1.52413 0
M  V30 12540 H 1169.42 -0.297345 -3.8726 0
M  V30 12541 H 1171.15 -0.499062 -4.01611 0
M  V30 12542 H 1167.9 -2.51823 -4.01101 0
M  V30 12543 H 1168.33 -5.10236 -4.44959 0
M  V30 12544 H 1172.97 -2.35451 -3.51173 0
M  V30 12545 H 1170.69 -6.68699 -4.53727 0
M  V30 12546 H 1174.27 -4.44173 -3.75768 0
M  V30 12547 H 1173.15 -6.58024 -4.26584 0
M  V30 12548 N 1170.66 1.40747 -0.709091 0
M  V30 12549 C 1171.6 2.30741 -0.0523584 0
M  V30 12550 C 1172.57 1.4784 0.757145 0
M  V30 12551 O 1173.76 1.76595 0.72242 0
M  V30 12552 C 1170.9 3.34 0.868203 0
M  V30 12553 C 1170.01 4.31972 0.0488686 0
M  V30 12554 C 1169.15 5.223 0.968311 0
M  V30 12555 C 1168.18 6.11934 0.142682 0
M  V30 12556 N 1167.32 6.947 1.01665 0
M  V30 12557 H 1172.16 2.86338 -0.825509 0
M  V30 12558 H 1169.7 1.41013 -0.418785 0
M  V30 12559 H 1171.66 3.92431 1.41611 0
M  V30 12560 H 1170.29 2.79921 1.6076 0
M  V30 12561 H 1169.34 3.75377 -0.616137 0
M  V30 12562 H 1170.65 4.95291 -0.590625 0
M  V30 12563 H 1169.8 5.85631 1.58498 0
M  V30 12564 H 1168.54 4.5924 1.64164 0
M  V30 12565 H 1167.55 5.47639 -0.486965 0
M  V30 12566 H 1168.77 6.77052 -0.527046 0
M  V30 12567 H 1166.72 6.34236 1.67575 0
M  V30 12568 H 1166.64 7.54759 0.433045 0
M  V30 12569 H 1167.9 7.62487 1.6197 0
M  V30 12570 N 1172.13 0.454803 1.50895 0
M  V30 12571 C 1173.36 -0.103936 2.06639 0
M  V30 12572 C 1173.78 -1.34943 1.32044 0
M  V30 12573 O 1173.13 -1.78393 0.384972 0
M  V30 12574 C 1173.18 -0.408546 3.59184 0
M  V30 12575 O 1172.91 0.787535 4.30963 0
M  V30 12576 C 1174.41 -1.01605 4.31499 0
M  V30 12577 H 1171.63 -0.000171839 0.671 0
M  V30 12578 H 1174.17 0.638907 1.94263 0
M  V30 12579 H 1172.33 -1.1013 3.71416 0
M  V30 12580 H 1172.74 0.52229 5.21893 0
M  V30 12581 H 1174.21 -1.17906 5.39261 0
M  V30 12582 H 1174.69 -2.00182 3.90927 0
M  V30 12583 H 1175.3 -0.362155 4.23755 0
M  V30 12584 N 1173.61 -1.56489 0.186789 0
M  V30 12585 C 1174.52 -2.22304 -0.749543 0
M  V30 12586 C 1175.54 -1.21949 -1.24115 0
M  V30 12587 O 1176.71 -1.5466 -1.29005 0
M  V30 12588 C 1173.78 -2.863 -1.95533 0
M  V30 12589 C 1172.84 -4.01901 -1.5091 0
M  V30 12590 C 1172.07 -4.62837 -2.6574 0
M  V30 12591 O 1172.3 -4.22681 -3.8301 0
M  V30 12592 O 1171.23 -5.52446 -2.38929 0
M  V30 12593 H 1175.06 -3.02909 -0.21908 0
M  V30 12594 H 1172.64 -1.49341 -0.0421249 0
M  V30 12595 H 1174.52 -3.2682 -2.6602 0
M  V30 12596 H 1173.2 -2.08681 -2.47455 0
M  V30 12597 H 1172.1 -3.66021 -0.773261 0
M  V30 12598 H 1173.44 -4.8116 -1.03663 0
M  V30 12599 N 1175.09 0.086862 -1.5736 0
M  V30 12600 C 1176.34 0.790008 -1.8678 0
M  V30 12601 C 1176.67 1.77977 -0.777042 0
M  V30 12602 O 1175.94 1.93317 0.21419 0
M  V30 12603 C 1176.23 1.51143 -3.26845 0
M  V30 12604 C 1176.08 0.539106 -4.46558 0
M  V30 12605 C 1177.4 2.46003 -3.64926 0
M  V30 12606 H 1174.52 0.285741 -0.679354 0
M  V30 12607 H 1177.16 0.0534655 -1.89925 0
M  V30 12608 H 1175.31 2.13928 -3.24295 0
M  V30 12609 H 1176.98 -0.0823679 -4.61226 0
M  V30 12610 H 1175.22 -0.146842 -4.33551 0
M  V30 12611 H 1175.9 1.0812 -5.41308 0
M  V30 12612 H 1178.37 1.93306 -3.68473 0
M  V30 12613 H 1177.25 2.93493 -4.63846 0
M  V30 12614 H 1177.51 3.30133 -2.94049 0
M  V30 12615 N 1176.57 1.53483 0.357892 0
M  V30 12616 C 1177.52 1.81143 1.45911 0
M  V30 12617 C 1178.51 0.681002 1.55109 0
M  V30 12618 O 1179.72 0.864086 1.57904 0
M  V30 12619 H 1176.09 0.573663 0.486225 0
M  V30 12620 H 1178.06 2.733 1.19789 0
M  V30 12621 C 1176.81 2.02509 2.8264 0
M  V30 12622 H 1176.13 2.88938 2.76324 0
M  V30 12623 H 1177.57 2.25837 3.58851 0
M  V30 12624 C 1176.03 0.806412 3.27106 0
M  V30 12625 O 1176.56 -0.00116809 4.017 0
M  V30 12626 N 1174.77 0.627677 2.8374 0
M  V30 12627 H 1174.32 1.28601 2.23203 0
M  V30 12628 H 1174.27 -0.186301 3.13848 0
M  V30 12629 N 1178.05 -0.61812 1.44973 0
M  V30 12630 C 1179.46 -0.937734 1.29146 0
M  V30 12631 C 1179.66 -2.00104 0.236749 0
M  V30 12632 O 1178.72 -2.49731 -0.372923 0
M  V30 12633 C 1180.03 -1.38865 2.66715 0
M  V30 12634 C 1181.58 -1.50343 2.74529 0
M  V30 12635 C 1182.05 -1.98814 4.12598 0
M  V30 12636 N 1183.54 -2.06064 4.14839 0
M  V30 12637 C 1184.28 -2.44768 5.18533 0
M  V30 12638 N 1183.78 -2.82516 6.32579 0
M  V30 12639 N 1185.57 -2.45016 5.05889 0
M  V30 12640 H 1177.72 0.084872 2.1223 0
M  V30 12641 H 1179.98 -0.0246744 0.947679 0
M  V30 12642 H 1179.69 -0.681583 3.45032 0
M  V30 12643 H 1179.56 -2.3572 2.94475 0
M  V30 12644 H 1181.95 -2.20144 1.96522 0
M  V30 12645 H 1182.03 -0.518297 2.50494 0
M  V30 12646 H 1181.67 -1.29604 4.91086 0
M  V30 12647 H 1181.6 -2.98223 4.34017 0
M  V30 12648 H 1184.1 -1.79525 3.32535 0
M  V30 12649 H 1184.41 -3.109 7.07504 0
M  V30 12650 H 1182.75 -2.80237 6.35997 0
M  V30 12651 H 1185.94 -2.14925 4.15842 0
M  V30 12652 H 1186.12 -2.74854 5.86821 0
M  V30 12653 N 1179.52 -1.32087 -0.859693 0
M  V30 12654 C 1180.43 -1.22587 -2.00024 0
M  V30 12655 C 1181.45 -0.140477 -1.73432 0
M  V30 12656 O 1182.63 -0.360213 -1.98153 0
M  V30 12657 C 1179.69 -0.944195 -3.33595 0
M  V30 12658 C 1178.75 -2.11752 -3.73443 0
M  V30 12659 C 1177.98 -1.84919 -5.0064 0
M  V30 12660 O 1178.21 -0.789299 -5.64913 0
M  V30 12661 O 1177.14 -2.70885 -5.37499 0
M  V30 12662 H 1180.97 -2.18457 -2.10974 0
M  V30 12663 H 1178.55 -1.11927 -0.989577 0
M  V30 12664 H 1180.43 -0.803389 -4.13671 0
M  V30 12665 H 1179.11 -0.0156083 -3.23696 0
M  V30 12666 H 1178.02 -2.31378 -2.93965 0
M  V30 12667 H 1179.35 -3.02872 -3.87981 0
M  V30 12668 N 1181 1.07532 -1.15215 0
M  V30 12669 C 1182.28 1.76813 -0.83646 0
M  V30 12670 C 1182.66 2.00242 0.6683 0
M  V30 12671 O 1182.01 1.61941 1.61206 0
M  V30 12672 C 1182.22 3.0779 -1.64519 0
M  V30 12673 C 1183.56 3.82168 -1.85022 0
M  V30 12674 O 1184.59 3.17596 -1.61279 0
M  V30 12675 O 1183.45 4.98135 -2.24775 0
M  V30 12676 H 1180.54 0.767736 -0.307426 0
M  V30 12677 H 1183.09 1.13914 -1.25784 0
M  V30 12678 H 1181.86 2.86342 -2.6669 0
M  V30 12679 H 1181.48 3.78419 -1.22002 0
M  V30 12680 N 1182.48 0.948665 1.2585 0
M  V30 12681 C 1183.73 0.601125 1.93686 0
M  V30 12682 C 1184.06 -0.858779 1.7418 0
M  V30 12683 O 1183.33 -1.61539 1.0833 0
M  V30 12684 C 1183.62 0.95333 3.47252 0
M  V30 12685 C 1183.47 2.46853 3.7601 0
M  V30 12686 C 1184.79 0.474098 4.37539 0
M  V30 12687 H 1181.91 0.219864 0.703441 0
M  V30 12688 H 1184.55 1.18424 1.48579 0
M  V30 12689 H 1182.7 0.457114 3.85801 0
M  V30 12690 H 1184.37 3.03804 3.47132 0
M  V30 12691 H 1182.62 2.9088 3.21825 0
M  V30 12692 H 1183.29 2.66547 4.83381 0
M  V30 12693 H 1185.76 0.899664 4.06258 0
M  V30 12694 H 1184.64 0.749287 5.43762 0
M  V30 12695 H 1184.9 -0.625961 4.37646 0
M  V30 12696 N 1183.96 -1.40369 0.716545 0
M  V30 12697 C 1184.89 -2.29186 0.0251905 0
M  V30 12698 C 1185.9 -1.45877 -0.722761 0
M  V30 12699 O 1187.09 -1.69155 -0.569982 0
M  V30 12700 C 1184.19 -3.24161 -0.988589 0
M  V30 12701 C 1183.37 -4.36329 -0.30597 0
M  V30 12702 C 1182.42 -5.11736 -1.22527 0
M  V30 12703 O 1181.45 -5.64758 -0.7097 0
M  V30 12704 N 1182.65 -5.21183 -2.55634 0
M  V30 12705 H 1185.42 -2.8916 0.787808 0
M  V30 12706 H 1182.98 -1.51749 0.564253 0
M  V30 12707 H 1184.97 -3.71479 -1.60578 0
M  V30 12708 H 1183.54 -2.65347 -1.65256 0
M  V30 12709 H 1182.76 -3.91125 0.491432 0
M  V30 12710 H 1184.05 -5.08523 0.167827 0
M  V30 12711 H 1183.45 -4.7959 -3.00017 0
M  V30 12712 H 1182 -5.72005 -3.12495 0
M  V30 12713 N 1185.44 -0.462799 -1.50652 0
M  V30 12714 C 1186.68 0.0951853 -2.02576 0
M  V30 12715 C 1187.02 1.40113 -1.34469 0
M  V30 12716 O 1186.29 1.88793 -0.467702 0
M  V30 12717 C 1186.57 0.287603 -3.5895 0
M  V30 12718 C 1186.43 -1.03878 -4.37641 0
M  V30 12719 C 1187.75 1.04593 -4.27491 0
M  V30 12720 H 1184.86 0.0331191 -0.736255 0
M  V30 12721 H 1187.51 -0.606772 -1.80051 0
M  V30 12722 H 1185.66 0.885514 -3.78274 0
M  V30 12723 H 1187.33 -1.67263 -4.29908 0
M  V30 12724 H 1185.57 -1.6374 -4.01711 0
M  V30 12725 H 1186.24 -0.857889 -5.45293 0
M  V30 12726 H 1188.72 0.539213 -4.12591 0
M  V30 12727 H 1187.59 1.14935 -5.36732 0
M  V30 12728 H 1187.86 2.08045 -3.90089 0
M  V30 12729 N 1186.91 1.56388 -0.195085 0
M  V30 12730 C 1187.86 2.19091 0.725793 0
M  V30 12731 C 1188.83 1.13814 1.20977 0
M  V30 12732 O 1190.02 1.42065 1.27366 0
M  V30 12733 C 1187.16 2.85427 1.93973 0
M  V30 12734 C 1186.27 4.05229 1.49712 0
M  V30 12735 C 1185.4 4.59421 2.66656 0
M  V30 12736 C 1184.44 5.71581 2.19001 0
M  V30 12737 N 1183.58 6.2018 3.29123 0
M  V30 12738 H 1188.42 2.97429 0.184334 0
M  V30 12739 H 1185.96 1.46886 0.0792434 0
M  V30 12740 H 1187.92 3.22057 2.65208 0
M  V30 12741 H 1186.55 2.09652 2.4545 0
M  V30 12742 H 1185.6 3.74261 0.680641 0
M  V30 12743 H 1186.91 4.8635 1.10749 0
M  V30 12744 H 1186.06 4.98357 3.46014 0
M  V30 12745 H 1184.8 3.77407 3.08893 0
M  V30 12746 H 1183.81 5.32174 1.38097 0
M  V30 12747 H 1185.03 6.55413 1.77795 0
M  V30 12748 H 1182.98 5.41088 3.70891 0
M  V30 12749 H 1182.9 6.96353 2.94328 0
M  V30 12750 H 1184.16 6.63769 4.08694 0
M  V30 12751 N 1188.39 -0.0785156 1.57404 0
M  V30 12752 C 1189.34 -1.09402 2.03224 0
M  V30 12753 C 1190.31 -1.38849 0.911596 0
M  V30 12754 O 1191.49 -1.50031 1.17878 0
M  V30 12755 C 1188.63 -2.40444 2.47549 0
M  V30 12756 C 1187.75 -2.17585 3.73203 0
M  V30 12757 C 1186.88 -3.42143 4.06339 0
M  V30 12758 C 1185.92 -3.14619 5.25054 0
M  V30 12759 N 1185.06 -4.31489 5.5386 0
M  V30 12760 H 1189.9 -0.696307 2.89751 0
M  V30 12761 H 1187.44 -0.332261 1.43298 0
M  V30 12762 H 1189.39 -3.16944 2.71298 0
M  V30 12763 H 1188.02 -2.78031 1.64009 0
M  V30 12764 H 1187.08 -1.3181 3.56834 0
M  V30 12765 H 1188.39 -1.93249 4.59844 0
M  V30 12766 H 1187.54 -4.27042 4.30953 0
M  V30 12767 H 1186.28 -3.69549 3.18253 0
M  V30 12768 H 1185.29 -2.28116 5.00243 0
M  V30 12769 H 1186.51 -2.88543 6.14752 0
M  V30 12770 H 1184.46 -4.58939 4.68734 0
M  V30 12771 H 1184.37 -4.10403 6.34906 0
M  V30 12772 H 1185.64 -5.17404 5.83021 0
M  V30 12773 N 1189.87 -1.5367 -0.349747 0
M  V30 12774 C 1191.12 -1.70618 -1.09068 0
M  V30 12775 C 1191.45 -0.466133 -1.88832 0
M  V30 12776 O 1190.7 0.552079 -1.87751 0
M  V30 12777 C 1191 -2.91753 -2.06434 0
M  V30 12778 C 1190.67 -4.27614 -1.43029 0
M  V30 12779 C 1189.33 -4.64555 -1.25466 0
M  V30 12780 C 1191.68 -5.12037 -0.972987 0
M  V30 12781 C 1189.01 -5.83543 -0.607807 0
M  V30 12782 C 1191.36 -6.31685 -0.340073 0
M  V30 12783 C 1190.02 -6.67327 -0.152069 0
M  V30 12784 H 1189.29 -0.624334 -0.399108 0
M  V30 12785 H 1191.94 -1.87879 -0.370657 0
M  V30 12786 H 1190.25 -2.6907 -2.84796 0
M  V30 12787 H 1191.94 -3.02059 -2.63744 0
M  V30 12788 H 1188.53 -3.98535 -1.57696 0
M  V30 12789 H 1192.72 -4.84035 -1.09655 0
M  V30 12790 H 1187.97 -6.09737 -0.450705 0
M  V30 12791 H 1192.15 -6.96396 0.0223973 0
M  V30 12792 H 1189.77 -7.59388 0.35121 0
M  V30 12793 N 1191.35 0.610423 -1.45298 0
M  V30 12794 C 1192.59 1.37154 -1.49388 0
M  V30 12795 C 1192.93 1.93737 -0.134025 0
M  V30 12796 O 1192.2 1.74888 0.851138 0
M  V30 12797 C 1192.49 2.52155 -2.5708 0
M  V30 12798 C 1192.34 2.00786 -4.02498 0
M  V30 12799 C 1193.66 3.54294 -2.61082 0
M  V30 12800 H 1190.78 0.497346 -0.54389 0
M  V30 12801 H 1193.42 0.688358 -1.77092 0
M  V30 12802 H 1191.57 3.10434 -2.33587 0
M  V30 12803 H 1193.24 1.47178 -4.37191 0
M  V30 12804 H 1191.48 1.31809 -4.1329 0
M  V30 12805 H 1192.15 2.83674 -4.73533 0
M  V30 12806 H 1194.63 3.05851 -2.82125 0
M  V30 12807 H 1193.51 4.32254 -3.38301 0
M  V30 12808 H 1193.77 4.09726 -1.66063 0
M  V30 12809 N 1192.83 1.32541 0.852676 0
M  V30 12810 C 1194.07 1.22971 1.60383 0
M  V30 12811 C 1194.4 -0.208009 1.93887 0
M  V30 12812 O 1193.67 -1.13326 1.59794 0
M  V30 12813 H 1192.25 0.452149 0.594618 0
M  V30 12814 H 1194.91 1.66089 1.01983 0
M  V30 12815 H 1194 1.81373 2.53989 0
M  V30 12816 N 1194.3 -1.0692 1.15784 0
M  V30 12817 C 1195.72 -1.61069 0.944123 0
M  V30 12818 C 1196.07 -1.8936 -0.513522 0
M  V30 12819 O 1195.19 -1.66232 -1.38549 0
M  V30 12820 C 1195.79 -2.9263 1.70743 0
M  V30 12821 C 1194.35 -3.43505 1.53887 0
M  V30 12822 C 1193.49 -2.17495 1.72021 0
M  V30 12823 H 1196.44 -0.89951 1.30746 0
M  V30 12824 H 1196.46 -3.61757 1.17951 0
M  V30 12825 H 1195.98 -2.72007 2.76828 0
M  V30 12826 H 1194.08 -3.69201 0.502153 0
M  V30 12827 H 1194.19 -4.19254 2.31868 0
M  V30 12828 H 1192.55 -2.27407 1.1471 0
M  V30 12829 H 1193.34 -1.99362 2.79481 0
M  V30 12830 N 1195.78 -0.955326 -1.25345 0
M  V30 12831 C 1197.03 -0.609278 -1.92697 0
M  V30 12832 C 1197.35 0.856535 -1.75181 0
M  V30 12833 O 1196.62 1.61013 -1.11587 0
M  V30 12834 H 1195.2 -0.22235 -0.713141 0
M  V30 12835 H 1197.86 -1.21372 -1.52496 0
M  V30 12836 H 1196.96 -0.839198 -3.00606 0
M  V30 12837 N 1197.26 1.39987 -0.723979 0
M  V30 12838 C 1198.51 2.00731 -0.267115 0
M  V30 12839 C 1198.84 1.57424 1.14228 0
M  V30 12840 O 1198.09 0.789205 1.79081 0
M  V30 12841 C 1198.39 3.56101 -0.304472 0
M  V30 12842 C 1198.06 4.1902 -1.66533 0
M  V30 12843 C 1196.72 4.3592 -2.03783 0
M  V30 12844 C 1199.07 4.54034 -2.55935 0
M  V30 12845 C 1196.4 4.85119 -3.29964 0
M  V30 12846 C 1198.75 5.04637 -3.81477 0
M  V30 12847 C 1197.41 5.19745 -4.18833 0
M  V30 12848 H 1196.68 0.734525 -0.0977442 0
M  V30 12849 H 1199.33 1.67476 -0.928659 0
M  V30 12850 H 1197.64 3.89314 0.440647 0
M  V30 12851 H 1199.33 4.00944 0.0669875 0
M  V30 12852 H 1195.92 4.0626 -1.36569 0
M  V30 12853 H 1200.11 4.40606 -2.2843 0
M  V30 12854 H 1195.36 4.95001 -3.58865 0
M  V30 12855 H 1199.54 5.30705 -4.50916 0
M  V30 12856 H 1197.16 5.5763 -5.16675 0
M  V30 12857 N 1198.74 0.470782 1.50404 0
M  V30 12858 C 1200.16 0.124919 1.5911 0
M  V30 12859 C 1200.36 -1.36855 1.47895 0
M  V30 12860 O 1199.41 -2.1418 1.33728 0
M  V30 12861 C 1200.72 0.674839 2.9303 0
M  V30 12862 C 1202.27 0.638239 3.06424 0
M  V30 12863 C 1202.75 1.1657 4.42917 0
M  V30 12864 N 1204.24 1.1251 4.49328 0
M  V30 12865 C 1204.97 1.50373 5.53331 0
M  V30 12866 N 1204.47 1.95684 6.6459 0
M  V30 12867 N 1206.26 1.41978 5.43874 0
M  V30 12868 H 1198.41 1.44212 1.55938 0
M  V30 12869 H 1200.68 0.596354 0.73693 0
M  V30 12870 H 1200.38 1.72106 3.06712 0
M  V30 12871 H 1200.26 0.118234 3.77015 0
M  V30 12872 H 1202.64 -0.399075 2.92389 0
M  V30 12873 H 1202.72 1.23164 2.24197 0
M  V30 12874 H 1202.37 2.20164 4.57701 0
M  V30 12875 H 1202.3 0.548513 5.23736 0
M  V30 12876 H 1204.79 0.79276 3.69491 0
M  V30 12877 H 1205.1 2.22724 7.40009 0
M  V30 12878 H 1203.45 1.99636 6.65711 0
M  V30 12879 H 1206.64 1.0642 4.55842 0
M  V30 12880 H 1206.81 1.71812 6.24808 0
M  V30 12881 N 1200.22 -1.56282 0.203376 0
M  V30 12882 C 1201.63 -1.58871 -0.152335 0
M  V30 12883 C 1201.83 -1.21978 -1.60386 0
M  V30 12884 O 1200.89 -0.946422 -2.34092 0
M  V30 12885 C 1202.2 -3.00287 0.157515 0
M  V30 12886 C 1203.75 -3.12846 0.098287 0
M  V30 12887 C 1204.23 -4.56408 0.38156 0
M  V30 12888 N 1205.72 -4.6202 0.330475 0
M  V30 12889 C 1206.45 -5.71006 0.523397 0
M  V30 12890 N 1205.95 -6.88428 0.777115 0
M  V30 12891 N 1207.74 -5.60238 0.457082 0
M  V30 12892 H 1199.89 -1.78543 1.15048 0
M  V30 12893 H 1202.15 -0.829019 0.459816 0
M  V30 12894 H 1201.86 -3.3187 1.16427 0
M  V30 12895 H 1201.73 -3.73372 -0.536041 0
M  V30 12896 H 1204.12 -2.8107 -0.899085 0
M  V30 12897 H 1204.2 -2.42129 0.825045 0
M  V30 12898 H 1203.85 -4.88897 1.37629 0
M  V30 12899 H 1203.78 -5.25325 -0.366182 0
M  V30 12900 H 1206.27 -3.77636 0.141327 0
M  V30 12901 H 1206.58 -7.67389 0.912911 0
M  V30 12902 H 1204.93 -6.90215 0.814104 0
M  V30 12903 H 1208.12 -4.67382 0.259226 0
M  V30 12904 H 1208.29 -6.45114 0.610848 0
M  V30 12905 N 1201.7 0.070167 -1.57444 0
M  V30 12906 C 1202.93 0.78076 -1.91279 0
M  V30 12907 C 1203.33 1.71559 -0.797754 0
M  V30 12908 O 1202.68 1.82156 0.237665 0
M  V30 12909 C 1202.74 1.62664 -3.20594 0
M  V30 12910 C 1202.4 0.861007 -4.48816 0
M  V30 12911 C 1203.4 0.179522 -5.1959 0
M  V30 12912 C 1201.08 0.8277 -4.95434 0
M  V30 12913 C 1203.08 -0.525024 -6.35234 0
M  V30 12914 C 1200.77 0.119382 -6.10983 0
M  V30 12915 C 1201.76 -0.555778 -6.80735 0
M  V30 12916 O 1201.45 -1.25268 -7.9408 0
M  V30 12917 H 1201.18 0.227053 -0.636728 0
M  V30 12918 H 1203.74 0.0442334 -2.05352 0
M  V30 12919 H 1201.97 2.40601 -3.02734 0
M  V30 12920 H 1203.66 2.21606 -3.40067 0
M  V30 12921 H 1204.42 0.19655 -4.84602 0
M  V30 12922 H 1200.3 1.34268 -4.41014 0
M  V30 12923 H 1203.85 -1.05257 -6.89613 0
M  V30 12924 H 1199.74 0.100287 -6.45422 0
M  V30 12925 H 1200.51 -1.16212 -8.10208 0
M  V30 12926 N 1203.17 1.53854 0.341593 0
M  V30 12927 C 1204.4 1.75447 1.10604 0
M  V30 12928 C 1204.82 0.493225 1.81518 0
M  V30 12929 O 1204.18 -0.554253 1.7262 0
M  V30 12930 C 1204.23 2.93593 2.09369 0
M  V30 12931 O 1203.33 2.63878 3.16926 0
M  V30 12932 H 1202.67 0.581923 0.319783 0
M  V30 12933 H 1205.2 2.00822 0.391388 0
M  V30 12934 H 1205.21 3.20437 2.52556 0
M  V30 12935 H 1203.89 3.85067 1.57151 0
M  V30 12936 H 1202.47 2.47929 2.78542 0
M  V30 12937 N 1204.65 -0.602709 1.4562 0
M  V30 12938 C 1205.9 -1.36158 1.49891 0
M  V30 12939 C 1206.23 -1.93977 0.142581 0
M  V30 12940 O 1205.48 -1.75822 -0.859374 0
M  V30 12941 C 1205.78 -2.52474 2.52966 0
M  V30 12942 C 1205.45 -2.12772 3.97541 0
M  V30 12943 C 1204.11 -2.01658 4.36907 0
M  V30 12944 C 1206.46 -1.8186 4.88443 0
M  V30 12945 C 1203.79 -1.57862 5.65063 0
M  V30 12946 C 1206.14 -1.39548 6.17016 0
M  V30 12947 C 1204.8 -1.26997 6.55308 0
M  V30 12948 H 1204.07 -0.498236 0.54849 0
M  V30 12949 H 1206.72 -0.680738 1.78992 0
M  V30 12950 H 1205.03 -3.25917 2.17452 0
M  V30 12951 H 1206.72 -3.10701 2.53507 0
M  V30 12952 H 1203.31 -2.22349 3.66413 0
M  V30 12953 H 1207.5 -1.89341 4.58763 0
M  V30 12954 H 1202.75 -1.46771 5.93522 0
M  V30 12955 H 1206.93 -1.14677 6.86893 0
M  V30 12956 H 1204.55 -0.928346 7.5451 0
M  V30 12957 N 1206.13 -1.32992 -0.845635 0
M  V30 12958 C 1207.04 -1.24701 -1.98713 0
M  V30 12959 C 1208.06 -0.158864 -1.73273 0
M  V30 12960 O 1209.23 -0.381209 -1.97759 0
M  V30 12961 C 1206.3 -0.979524 -3.32575 0
M  V30 12962 C 1205.36 -2.15701 -3.71176 0
M  V30 12963 C 1204.59 -1.90219 -4.98651 0
M  V30 12964 O 1204.81 -0.849171 -5.64044 0
M  V30 12965 O 1203.75 -2.76571 -5.34595 0
M  V30 12966 H 1207.57 -2.20683 -2.08645 0
M  V30 12967 H 1205.16 -1.12971 -0.97765 0
M  V30 12968 H 1207.04 -0.847219 -4.12796 0
M  V30 12969 H 1205.72 -0.0499398 -3.23661 0
M  V30 12970 H 1204.62 -2.34483 -2.91494 0
M  V30 12971 H 1205.96 -3.0697 -3.84747 0
M  V30 12972 N 1207.61 1.06304 -1.1635 0
M  V30 12973 C 1208.54 2.13209 -0.81346 0
M  V30 12974 C 1209.52 1.61174 0.21484 0
M  V30 12975 O 1210.7 1.8824 0.0989458 0
M  V30 12976 C 1207.83 3.38039 -0.211498 0
M  V30 12977 C 1206.88 4.08875 -1.21339 0
M  V30 12978 S 1207.71 4.58894 -2.76001 0
M  V30 12979 C 1208.86 5.86985 -2.17254 0
M  V30 12980 H 1209.1 2.42572 -1.7189 0
M  V30 12981 H 1206.63 1.18737 -0.986957 0
M  V30 12982 H 1208.59 4.10296 0.129349 0
M  V30 12983 H 1207.25 3.06834 0.671705 0
M  V30 12984 H 1206.44 4.98528 -0.740631 0
M  V30 12985 H 1206.04 3.42632 -1.49932 0
M  V30 12986 H 1208.34 6.59738 -1.54115 0
M  V30 12987 H 1209.28 6.38991 -3.05117 0
M  V30 12988 H 1209.69 5.41012 -1.61141 0
M  V30 12989 N 1209.09 0.96196 1.24836 0
M  V30 12990 C 1210.31 0.637709 1.97353 0
M  V30 12991 C 1210.74 -0.784919 1.7094 0
M  V30 12992 O 1210.09 -1.53188 0.969694 0
M  V30 12993 C 1210.14 0.911485 3.4889 0
M  V30 12994 O 1209.25 -0.00601668 4.124 0
M  V30 12995 H 1208.59 0.241685 0.618453 0
M  V30 12996 H 1211.12 1.29055 1.58764 0
M  V30 12997 H 1211.13 0.840702 3.99245 0
M  V30 12998 H 1209.8 1.9483 3.67442 0
M  V30 12999 H 1208.38 0.117597 3.72715 0
M  V30 13000 N 1210.56 -1.39601 0.731392 0
M  V30 13001 C 1211.81 -1.99821 0.274661 0
M  V30 13002 C 1212.13 -1.58693 -1.1435 0
M  V30 13003 O 1213.33 -2.11724 -1.69957 0
M  V30 13004 C 1211.79 -3.57199 0.440124 0
M  V30 13005 C 1211.4 -4.07292 1.86594 0
M  V30 13006 C 1213.14 -4.24476 0.0449851 0
M  V30 13007 C 1211.05 -5.57229 1.98115 0
M  V30 13008 H 1209.98 -0.747481 0.0989383 0
M  V30 13009 H 1212.63 -1.59645 0.904755 0
M  V30 13010 H 1211.01 -3.95153 -0.25881 0
M  V30 13011 H 1212.18 -3.80679 2.59654 0
M  V30 13012 H 1210.5 -3.52665 2.21397 0
M  V30 13013 H 1213.1 -5.34587 0.110126 0
M  V30 13014 H 1213.44 -4.04129 -0.999269 0
M  V30 13015 H 1213.97 -3.91683 0.694942 0
M  V30 13016 H 1210.71 -5.82452 3.00716 0
M  V30 13017 H 1210.23 -5.85656 1.29487 0
M  V30 13018 H 1211.91 -6.22584 1.76063 0
M  V30 13019 N 1212.04 -0.478751 -1.50152 0
M  V30 13020 C 1213.27 0.0710485 -2.06778 0
M  V30 13021 C 1213.69 1.32826 -1.34174 0
M  V30 13022 O 1213.04 1.77758 -0.413304 0
M  V30 13023 C 1213.09 0.351351 -3.59789 0
M  V30 13024 O 1212.81 -0.855998 -4.29656 0
M  V30 13025 C 1214.32 0.947269 -4.33061 0
M  V30 13026 H 1211.54 -0.0105032 -0.670918 0
M  V30 13027 H 1214.08 -0.669732 -1.93222 0
M  V30 13028 H 1212.23 1.04207 -3.73121 0
M  V30 13029 H 1212.65 -0.605252 -5.20996 0
M  V30 13030 H 1214.12 1.09312 -5.41068 0
M  V30 13031 H 1214.6 1.93937 -3.94062 0
M  V30 13032 H 1215.21 0.294693 -4.24278 0
M  V30 13033 N 1213.52 1.56172 -0.211661 0
M  V30 13034 C 1214.77 1.97214 0.423008 0
M  V30 13035 C 1215.08 1.10203 1.616 0
M  V30 13036 O 1216.29 1.411 2.31955 0
M  V30 13037 C 1214.74 3.50805 0.803977 0
M  V30 13038 C 1214.35 4.46505 -0.365654 0
M  V30 13039 C 1216.1 4.00582 1.4048 0
M  V30 13040 C 1214 5.91388 0.0371986 0
M  V30 13041 H 1212.93 0.736432 0.161814 0
M  V30 13042 H 1215.58 1.80925 -0.306307 0
M  V30 13043 H 1213.97 3.62659 1.59043 0
M  V30 13044 H 1215.14 4.46394 -1.14321 0
M  V30 13045 H 1213.46 4.07015 -0.879061 0
M  V30 13046 H 1216.05 5.06317 1.71894 0
M  V30 13047 H 1216.4 3.45853 2.31713 0
M  V30 13048 H 1216.93 3.9191 0.681984 0
M  V30 13049 H 1213.67 6.50078 -0.841367 0
M  V30 13050 H 1213.19 5.94716 0.77927 0
M  V30 13051 H 1214.87 6.4531 0.467309 0
M  V30 13052 N 1215 -0.0618163 1.57479 0
M  V30 13053 C 1216.41 -0.612461 1.76368 0
M  V30 13054 C 1216.76 -1.77381 0.838466 0
M  V30 13055 O 1215.89 -2.16386 0.0250211 0
M  V30 13056 C 1216.48 -1.11782 3.19829 0
M  V30 13057 C 1215.04 -1.61424 3.40028 0
M  V30 13058 C 1214.19 -0.53795 2.72032 0
M  V30 13059 H 1217.14 0.164382 1.57846 0
M  V30 13060 H 1217.16 -1.98634 3.24538 0
M  V30 13061 H 1216.67 -0.272353 3.87143 0
M  V30 13062 H 1214.77 -2.48263 2.77842 0
M  V30 13063 H 1214.88 -1.68431 4.48517 0
M  V30 13064 H 1213.25 -0.985355 2.34868 0
M  V30 13065 H 1214.03 0.297495 3.42009 0
M  V30 13066 N 1216.48 -1.54033 -0.333429 0
M  V30 13067 C 1217.72 -1.71426 -1.0704 0
M  V30 13068 C 1218.05 -0.485496 -1.8886 0
M  V30 13069 O 1217.32 0.500555 -1.89397 0
M  V30 13070 H 1215.9 -0.632034 -0.398173 0
M  V30 13071 H 1218.56 -1.91312 -0.372252 0
M  V30 13072 H 1217.65 -2.58958 -1.74205 0
M  V30 13073 N 1217.95 0.594978 -1.45938 0
M  V30 13074 C 1219.2 1.35561 -1.50834 0
M  V30 13075 C 1219.53 1.93584 -0.154566 0
M  V30 13076 O 1218.81 1.75781 0.832541 0
M  V30 13077 C 1219.09 2.49414 -2.5974 0
M  V30 13078 C 1218.94 1.96506 -4.04605 0
M  V30 13079 C 1220.26 3.51505 -2.64825 0
M  V30 13080 H 1217.38 0.491549 -0.549134 0
M  V30 13081 H 1220.02 0.669536 -1.77812 0
M  V30 13082 H 1218.17 3.07939 -2.36866 0
M  V30 13083 H 1219.85 1.42533 -4.38728 0
M  V30 13084 H 1218.09 1.27418 -4.14665 0
M  V30 13085 H 1218.76 2.78636 -4.76515 0
M  V30 13086 H 1221.24 3.02841 -2.85353 0
M  V30 13087 H 1220.11 4.28641 -3.42867 0
M  V30 13088 H 1220.37 4.07942 -1.70399 0
M  V30 13089 N 1219.43 1.33438 0.838571 0
M  V30 13090 C 1220.34 1.25753 1.98049 0
M  V30 13091 C 1221.36 0.168051 1.73187 0
M  V30 13092 O 1222.53 0.391691 1.97554 0
M  V30 13093 C 1219.6 0.997148 3.32051 0
M  V30 13094 C 1218.66 2.17667 3.70027 0
M  V30 13095 C 1217.89 1.92861 4.97635 0
M  V30 13096 O 1218.12 0.879072 5.63585 0
M  V30 13097 O 1217.05 2.79402 5.33121 0
M  V30 13098 H 1220.88 2.21786 2.07472 0
M  V30 13099 H 1218.46 1.13488 0.971645 0
M  V30 13100 H 1220.34 0.869099 4.1234 0
M  V30 13101 H 1219.02 0.0671036 3.2363 0
M  V30 13102 H 1217.93 2.36025 2.90246 0
M  V30 13103 H 1219.26 3.09006 3.83114 0
M  V30 13104 N 1220.91 -1.05686 1.16912 0
M  V30 13105 C 1222.16 -1.78597 0.954425 0
M  V30 13106 C 1222.49 -1.87494 -0.517315 0
M  V30 13107 O 1221.74 -1.36736 -1.40006 0
M  V30 13108 C 1222.04 -3.22779 1.53455 0
M  V30 13109 C 1221.71 -3.3395 3.02965 0
M  V30 13110 C 1220.37 -3.36706 3.43777 0
M  V30 13111 C 1222.72 -3.35371 3.98969 0
M  V30 13112 C 1220.05 -3.38506 4.79198 0
M  V30 13113 C 1222.4 -3.38708 5.34284 0
M  V30 13114 C 1221.06 -3.39749 5.74567 0
M  V30 13115 H 1220.33 -0.653534 0.349249 0
M  V30 13116 H 1222.98 -1.24245 1.45723 0
M  V30 13117 H 1221.29 -3.80025 0.953331 0
M  V30 13118 H 1222.98 -3.77805 1.34404 0
M  V30 13119 H 1219.57 -3.32515 2.70429 0
M  V30 13120 H 1223.76 -3.32447 3.685 0
M  V30 13121 H 1219.01 -3.37619 5.09729 0
M  V30 13122 H 1223.19 -3.38755 6.08455 0
M  V30 13123 H 1220.81 -3.40897 6.7948 0
M  V30 13124 N 1222.39 -0.968567 -1.24324 0
M  V30 13125 C 1223.34 -0.498817 -2.25345 0
M  V30 13126 C 1224.31 0.456082 -1.59716 0
M  V30 13127 O 1225.49 0.366254 -1.87252 0
M  V30 13128 C 1222.63 0.204027 -3.44496 0
M  V30 13129 C 1221.74 -0.789741 -4.2472 0
M  V30 13130 C 1220.88 -0.0629156 -5.31163 0
M  V30 13131 C 1219.92 -1.04669 -6.03084 0
M  V30 13132 N 1219.05 -0.349812 -7.01228 0
M  V30 13133 H 1223.89 -1.36511 -2.64894 0
M  V30 13134 H 1221.43 -0.684288 -1.30215 0
M  V30 13135 H 1223.39 0.628223 -4.12443 0
M  V30 13136 H 1222.02 1.03426 -3.05782 0
M  V30 13137 H 1221.07 -1.33237 -3.56303 0
M  V30 13138 H 1222.38 -1.53988 -4.74436 0
M  V30 13139 H 1221.54 0.419233 -6.0525 0
M  V30 13140 H 1220.28 0.719915 -4.82357 0
M  V30 13141 H 1219.28 -1.53971 -5.278 0
M  V30 13142 H 1220.51 -1.82998 -6.53979 0
M  V30 13143 H 1218.45 0.414026 -6.54692 0
M  V30 13144 H 1218.37 -1.03881 -7.48829 0
M  V30 13145 H 1219.64 0.11034 -7.79422 0
M  V30 13146 N 1223.87 1.39211 -0.738786 0
M  V30 13147 C 1224.81 2.30578 -0.10129 0
M  V30 13148 C 1225.78 1.49412 0.725616 0
M  V30 13149 O 1226.97 1.78087 0.684799 0
M  V30 13150 C 1224.11 3.35767 0.797161 0
M  V30 13151 C 1223.22 4.31979 -0.0427701 0
M  V30 13152 C 1222.36 5.24236 0.857306 0
M  V30 13153 C 1221.4 6.12099 0.0128501 0
M  V30 13154 N 1220.53 6.96701 0.869067 0
M  V30 13155 H 1225.37 2.84522 -0.88606 0
M  V30 13156 H 1222.91 1.40093 -0.448602 0
M  V30 13157 H 1224.87 3.95347 1.33255 0
M  V30 13158 H 1223.5 2.83268 1.54787 0
M  V30 13159 H 1222.55 3.73986 -0.695622 0
M  V30 13160 H 1223.86 4.93927 -0.69555 0
M  V30 13161 H 1223.02 5.88861 1.4604 0
M  V30 13162 H 1221.75 4.62619 1.54386 0
M  V30 13163 H 1220.76 5.46483 -0.603018 0
M  V30 13164 H 1221.98 6.75781 -0.67054 0
M  V30 13165 H 1219.93 6.37647 1.54084 0
M  V30 13166 H 1219.85 7.55507 0.272852 0
M  V30 13167 H 1221.12 7.65751 1.4576 0
M  V30 13168 N 1225.34 0.486708 1.49896 0
M  V30 13169 C 1226.62 -0.125183 1.95199 0
M  V30 13170 C 1227 -1.55498 1.42771 0
M  V30 13171 O 1226.35 -2.1949 0.635322 0
M  V30 13172 C 1226.56 -0.0524982 3.48961 0
M  V30 13173 C 1227.91 -0.233595 4.23957 0
M  V30 13174 O 1228.93 -0.128357 3.55969 0
M  V30 13175 O 1227.79 -0.447862 5.44662 0
M  V30 13176 H 1224.88 -0.103141 0.820543 0
M  V30 13177 H 1227.43 0.548226 1.60601 0
M  V30 13178 H 1226.2 0.945163 3.79714 0
M  V30 13179 H 1225.83 -0.766683 3.90138 0
M  V30 13180 N 1226.82 -1.56058 0.219941 0
M  V30 13181 C 1228.05 -2.031 -0.42014 0
M  V30 13182 C 1228.47 -1.09875 -1.52673 0
M  V30 13183 O 1227.83 -0.0866458 -1.81093 0
M  V30 13184 C 1227.88 -3.48389 -0.93047 0
M  V30 13185 O 1226.98 -3.583 -2.04192 0
M  V30 13186 H 1226.32 -0.657129 -0.0952772 0
M  V30 13187 H 1228.85 -2.01787 0.338105 0
M  V30 13188 H 1228.86 -3.88678 -1.2407 0
M  V30 13189 H 1227.54 -4.15725 -0.120539 0
M  V30 13190 H 1226.12 -3.29898 -1.73845 0
M  V30 13191 N 1228.3 0.053464 -1.57509 0
M  V30 13192 C 1229.53 0.760429 -1.92096 0
M  V30 13193 C 1229.94 1.70703 -0.815905 0
M  V30 13194 O 1229.28 1.82398 0.218332 0
M  V30 13195 C 1229.34 1.59255 -3.22301 0
M  V30 13196 C 1229.01 0.813355 -4.49704 0
M  V30 13197 C 1230.01 0.124402 -5.19751 0
M  V30 13198 C 1227.69 0.775106 -4.96284 0
M  V30 13199 C 1229.68 -0.59237 -6.34641 0
M  V30 13200 C 1227.37 0.0545728 -6.11076 0
M  V30 13201 C 1228.37 -0.627948 -6.80107 0
M  V30 13202 O 1228.06 -1.33683 -7.92707 0
M  V30 13203 H 1227.79 0.220287 -0.639101 0
M  V30 13204 H 1230.34 0.0224505 -2.05388 0
M  V30 13205 H 1228.57 2.37376 -3.05269 0
M  V30 13206 H 1230.26 2.17987 -3.42398 0
M  V30 13207 H 1231.03 0.145141 -4.84783 0
M  V30 13208 H 1226.91 1.29583 -4.42413 0
M  V30 13209 H 1230.45 -1.12565 -6.88458 0
M  V30 13210 H 1226.35 0.0318254 -6.45492 0
M  V30 13211 H 1227.12 -1.24799 -8.0893 0
M  V30 13212 N 1229.78 1.54207 0.325255 0
M  V30 13213 C 1231.03 1.71544 1.06091 0
M  V30 13214 C 1231.34 0.495137 1.89229 0
M  V30 13215 O 1232.55 0.54982 2.65874 0
M  V30 13216 C 1231 3.03412 1.93569 0
M  V30 13217 C 1230.61 4.32842 1.1555 0
M  V30 13218 C 1232.36 3.30113 2.66881 0
M  V30 13219 C 1230.26 5.55773 2.02164 0
M  V30 13220 H 1229.19 0.639281 0.399795 0
M  V30 13221 H 1231.84 1.80701 0.319261 0
M  V30 13222 H 1230.23 2.88158 2.71626 0
M  V30 13223 H 1231.4 4.58857 0.42276 0
M  V30 13224 H 1229.71 4.12893 0.539277 0
M  V30 13225 H 1232.31 4.19151 3.31988 0
M  V30 13226 H 1232.65 2.47918 3.34428 0
M  V30 13227 H 1233.19 3.46227 1.95887 0
M  V30 13228 H 1229.93 6.40565 1.39128 0
M  V30 13229 H 1229.45 5.3398 2.73177 0
M  V30 13230 H 1231.13 5.92113 2.60789 0
M  V30 13231 N 1231.26 -0.58723 1.46251 0
M  V30 13232 C 1232.51 -1.34294 1.51028 0
M  V30 13233 C 1232.83 -1.94329 0.161623 0
M  V30 13234 O 1232.1 -1.78309 -0.811342 0
M  V30 13235 H 1230.68 -0.498607 0.556238 0
M  V30 13236 H 1233.34 -0.688074 1.8235 0
M  V30 13237 H 1232.43 -2.15197 2.26045 0
M  V30 13238 N 1232.74 -1.33881 -0.831482 0
M  V30 13239 C 1233.98 -1.25755 -1.58719 0
M  V30 13240 C 1234.31 0.174746 -1.93713 0
M  V30 13241 O 1233.57 1.13384 -1.59507 0
M  V30 13242 C 1233.86 -2.08544 -2.90249 0
M  V30 13243 C 1233.53 -3.57651 -2.74585 0
M  V30 13244 C 1232.19 -3.983 -2.7002 0
M  V30 13245 C 1234.54 -4.52369 -2.58866 0
M  V30 13246 C 1231.87 -5.31872 -2.47647 0
M  V30 13247 C 1234.22 -5.86112 -2.38025 0
M  V30 13248 C 1232.89 -6.25934 -2.31867 0
M  V30 13249 H 1232.16 -0.460171 -0.580796 0
M  V30 13250 H 1234.81 -1.6554 -0.96274 0
M  V30 13251 H 1233.11 -1.6156 -3.56939 0
M  V30 13252 H 1234.81 -1.99609 -3.47789 0
M  V30 13253 H 1231.4 -3.2538 -2.78973 0
M  V30 13254 H 1235.58 -4.21868 -2.61421 0
M  V30 13255 H 1230.84 -5.61756 -2.41331 0
M  V30 13256 H 1235.01 -6.59103 -2.24847 0
M  V30 13257 H 1232.64 -7.29372 -2.14291 0
M  V30 13258 N 1234.21 1.05064 -1.1747 0
M  V30 13259 C 1235.49 1.74999 -0.873776 0
M  V30 13260 C 1235.87 2.01615 0.625676 0
M  V30 13261 O 1235.22 1.65324 1.57734 0
M  V30 13262 C 1235.43 3.04231 -1.7101 0
M  V30 13263 C 1236.78 3.78157 -1.93087 0
M  V30 13264 O 1237.8 3.14104 -1.6798 0
M  V30 13265 O 1236.66 4.93255 -2.3529 0
M  V30 13266 H 1233.75 0.761042 -0.323641 0
M  V30 13267 H 1236.3 1.1122 -1.28172 0
M  V30 13268 H 1235.07 2.80621 -2.72704 0
M  V30 13269 H 1234.69 3.75746 -1.30002 0
M  V30 13270 N 1235.69 0.975146 1.23809 0
M  V30 13271 C 1236.65 0.516157 2.23312 0
M  V30 13272 C 1237.65 -0.39136 1.55965 0
M  V30 13273 O 1238.84 -0.185783 1.73206 0
M  V30 13274 C 1235.98 -0.251534 3.39971 0
M  V30 13275 H 1237.17 1.3959 2.65433 0
M  V30 13276 H 1234.72 0.760493 1.36551 0
M  V30 13277 H 1235.46 -1.14805 3.03299 0
M  V30 13278 H 1235.24 0.399825 3.90056 0
M  V30 13279 H 1236.73 -0.561438 4.13809 0
M  V30 13280 N 1237.17 -1.38817 0.746158 0
M  V30 13281 C 1238.13 -2.28876 0.121886 0
M  V30 13282 C 1239.13 -1.46838 -0.655379 0
M  V30 13283 O 1240.32 -1.67377 -0.482744 0
M  V30 13284 C 1237.45 -3.30487 -0.836118 0
M  V30 13285 H 1238.65 -2.85586 0.915453 0
M  V30 13286 H 1236.2 -1.47652 0.512691 0
M  V30 13287 H 1236.94 -2.78853 -1.65563 0
M  V30 13288 H 1236.72 -3.9109 -0.281271 0
M  V30 13289 H 1238.21 -3.97848 -1.26914 0
M  V30 13290 N 1238.65 -0.49465 -1.49636 0
M  V30 13291 C 1239.89 0.0521945 -2.02733 0
M  V30 13292 C 1240.23 1.3723 -1.37411 0
M  V30 13293 O 1239.5 1.87758 -0.507642 0
M  V30 13294 C 1239.78 0.2114 -3.59479 0
M  V30 13295 C 1239.64 -1.13138 -4.35339 0
M  V30 13296 C 1240.96 0.955015 -4.29613 0
M  V30 13297 H 1238.08 0.0174946 -0.736792 0
M  V30 13298 H 1240.72 -0.644827 -1.78723 0
M  V30 13299 H 1238.87 0.805078 -3.80067 0
M  V30 13300 H 1240.54 -1.76345 -4.26263 0
M  V30 13301 H 1238.78 -1.72224 -3.98147 0
M  V30 13302 H 1239.45 -0.97336 -5.4335 0
M  V30 13303 H 1241.93 0.451575 -4.13642 0
M  V30 13304 H 1240.81 1.03524 -5.39049 0
M  V30 13305 H 1241.07 1.99724 -3.94414 0
M  V30 13306 N 1240.13 1.55939 -0.228214 0
M  V30 13307 C 1241.37 1.97652 0.402067 0
M  V30 13308 C 1241.69 1.11911 1.60422 0
M  V30 13309 O 1242.89 1.43552 2.30445 0
M  V30 13310 C 1241.35 3.51638 0.766724 0
M  V30 13311 C 1240.96 4.46092 -0.412991 0
M  V30 13312 C 1242.7 4.02049 1.36224 0
M  V30 13313 C 1240.61 5.91394 -0.0255281 0
M  V30 13314 H 1239.54 0.738107 0.153994 0
M  V30 13315 H 1242.19 1.8059 -0.32548 0
M  V30 13316 H 1240.57 3.64325 1.55188 0
M  V30 13317 H 1241.75 4.45156 -1.19049 0
M  V30 13318 H 1240.06 4.0606 -0.92218 0
M  V30 13319 H 1242.66 5.08111 1.66514 0
M  V30 13320 H 1243 3.48292 2.28032 0
M  V30 13321 H 1243.53 3.92612 0.640378 0
M  V30 13322 H 1240.27 6.49149 -0.910269 0
M  V30 13323 H 1239.79 5.95509 0.716149 0
M  V30 13324 H 1241.47 6.4577 0.398839 0
M  V30 13325 N 1241.6 -0.0451101 1.57535 0
M  V30 13326 C 1242.88 -0.773625 1.79651 0
M  V30 13327 C 1243.26 -1.94422 0.822391 0
M  V30 13328 O 1242.61 -2.28077 -0.138913 0
M  V30 13329 C 1242.82 -1.22168 3.26919 0
M  V30 13330 C 1244.17 -1.64419 3.91474 0
M  V30 13331 O 1245.19 -1.31668 3.30971 0
M  V30 13332 O 1244.05 -2.25148 4.97967 0
M  V30 13333 H 1241.14 -0.372786 0.738214 0
M  V30 13334 H 1243.69 -0.0231245 1.69684 0
M  V30 13335 H 1242.46 -0.385302 3.89398 0
M  V30 13336 H 1242.09 -2.03269 3.41713 0
M  V30 13337 N 1243.08 -1.54377 -0.317073 0
M  V30 13338 C 1244.36 -1.63551 -1.07287 0
M  V30 13339 C 1244.74 -0.473499 -2.05721 0
M  V30 13340 O 1244.09 0.531545 -2.22232 0
M  V30 13341 C 1244.3 -3.00842 -1.76904 0
M  V30 13342 C 1245.65 -3.57111 -2.29689 0
M  V30 13343 O 1246.67 -3.0319 -1.86961 0
M  V30 13344 O 1245.53 -4.51486 -3.07932 0
M  V30 13345 H 1242.62 -0.662557 -0.494922 0
M  V30 13346 H 1245.17 -1.66723 -0.316444 0
M  V30 13347 H 1243.94 -3.76854 -1.05341 0
M  V30 13348 H 1243.56 -3.01377 -2.59341 0
M  V30 13349 N 1244.56 0.579466 -1.4656 0
M  V30 13350 C 1245.81 1.33492 -1.51738 0
M  V30 13351 C 1246.13 1.94241 -0.171926 0
M  V30 13352 O 1245.4 1.78737 0.801875 0
M  V30 13353 H 1243.98 0.49565 -0.558874 0
M  V30 13354 H 1246.64 0.678394 -1.82712 0
M  V30 13355 H 1245.74 2.13995 -2.27183 0
M  V30 13356 N 1246.04 1.3432 0.824371 0
M  V30 13357 C 1246.99 1.25776 1.93517 0
M  V30 13358 C 1247.96 0.133298 1.65564 0
M  V30 13359 O 1249.14 0.31403 1.88198 0
M  V30 13360 C 1246.28 1.01766 3.29754 0
M  V30 13361 C 1245.39 2.22973 3.7001 0
M  V30 13362 C 1244.53 1.92258 4.95187 0
M  V30 13363 C 1243.57 3.09616 5.2802 0
M  V30 13364 N 1242.7 2.78793 6.44375 0
M  V30 13365 H 1247.54 2.20774 2.00157 0
M  V30 13366 H 1245.08 1.09766 0.979274 0
M  V30 13367 H 1247.04 0.858831 4.08265 0
M  V30 13368 H 1245.67 0.10437 3.22631 0
M  V30 13369 H 1244.72 2.49781 2.86903 0
M  V30 13370 H 1246.03 3.10661 3.90245 0
M  V30 13371 H 1245.19 1.73102 5.81481 0
M  V30 13372 H 1243.93 1.01827 4.76951 0
M  V30 13373 H 1242.93 3.29368 4.40223 0
M  V30 13374 H 1244.16 4.00822 5.48196 0
M  V30 13375 H 1242.1 1.90938 6.27598 0
M  V30 13376 H 1242.02 3.60014 6.64775 0
M  V30 13377 H 1243.29 2.63139 7.33743 0
M  V30 13378 N 1247.52 -1.0444 1.18026 0
M  V30 13379 C 1248.76 -1.77972 0.984767 0
M  V30 13380 C 1249.12 -1.86294 -0.480861 0
M  V30 13381 O 1248.41 -1.35724 -1.35239 0
M  V30 13382 C 1248.6 -3.21134 1.56869 0
M  V30 13383 C 1248.43 -3.26765 3.08958 0
M  V30 13384 C 1247.2 -3.35612 3.77747 0
M  V30 13385 C 1249.4 -3.15083 4.06482 0
M  V30 13386 N 1247.38 -3.30454 5.17372 0
M  V30 13387 C 1248.75 -3.17382 5.32606 0
M  V30 13388 C 1250.81 -2.99099 3.98051 0
M  V30 13389 C 1249.51 -3.05338 6.51277 0
M  V30 13390 C 1251.54 -2.88399 5.16314 0
M  V30 13391 C 1250.9 -2.91338 6.41328 0
M  V30 13392 H 1247 -0.66322 0.414323 0
M  V30 13393 H 1249.58 -1.24444 1.49739 0
M  V30 13394 H 1247.75 -3.73016 1.0823 0
M  V30 13395 H 1249.49 -3.82943 1.30908 0
M  V30 13396 H 1246.24 -3.41189 3.28462 0
M  V30 13397 H 1246.67 -3.31324 5.90384 0
M  V30 13398 H 1251.31 -2.95659 3.02234 0
M  V30 13399 H 1249.03 -3.07531 7.47296 0
M  V30 13400 H 1252.61 -2.77091 5.11578 0
M  V30 13401 H 1251.49 -2.83141 7.31301 0
M  V30 13402 N 1248.99 -0.981699 -1.2329 0
M  V30 13403 C 1250.22 -0.668399 -1.95489 0
M  V30 13404 C 1250.63 0.768976 -1.72868 0
M  V30 13405 O 1249.98 1.52925 -1.01783 0
M  V30 13406 C 1250.04 -0.880535 -3.4855 0
M  V30 13407 C 1249.7 -2.30023 -3.9489 0
M  V30 13408 C 1250.7 -3.27899 -4.03458 0
M  V30 13409 C 1248.38 -2.63167 -4.27842 0
M  V30 13410 C 1250.38 -4.56999 -4.44332 0
M  V30 13411 C 1248.06 -3.92489 -4.68397 0
M  V30 13412 C 1249.06 -4.89216 -4.76609 0
M  V30 13413 O 1248.75 -6.16229 -5.16253 0
M  V30 13414 H 1248.48 -0.247255 -0.629159 0
M  V30 13415 H 1251.04 -1.31606 -1.57699 0
M  V30 13416 H 1249.27 -0.175698 -3.86301 0
M  V30 13417 H 1250.96 -0.564198 -4.0196 0
M  V30 13418 H 1251.72 -3.03624 -3.78203 0
M  V30 13419 H 1247.6 -1.88588 -4.20661 0
M  V30 13420 H 1251.14 -5.32498 -4.50656 0
M  V30 13421 H 1247.04 -4.16558 -4.93102 0
M  V30 13422 H 1247.81 -6.20001 -5.34361 0
M  V30 13423 N 1250.47 1.3842 -0.753509 0
M  V30 13424 C 1251.7 2.04929 -0.319174 0
M  V30 13425 C 1252.12 1.56457 1.04416 0
M  V30 13426 O 1251.48 0.716527 1.6654 0
M  V30 13427 C 1251.53 3.58887 -0.351054 0
M  V30 13428 O 1250.63 4.07166 0.654963 0
M  V30 13429 H 1249.97 0.648782 -0.141343 0
M  V30 13430 H 1252.5 1.77096 -1.02461 0
M  V30 13431 H 1252.51 4.075 -0.201907 0
M  V30 13432 H 1251.19 3.93525 -1.34576 0
M  V30 13433 H 1249.77 3.69921 0.470435 0
M  V30 13434 N 1251.95 0.502579 1.49372 0
M  V30 13435 C 1253.2 -0.0334303 2.03373 0
M  V30 13436 C 1253.55 -1.34548 1.3753 0
M  V30 13437 O 1252.84 -1.84894 0.502484 0
M  V30 13438 C 1253.04 -0.240835 3.56588 0
M  V30 13439 C 1252.87 1.04956 4.37281 0
M  V30 13440 C 1251.64 1.6018 4.7924 0
M  V30 13441 C 1253.84 1.95323 4.75766 0
M  V30 13442 N 1251.82 2.83793 5.44366 0
M  V30 13443 C 1253.19 3.03516 5.40628 0
M  V30 13444 C 1255.24 1.95982 4.57707 0
M  V30 13445 C 1253.95 4.12396 5.89341 0
M  V30 13446 C 1255.97 3.03839 5.07382 0
M  V30 13447 C 1255.33 4.10749 5.72245 0
M  V30 13448 H 1251.43 0.0285863 0.781477 0
M  V30 13449 H 1254.02 0.677787 1.82522 0
M  V30 13450 H 1252.19 -0.921111 3.7732 0
M  V30 13451 H 1253.92 -0.773993 3.9723 0
M  V30 13452 H 1250.68 1.14674 4.59507 0
M  V30 13453 H 1251.1 3.46654 5.81515 0
M  V30 13454 H 1255.74 1.14632 4.06963 0
M  V30 13455 H 1253.46 4.94542 6.39104 0
M  V30 13456 H 1257.05 3.0537 4.95218 0
M  V30 13457 H 1255.93 4.92833 6.09988 0
M  V30 13458 N 1253.43 -1.55816 0.23648 0
M  V30 13459 C 1254.65 -2.03534 -0.398575 0
M  V30 13460 C 1255.08 -1.11488 -1.51499 0
M  V30 13461 O 1254.44 -0.105848 -1.80991 0
M  V30 13462 C 1254.48 -3.49356 -0.893467 0
M  V30 13463 O 1253.59 -3.60446 -2.00381 0
M  V30 13464 H 1252.93 -0.658102 -0.0883021 0
M  V30 13465 H 1255.46 -2.01417 0.359488 0
M  V30 13466 H 1255.47 -3.89972 -1.19941 0
M  V30 13467 H 1254.14 -4.1583 -0.0764388 0
M  V30 13468 H 1252.72 -3.31723 -1.70336 0
M  V30 13469 N 1254.91 0.036755 -1.57557 0
M  V30 13470 C 1256.18 0.764087 -1.80059 0
M  V30 13471 C 1256.56 1.93983 -0.83269 0
M  V30 13472 O 1255.91 2.28148 0.126815 0
M  V30 13473 C 1256.12 1.20433 -3.27562 0
M  V30 13474 C 1257.47 1.6234 -3.9234 0
M  V30 13475 O 1258.49 1.29911 -3.31665 0
M  V30 13476 O 1257.35 2.22504 -4.99154 0
M  V30 13477 H 1254.45 0.368866 -0.74018 0
M  V30 13478 H 1256.99 0.0141254 -1.69694 0
M  V30 13479 H 1255.76 0.364646 -3.89597 0
M  V30 13480 H 1255.39 2.01454 -3.42786 0
M  V30 13481 N 1256.39 1.54543 0.308881 0
M  V30 13482 C 1257.61 1.77431 1.06422 0
M  V30 13483 C 1258.03 0.529972 1.81209 0
M  V30 13484 O 1257.39 -0.499912 1.7552 0
M  V30 13485 C 1257.44 2.9769 2.05092 0
M  V30 13486 O 1257.16 4.17315 1.33341 0
M  V30 13487 C 1258.66 3.32905 2.92727 0
M  V30 13488 H 1255.88 0.591961 0.315948 0
M  V30 13489 H 1258.42 2.01473 0.350547 0
M  V30 13490 H 1256.58 2.7588 2.71973 0
M  V30 13491 H 1256.99 4.85061 1.99539 0
M  V30 13492 H 1258.47 4.20314 3.57827 0
M  V30 13493 H 1258.94 2.50713 3.6061 0
M  V30 13494 H 1259.55 3.56847 2.31388 0
M  V30 13495 N 1257.86 -0.571685 1.46866 0
M  V30 13496 C 1259.09 -1.35524 1.56336 0
M  V30 13497 C 1259.51 -1.87647 0.208359 0
M  V30 13498 O 1258.86 -1.64219 -0.796136 0
M  V30 13499 C 1258.91 -2.53518 2.57703 0
M  V30 13500 O 1258.64 -2.03552 3.87941 0
M  V30 13501 C 1260.14 -3.45925 2.77219 0
M  V30 13502 H 1257.36 -0.41363 0.528348 0
M  V30 13503 H 1259.9 -0.693943 1.92366 0
M  V30 13504 H 1258.06 -3.15615 2.24647 0
M  V30 13505 H 1258.47 -2.80476 4.43208 0
M  V30 13506 H 1259.94 -4.2517 3.52043 0
M  V30 13507 H 1260.42 -3.98559 1.8452 0
M  V30 13508 H 1261.03 -2.89655 3.11416 0
M  V30 13509 N 1259.34 -1.34755 -0.817236 0
M  V30 13510 C 1260.29 -1.26816 -1.94988 0
M  V30 13511 C 1261.28 -0.165142 -1.68593 0
M  V30 13512 O 1262.49 -0.330469 -1.7694 0
M  V30 13513 H 1258.86 -0.394113 -0.640452 0
M  V30 13514 H 1260.84 -2.22528 -1.98806 0
M  V30 13515 C 1259.58 -1.04625 -3.31586 0
M  V30 13516 H 1258.91 -1.88735 -3.52447 0
M  V30 13517 H 1260.35 -1.03108 -4.11272 0
M  V30 13518 C 1258.81 0.250283 -3.35969 0
M  V30 13519 O 1259.34 1.24972 -3.81765 0
M  V30 13520 N 1257.54 0.285369 -2.89195 0
M  V30 13521 H 1257.09 -0.528528 -2.5212 0
M  V30 13522 H 1257.05 1.15261 -2.9251 0
M  V30 13523 N 1260.82 1.03812 -1.18578 0
M  V30 13524 C 1262.04 1.8124 -1.00831 0
M  V30 13525 C 1262.47 1.82917 0.43853 0
M  V30 13526 O 1261.83 1.24835 1.31476 0
M  V30 13527 C 1261.88 3.24592 -1.57075 0
M  V30 13528 O 1260.98 4.04688 -0.793824 0
M  V30 13529 H 1260.32 0.559846 -0.357028 0
M  V30 13530 H 1262.85 1.30724 -1.57393 0
M  V30 13531 H 1262.86 3.75363 -1.59896 0
M  V30 13532 H 1261.54 3.22686 -2.62387 0
M  V30 13533 H 1260.11 3.63359 -0.838134 0
M  V30 13534 N 1262.3 0.988223 1.22768 0
M  V30 13535 C 1263.23 0.492919 2.23837 0
M  V30 13536 C 1264.24 -0.409467 1.57567 0
M  V30 13537 O 1265.43 -0.21235 1.77232 0
M  V30 13538 C 1262.53 -0.305428 3.37521 0
M  V30 13539 C 1261.7 0.591966 4.33376 0
M  V30 13540 C 1260.76 -0.15387 5.25975 0
M  V30 13541 O 1259.79 0.459153 5.67345 0
M  V30 13542 N 1260.99 -1.43756 5.62418 0
M  V30 13543 H 1263.76 1.36199 2.66965 0
M  V30 13544 H 1261.32 0.862395 1.3702 0
M  V30 13545 H 1263.31 -0.812921 3.96451 0
M  V30 13546 H 1261.88 -1.07556 2.93514 0
M  V30 13547 H 1261.1 1.28019 3.72833 0
M  V30 13548 H 1262.39 1.20327 4.94367 0
M  V30 13549 H 1261.79 -1.95701 5.30771 0
M  V30 13550 H 1260.34 -1.89034 6.23786 0
M  V30 13551 N 1263.78 -1.38018 0.760839 0
M  V30 13552 C 1264.72 -2.30387 0.13796 0
M  V30 13553 C 1265.69 -1.50548 -0.701754 0
M  V30 13554 O 1266.88 -1.79154 -0.656381 0
M  V30 13555 C 1264.02 -3.36993 -0.743642 0
M  V30 13556 C 1263.13 -4.31856 0.111489 0
M  V30 13557 C 1262.27 -5.25534 -0.773796 0
M  V30 13558 C 1261.3 -6.12042 0.0845311 0
M  V30 13559 N 1260.44 -6.97995 -0.758118 0
M  V30 13560 H 1265.28 -2.83077 0.931212 0
M  V30 13561 H 1262.82 -1.39361 0.470833 0
M  V30 13562 H 1264.78 -3.97417 -1.26948 0
M  V30 13563 H 1263.41 -2.85695 -1.50261 0
M  V30 13564 H 1262.46 -3.72832 0.755031 0
M  V30 13565 H 1263.77 -4.92758 0.774042 0
M  V30 13566 H 1262.92 -5.9111 -1.36653 0
M  V30 13567 H 1261.66 -4.65017 -1.47006 0
M  V30 13568 H 1260.67 -5.45455 0.689883 0
M  V30 13569 H 1261.89 -6.74629 0.777966 0
M  V30 13570 H 1259.84 -6.40018 -1.4392 0
M  V30 13571 H 1259.76 -7.55846 -0.152623 0
M  V30 13572 H 1261.02 -7.67973 -1.33559 0
M  V30 13573 N 1265.25 -0.510493 -1.49103 0
M  V30 13574 C 1266.48 0.0271718 -2.06882 0
M  V30 13575 C 1266.9 1.2995 -1.36962 0
M  V30 13576 O 1266.25 1.76842 -0.450916 0
M  V30 13577 C 1266.3 0.274956 -3.60453 0
M  V30 13578 O 1266.03 -0.946941 -4.27744 0
M  V30 13579 C 1267.53 0.855197 -4.34973 0
M  V30 13580 H 1264.75 -0.024732 -0.670544 0
M  V30 13581 H 1267.29 -0.710567 -1.91758 0
M  V30 13582 H 1265.45 0.962696 -3.75248 0
M  V30 13583 H 1265.86 -0.715627 -5.19595 0
M  V30 13584 H 1267.33 0.978103 -5.43265 0
M  V30 13585 H 1267.81 1.85535 -3.98087 0
M  V30 13586 H 1268.42 0.204632 -4.24807 0
M  V30 13587 N 1266.73 1.55688 -0.24474 0
M  V30 13588 C 1267.68 2.22682 0.67198 0
M  V30 13589 C 1268.67 1.21369 1.18178 0
M  V30 13590 O 1269.88 1.39387 1.13892 0
M  V30 13591 H 1266.25 0.714279 0.235181 0
M  V30 13592 H 1268.23 2.98282 0.0837704 0
M  V30 13593 C 1266.97 2.93835 1.85893 0
M  V30 13594 H 1266.3 3.71565 1.4758 0
M  V30 13595 H 1267.74 3.44077 2.47764 0
M  V30 13596 C 1266.2 1.97589 2.72874 0
M  V30 13597 O 1266.73 1.50758 3.72337 0
M  V30 13598 N 1264.93 1.64737 2.39395 0
M  V30 13599 H 1264.48 2.03015 1.58564 0
M  V30 13600 H 1264.44 1.00605 2.97869 0
M  V30 13601 N 1268.21 -0.0283989 1.57574 0
M  V30 13602 C 1269.44 -0.730831 1.93563 0
M  V30 13603 C 1269.85 -1.68857 0.844556 0
M  V30 13604 O 1269.21 -1.8162 -0.178971 0
M  V30 13605 C 1269.26 -1.48731 3.29486 0
M  V30 13606 O 1268.98 -0.568017 4.34402 0
M  V30 13607 C 1270.48 -2.28684 3.79761 0
M  V30 13608 H 1267.7 -0.205346 0.638807 0
M  V30 13609 H 1270.25 0.0142728 2.04495 0
M  V30 13610 H 1268.4 -2.18429 3.19949 0
M  V30 13611 H 1268.82 -1.09861 5.12865 0
M  V30 13612 H 1270.29 -2.77157 4.77376 0
M  V30 13613 H 1270.77 -3.10133 3.10989 0
M  V30 13614 H 1271.37 -1.64059 3.92383 0
M  V30 13615 N 1269.69 -1.54705 -0.300681 0
M  V30 13616 C 1270.62 -1.80561 -1.39546 0
M  V30 13617 C 1271.6 -0.656825 -1.48743 0
M  V30 13618 O 1272.78 -0.896815 -1.658 0
M  V30 13619 C 1269.91 -1.94261 -2.77453 0
M  V30 13620 C 1268.96 -3.16687 -2.85678 0
M  V30 13621 S 1269.79 -4.74747 -2.47741 0
M  V30 13622 C 1270.94 -4.91384 -3.87676 0
M  V30 13623 H 1271.18 -2.73136 -1.17405 0
M  V30 13624 H 1268.71 -1.46121 -0.498809 0
M  V30 13625 H 1270.67 -2.0284 -3.56884 0
M  V30 13626 H 1269.33 -1.02623 -2.96862 0
M  V30 13627 H 1268.52 -3.23076 -3.8683 0
M  V30 13628 H 1268.12 -3.06556 -2.14241 0
M  V30 13629 H 1270.42 -4.75427 -4.82676 0
M  V30 13630 H 1271.36 -5.93475 -3.86256 0
M  V30 13631 H 1271.77 -4.19533 -3.77693 0
M  V30 13632 N 1271.17 0.563888 -1.47167 0
M  V30 13633 C 1272.11 1.69254 -1.59549 0
M  V30 13634 C 1273.11 1.62948 -0.463078 0
M  V30 13635 O 1274.31 1.68214 -0.640639 0
M  V30 13636 H 1270.69 0.559925 -0.501984 0
M  V30 13637 H 1272.66 1.55946 -2.54408 0
M  V30 13638 C 1271.41 3.0762 -1.62066 0
M  V30 13639 H 1270.73 3.13151 -2.48549 0
M  V30 13640 H 1272.17 3.863 -1.74781 0
M  V30 13641 C 1270.63 3.35048 -0.352721 0
M  V30 13642 O 1271.16 3.9793 0.549053 0
M  V30 13643 N 1269.37 2.8965 -0.234805 0
M  V30 13644 H 1268.91 2.38657 -0.969561 0
M  V30 13645 H 1268.87 3.08373 0.61263 0
M  V30 13646 N 1272.64 1.35187 0.810078 0
M  V30 13647 C 1273.87 1.31181 1.59609 0
M  V30 13648 C 1274.28 -0.113556 1.88859 0
M  V30 13649 O 1273.63 -1.07491 1.48968 0
M  V30 13650 C 1273.69 2.04749 2.95496 0
M  V30 13651 C 1273.35 3.53952 2.89079 0
M  V30 13652 C 1274.35 4.48612 2.6276 0
M  V30 13653 C 1272.03 3.96551 3.08306 0
M  V30 13654 C 1274.03 5.83846 2.5574 0
M  V30 13655 C 1271.71 5.31881 3.00909 0
M  V30 13656 C 1272.71 6.2534 2.74661 0
M  V30 13657 O 1272.4 7.58188 2.6722 0
M  V30 13658 H 1272.13 0.452285 0.502408 0
M  V30 13659 H 1274.69 1.78571 1.01497 0
M  V30 13660 H 1272.92 1.51992 3.55577 0
M  V30 13661 H 1274.61 1.93866 3.5661 0
M  V30 13662 H 1275.37 4.1702 2.47628 0
M  V30 13663 H 1271.25 3.24194 3.27749 0
M  V30 13664 H 1274.79 6.56765 2.35172 0
M  V30 13665 H 1270.69 5.63088 3.15598 0
M  V30 13666 H 1271.46 7.68073 2.82853 0
M  V30 13667 N 1274.12 -1.03182 1.19127 0
M  V30 13668 C 1275.37 -1.76184 0.990134 0
M  V30 13669 C 1275.69 -1.88986 -0.480546 0
M  V30 13670 O 1274.96 -1.4213 -1.34817 0
M  V30 13671 H 1273.54 -0.652668 0.363364 0
M  V30 13672 H 1276.2 -1.24481 1.49968 0
M  V30 13673 H 1275.3 -2.77119 1.43568 0
M  V30 13674 N 1275.6 -0.99472 -1.22242 0
M  V30 13675 C 1276.83 -0.690097 -1.95052 0
M  V30 13676 C 1277.24 0.745543 -1.73456 0
M  V30 13677 O 1276.6 1.50329 -1.03477 0
M  V30 13678 C 1276.65 -0.988798 -3.47714 0
M  V30 13679 O 1276.37 -2.36803 -3.68587 0
M  V30 13680 C 1277.87 -0.702132 -4.37704 0
M  V30 13681 H 1275.09 -0.255142 -0.620599 0
M  V30 13682 H 1277.64 -1.32998 -1.55344 0
M  V30 13683 H 1275.79 -0.394684 -3.85384 0
M  V30 13684 H 1276.21 -2.4687 -4.62769 0
M  V30 13685 H 1277.68 -0.961389 -5.43564 0
M  V30 13686 H 1278.16 0.363866 -4.3769 0
M  V30 13687 H 1278.76 -1.27738 -4.05664 0
M  V30 13688 N 1277.08 1.37613 -0.768148 0
M  V30 13689 C 1278.01 2.3291 -0.165911 0
M  V30 13690 C 1278.99 1.556 0.687205 0
M  V30 13691 O 1280.17 1.83854 0.625407 0
M  V30 13692 C 1277.3 3.39822 0.7168 0
M  V30 13693 C 1276.26 4.27986 -0.0347264 0
M  V30 13694 C 1275.58 5.2588 0.967192 0
M  V30 13695 C 1276.88 5.08052 -1.21164 0
M  V30 13696 H 1278.58 2.83524 -0.962006 0
M  V30 13697 H 1276.12 1.36318 -0.464051 0
M  V30 13698 H 1278.08 4.05464 1.14789 0
M  V30 13699 H 1276.8 2.87725 1.54538 0
M  V30 13700 H 1275.46 3.6387 -0.446557 0
M  V30 13701 H 1275.11 4.70064 1.79022 0
M  V30 13702 H 1274.81 5.85726 0.468913 0
M  V30 13703 H 1276.33 5.94397 1.3973 0
M  V30 13704 H 1277.75 5.66853 -0.857373 0
M  V30 13705 H 1276.14 5.77206 -1.64176 0
M  V30 13706 H 1277.21 4.40936 -2.0175 0
M  V30 13707 N 1278.56 0.518393 1.4883 0
M  V30 13708 C 1279.5 -0.250684 2.29435 0
M  V30 13709 C 1280.47 -0.944481 1.36634 0
M  V30 13710 O 1281.66 -0.947766 1.65596 0
M  V30 13711 C 1278.8 -1.29871 3.1973 0
M  V30 13712 C 1277.91 -0.61493 4.27601 0
M  V30 13713 C 1277.05 -1.64489 5.05091 0
M  V30 13714 C 1276.09 -0.943932 6.04778 0
M  V30 13715 N 1275.22 -1.91889 6.75369 0
M  V30 13716 H 1280.06 0.44288 2.94691 0
M  V30 13717 H 1277.6 0.230246 1.45287 0
M  V30 13718 H 1279.56 -1.91851 3.70471 0
M  V30 13719 H 1278.19 -1.96081 2.56422 0
M  V30 13720 H 1277.24 0.118552 3.80215 0
M  V30 13721 H 1278.55 -0.063994 4.98759 0
M  V30 13722 H 1277.71 -2.33928 5.59788 0
M  V30 13723 H 1276.44 -2.2297 4.33746 0
M  V30 13724 H 1275.45 -0.235407 5.49296 0
M  V30 13725 H 1276.67 -0.365383 6.78116 0
M  V30 13726 H 1274.62 -2.493 6.06783 0
M  V30 13727 H 1274.54 -1.41909 7.42562 0
M  V30 13728 H 1275.81 -2.60563 7.34661 0
M  V30 13729 N 1280.03 -1.55556 0.252993 0
M  V30 13730 C 1280.96 -2.24613 -0.638047 0
M  V30 13731 C 1281.95 -1.22852 -1.1765 0
M  V30 13732 O 1283.13 -1.51519 -1.21472 0
M  V30 13733 C 1280.26 -2.95029 -1.83236 0
M  V30 13734 C 1279.21 -4.03531 -1.42641 0
M  V30 13735 C 1278.54 -4.61404 -2.70204 0
M  V30 13736 C 1279.84 -5.18923 -0.592958 0
M  V30 13737 H 1281.53 -2.99335 -0.0621918 0
M  V30 13738 H 1279.08 -1.43972 -0.0284722 0
M  V30 13739 H 1281.03 -3.42042 -2.46141 0
M  V30 13740 H 1279.76 -2.17805 -2.43369 0
M  V30 13741 H 1278.42 -3.57296 -0.820672 0
M  V30 13742 H 1278.06 -3.80874 -3.28548 0
M  V30 13743 H 1277.76 -5.34652 -2.43764 0
M  V30 13744 H 1279.29 -5.11154 -3.33997 0
M  V30 13745 H 1280.7 -5.62124 -1.12646 0
M  V30 13746 H 1279.1 -5.98598 -0.424358 0
M  V30 13747 H 1280.17 -4.83301 0.393434 0
M  V30 13748 N 1281.51 0.0200419 -1.57587 0
M  V30 13749 C 1282.42 1.0346 -2.10555 0
M  V30 13750 C 1283.44 1.39035 -1.0462 0
M  V30 13751 O 1284.61 1.48172 -1.36407 0
M  V30 13752 C 1281.68 2.31389 -2.58186 0
M  V30 13753 C 1280.74 2.02311 -3.7864 0
M  V30 13754 C 1279.97 3.24141 -4.23991 0
M  V30 13755 O 1280.2 4.35132 -3.68803 0
M  V30 13756 O 1279.13 3.09312 -5.16342 0
M  V30 13757 H 1282.96 0.614419 -2.9742 0
M  V30 13758 H 1280.54 0.237604 -1.47498 0
M  V30 13759 H 1282.42 3.06582 -2.89112 0
M  V30 13760 H 1281.1 2.72684 -1.74428 0
M  V30 13761 H 1280.01 1.24658 -3.5272 0
M  V30 13762 H 1281.34 1.65866 -4.6341 0
M  V30 13763 N 1282.99 1.54862 0.292472 0
M  V30 13764 C 1284.24 1.74203 1.02458 0
M  V30 13765 C 1284.56 0.535398 1.87506 0
M  V30 13766 O 1283.83 -0.450164 1.90658 0
M  V30 13767 H 1282.41 0.642369 0.381276 0
M  V30 13768 H 1285.07 1.92232 0.321398 0
M  V30 13769 H 1284.17 2.63486 1.67277 0
M  V30 13770 N 1284.47 -0.556076 1.47464 0
M  V30 13771 C 1285.72 -1.30955 1.53407 0
M  V30 13772 C 1286.03 -1.94559 0.201485 0
M  V30 13773 O 1287.24 -2.71144 0.138925 0
M  V30 13774 C 1285.69 -2.37476 2.70431 0
M  V30 13775 C 1285.3 -1.80057 4.10224 0
M  V30 13776 C 1287.04 -3.13997 2.85668 0
M  V30 13777 C 1284.95 -2.84365 5.18547 0
M  V30 13778 H 1283.88 -0.4924 0.571015 0
M  V30 13779 H 1286.53 -0.590459 1.73741 0
M  V30 13780 H 1284.91 -3.12304 2.43479 0
M  V30 13781 H 1286.09 -1.11593 4.47083 0
M  V30 13782 H 1284.4 -1.16116 3.99882 0
M  V30 13783 H 1287 -3.91892 3.63764 0
M  V30 13784 H 1287.34 -3.68253 1.94153 0
M  V30 13785 H 1287.88 -2.46281 3.12395 0
M  V30 13786 H 1284.62 -2.34963 6.11942 0
M  V30 13787 H 1284.14 -3.51235 4.86203 0
M  V30 13788 H 1285.81 -3.47836 5.45545 0
M  V30 13789 N 1285.95 -1.35615 -0.802897 0
M  V30 13790 C 1286.88 -1.23192 -1.92091 0
M  V30 13791 C 1287.86 -0.118995 -1.62164 0
M  V30 13792 O 1289.04 -0.287743 -1.86291 0
M  V30 13793 C 1286.17 -0.897699 -3.26587 0
M  V30 13794 C 1285.22 -2.02319 -3.75459 0
M  V30 13795 S 1286.05 -3.63938 -3.92822 0
M  V30 13796 C 1287.2 -3.32601 -5.30215 0
M  V30 13797 H 1287.44 -2.17825 -2.02335 0
M  V30 13798 H 1284.97 -1.20873 -0.960675 0
M  V30 13799 H 1286.93 -0.711674 -4.04284 0
M  V30 13800 H 1285.59 0.0306305 -3.14085 0
M  V30 13801 H 1284.78 -1.74357 -4.7288 0
M  V30 13802 H 1284.38 -2.16774 -3.04771 0
M  V30 13803 H 1286.68 -2.85658 -6.14334 0
M  V30 13804 H 1287.62 -4.29236 -5.63172 0
M  V30 13805 H 1288.03 -2.68279 -4.96676 0
M  V30 13806 N 1287.43 1.02549 -1.19673 0
M  V30 13807 C 1288.67 1.76265 -1.00293 0
M  V30 13808 C 1289 1.88555 0.464816 0
M  V30 13809 O 1288.28 1.40484 1.34515 0
M  V30 13810 C 1288.56 3.18688 -1.6766 0
M  V30 13811 C 1288.42 3.14247 -3.21821 0
M  V30 13812 C 1289.73 4.17159 -1.40238 0
M  V30 13813 H 1286.85 0.639837 -0.365756 0
M  V30 13814 H 1289.5 1.19691 -1.4756 0
M  V30 13815 H 1287.65 3.66992 -1.27472 0
M  V30 13816 H 1289.32 2.73815 -3.71245 0
M  V30 13817 H 1287.56 2.51874 -3.53188 0
M  V30 13818 H 1288.23 4.14886 -3.64107 0
M  V30 13819 H 1290.71 3.77471 -1.75086 0
M  V30 13820 H 1289.58 5.14997 -1.89919 0
M  V30 13821 H 1289.84 4.4088 -0.328197 0
M  V30 13822 N 1288.9 1.00119 1.21713 0
M  V30 13823 C 1289.87 0.563409 2.22167 0
M  V30 13824 C 1290.87 -0.35819 1.5676 0
M  V30 13825 O 1292.06 -0.149001 1.73562 0
M  V30 13826 C 1289.19 -0.179365 3.40428 0
M  V30 13827 H 1290.38 1.45189 2.62412 0
M  V30 13828 H 1287.93 0.789286 1.34907 0
M  V30 13829 H 1288.67 -1.08345 3.05666 0
M  V30 13830 H 1288.45 0.482471 3.8912 0
M  V30 13831 H 1289.94 -0.473537 4.14906 0
M  V30 13832 N 1290.38 -1.37203 0.775435 0
M  V30 13833 C 1291.61 -2.03868 0.352927 0
M  V30 13834 C 1292.02 -1.58482 -1.0261 0
M  V30 13835 O 1291.38 -0.767772 -1.65564 0
M  V30 13836 C 1291.43 -3.59378 0.39116 0
M  V30 13837 O 1291.15 -4.03103 1.71579 0
M  V30 13838 C 1292.65 -4.4328 -0.0424808 0
M  V30 13839 H 1289.87 -0.654619 0.14736 0
M  V30 13840 H 1292.42 -1.75463 1.05039 0
M  V30 13841 H 1290.57 -3.86542 -0.257752 0
M  V30 13842 H 1290.99 -4.9764 1.65695 0
M  V30 13843 H 1292.46 -5.51989 0.0354215 0
M  V30 13844 H 1292.94 -4.25374 -1.09333 0
M  V30 13845 H 1293.54 -4.21349 0.578384 0
M  V30 13846 N 1291.86 -0.526279 -1.48553 0
M  V30 13847 C 1292.82 0.227739 -2.28066 0
M  V30 13848 C 1293.82 0.871146 -1.35158 0
M  V30 13849 O 1295.01 0.731769 -1.58085 0
M  V30 13850 C 1292.14 1.32918 -3.1392 0
M  V30 13851 H 1293.34 -0.470313 -2.96189 0
M  V30 13852 H 1290.89 -0.282089 -1.53733 0
M  V30 13853 H 1291.63 2.0606 -2.50419 0
M  V30 13854 H 1291.41 0.872991 -3.82258 0
M  V30 13855 H 1292.9 1.85964 -3.73908 0
M  V30 13856 N 1293.34 1.5542 -0.261239 0
M  V30 13857 C 1294.28 2.21972 0.632216 0
M  V30 13858 C 1295.25 1.18843 1.16041 0
M  V30 13859 O 1296.44 1.47339 1.21226 0
M  V30 13860 C 1293.58 2.93397 1.81693 0
M  V30 13861 C 1292.69 4.11214 1.3239 0
M  V30 13862 C 1291.83 4.70318 2.46931 0
M  V30 13863 C 1290.87 5.80355 1.94561 0
M  V30 13864 N 1290 6.33581 3.02523 0
M  V30 13865 H 1294.84 2.97944 0.058018 0
M  V30 13866 H 1292.38 1.4709 0.0168725 0
M  V30 13867 H 1294.34 3.33015 2.5131 0
M  V30 13868 H 1292.97 2.19874 2.36337 0
M  V30 13869 H 1292.02 3.76811 0.521292 0
M  V30 13870 H 1293.33 4.90609 0.900214 0
M  V30 13871 H 1292.49 5.12584 3.24565 0
M  V30 13872 H 1291.23 3.90169 2.92608 0
M  V30 13873 H 1290.23 5.37552 1.15402 0
M  V30 13874 H 1291.46 6.62364 1.49836 0
M  V30 13875 H 1289.4 5.56332 3.47608 0
M  V30 13876 H 1289.32 7.08209 2.64529 0
M  V30 13877 H 1290.59 6.80506 3.80174 0
M  V30 13878 N 1294.82 -0.0116844 1.57596 0
M  V30 13879 C 1296.05 -0.70923 1.94045 0
M  V30 13880 C 1296.45 -1.6848 0.860877 0
M  V30 13881 O 1295.8 -1.82913 -0.169896 0
M  V30 13882 C 1295.86 -1.50653 3.2641 0
M  V30 13883 C 1295.52 -0.693838 4.51702 0
M  V30 13884 C 1296.52 0.0134445 5.19898 0
M  V30 13885 C 1294.2 -0.643252 4.98164 0
M  V30 13886 C 1296.2 0.760426 6.32848 0
M  V30 13887 C 1293.89 0.107462 6.11006 0
M  V30 13888 C 1294.88 0.808045 6.78203 0
M  V30 13889 O 1294.57 1.54654 7.88884 0
M  V30 13890 H 1294.3 -0.203265 0.644716 0
M  V30 13891 H 1296.86 0.0320123 2.05375 0
M  V30 13892 H 1295.09 -2.29199 3.11456 0
M  V30 13893 H 1296.78 -2.08832 3.48058 0
M  V30 13894 H 1297.54 -0.016558 4.84997 0
M  V30 13895 H 1293.42 -1.17807 4.45693 0
M  V30 13896 H 1296.97 1.30779 6.85232 0
M  V30 13897 H 1292.86 0.139327 6.4535 0
M  V30 13898 H 1293.63 1.46202 8.05337 0
M  V30 13899 N 1296.29 -1.55015 -0.284256 0
M  V30 13900 C 1297.54 -1.74744 -1.01532 0
M  V30 13901 C 1297.86 -0.545334 -1.87219 0
M  V30 13902 O 1297.13 0.440046 -1.90894 0
M  V30 13903 H 1295.71 -0.644382 -0.377864 0
M  V30 13904 H 1298.37 -1.92399 -0.311199 0
M  V30 13905 H 1297.47 -2.64369 -1.65878 0
M  V30 13906 N 1297.77 0.548248 -1.47757 0
M  V30 13907 C 1299 1.3302 -1.58472 0
M  V30 13908 C 1299.41 1.87292 -0.238186 0
M  V30 13909 O 1298.77 1.65465 0.76991 0
M  V30 13910 C 1298.82 2.49386 -2.61704 0
M  V30 13911 O 1298.54 1.97355 -3.9113 0
M  V30 13912 C 1300.04 3.41471 -2.82688 0
M  V30 13913 H 1297.26 0.405172 -0.534861 0
M  V30 13914 H 1299.81 0.663251 -1.93446 0
M  V30 13915 H 1297.96 3.12001 -2.29639 0
M  V30 13916 H 1298.38 2.7339 -4.47614 0
M  V30 13917 H 1299.85 4.19516 -3.58762 0
M  V30 13918 H 1300.33 3.95573 -1.90837 0
M  V30 13919 H 1300.93 2.84664 -3.15985 0
M  V30 13920 N 1299.25 1.36039 0.795694 0
M  V30 13921 C 1300.66 1.2679 1.37044 0
M  V30 13922 C 1301.01 -0.0950192 1.9597 0
M  V30 13923 O 1300.14 -0.996311 1.921 0
M  V30 13924 C 1300.73 2.29585 2.49151 0
M  V30 13925 C 1299.29 2.24044 3.02458 0
M  V30 13926 C 1298.44 2.14703 1.75493 0
M  V30 13927 H 1301.39 1.47009 0.597843 0
M  V30 13928 H 1301.41 1.92864 3.27999 0
M  V30 13929 H 1300.92 3.28769 2.06234 0
M  V30 13930 H 1299.02 1.28307 3.49812 0
M  V30 13931 H 1299.14 3.1647 3.597 0
M  V30 13932 H 1297.5 1.60856 1.97478 0
M  V30 13933 H 1298.28 3.15765 1.34713 0
M  V30 13934 N 1300.73 -1.01913 1.20215 0
M  V30 13935 C 1301.97 -1.7573 1.01226 0
M  V30 13936 C 1302.31 -1.88799 -0.45481 0
M  V30 13937 O 1301.58 -1.41196 -1.33768 0
M  V30 13938 C 1301.87 -3.17795 1.69348 0
M  V30 13939 C 1301.72 -3.12536 3.23483 0
M  V30 13940 C 1303.04 -4.16409 1.42448 0
M  V30 13941 H 1300.16 -0.637889 0.369144 0
M  V30 13942 H 1302.8 -1.18907 1.48193 0
M  V30 13943 H 1300.95 -3.66311 1.29416 0
M  V30 13944 H 1302.62 -2.71843 3.72692 0
M  V30 13945 H 1300.86 -2.49997 3.54519 0
M  V30 13946 H 1301.53 -4.12949 3.66302 0
M  V30 13947 H 1304.01 -3.76537 1.77086 0
M  V30 13948 H 1302.89 -5.13983 1.92648 0
M  V30 13949 H 1303.15 -4.407 0.351574 0
M  V30 13950 N 1302.21 -1.00763 -1.2118 0
M  V30 13951 C 1303.46 -0.687197 -1.89633 0
M  V30 13952 C 1303.77 0.78566 -1.79128 0
M  V30 13953 O 1304.97 1.21828 -2.42632 0
M  V30 13954 C 1303.43 -1.1787 -3.40051 0
M  V30 13955 C 1303.04 -2.67782 -3.59161 0
M  V30 13956 C 1304.78 -0.933277 -4.14114 0
M  V30 13957 C 1302.69 -3.10459 -5.03358 0
M  V30 13958 H 1301.62 -0.253342 -0.710165 0
M  V30 13959 H 1304.27 -1.21914 -1.37147 0
M  V30 13960 H 1302.65 -0.574791 -3.91806 0
M  V30 13961 H 1303.83 -3.33645 -3.17833 0
M  V30 13962 H 1302.14 -2.90368 -2.98455 0
M  V30 13963 H 1304.74 -1.22766 -5.20416 0
M  V30 13964 H 1305.08 0.130431 -4.16096 0
M  V30 13965 H 1305.61 -1.50011 -3.68431 0
M  V30 13966 H 1302.35 -4.16068 -5.06525 0
M  V30 13967 H 1301.87 -2.4931 -5.45531 0
M  V30 13968 H 1303.55 -3.02589 -5.71882 0
M  V30 13969 N 1303.68 1.3679 -0.7827 0
M  V30 13970 C 1304.96 1.93639 -0.276278 0
M  V30 13971 C 1305.34 1.7153 1.23048 0
M  V30 13972 O 1304.69 1.07037 2.01879 0
M  V30 13973 C 1304.9 3.42672 -0.661586 0
M  V30 13974 C 1306.25 4.19786 -0.637538 0
M  V30 13975 O 1307.27 3.51082 -0.601645 0
M  V30 13976 O 1306.13 5.42323 -0.674408 0
M  V30 13977 H 1303.22 0.824307 -0.0666832 0
M  V30 13978 H 1305.77 1.46012 -0.864792 0
M  V30 13979 H 1304.54 3.52393 -1.70103 0
M  V30 13980 H 1304.17 3.97573 -0.0465987 0
M  V30 13981 N 1305.16 0.53415 1.48272 0
M  V30 13982 C 1306.41 0.00156948 2.021 0
M  V30 13983 C 1306.73 -1.34371 1.41313 0
M  V30 13984 O 1306 -1.87117 0.579996 0
M  V30 13985 H 1304.58 -0.00240789 0.746996 0
M  V30 13986 H 1307.24 0.698928 1.81937 0
M  V30 13987 H 1306.34 -0.103671 3.11928 0
M  V30 13988 N 1306.64 -1.55279 0.269478 0
M  V30 13989 C 1307.55 -2.25965 -0.63065 0
M  V30 13990 C 1308.57 -1.28357 -1.17476 0
M  V30 13991 O 1309.74 -1.61281 -1.20625 0
M  V30 13992 C 1306.81 -2.96263 -1.80081 0
M  V30 13993 C 1305.87 -4.09336 -1.29394 0
M  V30 13994 C 1305.1 -4.76272 -2.40833 0
M  V30 13995 O 1305.32 -4.42389 -3.60066 0
M  V30 13996 O 1304.26 -5.64334 -2.09309 0
M  V30 13997 H 1308.08 -3.03644 -0.0582069 0
M  V30 13998 H 1305.67 -1.49354 0.0370966 0
M  V30 13999 H 1307.55 -3.40461 -2.48322 0
M  V30 14000 H 1306.23 -2.21505 -2.36045 0
M  V30 14001 H 1305.13 -3.69605 -0.578154 0
M  V30 14002 H 1306.47 -4.85978 -0.780117 0
M  V30 14003 N 1308.12 0.00332656 -1.576 0
M  V30 14004 C 1309.37 0.688044 -1.89602 0
M  V30 14005 C 1309.68 1.75121 -0.871316 0
M  V30 14006 O 1310.89 2.49032 -1.08144 0
M  V30 14007 C 1309.34 1.27494 -3.36561 0
M  V30 14008 C 1308.95 0.246771 -4.4732 0
M  V30 14009 C 1310.69 1.93804 -3.77677 0
M  V30 14010 C 1308.6 0.843471 -5.85354 0
M  V30 14011 H 1307.53 0.260747 -0.707479 0
M  V30 14012 H 1310.18 -0.0566727 -1.83412 0
M  V30 14013 H 1308.56 2.07022 -3.37577 0
M  V30 14014 H 1309.74 -0.523668 -4.57815 0
M  V30 14015 H 1308.05 -0.3157 -4.15202 0
M  V30 14016 H 1310.65 2.39347 -4.78139 0
M  V30 14017 H 1310.99 2.7672 -3.11017 0
M  V30 14018 H 1311.53 1.21015 -3.78946 0
M  V30 14019 H 1308.27 0.0531655 -6.55478 0
M  V30 14020 H 1307.79 1.58315 -5.7853 0
M  V30 14021 H 1309.46 1.34311 -6.32906 0
M  V30 14022 N 1309.6 1.55164 0.276031 0
M  V30 14023 C 1310.87 1.66338 1.02913 0
M  V30 14024 C 1311.25 0.527876 2.04393 0
M  V30 14025 O 1310.6 -0.472437 2.23563 0
M  V30 14026 C 1310.81 3.05427 1.68865 0
M  V30 14027 C 1312.16 3.63075 2.2014 0
M  V30 14028 O 1313.18 3.0804 1.78857 0
M  V30 14029 O 1312.04 4.59492 2.95854 0
M  V30 14030 H 1309.14 0.675446 0.477181 0
M  V30 14031 H 1311.68 1.67504 0.272129 0
M  V30 14032 H 1310.45 3.79514 0.953125 0
M  V30 14033 H 1310.08 3.08147 2.5126 0
M  V30 14034 N 1311.07 -0.540404 1.48045 0
M  V30 14035 C 1311.98 -1.67308 1.64455 0
M  V30 14036 C 1313 -1.65823 0.527152 0
M  V30 14037 O 1314.18 -1.84964 0.796881 0
M  V30 14038 C 1311.24 -3.03792 1.67068 0
M  V30 14039 C 1310.3 -3.16213 2.90358 0
M  V30 14040 C 1309.54 -4.46187 2.92837 0
M  V30 14041 O 1309.76 -5.32662 2.04029 0
M  V30 14042 O 1308.69 -4.62754 3.84892 0
M  V30 14043 H 1312.52 -1.56403 2.6033 0
M  V30 14044 H 1310.1 -0.712323 1.31325 0
M  V30 14045 H 1311.99 -3.84982 1.71368 0
M  V30 14046 H 1310.66 -3.15043 0.74363 0
M  V30 14047 H 1309.57 -2.34357 2.91595 0
M  V30 14048 H 1310.9 -3.09874 3.82412 0
M  V30 14049 N 1312.55 -1.36459 -0.788468 0
M  V30 14050 C 1313.8 -1.3007 -1.54158 0
M  V30 14051 C 1314.11 0.117574 -1.95246 0
M  V30 14052 O 1315.32 0.303837 -2.69795 0
M  V30 14053 C 1313.78 -2.28216 -2.78291 0
M  V30 14054 C 1313.38 -3.75484 -2.44368 0
M  V30 14055 C 1315.13 -2.30806 -3.56271 0
M  V30 14056 C 1313.04 -4.65404 -3.64902 0
M  V30 14057 H 1311.97 -0.483345 -0.5787 0
M  V30 14058 H 1314.62 -1.61827 -0.865123 0
M  V30 14059 H 1313 -1.89454 -3.4774 0
M  V30 14060 H 1314.17 -4.22986 -1.82809 0
M  V30 14061 H 1312.49 -3.75678 -1.79597 0
M  V30 14062 H 1315.08 -2.95196 -4.45829 0
M  V30 14063 H 1315.43 -1.31687 -3.94923 0
M  V30 14064 H 1315.96 -2.68189 -2.93802 0
M  V30 14065 H 1312.7 -5.65589 -3.31344 0
M  V30 14066 H 1312.22 -4.22617 -4.25623 0
M  V30 14067 H 1313.9 -4.81721 -4.31919 0
M  V30 14068 N 1314.03 1.01274 -1.20754 0
M  V30 14069 C 1315.28 1.75298 -1.03161 0
M  V30 14070 C 1315.63 1.87504 0.431299 0
M  V30 14071 O 1314.92 1.39262 1.31593 0
M  V30 14072 C 1315.12 3.16862 -1.65329 0
M  V30 14073 C 1314.95 3.18459 -3.17513 0
M  V30 14074 C 1313.72 3.25479 -3.86512 0
M  V30 14075 C 1315.92 3.04195 -4.14693 0
M  V30 14076 N 1313.9 3.1662 -5.25951 0
M  V30 14077 C 1315.27 3.03149 -5.40833 0
M  V30 14078 C 1317.32 2.8844 -4.05841 0
M  V30 14079 C 1316.03 2.87963 -6.59143 0
M  V30 14080 C 1318.05 2.74609 -5.23779 0
M  V30 14081 C 1317.41 2.74232 -6.48827 0
M  V30 14082 H 1313.51 0.652001 -0.431762 0
M  V30 14083 H 1316.1 1.2043 -1.52986 0
M  V30 14084 H 1314.27 3.70015 -1.18082 0
M  V30 14085 H 1316 3.79337 -1.41015 0
M  V30 14086 H 1312.76 3.3236 -3.37392 0
M  V30 14087 H 1313.18 3.15554 -5.98961 0
M  V30 14088 H 1317.82 2.87542 -3.09967 0
M  V30 14089 H 1315.54 2.87609 -7.55186 0
M  V30 14090 H 1319.13 2.6343 -5.18745 0
M  V30 14091 H 1318.01 2.63653 -7.38551 0
M  V30 14092 N 1315.51 1.01404 1.20644 0
M  V30 14093 C 1316.46 0.575388 2.25371 0
M  V30 14094 C 1317.45 -0.384598 1.64976 0
M  V30 14095 O 1318.66 -0.2548 1.78187 0
M  V30 14096 H 1315.03 0.167752 0.733051 0
M  V30 14097 H 1317 1.46964 2.597 0
M  V30 14098 C 1315.75 -0.0731257 3.47623 0
M  V30 14099 H 1315.08 0.656551 3.94372 0
M  V30 14100 H 1316.52 -0.343203 4.22609 0
M  V30 14101 C 1314.97 -1.31515 3.1017 0
M  V30 14102 O 1315.5 -2.40869 3.21473 0
M  V30 14103 N 1313.71 -1.19829 2.64744 0
M  V30 14104 H 1313.26 -0.308463 2.55746 0
M  V30 14105 H 1313.22 -2.0303 2.40054 0
M  V30 14106 N 1316.99 -1.36373 0.789944 0
M  V30 14107 C 1318.22 -2.03482 0.37453 0
M  V30 14108 C 1318.63 -1.59562 -1.00923 0
M  V30 14109 O 1317.99 -0.785289 -1.64741 0
M  V30 14110 C 1318.04 -3.58942 0.429255 0
M  V30 14111 O 1317.76 -4.01261 1.75845 0
M  V30 14112 C 1319.26 -4.433 0.00453729 0
M  V30 14113 H 1316.48 -0.653019 0.154295 0
M  V30 14114 H 1319.02 -1.74339 1.06894 0
M  V30 14115 H 1317.18 -3.86793 -0.21674 0
M  V30 14116 H 1317.59 -4.95854 1.70964 0
M  V30 14117 H 1319.07 -5.5192 0.0939653 0
M  V30 14118 H 1319.54 -4.26509 -1.04816 0
M  V30 14119 H 1320.15 -4.20712 0.623041 0
M  V30 14120 N 1318.47 -0.542005 -1.47987 0
M  V30 14121 C 1319.69 -0.016717 -2.06893 0
M  V30 14122 C 1320.11 1.27015 -1.39687 0
M  V30 14123 O 1319.47 1.75845 -0.488326 0
M  V30 14124 C 1319.52 0.198437 -3.60955 0
M  V30 14125 O 1319.24 -1.03746 -4.25639 0
M  V30 14126 C 1320.74 0.762741 -4.36689 0
M  V30 14127 H 1317.96 -0.0389497 -0.669869 0
M  V30 14128 H 1320.5 -0.751082 -1.90208 0
M  V30 14129 H 1318.66 0.882884 -3.77205 0
M  V30 14130 H 1319.07 -0.82568 -5.1796 0
M  V30 14131 H 1320.55 0.862649 -5.45218 0
M  V30 14132 H 1321.02 1.77049 -4.01933 0
M  V30 14133 H 1321.63 0.114478 -4.25146 0
M  V30 14134 N 1319.94 1.55134 -0.277709 0
M  V30 14135 C 1320.85 2.26296 0.618658 0
M  V30 14136 C 1321.87 1.28978 1.16794 0
M  V30 14137 O 1323.05 1.61918 1.19768 0
M  V30 14138 C 1320.11 2.97214 1.78508 0
M  V30 14139 C 1319.17 4.10016 1.27221 0
M  V30 14140 C 1318.4 4.77543 2.38304 0
M  V30 14141 O 1318.63 4.44293 3.57715 0
M  V30 14142 O 1317.56 5.65437 2.06313 0
M  V30 14143 H 1321.39 3.03671 0.0421031 0
M  V30 14144 H 1318.97 1.49332 -0.0450166 0
M  V30 14145 H 1320.85 3.41773 2.46513 0
M  V30 14146 H 1319.53 2.22753 2.34867 0
M  V30 14147 H 1318.44 3.69907 0.558544 0
M  V30 14148 H 1319.77 4.86385 0.754333 0
M  V30 14149 N 1321.42 0.00503138 1.57599 0
M  V30 14150 C 1322.33 -1.00097 2.12174 0
M  V30 14151 C 1323.35 -1.37353 1.06818 0
M  V30 14152 O 1324.52 -1.45984 1.38747 0
M  V30 14153 C 1321.59 -2.27252 2.61835 0
M  V30 14154 C 1320.65 -1.96262 3.81811 0
M  V30 14155 C 1319.88 -3.17355 4.29094 0
M  V30 14156 O 1320.11 -4.2921 3.75679 0
M  V30 14157 O 1319.04 -3.01059 5.21198 0
M  V30 14158 H 1322.87 -0.567024 2.9836 0
M  V30 14159 H 1320.45 -0.214109 1.47858 0
M  V30 14160 H 1322.33 -3.01944 2.93952 0
M  V30 14161 H 1321.01 -2.69875 1.78744 0
M  V30 14162 H 1319.91 -1.19031 3.54658 0
M  V30 14163 H 1321.25 -1.58473 4.65991 0
M  V30 14164 N 1322.9 -1.55308 -0.267798 0
M  V30 14165 C 1324.15 -1.75364 -0.996515 0
M  V30 14166 C 1324.46 -0.565028 -1.87261 0
M  V30 14167 O 1325.67 -0.648119 -2.63651 0
M  V30 14168 C 1324.12 -3.10388 -1.82175 0
M  V30 14169 C 1323.73 -4.36832 -0.994062 0
M  V30 14170 C 1325.48 -3.39791 -2.54445 0
M  V30 14171 C 1323.38 -5.62893 -1.81398 0
M  V30 14172 H 1322.31 -0.653679 -0.375793 0
M  V30 14173 H 1324.96 -1.81762 -0.251975 0
M  V30 14174 H 1323.35 -2.98041 -2.60744 0
M  V30 14175 H 1324.52 -4.6011 -0.252167 0
M  V30 14176 H 1322.83 -4.1461 -0.385662 0
M  V30 14177 H 1325.43 -4.31184 -3.16203 0
M  V30 14178 H 1325.77 -2.60159 -3.24997 0
M  V30 14179 H 1326.31 -3.53259 -1.82902 0
M  V30 14180 H 1323.05 -6.45287 -1.15258 0
M  V30 14181 H 1322.57 -5.43751 -2.5317 0
M  V30 14182 H 1324.25 -6.01384 -2.38634 0
M  V30 14183 N 1324.38 0.532545 -1.4833 0
M  V30 14184 C 1325.29 1.66433 -1.65339 0
M  V30 14185 C 1326.3 1.65541 -0.535939 0
M  V30 14186 O 1327.48 1.84539 -0.806679 0
M  V30 14187 C 1324.54 3.02901 -1.68676 0
M  V30 14188 C 1323.61 3.14669 -2.92031 0
M  V30 14189 C 1322.84 4.44627 -2.95199 0
M  V30 14190 O 1323.06 5.31572 -2.06851 0
M  V30 14191 O 1322 4.60707 -3.87341 0
M  V30 14192 H 1325.82 1.5502 -2.61156 0
M  V30 14193 H 1323.41 0.705348 -1.31701 0
M  V30 14194 H 1325.29 3.84068 -1.73407 0
M  V30 14195 H 1323.96 3.14644 -0.760327 0
M  V30 14196 H 1322.87 2.32807 -2.92834 0
M  V30 14197 H 1324.2 3.07841 -3.8405 0
M  V30 14198 N 1325.86 1.36875 0.78122 0
M  V30 14199 C 1327.08 1.34732 1.57019 0
M  V30 14200 C 1327.5 -0.0695423 1.88672 0
M  V30 14201 O 1326.86 -1.02873 1.50743 0
M  V30 14202 C 1326.91 2.17668 2.88623 0
M  V30 14203 O 1326.63 3.53832 2.5833 0
M  V30 14204 C 1328.13 2.23398 3.82895 0
M  V30 14205 H 1325.35 0.461857 0.486754 0
M  V30 14206 H 1327.89 1.80086 0.968989 0
M  V30 14207 H 1326.05 1.75848 3.4519 0
M  V30 14208 H 1326.46 3.972 3.42538 0
M  V30 14209 H 1327.94 2.85769 4.72271 0
M  V30 14210 H 1328.41 1.23972 4.2134 0
M  V30 14211 H 1329.02 2.65489 3.32258 0
M  V30 14212 N 1327.33 -1.00632 1.21289 0
M  V30 14213 C 1328.28 -2.09382 0.97097 0
M  V30 14214 C 1329.25 -1.65783 -0.102561 0
M  V30 14215 O 1330.44 -1.90749 0.0442886 0
M  V30 14216 C 1327.58 -3.40844 0.540314 0
M  V30 14217 C 1326.69 -3.97862 1.68314 0
M  V30 14218 C 1325.82 -5.17427 1.20178 0
M  V30 14219 C 1324.86 -5.66552 2.31702 0
M  V30 14220 N 1324 -6.77368 1.84709 0
M  V30 14221 H 1328.84 -2.29411 1.90196 0
M  V30 14222 H 1326.38 -1.12488 0.947885 0
M  V30 14223 H 1328.33 -4.16313 0.271881 0
M  V30 14224 H 1326.96 -3.20857 -0.353677 0
M  V30 14225 H 1326.02 -3.19391 2.06624 0
M  V30 14226 H 1327.33 -4.30314 2.52252 0
M  V30 14227 H 1326.48 -6.00138 0.889926 0
M  V30 14228 H 1325.22 -4.86566 0.332422 0
M  V30 14229 H 1324.23 -4.82438 2.63691 0
M  V30 14230 H 1325.45 -5.99443 3.19131 0
M  V30 14231 H 1323.4 -6.48315 1.00116 0
M  V30 14232 H 1323.31 -7.09067 2.62221 0
M  V30 14233 H 1324.58 -7.63617 1.56554 0
M  V30 14234 N 1328.81 -1.02043 -1.20104 0
M  V30 14235 C 1329.77 -0.598682 -2.21243 0
M  V30 14236 C 1330.77 0.333205 -1.5731 0
M  V30 14237 O 1331.96 0.12137 -1.73777 0
M  V30 14238 C 1329.1 0.125183 -3.4067 0
M  V30 14239 H 1330.29 -1.49345 -2.60069 0
M  V30 14240 H 1327.84 -0.810649 -1.33634 0
M  V30 14241 H 1328.58 1.03469 -3.07351 0
M  V30 14242 H 1328.36 -0.544316 -3.88304 0
M  V30 14243 H 1329.85 0.407469 -4.15607 0
M  V30 14244 N 1330.29 1.35952 -0.797165 0
M  V30 14245 C 1331.54 1.99327 -0.373695 0
M  V30 14246 C 1331.87 1.63111 1.05396 0
M  V30 14247 O 1331.14 0.889736 1.72956 0
M  V30 14248 C 1331.43 3.5593 -0.54641 0
M  V30 14249 C 1331.28 4.01975 -2.01832 0
M  V30 14250 C 1332.6 4.40087 0.0337694 0
M  V30 14251 H 1329.72 0.724107 -0.137254 0
M  V30 14252 H 1332.36 1.61248 -1.00495 0
M  V30 14253 H 1330.51 3.88499 -0.00903959 0
M  V30 14254 H 1332.18 3.79859 -2.61735 0
M  V30 14255 H 1330.43 3.5323 -2.51815 0
M  V30 14256 H 1331.1 5.109 -2.09009 0
M  V30 14257 H 1333.57 4.13923 -0.425039 0
M  V30 14258 H 1332.45 5.48775 -0.117054 0
M  V30 14259 H 1332.71 4.27504 1.12661 0
M  V30 14260 N 1331.77 0.549846 1.47697 0
M  V30 14261 C 1332.73 -0.191427 2.28399 0
M  V30 14262 C 1333.73 -0.849533 1.36527 0
M  V30 14263 O 1334.92 -0.706526 1.59229 0
M  V30 14264 C 1332.05 -1.27907 3.15995 0
M  V30 14265 H 1333.25 0.517375 2.95404 0
M  V30 14266 H 1330.8 0.30651 1.53265 0
M  V30 14267 H 1331.53 -2.0205 2.53665 0
M  V30 14268 H 1331.32 -0.812066 3.83599 0
M  V30 14269 H 1332.81 -1.79992 3.76819 0
M  V30 14270 N 1333.25 -1.54984 0.285932 0
M  V30 14271 C 1334.18 -2.19087 -0.638448 0
M  V30 14272 C 1335.16 -1.1553 -1.14418 0
M  V30 14273 O 1336.34 -1.44105 -1.21516 0
M  V30 14274 C 1333.47 -2.82273 -1.87188 0
M  V30 14275 C 1332.51 -3.99226 -1.5007 0
M  V30 14276 S 1333.35 -5.32463 -0.569552 0
M  V30 14277 C 1334.5 -5.99124 -1.81112 0
M  V30 14278 H 1334.74 -2.97152 -0.0938139 0
M  V30 14279 H 1332.27 -1.54241 0.0701344 0
M  V30 14280 H 1334.23 -3.19307 -2.57979 0
M  V30 14281 H 1332.89 -2.04082 -2.38767 0
M  V30 14282 H 1332.08 -4.42166 -2.41878 0
M  V30 14283 H 1331.68 -3.63671 -0.872871 0
M  V30 14284 H 1333.98 -6.19015 -2.75367 0
M  V30 14285 H 1334.92 -6.93623 -1.42454 0
M  V30 14286 H 1335.33 -5.28599 -1.98098 0
M  V30 14287 N 1334.72 -0.0133892 -1.57594 0
M  V30 14288 C 1335.97 0.667313 -1.90765 0
M  V30 14289 C 1336.29 1.73564 -0.888847 0
M  V30 14290 O 1335.56 1.95768 0.0718946 0
M  V30 14291 H 1334.14 0.24947 -0.704112 0
M  V30 14292 H 1336.81 -0.0574789 -1.94815 0
M  V30 14293 H 1335.9 1.13007 -2.90922 0
M  V30 14294 N 1336.2 1.55448 0.259558 0
M  V30 14295 C 1337.43 1.81063 1.01148 0
M  V30 14296 C 1337.85 0.58875 1.78649 0
M  V30 14297 O 1337.21 -0.461971 1.75315 0
M  V30 14298 C 1337.26 3.04279 1.93512 0
M  V30 14299 O 1336.36 2.80307 3.02493 0
M  V30 14300 H 1335.7 0.598056 0.288487 0
M  V30 14301 H 1338.23 2.02614 0.284387 0
M  V30 14302 H 1338.24 3.33373 2.35215 0
M  V30 14303 H 1336.92 3.92856 1.36518 0
M  V30 14304 H 1335.5 2.62345 2.65008 0
M  V30 14305 N 1337.68 -0.524672 1.4861 0
M  V30 14306 C 1338.61 -1.63782 1.66426 0
M  V30 14307 C 1339.59 -1.62177 0.513077 0
M  V30 14308 O 1340.78 -1.7929 0.74623 0
M  V30 14309 C 1337.91 -3.02354 1.70877 0
M  V30 14310 C 1336.86 -3.18819 2.85549 0
M  V30 14311 C 1336.19 -4.58506 2.75094 0
M  V30 14312 C 1337.49 -3.01086 4.26784 0
M  V30 14313 H 1339.18 -1.49127 2.59618 0
M  V30 14314 H 1336.73 -0.715997 1.24938 0
M  V30 14315 H 1338.68 -3.80105 1.81929 0
M  V30 14316 H 1337.4 -3.18044 0.742682 0
M  V30 14317 H 1336.06 -2.43487 2.74061 0
M  V30 14318 H 1335.71 -4.71038 1.76443 0
M  V30 14319 H 1335.41 -4.70466 3.52044 0
M  V30 14320 H 1336.93 -5.38348 2.88121 0
M  V30 14321 H 1338.35 -3.68624 4.39077 0
M  V30 14322 H 1336.75 -3.24536 5.04774 0
M  V30 14323 H 1337.82 -1.97454 4.42877 0
M  V30 14324 N 1339.16 -1.37287 -0.77395 0
M  V30 14325 C 1340.44 -1.2291 -1.52159 0
M  V30 14326 C 1340.82 0.178249 -2.10346 0
M  V30 14327 O 1340.16 1.18564 -1.95333 0
M  V30 14328 C 1340.37 -2.32337 -2.60424 0
M  V30 14329 C 1341.72 -2.69769 -3.27887 0
M  V30 14330 O 1342.75 -2.31497 -2.70717 0
M  V30 14331 O 1341.6 -3.35699 -4.31241 0
M  V30 14332 H 1338.7 -0.47948 -0.673816 0
M  V30 14333 H 1341.24 -1.49061 -0.811105 0
M  V30 14334 H 1340.02 -3.26591 -2.15532 0
M  V30 14335 H 1339.64 -2.07638 -3.39076 0
M  V30 14336 N 1340.64 0.999871 -1.21821 0
M  V30 14337 C 1341.58 2.08864 -0.98206 0
M  V30 14338 C 1342.55 1.65835 0.0937677 0
M  V30 14339 O 1343.74 1.90722 -0.0544038 0
M  V30 14340 C 1340.88 3.40553 -0.558382 0
M  V30 14341 C 1339.99 3.96964 -1.70422 0
M  V30 14342 C 1339.13 5.16782 -1.2292 0
M  V30 14343 C 1338.17 5.65315 -2.34703 0
M  V30 14344 N 1337.3 6.76379 -1.88299 0
M  V30 14345 H 1342.14 2.28399 -1.9141 0
M  V30 14346 H 1339.68 1.11984 -0.953837 0
M  V30 14347 H 1341.64 4.16163 -0.293955 0
M  V30 14348 H 1340.27 3.2104 0.336656 0
M  V30 14349 H 1339.32 3.18291 -2.08315 0
M  V30 14350 H 1340.63 4.2897 -2.54531 0
M  V30 14351 H 1339.79 5.99657 -0.92174 0
M  V30 14352 H 1338.52 4.86383 -0.358222 0
M  V30 14353 H 1337.53 4.81033 -2.66246 0
M  V30 14354 H 1338.75 5.97742 -3.22306 0
M  V30 14355 H 1336.7 6.47775 -1.03552 0
M  V30 14356 H 1336.62 7.07666 -2.65978 0
M  V30 14357 H 1337.89 7.62776 -1.60601 0
M  V30 14358 N 1342.11 1.02678 1.19562 0
M  V30 14359 C 1343.06 0.599259 2.24748 0
M  V30 14360 C 1344.06 -0.367079 1.65375 0
M  V30 14361 O 1345.26 -0.235887 1.78448 0
M  V30 14362 H 1341.64 0.175517 0.73123 0
M  V30 14363 H 1343.61 1.4971 2.58127 0
M  V30 14364 C 1342.36 -0.0362515 3.47681 0
M  V30 14365 H 1341.68 0.698343 3.93654 0
M  V30 14366 H 1343.12 -0.298361 4.22949 0
M  V30 14367 C 1341.58 -1.28218 3.11547 0
M  V30 14368 O 1342.11 -2.37446 3.24009 0
M  V30 14369 N 1340.32 -1.17014 2.66 0
M  V30 14370 H 1339.86 -0.28132 2.56059 0
M  V30 14371 H 1339.82 -2.00473 2.42194 0
M  V30 14372 N 1343.59 -1.35528 0.804364 0
M  V30 14373 C 1344.56 -2.28153 0.21885 0
M  V30 14374 C 1345.56 -1.49486 -0.592511 0
M  V30 14375 O 1346.75 -1.69274 -0.411319 0
M  V30 14376 C 1343.88 -3.33736 -0.695195 0
M  V30 14377 H 1345.07 -2.81446 1.03576 0
M  V30 14378 H 1342.62 -1.45345 0.574854 0
M  V30 14379 H 1343.36 -2.85625 -1.53587 0
M  V30 14380 H 1343.14 -3.91931 -0.115143 0
M  V30 14381 H 1344.63 -4.02872 -1.09925 0
M  V30 14382 N 1345.07 -0.557671 -1.47404 0
M  V30 14383 C 1346.3 -0.0386599 -2.06864 0
M  V30 14384 C 1346.71 1.25527 -1.41027 0
M  V30 14385 O 1346.07 1.75318 -0.506949 0
M  V30 14386 C 1346.12 0.160141 -3.61145 0
M  V30 14387 O 1345.84 -1.08255 -4.24515 0
M  V30 14388 C 1347.34 0.716381 -4.37473 0
M  V30 14389 H 1344.56 -0.0460523 -0.669418 0
M  V30 14390 H 1347.11 -0.771214 -1.894 0
M  V30 14391 H 1345.26 0.842826 -3.78121 0
M  V30 14392 H 1345.68 -0.88057 -5.17055 0
M  V30 14393 H 1347.15 0.804773 -5.46102 0
M  V30 14394 H 1347.63 1.72776 -4.03788 0
M  V30 14395 H 1348.23 0.0693787 -4.25243 0
M  V30 14396 N 1346.55 1.54831 -0.294147 0
M  V30 14397 C 1347.51 2.21946 0.572061 0
M  V30 14398 C 1348.51 1.20331 1.06663 0
M  V30 14399 O 1349.7 1.45112 0.963757 0
M  V30 14400 C 1346.83 2.90044 1.7913 0
M  V30 14401 H 1348.03 2.99897 -0.0142234 0
M  V30 14402 H 1345.58 1.56235 -0.0449187 0
M  V30 14403 H 1346.32 2.16154 2.4176 0
M  V30 14404 H 1346.1 3.64527 1.44439 0
M  V30 14405 H 1347.59 3.41263 2.40684 0
M  V30 14406 N 1348.03 0.0217466 1.57585 0
M  V30 14407 C 1348.97 -0.962559 2.0977 0
M  V30 14408 C 1349.94 -1.32771 0.998053 0
M  V30 14409 O 1351.13 -1.42231 1.27181 0
M  V30 14410 C 1348.27 -2.24214 2.62339 0
M  V30 14411 C 1347.38 -1.9341 3.86286 0
M  V30 14412 C 1346.52 -3.15609 4.27275 0
M  V30 14413 C 1345.56 -2.8059 5.43999 0
M  V30 14414 N 1344.69 -3.95392 5.8018 0
M  V30 14415 H 1349.53 -0.510626 2.93593 0
M  V30 14416 H 1347.07 -0.240456 1.45121 0
M  V30 14417 H 1349.03 -2.99049 2.90905 0
M  V30 14418 H 1347.66 -2.67037 1.81358 0
M  V30 14419 H 1346.71 -1.08849 3.64494 0
M  V30 14420 H 1348.02 -1.63614 4.71203 0
M  V30 14421 H 1347.18 -3.9877 4.57239 0
M  V30 14422 H 1345.92 -3.48561 3.41111 0
M  V30 14423 H 1344.92 -1.9584 5.13738 0
M  V30 14424 H 1346.15 -2.48863 6.31858 0
M  V30 14425 H 1344.09 -4.282 4.96971 0
M  V30 14426 H 1344.01 -3.69195 6.59721 0
M  V30 14427 H 1345.28 -4.79279 6.14746 0
M  V30 14428 N 1349.51 -1.55583 -0.251311 0
M  V30 14429 C 1350.75 -1.77471 -0.981418 0
M  V30 14430 C 1351.08 -0.586228 -1.85141 0
M  V30 14431 O 1350.36 0.415623 -1.90007 0
M  V30 14432 C 1350.64 -3.09204 -1.84567 0
M  V30 14433 C 1350.5 -4.38448 -1.00417 0
M  V30 14434 C 1351.81 -3.37133 -2.82895 0
M  V30 14435 H 1348.93 -0.645664 -0.355369 0
M  V30 14436 H 1351.58 -1.88318 -0.252228 0
M  V30 14437 H 1349.73 -3.00087 -2.46738 0
M  V30 14438 H 1351.4 -4.5955 -0.40149 0
M  V30 14439 H 1349.64 -4.32703 -0.308365 0
M  V30 14440 H 1350.31 -5.26995 -1.64258 0
M  V30 14441 H 1352.79 -3.46183 -2.3086 0
M  V30 14442 H 1351.66 -4.30531 -3.40491 0
M  V30 14443 H 1351.92 -2.57829 -3.59133 0
M  V30 14444 N 1350.98 0.516783 -1.48886 0
M  V30 14445 C 1352.4 0.84654 -1.35299 0
M  V30 14446 C 1352.6 1.97998 -0.374035 0
M  V30 14447 O 1351.66 2.51707 0.200003 0
M  V30 14448 C 1352.97 1.20162 -2.75648 0
M  V30 14449 C 1354.52 1.31074 -2.84233 0
M  V30 14450 C 1354.99 1.69919 -4.25313 0
M  V30 14451 N 1356.48 1.76998 -4.28049 0
M  V30 14452 C 1357.22 2.08466 -5.34162 0
M  V30 14453 N 1356.71 2.38268 -6.50538 0
M  V30 14454 N 1358.51 2.09584 -5.21566 0
M  V30 14455 H 1350.66 -0.230871 -2.11142 0
M  V30 14456 H 1352.92 -0.0406678 -0.947127 0
M  V30 14457 H 1352.63 0.442278 -3.48908 0
M  V30 14458 H 1352.5 2.14875 -3.10014 0
M  V30 14459 H 1354.89 2.06083 -2.1122 0
M  V30 14460 H 1354.97 0.344506 -2.5347 0
M  V30 14461 H 1354.61 0.954667 -4.98847 0
M  V30 14462 H 1354.54 2.67616 -4.5353 0
M  V30 14463 H 1357.03 1.56191 -3.44112 0
M  V30 14464 H 1357.35 2.61423 -7.2724 0
M  V30 14465 H 1355.69 2.35758 -6.53791 0
M  V30 14466 H 1358.88 1.85768 -4.2966 0
M  V30 14467 H 1359.06 2.33776 -6.04362 0
M  V30 14468 N 1352.46 1.37696 0.766659 0
M  V30 14469 C 1353.71 1.33382 1.52765 0
M  V30 14470 C 1354.04 -0.0800569 1.94035 0
M  V30 14471 O 1353.32 -1.03848 1.64456 0
M  V30 14472 C 1353.6 2.2776 2.78922 0
M  V30 14473 C 1353.45 3.77949 2.43874 0
M  V30 14474 C 1354.77 2.20494 3.80881 0
M  V30 14475 H 1351.89 0.485836 0.554195 0
M  V30 14476 H 1354.53 1.68438 0.879119 0
M  V30 14477 H 1352.68 1.97994 3.34261 0
M  V30 14478 H 1354.35 4.18333 1.9441 0
M  V30 14479 H 1352.6 3.96269 1.76503 0
M  V30 14480 H 1353.27 4.39428 3.34077 0
M  V30 14481 H 1355.74 2.46742 3.35048 0
M  V30 14482 H 1354.62 2.88663 4.66867 0
M  V30 14483 H 1354.88 1.19951 4.25516 0
M  V30 14484 N 1353.94 -0.993397 1.22349 0
M  V30 14485 C 1354.87 -2.10171 1.01737 0
M  V30 14486 C 1355.85 -1.69989 -0.0615276 0
M  V30 14487 O 1357.04 -1.93939 0.100591 0
M  V30 14488 C 1354.17 -3.42186 0.593801 0
M  V30 14489 C 1353.12 -3.96215 1.61858 0
M  V30 14490 C 1352.45 -5.24272 1.05086 0
M  V30 14491 C 1353.75 -4.26956 3.00842 0
M  V30 14492 H 1355.44 -2.27673 1.94436 0
M  V30 14493 H 1352.99 -1.09408 0.936258 0
M  V30 14494 H 1354.94 -4.19131 0.436715 0
M  V30 14495 H 1353.66 -3.2451 -0.368855 0
M  V30 14496 H 1352.32 -3.21401 1.76343 0
M  V30 14497 H 1351.97 -5.02937 0.0795747 0
M  V30 14498 H 1351.67 -5.61387 1.73547 0
M  V30 14499 H 1353.19 -6.03851 0.905349 0
M  V30 14500 H 1354.61 -4.94699 2.89734 0
M  V30 14501 H 1353 -4.75242 3.66422 0
M  V30 14502 H 1354.07 -3.34752 3.50812 0
M  V30 14503 N 1355.42 -1.03311 -1.19015 0
M  V30 14504 C 1356.66 -0.742872 -1.89349 0
M  V30 14505 C 1357.02 0.721012 -1.78379 0
M  V30 14506 O 1356.31 1.51869 -1.16817 0
M  V30 14507 C 1356.51 -1.13402 -3.38932 0
M  V30 14508 C 1356.33 -2.63438 -3.64459 0
M  V30 14509 C 1355.1 -3.30473 -3.82251 0
M  V30 14510 C 1357.3 -3.61652 -3.65667 0
M  V30 14511 N 1355.28 -4.69569 -3.95447 0
M  V30 14512 C 1356.66 -4.86385 -3.84486 0
M  V30 14513 C 1358.71 -3.5539 -3.48715 0
M  V30 14514 C 1357.41 -6.05611 -3.88108 0
M  V30 14515 C 1359.44 -4.74035 -3.53617 0
M  V30 14516 C 1358.8 -5.97584 -3.72925 0
M  V30 14517 H 1354.9 -0.323772 -0.711826 0
M  V30 14518 H 1357.48 -1.32127 -1.43006 0
M  V30 14519 H 1355.66 -0.583786 -3.83988 0
M  V30 14520 H 1357.39 -0.795592 -3.96803 0
M  V30 14521 H 1354.14 -2.80882 -3.81317 0
M  V30 14522 H 1354.57 -5.41836 -4.05885 0
M  V30 14523 H 1359.21 -2.60852 -3.32741 0
M  V30 14524 H 1356.93 -7.00513 -4.02874 0
M  V30 14525 H 1360.51 -4.70823 -3.41786 0
M  V30 14526 H 1359.39 -6.87854 -3.76598 0
M  V30 14527 N 1356.9 1.35099 -0.81154 0
M  V30 14528 C 1358.17 1.93009 -0.317289 0
M  V30 14529 C 1358.55 1.74101 1.19382 0
M  V30 14530 O 1357.9 1.11295 1.99564 0
M  V30 14531 C 1358.11 3.41191 -0.734123 0
M  V30 14532 C 1359.46 4.1834 -0.726437 0
M  V30 14533 O 1360.48 3.49727 -0.67598 0
M  V30 14534 O 1359.34 5.4077 -0.789291 0
M  V30 14535 H 1356.44 0.822707 -0.084153 0
M  V30 14536 H 1358.98 1.44145 -0.895569 0
M  V30 14537 H 1357.75 3.48705 -1.7754 0
M  V30 14538 H 1357.38 3.97384 -0.130919 0
M  V30 14539 N 1358.37 0.56548 1.47106 0
M  V30 14540 C 1359.28 -0.180488 2.33905 0
M  V30 14541 C 1360.3 -0.90355 1.48701 0
M  V30 14542 O 1361.48 -0.870595 1.81611 0
M  V30 14543 C 1358.54 -1.19212 3.2556 0
M  V30 14544 C 1357.6 -0.475589 4.26658 0
M  V30 14545 C 1356.83 -1.43902 5.13934 0
M  V30 14546 O 1357.06 -2.67443 5.03816 0
M  V30 14547 O 1355.99 -0.958998 5.94211 0
M  V30 14548 H 1359.82 0.531726 2.99009 0
M  V30 14549 H 1357.4 0.32602 1.45799 0
M  V30 14550 H 1359.28 -1.77586 3.82153 0
M  V30 14551 H 1357.96 -1.8861 2.63074 0
M  V30 14552 H 1356.87 0.149561 3.73801 0
M  V30 14553 H 1358.2 0.177103 4.91881 0
M  V30 14554 N 1359.85 -1.54672 0.302354 0
M  V30 14555 C 1360.8 -2.25022 -0.58887 0
M  V30 14556 C 1361.79 -1.25671 -1.13592 0
M  V30 14557 O 1363 -1.43518 -1.0864 0
M  V30 14558 H 1359.38 -0.722515 -0.208509 0
M  V30 14559 H 1361.35 -2.98388 0.0269928 0
M  V30 14560 C 1360.1 -3.00532 -1.74859 0
M  V30 14561 H 1359.42 -3.76786 -1.33688 0
M  V30 14562 H 1360.86 -3.53036 -2.34823 0
M  V30 14563 C 1359.32 -2.0758 -2.65353 0
M  V30 14564 O 1359.85 -1.64473 -3.66485 0
M  V30 14565 N 1358.05 -1.73508 -2.33116 0
M  V30 14566 H 1357.6 -2.0876 -1.5092 0
M  V30 14567 H 1357.56 -1.11591 -2.9393 0
M  V30 14568 N 1361.33 -0.0301034 -1.57571 0
M  V30 14569 C 1362.56 0.657533 -1.95857 0
M  V30 14570 C 1362.97 1.66138 -0.905244 0
M  V30 14571 O 1362.31 1.83299 0.12134 0
M  V30 14572 C 1362.37 1.41946 -3.3029 0
M  V30 14573 C 1362.04 0.573834 -4.53383 0
M  V30 14574 C 1363.03 -0.151282 -5.1968 0
M  V30 14575 C 1360.72 0.510947 -4.99695 0
M  V30 14576 C 1362.71 -0.927947 -6.30609 0
M  V30 14577 C 1360.4 -0.269422 -6.10506 0
M  V30 14578 C 1361.4 -0.987575 -6.75822 0
M  V30 14579 O 1361.09 -1.75515 -7.84506 0
M  V30 14580 H 1360.82 0.1861 -0.649879 0
M  V30 14581 H 1363.37 -0.0864526 -2.05218 0
M  V30 14582 H 1361.6 2.20861 -3.17423 0
M  V30 14583 H 1363.29 1.9953 -3.53472 0
M  V30 14584 H 1364.06 -0.112036 -4.84871 0
M  V30 14585 H 1359.94 1.05949 -4.4866 0
M  V30 14586 H 1363.48 -1.48901 -6.81524 0
M  V30 14587 H 1359.38 -0.310381 -6.44753 0
M  V30 14588 H 1360.15 -1.67503 -8.01177 0
M  V30 14589 N 1362.81 1.55714 0.243056 0
M  V30 14590 C 1363.74 1.93655 1.30461 0
M  V30 14591 C 1364.72 0.801968 1.50008 0
M  V30 14592 O 1365.9 1.06256 1.62552 0
M  V30 14593 C 1363.03 2.23459 2.65863 0
M  V30 14594 C 1361.99 3.39205 2.61006 0
M  V30 14595 C 1361.31 3.5456 4.00239 0
M  V30 14596 C 1362.61 4.74787 2.17656 0
M  V30 14597 H 1364.31 2.82575 0.98954 0
M  V30 14598 H 1361.85 1.35955 0.474572 0
M  V30 14599 H 1363.81 2.48591 3.40266 0
M  V30 14600 H 1362.53 1.31369 2.99014 0
M  V30 14601 H 1361.19 3.14088 1.89061 0
M  V30 14602 H 1360.84 2.59884 4.30661 0
M  V30 14603 H 1360.54 4.32399 3.97876 0
M  V30 14604 H 1362.06 3.82017 4.76335 0
M  V30 14605 H 1363.48 4.99266 2.81792 0
M  V30 14606 H 1361.87 5.55756 2.26397 0
M  V30 14607 H 1362.94 4.7159 1.12831 0
M  V30 14608 N 1364.29 -0.50888 1.49158 0
M  V30 14609 C 1365.52 -1.28585 1.61708 0
M  V30 14610 C 1365.92 -1.87047 0.284629 0
M  V30 14611 O 1365.27 -1.68182 -0.738959 0
M  V30 14612 C 1365.33 -2.46043 2.62113 0
M  V30 14613 C 1364.99 -2.0851 4.0666 0
M  V30 14614 C 1365.99 -1.62943 4.93706 0
M  V30 14615 C 1363.68 -2.18386 4.52342 0
M  V30 14616 C 1365.67 -1.27747 6.24467 0
M  V30 14617 C 1363.36 -1.82801 5.83118 0
M  V30 14618 C 1364.35 -1.37555 6.69005 0
M  V30 14619 O 1364.04 -1.02447 7.97345 0
M  V30 14620 H 1363.77 -0.396504 0.547504 0
M  V30 14621 H 1366.33 -0.61834 1.95872 0
M  V30 14622 H 1364.56 -3.15844 2.23113 0
M  V30 14623 H 1366.25 -3.08081 2.64275 0
M  V30 14624 H 1367.01 -1.54766 4.59644 0
M  V30 14625 H 1362.89 -2.52556 3.85664 0
M  V30 14626 H 1366.44 -0.923589 6.91459 0
M  V30 14627 H 1362.33 -1.90626 6.16711 0
M  V30 14628 H 1363.1 -1.15663 8.10287 0
M  V30 14629 N 1365.76 -1.381 -0.759346 0
M  V30 14630 C 1367.01 -1.3419 -1.52055 0
M  V30 14631 C 1367.34 0.0697657 -1.94075 0
M  V30 14632 O 1366.62 1.02975 -1.65004 0
M  V30 14633 C 1366.9 -2.29236 -2.7771 0
M  V30 14634 C 1366.75 -3.79237 -2.41866 0
M  V30 14635 C 1368.07 -2.22511 -3.79706 0
M  V30 14636 H 1365.19 -0.488768 -0.551611 0
M  V30 14637 H 1367.83 -1.68902 -0.870174 0
M  V30 14638 H 1365.98 -1.99764 -3.33206 0
M  V30 14639 H 1367.66 -4.19358 -1.92189 0
M  V30 14640 H 1365.9 -3.97199 -1.74399 0
M  V30 14641 H 1366.57 -4.41193 -3.31742 0
M  V30 14642 H 1369.05 -2.48516 -3.33735 0
M  V30 14643 H 1367.92 -2.91134 -4.6533 0
M  V30 14644 H 1368.18 -1.22206 -4.24874 0
M  V30 14645 N 1367.24 0.986894 -1.22875 0
M  V30 14646 C 1368.17 2.09628 -1.0285 0
M  V30 14647 C 1369.15 1.70019 0.0525118 0
M  V30 14648 O 1370.34 1.93883 -0.110874 0
M  V30 14649 C 1367.47 3.41866 -0.61194 0
M  V30 14650 C 1366.42 3.95351 -1.63956 0
M  V30 14651 C 1365.75 5.23707 -1.07865 0
M  V30 14652 C 1367.05 4.25354 -3.03102 0
M  V30 14653 H 1368.74 2.26639 -1.95641 0
M  V30 14654 H 1366.29 1.0891 -0.942048 0
M  V30 14655 H 1368.24 4.18893 -0.458936 0
M  V30 14656 H 1366.97 3.24701 0.35164 0
M  V30 14657 H 1365.62 3.20462 -1.78045 0
M  V30 14658 H 1365.27 5.02888 -0.106246 0
M  V30 14659 H 1364.97 5.60459 -1.76522 0
M  V30 14660 H 1366.5 6.03362 -0.937359 0
M  V30 14661 H 1367.91 4.93156 -2.92353 0
M  V30 14662 H 1366.31 4.73292 -3.68938 0
M  V30 14663 H 1367.38 3.32887 -3.52583 0
M  V30 14664 N 1368.72 1.0394 1.18466 0
M  V30 14665 C 1369.68 0.633804 2.20262 0
M  V30 14666 C 1370.68 -0.308136 1.5782 0
M  V30 14667 O 1371.87 -0.0937087 1.73948 0
M  V30 14668 C 1369.01 -0.0709693 3.40826 0
M  V30 14669 H 1370.2 1.53463 2.57661 0
M  V30 14670 H 1367.75 0.831806 1.32328 0
M  V30 14671 H 1368.49 -0.985659 3.08958 0
M  V30 14672 H 1368.27 0.606023 3.87388 0
M  V30 14673 H 1369.76 -0.341298 4.16203 0
M  V30 14674 N 1370.2 -1.34667 0.818693 0
M  V30 14675 C 1371.45 -1.9767 0.401184 0
M  V30 14676 C 1371.76 -1.65644 -1.04027 0
M  V30 14677 O 1372.97 -2.22104 -1.56148 0
M  V30 14678 C 1371.42 -3.53677 0.666398 0
M  V30 14679 C 1371.03 -3.94601 2.12119 0
M  V30 14680 C 1372.77 -4.23331 0.314845 0
M  V30 14681 C 1370.68 -5.43502 2.33151 0
M  V30 14682 H 1369.61 -0.739675 0.146275 0
M  V30 14683 H 1372.26 -1.53568 1.00445 0
M  V30 14684 H 1370.64 -3.95999 -0.00698307 0
M  V30 14685 H 1371.82 -3.63396 2.83338 0
M  V30 14686 H 1370.13 -3.37871 2.43377 0
M  V30 14687 H 1372.73 -5.32804 0.449881 0
M  V30 14688 H 1373.07 -4.09666 -0.740235 0
M  V30 14689 H 1373.61 -3.8647 0.942631 0
M  V30 14690 H 1370.35 -5.62148 3.37149 0
M  V30 14691 H 1369.87 -5.76236 1.66471 0
M  V30 14692 H 1371.54 -6.10127 2.153 0
M  V30 14693 N 1371.68 -0.573274 -1.46804 0
M  V30 14694 C 1372.92 -0.0553432 -2.02724 0
M  V30 14695 C 1373.26 1.29753 -1.44492 0
M  V30 14696 O 1372.53 1.84804 -0.606455 0
M  V30 14697 C 1372.81 0.0205511 -3.60094 0
M  V30 14698 C 1372.67 -1.36055 -4.2873 0
M  V30 14699 C 1373.99 0.725944 -4.34071 0
M  V30 14700 H 1371.1 -0.0215858 -0.736684 0
M  V30 14701 H 1373.75 -0.738657 -1.75054 0
M  V30 14702 H 1371.9 0.602481 -3.838 0
M  V30 14703 H 1373.57 -1.98692 -4.16316 0
M  V30 14704 H 1371.81 -1.93087 -3.88458 0
M  V30 14705 H 1372.48 -1.26001 -5.37427 0
M  V30 14706 H 1374.96 0.231677 -4.15455 0
M  V30 14707 H 1373.83 0.74805 -5.43779 0
M  V30 14708 H 1374.1 1.78536 -4.04447 0
M  V30 14709 N 1373.15 1.5451 -0.310553 0
M  V30 14710 C 1374.1 2.23871 0.561277 0
M  V30 14711 C 1375.07 1.22475 1.12202 0
M  V30 14712 O 1376.26 1.51121 1.16477 0
M  V30 14713 C 1373.4 2.99029 1.72267 0
M  V30 14714 C 1372.51 4.15218 1.19241 0
M  V30 14715 C 1371.64 4.77935 2.31843 0
M  V30 14716 C 1370.68 5.86251 1.75999 0
M  V30 14717 N 1369.82 6.42885 2.82212 0
M  V30 14718 H 1374.66 2.97977 -0.0367998 0
M  V30 14719 H 1372.2 1.4707 -0.0299317 0
M  V30 14720 H 1374.16 3.40842 2.40588 0
M  V30 14721 H 1372.79 2.27281 2.29223 0
M  V30 14722 H 1371.84 3.78279 0.401148 0
M  V30 14723 H 1373.15 4.93225 0.743675 0
M  V30 14724 H 1372.3 5.2265 3.08094 0
M  V30 14725 H 1371.04 3.99281 2.80047 0
M  V30 14726 H 1370.05 5.40952 0.982415 0
M  V30 14727 H 1371.27 6.66795 1.28688 0
M  V30 14728 H 1369.22 5.67109 3.29732 0
M  V30 14729 H 1369.14 7.16267 2.41864 0
M  V30 14730 H 1370.4 6.92256 3.58332 0
M  V30 14731 N 1374.63 0.0384594 1.57553 0
M  V30 14732 C 1375.91 -0.677308 1.83499 0
M  V30 14733 C 1376.29 -1.89789 0.924294 0
M  V30 14734 O 1375.64 -2.28493 -0.0178185 0
M  V30 14735 C 1375.85 -1.04667 3.32935 0
M  V30 14736 C 1377.2 -1.43436 3.99639 0
M  V30 14737 O 1378.22 -1.13938 3.37486 0
M  V30 14738 O 1377.08 -1.98435 5.09201 0
M  V30 14739 H 1374.17 -0.333131 0.756936 0
M  V30 14740 H 1376.72 0.066854 1.69568 0
M  V30 14741 H 1375.49 -0.178349 3.90893 0
M  V30 14742 H 1375.11 -1.8487 3.52007 0
M  V30 14743 N 1376.11 -1.55841 -0.234795 0
M  V30 14744 C 1377.52 -1.68555 -0.802886 0
M  V30 14745 C 1377.87 -0.638107 -1.85533 0
M  V30 14746 O 1377 0.21333 -2.15346 0
M  V30 14747 C 1377.59 -3.0558 -1.46309 0
M  V30 14748 C 1376.15 -3.20192 -1.97874 0
M  V30 14749 C 1375.3 -2.64457 -0.834136 0
M  V30 14750 H 1378.25 -1.58697 -0.0103759 0
M  V30 14751 H 1378.27 -3.007 -2.33152 0
M  V30 14752 H 1377.78 -3.81792 -0.696868 0
M  V30 14753 H 1375.88 -2.48825 -2.77339 0
M  V30 14754 H 1376 -4.27251 -2.1678 0
M  V30 14755 H 1374.36 -2.22593 -1.23791 0
M  V30 14756 H 1375.14 -3.43205 -0.0807988 0
M  V30 14757 N 1377.59 0.500963 -1.49426 0
M  V30 14758 C 1378.84 1.25694 -1.5915 0
M  V30 14759 C 1379.17 1.92209 -0.277365 0
M  V30 14760 O 1378.44 1.8072 0.719065 0
M  V30 14761 C 1378.73 2.32391 -2.75076 0
M  V30 14762 C 1378.58 1.70377 -4.16283 0
M  V30 14763 C 1379.9 3.33952 -2.86643 0
M  V30 14764 H 1377.02 0.455631 -0.579283 0
M  V30 14765 H 1379.66 0.555099 -1.8171 0
M  V30 14766 H 1377.81 2.92252 -2.55971 0
M  V30 14767 H 1379.48 1.14343 -4.46904 0
M  V30 14768 H 1377.72 1.00789 -4.21929 0
M  V30 14769 H 1378.4 2.47767 -4.9327 0
M  V30 14770 H 1380.87 2.84081 -3.04035 0
M  V30 14771 H 1379.75 4.05969 -3.69433 0
M  V30 14772 H 1380.01 3.96279 -1.95998 0
M  V30 14773 N 1379.07 1.38501 0.752011 0
M  V30 14774 C 1380 1.38577 1.87933 0
M  V30 14775 C 1380.98 0.251454 1.68231 0
M  V30 14776 O 1382.16 0.45477 1.888 0
M  V30 14777 C 1379.29 1.21164 3.25479 0
M  V30 14778 C 1378.25 2.31816 3.59785 0
M  V30 14779 C 1377.57 1.99508 4.96085 0
M  V30 14780 C 1378.87 3.74082 3.645 0
M  V30 14781 H 1380.57 2.32913 1.88127 0
M  V30 14782 H 1378.11 1.12113 0.903698 0
M  V30 14783 H 1380.07 1.19842 4.04 0
M  V30 14784 H 1378.79 0.232899 3.25769 0
M  V30 14785 H 1377.45 2.32327 2.83584 0
M  V30 14786 H 1377.1 1.00114 4.92936 0
M  V30 14787 H 1376.8 2.73617 5.20007 0
M  V30 14788 H 1378.32 1.99807 5.76983 0
M  V30 14789 H 1379.74 3.75593 4.33131 0
M  V30 14790 H 1378.13 4.47409 3.99931 0
M  V30 14791 H 1379.2 4.06284 2.64692 0
M  V30 14792 N 1380.55 -0.980364 1.23396 0
M  V30 14793 C 1381.49 -2.09401 1.01262 0
M  V30 14794 C 1382.49 -1.69331 -0.0483957 0
M  V30 14795 O 1383.69 -1.79693 0.105109 0
M  V30 14796 H 1380.07 -0.684969 0.310358 0
M  V30 14797 H 1382.04 -2.25236 1.95732 0
M  V30 14798 C 1380.79 -3.42118 0.620526 0
M  V30 14799 H 1380.11 -3.73402 1.42868 0
M  V30 14800 H 1381.55 -4.2098 0.505169 0
M  V30 14801 C 1380.01 -3.30146 -0.671208 0
M  V30 14802 O 1380.54 -3.62997 -1.72034 0
M  V30 14803 N 1378.75 -2.83303 -0.647137 0
M  V30 14804 H 1378.29 -2.56767 0.206957 0
M  V30 14805 H 1378.25 -2.75675 -1.51165 0
M  V30 14806 N 1382.02 -1.04567 -1.17913 0
M  V30 14807 C 1382.97 -0.641119 -2.21717 0
M  V30 14808 C 1383.94 0.353585 -1.62293 0
M  V30 14809 O 1385.13 0.246427 -1.89202 0
M  V30 14810 C 1382.27 -0.0154726 -3.45097 0
M  V30 14811 C 1381.38 -1.05825 -4.18838 0
M  V30 14812 C 1380.51 -0.400588 -5.29687 0
M  V30 14813 C 1379.55 -1.42811 -5.95207 0
M  V30 14814 N 1378.69 -0.795059 -6.97584 0
M  V30 14815 H 1383.53 -1.5308 -2.55676 0
M  V30 14816 H 1381.07 -0.765715 -1.25599 0
M  V30 14817 H 1383.02 0.364653 -4.15603 0
M  V30 14818 H 1381.65 0.837704 -3.11741 0
M  V30 14819 H 1380.71 -1.55627 -3.47109 0
M  V30 14820 H 1382.02 -1.83849 -4.63682 0
M  V30 14821 H 1381.17 0.0334682 -6.06691 0
M  V30 14822 H 1379.91 0.411696 -4.85959 0
M  V30 14823 H 1378.92 -1.87225 -5.1694 0
M  V30 14824 H 1380.14 -2.24218 -6.41017 0
M  V30 14825 H 1378.09 -0.00317202 -6.56 0
M  V30 14826 H 1378 -1.51293 -7.40707 0
M  V30 14827 H 1379.27 -0.385567 -7.78546 0
M  V30 14828 N 1383.5 1.34231 -0.825823 0
M  V30 14829 C 1384.78 1.92662 -0.337743 0
M  V30 14830 C 1385.16 1.75358 1.17529 0
M  V30 14831 O 1384.51 1.13405 1.98372 0
M  V30 14832 C 1384.72 3.40394 -0.770269 0
M  V30 14833 C 1386.06 4.17546 -0.770767 0
M  V30 14834 O 1387.09 3.4899 -0.713035 0
M  V30 14835 O 1385.95 5.39903 -0.846602 0
M  V30 14836 H 1383.04 0.821768 -0.0928741 0
M  V30 14837 H 1385.59 1.43187 -0.910807 0
M  V30 14838 H 1384.36 3.46802 -1.81228 0
M  V30 14839 H 1383.98 3.97223 -0.17306 0
M  V30 14840 N 1384.98 0.581051 1.46498 0
M  V30 14841 C 1385.93 -0.165944 2.32007 0
M  V30 14842 C 1386.92 -0.886015 1.44382 0
M  V30 14843 O 1388.13 -0.804592 1.61017 0
M  V30 14844 H 1384.5 -0.0723834 0.748508 0
M  V30 14845 H 1386.47 0.574089 2.92826 0
M  V30 14846 C 1385.22 -1.16741 3.27516 0
M  V30 14847 H 1384.55 -0.622756 3.9492 0
M  V30 14848 H 1385.99 -1.66052 3.90132 0
M  V30 14849 C 1384.44 -2.22755 2.52749 0
M  V30 14850 O 1384.97 -3.30081 2.28932 0
M  V30 14851 N 1383.18 -1.97318 2.1334 0
M  V30 14852 H 1382.73 -1.10049 2.3291 0
M  V30 14853 H 1382.69 -2.68461 1.63633 0
M  V30 14854 N 1386.46 -1.54343 0.318742 0
M  V30 14855 C 1387.68 -2.05361 -0.290126 0
M  V30 14856 C 1388.11 -1.19362 -1.45376 0
M  V30 14857 O 1387.47 -0.201639 -1.80175 0
M  V30 14858 C 1387.51 -3.53601 -0.707025 0
M  V30 14859 O 1386.62 -3.70561 -1.80992 0
M  V30 14860 H 1385.96 -0.661858 -0.0532933 0
M  V30 14861 H 1388.49 -1.99228 0.46575 0
M  V30 14862 H 1388.5 -3.95782 -0.991005 0
M  V30 14863 H 1387.17 -4.1565 0.144091 0
M  V30 14864 H 1385.75 -3.40286 -1.52513 0
M  V30 14865 N 1387.94 -0.0468143 -1.5753 0
M  V30 14866 C 1388.88 0.946945 -2.12452 0
M  V30 14867 C 1389.88 1.32515 -1.05527 0
M  V30 14868 O 1391.08 1.30532 -1.23941 0
M  V30 14869 H 1387.46 0.323223 -0.678993 0
M  V30 14870 H 1389.43 0.45858 -2.94855 0
M  V30 14871 C 1388.18 2.21402 -2.68098 0
M  V30 14872 H 1387.5 1.93178 -3.50032 0
M  V30 14873 H 1388.94 2.89105 -3.10152 0
M  V30 14874 C 1387.4 2.95576 -1.61668 0
M  V30 14875 O 1387.93 3.88353 -1.02689 0
M  V30 14876 N 1386.14 2.58228 -1.33291 0
M  V30 14877 H 1385.68 1.82858 -1.8144 0
M  V30 14878 H 1385.64 3.08164 -0.623092 0
M  V30 14879 N 1389.41 1.55964 0.226527 0
M  V30 14880 C 1390.83 1.68978 0.793936 0
M  V30 14881 C 1391.18 0.647938 1.85192 0
M  V30 14882 O 1390.3 -0.201907 2.15456 0
M  V30 14883 C 1390.9 3.06351 1.44687 0
M  V30 14884 C 1389.46 3.21237 1.96173 0
M  V30 14885 C 1388.6 2.64896 0.8201 0
M  V30 14886 H 1391.55 1.587 0.00195967 0
M  V30 14887 H 1391.57 3.01932 2.31554 0
M  V30 14888 H 1391.09 3.82156 0.676611 0
M  V30 14889 H 1389.19 2.50292 2.76016 0
M  V30 14890 H 1389.3 4.28394 2.14512 0
M  V30 14891 H 1387.66 2.23247 1.22609 0
M  V30 14892 H 1388.45 3.43243 0.0625967 0
M  V30 14893 N 1390.89 -0.493031 1.4969 0
M  V30 14894 C 1392.14 -1.24576 1.60787 0
M  V30 14895 C 1392.49 -1.90134 0.2944 0
M  V30 14896 O 1391.79 -1.78118 -0.706023 0
M  V30 14897 C 1391.98 -2.33014 2.70997 0
M  V30 14898 C 1391.81 -1.7809 4.12933 0
M  V30 14899 C 1390.58 -1.59036 4.7962 0
M  V30 14900 C 1392.78 -1.28823 4.97905 0
M  V30 14901 N 1390.76 -0.991255 6.05844 0
M  V30 14902 C 1392.13 -0.810976 6.14673 0
M  V30 14903 C 1394.19 -1.17471 4.83844 0
M  V30 14904 C 1392.89 -0.23142 7.18928 0
M  V30 14905 C 1394.91 -0.609116 5.88255 0
M  V30 14906 C 1394.28 -0.142128 7.04257 0
M  V30 14907 H 1390.38 -0.44553 0.642672 0
M  V30 14908 H 1392.96 -0.551483 1.86726 0
M  V30 14909 H 1391.13 -2.99893 2.46817 0
M  V30 14910 H 1392.86 -3.00051 2.71572 0
M  V30 14911 H 1389.62 -1.83634 4.3655 0
M  V30 14912 H 1390.04 -0.710746 6.73259 0
M  V30 14913 H 1394.68 -1.52173 3.94466 0
M  V30 14914 H 1392.4 0.127848 8.07999 0
M  V30 14915 H 1395.99 -0.523948 5.79436 0
M  V30 14916 H 1394.87 0.288689 7.83668 0
M  V30 14917 N 1392.37 -1.38898 -0.744656 0
M  V30 14918 C 1393.28 -1.39098 -1.88915 0
M  V30 14919 C 1394.3 -0.286956 -1.71617 0
M  V30 14920 O 1395.47 -0.526852 -1.94387 0
M  V30 14921 C 1392.54 -1.22352 -3.24393 0
M  V30 14922 C 1391.6 -2.4264 -3.54153 0
M  V30 14923 C 1390.83 -2.26683 -4.83167 0
M  V30 14924 O 1391.05 -1.26523 -5.56191 0
M  V30 14925 O 1389.99 -3.15464 -5.12607 0
M  V30 14926 H 1393.81 -2.35551 -1.91701 0
M  V30 14927 H 1391.4 -1.19911 -0.891158 0
M  V30 14928 H 1393.28 -1.15109 -4.05374 0
M  V30 14929 H 1391.96 -0.289886 -3.22399 0
M  V30 14930 H 1390.86 -2.55459 -2.73298 0
M  V30 14931 H 1392.2 -3.34664 -3.60917 0
M  V30 14932 N 1393.85 0.973806 -1.23914 0
M  V30 14933 C 1394.78 2.07003 -0.983982 0
M  V30 14934 C 1395.79 1.62739 0.0443893 0
M  V30 14935 O 1396.98 1.77465 -0.191927 0
M  V30 14936 C 1394.08 3.35737 -0.461937 0
M  V30 14937 C 1393.26 4.08939 -1.55202 0
M  V30 14938 C 1392.31 5.15947 -1.03369 0
M  V30 14939 O 1391.34 5.42461 -1.72409 0
M  V30 14940 N 1392.54 5.80343 0.135067 0
M  V30 14941 H 1395.31 2.29468 -1.92781 0
M  V30 14942 H 1392.87 1.14098 -1.14861 0
M  V30 14943 H 1394.86 4.04576 -0.100074 0
M  V30 14944 H 1393.43 3.10189 0.387467 0
M  V30 14945 H 1392.65 3.34462 -2.08635 0
M  V30 14946 H 1393.94 4.5461 -2.2849 0
M  V30 14947 H 1393.34 5.61196 0.71241 0
M  V30 14948 H 1391.89 6.50326 0.438132 0
M  V30 14949 N 1395.33 1.05191 1.17357 0
M  V30 14950 C 1396.6 0.675826 1.83554 0
M  V30 14951 C 1396.98 -0.843812 1.93502 0
M  V30 14952 O 1396.33 -1.74975 1.46956 0
M  V30 14953 C 1396.54 1.36481 3.21207 0
M  V30 14954 C 1397.89 1.50285 3.97114 0
M  V30 14955 O 1398.91 1.32382 3.30686 0
M  V30 14956 O 1397.77 1.79562 5.16159 0
M  V30 14957 H 1394.87 0.237898 0.792044 0
M  V30 14958 H 1397.41 1.1515 1.24654 0
M  V30 14959 H 1396.18 2.40156 3.08935 0
M  V30 14960 H 1395.81 0.878491 3.87774 0
M  V30 14961 N 1396.8 -1.33791 0.83293 0
M  V30 14962 C 1398.03 -2.0272 0.438111 0
M  V30 14963 C 1398.45 -1.62279 -0.951163 0
M  V30 14964 O 1397.81 -0.812406 -1.62079 0
M  V30 14965 C 1397.86 -3.5623 0.559698 0
M  V30 14966 O 1396.96 -4.10292 -0.41646 0
M  V30 14967 H 1396.31 -0.639438 0.178928 0
M  V30 14968 H 1398.84 -1.70821 1.12612 0
M  V30 14969 H 1398.85 -4.0563 0.439148 0
M  V30 14970 H 1397.52 -3.8501 1.5729 0
M  V30 14971 H 1396.1 -3.72034 -0.25396 0
M  V30 14972 N 1398.28 -0.588812 -1.46187 0
M  V30 14973 C 1399.53 -0.0768417 -2.02654 0
M  V30 14974 C 1399.86 1.28213 -1.4586 0
M  V30 14975 O 1399.14 1.8415 -0.626022 0
M  V30 14976 C 1399.42 -0.0176429 -3.60096 0
M  V30 14977 C 1399.27 -1.40595 -4.27262 0
M  V30 14978 C 1400.59 0.679864 -4.34817 0
M  V30 14979 H 1397.71 -0.0293981 -0.736413 0
M  V30 14980 H 1400.35 -0.757183 -1.74261 0
M  V30 14981 H 1398.5 0.56174 -3.84417 0
M  V30 14982 H 1400.17 -2.03097 -4.14185 0
M  V30 14983 H 1398.42 -1.97196 -3.86388 0
M  V30 14984 H 1399.09 -1.31694 -5.3606 0
M  V30 14985 H 1401.56 0.1876 -4.15677 0
M  V30 14986 H 1400.44 0.690333 -5.44542 0
M  V30 14987 H 1400.7 1.74237 -4.06318 0
M  V30 14988 N 1399.76 1.54172 -0.326923 0
M  V30 14989 C 1400.67 2.28149 0.546351 0
M  V30 14990 C 1401.69 1.32628 1.12631 0
M  V30 14991 O 1402.86 1.65647 1.14556 0
M  V30 14992 C 1399.93 3.02742 1.68962 0
M  V30 14993 C 1398.99 4.13856 1.14112 0
M  V30 14994 C 1398.22 4.84882 2.2299 0
M  V30 14995 O 1398.44 4.55448 3.43399 0
M  V30 14996 O 1397.38 5.71714 1.8822 0
M  V30 14997 H 1401.2 3.03651 -0.0545288 0
M  V30 14998 H 1398.79 1.49113 -0.0925027 0
M  V30 14999 H 1400.67 3.49443 2.35515 0
M  V30 15000 H 1399.35 2.30113 2.27662 0
M  V30 15001 H 1398.25 3.71497 0.440579 0
M  V30 15002 H 1399.59 4.88539 0.599211 0
M  V30 15003 N 1401.24 0.0551678 1.57503 0
M  V30 15004 C 1402.49 -0.617201 1.92025 0
M  V30 15005 C 1402.8 -1.71767 0.93571 0
M  V30 15006 O 1404.01 -2.44847 1.17312 0
M  V30 15007 C 1402.46 -1.14915 3.41061 0
M  V30 15008 C 1402.07 -0.0805814 4.47928 0
M  V30 15009 C 1403.81 -1.79654 3.8461 0
M  V30 15010 C 1401.72 -0.625639 5.88081 0
M  V30 15011 H 1400.65 -0.23431 0.716669 0
M  V30 15012 H 1403.3 0.124706 1.83076 0
M  V30 15013 H 1401.68 -1.9435 3.45028 0
M  V30 15014 H 1402.86 0.693222 4.55556 0
M  V30 15015 H 1401.17 0.469581 4.13744 0
M  V30 15016 H 1403.77 -2.21436 4.86693 0
M  V30 15017 H 1404.11 -2.64987 3.21073 0
M  V30 15018 H 1404.65 -1.06868 3.83176 0
M  V30 15019 H 1401.39 0.190148 6.55224 0
M  V30 15020 H 1400.91 -1.36734 5.84007 0
M  V30 15021 H 1402.58 -1.10728 6.37454 0
M  V30 15022 N 1402.72 -1.56081 -0.218252 0
M  V30 15023 C 1403.96 -1.79247 -0.942157 0
M  V30 15024 C 1404.29 -0.624492 -1.84202 0
M  V30 15025 O 1403.55 0.390973 -1.91755 0
M  V30 15026 C 1403.85 -3.08199 -1.80965 0
M  V30 15027 C 1403.51 -4.38197 -1.06274 0
M  V30 15028 C 1402.17 -4.73517 -0.856432 0
M  V30 15029 C 1404.53 -5.18441 -0.535532 0
M  V30 15030 C 1401.85 -5.86595 -0.111065 0
M  V30 15031 C 1404.21 -6.32295 0.196507 0
M  V30 15032 C 1402.87 -6.66215 0.414041 0
M  V30 15033 H 1402.14 -0.655913 -0.34476 0
M  V30 15034 H 1404.79 -1.90344 -0.210095 0
M  V30 15035 H 1403.09 -2.92238 -2.60967 0
M  V30 15036 H 1404.79 -3.23325 -2.37196 0
M  V30 15037 H 1401.38 -4.10466 -1.23352 0
M  V30 15038 H 1405.56 -4.91586 -0.682386 0
M  V30 15039 H 1400.82 -6.11363 0.0676711 0
M  V30 15040 H 1404.99 -6.93701 0.612516 0
M  V30 15041 H 1402.62 -7.5368 0.993532 0
M  V30 15042 N 1404.2 0.485086 -1.49949 0
M  V30 15043 C 1405.44 1.23486 -1.5948 0
M  V30 15044 C 1405.76 1.93377 -0.294082 0
M  V30 15045 O 1406.96 2.70173 -0.268133 0
M  V30 15046 C 1405.42 2.24303 -2.81454 0
M  V30 15047 C 1405.03 1.60279 -4.18347 0
M  V30 15048 C 1406.77 3.0001 -3.00324 0
M  V30 15049 C 1404.68 2.593 -5.31524 0
M  V30 15050 H 1403.61 0.464595 -0.593858 0
M  V30 15051 H 1406.26 0.506893 -1.7636 0
M  V30 15052 H 1404.64 3.00332 -2.58102 0
M  V30 15053 H 1405.82 0.901352 -4.51899 0
M  V30 15054 H 1404.13 0.969053 -4.04967 0
M  V30 15055 H 1406.73 3.74091 -3.82048 0
M  V30 15056 H 1407.07 3.5857 -2.11502 0
M  V30 15057 H 1407.6 2.31095 -3.2379 0
M  V30 15058 H 1404.34 2.05498 -6.22455 0
M  V30 15059 H 1403.86 3.27638 -5.02408 0
M  V30 15060 H 1405.54 3.21411 -5.61519 0
M  V30 15061 N 1405.67 1.39291 0.737279 0
M  V30 15062 C 1406.95 1.26901 1.48847 0
M  V30 15063 C 1407.33 -0.122417 2.10745 0
M  V30 15064 O 1406.68 -1.13343 1.98408 0
M  V30 15065 C 1406.89 2.3916 2.54172 0
M  V30 15066 C 1408.24 2.78368 3.20619 0
M  V30 15067 O 1409.26 2.38593 2.64484 0
M  V30 15068 O 1408.12 3.47014 4.22189 0
M  V30 15069 H 1405.21 0.497176 0.660867 0
M  V30 15070 H 1407.76 1.51159 0.771299 0
M  V30 15071 H 1406.53 3.3219 2.06797 0
M  V30 15072 H 1406.15 2.16555 3.33451 0
M  V30 15073 N 1407.15 -0.967221 1.24429 0
M  V30 15074 C 1408.06 -2.09582 1.05417 0
M  V30 15075 C 1409.08 -1.73999 -0.00516127 0
M  V30 15076 O 1410.25 -2.00472 0.193115 0
M  V30 15077 C 1407.32 -3.40327 0.661697 0
M  V30 15078 C 1406.38 -3.89854 1.79756 0
M  V30 15079 C 1405.61 -5.1436 1.42372 0
M  V30 15080 O 1405.84 -5.69536 0.313754 0
M  V30 15081 O 1404.77 -5.58283 2.24952 0
M  V30 15082 H 1408.6 -2.28517 2.00034 0
M  V30 15083 H 1406.18 -1.07978 1.03253 0
M  V30 15084 H 1408.06 -4.18943 0.454369 0
M  V30 15085 H 1406.74 -3.22691 -0.255348 0
M  V30 15086 H 1405.64 -3.12297 2.05964 0
M  V30 15087 H 1406.98 -4.11967 2.69339 0
M  V30 15088 N 1408.63 -1.05812 -1.16797 0
M  V30 15089 C 1409.58 -0.658636 -2.2308 0
M  V30 15090 C 1410.57 0.323104 -1.6629 0
M  V30 15091 O 1411.78 0.188492 -1.7901 0
M  V30 15092 H 1408.15 -0.194843 -0.72632 0
M  V30 15093 H 1410.12 -1.56501 -2.54067 0
M  V30 15094 C 1408.87 -0.0559428 -3.47655 0
M  V30 15095 H 1408.2 -0.802468 -3.91664 0
M  V30 15096 H 1409.64 0.186118 -4.23591 0
M  V30 15097 C 1408.09 1.19913 -3.14837 0
M  V30 15098 O 1408.62 2.28772 -3.30191 0
M  V30 15099 N 1406.83 1.09921 -2.69009 0
M  V30 15100 H 1406.38 0.213331 -2.56715 0
M  V30 15101 H 1406.34 1.93981 -2.47424 0
M  V30 15102 N 1410.11 1.33347 -0.840014 0
M  V30 15103 C 1411.06 2.31113 -0.262617 0
M  V30 15104 C 1412.05 1.58189 0.606023 0
M  V30 15105 O 1413.26 1.73047 0.495457 0
M  V30 15106 H 1409.63 0.74908 -0.0662003 0
M  V30 15107 H 1411.6 2.77318 -1.10169 0
M  V30 15108 C 1410.35 3.43377 0.54658 0
M  V30 15109 H 1409.67 3.99642 -0.112514 0
M  V30 15110 H 1411.11 4.13978 0.91641 0
M  V30 15111 C 1409.57 2.89333 1.72592 0
M  V30 15112 O 1410.1 2.85615 2.82466 0
M  V30 15113 N 1408.31 2.45926 1.54819 0
M  V30 15114 H 1407.86 2.49149 0.654404 0
M  V30 15115 H 1407.81 2.10119 2.33875 0
M  V30 15116 N 1411.59 0.596556 1.45873 0
M  V30 15117 C 1412.54 -0.14991 2.27507 0
M  V30 15118 C 1413.52 -0.848942 1.36681 0
M  V30 15119 O 1414.71 -0.740752 1.60754 0
M  V30 15120 C 1411.84 -1.15391 3.23326 0
M  V30 15121 C 1410.93 -0.456283 4.21638 0
M  V30 15122 N 1411.32 0.495911 5.03363 0
M  V30 15123 C 1409.62 -0.705263 4.40389 0
M  V30 15124 C 1410.32 0.904941 5.74618 0
M  V30 15125 N 1409.29 0.251069 5.4302 0
M  V30 15126 H 1413.09 0.581593 2.88088 0
M  V30 15127 H 1410.61 0.419386 1.56891 0
M  V30 15128 H 1412.61 -1.70299 3.80531 0
M  V30 15129 H 1411.27 -1.88609 2.64305 0
M  V30 15130 H 1412.28 0.872126 5.10504 0
M  V30 15131 H 1408.95 -1.42296 3.92502 0
M  V30 15132 H 1410.34 1.68965 6.50308 0
M  V30 15133 N 1413.06 -1.53996 0.335095 0
M  V30 15134 C 1414.01 -2.24736 -0.52559 0
M  V30 15135 C 1414.98 -1.24244 -1.10239 0
M  V30 15136 O 1416.17 -1.52955 -1.14058 0
M  V30 15137 C 1413.31 -3.01732 -1.67487 0
M  V30 15138 C 1412.42 -4.17062 -1.1262 0
M  V30 15139 C 1411.55 -4.81563 -2.2421 0
M  V30 15140 C 1410.59 -5.88977 -1.6665 0
M  V30 15141 N 1409.73 -6.47293 -2.71949 0
M  V30 15142 H 1414.57 -2.97881 0.0842008 0
M  V30 15143 H 1412.11 -1.47003 0.0533254 0
M  V30 15144 H 1414.06 -3.44626 -2.35135 0
M  V30 15145 H 1412.69 -2.30899 -2.25578 0
M  V30 15146 H 1411.75 -3.78869 -0.340917 0
M  V30 15147 H 1413.06 -4.94346 -0.665113 0
M  V30 15148 H 1412.21 -5.27486 -2.9974 0
M  V30 15149 H 1410.95 -4.03685 -2.73659 0
M  V30 15150 H 1409.96 -5.42446 -0.89623 0
M  V30 15151 H 1411.18 -6.68758 -1.18064 0
M  V30 15152 H 1409.13 -5.72283 -3.20668 0
M  V30 15153 H 1409.04 -7.20024 -2.30438 0
M  V30 15154 H 1410.31 -6.97869 -3.47273 0
M  V30 15155 N 1414.54 -0.0635198 -1.57472 0
M  V30 15156 C 1415.77 0.616735 -1.97494 0
M  V30 15157 C 1416.18 1.63646 -0.941568 0
M  V30 15158 O 1415.54 1.82355 0.0727768 0
M  V30 15159 C 1415.59 1.29268 -3.37597 0
M  V30 15160 O 1415.31 0.313781 -4.36975 0
M  V30 15161 C 1416.81 2.06154 -3.92448 0
M  V30 15162 H 1414.03 0.167753 -0.649692 0
M  V30 15163 H 1416.58 -0.133475 -2.04064 0
M  V30 15164 H 1414.73 1.99404 -3.3214 0
M  V30 15165 H 1415.15 0.797723 -5.18398 0
M  V30 15166 H 1416.62 2.48853 -4.92723 0
M  V30 15167 H 1417.1 2.91474 -3.28541 0
M  V30 15168 H 1417.7 1.40903 -4.01281 0
M  V30 15169 N 1416.02 1.56195 0.209972 0
M  V30 15170 C 1417.27 1.7939 0.930796 0
M  V30 15171 C 1417.59 0.634038 1.84404 0
M  V30 15172 O 1416.86 -0.348467 1.92776 0
M  V30 15173 H 1415.44 0.661676 0.346689 0
M  V30 15174 H 1418.1 1.93665 0.219049 0
M  V30 15175 H 1417.2 2.71982 1.53075 0
M  V30 15176 N 1417.5 -0.477127 1.50204 0
M  V30 15177 C 1418.73 -1.25126 1.64399 0
M  V30 15178 C 1419.14 -1.86401 0.32424 0
M  V30 15179 O 1418.48 -1.69711 -0.703119 0
M  V30 15180 C 1418.54 -2.40428 2.67273 0
M  V30 15181 C 1418.2 -1.99837 4.10992 0
M  V30 15182 C 1419.2 -1.52435 4.97051 0
M  V30 15183 C 1416.89 -2.08742 4.56872 0
M  V30 15184 C 1418.88 -1.14472 6.27037 0
M  V30 15185 C 1416.57 -1.70391 5.86865 0
M  V30 15186 C 1417.57 -1.23333 6.71772 0
M  V30 15187 O 1417.25 -0.855111 7.99339 0
M  V30 15188 H 1416.99 -0.384801 0.555791 0
M  V30 15189 H 1419.54 -0.576654 1.97139 0
M  V30 15190 H 1417.77 -3.1104 2.29763 0
M  V30 15191 H 1419.46 -3.02406 2.7075 0
M  V30 15192 H 1420.22 -1.44981 4.62823 0
M  V30 15193 H 1416.1 -2.44319 3.90934 0
M  V30 15194 H 1419.65 -0.776712 6.93263 0
M  V30 15195 H 1415.54 -1.77501 6.20615 0
M  V30 15196 H 1416.31 -0.984492 8.12558 0
M  V30 15197 N 1418.98 -1.3968 -0.729882 0
M  V30 15198 C 1420.21 -1.40263 -1.5169 0
M  V30 15199 C 1420.61 0.00325293 -1.892 0
M  V30 15200 O 1419.96 0.986225 -1.54982 0
M  V30 15201 C 1420.02 -2.21629 -2.83056 0
M  V30 15202 C 1419.68 -3.70204 -2.67951 0
M  V30 15203 C 1420.68 -4.63169 -2.36158 0
M  V30 15204 C 1418.37 -4.13851 -2.84662 0
M  V30 15205 C 1420.36 -5.97763 -2.21265 0
M  V30 15206 C 1418.05 -5.4852 -2.69387 0
M  V30 15207 C 1419.04 -6.4029 -2.37734 0
M  V30 15208 O 1418.73 -7.72478 -2.22561 0
M  V30 15209 H 1418.46 -0.480808 -0.475184 0
M  V30 15210 H 1421.02 -1.84184 -0.909136 0
M  V30 15211 H 1419.25 -1.72465 -3.46111 0
M  V30 15212 H 1420.94 -2.14328 -3.447 0
M  V30 15213 H 1421.7 -4.30748 -2.22893 0
M  V30 15214 H 1417.58 -3.42751 -3.0829 0
M  V30 15215 H 1421.13 -6.69359 -1.96481 0
M  V30 15216 H 1417.02 -5.8053 -2.82232 0
M  V30 15217 H 1417.79 -7.83258 -2.37591 0
M  V30 15218 N 1420.45 0.960609 -1.2494 0
M  V30 15219 C 1421.36 2.0902 -1.06527 0
M  V30 15220 C 1422.38 1.74 -0.00406641 0
M  V30 15221 O 1423.56 2.00367 -0.203744 0
M  V30 15222 C 1420.62 3.39971 -0.679736 0
M  V30 15223 C 1419.68 3.88895 -1.81821 0
M  V30 15224 C 1418.92 5.13597 -1.45098 0
M  V30 15225 O 1419.14 5.69362 -0.343954 0
M  V30 15226 O 1418.07 5.57083 -2.27909 0
M  V30 15227 H 1421.9 2.27453 -2.01243 0
M  V30 15228 H 1419.48 1.07429 -1.03824 0
M  V30 15229 H 1421.37 4.18696 -0.47658 0
M  V30 15230 H 1420.04 3.22822 0.238231 0
M  V30 15231 H 1418.95 3.11201 -2.07617 0
M  V30 15232 H 1420.28 4.10533 -2.7152 0
M  V30 15233 N 1421.93 1.0643 1.16234 0
M  V30 15234 C 1423.21 0.695256 1.82827 0
M  V30 15235 C 1423.59 -0.823242 1.94386 0
M  V30 15236 O 1422.94 -1.73406 1.48804 0
M  V30 15237 C 1423.15 1.3988 3.19741 0
M  V30 15238 C 1424.5 1.54489 3.95498 0
M  V30 15239 O 1425.52 1.35882 3.29264 0
M  V30 15240 O 1424.38 1.85027 5.14225 0
M  V30 15241 H 1421.47 0.246285 0.789476 0
M  V30 15242 H 1424.02 1.16466 1.23426 0
M  V30 15243 H 1422.79 2.43419 3.06371 0
M  V30 15244 H 1422.41 0.91957 3.8682 0
M  V30 15245 N 1423.41 -1.329 0.847073 0
M  V30 15246 C 1424.69 -1.921 0.368351 0
M  V30 15247 C 1425.07 -1.77205 -1.14724 0
M  V30 15248 O 1424.42 -1.16547 -1.96543 0
M  V30 15249 C 1424.63 -3.39125 0.824326 0
M  V30 15250 C 1425.97 -4.16267 0.837097 0
M  V30 15251 O 1427 -3.47812 0.768466 0
M  V30 15252 O 1425.86 -5.38487 0.932389 0
M  V30 15253 H 1422.95 -0.820187 0.105936 0
M  V30 15254 H 1425.5 -1.41719 0.933471 0
M  V30 15255 H 1424.27 -3.43875 1.86723 0
M  V30 15256 H 1423.89 -3.96898 0.236233 0
M  V30 15257 N 1424.89 -0.604284 -1.45555 0
M  V30 15258 C 1426.17 -0.0303285 -1.95576 0
M  V30 15259 C 1426.55 1.43661 -1.54676 0
M  V30 15260 O 1425.89 2.13747 -0.807731 0
M  V30 15261 C 1426.1 -0.22497 -3.48274 0
M  V30 15262 C 1427.45 -0.104042 -4.24473 0
M  V30 15263 O 1428.48 -0.154919 -3.55863 0
M  V30 15264 O 1427.33 0.0136297 -5.46498 0
M  V30 15265 H 1424.43 0.0376106 -0.826144 0
M  V30 15266 H 1426.97 -0.674114 -1.55736 0
M  V30 15267 H 1425.75 -1.24391 -3.71002 0
M  V30 15268 H 1425.37 0.454234 -3.94997 0
M  V30 15269 N 1426.37 1.53816 -0.343257 0
M  V30 15270 C 1427.33 2.23654 0.501161 0
M  V30 15271 C 1428.33 1.23664 1.02781 0
M  V30 15272 O 1429.52 1.48104 0.917103 0
M  V30 15273 C 1426.65 2.95596 1.69812 0
M  V30 15274 H 1427.84 2.997 -0.109626 0
M  V30 15275 H 1425.4 1.56013 -0.0946011 0
M  V30 15276 H 1426.13 2.23736 2.34761 0
M  V30 15277 H 1425.92 3.68938 1.32768 0
M  V30 15278 H 1427.41 3.48748 2.29706 0
M  V30 15279 N 1427.84 0.0718701 1.57436 0
M  V30 15280 C 1428.78 -0.924911 2.09709 0
M  V30 15281 C 1429.79 -1.26136 1.02925 0
M  V30 15282 O 1430.98 -1.21853 1.30438 0
M  V30 15283 C 1428.08 -2.24072 2.54254 0
M  V30 15284 C 1427.25 -2.0831 3.84611 0
M  V30 15285 C 1426.31 -3.23196 4.15248 0
M  V30 15286 O 1425.34 -2.98184 4.84846 0
M  V30 15287 N 1426.54 -4.48293 3.688 0
M  V30 15288 H 1429.3 -0.478605 2.95854 0
M  V30 15289 H 1426.86 -0.113853 1.61499 0
M  V30 15290 H 1428.86 -2.99835 2.71811 0
M  V30 15291 H 1427.43 -2.60201 1.73246 0
M  V30 15292 H 1426.65 -1.17014 3.76432 0
M  V30 15293 H 1427.93 -1.9503 4.69937 0
M  V30 15294 H 1427.33 -4.71501 3.12575 0
M  V30 15295 H 1425.89 -5.21082 3.91556 0
M  V30 15296 N 1429.32 -1.56304 -0.201686 0
M  V30 15297 C 1430.57 -1.80237 -0.923093 0
M  V30 15298 C 1430.9 -0.643994 -1.83529 0
M  V30 15299 O 1430.15 0.370613 -1.92159 0
M  V30 15300 C 1430.45 -3.10101 -1.77686 0
M  V30 15301 C 1430.12 -4.393 -1.0162 0
M  V30 15302 C 1428.78 -4.74399 -0.806161 0
M  V30 15303 C 1431.13 -5.1898 -0.480515 0
M  V30 15304 C 1428.46 -5.8668 -0.0488423 0
M  V30 15305 C 1430.81 -6.32051 0.26356 0
M  V30 15306 C 1429.48 -6.65738 0.484679 0
M  V30 15307 H 1428.75 -0.659533 -0.337784 0
M  V30 15308 H 1431.39 -1.90556 -0.189895 0
M  V30 15309 H 1429.7 -2.9499 -2.57853 0
M  V30 15310 H 1431.39 -3.25823 -2.33753 0
M  V30 15311 H 1427.98 -4.11751 -1.18992 0
M  V30 15312 H 1432.17 -4.92283 -0.630208 0
M  V30 15313 H 1427.42 -6.11256 0.13251 0
M  V30 15314 H 1431.6 -6.93012 0.686058 0
M  V30 15315 H 1429.23 -7.52583 1.07341 0
M  V30 15316 N 1430.8 0.469154 -1.50455 0
M  V30 15317 C 1432.22 0.803067 -1.37924 0
M  V30 15318 C 1432.42 1.96708 -0.436837 0
M  V30 15319 O 1431.47 2.52216 0.119823 0
M  V30 15320 C 1432.79 1.11332 -2.79331 0
M  V30 15321 C 1434.33 1.21965 -2.88259 0
M  V30 15322 C 1434.81 1.56302 -4.30504 0
M  V30 15323 N 1436.3 1.6329 -4.33464 0
M  V30 15324 C 1437.03 1.91367 -5.40524 0
M  V30 15325 N 1436.53 2.17451 -6.57789 0
M  V30 15326 N 1438.32 1.92885 -5.2797 0
M  V30 15327 H 1430.47 -0.297928 -2.103 0
M  V30 15328 H 1432.74 -0.0707794 -0.945354 0
M  V30 15329 H 1432.44 0.331052 -3.50138 0
M  V30 15330 H 1432.32 2.04903 -3.16693 0
M  V30 15331 H 1434.7 1.99259 -2.17669 0
M  V30 15332 H 1434.79 0.263692 -2.54437 0
M  V30 15333 H 1434.43 0.795479 -5.01632 0
M  V30 15334 H 1434.36 2.53052 -4.61814 0
M  V30 15335 H 1436.85 1.45164 -3.48907 0
M  V30 15336 H 1437.16 2.38154 -7.35189 0
M  V30 15337 H 1435.51 2.14839 -6.60961 0
M  V30 15338 H 1438.7 1.72005 -4.35353 0
M  V30 15339 H 1438.87 2.1443 -6.11493 0
M  V30 15340 N 1432.28 1.40065 0.722464 0
M  V30 15341 C 1433.52 1.38175 1.48444 0
M  V30 15342 C 1433.86 -0.0182857 1.94191 0
M  V30 15343 O 1433.13 -0.985638 1.67677 0
M  V30 15344 C 1433.42 2.36518 2.71535 0
M  V30 15345 C 1433.27 3.85517 2.31726 0
M  V30 15346 C 1434.59 2.325 3.73673 0
M  V30 15347 H 1431.71 0.503221 0.538458 0
M  V30 15348 H 1434.35 1.7115 0.825087 0
M  V30 15349 H 1432.5 2.08529 3.27793 0
M  V30 15350 H 1434.17 4.24306 1.81003 0
M  V30 15351 H 1432.41 4.01684 1.63807 0
M  V30 15352 H 1433.08 4.49834 3.19928 0
M  V30 15353 H 1435.56 2.57277 3.27029 0
M  V30 15354 H 1434.44 3.03369 4.57447 0
M  V30 15355 H 1434.7 1.33427 4.21485 0
M  V30 15356 N 1433.76 -0.95397 1.25448 0
M  V30 15357 C 1434.71 -2.07206 1.05681 0
M  V30 15358 C 1435.7 -1.69395 -0.0124672 0
M  V30 15359 O 1436.91 -1.79429 0.143201 0
M  V30 15360 H 1433.28 -0.678231 0.324817 0
M  V30 15361 H 1435.25 -2.21034 2.00466 0
M  V30 15362 C 1434 -3.40725 0.692955 0
M  V30 15363 H 1433.32 -3.70287 1.50756 0
M  V30 15364 H 1434.76 -4.19814 0.594351 0
M  V30 15365 C 1433.22 -3.31495 -0.601028 0
M  V30 15366 O 1433.75 -3.66565 -1.64296 0
M  V30 15367 N 1431.96 -2.84612 -0.586899 0
M  V30 15368 H 1431.51 -2.56271 0.261375 0
M  V30 15369 H 1431.46 -2.78819 -1.45284 0
M  V30 15370 N 1435.24 -1.07045 -1.15668 0
M  V30 15371 C 1436.47 -0.811567 -1.89992 0
M  V30 15372 C 1436.87 0.638628 -1.78096 0
M  V30 15373 O 1436.22 1.44953 -1.12846 0
M  V30 15374 C 1436.28 -1.13665 -3.41058 0
M  V30 15375 C 1435.94 -2.58681 -3.7674 0
M  V30 15376 C 1436.94 -3.56923 -3.78023 0
M  V30 15377 C 1434.62 -2.94178 -4.07142 0
M  V30 15378 C 1436.62 -4.88699 -4.09209 0
M  V30 15379 C 1434.31 -4.26152 -4.37993 0
M  V30 15380 C 1435.3 -5.23222 -4.39007 0
M  V30 15381 O 1434.99 -6.52826 -4.6912 0
M  V30 15382 H 1434.72 -0.293243 -0.609085 0
M  V30 15383 H 1437.28 -1.42941 -1.47502 0
M  V30 15384 H 1435.51 -0.461762 -3.83933 0
M  V30 15385 H 1437.2 -0.860808 -3.96667 0
M  V30 15386 H 1437.96 -3.30842 -3.54639 0
M  V30 15387 H 1433.84 -2.19272 -4.05513 0
M  V30 15388 H 1437.39 -5.6446 -4.09915 0
M  V30 15389 H 1433.28 -4.51988 -4.60844 0
M  V30 15390 H 1434.05 -6.5793 -4.86898 0
M  V30 15391 N 1436.71 1.32449 -0.85411 0
M  V30 15392 C 1437.65 2.26901 -0.243148 0
M  V30 15393 C 1438.62 1.50375 0.618558 0
M  V30 15394 O 1439.81 1.79501 0.575479 0
M  V30 15395 C 1436.94 3.32265 0.657108 0
M  V30 15396 C 1435.98 4.26298 -0.131141 0
M  V30 15397 S 1436.81 5.14086 -1.49919 0
M  V30 15398 C 1437.97 6.22973 -0.604632 0
M  V30 15399 H 1438.2 2.78373 -1.04384 0
M  V30 15400 H 1435.74 1.39972 -0.651712 0
M  V30 15401 H 1437.69 3.93447 1.17087 0
M  V30 15402 H 1436.36 2.79578 1.4316 0
M  V30 15403 H 1435.55 5.0094 0.55452 0
M  V30 15404 H 1435.15 3.69531 -0.576469 0
M  V30 15405 H 1437.44 6.7723 0.191348 0
M  V30 15406 H 1438.39 6.95656 -1.32168 0
M  V30 15407 H 1438.79 5.64215 -0.179215 0
M  V30 15408 N 1438.19 0.611994 1.45232 0
M  V30 15409 C 1439.14 -0.116695 2.32307 0
M  V30 15410 C 1440.13 -0.85519 1.46229 0
M  V30 15411 O 1441.34 -0.770257 1.62687 0
M  V30 15412 H 1437.71 -0.0564902 0.749875 0
M  V30 15413 H 1439.69 0.636073 2.91542 0
M  V30 15414 C 1438.43 -1.09768 3.29919 0
M  V30 15415 H 1437.76 -0.538848 3.96152 0
M  V30 15416 H 1439.2 -1.57739 3.93566 0
M  V30 15417 C 1437.66 -2.17344 2.57417 0
M  V30 15418 O 1438.19 -3.2515 2.35882 0
M  V30 15419 N 1436.39 -1.92749 2.17477 0
M  V30 15420 H 1435.94 -1.05084 2.35192 0
M  V30 15421 H 1435.9 -2.6493 1.69291 0
M  V30 15422 N 1439.67 -1.53632 0.351409 0
M  V30 15423 C 1440.58 -2.2899 -0.509985 0
M  V30 15424 C 1441.6 -1.34403 -1.10507 0
M  V30 15425 O 1442.77 -1.67448 -1.11906 0
M  V30 15426 C 1439.84 -3.05392 -1.64124 0
M  V30 15427 C 1438.9 -4.15619 -1.07514 0
M  V30 15428 C 1438.13 -4.88369 -2.15248 0
M  V30 15429 O 1438.35 -4.60854 -3.3611 0
M  V30 15430 O 1437.29 -5.74636 -1.79101 0
M  V30 15431 H 1441.11 -3.03526 0.10283 0
M  V30 15432 H 1438.7 -1.48947 0.116214 0
M  V30 15433 H 1440.58 -3.53146 -2.29926 0
M  V30 15434 H 1439.26 -2.33705 -2.23972 0
M  V30 15435 H 1438.16 -3.7215 -0.381421 0
M  V30 15436 H 1439.5 -4.8943 -0.521413 0
M  V30 15437 N 1441.15 -0.0802183 -1.57396 0
M  V30 15438 C 1442.08 0.913777 -2.10197 0
M  V30 15439 C 1443.09 1.25588 -1.03593 0
M  V30 15440 O 1444.28 1.21159 -1.31083 0
M  V30 15441 C 1441.38 2.2272 -2.55439 0
M  V30 15442 C 1440.55 2.06268 -3.8571 0
M  V30 15443 C 1439.61 3.20989 -4.16956 0
M  V30 15444 O 1438.64 2.95608 -4.8642 0
M  V30 15445 N 1439.84 4.46331 -3.71172 0
M  V30 15446 H 1442.61 0.462908 -2.96103 0
M  V30 15447 H 1440.17 0.105287 -1.61557 0
M  V30 15448 H 1442.16 2.98389 -2.73397 0
M  V30 15449 H 1440.73 2.59278 -1.74624 0
M  V30 15450 H 1439.95 1.15016 -3.77048 0
M  V30 15451 H 1441.24 1.92535 -4.70965 0
M  V30 15452 H 1440.64 4.69837 -3.15071 0
M  V30 15453 H 1439.19 5.18999 -3.94314 0
M  V30 15454 N 1442.63 1.56409 0.193394 0
M  V30 15455 C 1443.85 1.84837 0.929676 0
M  V30 15456 C 1444.27 0.662928 1.76779 0
M  V30 15457 O 1443.63 -0.368339 1.78744 0
M  V30 15458 C 1443.68 3.12083 1.82445 0
M  V30 15459 O 1443.4 4.26056 1.02018 0
M  V30 15460 C 1444.9 3.53701 2.67227 0
M  V30 15461 H 1442.12 0.613766 0.271168 0
M  V30 15462 H 1444.66 2.03518 0.200134 0
M  V30 15463 H 1442.82 2.95294 2.5076 0
M  V30 15464 H 1443.23 4.98526 1.63008 0
M  V30 15465 H 1444.71 4.45699 3.25663 0
M  V30 15466 H 1445.18 2.76771 3.41019 0
M  V30 15467 H 1445.79 3.73027 2.04281 0
M  V30 15468 N 1444.1 -0.461169 1.50702 0
M  V30 15469 C 1445.35 -1.21251 1.62186 0
M  V30 15470 C 1445.68 -1.91735 0.326818 0
M  V30 15471 O 1444.93 -1.83212 -0.687879 0
M  V30 15472 C 1445.23 -2.27213 2.75879 0
M  V30 15473 C 1444.9 -1.73912 4.16011 0
M  V30 15474 C 1443.56 -1.59097 4.54138 0
M  V30 15475 C 1445.91 -1.34477 5.03553 0
M  V30 15476 C 1443.24 -1.03285 5.77537 0
M  V30 15477 C 1445.59 -0.801027 6.27508 0
M  V30 15478 C 1444.26 -0.639586 6.64429 0
M  V30 15479 H 1443.53 -0.443689 0.593482 0
M  V30 15480 H 1446.17 -0.507035 1.84666 0
M  V30 15481 H 1444.48 -3.03707 2.47526 0
M  V30 15482 H 1446.18 -2.85124 2.81967 0
M  V30 15483 H 1442.77 -1.86413 3.85938 0
M  V30 15484 H 1446.95 -1.44753 4.74721 0
M  V30 15485 H 1442.21 -0.895316 6.04809 0
M  V30 15486 H 1446.38 -0.486842 6.94696 0
M  V30 15487 H 1444.01 -0.204966 7.59924 0
M  V30 15488 N 1445.58 -1.40446 -0.715026 0
M  V30 15489 C 1446.83 -1.3848 -1.47199 0
M  V30 15490 C 1447.15 0.0119198 -1.94996 0
M  V30 15491 O 1446.42 0.966772 -1.70383 0
M  V30 15492 H 1445 -0.509669 -0.54612 0
M  V30 15493 H 1447.66 -1.75505 -0.847588 0
M  V30 15494 H 1446.76 -2.06002 -2.34456 0
M  V30 15495 N 1447.06 0.947303 -1.25952 0
M  V30 15496 C 1448.29 1.7273 -1.13895 0
M  V30 15497 C 1448.7 1.86296 0.306488 0
M  V30 15498 O 1448.06 1.36594 1.2103 0
M  V30 15499 C 1448.11 3.13727 -1.79604 0
M  V30 15500 O 1447.83 3.00816 -3.18499 0
M  V30 15501 C 1449.33 4.0797 -1.73422 0
M  V30 15502 H 1446.55 0.54102 -0.39691 0
M  V30 15503 H 1449.1 1.18797 -1.66456 0
M  V30 15504 H 1447.25 3.6458 -1.30997 0
M  V30 15505 H 1447.67 3.89813 -3.50922 0
M  V30 15506 H 1449.14 5.04487 -2.24047 0
M  V30 15507 H 1449.62 4.33594 -0.699481 0
M  V30 15508 H 1450.22 3.63035 -2.21553 0
M  V30 15509 N 1448.54 1.07657 1.15099 0
M  V30 15510 C 1449.79 0.800025 1.85591 0
M  V30 15511 C 1450.11 -0.675973 1.82909 0
M  V30 15512 O 1449.38 -1.48971 1.27218 0
M  V30 15513 H 1447.96 0.292958 0.687157 0
M  V30 15514 H 1450.62 1.36096 1.39513 0
M  V30 15515 H 1449.72 1.13733 2.90639 0
M  V30 15516 N 1450.02 -1.31994 0.861122 0
M  V30 15517 C 1451.26 -1.96636 0.466754 0
M  V30 15518 C 1451.59 -1.6845 -0.982328 0
M  V30 15519 O 1450.86 -0.995157 -1.68741 0
M  V30 15520 H 1449.44 -0.727489 0.169613 0
M  V30 15521 H 1452.1 -1.60962 1.09897 0
M  V30 15522 H 1451.19 -3.05937 0.61716 0
M  V30 15523 N 1451.49 -0.619688 -1.44906 0
M  V30 15524 C 1452.72 -0.124598 -2.07025 0
M  V30 15525 C 1453.14 1.18698 -1.45919 0
M  V30 15526 O 1452.5 1.72552 -0.556366 0
M  V30 15527 C 1452.55 -0.0112238 -3.60598 0
M  V30 15528 O 1451.65 1.03582 -3.9918 0
M  V30 15529 H 1451 -0.0795631 -0.659216 0
M  V30 15530 H 1453.53 -0.853127 -1.85965 0
M  V30 15531 H 1453.54 0.183079 -4.07589 0
M  V30 15532 H 1452.21 -0.968849 -4.04458 0
M  V30 15533 H 1450.79 0.817008 -3.6384 0
M  V30 15534 N 1452.97 1.53444 -0.359552 0
M  V30 15535 C 1454.38 1.86308 0.120955 0
M  V30 15536 C 1454.73 1.28033 1.48667 0
M  V30 15537 O 1453.86 0.600041 2.07915 0
M  V30 15538 C 1454.45 3.38044 0.226255 0
M  V30 15539 C 1453.01 3.70727 0.65101 0
M  V30 15540 C 1452.16 2.76538 -0.205482 0
M  V30 15541 H 1455.11 1.47778 -0.578569 0
M  V30 15542 H 1455.13 3.65699 1.05092 0
M  V30 15543 H 1454.64 3.80428 -0.767874 0
M  V30 15544 H 1452.75 3.33897 1.65359 0
M  V30 15545 H 1452.86 4.77168 0.429802 0
M  V30 15546 H 1451.22 2.52622 0.3247 0
M  V30 15547 H 1452.01 3.21754 -1.19704 0
M  V30 15548 N 1454.45 0.0885642 1.57351 0
M  V30 15549 C 1455.41 -0.858178 2.12528 0
M  V30 15550 C 1456.41 -1.21522 1.05304 0
M  V30 15551 O 1457.6 -1.14573 1.3122 0
M  V30 15552 C 1454.74 -2.15619 2.64048 0
M  V30 15553 H 1455.93 -0.37918 2.97493 0
M  V30 15554 H 1453.48 -0.160354 1.55475 0
M  V30 15555 H 1454.22 -2.68018 1.82584 0
M  V30 15556 H 1454 -1.90995 3.42437 0
M  V30 15557 H 1455.49 -2.83359 3.06753 0
M  V30 15558 N 1455.93 -1.56509 -0.185096 0
M  V30 15559 C 1457.34 -1.50318 -0.536334 0
M  V30 15560 C 1457.54 -0.790387 -1.85351 0
M  V30 15561 O 1456.6 -0.345039 -2.50131 0
M  V30 15562 C 1457.91 -2.95017 -0.581825 0
M  V30 15563 C 1459.46 -3.05746 -0.669974 0
M  V30 15564 C 1459.94 -4.51876 -0.746485 0
M  V30 15565 N 1461.43 -4.56067 -0.809746 0
M  V30 15566 C 1462.16 -5.66462 -0.889286 0
M  V30 15567 N 1461.66 -6.86523 -0.930509 0
M  V30 15568 N 1463.45 -5.54399 -0.927246 0
M  V30 15569 H 1455.6 -2.01262 0.678778 0
M  V30 15570 H 1457.87 -0.916313 0.243054 0
M  V30 15571 H 1457.57 -3.50268 0.317089 0
M  V30 15572 H 1457.45 -3.48916 -1.43309 0
M  V30 15573 H 1459.83 -2.50538 -1.55932 0
M  V30 15574 H 1459.91 -2.54955 0.207689 0
M  V30 15575 H 1459.56 -5.07711 0.138546 0
M  V30 15576 H 1459.49 -5.00408 -1.6401 0
M  V30 15577 H 1461.98 -3.6962 -0.786729 0
M  V30 15578 H 1462.29 -7.66407 -0.991992 0
M  V30 15579 H 1460.64 -6.89161 -0.899017 0
M  V30 15580 H 1463.83 -4.59524 -0.891947 0
M  V30 15581 H 1464 -6.40458 -0.985773 0
M  V30 15582 N 1457.41 0.45317 -1.50944 0
M  V30 15583 C 1458.65 1.20389 -1.62827 0
M  V30 15584 C 1458.98 1.91559 -0.336982 0
M  V30 15585 O 1458.24 1.83574 0.678153 0
M  V30 15586 C 1458.54 2.25747 -2.7708 0
M  V30 15587 C 1458.2 1.71703 -4.16928 0
M  V30 15588 C 1456.86 1.56686 -4.54976 0
M  V30 15589 C 1459.22 1.31804 -5.04259 0
M  V30 15590 C 1456.54 1.0022 -5.78077 0
M  V30 15591 C 1458.9 0.767738 -6.27924 0
M  V30 15592 C 1457.56 0.604341 -6.64759 0
M  V30 15593 H 1456.83 0.440536 -0.595827 0
M  V30 15594 H 1459.48 0.497234 -1.84932 0
M  V30 15595 H 1457.78 3.0239 -2.49134 0
M  V30 15596 H 1459.48 2.83625 -2.83475 0
M  V30 15597 H 1456.07 1.84364 -3.86921 0
M  V30 15598 H 1460.25 1.42233 -4.75482 0
M  V30 15599 H 1455.51 0.863228 -6.05275 0
M  V30 15600 H 1459.68 0.449994 -6.94945 0
M  V30 15601 H 1457.31 0.164663 -7.60022 0
M  V30 15602 N 1458.88 1.40823 0.707568 0
M  V30 15603 C 1459.83 1.41724 1.82162 0
M  V30 15604 C 1460.8 0.273135 1.63839 0
M  V30 15605 O 1461.99 0.472399 1.84859 0
M  V30 15606 C 1459.13 1.29347 3.19943 0
M  V30 15607 C 1458.24 2.53529 3.49782 0
M  V30 15608 C 1457.37 2.33533 4.77112 0
M  V30 15609 C 1456.41 3.53252 4.9988 0
M  V30 15610 N 1455.55 3.32401 6.18429 0
M  V30 15611 H 1460.39 2.36943 1.80726 0
M  V30 15612 H 1457.93 1.17671 0.882723 0
M  V30 15613 H 1459.89 1.20175 3.99517 0
M  V30 15614 H 1458.52 0.377426 3.20586 0
M  V30 15615 H 1457.57 2.73198 2.64702 0
M  V30 15616 H 1458.88 3.42617 3.62512 0
M  V30 15617 H 1458.03 2.2176 5.64719 0
M  V30 15618 H 1456.77 1.41883 4.66605 0
M  V30 15619 H 1455.78 3.65492 4.10725 0
M  V30 15620 H 1457 4.4584 5.12253 0
M  V30 15621 H 1454.95 2.4344 6.09158 0
M  V30 15622 H 1454.87 4.15059 6.31872 0
M  V30 15623 H 1456.13 3.24377 7.08802 0
M  V30 15624 N 1460.36 -0.94061 1.26453 0
M  V30 15625 C 1461.59 -1.72123 1.1481 0
M  V30 15626 C 1462.01 -1.86456 -0.296604 0
M  V30 15627 O 1461.36 -1.37234 -1.20304 0
M  V30 15628 C 1461.41 -3.1277 1.81266 0
M  V30 15629 O 1461.13 -2.99122 3.2009 0
M  V30 15630 C 1462.64 -4.07045 1.75584 0
M  V30 15631 H 1459.86 -0.538908 0.399774 0
M  V30 15632 H 1462.4 -1.17913 1.67083 0
M  V30 15633 H 1460.55 -3.6388 1.32928 0
M  V30 15634 H 1460.97 -3.87946 3.52984 0
M  V30 15635 H 1462.44 -5.03292 2.26719 0
M  V30 15636 H 1462.92 -4.33217 0.722466 0
M  V30 15637 H 1463.53 -3.61855 2.23475 0
M  V30 15638 N 1461.84 -1.08266 -1.14527 0
M  V30 15639 C 1462.8 -0.715117 -2.17758 0
M  V30 15640 C 1463.8 0.24935 -1.58855 0
M  V30 15641 O 1464.99 0.0290846 -1.74176 0
M  V30 15642 C 1462.13 -0.055575 -3.40855 0
M  V30 15643 H 1463.32 -1.62921 -2.51787 0
M  V30 15644 H 1460.87 -0.880346 -1.2915 0
M  V30 15645 H 1461.61 0.870312 -3.12404 0
M  V30 15646 H 1461.39 -0.749382 -3.84872 0
M  V30 15647 H 1462.88 0.186592 -4.17183 0
M  V30 15648 N 1463.32 1.31536 -0.86811 0
M  V30 15649 C 1464.57 1.97066 -0.478829 0
M  V30 15650 C 1464.9 1.68469 0.966021 0
M  V30 15651 O 1464.17 0.980166 1.67997 0
M  V30 15652 C 1464.46 3.52533 -0.734313 0
M  V30 15653 C 1464.31 3.90711 -2.22856 0
M  V30 15654 C 1465.63 4.39647 -0.199559 0
M  V30 15655 H 1462.75 0.715813 -0.175444 0
M  V30 15656 H 1465.39 1.55694 -1.08901 0
M  V30 15657 H 1463.54 3.87905 -0.214962 0
M  V30 15658 H 1465.21 3.65451 -2.81502 0
M  V30 15659 H 1463.45 3.39385 -2.70185 0
M  V30 15660 H 1464.13 4.99103 -2.35797 0
M  V30 15661 H 1466.6 4.11088 -0.643853 0
M  V30 15662 H 1465.48 5.47383 -0.407783 0
M  V30 15663 H 1465.74 4.32875 0.898414 0
M  V30 15664 N 1464.8 0.627364 1.44575 0
M  V30 15665 C 1465.74 -0.0798044 2.30662 0
M  V30 15666 C 1466.71 -0.840528 1.43263 0
M  V30 15667 O 1467.9 -0.82232 1.7217 0
M  V30 15668 C 1465.04 -1.05796 3.28483 0
M  V30 15669 C 1464.15 -0.296052 4.30984 0
M  V30 15670 C 1463.29 -1.26569 5.15901 0
M  V30 15671 C 1462.33 -0.492722 6.10114 0
M  V30 15672 N 1461.46 -1.41263 6.87742 0
M  V30 15673 H 1466.3 0.660254 2.90594 0
M  V30 15674 H 1463.84 0.337382 1.43179 0
M  V30 15675 H 1465.8 -1.63842 3.83682 0
M  V30 15676 H 1464.43 -1.7652 2.7026 0
M  V30 15677 H 1463.48 0.400259 3.78288 0
M  V30 15678 H 1464.79 0.306149 4.9786 0
M  V30 15679 H 1463.95 -1.9176 5.75598 0
M  V30 15680 H 1462.69 -1.90182 4.4909 0
M  V30 15681 H 1461.69 0.172696 5.49529 0
M  V30 15682 H 1462.92 0.138634 6.78958 0
M  V30 15683 H 1460.86 -2.03604 6.23604 0
M  V30 15684 H 1460.78 -0.864362 7.51042 0
M  V30 15685 H 1462.05 -2.0535 7.51965 0
M  V30 15686 N 1466.28 -1.53251 0.367684 0
M  V30 15687 C 1467.21 -2.28728 -0.469676 0
M  V30 15688 C 1468.19 -1.3124 -1.08213 0
M  V30 15689 O 1469.37 -1.60112 -1.09898 0
M  V30 15690 C 1466.5 -3.07808 -1.60846 0
M  V30 15691 C 1465.46 -4.13 -1.12315 0
M  V30 15692 C 1464.78 -4.80176 -2.35234 0
M  V30 15693 C 1466.08 -5.21892 -0.2064 0
M  V30 15694 H 1467.78 -2.98972 0.160019 0
M  V30 15695 H 1465.32 -1.43786 0.0784011 0
M  V30 15696 H 1467.27 -3.59358 -2.20091 0
M  V30 15697 H 1466 -2.35258 -2.26542 0
M  V30 15698 H 1464.66 -3.62399 -0.553378 0
M  V30 15699 H 1464.31 -4.04196 -2.99391 0
M  V30 15700 H 1464.01 -5.51261 -2.03433 0
M  V30 15701 H 1465.53 -5.34521 -2.9516 0
M  V30 15702 H 1466.94 -5.68932 -0.706386 0
M  V30 15703 H 1465.34 -6.00096 0.0208362 0
M  V30 15704 H 1466.41 -4.79051 0.750851 0
M  V30 15705 N 1467.75 -0.0969077 -1.57302 0
M  V30 15706 C 1469 0.566072 -1.93594 0
M  V30 15707 C 1469.32 1.69226 -0.980922 0
M  V30 15708 O 1470.52 2.41651 -1.23763 0
M  V30 15709 C 1468.98 1.05832 -3.43988 0
M  V30 15710 C 1468.59 -0.038207 -4.47984 0
M  V30 15711 C 1470.33 1.69393 -3.89238 0
M  V30 15712 C 1468.24 0.4695 -5.89533 0
M  V30 15713 H 1467.17 0.215226 -0.72263 0
M  V30 15714 H 1469.82 -0.173202 -1.82681 0
M  V30 15715 H 1468.2 1.85134 -3.50059 0
M  V30 15716 H 1469.37 -0.813761 -4.53558 0
M  V30 15717 H 1467.69 -0.579113 -4.12353 0
M  V30 15718 H 1470.29 2.08454 -4.92393 0
M  V30 15719 H 1470.63 2.56381 -3.27986 0
M  V30 15720 H 1471.16 0.966709 -3.85875 0
M  V30 15721 H 1467.9 -0.363802 -6.5449 0
M  V30 15722 H 1467.42 1.21202 -5.87427 0
M  V30 15723 H 1469.1 0.937885 -6.40166 0
M  V30 15724 N 1469.23 1.56605 0.176793 0
M  V30 15725 C 1470.14 1.99211 1.23903 0
M  V30 15726 C 1471.16 0.902614 1.48758 0
M  V30 15727 O 1472.33 1.20982 1.61014 0
M  V30 15728 C 1469.4 2.33873 2.55938 0
M  V30 15729 C 1468.46 3.56624 2.38994 0
M  V30 15730 C 1467.69 3.89623 3.64733 0
M  V30 15731 O 1467.92 3.23662 4.6968 0
M  V30 15732 O 1466.85 4.82992 3.5917 0
M  V30 15733 H 1470.68 2.89827 0.907398 0
M  V30 15734 H 1468.26 1.44401 0.383234 0
M  V30 15735 H 1470.14 2.57161 3.33836 0
M  V30 15736 H 1468.82 1.46421 2.88691 0
M  V30 15737 H 1467.72 3.38561 1.59146 0
M  V30 15738 H 1469.06 4.446 2.11167 0
M  V30 15739 N 1470.71 -0.445159 1.51182 0
M  V30 15740 C 1471.96 -1.19288 1.6314 0
M  V30 15741 C 1472.28 -1.91904 0.346109 0
M  V30 15742 O 1471.55 -1.8523 -0.637695 0
M  V30 15743 H 1470.13 -0.443319 0.601229 0
M  V30 15744 H 1472.79 -0.511136 1.88078 0
M  V30 15745 H 1471.89 -1.92672 2.45528 0
M  V30 15746 N 1472.19 -1.41197 -0.700089 0
M  V30 15747 C 1473.44 -1.40034 -1.45722 0
M  V30 15748 C 1473.76 -0.00876281 -1.94998 0
M  V30 15749 O 1473.03 0.948647 -1.71399 0
M  V30 15750 H 1471.61 -0.515433 -0.540683 0
M  V30 15751 H 1474.27 -1.76394 -0.828926 0
M  V30 15752 H 1473.36 -2.08477 -2.32258 0
M  V30 15753 N 1473.67 0.933891 -1.2695 0
M  V30 15754 C 1474.9 1.71263 -1.15553 0
M  V30 15755 C 1475.3 1.86948 0.291059 0
M  V30 15756 O 1474.65 1.38173 1.21053 0
M  V30 15757 C 1474.71 3.13479 -1.75986 0
M  V30 15758 C 1474.37 3.21154 -3.2513 0
M  V30 15759 C 1475.37 3.03874 -4.21849 0
M  V30 15760 C 1473.05 3.44311 -3.65726 0
M  V30 15761 C 1475.05 3.09631 -5.57142 0
M  V30 15762 C 1472.74 3.49702 -5.01151 0
M  V30 15763 C 1473.73 3.32379 -5.96668 0
M  V30 15764 O 1473.42 3.37493 -7.29626 0
M  V30 15765 H 1473.15 0.542801 -0.402918 0
M  V30 15766 H 1475.71 1.17877 -1.68209 0
M  V30 15767 H 1473.94 3.6832 -1.178 0
M  V30 15768 H 1475.63 3.73295 -1.59391 0
M  V30 15769 H 1476.39 2.85832 -3.91823 0
M  V30 15770 H 1472.27 3.56847 -2.91859 0
M  V30 15771 H 1475.82 2.96028 -6.31675 0
M  V30 15772 H 1471.71 3.67267 -5.30835 0
M  V30 15773 H 1472.48 3.53988 -7.37994 0
M  V30 15774 N 1475.14 1.08871 1.13951 0
M  V30 15775 C 1476.39 0.816198 1.84448 0
M  V30 15776 C 1476.71 -0.660396 1.84114 0
M  V30 15777 O 1477.91 -1.04825 2.50448 0
M  V30 15778 C 1476.37 1.41015 3.31123 0
M  V30 15779 C 1475.98 2.91888 3.39861 0
M  V30 15780 C 1477.72 1.21633 4.06701 0
M  V30 15781 C 1475.63 3.44397 4.80775 0
M  V30 15782 H 1474.56 0.301662 0.691025 0
M  V30 15783 H 1477.21 1.31072 1.28423 0
M  V30 15784 H 1475.59 0.843333 3.86916 0
M  V30 15785 H 1476.76 3.54747 2.94094 0
M  V30 15786 H 1475.08 3.10238 2.77743 0
M  V30 15787 H 1477.68 1.58324 5.10723 0
M  V30 15788 H 1478.02 0.156519 4.16006 0
M  V30 15789 H 1478.55 1.75035 3.57222 0
M  V30 15790 H 1475.29 4.49973 4.7666 0
M  V30 15791 H 1474.81 2.86299 5.27061 0
M  V30 15792 H 1476.49 3.41266 5.49679 0
M  V30 15793 N 1476.62 -1.31073 0.875073 0
M  V30 15794 C 1477.87 -1.96809 0.489273 0
M  V30 15795 C 1478.2 -1.68979 -0.957073 0
M  V30 15796 O 1477.48 -0.989061 -1.67475 0
M  V30 15797 C 1477.76 -3.52139 0.752998 0
M  V30 15798 C 1477.61 -3.89524 2.24925 0
M  V30 15799 C 1478.93 -4.39535 0.222871 0
M  V30 15800 H 1476.05 -0.714873 0.179238 0
M  V30 15801 H 1478.69 -1.55114 1.09725 0
M  V30 15802 H 1476.84 -3.87785 0.23553 0
M  V30 15803 H 1478.51 -3.63953 2.83436 0
M  V30 15804 H 1476.76 -3.37948 2.71981 0
M  V30 15805 H 1477.43 -4.97845 2.38441 0
M  V30 15806 H 1479.9 -4.10741 0.665645 0
M  V30 15807 H 1478.78 -5.47159 0.436806 0
M  V30 15808 H 1479.04 -4.33346 -0.875445 0
M  V30 15809 N 1478.1 -0.635022 -1.4424 0
M  V30 15810 C 1479.01 0.0686832 -2.34499 0
M  V30 15811 C 1480.03 0.831574 -1.52843 0
M  V30 15812 O 1481.2 0.782954 -1.85558 0
M  V30 15813 C 1478.27 1.03543 -3.30877 0
M  V30 15814 C 1477.33 0.271484 -4.28441 0
M  V30 15815 C 1476.56 1.19218 -5.20214 0
M  V30 15816 O 1476.78 2.43101 -5.16002 0
M  V30 15817 O 1475.72 0.6744 -5.9811 0
M  V30 15818 H 1479.54 -0.673781 -2.96132 0
M  V30 15819 H 1477.13 -0.395211 -1.44078 0
M  V30 15820 H 1479.01 1.59151 -3.90191 0
M  V30 15821 H 1477.69 1.75844 -2.71773 0
M  V30 15822 H 1476.59 -0.327736 -3.72662 0
M  V30 15823 H 1477.93 -0.411584 -4.90476 0
M  V30 15824 N 1479.58 1.53054 -0.375806 0
M  V30 15825 C 1480.54 2.24666 0.453608 0
M  V30 15826 C 1481.54 1.25816 1.00135 0
M  V30 15827 O 1482.73 1.50016 0.885481 0
M  V30 15828 C 1479.86 2.99131 1.63503 0
M  V30 15829 H 1481.06 2.994 -0.173172 0
M  V30 15830 H 1478.61 1.55778 -0.127673 0
M  V30 15831 H 1479.34 2.28666 2.29962 0
M  V30 15832 H 1479.13 3.71671 1.24913 0
M  V30 15833 H 1480.62 3.53542 2.22256 0
M  V30 15834 N 1481.06 0.105248 1.57248 0
M  V30 15835 C 1482.02 -0.835589 2.13426 0
M  V30 15836 C 1483.02 -1.20398 1.06587 0
M  V30 15837 O 1484.21 -1.13175 1.32428 0
M  V30 15838 C 1481.34 -2.12806 2.6632 0
M  V30 15839 H 1482.53 -0.347606 2.97879 0
M  V30 15840 H 1480.09 -0.143855 1.55637 0
M  V30 15841 H 1480.82 -2.66066 1.85416 0
M  V30 15842 H 1480.61 -1.87352 3.44444 0
M  V30 15843 H 1482.1 -2.80089 3.09741 0
M  V30 15844 N 1482.53 -1.56697 -0.168486 0
M  V30 15845 C 1483.78 -1.81346 -0.882973 0
M  V30 15846 C 1484.1 -0.682975 -1.83289 0
M  V30 15847 O 1485.3 -0.814479 -2.58995 0
M  V30 15848 C 1483.76 -3.21345 -1.62066 0
M  V30 15849 C 1483.37 -4.4227 -0.714241 0
M  V30 15850 C 1485.11 -3.55285 -2.32321 0
M  V30 15851 C 1483.02 -5.7329 -1.45233 0
M  V30 15852 H 1481.95 -0.676254 -0.333461 0
M  V30 15853 H 1484.6 -1.82996 -0.135871 0
M  V30 15854 H 1482.98 -3.1402 -2.41262 0
M  V30 15855 H 1484.15 -4.60782 0.0409556 0
M  V30 15856 H 1482.47 -4.16224 -0.121205 0
M  V30 15857 H 1485.07 -4.50421 -2.88141 0
M  V30 15858 H 1485.41 -2.80301 -3.07793 0
M  V30 15859 H 1485.94 -3.64176 -1.60066 0
M  V30 15860 H 1482.68 -6.51311 -0.739869 0
M  V30 15861 H 1482.2 -5.58751 -2.18077 0
M  V30 15862 H 1483.88 -6.15343 -1.99905 0
M  V30 15863 N 1484.01 0.437135 -1.51416 0
M  V30 15864 C 1484.96 1.53061 -1.72745 0
M  V30 15865 C 1485.93 1.56045 -0.569149 0
M  V30 15866 O 1487.11 1.73052 -0.803602 0
M  V30 15867 C 1484.25 2.90774 -1.85861 0
M  V30 15868 C 1483.37 2.97318 -3.1341 0
M  V30 15869 C 1482.5 4.26156 -3.1712 0
M  V30 15870 C 1481.54 4.26568 -4.38983 0
M  V30 15871 N 1480.68 5.4693 -4.40241 0
M  V30 15872 H 1485.52 1.34177 -2.66084 0
M  V30 15873 H 1483.06 0.651803 -1.31871 0
M  V30 15874 H 1485.01 3.7068 -1.91447 0
M  V30 15875 H 1483.64 3.08216 -0.959306 0
M  V30 15876 H 1482.7 2.10074 -3.17132 0
M  V30 15877 H 1484.01 2.93485 -4.03321 0
M  V30 15878 H 1483.16 5.14435 -3.21623 0
M  V30 15879 H 1481.9 4.32646 -2.25098 0
M  V30 15880 H 1480.91 3.36681 -4.34656 0
M  V30 15881 H 1482.13 4.21741 -5.3227 0
M  V30 15882 H 1480.08 5.54141 -3.51089 0
M  V30 15883 H 1479.99 5.44977 -5.23962 0
M  V30 15884 H 1481.26 6.37241 -4.48937 0
M  V30 15885 N 1485.49 1.41566 0.692592 0
M  V30 15886 C 1486.74 1.42293 1.45342 0
M  V30 15887 C 1487.09 0.032316 1.92373 0
M  V30 15888 O 1486.38 -0.942367 1.66823 0
M  V30 15889 C 1486.58 2.36683 2.67799 0
M  V30 15890 C 1486.41 3.84784 2.32748 0
M  V30 15891 C 1485.18 4.53446 2.22967 0
M  V30 15892 C 1487.38 4.75681 1.95531 0
M  V30 15893 N 1485.36 5.86662 1.80833 0
M  V30 15894 C 1486.73 5.97868 1.64178 0
M  V30 15895 C 1488.78 4.633 1.82367 0
M  V30 15896 C 1487.49 7.09053 1.20983 0
M  V30 15897 C 1489.51 5.74449 1.40577 0
M  V30 15898 C 1488.87 6.95737 1.10137 0
M  V30 15899 H 1484.97 0.575898 0.529023 0
M  V30 15900 H 1487.56 1.77459 0.801013 0
M  V30 15901 H 1485.73 2.03606 3.30755 0
M  V30 15902 H 1487.46 2.28109 3.34288 0
M  V30 15903 H 1484.22 4.07423 2.4146 0
M  V30 15904 H 1484.64 6.57273 1.62239 0
M  V30 15905 H 1489.28 3.70024 2.04554 0
M  V30 15906 H 1487 8.02192 0.975411 0
M  V30 15907 H 1490.59 5.66875 1.30937 0
M  V30 15908 H 1489.47 7.80282 0.782888 0
M  V30 15909 N 1486.97 -0.927146 1.27443 0
M  V30 15910 C 1487.92 -2.02783 1.10216 0
M  V30 15911 C 1488.89 -1.661 0.00307842 0
M  V30 15912 O 1490.07 -1.90081 0.165508 0
M  V30 15913 C 1487.21 -3.36718 0.755984 0
M  V30 15914 C 1486.32 -3.86353 1.93276 0
M  V30 15915 C 1485.46 -5.08737 1.52841 0
M  V30 15916 C 1484.5 -5.50669 2.67263 0
M  V30 15917 N 1483.63 -6.6425 2.27413 0
M  V30 15918 H 1488.47 -2.16851 2.04401 0
M  V30 15919 H 1486.01 -1.06232 1.0175 0
M  V30 15920 H 1487.97 -4.13741 0.53609 0
M  V30 15921 H 1486.6 -3.22456 -0.148909 0
M  V30 15922 H 1485.65 -3.05604 2.26518 0
M  V30 15923 H 1486.96 -4.13401 2.79108 0
M  V30 15924 H 1486.12 -5.93263 1.26979 0
M  V30 15925 H 1484.86 -4.83467 0.641187 0
M  V30 15926 H 1483.86 -4.64692 2.93839 0
M  V30 15927 H 1485.09 -5.77934 3.56607 0
M  V30 15928 H 1483.03 -6.40636 1.41143 0
M  V30 15929 H 1482.95 -6.90955 3.06784 0
M  V30 15930 H 1484.22 -7.52115 2.048 0
M  V30 15931 N 1488.45 -1.09474 -1.13372 0
M  V30 15932 C 1489.67 -0.852921 -1.88502 0
M  V30 15933 C 1490.09 0.595855 -1.79151 0
M  V30 15934 O 1489.45 1.41019 -1.15845 0
M  V30 15935 C 1489.5 -1.27993 -3.38083 0
M  V30 15936 O 1489.22 -2.67189 -3.47191 0
M  V30 15937 C 1490.72 -1.07056 -4.30179 0
M  V30 15938 H 1487.94 -0.30682 -0.596743 0
M  V30 15939 H 1490.48 -1.45685 -1.43513 0
M  V30 15940 H 1488.64 -0.719879 -3.80653 0
M  V30 15941 H 1489.05 -2.85202 -4.40182 0
M  V30 15942 H 1490.53 -1.4186 -5.3346 0
M  V30 15943 H 1491 -0.00838732 -4.39199 0
M  V30 15944 H 1491.61 -1.61659 -3.93378 0
M  V30 15945 N 1489.92 1.30607 -0.882012 0
M  V30 15946 C 1491.17 1.95531 -0.495038 0
M  V30 15947 C 1491.49 1.70418 0.96005 0
M  V30 15948 O 1492.69 2.29301 1.45373 0
M  V30 15949 C 1491.15 3.50094 -0.834382 0
M  V30 15950 C 1490.76 3.84031 -2.30704 0
M  V30 15951 C 1492.5 4.21347 -0.516463 0
M  V30 15952 C 1490.41 5.31759 -2.58817 0
M  V30 15953 H 1489.34 0.731854 -0.181399 0
M  V30 15954 H 1491.99 1.486 -1.07658 0
M  V30 15955 H 1490.37 3.95582 -0.181961 0
M  V30 15956 H 1491.54 3.49463 -3.00353 0
M  V30 15957 H 1489.86 3.25874 -2.5922 0
M  V30 15958 H 1492.46 5.30051 -0.703576 0
M  V30 15959 H 1492.8 4.12731 0.543935 0
M  V30 15960 H 1493.33 3.81533 -1.12595 0
M  V30 15961 H 1490.07 5.45422 -3.63586 0
M  V30 15962 H 1489.59 5.67637 -1.93774 0
M  V30 15963 H 1491.27 5.9916 -2.44165 0
M  V30 15964 N 1491.4 0.642663 1.43901 0
M  V30 15965 C 1492.35 -0.0553351 2.30734 0
M  V30 15966 C 1493.32 -0.825286 1.44147 0
M  V30 15967 O 1494.5 -0.804012 1.73033 0
M  V30 15968 C 1491.64 -1.02306 3.29587 0
M  V30 15969 C 1490.76 -0.250323 4.31274 0
M  V30 15970 C 1489.89 -1.2109 5.17214 0
M  V30 15971 C 1488.93 -0.427984 6.10602 0
M  V30 15972 N 1488.07 -1.33961 6.89202 0
M  V30 15973 H 1492.91 0.691038 2.89877 0
M  V30 15974 H 1490.45 0.352549 1.42813 0
M  V30 15975 H 1492.4 -1.59763 3.85398 0
M  V30 15976 H 1491.03 -1.73643 2.72117 0
M  V30 15977 H 1490.09 0.440359 3.77843 0
M  V30 15978 H 1491.4 0.358937 4.97507 0
M  V30 15979 H 1490.55 -1.85644 5.776 0
M  V30 15980 H 1489.29 -1.85408 4.51082 0
M  V30 15981 H 1488.3 0.230971 5.49315 0
M  V30 15982 H 1489.52 0.210639 6.78773 0
M  V30 15983 H 1487.47 -1.96978 6.25728 0
M  V30 15984 H 1487.38 -0.784655 7.51917 0
M  V30 15985 H 1488.65 -1.97363 7.54101 0
M  V30 15986 N 1492.88 -1.52852 0.383918 0
M  V30 15987 C 1494.29 -1.86477 -0.0912997 0
M  V30 15988 C 1494.64 -1.30382 -1.46611 0
M  V30 15989 O 1493.77 -0.633042 -2.06934 0
M  V30 15990 C 1494.36 -3.38361 -0.172447 0
M  V30 15991 C 1492.92 -3.71716 -0.591948 0
M  V30 15992 C 1492.07 -2.76176 0.24945 0
M  V30 15993 H 1495.02 -1.46839 0.602006 0
M  V30 15994 H 1495.04 -3.67325 -0.992603 0
M  V30 15995 H 1494.55 -3.79158 0.8283 0
M  V30 15996 H 1492.65 -3.36486 -1.60026 0
M  V30 15997 H 1492.77 -4.77792 -0.353835 0
M  V30 15998 H 1491.13 -2.53106 -0.284469 0
M  V30 15999 H 1491.91 -3.19809 1.24808 0
M  V30 16000 N 1494.36 -0.113586 -1.5719 0
M  V30 16001 C 1495.59 0.553592 -1.99356 0
M  V30 16002 C 1496 1.60567 -0.993154 0
M  V30 16003 O 1495.36 1.82494 0.0147252 0
M  V30 16004 C 1495.41 1.18462 -3.41539 0
M  V30 16005 O 1495.13 0.174602 -4.37752 0
M  V30 16006 C 1496.63 1.93564 -3.98808 0
M  V30 16007 H 1493.85 0.146998 -0.6547 0
M  V30 16008 H 1496.4 -0.198329 -2.03536 0
M  V30 16009 H 1494.55 1.88736 -3.38316 0
M  V30 16010 H 1494.97 0.632395 -5.20674 0
M  V30 16011 H 1496.44 2.33051 -5.00391 0
M  V30 16012 H 1496.92 2.80874 -3.37648 0
M  V30 16013 H 1497.52 1.28066 -4.0556 0
M  V30 16014 N 1495.84 1.56784 0.160173 0
M  V30 16015 C 1497.25 1.72193 0.721552 0
M  V30 16016 C 1497.6 0.725901 1.82278 0
M  V30 16017 O 1496.72 -0.110343 2.16118 0
M  V30 16018 C 1497.32 3.12212 1.31563 0
M  V30 16019 C 1495.88 3.29268 1.82371 0
M  V30 16020 C 1495.03 2.68136 0.70701 0
M  V30 16021 H 1497.98 1.58565 -0.0653521 0
M  V30 16022 H 1498 3.11481 2.1854 0
M  V30 16023 H 1497.51 3.84682 0.513917 0
M  V30 16024 H 1495.61 2.61774 2.65152 0
M  V30 16025 H 1495.72 4.37107 1.96149 0
M  V30 16026 H 1494.09 2.28246 1.1303 0
M  V30 16027 H 1494.87 3.432 -0.0830407 0
M  V30 16028 N 1497.32 -0.429099 1.51646 0
M  V30 16029 C 1498.26 -1.54202 1.74139 0
M  V30 16030 C 1499.26 -1.58117 0.607905 0
M  V30 16031 O 1500.46 -1.61763 0.789486 0
M  V30 16032 H 1496.84 -0.512456 0.550357 0
M  V30 16033 H 1498.81 -1.32408 2.67415 0
M  V30 16034 C 1497.56 -2.91779 1.89104 0
M  V30 16035 H 1496.88 -2.89502 2.75733 0
M  V30 16036 H 1498.32 -3.68995 2.08851 0
M  V30 16037 C 1496.78 -3.30512 0.652945 0
M  V30 16038 O 1497.31 -4.01257 -0.188553 0
M  V30 16039 N 1495.52 -2.86359 0.494634 0
M  V30 16040 H 1495.06 -2.28959 1.18049 0
M  V30 16041 H 1495.02 -3.12637 -0.332503 0
M  V30 16042 N 1498.79 -1.41931 -0.685074 0
M  V30 16043 C 1500.02 -1.45229 -1.47364 0
M  V30 16044 C 1500.44 -0.060595 -1.88703 0
M  V30 16045 O 1499.79 0.92244 -1.57472 0
M  V30 16046 C 1499.84 -2.37033 -2.72942 0
M  V30 16047 O 1499.57 -3.70787 -2.33342 0
M  V30 16048 C 1501.07 -2.49244 -3.66596 0
M  V30 16049 H 1498.29 -0.494291 -0.453781 0
M  V30 16050 H 1500.83 -1.86333 -0.84263 0
M  V30 16051 H 1498.99 -1.9921 -3.32256 0
M  V30 16052 H 1499.4 -4.19853 -3.14362 0
M  V30 16053 H 1500.87 -3.17624 -4.51463 0
M  V30 16054 H 1501.35 -1.52703 -4.11799 0
M  V30 16055 H 1501.96 -2.87747 -3.1318 0
M  V30 16056 N 1500.27 0.920374 -1.27933 0
M  V30 16057 C 1501.52 1.67131 -1.1487 0
M  V30 16058 C 1501.85 1.91816 0.303343 0
M  V30 16059 O 1501.13 1.51379 1.22125 0
M  V30 16060 C 1501.41 3.03332 -1.94066 0
M  V30 16061 C 1501.26 2.85842 -3.47296 0
M  V30 16062 C 1502.58 4.03773 -1.75087 0
M  V30 16063 H 1499.7 0.606537 -0.418666 0
M  V30 16064 H 1502.34 1.06755 -1.57173 0
M  V30 16065 H 1500.49 3.54869 -1.58116 0
M  V30 16066 H 1502.16 2.41367 -3.93115 0
M  V30 16067 H 1500.41 2.21035 -3.73264 0
M  V30 16068 H 1501.08 3.82535 -3.97958 0
M  V30 16069 H 1503.55 3.61274 -2.06447 0
M  V30 16070 H 1502.43 4.97048 -2.32882 0
M  V30 16071 H 1502.69 4.36512 -0.700665 0
M  V30 16072 N 1501.75 1.10074 1.1279 0
M  V30 16073 C 1503 0.835715 1.83572 0
M  V30 16074 C 1503.31 -0.640831 1.84805 0
M  V30 16075 O 1504.52 -1.02162 2.51545 0
M  V30 16076 C 1502.97 1.44519 3.29609 0
M  V30 16077 C 1502.58 2.95476 3.36746 0
M  V30 16078 C 1504.33 1.2594 4.05388 0
M  V30 16079 C 1502.23 3.49477 4.77095 0
M  V30 16080 H 1501.16 0.308974 0.687787 0
M  V30 16081 H 1503.81 1.32427 1.27025 0
M  V30 16082 H 1502.2 0.884323 3.86 0
M  V30 16083 H 1503.37 3.57846 2.90315 0
M  V30 16084 H 1501.68 3.13166 2.74437 0
M  V30 16085 H 1504.28 1.63732 5.09015 0
M  V30 16086 H 1504.62 0.200633 4.15816 0
M  V30 16087 H 1505.16 1.78814 3.55346 0
M  V30 16088 H 1501.9 4.55003 4.7186 0
M  V30 16089 H 1501.42 2.91873 5.23995 0
M  V30 16090 H 1503.1 3.47077 5.46028 0
M  V30 16091 N 1503.23 -1.30138 0.888926 0
M  V30 16092 C 1504.48 -1.95602 0.508359 0
M  V30 16093 C 1504.8 -1.70495 -0.946377 0
M  V30 16094 O 1504.07 -1.03073 -1.66592 0
M  V30 16095 H 1502.65 -0.723728 0.185006 0
M  V30 16096 H 1505.31 -1.58594 1.13286 0
M  V30 16097 H 1504.4 -3.04559 0.681915 0
M  V30 16098 N 1504.71 -0.650285 -1.43559 0
M  V30 16099 C 1505.95 -0.162484 -2.01847 0
M  V30 16100 C 1506.28 1.22251 -1.51278 0
M  V30 16101 O 1505.54 1.82939 -0.695115 0
M  V30 16102 C 1505.83 -0.119084 -3.57202 0
M  V30 16103 C 1505.5 -1.44543 -4.27104 0
M  V30 16104 C 1504.16 -1.80864 -4.45917 0
M  V30 16105 C 1506.51 -2.32005 -4.66715 0
M  V30 16106 C 1503.84 -3.04319 -5.01604 0
M  V30 16107 C 1506.19 -3.54748 -5.23771 0
M  V30 16108 C 1504.86 -3.9127 -5.408 0
M  V30 16109 H 1504.13 -0.0594573 -0.738611 0
M  V30 16110 H 1506.78 -0.84041 -1.72074 0
M  V30 16111 H 1505.08 0.642282 -3.865 0
M  V30 16112 H 1506.78 0.275168 -4.00055 0
M  V30 16113 H 1503.37 -1.15281 -4.12805 0
M  V30 16114 H 1507.55 -2.05234 -4.51877 0
M  V30 16115 H 1502.81 -3.32668 -5.12974 0
M  V30 16116 H 1506.98 -4.2274 -5.53411 0
M  V30 16117 H 1504.61 -4.87011 -5.83716 0
M  V30 16118 N 1506.18 1.52647 -0.392018 0
M  V30 16119 C 1507.13 2.28073 0.456674 0
M  V30 16120 C 1508.13 1.3208 1.06071 0
M  V30 16121 O 1509.33 1.49608 1.00088 0
M  V30 16122 H 1505.71 0.733443 0.166029 0
M  V30 16123 H 1507.68 2.97723 -0.200916 0
M  V30 16124 C 1506.43 3.10216 1.5704 0
M  V30 16125 H 1505.75 3.83939 1.11493 0
M  V30 16126 H 1507.19 3.66126 2.1384 0
M  V30 16127 C 1505.65 2.22698 2.52799 0
M  V30 16128 O 1506.18 1.8556 3.56273 0
M  V30 16129 N 1504.38 1.86804 2.22604 0
M  V30 16130 H 1503.93 2.17204 1.38492 0
M  V30 16131 H 1503.89 1.28538 2.86924 0
M  V30 16132 N 1507.66 0.121921 1.57128 0
M  V30 16133 C 1508.91 -0.535201 1.9447 0
M  V30 16134 C 1509.22 -1.67644 1.00772 0
M  V30 16135 O 1510.43 -2.39651 1.27592 0
M  V30 16136 C 1508.89 -1.00346 3.45628 0
M  V30 16137 C 1508.49 0.109473 4.47866 0
M  V30 16138 C 1510.24 -1.63179 3.91884 0
M  V30 16139 C 1508.15 -0.375651 5.90206 0
M  V30 16140 H 1507.08 -0.203702 0.725962 0
M  V30 16141 H 1509.73 0.202243 1.82382 0
M  V30 16142 H 1508.11 -1.79541 3.5296 0
M  V30 16143 H 1509.28 0.885815 4.52206 0
M  V30 16144 H 1507.6 0.644642 4.1138 0
M  V30 16145 H 1510.19 -2.00594 4.95647 0
M  V30 16146 H 1510.54 -2.5113 3.32023 0
M  V30 16147 H 1511.07 -0.905197 3.87364 0
M  V30 16148 H 1507.81 0.46788 6.53828 0
M  V30 16149 H 1507.33 -1.11841 5.89281 0
M  V30 16150 H 1509.01 -0.835921 6.41577 0
M  V30 16151 N 1509.14 -1.56867 -0.151857 0
M  V30 16152 C 1510.07 -1.94494 -1.21263 0
M  V30 16153 C 1511.09 -0.84021 -1.39443 0
M  V30 16154 O 1512.27 -1.11863 -1.391 0
M  V30 16155 C 1509.37 -2.19952 -2.57826 0
M  V30 16156 C 1508.55 -3.51227 -2.60689 0
M  V30 16157 C 1507.61 -3.65282 -3.78756 0
M  V30 16158 O 1506.63 -4.3772 -3.63854 0
M  V30 16159 N 1507.83 -3.01582 -4.96012 0
M  V30 16160 H 1510.6 -2.86092 -0.892845 0
M  V30 16161 H 1508.16 -1.58258 -0.341463 0
M  V30 16162 H 1510.15 -2.266 -3.35312 0
M  V30 16163 H 1508.72 -1.34643 -2.82117 0
M  V30 16164 H 1507.94 -3.56062 -1.69155 0
M  V30 16165 H 1509.23 -4.37574 -2.59628 0
M  V30 16166 H 1508.63 -2.42637 -5.11022 0
M  V30 16167 H 1507.19 -3.13799 -5.71291 0
M  V30 16168 N 1510.62 0.421051 -1.51871 0
M  V30 16169 C 1511.86 1.17082 -1.65589 0
M  V30 16170 C 1512.2 1.90469 -0.378861 0
M  V30 16171 O 1511.47 1.84277 0.622259 0
M  V30 16172 C 1511.76 2.17483 -2.87007 0
M  V30 16173 C 1511.61 1.48071 -4.24729 0
M  V30 16174 C 1512.93 3.18288 -3.03942 0
M  V30 16175 H 1510.05 0.424284 -0.602621 0
M  V30 16176 H 1512.69 0.457998 -1.84397 0
M  V30 16177 H 1510.84 2.78273 -2.71102 0
M  V30 16178 H 1512.51 0.904926 -4.52337 0
M  V30 16179 H 1510.75 0.782814 -4.26678 0
M  V30 16180 H 1511.42 2.21272 -5.0571 0
M  V30 16181 H 1513.9 2.67565 -3.18666 0
M  V30 16182 H 1512.78 3.85815 -3.90433 0
M  V30 16183 H 1513.04 3.85333 -2.16728 0
M  V30 16184 N 1512.1 1.42293 0.677538 0
M  V30 16185 C 1513.04 1.45787 1.81243 0
M  V30 16186 C 1514.04 0.333895 1.66077 0
M  V30 16187 O 1515.24 0.50678 1.72719 0
M  V30 16188 H 1511.62 0.456538 0.597559 0
M  V30 16189 H 1513.59 2.41398 1.75413 0
M  V30 16190 C 1512.34 1.37449 3.19379 0
M  V30 16191 H 1511.66 2.23231 3.31674 0
M  V30 16192 H 1513.1 1.43955 3.98814 0
M  V30 16193 C 1511.56 0.0889433 3.36783 0
M  V30 16194 O 1512.09 -0.859357 3.924 0
M  V30 16195 N 1510.3 0.00698476 2.90599 0
M  V30 16196 H 1509.84 0.779459 2.45524 0
M  V30 16197 H 1509.8 -0.852522 3.02621 0
M  V30 16198 N 1513.57 -0.913576 1.28419 0
M  V30 16199 C 1514.85 -1.64203 1.06285 0
M  V30 16200 C 1515.23 -2.07319 -0.397728 0
M  V30 16201 O 1514.58 -1.8183 -1.38383 0
M  V30 16202 C 1514.79 -2.8334 2.03763 0
M  V30 16203 C 1516.14 -3.54355 2.33918 0
M  V30 16204 O 1517.16 -2.93489 2.01848 0
M  V30 16205 O 1516.02 -4.6405 2.88652 0
M  V30 16206 H 1513.11 -0.720359 0.406217 0
M  V30 16207 H 1515.66 -0.962866 1.39739 0
M  V30 16208 H 1514.43 -2.48575 3.02203 0
M  V30 16209 H 1514.06 -3.5897 1.70956 0
M  V30 16210 N 1515.05 -1.1067 -1.12204 0
M  V30 16211 C 1516.02 -0.761145 -2.16193 0
M  V30 16212 C 1517.02 0.215599 -1.59348 0
M  V30 16213 O 1518.21 -0.00786723 -1.74198 0
M  V30 16214 C 1515.34 -0.127863 -3.4066 0
M  V30 16215 H 1516.53 -1.68225 -2.48275 0
M  V30 16216 H 1514.08 -0.907542 -1.27253 0
M  V30 16217 H 1514.82 0.803851 -3.14179 0
M  V30 16218 H 1514.6 -0.83085 -3.83196 0
M  V30 16219 H 1516.09 0.0980593 -4.17485 0
M  V30 16220 N 1516.53 1.29665 -0.895815 0
M  V30 16221 C 1517.48 2.29791 -0.360404 0
M  V30 16222 C 1518.47 1.60617 0.538384 0
M  V30 16223 O 1519.68 1.74993 0.421616 0
M  V30 16224 H 1516.05 0.745599 -0.0979118 0
M  V30 16225 H 1518.02 2.72396 -1.21832 0
M  V30 16226 C 1516.77 3.45386 0.400451 0
M  V30 16227 H 1516.1 3.98805 -0.281915 0
M  V30 16228 H 1517.54 4.17492 0.740003 0
M  V30 16229 C 1516 2.96393 1.60165 0
M  V30 16230 O 1516.53 2.97339 2.70097 0
M  V30 16231 N 1514.73 2.52271 1.44249 0
M  V30 16232 H 1514.28 2.51701 0.548142 0
M  V30 16233 H 1514.24 2.19849 2.24753 0
M  V30 16234 N 1518.01 0.657889 1.43212 0
M  V30 16235 C 1518.92 -0.0313677 2.34579 0
M  V30 16236 C 1519.93 -0.807153 1.54146 0
M  V30 16237 O 1521.11 -0.753335 1.8678 0
M  V30 16238 C 1518.18 -0.982659 3.32483 0
M  V30 16239 C 1517.24 -0.203288 4.28818 0
M  V30 16240 C 1516.47 -1.10927 5.22045 0
M  V30 16241 O 1516.69 -2.34861 5.19804 0
M  V30 16242 O 1515.63 -0.57916 5.99107 0
M  V30 16243 H 1519.45 0.720808 2.95022 0
M  V30 16244 H 1517.04 0.418083 1.43431 0
M  V30 16245 H 1518.92 -1.52923 3.92673 0
M  V30 16246 H 1517.59 -1.71498 2.74536 0
M  V30 16247 H 1516.5 0.386982 3.72093 0
M  V30 16248 H 1517.83 0.489562 4.89759 0
M  V30 16249 N 1519.49 -1.52437 0.400108 0
M  V30 16250 C 1520.43 -2.26763 -0.429799 0
M  V30 16251 C 1521.4 -1.28808 -1.0487 0
M  V30 16252 O 1522.59 -1.57655 -1.07468 0
M  V30 16253 C 1519.73 -3.08564 -1.54539 0
M  V30 16254 C 1518.84 -4.21463 -0.948294 0
M  V30 16255 C 1517.98 -4.9064 -2.03584 0
M  V30 16256 C 1517.02 -5.95515 -1.4152 0
M  V30 16257 N 1516.15 -6.58245 -2.4425 0
M  V30 16258 H 1520.99 -2.97256 0.210467 0
M  V30 16259 H 1518.53 -1.46645 0.115627 0
M  V30 16260 H 1520.49 -3.54289 -2.20307 0
M  V30 16261 H 1519.12 -2.40259 -2.15582 0
M  V30 16262 H 1518.17 -3.79974 -0.179918 0
M  V30 16263 H 1519.48 -4.96722 -0.454845 0
M  V30 16264 H 1518.64 -5.39724 -2.77097 0
M  V30 16265 H 1517.37 -4.14929 -2.56291 0
M  V30 16266 H 1516.38 -5.45759 -0.665354 0
M  V30 16267 H 1517.6 -6.73164 -0.89593 0
M  V30 16268 H 1515.55 -5.85369 -2.96107 0
M  V30 16269 H 1515.47 -7.2915 -1.99692 0
M  V30 16270 H 1516.74 -7.1197 -3.17362 0
M  V30 16271 N 1520.96 -0.130252 -1.57061 0
M  V30 16272 C 1522.21 0.523969 -1.9519 0
M  V30 16273 C 1522.53 1.66493 -1.01514 0
M  V30 16274 O 1521.8 1.95762 -0.0735194 0
M  V30 16275 H 1520.38 0.196553 -0.720677 0
M  V30 16276 H 1523.05 -0.20183 -1.93852 0
M  V30 16277 H 1522.14 0.911156 -2.98504 0
M  V30 16278 N 1522.44 1.56945 0.143535 0
M  V30 16279 C 1523.38 1.95134 1.2023 0
M  V30 16280 C 1524.39 0.847593 1.38995 0
M  V30 16281 O 1525.58 1.12599 1.38505 0
M  V30 16282 C 1522.68 2.21316 2.56656 0
M  V30 16283 C 1521.85 3.52604 2.58822 0
M  V30 16284 C 1520.91 3.67285 3.76813 0
M  V30 16285 O 1519.94 4.39644 3.61527 0
M  V30 16286 N 1521.14 3.04208 4.94406 0
M  V30 16287 H 1523.9 2.86561 0.87766 0
M  V30 16288 H 1521.46 1.58437 0.333065 0
M  V30 16289 H 1523.46 2.28375 3.34106 0
M  V30 16290 H 1522.03 1.36137 2.81399 0
M  V30 16291 H 1521.25 3.56954 1.67264 0
M  V30 16292 H 1522.53 4.38944 2.57304 0
M  V30 16293 H 1521.93 2.45344 5.09728 0
M  V30 16294 H 1520.49 3.16824 5.69619 0
M  V30 16295 N 1523.92 -0.412991 1.52093 0
M  V30 16296 C 1525.34 -0.751324 1.40809 0
M  V30 16297 C 1525.54 -1.94951 0.509543 0
M  V30 16298 O 1524.59 -2.52486 -0.026132 0
M  V30 16299 C 1525.91 -1.00888 2.8327 0
M  V30 16300 C 1527.45 -1.11183 2.92587 0
M  V30 16301 C 1527.93 -1.40217 4.36008 0
M  V30 16302 N 1529.42 -1.4709 4.39225 0
M  V30 16303 C 1530.16 -1.71174 5.47254 0
M  V30 16304 N 1529.65 -1.92887 6.65407 0
M  V30 16305 N 1531.44 -1.73157 5.34765 0
M  V30 16306 H 1523.6 0.375774 2.0905 0
M  V30 16307 H 1525.86 0.105817 0.942076 0
M  V30 16308 H 1525.56 -0.200872 3.51126 0
M  V30 16309 H 1525.44 -1.93008 3.2408 0
M  V30 16310 H 1527.83 -1.91043 2.24915 0
M  V30 16311 H 1527.91 -0.169078 2.55241 0
M  V30 16312 H 1527.55 -0.608754 5.04239 0
M  V30 16313 H 1527.48 -2.35737 4.70888 0
M  V30 16314 H 1529.97 -1.32114 3.54054 0
M  V30 16315 H 1530.28 -2.10704 7.43521 0
M  V30 16316 H 1528.63 -1.9016 6.68479 0
M  V30 16317 H 1531.82 -1.55728 4.41437 0
M  V30 16318 H 1531.99 -1.91587 6.1903 0
M  V30 16319 N 1525.4 -1.4265 -0.669982 0
M  V30 16320 C 1526.65 -1.43589 -1.43213 0
M  V30 16321 C 1526.98 -0.0537998 -1.94125 0
M  V30 16322 O 1526.25 0.922727 -1.71219 0
M  V30 16323 C 1526.54 -2.46433 -2.62569 0
M  V30 16324 C 1526.39 -3.93851 -2.17258 0
M  V30 16325 C 1527.71 -2.46208 -3.64787 0
M  V30 16326 H 1524.83 -0.522859 -0.519411 0
M  V30 16327 H 1527.47 -1.74094 -0.760997 0
M  V30 16328 H 1525.62 -2.20551 -3.19828 0
M  V30 16329 H 1527.29 -4.30732 -1.6513 0
M  V30 16330 H 1525.53 -4.07487 -1.48786 0
M  V30 16331 H 1526.21 -4.61398 -3.03012 0
M  V30 16332 H 1528.68 -2.69237 -3.17255 0
M  V30 16333 H 1527.56 -3.20138 -4.45873 0
M  V30 16334 H 1527.82 -1.48979 -4.16242 0
M  V30 16335 N 1526.88 0.906753 -1.28902 0
M  V30 16336 C 1528.13 1.6533 -1.16234 0
M  V30 16337 C 1528.45 1.92861 0.288004 0
M  V30 16338 O 1527.72 1.54971 1.19837 0
M  V30 16339 H 1526.3 0.612806 -0.427174 0
M  V30 16340 H 1528.96 1.08764 -1.6173 0
M  V30 16341 H 1528.05 2.61271 -1.70715 0
M  V30 16342 N 1528.36 1.11264 1.11616 0
M  V30 16343 C 1529.6 0.855139 1.82675 0
M  V30 16344 C 1529.92 -0.621194 1.85474 0
M  V30 16345 O 1531.12 -0.994886 2.52615 0
M  V30 16346 C 1529.58 1.48007 3.28058 0
M  V30 16347 C 1529.19 2.99031 3.33593 0
M  V30 16348 C 1530.93 1.30233 4.04029 0
M  V30 16349 C 1528.84 3.54517 4.73362 0
M  V30 16350 H 1527.77 0.316252 0.684471 0
M  V30 16351 H 1530.42 1.33766 1.25614 0
M  V30 16352 H 1528.8 0.925214 3.8504 0
M  V30 16353 H 1529.98 3.60905 2.86503 0
M  V30 16354 H 1528.29 3.16059 2.711 0
M  V30 16355 H 1530.89 1.69122 5.07249 0
M  V30 16356 H 1531.23 0.244724 4.1558 0
M  V30 16357 H 1531.76 1.82573 3.53429 0
M  V30 16358 H 1528.5 4.59982 4.67008 0
M  V30 16359 H 1528.02 2.97414 5.20869 0
M  V30 16360 H 1529.7 3.52848 5.42316 0
M  V30 16361 N 1529.83 -1.29188 0.902679 0
M  V30 16362 C 1531.08 -1.94718 0.526082 0
M  V30 16363 C 1531.4 -1.71924 -0.932816 0
M  V30 16364 O 1532.6 -2.31585 -1.41707 0
M  V30 16365 C 1531.06 -3.48723 0.889974 0
M  V30 16366 C 1530.67 -3.80312 2.36784 0
M  V30 16367 C 1532.41 -4.20472 0.58343 0
M  V30 16368 C 1530.32 -5.27574 2.67244 0
M  V30 16369 H 1529.25 -0.728875 0.193019 0
M  V30 16370 H 1531.9 -1.46869 1.10008 0
M  V30 16371 H 1530.28 -3.95242 0.244872 0
M  V30 16372 H 1531.45 -3.44641 3.05875 0
M  V30 16373 H 1529.77 -3.21709 2.64371 0
M  V30 16374 H 1532.37 -5.28864 0.787813 0
M  V30 16375 H 1532.71 -4.13544 -0.478204 0
M  V30 16376 H 1533.24 -3.79693 1.1865 0
M  V30 16377 H 1529.98 -5.39569 3.72217 0
M  V30 16378 H 1529.5 -5.64482 2.0278 0
M  V30 16379 H 1531.18 -5.95199 2.53666 0
M  V30 16380 N 1531.31 -0.665475 -1.42861 0
M  V30 16381 C 1532.54 -0.190399 -2.06524 0
M  V30 16382 C 1532.96 1.13995 -1.49622 0
M  V30 16383 O 1532.32 1.70695 -0.610981 0
M  V30 16384 C 1532.37 -0.12594 -3.6038 0
M  V30 16385 O 1531.47 0.908299 -4.02273 0
M  V30 16386 H 1530.81 -0.100495 -0.656351 0
M  V30 16387 H 1533.34 -0.911858 -1.83156 0
M  V30 16388 H 1533.35 0.0533153 -4.07965 0
M  V30 16389 H 1532.03 -1.09703 -4.01171 0
M  V30 16390 H 1530.6 0.700841 -3.66255 0
M  V30 16391 N 1532.79 1.52222 -0.408187 0
M  V30 16392 C 1534.04 2.02765 0.160542 0
M  V30 16393 C 1534.39 1.28847 1.42885 0
M  V30 16394 O 1533.68 0.385878 1.87674 0
M  V30 16395 C 1533.88 3.54384 0.463353 0
M  V30 16396 C 1533.71 4.42988 -0.774055 0
M  V30 16397 C 1532.48 4.88318 -1.29897 0
M  V30 16398 C 1534.67 4.87049 -1.65189 0
M  V30 16399 N 1532.66 5.61048 -2.49196 0
M  V30 16400 C 1534.03 5.5855 -2.69114 0
M  V30 16401 C 1536.08 4.69066 -1.66976 0
M  V30 16402 C 1534.79 6.13976 -3.74735 0
M  V30 16403 C 1536.81 5.25389 -2.71515 0
M  V30 16404 C 1536.17 5.96811 -3.74161 0
M  V30 16405 H 1532.27 0.781735 0.0203387 0
M  V30 16406 H 1534.86 1.86403 -0.562322 0
M  V30 16407 H 1533.03 3.70821 1.15526 0
M  V30 16408 H 1534.76 3.91612 1.02088 0
M  V30 16409 H 1531.51 4.65779 -0.857148 0
M  V30 16410 H 1531.94 6.02055 -3.09611 0
M  V30 16411 H 1536.58 4.13335 -0.889589 0
M  V30 16412 H 1534.3 6.68779 -4.53608 0
M  V30 16413 H 1537.88 5.13344 -2.73804 0
M  V30 16414 H 1536.76 6.39613 -4.53724 0
M  V30 16415 N 1534.27 0.138579 1.5699 0
M  V30 16416 C 1535.49 -0.525074 2.00643 0
M  V30 16417 C 1535.92 -1.58174 1.01796 0
M  V30 16418 O 1535.28 -1.81298 -0.00754003 0
M  V30 16419 C 1535.32 -1.11019 3.43085 0
M  V30 16420 O 1534.43 -2.22529 3.4721 0
M  V30 16421 H 1533.77 -0.129283 0.651292 0
M  V30 16422 H 1536.3 0.23283 2.03271 0
M  V30 16423 H 1536.31 -1.44093 3.81708 0
M  V30 16424 H 1534.98 -0.336325 4.14538 0
M  V30 16425 H 1533.56 -1.90747 3.20422 0
M  V30 16426 N 1535.75 -1.57019 -0.13521 0
M  V30 16427 C 1537.02 -1.74928 -0.875189 0
M  V30 16428 C 1537.4 -0.709755 -1.98811 0
M  V30 16429 O 1536.75 0.269237 -2.26908 0
M  V30 16430 C 1536.96 -3.1939 -1.40681 0
M  V30 16431 C 1538.31 -3.8142 -1.86557 0
M  V30 16432 O 1539.33 -3.22892 -1.50397 0
M  V30 16433 O 1538.19 -4.84263 -2.53282 0
M  V30 16434 H 1535.29 -0.715665 -0.414431 0
M  V30 16435 H 1537.83 -1.69274 -0.120215 0
M  V30 16436 H 1536.6 -3.86554 -0.607564 0
M  V30 16437 H 1536.23 -3.29517 -2.22496 0
M  V30 16438 N 1537.22 0.404919 -1.52309 0
M  V30 16439 C 1538.64 0.983553 -1.58692 0
M  V30 16440 C 1538.99 1.9143 -0.429993 0
M  V30 16441 O 1538.11 2.11689 0.449088 0
M  V30 16442 C 1538.71 1.79059 -2.87617 0
M  V30 16443 C 1537.27 2.31918 -2.96464 0
M  V30 16444 C 1536.41 1.12018 -2.53667 0
M  V30 16445 H 1539.36 0.185007 -1.57618 0
M  V30 16446 H 1539.38 2.64836 -2.73207 0
M  V30 16447 H 1538.9 1.11291 -3.71801 0
M  V30 16448 H 1537 3.03044 -2.16783 0
M  V30 16449 H 1537.11 2.62495 -4.00791 0
M  V30 16450 H 1535.47 1.47542 -2.07614 0
M  V30 16451 H 1536.26 0.458111 -3.4023 0
M  V30 16452 N 1538.7 1.43003 0.662408 0
M  V30 16453 C 1539.93 1.47555 1.45035 0
M  V30 16454 C 1540.35 0.0906083 1.88582 0
M  V30 16455 O 1539.7 -0.897271 1.58919 0
M  V30 16456 C 1539.75 2.41345 2.69137 0
M  V30 16457 O 1539.47 3.74453 2.27413 0
M  V30 16458 C 1540.98 2.55045 3.62584 0
M  V30 16459 H 1538.2 0.501448 0.44586 0
M  V30 16460 H 1540.74 1.8765 0.812879 0
M  V30 16461 H 1538.89 2.0447 3.29045 0
M  V30 16462 H 1539.31 4.24801 3.07643 0
M  V30 16463 H 1540.78 3.24766 4.46353 0
M  V30 16464 H 1541.26 1.59235 4.09318 0
M  V30 16465 H 1541.87 2.92693 3.08563 0
M  V30 16466 N 1540.18 -0.899904 1.29381 0
M  V30 16467 C 1541.13 -2.02537 1.14375 0
M  V30 16468 C 1542.12 -1.69296 0.0593904 0
M  V30 16469 O 1543.33 -1.78661 0.219174 0
M  V30 16470 H 1539.7 -0.663844 0.353291 0
M  V30 16471 H 1541.67 -2.12332 2.0966 0
M  V30 16472 C 1540.42 -3.37479 0.836845 0
M  V30 16473 H 1539.75 -3.6356 1.66326 0
M  V30 16474 H 1541.19 -4.16915 0.771873 0
M  V30 16475 C 1539.65 -3.33746 -0.459889 0
M  V30 16476 O 1540.18 -3.73203 -1.48601 0
M  V30 16477 N 1538.38 -2.86845 -0.465657 0
M  V30 16478 H 1537.93 -2.54931 0.369833 0
M  V30 16479 H 1537.89 -2.8473 -1.33327 0
M  V30 16480 N 1541.66 -1.11854 -1.11024 0
M  V30 16481 C 1542.61 -0.77596 -2.19275 0
M  V30 16482 C 1543.6 0.234503 -1.67769 0
M  V30 16483 O 1544.81 0.0933372 -1.79758 0
M  V30 16484 H 1541.18 -0.23307 -0.71497 0
M  V30 16485 H 1543.15 -1.69749 -2.45414 0
M  V30 16486 C 1541.9 -0.240148 -3.4687 0
M  V30 16487 H 1541.22 -1.00895 -3.86859 0
M  V30 16488 H 1542.66 -0.0386799 -4.23982 0
M  V30 16489 C 1541.12 1.03056 -3.20751 0
M  V30 16490 O 1541.65 2.10948 -3.41854 0
M  V30 16491 N 1539.86 0.955066 -2.74457 0
M  V30 16492 H 1539.41 0.0769523 -2.57485 0
M  V30 16493 H 1539.36 1.80593 -2.57359 0
M  V30 16494 N 1543.14 1.28707 -0.909517 0
M  V30 16495 C 1544.36 1.99821 -0.555557 0
M  V30 16496 C 1544.79 1.67549 0.854931 0
M  V30 16497 O 1544.14 0.905521 1.57067 0
M  V30 16498 C 1544.19 3.52361 -0.766438 0
M  V30 16499 O 1543.3 4.12022 0.17654 0
M  V30 16500 H 1542.64 0.627918 -0.215905 0
M  V30 16501 H 1545.17 1.63965 -1.2238 0
M  V30 16502 H 1545.18 4.02379 -0.674894 0
M  V30 16503 H 1543.85 3.75184 -1.7947 0
M  V30 16504 H 1542.43 3.72882 0.0366216 0
M  V30 16505 N 1544.61 0.673042 1.42506 0
M  V30 16506 C 1545.86 0.203538 2.02379 0
M  V30 16507 C 1546.22 -1.17624 1.52258 0
M  V30 16508 O 1545.51 -1.77787 0.714297 0
M  V30 16509 C 1545.7 0.175896 3.56967 0
M  V30 16510 C 1545.53 1.55145 4.2209 0
M  V30 16511 C 1544.3 2.14878 4.57335 0
M  V30 16512 C 1546.5 2.49378 4.49794 0
M  V30 16513 N 1544.48 3.45232 5.0763 0
M  V30 16514 C 1545.85 3.64385 5.01621 0
M  V30 16515 C 1547.91 2.4793 4.31781 0
M  V30 16516 C 1546.61 4.78196 5.37328 0
M  V30 16517 C 1548.64 3.60836 4.68563 0
M  V30 16518 C 1548 4.74571 5.2054 0
M  V30 16519 H 1544.1 0.119362 0.772837 0
M  V30 16520 H 1546.68 0.885648 1.73391 0
M  V30 16521 H 1544.85 -0.475621 3.85477 0
M  V30 16522 H 1546.58 -0.306326 4.03539 0
M  V30 16523 H 1543.34 1.67385 4.43034 0
M  V30 16524 H 1543.76 4.1199 5.37209 0
M  V30 16525 H 1548.41 1.61227 3.90853 0
M  V30 16526 H 1546.12 5.65576 5.77191 0
M  V30 16527 H 1549.71 3.60941 4.56304 0
M  V30 16528 H 1548.59 5.6049 5.48471 0
M  V30 16529 N 1546.09 -1.52004 0.416254 0
M  V30 16530 C 1547.51 -1.59457 0.0674775 0
M  V30 16531 C 1547.71 -1.42865 -1.42098 0
M  V30 16532 O 1546.76 -1.2592 -2.18862 0
M  V30 16533 C 1548.08 -2.95272 0.56876 0
M  V30 16534 C 1549.63 -3.08525 0.527356 0
M  V30 16535 C 1550.1 -4.46832 1.00526 0
M  V30 16536 N 1551.59 -4.53092 0.962377 0
M  V30 16537 C 1552.33 -5.58393 1.30327 0
M  V30 16538 N 1551.82 -6.71212 1.71597 0
M  V30 16539 N 1553.62 -5.48639 1.22278 0
M  V30 16540 H 1545.77 -1.61036 1.38496 0
M  V30 16541 H 1548.03 -0.75795 0.569399 0
M  V30 16542 H 1547.74 -3.12717 1.60937 0
M  V30 16543 H 1547.61 -3.77196 -0.0177595 0
M  V30 16544 H 1550 -2.9076 -0.504225 0
M  V30 16545 H 1550.08 -2.28491 1.15002 0
M  V30 16546 H 1549.72 -4.6534 2.03521 0
M  V30 16547 H 1549.65 -5.25373 0.359345 0
M  V30 16548 H 1552.14 -3.72109 0.65904 0
M  V30 16549 H 1552.46 -7.47558 1.95901 0
M  V30 16550 H 1550.8 -6.72475 1.75507 0
M  V30 16551 H 1553.99 -4.59383 0.899175 0
M  V30 16552 H 1554.16 -6.30596 1.49175 0
M  V30 16553 N 1547.57 -0.146903 -1.56914 0
M  V30 16554 C 1548.85 0.549291 -1.87729 0
M  V30 16555 C 1549.23 1.82971 -1.05284 0
M  V30 16556 O 1548.58 2.28073 -0.139628 0
M  V30 16557 C 1548.79 0.814835 -3.39354 0
M  V30 16558 C 1550.13 1.15565 -4.0857 0
M  V30 16559 O 1551.16 0.904191 -3.44533 0
M  V30 16560 O 1550.02 1.62886 -5.21661 0
M  V30 16561 H 1547.11 0.280196 -0.778087 0
M  V30 16562 H 1549.66 -0.183507 -1.68705 0
M  V30 16563 H 1548.43 -0.0913527 -3.91193 0
M  V30 16564 H 1548.05 1.60182 -3.63906 0
M  V30 16565 N 1549.05 1.57088 0.126881 0
M  V30 16566 C 1550.46 1.73685 0.684865 0
M  V30 16567 C 1550.81 0.764401 1.80697 0
M  V30 16568 O 1549.94 -0.0644761 2.16304 0
M  V30 16569 C 1550.53 3.14933 1.24911 0
M  V30 16570 C 1549.09 3.33063 1.75346 0
M  V30 16571 C 1548.24 2.69575 0.649976 0
M  V30 16572 H 1551.19 1.58391 -0.0989715 0
M  V30 16573 H 1551.21 3.16047 2.11884 0
M  V30 16574 H 1550.72 3.85686 0.432204 0
M  V30 16575 H 1548.82 2.67339 2.59539 0
M  V30 16576 H 1548.93 4.41169 1.86833 0
M  V30 16577 H 1547.3 2.30592 1.08163 0
M  V30 16578 H 1548.08 3.42946 -0.15582 0
M  V30 16579 N 1550.53 -0.396836 1.52522 0
M  V30 16580 C 1551.75 -1.16857 1.71345 0
M  V30 16581 C 1552.18 -1.83178 0.427465 0
M  V30 16582 O 1551.53 -1.7051 -0.616123 0
M  V30 16583 C 1551.58 -2.19817 2.85855 0
M  V30 16584 O 1550.69 -3.26233 2.52281 0
M  V30 16585 H 1550.03 -0.340554 0.570017 0
M  V30 16586 H 1552.56 -0.463532 1.9928 0
M  V30 16587 H 1552.57 -2.63944 3.11123 0
M  V30 16588 H 1551.24 -1.70931 3.79151 0
M  V30 16589 H 1549.82 -2.87299 2.37726 0
M  V30 16590 N 1552.01 -1.43353 -0.654814 0
M  V30 16591 C 1552.95 -1.48387 -1.76776 0
M  V30 16592 C 1553.92 -0.333755 -1.62712 0
M  V30 16593 O 1555.11 -0.540683 -1.82979 0
M  V30 16594 C 1552.25 -1.41132 -3.14922 0
M  V30 16595 C 1551.36 -2.66336 -3.40131 0
M  V30 16596 C 1550.5 -2.5108 -4.68116 0
M  V30 16597 C 1549.53 -3.71561 -4.86425 0
M  V30 16598 N 1548.67 -3.55125 -6.05666 0
M  V30 16599 H 1553.51 -2.43487 -1.71808 0
M  V30 16600 H 1551.05 -1.20866 -0.838442 0
M  V30 16601 H 1553.01 -1.3492 -3.94782 0
M  V30 16602 H 1551.64 -0.496149 -3.18964 0
M  V30 16603 H 1550.69 -2.82834 -2.5438 0
M  V30 16604 H 1552 -3.55835 -3.49546 0
M  V30 16605 H 1551.15 -2.42567 -5.56099 0
M  V30 16606 H 1549.89 -1.59103 -4.61018 0
M  V30 16607 H 1548.9 -3.80484 -3.96877 0
M  V30 16608 H 1550.12 -4.64545 -4.95353 0
M  V30 16609 H 1548.07 -2.65881 -5.99703 0
M  V30 16610 H 1547.99 -4.38224 -6.16032 0
M  V30 16611 H 1549.25 -3.5046 -6.96274 0
M  V30 16612 N 1553.48 0.89303 -1.29857 0
M  V30 16613 C 1554.73 1.64413 -1.18214 0
M  V30 16614 C 1555.06 1.92687 0.26492 0
M  V30 16615 O 1554.31 1.54044 1.20702 0
M  V30 16616 C 1554.61 2.99661 -1.94777 0
M  V30 16617 C 1554.28 2.90969 -3.44453 0
M  V30 16618 C 1552.94 2.88306 -3.8527 0
M  V30 16619 C 1555.29 2.79686 -4.39801 0
M  V30 16620 C 1552.62 2.72188 -5.19741 0
M  V30 16621 C 1554.97 2.65107 -5.7437 0
M  V30 16622 C 1553.64 2.60814 -6.14437 0
M  V30 16623 H 1552.91 0.60163 -0.432577 0
M  V30 16624 H 1555.55 1.03891 -1.60869 0
M  V30 16625 H 1553.86 3.64087 -1.44733 0
M  V30 16626 H 1555.56 3.56722 -1.83168 0
M  V30 16627 H 1552.15 2.93848 -3.12012 0
M  V30 16628 H 1556.33 2.80816 -4.09214 0
M  V30 16629 H 1551.59 2.67273 -5.49886 0
M  V30 16630 H 1555.76 2.55349 -6.47897 0
M  V30 16631 H 1553.39 2.48082 -7.18582 0
M  V30 16632 N 1554.96 1.12442 1.10429 0
M  V30 16633 C 1556.21 0.878021 1.82031 0
M  V30 16634 C 1556.53 -0.597787 1.85611 0
M  V30 16635 O 1555.8 -1.43442 1.33422 0
M  V30 16636 H 1554.38 0.321839 0.674113 0
M  V30 16637 H 1557.04 1.41891 1.33615 0
M  V30 16638 H 1556.14 1.25957 2.85554 0
M  V30 16639 N 1556.44 -1.28223 0.91633 0
M  V30 16640 C 1557.39 -2.29188 0.396916 0
M  V30 16641 C 1558.38 -1.61453 -0.512763 0
M  V30 16642 O 1559.59 -1.75641 -0.393723 0
M  V30 16643 H 1555.96 -0.743947 0.109761 0
M  V30 16644 H 1557.93 -2.70423 1.2615 0
M  V30 16645 C 1556.68 -3.4598 -0.345452 0
M  V30 16646 H 1556.01 -3.98306 0.345326 0
M  V30 16647 H 1557.45 -4.18617 -0.67349 0
M  V30 16648 C 1555.9 -2.98904 -1.55429 0
M  V30 16649 O 1556.43 -3.01598 -2.65333 0
M  V30 16650 N 1554.64 -2.54534 -1.40217 0
M  V30 16651 H 1554.19 -2.52541 -0.508029 0
M  V30 16652 H 1554.15 -2.23397 -2.21227 0
M  V30 16653 N 1557.92 -0.68059 -1.42147 0
M  V30 16654 C 1558.85 -0.0199376 -2.33491 0
M  V30 16655 C 1559.83 0.783164 -1.50999 0
M  V30 16656 O 1561.01 0.739154 -1.79583 0
M  V30 16657 C 1558.14 0.927902 -3.34675 0
M  V30 16658 C 1557.1 0.232979 -4.27365 0
M  V30 16659 C 1556.42 1.29415 -5.18802 0
M  V30 16660 C 1557.72 -0.891559 -5.14634 0
M  V30 16661 H 1559.42 -0.782823 -2.88985 0
M  V30 16662 H 1556.96 -0.377898 -1.38953 0
M  V30 16663 H 1558.92 1.3992 -3.97493 0
M  V30 16664 H 1557.64 1.72228 -2.77498 0
M  V30 16665 H 1556.3 -0.21814 -3.6595 0
M  V30 16666 H 1555.95 2.08067 -4.57949 0
M  V30 16667 H 1555.65 0.834274 -5.81647 0
M  V30 16668 H 1557.17 1.76627 -5.84496 0
M  V30 16669 H 1558.59 -0.501219 -5.71105 0
M  V30 16670 H 1556.98 -1.27759 -5.86343 0
M  V30 16671 H 1558.05 -1.73781 -4.5269 0
M  V30 16672 N 1559.4 1.51781 -0.424309 0
M  V30 16673 C 1560.81 1.59419 -0.0759329 0
M  V30 16674 C 1561.01 1.43616 1.41339 0
M  V30 16675 O 1560.07 1.27078 2.18191 0
M  V30 16676 C 1561.38 2.94966 -0.584411 0
M  V30 16677 C 1562.93 3.08241 -0.54371 0
M  V30 16678 C 1563.4 4.46292 -1.02895 0
M  V30 16679 N 1564.89 4.52575 -0.986392 0
M  V30 16680 C 1565.63 5.57694 -1.33286 0
M  V30 16681 N 1565.13 6.70293 -1.75154 0
M  V30 16682 N 1566.92 5.47983 -1.25186 0
M  V30 16683 H 1559.07 1.60299 -1.39349 0
M  V30 16684 H 1561.33 0.75492 -0.573411 0
M  V30 16685 H 1561.04 3.11859 -1.62593 0
M  V30 16686 H 1560.91 3.772 -0.00224435 0
M  V30 16687 H 1563.3 2.91024 0.488798 0
M  V30 16688 H 1563.38 2.27878 -1.16212 0
M  V30 16689 H 1563.02 4.64255 -2.05986 0
M  V30 16690 H 1562.95 5.25175 -0.387202 0
M  V30 16691 H 1565.45 3.71754 -0.678765 0
M  V30 16692 H 1565.76 7.46508 -1.99863 0
M  V30 16693 H 1564.1 6.71535 -1.79071 0
M  V30 16694 H 1567.29 4.58899 -0.923525 0
M  V30 16695 H 1567.47 6.29796 -1.52517 0
M  V30 16696 N 1560.87 0.155222 1.56834 0
M  V30 16697 C 1561.8 -0.777258 2.20184 0
M  V30 16698 C 1562.78 -1.25102 1.15254 0
M  V30 16699 O 1563.97 -1.3071 1.43627 0
M  V30 16700 C 1561.1 -2.01326 2.82993 0
M  V30 16701 C 1560.05 -1.67596 3.93822 0
M  V30 16702 C 1559.38 -2.98529 4.43604 0
M  V30 16703 C 1560.68 -0.916302 5.142 0
M  V30 16704 H 1562.37 -0.249257 2.98361 0
M  V30 16705 H 1559.92 -0.118448 1.43512 0
M  V30 16706 H 1561.87 -2.67048 3.2598 0
M  V30 16707 H 1560.6 -2.56513 2.0216 0
M  V30 16708 H 1559.26 -1.0425 3.51465 0
M  V30 16709 H 1558.9 -3.51723 3.59583 0
M  V30 16710 H 1558.6 -2.76721 5.18362 0
M  V30 16711 H 1560.13 -3.65308 4.89267 0
M  V30 16712 H 1561.54 -1.47577 5.5398 0
M  V30 16713 H 1559.94 -0.797856 5.94772 0
M  V30 16714 H 1561.01 0.0904351 4.84816 0
M  V30 16715 N 1562.35 -1.57153 -0.118549 0
M  V30 16716 C 1563.6 -1.84064 -0.824832 0
M  V30 16717 C 1563.91 -0.740941 -1.81023 0
M  V30 16718 O 1565.12 -0.896464 -2.56273 0
M  V30 16719 C 1563.58 -3.26338 -1.51761 0
M  V30 16720 C 1563.18 -4.44318 -0.573174 0
M  V30 16721 C 1564.93 -3.62496 -2.209 0
M  V30 16722 C 1562.83 -5.7762 -1.2692 0
M  V30 16723 H 1561.76 -0.686521 -0.311777 0
M  V30 16724 H 1564.42 -1.83336 -0.0775833 0
M  V30 16725 H 1562.8 -3.21537 -2.3115 0
M  V30 16726 H 1563.97 -4.60418 0.187529 0
M  V30 16727 H 1562.29 -4.16398 0.0112747 0
M  V30 16728 H 1564.88 -4.5936 -2.73666 0
M  V30 16729 H 1565.23 -2.89952 -2.9872 0
M  V30 16730 H 1565.76 -3.69084 -1.48399 0
M  V30 16731 H 1562.5 -6.53335 -0.532285 0
M  V30 16732 H 1562.02 -5.65406 -2.00191 0
M  V30 16733 H 1563.7 -6.21391 -1.80227 0
M  V30 16734 N 1563.83 0.388742 -1.5273 0
M  V30 16735 C 1564.78 1.47488 -1.77527 0
M  V30 16736 C 1565.75 1.54155 -0.618505 0
M  V30 16737 O 1566.93 1.70407 -0.858251 0
M  V30 16738 C 1564.07 2.84714 -1.95018 0
M  V30 16739 C 1563.18 2.87197 -3.2271 0
M  V30 16740 C 1562.32 4.15851 -3.30517 0
M  V30 16741 C 1561.36 4.12386 -4.52332 0
M  V30 16742 N 1560.5 5.32647 -4.57418 0
M  V30 16743 H 1565.34 1.25644 -2.70218 0
M  V30 16744 H 1562.87 0.609519 -1.33878 0
M  V30 16745 H 1564.83 3.64402 -2.03143 0
M  V30 16746 H 1563.46 3.05008 -1.05688 0
M  V30 16747 H 1562.51 1.99879 -3.23655 0
M  V30 16748 H 1563.82 2.80505 -4.12454 0
M  V30 16749 H 1562.98 5.03943 -3.37827 0
M  V30 16750 H 1561.72 4.25265 -2.38748 0
M  V30 16751 H 1560.72 3.22683 -4.45147 0
M  V30 16752 H 1561.95 4.04594 -5.45418 0
M  V30 16753 H 1559.89 5.42691 -3.68541 0
M  V30 16754 H 1559.81 5.28032 -5.41035 0
M  V30 16755 H 1561.08 6.22636 -4.68983 0
M  V30 16756 O 1565.35 1.52392 0.534682 0
M  V30 16757 H 1566.04 1.5285 1.18981 0
M  V30 END ATOM
M  V30 BEGIN BOND
M  V30 END BOND
M  V30 END CTAB
M  END
$$$$
