drugbank_target|P20645 Cation-dependent mannose-6-phosphate receptor (DB01272; DB02755; DB02900)
 OpenBabel12092120543D

  0  0  0     0  0            999 V3000
M  V30 BEGIN CTAB
M  V30 COUNTS 4308 4353 0 0 0
M  V30 BEGIN ATOM
M  V30 1 H -0.908 1.98254 -0.117106 0
M  V30 2 N 0 1.576 0 0
M  V30 3 C 0.933 2.03868 1.02534 0
M  V30 4 C 1.911 0.928543 1.3348 0
M  V30 5 O 3.095 1.19667 1.45644 0
M  V30 6 C 0.222 2.43627 2.35294 0
M  V30 7 C -0.732 3.65373 2.2001 0
M  V30 8 S 0.101 5.13292 1.52614 0
M  V30 9 C 1.257 5.56322 2.86805 0
M  V30 10 H 1.49 2.90518 0.631377 0
M  V30 11 H -0.977 1.52953 0.210867 0
M  V30 12 H 0.981 2.67203 3.11629 0
M  V30 13 H -0.358 1.57376 2.7183 0
M  V30 14 H -1.165 3.90944 3.18086 0
M  V30 15 H -1.563 3.418 1.51819 0
M  V30 16 H 0.729 5.58782 3.83104 0
M  V30 17 H 1.672 6.56266 2.65933 0
M  V30 18 H 2.08 4.83886 2.90714 0
M  V30 19 N 1.4781 -0.272755 1.55222 0
M  V30 20 C 2.7251 -1.00433 1.7584 0
M  V30 21 C 3.0531 -1.86275 0.559629 0
M  V30 22 O 2.3081 -1.90269 -0.457857 0
M  V30 23 C 2.6071 -1.91642 3.01675 0
M  V30 24 C 2.2731 -1.21548 4.34208 0
M  V30 25 C 0.9351 -1.02166 4.70229 0
M  V30 26 C 3.2871 -0.716684 5.16249 0
M  V30 27 C 0.6151 -0.316334 5.85847 0
M  V30 28 C 2.9671 -0.0249476 6.32595 0
M  V30 29 C 1.6311 0.180579 6.67256 0
M  V30 30 H 0.9011 -0.367509 0.643443 0
M  V30 31 H 3.5481 -0.276596 1.89492 0
M  V30 32 H 1.8531 -2.71037 2.82924 0
M  V30 33 H 3.5501 -2.48369 3.14824 0
M  V30 34 H 0.1401 -1.37645 4.05896 0
M  V30 35 H 4.3241 -0.854047 4.88896 0
M  V30 36 H -0.4199 -0.146378 6.11225 0
M  V30 37 H 3.7541 0.369311 6.9542 0
M  V30 38 H 1.3811 0.729098 7.56696 0
M  V30 39 N 2.9562 -1.48159 -0.537278 0
M  V30 40 C 4.3672 -1.49429 -1.11928 0
M  V30 41 C 4.7182 -0.26 -1.9447 0
M  V30 42 O 3.8432 0.633489 -2.0692 0
M  V30 43 C 4.4382 -2.70758 -2.03656 0
M  V30 44 C 2.9972 -2.74923 -2.57088 0
M  V30 45 C 2.1442 -2.42835 -1.3389 0
M  V30 46 H 5.0952 -1.55381 -0.322886 0
M  V30 47 H 5.1162 -2.48861 -2.87834 0
M  V30 48 H 4.6282 -3.60575 -1.43553 0
M  V30 49 H 2.7292 -1.89296 -3.20933 0
M  V30 50 H 2.8422 -3.76157 -2.9672 0
M  V30 51 H 1.2062 -1.93836 -1.65226 0
M  V30 52 H 1.9892 -3.34884 -0.755504 0
M  V30 53 N 4.4343 0.785586 -1.36625 0
M  V30 54 C 5.6813 1.54362 -1.31067 0
M  V30 55 C 6.0093 1.94195 0.10893 0
M  V30 56 O 5.2643 1.63262 1.07908 0
M  V30 57 C 5.5633 2.83007 -2.1827 0
M  V30 58 C 5.2293 2.62294 -3.6676 0
M  V30 59 C 3.8913 2.56353 -4.0723 0
M  V30 60 C 6.2433 2.43371 -4.6089 0
M  V30 61 C 3.5713 2.29461 -5.39967 0
M  V30 62 C 5.9233 2.18005 -5.93849 0
M  V30 63 C 4.5873 2.105 -6.3344 0
M  V30 64 H 3.8573 0.564851 -0.479609 0
M  V30 65 H 6.5043 0.906028 -1.68711 0
M  V30 66 H 4.8093 3.51253 -1.73576 0
M  V30 67 H 6.5063 3.40817 -2.11292 0
M  V30 68 H 3.0963 2.67774 -3.34656 0
M  V30 69 H 7.2803 2.46959 -4.30494 0
M  V30 70 H 2.5363 2.22135 -5.69619 0
M  V30 71 H 6.7103 2.02359 -6.66351 0
M  V30 72 H 4.3373 1.89425 -7.36222 0
M  V30 73 N 5.9124 1.20967 1.01018 0
M  V30 74 C 7.1424 1.04803 1.78044 0
M  V30 75 C 7.5504 -0.405462 1.84804 0
M  V30 76 O 6.8934 -1.2932 1.30468 0
M  V30 77 C 6.9554 1.56377 3.23707 0
M  V30 78 C 6.6194 3.04767 3.40538 0
M  V30 79 C 7.6164 4.02366 3.29239 0
M  V30 80 C 5.3014 3.43862 3.66147 0
M  V30 81 C 7.2954 5.37049 3.43304 0
M  V30 82 C 4.9824 4.78699 3.79855 0
M  V30 83 C 5.9804 5.75101 3.68439 0
M  V30 84 O 5.6684 7.07493 3.81719 0
M  V30 85 H 5.4004 0.368778 0.56655 0
M  V30 86 H 7.9544 1.60642 1.27997 0
M  V30 87 H 6.1844 0.949297 3.74867 0
M  V30 88 H 7.8734 1.36136 3.8239 0
M  V30 89 H 8.6394 3.73506 3.09384 0
M  V30 90 H 4.5184 2.69364 3.74118 0
M  V30 91 H 8.0624 6.12277 3.34309 0
M  V30 92 H 3.9594 5.07247 3.99213 0
M  V30 93 H 4.7274 7.1483 3.98697 0
M  V30 94 N 7.3905 -1.2043 1.01659 0
M  V30 95 C 8.6155 -1.94318 0.724942 0
M  V30 96 C 9.0405 -1.74266 -0.708034 0
M  V30 97 O 8.3985 -1.03694 -1.48719 0
M  V30 98 C 8.4465 -3.44486 1.06591 0
M  V30 99 O 7.5505 -4.12017 0.177599 0
M  V30 100 H 6.8915 -0.60708 0.26898 0
M  V30 101 H 9.4215 -1.52861 1.35995 0
M  V30 102 H 9.4315 -3.95106 1.01762 0
M  V30 103 H 8.1065 -3.58404 2.10997 0
M  V30 104 H 6.6835 -3.71821 0.283421 0
M  V30 105 N 8.8686 -0.792821 -1.36206 0
M  V30 106 C 10.1086 -0.372238 -2.00982 0
M  V30 107 C 10.4726 1.03749 -1.61555 0
M  V30 108 O 11.6736 1.55934 -2.18948 0
M  V30 109 C 9.9446 -0.534566 -3.5338 0
M  V30 110 S 11.5036 -0.202365 -4.38333 0
M  V30 111 H 8.3216 -0.142044 -0.696667 0
M  V30 112 H 10.9236 -1.03206 -1.66039 0
M  V30 113 H 9.6276 -1.5608 -3.79562 0
M  V30 114 H 9.1586 0.141065 -3.93147 0
M  V30 115 H 11.1736 0.994869 -4.86124 0
M  V30 116 N 10.3467 1.47872 -0.545128 0
M  V30 117 C 11.5927 2.03385 -0.0247951 0
M  V30 118 C 11.9477 1.41325 1.30556 0
M  V30 119 O 11.2407 0.5552 1.8338 0
M  V30 120 C 11.4347 3.57131 0.13867 0
M  V30 121 C 11.2637 4.34097 -1.17429 0
M  V30 122 C 10.0337 4.74458 -1.73831 0
M  V30 123 C 12.2317 4.6998 -2.08861 0
M  V30 124 N 10.2137 5.3602 -2.99258 0
M  V30 125 C 11.5847 5.31719 -3.18866 0
M  V30 126 C 13.6397 4.5191 -2.09003 0
M  V30 127 C 12.3427 5.77295 -4.29096 0
M  V30 128 C 14.3687 4.98477 -3.18237 0
M  V30 129 C 13.7307 5.60253 -4.26961 0
M  V30 130 H 9.8297 0.780339 -0.050943 0
M  V30 131 H 12.4137 1.80507 -0.729753 0
M  V30 132 H 10.5847 3.79802 0.812733 0
M  V30 133 H 12.3167 3.99282 0.659976 0
M  V30 134 H 9.0717 4.56037 -1.2778 0
M  V30 135 H 9.4957 5.71355 -3.63157 0
M  V30 136 H 14.1377 4.03516 -1.26234 0
M  V30 137 H 11.8557 6.24687 -5.12633 0
M  V30 138 H 15.4417 4.86274 -3.1942 0
M  V30 139 H 14.3217 5.95631 -5.10091 0
M  V30 140 N 11.8248 0.280983 1.55075 0
M  V30 141 C 13.2408 -0.0729964 1.59433 0
M  V30 142 C 13.4408 -1.5411 1.29817 0
M  V30 143 O 12.4968 -2.29086 1.06187 0
M  V30 144 C 13.8098 0.306921 2.9913 0
M  V30 145 C 15.3578 0.254023 3.11968 0
M  V30 146 C 15.8328 0.608467 4.5394 0
M  V30 147 N 17.3238 0.560241 4.59799 0
M  V30 148 C 18.0588 0.80722 5.6769 0
M  V30 149 N 17.5548 1.11912 6.83701 0
M  V30 150 N 19.3478 0.735623 5.57266 0
M  V30 151 H 11.4988 1.238 1.7259 0
M  V30 152 H 13.7618 0.500547 0.805082 0
M  V30 153 H 13.4678 1.32816 3.25657 0
M  V30 154 H 13.3418 -0.349363 3.75579 0
M  V30 155 H 15.7288 -0.75794 2.852 0
M  V30 156 H 15.8098 0.944649 2.37718 0
M  V30 157 H 15.4538 1.61814 4.81434 0
M  V30 158 H 15.3838 -0.104013 5.26497 0
M  V30 159 H 17.8748 0.329288 3.76463 0
M  V30 160 H 18.1878 1.29409 7.61888 0
M  V30 161 H 16.5328 1.15695 6.85303 0
M  V30 162 H 19.7238 0.491752 4.6551 0
M  V30 163 H 19.8968 0.931482 6.4127 0
M  V30 164 N 13.3029 -1.57598 0.00835791 0
M  V30 165 C 14.5309 -1.95214 -0.68549 0
M  V30 166 C 14.9459 -0.883706 -1.66841 0
M  V30 167 O 14.3029 0.136565 -1.81988 0
M  V30 168 C 14.3539 -3.32865 -1.41007 0
M  V30 169 O 14.0749 -4.35609 -0.466552 0
M  V30 170 C 15.5759 -3.84991 -2.19765 0
M  V30 171 H 12.7959 -0.643422 -0.190392 0
M  V30 172 H 15.3399 -2.04406 0.0619607 0
M  V30 173 H 13.4949 -3.24956 -2.10908 0
M  V30 174 H 13.9089 -5.15288 -0.978699 0
M  V30 175 H 15.3829 -4.8371 -2.65948 0
M  V30 176 H 15.8599 -3.18137 -3.02796 0
M  V30 177 H 16.4659 -3.96103 -1.54864 0
M  V30 178 N 14.781 0.264519 -1.55364 0
M  V30 179 C 16.029 0.993021 -1.76021 0
M  V30 180 C 16.35 1.86511 -0.569099 0
M  V30 181 O 15.62 1.91438 0.415735 0
M  V30 182 H 14.2 0.369639 -0.649135 0
M  V30 183 H 16.862 0.286707 -1.9278 0
M  V30 184 H 15.958 1.62502 -2.66457 0
M  V30 185 N 16.2591 1.48442 0.529413 0
M  V30 186 C 17.1891 1.65902 1.64313 0
M  V30 187 C 18.1701 0.507897 1.6234 0
M  V30 188 O 19.3551 0.740503 1.79528 0
M  V30 189 C 16.4851 1.69911 3.02898 0
M  V30 190 C 15.4391 2.8453 3.19729 0
M  V30 191 C 14.7651 2.73629 4.59381 0
M  V30 192 C 16.0651 4.25821 3.02447 0
M  V30 193 H 17.7591 2.5914 1.49955 0
M  V30 194 H 15.3051 1.24709 0.719982 0
M  V30 195 H 17.2581 1.80715 3.80684 0
M  V30 196 H 15.9821 0.732524 3.18279 0
M  V30 197 H 14.6411 2.73283 2.44361 0
M  V30 198 H 14.2891 1.74938 4.71599 0
M  V30 199 H 13.9891 3.50541 4.71588 0
M  V30 200 H 15.5131 2.86401 5.39265 0
M  V30 201 H 16.9271 4.37898 3.70024 0
M  V30 202 H 15.3241 5.03735 3.26146 0
M  V30 203 H 16.3941 4.42244 1.98867 0
M  V30 204 N 17.7372 -0.778329 1.37039 0
M  V30 205 C 18.6672 -1.90546 1.34962 0
M  V30 206 C 19.6482 -1.68681 0.219274 0
M  V30 207 O 20.8332 -1.89634 0.418624 0
M  V30 208 C 17.9632 -3.27734 1.14925 0
M  V30 209 C 16.9172 -3.64147 2.24902 0
M  V30 210 C 16.2432 -4.99806 1.89996 0
M  V30 211 C 17.5432 -3.71579 3.67051 0
M  V30 212 H 19.2372 -1.92541 2.29277 0
M  V30 213 H 16.7832 -0.924948 1.10366 0
M  V30 214 H 18.7362 -4.06215 1.12104 0
M  V30 215 H 17.4602 -3.26154 0.170631 0
M  V30 216 H 16.1192 -2.8797 2.26868 0
M  V30 217 H 15.7672 -4.94759 0.906796 0
M  V30 218 H 15.4672 -5.25139 2.63634 0
M  V30 219 H 16.9912 -5.80694 1.88749 0
M  V30 220 H 18.4052 -4.40227 3.67251 0
M  V30 221 H 16.8022 -4.08405 4.39688 0
M  V30 222 H 17.8722 -2.72404 4.01154 0
M  V30 223 N 19.2153 -1.21501 -1.00376 0
M  V30 224 C 20.1453 -0.999478 -2.11028 0
M  V30 225 C 21.1263 0.0759671 -1.6993 0
M  V30 226 O 22.3113 -0.0841106 -1.94018 0
M  V30 227 C 19.4413 -0.564709 -3.42678 0
M  V30 228 C 18.3953 -1.58486 -3.97576 0
M  V30 229 C 17.7213 -1.00628 -5.25146 0
M  V30 230 C 19.0213 -2.97204 -4.29496 0
M  V30 231 H 20.7153 -1.92495 -2.29317 0
M  V30 232 H 18.2613 -0.92693 -1.102 0
M  V30 233 H 20.2143 -0.401091 -4.19487 0
M  V30 234 H 18.9383 0.396411 -3.24185 0
M  V30 235 H 17.5973 -1.73606 -3.22888 0
M  V30 236 H 17.2453 -0.0368439 -5.02987 0
M  V30 237 H 16.9453 -1.68771 -5.62841 0
M  V30 238 H 18.4693 -0.854015 -6.04598 0
M  V30 239 H 19.8833 -2.8552 -4.97143 0
M  V30 240 H 18.2803 -3.62372 -4.78338 0
M  V30 241 H 19.3503 -3.47956 -3.3772 0
M  V30 242 N 20.6934 1.19889 -1.02296 0
M  V30 243 C 21.6234 2.25141 -0.619174 0
M  V30 244 C 22.6044 1.66051 0.368915 0
M  V30 245 O 23.7894 1.92546 0.252941 0
M  V30 246 C 20.9194 3.4728 0.0368783 0
M  V30 247 C 19.8734 4.19005 -0.872865 0
M  V30 248 C 19.1994 5.34637 -0.0822402 0
M  V30 249 C 20.4994 4.74452 -2.18387 0
M  V30 250 H 22.1934 2.59171 -1.49903 0
M  V30 251 H 19.7394 1.24579 -0.722222 0
M  V30 252 H 21.6924 4.20098 0.330958 0
M  V30 253 H 20.4164 3.12433 0.95149 0
M  V30 254 H 19.0754 3.48061 -1.15105 0
M  V30 255 H 18.7234 4.96034 0.83422 0
M  V30 256 H 18.4234 5.83557 -0.688149 0
M  V30 257 H 19.9474 6.10255 0.205238 0
M  V30 258 H 21.3614 5.39055 -1.95172 0
M  V30 259 H 19.7584 5.33834 -2.74119 0
M  V30 260 H 20.8284 3.92844 -2.84257 0
M  V30 261 N 22.1715 0.800033 1.35784 0
M  V30 262 C 23.1015 0.220184 2.3246 0
M  V30 263 C 24.0825 -0.65073 1.57161 0
M  V30 264 O 25.2675 -0.582359 1.85263 0
M  V30 265 C 22.3975 -0.637353 3.41402 0
M  V30 266 C 21.3515 0.134531 4.27789 0
M  V30 267 C 20.6775 -0.844285 5.27992 0
M  V30 268 C 21.9775 1.32979 5.05088 0
M  V30 269 H 23.6715 1.02787 2.81203 0
M  V30 270 H 21.2175 0.495717 1.35199 0
M  V30 271 H 23.1705 -1.05302 4.08031 0
M  V30 272 H 21.8945 -1.47785 2.91251 0
M  V30 273 H 20.5535 0.531296 3.6273 0
M  V30 274 H 20.2015 -1.68011 4.74111 0
M  V30 275 H 19.9015 -0.332184 5.8666 0
M  V30 276 H 21.4255 -1.2583 5.97494 0
M  V30 277 H 22.8395 0.98934 5.64699 0
M  V30 278 H 21.2365 1.77593 5.7322 0
M  V30 279 H 22.3065 2.11978 4.36111 0
M  V30 280 N 23.6496 -1.47581 0.552962 0
M  V30 281 C 24.5796 -2.32762 -0.185451 0
M  V30 282 C 25.5606 -1.43527 -0.912905 0
M  V30 283 O 26.7456 -1.72388 -0.894201 0
M  V30 284 C 23.8756 -3.25219 -1.21859 0
M  V30 285 C 22.8296 -4.23661 -0.607864 0
M  V30 286 C 22.1556 -5.05413 -1.74533 0
M  V30 287 C 23.4556 -5.20481 0.435582 0
M  V30 288 H 25.1496 -2.94749 0.525684 0
M  V30 289 H 22.6956 -1.41738 0.254251 0
M  V30 290 H 24.6486 -3.8365 -1.7433 0
M  V30 291 H 23.3726 -2.61279 -1.95961 0
M  V30 292 H 22.0316 -3.66451 -0.104489 0
M  V30 293 H 21.6796 -4.3788 -2.47529 0
M  V30 294 H 21.3796 -5.72059 -1.34249 0
M  V30 295 H 22.9036 -5.66701 -2.27338 0
M  V30 296 H 24.3176 -5.733 -0.00290157 0
M  V30 297 H 22.7146 -5.95305 0.757067 0
M  V30 298 H 23.7846 -4.66217 1.33303 0
M  V30 299 N 25.1277 -0.289203 -1.54924 0
M  V30 300 C 26.0907 0.579144 -2.21762 0
M  V30 301 C 27.0907 1.07047 -1.1999 0
M  V30 302 O 28.2807 0.968384 -1.44803 0
M  V30 303 C 25.4127 1.80055 -2.8947 0
M  V30 304 H 26.6057 -0.00464908 -2.999 0
M  V30 305 H 24.1587 -0.0399306 -1.56249 0
M  V30 306 H 24.8937 2.42449 -2.15381 0
M  V30 307 H 24.6787 1.45602 -3.64064 0
M  V30 308 H 26.1687 2.41773 -3.40493 0
M  V30 309 N 26.6058 1.57591 -0.0167156 0
M  V30 310 C 27.8518 1.91567 0.665582 0
M  V30 311 C 28.1848 0.892298 1.72487 0
M  V30 312 O 27.4598 -0.0867127 1.94307 0
M  V30 313 C 27.7428 3.36069 1.29342 0
M  V30 314 C 27.5958 4.49135 0.244541 0
M  V30 315 C 28.9148 3.803 2.21495 0
M  V30 316 H 26.0338 0.69666 0.240488 0
M  V30 317 H 28.6758 1.89866 -0.0714356 0
M  V30 318 H 26.8258 3.3765 1.92158 0
M  V30 319 H 28.4978 4.59689 -0.385228 0
M  V30 320 H 26.7408 4.3165 -0.431379 0
M  V30 321 H 27.4118 5.47242 0.723207 0
M  V30 322 H 29.8878 3.80377 1.68678 0
M  V30 323 H 28.7638 4.82127 2.62382 0
M  V30 324 H 29.0248 3.15104 3.101 0
M  V30 325 N 28.0839 -0.256276 1.55502 0
M  V30 326 C 29.0469 -1.30047 1.88734 0
M  V30 327 C 30.0469 -1.4154 0.763086 0
M  V30 328 O 31.2369 -1.40403 1.03115 0
M  V30 329 C 28.3689 -2.67953 2.10747 0
M  V30 330 H 29.5619 -1.01802 2.82093 0
M  V30 331 H 27.1149 -0.495134 1.4825 0
M  V30 332 H 27.8499 -3.01351 1.19825 0
M  V30 333 H 27.6349 -2.60993 2.92617 0
M  V30 334 H 29.1249 -3.43368 2.37673 0
M  V30 335 N 29.562 -1.4872 -0.521534 0
M  V30 336 C 30.808 -1.574 -1.27879 0
M  V30 337 C 31.141 -0.250817 -1.92573 0
M  V30 338 O 30.416 0.743934 -1.79711 0
M  V30 339 C 30.699 -2.71843 -2.36164 0
M  V30 340 C 30.552 -4.13893 -1.76105 0
M  V30 341 C 31.871 -2.82008 -3.37875 0
M  V30 342 H 28.99 -0.572941 -0.463581 0
M  V30 343 H 31.632 -1.80927 -0.580119 0
M  V30 344 H 29.782 -2.51914 -2.95756 0
M  V30 345 H 31.454 -4.45284 -1.20499 0
M  V30 346 H 29.697 -4.20498 -1.06601 0
M  V30 347 H 30.368 -4.89804 -2.5455 0
M  V30 348 H 32.844 -3.00086 -2.88249 0
M  V30 349 H 31.72 -3.63796 -4.11028 0
M  V30 350 H 31.981 -1.90511 -3.98946 0
M  V30 351 N 31.0401 0.771051 -1.3745 0
M  V30 352 C 32.4561 1.07171 -1.18265 0
M  V30 353 C 32.6561 2.01491 -0.019287 0
M  V30 354 O 31.7121 2.44244 0.640408 0
M  V30 355 C 33.0251 1.66854 -2.50161 0
M  V30 356 C 34.5731 1.79109 -2.56689 0
M  V30 357 C 35.0481 2.42205 -3.88717 0
M  V30 358 N 36.5391 2.49655 -3.90162 0
M  V30 359 C 37.2741 2.9933 -4.8907 0
M  V30 360 N 36.7701 3.49172 -5.98374 0
M  V30 361 N 38.5631 2.9821 -4.76474 0
M  V30 362 H 30.7141 0.144796 -2.11906 0
M  V30 363 H 32.9771 0.126863 -0.939473 0
M  V30 364 H 32.6831 1.05017 -3.35655 0
M  V30 365 H 32.5571 2.6614 -2.673 0
M  V30 366 H 34.9441 2.40077 -1.71601 0
M  V30 367 H 35.0251 0.785757 -2.43433 0
M  V30 368 H 34.6691 1.81875 -4.74219 0
M  V30 369 H 34.5991 3.43345 -3.99276 0
M  V30 370 H 37.0901 2.14383 -3.11205 0
M  V30 371 H 37.4031 3.8548 -6.69795 0
M  V30 372 H 35.7481 3.47275 -6.02018 0
M  V30 373 H 38.9391 2.58572 -3.90203 0
M  V30 374 H 39.1121 3.36613 -5.53711 0
M  V30 375 N 32.5182 1.22032 0.997298 0
M  V30 376 C 33.4282 1.00271 2.12092 0
M  V30 377 C 34.4442 -0.047621 1.73935 0
M  V30 378 O 35.6202 0.144136 2.00884 0
M  V30 379 C 32.6852 0.578449 3.4184 0
M  V30 380 C 31.7462 1.70189 3.94125 0
M  V30 381 C 30.9792 1.29778 5.17681 0
M  V30 382 O 31.2022 0.174676 5.70132 0
M  V30 383 O 30.1362 2.11261 5.63607 0
M  V30 384 H 33.9622 1.94398 2.3333 0
M  V30 385 H 31.5472 1.00587 1.10465 0
M  V30 386 H 33.4292 0.351998 4.19927 0
M  V30 387 H 32.1042 -0.334019 3.21972 0
M  V30 388 H 31.0112 1.98282 3.1723 0
M  V30 389 H 32.3442 2.59206 4.18417 0
M  V30 390 N 33.9963 -1.19345 1.0293 0
M  V30 391 C 35.2213 -1.93538 0.745511 0
M  V30 392 C 35.6463 -1.75007 -0.689511 0
M  V30 393 O 35.0043 -1.05265 -1.47611 0
M  V30 394 C 35.0523 -3.43336 1.10239 0
M  V30 395 O 34.1563 -4.11806 0.221289 0
M  V30 396 H 33.4973 -0.604193 0.275404 0
M  V30 397 H 36.0273 -1.5141 1.37609 0
M  V30 398 H 36.0373 -3.94004 1.05947 0
M  V30 399 H 34.7123 -3.56146 2.14786 0
M  V30 400 H 33.2893 -3.715 0.322842 0
M  V30 401 N 35.4744 -0.807222 -1.35358 0
M  V30 402 C 36.7204 -0.397594 -1.99476 0
M  V30 403 C 37.0754 1.02405 -1.62883 0
M  V30 404 O 36.3684 1.70077 -0.882282 0
M  V30 405 C 36.5624 -0.519036 -3.53611 0
M  V30 406 C 36.3914 -1.95094 -4.05177 0
M  V30 407 C 35.1614 -2.57945 -4.34503 0
M  V30 408 C 37.3594 -2.91558 -4.23673 0
M  V30 409 N 35.3414 -3.92539 -4.72003 0
M  V30 410 C 36.7124 -4.11024 -4.64176 0
M  V30 411 C 38.7674 -2.88381 -4.05883 0
M  V30 412 C 37.4704 -5.27745 -4.88751 0
M  V30 413 C 39.4964 -4.04306 -4.31614 0
M  V30 414 C 38.8584 -5.22519 -4.72391 0
M  V30 415 H 34.9574 -0.193274 -0.75774 0
M  V30 416 H 37.5414 -1.0486 -1.6405 0
M  V30 417 H 35.7124 0.101979 -3.88266 0
M  V30 418 H 37.4444 -0.0839321 -4.04613 0
M  V30 419 H 34.1994 -2.09295 -4.24844 0
M  V30 420 H 34.6234 -4.61836 -4.95011 0
M  V30 421 H 39.2654 -1.98137 -3.73499 0
M  V30 422 H 36.9834 -6.1856 -5.20008 0
M  V30 423 H 40.5694 -4.03229 -4.19402 0
M  V30 424 H 39.4494 -6.1073 -4.91913 0
M  V30 425 N 36.9525 1.47285 -0.560781 0
M  V30 426 C 37.8845 2.28118 0.222438 0
M  V30 427 C 38.8975 1.37219 0.876056 0
M  V30 428 O 40.0865 1.62011 0.749307 0
M  V30 429 C 37.1865 3.1159 1.33285 0
M  V30 430 C 36.3595 4.30473 0.77534 0
M  V30 431 C 35.4185 4.95513 1.77069 0
M  V30 432 O 34.4445 5.53792 1.31539 0
M  V30 433 N 35.6465 4.90531 3.10418 0
M  V30 434 H 38.4115 2.95976 -0.470958 0
M  V30 435 H 35.9725 1.56955 -0.39709 0
M  V30 436 H 37.9645 3.51967 1.99752 0
M  V30 437 H 36.5345 2.45951 1.92943 0
M  V30 438 H 35.7545 3.94144 -0.0662113 0
M  V30 439 H 37.0425 5.07362 0.382272 0
M  V30 440 H 36.4405 4.44389 3.5005 0
M  V30 441 H 34.9975 5.34917 3.72434 0
M  V30 442 N 38.4306 0.297415 1.54768 0
M  V30 443 C 39.6586 -0.315623 2.04478 0
M  V30 444 C 40.0736 -1.47792 1.17486 0
M  V30 445 O 39.4306 -1.81404 0.19971 0
M  V30 446 C 39.4816 -0.7753 3.53088 0
M  V30 447 O 39.2026 0.340732 4.36773 0
M  V30 448 C 40.7036 -1.45386 4.18781 0
M  V30 449 H 37.9236 -0.0690887 0.667434 0
M  V30 450 H 40.4676 0.436003 1.99798 0
M  V30 451 H 38.6226 -1.47696 3.58141 0
M  V30 452 H 39.0366 -0.0165035 5.24497 0
M  V30 453 H 40.5106 -1.72669 5.24299 0
M  V30 454 H 40.9876 -2.39275 3.68299 0
M  V30 455 H 41.5936 -0.795475 4.17795 0
M  V30 456 N 39.9087 -1.5758 0.0250728 0
M  V30 457 C 40.8187 -2.1343 -0.973905 0
M  V30 458 C 41.8347 -1.08556 -1.35984 0
M  V30 459 O 43.0107 -1.40592 -1.44207 0
M  V30 460 C 40.0757 -2.64703 -2.23904 0
M  V30 461 C 39.1367 -3.84276 -1.91391 0
M  V30 462 C 38.3697 -4.33095 -3.11873 0
M  V30 463 O 38.5927 -3.81107 -4.24398 0
M  V30 464 O 37.5267 -5.24984 -2.94406 0
M  V30 465 H 41.3527 -2.99057 -0.529036 0
M  V30 466 H 38.9377 -1.48118 -0.195288 0
M  V30 467 H 40.8197 -2.97769 -2.98181 0
M  V30 468 H 39.4947 -1.82161 -2.6758 0
M  V30 469 H 38.4017 -3.56143 -1.14511 0
M  V30 470 H 39.7347 -4.67968 -1.52534 0
M  V30 471 N 41.3868 0.248026 -1.55636 0
M  V30 472 C 42.2968 1.32859 -1.93354 0
M  V30 473 C 43.3128 1.52719 -0.833838 0
M  V30 474 O 44.4888 1.66363 -1.13513 0
M  V30 475 C 41.5538 2.66337 -2.21958 0
M  V30 476 C 40.6148 2.55008 -3.45354 0
M  V30 477 C 39.8478 3.82121 -3.72584 0
M  V30 478 O 40.0708 4.83951 -3.01907 0
M  V30 479 O 39.0048 3.80822 -4.6611 0
M  V30 480 H 42.8308 1.03862 -2.85388 0
M  V30 481 H 40.4158 0.448686 -1.42503 0
M  V30 482 H 42.2978 3.45216 -2.4167 0
M  V30 483 H 40.9728 2.95068 -1.33103 0
M  V30 484 H 39.8798 1.7442 -3.30951 0
M  V30 485 H 41.2128 2.31222 -4.34508 0
M  V30 486 N 42.8649 1.48995 0.513639 0
M  V30 487 C 43.8119 1.6473 1.61656 0
M  V30 488 C 44.7819 0.488984 1.58739 0
M  V30 489 O 45.9669 0.714478 1.76918 0
M  V30 490 C 43.1069 1.7082 2.99858 0
M  V30 491 C 42.2199 2.9787 3.12885 0
M  V30 492 C 41.3549 2.95017 4.41744 0
M  V30 493 C 40.3939 4.16702 4.48359 0
M  V30 494 N 39.5309 4.11832 5.68629 0
M  V30 495 H 44.3709 2.58909 1.47547 0
M  V30 496 H 41.9079 1.28382 0.71808 0
M  V30 497 H 43.8659 1.72331 3.79944 0
M  V30 498 H 42.4959 0.801181 3.12699 0
M  V30 499 H 41.5479 3.06029 2.25944 0
M  V30 500 H 42.8599 3.8786 3.13633 0
M  V30 501 H 42.0139 2.95021 5.30139 0
M  V30 502 H 40.7529 2.02784 4.43542 0
M  V30 503 H 39.7579 4.16955 3.58369 0
M  V30 504 H 40.9829 5.10113 4.48287 0
M  V30 505 H 38.9289 3.22428 5.71293 0
M  V30 506 H 38.8459 4.95543 5.7094 0
M  V30 507 H 40.1139 4.1592 6.59266 0
M  V30 508 N 44.343 -0.763751 1.37857 0
M  V30 509 C 45.571 -1.55293 1.36718 0
M  V30 510 C 45.986 -1.88745 -0.0455434 0
M  V30 511 O 45.343 -1.52039 -1.00947 0
M  V30 512 C 45.394 -2.85831 2.2132 0
M  V30 513 O 45.115 -2.5381 3.57089 0
M  V30 514 C 46.616 -3.80023 2.28249 0
M  V30 515 H 43.836 -0.480841 0.468009 0
M  V30 516 H 46.38 -0.946009 1.81303 0
M  V30 517 H 44.535 -3.42926 1.80223 0
M  V30 518 H 44.949 -3.37459 4.01524 0
M  V30 519 H 46.423 -4.68599 2.91752 0
M  V30 520 H 46.9 -4.1973 1.2932 0
M  V30 521 H 47.506 -3.28855 2.69693 0
M  V30 522 N 45.8211 -1.22559 -0.990812 0
M  V30 523 C 47.0611 -1.06302 -1.74583 0
M  V30 524 C 47.4251 0.394737 -1.87898 0
M  V30 525 O 48.6261 0.678214 -2.60103 0
M  V30 526 C 46.8971 -1.75699 -3.11231 0
M  V30 527 S 48.4561 -1.74882 -4.02445 0
M  V30 528 H 45.2741 -0.380639 -0.600529 0
M  V30 529 H 47.8761 -1.55532 -1.18449 0
M  V30 530 H 46.5801 -2.80923 -2.99183 0
M  V30 531 H 46.1111 -1.26708 -3.72436 0
M  V30 532 H 48.1261 -0.799997 -4.89709 0
M  V30 533 N 47.2992 1.18797 -1.03562 0
M  V30 534 C 48.5762 1.84469 -0.650434 0
M  V30 535 C 48.9562 1.92319 0.870433 0
M  V30 536 O 48.3042 1.44528 1.76986 0
M  V30 537 C 48.5142 3.2306 -1.32036 0
M  V30 538 C 49.8622 3.9915 -1.44792 0
M  V30 539 O 50.8862 3.32481 -1.27806 0
M  V30 540 O 49.7452 5.18587 -1.72423 0
M  V30 541 H 46.8392 0.795251 -0.226946 0
M  V30 542 H 49.3852 1.26231 -1.13419 0
M  V30 543 H 48.1572 3.1222 -2.3587 0
M  V30 544 H 47.7802 3.88949 -0.8249 0
M  V30 545 N 48.7773 0.814389 1.34928 0
M  V30 546 C 49.7073 0.244827 2.32213 0
M  V30 547 C 50.6883 -0.634024 1.57842 0
M  V30 548 O 51.8733 -0.562676 1.8587 0
M  V30 549 C 49.0033 -0.601106 3.42058 0
M  V30 550 C 47.9573 0.179896 4.27622 0
M  V30 551 C 47.2833 -0.788237 5.28858 0
M  V30 552 C 48.5833 1.38329 5.03649 0
M  V30 553 H 50.2773 1.05763 2.80097 0
M  V30 554 H 47.8233 0.510029 1.34665 0
M  V30 555 H 49.7763 -1.00968 4.09125 0
M  V30 556 H 48.5003 -1.44688 2.92802 0
M  V30 557 H 47.1593 0.569739 3.62146 0
M  V30 558 H 46.8073 -1.62973 4.75866 0
M  V30 559 H 46.5073 -0.269942 5.8698 0
M  V30 560 H 48.0313 -1.19485 5.98795 0
M  V30 561 H 49.4453 1.04918 5.63618 0
M  V30 562 H 47.8423 1.83662 5.71304 0
M  V30 563 H 48.9123 2.16592 4.33839 0
M  V30 564 N 50.2554 -1.46986 0.568584 0
M  V30 565 C 51.5014 -2.02741 0.0488709 0
M  V30 566 C 51.8344 -1.44077 -1.30214 0
M  V30 567 O 51.1094 -0.600552 -1.84996 0
M  V30 568 C 51.3924 -3.60086 -0.032047 0
M  V30 569 C 51.2454 -4.29162 1.34686 0
M  V30 570 C 52.5644 -4.33838 -0.739798 0
M  V30 571 H 49.6834 -0.736749 0.0192338 0
M  V30 572 H 52.3254 -1.75289 0.733065 0
M  V30 573 H 50.4754 -3.83606 -0.61473 0
M  V30 574 H 52.1474 -4.16948 1.97362 0
M  V30 575 H 50.3904 -3.89073 1.91846 0
M  V30 576 H 51.0614 -5.37826 1.24285 0
M  V30 577 H 53.5374 -4.15378 -0.244939 0
M  V30 578 H 52.4134 -5.43537 -0.765406 0
M  V30 579 H 52.6744 -4.03875 -1.79827 0
M  V30 580 N 51.7335 -0.305618 -1.54608 0
M  V30 581 C 52.9815 0.301701 -1.99835 0
M  V30 582 C 53.3025 1.54054 -1.19551 0
M  V30 583 O 52.5725 1.93702 -0.292658 0
M  V30 584 H 51.1525 0.114468 -0.738178 0
M  V30 585 H 53.8145 -0.418016 -1.90364 0
M  V30 586 H 52.9105 0.570548 -3.06841 0
M  V30 587 N 53.2116 1.57565 -0.0334293 0
M  V30 588 C 54.1216 2.13943 0.962572 0
M  V30 589 C 55.1376 1.09276 1.35406 0
M  V30 590 O 56.3136 1.41355 1.4346 0
M  V30 591 C 53.3786 2.65887 2.22497 0
M  V30 592 C 52.4396 3.85286 1.8935 0
M  V30 593 C 51.6726 4.34743 3.09571 0
M  V30 594 O 51.8956 3.83352 4.22371 0
M  V30 595 O 50.8296 5.26538 2.91618 0
M  V30 596 H 54.6556 2.99333 0.513169 0
M  V30 597 H 52.2406 1.4822 0.18743 0
M  V30 598 H 54.1226 2.99346 2.96598 0
M  V30 599 H 52.7976 1.83578 2.6661 0
M  V30 600 H 51.7046 3.56746 1.1262 0
M  V30 601 H 53.0376 4.68771 1.5005 0
M  V30 602 N 54.6897 -0.239769 1.55765 0
M  V30 603 C 55.6367 -1.29696 1.90913 0
M  V30 604 C 56.6067 -1.47478 0.764164 0
M  V30 605 O 57.7917 -1.61345 1.01845 0
M  V30 606 C 54.9317 -2.64598 2.21544 0
M  V30 607 C 54.0447 -2.54765 3.48882 0
M  V30 608 C 53.1797 -3.82069 3.69049 0
M  V30 609 C 52.2187 -3.66883 4.89963 0
M  V30 610 N 51.3557 -4.86094 5.06614 0
M  V30 611 H 56.1957 -0.990224 2.81067 0
M  V30 612 H 53.7327 -0.477684 1.39128 0
M  V30 613 H 55.6907 -3.43132 2.3731 0
M  V30 614 H 54.3207 -2.93405 1.34585 0
M  V30 615 H 53.3727 -1.67763 3.41409 0
M  V30 616 H 54.6847 -2.39457 4.37563 0
M  V30 617 H 53.8387 -4.69046 3.84812 0
M  V30 618 H 52.5777 -4.00282 2.78614 0
M  V30 619 H 51.5827 -2.78289 4.74168 0
M  V30 620 H 52.8077 -3.50157 5.81865 0
M  V30 621 H 50.7537 -5.04655 4.19117 0
M  V30 622 H 50.6707 -4.73443 5.89396 0
M  V30 623 H 51.9387 -5.74549 5.26795 0
M  V30 624 N 56.1678 -1.49265 -0.50573 0
M  V30 625 C 57.4158 -1.582 -1.25766 0
M  V30 626 C 57.7368 -0.268482 -1.93143 0
M  V30 627 O 57.0068 0.711833 -1.8251 0
M  V30 628 H 55.5868 -0.582873 -0.467191 0
M  V30 629 H 58.2488 -1.85865 -0.586525 0
M  V30 630 H 57.3448 -2.37563 -2.02412 0
M  V30 631 N 57.6459 0.756429 -1.3826 0
M  V30 632 C 58.5929 1.87011 -1.35261 0
M  V30 633 C 59.5629 1.64695 -0.215616 0
M  V30 634 O 60.7479 1.864 -0.407399 0
M  V30 635 C 57.8879 3.24275 -1.18068 0
M  V30 636 C 57.0009 3.58442 -2.41129 0
M  V30 637 C 56.1359 4.84994 -2.16689 0
M  V30 638 C 55.1749 5.11939 -3.35537 0
M  V30 639 N 54.3119 6.29685 -3.10549 0
M  V30 640 H 59.1519 1.8891 -2.30472 0
M  V30 641 H 56.6889 0.923373 -1.14509 0
M  V30 642 H 58.6469 4.03479 -1.06116 0
M  V30 643 H 57.2769 3.21711 -0.264973 0
M  V30 644 H 56.3289 2.74103 -2.63764 0
M  V30 645 H 57.6409 3.74283 -3.29717 0
M  V30 646 H 56.7949 5.72135 -2.01857 0
M  V30 647 H 55.5339 4.71286 -1.25462 0
M  V30 648 H 54.5389 4.23268 -3.50891 0
M  V30 649 H 55.7639 5.27546 -4.27635 0
M  V30 650 H 53.7099 6.17306 -2.21967 0
M  V30 651 H 53.6269 6.46014 -3.92686 0
M  V30 652 H 54.8949 7.19722 -2.99367 0
M  V30 653 N 59.124 1.23083 0.984299 0
M  V30 654 C 60.034 1.02515 2.11016 0
M  V30 655 C 61.05 -0.0291702 1.73976 0
M  V30 656 O 62.226 0.165434 2.00719 0
M  V30 657 C 59.291 0.614673 3.41208 0
M  V30 658 C 58.352 1.74359 3.92297 0
M  V30 659 C 57.585 1.35261 5.16275 0
M  V30 660 O 57.808 0.235136 5.69915 0
M  V30 661 O 56.742 2.17227 5.61334 0
M  V30 662 H 60.568 1.96862 2.31255 0
M  V30 663 H 58.153 1.01753 1.09392 0
M  V30 664 H 60.035 0.396518 4.1953 0
M  V30 665 H 58.71 -0.299851 3.22308 0
M  V30 666 H 57.617 2.01635 3.1511 0
M  V30 667 H 58.95 2.63629 4.15645 0
M  V30 668 N 60.6021 -1.18246 1.0419 0
M  V30 669 C 61.8271 -1.92736 0.765996 0
M  V30 670 C 62.2521 -1.75728 -0.67091 0
M  V30 671 O 61.6101 -1.06825 -1.46486 0
M  V30 672 C 61.6581 -3.42148 1.13875 0
M  V30 673 O 60.7621 -4.11548 0.264954 0
M  V30 674 H 60.1031 -0.601238 0.281797 0
M  V30 675 H 62.6331 -1.49942 1.39207 0
M  V30 676 H 62.6431 -3.92858 1.1012 0
M  V30 677 H 61.3181 -3.53848 2.18551 0
M  V30 678 H 59.8951 -3.71137 0.362226 0
M  V30 679 N 62.0802 -0.821533 -1.34494 0
M  V30 680 C 62.9902 -0.244355 -2.33324 0
M  V30 681 C 64.0062 0.620527 -1.62559 0
M  V30 682 O 65.1822 0.528754 -1.94335 0
M  V30 683 C 62.2472 0.585368 -3.41723 0
M  V30 684 C 61.3082 -0.301752 -4.28238 0
M  V30 685 C 60.5412 0.488466 -5.3146 0
M  V30 686 O 60.7642 1.72186 -5.4379 0
M  V30 687 O 59.6982 -0.12848 -6.01763 0
M  V30 688 H 63.5242 -1.06231 -2.84515 0
M  V30 689 H 61.1092 -0.583645 -1.37528 0
M  V30 690 H 62.9912 1.05747 -4.07916 0
M  V30 691 H 61.6662 1.38068 -2.92778 0
M  V30 692 H 60.5732 -0.821315 -3.64973 0
M  V30 693 H 61.9062 -1.06138 -4.8062 0
M  V30 694 N 63.5583 1.46682 -0.576371 0
M  V30 695 C 64.5053 2.30241 0.160499 0
M  V30 696 C 65.4753 1.40233 0.890162 0
M  V30 697 O 66.6603 1.69186 0.882084 0
M  V30 698 C 63.8003 3.24578 1.1723 0
M  V30 699 C 62.9133 4.29684 0.446736 0
M  V30 700 C 62.0483 5.11154 1.44551 0
M  V30 701 C 61.0873 6.08015 0.70599 0
M  V30 702 N 60.2243 6.82376 1.65251 0
M  V30 703 H 65.0643 2.92727 -0.558127 0
M  V30 704 H 62.6013 1.44272 -0.287056 0
M  V30 705 H 64.5593 3.77711 1.77172 0
M  V30 706 H 63.1893 2.63916 1.85872 0
M  V30 707 H 62.2413 3.79458 -0.267594 0
M  V30 708 H 63.5533 4.98626 -0.131686 0
M  V30 709 H 62.7073 5.68533 2.11791 0
M  V30 710 H 61.4463 4.42158 2.05786 0
M  V30 711 H 60.4513 5.49796 0.0197725 0
M  V30 712 H 61.6763 6.79028 0.09912 0
M  V30 713 H 59.6223 6.16094 2.25308 0
M  V30 714 H 59.5393 7.47556 1.12673 0
M  V30 715 H 60.8073 7.44316 2.31546 0
M  V30 716 N 65.0364 0.313813 1.54444 0
M  V30 717 C 65.9464 -0.565714 2.27677 0
M  V30 718 C 66.9624 -1.13754 1.31666 0
M  V30 719 O 68.1384 -1.15959 1.64668 0
M  V30 720 C 65.2034 -1.71528 3.01296 0
M  V30 721 C 64.2644 -1.17624 4.12872 0
M  V30 722 C 63.4974 -2.27102 4.8297 0
M  V30 723 O 63.7204 -3.47256 4.52514 0
M  V30 724 O 62.6544 -1.9307 5.70094 0
M  V30 725 H 66.4804 0.0287296 3.03686 0
M  V30 726 H 64.0654 0.0798312 1.49187 0
M  V30 727 H 65.9474 -2.38476 3.4743 0
M  V30 728 H 64.6224 -2.29608 2.2817 0
M  V30 729 H 63.5294 -0.472124 3.71109 0
M  V30 730 H 64.8624 -0.640695 4.88012 0
M  V30 731 N 66.5145 -1.57545 0.0417849 0
M  V30 732 C 67.4445 -2.14009 -0.933929 0
M  V30 733 C 68.4255 -1.05938 -1.33083 0
M  V30 734 O 69.6105 -1.33833 -1.40721 0
M  V30 735 C 66.7405 -2.67747 -2.21199 0
M  V30 736 C 65.6945 -3.80718 -1.95544 0
M  V30 737 C 65.0205 -4.20935 -3.29724 0
M  V30 738 C 66.3205 -5.06258 -1.28452 0
M  V30 739 H 68.0145 -2.95788 -0.463645 0
M  V30 740 H 65.5605 -1.42285 -0.221573 0
M  V30 741 H 67.5135 -3.05886 -2.89848 0
M  V30 742 H 66.2375 -1.83147 -2.70416 0
M  V30 743 H 64.8965 -3.43037 -1.2931 0
M  V30 744 H 64.5445 -3.33298 -3.76724 0
M  V30 745 H 64.2445 -4.9707 -3.13361 0
M  V30 746 H 65.7685 -4.61666 -3.9962 0
M  V30 747 H 67.1825 -5.41903 -1.8712 0
M  V30 748 H 65.5795 -5.87475 -1.22445 0
M  V30 749 H 66.6495 -4.84207 -0.259219 0
M  V30 750 N 67.9926 0.231505 -1.5589 0
M  V30 751 C 68.9556 1.27028 -1.90779 0
M  V30 752 C 69.9556 1.40308 -0.785507 0
M  V30 753 O 71.1456 1.38744 -1.05336 0
M  V30 754 C 68.2776 2.64566 -2.14983 0
M  V30 755 H 69.4706 0.973017 -2.83677 0
M  V30 756 H 67.0236 0.471486 -1.49019 0
M  V30 757 H 67.7586 2.99406 -1.24604 0
M  V30 758 H 67.5436 2.56305 -2.96732 0
M  V30 759 H 69.0336 3.39543 -2.43105 0
M  V30 760 N 69.4707 1.49531 0.497807 0
M  V30 761 C 70.4007 1.6935 1.60757 0
M  V30 762 C 71.3817 0.542218 1.61227 0
M  V30 763 O 72.5667 0.778417 1.77917 0
M  V30 764 C 69.6967 1.76298 2.99226 0
M  V30 765 C 68.6507 2.91248 3.13622 0
M  V30 766 C 67.9767 2.83312 4.53474 0
M  V30 767 C 69.2767 4.3214 2.93346 0
M  V30 768 H 70.9707 2.62263 1.44425 0
M  V30 769 H 68.5167 1.26208 0.693367 0
M  V30 770 H 70.4697 1.88749 3.76765 0
M  V30 771 H 69.1937 0.799871 3.16654 0
M  V30 772 H 67.8527 2.78404 2.38509 0
M  V30 773 H 67.5007 1.84902 4.67782 0
M  V30 774 H 67.2007 3.60465 4.64046 0
M  V30 775 H 68.7247 2.97775 5.33069 0
M  V30 776 H 70.1387 4.45649 3.60652 0
M  V30 777 H 68.5357 5.1054 3.15387 0
M  V30 778 H 69.6057 4.46363 1.89441 0
M  V30 779 N 70.9488 -0.749086 1.3866 0
M  V30 780 C 72.1948 -1.51056 1.35314 0
M  V30 781 C 72.5278 -1.94121 -0.0553751 0
M  V30 782 O 71.8028 -1.65763 -1.01749 0
M  V30 783 C 72.0858 -2.76003 2.31288 0
M  V30 784 C 71.9388 -2.39047 3.8102 0
M  V30 785 C 73.2578 -3.78046 2.2532 0
M  V30 786 H 70.3768 -0.547972 0.492844 0
M  V30 787 H 73.0188 -0.857628 1.69543 0
M  V30 788 H 71.1688 -3.31716 2.02229 0
M  V30 789 H 72.8408 -1.89074 4.20771 0
M  V30 790 H 71.0838 -1.71449 3.98482 0
M  V30 791 H 71.7548 -3.28462 4.4364 0
M  V30 792 H 74.2308 -3.31884 2.50983 0
M  V30 793 H 73.1068 -4.63159 2.94576 0
M  V30 794 H 73.3678 -4.23957 1.25352 0
M  V30 795 N 72.4269 -1.23603 -0.977757 0
M  V30 796 C 73.3739 -1.01954 -2.07061 0
M  V30 797 C 74.3439 0.0638697 -1.65977 0
M  V30 798 O 75.5289 -0.0887624 -1.90593 0
M  V30 799 C 72.6689 -0.619658 -3.39491 0
M  V30 800 C 71.7819 -1.77547 -3.93829 0
M  V30 801 C 70.9169 -1.32212 -5.14484 0
M  V30 802 C 69.9559 -2.44852 -5.60994 0
M  V30 803 N 69.0929 -2.00456 -6.72876 0
M  V30 804 H 73.9329 -1.95495 -2.24913 0
M  V30 805 H 71.4699 -0.973861 -1.10247 0
M  V30 806 H 73.4279 -0.368898 -4.15566 0
M  V30 807 H 72.0579 0.278752 -3.21594 0
M  V30 808 H 71.1099 -2.14016 -3.14486 0
M  V30 809 H 72.4219 -2.62219 -4.24314 0
M  V30 810 H 71.5759 -1.02965 -5.97899 0
M  V30 811 H 70.3149 -0.445808 -4.85658 0
M  V30 812 H 69.3199 -2.74871 -4.76157 0
M  V30 813 H 70.5449 -3.33024 -5.91837 0
M  V30 814 H 68.4909 -1.15208 -6.45804 0
M  V30 815 H 68.4079 -2.78687 -7.02759 0
M  V30 816 H 69.6759 -1.7432 -7.59758 0
M  V30 817 N 73.905 1.17692 -1.04816 0
M  V30 818 C 75.321 1.39863 -0.768794 0
M  V30 819 C 75.521 1.91118 0.638451 0
M  V30 820 O 74.577 2.10036 1.40146 0
M  V30 821 C 75.89 2.39274 -1.82122 0
M  V30 822 C 77.438 2.52987 -1.843 0
M  V30 823 C 77.913 3.55669 -2.88555 0
M  V30 824 N 79.404 3.63183 -2.87493 0
M  V30 825 C 80.139 4.42381 -3.64811 0
M  V30 826 N 79.635 5.25125 -4.51903 0
M  V30 827 N 81.428 4.37217 -3.53267 0
M  V30 828 H 73.579 0.82752 -1.95617 0
M  V30 829 H 75.842 0.426123 -0.846831 0
M  V30 830 H 75.548 2.08678 -2.83102 0
M  V30 831 H 75.422 3.38725 -1.65967 0
M  V30 832 H 77.809 2.82896 -0.839869 0
M  V30 833 H 77.89 1.53623 -2.04532 0
M  V30 834 H 77.534 3.26499 -3.89051 0
M  V30 835 H 77.464 4.54728 -2.65575 0
M  V30 836 H 79.955 3.04103 -2.24343 0
M  V30 837 H 80.268 5.82728 -5.07591 0
M  V30 838 H 78.613 5.24519 -4.55966 0
M  V30 839 H 81.804 3.71626 -2.84625 0
M  V30 840 H 81.977 4.98696 -4.13771 0
M  V30 841 N 75.3831 0.828654 1.34056 0
M  V30 842 C 76.3131 0.269443 2.3194 0
M  V30 843 C 77.2941 -0.617247 1.58506 0
M  V30 844 O 78.4791 -0.542931 1.86456 0
M  V30 845 C 75.6091 -0.564793 3.42677 0
M  V30 846 C 74.5631 0.225241 4.27407 0
M  V30 847 C 73.8891 -0.7321 5.29664 0
M  V30 848 C 75.1891 1.43663 5.02154 0
M  V30 849 H 76.8831 1.08728 2.7896 0
M  V30 850 H 74.4291 0.524283 1.34117 0
M  V30 851 H 76.3821 -0.966233 4.10173 0
M  V30 852 H 75.1061 -1.41574 2.9432 0
M  V30 853 H 73.7651 0.608117 3.61521 0
M  V30 854 H 73.4131 -1.57916 4.77568 0
M  V30 855 H 73.1131 -0.20767 5.87233 0
M  V30 856 H 74.6371 -1.13128 6.00029 0
M  V30 857 H 76.0511 1.1089 5.62473 0
M  V30 858 H 74.4481 1.89711 5.69324 0
M  V30 859 H 75.5181 2.21181 4.31517 0
M  V30 860 N 76.8612 -1.46375 0.584142 0
M  V30 861 C 77.8082 -2.30323 -0.148286 0
M  V30 862 C 78.7782 -1.40703 -0.882713 0
M  V30 863 O 79.9632 -1.69651 -0.873099 0
M  V30 864 C 77.1032 -3.25196 -1.15507 0
M  V30 865 C 76.2162 -4.29915 -0.423943 0
M  V30 866 C 75.3512 -5.11914 -1.41838 0
M  V30 867 C 74.3902 -6.08381 -0.673736 0
M  V30 868 N 73.5272 -6.83242 -1.6163 0
M  V30 869 H 78.3672 -2.92427 0.573644 0
M  V30 870 H 75.9042 -1.44118 0.294703 0
M  V30 871 H 77.8622 -3.78646 -1.75166 0
M  V30 872 H 76.4922 -2.64898 -1.8447 0
M  V30 873 H 75.5442 -3.7931 0.287714 0
M  V30 874 H 76.8562 -4.98549 0.158128 0
M  V30 875 H 76.0102 -5.69648 -2.08773 0
M  V30 876 H 74.7492 -4.43243 -2.03438 0
M  V30 877 H 73.7542 -5.49799 0.00938483 0
M  V30 878 H 74.9792 -6.79071 -0.0631082 0
M  V30 879 H 72.9252 -6.1728 -2.22038 0
M  V30 880 H 72.8422 -7.48144 -1.08707 0
M  V30 881 H 74.1102 -7.45534 -2.27596 0
M  V30 882 N 78.3393 -0.321999 -1.54275 0
M  V30 883 C 79.7503 0.166384 -1.85957 0
M  V30 884 C 80.1013 1.51747 -1.24367 0
M  V30 885 O 79.2263 2.09317 -0.549124 0
M  V30 886 C 79.8213 0.308681 -3.37391 0
M  V30 887 C 78.3803 0.741286 -3.69028 0
M  V30 888 C 77.5273 -0.137937 -2.76957 0
M  V30 889 H 80.4783 -0.542335 -1.49146 0
M  V30 890 H 80.4993 1.13984 -3.63026 0
M  V30 891 H 80.0113 -0.674809 -3.82188 0
M  V30 892 H 78.1123 1.73458 -3.29762 0
M  V30 893 H 78.2253 0.546118 -4.75977 0
M  V30 894 H 76.5893 0.386251 -2.51754 0
M  V30 895 H 77.3723 -1.11816 -3.2458 0
M  V30 896 N 79.8174 1.5752 -0.0501392 0
M  V30 897 C 80.7474 2.14502 0.922566 0
M  V30 898 C 81.7284 1.06642 1.3252 0
M  V30 899 O 82.9134 1.34577 1.4001 0
M  V30 900 C 80.0434 2.68916 2.19776 0
M  V30 901 C 78.9974 3.8175 1.93523 0
M  V30 902 C 78.3234 4.22677 3.27487 0
M  V30 903 C 79.6234 5.06932 1.25765 0
M  V30 904 H 81.3174 2.9603 0.447952 0
M  V30 905 H 78.8634 1.42401 0.214024 0
M  V30 906 H 80.8164 3.07419 2.88222 0
M  V30 907 H 79.5404 1.84578 2.69441 0
M  V30 908 H 78.1994 3.43718 1.27489 0
M  V30 909 H 77.8474 3.35291 3.74952 0
M  V30 910 H 77.5474 4.98725 3.1072 0
M  V30 911 H 79.0714 4.63779 3.97166 0
M  V30 912 H 80.4854 5.42888 1.84244 0
M  V30 913 H 78.8824 5.88116 1.19328 0
M  V30 914 H 79.9524 4.84337 0.233536 0
M  V30 915 N 81.2955 -0.223234 1.56011 0
M  V30 916 C 82.5425 -0.947875 1.78946 0
M  V30 917 C 82.8705 -1.844 0.618608 0
M  V30 918 O 82.1255 -1.91629 -0.397093 0
M  V30 919 C 82.4245 -1.81948 3.0762 0
M  V30 920 C 82.0905 -1.07672 4.37856 0
M  V30 921 C 80.7525 -0.871544 4.73242 0
M  V30 922 C 83.1045 -0.552081 5.18268 0
M  V30 923 C 80.4325 -0.129791 5.86556 0
M  V30 924 C 82.7845 0.17632 6.32354 0
M  V30 925 C 81.4485 0.39277 6.66343 0
M  V30 926 H 80.7185 -0.346852 0.654809 0
M  V30 927 H 83.3655 -0.216171 1.90276 0
M  V30 928 H 81.6705 -2.61899 2.91404 0
M  V30 929 H 83.3675 -2.38227 3.22566 0
M  V30 930 H 79.9575 -1.24662 4.1007 0
M  V30 931 H 84.1415 -0.698076 4.91366 0
M  V30 932 H 79.3975 0.048153 6.11381 0
M  V30 933 H 83.5715 0.590367 6.93893 0
M  V30 934 H 81.1985 0.969466 7.53993 0
M  V30 935 N 82.7736 -1.49793 -0.48987 0
M  V30 936 C 83.7216 -1.67783 -1.61095 0
M  V30 937 C 84.7156 -0.543683 -1.60438 0
M  V30 938 O 85.9216 -0.723647 -1.64813 0
M  V30 939 H 82.2966 -0.529255 -0.534222 0
M  V30 940 H 84.2676 -2.61861 -1.43078 0
M  V30 941 C 83.0166 -1.77191 -2.99164 0
M  V30 942 H 82.3396 -2.63841 -3.0038 0
M  V30 943 H 83.7796 -1.93809 -3.77113 0
M  V30 944 C 82.2386 -0.519203 -3.32875 0
M  V30 945 O 82.7686 0.350124 -4.00171 0
M  V30 946 N 80.9746 -0.378816 -2.8812 0
M  V30 947 H 80.5216 -1.08725 -2.33531 0
M  V30 948 H 80.4796 0.458239 -3.11043 0
M  V30 949 N 84.2517 0.741722 -1.39055 0
M  V30 950 C 85.1987 1.85566 -1.37237 0
M  V30 951 C 86.1687 1.64457 -0.233072 0
M  V30 952 O 87.3537 1.85957 -0.427147 0
M  V30 953 C 84.4937 3.23004 -1.215 0
M  V30 954 C 83.6067 3.55864 -2.44918 0
M  V30 955 C 82.7417 4.82669 -2.21821 0
M  V30 956 C 81.7807 5.08351 -3.40948 0
M  V30 957 N 80.9177 6.26356 -3.17211 0
M  V30 958 H 85.7577 1.86455 -2.32462 0
M  V30 959 H 83.2947 0.911176 -1.15482 0
M  V30 960 H 85.2527 4.02331 -1.10389 0
M  V30 961 H 83.8827 3.21411 -0.29908 0
M  V30 962 H 82.9347 2.7129 -2.66657 0
M  V30 963 H 84.2467 3.70765 -3.33668 0
M  V30 964 H 83.4007 5.69962 -2.07914 0
M  V30 965 H 82.1397 4.69929 -1.30454 0
M  V30 966 H 81.1447 4.19522 -3.55361 0
M  V30 967 H 82.3697 5.22981 -4.33207 0
M  V30 968 H 80.3157 6.14917 -2.28502 0
M  V30 969 H 80.2327 6.41813 -3.99515 0
M  V30 970 H 81.5007 7.16506 -3.06984 0
M  V30 971 N 85.7298 1.2412 0.971189 0
M  V30 972 C 86.9548 1.10667 1.75407 0
M  V30 973 C 87.3798 -0.337048 1.85056 0
M  V30 974 O 86.7378 -1.24396 1.31892 0
M  V30 975 C 86.7858 1.74726 3.15441 0
M  V30 976 O 85.8898 1.01566 3.99697 0
M  V30 977 H 85.2308 0.387341 0.539317 0
M  V30 978 H 87.7608 1.64358 1.2185 0
M  V30 979 H 87.7708 1.80341 3.6598 0
M  V30 980 H 86.4458 2.79773 3.07734 0
M  V30 981 H 85.0228 1.03713 3.58187 0
M  V30 982 N 87.2079 -1.17134 1.05439 0
M  V30 983 C 88.4549 -1.87456 0.765942 0
M  V30 984 C 88.7829 -1.81189 -0.707153 0
M  V30 985 O 88.0379 -1.21633 -1.5331 0
M  V30 986 C 88.3369 -3.36833 1.19491 0
M  V30 987 C 88.0029 -3.63301 2.67063 0
M  V30 988 C 86.6649 -3.70234 3.07376 0
M  V30 989 C 89.0169 -3.74575 3.62413 0
M  V30 990 C 86.3449 -3.85933 4.41896 0
M  V30 991 C 88.6969 -3.91793 4.9667 0
M  V30 992 C 87.3609 -3.96966 5.36633 0
M  V30 993 H 86.6309 -0.685948 0.280278 0
M  V30 994 H 89.2779 -1.38556 1.32192 0
M  V30 995 H 87.5829 -3.87807 0.557969 0
M  V30 996 H 89.2799 -3.89611 0.948893 0
M  V30 997 H 85.8699 -3.58532 2.34846 0
M  V30 998 H 90.0539 -3.68537 3.32406 0
M  V30 999 H 85.3099 -3.88187 4.72357 0
M  V30 1000 H 89.4839 -3.99458 5.70444 0
M  V30 1001 H 87.1109 -4.08883 6.40874 0
M  V30 1002 N 88.686 -0.835752 -1.33615 0
M  V30 1003 C 89.596 -0.269088 -2.33052 0
M  V30 1004 C 90.612 0.603251 -1.63208 0
M  V30 1005 O 91.788 0.508112 -1.94885 0
M  V30 1006 C 88.853 0.549091 -3.42324 0
M  V30 1007 C 87.914 -0.347156 -4.27894 0
M  V30 1008 C 87.147 0.43207 -5.31948 0
M  V30 1009 O 87.37 1.66409 -5.45586 0
M  V30 1010 O 86.304 -0.192298 -6.01593 0
M  V30 1011 H 90.13 -1.09243 -2.83372 0
M  V30 1012 H 87.715 -0.598198 -1.36901 0
M  V30 1013 H 89.597 1.01414 -4.09015 0
M  V30 1014 H 88.272 1.34955 -2.94226 0
M  V30 1015 H 87.179 -0.859979 -3.64081 0
M  V30 1016 H 88.512 -1.1123 -4.79467 0
M  V30 1017 N 90.1641 1.46063 -0.591896 0
M  V30 1018 C 91.3891 2.07226 -0.0850314 0
M  V30 1019 C 91.8141 1.43625 1.21463 0
M  V30 1020 O 91.1721 0.523305 1.73583 0
M  V30 1021 C 91.2201 3.60554 0.0576567 0
M  V30 1022 O 90.3241 3.97128 1.11188 0
M  V30 1023 H 89.6651 0.660615 -0.0669568 0
M  V30 1024 H 92.1951 1.8756 -0.81745 0
M  V30 1025 H 92.2051 4.07165 0.2609 0
M  V30 1026 H 90.8801 4.06235 -0.891416 0
M  V30 1027 H 89.4571 3.62213 0.886356 0
M  V30 1028 N 91.6422 0.330177 1.54103 0
M  V30 1029 C 92.8702 -0.272179 2.05102 0
M  V30 1030 C 93.2852 -1.45267 1.20595 0
M  V30 1031 O 92.6422 -1.8094 0.238144 0
M  V30 1032 C 92.6932 -0.70023 3.54653 0
M  V30 1033 O 92.4142 0.433301 4.35952 0
M  V30 1034 C 93.9152 -1.3647 4.21771 0
M  V30 1035 H 91.1352 -0.0549159 0.668749 0
M  V30 1036 H 93.6792 0.478285 1.98828 0
M  V30 1037 H 91.8342 -1.40066 3.61193 0
M  V30 1038 H 92.2482 0.0947539 5.24414 0
M  V30 1039 H 93.7222 -1.61509 5.27843 0
M  V30 1040 H 94.1992 -2.31409 3.73292 0
M  V30 1041 H 94.8052 -0.706675 4.19388 0
M  V30 1042 N 93.1203 -1.57491 0.0584922 0
M  V30 1043 C 94.3663 -1.93264 -0.614558 0
M  V30 1044 C 94.6993 -0.937717 -1.7006 0
M  V30 1045 O 93.9743 0.0351652 -1.94468 0
M  V30 1046 C 94.2573 -3.3938 -1.20386 0
M  V30 1047 C 94.1103 -4.49625 -0.125375 0
M  V30 1048 C 95.4293 -3.86039 -2.11334 0
M  V30 1049 H 92.5483 -0.702791 -0.221933 0
M  V30 1050 H 95.1903 -1.8961 0.12175 0
M  V30 1051 H 93.3403 -3.42626 -1.83139 0
M  V30 1052 H 95.0123 -4.58506 0.506971 0
M  V30 1053 H 93.2553 -4.30354 0.545672 0
M  V30 1054 H 93.9263 -5.48967 -0.577861 0
M  V30 1055 H 96.4023 -3.84716 -1.58534 0
M  V30 1056 H 95.2783 -4.88914 -2.49507 0
M  V30 1057 H 95.5393 -3.23215 -3.01636 0
M  V30 1058 N 94.5984 0.214957 -1.56127 0
M  V30 1059 C 95.8464 0.936518 -1.79091 0
M  V30 1060 C 96.1674 1.84606 -0.628148 0
M  V30 1061 O 95.4374 1.92664 0.35462 0
M  V30 1062 H 94.0174 0.3488 -0.660566 0
M  V30 1063 H 96.6794 0.22523 -1.93594 0
M  V30 1064 H 95.7754 1.53943 -2.71492 0
M  V30 1065 N 96.0765 1.50051 0.48192 0
M  V30 1066 C 97.0085 1.64263 1.59844 0
M  V30 1067 C 98.0215 0.52451 1.54119 0
M  V30 1068 O 99.2105 0.797293 1.59704 0
M  V30 1069 C 96.3105 1.60102 2.98698 0
M  V30 1070 C 95.4835 2.87767 3.29407 0
M  V30 1071 C 94.5425 2.76397 4.47762 0
M  V30 1072 O 93.5685 3.50348 4.48603 0
M  V30 1073 N 94.7705 1.89222 5.48794 0
M  V30 1074 H 97.5355 2.60566 1.48073 0
M  V30 1075 H 95.0965 1.47379 0.670149 0
M  V30 1076 H 97.0885 1.50123 3.75826 0
M  V30 1077 H 95.6585 0.715798 3.04294 0
M  V30 1078 H 94.8785 3.11954 2.40994 0
M  V30 1079 H 96.1665 3.72365 3.4673 0
M  V30 1080 H 95.5645 1.28434 5.50928 0
M  V30 1081 H 94.1215 1.85154 6.24949 0
M  V30 1082 N 97.5546 -0.734337 1.39446 0
M  V30 1083 C 98.8026 -1.49096 1.36436 0
M  V30 1084 C 99.1236 -1.94961 -0.0388255 0
M  V30 1085 O 98.3936 -1.69033 -0.990191 0
M  V30 1086 H 96.9736 -0.5531 0.502085 0
M  V30 1087 H 99.6356 -0.871725 1.74319 0
M  V30 1088 H 98.7316 -2.37276 2.02747 0
M  V30 1089 N 99.0327 -1.24633 -0.964593 0
M  V30 1090 C 100.258 -1.11596 -1.74818 0
M  V30 1091 C 100.683 0.32723 -1.85232 0
M  V30 1092 O 100.041 1.23695 -1.32549 0
M  V30 1093 C 100.089 -1.76397 -3.1451 0
M  V30 1094 O 99.1927 -1.03685 -3.99153 0
M  V30 1095 H 98.5337 -0.390196 -0.537255 0
M  V30 1096 H 101.064 -1.65002 -1.20977 0
M  V30 1097 H 101.074 -1.8228 -3.65018 0
M  V30 1098 H 99.7487 -2.81401 -3.06246 0
M  V30 1099 H 98.3257 -1.05611 -3.57632 0
M  V30 1100 N 100.511 1.16574 -1.06058 0
M  V30 1101 C 101.788 1.83048 -0.689416 0
M  V30 1102 C 102.168 1.94122 0.829443 0
M  V30 1103 O 101.516 1.48249 1.7388 0
M  V30 1104 C 101.726 3.20186 -1.38859 0
M  V30 1105 C 103.074 3.95989 -1.53226 0
M  V30 1106 O 104.098 3.29696 -1.3483 0
M  V30 1107 O 102.957 5.14813 -1.83384 0
M  V30 1108 H 100.051 0.790258 -0.243764 0
M  V30 1109 H 102.597 1.23797 -1.16071 0
M  V30 1110 H 101.369 3.07146 -2.4244 0
M  V30 1111 H 100.992 3.87112 -0.907216 0
M  V30 1112 N 101.989 0.842826 1.3317 0
M  V30 1113 C 103.217 0.454055 2.01856 0
M  V30 1114 C 103.632 -0.94587 1.63397 0
M  V30 1115 O 102.989 -1.61534 0.849302 0
M  V30 1116 C 103.04 0.569715 3.56982 0
M  V30 1117 O 102.761 1.91448 3.94055 0
M  V30 1118 C 104.262 0.178412 4.42941 0
M  V30 1119 H 101.482 0.17979 0.646465 0
M  V30 1120 H 104.026 1.1365 1.70012 0
M  V30 1121 H 102.181 -0.0648587 3.87346 0
M  V30 1122 H 102.595 1.90282 4.88767 0
M  V30 1123 H 104.069 0.310376 5.51127 0
M  V30 1124 H 104.546 -0.880056 4.30293 0
M  V30 1125 H 105.152 0.787579 4.17944 0
M  V30 1126 N 103.467 -1.45747 0.599634 0
M  V30 1127 C 104.697 -2.06369 0.0977132 0
M  V30 1128 C 105.105 -1.44624 -1.21985 0
M  V30 1129 O 104.448 -0.551831 -1.75216 0
M  V30 1130 C 104.51 -3.59284 -0.124673 0
M  V30 1131 C 104.174 -4.43318 1.10987 0
M  V30 1132 C 105.171 -4.78796 2.02609 0
M  V30 1133 C 102.856 -4.84194 1.33647 0
M  V30 1134 C 104.85 -5.53997 3.15224 0
M  V30 1135 C 102.537 -5.5915 2.46565 0
M  V30 1136 C 103.535 -5.93968 3.37182 0
M  V30 1137 O 103.223 -6.67405 4.48136 0
M  V30 1138 H 102.955 -0.673122 0.0623153 0
M  V30 1139 H 105.509 -1.88104 0.824981 0
M  V30 1140 H 103.739 -3.75919 -0.906745 0
M  V30 1141 H 105.428 -4.01775 -0.577201 0
M  V30 1142 H 106.194 -4.47781 1.86325 0
M  V30 1143 H 102.073 -4.56534 0.64016 0
M  V30 1144 H 105.617 -5.81091 3.85978 0
M  V30 1145 H 101.514 -5.89579 2.62805 0
M  V30 1146 H 102.282 -6.85847 4.46717 0
M  V30 1147 N 104.945 -0.338344 -1.53925 0
M  V30 1148 C 106.194 0.260732 -2.00008 0
M  V30 1149 C 106.507 1.52073 -1.23017 0
M  V30 1150 O 107.713 2.19672 -1.5955 0
M  V30 1151 C 106.169 0.51515 -3.56194 0
M  V30 1152 C 105.777 -0.728645 -4.42035 0
M  V30 1153 C 107.521 1.07337 -4.10706 0
M  V30 1154 C 105.428 -0.445315 -5.89721 0
M  V30 1155 H 104.358 0.101205 -0.747177 0
M  V30 1156 H 107.009 -0.452866 -1.77824 0
M  V30 1157 H 105.391 1.28932 -3.74423 0
M  V30 1158 H 106.565 -1.50352 -4.35581 0
M  V30 1159 H 104.88 -1.20813 -3.98489 0
M  V30 1160 H 107.477 1.30022 -5.18651 0
M  V30 1161 H 107.82 2.0273 -3.63602 0
M  V30 1162 H 108.353 0.360034 -3.96167 0
M  V30 1163 H 105.092 -1.36883 -6.41049 0
M  V30 1164 H 104.612 0.291569 -5.99091 0
M  V30 1165 H 106.291 -0.0606218 -6.46972 0
M  V30 1166 N 106.423 1.57458 -0.0668435 0
M  V30 1167 C 107.653 1.97337 0.611677 0
M  V30 1168 C 108.061 0.943744 1.63982 0
M  V30 1169 O 107.404 -0.0785584 1.83532 0
M  V30 1170 C 107.466 3.33511 1.34205 0
M  V30 1171 C 107.13 4.54598 0.467941 0
M  V30 1172 C 108.127 5.19186 -0.272439 0
M  V30 1173 C 105.812 5.0075 0.39427 0
M  V30 1174 C 107.806 6.28274 -1.07476 0
M  V30 1175 C 105.493 6.09711 -0.411729 0
M  V30 1176 C 106.491 6.73335 -1.14492 0
M  V30 1177 O 106.179 7.80199 -1.93763 0
M  V30 1178 H 105.911 0.654042 0.170893 0
M  V30 1179 H 108.465 2.04961 -0.134289 0
M  V30 1180 H 106.695 3.22487 2.13398 0
M  V30 1181 H 108.384 3.58029 1.91233 0
M  V30 1182 H 109.15 4.84477 -0.225086 0
M  V30 1183 H 105.029 4.51009 0.954569 0
M  V30 1184 H 108.573 6.77866 -1.64755 0
M  V30 1185 H 104.47 6.43854 -0.460664 0
M  V30 1186 H 105.238 7.97053 -1.86142 0
M  V30 1187 N 107.901 -0.206675 1.56239 0
M  V30 1188 C 109.15 -0.926964 1.79138 0
M  V30 1189 C 109.463 -1.84901 0.638043 0
M  V30 1190 O 110.669 -2.60906 0.751033 0
M  V30 1191 C 109.125 -1.6986 3.17294 0
M  V30 1192 C 108.733 -0.821956 4.40395 0
M  V30 1193 C 110.477 -2.40922 3.4951 0
M  V30 1194 C 108.384 -1.59179 5.69575 0
M  V30 1195 H 107.314 -0.349864 0.667915 0
M  V30 1196 H 109.965 -0.180487 1.8261 0
M  V30 1197 H 108.347 -2.48853 3.08039 0
M  V30 1198 H 109.521 -0.0715019 4.60745 0
M  V30 1199 H 107.836 -0.222741 4.15804 0
M  V30 1200 H 110.433 -2.99047 4.43255 0
M  V30 1201 H 110.776 -3.14542 2.72707 0
M  V30 1202 H 111.309 -1.68905 3.60161 0
M  V30 1203 H 108.048 -0.898589 6.49312 0
M  V30 1204 H 107.568 -2.31648 5.53262 0
M  V30 1205 H 109.247 -2.14862 6.10281 0
M  V30 1206 N 109.379 -1.50304 -0.473955 0
M  V30 1207 C 110.626 -1.6115 -1.22625 0
M  V30 1208 C 110.954 -0.310517 -1.92005 0
M  V30 1209 O 110.209 0.703419 -1.82621 0
M  V30 1210 C 110.508 -2.73938 -2.29549 0
M  V30 1211 C 110.174 -4.14519 -1.7744 0
M  V30 1212 C 108.836 -4.5277 -1.62949 0
M  V30 1213 C 111.188 -5.02392 -1.3875 0
M  V30 1214 C 108.516 -5.76639 -1.08187 0
M  V30 1215 C 110.868 -6.26805 -0.854309 0
M  V30 1216 C 109.532 -6.63861 -0.696011 0
M  V30 1217 H 108.802 -0.589691 -0.448715 0
M  V30 1218 H 111.449 -1.84228 -0.522705 0
M  V30 1219 H 109.754 -2.44937 -3.05799 0
M  V30 1220 H 111.451 -2.79534 -2.87509 0
M  V30 1221 H 108.041 -3.8434 -1.89685 0
M  V30 1222 H 112.225 -4.73474 -1.4878 0
M  V30 1223 H 107.481 -6.04027 -0.946666 0
M  V30 1224 H 111.655 -6.94258 -0.545843 0
M  V30 1225 H 109.282 -7.59722 -0.26952 0
M  V30 1226 N 110.857 0.726932 -1.39834 0
M  V30 1227 C 112.273 1.03354 -1.21615 0
M  V30 1228 C 112.473 2.01327 -0.08338 0
M  V30 1229 O 111.529 2.46158 0.56238 0
M  V30 1230 C 112.842 1.58811 -2.55342 0
M  V30 1231 C 114.39 1.70851 -2.62257 0
M  V30 1232 C 114.865 2.29716 -3.96225 0
M  V30 1233 N 116.356 2.37116 -3.97907 0
M  V30 1234 C 117.091 2.83619 -4.98345 0
M  V30 1235 N 116.587 3.29958 -6.09179 0
M  V30 1236 N 118.38 2.82901 -4.8572 0
M  V30 1237 H 110.531 0.0773069 -2.12259 0
M  V30 1238 H 112.794 0.0969102 -0.943034 0
M  V30 1239 H 112.5 0.942855 -3.38826 0
M  V30 1240 H 112.374 2.57502 -2.75632 0
M  V30 1241 H 114.761 2.34497 -1.79152 0
M  V30 1242 H 114.842 0.707913 -2.45809 0
M  V30 1243 H 114.486 1.66696 -4.79765 0
M  V30 1244 H 114.416 3.30469 -4.09997 0
M  V30 1245 H 116.907 2.04374 -3.17868 0
M  V30 1246 H 117.22 3.63976 -6.8172 0
M  V30 1247 H 115.565 3.27946 -6.12761 0
M  V30 1248 H 118.756 2.46027 -3.98231 0
M  V30 1249 H 118.929 3.18827 -5.6414 0
M  V30 1250 N 112.336 1.25143 0.95797 0
M  V30 1251 C 113.582 1.09855 1.70469 0
M  V30 1252 C 113.915 -0.360187 1.90831 0
M  V30 1253 O 113.19 -1.26568 1.47685 0
M  V30 1254 C 113.473 1.8497 3.08963 0
M  V30 1255 C 113.326 3.38652 2.96032 0
M  V30 1256 C 114.645 1.63016 4.08795 0
M  V30 1257 H 111.764 0.400465 0.618706 0
M  V30 1258 H 114.406 1.53933 1.11376 0
M  V30 1259 H 112.556 1.47505 3.59409 0
M  V30 1260 H 114.228 3.85772 2.52938 0
M  V30 1261 H 112.471 3.66534 2.32025 0
M  V30 1262 H 113.142 3.8642 3.94187 0
M  V30 1263 H 115.618 1.95625 3.67247 0
M  V30 1264 H 114.494 2.18015 5.03747 0
M  V30 1265 H 114.755 0.570692 4.38401 0
M  V30 1266 N 113.814 -1.1601 1.06675 0
M  V30 1267 C 115.054 -1.88304 0.795037 0
M  V30 1268 C 115.418 -1.80062 -0.666466 0
M  V30 1269 O 116.619 -2.47319 -1.05293 0
M  V30 1270 C 114.89 -3.33664 1.28076 0
M  V30 1271 S 116.449 -4.23768 1.13868 0
M  V30 1272 H 113.267 -0.649928 0.288296 0
M  V30 1273 H 115.869 -1.4001 1.36445 0
M  V30 1274 H 114.573 -3.37203 2.33927 0
M  V30 1275 H 114.104 -3.87009 0.706253 0
M  V30 1276 H 116.119 -4.96148 0.0719668 0
M  V30 1277 N 115.292 -0.849877 -1.32721 0
M  V30 1278 C 116.708 -0.539102 -1.50219 0
M  V30 1279 C 116.908 0.931271 -1.78689 0
M  V30 1280 O 115.964 1.71455 -1.85363 0
M  V30 1281 C 117.277 -1.42196 -2.64954 0
M  V30 1282 C 118.825 -1.42189 -2.78839 0
M  V30 1283 C 119.3 -2.28985 -3.96648 0
M  V30 1284 N 120.791 -2.26754 -4.03902 0
M  V30 1285 C 121.526 -2.90644 -4.94281 0
M  V30 1286 N 121.022 -3.63629 -5.897 0
M  V30 1287 N 122.815 -2.80057 -4.87365 0
M  V30 1288 H 114.966 -1.80156 -1.12506 0
M  V30 1289 H 117.229 -0.769217 -0.554085 0
M  V30 1290 H 116.935 -2.46733 -2.50631 0
M  V30 1291 H 116.809 -1.10591 -3.60624 0
M  V30 1292 H 119.196 -0.38419 -2.92588 0
M  V30 1293 H 119.277 -1.77807 -1.83898 0
M  V30 1294 H 118.921 -3.32819 -3.83658 0
M  V30 1295 H 118.851 -1.90702 -4.90857 0
M  V30 1296 H 121.342 -1.73688 -3.3562 0
M  V30 1297 H 121.655 -4.09558 -6.55349 0
M  V30 1298 H 120 -3.67737 -5.89741 0
M  V30 1299 H 123.191 -2.22593 -4.11789 0
M  V30 1300 H 123.364 -3.30132 -5.57599 0
M  V30 1301 N 116.77 1.45427 -0.607355 0
M  V30 1302 C 117.68 2.34325 0.113463 0
M  V30 1303 C 118.696 1.51226 0.860617 0
M  V30 1304 O 119.872 1.84029 0.818255 0
M  V30 1305 C 116.937 3.28839 1.09844 0
M  V30 1306 C 115.998 4.27844 0.353271 0
M  V30 1307 C 115.231 5.17842 1.29133 0
M  V30 1308 O 115.454 5.11264 2.52913 0
M  V30 1309 O 114.388 5.96713 0.788523 0
M  V30 1310 H 118.214 2.97364 -0.617094 0
M  V30 1311 H 115.799 1.44807 -0.367619 0
M  V30 1312 H 117.681 3.8708 1.66575 0
M  V30 1313 H 116.356 2.68365 1.81003 0
M  V30 1314 H 115.263 3.7322 -0.256494 0
M  V30 1315 H 116.596 4.91173 -0.317822 0
M  V30 1316 N 118.248 0.346503 1.53744 0
M  V30 1317 C 119.211 -0.496439 2.23759 0
M  V30 1318 C 120.211 -1.0252 1.2388 0
M  V30 1319 O 121.401 -0.913974 1.48297 0
M  V30 1320 C 118.533 -1.69187 2.95954 0
M  V30 1321 H 119.726 0.115952 2.99676 0
M  V30 1322 H 117.279 0.0978939 1.55993 0
M  V30 1323 H 118.014 -2.34288 2.24231 0
M  V30 1324 H 117.799 -1.31989 3.69217 0
M  V30 1325 H 119.289 -2.28969 3.49232 0
M  V30 1326 N 119.726 -1.57421 0.075193 0
M  V30 1327 C 120.974 -1.93236 -0.591974 0
M  V30 1328 C 121.295 -0.956241 -1.69944 0
M  V30 1329 O 120.565 -0.00494792 -1.95899 0
M  V30 1330 H 119.145 -0.713355 -0.22166 0
M  V30 1331 H 121.807 -1.9444 0.133848 0
M  V30 1332 H 120.903 -2.95131 -1.01509 0
M  V30 1333 N 121.204 0.198386 -1.56346 0
M  V30 1334 C 122.152 1.26538 -1.95169 0
M  V30 1335 C 123.146 1.47295 -0.836685 0
M  V30 1336 O 124.352 1.48195 -1.02167 0
M  V30 1337 H 120.727 0.424744 -0.620561 0
M  V30 1338 H 122.698 0.910904 -2.84157 0
M  V30 1339 C 121.447 2.6035 -2.30463 0
M  V30 1340 H 120.77 2.45192 -3.15786 0
M  V30 1341 H 122.21 3.33762 -2.61494 0
M  V30 1342 C 120.669 3.17096 -1.13806 0
M  V30 1343 O 121.199 3.99588 -0.41135 0
M  V30 1344 N 119.405 2.75795 -0.915736 0
M  V30 1345 H 118.952 2.08816 -1.50843 0
M  V30 1346 H 118.91 3.14101 -0.136979 0
M  V30 1347 N 122.682 1.50554 0.465978 0
M  V30 1348 C 123.632 1.66177 1.56106 0
M  V30 1349 C 124.616 0.516265 1.52393 0
M  V30 1350 O 125.808 0.770906 1.5933 0
M  V30 1351 C 122.937 1.76396 2.94515 0
M  V30 1352 C 122.023 2.9664 3.03093 0
M  V30 1353 N 122.414 4.20245 2.81474 0
M  V30 1354 C 120.712 2.95304 3.34233 0
M  V30 1355 C 121.413 5.01259 2.95151 0
M  V30 1356 N 120.389 4.35318 3.25576 0
M  V30 1357 H 124.191 2.59434 1.38099 0
M  V30 1358 H 121.705 1.47808 0.6728 0
M  V30 1359 H 123.702 1.85694 3.73261 0
M  V30 1360 H 122.362 0.843017 3.13565 0
M  V30 1361 H 123.373 4.4966 2.56956 0
M  V30 1362 H 120.05 2.12729 3.59239 0
M  V30 1363 H 121.44 6.09564 2.82632 0
M  V30 1364 N 124.16 -0.719506 1.40217 0
M  V30 1365 C 125.388 -1.50864 1.41589 0
M  V30 1366 C 125.803 -1.88794 0.0145275 0
M  V30 1367 O 125.16 -1.55174 -0.960594 0
M  V30 1368 C 125.211 -2.78646 2.30302 0
M  V30 1369 O 124.932 -2.42321 3.64983 0
M  V30 1370 C 126.433 -3.72569 2.40224 0
M  V30 1371 H 123.653 -0.465709 0.48307 0
M  V30 1372 H 126.197 -0.88785 1.84221 0
M  V30 1373 H 124.352 -3.37019 1.91042 0
M  V30 1374 H 124.766 -3.24514 4.12057 0
M  V30 1375 H 126.24 -4.5908 3.06512 0
M  V30 1376 H 126.717 -4.15403 1.42608 0
M  V30 1377 H 127.323 -3.20109 2.80019 0
M  V30 1378 N 125.638 -1.25649 -0.95132 0
M  V30 1379 C 126.863 -1.13443 -1.73624 0
M  V30 1380 C 127.288 0.307565 -1.85568 0
M  V30 1381 O 126.646 1.22282 -1.33854 0
M  V30 1382 C 126.694 -1.79723 -3.12621 0
M  V30 1383 O 125.798 -1.07912 -3.98031 0
M  V30 1384 H 125.139 -0.395872 -0.533086 0
M  V30 1385 H 127.669 -1.66276 -1.1922 0
M  V30 1386 H 127.679 -1.86141 -3.63064 0
M  V30 1387 H 126.354 -2.84633 -3.03244 0
M  V30 1388 H 124.931 -1.09398 -3.56492 0
M  V30 1389 N 127.117 1.15442 -1.07289 0
M  V30 1390 C 128.365 1.85845 -0.794096 0
M  V30 1391 C 128.686 1.82692 0.681809 0
M  V30 1392 O 127.956 1.26741 1.49377 0
M  V30 1393 H 126.536 0.688089 -0.290763 0
M  V30 1394 H 129.198 1.39947 -1.3565 0
M  V30 1395 H 128.294 2.91001 -1.12804 0
M  V30 1396 N 128.595 0.856903 1.32268 0
M  V30 1397 C 129.558 0.308171 2.27119 0
M  V30 1398 C 130.558 -0.533421 1.51695 0
M  V30 1399 O 131.748 -0.344607 1.70757 0
M  V30 1400 C 128.88 -0.563757 3.36206 0
M  V30 1401 H 130.073 1.14535 2.77167 0
M  V30 1402 H 127.626 0.631421 1.42978 0
M  V30 1403 H 128.361 -1.42266 2.91429 0
M  V30 1404 H 128.146 0.0386749 3.92081 0
M  V30 1405 H 129.636 -0.940386 4.06874 0
M  V30 1406 N 130.073 -1.45103 0.615059 0
M  V30 1407 C 131.321 -2.01784 0.112955 0
M  V30 1408 C 131.642 -1.48504 -1.26378 0
M  V30 1409 O 130.912 -0.682245 -1.83636 0
M  V30 1410 H 129.492 -0.745993 0.0387668 0
M  V30 1411 H 132.154 -1.77808 0.798141 0
M  V30 1412 H 131.25 -3.12025 0.0684069 0
M  V30 1413 N 131.551 -0.354651 -1.53558 0
M  V30 1414 C 132.481 0.489091 -2.2832 0
M  V30 1415 C 133.462 1.09324 -1.30316 0
M  V30 1416 O 134.647 1.11255 -1.59173 0
M  V30 1417 C 131.777 1.63456 -3.0643 0
M  V30 1418 C 130.731 1.1582 -4.12031 0
M  V30 1419 C 130.057 2.39305 -4.7816 0
M  V30 1420 C 131.357 0.250731 -5.21698 0
M  V30 1421 H 133.051 -0.134614 -2.99097 0
M  V30 1422 H 130.597 -0.0661826 -1.43848 0
M  V30 1423 H 132.55 2.23136 -3.57475 0
M  V30 1424 H 131.274 2.28533 -2.33325 0
M  V30 1425 H 129.933 0.584146 -3.61916 0
M  V30 1426 H 129.581 3.02814 -4.01637 0
M  V30 1427 H 129.281 2.08109 -5.49513 0
M  V30 1428 H 130.805 2.99691 -5.31994 0
M  V30 1429 H 132.219 0.754695 -5.68311 0
M  V30 1430 H 130.616 0.0301468 -6.00092 0
M  V30 1431 H 131.686 -0.710125 -4.79672 0
M  V30 1432 N 133.029 1.57378 -0.0835403 0
M  V30 1433 C 134.275 1.94217 0.583733 0
M  V30 1434 C 134.608 0.964653 1.68547 0
M  V30 1435 O 133.883 -0.00422258 1.945 0
M  V30 1436 C 134.166 3.41253 1.14972 0
M  V30 1437 C 134.019 4.49768 0.0538277 0
M  V30 1438 C 135.338 3.89352 2.05166 0
M  V30 1439 H 132.457 0.706233 0.210724 0
M  V30 1440 H 135.099 1.89392 -0.1519 0
M  V30 1441 H 133.249 3.45496 1.77665 0
M  V30 1442 H 134.921 4.57641 -0.579851 0
M  V30 1443 H 133.164 4.29432 -0.614068 0
M  V30 1444 H 133.835 5.49817 0.490452 0
M  V30 1445 H 136.311 3.87189 1.52393 0
M  V30 1446 H 135.187 4.92822 2.41698 0
M  V30 1447 H 135.448 3.27973 2.96456 0
M  V30 1448 N 134.507 -0.190092 1.56449 0
M  V30 1449 C 135.439 -1.25973 1.91477 0
M  V30 1450 C 136.452 -1.41452 0.805931 0
M  V30 1451 O 137.641 -1.41789 1.08435 0
M  V30 1452 C 134.741 -2.63117 2.13594 0
M  V30 1453 C 133.914 -2.69182 3.4476 0
M  V30 1454 C 132.973 -3.87557 3.5593 0
M  V30 1455 O 131.999 -3.74427 4.28711 0
M  V30 1456 N 133.201 -5.03224 2.89388 0
M  V30 1457 H 135.966 -0.962394 2.83828 0
M  V30 1458 H 133.527 -0.379981 1.57378 0
M  V30 1459 H 135.519 -3.40742 2.1835 0
M  V30 1460 H 134.089 -2.85319 1.27719 0
M  V30 1461 H 133.309 -1.77793 3.51828 0
M  V30 1462 H 134.597 -2.70229 4.31107 0
M  V30 1463 H 133.995 -5.16791 2.30094 0
M  V30 1464 H 132.552 -5.78778 2.99764 0
M  V30 1465 N 135.985 -1.50799 -0.457987 0
M  V30 1466 C 137.234 -1.6168 -1.20593 0
M  V30 1467 C 137.547 -0.32888 -1.92815 0
M  V30 1468 O 138.753 -0.316773 -2.69646 0
M  V30 1469 C 137.209 -2.8545 -2.19195 0
M  V30 1470 C 136.817 -4.21168 -1.52715 0
M  V30 1471 C 138.561 -3.05681 -2.94549 0
M  V30 1472 C 136.468 -5.3611 -2.4968 0
M  V30 1473 H 135.398 -0.602134 -0.453818 0
M  V30 1474 H 138.049 -1.77245 -0.475031 0
M  V30 1475 H 136.431 -2.63472 -2.95632 0
M  V30 1476 H 137.605 -4.53449 -0.819775 0
M  V30 1477 H 135.92 -4.06648 -0.895922 0
M  V30 1478 H 138.517 -3.88727 -3.67145 0
M  V30 1479 H 138.86 -2.17929 -3.54701 0
M  V30 1480 H 139.393 -3.27901 -2.25223 0
M  V30 1481 H 136.132 -6.26057 -1.94249 0
M  V30 1482 H 135.652 -5.0823 -3.18532 0
M  V30 1483 H 137.331 -5.6722 -3.11241 0
M  V30 1484 N 137.463 0.71206 -1.40597 0
M  V30 1485 C 138.411 1.84746 -1.41321 0
M  V30 1486 C 139.405 1.66842 -0.293268 0
M  V30 1487 O 140.611 1.73904 -0.464481 0
M  V30 1488 H 136.986 0.608522 -0.441819 0
M  V30 1489 H 138.957 1.81252 -2.37045 0
M  V30 1490 C 137.706 3.22638 -1.29614 0
M  V30 1491 H 137.029 3.37023 -2.15071 0
M  V30 1492 H 138.469 4.02209 -1.3418 0
M  V30 1493 C 136.928 3.36899 -0.00673121 0
M  V30 1494 O 137.458 3.90186 0.954859 0
M  V30 1495 N 135.664 2.9053 0.0639327 0
M  V30 1496 H 135.211 2.47353 -0.719311 0
M  V30 1497 H 135.169 3.0045 0.926118 0
M  V30 1498 N 138.941 1.26152 0.944643 0
M  V30 1499 C 139.888 1.07408 2.04285 0
M  V30 1500 C 140.858 -0.0198413 1.66088 0
M  V30 1501 O 142.043 0.139264 1.90291 0
M  V30 1502 C 139.183 0.70945 3.37729 0
M  V30 1503 C 138.296 1.87926 3.88983 0
M  V30 1504 C 137.431 1.45807 5.10797 0
M  V30 1505 C 136.47 2.5964 5.54305 0
M  V30 1506 N 135.607 2.18226 6.67324 0
M  V30 1507 H 140.447 2.01389 2.1965 0
M  V30 1508 H 137.984 1.00275 1.07626 0
M  V30 1509 H 139.942 0.478948 4.14442 0
M  V30 1510 H 138.572 -0.193389 3.2222 0
M  V30 1511 H 137.624 2.22279 3.08701 0
M  V30 1512 H 138.936 2.73377 4.17213 0
M  V30 1513 H 138.09 1.18781 5.94959 0
M  V30 1514 H 136.829 0.574414 4.84305 0
M  V30 1515 H 135.834 2.87399 4.68702 0
M  V30 1516 H 137.059 3.48599 5.828 0
M  V30 1517 H 135.005 1.3229 6.42523 0
M  V30 1518 H 134.922 2.97221 6.95123 0
M  V30 1519 H 136.19 1.94403 7.54869 0
M  V30 1520 N 140.419 -1.14872 1.07899 0
M  V30 1521 C 141.644 -1.90202 0.826926 0
M  V30 1522 C 142.069 -1.77774 -0.614664 0
M  V30 1523 O 141.427 -1.11431 -1.43013 0
M  V30 1524 C 141.475 -3.38352 1.24702 0
M  V30 1525 O 140.579 -4.10497 0.39575 0
M  V30 1526 H 139.92 -0.591968 0.300782 0
M  V30 1527 H 142.45 -1.45437 1.43907 0
M  V30 1528 H 142.46 -3.89156 1.22563 0
M  V30 1529 H 141.135 -3.46715 2.29698 0
M  V30 1530 H 139.712 -3.69796 0.480117 0
M  V30 1531 N 141.898 -0.863906 -1.31812 0
M  V30 1532 C 142.846 -0.30422 -2.30602 0
M  V30 1533 C 143.84 0.577419 -1.59255 0
M  V30 1534 O 145.046 0.464194 -1.73912 0
M  V30 1535 H 141.421 -0.0796877 -0.747766 0
M  V30 1536 H 143.392 -1.15148 -2.75288 0
M  V30 1537 C 142.141 0.484617 -3.44306 0
M  V30 1538 H 141.464 -0.18451 -3.99374 0
M  V30 1539 H 142.904 0.841664 -4.15562 0
M  V30 1540 C 141.363 1.6735 -2.92396 0
M  V30 1541 O 141.893 2.77273 -2.90659 0
M  V30 1542 N 140.099 1.50362 -2.48676 0
M  V30 1543 H 139.646 0.609402 -2.50288 0
M  V30 1544 H 139.604 2.30051 -2.14299 0
M  V30 1545 N 143.376 1.44774 -0.622745 0
M  V30 1546 C 144.624 2.01721 -0.123655 0
M  V30 1547 C 144.945 1.49172 1.25589 0
M  V30 1548 O 144.215 0.691974 1.83272 0
M  V30 1549 H 142.795 0.745777 -0.0427225 0
M  V30 1550 H 145.457 1.77382 -0.807559 0
M  V30 1551 H 144.553 3.11984 -0.0849534 0
M  V30 1552 N 144.854 0.36279 1.53368 0
M  V30 1553 C 145.801 -0.485008 2.25646 0
M  V30 1554 C 146.771 -1.07982 1.2621 0
M  V30 1555 O 147.956 -1.11284 1.54986 0
M  V30 1556 C 145.096 -1.62023 3.04701 0
M  V30 1557 C 144.209 -1.05086 4.19024 0
M  V30 1558 C 143.344 -2.15496 4.85525 0
M  V30 1559 C 142.383 -1.5601 5.91884 0
M  V30 1560 N 141.52 -2.60241 6.52088 0
M  V30 1561 H 146.36 0.137864 2.97681 0
M  V30 1562 H 143.897 0.0798061 1.46883 0
M  V30 1563 H 145.855 -2.28887 3.48807 0
M  V30 1564 H 144.485 -2.2138 2.34927 0
M  V30 1565 H 143.537 -0.27259 3.79422 0
M  V30 1566 H 144.849 -0.575926 4.95464 0
M  V30 1567 H 144.003 -2.90186 5.32801 0
M  V30 1568 H 142.742 -2.66341 4.08551 0
M  V30 1569 H 141.747 -0.798338 5.43973 0
M  V30 1570 H 142.972 -1.05994 6.70777 0
M  V30 1571 H 140.918 -3.10304 5.77968 0
M  V30 1572 H 140.835 -2.17426 7.24059 0
M  V30 1573 H 142.103 -3.34641 7.04014 0
M  V30 1574 N 146.332 -1.57332 0.0918853 0
M  V30 1575 C 147.242 -2.17368 -0.882505 0
M  V30 1576 C 148.258 -1.14226 -1.31257 0
M  V30 1577 O 149.434 -1.46582 -1.38115 0
M  V30 1578 C 146.499 -2.73962 -2.12476 0
M  V30 1579 C 145.56 -3.92048 -1.7492 0
M  V30 1580 C 144.793 -4.45933 -2.93223 0
M  V30 1581 O 145.016 -3.98764 -4.07852 0
M  V30 1582 O 143.95 -5.36999 -2.71875 0
M  V30 1583 H 147.776 -3.01031 -0.40172 0
M  V30 1584 H 145.361 -1.48813 -0.132291 0
M  V30 1585 H 147.243 -3.10147 -2.85283 0
M  V30 1586 H 145.918 -1.93347 -2.59613 0
M  V30 1587 H 144.825 -3.6068 -0.993025 0
M  V30 1588 H 146.158 -4.74017 -1.32548 0
M  V30 1589 N 147.81 0.181792 -1.56548 0
M  V30 1590 C 149.038 0.915947 -1.85521 0
M  V30 1591 C 149.453 1.76282 -0.676016 0
M  V30 1592 O 148.81 1.79012 0.355077 0
M  V30 1593 C 148.861 1.80126 -3.13427 0
M  V30 1594 O 148.582 0.988562 -4.26801 0
M  V30 1595 C 150.083 2.64597 -3.55673 0
M  V30 1596 H 147.303 0.26661 -0.61576 0
M  V30 1597 H 149.847 0.185039 -2.03661 0
M  V30 1598 H 148.002 2.48563 -2.97145 0
M  V30 1599 H 148.416 1.59308 -4.99721 0
M  V30 1600 H 149.89 3.2235 -4.48101 0
M  V30 1601 H 150.367 3.38958 -2.79292 0
M  V30 1602 H 150.973 2.0151 -3.74532 0
M  V30 1603 N 149.288 1.51039 0.449983 0
M  V30 1604 C 150.534 1.63322 1.20223 0
M  V30 1605 C 150.867 0.34241 1.91158 0
M  V30 1606 O 150.142 -0.657344 1.83055 0
M  V30 1607 C 150.425 2.82801 2.22925 0
M  V30 1608 C 150.278 4.21823 1.56157 0
M  V30 1609 C 151.597 2.97807 3.24035 0
M  V30 1610 H 148.716 0.594407 0.435718 0
M  V30 1611 H 151.358 1.83489 0.493136 0
M  V30 1612 H 149.508 2.65738 2.834 0
M  V30 1613 H 151.18 4.50526 0.991162 0
M  V30 1614 H 149.423 4.25105 0.864172 0
M  V30 1615 H 150.094 5.01391 2.30891 0
M  V30 1616 H 152.57 3.13497 2.73603 0
M  V30 1617 H 151.446 3.82992 3.93202 0
M  V30 1618 H 151.707 2.09328 3.89402 0
M  V30 1619 N 150.766 -0.704594 1.40972 0
M  V30 1620 C 152.012 -1.46675 1.40051 0
M  V30 1621 C 152.345 -1.94199 0.00641102 0
M  V30 1622 O 151.62 -1.68916 -0.964235 0
M  V30 1623 C 151.903 -2.68505 2.39952 0
M  V30 1624 C 151.756 -2.26805 3.88432 0
M  V30 1625 C 153.075 -3.70686 2.37233 0
M  V30 1626 H 150.194 -0.532015 0.510028 0
M  V30 1627 H 152.836 -0.803255 1.72185 0
M  V30 1628 H 150.986 -3.25114 2.1268 0
M  V30 1629 H 152.658 -1.75592 4.26574 0
M  V30 1630 H 150.901 -1.58685 4.03734 0
M  V30 1631 H 151.572 -3.14181 4.53866 0
M  V30 1632 H 154.048 -3.23731 2.61415 0
M  V30 1633 H 152.924 -4.53553 3.09162 0
M  V30 1634 H 153.185 -4.19754 1.38777 0
M  V30 1635 N 152.244 -1.26651 -0.937939 0
M  V30 1636 C 153.492 -1.12165 -1.68118 0
M  V30 1637 C 153.813 0.334983 -1.92101 0
M  V30 1638 O 153.083 1.23583 -1.52 0
M  V30 1639 H 151.663 -0.412093 -0.623048 0
M  V30 1640 H 154.325 -1.59027 -1.12678 0
M  V30 1641 H 153.421 -1.64289 -2.6536 0
M  V30 1642 N 153.722 1.14298 -1.08507 0
M  V30 1643 C 155.138 1.37347 -0.812901 0
M  V30 1644 C 155.338 1.93052 0.577325 0
M  V30 1645 O 154.394 2.14389 1.33393 0
M  V30 1646 C 155.707 2.33359 -1.89642 0
M  V30 1647 C 157.255 2.46996 -1.92255 0
M  V30 1648 C 157.73 3.46309 -2.99724 0
M  V30 1649 N 159.221 3.53853 -2.98902 0
M  V30 1650 C 159.956 4.3055 -3.787 0
M  V30 1651 N 159.452 5.10482 -4.6838 0
M  V30 1652 N 161.245 4.25757 -3.66998 0
M  V30 1653 H 153.396 0.764867 -1.9815 0
M  V30 1654 H 155.659 0.398966 -0.859959 0
M  V30 1655 H 155.365 1.99565 -2.89597 0
M  V30 1656 H 155.239 3.33274 -1.76659 0
M  V30 1657 H 157.626 2.80081 -0.929445 0
M  V30 1658 H 157.707 1.47039 -2.09316 0
M  V30 1659 H 157.351 3.13957 -3.99241 0
M  V30 1660 H 157.281 4.46049 -2.79907 0
M  V30 1661 H 159.772 2.96812 -2.33904 0
M  V30 1662 H 160.085 5.66284 -5.25873 0
M  V30 1663 H 158.43 5.09747 -4.72422 0
M  V30 1664 H 161.621 3.62383 -2.96304 0
M  V30 1665 H 161.794 4.85279 -4.29427 0
M  V30 1666 N 155.201 0.870884 1.31352 0
M  V30 1667 C 156.131 0.343096 2.30966 0
M  V30 1668 C 157.112 -0.566507 1.60389 0
M  V30 1669 O 158.297 -0.483336 1.88089 0
M  V30 1670 C 155.427 -0.455487 3.443 0
M  V30 1671 C 154.381 0.361103 4.26474 0
M  V30 1672 C 153.707 -0.563221 5.31725 0
M  V30 1673 C 155.007 1.59566 4.97329 0
M  V30 1674 H 156.701 1.17548 2.75359 0
M  V30 1675 H 154.247 0.566686 1.32381 0
M  V30 1676 H 156.2 -0.83525 4.13039 0
M  V30 1677 H 154.924 -1.32139 2.98675 0
M  V30 1678 H 153.583 0.722825 3.59403 0
M  V30 1679 H 153.231 -1.42643 4.82351 0
M  V30 1680 H 152.931 -0.0207409 5.87596 0
M  V30 1681 H 154.455 -0.939808 6.03324 0
M  V30 1682 H 155.869 1.28728 5.58661 0
M  V30 1683 H 154.266 2.07728 5.63 0
M  V30 1684 H 155.336 2.34798 4.24262 0
M  V30 1685 N 156.679 -1.44442 0.630414 0
M  V30 1686 C 157.627 -2.32437 -0.0871428 0
M  V30 1687 C 158.621 -1.47304 -0.836525 0
M  V30 1688 O 159.827 -1.63653 -0.749506 0
M  V30 1689 H 156.202 -0.750533 -0.0469495 0
M  V30 1690 H 158.173 -2.90709 0.673096 0
M  V30 1691 C 156.922 -3.31288 -1.05563 0
M  V30 1692 H 156.245 -3.96805 -0.488426 0
M  V30 1693 H 157.685 -3.9554 -1.52721 0
M  V30 1694 C 156.144 -2.6016 -2.14052 0
M  V30 1695 O 156.674 -2.39997 -3.22124 0
M  V30 1696 N 154.88 -2.19911 -1.89967 0
M  V30 1697 H 154.427 -2.36509 -1.02085 0
M  V30 1698 H 154.385 -1.72646 -2.62756 0
M  V30 1699 N 158.157 -0.370918 -1.53173 0
M  V30 1700 C 159.067 0.480823 -2.2962 0
M  V30 1701 C 160.083 1.08789 -1.35798 0
M  V30 1702 O 161.259 1.09768 -1.68858 0
M  V30 1703 C 158.324 1.60227 -3.07454 0
M  V30 1704 C 157.385 1.0222 -4.16953 0
M  V30 1705 C 156.618 2.0902 -4.91066 0
M  V30 1706 O 156.841 3.30222 -4.65091 0
M  V30 1707 O 155.775 1.71778 -5.76867 0
M  V30 1708 H 159.601 -0.141421 -3.03371 0
M  V30 1709 H 157.186 -0.135146 -1.48787 0
M  V30 1710 H 159.068 2.25417 -3.56041 0
M  V30 1711 H 157.743 2.20982 -2.36535 0
M  V30 1712 H 156.65 0.334064 -3.72605 0
M  V30 1713 H 157.983 0.459131 -4.90054 0
M  V30 1714 N 159.635 1.57281 -0.100228 0
M  V30 1715 C 160.863 1.98879 0.570509 0
M  V30 1716 C 161.278 0.979476 1.61405 0
M  V30 1717 O 160.635 -0.0302288 1.82475 0
M  V30 1718 C 160.686 3.4052 1.2136 0
M  V30 1719 O 160.407 4.37588 0.211786 0
M  V30 1720 C 161.908 3.97149 1.96945 0
M  V30 1721 H 159.128 0.653428 0.152555 0
M  V30 1722 H 161.672 2.03697 -0.18103 0
M  V30 1723 H 159.827 3.367 1.91603 0
M  V30 1724 H 160.241 5.20118 0.676607 0
M  V30 1725 H 161.715 4.98393 2.37294 0
M  V30 1726 H 162.192 3.3525 2.83733 0
M  V30 1727 H 162.798 4.04458 1.31506 0
M  V30 1728 N 161.113 -0.173488 1.56642 0
M  V30 1729 C 162.063 -1.21941 1.92651 0
M  V30 1730 C 163.047 -1.39912 0.794577 0
M  V30 1731 O 164.239 -1.41919 1.05773 0
M  V30 1732 C 161.368 -2.55935 2.28806 0
M  V30 1733 C 160.454 -2.41667 3.48508 0
M  V30 1734 N 160.845 -1.9711 4.65813 0
M  V30 1735 C 159.143 -2.72499 3.53072 0
M  V30 1736 C 159.844 -1.95253 5.47952 0
M  V30 1737 N 158.82 -2.37575 4.88937 0
M  V30 1738 H 162.622 -0.866581 2.80834 0
M  V30 1739 H 160.136 -0.381776 1.57849 0
M  V30 1740 H 162.133 -3.31511 2.52797 0
M  V30 1741 H 160.793 -2.92022 1.41961 0
M  V30 1742 H 161.804 -1.67481 4.90072 0
M  V30 1743 H 158.481 -3.12639 2.767 0
M  V30 1744 H 159.871 -1.6252 6.51948 0
M  V30 1745 N 162.591 -1.51276 -0.441967 0
M  V30 1746 C 163.84 -1.6295 -1.18871 0
M  V30 1747 C 164.153 -0.349312 -1.92456 0
M  V30 1748 O 165.359 -0.345355 -2.69295 0
M  V30 1749 C 163.815 -2.87759 -2.16155 0
M  V30 1750 C 163.423 -4.22764 -1.48239 0
M  V30 1751 C 165.167 -3.08788 -2.91291 0
M  V30 1752 C 163.074 -5.38728 -2.4398 0
M  V30 1753 H 162.004 -0.606913 -0.447406 0
M  V30 1754 H 164.655 -1.77739 -0.456205 0
M  V30 1755 H 163.037 -2.66593 -2.92821 0
M  V30 1756 H 164.211 -4.54293 -0.771635 0
M  V30 1757 H 162.526 -4.07575 -0.852741 0
M  V30 1758 H 165.123 -3.92599 -3.63002 0
M  V30 1759 H 165.466 -2.21679 -3.5237 0
M  V30 1760 H 165.999 -3.30272 -2.21733 0
M  V30 1761 H 162.738 -6.28082 -1.87598 0
M  V30 1762 H 162.258 -5.1158 -3.13123 0
M  V30 1763 H 163.937 -5.70489 -3.05207 0
M  V30 1764 N 164.069 0.697108 -1.41344 0
M  V30 1765 C 165.316 1.45714 -1.40619 0
M  V30 1766 C 165.644 1.94494 -0.0147907 0
M  V30 1767 O 164.899 1.69794 0.973066 0
M  V30 1768 C 165.198 2.68553 -2.35826 0
M  V30 1769 C 164.864 2.38438 -3.82698 0
M  V30 1770 C 163.526 2.29936 -4.22709 0
M  V30 1771 C 165.878 2.13567 -4.75435 0
M  V30 1772 C 163.206 1.94656 -5.53467 0
M  V30 1773 C 165.558 1.79797 -6.06511 0
M  V30 1774 C 164.222 1.69789 -6.45545 0
M  V30 1775 H 163.492 0.533206 -0.51456 0
M  V30 1776 H 166.139 0.796901 -1.74131 0
M  V30 1777 H 164.444 3.39503 -1.95563 0
M  V30 1778 H 166.141 3.2669 -2.32539 0
M  V30 1779 H 162.731 2.4595 -3.51008 0
M  V30 1780 H 166.915 2.19082 -4.45328 0
M  V30 1781 H 162.171 1.8546 -5.82593 0
M  V30 1782 H 166.345 1.59572 -6.77872 0
M  V30 1783 H 163.972 1.4222 -7.46778 0
M  V30 1784 N 165.547 1.27147 0.931209 0
M  V30 1785 C 166.495 1.09398 2.05268 0
M  V30 1786 C 167.489 0.0180591 1.6939 0
M  V30 1787 O 168.695 0.17551 1.79142 0
M  V30 1788 H 165.07 0.336986 0.672268 0
M  V30 1789 H 167.041 2.04416 2.17386 0
M  V30 1790 C 165.79 0.75424 3.39421 0
M  V30 1791 H 165.113 1.57404 3.67511 0
M  V30 1792 H 166.553 0.669903 4.18674 0
M  V30 1793 C 165.012 -0.541197 3.32525 0
M  V30 1794 O 165.542 -1.57664 3.69466 0
M  V30 1795 N 163.748 -0.535517 2.85623 0
M  V30 1796 H 163.295 0.307511 2.55758 0
M  V30 1797 H 163.253 -1.40236 2.81392 0
M  V30 1798 N 167.025 -1.13721 1.09112 0
M  V30 1799 C 168.273 -1.84559 0.823562 0
M  V30 1800 C 168.594 -1.83754 -0.652658 0
M  V30 1801 O 167.864 -1.29102 -1.47342 0
M  V30 1802 H 166.444 -0.683376 0.301673 0
M  V30 1803 H 169.106 -1.37771 1.37859 0
M  V30 1804 H 168.202 -2.8917 1.17419 0
M  V30 1805 N 168.503 -0.877838 -1.30888 0
M  V30 1806 C 169.728 -0.506629 -2.01117 0
M  V30 1807 C 170.153 0.895564 -1.65412 0
M  V30 1808 O 169.511 1.5923 -0.866922 0
M  V30 1809 C 169.559 -0.680223 -3.54126 0
M  V30 1810 O 168.663 0.277033 -4.11468 0
M  V30 1811 H 168.004 -0.200518 -0.633 0
M  V30 1812 H 170.534 -1.18342 -1.66902 0
M  V30 1813 H 170.544 -0.5765 -4.03907 0
M  V30 1814 H 169.219 -1.70261 -3.79452 0
M  V30 1815 H 167.796 0.127606 -3.72682 0
M  V30 1816 N 169.982 1.44106 -0.638065 0
M  V30 1817 C 170.93 2.3248 0.0748149 0
M  V30 1818 C 171.924 1.47746 0.828702 0
M  V30 1819 O 173.13 1.64049 0.740816 0
M  V30 1820 H 169.505 0.750771 0.0429686 0
M  V30 1821 H 171.476 2.90348 -0.688504 0
M  V30 1822 C 170.225 3.31843 1.03805 0
M  V30 1823 H 169.548 3.97059 0.467375 0
M  V30 1824 H 170.988 3.96345 1.50622 0
M  V30 1825 C 169.447 2.61291 2.1267 0
M  V30 1826 O 169.977 2.41702 3.20847 0
M  V30 1827 N 168.183 2.20915 1.88798 0
M  V30 1828 H 167.73 2.37047 1.00829 0
M  V30 1829 H 167.688 1.74038 2.61836 0
M  V30 1830 N 171.46 0.379036 1.52974 0
M  V30 1831 C 172.706 -0.199244 2.02422 0
M  V30 1832 C 173.061 -1.4532 1.26095 0
M  V30 1833 O 172.354 -1.88377 0.34996 0
M  V30 1834 C 172.548 -0.53096 3.53434 0
M  V30 1835 C 172.377 0.689298 4.44386 0
M  V30 1836 C 171.147 1.20546 4.9071 0
M  V30 1837 C 173.345 1.55856 4.90116 0
M  V30 1838 N 171.327 2.38434 5.65705 0
M  V30 1839 C 172.698 2.58396 5.63588 0
M  V30 1840 C 174.753 1.57986 4.7217 0
M  V30 1841 C 173.456 3.62939 6.21022 0
M  V30 1842 C 175.482 2.6143 5.30479 0
M  V30 1843 C 174.844 3.62693 6.03849 0
M  V30 1844 H 170.943 -0.0352671 0.781204 0
M  V30 1845 H 173.527 0.526614 1.87443 0
M  V30 1846 H 171.698 -1.22588 3.68547 0
M  V30 1847 H 173.43 -1.0955 3.89591 0
M  V30 1848 H 170.185 0.768022 4.67331 0
M  V30 1849 H 170.609 2.98055 6.07859 0
M  V30 1850 H 175.251 0.810475 4.14959 0
M  V30 1851 H 172.969 4.40751 6.77321 0
M  V30 1852 H 176.555 2.63949 5.18481 0
M  V30 1853 H 175.435 4.41424 6.48163 0
M  V30 1854 N 172.938 -1.57226 0.108567 0
M  V30 1855 C 174.187 -1.94008 -0.551703 0
M  V30 1856 C 174.5 -0.993442 -1.68494 0
M  V30 1857 O 175.706 -1.25551 -2.40726 0
M  V30 1858 C 174.162 -3.44763 -1.03279 0
M  V30 1859 C 173.77 -4.47943 0.0714193 0
M  V30 1860 C 175.514 -3.90483 -1.66503 0
M  V30 1861 C 173.421 -5.89865 -0.425779 0
M  V30 1862 H 172.351 -0.724206 -0.209863 0
M  V30 1863 H 175.002 -1.82547 0.186741 0
M  V30 1864 H 173.384 -3.51422 -1.82533 0
M  V30 1865 H 174.558 -4.52942 0.847365 0
M  V30 1866 H 172.873 -4.11913 0.609669 0
M  V30 1867 H 175.47 -4.93925 -2.04798 0
M  V30 1868 H 175.813 -3.29877 -2.53942 0
M  V30 1869 H 176.346 -3.86581 -0.938074 0
M  V30 1870 H 173.085 -6.54202 0.412316 0
M  V30 1871 H 172.605 -5.88309 -1.16843 0
M  V30 1872 H 174.284 -6.40844 -0.890397 0
M  V30 1873 N 174.416 0.165178 -1.56732 0
M  V30 1874 C 175.349 1.23336 -1.91998 0
M  V30 1875 C 176.327 1.42476 -0.783531 0
M  V30 1876 O 177.511 1.57384 -1.03743 0
M  V30 1877 C 174.638 2.59533 -2.17625 0
M  V30 1878 C 173.684 2.57093 -3.40302 0
M  V30 1879 S 174.517 2.05571 -4.9447 0
M  V30 1880 C 175.673 3.43532 -5.23198 0
M  V30 1881 H 175.906 0.932387 -2.82301 0
M  V30 1882 H 173.439 0.370013 -1.49901 0
M  V30 1883 H 175.397 3.37918 -2.3307 0
M  V30 1884 H 174.058 2.86827 -1.28019 0
M  V30 1885 H 173.251 3.57308 -3.55453 0
M  V30 1886 H 172.853 1.86806 -3.24005 0
M  V30 1887 H 175.145 4.39559 -5.15552 0
M  V30 1888 H 176.088 3.33251 -6.2478 0
M  V30 1889 H 176.496 3.39828 -4.50752 0
M  V30 1890 N 175.894 1.51508 0.433938 0
M  V30 1891 C 176.824 1.76016 1.53429 0
M  V30 1892 C 177.805 0.610112 1.58782 0
M  V30 1893 O 178.99 0.853177 1.74455 0
M  V30 1894 C 176.12 1.88831 2.9148 0
M  V30 1895 C 175.074 3.04288 3.00987 0
M  V30 1896 C 174.4 3.0229 4.4105 0
M  V30 1897 C 175.7 4.44193 2.74754 0
M  V30 1898 H 177.394 2.68152 1.33171 0
M  V30 1899 H 174.94 1.29035 0.639214 0
M  V30 1900 H 176.893 2.04559 3.6842 0
M  V30 1901 H 175.617 0.933455 3.12976 0
M  V30 1902 H 174.276 2.8827 2.26486 0
M  V30 1903 H 173.924 2.04576 4.59519 0
M  V30 1904 H 173.624 3.79822 4.4834 0
M  V30 1905 H 175.148 3.20116 5.1996 0
M  V30 1906 H 176.562 4.60544 3.41426 0
M  V30 1907 H 174.959 5.23457 2.9345 0
M  V30 1908 H 176.029 4.53996 1.70339 0
M  V30 1909 N 177.372 -0.689602 1.41712 0
M  V30 1910 C 178.621 -1.44534 1.40686 0
M  V30 1911 C 178.934 -1.95588 0.0213352 0
M  V30 1912 O 180.14 -2.71271 -0.111534 0
M  V30 1913 C 178.596 -2.61387 2.47396 0
M  V30 1914 C 178.204 -2.17094 3.91885 0
M  V30 1915 C 179.948 -3.38986 2.55517 0
M  V30 1916 C 177.855 -3.3094 4.90135 0
M  V30 1917 H 176.785 -0.542925 0.52321 0
M  V30 1918 H 179.436 -0.748054 1.6756 0
M  V30 1919 H 177.818 -3.33412 2.13664 0
M  V30 1920 H 178.992 -1.52318 4.34897 0
M  V30 1921 H 177.307 -1.52473 3.8748 0
M  V30 1922 H 179.904 -4.23747 3.26102 0
M  V30 1923 H 180.247 -3.84578 1.59391 0
M  V30 1924 H 180.78 -2.74021 2.8837 0
M  V30 1925 H 177.519 -2.90355 5.87685 0
M  V30 1926 H 177.039 -3.94546 4.51767 0
M  V30 1927 H 178.718 -3.9663 5.11169 0
M  V30 1928 N 178.85 -1.27639 -0.924453 0
M  V30 1929 C 180.08 -1.16819 -1.70402 0
M  V30 1930 C 180.488 0.277191 -1.87158 0
M  V30 1931 O 179.831 1.20025 -1.39067 0
M  V30 1932 C 179.893 -1.78305 -3.12166 0
M  V30 1933 C 179.557 -3.27502 -3.18734 0
M  V30 1934 C 180.554 -4.2409 -3.00738 0
M  V30 1935 C 178.239 -3.68269 -3.4159 0
M  V30 1936 C 180.233 -5.59422 -3.05492 0
M  V30 1937 C 177.92 -5.0373 -3.45977 0
M  V30 1938 C 178.918 -5.99116 -3.27946 0
M  V30 1939 O 178.606 -7.32108 -3.32074 0
M  V30 1940 H 178.338 -0.406931 -0.539799 0
M  V30 1941 H 180.892 -1.69078 -1.16626 0
M  V30 1942 H 179.122 -1.20528 -3.67437 0
M  V30 1943 H 180.811 -1.62154 -3.72103 0
M  V30 1944 H 181.577 -3.93931 -2.82919 0
M  V30 1945 H 177.456 -2.94496 -3.54673 0
M  V30 1946 H 181 -6.33852 -2.91337 0
M  V30 1947 H 176.897 -5.33543 -3.63321 0
M  V30 1948 H 177.665 -7.40598 -3.48507 0
M  V30 1949 N 180.328 1.1314 -1.09713 0
M  V30 1950 C 181.275 2.18642 -0.739196 0
M  V30 1951 C 182.245 1.63706 0.280978 0
M  V30 1952 O 183.43 1.90111 0.161946 0
M  V30 1953 C 180.57 3.44685 -0.169102 0
M  V30 1954 C 179.683 4.13711 -1.24367 0
M  V30 1955 C 178.818 5.27379 -0.636019 0
M  V30 1956 C 177.857 5.88259 -1.69169 0
M  V30 1957 N 176.994 6.93352 -1.10485 0
M  V30 1958 H 181.834 2.48607 -1.64312 0
M  V30 1959 H 179.371 1.22066 -0.820875 0
M  V30 1960 H 181.329 4.16815 0.179256 0
M  V30 1961 H 179.959 3.15161 0.698079 0
M  V30 1962 H 179.011 3.39835 -1.70927 0
M  V30 1963 H 180.323 4.55037 -2.04311 0
M  V30 1964 H 179.477 6.06238 -0.236677 0
M  V30 1965 H 178.216 4.8731 0.194928 0
M  V30 1966 H 177.221 5.08092 -2.10055 0
M  V30 1967 H 178.446 6.30399 -2.52536 0
M  V30 1968 H 176.392 6.55335 -0.295234 0
M  V30 1969 H 176.309 7.33236 -1.84121 0
M  V30 1970 H 177.577 7.76057 -0.73181 0
M  V30 1971 N 181.806 0.884767 1.30421 0
M  V30 1972 C 183.054 0.502112 1.95763 0
M  V30 1973 C 183.375 -0.951815 1.70192 0
M  V30 1974 O 182.645 -1.6692 1.0254 0
M  V30 1975 H 181.225 0.182694 0.724315 0
M  V30 1976 H 183.887 1.1278 1.58955 0
M  V30 1977 H 182.983 0.672188 3.04775 0
M  V30 1978 N 183.284 -1.43765 0.645699 0
M  V30 1979 C 184.532 -2.01499 0.155731 0
M  V30 1980 C 184.853 -1.51151 -1.232 0
M  V30 1981 O 184.123 -0.721044 -1.82148 0
M  V30 1982 H 182.703 -0.745003 0.0545817 0
M  V30 1983 H 185.365 -1.76075 0.835677 0
M  V30 1984 H 184.461 -3.1181 0.134577 0
M  V30 1985 N 184.763 -0.387143 -1.52771 0
M  V30 1986 C 186.04 0.253197 -1.93954 0
M  V30 1987 C 186.42 1.64545 -1.32243 0
M  V30 1988 O 185.768 2.23191 -0.489699 0
M  V30 1989 C 185.978 0.281722 -3.47861 0
M  V30 1990 C 187.326 0.511715 -4.21505 0
M  V30 1991 O 188.35 0.362023 -3.54356 0
M  V30 1992 O 187.209 0.804847 -5.40541 0
M  V30 1993 H 184.303 0.156845 -0.811991 0
M  V30 1994 H 186.849 -0.441494 -1.63856 0
M  V30 1995 H 185.621 -0.693571 -3.85104 0
M  V30 1996 H 185.244 1.02142 -3.84256 0
M  V30 1997 N 186.241 1.57166 -0.116904 0
M  V30 1998 C 187.151 2.18745 0.847812 0
M  V30 1999 C 188.167 1.163 1.29423 0
M  V30 2000 O 189.343 1.48761 1.35765 0
M  V30 2001 C 186.408 2.77307 2.0809 0
M  V30 2002 C 185.469 3.94781 1.68661 0
M  V30 2003 C 184.702 4.50541 2.86091 0
M  V30 2004 O 184.925 4.05202 4.01456 0
M  V30 2005 O 183.859 5.41256 2.63298 0
M  V30 2006 H 187.685 3.01632 0.353778 0
M  V30 2007 H 185.27 1.49005 0.108599 0
M  V30 2008 H 187.152 3.14647 2.80313 0
M  V30 2009 H 185.827 1.97452 2.56504 0
M  V30 2010 H 184.734 3.62214 0.935518 0
M  V30 2011 H 186.067 4.76065 1.24991 0
M  V30 2012 N 187.719 -0.156864 1.56817 0
M  V30 2013 C 188.949 -0.885031 1.86684 0
M  V30 2014 C 189.357 -1.75696 0.701954 0
M  V30 2015 O 188.7 -1.80569 -0.337732 0
M  V30 2016 C 188.762 -1.80092 3.11138 0
M  V30 2017 C 188.426 -1.10714 4.43386 0
M  V30 2018 C 189.423 -0.465714 5.1781 0
M  V30 2019 C 187.108 -1.09959 4.90117 0
M  V30 2020 C 189.102 0.174002 6.37162 0
M  V30 2021 C 186.789 -0.456055 6.09396 0
M  V30 2022 C 187.787 0.179622 6.82764 0
M  V30 2023 O 187.475 0.812975 7.99779 0
M  V30 2024 H 187.207 -0.261813 0.623242 0
M  V30 2025 H 189.761 -0.157383 2.04796 0
M  V30 2026 H 187.991 -2.56926 2.89009 0
M  V30 2027 H 189.68 -2.40018 3.27332 0
M  V30 2028 H 190.446 -0.463427 4.82781 0
M  V30 2029 H 186.325 -1.58378 4.3294 0
M  V30 2030 H 189.869 0.670765 6.94368 0
M  V30 2031 H 185.766 -0.455975 6.43888 0
M  V30 2032 H 186.534 0.71366 8.15383 0
M  V30 2033 N 189.197 -1.51736 -0.425897 0
M  V30 2034 C 190.474 -1.55519 -1.1863 0
M  V30 2035 C 190.854 -0.326219 -2.08564 0
M  V30 2036 O 190.202 0.688012 -2.17896 0
M  V30 2037 C 190.412 -2.87521 -1.9782 0
M  V30 2038 C 191.76 -3.39899 -2.54468 0
M  V30 2039 O 192.784 -2.89148 -2.08019 0
M  V30 2040 O 191.643 -4.2848 -3.39215 0
M  V30 2041 H 188.737 -0.625739 -0.540721 0
M  V30 2042 H 191.283 -1.64055 -0.434038 0
M  V30 2043 H 190.055 -3.68422 -1.31836 0
M  V30 2044 H 189.678 -2.822 -2.80088 0
M  V30 2045 N 190.675 0.682077 -1.42076 0
M  V30 2046 C 191.623 1.81707 -1.45208 0
M  V30 2047 C 192.617 1.66183 -0.328591 0
M  V30 2048 O 193.823 1.7288 -0.501264 0
M  V30 2049 H 190.198 0.599014 -0.454628 0
M  V30 2050 H 192.169 1.76183 -2.40836 0
M  V30 2051 C 190.918 3.19816 -1.36428 0
M  V30 2052 H 190.241 3.32385 -2.22171 0
M  V30 2053 H 191.681 3.99272 -1.42681 0
M  V30 2054 C 190.14 3.36809 -0.078191 0
M  V30 2055 O 190.67 3.92124 0.87188 0
M  V30 2056 N 188.876 2.906 0.00229266 0
M  V30 2057 H 188.423 2.45772 -0.771616 0
M  V30 2058 H 188.381 3.02347 0.862179 0
M  V30 2059 N 192.153 1.28127 0.917671 0
M  V30 2060 C 193.103 1.08361 2.00604 0
M  V30 2061 C 194.087 0.00847518 1.60898 0
M  V30 2062 O 195.279 0.228167 1.75523 0
M  V30 2063 C 192.408 0.743376 3.35155 0
M  V30 2064 C 191.494 1.85716 3.81275 0
M  V30 2065 N 191.885 3.09822 3.99805 0
M  V30 2066 C 190.183 1.74612 4.10398 0
M  V30 2067 C 190.884 3.82368 4.38372 0
M  V30 2068 N 189.86 3.10192 4.4641 0
M  V30 2069 H 193.662 2.02531 2.12975 0
M  V30 2070 H 191.176 1.18989 1.10523 0
M  V30 2071 H 193.173 0.582859 4.12805 0
M  V30 2072 H 191.833 -0.190595 3.2414 0
M  V30 2073 H 192.844 3.45475 3.85833 0
M  V30 2074 H 189.521 0.883657 4.08041 0
M  V30 2075 H 190.911 4.89082 4.60704 0
M  V30 2076 N 193.631 -1.12557 1.10312 0
M  V30 2077 C 194.871 -1.8568 0.854543 0
M  V30 2078 C 195.235 -1.82091 -0.608843 0
M  V30 2079 O 196.436 -2.50544 -0.973717 0
M  V30 2080 C 194.707 -3.2942 1.38626 0
M  V30 2081 S 196.266 -4.19931 1.27293 0
M  V30 2082 H 193.084 -0.640427 0.308827 0
M  V30 2083 H 195.686 -1.35599 1.40831 0
M  V30 2084 H 194.39 -3.2959 2.44537 0
M  V30 2085 H 193.921 -3.84566 0.82902 0
M  V30 2086 H 195.936 -4.95668 0.229776 0
M  V30 2087 N 195.109 -0.891671 -1.2995 0
M  V30 2088 C 196.357 -0.512486 -1.95494 0
M  V30 2089 C 196.678 0.942776 -1.70695 0
M  V30 2090 O 195.948 1.66374 -1.03424 0
M  V30 2091 H 194.528 -0.186533 -0.723336 0
M  V30 2092 H 197.19 -1.13621 -1.58355 0
M  V30 2093 H 196.286 -0.688342 -3.04415 0
M  V30 2094 N 196.587 1.43421 -0.653314 0
M  V30 2095 C 197.534 2.30768 0.0382271 0
M  V30 2096 C 198.504 1.44755 0.814576 0
M  V30 2097 O 199.689 1.73624 0.791162 0
M  V30 2098 C 196.829 3.30336 0.998599 0
M  V30 2099 C 195.942 4.31448 0.218342 0
M  V30 2100 C 195.077 5.18098 1.17252 0
M  V30 2101 C 194.116 6.10902 0.382702 0
M  V30 2102 N 193.253 6.90176 1.28848 0
M  V30 2103 H 198.093 2.89357 -0.712511 0
M  V30 2104 H 195.63 1.42548 -0.363128 0
M  V30 2105 H 197.588 3.86572 1.56901 0
M  V30 2106 H 196.218 2.73397 1.71621 0
M  V30 2107 H 195.27 3.77506 -0.46836 0
M  V30 2108 H 196.582 4.97227 -0.395812 0
M  V30 2109 H 195.736 5.7896 1.81356 0
M  V30 2110 H 194.475 4.52444 1.82058 0
M  V30 2111 H 193.48 5.49128 -0.27169 0
M  V30 2112 H 194.705 6.78598 -0.260957 0
M  V30 2113 H 192.651 6.27171 1.92334 0
M  V30 2114 H 192.568 7.52478 0.728887 0
M  V30 2115 H 193.836 7.55543 1.91766 0
M  V30 2116 N 198.065 0.39524 1.52563 0
M  V30 2117 C 198.975 -0.444232 2.30356 0
M  V30 2118 C 199.991 -1.06615 1.37511 0
M  V30 2119 O 201.167 -1.07067 1.70583 0
M  V30 2120 C 198.232 -1.55315 3.09964 0
M  V30 2121 C 197.293 -0.955734 4.18526 0
M  V30 2122 C 196.526 -2.01181 4.9433 0
M  V30 2123 O 196.749 -3.22781 4.70285 0
M  V30 2124 O 195.683 -1.62579 5.79527 0
M  V30 2125 H 199.509 0.189667 3.03107 0
M  V30 2126 H 197.094 0.1588 1.48554 0
M  V30 2127 H 198.976 -2.19724 3.59582 0
M  V30 2128 H 197.651 -2.17191 2.4002 0
M  V30 2129 H 196.558 -0.274743 3.7309 0
M  V30 2130 H 197.891 -0.381109 4.90722 0
M  V30 2131 N 199.544 -1.57102 0.125237 0
M  V30 2132 C 200.476 -2.12726 -0.853237 0
M  V30 2133 C 201.489 -1.07145 -1.22571 0
M  V30 2134 O 202.678 -1.34497 -1.17358 0
M  V30 2135 C 199.778 -2.61709 -2.15317 0
M  V30 2136 C 198.951 -3.91456 -1.95143 0
M  V30 2137 C 198.01 -4.25973 -3.08923 0
M  V30 2138 O 197.036 -4.94682 -2.81564 0
M  V30 2139 N 198.238 -3.83795 -4.35524 0
M  V30 2140 H 201.003 -2.97307 -0.377964 0
M  V30 2141 H 198.564 -1.61792 -0.0590011 0
M  V30 2142 H 200.556 -2.81826 -2.90441 0
M  V30 2143 H 199.126 -1.81974 -2.54174 0
M  V30 2144 H 198.346 -3.80185 -1.04177 0
M  V30 2145 H 199.634 -4.76283 -1.78976 0
M  V30 2146 H 199.032 -3.2839 -4.60626 0
M  V30 2147 H 197.589 -4.09008 -5.07499 0
M  V30 2148 N 201.022 0.148545 -1.56898 0
M  V30 2149 C 202.438 0.501131 -1.51528 0
M  V30 2150 C 202.638 1.83458 -0.833399 0
M  V30 2151 O 201.694 2.49259 -0.40328 0
M  V30 2152 C 203.007 0.512864 -2.96294 0
M  V30 2153 C 204.555 0.598487 -3.07225 0
M  V30 2154 C 205.03 0.640897 -4.53494 0
M  V30 2155 N 206.521 0.703163 -4.57832 0
M  V30 2156 C 207.256 0.756935 -5.68382 0
M  V30 2157 N 206.752 0.770147 -6.88506 0
M  V30 2158 N 208.545 0.797698 -5.56411 0
M  V30 2159 H 200.696 -0.725532 -1.99624 0
M  V30 2160 H 202.959 -0.264358 -0.910395 0
M  V30 2161 H 202.665 -0.398691 -3.49433 0
M  V30 2162 H 202.539 1.35133 -3.52163 0
M  V30 2163 H 204.926 1.50046 -2.54106 0
M  V30 2164 H 205.007 -0.267093 -2.54402 0
M  V30 2165 H 204.651 -0.256915 -5.0725 0
M  V30 2166 H 204.581 1.52295 -5.04097 0
M  V30 2167 H 207.072 0.700314 -3.71354 0
M  V30 2168 H 207.385 0.812983 -7.68512 0
M  V30 2169 H 205.73 0.738049 -6.9107 0
M  V30 2170 H 208.921 0.784535 -4.61479 0
M  V30 2171 H 209.094 0.83614 -6.42583 0
M  V30 2172 N 202.5 1.5196 0.417844 0
M  V30 2173 C 203.916 1.40569 0.755816 0
M  V30 2174 C 204.116 0.503316 1.95113 0
M  V30 2175 O 203.172 -0.0341925 2.52477 0
M  V30 2176 C 204.485 2.82947 1.01791 0
M  V30 2177 C 206.033 2.92231 1.12116 0
M  V30 2178 C 206.508 4.35559 1.41608 0
M  V30 2179 N 207.999 4.38753 1.48491 0
M  V30 2180 C 208.734 5.46705 1.7292 0
M  V30 2181 N 208.23 6.64788 1.95011 0
M  V30 2182 N 210.023 5.34209 1.74863 0
M  V30 2183 H 202.174 2.09168 -0.369098 0
M  V30 2184 H 204.437 0.942409 -0.102809 0
M  V30 2185 H 204.143 3.5106 0.212081 0
M  V30 2186 H 204.017 3.23462 1.94042 0
M  V30 2187 H 206.404 2.24304 1.9176 0
M  V30 2188 H 206.485 2.55185 0.177225 0
M  V30 2189 H 206.129 5.04042 0.624848 0
M  V30 2190 H 206.059 4.70133 2.37239 0
M  V30 2191 H 208.55 3.5363 1.33244 0
M  V30 2192 H 208.863 7.42845 2.13076 0
M  V30 2193 H 207.208 6.67869 1.92293 0
M  V30 2194 H 210.399 4.40937 1.57137 0
M  V30 2195 H 210.572 6.18415 1.93563 0
M  V30 2196 N 203.978 -0.674533 1.42435 0
M  V30 2197 C 204.941 -1.76986 1.45632 0
M  V30 2198 C 205.941 -1.5708 0.343871 0
M  V30 2199 O 207.131 -1.63367 0.604709 0
M  V30 2200 C 204.263 -3.15623 1.28822 0
M  V30 2201 H 205.456 -1.75539 2.43158 0
M  V30 2202 H 203.009 -0.884189 1.28887 0
M  V30 2203 H 203.744 -3.22696 0.322193 0
M  V30 2204 H 203.529 -3.31475 2.09444 0
M  V30 2205 H 205.019 -3.95537 1.33942 0
M  V30 2206 N 205.456 -1.28612 -0.910864 0
M  V30 2207 C 206.702 -1.16106 -1.66274 0
M  V30 2208 C 207.035 0.289113 -1.92036 0
M  V30 2209 O 206.31 1.21 -1.52281 0
M  V30 2210 C 206.593 -1.96309 -3.01885 0
M  V30 2211 C 206.446 -3.49405 -2.8326 0
M  V30 2212 C 207.765 -1.78076 -4.02463 0
M  V30 2213 H 204.884 -0.423152 -0.603417 0
M  V30 2214 H 207.526 -1.57961 -1.05586 0
M  V30 2215 H 205.676 -1.60742 -3.53687 0
M  V30 2216 H 207.348 -3.94894 -2.38446 0
M  V30 2217 H 205.591 -3.74893 -2.18261 0
M  V30 2218 H 206.262 -4.00784 -3.79574 0
M  V30 2219 H 208.738 -2.0912 -3.59733 0
M  V30 2220 H 207.614 -2.36561 -4.95308 0
M  V30 2221 H 207.875 -0.733008 -4.35981 0
M  V30 2222 N 206.934 1.1197 -1.10907 0
M  V30 2223 C 208.18 1.8386 -0.855773 0
M  V30 2224 C 208.513 1.84134 0.617103 0
M  V30 2225 O 207.788 1.29041 1.45529 0
M  V30 2226 C 208.071 3.31305 -1.411 0
M  V30 2227 C 207.924 3.39456 -2.9511 0
M  V30 2228 C 209.243 4.2721 -1.05736 0
M  V30 2229 H 206.362 0.667545 -0.312334 0
M  V30 2230 H 209.004 1.31331 -1.37303 0
M  V30 2231 H 207.154 3.76169 -0.97105 0
M  V30 2232 H 208.826 3.03191 -3.47668 0
M  V30 2233 H 207.069 2.79849 -3.31462 0
M  V30 2234 H 207.74 4.43209 -3.29044 0
M  V30 2235 H 210.216 3.90497 -1.43706 0
M  V30 2236 H 209.092 5.28775 -1.47269 0
M  V30 2237 H 209.353 4.42088 0.0325958 0
M  V30 2238 N 208.412 0.89855 1.29475 0
M  V30 2239 C 209.345 0.319981 2.25945 0
M  V30 2240 C 210.323 -0.567189 1.52387 0
M  V30 2241 O 211.507 -0.514254 1.8135 0
M  V30 2242 C 208.634 -0.544013 3.34303 0
M  V30 2243 C 207.68 0.275682 4.25608 0
M  V30 2244 S 208.513 1.67272 5.08704 0
M  V30 2245 C 209.669 0.815621 6.20563 0
M  V30 2246 H 209.902 1.13767 2.74671 0
M  V30 2247 H 207.435 0.69882 1.3768 0
M  V30 2248 H 209.393 -1.03673 3.97193 0
M  V30 2249 H 208.054 -1.33593 2.84274 0
M  V30 2250 H 207.247 -0.384263 5.02533 0
M  V30 2251 H 206.849 0.701496 3.67362 0
M  V30 2252 H 209.141 0.0385042 6.77489 0
M  V30 2253 H 210.084 1.55691 6.90772 0
M  V30 2254 H 210.492 0.370516 5.63283 0
M  V30 2255 N 209.89 -1.43072 0.660911 0
M  V30 2256 C 211.139 -2.00942 0.174735 0
M  V30 2257 C 211.452 -1.52797 -1.22117 0
M  V30 2258 O 212.658 -2.02991 -1.80297 0
M  V30 2259 C 211.114 -3.58948 0.261559 0
M  V30 2260 C 210.722 -4.16085 1.66064 0
M  V30 2261 C 212.466 -4.24173 -0.166617 0
M  V30 2262 C 210.373 -5.6641 1.70098 0
M  V30 2263 H 209.303 -0.751483 0.0615631 0
M  V30 2264 H 211.954 -1.63955 0.824069 0
M  V30 2265 H 210.336 -3.93372 -0.455421 0
M  V30 2266 H 211.51 -3.93147 2.40359 0
M  V30 2267 H 209.825 -3.6326 2.03546 0
M  V30 2268 H 212.422 -5.34471 -0.156433 0
M  V30 2269 H 212.765 -3.98647 -1.19943 0
M  V30 2270 H 213.298 -3.94659 0.498875 0
M  V30 2271 H 210.037 -5.96715 2.71315 0
M  V30 2272 H 209.557 -5.91382 1.00139 0
M  V30 2273 H 211.236 -6.30585 1.44816 0
M  V30 2274 N 211.368 -0.403325 -1.52352 0
M  V30 2275 C 212.593 0.176499 -2.06648 0
M  V30 2276 C 213.018 1.38577 -1.27193 0
M  V30 2277 O 212.376 1.7879 -0.300637 0
M  V30 2278 C 212.424 0.511061 -3.5696 0
M  V30 2279 O 211.528 1.60294 -3.79973 0
M  V30 2280 H 210.869 0.0167337 -0.663789 0
M  V30 2281 H 213.399 -0.574848 -1.96359 0
M  V30 2282 H 213.409 0.771362 -4.00642 0
M  V30 2283 H 212.084 -0.37296 -4.14224 0
M  V30 2284 H 210.661 1.33526 -3.48174 0
M  V30 2285 N 212.846 1.57033 -0.133567 0
M  V30 2286 C 214.086 1.97575 0.523789 0
M  V30 2287 C 214.45 1.01605 1.62912 0
M  V30 2288 O 215.651 1.3114 2.3464 0
M  V30 2289 C 213.922 3.42256 1.02935 0
M  V30 2290 S 215.481 4.04817 1.69319 0
M  V30 2291 H 212.299 0.690427 0.169799 0
M  V30 2292 H 214.901 1.94234 -0.222101 0
M  V30 2293 H 213.605 4.09842 0.213917 0
M  V30 2294 H 213.136 3.4928 1.81017 0
M  V30 2295 H 215.151 3.96767 2.97977 0
M  V30 2296 N 214.325 -0.140222 1.56975 0
M  V30 2297 C 215.273 -1.19207 1.99731 0
M  V30 2298 C 216.267 -1.44089 0.890777 0
M  V30 2299 O 217.473 -1.44301 1.07597 0
M  V30 2300 H 213.848 -0.40142 0.635898 0
M  V30 2301 H 215.819 -0.804813 2.87342 0
M  V30 2302 C 214.568 -2.51617 2.39967 0
M  V30 2303 H 213.891 -2.33303 3.24669 0
M  V30 2304 H 215.331 -3.23827 2.73701 0
M  V30 2305 C 213.79 -3.12654 1.25496 0
M  V30 2306 O 214.32 -3.97786 0.559371 0
M  V30 2307 N 212.526 -2.72206 1.01746 0
M  V30 2308 H 212.073 -2.03074 1.58489 0
M  V30 2309 H 212.031 -3.13377 0.253461 0
M  V30 2310 N 215.803 -1.52179 -0.40978 0
M  V30 2311 C 217.219 -1.40968 -0.74835 0
M  V30 2312 C 217.419 -0.513657 -1.94843 0
M  V30 2313 O 216.475 0.0208026 -2.52491 0
M  V30 2314 C 217.788 -2.83483 -1.0029 0
M  V30 2315 C 219.336 -2.92821 -1.10565 0
M  V30 2316 C 219.811 -4.36303 -1.39296 0
M  V30 2317 N 221.302 -4.39535 -1.46162 0
M  V30 2318 C 222.037 -5.47614 -1.70018 0
M  V30 2319 N 221.533 -6.65812 -1.91483 0
M  V30 2320 N 223.326 -5.35129 -1.72027 0
M  V30 2321 H 215.477 -2.0897 0.380186 0
M  V30 2322 H 217.74 -0.94185 0.107805 0
M  V30 2323 H 217.446 -3.51168 -0.193461 0
M  V30 2324 H 217.32 -3.24487 -1.92323 0
M  V30 2325 H 219.707 -2.25318 -1.90568 0
M  V30 2326 H 219.788 -2.55276 -0.16369 0
M  V30 2327 H 219.432 -5.04366 -0.598109 0
M  V30 2328 H 219.362 -4.71385 -2.34743 0
M  V30 2329 H 221.853 -3.54332 -1.31367 0
M  V30 2330 H 222.166 -7.43964 -2.09134 0
M  V30 2331 H 220.511 -6.68879 -1.88749 0
M  V30 2332 H 223.702 -4.41764 -1.54796 0
M  V30 2333 H 223.875 -6.19433 -1.9028 0
M  V30 2334 N 217.281 0.66697 -1.42791 0
M  V30 2335 C 218.231 1.77313 -1.43332 0
M  V30 2336 C 219.215 1.5801 -0.303586 0
M  V30 2337 O 220.407 1.68356 -0.546385 0
M  V30 2338 C 217.536 3.15822 -1.34578 0
M  V30 2339 C 216.622 3.40721 -2.52528 0
M  V30 2340 N 217.013 3.36162 -3.77927 0
M  V30 2341 C 215.311 3.71387 -2.46956 0
M  V30 2342 C 216.012 3.60762 -4.56318 0
M  V30 2343 N 214.988 3.81908 -3.86843 0
M  V30 2344 H 218.79 1.72193 -2.38174 0
M  V30 2345 H 216.304 0.868114 -1.3725 0
M  V30 2346 H 218.301 3.951 -1.33048 0
M  V30 2347 H 216.961 3.22133 -0.407453 0
M  V30 2348 H 217.972 3.15885 -4.10411 0
M  V30 2349 H 214.649 3.84897 -1.61743 0
M  V30 2350 H 216.039 3.63132 -5.65318 0
M  V30 2351 N 218.759 1.29093 0.90403 0
M  V30 2352 C 219.987 1.19689 1.68766 0
M  V30 2353 C 220.402 -0.243113 1.87228 0
M  V30 2354 O 219.759 -1.16326 1.40621 0
M  V30 2355 C 219.81 1.90144 3.07453 0
M  V30 2356 O 219.531 3.2852 2.89838 0
M  V30 2357 C 221.032 1.87162 4.01852 0
M  V30 2358 H 218.252 0.415035 0.527244 0
M  V30 2359 H 220.796 1.7039 1.13082 0
M  V30 2360 H 218.951 1.43289 3.59926 0
M  V30 2361 H 219.365 3.63944 3.77684 0
M  V30 2362 H 220.839 2.41032 4.96596 0
M  V30 2363 H 221.316 0.84617 4.30972 0
M  V30 2364 H 221.922 2.33741 3.5531 0
M  V30 2365 N 220.237 -1.11381 1.11499 0
M  V30 2366 C 221.167 -2.19509 0.796125 0
M  V30 2367 C 222.148 -1.68458 -0.235796 0
M  V30 2368 O 223.333 -1.93947 -0.0991344 0
M  V30 2369 C 220.463 -3.46475 0.239205 0
M  V30 2370 C 219.417 -4.10744 1.20307 0
M  V30 2371 C 218.743 -5.32293 0.50683 0
M  V30 2372 C 220.043 -4.55597 2.55399 0
M  V30 2373 H 221.737 -2.46439 1.70024 0
M  V30 2374 H 219.283 -1.18446 0.818935 0
M  V30 2375 H 221.236 -4.214 0.00392006 0
M  V30 2376 H 219.96 -3.19006 -0.700206 0
M  V30 2377 H 218.619 -3.37813 1.42399 0
M  V30 2378 H 218.267 -5.01095 -0.437408 0
M  V30 2379 H 217.967 -5.76243 1.1497 0
M  V30 2380 H 219.491 -6.09956 0.280351 0
M  V30 2381 H 220.905 -5.21841 2.37391 0
M  V30 2382 H 219.302 -5.10363 3.15673 0
M  V30 2383 H 220.372 -3.69013 3.14575 0
M  V30 2384 N 221.715 -0.905404 -1.28997 0
M  V30 2385 C 222.678 -0.392253 -2.25819 0
M  V30 2386 C 223.678 0.476753 -1.5357 0
M  V30 2387 O 224.868 0.280994 -1.71919 0
M  V30 2388 C 222 0.438588 -3.38067 0
M  V30 2389 H 223.193 -1.24743 -2.72725 0
M  V30 2390 H 220.746 -0.684051 -1.40536 0
M  V30 2391 H 221.481 1.31352 -2.96508 0
M  V30 2392 H 221.266 -0.184167 -3.91667 0
M  V30 2393 H 222.756 0.78873 -4.10084 0
M  V30 2394 N 223.193 1.4272 -0.668489 0
M  V30 2395 C 224.47 1.95248 -0.117373 0
M  V30 2396 C 224.85 1.60919 1.36632 0
M  V30 2397 O 224.198 0.902095 2.09939 0
M  V30 2398 C 224.408 3.46927 -0.379806 0
M  V30 2399 C 225.756 4.23588 -0.292923 0
M  V30 2400 O 226.78 3.5482 -0.313204 0
M  V30 2401 O 225.639 5.46017 -0.229697 0
M  V30 2402 H 222.733 0.827 0.00079152 0
M  V30 2403 H 225.279 1.52581 -0.742783 0
M  V30 2404 H 224.051 3.65096 -1.40786 0
M  V30 2405 H 223.674 3.96627 0.277923 0
M  V30 2406 N 224.671 0.411399 1.52136 0
M  V30 2407 C 225.619 -0.427633 2.28635 0
M  V30 2408 C 226.613 -1.04383 1.33419 0
M  V30 2409 O 227.819 -0.981772 1.50868 0
M  V30 2410 H 224.194 -0.156689 0.735495 0
M  V30 2411 H 226.165 0.238761 2.97443 0
M  V30 2412 C 224.914 -1.53082 3.12188 0
M  V30 2413 H 224.237 -1.06601 3.85326 0
M  V30 2414 H 225.677 -2.09167 3.68816 0
M  V30 2415 C 224.136 -2.49946 2.25895 0
M  V30 2416 O 224.666 -3.53884 1.90076 0
M  V30 2417 N 222.872 -2.2021 1.8962 0
M  V30 2418 H 222.419 -1.35719 2.18948 0
M  V30 2419 H 222.377 -2.85266 1.32176 0
M  V30 2420 N 226.149 -1.5696 0.141893 0
M  V30 2421 C 227.396 -1.9596 -0.510492 0
M  V30 2422 C 227.724 -1.02648 -1.65208 0
M  V30 2423 O 226.979 -0.0546947 -1.95624 0
M  V30 2424 C 227.278 -3.41242 -1.06249 0
M  V30 2425 C 226.944 -4.50882 -0.0398791 0
M  V30 2426 C 225.606 -4.80595 0.241247 0
M  V30 2427 C 227.958 -5.17058 0.65578 0
M  V30 2428 C 225.286 -5.73792 1.22393 0
M  V30 2429 C 227.638 -6.11313 1.62724 0
M  V30 2430 C 226.302 -6.39407 1.91612 0
M  V30 2431 H 225.572 -0.717068 -0.186802 0
M  V30 2432 H 228.219 -1.90142 0.227643 0
M  V30 2433 H 226.524 -3.43866 -1.87785 0
M  V30 2434 H 228.221 -3.68742 -1.57576 0
M  V30 2435 H 224.811 -4.27754 -0.269174 0
M  V30 2436 H 228.995 -4.94239 0.451779 0
M  V30 2437 H 224.251 -5.93853 1.45424 0
M  V30 2438 H 228.425 -6.61668 2.17183 0
M  V30 2439 H 226.052 -7.11427 2.6791 0
M  V30 2440 N 227.627 0.131896 -1.57047 0
M  V30 2441 C 228.575 1.18146 -2.0036 0
M  V30 2442 C 229.569 1.43614 -0.898406 0
M  V30 2443 O 230.775 1.43729 -1.08361 0
M  V30 2444 H 227.15 0.398042 -0.638018 0
M  V30 2445 H 229.121 0.789564 -2.87765 0
M  V30 2446 C 227.87 2.50341 -2.41298 0
M  V30 2447 H 227.193 2.31578 -3.25902 0
M  V30 2448 H 228.633 3.22371 -2.75414 0
M  V30 2449 C 227.092 3.11984 -1.27153 0
M  V30 2450 O 227.622 3.97484 -0.580459 0
M  V30 2451 N 225.828 2.71662 -1.03189 0
M  V30 2452 H 225.375 2.02231 -1.59564 0
M  V30 2453 H 225.333 3.13238 -0.270077 0
M  V30 2454 N 229.106 1.52395 0.401703 0
M  V30 2455 C 230.517 1.58899 0.980202 0
M  V30 2456 C 230.868 0.434032 1.91339 0
M  V30 2457 O 229.993 -0.444619 2.11783 0
M  V30 2458 C 230.588 2.87994 1.78451 0
M  V30 2459 C 229.147 2.96953 2.31292 0
M  V30 2460 C 228.294 2.53903 1.11483 0
M  V30 2461 H 231.245 1.57657 0.18168 0
M  V30 2462 H 231.266 2.73765 2.64259 0
M  V30 2463 H 230.778 3.72035 1.10506 0
M  V30 2464 H 228.879 2.17422 3.02586 0
M  V30 2465 H 228.992 4.01344 2.61649 0
M  V30 2466 H 227.356 2.07925 1.47104 0
M  V30 2467 H 228.139 3.40326 0.450928 0
M  V30 2468 N 230.584 -0.659388 1.43143 0
M  V30 2469 C 231.83 -1.42145 1.44647 0
M  V30 2470 C 232.163 -1.9408 0.0681907 0
M  V30 2471 O 231.438 -1.71899 -0.910007 0
M  V30 2472 C 231.721 -2.60735 2.48373 0
M  V30 2473 C 231.574 -2.14332 3.95451 0
M  V30 2474 C 232.893 -3.62951 2.48906 0
M  V30 2475 H 230.012 -0.51552 0.526696 0
M  V30 2476 H 232.654 -0.748069 1.74654 0
M  V30 2477 H 230.804 -3.18184 2.22916 0
M  V30 2478 H 232.476 -1.61932 4.31944 0
M  V30 2479 H 230.719 -1.4576 4.08578 0
M  V30 2480 H 231.39 -2.99583 4.63631 0
M  V30 2481 H 233.866 -3.1525 2.71582 0
M  V30 2482 H 232.742 -4.43487 3.23435 0
M  V30 2483 H 233.003 -4.15126 1.52061 0
M  V30 2484 N 232.062 -1.29571 -0.897171 0
M  V30 2485 C 233.287 -1.20705 -1.68656 0
M  V30 2486 C 233.712 0.228582 -1.86706 0
M  V30 2487 O 233.07 1.16494 -1.3892 0
M  V30 2488 C 233.118 -1.9282 -3.04717 0
M  V30 2489 O 232.222 -1.24697 -3.93096 0
M  V30 2490 H 231.563 -0.418126 -0.515816 0
M  V30 2491 H 234.093 -1.71183 -1.12061 0
M  V30 2492 H 234.103 -2.01372 -3.54843 0
M  V30 2493 H 232.778 -2.97239 -2.90899 0
M  V30 2494 H 231.355 -1.2442 -3.51531 0
M  V30 2495 N 233.54 1.10788 -1.12088 0
M  V30 2496 C 234.45 2.20599 -0.798338 0
M  V30 2497 C 235.466 1.72712 0.21135 0
M  V30 2498 O 236.642 2.01348 0.0458477 0
M  V30 2499 C 233.707 3.45771 -0.253674 0
M  V30 2500 C 232.768 4.08411 -1.32283 0
M  V30 2501 C 232.001 5.27608 -0.80406 0
M  V30 2502 O 232.224 5.69241 0.363478 0
M  V30 2503 O 231.158 5.8101 -1.57198 0
M  V30 2504 H 234.984 2.50614 -1.7154 0
M  V30 2505 H 232.569 1.19454 -0.897275 0
M  V30 2506 H 234.451 4.21376 0.0453691 0
M  V30 2507 H 233.126 3.1739 0.636005 0
M  V30 2508 H 232.033 3.34507 -1.67499 0
M  V30 2509 H 233.366 4.40986 -2.18614 0
M  V30 2510 N 235.018 0.912232 1.28515 0
M  V30 2511 C 235.928 0.404506 2.31086 0
M  V30 2512 C 236.944 -0.50707 1.66448 0
M  V30 2513 O 238.12 -0.393624 1.97516 0
M  V30 2514 C 235.185 -0.348572 3.44943 0
M  V30 2515 C 234.246 0.59604 4.25142 0
M  V30 2516 C 233.479 -0.121194 5.33562 0
M  V30 2517 O 233.702 -1.34317 5.5436 0
M  V30 2518 O 232.636 0.542716 5.99448 0
M  V30 2519 H 236.462 1.25579 2.76521 0
M  V30 2520 H 234.047 0.676998 1.33181 0
M  V30 2521 H 235.929 -0.77395 4.14232 0
M  V30 2522 H 234.604 -1.17571 3.01594 0
M  V30 2523 H 233.511 1.07079 3.58448 0
M  V30 2524 H 234.844 1.38995 4.72167 0
M  V30 2525 N 236.496 -1.42363 0.676048 0
M  V30 2526 C 237.912 -1.55811 0.345718 0
M  V30 2527 C 238.112 -1.65544 -1.14879 0
M  V30 2528 O 237.168 -1.62306 -1.93424 0
M  V30 2529 C 238.481 -2.80746 1.07713 0
M  V30 2530 C 240.029 -2.9452 1.05958 0
M  V30 2531 C 240.504 -4.22318 1.77233 0
M  V30 2532 N 241.995 -4.29233 1.74108 0
M  V30 2533 C 242.73 -5.26935 2.26113 0
M  V30 2534 N 242.226 -6.30783 2.86505 0
M  V30 2535 N 244.019 -5.18741 2.1648 0
M  V30 2536 H 236.17 -1.34289 1.6456 0
M  V30 2537 H 238.433 -0.646506 0.69335 0
M  V30 2538 H 238.139 -2.79696 2.13221 0
M  V30 2539 H 238.013 -3.71676 0.64316 0
M  V30 2540 H 240.4 -2.95097 0.0128255 0
M  V30 2541 H 240.481 -2.04817 1.53244 0
M  V30 2542 H 240.125 -4.22502 2.81877 0
M  V30 2543 H 240.055 -5.10958 1.27396 0
M  V30 2544 H 242.546 -3.54814 1.30059 0
M  V30 2545 H 242.859 -7.01691 3.23805 0
M  V30 2546 H 241.204 -6.31341 2.90575 0
M  V30 2547 H 244.395 -4.36533 1.68987 0
M  V30 2548 H 244.568 -5.94721 2.57316 0
M  V30 2549 N 237.974 -0.419461 -1.51915 0
M  V30 2550 C 239.222 0.152637 -2.01523 0
M  V30 2551 C 239.543 1.44762 -1.30649 0
M  V30 2552 O 238.813 1.90997 -0.435535 0
M  V30 2553 H 237.393 0.0593966 -0.744635 0
M  V30 2554 H 240.055 -0.558073 -1.86739 0
M  V30 2555 H 239.151 0.341369 -3.10227 0
M  V30 2556 N 239.452 1.56882 -0.150215 0
M  V30 2557 C 240.399 2.16922 0.788244 0
M  V30 2558 C 241.369 1.10303 1.24187 0
M  V30 2559 O 242.554 1.38359 1.31383 0
M  V30 2560 C 239.694 2.79754 2.02068 0
M  V30 2561 C 238.807 4.00775 1.61257 0
M  V30 2562 C 237.942 4.51595 2.79705 0
M  V30 2563 C 236.981 5.65074 2.35282 0
M  V30 2564 N 236.118 6.10499 3.4675 0
M  V30 2565 H 240.958 2.96779 0.269444 0
M  V30 2566 H 238.495 1.46599 0.12128 0
M  V30 2567 H 240.453 3.14329 2.74323 0
M  V30 2568 H 239.083 2.02536 2.51354 0
M  V30 2569 H 238.135 3.72158 0.787553 0
M  V30 2570 H 239.447 4.82978 1.24633 0
M  V30 2571 H 238.601 4.88242 3.60145 0
M  V30 2572 H 237.34 3.68406 3.19576 0
M  V30 2573 H 236.345 5.28 1.53283 0
M  V30 2574 H 237.57 6.50052 1.96493 0
M  V30 2575 H 235.516 5.30243 3.86236 0
M  V30 2576 H 235.433 6.87637 3.14152 0
M  V30 2577 H 236.701 6.51791 4.27537 0
M  V30 2578 N 240.93 -0.123565 1.57115 0
M  V30 2579 C 242.176 -0.833386 1.84885 0
M  V30 2580 C 242.509 -1.79742 0.735292 0
M  V30 2581 O 241.784 -1.92764 -0.25925 0
M  V30 2582 C 242.067 -1.5873 3.23228 0
M  V30 2583 C 241.92 -0.643183 4.45178 0
M  V30 2584 C 243.239 -2.54453 3.59085 0
M  V30 2585 H 240.358 -0.301518 0.6725 0
M  V30 2586 H 243 -0.097778 1.89748 0
M  V30 2587 H 241.15 -2.21438 3.19214 0
M  V30 2588 H 242.822 -0.0253015 4.61293 0
M  V30 2589 H 241.065 0.0456139 4.33776 0
M  V30 2590 H 241.736 -1.20724 5.38637 0
M  V30 2591 H 244.212 -2.01853 3.63861 0
M  V30 2592 H 243.088 -3.04238 4.5687 0
M  V30 2593 H 243.349 -3.36906 2.86264 0
M  V30 2594 N 242.408 -1.52605 -0.393616 0
M  V30 2595 C 243.34 -1.73303 -1.49995 0
M  V30 2596 C 244.353 -0.613473 -1.50799 0
M  V30 2597 O 245.542 -0.889049 -1.54784 0
M  V30 2598 C 242.642 -1.77245 -2.88855 0
M  V30 2599 C 241.815 -3.06483 -3.12069 0
M  V30 2600 C 240.874 -3.02033 -4.30886 0
M  V30 2601 O 239.9 -3.75907 -4.27414 0
M  V30 2602 N 241.102 -2.20897 -5.36828 0
M  V30 2603 H 243.867 -2.68756 -1.32629 0
M  V30 2604 H 241.428 -1.51036 -0.583083 0
M  V30 2605 H 243.42 -1.7178 -3.66434 0
M  V30 2606 H 241.99 -0.891993 -2.99603 0
M  V30 2607 H 241.21 -3.25474 -2.22396 0
M  V30 2608 H 242.498 -3.91947 -3.2443 0
M  V30 2609 H 241.896 -1.60336 -5.42502 0
M  V30 2610 H 240.453 -2.21275 -6.13091 0
M  V30 2611 N 243.887 0.651787 -1.4349 0
M  V30 2612 C 245.164 1.40909 -1.35661 0
M  V30 2613 C 245.544 2.11099 -0.00511733 0
M  V30 2614 O 244.892 2.04892 1.0115 0
M  V30 2615 C 245.102 2.3926 -2.54078 0
M  V30 2616 C 246.45 3.03217 -2.97228 0
M  V30 2617 O 247.474 2.49588 -2.54135 0
M  V30 2618 O 246.333 4.00455 -3.71885 0
M  V30 2619 H 243.427 0.629625 -0.536191 0
M  V30 2620 H 245.973 0.678575 -1.55542 0
M  V30 2621 H 244.745 1.86352 -3.44076 0
M  V30 2622 H 244.368 3.1976 -2.36303 0
M  V30 2623 N 245.365 1.30045 0.890287 0
M  V30 2624 C 246.605 1.19839 1.65584 0
M  V30 2625 C 246.969 -0.244175 1.90441 0
M  V30 2626 O 248.17 -0.469378 2.6467 0
M  V30 2627 C 246.441 1.99876 2.96284 0
M  V30 2628 S 248 2.06309 3.87275 0
M  V30 2629 H 244.818 0.427157 0.568382 0
M  V30 2630 H 247.42 1.64453 1.05715 0
M  V30 2631 H 246.124 3.03809 2.75913 0
M  V30 2632 H 245.655 1.55903 3.61189 0
M  V30 2633 H 247.67 1.18661 4.81803 0
M  V30 2634 N 246.843 -1.10192 1.12674 0
M  V30 2635 C 248.09 -1.82205 0.883606 0
M  V30 2636 C 248.418 -1.8532 -0.590492 0
M  V30 2637 O 247.673 -1.31137 -1.45264 0
M  V30 2638 C 247.972 -3.28552 1.4067 0
M  V30 2639 C 247.638 -3.45582 2.89627 0
M  V30 2640 C 246.3 -3.49937 3.30299 0
M  V30 2641 C 248.652 -3.50768 3.85501 0
M  V30 2642 C 245.98 -3.57049 4.65546 0
M  V30 2643 C 248.332 -3.59414 5.20581 0
M  V30 2644 C 246.996 -3.62034 5.60792 0
M  V30 2645 H 246.266 -0.666735 0.323334 0
M  V30 2646 H 248.913 -1.29868 1.40736 0
M  V30 2647 H 247.218 -3.83473 0.80347 0
M  V30 2648 H 248.915 -3.82788 1.19475 0
M  V30 2649 H 245.505 -3.42871 2.57172 0
M  V30 2650 H 249.689 -3.46651 3.55171 0
M  V30 2651 H 244.945 -3.57361 4.96088 0
M  V30 2652 H 249.119 -3.62371 5.94693 0
M  V30 2653 H 246.746 -3.67298 6.6558 0
M  V30 2654 N 248.321 -0.919034 -1.28029 0
M  V30 2655 C 249.551 -0.570143 -1.98577 0
M  V30 2656 C 249.959 0.854172 -1.68821 0
M  V30 2657 O 249.302 1.57807 -0.940351 0
M  V30 2658 C 249.364 -0.705734 -3.52505 0
M  V30 2659 C 249.028 -2.10057 -4.05863 0
M  V30 2660 C 250.025 -3.07385 -4.19298 0
M  V30 2661 C 247.71 -2.41517 -4.40426 0
M  V30 2662 C 249.704 -4.34287 -4.66555 0
M  V30 2663 C 247.391 -3.68657 -4.87376 0
M  V30 2664 C 248.389 -4.64856 -5.00398 0
M  V30 2665 O 248.077 -5.89735 -5.46322 0
M  V30 2666 H 247.809 -0.215592 -0.6407 0
M  V30 2667 H 250.363 -1.23583 -1.64062 0
M  V30 2668 H 248.593 0.0170414 -3.86696 0
M  V30 2669 H 250.282 -0.363172 -4.04272 0
M  V30 2670 H 251.048 -2.84398 -3.92865 0
M  V30 2671 H 246.927 -1.67389 -4.29537 0
M  V30 2672 H 250.471 -5.09377 -4.76635 0
M  V30 2673 H 246.368 -3.91466 -5.13249 0
M  V30 2674 H 247.136 -5.92599 -5.64596 0
M  V30 2675 N 249.799 1.42003 -0.683588 0
M  V30 2676 C 250.729 2.33487 -0.024866 0
M  V30 2677 C 251.71 1.51163 0.779975 0
M  V30 2678 O 252.895 1.79739 0.735362 0
M  V30 2679 C 250.025 3.3487 0.920836 0
M  V30 2680 C 248.979 4.27414 0.223958 0
M  V30 2681 C 248.305 5.19074 1.2832 0
M  V30 2682 C 249.605 5.14445 -0.90242 0
M  V30 2683 H 251.299 2.88819 -0.788921 0
M  V30 2684 H 248.845 1.38873 -0.38083 0
M  V30 2685 H 250.798 3.97787 1.39081 0
M  V30 2686 H 249.522 2.77861 1.71642 0
M  V30 2687 H 248.181 3.65904 -0.225864 0
M  V30 2688 H 247.829 4.58387 2.071 0
M  V30 2689 H 247.529 5.81822 0.821995 0
M  V30 2690 H 249.053 5.84867 1.75392 0
M  V30 2691 H 250.467 5.70998 -0.513272 0
M  V30 2692 H 248.864 5.86072 -1.28997 0
M  V30 2693 H 249.934 4.52322 -1.74737 0
M  V30 2694 N 251.277 0.427512 1.51691 0
M  V30 2695 C 252.524 -0.142229 2.02 0
M  V30 2696 C 252.852 -1.43566 1.31221 0
M  V30 2697 O 252.107 -1.91298 0.412744 0
M  V30 2698 C 252.406 -0.418249 3.54944 0
M  V30 2699 C 252.072 0.788187 4.43958 0
M  V30 2700 C 250.734 1.11906 4.68007 0
M  V30 2701 C 253.086 1.59347 4.96244 0
M  V30 2702 C 250.414 2.25608 5.41588 0
M  V30 2703 C 252.766 2.7214 5.71072 0
M  V30 2704 C 251.43 3.05692 5.93387 0
M  V30 2705 H 250.7 -0.0520451 0.73917 0
M  V30 2706 H 253.347 0.572697 1.82736 0
M  V30 2707 H 251.652 -1.21496 3.72486 0
M  V30 2708 H 253.349 -0.872339 3.91397 0
M  V30 2709 H 249.939 0.520344 4.2543 0
M  V30 2710 H 254.123 1.35106 4.77556 0
M  V30 2711 H 249.379 2.51929 5.57083 0
M  V30 2712 H 253.553 3.34914 6.10578 0
M  V30 2713 H 251.18 3.9391 6.50184 0
M  V30 2714 N 252.755 -1.56801 0.158532 0
M  V30 2715 C 253.665 -2.20916 -0.789518 0
M  V30 2716 C 254.681 -1.1969 -1.26294 0
M  V30 2717 O 255.857 -1.52308 -1.31773 0
M  V30 2718 C 252.922 -2.82727 -2.00665 0
M  V30 2719 C 251.983 -3.99114 -1.58134 0
M  V30 2720 C 251.216 -4.57968 -2.74045 0
M  V30 2721 O 251.439 -4.15704 -3.90572 0
M  V30 2722 O 250.373 -5.48047 -2.48855 0
M  V30 2723 H 254.199 -3.02464 -0.273681 0
M  V30 2724 H 251.784 -1.4924 -0.0690548 0
M  V30 2725 H 253.666 -3.21968 -2.71872 0
M  V30 2726 H 252.341 -2.04184 -2.51179 0
M  V30 2727 H 251.248 -3.64567 -0.839155 0
M  V30 2728 H 252.581 -4.79212 -1.12325 0
M  V30 2729 N 254.233 0.115231 -1.57178 0
M  V30 2730 C 255.166 1.17166 -1.95825 0
M  V30 2731 C 256.144 1.39912 -0.828463 0
M  V30 2732 O 257.328 1.54004 -1.08697 0
M  V30 2733 C 254.455 2.52478 -2.25771 0
M  V30 2734 C 253.501 2.46136 -3.48309 0
M  V30 2735 S 254.334 1.89736 -5.0076 0
M  V30 2736 C 255.49 3.26713 -5.33863 0
M  V30 2737 H 255.723 0.842103 -2.85124 0
M  V30 2738 H 253.256 0.322136 -1.51002 0
M  V30 2739 H 255.214 3.30332 -2.43702 0
M  V30 2740 H 253.875 2.82609 -1.37079 0
M  V30 2741 H 253.068 3.45819 -3.66641 0
M  V30 2742 H 252.67 1.76404 -3.29784 0
M  V30 2743 H 254.962 4.22935 -5.29275 0
M  V30 2744 H 255.905 3.13205 -6.35065 0
M  V30 2745 H 256.313 3.25316 -4.61335 0
M  V30 2746 N 255.711 1.52812 0.385517 0
M  V30 2747 C 256.988 1.5861 1.14465 0
M  V30 2748 C 257.368 0.381402 2.07626 0
M  V30 2749 O 256.716 -0.629999 2.19643 0
M  V30 2750 C 256.926 2.92664 1.90128 0
M  V30 2751 C 258.274 3.46526 2.45367 0
M  V30 2752 O 259.298 2.94562 2.0028 0
M  V30 2753 O 258.157 4.37323 3.27736 0
M  V30 2754 H 255.251 0.639855 0.523941 0
M  V30 2755 H 257.797 1.65149 0.390389 0
M  V30 2756 H 256.569 3.71788 1.22022 0
M  V30 2757 H 256.192 2.89527 2.72507 0
M  V30 2758 N 257.189 -0.644168 1.43834 0
M  V30 2759 C 258.414 -1.43642 1.49605 0
M  V30 2760 C 258.839 -1.8773 0.117913 0
M  V30 2761 O 258.197 -1.57938 -0.890239 0
M  V30 2762 C 258.245 -2.6416 2.45463 0
M  V30 2763 O 257.349 -3.63538 1.94714 0
M  V30 2764 H 256.69 -0.430329 0.50568 0
M  V30 2765 H 259.22 -0.787448 1.8884 0
M  V30 2766 H 259.23 -3.11864 2.63068 0
M  V30 2767 H 257.905 -2.31414 3.45572 0
M  V30 2768 H 256.482 -3.2273 1.86814 0
M  V30 2769 N 258.668 -1.30515 -0.883378 0
M  V30 2770 C 259.893 -1.22487 -1.67367 0
M  V30 2771 C 260.318 0.208767 -1.86938 0
M  V30 2772 O 259.676 1.15015 -1.40148 0
M  V30 2773 C 259.724 -1.96041 -3.02655 0
M  V30 2774 O 258.828 -1.28859 -3.91751 0
M  V30 2775 H 258.169 -0.423573 -0.511353 0
M  V30 2776 H 260.699 -1.72362 -1.10239 0
M  V30 2777 H 260.709 -2.05124 -3.52687 0
M  V30 2778 H 259.384 -3.00307 -2.8773 0
M  V30 2779 H 257.961 -1.28141 -3.50192 0
M  V30 2780 N 260.146 1.09593 -1.13257 0
M  V30 2781 C 261.076 2.18214 -0.830946 0
M  V30 2782 C 262.057 1.68812 0.208966 0
M  V30 2783 O 263.242 1.9408 0.0682666 0
M  V30 2784 C 260.372 3.46051 -0.294296 0
M  V30 2785 C 259.326 4.08778 -1.26826 0
M  V30 2786 C 258.652 5.31419 -0.591449 0
M  V30 2787 C 259.952 4.51476 -2.62615 0
M  V30 2788 H 261.646 2.43703 -1.73923 0
M  V30 2789 H 259.192 1.17128 -0.837675 0
M  V30 2790 H 261.145 4.2134 -0.0709606 0
M  V30 2791 H 259.869 3.20079 0.649366 0
M  V30 2792 H 258.528 3.35505 -1.47756 0
M  V30 2793 H 258.176 5.01727 0.357633 0
M  V30 2794 H 257.876 5.74341 -1.24123 0
M  V30 2795 H 259.4 6.09433 -0.377355 0
M  V30 2796 H 260.814 5.17999 -2.45663 0
M  V30 2797 H 259.211 5.05277 -3.23752 0
M  V30 2798 H 260.281 3.63962 -3.20406 0
M  V30 2799 N 261.624 0.925811 1.2754 0
M  V30 2800 C 262.587 0.428129 2.25166 0
M  V30 2801 C 263.587 -0.452261 1.54309 0
M  V30 2802 O 264.777 -0.253608 1.72344 0
M  V30 2803 C 261.909 -0.384749 3.38722 0
M  V30 2804 H 263.102 1.29066 2.70706 0
M  V30 2805 H 260.655 0.706323 1.3943 0
M  V30 2806 H 261.39 -1.26618 2.98561 0
M  V30 2807 H 261.175 0.246454 3.91325 0
M  V30 2808 H 262.665 -0.723389 4.11287 0
M  V30 2809 N 263.102 -1.41638 0.69111 0
M  V30 2810 C 264.342 -2.03166 0.224291 0
M  V30 2811 C 264.706 -1.53537 -1.15284 0
M  V30 2812 O 265.907 -2.0696 -1.71525 0
M  V30 2813 C 264.178 -3.56342 0.274758 0
M  V30 2814 S 265.737 -4.3864 -0.118669 0
M  V30 2815 H 262.555 -0.705188 0.0907263 0
M  V30 2816 H 265.157 -1.7314 0.907895 0
M  V30 2817 H 263.861 -3.89958 1.2791 0
M  V30 2818 H 263.392 -3.91063 -0.428142 0
M  V30 2819 H 265.407 -4.77549 -1.34764 0
M  V30 2820 N 264.58 -0.43555 -1.51462 0
M  V30 2821 C 265.805 0.132627 -2.06976 0
M  V30 2822 C 266.23 1.35848 -1.30104 0
M  V30 2823 O 265.588 1.78112 -0.338493 0
M  V30 2824 C 265.636 0.43523 -3.57964 0
M  V30 2825 O 264.74 1.52198 -3.83288 0
M  V30 2826 H 264.081 0.00265 -0.663995 0
M  V30 2827 H 266.611 -0.616369 -1.95095 0
M  V30 2828 H 266.621 0.686206 -4.02188 0
M  V30 2829 H 265.296 -0.460739 -4.1334 0
M  V30 2830 H 263.873 1.2611 -3.50928 0
M  V30 2831 N 266.058 1.56714 -0.166846 0
M  V30 2832 C 267.469 1.83378 0.350646 0
M  V30 2833 C 267.82 1.08646 1.63372 0
M  V30 2834 O 266.945 0.338058 2.13743 0
M  V30 2835 C 267.54 3.32643 0.642963 0
M  V30 2836 C 266.099 3.59818 1.10491 0
M  V30 2837 C 265.246 2.76954 0.138411 0
M  V30 2838 H 268.197 1.53803 -0.391193 0
M  V30 2839 H 268.218 3.49878 1.49551 0
M  V30 2840 H 267.73 3.87007 -0.291055 0
M  V30 2841 H 265.831 3.1086 2.05418 0
M  V30 2842 H 265.944 4.68178 1.01716 0
M  V30 2843 H 264.308 2.4666 0.634911 0
M  V30 2844 H 265.091 3.34097 -0.789549 0
M  V30 2845 N 267.536 -0.106894 1.57237 0
M  V30 2846 C 268.446 -1.14911 2.0453 0
M  V30 2847 C 269.462 -1.44592 0.96795 0
M  V30 2848 O 270.638 -1.55468 1.2803 0
M  V30 2849 C 267.703 -2.45272 2.45036 0
M  V30 2850 C 266.764 -2.22879 3.66911 0
M  V30 2851 C 265.997 -3.47024 4.05475 0
M  V30 2852 O 266.22 -4.54804 3.44252 0
M  V30 2853 O 265.154 -3.3731 4.98504 0
M  V30 2854 H 268.98 -0.777461 2.9358 0
M  V30 2855 H 266.565 -0.318563 1.45964 0
M  V30 2856 H 268.447 -3.22055 2.71769 0
M  V30 2857 H 267.122 -2.81886 1.59129 0
M  V30 2858 H 266.029 -1.43915 3.45311 0
M  V30 2859 H 267.362 -1.91163 4.53561 0
M  V30 2860 N 269.014 -1.53014 -0.377408 0
M  V30 2861 C 270.263 -1.67845 -1.11853 0
M  V30 2862 C 270.576 -0.430625 -1.90801 0
M  V30 2863 O 271.782 -0.459261 -2.67587 0
M  V30 2864 C 270.238 -2.96668 -2.03756 0
M  V30 2865 C 269.846 -4.28671 -1.30175 0
M  V30 2866 C 271.59 -3.20865 -2.77932 0
M  V30 2867 C 269.497 -5.48591 -2.20911 0
M  V30 2868 H 268.427 -0.625343 -0.421263 0
M  V30 2869 H 271.078 -1.79514 -0.380409 0
M  V30 2870 H 269.46 -2.78773 -2.8125 0
M  V30 2871 H 270.634 -4.57157 -0.578259 0
M  V30 2872 H 268.949 -4.10825 -0.679108 0
M  V30 2873 H 271.546 -4.07642 -3.46024 0
M  V30 2874 H 271.889 -2.36424 -3.4265 0
M  V30 2875 H 272.422 -3.39379 -2.07525 0
M  V30 2876 H 269.161 -6.35474 -1.6079 0
M  V30 2877 H 268.681 -5.244 -2.91144 0
M  V30 2878 H 270.36 -5.8292 -2.80736 0
M  V30 2879 N 270.492 0.636531 -1.44174 0
M  V30 2880 C 271.717 1.42847 -1.50364 0
M  V30 2881 C 272.142 1.87665 -0.127867 0
M  V30 2882 O 271.5 1.58408 0.88185 0
M  V30 2883 C 271.548 2.62854 -2.4686 0
M  V30 2884 O 270.652 3.62501 -1.9664 0
M  V30 2885 H 269.993 0.427642 -0.507955 0
M  V30 2886 H 272.523 0.777422 -1.89255 0
M  V30 2887 H 272.533 3.10465 -2.64718 0
M  V30 2888 H 271.208 2.29578 -3.46795 0
M  V30 2889 H 269.785 3.21735 -1.88523 0
M  V30 2890 N 271.97 1.30982 0.876444 0
M  V30 2891 C 272.92 1.14688 1.97055 0
M  V30 2892 C 273.904 0.0596593 1.60789 0
M  V30 2893 O 275.096 0.283892 1.74708 0
M  V30 2894 C 272.225 0.849627 3.3262 0
M  V30 2895 C 271.311 1.97752 3.75173 0
M  V30 2896 N 271.702 3.22384 3.89746 0
M  V30 2897 C 270 1.8758 4.04635 0
M  V30 2898 C 270.701 3.96121 4.25985 0
M  V30 2899 N 269.677 3.24237 4.36315 0
M  V30 2900 H 273.479 2.09204 2.06424 0
M  V30 2901 H 270.993 1.22445 1.06682 0
M  V30 2902 H 272.99 0.713895 4.10742 0
M  V30 2903 H 271.65 -0.087376 3.24582 0
M  V30 2904 H 272.661 3.57575 3.74647 0
M  V30 2905 H 269.338 1.01303 4.05024 0
M  V30 2906 H 270.728 5.03491 4.44911 0
M  V30 2907 N 273.449 -1.08991 1.13837 0
M  V30 2908 C 274.379 -2.17771 0.842507 0
M  V30 2909 C 275.36 -1.6892 -0.20001 0
M  V30 2910 O 276.545 -1.94113 -0.0579731 0
M  V30 2911 C 273.675 -3.4589 0.312644 0
M  V30 2912 C 272.629 -4.08099 1.28992 0
M  V30 2913 C 271.955 -5.31098 0.619623 0
M  V30 2914 C 273.255 -4.50077 2.65005 0
M  V30 2915 H 274.949 -2.42777 1.75213 0
M  V30 2916 H 272.495 -1.16682 0.843875 0
M  V30 2917 H 274.448 -4.21297 0.0933043 0
M  V30 2918 H 273.172 -3.20419 -0.632382 0
M  V30 2919 H 271.831 -3.34717 1.49533 0
M  V30 2920 H 271.479 -5.0191 -0.33102 0
M  V30 2921 H 271.179 -5.73674 1.27167 0
M  V30 2922 H 272.703 -6.09224 0.409669 0
M  V30 2923 H 274.117 -5.16688 2.48407 0
M  V30 2924 H 272.514 -5.03553 3.26427 0
M  V30 2925 H 273.584 -3.62257 3.22332 0
M  V30 2926 N 274.927 -0.932562 -1.27047 0
M  V30 2927 C 276.152 -0.591474 -1.98787 0
M  V30 2928 C 276.577 0.824601 -1.69062 0
M  V30 2929 O 275.935 1.5541 -0.933677 0
M  V30 2930 C 275.983 -0.829808 -3.50922 0
M  V30 2931 O 275.087 0.102266 -4.12273 0
M  V30 2932 H 274.428 -0.227185 -0.623926 0
M  V30 2933 H 276.958 -1.25314 -1.61733 0
M  V30 2934 H 276.968 -0.747292 -4.01098 0
M  V30 2935 H 275.643 -1.86201 -3.7189 0
M  V30 2936 H 274.22 -0.0305761 -3.72887 0
M  V30 2937 N 276.405 1.4127 -0.698611 0
M  V30 2938 C 277.651 2.01478 -0.231207 0
M  V30 2939 C 277.984 1.55215 1.16713 0
M  V30 2940 O 277.259 0.764672 1.78838 0
M  V30 2941 C 277.542 3.58912 -0.292281 0
M  V30 2942 C 277.395 4.15293 -1.72778 0
M  V30 2943 C 278.714 4.38736 0.346194 0
M  V30 2944 H 275.833 0.732025 -0.0854878 0
M  V30 2945 H 278.475 1.67977 -0.887906 0
M  V30 2946 H 276.625 3.87582 0.26686 0
M  V30 2947 H 278.297 3.97486 -2.341 0
M  V30 2948 H 276.54 3.7022 -2.26096 0
M  V30 2949 H 277.211 5.24452 -1.72202 0
M  V30 2950 H 279.687 4.15897 -0.130035 0
M  V30 2951 H 278.563 5.48221 0.272932 0
M  V30 2952 H 278.824 4.18425 1.42734 0
M  V30 2953 N 277.883 0.443576 1.51229 0
M  V30 2954 C 279.131 -0.120557 2.0174 0
M  V30 2955 C 279.452 -1.42665 1.32935 0
M  V30 2956 O 278.722 -1.9028 0.465866 0
M  V30 2957 H 277.302 -0.0475426 0.745486 0
M  V30 2958 H 279.964 0.587711 1.85828 0
M  V30 2959 H 279.06 -0.291972 3.10731 0
M  V30 2960 N 279.361 -1.56624 0.175154 0
M  V30 2961 C 280.586 -2.01813 -0.478137 0
M  V30 2962 C 281.011 -1.05457 -1.55757 0
M  V30 2963 O 280.369 -0.0347439 -1.81267 0
M  V30 2964 C 280.417 -3.45581 -1.02987 0
M  V30 2965 O 279.521 -3.52305 -2.14371 0
M  V30 2966 H 278.862 -0.65413 -0.114059 0
M  V30 2967 H 281.392 -2.02673 0.280173 0
M  V30 2968 H 281.402 -3.84965 -1.35151 0
M  V30 2969 H 280.077 -4.1521 -0.239556 0
M  V30 2970 H 278.654 -3.24783 -1.83222 0
M  V30 2971 N 280.839 0.0985539 -1.57292 0
M  V30 2972 C 282.088 0.801358 -1.85098 0
M  V30 2973 C 282.401 1.80066 -0.763902 0
M  V30 2974 O 283.607 2.55112 -0.928981 0
M  V30 2975 C 282.063 1.47599 -3.28242 0
M  V30 2976 C 281.671 0.516624 -4.45011 0
M  V30 2977 C 283.415 2.16272 -3.65276 0
M  V30 2978 C 281.322 1.19564 -5.79188 0
M  V30 2979 H 280.252 0.303022 -0.69043 0
M  V30 2980 H 282.903 0.0542623 -1.8342 0
M  V30 2981 H 281.285 2.27042 -3.2445 0
M  V30 2982 H 282.459 -0.246065 -4.60143 0
M  V30 2983 H 280.774 -0.064227 -4.1635 0
M  V30 2984 H 283.371 2.67802 -4.62803 0
M  V30 2985 H 283.714 2.95009 -2.93727 0
M  V30 2986 H 284.247 1.43693 -3.70941 0
M  V30 2987 H 280.986 0.449157 -6.53959 0
M  V30 2988 H 280.506 1.92984 -5.67906 0
M  V30 2989 H 282.185 1.7231 -6.23633 0
M  V30 2990 N 282.317 1.53212 0.369288 0
M  V30 2991 C 283.247 1.82365 1.45826 0
M  V30 2992 C 284.228 0.676907 1.56051 0
M  V30 2993 O 285.413 0.926401 1.70679 0
M  V30 2994 C 282.543 2.01023 2.83208 0
M  V30 2995 C 281.497 3.1678 2.8781 0
M  V30 2996 C 280.823 3.20724 4.27832 0
M  V30 2997 C 282.123 4.55447 2.55667 0
M  V30 2998 H 283.817 2.73559 1.21678 0
M  V30 2999 H 281.363 1.3163 0.583911 0
M  V30 3000 H 283.316 2.20001 3.59413 0
M  V30 3001 H 282.04 1.06536 3.08736 0
M  V30 3002 H 280.699 2.97616 2.14056 0
M  V30 3003 H 280.347 2.23882 4.50429 0
M  V30 3004 H 280.047 3.98496 4.31827 0
M  V30 3005 H 281.571 3.41881 5.05915 0
M  V30 3006 H 282.985 4.74611 3.21586 0
M  V30 3007 H 281.382 5.35432 2.70984 0
M  V30 3008 H 282.452 4.60812 1.5093 0
M  V30 3009 N 283.795 -0.628877 1.44509 0
M  V30 3010 C 284.725 -1.75187 1.54376 0
M  V30 3011 C 285.706 -1.65411 0.396618 0
M  V30 3012 O 286.891 -1.84137 0.617031 0
M  V30 3013 C 284.021 -3.13725 1.48976 0
M  V30 3014 C 282.975 -3.38291 2.62189 0
M  V30 3015 C 282.301 -4.76883 2.41841 0
M  V30 3016 C 283.601 -3.30632 4.04326 0
M  V30 3017 H 285.295 -1.67187 2.48373 0
M  V30 3018 H 282.841 -0.802909 1.19538 0
M  V30 3019 H 284.794 -3.92064 1.54478 0
M  V30 3020 H 283.518 -3.22515 0.514961 0
M  V30 3021 H 282.177 -2.62334 2.56079 0
M  V30 3022 H 281.825 -4.82378 1.42548 0
M  V30 3023 H 281.525 -4.94278 3.17747 0
M  V30 3024 H 283.049 -5.57449 2.49165 0
M  V30 3025 H 284.463 -3.98873 4.11793 0
M  V30 3026 H 282.86 -3.59561 4.80454 0
M  V30 3027 H 283.93 -2.28404 4.27738 0
M  V30 3028 N 285.273 -1.31445 -0.869486 0
M  V30 3029 C 286.519 -1.21337 -1.62496 0
M  V30 3030 C 286.852 0.227872 -1.92858 0
M  V30 3031 O 286.127 1.16094 -1.56053 0
M  V30 3032 C 286.41 -2.05814 -2.95487 0
M  V30 3033 C 286.263 -3.5824 -2.72 0
M  V30 3034 C 287.582 -1.9079 -3.96594 0
M  V30 3035 H 284.701 -0.442135 -0.589649 0
M  V30 3036 H 287.343 -1.6124 -1.00507 0
M  V30 3037 H 285.493 -1.71913 -3.48394 0
M  V30 3038 H 287.165 -4.0228 -2.25762 0
M  V30 3039 H 285.408 -3.81647 -2.06224 0
M  V30 3040 H 286.079 -4.12657 -3.66631 0
M  V30 3041 H 288.555 -2.20459 -3.52898 0
M  V30 3042 H 287.431 -2.52199 -4.87531 0
M  V30 3043 H 287.692 -0.871341 -4.33428 0
M  V30 3044 N 286.751 1.08385 -1.14413 0
M  V30 3045 C 287.979 1.84517 -0.936001 0
M  V30 3046 C 288.394 1.81626 0.515503 0
M  V30 3047 O 287.751 1.22008 1.35721 0
M  V30 3048 C 287.802 3.32049 -1.42918 0
M  V30 3049 O 287.523 3.34951 -2.82381 0
M  V30 3050 C 289.024 4.24986 -1.26103 0
M  V30 3051 H 286.244 0.582491 -0.333084 0
M  V30 3052 H 288.788 1.36885 -1.5193 0
M  V30 3053 H 286.943 3.7707 -0.888641 0
M  V30 3054 H 287.357 4.27048 -3.04517 0
M  V30 3055 H 288.831 5.26615 -1.6547 0
M  V30 3056 H 289.308 4.38726 -0.20392 0
M  V30 3057 H 289.914 3.85791 -1.79012 0
M  V30 3058 N 288.23 0.939286 1.26551 0
M  V30 3059 C 289.477 0.585847 1.9384 0
M  V30 3060 C 289.805 -0.874784 1.73718 0
M  V30 3061 O 289.06 -1.64092 1.06642 0
M  V30 3062 C 289.359 0.872106 3.46596 0
M  V30 3063 C 289.025 2.31632 3.86856 0
M  V30 3064 C 287.687 2.71111 3.97558 0
M  V30 3065 C 290.039 3.25494 4.07066 0
M  V30 3066 C 287.367 4.03553 4.25866 0
M  V30 3067 C 289.719 4.57531 4.36862 0
M  V30 3068 C 288.383 4.96828 4.45778 0
M  V30 3069 H 287.653 0.214377 0.709312 0
M  V30 3070 H 290.3 1.18544 1.50398 0
M  V30 3071 H 288.605 0.18996 3.91339 0
M  V30 3072 H 290.302 0.577442 3.96821 0
M  V30 3073 H 286.892 2.00008 3.79071 0
M  V30 3074 H 291.076 2.9619 3.98227 0
M  V30 3075 H 286.332 4.33665 4.30981 0
M  V30 3076 H 290.506 5.30254 4.51446 0
M  V30 3077 H 288.133 5.99482 4.67468 0
M  V30 3078 N 289.708 -1.40897 0.706093 0
M  V30 3079 C 290.671 -2.29131 0.0562841 0
M  V30 3080 C 291.671 -1.44901 -0.697166 0
M  V30 3081 O 292.861 -1.65926 -0.530484 0
M  V30 3082 C 289.993 -3.27957 -0.93043 0
M  V30 3083 H 291.186 -2.88091 0.833284 0
M  V30 3084 H 288.739 -1.4906 0.470192 0
M  V30 3085 H 289.474 -2.73997 -1.73482 0
M  V30 3086 H 289.259 -3.90124 -0.393166 0
M  V30 3087 H 290.749 -3.94049 -1.38256 0
M  V30 3088 N 291.186 -0.45159 -1.50991 0
M  V30 3089 C 292.411 0.110667 -2.07105 0
M  V30 3090 C 292.836 1.3446 -1.31538 0
M  V30 3091 O 292.194 1.77743 -0.357365 0
M  V30 3092 C 292.242 0.397238 -3.58405 0
M  V30 3093 O 291.346 1.48124 -3.84881 0
M  V30 3094 H 290.687 -0.00439271 -0.663985 0
M  V30 3095 H 293.217 -0.637026 -1.9443 0
M  V30 3096 H 293.227 0.64351 -4.02893 0
M  V30 3097 H 291.902 -0.504553 -4.12828 0
M  V30 3098 H 290.479 1.22381 -3.52246 0
M  V30 3099 N 292.664 1.56529 -0.183458 0
M  V30 3100 C 293.594 2.21549 0.737456 0
M  V30 3101 C 294.575 1.17489 1.23005 0
M  V30 3102 O 295.76 1.45959 1.281 0
M  V30 3103 C 292.89 2.86575 1.96194 0
M  V30 3104 C 291.844 3.96778 1.60473 0
M  V30 3105 C 291.17 4.48911 2.90487 0
M  V30 3106 C 292.47 5.15767 0.823497 0
M  V30 3107 H 294.164 2.98761 0.195453 0
M  V30 3108 H 291.71 1.43702 0.0925686 0
M  V30 3109 H 293.663 3.30739 2.61131 0
M  V30 3110 H 292.387 2.06749 2.52828 0
M  V30 3111 H 291.046 3.53286 0.978997 0
M  V30 3112 H 290.694 3.65862 3.45186 0
M  V30 3113 H 290.394 5.23265 2.67335 0
M  V30 3114 H 291.918 4.95771 3.56432 0
M  V30 3115 H 293.332 5.56549 1.37571 0
M  V30 3116 H 291.729 5.96114 0.690551 0
M  V30 3117 H 292.799 4.84574 -0.177782 0
M  V30 3118 N 294.142 -0.090211 1.57342 0
M  V30 3119 C 295.388 -0.793982 1.86611 0
M  V30 3120 C 295.721 -1.78142 0.773252 0
M  V30 3121 O 294.996 -1.93271 -0.218304 0
M  V30 3122 C 295.279 -1.51839 3.26523 0
M  V30 3123 C 295.132 -0.548609 4.46442 0
M  V30 3124 C 296.451 -2.46779 3.64401 0
M  V30 3125 H 293.57 -0.287186 0.678744 0
M  V30 3126 H 296.212 -0.0575076 1.89913 0
M  V30 3127 H 294.362 -2.14617 3.23839 0
M  V30 3128 H 296.034 0.0725513 4.61243 0
M  V30 3129 H 294.277 0.137614 4.33582 0
M  V30 3130 H 294.948 -1.09271 5.41076 0
M  V30 3131 H 297.424 -1.94089 3.68061 0
M  V30 3132 H 296.3 -2.94479 4.63221 0
M  V30 3133 H 296.561 -3.30758 2.93346 0
M  V30 3134 N 295.62 -1.53406 -0.361157 0
M  V30 3135 C 296.583 -1.79479 -1.42548 0
M  V30 3136 C 297.583 -0.665327 -1.4639 0
M  V30 3137 O 298.773 -0.933549 -1.47073 0
M  V30 3138 C 295.905 -1.92087 -2.8163 0
M  V30 3139 H 297.098 -2.74538 -1.20701 0
M  V30 3140 H 294.651 -1.4455 -0.594546 0
M  V30 3141 H 295.386 -0.991099 -3.08784 0
M  V30 3142 H 295.171 -2.74241 -2.80239 0
M  V30 3143 H 296.661 -2.13836 -3.58697 0
M  V30 3144 N 297.098 0.621204 -1.44841 0
M  V30 3145 C 298.344 1.3826 -1.48365 0
M  V30 3146 C 298.677 1.93831 -0.119624 0
M  V30 3147 O 297.952 1.74251 0.864111 0
M  V30 3148 C 298.235 2.54058 -2.55199 0
M  V30 3149 C 298.088 2.03772 -4.00995 0
M  V30 3150 C 299.407 3.56225 -2.58442 0
M  V30 3151 H 296.526 0.501374 -0.540179 0
M  V30 3152 H 299.168 0.7015 -1.76576 0
M  V30 3153 H 297.318 3.12162 -2.31274 0
M  V30 3154 H 298.99 1.50423 -4.36086 0
M  V30 3155 H 297.233 1.34876 -4.12299 0
M  V30 3156 H 297.904 2.87185 -4.71411 0
M  V30 3157 H 300.38 3.07939 -2.79844 0
M  V30 3158 H 299.256 4.34756 -3.3508 0
M  V30 3159 H 299.517 4.10949 -1.63013 0
M  V30 3160 N 298.576 1.31904 0.862503 0
M  V30 3161 C 299.806 1.24817 1.64634 0
M  V30 3162 C 300.214 -0.187579 1.88268 0
M  V30 3163 O 299.557 -1.13253 1.44635 0
M  V30 3164 C 299.619 1.92996 3.03303 0
M  V30 3165 C 299.283 3.42336 3.02746 0
M  V30 3166 C 300.28 4.37956 2.80162 0
M  V30 3167 C 297.965 3.84147 3.2363 0
M  V30 3168 C 299.959 5.73361 2.78453 0
M  V30 3169 C 297.646 5.19663 3.21549 0
M  V30 3170 C 298.644 6.14081 2.98988 0
M  V30 3171 O 298.332 7.47118 2.96766 0
M  V30 3172 H 298.064 0.432222 0.519769 0
M  V30 3173 H 300.618 1.7445 1.08427 0
M  V30 3174 H 298.848 1.37922 3.61268 0
M  V30 3175 H 300.537 1.79723 3.63943 0
M  V30 3176 H 301.303 4.06981 2.63802 0
M  V30 3177 H 297.182 3.11083 3.40218 0
M  V30 3178 H 300.726 6.4703 2.60763 0
M  V30 3179 H 296.623 5.5027 3.37451 0
M  V30 3180 H 297.391 7.56382 3.12775 0
M  V30 3181 N 300.054 -1.07777 1.14986 0
M  V30 3182 C 301.3 -1.80557 0.923422 0
M  V30 3183 C 301.633 -1.86298 -0.548337 0
M  V30 3184 O 300.908 -1.34354 -1.40639 0
M  V30 3185 C 301.191 -3.25839 1.53299 0
M  V30 3186 C 301.044 -3.28269 3.07505 0
M  V30 3187 C 302.363 -4.22991 1.21518 0
M  V30 3188 H 299.482 -0.655493 0.336894 0
M  V30 3189 H 302.124 -1.26144 1.42083 0
M  V30 3190 H 300.274 -3.72306 1.10999 0
M  V30 3191 H 301.946 -2.90079 3.58681 0
M  V30 3192 H 300.189 -2.67355 3.4162 0
M  V30 3193 H 300.86 -4.30691 3.45266 0
M  V30 3194 H 303.336 -3.84894 1.581 0
M  V30 3195 H 302.212 -5.22945 1.66793 0
M  V30 3196 H 302.473 -4.41904 0.131505 0
M  V30 3197 N 301.532 -0.945985 -1.26051 0
M  V30 3198 C 302.778 -0.597002 -1.93814 0
M  V30 3199 C 303.111 0.862484 -1.73997 0
M  V30 3200 O 302.386 1.61769 -1.07986 0
M  V30 3201 C 302.669 -0.945937 -3.47454 0
M  V30 3202 C 302.522 -2.46052 -3.76535 0
M  V30 3203 C 303.841 -0.464785 -4.37639 0
M  V30 3204 H 300.96 -0.218366 -0.703907 0
M  V30 3205 H 303.602 -1.18107 -1.48831 0
M  V30 3206 H 301.752 -0.448902 -3.85898 0
M  V30 3207 H 303.424 -3.03065 -3.47778 0
M  V30 3208 H 301.667 -2.90194 -3.22444 0
M  V30 3209 H 302.338 -2.65517 -4.83947 0
M  V30 3210 H 304.814 -0.891016 -4.06448 0
M  V30 3211 H 303.69 -0.737712 -5.4392 0
M  V30 3212 H 303.951 0.635274 -4.37512 0
M  V30 3213 N 303.011 1.40521 -0.713556 0
M  V30 3214 C 304.259 2.00527 -0.251692 0
M  V30 3215 C 304.58 1.56857 1.15848 0
M  V30 3216 O 303.85 0.807127 1.785 0
M  V30 3217 H 302.43 0.741551 -0.0900646 0
M  V30 3218 H 305.092 1.71887 -0.918733 0
M  V30 3219 H 304.188 3.10813 -0.283192 0
M  V30 3220 N 304.489 0.459591 1.5075 0
M  V30 3221 C 305.737 -0.0991532 2.01857 0
M  V30 3222 C 306.058 -1.41247 1.34441 0
M  V30 3223 O 305.328 -1.89775 0.486022 0
M  V30 3224 H 303.908 -0.039633 0.745948 0
M  V30 3225 H 306.57 0.607387 1.85194 0
M  V30 3226 H 305.666 -0.258998 3.11023 0
M  V30 3227 N 305.967 -1.56429 0.191757 0
M  V30 3228 C 307.214 -1.97485 -0.447891 0
M  V30 3229 C 307.542 -1.07852 -1.61859 0
M  V30 3230 O 306.797 -0.116903 -1.95351 0
M  V30 3231 C 307.096 -3.44449 -0.953384 0
M  V30 3232 C 306.762 -4.50781 0.103586 0
M  V30 3233 C 305.424 -4.79584 0.394023 0
M  V30 3234 C 307.776 -5.1471 0.819946 0
M  V30 3235 C 305.104 -5.69607 1.40585 0
M  V30 3236 C 307.456 -6.05827 1.8209 0
M  V30 3237 C 306.12 -6.32987 2.11857 0
M  V30 3238 H 305.39 -0.722648 -0.163895 0
M  V30 3239 H 308.037 -1.89322 0.28802 0
M  V30 3240 H 306.342 -3.49666 -1.76751 0
M  V30 3241 H 308.039 -3.73569 -1.45765 0
M  V30 3242 H 304.629 -4.28394 -0.132951 0
M  V30 3243 H 308.813 -4.92552 0.608789 0
M  V30 3244 H 304.069 -5.88926 1.64243 0
M  V30 3245 H 308.243 -6.54424 2.38123 0
M  V30 3246 H 305.87 -7.02544 2.90407 0
M  V30 3247 N 307.445 0.0818655 -1.57387 0
M  V30 3248 C 308.375 1.09885 -2.06028 0
M  V30 3249 C 309.356 1.4098 -0.951774 0
M  V30 3250 O 310.541 1.50781 -1.22387 0
M  V30 3251 C 307.671 2.4151 -2.4958 0
M  V30 3252 C 306.625 2.24792 -3.64215 0
M  V30 3253 C 305.951 3.61712 -3.93787 0
M  V30 3254 C 307.251 1.67749 -4.94629 0
M  V30 3255 H 308.945 0.694128 -2.91243 0
M  V30 3256 H 306.491 0.332448 -1.4011 0
M  V30 3257 H 308.444 3.12939 -2.82219 0
M  V30 3258 H 307.168 2.83943 -1.61381 0
M  V30 3259 H 305.827 1.55807 -3.31843 0
M  V30 3260 H 305.475 4.01697 -3.02735 0
M  V30 3261 H 305.175 3.51368 -4.70971 0
M  V30 3262 H 306.699 4.34587 -4.28913 0
M  V30 3263 H 308.113 2.29032 -5.25564 0
M  V30 3264 H 306.51 1.68128 -5.76067 0
M  V30 3265 H 307.58 0.638059 -4.80684 0
M  V30 3266 N 308.923 1.53595 0.353017 0
M  V30 3267 C 310.153 1.74058 1.11299 0
M  V30 3268 C 310.561 0.475205 1.83135 0
M  V30 3269 O 309.904 -0.562344 1.74881 0
M  V30 3270 C 309.966 2.85994 2.17825 0
M  V30 3271 C 309.63 4.25923 1.65647 0
M  V30 3272 C 310.627 5.07829 1.11383 0
M  V30 3273 C 308.312 4.72377 1.7078 0
M  V30 3274 C 310.306 6.34285 0.629439 0
M  V30 3275 C 307.993 5.98808 1.21953 0
M  V30 3276 C 308.991 6.79594 0.681265 0
M  V30 3277 O 308.679 8.03651 0.200248 0
M  V30 3278 H 308.411 0.585327 0.338183 0
M  V30 3279 H 310.965 2.01186 0.413927 0
M  V30 3280 H 309.195 2.54368 2.91262 0
M  V30 3281 H 310.884 2.94515 2.79313 0
M  V30 3282 H 311.65 4.73107 1.06746 0
M  V30 3283 H 307.529 4.0956 2.11617 0
M  V30 3284 H 311.073 6.97288 0.208636 0
M  V30 3285 H 306.97 6.33026 1.26287 0
M  V30 3286 H 307.738 8.1788 0.318416 0
M  V30 3287 N 310.401 -0.613514 1.45168 0
M  V30 3288 C 311.333 -1.73825 1.4939 0
M  V30 3289 C 312.346 -1.58175 0.385304 0
M  V30 3290 O 313.535 -1.66165 0.652036 0
M  V30 3291 C 310.635 -3.11758 1.32891 0
M  V30 3292 C 309.808 -3.53704 2.57317 0
M  V30 3293 C 308.867 -4.70579 2.35462 0
M  V30 3294 O 307.893 -4.77996 3.09044 0
M  V30 3295 N 309.095 -5.63454 1.39644 0
M  V30 3296 H 311.86 -1.70669 2.46358 0
M  V30 3297 H 309.421 -0.79862 1.40832 0
M  V30 3298 H 311.413 -3.87692 1.1609 0
M  V30 3299 H 309.983 -3.09456 0.442218 0
M  V30 3300 H 309.203 -2.67794 2.89275 0
M  V30 3301 H 310.491 -3.78486 3.40038 0
M  V30 3302 H 309.889 -5.6017 0.789062 0
M  V30 3303 H 308.446 -6.38944 1.28816 0
M  V30 3304 N 311.879 -1.3236 -0.855495 0
M  V30 3305 C 313.295 -1.11332 -1.14356 0
M  V30 3306 C 313.495 0.106751 -2.01217 0
M  V30 3307 O 312.551 0.791891 -2.39761 0
M  V30 3308 C 313.864 -2.39237 -1.82171 0
M  V30 3309 C 315.412 -2.44986 -1.9481 0
M  V30 3310 C 315.887 -3.7281 -2.66039 0
M  V30 3311 N 317.378 -3.73787 -2.73565 0
M  V30 3312 C 318.113 -4.69394 -3.29327 0
M  V30 3313 N 317.609 -5.75367 -3.85907 0
M  V30 3314 N 319.402 -4.56893 -3.27423 0
M  V30 3315 H 311.553 -2.10586 -0.277027 0
M  V30 3316 H 313.816 -0.929701 -0.185364 0
M  V30 3317 H 313.522 -3.28431 -1.25802 0
M  V30 3318 H 313.396 -2.50134 -2.82335 0
M  V30 3319 H 315.783 -1.56252 -2.50338 0
M  V30 3320 H 315.864 -2.38043 -0.936448 0
M  V30 3321 H 315.508 -4.61918 -2.11174 0
M  V30 3322 H 315.438 -3.77024 -3.67642 0
M  V30 3323 H 317.929 -2.97189 -2.33424 0
M  V30 3324 H 318.242 -6.44378 -4.26611 0
M  V30 3325 H 316.587 -5.79123 -3.84242 0
M  V30 3326 H 319.778 -3.73269 -2.82467 0
M  V30 3327 H 319.951 -5.31577 -3.7058 0
M  V30 3328 N 313.357 1.07166 -1.15556 0
M  V30 3329 C 314.287 2.16403 -0.877046 0
M  V30 3330 C 315.268 1.69217 0.173111 0
M  V30 3331 O 316.453 1.94181 0.027084 0
M  V30 3332 C 313.583 3.45349 -0.367632 0
M  V30 3333 C 312.537 4.05995 -1.35468 0
M  V30 3334 C 311.863 5.30045 -0.704038 0
M  V30 3335 C 313.163 4.45804 -2.72132 0
M  V30 3336 H 314.857 2.39959 -1.79053 0
M  V30 3337 H 312.403 1.15325 -0.862331 0
M  V30 3338 H 314.356 4.21095 -0.160317 0
M  V30 3339 H 313.08 3.21385 0.581326 0
M  V30 3340 H 311.739 3.32296 -1.54839 0
M  V30 3341 H 311.387 5.02373 0.251128 0
M  V30 3342 H 311.087 5.71579 -1.36277 0
M  V30 3343 H 312.611 6.08495 -0.50654 0
M  V30 3344 H 314.025 5.12671 -2.56595 0
M  V30 3345 H 312.422 4.98296 -3.34397 0
M  V30 3346 H 313.492 3.57083 -3.28054 0
M  V30 3347 N 314.835 0.952656 1.25548 0
M  V30 3348 C 316.081 0.607272 1.93494 0
M  V30 3349 C 316.414 -0.853245 1.74452 0
M  V30 3350 O 315.689 -1.61194 1.08843 0
M  V30 3351 C 315.972 0.96435 3.46947 0
M  V30 3352 C 315.825 2.48045 3.75225 0
M  V30 3353 C 317.144 0.487987 4.37386 0
M  V30 3354 H 314.263 0.222096 0.702739 0
M  V30 3355 H 316.905 1.18895 1.48203 0
M  V30 3356 H 315.055 0.469361 3.85654 0
M  V30 3357 H 316.727 3.04905 3.46166 0
M  V30 3358 H 314.97 2.919 3.209 0
M  V30 3359 H 315.641 2.6808 4.82532 0
M  V30 3360 H 318.117 0.912558 4.0597 0
M  V30 3361 H 316.993 0.766547 5.43521 0
M  V30 3362 H 317.254 -0.612063 4.37843 0
M  V30 3363 N 316.313 -1.40141 0.720998 0
M  V30 3364 C 317.559 -2.01084 0.263231 0
M  V30 3365 C 317.892 -1.57052 -1.14229 0
M  V30 3366 O 317.167 -0.793027 -1.77599 0
M  V30 3367 C 317.45 -3.58401 0.349344 0
M  V30 3368 C 317.303 -4.12491 1.79363 0
M  V30 3369 C 318.622 -4.39231 -0.276351 0
M  V30 3370 H 315.741 -0.730572 0.0971228 0
M  V30 3371 H 318.383 -1.66543 0.914518 0
M  V30 3372 H 316.533 -3.87958 -0.205165 0
M  V30 3373 H 318.205 -3.93711 2.40394 0
M  V30 3374 H 316.448 -3.66576 2.31958 0
M  V30 3375 H 317.119 -5.21646 1.80524 0
M  V30 3376 H 319.595 -4.15637 0.196184 0
M  V30 3377 H 318.471 -5.48586 -0.185681 0
M  V30 3378 H 318.732 -4.20643 -1.36059 0
M  V30 3379 N 317.792 -0.46758 -1.50504 0
M  V30 3380 C 319.04 0.0884469 -2.01906 0
M  V30 3381 C 319.361 1.40532 -1.35188 0
M  V30 3382 O 318.631 1.89515 -0.496079 0
M  V30 3383 H 317.211 0.0356765 -0.746148 0
M  V30 3384 H 319.873 -0.6172 -1.84869 0
M  V30 3385 H 318.969 0.2425 -3.11156 0
M  V30 3386 N 319.27 1.56325 -0.20005 0
M  V30 3387 C 320.233 2.18084 0.705132 0
M  V30 3388 C 321.233 1.13666 1.1374 0
M  V30 3389 O 322.423 1.39023 1.04968 0
M  V30 3390 C 319.555 2.78689 1.96329 0
M  V30 3391 H 320.748 2.99435 0.167023 0
M  V30 3392 H 318.301 1.56221 0.0495725 0
M  V30 3393 H 319.036 2.0115 2.5438 0
M  V30 3394 H 318.821 3.55133 1.66202 0
M  V30 3395 H 320.311 3.26096 2.60866 0
M  V30 3396 N 320.748 -0.0735177 1.57428 0
M  V30 3397 C 321.695 -1.08756 2.0357 0
M  V30 3398 C 322.665 -1.38559 0.916 0
M  V30 3399 O 323.85 -1.49656 1.18354 0
M  V30 3400 C 320.99 -2.39657 2.48311 0
M  V30 3401 C 320.103 -2.16399 3.73892 0
M  V30 3402 C 319.238 -3.40852 4.07423 0
M  V30 3403 C 318.277 -3.1295 5.2605 0
M  V30 3404 N 317.414 -4.29729 5.55228 0
M  V30 3405 H 322.254 -0.687104 2.8997 0
M  V30 3406 H 319.791 -0.327709 1.43403 0
M  V30 3407 H 321.749 -3.16081 2.72303 0
M  V30 3408 H 320.379 -2.77508 1.64891 0
M  V30 3409 H 319.431 -1.30676 3.57251 0
M  V30 3410 H 320.743 -1.91788 4.60455 0
M  V30 3411 H 319.897 -4.25671 4.32306 0
M  V30 3412 H 318.636 -3.68537 3.19425 0
M  V30 3413 H 317.641 -2.26526 5.00965 0
M  V30 3414 H 318.866 -2.86589 6.15665 0
M  V30 3415 H 316.812 -4.57448 4.70188 0
M  V30 3416 H 316.729 -4.08385 6.36206 0
M  V30 3417 H 317.997 -5.1555 5.84661 0
M  V30 3418 N 322.226 -1.5378 -0.344866 0
M  V30 3419 C 323.474 -1.70625 -1.08311 0
M  V30 3420 C 323.795 -0.471447 -1.89215 0
M  V30 3421 O 323.065 0.514616 -1.8902 0
M  V30 3422 H 321.645 -0.629058 -0.402859 0
M  V30 3423 H 324.307 -1.9103 -0.386459 0
M  V30 3424 H 323.403 -2.57656 -1.76124 0
M  V30 3425 N 323.704 0.605807 -1.45491 0
M  V30 3426 C 324.637 1.73022 -1.48791 0
M  V30 3427 C 325.615 1.58917 -0.344112 0
M  V30 3428 O 326.799 1.80453 -0.544876 0
M  V30 3429 C 323.926 3.10865 -1.34463 0
M  V30 3430 C 322.972 3.43554 -2.5273 0
M  V30 3431 S 323.805 3.38196 -4.15191 0
M  V30 3432 C 324.961 4.78616 -4.03333 0
M  V30 3433 H 325.194 1.69961 -2.43928 0
M  V30 3434 H 322.727 0.782611 -1.33096 0
M  V30 3435 H 324.685 3.90398 -1.26884 0
M  V30 3436 H 323.346 3.1144 -0.40794 0
M  V30 3437 H 322.539 4.43924 -2.38637 0
M  V30 3438 H 322.141 2.71541 -2.5718 0
M  V30 3439 H 324.433 5.68463 -3.68587 0
M  V30 3440 H 325.376 4.97767 -5.03621 0
M  V30 3441 H 325.784 4.54381 -3.34959 0
M  V30 3442 N 325.182 1.32811 0.848464 0
M  V30 3443 C 326.092 1.24278 1.98978 0
M  V30 3444 C 327.108 0.155176 1.73307 0
M  V30 3445 O 328.284 0.376999 1.9784 0
M  V30 3446 C 325.349 0.972444 3.32783 0
M  V30 3447 C 324.41 2.14911 3.71634 0
M  V30 3448 C 323.643 1.89157 4.99054 0
M  V30 3449 O 323.866 0.837165 5.64223 0
M  V30 3450 O 322.8 2.75433 5.35183 0
M  V30 3451 H 326.626 2.20238 2.09115 0
M  V30 3452 H 324.211 1.12762 0.980052 0
M  V30 3453 H 326.093 0.838432 4.12975 0
M  V30 3454 H 324.768 0.043051 3.23671 0
M  V30 3455 H 323.675 2.33862 2.91992 0
M  V30 3456 H 325.008 3.06151 3.85399 0
M  V30 3457 N 326.66 -1.06551 1.16123 0
M  V30 3458 C 327.592 -2.13908 0.823171 0
M  V30 3459 C 328.605 -1.61926 -0.16843 0
M  V30 3460 O 329.794 -1.78412 0.055962 0
M  V30 3461 C 326.894 -3.38283 0.204424 0
M  V30 3462 C 326.067 -4.19589 1.23548 0
M  V30 3463 C 325.126 -5.2233 0.637011 0
M  V30 3464 O 324.152 -5.54034 1.30516 0
M  V30 3465 N 325.354 -5.77621 -0.577474 0
M  V30 3466 H 328.119 -2.43508 1.74711 0
M  V30 3467 H 325.68 -1.2253 1.05821 0
M  V30 3468 H 327.672 -4.0416 -0.208909 0
M  V30 3469 H 326.242 -3.06329 -0.623012 0
M  V30 3470 H 325.462 -3.49406 1.82507 0
M  V30 3471 H 326.75 -4.70718 1.93137 0
M  V30 3472 H 326.148 -5.54125 -1.13853 0
M  V30 3473 H 324.705 -6.45087 -0.933053 0
M  V30 3474 N 328.138 -0.959301 -1.25041 0
M  V30 3475 C 329.385 -0.616611 -1.92884 0
M  V30 3476 C 329.713 0.847036 -1.75087 0
M  V30 3477 O 328.968 1.62374 -1.09239 0
M  V30 3478 C 329.267 -0.927136 -3.45165 0
M  V30 3479 C 328.933 -2.37757 -3.83122 0
M  V30 3480 C 327.595 -2.77402 -3.93194 0
M  V30 3481 C 329.947 -3.31929 -4.01836 0
M  V30 3482 C 327.275 -4.10277 -4.19392 0
M  V30 3483 C 329.627 -4.64423 -4.29528 0
M  V30 3484 C 328.291 -5.03857 -4.37818 0
M  V30 3485 H 327.561 -0.225634 -0.705812 0
M  V30 3486 H 330.208 -1.20921 -1.48493 0
M  V30 3487 H 328.513 -0.252195 -3.90987 0
M  V30 3488 H 330.21 -0.6405 -3.95852 0
M  V30 3489 H 326.8 -2.06013 -3.75841 0
M  V30 3490 H 330.984 -3.02488 -3.93465 0
M  V30 3491 H 326.24 -4.40467 -4.24027 0
M  V30 3492 H 330.414 -5.37369 -4.42953 0
M  V30 3493 H 328.041 -6.06843 -4.57871 0
M  V30 3494 N 329.616 1.39756 -0.72842 0
M  V30 3495 C 331.027 1.83498 -0.344289 0
M  V30 3496 C 331.378 1.60868 1.12321 0
M  V30 3497 O 330.503 1.09634 1.86573 0
M  V30 3498 C 331.098 3.33114 -0.618112 0
M  V30 3499 C 329.657 3.753 -0.287549 0
M  V30 3500 C 328.804 2.62831 -0.884048 0
M  V30 3501 H 331.755 1.28842 -0.926578 0
M  V30 3502 H 331.776 3.80334 0.112349 0
M  V30 3503 H 331.288 3.49553 -1.68625 0
M  V30 3504 H 329.389 3.64451 0.775012 0
M  V30 3505 H 329.502 4.72945 -0.765512 0
M  V30 3506 H 327.866 2.52792 -0.311149 0
M  V30 3507 H 328.649 2.82078 -1.95671 0
M  V30 3508 N 331.094 0.475555 1.50254 0
M  V30 3509 C 332.044 -0.335025 2.25525 0
M  V30 3510 C 333.028 -0.957625 1.29299 0
M  V30 3511 O 334.22 -0.869436 1.54175 0
M  V30 3512 C 331.349 -1.41385 3.12834 0
M  V30 3513 C 330.435 -0.798762 4.1651 0
M  V30 3514 N 330.826 0.0835815 5.05731 0
M  V30 3515 C 329.124 -1.06221 4.33166 0
M  V30 3516 C 329.825 0.433113 5.80085 0
M  V30 3517 N 328.801 -0.1928 5.43258 0
M  V30 3518 H 332.603 0.344612 2.91873 0
M  V30 3519 H 330.117 0.289986 1.5979 0
M  V30 3520 H 332.114 -2.00777 3.65368 0
M  V30 3521 H 330.774 -2.09543 2.48036 0
M  V30 3522 H 331.785 0.452715 5.15918 0
M  V30 3523 H 328.462 -1.73844 3.79585 0
M  V30 3524 H 329.852 1.15346 6.61925 0
M  V30 3525 N 332.573 -1.56217 0.208337 0
M  V30 3526 C 333.503 -2.22694 -0.702116 0
M  V30 3527 C 334.484 -1.19432 -1.2112 0
M  V30 3528 O 335.669 -1.47978 -1.25762 0
M  V30 3529 C 332.799 -2.8966 -1.9161 0
M  V30 3530 C 331.753 -3.9928 -1.5414 0
M  V30 3531 C 331.079 -4.53476 -2.83308 0
M  V30 3532 C 332.379 -5.17012 -0.741339 0
M  V30 3533 H 334.073 -2.99034 -0.147898 0
M  V30 3534 H 331.619 -1.43831 -0.0696951 0
M  V30 3535 H 333.572 -3.34852 -2.55836 0
M  V30 3536 H 332.296 -2.10746 -2.49507 0
M  V30 3537 H 330.955 -3.54799 -0.922668 0
M  V30 3538 H 330.603 -3.71308 -3.39322 0
M  V30 3539 H 330.303 -5.27451 -2.58976 0
M  V30 3540 H 331.827 -5.01378 -3.485 0
M  V30 3541 H 333.241 -5.58667 -1.28699 0
M  V30 3542 H 331.638 -5.97137 -0.595627 0
M  V30 3543 H 332.708 -4.8423 0.254851 0
M  V30 3544 N 334.051 0.0651679 -1.57465 0
M  V30 3545 C 335.014 1.06117 -2.03155 0
M  V30 3546 C 336.014 1.31204 -0.929632 0
M  V30 3547 O 337.204 1.26813 -1.19432 0
M  V30 3548 C 334.336 2.4032 -2.41783 0
M  V30 3549 H 335.529 0.667231 -2.92383 0
M  V30 3550 H 333.082 0.311075 -1.53173 0
M  V30 3551 H 333.817 2.84532 -1.55601 0
M  V30 3552 H 333.602 2.23451 -3.22199 0
M  V30 3553 H 335.092 3.11898 -2.77685 0
M  V30 3554 N 335.529 1.53961 0.336706 0
M  V30 3555 C 336.776 1.71536 1.07618 0
M  V30 3556 C 337.104 0.482125 1.8843 0
M  V30 3557 O 336.359 -0.536142 1.88213 0
M  V30 3558 C 336.658 2.93493 2.03953 0
M  V30 3559 C 336.324 4.28811 1.39399 0
M  V30 3560 C 334.986 4.65602 1.21523 0
M  V30 3561 C 337.338 5.12844 0.929541 0
M  V30 3562 C 334.666 5.84037 0.558312 0
M  V30 3563 C 337.018 6.31951 0.286505 0
M  V30 3564 C 335.682 6.67432 0.0954869 0
M  V30 3565 H 334.952 0.627696 0.393801 0
M  V30 3566 H 337.599 1.88186 0.354715 0
M  V30 3567 H 335.904 2.71475 2.82504 0
M  V30 3568 H 337.601 3.04285 2.61174 0
M  V30 3569 H 334.191 3.99858 1.54311 0
M  V30 3570 H 338.375 4.84947 1.05548 0
M  V30 3571 H 333.631 6.10097 0.398995 0
M  V30 3572 H 337.805 6.96352 -0.0814376 0
M  V30 3573 H 335.432 7.59063 -0.415579 0
M  V30 3574 N 337.007 -0.598083 1.45811 0
M  V30 3575 C 338.253 -1.35679 1.51535 0
M  V30 3576 C 338.608 -1.91745 0.15864 0
M  V30 3577 O 337.901 -1.72654 -0.830724 0
M  V30 3578 C 338.095 -2.51669 2.53766 0
M  V30 3579 C 337.924 -2.06963 3.99245 0
M  V30 3580 C 336.694 -1.92693 4.67116 0
M  V30 3581 C 338.892 -1.63855 4.875 0
M  V30 3582 N 336.874 -1.41897 5.97276 0
M  V30 3583 C 338.245 -1.24541 6.07363 0
M  V30 3584 C 340.3 -1.51533 4.74281 0
M  V30 3585 C 339.003 -0.741354 7.15469 0
M  V30 3586 C 341.029 -1.0253 5.82444 0
M  V30 3587 C 340.391 -0.641869 7.01469 0
M  V30 3588 H 336.49 -0.490042 0.609412 0
M  V30 3589 H 339.074 -0.682687 1.82339 0
M  V30 3590 H 337.245 -3.16663 2.24898 0
M  V30 3591 H 338.977 -3.18578 2.4958 0
M  V30 3592 H 335.732 -2.1417 4.22408 0
M  V30 3593 H 336.156 -1.18704 6.66512 0
M  V30 3594 H 340.798 -1.798 3.82664 0
M  V30 3595 H 338.516 -0.446243 8.06867 0
M  V30 3596 H 342.102 -0.934088 5.74253 0
M  V30 3597 H 340.982 -0.268531 7.8374 0
M  V30 3598 N 338.485 -1.33259 -0.841409 0
M  V30 3599 C 339.417 -1.19136 -1.95804 0
M  V30 3600 C 340.43 -0.122965 -1.62335 0
M  V30 3601 O 341.619 -0.373154 -1.74556 0
M  V30 3602 C 338.719 -0.804268 -3.29218 0
M  V30 3603 C 337.892 -1.96376 -3.90839 0
M  V30 3604 C 336.951 -1.55806 -5.02604 0
M  V30 3605 O 335.977 -2.27203 -5.21888 0
M  V30 3606 N 337.179 -0.461609 -5.78662 0
M  V30 3607 H 339.944 -2.15326 -2.08458 0
M  V30 3608 H 337.505 -1.25971 -1.017 0
M  V30 3609 H 339.497 -0.51501 -4.0141 0
M  V30 3610 H 338.067 0.0668809 -3.12528 0
M  V30 3611 H 337.287 -2.41879 -3.11269 0
M  V30 3612 H 338.575 -2.73966 -4.28742 0
M  V30 3613 H 337.973 0.132343 -5.65545 0
M  V30 3614 H 336.53 -0.232013 -6.51387 0
M  V30 3615 N 339.963 1.05934 -1.16686 0
M  V30 3616 C 341.24 1.75643 -0.860747 0
M  V30 3617 C 341.62 2.01144 0.640641 0
M  V30 3618 O 340.968 1.64147 1.58959 0
M  V30 3619 C 341.178 3.05493 -1.68745 0
M  V30 3620 C 342.526 3.79581 -1.90271 0
M  V30 3621 O 343.55 3.15344 -1.65641 0
M  V30 3622 O 342.409 4.9499 -2.31618 0
M  V30 3623 H 339.503 0.763426 -0.317977 0
M  V30 3624 H 342.049 1.1217 -1.27342 0
M  V30 3625 H 340.821 2.8264 -2.70611 0
M  V30 3626 H 340.444 3.76702 -1.27206 0
M  V30 3627 N 341.441 0.965919 1.2453 0
M  V30 3628 C 342.371 0.513476 2.27784 0
M  V30 3629 C 343.352 -0.445974 1.6415 0
M  V30 3630 O 344.537 -0.342485 1.91156 0
M  V30 3631 C 341.667 -0.198839 3.4673 0
M  V30 3632 C 340.621 0.676456 4.2262 0
M  V30 3633 C 339.947 -0.167248 5.34438 0
M  V30 3634 C 341.247 1.96017 4.84123 0
M  V30 3635 H 342.941 1.3765 2.65881 0
M  V30 3636 H 340.487 0.663321 1.27813 0
M  V30 3637 H 342.44 -0.526567 4.18097 0
M  V30 3638 H 341.164 -1.0962 3.07654 0
M  V30 3639 H 339.823 0.98743 3.53052 0
M  V30 3640 H 339.471 -1.0647 4.91603 0
M  V30 3641 H 339.171 0.415181 5.86131 0
M  V30 3642 H 340.695 -0.489688 6.08633 0
M  V30 3643 H 342.109 1.69814 5.47573 0
M  V30 3644 H 340.506 2.48918 5.4604 0
M  V30 3645 H 341.576 2.65622 4.05676 0
M  V30 3646 N 342.919 -1.39368 0.735821 0
M  V30 3647 C 344.167 -2.00101 0.283562 0
M  V30 3648 C 344.488 -1.5868 -1.13338 0
M  V30 3649 O 343.758 -0.835423 -1.77193 0
M  V30 3650 H 342.338 -0.740024 0.101851 0
M  V30 3651 H 345 -1.70404 0.945962 0
M  V30 3652 H 344.096 -3.10323 0.332604 0
M  V30 3653 N 344.397 -0.483516 -1.5 0
M  V30 3654 C 345.345 0.318061 -2.30415 0
M  V30 3655 C 346.339 0.978988 -1.38247 0
M  V30 3656 O 347.545 0.908673 -1.55381 0
M  V30 3657 H 343.92 0.121419 -0.742133 0
M  V30 3658 H 345.891 -0.380403 -2.95965 0
M  V30 3659 C 344.64 1.38013 -3.19136 0
M  V30 3660 H 343.963 0.880952 -3.89973 0
M  V30 3661 H 345.403 1.91332 -3.78375 0
M  V30 3662 C 343.862 2.38884 -2.37563 0
M  V30 3663 O 344.392 3.44412 -2.06744 0
M  V30 3664 N 342.598 2.10912 -1.99911 0
M  V30 3665 H 342.145 1.25118 -2.25174 0
M  V30 3666 H 342.103 2.78635 -1.45636 0
M  V30 3667 N 345.875 1.56104 -0.216619 0
M  V30 3668 C 346.805 2.23063 0.690296 0
M  V30 3669 C 347.786 1.20072 1.20485 0
M  V30 3670 O 348.971 1.48643 1.24976 0
M  V30 3671 C 346.101 2.90672 1.90072 0
M  V30 3672 C 345.055 4.00092 1.5202 0
M  V30 3673 C 344.381 4.54972 2.80899 0
M  V30 3674 C 345.681 5.17398 0.71391 0
M  V30 3675 H 347.375 2.99109 0.132038 0
M  V30 3676 H 344.921 1.43866 0.0620664 0
M  V30 3677 H 346.874 3.36204 2.54057 0
M  V30 3678 H 345.598 2.12066 2.48386 0
M  V30 3679 H 344.257 3.55283 0.903839 0
M  V30 3680 H 343.905 3.73102 3.37348 0
M  V30 3681 H 343.605 5.28817 2.56176 0
M  V30 3682 H 345.129 5.0322 3.45836 0
M  V30 3683 H 346.543 5.59342 1.25735 0
M  V30 3684 H 344.94 5.97444 0.563951 0
M  V30 3685 H 346.01 4.84088 -0.280527 0
M  V30 3686 N 347.353 -0.0568162 1.57498 0
M  V30 3687 C 348.599 -0.75422 1.88253 0
M  V30 3688 C 348.932 -1.76461 0.810865 0
M  V30 3689 O 348.207 -1.93691 -0.177259 0
M  V30 3690 C 348.49 -1.44878 3.2967 0
M  V30 3691 C 348.343 -0.453789 4.47505 0
M  V30 3692 C 349.662 -2.38994 3.69554 0
M  V30 3693 H 346.781 -0.272724 0.684683 0
M  V30 3694 H 349.423 -0.0172113 1.89992 0
M  V30 3695 H 347.573 -2.077 3.28318 0
M  V30 3696 H 349.245 0.170371 4.60985 0
M  V30 3697 H 347.488 0.229552 4.33192 0
M  V30 3698 H 348.159 -0.977699 5.43273 0
M  V30 3699 H 350.635 -1.86239 3.72095 0
M  V30 3700 H 349.511 -2.84587 4.69363 0
M  V30 3701 H 349.772 -3.24461 3.00296 0
M  V30 3702 N 348.832 -1.54138 -0.328536 0
M  V30 3703 C 349.795 -1.82462 -1.38709 0
M  V30 3704 C 350.795 -0.696229 -1.44946 0
M  V30 3705 O 351.985 -0.964535 -1.4506 0
M  V30 3706 C 349.117 -1.98018 -2.77492 0
M  V30 3707 H 350.31 -2.77037 -1.14851 0
M  V30 3708 H 347.863 -1.45779 -0.563751 0
M  V30 3709 H 348.598 -1.05637 -3.06613 0
M  V30 3710 H 348.383 -2.80124 -2.74359 0
M  V30 3711 H 349.873 -2.21396 -3.54081 0
M  V30 3712 N 350.31 0.590341 -1.46126 0
M  V30 3713 C 351.587 1.35029 -1.41515 0
M  V30 3714 C 351.967 2.10888 -0.0946472 0
M  V30 3715 O 351.315 2.08998 0.923693 0
M  V30 3716 C 351.525 2.28269 -2.63997 0
M  V30 3717 C 352.873 2.90338 -3.09821 0
M  V30 3718 O 353.897 2.38585 -2.64492 0
M  V30 3719 O 352.756 3.84321 -3.88535 0
M  V30 3720 H 349.85 0.606317 -0.562413 0
M  V30 3721 H 352.396 0.611994 -1.58281 0
M  V30 3722 H 351.168 1.71591 -3.51671 0
M  V30 3723 H 350.791 3.0945 -2.49652 0
M  V30 3724 N 351.788 1.33704 0.83433 0
M  V30 3725 C 353.036 1.25169 1.58673 0
M  V30 3726 C 353.357 -0.18127 1.94156 0
M  V30 3727 O 352.627 -1.11113 1.6134 0
M  V30 3728 H 351.207 0.4603 0.58833 0
M  V30 3729 H 353.869 1.67478 0.996847 0
M  V30 3730 H 352.965 1.84856 2.51465 0
M  V30 3731 N 353.266 -1.05314 1.17247 0
M  V30 3732 C 354.506 -1.79869 0.970898 0
M  V30 3733 C 354.87 -1.85594 -0.491808 0
M  V30 3734 O 356.071 -2.56229 -0.812409 0
M  V30 3735 C 354.342 -3.19937 1.59295 0
M  V30 3736 S 355.901 -4.10986 1.53741 0
M  V30 3737 H 352.719 -0.61949 0.348931 0
M  V30 3738 H 355.321 -1.26368 1.49169 0
M  V30 3739 H 354.025 -3.13372 2.65003 0
M  V30 3740 H 353.556 -3.78515 1.07191 0
M  V30 3741 H 355.571 -4.93203 0.544537 0
M  V30 3742 N 354.744 -0.972509 -1.24016 0
M  V30 3743 C 356.021 -0.553733 -1.87598 0
M  V30 3744 C 356.401 0.969158 -1.87538 0
M  V30 3745 O 355.749 1.84255 -1.35139 0
M  V30 3746 C 355.959 -1.15076 -3.29482 0
M  V30 3747 C 357.307 -1.23862 -4.06132 0
M  V30 3748 O 358.331 -1.10363 -3.38672 0
M  V30 3749 O 357.19 -1.45252 -5.26844 0
M  V30 3750 H 354.284 -0.185331 -0.805966 0
M  V30 3751 H 356.83 -1.06709 -1.31952 0
M  V30 3752 H 355.602 -2.19333 -3.2405 0
M  V30 3753 H 355.225 -0.621746 -3.92709 0
M  V30 3754 N 356.222 1.38976 -0.743202 0
M  V30 3755 C 357.469 2.00343 -0.294752 0
M  V30 3756 C 357.797 1.58983 1.12047 0
M  V30 3757 O 357.052 0.813809 1.77977 0
M  V30 3758 C 357.351 3.55647 -0.353517 0
M  V30 3759 C 357.017 4.16685 -1.72292 0
M  V30 3760 C 355.679 4.3307 -2.09771 0
M  V30 3761 C 358.031 4.50464 -2.62168 0
M  V30 3762 C 355.359 4.80526 -3.36618 0
M  V30 3763 C 357.711 4.99332 -3.88395 0
M  V30 3764 C 356.375 5.13924 -4.25956 0
M  V30 3765 H 355.645 0.733108 -0.107857 0
M  V30 3766 H 358.292 1.6618 -0.951651 0
M  V30 3767 H 356.597 3.89884 0.386954 0
M  V30 3768 H 358.294 4.00998 0.0117269 0
M  V30 3769 H 354.884 4.04339 -1.42155 0
M  V30 3770 H 359.068 4.37416 -2.3448 0
M  V30 3771 H 354.324 4.90008 -3.65653 0
M  V30 3772 H 358.498 5.2444 -4.58187 0
M  V30 3773 H 356.125 5.50457 -5.2431 0
M  V30 3774 N 357.7 0.491464 1.49741 0
M  V30 3775 C 358.946 -0.0565092 2.02721 0
M  V30 3776 C 359.279 -1.37522 1.37118 0
M  V30 3777 O 358.554 -1.87866 0.503645 0
M  V30 3778 C 358.837 -0.219051 3.59433 0
M  V30 3779 C 358.69 1.12211 4.35579 0
M  V30 3780 C 360.009 -0.964157 4.29409 0
M  V30 3781 H 357.128 -0.0190627 0.736753 0
M  V30 3782 H 359.77 0.641021 1.7886 0
M  V30 3783 H 357.92 -0.813165 3.79895 0
M  V30 3784 H 359.592 1.75437 4.26637 0
M  V30 3785 H 357.835 1.71377 3.98513 0
M  V30 3786 H 358.506 0.961794 5.43556 0
M  V30 3787 H 360.982 -0.460378 4.13545 0
M  V30 3788 H 359.858 -1.04671 5.38828 0
M  V30 3789 H 360.119 -2.00563 3.93988 0
M  V30 3790 N 359.178 -1.55987 0.224894 0
M  V30 3791 C 360.418 -2.00293 -0.407706 0
M  V30 3792 C 360.782 -1.1093 -1.56711 0
M  V30 3793 O 361.983 -1.44597 -2.26595 0
M  V30 3794 C 360.254 -3.47675 -0.82805 0
M  V30 3795 S 361.813 -4.14 -1.45429 0
M  V30 3796 H 358.631 -0.699152 -0.129256 0
M  V30 3797 H 361.233 -1.92609 0.334967 0
M  V30 3798 H 359.937 -4.10392 0.0253964 0
M  V30 3799 H 359.468 -3.59239 -1.60345 0
M  V30 3800 H 361.483 -4.13465 -2.74337 0
M  V30 3801 N 360.656 0.0484629 -1.57525 0
M  V30 3802 C 362.072 0.40375 -1.54409 0
M  V30 3803 C 362.272 1.77786 -0.948384 0
M  V30 3804 O 361.328 2.46189 -0.560983 0
M  V30 3805 C 362.641 0.323394 -2.98956 0
M  V30 3806 C 364.189 0.401892 -3.10409 0
M  V30 3807 C 364.664 0.351195 -4.56652 0
M  V30 3808 N 366.155 0.410576 -4.61377 0
M  V30 3809 C 366.89 0.393933 -5.72045 0
M  V30 3810 N 366.386 0.330724 -6.9201 0
M  V30 3811 N 368.179 0.442227 -5.60358 0
M  V30 3812 H 360.33 -0.851016 -1.94606 0
M  V30 3813 H 362.593 -0.321721 -0.89174 0
M  V30 3814 H 362.299 -0.62011 -3.4619 0
M  V30 3815 H 362.173 1.12463 -3.60044 0
M  V30 3816 H 364.56 1.33582 -2.63134 0
M  V30 3817 H 364.641 -0.428342 -2.52188 0
M  V30 3818 H 364.285 -0.578987 -5.04589 0
M  V30 3819 H 364.215 1.19928 -5.12762 0
M  V30 3820 H 366.706 0.462729 -3.75056 0
M  V30 3821 H 367.019 0.322592 -7.72126 0
M  V30 3822 H 365.364 0.29706 -6.94365 0
M  V30 3823 H 368.555 0.489464 -4.65534 0
M  V30 3824 H 368.728 0.425788 -6.466 0
M  V30 3825 N 362.134 1.5431 0.320358 0
M  V30 3826 C 363.359 1.76954 1.08175 0
M  V30 3827 C 363.784 0.518193 1.80821 0
M  V30 3828 O 363.142 -0.530411 1.73368 0
M  V30 3829 C 363.19 2.96451 2.05303 0
M  V30 3830 O 362.294 2.68221 3.13259 0
M  V30 3831 H 361.635 0.586275 0.311733 0
M  V30 3832 H 364.165 2.01342 0.363676 0
M  V30 3833 H 364.175 3.23887 2.48116 0
M  V30 3834 H 362.85 3.87196 1.51829 0
M  V30 3835 H 361.427 2.51744 2.75099 0
M  V30 3836 N 363.613 -0.582584 1.46437 0
M  V30 3837 C 364.56 -1.69164 1.5701 0
M  V30 3838 C 365.53 -1.60847 0.414403 0
M  V30 3839 O 366.715 -1.80058 0.631171 0
M  V30 3840 C 363.855 -3.075 1.56646 0
M  V30 3841 C 362.968 -3.2644 2.82951 0
M  V30 3842 C 362.103 -4.55026 2.7409 0
M  V30 3843 C 361.142 -4.6731 3.95333 0
M  V30 3844 N 360.279 -5.87221 3.84858 0
M  V30 3845 H 365.119 -1.59464 2.51744 0
M  V30 3846 H 362.656 -0.777186 1.24893 0
M  V30 3847 H 364.614 -3.8757 1.5442 0
M  V30 3848 H 363.244 -3.16096 0.654439 0
M  V30 3849 H 362.296 -2.39974 2.95155 0
M  V30 3850 H 363.608 -3.31385 3.72808 0
M  V30 3851 H 362.762 -5.43324 2.6997 0
M  V30 3852 H 361.501 -4.52519 1.81873 0
M  V30 3853 H 360.506 -3.77429 3.99784 0
M  V30 3854 H 361.731 -4.71595 4.88646 0
M  V30 3855 H 359.677 -5.85712 2.95427 0
M  V30 3856 H 359.594 -5.93435 4.6837 0
M  V30 3857 H 360.862 -6.7795 3.84713 0
M  V30 3858 N 365.091 -1.34144 -0.827227 0
M  V30 3859 C 366.502 -1.23557 -1.39966 0
M  V30 3860 C 366.853 0.140731 -1.95695 0
M  V30 3861 O 365.978 1.04087 -1.89723 0
M  V30 3862 C 366.573 -2.23708 -2.54441 0
M  V30 3863 C 365.132 -2.16924 -3.07605 0
M  V30 3864 C 364.279 -2.10549 -1.80456 0
M  V30 3865 H 367.23 -1.45573 -0.631991 0
M  V30 3866 H 367.251 -1.85157 -3.32411 0
M  V30 3867 H 366.763 -3.23866 -2.13851 0
M  V30 3868 H 364.864 -1.20107 -3.52711 0
M  V30 3869 H 364.977 -3.07988 -3.66988 0
M  V30 3870 H 363.341 -1.56203 -2.01178 0
M  V30 3871 H 364.124 -3.12535 -1.42046 0
M  V30 3872 N 366.569 1.04691 -1.17803 0
M  V30 3873 C 367.985 1.29963 -0.926379 0
M  V30 3874 C 368.185 1.97251 0.411635 0
M  V30 3875 O 367.241 2.24922 1.14744 0
M  V30 3876 C 368.554 2.16447 -2.08737 0
M  V30 3877 C 370.102 2.29814 -2.12496 0
M  V30 3878 C 370.577 3.19661 -3.27995 0
M  V30 3879 N 372.068 3.27247 -3.27816 0
M  V30 3880 C 372.803 3.96906 -4.13827 0
M  V30 3881 N 372.299 4.6895 -5.09959 0
M  V30 3882 N 374.092 3.93122 -4.01761 0
M  V30 3883 H 366.243 0.594182 -2.0392 0
M  V30 3884 H 368.506 0.324649 -0.890678 0
M  V30 3885 H 368.212 1.74304 -3.05469 0
M  V30 3886 H 368.086 3.17103 -2.04268 0
M  V30 3887 H 370.473 2.71196 -1.16347 0
M  V30 3888 H 370.554 1.2877 -2.21025 0
M  V30 3889 H 370.198 2.78991 -4.24413 0
M  V30 3890 H 370.128 4.20722 -3.16703 0
M  V30 3891 H 372.619 2.75921 -2.58217 0
M  V30 3892 H 372.932 5.19679 -5.71974 0
M  V30 3893 H 371.277 4.67875 -5.13924 0
M  V30 3894 H 374.468 3.35967 -3.2595 0
M  V30 3895 H 374.641 4.47139 -4.6901 0
M  V30 3896 N 368.047 0.979072 1.23499 0
M  V30 3897 C 368.995 0.510604 2.26926 0
M  V30 3898 C 369.989 -0.431691 1.63807 0
M  V30 3899 O 371.195 -0.30573 1.77385 0
M  V30 3900 H 367.57 0.146688 0.737554 0
M  V30 3901 H 369.541 1.39466 2.63803 0
M  V30 3902 C 368.29 -0.172658 3.47271 0
M  V30 3903 H 367.613 0.543331 3.96091 0
M  V30 3904 H 369.053 -0.464101 4.21452 0
M  V30 3905 C 367.512 -1.40345 3.06276 0
M  V30 3906 O 368.042 -2.49978 3.14442 0
M  V30 3907 N 366.248 -1.27362 2.61203 0
M  V30 3908 H 365.795 -0.381584 2.54758 0
M  V30 3909 H 365.753 -2.09822 2.34141 0
M  V30 3910 N 369.525 -1.3858 0.750561 0
M  V30 3911 C 370.771 -2.00481 0.305825 0
M  V30 3912 C 371.104 -1.5944 -1.10872 0
M  V30 3913 O 370.379 -0.83052 -1.75877 0
M  V30 3914 C 370.662 -3.5758 0.425287 0
M  V30 3915 C 370.515 -4.08594 1.88072 0
M  V30 3916 C 371.834 -4.39719 -0.183122 0
M  V30 3917 H 368.953 -0.728348 0.112598 0
M  V30 3918 H 371.595 -1.64566 0.949638 0
M  V30 3919 H 369.745 -3.88306 -0.122828 0
M  V30 3920 H 371.417 -3.88523 2.48691 0
M  V30 3921 H 369.66 -3.61574 2.39681 0
M  V30 3922 H 370.331 -5.177 1.91548 0
M  V30 3923 H 372.807 -4.15128 0.284303 0
M  V30 3924 H 371.683 -5.48856 -0.0692757 0
M  V30 3925 H 371.944 -4.23434 -1.27106 0
M  V30 3926 N 371.003 -0.499398 -1.49478 0
M  V30 3927 C 372.414 -0.051215 -1.8663 0
M  V30 3928 C 372.765 1.36238 -1.41186 0
M  V30 3929 O 371.89 2.01502 -0.789051 0
M  V30 3930 C 372.485 -0.0861651 -3.3869 0
M  V30 3931 C 371.044 0.30667 -3.75149 0
M  V30 3932 C 370.191 -0.459397 -2.73468 0
M  V30 3933 H 373.142 -0.712264 -1.41818 0
M  V30 3934 H 373.163 0.709507 -3.73826 0
M  V30 3935 H 372.675 -1.11512 -3.71735 0
M  V30 3936 H 370.776 1.33892 -3.47712 0
M  V30 3937 H 370.889 -0.0116669 -4.79099 0
M  V30 3938 H 369.253 0.0905645 -2.54539 0
M  V30 3939 H 370.036 -1.4884 -3.09357 0
M  V30 3940 N 372.481 1.55866 -0.233164 0
M  V30 3941 C 373.444 2.1953 0.658715 0
M  V30 3942 C 374.444 1.16053 1.11303 0
M  V30 3943 O 375.634 1.41218 1.01996 0
M  V30 3944 C 372.766 2.82791 1.90373 0
M  V30 3945 H 373.959 2.99721 0.10347 0
M  V30 3946 H 371.512 1.56291 0.0164245 0
M  V30 3947 H 372.247 2.06501 2.50056 0
M  V30 3948 H 372.032 3.58578 1.58632 0
M  V30 3949 H 373.522 3.31556 2.53891 0
M  V30 3950 N 373.959 -0.0401083 1.57549 0
M  V30 3951 C 374.922 -1.02871 2.04817 0
M  V30 3952 C 375.922 -1.29708 0.950388 0
M  V30 3953 O 377.112 -1.24897 1.21435 0
M  V30 3954 C 374.244 -2.36443 2.45576 0
M  V30 3955 H 375.437 -0.620631 2.93408 0
M  V30 3956 H 372.99 -0.286667 1.53649 0
M  V30 3957 H 373.725 -2.82021 1.60108 0
M  V30 3958 H 373.51 -2.18296 3.25713 0
M  V30 3959 H 375 -3.07441 2.82612 0
M  V30 3960 N 375.437 -1.54477 -0.31217 0
M  V30 3961 C 376.667 -1.76948 -1.06645 0
M  V30 3962 C 377.075 -0.523593 -1.81811 0
M  V30 3963 O 376.418 0.51578 -1.76311 0
M  V30 3964 C 376.48 -2.91668 -2.10166 0
M  V30 3965 C 376.144 -4.30165 -1.54296 0
M  V30 3966 C 377.141 -5.10603 -0.978793 0
M  V30 3967 C 374.826 -4.76738 -1.58196 0
M  V30 3968 C 376.82 -6.3573 -0.461048 0
M  V30 3969 C 374.507 -6.01831 -1.06034 0
M  V30 3970 C 375.505 -6.81161 -0.500844 0
M  V30 3971 O 375.193 -8.03899 0.0128958 0
M  V30 3972 H 374.925 -0.594088 -0.322546 0
M  V30 3973 H 377.479 -2.02213 -0.360441 0
M  V30 3974 H 375.709 -2.62001 -2.84416 0
M  V30 3975 H 377.398 -3.01817 -2.71406 0
M  V30 3976 H 378.164 -4.75771 -0.941651 0
M  V30 3977 H 374.043 -4.15027 -2.00683 0
M  V30 3978 H 377.587 -6.97596 -0.0236894 0
M  V30 3979 H 373.484 -6.36152 -1.09459 0
M  V30 3980 H 374.252 -8.18437 -0.101457 0
M  V30 3981 N 376.915 0.57481 -1.46744 0
M  V30 3982 C 378.331 0.898981 -1.31873 0
M  V30 3983 C 378.531 1.99313 -0.29605 0
M  V30 3984 O 377.587 2.50728 0.298621 0
M  V30 3985 C 378.9 1.30886 -2.7072 0
M  V30 3986 C 380.448 1.42127 -2.78871 0
M  V30 3987 C 380.923 1.86478 -4.18318 0
M  V30 3988 N 382.414 1.93658 -4.20774 0
M  V30 3989 C 383.149 2.29267 -5.2557 0
M  V30 3990 N 382.645 2.63612 -6.40688 0
M  V30 3991 N 384.438 2.29889 -5.1294 0
M  V30 3992 H 376.589 -0.147839 -2.11885 0
M  V30 3993 H 378.852 -0.00347013 -0.947994 0
M  V30 3994 H 378.558 0.578853 -3.46904 0
M  V30 3995 H 378.432 2.26874 -3.01343 0
M  V30 3996 H 380.819 2.14213 -2.0297 0
M  V30 3997 H 380.9 0.443705 -2.51922 0
M  V30 3998 H 380.544 1.14968 -4.94717 0
M  V30 3999 H 380.474 2.85207 -4.42679 0
M  V30 4000 H 382.965 1.69574 -3.37718 0
M  V30 4001 H 383.278 2.89759 -7.16421 0
M  V30 4002 H 381.623 2.61232 -6.44036 0
M  V30 4003 H 384.814 2.02485 -4.22039 0
M  V30 4004 H 384.987 2.57312 -5.94722 0
M  V30 4005 N 378.394 1.34581 0.820102 0
M  V30 4006 C 379.642 1.26845 1.57336 0
M  V30 4007 C 379.963 -0.160667 1.94337 0
M  V30 4008 O 379.233 -1.09396 1.6251 0
M  V30 4009 H 377.813 0.466514 0.583415 0
M  V30 4010 H 380.475 1.68526 0.979027 0
M  V30 4011 H 379.571 1.87513 2.4949 0
M  V30 4012 N 379.872 -1.04064 1.18357 0
M  V30 4013 C 381.118 -1.77528 0.980397 0
M  V30 4014 C 381.451 -1.87948 -0.48879 0
M  V30 4015 O 380.726 -1.3876 -1.36293 0
M  V30 4016 C 381.009 -3.20797 1.63588 0
M  V30 4017 C 380.862 -3.1832 3.17793 0
M  V30 4018 C 382.181 -4.18911 1.34914 0
M  V30 4019 H 379.3 -0.644443 0.357578 0
M  V30 4020 H 381.942 -1.2156 1.46024 0
M  V30 4021 H 380.092 -3.68586 1.22788 0
M  V30 4022 H 381.764 -2.78521 3.67728 0
M  V30 4023 H 380.007 -2.56351 3.49952 0
M  V30 4024 H 380.678 -4.19489 3.58794 0
M  V30 4025 H 383.154 -3.7967 1.70265 0
M  V30 4026 H 382.03 -5.17374 1.83346 0
M  V30 4027 H 382.291 -4.41262 0.272027 0
M  V30 4028 N 381.35 -0.985608 -1.22978 0
M  V30 4029 C 382.598 -0.656087 -1.91154 0
M  V30 4030 C 382.919 0.813561 -1.77218 0
M  V30 4031 O 382.189 1.58244 -1.1548 0
M  V30 4032 H 380.769 -0.239674 -0.707506 0
M  V30 4033 H 383.431 -1.25054 -1.49491 0
M  V30 4034 H 382.527 -0.912253 -2.9847 0
M  V30 4035 N 382.828 1.3818 -0.7579 0
M  V30 4036 C 384.105 1.94106 -0.241306 0
M  V30 4037 C 384.485 1.69282 1.26122 0
M  V30 4038 O 383.833 1.03378 2.03777 0
M  V30 4039 C 384.043 3.43809 -0.59967 0
M  V30 4040 C 385.391 4.20868 -0.561717 0
M  V30 4041 O 386.415 3.5211 -0.538222 0
M  V30 4042 O 385.274 5.43451 -0.576478 0
M  V30 4043 H 382.368 0.825376 -0.0518042 0
M  V30 4044 H 384.914 1.47548 -0.838315 0
M  V30 4045 H 383.686 3.55403 -1.6372 0
M  V30 4046 H 383.309 3.97592 0.0251197 0
M  V30 4047 N 384.306 0.507319 1.49211 0
M  V30 4048 C 385.583 -0.0982702 1.95353 0
M  V30 4049 C 385.963 -1.53516 1.449 0
M  V30 4050 O 385.311 -2.18594 0.66551 0
M  V30 4051 C 385.521 -0.00440283 3.49 0
M  V30 4052 C 386.869 -0.175147 4.24239 0
M  V30 4053 O 387.893 -0.0792891 3.56112 0
M  V30 4054 O 386.752 -0.37276 5.45227 0
M  V30 4055 H 383.846 -0.0918236 0.821887 0
M  V30 4056 H 386.392 0.570307 1.5983 0
M  V30 4057 H 385.164 0.997402 3.78375 0
M  V30 4058 H 384.787 -0.712845 3.91158 0
M  V30 4059 N 385.784 -1.5574 0.241426 0
M  V30 4060 C 386.716 -2.18469 -0.693091 0
M  V30 4061 C 387.729 -1.15942 -1.14286 0
M  V30 4062 O 388.918 -1.42832 -1.07058 0
M  V30 4063 C 386.018 -2.7696 -1.95311 0
M  V30 4064 C 385.191 -4.04853 -1.65568 0
M  V30 4065 C 384.25 -4.47715 -2.76474 0
M  V30 4066 O 383.276 -5.14205 -2.44094 0
M  V30 4067 N 384.478 -4.15044 -4.05855 0
M  V30 4068 H 387.243 -2.99292 -0.156388 0
M  V30 4069 H 384.804 -1.61784 0.0611752 0
M  V30 4070 H 386.796 -3.02594 -2.68736 0
M  V30 4071 H 385.366 -2.00326 -2.39975 0
M  V30 4072 H 384.586 -3.86865 -0.756886 0
M  V30 4073 H 385.874 -4.88246 -1.43153 0
M  V30 4074 H 385.272 -3.61654 -4.34998 0
M  V30 4075 H 383.829 -4.45526 -4.75762 0
M  V30 4076 N 387.262 0.0317525 -1.57568 0
M  V30 4077 C 388.192 1.03274 -2.0942 0
M  V30 4078 C 389.173 1.3788 -0.996143 0
M  V30 4079 O 390.358 1.46811 -1.27122 0
M  V30 4080 C 387.488 2.33448 -2.57137 0
M  V30 4081 C 386.442 2.13091 -3.71182 0
M  V30 4082 C 385.768 3.49001 -4.05095 0
M  V30 4083 C 387.068 1.51928 -4.99715 0
M  V30 4084 H 388.762 0.60112 -2.93303 0
M  V30 4085 H 386.308 0.287705 -1.41097 0
M  V30 4086 H 388.261 3.03802 -2.92032 0
M  V30 4087 H 386.985 2.78665 -1.70333 0
M  V30 4088 H 385.644 1.45171 -3.36632 0
M  V30 4089 H 385.292 3.91862 -3.15362 0
M  V30 4090 H 384.992 3.36207 -4.81911 0
M  V30 4091 H 386.516 4.20721 -4.42522 0
M  V30 4092 H 387.93 2.12196 -5.32584 0
M  V30 4093 H 386.327 1.49716 -5.81124 0
M  V30 4094 H 387.397 0.484811 -4.8247 0
M  V30 4095 N 388.74 1.54641 0.303973 0
M  V30 4096 C 389.988 1.73437 1.0375 0
M  V30 4097 C 390.309 0.521449 1.87899 0
M  V30 4098 O 389.579 -0.46432 1.90318 0
M  V30 4099 H 388.159 0.639518 0.386039 0
M  V30 4100 H 390.821 1.91988 0.335675 0
M  V30 4101 H 389.917 2.62235 1.69231 0
M  V30 4102 N 390.218 -0.567019 1.47046 0
M  V30 4103 C 391.128 -1.70247 1.6141 0
M  V30 4104 C 392.144 -1.66746 0.497157 0
M  V30 4105 O 393.32 -1.86371 0.763389 0
M  V30 4106 C 390.385 -3.06756 1.61561 0
M  V30 4107 C 389.446 -3.21399 2.84607 0
M  V30 4108 C 388.679 -4.51396 2.84741 0
M  V30 4109 O 388.902 -5.36255 1.94388 0
M  V30 4110 O 387.836 -4.69621 3.76483 0
M  V30 4111 H 391.662 -1.61073 2.57467 0
M  V30 4112 H 389.247 -0.735894 1.30019 0
M  V30 4113 H 391.129 -3.8801 1.64396 0
M  V30 4114 H 389.804 -3.16333 0.686684 0
M  V30 4115 H 388.711 -2.39579 2.8732 0
M  V30 4116 H 390.044 -3.16721 3.76761 0
M  V30 4117 N 391.696 -1.35014 -0.812953 0
M  V30 4118 C 392.606 -1.2951 -1.95613 0
M  V30 4119 C 393.622 -0.20107 -1.72834 0
M  V30 4120 O 394.798 -0.42932 -1.96771 0
M  V30 4121 C 391.863 -1.06033 -3.30088 0
M  V30 4122 C 390.924 -2.24688 -3.65805 0
M  V30 4123 C 390.157 -2.02322 -4.93864 0
M  V30 4124 O 390.38 -0.986464 -5.61805 0
M  V30 4125 O 389.314 -2.89525 -5.27692 0
M  V30 4126 H 393.14 -2.25705 -2.03202 0
M  V30 4127 H 390.725 -1.15321 -0.949811 0
M  V30 4128 H 392.607 -0.94763 -4.10607 0
M  V30 4129 H 391.282 -0.128852 -3.23443 0
M  V30 4130 H 390.189 -2.41521 -2.85689 0
M  V30 4131 H 391.522 -3.16261 -3.77147 0
M  V30 4132 N 393.175 1.03435 -1.18907 0
M  V30 4133 C 394.4 1.80919 -1.01406 0
M  V30 4134 C 394.825 1.83055 0.432721 0
M  V30 4135 O 394.183 1.25252 1.31079 0
M  V30 4136 C 394.231 3.24091 -1.58105 0
M  V30 4137 O 393.335 4.04434 -0.806669 0
M  V30 4138 H 392.676 0.558709 -0.358803 0
M  V30 4139 H 395.206 1.30223 -1.57807 0
M  V30 4140 H 395.216 3.74853 -1.61087 0
M  V30 4141 H 393.891 3.21851 -2.6341 0
M  V30 4142 H 392.468 3.63091 -0.849666 0
M  V30 4143 N 394.653 0.992116 1.22453 0
M  V30 4144 C 395.563 0.55065 2.28046 0
M  V30 4145 C 396.579 -0.400189 1.69335 0
M  V30 4146 O 397.755 -0.267215 1.99619 0
M  V30 4147 C 394.82 -0.128496 3.46462 0
M  V30 4148 C 393.881 0.865208 4.20491 0
M  V30 4149 C 393.114 0.218377 5.33253 0
M  V30 4150 O 393.337 -0.987894 5.6178 0
M  V30 4151 O 392.271 0.922845 5.94783 0
M  V30 4152 H 396.097 1.4291 2.67975 0
M  V30 4153 H 393.682 0.760326 1.28606 0
M  V30 4154 H 395.564 -0.508947 4.18315 0
M  V30 4155 H 394.239 -0.981526 3.0846 0
M  V30 4156 H 393.146 1.29658 3.50913 0
M  V30 4157 H 394.479 1.68741 4.62371 0
M  V30 4158 N 396.131 -1.37776 0.765217 0
M  V30 4159 C 397.041 -2.34135 0.147666 0
M  V30 4160 C 398.057 -1.59854 -0.687215 0
M  V30 4161 O 399.233 -1.91983 -0.608659 0
M  V30 4162 C 396.298 -3.3901 -0.72617 0
M  V30 4163 C 395.359 -4.2912 0.124417 0
M  V30 4164 C 394.592 -5.28986 -0.707807 0
M  V30 4165 O 394.815 -5.36205 -1.94525 0
M  V30 4166 O 393.749 -6.01779 -0.12046 0
M  V30 4167 H 397.575 -2.88664 0.943758 0
M  V30 4168 H 395.16 -1.39824 0.526277 0
M  V30 4169 H 397.042 -4.03195 -1.22524 0
M  V30 4170 H 395.717 -2.86819 -1.50056 0
M  V30 4171 H 394.624 -3.68057 0.669696 0
M  V30 4172 H 395.957 -4.84598 0.861736 0
M  V30 4173 N 397.609 -0.515225 -1.4894 0
M  V30 4174 C 399.025 -0.172099 -1.58669 0
M  V30 4175 C 399.225 1.32405 -1.51892 0
M  V30 4176 O 398.281 2.10116 -1.40027 0
M  V30 4177 C 399.594 -0.761533 -2.90897 0
M  V30 4178 C 401.142 -0.728926 -3.04394 0
M  V30 4179 C 401.617 -1.29667 -4.39261 0
M  V30 4180 N 403.108 -1.25799 -4.4579 0
M  V30 4181 C 403.843 -1.66733 -5.48623 0
M  V30 4182 N 403.339 -2.15327 -6.58488 0
M  V30 4183 N 405.132 -1.58061 -5.39419 0
M  V30 4184 H 397.283 -1.48778 -1.51588 0
M  V30 4185 H 399.546 -0.617968 -0.718901 0
M  V30 4186 H 399.252 -1.81136 -3.01468 0
M  V30 4187 H 399.126 -0.230106 -3.76497 0
M  V30 4188 H 401.513 0.312098 -2.93445 0
M  V30 4189 H 401.594 -1.29766 -2.20442 0
M  V30 4190 H 401.238 -2.33655 -4.50963 0
M  V30 4191 H 401.168 -0.703752 -5.21876 0
M  V30 4192 H 403.659 -0.902102 -3.66975 0
M  V30 4193 H 403.972 -2.44594 -7.33071 0
M  V30 4194 H 402.317 -2.19311 -6.59491 0
M  V30 4195 H 405.508 -1.19906 -4.52482 0
M  V30 4196 H 405.681 -1.90284 -6.19432 0
M  V30 4197 N 399.087 1.5561 -0.249682 0
M  V30 4198 C 400.364 1.90932 0.424761 0
M  V30 4199 C 400.744 1.17078 1.75658 0
M  V30 4200 O 400.092 0.289176 2.26663 0
M  V30 4201 C 400.302 3.43975 0.590109 0
M  V30 4202 C 401.65 4.15281 0.884714 0
M  V30 4203 O 402.674 3.49729 0.67587 0
M  V30 4204 O 401.533 5.31236 1.28259 0
M  V30 4205 H 398.627 0.794815 0.228468 0
M  V30 4206 H 401.173 1.67135 -0.293954 0
M  V30 4207 H 399.945 3.89748 -0.34818 0
M  V30 4208 H 399.568 3.73644 1.35926 0
M  V30 4209 N 400.565 -0.0233959 1.57583 0
M  V30 4210 C 401.842 -0.748794 1.807 0
M  V30 4211 C 402.222 -1.9327 0.849106 0
M  V30 4212 O 401.57 -2.28247 -0.107468 0
M  V30 4213 C 401.78 -1.17651 3.28571 0
M  V30 4214 C 403.128 -1.59008 3.93702 0
M  V30 4215 O 404.152 -1.27094 3.32755 0
M  V30 4216 O 403.011 -2.18264 5.01022 0
M  V30 4217 H 400.105 -0.362578 0.743281 0
M  V30 4218 H 402.651 0.000261958 1.697 0
M  V30 4219 H 401.423 -0.331603 3.89892 0
M  V30 4220 H 401.046 -1.98541 3.44481 0
M  V30 4221 N 402.043 -1.548 -0.295768 0
M  V30 4222 C 402.993 -1.82497 -1.3667 0
M  V30 4223 C 403.977 -0.682434 -1.45711 0
M  V30 4224 O 405.169 -0.943207 -1.49775 0
M  V30 4225 C 402.298 -2.08036 -2.73086 0
M  V30 4226 C 401.384 -3.28488 -2.68247 0
M  V30 4227 N 401.775 -4.48924 -2.33025 0
M  V30 4228 C 400.073 -3.3062 -2.99343 0
M  V30 4229 C 400.774 -5.30956 -2.37613 0
M  V30 4230 N 399.75 -4.68805 -2.75178 0
M  V30 4231 H 403.552 -2.73175 -1.0841 0
M  V30 4232 H 401.066 -1.5437 -0.504361 0
M  V30 4233 H 403.063 -2.26027 -3.5031 0
M  V30 4234 H 401.723 -1.18629 -3.02254 0
M  V30 4235 H 402.734 -4.75432 -2.05389 0
M  V30 4236 H 399.411 -2.51336 -3.33371 0
M  V30 4237 H 400.801 -6.37199 -2.13135 0
M  V30 4238 N 403.521 0.559213 -1.47345 0
M  V30 4239 C 404.451 1.67622 -1.62558 0
M  V30 4240 C 405.432 1.63331 -0.475087 0
M  V30 4241 O 406.617 1.80983 -0.704182 0
M  V30 4242 C 403.747 3.0626 -1.63774 0
M  V30 4243 C 402.701 3.25397 -2.7803 0
M  V30 4244 C 402.027 4.64801 -2.64318 0
M  V30 4245 C 403.327 3.10965 -4.19641 0
M  V30 4246 H 405.021 1.55146 -2.56067 0
M  V30 4247 H 402.567 0.744961 -1.23233 0
M  V30 4248 H 404.52 3.84247 -1.73008 0
M  V30 4249 H 403.244 3.1969 -0.66825 0
M  V30 4250 H 401.903 2.49817 -2.68304 0
M  V30 4251 H 401.551 4.75028 -1.65401 0
M  V30 4252 H 401.251 4.78555 -3.40968 0
M  V30 4253 H 402.775 5.44926 -2.75478 0
M  V30 4254 H 404.189 3.78772 -4.30354 0
M  V30 4255 H 402.586 3.36229 -4.97062 0
M  V30 4256 H 403.656 2.07736 -4.38148 0
M  V30 4257 N 404.999 1.35443 0.805782 0
M  V30 4258 C 405.929 1.31095 1.93226 0
M  V30 4259 C 406.91 0.185244 1.69088 0
M  V30 4260 O 408.095 0.380332 1.90439 0
M  V30 4261 C 405.225 1.08299 3.29983 0
M  V30 4262 C 404.179 2.17519 3.68605 0
M  V30 4263 C 403.505 1.79887 5.03532 0
M  V30 4264 C 404.805 3.5949 3.78898 0
M  V30 4265 H 406.499 2.25352 1.97122 0
M  V30 4266 H 404.045 1.0848 0.946996 0
M  V30 4267 H 405.998 1.03897 4.08391 0
M  V30 4268 H 404.722 0.104885 3.26432 0
M  V30 4269 H 403.381 2.2102 2.92482 0
M  V30 4270 H 403.029 0.80693 4.96485 0
M  V30 4271 H 402.729 2.53001 5.30344 0
M  V30 4272 H 404.253 1.77011 5.84379 0
M  V30 4273 H 405.667 3.58307 4.47536 0
M  V30 4274 H 404.064 4.31371 4.1718 0
M  V30 4275 H 405.134 3.95584 2.80431 0
M  V30 4276 N 406.477 -1.02803 1.19454 0
M  V30 4277 C 407.888 -1.57667 0.999899 0
M  V30 4278 C 408.239 -1.91041 -0.446956 0
M  V30 4279 O 407.364 -1.70978 -1.32648 0
M  V30 4280 C 407.959 -2.86477 1.80877 0
M  V30 4281 C 406.518 -3.37911 1.65811 0
M  V30 4282 C 405.665 -2.11343 1.79526 0
M  V30 4283 H 408.616 -0.853214 1.33813 0
M  V30 4284 H 408.637 -3.57408 1.30536 0
M  V30 4285 H 408.149 -2.62155 2.86175 0
M  V30 4286 H 406.25 -3.67218 0.63102 0
M  V30 4287 H 406.363 -4.10885 2.46395 0
M  V30 4288 H 404.727 -2.23254 1.22596 0
M  V30 4289 H 405.51 -1.89461 2.86285 0
M  V30 4290 N 407.956 -0.998596 -1.21925 0
M  V30 4291 C 408.889 -0.498517 -2.22688 0
M  V30 4292 C 409.867 0.444301 -1.56412 0
M  V30 4293 O 411.051 0.368518 -1.84863 0
M  V30 4294 C 408.178 0.276639 -3.37568 0
M  V30 4295 C 407.224 -0.61302 -4.22071 0
M  V30 4296 S 408.057 -2.07168 -4.93803 0
M  V30 4297 C 409.213 -1.30617 -6.12119 0
M  V30 4298 H 409.446 -1.35234 -2.64762 0
M  V30 4299 H 406.979 -0.806018 -1.31692 0
M  V30 4300 H 408.937 0.717817 -4.04175 0
M  V30 4301 H 407.598 1.10581 -2.93991 0
M  V30 4302 H 406.791 -0.0162909 -5.03997 0
M  V30 4303 H 406.393 -0.991202 -3.60626 0
M  V30 4304 H 408.685 -0.57675 -6.75041 0
M  V30 4305 H 409.628 -2.10091 -6.76215 0
M  V30 4306 H 410.036 -0.816957 -5.58557 0
M  V30 4307 O 409.473 1.33471 -0.909268 0
M  V30 4308 H 410.164 1.86473 -0.524175 0
M  V30 END ATOM
M  V30 BEGIN BOND
M  V30 END BOND
M  V30 END CTAB
M  END
$$$$
