drugbank_target|P42680 Tyrosine-protein kinase Tec (DB12010; DB15035)
 OpenBabel12092121133D

  0  0  0     0  0            999 V3000
M  V30 BEGIN CTAB
M  V30 COUNTS 10288 10418 0 0 0
M  V30 BEGIN ATOM
M  V30 1 H -0.908 1.98254 -0.117106 0
M  V30 2 N 0 1.576 0 0
M  V30 3 C 0.933 2.03868 1.02534 0
M  V30 4 C 1.911 0.928543 1.3348 0
M  V30 5 O 3.095 1.19667 1.45644 0
M  V30 6 C 0.222 2.43627 2.35294 0
M  V30 7 C -0.732 3.65373 2.2001 0
M  V30 8 S 0.101 5.13292 1.52614 0
M  V30 9 C 1.257 5.56322 2.86805 0
M  V30 10 H 1.49 2.90518 0.631377 0
M  V30 11 H -0.977 1.52953 0.210867 0
M  V30 12 H 0.981 2.67203 3.11629 0
M  V30 13 H -0.358 1.57376 2.7183 0
M  V30 14 H -1.165 3.90944 3.18086 0
M  V30 15 H -1.563 3.418 1.51819 0
M  V30 16 H 0.729 5.58782 3.83104 0
M  V30 17 H 1.672 6.56266 2.65933 0
M  V30 18 H 2.08 4.83886 2.90714 0
M  V30 19 N 1.4781 -0.272755 1.55222 0
M  V30 20 C 2.4261 -1.35705 1.88909 0
M  V30 21 C 3.4201 -1.5112 0.765456 0
M  V30 22 O 4.6261 -1.52901 0.949802 0
M  V30 23 H 1.0011 -0.453868 0.59959 0
M  V30 24 H 2.9721 -1.04544 2.79487 0
M  V30 25 C 1.7211 -2.71049 2.17779 0
M  V30 26 H 1.0441 -2.59979 3.03728 0
M  V30 27 H 2.4841 -3.45858 2.45272 0
M  V30 28 C 0.9431 -3.22165 0.985473 0
M  V30 29 O 1.4731 -4.01096 0.220233 0
M  V30 30 N -0.3209 -2.7985 0.783108 0
M  V30 31 H -0.7739 -2.15775 1.40708 0
M  V30 32 H -0.8159 -3.14397 -0.0130392 0
M  V30 33 N 2.9562 -1.48159 -0.537278 0
M  V30 34 C 4.2032 -1.55804 -1.29349 0
M  V30 35 C 4.5312 -0.228802 -1.9315 0
M  V30 36 O 3.7862 0.780242 -1.79473 0
M  V30 37 C 4.0852 -2.63956 -2.40961 0
M  V30 38 C 3.7512 -4.0662 -1.94861 0
M  V30 39 C 2.4132 -4.45452 -1.82006 0
M  V30 40 C 4.7652 -4.96055 -1.59933 0
M  V30 41 C 2.0932 -5.71531 -1.32547 0
M  V30 42 C 4.4452 -6.22617 -1.11939 0
M  V30 43 C 3.1092 -6.60312 -0.976951 0
M  V30 44 H 2.3792 -0.570129 -0.473322 0
M  V30 45 H 5.0262 -1.81845 -0.600372 0
M  V30 46 H 3.3312 -2.31747 -3.15912 0
M  V30 47 H 5.0282 -2.67089 -2.99107 0
M  V30 48 H 1.6182 -3.75949 -2.05815 0
M  V30 49 H 5.8022 -4.66738 -1.68728 0
M  V30 50 H 1.0582 -5.99468 -1.202 0
M  V30 51 H 5.2322 -6.91318 -0.839811 0
M  V30 52 H 2.8592 -7.57895 -0.591501 0
M  V30 53 N 4.4343 0.785586 -1.36625 0
M  V30 54 C 5.3823 1.91978 -1.31329 0
M  V30 55 C 6.3763 1.68162 -0.204416 0
M  V30 56 O 7.5823 1.76122 -0.371645 0
M  V30 57 H 3.9573 0.631087 -0.408942 0
M  V30 58 H 5.9283 1.93562 -2.27104 0
M  V30 59 C 4.6773 3.29055 -1.12329 0
M  V30 60 H 4.0003 3.4795 -1.96903 0
M  V30 61 H 5.4403 4.08756 -1.12671 0
M  V30 62 C 3.8993 3.36461 0.171861 0
M  V30 63 O 4.4293 3.84576 1.16035 0
M  V30 64 N 2.6353 2.89782 0.217846 0
M  V30 65 H 2.1823 2.50819 -0.587183 0
M  V30 66 H 2.1403 2.95119 1.08408 0
M  V30 67 N 5.9124 1.20967 1.01018 0
M  V30 68 C 7.1404 1.04956 1.78303 0
M  V30 69 C 7.5554 -0.400915 1.84494 0
M  V30 70 O 6.9124 -1.27826 1.30257 0
M  V30 71 C 6.9634 1.63403 3.22462 0
M  V30 72 O 6.6844 3.02775 3.16637 0
M  V30 73 C 8.1854 1.52432 4.16268 0
M  V30 74 H 5.4054 0.368858 0.560522 0
M  V30 75 H 7.9494 1.60193 1.27116 0
M  V30 76 H 6.1044 1.1227 3.70775 0
M  V30 77 H 6.5184 3.30626 4.07169 0
M  V30 78 H 7.9924 1.98078 5.15237 0
M  V30 79 H 8.4694 0.477875 4.36592 0
M  V30 80 H 9.0754 2.02787 3.73841 0
M  V30 81 N 7.3905 -1.2043 1.01659 0
M  V30 82 C 8.6395 -1.89118 0.701237 0
M  V30 83 C 8.9525 -1.79705 -0.772358 0
M  V30 84 O 10.1585 -2.43528 -1.20026 0
M  V30 85 C 8.6145 -3.39168 1.20388 0
M  V30 86 C 8.2225 -3.57166 2.70438 0
M  V30 87 C 9.9665 -4.1341 0.963953 0
M  V30 88 C 7.8735 -5.01042 3.14183 0
M  V30 89 H 6.8035 -0.708267 0.2586 0
M  V30 90 H 9.4545 -1.36239 1.22927 0
M  V30 91 H 7.8365 -3.91369 0.603824 0
M  V30 92 H 9.0105 -3.15351 3.35992 0
M  V30 93 H 7.3255 -2.96294 2.92572 0
M  V30 94 H 9.9225 -5.19491 1.26621 0
M  V30 95 H 10.2655 -4.16181 -0.099578 0
M  V30 96 H 10.7985 -3.67309 1.52738 0
M  V30 97 H 7.5375 -5.03426 4.19812 0
M  V30 98 H 7.0575 -5.43668 2.53348 0
M  V30 99 H 8.7365 -5.69623 3.0682 0
M  V30 100 N 8.8686 -0.792821 -1.36206 0
M  V30 101 C 9.7986 -0.207853 -2.32573 0
M  V30 102 C 10.7796 0.659055 -1.56813 0
M  V30 103 O 11.9646 0.592176 -1.84951 0
M  V30 104 C 9.0946 0.655449 -3.41059 0
M  V30 105 C 8.0486 -0.111842 -4.27854 0
M  V30 106 C 7.3746 0.872274 -5.27537 0
M  V30 107 C 8.6746 -1.30299 -5.05786 0
M  V30 108 H 10.3686 -1.01294 -2.81744 0
M  V30 109 H 7.9146 -0.48854 -1.3546 0
M  V30 110 H 9.8676 1.07464 -4.07467 0
M  V30 111 H 8.5916 1.49328 -2.90463 0
M  V30 112 H 7.2506 -0.512053 -3.63006 0
M  V30 113 H 6.8986 1.70523 -4.73214 0
M  V30 114 H 6.5986 0.363291 -5.86476 0
M  V30 115 H 8.1226 1.28996 -5.96818 0
M  V30 116 H 9.5366 -0.959379 -5.65216 0
M  V30 117 H 7.9336 -1.7455 -5.74154 0
M  V30 118 H 9.0036 -2.09663 -4.37229 0
M  V30 119 N 10.3467 1.47872 -0.545128 0
M  V30 120 C 11.2567 2.33633 0.212746 0
M  V30 121 C 12.2727 1.4744 0.923983 0
M  V30 122 O 13.4487 1.80393 0.895572 0
M  V30 123 C 10.5137 3.23884 1.23693 0
M  V30 124 C 9.5747 4.25961 0.534417 0
M  V30 125 C 8.8077 5.11899 1.5098 0
M  V30 126 O 9.0307 5.00077 2.7437 0
M  V30 127 O 7.9647 5.92831 1.0409 0
M  V30 128 H 11.7907 2.99714 -0.490416 0
M  V30 129 H 9.3757 1.46235 -0.305871 0
M  V30 130 H 11.2577 3.79666 1.82843 0
M  V30 131 H 9.9327 2.60446 1.92222 0
M  V30 132 H 8.8397 3.73972 -0.0979679 0
M  V30 133 H 10.1727 4.92079 -0.109213 0
M  V30 134 N 11.8248 0.280983 1.55075 0
M  V30 135 C 12.7348 -0.61388 2.26426 0
M  V30 136 C 13.7508 -1.16521 1.29224 0
M  V30 137 O 14.9268 -1.19426 1.62171 0
M  V30 138 C 11.9918 -1.7788 2.9759 0
M  V30 139 C 11.0528 -1.26355 4.10284 0
M  V30 140 C 10.2858 -2.37295 4.78045 0
M  V30 141 O 10.5088 -3.56777 4.45047 0
M  V30 142 O 9.4428 -2.05119 5.65871 0
M  V30 143 H 13.2688 -0.0356932 3.03679 0
M  V30 144 H 10.8538 0.0481686 1.49322 0
M  V30 145 H 12.7358 -2.45791 3.42293 0
M  V30 146 H 11.4108 -2.34397 2.23249 0
M  V30 147 H 10.3178 -0.550735 3.70024 0
M  V30 148 H 11.6508 -0.744065 4.86543 0
M  V30 149 N 13.3029 -1.57598 0.00835791 0
M  V30 150 C 14.5519 -1.90107 -0.673968 0
M  V30 151 C 14.8649 -0.884275 -1.7447 0
M  V30 152 O 16.0709 -1.09987 -2.48224 0
M  V30 153 C 14.5269 -3.37497 -1.24995 0
M  V30 154 C 14.1349 -4.47491 -0.2136 0
M  V30 155 C 15.8789 -3.79104 -1.90999 0
M  V30 156 C 13.7859 -5.85963 -0.80005 0
M  V30 157 H 12.7159 -0.709393 -0.255495 0
M  V30 158 H 15.3669 -1.83365 0.0702693 0
M  V30 159 H 13.7489 -3.39102 -2.04513 0
M  V30 160 H 14.9229 -4.57414 0.557596 0
M  V30 161 H 13.2379 -4.14956 0.346474 0
M  V30 162 H 15.8349 -4.79901 -2.35795 0
M  V30 163 H 16.1779 -3.1306 -2.74407 0
M  V30 164 H 16.7109 -3.79833 -1.18203 0
M  V30 165 H 13.4499 -6.555 -0.00456708 0
M  V30 166 H 12.9699 -5.79687 -1.54021 0
M  V30 167 H 14.6489 -6.33884 -1.29615 0
M  V30 168 N 14.781 0.264519 -1.55364 0
M  V30 169 C 15.711 1.33121 -1.91836 0
M  V30 170 C 16.692 1.51101 -0.781192 0
M  V30 171 O 17.877 1.64003 -1.04003 0
M  V30 172 C 15.007 2.68921 -2.19769 0
M  V30 173 C 13.961 2.65661 -3.35571 0
M  V30 174 C 13.287 4.05093 -3.49004 0
M  V30 175 C 14.587 2.24187 -4.71739 0
M  V30 176 H 16.281 1.02844 -2.81182 0
M  V30 177 H 13.827 0.493286 -1.35287 0
M  V30 178 H 15.78 3.43663 -2.43872 0
M  V30 179 H 14.504 3.00799 -1.27231 0
M  V30 180 H 13.163 1.93377 -3.1145 0
M  V30 181 H 12.811 4.34206 -2.53917 0
M  V30 182 H 12.511 4.03804 -4.26868 0
M  V30 183 H 14.035 4.81561 -3.75408 0
M  V30 184 H 15.449 2.88654 -4.9533 0
M  V30 185 H 13.846 2.34044 -5.52579 0
M  V30 186 H 14.916 1.19327 -4.69988 0
M  V30 187 N 16.2591 1.48442 0.529413 0
M  V30 188 C 17.5081 1.55742 1.28169 0
M  V30 189 C 17.8211 0.236511 1.94165 0
M  V30 190 O 19.0271 0.187761 2.7085 0
M  V30 191 C 17.4831 2.74667 2.32564 0
M  V30 192 C 17.0911 4.13402 1.72636 0
M  V30 193 C 18.8351 2.9128 3.08798 0
M  V30 194 C 16.7421 5.23587 2.74975 0
M  V30 195 H 15.6721 0.579796 0.48203 0
M  V30 196 H 18.3231 1.74776 0.559056 0
M  V30 197 H 16.7051 2.49067 3.07866 0
M  V30 198 H 17.8791 4.49022 1.03519 0
M  V30 199 H 16.1941 4.0191 1.08892 0
M  V30 200 H 18.7911 3.70767 3.85274 0
M  V30 201 H 19.1341 2.00757 3.64695 0
M  V30 202 H 19.6671 3.16782 2.40611 0
M  V30 203 H 16.4061 6.16076 2.23897 0
M  V30 204 H 15.9261 4.92454 3.42417 0
M  V30 205 H 17.6051 5.51724 3.37949 0
M  V30 206 N 17.7372 -0.778329 1.37039 0
M  V30 207 C 18.6842 -1.89139 1.32269 0
M  V30 208 C 19.6542 -1.65017 0.189387 0
M  V30 209 O 20.8392 -1.87024 0.377693 0
M  V30 210 C 17.9792 -3.26112 1.12894 0
M  V30 211 C 17.0922 -3.62233 2.35396 0
M  V30 212 C 16.2272 -4.8838 2.08946 0
M  V30 213 C 15.2662 -5.17212 3.2735 0
M  V30 214 N 14.4032 -6.34546 3.00492 0
M  V30 215 H 19.2432 -1.92552 2.27437 0
M  V30 216 H 16.7802 -0.941473 1.13025 0
M  V30 217 H 18.7382 -4.05116 0.996835 0
M  V30 218 H 17.3682 -3.22091 0.213758 0
M  V30 219 H 16.4202 -2.78265 2.5937 0
M  V30 220 H 17.7322 -3.79481 3.23721 0
M  V30 221 H 16.8862 -5.75274 1.92729 0
M  V30 222 H 15.6252 -4.73222 1.17949 0
M  V30 223 H 14.6302 -4.28796 3.44113 0
M  V30 224 H 15.8552 -5.34283 4.19188 0
M  V30 225 H 13.8012 -6.20759 2.12118 0
M  V30 226 H 13.7182 -6.52179 3.82358 0
M  V30 227 H 14.9862 -7.24394 2.87879 0
M  V30 228 N 19.2153 -1.21501 -1.00376 0
M  V30 229 C 20.6313 -0.972629 -1.26539 0
M  V30 230 C 20.8313 0.340257 -1.98606 0
M  V30 231 O 19.8873 1.06561 -2.28913 0
M  V30 232 C 21.2003 -2.16404 -2.08781 0
M  V30 233 C 22.7483 -2.20643 -2.22004 0
M  V30 234 C 23.2233 -3.39306 -3.07629 0
M  V30 235 N 24.7143 -3.39401 -3.15217 0
M  V30 236 C 25.4493 -4.27867 -3.81729 0
M  V30 237 N 24.9453 -5.26533 -4.5026 0
M  V30 238 N 26.7383 -4.15672 -3.78382 0
M  V30 239 H 18.8893 -2.05929 -0.520281 0
M  V30 240 H 21.1523 -0.901803 -0.292328 0
M  V30 241 H 20.8583 -3.11554 -1.63178 0
M  V30 242 H 20.7323 -2.15567 -3.09533 0
M  V30 243 H 23.1193 -1.26048 -2.66825 0
M  V30 244 H 23.2003 -2.25523 -1.20718 0
M  V30 245 H 22.8443 -4.34195 -2.63509 0
M  V30 246 H 22.7743 -3.31665 -4.09031 0
M  V30 247 H 25.2653 -2.67997 -2.66432 0
M  V30 248 H 25.5783 -5.90337 -4.98721 0
M  V30 249 H 23.9233 -5.30457 -4.49044 0
M  V30 250 H 27.1143 -3.3785 -3.23998 0
M  V30 251 H 27.2873 -4.84825 -4.2994 0
M  V30 252 N 20.6934 1.19889 -1.02296 0
M  V30 253 C 21.9184 1.9393 -0.735237 0
M  V30 254 C 22.3434 1.74639 0.698782 0
M  V30 255 O 21.7014 1.04481 1.48167 0
M  V30 256 C 21.7494 3.43916 -1.08417 0
M  V30 257 O 20.8534 4.11917 -0.199446 0
M  V30 258 H 20.1944 0.605645 -0.272196 0
M  V30 259 H 22.7244 1.52137 -1.36804 0
M  V30 260 H 22.7344 3.9456 -1.03856 0
M  V30 261 H 21.4094 3.5728 -2.12894 0
M  V30 262 H 19.9864 3.71666 -0.303136 0
M  V30 263 N 22.1715 0.800033 1.35784 0
M  V30 264 C 23.1035 0.163596 2.28615 0
M  V30 265 C 24.1165 -0.633317 1.49976 0
M  V30 266 O 25.3055 -0.466754 1.72289 0
M  V30 267 C 22.4055 -0.790958 3.29541 0
M  V30 268 C 21.5785 -0.0418255 4.3738 0
M  V30 269 C 20.6375 -0.91389 5.18203 0
M  V30 270 O 19.6635 -0.367234 5.68014 0
M  V30 271 N 20.8655 -2.23682 5.35674 0
M  V30 272 H 23.6305 0.96105 2.83873 0
M  V30 273 H 21.1915 0.654894 1.48063 0
M  V30 274 H 23.1835 -1.37844 3.80501 0
M  V30 275 H 21.7535 -1.48925 2.74846 0
M  V30 276 H 20.9735 0.726813 3.87442 0
M  V30 277 H 22.2615 0.474719 5.06581 0
M  V30 278 H 21.6595 -2.70497 4.96838 0
M  V30 279 H 20.2165 -2.77369 5.89839 0
M  V30 280 N 23.6496 -1.47581 0.552962 0
M  V30 281 C 24.5816 -2.27997 -0.234533 0
M  V30 282 C 25.5946 -1.36753 -0.883321 0
M  V30 283 O 26.7836 -1.61612 -0.757889 0
M  V30 284 C 23.8836 -3.10879 -1.34935 0
M  V30 285 C 23.0566 -4.30056 -0.798158 0
M  V30 286 C 22.1156 -4.94567 -1.79694 0
M  V30 287 O 21.1416 -5.53087 -1.34474 0
M  V30 288 N 22.3436 -4.88878 -3.13015 0
M  V30 289 H 25.1086 -2.96222 0.455255 0
M  V30 290 H 22.6696 -1.57163 0.388761 0
M  V30 291 H 24.6616 -3.50903 -2.01616 0
M  V30 292 H 23.2316 -2.44924 -1.94244 0
M  V30 293 H 22.4516 -3.94174 0.0453079 0
M  V30 294 H 23.7396 -5.07152 -0.409173 0
M  V30 295 H 23.1376 -4.42526 -3.52402 0
M  V30 296 H 21.6946 -5.32934 -3.75266 0
M  V30 297 N 25.1277 -0.289203 -1.54924 0
M  V30 298 C 26.0747 0.592115 -2.23075 0
M  V30 299 C 27.0447 1.13881 -1.20915 0
M  V30 300 O 28.2297 1.18551 -1.495 0
M  V30 301 C 25.3697 1.76376 -2.96623 0
M  V30 302 C 24.4827 1.24959 -4.13533 0
M  V30 303 C 23.6177 2.38416 -4.74691 0
M  V30 304 C 22.6567 1.84072 -5.83767 0
M  V30 305 N 21.7937 2.91057 -6.38929 0
M  V30 306 H 26.6337 0.00432038 -2.98 0
M  V30 307 H 24.1707 -0.00963529 -1.47097 0
M  V30 308 H 26.1287 2.45268 -3.3749 0
M  V30 309 H 24.7587 2.32337 -2.24097 0
M  V30 310 H 23.8107 0.453307 -3.77689 0
M  V30 311 H 25.1227 0.811662 -4.92152 0
M  V30 312 H 24.2767 3.15276 -5.18349 0
M  V30 313 H 23.0157 2.8553 -3.95378 0
M  V30 314 H 22.0207 1.05697 -5.39545 0
M  V30 315 H 23.2457 1.37877 -6.64956 0
M  V30 316 H 21.1917 3.37526 -5.62505 0
M  V30 317 H 21.1087 2.51724 -7.12861 0
M  V30 318 H 22.3767 3.6785 -6.87246 0
M  V30 319 N 26.6058 1.57591 -0.0167156 0
M  V30 320 C 27.5528 2.09462 0.969251 0
M  V30 321 C 28.5228 0.99381 1.33089 0
M  V30 322 O 29.7078 1.26726 1.42636 0
M  V30 323 C 26.8478 2.61622 2.25051 0
M  V30 324 C 25.9608 3.85666 1.94642 0
M  V30 325 C 25.0958 4.26266 3.16972 0
M  V30 326 C 24.1348 5.43101 2.82326 0
M  V30 327 N 23.2718 5.78915 3.97243 0
M  V30 328 H 28.1118 2.93428 0.519997 0
M  V30 329 H 25.6488 1.45044 0.245087 0
M  V30 330 H 27.6068 2.89949 2.99976 0
M  V30 331 H 26.2368 1.80505 2.67615 0
M  V30 332 H 25.2888 3.64145 1.10013 0
M  V30 333 H 26.6008 4.70678 1.65117 0
M  V30 334 H 25.7548 4.55963 4.00228 0
M  V30 335 H 24.4938 3.39996 3.49648 0
M  V30 336 H 23.4988 5.1311 1.97479 0
M  V30 337 H 24.7238 6.3106 2.50879 0
M  V30 338 H 22.6698 4.95602 4.29785 0
M  V30 339 H 22.5868 6.58539 3.71299 0
M  V30 340 H 23.8548 6.13212 4.81239 0
M  V30 341 N 28.0839 -0.256276 1.55502 0
M  V30 342 C 29.0309 -1.31714 1.89526 0
M  V30 343 C 30.0009 -1.4828 0.748479 0
M  V30 344 O 31.1859 -1.62416 1.00128 0
M  V30 345 C 28.3259 -2.66933 2.18725 0
M  V30 346 C 27.4389 -2.58452 3.4616 0
M  V30 347 C 26.5739 -3.85961 3.64976 0
M  V30 348 C 25.6129 -3.72059 4.86044 0
M  V30 349 N 24.7499 -4.9144 5.01429 0
M  V30 350 H 29.5899 -1.01998 2.80001 0
M  V30 351 H 27.1269 -0.492413 1.38613 0
M  V30 352 H 29.0849 -3.4563 2.33657 0
M  V30 353 H 27.7149 -2.94816 1.31466 0
M  V30 354 H 26.7669 -1.71374 3.3961 0
M  V30 355 H 28.0789 -2.44085 4.34999 0
M  V30 356 H 27.2329 -4.73101 3.79816 0
M  V30 357 H 25.9719 -4.03215 2.74353 0
M  V30 358 H 24.9769 -2.83302 4.7119 0
M  V30 359 H 26.2019 -3.56309 5.78118 0
M  V30 360 H 24.1479 -5.09072 4.13741 0
M  V30 361 H 24.0649 -4.79668 5.84341 0
M  V30 362 H 25.3329 -5.80104 5.20672 0
M  V30 363 N 29.562 -1.4872 -0.521534 0
M  V30 364 C 30.79 -1.60843 -1.30142 0
M  V30 365 C 31.205 -0.271897 -1.86832 0
M  V30 366 O 30.562 0.739969 -1.66825 0
M  V30 367 C 30.613 -2.66155 -2.4463 0
M  V30 368 O 30.334 -3.94623 -1.90275 0
M  V30 369 C 31.835 -2.88795 -3.36322 0
M  V30 370 H 29.055 -0.542075 -0.395468 0
M  V30 371 H 31.599 -1.94609 -0.628285 0
M  V30 372 H 29.754 -2.35224 -3.07812 0
M  V30 373 H 30.168 -4.52468 -2.65279 0
M  V30 374 H 31.642 -3.66264 -4.12983 0
M  V30 375 H 32.119 -1.97934 -3.9207 0
M  V30 376 H 32.725 -3.21063 -2.78924 0
M  V30 377 N 31.0401 0.771051 -1.3745 0
M  V30 378 C 32.2651 1.56529 -1.36065 0
M  V30 379 C 32.6901 1.88029 0.0515859 0
M  V30 380 O 32.0481 1.49282 1.02882 0
M  V30 381 C 32.0961 2.85187 -2.20683 0
M  V30 382 O 31.2001 3.79593 -1.61193 0
M  V30 383 H 30.5411 0.47411 -0.464883 0
M  V30 384 H 33.0711 0.954269 -1.80983 0
M  V30 385 H 33.0811 3.34283 -2.33921 0
M  V30 386 H 31.7561 2.61588 -3.23334 0
M  V30 387 H 30.3331 3.38239 -1.56999 0
M  V30 388 N 32.5182 1.22032 0.997298 0
M  V30 389 C 33.9292 1.0397 1.55071 0
M  V30 390 C 34.2802 -0.398192 1.92117 0
M  V30 391 O 33.4052 -1.28254 1.74298 0
M  V30 392 C 34.0002 1.88109 2.81781 0
M  V30 393 C 32.5592 1.74357 3.33581 0
M  V30 394 C 31.7062 1.84846 2.06706 0
M  V30 395 H 34.6572 1.35941 0.818883 0
M  V30 396 H 34.6782 1.39589 3.53971 0
M  V30 397 H 34.1902 2.92754 2.54787 0
M  V30 398 H 32.2912 0.72427 3.65493 0
M  V30 399 H 32.4042 2.56772 4.04481 0
M  V30 400 H 30.7682 1.28238 2.20062 0
M  V30 401 H 31.5512 2.91014 1.82114 0
M  V30 402 N 33.9963 -1.19345 1.0293 0
M  V30 403 C 34.9263 -2.2481 0.631105 0
M  V30 404 C 35.9073 -1.66245 -0.360104 0
M  V30 405 O 37.0923 -1.92677 -0.242726 0
M  V30 406 C 34.2223 -3.47295 -0.0184607 0
M  V30 407 C 33.1763 -4.18536 0.895073 0
M  V30 408 C 32.5023 -5.34586 0.110592 0
M  V30 409 C 33.8023 -4.73287 2.209 0
M  V30 410 H 35.4963 -2.58372 1.51275 0
M  V30 411 H 33.0423 -1.24194 0.728818 0
M  V30 412 H 34.9953 -4.20268 -0.308675 0
M  V30 413 H 33.7193 -3.12933 -0.934907 0
M  V30 414 H 32.3783 -3.47446 1.16949 0
M  V30 415 H 32.0263 -4.96469 -0.807902 0
M  V30 416 H 31.7263 -5.83183 0.719087 0
M  V30 417 H 33.2503 -6.10355 -0.172871 0
M  V30 418 H 34.6643 -5.38013 1.98028 0
M  V30 419 H 33.0613 -5.32373 2.76946 0
M  V30 420 H 34.1313 -3.91331 2.86336 0
M  V30 421 N 35.4744 -0.807222 -1.35358 0
M  V30 422 C 36.4224 -0.20614 -2.31685 0
M  V30 423 C 37.4164 0.644445 -1.56663 0
M  V30 424 O 38.6224 0.537538 -1.71786 0
M  V30 425 H 34.9974 -0.0479006 -0.750473 0
M  V30 426 H 36.9684 -1.03369 -2.79924 0
M  V30 427 C 35.7174 0.630212 -3.41941 0
M  V30 428 H 35.0404 -0.0149558 -3.99797 0
M  V30 429 H 36.4804 1.01716 -4.11619 0
M  V30 430 C 34.9394 1.79601 -2.85035 0
M  V30 431 O 35.4694 2.89351 -2.78637 0
M  V30 432 N 33.6754 1.60774 -2.42074 0
M  V30 433 H 33.2224 0.715009 -2.47478 0
M  V30 434 H 33.1804 2.38933 -2.04349 0
M  V30 435 N 36.9525 1.47285 -0.560781 0
M  V30 436 C 38.1825 2.06555 -0.0429638 0
M  V30 437 C 38.5905 1.41339 1.25777 0
M  V30 438 O 37.9335 0.505182 1.76617 0
M  V30 439 C 37.9955 3.58827 0.219887 0
M  V30 440 C 37.6595 4.46105 -0.991944 0
M  V30 441 C 38.6565 4.84 -1.89843 0
M  V30 442 C 36.3415 4.87567 -1.20762 0
M  V30 443 C 38.3355 5.6216 -3.00425 0
M  V30 444 C 36.0225 5.65491 -2.31653 0
M  V30 445 C 37.0205 6.02699 -3.21315 0
M  V30 446 O 36.7085 6.79052 -4.30283 0
M  V30 447 H 36.4405 0.674537 -0.0444468 0
M  V30 448 H 38.9945 1.90225 -0.774818 0
M  V30 449 H 37.2245 3.73383 1.00609 0
M  V30 450 H 38.9135 4.00103 0.683522 0
M  V30 451 H 39.6795 4.52564 -1.74387 0
M  V30 452 H 35.5585 4.5807 -0.518893 0
M  V30 453 H 39.1025 5.9112 -3.70436 0
M  V30 454 H 34.9995 5.9634 -2.47081 0
M  V30 455 H 35.7675 6.9745 -4.28376 0
M  V30 456 N 38.4306 0.297415 1.54768 0
M  V30 457 C 39.3776 -0.580276 2.23386 0
M  V30 458 C 40.3476 -1.13238 1.21517 0
M  V30 459 O 41.5326 -1.17757 1.50126 0
M  V30 460 C 38.6726 -1.74801 2.97555 0
M  V30 461 C 37.7856 -1.22764 4.1419 0
M  V30 462 C 36.9206 -2.35895 4.75949 0
M  V30 463 C 35.9596 -1.80974 5.84735 0
M  V30 464 N 35.0966 -2.87664 6.40464 0
M  V30 465 H 39.9366 0.0114833 2.97998 0
M  V30 466 H 37.4736 0.0174361 1.4709 0
M  V30 467 H 39.4316 -2.43475 3.38786 0
M  V30 468 H 38.0616 -2.31145 2.25326 0
M  V30 469 H 37.1136 -0.433271 3.77924 0
M  V30 470 H 38.4256 -0.785551 4.92575 0
M  V30 471 H 37.5796 -3.12523 5.20014 0
M  V30 472 H 36.3186 -2.83429 3.96887 0
M  V30 473 H 35.3236 -1.02834 5.40097 0
M  V30 474 H 36.5486 -1.34348 6.65678 0
M  V30 475 H 34.4946 -3.34538 5.64287 0
M  V30 476 H 34.4116 -2.4794 7.14186 0
M  V30 477 H 35.6796 -3.642 6.89187 0
M  V30 478 N 39.9087 -1.5758 0.0250728 0
M  V30 479 C 40.8187 -2.1343 -0.973905 0
M  V30 480 C 41.8347 -1.08556 -1.35984 0
M  V30 481 O 43.0107 -1.40592 -1.44207 0
M  V30 482 C 40.0757 -2.64703 -2.23904 0
M  V30 483 C 39.1367 -3.84276 -1.91391 0
M  V30 484 C 38.3697 -4.33095 -3.11873 0
M  V30 485 O 38.5927 -3.81107 -4.24398 0
M  V30 486 O 37.5267 -5.24984 -2.94406 0
M  V30 487 H 41.3527 -2.99057 -0.529036 0
M  V30 488 H 38.9377 -1.48118 -0.195288 0
M  V30 489 H 40.8197 -2.97769 -2.98181 0
M  V30 490 H 39.4947 -1.82161 -2.6758 0
M  V30 491 H 38.4017 -3.56143 -1.14511 0
M  V30 492 H 39.7347 -4.67968 -1.52534 0
M  V30 493 N 41.3868 0.248026 -1.55636 0
M  V30 494 C 42.8028 0.596483 -1.48035 0
M  V30 495 C 43.0028 1.88386 -0.715039 0
M  V30 496 O 42.0588 2.51319 -0.243944 0
M  V30 497 C 43.3718 0.700258 -2.92433 0
M  V30 498 C 44.9198 0.792659 -3.02797 0
M  V30 499 C 45.3948 0.928005 -4.485 0
M  V30 500 N 46.8858 0.992903 -4.52433 0
M  V30 501 C 47.6208 1.11687 -5.62418 0
M  V30 502 N 47.1168 1.20645 -6.82214 0
M  V30 503 N 48.9098 1.14994 -5.50212 0
M  V30 504 H 41.0608 -0.597109 -2.03834 0
M  V30 505 H 43.3238 -0.205925 -0.925364 0
M  V30 506 H 43.0298 -0.175658 -3.51261 0
M  V30 507 H 42.9038 1.57255 -3.42857 0
M  V30 508 H 45.2908 1.65903 -2.4405 0
M  V30 509 H 45.3718 -0.104762 -2.55585 0
M  V30 510 H 45.0158 0.0661971 -5.07857 0
M  V30 511 H 44.9458 1.84045 -4.93391 0
M  V30 512 H 47.4368 0.935064 -3.66149 0
M  V30 513 H 47.7498 1.30008 -7.61786 0
M  V30 514 H 46.0948 1.17605 -6.84977 0
M  V30 515 H 49.2858 1.07643 -4.55555 0
M  V30 516 H 49.4588 1.24311 -6.35965 0
M  V30 517 N 42.8649 1.48995 0.513639 0
M  V30 518 C 43.7949 1.67636 1.62544 0
M  V30 519 C 44.7759 0.525087 1.61793 0
M  V30 520 O 45.9609 0.759502 1.78732 0
M  V30 521 C 43.0909 1.73114 3.01079 0
M  V30 522 C 42.0449 2.87905 3.16693 0
M  V30 523 C 41.3709 2.78486 4.56453 0
M  V30 524 C 42.6709 4.29005 2.97913 0
M  V30 525 H 44.3649 2.60716 1.47198 0
M  V30 526 H 41.9109 1.25465 0.706714 0
M  V30 527 H 43.8639 1.84742 3.78746 0
M  V30 528 H 42.5879 0.766241 3.17484 0
M  V30 529 H 41.2469 2.75859 2.41448 0
M  V30 530 H 40.8949 1.7993 4.69717 0
M  V30 531 H 40.5949 3.55523 4.67843 0
M  V30 532 H 42.1189 2.92104 5.36197 0
M  V30 533 H 43.5329 4.41798 3.65359 0
M  V30 534 H 41.9299 5.07166 3.20785 0
M  V30 535 H 42.9999 4.44329 1.94165 0
M  V30 536 N 44.343 -0.763751 1.37857 0
M  V30 537 C 45.59 -1.52257 1.33506 0
M  V30 538 C 45.918 -1.94343 -0.078022 0
M  V30 539 O 45.173 -1.64958 -1.05297 0
M  V30 540 C 45.472 -2.79499 2.22745 0
M  V30 541 C 45.138 -2.56426 3.70886 0
M  V30 542 C 43.8 -2.49842 4.11257 0
M  V30 543 C 46.152 -2.36008 4.64704 0
M  V30 544 C 43.48 -2.20841 5.43549 0
M  V30 545 C 45.832 -2.0853 5.97242 0
M  V30 546 C 44.496 -2.00396 6.36709 0
M  V30 547 H 43.766 -0.557149 0.488534 0
M  V30 548 H 46.413 -0.879073 1.70131 0
M  V30 549 H 44.718 -3.48447 1.79142 0
M  V30 550 H 46.415 -3.37413 2.16688 0
M  V30 551 H 43.005 -2.62416 3.38874 0
M  V30 552 H 47.189 -2.40079 4.34368 0
M  V30 553 H 42.445 -2.13045 5.73081 0
M  V30 554 H 46.619 -1.91732 6.69486 0
M  V30 555 H 44.246 -1.77688 7.39142 0
M  V30 556 N 45.8211 -1.22559 -0.990812 0
M  V30 557 C 47.0671 -1.05297 -1.73322 0
M  V30 558 C 47.4001 0.410655 -1.89808 0
M  V30 559 O 46.6751 1.30439 -1.44277 0
M  V30 560 C 46.9581 -1.76713 -3.13759 0
M  V30 561 C 46.8111 -3.30684 -3.04907 0
M  V30 562 C 48.1301 -1.52121 -4.12974 0
M  V30 563 H 45.2491 -0.38392 -0.629106 0
M  V30 564 H 47.8911 -1.50926 -1.15418 0
M  V30 565 H 46.0411 -1.37924 -3.63193 0
M  V30 566 H 47.7131 -3.7893 -2.63077 0
M  V30 567 H 45.9561 -3.60253 -2.41661 0
M  V30 568 H 46.6271 -3.75833 -4.04294 0
M  V30 569 H 49.1031 -1.85819 -3.72304 0
M  V30 570 H 47.9791 -2.04582 -5.0935 0
M  V30 571 H 48.2401 -0.454257 -4.3976 0
M  V30 572 N 47.2992 1.18797 -1.03562 0
M  V30 573 C 48.2292 2.24472 -0.643019 0
M  V30 574 C 49.2102 1.66433 0.351283 0
M  V30 575 O 50.3952 1.92803 0.232505 0
M  V30 576 C 47.5252 3.473 4.24935e-05 0
M  V30 577 C 46.4792 4.18055 -0.917257 0
M  V30 578 C 45.8052 5.34519 -0.138941 0
M  V30 579 C 47.1052 4.72109 -2.23407 0
M  V30 580 H 48.7992 2.57566 -1.52643 0
M  V30 581 H 46.3452 1.23806 -0.735394 0
M  V30 582 H 48.2982 4.20426 0.286383 0
M  V30 583 H 47.0222 3.13424 0.918299 0
M  V30 584 H 45.6812 3.46821 -1.1879 0
M  V30 585 H 45.3292 4.96891 0.781562 0
M  V30 586 H 45.0292 5.82794 -0.750005 0
M  V30 587 H 46.5532 6.10438 0.1405 0
M  V30 588 H 47.9672 5.36955 -2.00879 0
M  V30 589 H 46.3642 5.30897 -2.79765 0
M  V30 590 H 47.4342 3.89807 -2.88407 0
M  V30 591 N 48.7773 0.814389 1.34928 0
M  V30 592 C 50.0053 0.411136 2.02774 0
M  V30 593 C 50.4203 -0.980316 1.61354 0
M  V30 594 O 49.7773 -1.63299 0.814847 0
M  V30 595 C 49.8283 0.493865 3.58111 0
M  V30 596 O 49.5493 1.83047 3.98027 0
M  V30 597 C 51.0503 0.0844174 4.4322 0
M  V30 598 H 48.2703 0.166037 0.650133 0
M  V30 599 H 50.8143 1.10018 1.72384 0
M  V30 600 H 48.9693 -0.147006 3.87121 0
M  V30 601 H 49.3833 1.79872 4.92693 0
M  V30 602 H 50.8573 0.193404 5.51661 0
M  V30 603 H 51.3343 -0.97113 4.28329 0
M  V30 604 H 51.9403 0.69875 4.19521 0
M  V30 605 N 50.2554 -1.46986 0.568584 0
M  V30 606 C 51.2024 -2.30153 -0.172707 0
M  V30 607 C 52.1724 -1.39759 -0.897586 0
M  V30 608 O 53.3574 -1.68716 -0.891044 0
M  V30 609 C 50.4974 -3.23952 -1.1895 0
M  V30 610 C 49.6104 -4.29441 -0.469517 0
M  V30 611 C 48.7454 -5.1038 -1.47259 0
M  V30 612 C 47.7844 -6.07632 -0.738225 0
M  V30 613 N 46.9214 -6.8149 -1.68868 0
M  V30 614 H 51.7614 -2.93019 0.542596 0
M  V30 615 H 49.2984 -1.44422 0.279401 0
M  V30 616 H 51.2564 -3.76767 -1.79173 0
M  V30 617 H 49.8864 -2.62926 -1.87269 0
M  V30 618 H 48.9384 -3.79594 0.247467 0
M  V30 619 H 50.2504 -4.98689 0.105241 0
M  V30 620 H 49.4044 -5.67402 -2.14803 0
M  V30 621 H 48.1434 -4.4106 -2.08128 0
M  V30 622 H 47.1484 -5.49778 -0.0489293 0
M  V30 623 H 48.3734 -6.78966 -0.135129 0
M  V30 624 H 46.3194 -6.14891 -2.28573 0
M  V30 625 H 46.2364 -7.46948 -1.16636 0
M  V30 626 H 47.5044 -7.43078 -2.3549 0
M  V30 627 N 51.7335 -0.305618 -1.54608 0
M  V30 628 C 52.9585 0.307562 -2.05107 0
M  V30 629 C 53.3835 1.46385 -1.18123 0
M  V30 630 O 52.7415 1.8034 -0.186324 0
M  V30 631 C 52.7895 0.73704 -3.52987 0
M  V30 632 O 51.8935 1.84134 -3.6901 0
M  V30 633 H 51.2345 0.0589143 -0.661381 0
M  V30 634 H 53.7645 -0.448807 -1.99617 0
M  V30 635 H 53.7745 1.02459 -3.94925 0
M  V30 636 H 52.4495 -0.108773 -4.15758 0
M  V30 637 H 51.0265 1.55398 -3.38978 0
M  V30 638 N 53.2116 1.57565 -0.0334293 0
M  V30 639 C 54.1446 2.05997 0.981866 0
M  V30 640 C 55.1226 0.956647 1.3148 0
M  V30 641 O 56.3066 1.22729 1.43073 0
M  V30 642 C 53.4336 2.48564 2.30074 0
M  V30 643 C 52.4796 3.69958 2.12211 0
M  V30 644 S 53.3126 5.16414 1.41692 0
M  V30 645 C 54.4686 5.6228 2.7494 0
M  V30 646 H 54.7016 2.91792 0.569612 0
M  V30 647 H 52.2346 1.53366 0.178376 0
M  V30 648 H 54.1926 2.73753 3.05892 0
M  V30 649 H 52.8536 1.63106 2.68431 0
M  V30 650 H 52.0466 3.97603 3.09722 0
M  V30 651 H 51.6486 3.44943 1.44535 0
M  V30 652 H 53.9406 5.66783 3.71165 0
M  V30 653 H 54.8836 6.61759 2.51953 0
M  V30 654 H 55.2916 4.89944 2.80384 0
M  V30 655 N 54.6897 -0.239769 1.55765 0
M  V30 656 C 55.6197 -1.30052 1.9393 0
M  V30 657 C 56.6007 -1.49839 0.805132 0
M  V30 658 O 57.7857 -1.62328 1.06599 0
M  V30 659 C 54.9157 -2.65391 2.2402 0
M  V30 660 C 53.8697 -2.60289 3.39755 0
M  V30 661 C 53.1957 -3.99489 3.55405 0
M  V30 662 C 54.4957 -2.16654 4.75246 0
M  V30 663 H 56.1897 -0.983573 2.82783 0
M  V30 664 H 53.7357 -0.471701 1.36055 0
M  V30 665 H 55.6887 -3.3974 2.49308 0
M  V30 666 H 54.4127 -2.98736 1.32 0
M  V30 667 H 53.0717 -1.88398 3.14487 0
M  V30 668 H 52.7197 -4.30112 2.60793 0
M  V30 669 H 52.4197 -3.96962 4.33238 0
M  V30 670 H 53.9437 -4.75528 3.83022 0
M  V30 671 H 55.3577 -2.80737 4.99859 0
M  V30 672 H 53.7547 -2.25223 5.56232 0
M  V30 673 H 54.8247 -1.11835 4.71827 0
M  V30 674 N 56.1678 -1.49265 -0.50573 0
M  V30 675 C 57.3958 -1.62215 -1.28429 0
M  V30 676 C 57.8108 -0.291697 -1.86533 0
M  V30 677 O 57.1678 0.722233 -1.67601 0
M  V30 678 C 57.2188 -2.68735 -2.41793 0
M  V30 679 O 56.9398 -3.96619 -1.86078 0
M  V30 680 C 58.4408 -2.92346 -3.3324 0
M  V30 681 H 55.6608 -0.546239 -0.389697 0
M  V30 682 H 58.2048 -1.95265 -0.607609 0
M  V30 683 H 56.3598 -2.38476 -3.053 0
M  V30 684 H 56.7738 -4.55256 -2.60465 0
M  V30 685 H 58.2478 -3.70623 -4.09075 0
M  V30 686 H 58.7248 -2.02081 -3.89948 0
M  V30 687 H 59.3308 -3.24003 -2.75503 0
M  V30 688 N 57.6459 0.756429 -1.3826 0
M  V30 689 C 58.8759 1.54341 -1.3734 0
M  V30 690 C 59.2839 1.89159 0.0393917 0
M  V30 691 O 58.6269 1.5307 1.01565 0
M  V30 692 C 58.6889 2.87238 -2.16182 0
M  V30 693 C 58.3529 2.74973 -3.65019 0
M  V30 694 C 59.3499 2.44962 -4.58574 0
M  V30 695 C 57.0349 2.92515 -4.08338 0
M  V30 696 C 59.0289 2.32642 -5.93428 0
M  V30 697 C 56.7159 2.79815 -5.43274 0
M  V30 698 C 57.7139 2.49921 -6.35632 0
M  V30 699 O 57.4019 2.37275 -7.68086 0
M  V30 700 H 57.1339 0.484281 -0.471643 0
M  V30 701 H 59.6879 0.944152 -1.82414 0
M  V30 702 H 57.9179 3.49342 -1.65822 0
M  V30 703 H 59.6069 3.48731 -2.07705 0
M  V30 704 H 60.3729 2.31081 -4.26412 0
M  V30 705 H 56.2519 3.14781 -3.368 0
M  V30 706 H 59.7959 2.0923 -6.65484 0
M  V30 707 H 55.6929 2.93269 -5.75034 0
M  V30 708 H 56.4609 2.52509 -7.78577 0
M  V30 709 N 59.124 1.23083 0.984299 0
M  V30 710 C 60.354 1.08556 1.75781 0
M  V30 711 C 60.762 -0.366171 1.85623 0
M  V30 712 O 60.105 -1.26524 1.33182 0
M  V30 713 C 60.167 1.63208 3.20318 0
M  V30 714 C 59.831 3.11922 3.33997 0
M  V30 715 C 60.828 4.09259 3.2063 0
M  V30 716 C 58.513 3.51552 3.58771 0
M  V30 717 C 60.507 5.4421 3.31835 0
M  V30 718 C 58.194 4.86649 3.69616 0
M  V30 719 C 59.192 5.82787 3.56157 0
M  V30 720 O 58.88 7.15431 3.66626 0
M  V30 721 H 58.612 0.380713 0.5586 0
M  V30 722 H 61.166 1.63321 1.2456 0
M  V30 723 H 59.396 1.0286 3.72769 0
M  V30 724 H 61.085 1.44216 3.79416 0
M  V30 725 H 61.851 3.79984 3.01392 0
M  V30 726 H 57.73 2.77239 3.6832 0
M  V30 727 H 61.274 6.1923 3.21247 0
M  V30 728 H 57.171 5.15601 3.88363 0
M  V30 729 H 57.939 7.23127 3.83445 0
M  V30 730 N 60.6021 -1.18246 1.0419 0
M  V30 731 C 61.5121 -2.25574 0.644476 0
M  V30 732 C 62.5281 -1.70845 -0.329826 0
M  V30 733 O 63.7041 -2.00554 -0.184443 0
M  V30 734 C 60.7691 -3.46697 0.014877 0
M  V30 735 C 59.8301 -4.16554 1.03834 0
M  V30 736 C 59.0631 -5.31894 0.438692 0
M  V30 737 O 59.2861 -5.65385 -0.754752 0
M  V30 738 O 58.2201 -5.90459 1.168 0
M  V30 739 H 62.0461 -2.61836 1.53869 0
M  V30 740 H 59.6311 -1.25352 0.812854 0
M  V30 741 H 61.5131 -4.20062 -0.335538 0
M  V30 742 H 60.1881 -3.12255 -0.853138 0
M  V30 743 H 59.0951 -3.45251 1.44057 0
M  V30 744 H 60.4281 -4.54998 1.87716 0
M  V30 745 N 62.0802 -0.821533 -1.34494 0
M  V30 746 C 63.3282 -0.408139 -1.97936 0
M  V30 747 C 63.6492 1.03193 -1.65457 0
M  V30 748 O 62.9192 1.71622 -0.944595 0
M  V30 749 H 61.4992 -0.147928 -0.732206 0
M  V30 750 H 64.1612 -1.05067 -1.64155 0
M  V30 751 H 63.2572 -0.52601 -3.07635 0
M  V30 752 N 63.5583 1.46682 -0.576371 0
M  V30 753 C 64.9743 1.57822 -0.237562 0
M  V30 754 C 65.1743 1.57237 1.26011 0
M  V30 755 O 64.2303 1.48596 2.04146 0
M  V30 756 C 65.5433 2.87499 -0.881168 0
M  V30 757 C 67.0913 3.01119 -0.85417 0
M  V30 758 C 67.5663 4.33524 -1.4772 0
M  V30 759 N 69.0573 4.40207 -1.44125 0
M  V30 760 C 69.7923 5.4126 -1.89276 0
M  V30 761 N 69.2883 6.49021 -2.42371 0
M  V30 762 N 71.0813 5.32422 -1.80231 0
M  V30 763 H 63.2323 1.45306 -1.54919 0
M  V30 764 H 65.4953 0.692733 -0.647167 0
M  V30 765 H 65.2013 2.9372 -1.93447 0
M  V30 766 H 65.0753 3.75224 -0.385592 0
M  V30 767 H 67.4623 2.94485 0.190491 0
M  V30 768 H 67.5433 2.14887 -1.3877 0
M  V30 769 H 67.1873 4.40916 -2.52103 0
M  V30 770 H 67.1173 5.1852 -0.918947 0
M  V30 771 H 69.6083 3.62931 -1.05307 0
M  V30 772 H 69.9213 7.2233 -2.74698 0
M  V30 773 H 68.2663 6.49858 -2.46393 0
M  V30 774 H 71.4573 4.47137 -1.38514 0
M  V30 775 H 71.6303 6.11034 -2.15735 0
M  V30 776 N 65.0364 0.313813 1.54444 0
M  V30 777 C 65.9994 -0.54379 2.22656 0
M  V30 778 C 66.9994 -1.05124 1.21678 0
M  V30 779 O 68.1894 -0.945225 1.46325 0
M  V30 780 C 65.3214 -1.75427 2.92298 0
M  V30 781 H 66.5144 0.0523599 2.99854 0
M  V30 782 H 64.0674 0.0647834 1.56166 0
M  V30 783 H 64.8024 -2.38991 2.19211 0
M  V30 784 H 64.5874 -1.39791 3.66334 0
M  V30 785 H 66.0774 -2.36325 3.44297 0
M  V30 786 N 66.5145 -1.57545 0.0417849 0
M  V30 787 C 67.4245 -2.14451 -0.951213 0
M  V30 788 C 68.4405 -1.09992 -1.34825 0
M  V30 789 O 69.6165 -1.42114 -1.42708 0
M  V30 790 C 66.6815 -2.67063 -2.21084 0
M  V30 791 C 65.7425 -3.86284 -1.87304 0
M  V30 792 C 64.9755 -4.36378 -3.07261 0
M  V30 793 O 65.1985 -3.85587 -4.20332 0
M  V30 794 O 64.1325 -5.28077 -2.88822 0
M  V30 795 H 67.9585 -2.99601 -0.497287 0
M  V30 796 H 65.5435 -1.48317 -0.179567 0
M  V30 797 H 67.4255 -3.00914 -2.95006 0
M  V30 798 H 66.1005 -1.84989 -2.65633 0
M  V30 799 H 65.0075 -3.57338 -1.10727 0
M  V30 800 H 66.3405 -4.6956 -1.47562 0
M  V30 801 N 67.9926 0.231505 -1.5589 0
M  V30 802 C 68.9396 1.28682 -1.91598 0
M  V30 803 C 69.9096 1.47071 -0.771974 0
M  V30 804 O 71.0946 1.60802 -1.027 0
M  V30 805 C 68.2346 2.6342 -2.22944 0
M  V30 806 C 67.3476 2.52912 -3.50228 0
M  V30 807 C 66.4826 3.80106 -3.7107 0
M  V30 808 C 65.5216 3.64279 -4.91902 0
M  V30 809 N 64.6586 4.834 -5.09184 0
M  V30 810 H 69.4986 0.975305 -2.81588 0
M  V30 811 H 67.0356 0.470299 -1.39379 0
M  V30 812 H 68.9936 3.41869 -2.39126 0
M  V30 813 H 67.6236 2.92687 -1.36139 0
M  V30 814 H 66.6756 1.6595 -3.42294 0
M  V30 815 H 67.9876 2.37133 -4.38827 0
M  V30 816 H 67.1416 4.66999 -3.87295 0
M  V30 817 H 65.8806 3.98799 -2.80733 0
M  V30 818 H 64.8856 2.7577 -4.75637 0
M  V30 819 H 66.1106 3.47067 -5.83714 0
M  V30 820 H 64.0566 5.02425 -4.21788 0
M  V30 821 H 63.9736 4.70311 -5.91898 0
M  V30 822 H 65.2416 5.71747 -5.29835 0
M  V30 823 N 69.4707 1.49531 0.497807 0
M  V30 824 C 70.4177 1.66436 1.59899 0
M  V30 825 C 71.3877 0.505793 1.58212 0
M  V30 826 O 72.5727 0.733202 1.7615 0
M  V30 827 C 69.7127 1.7399 2.98029 0
M  V30 828 C 68.8257 3.01172 3.09708 0
M  V30 829 C 67.9607 2.99686 4.38591 0
M  V30 830 C 66.9997 4.21434 4.43914 0
M  V30 831 N 66.1367 4.1784 5.64229 0
M  V30 832 H 70.9767 2.60459 1.44793 0
M  V30 833 H 68.5137 1.29137 0.704423 0
M  V30 834 H 70.4717 1.76352 3.78095 0
M  V30 835 H 69.1017 0.834301 3.11832 0
M  V30 836 H 68.1537 3.08408 2.22685 0
M  V30 837 H 69.4657 3.91165 3.09502 0
M  V30 838 H 68.6197 3.00628 5.2698 0
M  V30 839 H 67.3587 2.07477 4.41367 0
M  V30 840 H 66.3637 4.20733 3.53926 0
M  V30 841 H 67.5887 5.14839 4.42851 0
M  V30 842 H 65.5347 3.28469 5.67841 0
M  V30 843 H 65.4517 5.01571 5.65652 0
M  V30 844 H 66.7197 4.22889 6.54817 0
M  V30 845 N 70.9488 -0.749086 1.3866 0
M  V30 846 C 72.1788 -1.53611 1.38157 0
M  V30 847 C 72.5868 -1.89177 -0.0293595 0
M  V30 848 O 71.9298 -1.53606 -1.00752 0
M  V30 849 C 71.9918 -2.86087 2.17702 0
M  V30 850 C 71.6558 -2.73034 3.66472 0
M  V30 851 C 72.6528 -2.42526 4.59866 0
M  V30 852 C 70.3378 -2.90345 4.09884 0
M  V30 853 C 72.3318 -2.29492 5.94653 0
M  V30 854 C 70.0188 -2.7693 5.4475 0
M  V30 855 C 71.0168 -2.46547 6.36949 0
M  V30 856 O 70.7048 -2.33199 7.69333 0
M  V30 857 H 70.4368 -0.481773 0.474205 0
M  V30 858 H 72.9908 -0.934465 1.82912 0
M  V30 859 H 71.2208 -3.48458 1.67672 0
M  V30 860 H 72.9098 -3.47625 2.09551 0
M  V30 861 H 73.6758 -2.28816 4.27631 0
M  V30 862 H 69.5548 -3.1299 3.38464 0
M  V30 863 H 73.0988 -2.05698 6.66584 0
M  V30 864 H 68.9958 -2.90215 5.76581 0
M  V30 865 H 69.7638 -2.48376 7.79905 0
M  V30 866 N 72.4269 -1.23603 -0.977757 0
M  V30 867 C 73.8429 -0.999251 -1.24447 0
M  V30 868 C 74.0429 0.298053 -1.99283 0
M  V30 869 O 73.0989 1.01681 -2.31122 0
M  V30 870 C 74.4119 -2.20784 -2.04144 0
M  V30 871 C 75.9599 -2.25303 -2.17273 0
M  V30 872 C 76.4349 -3.45755 -3.00362 0
M  V30 873 N 77.9259 -3.4601 -3.07947 0
M  V30 874 C 78.6609 -4.35868 -3.72568 0
M  V30 875 N 78.1569 -5.35966 -4.38991 0
M  V30 876 N 79.9499 -4.23605 -3.6948 0
M  V30 877 H 72.1009 -2.06986 -0.476483 0
M  V30 878 H 74.3639 -0.907801 -0.273134 0
M  V30 879 H 74.0699 -3.14945 -1.56533 0
M  V30 880 H 73.9439 -2.22085 -3.04891 0
M  V30 881 H 76.3309 -1.3168 -2.64092 0
M  V30 882 H 76.4119 -2.28033 -1.15907 0
M  V30 883 H 76.0559 -4.39687 -2.5424 0
M  V30 884 H 75.9859 -3.40266 -4.01904 0
M  V30 885 H 78.4769 -2.73588 -2.60688 0
M  V30 886 H 78.7899 -6.00783 -4.86086 0
M  V30 887 H 77.1349 -5.39863 -4.37691 0
M  V30 888 H 80.3259 -3.44647 -3.16759 0
M  V30 889 H 80.4989 -4.93836 -4.1956 0
M  V30 890 N 73.905 1.17692 -1.04816 0
M  V30 891 C 74.852 2.21581 -0.645797 0
M  V30 892 C 75.822 1.62367 0.350159 0
M  V30 893 O 77.007 1.89254 0.242433 0
M  V30 894 C 74.147 3.45092 -0.0227568 0
M  V30 895 C 73.26 4.18613 -1.06709 0
M  V30 896 C 72.395 5.29602 -0.411767 0
M  V30 897 C 71.434 5.94904 -1.44067 0
M  V30 898 N 70.571 6.97414 -0.809781 0
M  V30 899 H 75.411 2.55353 -1.5362 0
M  V30 900 H 72.948 1.25438 -0.768364 0
M  V30 901 H 74.906 4.15679 0.35588 0
M  V30 902 H 73.536 3.11917 0.831122 0
M  V30 903 H 72.588 3.46779 -1.5636 0
M  V30 904 H 73.9 4.63293 -1.84827 0
M  V30 905 H 73.054 6.06696 0.0206623 0
M  V30 906 H 71.793 4.86045 0.401438 0
M  V30 907 H 70.798 5.16544 -1.88316 0
M  V30 908 H 72.023 6.40542 -2.25571 0
M  V30 909 H 69.969 6.55998 -0.0170186 0
M  V30 910 H 69.886 7.40386 -1.52856 0
M  V30 911 H 71.154 7.78463 -0.401999 0
M  V30 912 N 75.3831 0.828654 1.34056 0
M  V30 913 C 76.6311 0.41863 1.97717 0
M  V30 914 C 76.9521 -1.02314 1.66002 0
M  V30 915 O 76.2221 -1.71119 0.953683 0
M  V30 916 H 74.8021 0.151809 0.731412 0
M  V30 917 H 77.4641 1.05936 1.63596 0
M  V30 918 H 76.5601 0.542318 3.07352 0
M  V30 919 N 76.8612 -1.46375 0.584142 0
M  V30 920 C 78.1082 -2.02378 0.0702675 0
M  V30 921 C 78.4362 -1.45545 -1.29023 0
M  V30 922 O 77.6912 -0.610967 -1.85918 0
M  V30 923 C 77.9902 -3.57373 -0.0439342 0
M  V30 924 C 77.6562 -4.33252 1.24915 0
M  V30 925 C 76.3182 -4.53701 1.60341 0
M  V30 926 C 78.6702 -4.7681 2.1048 0
M  V30 927 C 75.9982 -5.1496 2.81128 0
M  V30 928 C 78.3502 -5.39404 3.30494 0
M  V30 929 C 77.0142 -5.5808 3.66201 0
M  V30 930 H 76.2842 -0.740554 0.0257127 0
M  V30 931 H 78.9312 -1.75727 0.761065 0
M  V30 932 H 77.2362 -3.83169 -0.817869 0
M  V30 933 H 78.9332 -3.98384 -0.457318 0
M  V30 934 H 75.5232 -4.17633 0.963364 0
M  V30 935 H 79.7072 -4.60766 1.84414 0
M  V30 936 H 74.9632 -5.27611 3.08928 0
M  V30 937 H 79.1372 -5.72114 3.97063 0
M  V30 938 H 76.7642 -6.05318 4.59885 0
M  V30 939 N 78.3393 -0.321999 -1.54275 0
M  V30 940 C 79.5883 0.281931 -1.9972 0
M  V30 941 C 79.9013 1.53369 -1.21397 0
M  V30 942 O 81.1073 2.21352 -1.57211 0
M  V30 943 C 79.5633 0.5529 -3.55628 0
M  V30 944 C 79.1713 -0.681721 -4.42783 0
M  V30 945 C 80.9153 1.11687 -4.09544 0
M  V30 946 C 78.8223 -0.382742 -5.9016 0
M  V30 947 H 77.7523 0.109124 -0.746062 0
M  V30 948 H 80.4033 -0.43398 -1.78294 0
M  V30 949 H 78.7853 1.32896 -3.73035 0
M  V30 950 H 79.9593 -1.45723 -4.37151 0
M  V30 951 H 78.2743 -1.1658 -3.99748 0
M  V30 952 H 80.8713 1.35515 -5.17242 0
M  V30 953 H 81.2143 2.06575 -3.61431 0
M  V30 954 H 81.7473 0.402032 -3.95763 0
M  V30 955 H 78.4863 -1.30076 -6.42464 0
M  V30 956 H 78.0063 0.355094 -5.98748 0
M  V30 957 H 79.6853 0.00800157 -6.47 0
M  V30 958 N 79.8174 1.5752 -0.0501392 0
M  V30 959 C 81.0944 1.83996 0.663685 0
M  V30 960 C 81.4744 0.938339 1.89099 0
M  V30 961 O 80.8224 -0.00087759 2.285 0
M  V30 962 C 81.0324 3.33702 1.02196 0
M  V30 963 C 82.3804 4.00691 1.40469 0
M  V30 964 O 83.4044 3.38321 1.11433 0
M  V30 965 O 82.2634 5.10658 1.94654 0
M  V30 966 H 79.3574 0.759385 0.32751 0
M  V30 967 H 81.9034 1.69514 -0.0794238 0
M  V30 968 H 80.6754 3.91015 0.149364 0
M  V30 969 H 80.2984 3.53368 1.82255 0
M  V30 970 N 81.2955 -0.223234 1.56011 0
M  V30 971 C 82.5415 -0.949279 1.79211 0
M  V30 972 C 82.8745 -1.84054 0.619494 0
M  V30 973 O 82.1495 -1.90726 -0.381317 0
M  V30 974 C 82.4325 -1.78965 3.12479 0
M  V30 975 C 82.2855 -0.924997 4.40186 0
M  V30 976 C 83.6045 -2.76774 3.42175 0
M  V30 977 H 80.7235 -0.343676 0.651963 0
M  V30 978 H 83.3655 -0.218253 1.88742 0
M  V30 979 H 81.5155 -2.41291 3.04485 0
M  V30 980 H 83.1875 -0.318615 4.60198 0
M  V30 981 H 81.4305 -0.230344 4.33188 0
M  V30 982 H 82.1015 -1.54735 5.29869 0
M  V30 983 H 84.5775 -2.24584 3.50287 0
M  V30 984 H 83.4535 -3.32678 4.36597 0
M  V30 985 H 83.7145 -3.54429 2.64258 0
M  V30 986 N 82.7736 -1.49793 -0.48987 0
M  V30 987 C 83.9986 -1.63836 -1.27172 0
M  V30 988 C 84.4236 -0.31402 -1.8546 0
M  V30 989 O 83.7816 0.719803 -1.66399 0
M  V30 990 C 83.8296 -2.71797 -2.36978 0
M  V30 991 O 82.9336 -2.31744 -3.41128 0
M  V30 992 H 82.2746 -0.547997 -0.37496 0
M  V30 993 H 84.8046 -1.96053 -0.585191 0
M  V30 994 H 84.8146 -2.94305 -2.82575 0
M  V30 995 H 83.4896 -3.67923 -1.93921 0
M  V30 996 H 82.0666 -2.1961 -3.01373 0
M  V30 997 N 84.2517 0.741722 -1.39055 0
M  V30 998 C 85.1987 1.85566 -1.37237 0
M  V30 999 C 86.1687 1.64457 -0.233072 0
M  V30 1000 O 87.3537 1.85957 -0.427147 0
M  V30 1001 C 84.4937 3.23004 -1.215 0
M  V30 1002 C 83.6067 3.55864 -2.44918 0
M  V30 1003 C 82.7417 4.82669 -2.21821 0
M  V30 1004 C 81.7807 5.08351 -3.40948 0
M  V30 1005 N 80.9177 6.26356 -3.17211 0
M  V30 1006 H 85.7577 1.86455 -2.32462 0
M  V30 1007 H 83.2947 0.911176 -1.15482 0
M  V30 1008 H 85.2527 4.02331 -1.10389 0
M  V30 1009 H 83.8827 3.21411 -0.29908 0
M  V30 1010 H 82.9347 2.7129 -2.66657 0
M  V30 1011 H 84.2467 3.70765 -3.33668 0
M  V30 1012 H 83.4007 5.69962 -2.07914 0
M  V30 1013 H 82.1397 4.69929 -1.30454 0
M  V30 1014 H 81.1447 4.19522 -3.55361 0
M  V30 1015 H 82.3697 5.22981 -4.33207 0
M  V30 1016 H 80.3157 6.14917 -2.28502 0
M  V30 1017 H 80.2327 6.41813 -3.99515 0
M  V30 1018 H 81.5007 7.16506 -3.06984 0
M  V30 1019 N 85.7298 1.2412 0.971189 0
M  V30 1020 C 86.9788 1.07284 1.70801 0
M  V30 1021 C 87.2918 -0.388902 1.91695 0
M  V30 1022 O 88.4978 -0.677379 2.62914 0
M  V30 1023 C 86.9538 1.87145 3.07416 0
M  V30 1024 C 86.5618 3.37707 2.94377 0
M  V30 1025 C 88.3058 1.78828 3.84995 0
M  V30 1026 C 86.2128 4.09925 4.26281 0
M  V30 1027 H 85.1428 0.397854 0.64049 0
M  V30 1028 H 87.7938 1.4817 1.0825 0
M  V30 1029 H 86.1758 1.39071 3.70777 0
M  V30 1030 H 87.3498 3.93335 2.4005 0
M  V30 1031 H 85.6648 3.46938 2.30267 0
M  V30 1032 H 88.2618 2.30089 4.82662 0
M  V30 1033 H 88.6048 0.75284 4.09436 0
M  V30 1034 H 89.1378 2.24563 3.28354 0
M  V30 1035 H 85.8768 5.13813 4.07033 0
M  V30 1036 H 85.3968 3.59083 4.80437 0
M  V30 1037 H 87.0758 4.1673 4.94919 0
M  V30 1038 N 87.2079 -1.17134 1.05439 0
M  V30 1039 C 88.1549 -2.21235 0.657539 0
M  V30 1040 C 89.1249 -1.62551 -0.341543 0
M  V30 1041 O 90.3099 -1.89379 -0.232393 0
M  V30 1042 C 87.4499 -3.45076 0.0410575 0
M  V30 1043 C 86.5629 -4.18042 1.08927 0
M  V30 1044 C 85.6979 -5.29376 0.439848 0
M  V30 1045 C 84.7369 -5.94132 1.4722 0
M  V30 1046 N 83.8739 -6.96975 0.846756 0
M  V30 1047 H 88.7139 -2.54534 1.54972 0
M  V30 1048 H 86.2509 -1.25028 0.775006 0
M  V30 1049 H 88.2089 -4.15862 -0.33383 0
M  V30 1050 H 86.8389 -3.12353 -0.814568 0
M  V30 1051 H 85.8909 -3.45945 1.58196 0
M  V30 1052 H 87.2029 -4.62306 1.87282 0
M  V30 1053 H 86.3569 -6.06699 0.0115125 0
M  V30 1054 H 85.0959 -4.86251 -0.375656 0
M  V30 1055 H 84.1009 -5.15538 1.91052 0
M  V30 1056 H 85.3259 -6.39337 2.28965 0
M  V30 1057 H 83.2719 -6.5598 0.0518075 0
M  V30 1058 H 83.1889 -7.39565 1.5678 0
M  V30 1059 H 84.4569 -7.78239 0.443277 0
M  V30 1060 N 88.686 -0.835752 -1.33615 0
M  V30 1061 C 89.926 -0.43599 -1.99696 0
M  V30 1062 C 90.29 0.98557 -1.64774 0
M  V30 1063 O 91.491 1.48889 -2.23798 0
M  V30 1064 C 89.762 -0.646721 -3.515 0
M  V30 1065 S 91.321 -0.341715 -4.37467 0
M  V30 1066 H 88.139 -0.164136 -0.691795 0
M  V30 1067 H 90.741 -1.08436 -1.62671 0
M  V30 1068 H 89.445 -1.68077 -3.74404 0
M  V30 1069 H 88.976 0.0159173 -3.93397 0
M  V30 1070 H 90.991 0.839708 -4.89043 0
M  V30 1071 N 90.1641 1.46063 -0.591896 0
M  V30 1072 C 91.4101 2.02638 -0.0811191 0
M  V30 1073 C 91.7431 1.4613 1.27905 0
M  V30 1074 O 91.0181 0.629908 1.84017 0
M  V30 1075 C 91.3011 3.60091 -0.0252436 0
M  V30 1076 C 91.1541 4.26965 -1.41496 0
M  V30 1077 C 92.4731 4.3496 0.670685 0
M  V30 1078 H 89.5921 0.73635 -0.0309524 0
M  V30 1079 H 92.2341 1.741 -0.760859 0
M  V30 1080 H 90.3841 3.84535 0.553624 0
M  V30 1081 H 92.0561 4.13756 -2.0397 0
M  V30 1082 H 90.2991 3.85971 -1.98011 0
M  V30 1083 H 90.9701 5.35781 -1.32825 0
M  V30 1084 H 93.4461 4.15716 0.178825 0
M  V30 1085 H 92.3221 5.44686 0.678837 0
M  V30 1086 H 92.5831 4.06685 1.73379 0
M  V30 1087 N 91.6422 0.330177 1.54103 0
M  V30 1088 C 92.5522 -0.541534 2.28264 0
M  V30 1089 C 93.5682 -1.12351 1.32866 0
M  V30 1090 O 94.7442 -1.14206 1.65888 0
M  V30 1091 C 91.8092 -1.68322 3.03098 0
M  V30 1092 C 90.8702 -1.13238 4.14096 0
M  V30 1093 C 90.1032 -2.21966 4.85352 0
M  V30 1094 O 90.3262 -3.42437 4.56172 0
M  V30 1095 O 89.2602 -1.87013 5.7211 0
M  V30 1096 H 93.0862 0.060938 3.03639 0
M  V30 1097 H 90.6712 0.09565 1.49093 0
M  V30 1098 H 92.5532 -2.34777 3.49939 0
M  V30 1099 H 91.2282 -2.27176 2.30593 0
M  V30 1100 H 90.1352 -0.432736 3.71589 0
M  V30 1101 H 91.4682 -0.588898 4.88664 0
M  V30 1102 N 93.1203 -1.57491 0.0584922 0
M  V30 1103 C 94.3693 -1.92155 -0.613146 0
M  V30 1104 C 94.6823 -0.939334 -1.71569 0
M  V30 1105 O 95.8883 -1.17829 -2.44599 0
M  V30 1106 C 94.3443 -3.41303 -1.14195 0
M  V30 1107 C 93.9523 -4.47944 -0.0711265 0
M  V30 1108 C 95.6963 -3.84988 -1.78841 0
M  V30 1109 C 93.6033 -5.88212 -0.613225 0
M  V30 1110 H 92.5333 -0.717162 -0.232796 0
M  V30 1111 H 95.1843 -1.83049 0.12857 0
M  V30 1112 H 93.5663 -3.45437 -1.93621 0
M  V30 1113 H 94.7403 -4.55408 0.702836 0
M  V30 1114 H 93.0553 -4.13644 0.478313 0
M  V30 1115 H 95.6523 -4.87159 -2.20408 0
M  V30 1116 H 95.9953 -3.21632 -2.64308 0
M  V30 1117 H 96.5283 -3.83401 -1.06059 0
M  V30 1118 H 93.2673 -6.55183 0.203978 0
M  V30 1119 H 92.7873 -5.84294 -1.35501 0
M  V30 1120 H 94.4663 -6.37687 -1.09383 0
M  V30 1121 N 94.5984 0.214957 -1.56127 0
M  V30 1122 C 95.8444 0.939762 -1.79712 0
M  V30 1123 C 96.1774 1.83723 -0.629247 0
M  V30 1124 O 95.4524 1.90925 0.371197 0
M  V30 1125 C 95.7354 1.77306 -3.13424 0
M  V30 1126 C 95.5884 0.90164 -4.40671 0
M  V30 1127 C 96.9074 2.74956 -3.43638 0
M  V30 1128 H 94.0264 0.340214 -0.653776 0
M  V30 1129 H 96.6684 0.20824 -1.88855 0
M  V30 1130 H 94.8184 2.39673 -3.0576 0
M  V30 1131 H 96.4904 0.294206 -4.60361 0
M  V30 1132 H 94.7334 0.207368 -4.33304 0
M  V30 1133 H 95.4044 1.51923 -5.30682 0
M  V30 1134 H 97.8804 2.22724 -3.51473 0
M  V30 1135 H 96.7564 3.30358 -4.38355 0
M  V30 1136 H 97.0174 3.53023 -2.66134 0
M  V30 1137 N 96.0765 1.50051 0.48192 0
M  V30 1138 C 97.0235 1.68122 1.58125 0
M  V30 1139 C 97.9935 0.522545 1.57666 0
M  V30 1140 O 99.1785 0.751844 1.75362 0
M  V30 1141 C 96.3185 1.77142 2.96167 0
M  V30 1142 C 95.4315 3.0444 3.06497 0
M  V30 1143 C 94.5665 3.04321 4.35387 0
M  V30 1144 C 93.6055 4.26118 4.3942 0
M  V30 1145 N 92.7425 4.238 5.59766 0
M  V30 1146 H 97.5825 2.6198 1.42022 0
M  V30 1147 H 95.1195 1.29877 0.690687 0
M  V30 1148 H 97.0775 1.80352 3.76203 0
M  V30 1149 H 95.7075 0.867329 3.1093 0
M  V30 1150 H 94.7595 3.10752 2.19402 0
M  V30 1151 H 96.0715 3.94426 3.05336 0
M  V30 1152 H 95.2255 3.062 5.23762 0
M  V30 1153 H 93.9645 2.12147 4.39141 0
M  V30 1154 H 92.9695 4.24463 3.49444 0
M  V30 1155 H 94.1945 5.19507 4.37366 0
M  V30 1156 H 92.1405 3.34474 5.64326 0
M  V30 1157 H 92.0575 5.07542 5.60301 0
M  V30 1158 H 93.3255 4.2981 6.50295 0
M  V30 1159 N 97.5546 -0.734337 1.39446 0
M  V30 1160 C 98.5026 -1.86971 1.38364 0
M  V30 1161 C 99.4966 -1.67288 0.266687 0
M  V30 1162 O 100.703 -1.74621 0.436755 0
M  V30 1163 H 97.0776 -0.615474 0.432082 0
M  V30 1164 H 99.0486 -1.85 2.34132 0
M  V30 1165 C 97.7976 -3.2466 1.24465 0
M  V30 1166 H 97.1206 -3.40402 2.09682 0
M  V30 1167 H 98.5606 -4.04292 1.27764 0
M  V30 1168 C 97.0196 -3.36867 -0.0468674 0
M  V30 1169 O 97.5496 -3.88618 -1.01681 0
M  V30 1170 N 95.7556 -2.90391 -0.110145 0
M  V30 1171 H 95.3026 -2.48466 0.679868 0
M  V30 1172 H 95.2606 -2.98939 -0.973799 0
M  V30 1173 N 99.0327 -1.24633 -0.964593 0
M  V30 1174 C 100.31 -0.995809 -1.68354 0
M  V30 1175 C 100.69 0.480964 -2.05548 0
M  V30 1176 O 100.038 1.45599 -1.76105 0
M  V30 1177 C 100.248 -1.92177 -2.91323 0
M  V30 1178 C 101.596 -2.19446 -3.63495 0
M  V30 1179 O 102.62 -1.89855 -3.01386 0
M  V30 1180 O 101.479 -2.69714 -4.75307 0
M  V30 1181 H 98.5727 -0.376854 -0.736146 0
M  V30 1182 H 101.119 -1.35745 -1.0184 0
M  V30 1183 H 99.8907 -2.91938 -2.60553 0
M  V30 1184 H 99.5137 -1.56349 -3.65569 0
M  V30 1185 N 100.511 1.16574 -1.06058 0
M  V30 1186 C 101.788 1.83048 -0.689416 0
M  V30 1187 C 102.168 1.94122 0.829443 0
M  V30 1188 O 101.516 1.48249 1.7388 0
M  V30 1189 C 101.726 3.20186 -1.38859 0
M  V30 1190 C 103.074 3.95989 -1.53226 0
M  V30 1191 O 104.098 3.29696 -1.3483 0
M  V30 1192 O 102.957 5.14813 -1.83384 0
M  V30 1193 H 100.051 0.790258 -0.243764 0
M  V30 1194 H 102.597 1.23797 -1.16071 0
M  V30 1195 H 101.369 3.07146 -2.4244 0
M  V30 1196 H 100.992 3.87112 -0.907216 0
M  V30 1197 N 101.989 0.842826 1.3317 0
M  V30 1198 C 103.237 0.439577 1.97262 0
M  V30 1199 C 103.558 -1.00548 1.67078 0
M  V30 1200 O 102.828 -1.70098 0.971779 0
M  V30 1201 H 101.408 0.159558 0.72976 0
M  V30 1202 H 104.07 1.07665 1.62463 0
M  V30 1203 H 103.166 0.574886 3.0676 0
M  V30 1204 N 103.467 -1.45747 0.599634 0
M  V30 1205 C 104.713 -2.02592 0.0918643 0
M  V30 1206 C 105.046 -1.46806 -1.27128 0
M  V30 1207 O 104.321 -0.639658 -1.83681 0
M  V30 1208 C 104.604 -3.60073 0.0443398 0
M  V30 1209 C 104.457 -4.26208 1.43759 0
M  V30 1210 C 105.776 -4.35309 -0.647608 0
M  V30 1211 H 102.895 -0.736175 0.034857 0
M  V30 1212 H 105.537 -1.73694 0.770081 0
M  V30 1213 H 103.687 -3.84823 -0.533224 0
M  V30 1214 H 105.359 -4.12668 2.06162 0
M  V30 1215 H 103.602 -3.84916 2.00056 0
M  V30 1216 H 104.273 -5.35069 1.35665 0
M  V30 1217 H 106.749 -4.15805 -0.156776 0
M  V30 1218 H 105.625 -5.45038 -0.649942 0
M  V30 1219 H 105.886 -4.07598 -1.71219 0
M  V30 1220 N 104.945 -0.338344 -1.53925 0
M  V30 1221 C 106.194 0.260732 -2.00008 0
M  V30 1222 C 106.507 1.52073 -1.23017 0
M  V30 1223 O 107.713 2.19672 -1.5955 0
M  V30 1224 C 106.169 0.51515 -3.56194 0
M  V30 1225 C 105.777 -0.728645 -4.42035 0
M  V30 1226 C 107.521 1.07337 -4.10706 0
M  V30 1227 C 105.428 -0.445315 -5.89721 0
M  V30 1228 H 104.358 0.101205 -0.747177 0
M  V30 1229 H 107.009 -0.452866 -1.77824 0
M  V30 1230 H 105.391 1.28932 -3.74423 0
M  V30 1231 H 106.565 -1.50352 -4.35581 0
M  V30 1232 H 104.88 -1.20813 -3.98489 0
M  V30 1233 H 107.477 1.30022 -5.18651 0
M  V30 1234 H 107.82 2.0273 -3.63602 0
M  V30 1235 H 108.353 0.360034 -3.96167 0
M  V30 1236 H 105.092 -1.36883 -6.41049 0
M  V30 1237 H 104.612 0.291569 -5.99091 0
M  V30 1238 H 106.291 -0.0606218 -6.46972 0
M  V30 1239 N 106.423 1.57458 -0.0668435 0
M  V30 1240 C 107.834 1.80776 0.466558 0
M  V30 1241 C 108.185 0.980361 1.69951 0
M  V30 1242 O 107.31 0.201441 2.1546 0
M  V30 1243 C 107.905 3.27881 0.85321 0
M  V30 1244 C 106.464 3.52062 1.3315 0
M  V30 1245 C 105.611 2.75513 0.314264 0
M  V30 1246 H 108.562 1.5598 -0.292588 0
M  V30 1247 H 108.583 3.39659 1.715 0
M  V30 1248 H 108.095 3.88075 -0.0443439 0
M  V30 1249 H 106.196 2.97167 2.24772 0
M  V30 1250 H 106.309 4.60762 1.31285 0
M  V30 1251 H 104.673 2.42123 0.790492 0
M  V30 1252 H 105.456 3.38442 -0.575477 0
M  V30 1253 N 107.901 -0.206675 1.56239 0
M  V30 1254 C 109.141 -0.93574 1.81723 0
M  V30 1255 C 109.505 -1.80927 0.642609 0
M  V30 1256 O 110.706 -2.57323 0.777081 0
M  V30 1257 C 108.977 -1.74012 3.12177 0
M  V30 1258 S 110.536 -2.52279 3.59028 0
M  V30 1259 H 107.354 -0.314065 0.637875 0
M  V30 1260 H 109.956 -0.200071 1.94474 0
M  V30 1261 H 108.66 -1.0888 3.95693 0
M  V30 1262 H 108.191 -2.51782 3.02274 0
M  V30 1263 H 110.206 -3.76209 3.23545 0
M  V30 1264 N 109.379 -1.50304 -0.473955 0
M  V30 1265 C 110.311 -1.65109 -1.58971 0
M  V30 1266 C 111.324 -0.532676 -1.53839 0
M  V30 1267 O 112.513 -0.805751 -1.59279 0
M  V30 1268 C 109.613 -1.61684 -2.97845 0
M  V30 1269 C 108.786 -2.8951 -3.27876 0
M  V30 1270 C 107.845 -2.78768 -4.4629 0
M  V30 1271 O 106.871 -3.52722 -4.46739 0
M  V30 1272 N 108.073 -1.9213 -5.47783 0
M  V30 1273 H 110.838 -2.61347 -1.46689 0
M  V30 1274 H 108.399 -1.47732 -0.662324 0
M  V30 1275 H 110.391 -1.52114 -3.75024 0
M  V30 1276 H 108.961 -0.731925 -3.03911 0
M  V30 1277 H 108.181 -3.13228 -2.39336 0
M  V30 1278 H 109.469 -3.74199 -3.4475 0
M  V30 1279 H 108.867 -1.31353 -5.50239 0
M  V30 1280 H 107.424 -1.88466 -6.23958 0
M  V30 1281 N 110.857 0.726932 -1.39834 0
M  V30 1282 C 111.805 1.86235 -1.39353 0
M  V30 1283 C 112.799 1.67144 -0.275555 0
M  V30 1284 O 114.005 1.74387 -0.44601 0
M  V30 1285 H 110.38 0.613174 -0.43534 0
M  V30 1286 H 112.351 1.83756 -2.35109 0
M  V30 1287 C 111.1 3.23995 -1.26185 0
M  V30 1288 H 110.423 3.39285 -2.11484 0
M  V30 1289 H 111.863 4.03609 -1.29907 0
M  V30 1290 C 110.322 3.36888 0.0290018 0
M  V30 1291 O 110.852 3.89152 0.99619 0
M  V30 1292 N 109.058 2.90446 0.0947437 0
M  V30 1293 H 108.605 2.48102 -0.693035 0
M  V30 1294 H 108.563 2.99451 0.957932 0
M  V30 1295 N 112.336 1.25143 0.95797 0
M  V30 1296 C 113.283 1.05235 2.05412 0
M  V30 1297 C 114.253 -0.0374561 1.66058 0
M  V30 1298 O 115.438 0.119073 1.90428 0
M  V30 1299 C 112.578 0.673589 3.38462 0
M  V30 1300 C 111.691 1.8379 3.90954 0
M  V30 1301 C 110.826 1.40381 5.12315 0
M  V30 1302 C 109.865 2.53746 5.57027 0
M  V30 1303 N 109.002 2.11136 6.69601 0
M  V30 1304 H 113.842 1.99048 2.21774 0
M  V30 1305 H 111.379 0.991277 1.08683 0
M  V30 1306 H 113.337 0.434964 4.14926 0
M  V30 1307 H 111.967 -0.227554 3.21997 0
M  V30 1308 H 111.019 2.18992 3.11041 0
M  V30 1309 H 112.331 2.68937 4.20089 0
M  V30 1310 H 111.485 1.12464 5.96185 0
M  V30 1311 H 110.224 0.523015 4.84887 0
M  V30 1312 H 109.229 2.82412 4.71724 0
M  V30 1313 H 110.454 3.42398 5.86464 0
M  V30 1314 H 108.4 1.25468 6.4389 0
M  V30 1315 H 108.317 2.89832 6.98236 0
M  V30 1316 H 109.585 1.86385 7.56889 0
M  V30 1317 N 113.814 -1.1601 1.06675 0
M  V30 1318 C 115.044 -1.90251 0.805497 0
M  V30 1319 C 115.452 -1.77891 -0.64431 0
M  V30 1320 O 114.795 -1.12383 -1.45313 0
M  V30 1321 C 114.857 -3.41419 1.12576 0
M  V30 1322 C 114.521 -3.77564 2.57477 0
M  V30 1323 C 115.518 -3.79161 3.55715 0
M  V30 1324 C 113.203 -4.08079 2.92877 0
M  V30 1325 C 115.197 -4.10767 4.8739 0
M  V30 1326 C 112.884 -4.39351 4.24751 0
M  V30 1327 C 113.882 -4.40675 5.21818 0
M  V30 1328 O 113.57 -4.71202 6.51325 0
M  V30 1329 H 113.302 -0.610018 0.291297 0
M  V30 1330 H 115.856 -1.47958 1.4247 0
M  V30 1331 H 114.086 -3.84079 0.449503 0
M  V30 1332 H 115.775 -3.9694 0.84814 0
M  V30 1333 H 116.541 -3.55693 3.29708 0
M  V30 1334 H 112.42 -4.06211 2.17976 0
M  V30 1335 H 115.964 -4.11715 5.63148 0
M  V30 1336 H 111.861 -4.62285 4.50514 0
M  V30 1337 H 112.629 -4.88996 6.56373 0
M  V30 1338 N 115.292 -0.849877 -1.32721 0
M  V30 1339 C 116.703 -0.506188 -1.79707 0
M  V30 1340 C 117.054 0.975627 -1.70223 0
M  V30 1341 O 116.179 1.76078 -1.25799 0
M  V30 1342 C 116.774 -0.912044 -3.26293 0
M  V30 1343 C 115.333 -0.620326 -3.71253 0
M  V30 1344 C 114.48 -1.11439 -2.53922 0
M  V30 1345 H 117.431 -1.03754 -1.20087 0
M  V30 1346 H 117.452 -0.226493 -3.79825 0
M  V30 1347 H 116.964 -1.99057 -3.33164 0
M  V30 1348 H 115.065 0.447674 -3.69901 0
M  V30 1349 H 115.178 -1.18327 -4.64258 0
M  V30 1350 H 113.542 -0.534834 -2.49021 0
M  V30 1351 H 114.325 -2.19992 -2.6355 0
M  V30 1352 N 116.77 1.45427 -0.607355 0
M  V30 1353 C 118.017 2.02241 -0.102455 0
M  V30 1354 C 118.345 1.4758 1.26691 0
M  V30 1355 O 117.6 0.640468 1.84923 0
M  V30 1356 C 117.899 3.57398 -0.0129263 0
M  V30 1357 C 117.565 4.3121 -1.31792 0
M  V30 1358 C 116.227 4.51092 -1.67539 0
M  V30 1359 C 118.579 4.73401 -2.18039 0
M  V30 1360 C 115.907 5.10422 -2.89285 0
M  V30 1361 C 118.259 5.34078 -3.39034 0
M  V30 1362 C 116.923 5.52184 -3.75033 0
M  V30 1363 H 116.193 0.740051 -0.037491 0
M  V30 1364 H 118.84 1.74494 -0.788926 0
M  V30 1365 H 117.145 3.84421 0.756806 0
M  V30 1366 H 118.842 3.99061 0.393881 0
M  V30 1367 H 115.432 4.16047 -1.02968 0
M  V30 1368 H 119.616 4.57774 -1.91721 0
M  V30 1369 H 114.872 5.22629 -3.17283 0
M  V30 1370 H 119.046 5.65724 -4.06115 0
M  V30 1371 H 116.673 5.97925 -4.69457 0
M  V30 1372 N 118.248 0.346503 1.53744 0
M  V30 1373 C 119.18 -0.543316 2.22667 0
M  V30 1374 C 120.193 -1.06159 1.23427 0
M  V30 1375 O 121.382 -0.971235 1.49764 0
M  V30 1376 C 118.482 -1.76076 2.89569 0
M  V30 1377 C 117.655 -1.37727 4.15151 0
M  V30 1378 C 116.714 -2.45471 4.65436 0
M  V30 1379 O 115.74 -2.08655 5.29577 0
M  V30 1380 N 116.942 -3.7677 4.41616 0
M  V30 1381 H 119.707 0.0469703 2.99663 0
M  V30 1382 H 117.268 0.170766 1.60997 0
M  V30 1383 H 119.26 -2.47593 3.20125 0
M  V30 1384 H 117.83 -2.25835 2.16142 0
M  V30 1385 H 117.05 -0.492746 3.91108 0
M  V30 1386 H 118.338 -1.09708 4.96832 0
M  V30 1387 H 117.736 -4.09467 3.90325 0
M  V30 1388 H 116.293 -4.44448 4.7677 0
M  V30 1389 N 119.726 -1.57421 0.075193 0
M  V30 1390 C 120.972 -1.93905 -0.594025 0
M  V30 1391 C 121.305 -0.955701 -1.69056 0
M  V30 1392 O 120.58 0.0145373 -1.94495 0
M  V30 1393 C 120.863 -3.40638 -1.1678 0
M  V30 1394 C 120.716 -4.49733 -0.0776792 0
M  V30 1395 C 122.035 -3.88259 -2.07228 0
M  V30 1396 H 119.154 -0.705105 -0.214466 0
M  V30 1397 H 121.796 -1.8947 0.141854 0
M  V30 1398 H 119.946 -3.44549 -1.79494 0
M  V30 1399 H 121.618 -4.57942 0.555573 0
M  V30 1400 H 119.861 -4.29751 0.591286 0
M  V30 1401 H 120.532 -5.49549 -0.519603 0
M  V30 1402 H 123.008 -3.86376 -1.54445 0
M  V30 1403 H 121.884 -4.91533 -2.44308 0
M  V30 1404 H 122.145 -3.26396 -2.98191 0
M  V30 1405 N 121.204 0.198386 -1.56346 0
M  V30 1406 C 122.45 0.920648 -1.80698 0
M  V30 1407 C 122.783 1.83045 -0.648697 0
M  V30 1408 O 122.058 1.91308 0.350925 0
M  V30 1409 C 122.341 1.73971 -3.15287 0
M  V30 1410 C 122.194 0.85485 -4.41602 0
M  V30 1411 C 123.513 2.71296 -3.46535 0
M  V30 1412 H 120.632 0.333261 -0.657348 0
M  V30 1413 H 123.274 0.188198 -1.89066 0
M  V30 1414 H 121.424 2.36416 -3.08285 0
M  V30 1415 H 123.096 0.245362 -4.60647 0
M  V30 1416 H 121.339 0.161398 -4.335 0
M  V30 1417 H 122.01 1.46286 -5.32264 0
M  V30 1418 H 124.486 2.18983 -3.53816 0
M  V30 1419 H 123.362 3.2569 -4.41834 0
M  V30 1420 H 123.623 3.5018 -2.69864 0
M  V30 1421 N 122.682 1.50554 0.465978 0
M  V30 1422 C 123.632 1.66177 1.56106 0
M  V30 1423 C 124.616 0.516265 1.52393 0
M  V30 1424 O 125.808 0.770906 1.5933 0
M  V30 1425 C 122.937 1.76396 2.94515 0
M  V30 1426 C 122.023 2.9664 3.03093 0
M  V30 1427 N 122.414 4.20245 2.81474 0
M  V30 1428 C 120.712 2.95304 3.34233 0
M  V30 1429 C 121.413 5.01259 2.95151 0
M  V30 1430 N 120.389 4.35318 3.25576 0
M  V30 1431 H 124.191 2.59434 1.38099 0
M  V30 1432 H 121.705 1.47808 0.6728 0
M  V30 1433 H 123.702 1.85694 3.73261 0
M  V30 1434 H 122.362 0.843017 3.13565 0
M  V30 1435 H 123.373 4.4966 2.56956 0
M  V30 1436 H 120.05 2.12729 3.59239 0
M  V30 1437 H 121.44 6.09564 2.82632 0
M  V30 1438 N 124.16 -0.719506 1.40217 0
M  V30 1439 C 125.437 -1.47221 1.28784 0
M  V30 1440 C 125.817 -2.10883 -0.0956067 0
M  V30 1441 O 125.165 -1.99833 -1.10811 0
M  V30 1442 C 125.375 -2.5111 2.42373 0
M  V30 1443 C 126.723 -3.17053 2.82423 0
M  V30 1444 O 127.747 -2.61429 2.41937 0
M  V30 1445 O 126.606 -4.17742 3.52355 0
M  V30 1446 H 123.7 -0.654491 0.50554 0
M  V30 1447 H 126.246 -0.752014 1.52128 0
M  V30 1448 H 125.018 -2.02556 3.34793 0
M  V30 1449 H 124.641 -3.3067 2.20778 0
M  V30 1450 N 125.638 -1.25649 -0.95132 0
M  V30 1451 C 126.601 -1.06399 -2.03007 0
M  V30 1452 C 127.601 -0.0156794 -1.60792 0
M  V30 1453 O 128.791 -0.25817 -1.72276 0
M  V30 1454 C 125.923 -0.616184 -3.35285 0
M  V30 1455 H 127.116 -2.02164 -2.21517 0
M  V30 1456 H 124.669 -1.08103 -1.12887 0
M  V30 1457 H 125.404 0.343917 -3.22471 0
M  V30 1458 H 125.189 -1.37301 -3.67275 0
M  V30 1459 H 126.679 -0.503032 -4.14559 0
M  V30 1460 N 127.117 1.15442 -1.07289 0
M  V30 1461 C 128.065 2.22225 -0.686952 0
M  V30 1462 C 129.059 1.66688 0.30193 0
M  V30 1463 O 130.265 1.79236 0.165712 0
M  V30 1464 H 126.64 0.723783 -0.204064 0
M  V30 1465 H 128.611 2.52056 -1.5972 0
M  V30 1466 C 127.36 3.47556 -0.100149 0
M  V30 1467 H 126.683 3.90612 -0.852211 0
M  V30 1468 H 128.123 4.23794 0.132235 0
M  V30 1469 C 126.582 3.16337 1.159 0
M  V30 1470 O 127.112 3.33074 2.24555 0
M  V30 1471 N 125.318 2.70385 1.06491 0
M  V30 1472 H 124.865 2.56966 0.180668 0
M  V30 1473 H 124.823 2.49871 1.90819 0
M  V30 1474 N 128.595 0.856903 1.32268 0
M  V30 1475 C 129.823 0.475439 2.01363 0
M  V30 1476 C 130.238 -0.928486 1.64392 0
M  V30 1477 O 129.595 -1.60624 0.866387 0
M  V30 1478 C 129.646 0.607545 3.56358 0
M  V30 1479 O 129.367 1.95617 3.92002 0
M  V30 1480 C 130.868 0.225382 4.42727 0
M  V30 1481 H 128.088 0.186636 0.644521 0
M  V30 1482 H 130.632 1.15446 1.68797 0
M  V30 1483 H 128.787 -0.0237719 3.87393 0
M  V30 1484 H 129.201 1.95455 4.86721 0
M  V30 1485 H 130.675 0.368813 5.50767 0
M  V30 1486 H 131.152 -0.834369 4.31202 0
M  V30 1487 H 131.758 0.831864 4.17085 0
M  V30 1488 N 130.073 -1.45103 0.615059 0
M  V30 1489 C 131.003 -2.33339 -0.0865619 0
M  V30 1490 C 131.984 -1.4727 -0.851209 0
M  V30 1491 O 133.169 -1.76026 -0.820281 0
M  V30 1492 C 130.299 -3.30095 -1.07956 0
M  V30 1493 C 129.253 -4.25858 -0.427628 0
M  V30 1494 C 128.579 -5.12361 -1.5294 0
M  V30 1495 C 129.879 -5.18165 0.655944 0
M  V30 1496 H 131.573 -2.92254 0.650224 0
M  V30 1497 H 129.119 -1.40532 0.314138 0
M  V30 1498 H 131.072 -3.90698 -1.57901 0
M  V30 1499 H 129.796 -2.69355 -1.84703 0
M  V30 1500 H 128.455 -3.66564 0.0510292 0
M  V30 1501 H 128.103 -4.47984 -2.28734 0
M  V30 1502 H 127.803 -5.77238 -1.09865 0
M  V30 1503 H 129.327 -5.75833 -2.03098 0
M  V30 1504 H 130.741 -5.72796 0.240257 0
M  V30 1505 H 129.138 -5.91559 1.00888 0
M  V30 1506 H 130.208 -4.60144 1.52957 0
M  V30 1507 N 131.551 -0.354651 -1.53558 0
M  V30 1508 C 132.781 0.239167 -2.05211 0
M  V30 1509 C 133.189 1.43879 -1.22863 0
M  V30 1510 O 132.532 1.81857 -0.259565 0
M  V30 1511 C 132.594 0.707251 -3.52474 0
M  V30 1512 C 132.258 -0.374212 -4.55465 0
M  V30 1513 C 133.255 -1.22054 -5.0537 0
M  V30 1514 C 130.94 -0.531323 -4.99482 0
M  V30 1515 C 132.934 -2.20942 -5.97882 0
M  V30 1516 C 130.621 -1.52358 -5.91802 0
M  V30 1517 C 131.619 -2.36108 -6.40892 0
M  V30 1518 O 131.307 -3.33643 -7.31394 0
M  V30 1519 H 131.039 0.0479716 -0.674296 0
M  V30 1520 H 133.593 -0.508121 -1.99016 0
M  V30 1521 H 131.823 1.50596 -3.56171 0
M  V30 1522 H 133.512 1.22285 -3.87042 0
M  V30 1523 H 134.278 -1.1103 -4.7212 0
M  V30 1524 H 130.157 0.110738 -4.60867 0
M  V30 1525 H 133.701 -2.86348 -6.36121 0
M  V30 1526 H 129.598 -1.63434 -6.24467 0
M  V30 1527 H 130.366 -3.29244 -7.4936 0
M  V30 1528 N 133.029 1.57378 -0.0835403 0
M  V30 1529 C 134.278 1.93106 0.582498 0
M  V30 1530 C 134.591 0.96651 1.70053 0
M  V30 1531 O 135.797 1.21705 2.42693 0
M  V30 1532 C 134.253 3.43076 1.08751 0
M  V30 1533 C 133.861 4.48 -0.000146404 0
M  V30 1534 C 135.605 3.87785 1.72694 0
M  V30 1535 C 133.512 5.89113 0.519568 0
M  V30 1536 H 132.442 0.720775 0.221358 0
M  V30 1537 H 135.093 1.82821 -0.157675 0
M  V30 1538 H 133.475 3.48474 1.88101 0
M  V30 1539 H 134.649 4.54233 -0.775199 0
M  V30 1540 H 132.964 4.1283 -0.54406 0
M  V30 1541 H 135.561 4.90604 2.1263 0
M  V30 1542 H 135.904 3.25796 2.59158 0
M  V30 1543 H 136.437 3.8504 0.999457 0
M  V30 1544 H 133.176 6.54775 -0.308186 0
M  V30 1545 H 132.696 5.86376 1.26188 0
M  V30 1546 H 134.375 6.39346 0.992237 0
M  V30 1547 N 134.507 -0.190092 1.56449 0
M  V30 1548 C 135.754 -0.909705 1.80916 0
M  V30 1549 C 136.082 -1.83047 0.657583 0
M  V30 1550 O 135.337 -1.92428 -0.356356 0
M  V30 1551 C 135.636 -1.75382 3.1141 0
M  V30 1552 C 135.302 -0.983606 4.40041 0
M  V30 1553 C 133.964 -0.770967 4.74984 0
M  V30 1554 C 136.316 -0.442024 5.19322 0
M  V30 1555 C 133.644 -0.0053448 5.867 0
M  V30 1556 C 135.996 0.310412 6.31838 0
M  V30 1557 C 134.66 0.534023 6.6536 0
M  V30 1558 H 133.93 -0.332885 0.662019 0
M  V30 1559 H 136.577 -0.175762 1.90692 0
M  V30 1560 H 134.882 -2.55659 2.96893 0
M  V30 1561 H 136.579 -2.31331 3.27547 0
M  V30 1562 H 133.169 -1.15936 4.12622 0
M  V30 1563 H 137.353 -0.593693 4.92736 0
M  V30 1564 H 132.609 0.177825 6.11141 0
M  V30 1565 H 136.783 0.737419 6.92485 0
M  V30 1566 H 134.41 1.12918 7.51767 0
M  V30 1567 N 135.985 -1.50799 -0.457987 0
M  V30 1568 C 136.948 -1.7005 -1.53674 0
M  V30 1569 C 137.948 -0.570881 -1.50325 0
M  V30 1570 O 139.138 -0.838126 -1.52712 0
M  V30 1571 C 136.27 -1.73788 -2.93276 0
M  V30 1572 H 137.463 -2.66306 -1.37917 0
M  V30 1573 H 135.016 -1.40477 -0.685271 0
M  V30 1574 H 135.751 -0.792717 -3.14462 0
M  V30 1575 H 135.536 -2.55864 -2.97113 0
M  V30 1576 H 137.026 -1.90591 -3.71571 0
M  V30 1577 N 137.463 0.71206 -1.40597 0
M  V30 1578 C 138.874 1.29135 -1.34837 0
M  V30 1579 C 139.225 1.96186 -0.0235395 0
M  V30 1580 O 138.35 1.97768 0.878444 0
M  V30 1581 C 138.945 2.34827 -2.44217 0
M  V30 1582 C 137.504 2.88371 -2.41907 0
M  V30 1583 C 136.651 1.62202 -2.24913 0
M  V30 1584 H 139.602 0.507944 -1.50352 0
M  V30 1585 H 139.623 3.15749 -2.12327 0
M  V30 1586 H 139.135 1.85996 -3.40627 0
M  V30 1587 H 137.236 3.41422 -1.49204 0
M  V30 1588 H 137.349 3.39925 -3.37621 0
M  V30 1589 H 135.713 1.874 -1.72492 0
M  V30 1590 H 136.496 1.15391 -3.23326 0
M  V30 1591 N 138.941 1.26152 0.944643 0
M  V30 1592 C 140.166 1.14363 1.7302 0
M  V30 1593 C 140.591 -0.29772 1.85729 0
M  V30 1594 O 139.949 -1.2157 1.34501 0
M  V30 1595 C 139.997 1.81378 3.11664 0
M  V30 1596 O 139.101 1.10022 3.97453 0
M  V30 1597 H 138.442 0.398694 0.53098 0
M  V30 1598 H 140.972 1.66906 1.18337 0
M  V30 1599 H 140.982 1.88064 3.62072 0
M  V30 1600 H 139.657 2.86237 3.0173 0
M  V30 1601 H 138.234 1.11287 3.55907 0
M  V30 1602 N 140.419 -1.14872 1.07899 0
M  V30 1603 C 141.83 -1.67367 0.827363 0
M  V30 1604 C 142.181 -1.85236 -0.646693 0
M  V30 1605 O 141.306 -1.55974 -1.50004 0
M  V30 1606 C 141.901 -3.04016 1.49532 0
M  V30 1607 C 140.46 -3.53566 1.29106 0
M  V30 1608 C 139.607 -2.29161 1.56143 0
M  V30 1609 H 142.558 -0.990083 1.24028 0
M  V30 1610 H 142.579 -3.69219 0.919643 0
M  V30 1611 H 142.091 -2.90978 2.56814 0
M  V30 1612 H 140.192 -3.71835 0.238713 0
M  V30 1613 H 140.305 -4.34661 2.01511 0
M  V30 1614 H 138.669 -2.34978 0.982717 0
M  V30 1615 H 139.452 -2.18705 2.64619 0
M  V30 1616 N 141.898 -0.863906 -1.31812 0
M  V30 1617 C 142.83 -0.272485 -2.27575 0
M  V30 1618 C 143.843 0.56104 -1.52827 0
M  V30 1619 O 145.032 0.384021 -1.7432 0
M  V30 1620 C 142.132 0.63283 -3.32939 0
M  V30 1621 C 141.305 -0.166902 -4.37081 0
M  V30 1622 C 140.364 0.665608 -5.21973 0
M  V30 1623 O 139.39 0.0958091 -5.69119 0
M  V30 1624 N 140.592 1.9787 -5.45736 0
M  V30 1625 H 143.357 -1.0954 -2.78964 0
M  V30 1626 H 140.918 -0.724791 -1.4477 0
M  V30 1627 H 142.91 1.19532 -3.86645 0
M  V30 1628 H 141.48 1.35642 -2.81638 0
M  V30 1629 H 140.7 -0.910838 -3.83533 0
M  V30 1630 H 141.988 -0.715874 -5.03739 0
M  V30 1631 H 141.386 2.46484 -5.09178 0
M  V30 1632 H 139.943 2.48911 -6.024 0
M  V30 1633 N 143.376 1.44774 -0.622745 0
M  V30 1634 C 144.601 2.06999 -0.128968 0
M  V30 1635 C 145.026 1.4617 1.1839 0
M  V30 1636 O 144.384 0.560007 1.72434 0
M  V30 1637 C 144.432 3.60595 -0.0188351 0
M  V30 1638 O 143.536 3.99398 1.02739 0
M  V30 1639 H 142.877 0.659047 -0.0809544 0
M  V30 1640 H 145.407 1.85784 -0.85705 0
M  V30 1641 H 145.417 4.07627 0.174476 0
M  V30 1642 H 144.092 4.04252 -0.977384 0
M  V30 1643 H 142.669 3.64011 0.809326 0
M  V30 1644 N 144.854 0.36279 1.53368 0
M  V30 1645 C 146.27 0.0116182 1.59596 0
M  V30 1646 C 146.47 -1.47012 1.37803 0
M  V30 1647 O 145.526 -2.23136 1.18181 0
M  V30 1648 C 146.839 0.465052 2.97082 0
M  V30 1649 C 148.387 0.419033 3.10182 0
M  V30 1650 C 148.862 0.848235 4.50077 0
M  V30 1651 N 150.353 0.803183 4.56183 0
M  V30 1652 C 151.088 1.107 5.62613 0
M  V30 1653 N 150.584 1.47996 6.76808 0
M  V30 1654 N 152.377 1.02998 5.52583 0
M  V30 1655 H 144.528 1.32775 1.65785 0
M  V30 1656 H 146.791 0.542518 0.777417 0
M  V30 1657 H 146.497 1.49892 3.18159 0
M  V30 1658 H 146.371 -0.149786 3.76902 0
M  V30 1659 H 148.758 -0.605696 2.88817 0
M  V30 1660 H 148.839 1.06933 2.32377 0
M  V30 1661 H 148.483 1.87107 4.7218 0
M  V30 1662 H 148.413 0.175218 5.26308 0
M  V30 1663 H 150.904 0.52838 3.74188 0
M  V30 1664 H 151.217 1.69613 7.53957 0
M  V30 1665 H 149.562 1.51859 6.78206 0
M  V30 1666 H 152.753 0.737817 4.62249 0
M  V30 1667 H 152.926 1.2701 6.35431 0
M  V30 1668 N 146.332 -1.57332 0.0918853 0
M  V30 1669 C 147.609 -1.85691 -0.614668 0
M  V30 1670 C 147.989 -0.988146 -1.86545 0
M  V30 1671 O 147.337 -0.0597055 -2.28422 0
M  V30 1672 C 147.547 -3.36294 -0.933126 0
M  V30 1673 C 148.895 -4.04275 -1.29796 0
M  V30 1674 O 149.919 -3.41157 -1.02424 0
M  V30 1675 O 148.778 -5.1564 -1.81047 0
M  V30 1676 H 145.872 -0.767802 -0.307261 0
M  V30 1677 H 148.418 -1.69244 0.12434 0
M  V30 1678 H 147.19 -3.91273 -0.0456404 0
M  V30 1679 H 146.813 -3.58076 -1.72822 0
M  V30 1680 N 147.81 0.181792 -1.56548 0
M  V30 1681 C 148.74 1.22765 -1.98623 0
M  V30 1682 C 149.721 1.46747 -0.860189 0
M  V30 1683 O 150.906 1.58259 -1.12551 0
M  V30 1684 C 148.036 2.56894 -2.33715 0
M  V30 1685 C 146.99 2.475 -3.49182 0
M  V30 1686 C 146.316 3.86023 -3.69986 0
M  V30 1687 C 147.616 1.98866 -4.82959 0
M  V30 1688 H 149.31 0.877942 -2.86239 0
M  V30 1689 H 146.856 0.42088 -1.37712 0
M  V30 1690 H 148.809 3.30253 -2.61746 0
M  V30 1691 H 147.533 2.93632 -1.42997 0
M  V30 1692 H 146.192 1.76596 -3.21262 0
M  V30 1693 H 145.84 4.20136 -2.76576 0
M  V30 1694 H 145.54 3.80609 -4.47672 0
M  V30 1695 H 147.064 4.60984 -4.00407 0
M  V30 1696 H 148.478 2.61992 -5.09934 0
M  V30 1697 H 146.875 2.04424 -5.64208 0
M  V30 1698 H 147.945 0.942465 -4.75653 0
M  V30 1699 N 149.288 1.51039 0.449983 0
M  V30 1700 C 150.534 1.64287 1.19923 0
M  V30 1701 C 150.889 0.348701 1.89214 0
M  V30 1702 O 150.182 -0.654751 1.80065 0
M  V30 1703 C 150.376 2.77556 2.25161 0
M  V30 1704 C 150.205 4.17862 1.66198 0
M  V30 1705 C 148.975 4.83976 1.45243 0
M  V30 1706 C 151.173 5.01388 1.14519 0
M  V30 1707 N 149.155 6.08433 0.817437 0
M  V30 1708 C 150.526 6.16743 0.634705 0
M  V30 1709 C 152.581 4.87008 1.03574 0
M  V30 1710 C 151.284 7.19295 0.0255452 0
M  V30 1711 C 153.31 5.89757 0.440489 0
M  V30 1712 C 152.672 7.04375 -0.0595112 0
M  V30 1713 H 148.771 0.655161 0.426952 0
M  V30 1714 H 151.355 1.88228 0.49781 0
M  V30 1715 H 149.526 2.553 2.92706 0
M  V30 1716 H 151.258 2.80049 2.92155 0
M  V30 1717 H 148.013 4.41627 1.71063 0
M  V30 1718 H 148.437 6.75017 0.517747 0
M  V30 1719 H 153.079 3.9866 1.4082 0
M  V30 1720 H 150.797 8.07302 -0.359071 0
M  V30 1721 H 154.383 5.80698 0.35788 0
M  V30 1722 H 153.263 7.82521 -0.512882 0
M  V30 1723 N 150.766 -0.704594 1.40972 0
M  V30 1724 C 152.012 -1.46675 1.40051 0
M  V30 1725 C 152.345 -1.94199 0.00641102 0
M  V30 1726 O 151.62 -1.68916 -0.964235 0
M  V30 1727 C 151.903 -2.68505 2.39952 0
M  V30 1728 C 151.756 -2.26805 3.88432 0
M  V30 1729 C 153.075 -3.70686 2.37233 0
M  V30 1730 H 150.194 -0.532015 0.510028 0
M  V30 1731 H 152.836 -0.803255 1.72185 0
M  V30 1732 H 150.986 -3.25114 2.1268 0
M  V30 1733 H 152.658 -1.75592 4.26574 0
M  V30 1734 H 150.901 -1.58685 4.03734 0
M  V30 1735 H 151.572 -3.14181 4.53866 0
M  V30 1736 H 154.048 -3.23731 2.61415 0
M  V30 1737 H 152.924 -4.53553 3.09162 0
M  V30 1738 H 153.185 -4.19754 1.38777 0
M  V30 1739 N 152.244 -1.26651 -0.937939 0
M  V30 1740 C 153.191 -1.0849 -2.03712 0
M  V30 1741 C 154.161 0.011033 -1.66096 0
M  V30 1742 O 155.346 -0.149353 -1.90215 0
M  V30 1743 C 152.486 -0.72735 -3.37348 0
M  V30 1744 C 151.599 -1.89986 -3.87981 0
M  V30 1745 C 150.734 -1.48513 -5.10017 0
M  V30 1746 C 149.773 -2.62575 -5.5292 0
M  V30 1747 N 148.91 -2.21762 -6.66158 0
M  V30 1748 H 153.75 -2.02551 -2.18579 0
M  V30 1749 H 151.287 -1.00844 -1.07093 0
M  V30 1750 H 153.245 -0.50092 -4.14182 0
M  V30 1751 H 151.875 0.176298 -3.22318 0
M  V30 1752 H 150.927 -2.23913 -3.07518 0
M  V30 1753 H 152.239 -2.75586 -4.15757 0
M  V30 1754 H 151.393 -1.21934 -5.94321 0
M  V30 1755 H 150.132 -0.60009 -4.83994 0
M  V30 1756 H 149.137 -2.8988 -4.67172 0
M  V30 1757 H 150.362 -3.51685 -5.80943 0
M  V30 1758 H 148.308 -1.35696 -6.41812 0
M  V30 1759 H 148.225 -3.00903 -6.93537 0
M  V30 1760 H 149.493 -1.98403 -7.53828 0
M  V30 1761 N 153.722 1.14298 -1.08507 0
M  V30 1762 C 154.669 2.19414 -0.715965 0
M  V30 1763 C 155.639 1.63399 0.298326 0
M  V30 1764 O 156.824 1.89929 0.182101 0
M  V30 1765 C 153.964 3.44845 -0.132534 0
M  V30 1766 C 153.077 4.15007 -1.19973 0
M  V30 1767 C 152.212 5.28024 -0.580048 0
M  V30 1768 C 151.251 5.9002 -1.62921 0
M  V30 1769 N 150.388 6.94485 -1.03125 0
M  V30 1770 H 155.228 2.50336 -1.61666 0
M  V30 1771 H 152.765 1.2293 -0.807882 0
M  V30 1772 H 154.723 4.16601 0.223454 0
M  V30 1773 H 153.353 3.14403 0.731467 0
M  V30 1774 H 152.405 3.41629 -1.67313 0
M  V30 1775 H 153.717 4.57178 -1.99473 0
M  V30 1776 H 152.871 6.06455 -0.172364 0
M  V30 1777 H 151.61 4.87076 0.246603 0
M  V30 1778 H 150.615 5.10291 -2.04654 0
M  V30 1779 H 151.84 6.33042 -2.45835 0
M  V30 1780 H 149.786 6.55612 -0.225711 0
M  V30 1781 H 149.703 7.35148 -1.76334 0
M  V30 1782 H 150.971 7.7679 -0.649458 0
M  V30 1783 N 155.201 0.870884 1.31352 0
M  V30 1784 C 156.131 0.343096 2.30966 0
M  V30 1785 C 157.112 -0.566507 1.60389 0
M  V30 1786 O 158.297 -0.483336 1.88089 0
M  V30 1787 C 155.427 -0.455487 3.443 0
M  V30 1788 C 154.381 0.361103 4.26474 0
M  V30 1789 C 153.707 -0.563221 5.31725 0
M  V30 1790 C 155.007 1.59566 4.97329 0
M  V30 1791 H 156.701 1.17548 2.75359 0
M  V30 1792 H 154.247 0.566686 1.32381 0
M  V30 1793 H 156.2 -0.83525 4.13039 0
M  V30 1794 H 154.924 -1.32139 2.98675 0
M  V30 1795 H 153.583 0.722825 3.59403 0
M  V30 1796 H 153.231 -1.42643 4.82351 0
M  V30 1797 H 152.931 -0.0207409 5.87596 0
M  V30 1798 H 154.455 -0.939808 6.03324 0
M  V30 1799 H 155.869 1.28728 5.58661 0
M  V30 1800 H 154.266 2.07728 5.63 0
M  V30 1801 H 155.336 2.34798 4.24262 0
M  V30 1802 N 156.679 -1.44442 0.630414 0
M  V30 1803 C 157.626 -2.30678 -0.0749355 0
M  V30 1804 C 158.596 -1.4344 -0.837502 0
M  V30 1805 O 159.781 -1.72343 -0.818684 0
M  V30 1806 C 156.921 -3.28706 -1.05103 0
M  V30 1807 C 156.034 -4.31046 -0.286954 0
M  V30 1808 C 155.169 -5.16167 -1.2548 0
M  V30 1809 C 154.208 -6.10216 -0.479843 0
M  V30 1810 N 153.345 -6.88039 -1.39811 0
M  V30 1811 H 158.185 -2.90454 0.666386 0
M  V30 1812 H 155.722 -1.43107 0.340404 0
M  V30 1813 H 157.68 -3.84027 -1.63031 0
M  V30 1814 H 156.31 -2.70632 -1.75949 0
M  V30 1815 H 155.362 -3.78203 0.408243 0
M  V30 1816 H 156.674 -4.97794 0.316657 0
M  V30 1817 H 155.828 -5.76002 -1.90544 0
M  V30 1818 H 154.567 -4.49491 -1.89233 0
M  V30 1819 H 153.572 -5.49491 0.184295 0
M  V30 1820 H 154.797 -6.78928 0.152965 0
M  V30 1821 H 152.743 -6.24032 -2.02287 0
M  V30 1822 H 152.66 -7.51223 -0.848508 0
M  V30 1823 H 153.928 -7.52397 -2.03762 0
M  V30 1824 N 158.157 -0.370918 -1.53173 0
M  V30 1825 C 159.067 0.480823 -2.2962 0
M  V30 1826 C 160.083 1.08789 -1.35798 0
M  V30 1827 O 161.259 1.09768 -1.68858 0
M  V30 1828 C 158.324 1.60227 -3.07454 0
M  V30 1829 C 157.385 1.0222 -4.16953 0
M  V30 1830 C 156.618 2.0902 -4.91066 0
M  V30 1831 O 156.841 3.30222 -4.65091 0
M  V30 1832 O 155.775 1.71778 -5.76867 0
M  V30 1833 H 159.601 -0.141421 -3.03371 0
M  V30 1834 H 157.186 -0.135146 -1.48787 0
M  V30 1835 H 159.068 2.25417 -3.56041 0
M  V30 1836 H 157.743 2.20982 -2.36535 0
M  V30 1837 H 156.65 0.334064 -3.72605 0
M  V30 1838 H 157.983 0.459131 -4.90054 0
M  V30 1839 N 159.635 1.57281 -0.100228 0
M  V30 1840 C 160.545 2.17833 0.870965 0
M  V30 1841 C 161.561 1.14921 1.30649 0
M  V30 1842 O 162.737 1.47313 1.37335 0
M  V30 1843 C 159.802 2.75085 2.1102 0
M  V30 1844 C 158.863 3.9297 1.72838 0
M  V30 1845 C 158.096 4.47482 2.90854 0
M  V30 1846 O 158.319 4.00922 4.05731 0
M  V30 1847 O 157.253 5.38433 2.69023 0
M  V30 1848 H 161.079 3.0124 0.38575 0
M  V30 1849 H 158.664 1.48881 0.124397 0
M  V30 1850 H 160.546 3.11656 2.83634 0
M  V30 1851 H 159.221 1.94721 2.58584 0
M  V30 1852 H 158.128 3.61201 0.973883 0
M  V30 1853 H 159.461 4.74713 1.30033 0
M  V30 1854 N 161.113 -0.173488 1.56642 0
M  V30 1855 C 162.362 -0.888758 1.81063 0
M  V30 1856 C 162.675 -1.83506 0.67712 0
M  V30 1857 O 163.881 -2.59254 0.806206 0
M  V30 1858 C 162.337 -1.63091 3.20826 0
M  V30 1859 C 161.945 -0.728357 4.4204 0
M  V30 1860 C 163.689 -2.33454 3.54541 0
M  V30 1861 C 161.596 -1.47062 5.72823 0
M  V30 1862 H 160.526 -0.335618 0.675186 0
M  V30 1863 H 163.177 -0.141712 1.82952 0
M  V30 1864 H 161.559 -2.42263 3.13248 0
M  V30 1865 H 162.733 0.0262449 4.60793 0
M  V30 1866 H 161.048 -0.134492 4.16183 0
M  V30 1867 H 163.645 -2.89578 4.49498 0
M  V30 1868 H 163.988 -3.08687 2.79317 0
M  V30 1869 H 164.521 -1.61227 3.63663 0
M  V30 1870 H 161.26 -0.760658 6.51072 0
M  V30 1871 H 160.78 -2.1986 5.58052 0
M  V30 1872 H 162.459 -2.01868 6.14702 0
M  V30 1873 N 162.591 -1.51276 -0.441967 0
M  V30 1874 C 163.538 -1.72256 -1.53612 0
M  V30 1875 C 164.508 -0.564164 -1.56225 0
M  V30 1876 O 165.693 -0.798074 -1.73307 0
M  V30 1877 C 162.833 -1.84932 -2.91366 0
M  V30 1878 C 161.946 -3.12459 -2.98317 0
M  V30 1879 C 161.081 -3.15758 -4.27166 0
M  V30 1880 C 160.12 -4.37619 -4.27967 0
M  V30 1881 N 159.257 -4.38493 -5.48333 0
M  V30 1882 H 164.097 -2.65654 -1.35026 0
M  V30 1883 H 161.634 -1.31662 -0.656009 0
M  V30 1884 H 163.592 -1.90263 -3.7129 0
M  V30 1885 H 162.222 -0.949461 -3.08521 0
M  V30 1886 H 161.274 -3.1646 -2.11086 0
M  V30 1887 H 162.586 -4.02382 -2.94771 0
M  V30 1888 H 161.74 -3.19979 -5.15459 0
M  V30 1889 H 160.479 -2.23715 -4.33362 0
M  V30 1890 H 159.484 -4.33579 -3.38067 0
M  V30 1891 H 160.709 -5.30921 -4.23438 0
M  V30 1892 H 158.655 -3.49318 -5.55259 0
M  V30 1893 H 158.572 -5.22219 -5.46647 0
M  V30 1894 H 159.84 -4.469 -6.38671 0
M  V30 1895 N 164.069 0.697108 -1.41344 0
M  V30 1896 C 165.017 1.83237 -1.43272 0
M  V30 1897 C 166.011 1.66522 -0.310947 0
M  V30 1898 O 167.217 1.73402 -0.482899 0
M  V30 1899 H 163.592 0.603802 -0.448249 0
M  V30 1900 H 165.563 1.78727 -2.38954 0
M  V30 1901 C 164.312 3.21245 -1.33029 0
M  V30 1902 H 163.635 3.34723 -2.18633 0
M  V30 1903 H 165.075 4.00763 -1.38439 0
M  V30 1904 C 163.534 3.36873 -0.0424635 0
M  V30 1905 O 164.064 3.91177 0.913421 0
M  V30 1906 N 162.27 2.90581 0.0331145 0
M  V30 1907 H 161.817 2.46577 -0.745506 0
M  V30 1908 H 161.775 3.01416 0.894199 0
M  V30 1909 N 165.547 1.27147 0.931209 0
M  V30 1910 C 166.495 1.09398 2.05268 0
M  V30 1911 C 167.489 0.0180591 1.6939 0
M  V30 1912 O 168.695 0.17551 1.79142 0
M  V30 1913 H 165.07 0.336986 0.672268 0
M  V30 1914 H 167.041 2.04416 2.17386 0
M  V30 1915 C 165.79 0.75424 3.39421 0
M  V30 1916 H 165.113 1.57404 3.67511 0
M  V30 1917 H 166.553 0.669903 4.18674 0
M  V30 1918 C 165.012 -0.541197 3.32525 0
M  V30 1919 O 165.542 -1.57664 3.69466 0
M  V30 1920 N 163.748 -0.535517 2.85623 0
M  V30 1921 H 163.295 0.307511 2.55758 0
M  V30 1922 H 163.253 -1.40236 2.81392 0
M  V30 1923 N 167.025 -1.13721 1.09112 0
M  V30 1924 C 167.973 -2.21103 0.722219 0
M  V30 1925 C 168.967 -1.67147 -0.275374 0
M  V30 1926 O 170.173 -1.79477 -0.137176 0
M  V30 1927 H 166.548 -0.720445 0.215553 0
M  V30 1928 H 168.519 -2.49483 1.63709 0
M  V30 1929 C 167.268 -3.47352 0.15543 0
M  V30 1930 H 166.591 -3.89206 0.914246 0
M  V30 1931 H 168.031 -4.2395 -0.0647967 0
M  V30 1932 C 166.49 -3.1814 -1.10852 0
M  V30 1933 O 167.02 -3.36604 -2.19227 0
M  V30 1934 N 165.226 -2.72045 -1.02176 0
M  V30 1935 H 164.773 -2.57221 -0.139764 0
M  V30 1936 H 164.731 -2.52875 -1.8682 0
M  V30 1937 N 168.503 -0.877838 -1.30888 0
M  V30 1938 C 169.451 -0.328662 -2.30266 0
M  V30 1939 C 170.445 0.560496 -1.59859 0
M  V30 1940 O 171.651 0.445722 -1.74394 0
M  V30 1941 H 168.026 -0.0876142 -0.746879 0
M  V30 1942 H 169.997 -1.18061 -2.74051 0
M  V30 1943 C 168.746 0.448071 -3.44801 0
M  V30 1944 H 168.069 -0.226859 -3.99156 0
M  V30 1945 H 169.509 0.797541 -4.16432 0
M  V30 1946 C 167.968 1.64239 -2.94155 0
M  V30 1947 O 168.498 2.74175 -2.93583 0
M  V30 1948 N 166.704 1.47716 -2.50256 0
M  V30 1949 H 166.251 0.582821 -2.5092 0
M  V30 1950 H 166.209 2.27765 -2.16727 0
M  V30 1951 N 169.982 1.44106 -0.638065 0
M  V30 1952 C 171.231 2.01194 -0.142744 0
M  V30 1953 C 171.544 1.50835 1.24532 0
M  V30 1954 O 172.75 2.00096 1.83504 0
M  V30 1955 C 171.206 3.59319 -0.20442 0
M  V30 1956 C 170.814 4.18674 -1.59423 0
M  V30 1957 C 172.558 4.23854 0.234079 0
M  V30 1958 C 170.465 5.69045 -1.61065 0
M  V30 1959 H 169.395 0.752367 -0.0495998 0
M  V30 1960 H 172.046 1.65246 -0.797881 0
M  V30 1961 H 170.428 3.92598 0.517946 0
M  V30 1962 H 171.602 3.96921 -2.34074 0
M  V30 1963 H 169.917 3.66453 -1.97741 0
M  V30 1964 H 172.514 5.34155 0.241443 0
M  V30 1965 H 172.857 3.96688 1.2627 0
M  V30 1966 H 173.39 3.95403 -0.436025 0
M  V30 1967 H 170.129 6.00956 -2.61787 0
M  V30 1968 H 169.649 5.929 -0.90718 0
M  V30 1969 H 171.328 6.32809 -1.34766 0
M  V30 1970 N 171.46 0.379036 1.52974 0
M  V30 1971 C 172.393 -0.504932 2.22544 0
M  V30 1972 C 173.371 -1.0723 1.22231 0
M  V30 1973 O 174.555 -1.12589 1.51182 0
M  V30 1974 C 171.682 -1.69794 2.93066 0
M  V30 1975 C 170.728 -1.25678 4.07563 0
M  V30 1976 S 171.561 -0.246852 5.34931 0
M  V30 1977 C 172.717 -1.44588 6.08971 0
M  V30 1978 H 172.95 0.0858666 2.97176 0
M  V30 1979 H 170.483 0.163183 1.53535 0
M  V30 1980 H 172.441 -2.38219 3.34308 0
M  V30 1981 H 171.102 -2.26002 2.18133 0
M  V30 1982 H 170.295 -2.14725 4.5597 0
M  V30 1983 H 169.897 -0.651584 3.6828 0
M  V30 1984 H 172.189 -2.37469 6.34519 0
M  V30 1985 H 173.132 -1.00292 7.00962 0
M  V30 1986 H 173.54 -1.65804 5.39601 0
M  V30 1987 N 172.938 -1.57226 0.108567 0
M  V30 1988 C 174.187 -1.94008 -0.551703 0
M  V30 1989 C 174.5 -0.993442 -1.68494 0
M  V30 1990 O 175.706 -1.25551 -2.40726 0
M  V30 1991 C 174.162 -3.44763 -1.03279 0
M  V30 1992 C 173.77 -4.47943 0.0714193 0
M  V30 1993 C 175.514 -3.90483 -1.66503 0
M  V30 1994 C 173.421 -5.89865 -0.425779 0
M  V30 1995 H 172.351 -0.724206 -0.209863 0
M  V30 1996 H 175.002 -1.82547 0.186741 0
M  V30 1997 H 173.384 -3.51422 -1.82533 0
M  V30 1998 H 174.558 -4.52942 0.847365 0
M  V30 1999 H 172.873 -4.11913 0.609669 0
M  V30 2000 H 175.47 -4.93925 -2.04798 0
M  V30 2001 H 175.813 -3.29877 -2.53942 0
M  V30 2002 H 176.346 -3.86581 -0.938074 0
M  V30 2003 H 173.085 -6.54202 0.412316 0
M  V30 2004 H 172.605 -5.88309 -1.16843 0
M  V30 2005 H 174.284 -6.40844 -0.890397 0
M  V30 2006 N 174.416 0.165178 -1.56732 0
M  V30 2007 C 175.363 1.2044 -1.96883 0
M  V30 2008 C 176.333 1.43664 -0.833657 0
M  V30 2009 O 177.518 1.56302 -1.09427 0
M  V30 2010 C 174.658 2.53727 -2.33916 0
M  V30 2011 C 173.771 2.3783 -3.6064 0
M  V30 2012 C 172.906 3.64026 -3.86857 0
M  V30 2013 C 171.945 3.43088 -5.06909 0
M  V30 2014 N 171.082 4.61369 -5.29229 0
M  V30 2015 H 175.922 0.854996 -2.85471 0
M  V30 2016 H 173.459 0.41076 -1.41249 0
M  V30 2017 H 175.417 3.31419 -2.53411 0
M  V30 2018 H 174.047 2.8665 -1.48431 0
M  V30 2019 H 173.099 1.51282 -3.49024 0
M  V30 2020 H 174.411 2.18308 -4.4849 0
M  V30 2021 H 173.565 4.50152 -4.06753 0
M  V30 2022 H 172.304 3.86533 -2.97394 0
M  V30 2023 H 171.309 2.55349 -4.86906 0
M  V30 2024 H 172.534 3.21997 -5.97909 0
M  V30 2025 H 170.48 4.84084 -4.42718 0
M  V30 2026 H 170.397 4.44783 -6.11313 0
M  V30 2027 H 171.665 5.48761 -5.53608 0
M  V30 2028 N 175.894 1.51508 0.433938 0
M  V30 2029 C 177.124 1.67914 1.20369 0
M  V30 2030 C 177.532 0.377461 1.85397 0
M  V30 2031 O 176.875 -0.654255 1.71654 0
M  V30 2032 C 176.937 2.74045 2.32679 0
M  V30 2033 C 176.601 4.16543 1.87991 0
M  V30 2034 C 177.598 5.01211 1.38145 0
M  V30 2035 C 175.283 4.6266 1.95579 0
M  V30 2036 C 177.277 6.30056 0.964774 0
M  V30 2037 C 174.964 5.91501 1.53523 0
M  V30 2038 C 175.962 6.75027 1.04055 0
M  V30 2039 O 175.65 8.01459 0.625964 0
M  V30 2040 H 175.382 0.566578 0.368735 0
M  V30 2041 H 177.936 1.98709 0.51999 0
M  V30 2042 H 176.166 2.38572 3.04336 0
M  V30 2043 H 177.855 2.79295 2.94532 0
M  V30 2044 H 178.621 4.66783 1.31675 0
M  V30 2045 H 174.5 3.97767 2.33029 0
M  V30 2046 H 178.044 6.95202 0.57796 0
M  V30 2047 H 173.941 6.25442 1.59665 0
M  V30 2048 H 174.709 8.15043 0.751509 0
M  V30 2049 N 177.372 -0.689602 1.41712 0
M  V30 2050 C 178.322 -1.79571 1.40493 0
M  V30 2051 C 179.306 -1.58473 0.278409 0
M  V30 2052 O 180.498 -1.69204 0.519532 0
M  V30 2053 C 177.627 -3.17923 1.29536 0
M  V30 2054 C 176.713 -3.44695 2.47075 0
M  V30 2055 N 177.104 -3.42132 3.72531 0
M  V30 2056 C 175.402 -3.75269 2.41017 0
M  V30 2057 C 176.103 -3.67976 4.50521 0
M  V30 2058 N 175.079 -3.88014 3.80718 0
M  V30 2059 H 178.881 -1.75961 2.35404 0
M  V30 2060 H 176.395 -0.889839 1.35851 0
M  V30 2061 H 178.392 -3.97167 1.26745 0
M  V30 2062 H 177.052 -3.22741 0.356153 0
M  V30 2063 H 178.063 -3.22375 4.05333 0
M  V30 2064 H 174.74 -3.87421 1.55599 0
M  V30 2065 H 176.13 -3.7208 5.59469 0
M  V30 2066 N 178.85 -1.27639 -0.924453 0
M  V30 2067 C 180.261 -1.12834 -1.48746 0
M  V30 2068 C 180.612 0.285505 -1.94112 0
M  V30 2069 O 179.737 1.17874 -1.81479 0
M  V30 2070 C 180.332 -2.04217 -2.70334 0
M  V30 2071 C 178.891 -1.93509 -3.22848 0
M  V30 2072 C 178.038 -1.96583 -1.95577 0
M  V30 2073 H 180.989 -1.40484 -0.738233 0
M  V30 2074 H 181.01 -1.59989 -3.4523 0
M  V30 2075 H 180.522 -3.07111 -2.37285 0
M  V30 2076 H 178.623 -0.936131 -3.60649 0
M  V30 2077 H 178.736 -2.79917 -3.88823 0
M  V30 2078 H 177.1 -1.4085 -2.12211 0
M  V30 2079 H 177.883 -3.01137 -1.64837 0
M  V30 2080 N 180.328 1.1314 -1.09713 0
M  V30 2081 C 181.275 2.18642 -0.739196 0
M  V30 2082 C 182.245 1.63706 0.280978 0
M  V30 2083 O 183.43 1.90111 0.161946 0
M  V30 2084 C 180.57 3.44685 -0.169102 0
M  V30 2085 C 179.683 4.13711 -1.24367 0
M  V30 2086 C 178.818 5.27379 -0.636019 0
M  V30 2087 C 177.857 5.88259 -1.69169 0
M  V30 2088 N 176.994 6.93352 -1.10485 0
M  V30 2089 H 181.834 2.48607 -1.64312 0
M  V30 2090 H 179.371 1.22066 -0.820875 0
M  V30 2091 H 181.329 4.16815 0.179256 0
M  V30 2092 H 179.959 3.15161 0.698079 0
M  V30 2093 H 179.011 3.39835 -1.70927 0
M  V30 2094 H 180.323 4.55037 -2.04311 0
M  V30 2095 H 179.477 6.06238 -0.236677 0
M  V30 2096 H 178.216 4.8731 0.194928 0
M  V30 2097 H 177.221 5.08092 -2.10055 0
M  V30 2098 H 178.446 6.30399 -2.52536 0
M  V30 2099 H 176.392 6.55335 -0.295234 0
M  V30 2100 H 176.309 7.33236 -1.84121 0
M  V30 2101 H 177.577 7.76057 -0.73181 0
M  V30 2102 N 181.806 0.884767 1.30421 0
M  V30 2103 C 183.053 0.503105 1.96151 0
M  V30 2104 C 183.381 -0.947676 1.69851 0
M  V30 2105 O 182.636 -1.68467 0.995861 0
M  V30 2106 C 182.935 0.724318 3.49983 0
M  V30 2107 C 182.601 2.15015 3.96332 0
M  V30 2108 C 181.263 2.54005 4.08699 0
M  V30 2109 C 183.615 3.07936 4.20505 0
M  V30 2110 C 180.943 3.85128 4.42599 0
M  V30 2111 C 183.295 4.3859 4.55874 0
M  V30 2112 C 181.959 4.77474 4.66449 0
M  V30 2113 H 181.229 0.184099 0.717766 0
M  V30 2114 H 183.876 1.12058 1.55291 0
M  V30 2115 H 182.181 0.0238086 3.91793 0
M  V30 2116 H 183.878 0.408617 3.98913 0
M  V30 2117 H 180.468 1.8375 3.87213 0
M  V30 2118 H 184.652 2.79033 4.10431 0
M  V30 2119 H 179.908 4.14996 4.48986 0
M  V30 2120 H 184.082 5.10629 4.7353 0
M  V30 2121 H 181.709 5.79115 4.92473 0
M  V30 2122 N 183.284 -1.43765 0.645699 0
M  V30 2123 C 184.53 -2.02731 0.164844 0
M  V30 2124 C 184.885 -1.49983 -1.2051 0
M  V30 2125 O 184.178 -0.680208 -1.79119 0
M  V30 2126 C 184.372 -3.57238 0.107679 0
M  V30 2127 C 184.201 -4.24977 1.47054 0
M  V30 2128 C 182.971 -4.61356 2.06103 0
M  V30 2129 C 185.169 -4.54476 2.40741 0
M  V30 2130 N 183.151 -5.14132 3.35473 0
M  V30 2131 C 184.522 -5.08489 3.54737 0
M  V30 2132 C 186.577 -4.36438 2.39637 0
M  V30 2133 C 185.28 -5.46364 4.67845 0
M  V30 2134 C 187.306 -4.7537 3.5182 0
M  V30 2135 C 186.668 -5.2951 4.64541 0
M  V30 2136 H 182.767 -0.774976 0.104578 0
M  V30 2137 H 185.351 -1.75051 0.852367 0
M  V30 2138 H 183.522 -3.84498 -0.549165 0
M  V30 2139 H 185.254 -4.0288 -0.383351 0
M  V30 2140 H 182.009 -4.46151 1.58892 0
M  V30 2141 H 182.433 -5.4498 4.01654 0
M  V30 2142 H 187.075 -3.93861 1.53731 0
M  V30 2143 H 184.793 -5.87888 5.54448 0
M  V30 2144 H 188.379 -4.63115 3.52159 0
M  V30 2145 H 187.259 -5.59077 5.49911 0
M  V30 2146 N 184.763 -0.387143 -1.52771 0
M  V30 2147 C 185.991 0.195869 -2.05971 0
M  V30 2148 C 186.406 1.40691 -1.25903 0
M  V30 2149 O 185.763 1.79931 -0.305134 0
M  V30 2150 C 185.814 0.56812 -3.57008 0
M  V30 2151 O 185.535 -0.594803 -4.34043 0
M  V30 2152 C 187.036 1.20723 -4.26545 0
M  V30 2153 H 184.256 0.0300578 -0.670326 0
M  V30 2154 H 186.8 -0.551749 -1.96916 0
M  V30 2155 H 184.955 1.26564 -3.66143 0
M  V30 2156 H 185.369 -0.289322 -5.23701 0
M  V30 2157 H 186.843 1.41807 -5.33474 0
M  V30 2158 H 187.32 2.17395 -3.81623 0
M  V30 2159 H 187.926 0.550535 -4.21722 0
M  V30 2160 N 186.241 1.57166 -0.116904 0
M  V30 2161 C 187.518 1.86645 0.585049 0
M  V30 2162 C 187.898 1.0177 1.84949 0
M  V30 2163 O 187.246 0.0960379 2.28298 0
M  V30 2164 C 187.456 3.37736 0.879507 0
M  V30 2165 C 188.804 4.06289 1.23348 0
M  V30 2166 O 189.828 3.42743 0.969836 0
M  V30 2167 O 188.687 5.18455 1.7282 0
M  V30 2168 H 185.781 0.772593 0.295007 0
M  V30 2169 H 188.327 1.69025 -0.151249 0
M  V30 2170 H 187.099 3.91296 -0.0166136 0
M  V30 2171 H 186.722 3.6078 1.67103 0
M  V30 2172 N 187.719 -0.156864 1.56817 0
M  V30 2173 C 188.967 -0.869404 1.82444 0
M  V30 2174 C 189.288 -1.82147 0.69623 0
M  V30 2175 O 188.558 -1.93847 -0.28287 0
M  V30 2176 H 187.138 -0.324043 0.673056 0
M  V30 2177 H 189.8 -0.153224 1.94297 0
M  V30 2178 H 188.896 -1.43761 2.77019 0
M  V30 2179 N 189.197 -1.51736 -0.425897 0
M  V30 2180 C 190.422 -1.69082 -1.20108 0
M  V30 2181 C 190.847 -0.392398 -1.83962 0
M  V30 2182 O 190.205 0.64858 -1.69302 0
M  V30 2183 C 190.253 -2.81604 -2.25237 0
M  V30 2184 O 189.357 -2.46004 -3.30992 0
M  V30 2185 H 188.698 -0.563408 -0.35138 0
M  V30 2186 H 191.228 -1.98358 -0.501512 0
M  V30 2187 H 191.238 -3.06025 -2.69838 0
M  V30 2188 H 189.913 -3.75817 -1.78142 0
M  V30 2189 H 188.49 -2.32195 -2.91787 0
M  V30 2190 N 190.675 0.682077 -1.42076 0
M  V30 2191 C 191.905 1.46844 -1.45329 0
M  V30 2192 C 192.313 1.89102 -0.0609328 0
M  V30 2193 O 191.656 1.58238 0.933082 0
M  V30 2194 C 191.718 2.75375 -2.31104 0
M  V30 2195 C 191.382 2.55238 -3.79081 0
M  V30 2196 C 192.379 2.20309 -4.70914 0
M  V30 2197 C 190.064 2.70459 -4.2327 0
M  V30 2198 C 192.058 2.00859 -6.04925 0
M  V30 2199 C 189.745 2.50624 -5.57343 0
M  V30 2200 C 190.743 2.15876 -6.47986 0
M  V30 2201 O 190.431 1.96227 -7.79583 0
M  V30 2202 H 190.163 0.4586 -0.496651 0
M  V30 2203 H 192.717 0.846131 -1.87162 0
M  V30 2204 H 190.947 3.40061 -1.84107 0
M  V30 2205 H 192.636 3.37231 -2.25898 0
M  V30 2206 H 193.402 2.08153 -4.38061 0
M  V30 2207 H 189.281 2.96485 -3.53012 0
M  V30 2208 H 192.825 1.7366 -6.75639 0
M  V30 2209 H 188.722 2.62375 -5.89771 0
M  V30 2210 H 189.49 2.10883 -7.90867 0
M  V30 2211 N 192.153 1.28127 0.917671 0
M  V30 2212 C 193.085 1.07517 2.02417 0
M  V30 2213 C 194.098 0.0281099 1.62776 0
M  V30 2214 O 195.287 0.270748 1.76435 0
M  V30 2215 C 192.387 0.610957 3.33347 0
M  V30 2216 C 191.56 1.73255 4.01624 0
M  V30 2217 C 190.619 1.26238 5.10833 0
M  V30 2218 O 189.645 1.96389 5.34247 0
M  V30 2219 N 190.847 0.123448 5.80369 0
M  V30 2220 H 193.612 2.02806 2.20658 0
M  V30 2221 H 191.173 1.19827 1.08871 0
M  V30 2222 H 193.165 0.280101 4.0373 0
M  V30 2223 H 191.735 -0.24898 3.11607 0
M  V30 2224 H 190.955 2.23319 3.24842 0
M  V30 2225 H 192.243 2.48503 4.43986 0
M  V30 2226 H 191.641 -0.461847 5.63812 0
M  V30 2227 H 190.198 -0.148158 6.51632 0
M  V30 2228 N 193.631 -1.12557 1.10312 0
M  V30 2229 C 194.871 -1.8568 0.854543 0
M  V30 2230 C 195.235 -1.82091 -0.608843 0
M  V30 2231 O 196.436 -2.50544 -0.973717 0
M  V30 2232 C 194.707 -3.2942 1.38626 0
M  V30 2233 S 196.266 -4.19931 1.27293 0
M  V30 2234 H 193.084 -0.640427 0.308827 0
M  V30 2235 H 195.686 -1.35599 1.40831 0
M  V30 2236 H 194.39 -3.2959 2.44537 0
M  V30 2237 H 193.921 -3.84566 0.82902 0
M  V30 2238 H 195.936 -4.95668 0.229776 0
M  V30 2239 N 195.109 -0.891671 -1.2995 0
M  V30 2240 C 196.349 -0.520296 -1.97667 0
M  V30 2241 C 196.713 0.914797 -1.68806 0
M  V30 2242 O 197.914 1.39263 -2.29911 0
M  V30 2243 C 196.185 -0.795222 -3.48441 0
M  V30 2244 S 197.744 -0.526953 -4.35624 0
M  V30 2245 H 194.562 -0.19333 -0.684211 0
M  V30 2246 H 197.164 -1.15238 -1.57926 0
M  V30 2247 H 195.868 -1.83805 -3.66938 0
M  V30 2248 H 195.399 -0.15095 -3.9311 0
M  V30 2249 H 197.414 0.631533 -4.92165 0
M  V30 2250 N 196.587 1.43421 -0.653314 0
M  V30 2251 C 198.003 1.56341 -0.320886 0
M  V30 2252 C 198.203 1.63696 1.17499 0
M  V30 2253 O 197.259 1.59208 1.95982 0
M  V30 2254 C 198.572 2.82424 -1.03233 0
M  V30 2255 C 200.12 2.96168 -1.01259 0
M  V30 2256 C 200.595 4.25084 -1.70492 0
M  V30 2257 N 202.086 4.31948 -1.67257 0
M  V30 2258 C 202.821 5.30466 -2.17701 0
M  V30 2259 N 202.317 6.35261 -2.76434 0
M  V30 2260 N 204.11 5.2212 -2.082 0
M  V30 2261 H 196.261 1.3689 -1.62403 0
M  V30 2262 H 198.524 0.657455 -0.682977 0
M  V30 2263 H 198.23 2.83053 -2.08744 0
M  V30 2264 H 198.104 3.72653 -0.583948 0
M  V30 2265 H 200.491 2.9508 0.0341235 0
M  V30 2266 H 200.572 2.07229 -1.49966 0
M  V30 2267 H 200.216 4.26932 -2.7512 0
M  V30 2268 H 200.146 5.1292 -1.19251 0
M  V30 2269 H 202.637 3.56838 -1.24398 0
M  V30 2270 H 202.95 7.06754 -3.12601 0
M  V30 2271 H 201.295 6.35884 -2.80495 0
M  V30 2272 H 204.486 4.39166 -1.62021 0
M  V30 2273 H 204.659 5.98739 -2.47822 0
M  V30 2274 N 198.065 0.39524 1.52563 0
M  V30 2275 C 198.997 -0.472201 2.24283 0
M  V30 2276 C 200.01 -1.02178 1.26742 0
M  V30 2277 O 201.199 -0.923097 1.52778 0
M  V30 2278 C 198.299 -1.66775 2.95024 0
M  V30 2279 C 197.472 -1.2445 4.19322 0
M  V30 2280 C 196.531 -2.30539 4.7301 0
M  V30 2281 O 195.557 -1.91702 5.35947 0
M  V30 2282 N 196.759 -3.6253 4.53379 0
M  V30 2283 H 199.524 0.142282 2.99362 0
M  V30 2284 H 197.085 0.2219 1.60372 0
M  V30 2285 H 199.077 -2.37283 3.27839 0
M  V30 2286 H 197.647 -2.18845 2.23217 0
M  V30 2287 H 196.867 -0.368069 3.92478 0
M  V30 2288 H 198.155 -0.938457 5.0007 0
M  V30 2289 H 197.553 -3.96841 4.03154 0
M  V30 2290 H 196.11 -4.29055 4.90668 0
M  V30 2291 N 199.544 -1.57102 0.125237 0
M  V30 2292 C 200.772 -1.99761 -0.538797 0
M  V30 2293 C 201.187 -1.00503 -1.59827 0
M  V30 2294 O 200.544 0.00119474 -1.825 0
M  V30 2295 C 200.595 -3.42408 -1.15927 0
M  V30 2296 O 200.316 -4.37869 -0.142143 0
M  V30 2297 C 201.817 -4.00232 -1.90602 0
M  V30 2298 H 199.037 -0.655772 -0.14214 0
M  V30 2299 H 201.581 -2.03383 0.213413 0
M  V30 2300 H 199.736 -3.39706 -1.86223 0
M  V30 2301 H 200.15 -5.21128 -0.593775 0
M  V30 2302 H 201.624 -5.02105 -2.29335 0
M  V30 2303 H 202.101 -3.39721 -2.78363 0
M  V30 2304 H 202.707 -4.06499 -1.25055 0
M  V30 2305 N 201.022 0.148545 -1.56898 0
M  V30 2306 C 201.932 1.20293 -2.01412 0
M  V30 2307 C 202.948 1.47107 -0.929273 0
M  V30 2308 O 204.124 1.58807 -1.23863 0
M  V30 2309 C 201.189 2.51682 -2.38447 0
M  V30 2310 C 200.25 2.32529 -3.60872 0
M  V30 2311 C 199.483 3.57653 -3.96132 0
M  V30 2312 O 199.706 4.63771 -3.32073 0
M  V30 2313 O 198.64 3.50408 -4.89385 0
M  V30 2314 H 202.466 0.855025 -2.91416 0
M  V30 2315 H 200.051 0.357151 -1.45068 0
M  V30 2316 H 201.933 3.29147 -2.63135 0
M  V30 2317 H 200.608 2.86006 -1.51599 0
M  V30 2318 H 199.515 1.53019 -3.41373 0
M  V30 2319 H 200.848 2.03121 -4.48333 0
M  V30 2320 N 202.5 1.5196 0.417844 0
M  V30 2321 C 203.447 1.74678 1.50852 0
M  V30 2322 C 204.417 0.588947 1.55308 0
M  V30 2323 O 205.602 0.825544 1.72016 0
M  V30 2324 C 202.742 1.89544 2.88387 0
M  V30 2325 C 201.855 3.17166 2.93309 0
M  V30 2326 C 200.99 3.22513 4.22088 0
M  V30 2327 C 200.029 4.44372 4.20951 0
M  V30 2328 N 199.166 4.47161 5.41287 0
M  V30 2329 H 204.006 2.67768 1.30783 0
M  V30 2330 H 201.543 1.32689 0.63498 0
M  V30 2331 H 203.501 1.96146 3.68216 0
M  V30 2332 H 202.131 0.998424 3.06971 0
M  V30 2333 H 201.183 3.19778 2.06024 0
M  V30 2334 H 202.495 4.07021 2.88332 0
M  V30 2335 H 201.649 3.28139 5.10303 0
M  V30 2336 H 200.388 2.30581 4.29748 0
M  V30 2337 H 199.393 4.38902 3.31127 0
M  V30 2338 H 200.618 5.3759 4.14938 0
M  V30 2339 H 198.564 3.58108 5.49632 0
M  V30 2340 H 198.481 5.3085 5.3827 0
M  V30 2341 H 199.749 4.57005 6.3148 0
M  V30 2342 N 203.978 -0.674533 1.42435 0
M  V30 2343 C 204.908 -1.80009 1.48724 0
M  V30 2344 C 205.889 -1.6659 0.343793 0
M  V30 2345 O 207.074 -1.86007 0.558137 0
M  V30 2346 C 204.204 -3.18306 1.38919 0
M  V30 2347 C 203.158 -3.46461 2.51294 0
M  V30 2348 C 202.484 -4.84335 2.26547 0
M  V30 2349 C 203.784 -3.43328 3.93603 0
M  V30 2350 H 205.478 -1.75004 2.42928 0
M  V30 2351 H 203.024 -0.840533 1.16923 0
M  V30 2352 H 204.977 -3.9678 1.41927 0
M  V30 2353 H 203.701 -3.2399 0.412094 0
M  V30 2354 H 202.36 -2.70348 2.47604 0
M  V30 2355 H 202.008 -4.86669 1.2713 0
M  V30 2356 H 201.708 -5.04136 3.01861 0
M  V30 2357 H 203.232 -5.65094 2.31304 0
M  V30 2358 H 204.646 -4.11772 3.98894 0
M  V30 2359 H 203.043 -3.74664 4.68771 0
M  V30 2360 H 204.113 -2.41897 4.20255 0
M  V30 2361 N 205.456 -1.28612 -0.910864 0
M  V30 2362 C 206.419 -1.12803 -1.9952 0
M  V30 2363 C 207.419 -0.0668264 -1.60661 0
M  V30 2364 O 208.609 -0.312847 -1.71368 0
M  V30 2365 C 205.741 -0.72254 -3.33155 0
M  V30 2366 H 206.934 -2.09109 -2.14973 0
M  V30 2367 H 204.487 -1.11639 -1.09391 0
M  V30 2368 H 205.222 0.241152 -3.23402 0
M  V30 2369 H 205.007 -1.48916 -3.62721 0
M  V30 2370 H 206.497 -0.634666 -4.12749 0
M  V30 2371 N 206.934 1.1197 -1.10907 0
M  V30 2372 C 208.345 1.65114 -0.871446 0
M  V30 2373 C 208.696 1.86885 0.597353 0
M  V30 2374 O 207.821 1.59896 1.45816 0
M  V30 2375 C 208.416 2.99944 -1.5754 0
M  V30 2376 C 206.975 3.50018 -1.38435 0
M  V30 2377 C 206.122 2.24941 -1.62164 0
M  V30 2378 H 209.073 0.956851 -1.2661 0
M  V30 2379 H 209.094 3.66651 -1.01721 0
M  V30 2380 H 208.606 2.84067 -2.64438 0
M  V30 2381 H 206.707 3.71071 -0.337214 0
M  V30 2382 H 206.82 4.29165 -2.12965 0
M  V30 2383 H 205.184 2.3229 -1.04467 0
M  V30 2384 H 205.967 2.11612 -2.70324 0
M  V30 2385 N 208.412 0.89855 1.29475 0
M  V30 2386 C 209.66 0.522847 1.9522 0
M  V30 2387 C 209.981 -0.93371 1.71192 0
M  V30 2388 O 209.251 -1.65823 1.04305 0
M  V30 2389 H 207.831 0.190366 0.722336 0
M  V30 2390 H 210.493 1.14459 1.5775 0
M  V30 2391 H 209.589 0.704476 3.04045 0
M  V30 2392 N 209.89 -1.43072 0.660911 0
M  V30 2393 C 211.13 -2.03596 0.181146 0
M  V30 2394 C 211.494 -1.51057 -1.18515 0
M  V30 2395 O 212.695 -2.03275 -1.75877 0
M  V30 2396 C 210.966 -3.56845 0.19911 0
M  V30 2397 S 212.525 -4.38289 -0.211684 0
M  V30 2398 H 209.343 -0.706954 0.0757479 0
M  V30 2399 H 211.945 -1.75027 0.870965 0
M  V30 2400 H 210.649 -3.92583 1.1961 0
M  V30 2401 H 210.18 -3.90067 -0.510996 0
M  V30 2402 H 212.195 -4.74583 -1.44863 0
M  V30 2403 N 211.368 -0.403325 -1.52352 0
M  V30 2404 C 212.278 0.432009 -2.30588 0
M  V30 2405 C 213.294 1.05884 -1.38075 0
M  V30 2406 O 214.47 1.06161 -1.71148 0
M  V30 2407 C 211.535 1.53669 -3.10784 0
M  V30 2408 C 210.596 0.933525 -4.19027 0
M  V30 2409 C 209.829 1.98557 -4.9539 0
M  V30 2410 O 210.052 3.20283 -4.71991 0
M  V30 2411 O 208.986 1.59504 -5.80381 0
M  V30 2412 H 212.812 -0.205739 -3.03002 0
M  V30 2413 H 210.397 -0.166675 -1.48467 0
M  V30 2414 H 212.279 2.17814 -3.60742 0
M  V30 2415 H 210.954 2.15915 -2.41169 0
M  V30 2416 H 209.861 0.254954 -3.7323 0
M  V30 2417 H 211.194 0.35508 -4.90918 0
M  V30 2418 N 212.846 1.57033 -0.133567 0
M  V30 2419 C 213.793 2.16074 0.811208 0
M  V30 2420 C 214.763 1.08979 1.2535 0
M  V30 2421 O 215.948 1.36958 1.32843 0
M  V30 2422 C 213.088 2.77595 2.05024 0
M  V30 2423 C 212.201 3.99042 1.65498 0
M  V30 2424 C 211.336 4.48603 2.84479 0
M  V30 2425 C 210.375 5.62547 2.41262 0
M  V30 2426 N 209.512 6.06787 3.53206 0
M  V30 2427 H 214.352 2.96477 0.300906 0
M  V30 2428 H 211.889 1.46462 0.136822 0
M  V30 2429 H 213.847 3.11402 2.77642 0
M  V30 2430 H 212.477 1.99859 2.53488 0
M  V30 2431 H 211.529 3.71302 0.826981 0
M  V30 2432 H 212.841 4.81629 1.29748 0
M  V30 2433 H 211.995 4.84395 3.65303 0
M  V30 2434 H 210.734 3.64995 3.23465 0
M  V30 2435 H 209.739 5.26345 1.58874 0
M  V30 2436 H 210.964 6.47931 2.03377 0
M  V30 2437 H 208.91 5.26117 3.91838 0
M  V30 2438 H 208.827 6.84266 3.21427 0
M  V30 2439 H 210.095 6.4722 4.34427 0
M  V30 2440 N 214.325 -0.140222 1.56975 0
M  V30 2441 C 215.555 -0.865181 1.87612 0
M  V30 2442 C 215.963 -1.74942 0.72055 0
M  V30 2443 O 215.306 -1.80917 -0.318561 0
M  V30 2444 C 215.368 -1.76782 3.13031 0
M  V30 2445 C 215.032 -1.06005 4.44536 0
M  V30 2446 C 216.029 -0.410768 5.18275 0
M  V30 2447 C 213.714 -1.04754 4.91255 0
M  V30 2448 C 215.708 0.241572 6.36942 0
M  V30 2449 C 213.395 -0.391394 6.09845 0
M  V30 2450 C 214.393 0.252029 6.82535 0
M  V30 2451 O 214.081 0.897757 7.98871 0
M  V30 2452 H 213.813 -0.255188 0.625983 0
M  V30 2453 H 216.367 -0.135653 2.04952 0
M  V30 2454 H 214.597 -2.53846 2.91718 0
M  V30 2455 H 216.286 -2.36533 3.29859 0
M  V30 2456 H 217.052 -0.412195 4.83245 0
M  V30 2457 H 212.931 -1.53777 4.34596 0
M  V30 2458 H 216.475 0.744375 6.93617 0
M  V30 2459 H 212.372 -0.387656 6.44335 0
M  V30 2460 H 213.14 0.800102 8.1458 0
M  V30 2461 N 215.803 -1.52179 -0.40978 0
M  V30 2462 C 216.751 -1.76086 -1.51975 0
M  V30 2463 C 217.745 -0.627964 -1.57331 0
M  V30 2464 O 218.951 -0.809993 -1.60745 0
M  V30 2465 H 215.326 -0.556829 -0.505416 0
M  V30 2466 H 217.297 -2.69077 -1.28996 0
M  V30 2467 C 216.046 -1.92799 -2.8935 0
M  V30 2468 H 215.369 -2.79392 -2.85972 0
M  V30 2469 H 216.809 -2.13527 -3.66309 0
M  V30 2470 C 215.268 -0.694923 -3.29655 0
M  V30 2471 O 215.798 0.13751 -4.01465 0
M  V30 2472 N 214.004 -0.53101 -2.85707 0
M  V30 2473 H 213.551 -1.20952 -2.27439 0
M  V30 2474 H 213.509 0.292718 -3.13034 0
M  V30 2475 N 217.281 0.66697 -1.42791 0
M  V30 2476 C 218.211 1.79218 -1.49677 0
M  V30 2477 C 219.192 1.66405 -0.352623 0
M  V30 2478 O 220.377 1.85708 -0.567993 0
M  V30 2479 C 217.507 3.17565 -1.40605 0
M  V30 2480 C 216.461 3.45124 -2.53127 0
M  V30 2481 C 215.787 4.83127 -2.29112 0
M  V30 2482 C 217.087 3.41236 -3.95418 0
M  V30 2483 H 218.781 1.73713 -2.43853 0
M  V30 2484 H 216.327 0.83432 -1.17367 0
M  V30 2485 H 218.28 3.96022 -1.44029 0
M  V30 2486 H 217.004 3.23767 -0.429271 0
M  V30 2487 H 215.663 2.69031 -2.49034 0
M  V30 2488 H 215.311 4.85988 -1.29709 0
M  V30 2489 H 215.011 5.02528 -3.04531 0
M  V30 2490 H 216.535 5.63859 -2.34297 0
M  V30 2491 H 217.949 4.09651 -4.01073 0
M  V30 2492 H 216.346 3.72173 -4.70752 0
M  V30 2493 H 217.416 2.39665 -4.21532 0
M  V30 2494 N 218.759 1.29093 0.90403 0
M  V30 2495 C 220.006 1.16813 1.65411 0
M  V30 2496 C 220.334 -0.28128 1.92455 0
M  V30 2497 O 219.589 -1.22006 1.53013 0
M  V30 2498 C 219.888 1.92224 3.01305 0
M  V30 2499 C 219.554 3.41968 2.93885 0
M  V30 2500 C 218.216 3.82807 2.91569 0
M  V30 2501 C 220.568 4.37409 2.83413 0
M  V30 2502 C 217.896 5.1741 2.76594 0
M  V30 2503 C 220.248 5.72097 2.69977 0
M  V30 2504 C 218.912 6.12199 2.66024 0
M  V30 2505 H 218.182 0.42745 0.605283 0
M  V30 2506 H 220.829 1.59981 1.05254 0
M  V30 2507 H 219.134 1.41635 3.65304 0
M  V30 2508 H 220.831 1.80131 3.58265 0
M  V30 2509 H 217.421 3.09504 2.96488 0
M  V30 2510 H 221.605 4.06813 2.84283 0
M  V30 2511 H 216.861 5.47596 2.71935 0
M  V30 2512 H 221.035 6.45704 2.60844 0
M  V30 2513 H 218.662 7.16448 2.54178 0
M  V30 2514 N 220.237 -1.11381 1.11499 0
M  V30 2515 C 221.147 -2.21019 0.786628 0
M  V30 2516 C 222.163 -1.72597 -0.220507 0
M  V30 2517 O 223.339 -2.01321 -0.0565251 0
M  V30 2518 C 220.404 -3.459 0.235333 0
M  V30 2519 C 219.465 -4.09107 1.30115 0
M  V30 2520 C 218.698 -5.28027 0.776068 0
M  V30 2521 O 218.921 -5.6904 -0.393661 0
M  V30 2522 O 217.855 -5.81835 1.54114 0
M  V30 2523 H 221.681 -2.51521 1.70209 0
M  V30 2524 H 219.266 -1.19928 0.890928 0
M  V30 2525 H 221.148 -4.21346 -0.067715 0
M  V30 2526 H 219.823 -3.17049 -0.652828 0
M  V30 2527 H 218.73 -3.35391 1.65722 0
M  V30 2528 H 220.063 -4.42139 2.16273 0
M  V30 2529 N 221.715 -0.905404 -1.28997 0
M  V30 2530 C 222.94 -0.549175 -1.99997 0
M  V30 2531 C 223.365 0.860276 -1.67275 0
M  V30 2532 O 222.723 1.57355 -0.900502 0
M  V30 2533 C 222.771 -0.755185 -3.52604 0
M  V30 2534 O 221.875 0.189692 -4.11964 0
M  V30 2535 H 221.216 -0.213899 -0.628604 0
M  V30 2536 H 223.746 -1.21856 -1.64354 0
M  V30 2537 H 223.756 -0.662045 -4.02593 0
M  V30 2538 H 222.431 -1.78271 -3.75755 0
M  V30 2539 H 221.008 0.0485257 -3.72868 0
M  V30 2540 N 223.193 1.4272 -0.668489 0
M  V30 2541 C 224.418 2.06484 -0.194758 0
M  V30 2542 C 224.843 1.49862 1.13679 0
M  V30 2543 O 224.201 0.614582 1.70565 0
M  V30 2544 C 224.249 3.60353 -0.133546 0
M  V30 2545 O 223.353 4.02464 0.899806 0
M  V30 2546 H 222.694 0.656137 -0.10188 0
M  V30 2547 H 225.224 1.82964 -0.915722 0
M  V30 2548 H 225.234 4.07976 0.0447041 0
M  V30 2549 H 223.909 4.00938 -1.1055 0
M  V30 2550 H 222.486 3.66402 0.693109 0
M  V30 2551 N 224.671 0.411399 1.52136 0
M  V30 2552 C 225.92 -0.165009 2.01024 0
M  V30 2553 C 226.233 -1.4603 1.30133 0
M  V30 2554 O 227.439 -2.1181 1.69849 0
M  V30 2555 C 225.895 -0.344618 3.58246 0
M  V30 2556 C 225.503 0.938716 4.38055 0
M  V30 2557 C 227.247 -0.876195 4.15359 0
M  V30 2558 C 225.154 0.726172 5.86925 0
M  V30 2559 H 224.084 -0.0654407 0.751155 0
M  V30 2560 H 226.735 0.537192 1.75461 0
M  V30 2561 H 225.117 -1.10921 3.80148 0
M  V30 2562 H 226.291 1.70963 4.27912 0
M  V30 2563 H 224.606 1.39688 3.92271 0
M  V30 2564 H 227.203 -1.05128 5.24263 0
M  V30 2565 H 227.546 -1.85152 3.7286 0
M  V30 2566 H 228.079 -0.170607 3.97434 0
M  V30 2567 H 224.818 1.67312 6.33788 0
M  V30 2568 H 224.338 -0.00540283 5.998 0
M  V30 2569 H 226.017 0.369231 6.45946 0
M  V30 2570 N 226.149 -1.5696 0.141893 0
M  V30 2571 C 227.565 -1.58151 -0.21456 0
M  V30 2572 C 227.765 -1.1559 -1.65049 0
M  V30 2573 O 226.821 -0.853832 -2.37626 0
M  V30 2574 C 228.134 -3.00674 0.0395576 0
M  V30 2575 C 229.682 -3.1299 -0.0245529 0
M  V30 2576 C 230.157 -4.57554 0.202167 0
M  V30 2577 N 231.648 -4.62961 0.148919 0
M  V30 2578 C 232.383 -5.7262 0.298924 0
M  V30 2579 N 231.879 -6.90947 0.50637 0
M  V30 2580 N 233.672 -5.61601 0.236886 0
M  V30 2581 H 225.823 -1.8292 1.07953 0
M  V30 2582 H 228.086 -0.846425 0.42693 0
M  V30 2583 H 227.792 -3.36183 1.03315 0
M  V30 2584 H 227.666 -3.70981 -0.682143 0
M  V30 2585 H 230.053 -2.77326 -1.00869 0
M  V30 2586 H 230.134 -2.4518 0.729396 0
M  V30 2587 H 229.778 -4.93922 1.18338 0
M  V30 2588 H 229.708 -5.23484 -0.572044 0
M  V30 2589 H 232.199 -3.77899 -0.00697015 0
M  V30 2590 H 232.512 -7.7038 0.611076 0
M  V30 2591 H 230.857 -6.92878 0.542628 0
M  V30 2592 H 234.048 -4.68039 0.0756209 0
M  V30 2593 H 234.221 -6.47015 0.357227 0
M  V30 2594 N 227.627 0.131896 -1.57047 0
M  V30 2595 C 228.574 1.16236 -1.99393 0
M  V30 2596 C 229.544 1.41863 -0.863943 0
M  V30 2597 O 230.729 1.53946 -1.12718 0
M  V30 2598 C 227.869 2.48708 -2.39245 0
M  V30 2599 C 226.982 2.30127 -3.65603 0
M  V30 2600 C 226.117 3.55738 -3.94492 0
M  V30 2601 C 225.156 3.32259 -5.14073 0
M  V30 2602 N 224.293 4.50039 -5.38896 0
M  V30 2603 H 229.133 0.794251 -2.87221 0
M  V30 2604 H 226.67 0.380707 -1.42088 0
M  V30 2605 H 228.628 3.25969 -2.60384 0
M  V30 2606 H 227.258 2.83437 -1.54478 0
M  V30 2607 H 226.31 1.43845 -3.52154 0
M  V30 2608 H 227.622 2.08746 -4.5302 0
M  V30 2609 H 226.776 4.41423 -4.1621 0
M  V30 2610 H 225.515 3.80138 -3.05526 0
M  V30 2611 H 224.52 2.44963 -4.92212 0
M  V30 2612 H 225.745 3.09242 -6.04604 0
M  V30 2613 H 223.691 4.74584 -4.52886 0
M  V30 2614 H 223.608 4.31716 -6.2061 0
M  V30 2615 H 224.876 5.36895 -5.65123 0
M  V30 2616 N 229.106 1.52395 0.401703 0
M  V30 2617 C 230.069 1.75636 1.47257 0
M  V30 2618 C 231.069 0.62628 1.48103 0
M  V30 2619 O 232.259 0.894227 1.49497 0
M  V30 2620 C 229.391 1.84553 2.86624 0
M  V30 2621 H 230.584 2.71241 1.27938 0
M  V30 2622 H 228.137 1.42923 0.632662 0
M  V30 2623 H 228.872 0.908882 3.11303 0
M  V30 2624 H 228.657 2.66715 2.87412 0
M  V30 2625 H 230.147 2.04251 3.64241 0
M  V30 2626 N 230.584 -0.659388 1.43143 0
M  V30 2627 C 231.514 -1.78422 1.50625 0
M  V30 2628 C 232.495 -1.66216 0.361443 0
M  V30 2629 O 233.68 -1.85404 0.577834 0
M  V30 2630 C 230.81 -3.16815 1.42287 0
M  V30 2631 C 229.764 -3.43777 2.54954 0
M  V30 2632 C 229.09 -4.81905 2.31671 0
M  V30 2633 C 230.39 -3.39134 3.97222 0
M  V30 2634 H 232.084 -1.72417 2.44771 0
M  V30 2635 H 229.63 -0.828084 1.17808 0
M  V30 2636 H 231.583 -3.95253 1.46127 0
M  V30 2637 H 230.307 -3.23534 0.446435 0
M  V30 2638 H 228.966 -2.67707 2.50457 0
M  V30 2639 H 228.614 -4.85294 1.32284 0
M  V30 2640 H 228.314 -5.00906 3.07192 0
M  V30 2641 H 229.838 -5.62609 2.37284 0
M  V30 2642 H 231.252 -4.07518 4.03239 0
M  V30 2643 H 229.649 -3.69671 4.72719 0
M  V30 2644 H 230.719 -2.37426 4.22797 0
M  V30 2645 N 232.062 -1.29571 -0.897171 0
M  V30 2646 C 233.473 -1.15964 -1.46319 0
M  V30 2647 C 233.824 0.244267 -1.94674 0
M  V30 2648 O 232.949 1.13998 -1.83939 0
M  V30 2649 C 233.544 -2.09906 -2.65942 0
M  V30 2650 C 232.103 -2.00314 -3.18671 0
M  V30 2651 C 231.25 -2.00687 -1.91363 0
M  V30 2652 H 234.201 -1.42019 -0.708268 0
M  V30 2653 H 234.222 -1.67276 -3.41759 0
M  V30 2654 H 233.734 -3.12075 -2.30718 0
M  V30 2655 H 231.835 -1.01242 -3.58582 0
M  V30 2656 H 231.948 -2.88102 -3.82798 0
M  V30 2657 H 230.312 -1.45319 -2.09175 0
M  V30 2658 H 231.095 -3.04566 -1.58413 0
M  V30 2659 N 233.54 1.10788 -1.12088 0
M  V30 2660 C 234.951 1.64181 -0.88891 0
M  V30 2661 C 235.302 1.87508 0.577498 0
M  V30 2662 O 234.427 1.61434 1.44112 0
M  V30 2663 C 235.022 2.98257 -1.60712 0
M  V30 2664 C 233.581 3.4853 -1.42139 0
M  V30 2665 C 232.728 2.23208 -1.6454 0
M  V30 2666 H 235.679 0.943368 -1.27618 0
M  V30 2667 H 235.7 3.65552 -1.05604 0
M  V30 2668 H 235.212 2.81246 -2.67436 0
M  V30 2669 H 233.313 3.70692 -0.376552 0
M  V30 2670 H 233.426 4.26882 -2.17505 0
M  V30 2671 H 231.79 2.31169 -1.06925 0
M  V30 2672 H 232.573 2.08733 -2.72554 0
M  V30 2673 N 235.018 0.912232 1.28515 0
M  V30 2674 C 235.981 0.404223 2.25607 0
M  V30 2675 C 236.981 -0.468602 1.53821 0
M  V30 2676 O 238.171 -0.271873 1.72065 0
M  V30 2677 C 235.303 -0.420653 3.38295 0
M  V30 2678 H 236.496 1.26188 2.7206 0
M  V30 2679 H 234.049 0.691495 1.40171 0
M  V30 2680 H 234.784 -1.29777 2.97201 0
M  V30 2681 H 234.569 0.204935 3.91564 0
M  V30 2682 H 236.059 -0.766971 4.10496 0
M  V30 2683 N 236.496 -1.42363 0.676048 0
M  V30 2684 C 237.907 -1.84649 0.275948 0
M  V30 2685 C 238.258 -1.56588 -1.18214 0
M  V30 2686 O 237.383 -1.02634 -1.90513 0
M  V30 2687 C 237.978 -3.35178 0.494053 0
M  V30 2688 C 236.537 -3.76109 0.148061 0
M  V30 2689 C 235.684 -2.65931 0.785891 0
M  V30 2690 H 238.635 -1.32192 0.878121 0
M  V30 2691 H 238.656 -3.79655 -0.25343 0
M  V30 2692 H 238.168 -3.55571 1.55535 0
M  V30 2693 H 236.269 -3.61323 -0.909742 0
M  V30 2694 H 236.382 -4.7546 0.589454 0
M  V30 2695 H 234.746 -2.53773 0.217113 0
M  V30 2696 H 235.529 -2.89146 1.85067 0
M  V30 2697 N 237.974 -0.419461 -1.51915 0
M  V30 2698 C 238.884 0.407528 -2.31033 0
M  V30 2699 C 239.9 1.04413 -1.3919 0
M  V30 2700 O 241.076 1.0434 -1.72265 0
M  V30 2701 C 238.141 1.50365 -3.12396 0
M  V30 2702 C 237.202 0.889029 -4.19994 0
M  V30 2703 C 236.435 1.93291 -4.97468 0
M  V30 2704 O 236.658 3.15259 -4.75361 0
M  V30 2705 O 235.592 1.53339 -5.8204 0
M  V30 2706 H 239.418 -0.237865 -3.02767 0
M  V30 2707 H 237.003 -0.182413 -1.48282 0
M  V30 2708 H 238.885 2.13975 -3.63032 0
M  V30 2709 H 237.56 2.13345 -2.43445 0
M  V30 2710 H 236.467 0.215353 -3.7348 0
M  V30 2711 H 237.8 0.302991 -4.91267 0
M  V30 2712 N 239.452 1.56882 -0.150215 0
M  V30 2713 C 240.68 2.00593 0.506948 0
M  V30 2714 C 241.095 1.03033 1.58208 0
M  V30 2715 O 240.452 0.0278396 1.82479 0
M  V30 2716 C 240.503 3.44209 1.10465 0
M  V30 2717 O 240.224 4.3804 0.0724636 0
M  V30 2718 C 241.725 4.03214 1.84211 0
M  V30 2719 H 238.945 0.65795 0.13169 0
M  V30 2720 H 241.489 2.03018 -0.245743 0
M  V30 2721 H 239.644 3.42625 1.80795 0
M  V30 2722 H 240.058 5.22007 0.510793 0
M  V30 2723 H 241.532 5.0569 2.21318 0
M  V30 2724 H 242.009 3.44107 2.72923 0
M  V30 2725 H 242.615 4.08437 1.18572 0
M  V30 2726 N 240.93 -0.123565 1.57115 0
M  V30 2727 C 241.877 -1.15177 2.00007 0
M  V30 2728 C 242.847 -1.41403 0.871454 0
M  V30 2729 O 244.032 -1.53346 1.13533 0
M  V30 2730 C 241.172 -2.47436 2.40561 0
M  V30 2731 C 240.285 -2.28184 3.66819 0
M  V30 2732 C 239.42 -3.53641 3.96373 0
M  V30 2733 C 238.459 -3.29528 5.15827 0
M  V30 2734 N 237.596 -4.47175 5.41275 0
M  V30 2735 H 242.436 -0.779008 2.87638 0
M  V30 2736 H 239.973 -0.373166 1.42288 0
M  V30 2737 H 241.931 -3.24584 2.62109 0
M  V30 2738 H 240.561 -2.82614 1.55978 0
M  V30 2739 H 239.613 -1.41976 3.52912 0
M  V30 2740 H 240.925 -2.0634 4.5412 0
M  V30 2741 H 240.079 -4.39209 4.18545 0
M  V30 2742 H 238.818 -3.78512 3.07538 0
M  V30 2743 H 237.823 -2.42349 4.93505 0
M  V30 2744 H 239.048 -3.06031 6.06236 0
M  V30 2745 H 236.994 -4.72175 4.55397 0
M  V30 2746 H 236.911 -4.28419 6.22891 0
M  V30 2747 H 238.179 -5.3389 5.67963 0
M  V30 2748 N 242.408 -1.52605 -0.393616 0
M  V30 2749 C 243.355 -1.77055 -1.48054 0
M  V30 2750 C 244.325 -0.61358 -1.54352 0
M  V30 2751 O 245.51 -0.852806 -1.70681 0
M  V30 2752 C 242.65 -1.94108 -2.85335 0
M  V30 2753 C 241.763 -3.21792 -2.88226 0
M  V30 2754 C 240.898 -3.29188 -4.16904 0
M  V30 2755 C 239.937 -4.51013 -4.13828 0
M  V30 2756 N 239.074 -4.55716 -5.34105 0
M  V30 2757 H 243.914 -2.69815 -1.26506 0
M  V30 2758 H 241.451 -1.33683 -0.61379 0
M  V30 2759 H 243.409 -2.01979 -3.65049 0
M  V30 2760 H 242.039 -1.04713 -3.05344 0
M  V30 2761 H 241.091 -3.23015 -2.00911 0
M  V30 2762 H 242.403 -4.11557 -2.8182 0
M  V30 2763 H 241.557 -3.36216 -5.05018 0
M  V30 2764 H 240.296 -2.37389 -4.26026 0
M  V30 2765 H 239.301 -4.44115 -3.24102 0
M  V30 2766 H 240.526 -5.44123 -4.06333 0
M  V30 2767 H 238.472 -3.66807 -5.43865 0
M  V30 2768 H 238.389 -5.39346 -5.29756 0
M  V30 2769 H 239.657 -4.66993 -6.2413 0
M  V30 2770 N 243.887 0.651787 -1.4349 0
M  V30 2771 C 245.303 0.96762 -1.26922 0
M  V30 2772 C 245.503 2.00602 -0.189982 0
M  V30 2773 O 244.559 2.48793 0.431107 0
M  V30 2774 C 245.872 1.45052 -2.63401 0
M  V30 2775 C 247.42 1.5671 -2.70945 0
M  V30 2776 C 247.895 2.0839 -4.07845 0
M  V30 2777 N 249.386 2.1569 -4.09917 0
M  V30 2778 C 250.121 2.56804 -5.12679 0
M  V30 2779 N 249.617 2.97203 -6.25813 0
M  V30 2780 N 251.41 2.56756 -5.00033 0
M  V30 2781 H 243.561 -0.0353158 -2.12371 0
M  V30 2782 H 245.824 0.0467858 -0.946845 0
M  V30 2783 H 245.53 0.761926 -3.43348 0
M  V30 2784 H 245.404 2.42529 -2.88894 0
M  V30 2785 H 247.791 2.2467 -1.9133 0
M  V30 2786 H 247.872 0.57662 -2.49216 0
M  V30 2787 H 247.516 1.41031 -4.87927 0
M  V30 2788 H 247.446 3.08271 -4.26938 0
M  V30 2789 H 249.937 1.87237 -3.28254 0
M  V30 2790 H 250.25 3.27328 -7.00055 0
M  V30 2791 H 248.595 2.95004 -6.29283 0
M  V30 2792 H 251.786 2.24572 -4.10713 0
M  V30 2793 H 251.959 2.88475 -5.80247 0
M  V30 2794 N 245.365 1.30045 0.890287 0
M  V30 2795 C 246.781 1.08261 1.17268 0
M  V30 2796 C 246.981 -0.160063 2.00863 0
M  V30 2797 O 246.037 -0.855181 2.37577 0
M  V30 2798 C 247.35 2.34323 1.8845 0
M  V30 2799 C 248.898 2.39735 2.01237 0
M  V30 2800 C 249.373 3.65625 2.7583 0
M  V30 2801 N 250.864 3.66402 2.83379 0
M  V30 2802 C 251.599 4.60498 3.41657 0
M  V30 2803 N 251.095 5.64933 4.01026 0
M  V30 2804 N 252.888 4.48051 3.39421 0
M  V30 2805 H 245.039 2.09777 0.332762 0
M  V30 2806 H 247.302 0.92446 0.209948 0
M  V30 2807 H 247.008 3.2498 1.34465 0
M  V30 2808 H 246.882 2.4256 2.88867 0
M  V30 2809 H 249.269 1.4956 2.54393 0
M  V30 2810 H 249.35 2.35476 0.999232 0
M  V30 2811 H 248.994 4.56156 2.23347 0
M  V30 2812 H 248.924 3.67144 3.77509 0
M  V30 2813 H 251.415 2.90896 2.41222 0
M  V30 2814 H 251.728 6.32841 4.43545 0
M  V30 2815 H 250.073 5.68732 3.99461 0
M  V30 2816 H 253.264 3.65649 2.92264 0
M  V30 2817 H 253.437 5.21565 3.84544 0
M  V30 2818 N 246.843 -1.10192 1.12674 0
M  V30 2819 C 248.254 -1.63707 0.897604 0
M  V30 2820 C 248.605 -1.87812 -0.567546 0
M  V30 2821 O 247.73 -1.62196 -1.43253 0
M  V30 2822 C 248.325 -2.974 1.62292 0
M  V30 2823 C 246.884 -3.47772 1.43986 0
M  V30 2824 C 246.031 -2.22332 1.65722 0
M  V30 2825 H 248.982 -0.936587 1.28116 0
M  V30 2826 H 249.003 -3.64986 1.07541 0
M  V30 2827 H 248.515 -2.79824 2.68924 0
M  V30 2828 H 246.616 -3.70487 0.396206 0
M  V30 2829 H 246.729 -4.25723 2.19765 0
M  V30 2830 H 245.093 -2.30599 1.08149 0
M  V30 2831 H 245.876 -2.07285 2.73657 0
M  V30 2832 N 248.321 -0.919034 -1.28029 0
M  V30 2833 C 249.732 -0.600735 -1.76771 0
M  V30 2834 C 250.083 0.884024 -1.75156 0
M  V30 2835 O 249.208 1.69163 -1.34956 0
M  V30 2836 C 249.803 -1.08372 -3.21 0
M  V30 2837 C 248.362 -0.816248 -3.67443 0
M  V30 2838 C 247.509 -1.24742 -2.47658 0
M  V30 2839 H 250.46 -1.09974 -1.14418 0
M  V30 2840 H 250.481 -0.427512 -3.78091 0
M  V30 2841 H 249.993 -2.16437 -3.22144 0
M  V30 2842 H 248.094 0.250968 -3.71754 0
M  V30 2843 H 248.207 -1.4277 -4.57333 0
M  V30 2844 H 246.571 -0.666083 -2.45836 0
M  V30 2845 H 247.354 -2.33653 -2.51518 0
M  V30 2846 N 249.799 1.42003 -0.683588 0
M  V30 2847 C 251.21 1.84501 -0.285736 0
M  V30 2848 C 251.561 1.57213 1.17382 0
M  V30 2849 O 250.686 1.03642 1.89966 0
M  V30 2850 C 251.281 3.34912 -0.511821 0
M  V30 2851 C 249.84 3.76025 -0.168005 0
M  V30 2852 C 248.987 2.6551 -0.799983 0
M  V30 2853 H 251.938 1.31724 -0.885119 0
M  V30 2854 H 251.959 3.79784 0.233292 0
M  V30 2855 H 251.471 3.54741 -1.57418 0
M  V30 2856 H 249.572 3.61801 0.890567 0
M  V30 2857 H 249.685 4.75141 -0.614661 0
M  V30 2858 H 248.049 2.53654 -0.230568 0
M  V30 2859 H 248.832 2.8816 -1.86597 0
M  V30 2860 N 251.277 0.427512 1.51691 0
M  V30 2861 C 252.688 -0.0378867 1.86662 0
M  V30 2862 C 253.039 -1.42819 1.34525 0
M  V30 2863 O 252.164 -2.05037 0.692014 0
M  V30 2864 C 252.759 -0.0755266 3.38716 0
M  V30 2865 C 251.318 -0.485309 3.73258 0
M  V30 2866 C 250.465 0.328399 2.75349 0
M  V30 2867 H 253.416 0.64379 1.45055 0
M  V30 2868 H 253.437 -0.887056 3.70016 0
M  V30 2869 H 252.949 0.936487 3.76632 0
M  V30 2870 H 251.05 -1.50329 3.40928 0
M  V30 2871 H 251.163 -0.21693 4.78609 0
M  V30 2872 H 249.527 -0.211905 2.53817 0
M  V30 2873 H 250.31 1.3391 3.16106 0
M  V30 2874 N 252.755 -1.56801 0.158532 0
M  V30 2875 C 254.004 -1.95665 -0.489702 0
M  V30 2876 C 254.317 -1.04654 -1.65248 0
M  V30 2877 O 255.523 -1.33146 -2.3661 0
M  V30 2878 C 253.979 -3.47874 -0.922582 0
M  V30 2879 C 253.587 -4.47489 0.213893 0
M  V30 2880 C 255.331 -3.95583 -1.53996 0
M  V30 2881 C 253.238 -5.90921 -0.237903 0
M  V30 2882 H 252.168 -0.730516 -0.186716 0
M  V30 2883 H 254.819 -1.81861 0.244722 0
M  V30 2884 H 253.201 -3.57051 -1.71261 0
M  V30 2885 H 254.375 -4.50017 0.991036 0
M  V30 2886 H 252.69 -4.09764 0.740407 0
M  V30 2887 H 255.287 -5.0019 -1.8898 0
M  V30 2888 H 255.63 -3.37789 -2.43319 0
M  V30 2889 H 256.163 -3.8937 -0.814611 0
M  V30 2890 H 252.902 -6.52559 0.620236 0
M  V30 2891 H 252.422 -5.91729 -0.980676 0
M  V30 2892 H 254.101 -6.43352 -0.686067 0
M  V30 2893 N 254.233 0.115231 -1.57178 0
M  V30 2894 C 255.644 0.67197 -1.74188 0
M  V30 2895 C 255.995 1.80125 -0.777777 0
M  V30 2896 O 255.12 2.16346 0.0484376 0
M  V30 2897 C 255.715 1.22573 -3.1585 0
M  V30 2898 C 254.274 1.72872 -3.34353 0
M  V30 2899 C 253.421 0.629972 -2.70049 0
M  V30 2900 H 256.372 -0.110712 -1.58313 0
M  V30 2901 H 256.393 2.09535 -3.17609 0
M  V30 2902 H 255.905 0.403598 -3.85996 0
M  V30 2903 H 254.006 2.5755 -2.69256 0
M  V30 2904 H 254.119 1.83557 -4.42542 0
M  V30 2905 H 252.483 1.0645 -2.31388 0
M  V30 2906 H 253.266 -0.181241 -3.42821 0
M  V30 2907 N 255.711 1.52812 0.385517 0
M  V30 2908 C 256.641 1.80808 1.47752 0
M  V30 2909 C 257.622 0.660318 1.5676 0
M  V30 2910 O 258.807 0.908246 1.71652 0
M  V30 2911 C 255.937 1.98008 2.85324 0
M  V30 2912 C 254.891 3.13709 2.91154 0
M  V30 2913 C 254.217 3.16169 4.31209 0
M  V30 2914 C 255.517 4.52709 2.60483 0
M  V30 2915 H 257.211 2.72253 1.24573 0
M  V30 2916 H 254.757 1.31003 0.597839 0
M  V30 2917 H 256.71 2.16176 3.61726 0
M  V30 2918 H 255.434 1.03255 3.09848 0
M  V30 2919 H 254.093 2.95329 2.17201 0
M  V30 2920 H 253.741 2.19092 4.52778 0
M  V30 2921 H 253.441 3.93894 4.36029 0
M  V30 2922 H 254.965 3.36496 5.09512 0
M  V30 2923 H 256.379 4.71173 3.26602 0
M  V30 2924 H 254.776 5.32528 2.76648 0
M  V30 2925 H 255.846 4.59186 1.55809 0
M  V30 2926 N 257.189 -0.644168 1.43834 0
M  V30 2927 C 258.099 -1.78563 1.52159 0
M  V30 2928 C 259.115 -1.69147 0.408069 0
M  V30 2929 O 260.291 -1.90156 0.663524 0
M  V30 2930 C 257.356 -3.14888 1.45073 0
M  V30 2931 C 256.417 -3.36034 2.6717 0
M  V30 2932 C 255.65 -4.65855 2.60413 0
M  V30 2933 O 255.873 -5.45805 1.65689 0
M  V30 2934 O 254.807 -4.88918 3.5106 0
M  V30 2935 H 258.633 -1.74494 2.48567 0
M  V30 2936 H 256.218 -0.80378 1.25935 0
M  V30 2937 H 258.1 -3.96179 1.43597 0
M  V30 2938 H 256.775 -3.19528 0.518037 0
M  V30 2939 H 255.682 -2.54472 2.74217 0
M  V30 2940 H 257.015 -3.36247 3.59442 0
M  V30 2941 N 258.668 -1.30515 -0.883378 0
M  V30 2942 C 259.578 -1.18959 -2.02203 0
M  V30 2943 C 260.594 -0.109172 -1.73657 0
M  V30 2944 O 261.77 -0.324413 -1.9877 0
M  V30 2945 C 258.835 -0.883871 -3.35244 0
M  V30 2946 C 257.896 -2.04982 -3.77201 0
M  V30 2947 C 257.129 -1.75859 -5.03894 0
M  V30 2948 O 257.352 -0.687276 -5.66244 0
M  V30 2949 O 256.286 -2.61146 -5.42297 0
M  V30 2950 H 260.112 -2.14616 -2.1488 0
M  V30 2951 H 257.697 -1.10124 -1.0096 0
M  V30 2952 H 259.579 -0.728644 -4.15053 0
M  V30 2953 H 258.254 0.0427798 -3.23672 0
M  V30 2954 H 257.161 -2.26038 -2.9809 0
M  V30 2955 H 258.494 -2.95825 -3.93381 0
M  V30 2956 N 260.146 1.09593 -1.13257 0
M  V30 2957 C 261.056 2.19739 -0.821691 0
M  V30 2958 C 262.072 1.72926 0.19302 0
M  V30 2959 O 263.248 2.01385 0.0244895 0
M  V30 2960 C 260.313 3.45482 -0.290333 0
M  V30 2961 C 259.374 4.06985 -1.36607 0
M  V30 2962 C 258.607 5.26726 -0.859975 0
M  V30 2963 O 258.83 5.69594 0.303082 0
M  V30 2964 O 257.764 5.7931 -1.63351 0
M  V30 2965 H 261.59 2.48781 -1.74189 0
M  V30 2966 H 259.175 1.18496 -0.909894 0
M  V30 2967 H 261.057 4.214 0.000674022 0
M  V30 2968 H 259.732 3.18047 0.602306 0
M  V30 2969 H 258.639 3.32712 -1.71037 0
M  V30 2970 H 259.972 4.38643 -2.23279 0
M  V30 2971 N 261.624 0.925811 1.2754 0
M  V30 2972 C 262.901 0.483726 1.89524 0
M  V30 2973 C 263.281 -1.03809 1.83812 0
M  V30 2974 O 262.629 -1.89143 1.28207 0
M  V30 2975 C 262.839 1.02769 3.33526 0
M  V30 2976 C 264.187 1.08703 4.10449 0
M  V30 2977 O 265.211 0.977175 3.42534 0
M  V30 2978 O 264.07 1.25599 5.31871 0
M  V30 2979 H 261.164 0.15529 0.812289 0
M  V30 2980 H 263.71 1.01738 1.35822 0
M  V30 2981 H 262.482 2.07155 3.31967 0
M  V30 2982 H 262.105 0.475567 3.94746 0
M  V30 2983 N 263.102 -1.41638 0.69111 0
M  V30 2984 C 264.05 -2.32597 0.0115199 0
M  V30 2985 C 265.044 -1.5072 -0.773296 0
M  V30 2986 O 266.25 -1.66685 -0.67942 0
M  V30 2987 H 262.625 -0.751849 -0.0150746 0
M  V30 2988 H 264.596 -2.87593 0.795791 0
M  V30 2989 C 263.345 -3.35467 -0.914172 0
M  V30 2990 H 262.668 -3.9852 -0.319687 0
M  V30 2991 H 264.108 -4.01662 -1.35808 0
M  V30 2992 C 262.567 -2.69004 -2.02826 0
M  V30 2993 O 263.097 -2.53444 -3.11655 0
M  V30 2994 N 261.303 -2.2777 -1.80469 0
M  V30 2995 H 260.85 -2.40626 -0.919615 0
M  V30 2996 H 260.808 -1.83635 -2.55197 0
M  V30 2997 N 264.58 -0.43555 -1.51462 0
M  V30 2998 C 265.805 0.132627 -2.06976 0
M  V30 2999 C 266.23 1.35848 -1.30104 0
M  V30 3000 O 265.588 1.78112 -0.338493 0
M  V30 3001 C 265.636 0.43523 -3.57964 0
M  V30 3002 O 264.74 1.52198 -3.83288 0
M  V30 3003 H 264.081 0.00265 -0.663995 0
M  V30 3004 H 266.611 -0.616369 -1.95095 0
M  V30 3005 H 266.621 0.686206 -4.02188 0
M  V30 3006 H 265.296 -0.460739 -4.1334 0
M  V30 3007 H 263.873 1.2611 -3.50928 0
M  V30 3008 N 266.058 1.56714 -0.166846 0
M  V30 3009 C 266.968 2.21331 0.777791 0
M  V30 3010 C 267.984 1.20358 1.25658 0
M  V30 3011 O 269.16 1.53005 1.30964 0
M  V30 3012 C 266.225 2.83787 1.99163 0
M  V30 3013 C 265.286 3.99947 1.56016 0
M  V30 3014 C 264.519 4.59415 2.71613 0
M  V30 3015 O 264.742 4.17769 3.88362 0
M  V30 3016 O 263.676 5.49359 2.45945 0
M  V30 3017 H 267.502 3.02605 0.257636 0
M  V30 3018 H 265.087 1.49275 0.0611393 0
M  V30 3019 H 266.969 3.23405 2.70161 0
M  V30 3020 H 265.644 2.05513 2.50092 0
M  V30 3021 H 264.551 3.65007 0.819809 0
M  V30 3022 H 265.884 4.79801 1.09782 0
M  V30 3023 N 267.536 -0.106894 1.57237 0
M  V30 3024 C 268.446 -1.14911 2.0453 0
M  V30 3025 C 269.462 -1.44592 0.96795 0
M  V30 3026 O 270.638 -1.55468 1.2803 0
M  V30 3027 C 267.703 -2.45272 2.45036 0
M  V30 3028 C 266.764 -2.22879 3.66911 0
M  V30 3029 C 265.997 -3.47024 4.05475 0
M  V30 3030 O 266.22 -4.54804 3.44252 0
M  V30 3031 O 265.154 -3.3731 4.98504 0
M  V30 3032 H 268.98 -0.777461 2.9358 0
M  V30 3033 H 266.565 -0.318563 1.45964 0
M  V30 3034 H 268.447 -3.22055 2.71769 0
M  V30 3035 H 267.122 -2.81886 1.59129 0
M  V30 3036 H 266.029 -1.43915 3.45311 0
M  V30 3037 H 267.362 -1.91163 4.53561 0
M  V30 3038 N 269.014 -1.53014 -0.377408 0
M  V30 3039 C 270.263 -1.67845 -1.11853 0
M  V30 3040 C 270.576 -0.430625 -1.90801 0
M  V30 3041 O 271.782 -0.459261 -2.67587 0
M  V30 3042 C 270.238 -2.96668 -2.03756 0
M  V30 3043 C 269.846 -4.28671 -1.30175 0
M  V30 3044 C 271.59 -3.20865 -2.77932 0
M  V30 3045 C 269.497 -5.48591 -2.20911 0
M  V30 3046 H 268.427 -0.625343 -0.421263 0
M  V30 3047 H 271.078 -1.79514 -0.380409 0
M  V30 3048 H 269.46 -2.78773 -2.8125 0
M  V30 3049 H 270.634 -4.57157 -0.578259 0
M  V30 3050 H 268.949 -4.10825 -0.679108 0
M  V30 3051 H 271.546 -4.07642 -3.46024 0
M  V30 3052 H 271.889 -2.36424 -3.4265 0
M  V30 3053 H 272.422 -3.39379 -2.07525 0
M  V30 3054 H 269.161 -6.35474 -1.6079 0
M  V30 3055 H 268.681 -5.244 -2.91144 0
M  V30 3056 H 270.36 -5.8292 -2.80736 0
M  V30 3057 N 270.492 0.636531 -1.44174 0
M  V30 3058 C 271.738 1.39826 -1.4689 0
M  V30 3059 C 272.071 1.93947 -0.0990585 0
M  V30 3060 O 271.346 1.73325 0.882544 0
M  V30 3061 C 271.629 2.56751 -2.5249 0
M  V30 3062 C 271.482 2.08014 -3.98811 0
M  V30 3063 C 272.801 3.58946 -2.54649 0
M  V30 3064 H 269.92 0.507075 -0.53483 0
M  V30 3065 H 272.562 0.720188 -1.75822 0
M  V30 3066 H 270.712 3.14597 -2.2795 0
M  V30 3067 H 272.384 1.5504 -4.34466 0
M  V30 3068 H 270.627 1.39242 -4.10846 0
M  V30 3069 H 271.298 2.92169 -4.68339 0
M  V30 3070 H 273.774 3.1089 -2.76563 0
M  V30 3071 H 272.65 4.38286 -3.3045 0
M  V30 3072 H 272.911 4.12655 -1.58646 0
M  V30 3073 N 271.97 1.30982 0.876444 0
M  V30 3074 C 273.216 1.20474 1.63138 0
M  V30 3075 C 273.549 -0.238096 1.92735 0
M  V30 3076 O 272.824 -1.1692 1.55435 0
M  V30 3077 C 273.107 2.04244 2.96574 0
M  V30 3078 C 272.96 3.56793 2.73896 0
M  V30 3079 C 274.279 1.88684 3.97601 0
M  V30 3080 H 271.398 0.439001 0.591985 0
M  V30 3081 H 274.04 1.60704 1.01361 0
M  V30 3082 H 272.19 1.70063 3.493 0
M  V30 3083 H 273.862 4.01077 2.27892 0
M  V30 3084 H 272.105 3.80548 2.08245 0
M  V30 3085 H 272.776 4.10706 3.68815 0
M  V30 3086 H 275.252 2.18584 3.54062 0
M  V30 3087 H 274.128 2.4961 4.88862 0
M  V30 3088 H 274.389 0.848343 4.33884 0
M  V30 3089 N 273.449 -1.08991 1.13837 0
M  V30 3090 C 274.412 -2.13925 0.822715 0
M  V30 3091 C 275.412 -1.599 -0.1699 0
M  V30 3092 O 276.602 -1.74104 0.0577251 0
M  V30 3093 C 273.734 -3.40155 0.225318 0
M  V30 3094 H 274.927 -2.43358 1.75262 0
M  V30 3095 H 272.48 -1.24603 0.943594 0
M  V30 3096 H 273.215 -3.16352 -0.713594 0
M  V30 3097 H 273 -3.80661 0.940193 0
M  V30 3098 H 274.49 -4.17594 0.0214784 0
M  V30 3099 N 274.927 -0.932562 -1.27047 0
M  V30 3100 C 275.86 -0.379774 -2.25018 0
M  V30 3101 C 276.838 0.526587 -1.53837 0
M  V30 3102 O 278.022 0.465992 -1.82649 0
M  V30 3103 C 275.149 0.455187 -3.35627 0
M  V30 3104 C 274.195 -0.388428 -4.24728 0
M  V30 3105 S 275.028 -1.80701 -5.04091 0
M  V30 3106 C 276.184 -0.979865 -6.18182 0
M  V30 3107 H 276.417 -1.2101 -2.71558 0
M  V30 3108 H 273.95 -0.735078 -1.35779 0
M  V30 3109 H 275.908 0.931052 -3.99802 0
M  V30 3110 H 274.569 1.26009 -2.87716 0
M  V30 3111 H 273.762 0.25089 -5.03375 0
M  V30 3112 H 273.364 -0.798649 -3.65373 0
M  V30 3113 H 275.656 -0.218115 -6.77149 0
M  V30 3114 H 276.599 -1.73951 -6.86401 0
M  V30 3115 H 277.007 -0.51973 -5.62102 0
M  V30 3116 N 276.405 1.4127 -0.698611 0
M  V30 3117 C 277.635 2.05205 -0.239644 0
M  V30 3118 C 278.043 1.52684 1.11733 0
M  V30 3119 O 277.386 0.671222 1.70998 0
M  V30 3120 C 277.448 3.59289 -0.123126 0
M  V30 3121 C 277.112 4.34619 -1.41263 0
M  V30 3122 C 278.109 4.63701 -2.35111 0
M  V30 3123 C 275.794 4.73837 -1.66684 0
M  V30 3124 C 277.788 5.30966 -3.52639 0
M  V30 3125 C 275.475 5.40837 -2.84498 0
M  V30 3126 C 276.473 5.69329 -3.77298 0
M  V30 3127 O 276.161 6.34949 -4.93047 0
M  V30 3128 H 275.893 0.66723 -0.108537 0
M  V30 3129 H 278.447 1.81974 -0.952602 0
M  V30 3130 H 276.677 3.81272 0.645628 0
M  V30 3131 H 278.366 4.04797 0.299056 0
M  V30 3132 H 279.132 4.33882 -2.16729 0
M  V30 3133 H 275.011 4.51039 -0.953135 0
M  V30 3134 H 278.555 5.53121 -4.25091 0
M  V30 3135 H 274.452 5.70075 -3.02795 0
M  V30 3136 H 275.22 6.53445 -4.92902 0
M  V30 3137 N 277.883 0.443576 1.51229 0
M  V30 3138 C 279.16 -0.181038 1.9476 0
M  V30 3139 C 279.54 -1.59523 1.38259 0
M  V30 3140 O 278.888 -2.2122 0.572198 0
M  V30 3141 C 279.098 -0.152422 3.48667 0
M  V30 3142 C 280.446 -0.354923 4.23114 0
M  V30 3143 O 281.47 -0.230257 3.55455 0
M  V30 3144 O 280.329 -0.603674 5.43156 0
M  V30 3145 H 277.423 -0.1266 0.817252 0
M  V30 3146 H 279.969 0.502004 1.62105 0
M  V30 3147 H 278.741 0.836022 3.82265 0
M  V30 3148 H 278.364 -0.878107 3.87782 0
M  V30 3149 N 279.361 -1.56624 0.175154 0
M  V30 3150 C 280.608 -1.96999 -0.468811 0
M  V30 3151 C 280.936 -1.06129 -1.62994 0
M  V30 3152 O 280.191 -0.0961771 -1.95464 0
M  V30 3153 C 280.49 -3.43419 -0.989864 0
M  V30 3154 C 280.156 -4.50866 0.0557687 0
M  V30 3155 C 278.818 -4.79975 0.343134 0
M  V30 3156 C 281.17 -5.15551 0.765308 0
M  V30 3157 C 278.498 -5.71066 1.34536 0
M  V30 3158 C 280.85 -6.07724 1.75654 0
M  V30 3159 C 279.514 -6.35199 2.05132 0
M  V30 3160 H 278.784 -0.720869 -0.17155 0
M  V30 3161 H 281.431 -1.89616 0.267924 0
M  V30 3162 H 279.736 -3.47772 -1.80449 0
M  V30 3163 H 281.433 -3.72002 -1.49719 0
M  V30 3164 H 278.023 -4.28229 -0.178381 0
M  V30 3165 H 282.207 -4.9317 0.556513 0
M  V30 3166 H 277.463 -5.90635 1.57988 0
M  V30 3167 H 281.637 -6.56912 2.31169 0
M  V30 3168 H 279.264 -7.05584 2.8294 0
M  V30 3169 N 280.839 0.0985539 -1.57292 0
M  V30 3170 C 281.771 1.14595 -1.98496 0
M  V30 3171 C 282.784 1.36512 -0.887031 0
M  V30 3172 O 283.973 1.35225 -1.16518 0
M  V30 3173 C 281.073 2.50216 -2.28572 0
M  V30 3174 C 280.246 2.48624 -3.59868 0
M  V30 3175 C 279.305 3.66146 -3.7792 0
M  V30 3176 O 278.331 3.48795 -4.49812 0
M  V30 3177 N 279.533 4.85496 -3.18235 0
M  V30 3178 H 282.298 0.795277 -2.88956 0
M  V30 3179 H 279.859 0.287579 -1.59325 0
M  V30 3180 H 281.851 3.27432 -2.37845 0
M  V30 3181 H 280.421 2.77387 -1.44136 0
M  V30 3182 H 279.641 1.56978 -3.61596 0
M  V30 3183 H 280.929 2.44635 -4.46129 0
M  V30 3184 H 280.327 5.02497 -2.59833 0
M  V30 3185 H 278.884 5.60317 -3.32999 0
M  V30 3186 N 282.317 1.53212 0.369288 0
M  V30 3187 C 283.28 1.7872 1.43498 0
M  V30 3188 C 284.28 0.657554 1.46741 0
M  V30 3189 O 285.47 0.925736 1.47566 0
M  V30 3190 C 282.602 1.90591 2.82645 0
M  V30 3191 H 283.795 2.73894 1.22156 0
M  V30 3192 H 281.348 1.44233 0.602203 0
M  V30 3193 H 282.083 0.974709 3.09306 0
M  V30 3194 H 281.868 2.72751 2.8169 0
M  V30 3195 H 283.358 2.11931 3.59826 0
M  V30 3196 N 283.795 -0.628877 1.44509 0
M  V30 3197 C 284.758 -1.72263 1.51188 0
M  V30 3198 C 285.758 -1.55907 0.39367 0
M  V30 3199 O 286.948 -1.61361 0.656377 0
M  V30 3200 C 284.08 -3.11365 1.38798 0
M  V30 3201 H 285.273 -1.67714 2.4862 0
M  V30 3202 H 282.826 -0.842737 1.31634 0
M  V30 3203 H 283.561 -3.21507 0.424693 0
M  V30 3204 H 283.346 -3.24644 2.19884 0
M  V30 3205 H 284.836 -3.91075 1.46458 0
M  V30 3206 N 285.273 -1.31445 -0.869486 0
M  V30 3207 C 286.183 -1.21097 -2.0093 0
M  V30 3208 C 287.199 -0.127584 -1.73532 0
M  V30 3209 O 288.375 -0.345477 -1.98415 0
M  V30 3210 C 285.44 -0.919378 -3.34288 0
M  V30 3211 C 284.501 -2.08971 -3.75006 0
M  V30 3212 C 283.734 -1.81194 -5.02001 0
M  V30 3213 O 283.957 -0.747296 -5.65484 0
M  V30 3214 O 282.891 -2.66883 -5.39497 0
M  V30 3215 H 286.717 -2.16883 -2.12592 0
M  V30 3216 H 284.302 -1.11189 -0.997868 0
M  V30 3217 H 286.184 -0.772625 -4.14257 0
M  V30 3218 H 284.859 0.00844772 -3.23699 0
M  V30 3219 H 283.766 -2.29187 -2.95676 0
M  V30 3220 H 285.099 -2.9998 -3.90221 0
M  V30 3221 N 286.751 1.08385 -1.14413 0
M  V30 3222 C 287.999 1.80419 -0.910679 0
M  V30 3223 C 288.32 1.86658 0.564243 0
M  V30 3224 O 287.59 1.35985 1.41014 0
M  V30 3225 H 286.17 0.668204 -0.333934 0
M  V30 3226 H 288.832 1.31037 -1.44275 0
M  V30 3227 H 287.928 2.83238 -1.31082 0
M  V30 3228 N 288.23 0.939286 1.26551 0
M  V30 3229 C 289.18 0.418284 2.2413 0
M  V30 3230 C 290.164 -0.483935 1.5345 0
M  V30 3231 O 291.356 -0.319489 1.74093 0
M  V30 3232 C 288.485 -0.31709 3.41832 0
M  V30 3233 C 287.571 0.602311 4.19801 0
M  V30 3234 N 287.962 1.72726 4.75394 0
M  V30 3235 C 286.26 0.407534 4.44134 0
M  V30 3236 C 286.961 2.30004 5.34297 0
M  V30 3237 N 285.937 1.58828 5.1988 0
M  V30 3238 H 289.739 1.27705 2.64705 0
M  V30 3239 H 287.253 0.794929 1.41614 0
M  V30 3240 H 289.25 -0.707364 4.10855 0
M  V30 3241 H 287.91 -1.17264 3.02786 0
M  V30 3242 H 288.921 2.10944 4.72994 0
M  V30 3243 H 285.598 -0.406406 4.15517 0
M  V30 3244 H 286.988 3.24778 5.88191 0
M  V30 3245 N 289.708 -1.40897 0.706093 0
M  V30 3246 C 290.985 -1.94868 0.169099 0
M  V30 3247 C 291.365 -1.64485 -1.32318 0
M  V30 3248 O 290.713 -0.95744 -2.07474 0
M  V30 3249 C 290.923 -3.45798 0.471654 0
M  V30 3250 C 292.271 -4.22663 0.405127 0
M  V30 3251 O 293.295 -3.53865 0.407168 0
M  V30 3252 O 292.154 -5.45216 0.374383 0
M  V30 3253 H 289.248 -0.82673 0.0211352 0
M  V30 3254 H 291.794 -1.50558 0.782976 0
M  V30 3255 H 290.566 -3.61235 1.50416 0
M  V30 3256 H 290.189 -3.97225 -0.172666 0
M  V30 3257 N 291.186 -0.45159 -1.50991 0
M  V30 3258 C 292.116 0.342898 -2.30969 0
M  V30 3259 C 293.097 1.00815 -1.37005 0
M  V30 3260 O 294.282 1.00907 -1.65926 0
M  V30 3261 C 291.412 1.43637 -3.16205 0
M  V30 3262 C 290.366 0.893818 -4.18563 0
M  V30 3263 C 289.692 2.08411 -4.92411 0
M  V30 3264 C 290.992 -0.0815568 -5.22236 0
M  V30 3265 H 292.686 -0.324556 -2.97636 0
M  V30 3266 H 290.232 -0.157531 -1.43136 0
M  V30 3267 H 292.185 1.9995 -3.70942 0
M  V30 3268 H 290.909 2.13232 -2.47386 0
M  V30 3269 H 289.568 0.352798 -3.64898 0
M  V30 3270 H 289.216 2.76658 -4.20082 0
M  V30 3271 H 288.916 1.72741 -5.61636 0
M  V30 3272 H 290.44 2.65251 -5.49976 0
M  V30 3273 H 291.854 0.391742 -5.7196 0
M  V30 3274 H 290.251 -0.351551 -5.99069 0
M  V30 3275 H 291.321 -1.01374 -4.74185 0
M  V30 3276 N 292.664 1.56529 -0.183458 0
M  V30 3277 C 294.08 1.58664 0.172554 0
M  V30 3278 C 294.28 1.19925 1.61926 0
M  V30 3279 O 293.336 0.916534 2.35278 0
M  V30 3280 C 294.649 3.00463 -0.119262 0
M  V30 3281 C 296.197 3.12945 -0.0584396 0
M  V30 3282 C 296.672 4.56857 -0.323408 0
M  V30 3283 N 298.163 4.62403 -0.271612 0
M  V30 3284 C 298.898 5.71626 -0.450639 0
M  V30 3285 N 298.394 6.89362 -0.689384 0
M  V30 3286 N 300.187 5.60775 -0.385701 0
M  V30 3287 H 292.338 1.79994 -1.12765 0
M  V30 3288 H 294.601 0.834808 -0.449222 0
M  V30 3289 H 294.307 3.33326 -1.12192 0
M  V30 3290 H 294.181 3.72659 0.583544 0
M  V30 3291 H 296.568 2.79902 0.934805 0
M  V30 3292 H 296.649 2.4316 -0.794144 0
M  V30 3293 H 296.293 4.9061 -1.31392 0
M  V30 3294 H 296.223 5.24816 0.43305 0
M  V30 3295 H 298.714 3.77785 -0.0932256 0
M  V30 3296 H 299.027 7.68489 -0.815113 0
M  V30 3297 H 297.372 6.91196 -0.726142 0
M  V30 3298 H 300.563 4.67674 -0.199687 0
M  V30 3299 H 300.736 6.4584 -0.528646 0
M  V30 3300 N 294.142 -0.090211 1.57342 0
M  V30 3301 C 295.072 -1.10976 2.05443 0
M  V30 3302 C 296.053 -1.41482 0.944284 0
M  V30 3303 O 297.238 -1.51428 1.21586 0
M  V30 3304 C 294.368 -2.42831 2.48295 0
M  V30 3305 C 293.322 -2.26721 3.63018 0
M  V30 3306 C 292.648 -3.63796 3.91863 0
M  V30 3307 C 293.948 -1.7037 4.93732 0
M  V30 3308 H 295.642 -0.709564 2.9087 0
M  V30 3309 H 293.188 -0.339874 1.39932 0
M  V30 3310 H 295.141 -3.14431 2.80555 0
M  V30 3311 H 293.865 -2.84795 1.59873 0
M  V30 3312 H 292.524 -1.57565 3.31012 0
M  V30 3313 H 292.172 -4.03297 3.00601 0
M  V30 3314 H 291.872 -3.53861 4.69101 0
M  V30 3315 H 293.396 -4.36855 4.26603 0
M  V30 3316 H 294.81 -2.31816 5.24342 0
M  V30 3317 H 293.207 -1.71181 5.75167 0
M  V30 3318 H 294.277 -0.663542 4.80339 0
M  V30 3319 N 295.62 -1.53406 -0.361157 0
M  V30 3320 C 296.53 -1.83122 -1.4664 0
M  V30 3321 C 297.546 -0.719943 -1.58407 0
M  V30 3322 O 298.722 -1.01046 -1.74218 0
M  V30 3323 C 295.787 -2.01891 -2.81853 0
M  V30 3324 C 294.848 -3.25784 -2.79577 0
M  V30 3325 C 294.081 -3.43648 -4.0834 0
M  V30 3326 O 294.304 -2.65714 -5.0473 0
M  V30 3327 O 293.238 -4.37018 -4.13883 0
M  V30 3328 H 297.064 -2.7703 -1.24451 0
M  V30 3329 H 294.649 -1.38841 -0.551678 0
M  V30 3330 H 296.531 -2.15782 -3.61962 0
M  V30 3331 H 295.206 -1.11173 -3.0401 0
M  V30 3332 H 294.113 -3.17312 -1.98151 0
M  V30 3333 H 295.446 -4.16439 -2.62373 0
M  V30 3334 N 297.098 0.621204 -1.44841 0
M  V30 3335 C 298.514 0.94048 -1.28946 0
M  V30 3336 C 298.714 2.00154 -0.23249 0
M  V30 3337 O 297.77 2.49651 0.378237 0
M  V30 3338 C 299.083 1.39433 -2.66419 0
M  V30 3339 C 300.631 1.50927 -2.74208 0
M  V30 3340 C 301.106 1.99692 -4.12174 0
M  V30 3341 N 302.597 2.06947 -4.144 0
M  V30 3342 C 303.332 2.45871 -5.1801 0
M  V30 3343 N 302.828 2.83862 -6.31977 0
M  V30 3344 N 304.621 2.46092 -5.05366 0
M  V30 3345 H 296.772 -0.0803548 -2.12248 0
M  V30 3346 H 299.035 0.0266913 -0.947624 0
M  V30 3347 H 298.741 0.688925 -3.44887 0
M  V30 3348 H 298.615 2.36347 -2.93973 0
M  V30 3349 H 301.002 2.20561 -1.96053 0
M  V30 3350 H 301.083 0.523627 -2.50383 0
M  V30 3351 H 300.727 1.30649 -4.90809 0
M  V30 3352 H 300.657 2.99146 -4.33381 0
M  V30 3353 H 303.148 1.80232 -3.32152 0
M  V30 3354 H 303.461 3.12405 -7.0684 0
M  V30 3355 H 301.806 2.8159 -6.35399 0
M  V30 3356 H 304.997 2.1581 -4.15384 0
M  V30 3357 H 305.17 2.76102 -5.86235 0
M  V30 3358 N 298.576 1.31904 0.862503 0
M  V30 3359 C 299.824 1.21776 1.61292 0
M  V30 3360 C 300.145 -0.222413 1.93727 0
M  V30 3361 O 299.415 -1.1451 1.58947 0
M  V30 3362 H 297.995 0.447717 0.597962 0
M  V30 3363 H 300.657 1.65326 1.03215 0
M  V30 3364 H 299.753 1.7948 2.5533 0
M  V30 3365 N 300.054 -1.07777 1.14986 0
M  V30 3366 C 300.986 -2.14769 0.800436 0
M  V30 3367 C 301.999 -1.61739 -0.185595 0
M  V30 3368 O 303.188 -1.78462 0.0370358 0
M  V30 3369 C 300.288 -3.38481 0.168533 0
M  V30 3370 C 299.461 -4.20876 1.1909 0
M  V30 3371 C 298.52 -5.22976 0.581575 0
M  V30 3372 O 297.546 -5.55388 1.24633 0
M  V30 3373 N 298.748 -5.76976 -0.638706 0
M  V30 3374 H 301.513 -2.45348 1.72118 0
M  V30 3375 H 299.074 -1.23645 1.04515 0
M  V30 3376 H 301.066 -4.03916 -0.251764 0
M  V30 3377 H 299.636 -3.05651 -0.655467 0
M  V30 3378 H 298.856 -3.51322 1.78791 0
M  V30 3379 H 300.144 -4.7274 1.88133 0
M  V30 3380 H 299.542 -5.52886 -1.19723 0
M  V30 3381 H 298.099 -6.44061 -1.00142 0
M  V30 3382 N 301.532 -0.945985 -1.26051 0
M  V30 3383 C 302.442 -0.465633 -2.29933 0
M  V30 3384 C 303.458 0.462761 -1.67733 0
M  V30 3385 O 304.634 0.341118 -1.9849 0
M  V30 3386 C 301.699 0.256994 -3.45746 0
M  V30 3387 C 300.76 -0.708549 -4.23412 0
M  V30 3388 C 299.993 -0.0203135 -5.33696 0
M  V30 3389 O 300.216 1.19571 -5.57726 0
M  V30 3390 O 299.15 -0.701459 -5.97799 0
M  V30 3391 H 302.976 -1.32866 -2.73094 0
M  V30 3392 H 300.561 -0.712071 -1.31339 0
M  V30 3393 H 302.443 0.663852 -4.16138 0
M  V30 3394 H 301.118 1.09533 -3.04605 0
M  V30 3395 H 300.025 -1.16545 -3.55483 0
M  V30 3396 H 301.358 -1.51465 -4.68315 0
M  V30 3397 N 303.011 1.40521 -0.713556 0
M  V30 3398 C 304.241 2.0494 -0.261395 0
M  V30 3399 C 304.649 1.53861 1.10107 0
M  V30 3400 O 303.992 0.689321 1.70276 0
M  V30 3401 C 304.054 3.59138 -0.161227 0
M  V30 3402 C 303.718 4.33096 -1.45865 0
M  V30 3403 C 304.715 4.61182 -2.40016 0
M  V30 3404 C 302.4 4.72043 -1.71701 0
M  V30 3405 C 304.394 5.27196 -3.58251 0
M  V30 3406 C 302.081 5.37789 -2.90218 0
M  V30 3407 C 303.079 5.65295 -3.83315 0
M  V30 3408 O 302.767 6.29683 -4.99754 0
M  V30 3409 H 302.499 0.666041 -0.115608 0
M  V30 3410 H 305.053 1.80954 -0.971849 0
M  V30 3411 H 303.283 3.81936 0.605153 0
M  V30 3412 H 304.972 4.05091 0.256105 0
M  V30 3413 H 305.738 4.31559 -2.21318 0
M  V30 3414 H 301.617 4.50003 -1.00092 0
M  V30 3415 H 305.161 5.48582 -4.30934 0
M  V30 3416 H 301.058 5.66831 -3.08825 0
M  V30 3417 H 301.826 6.4818 -4.99805 0
M  V30 3418 N 304.489 0.459591 1.5075 0
M  V30 3419 C 305.419 -0.330644 2.31147 0
M  V30 3420 C 306.4 -1.00087 1.37538 0
M  V30 3421 O 307.585 -1.00025 1.66459 0
M  V30 3422 C 304.715 -1.41958 3.16962 0
M  V30 3423 C 303.669 -0.871608 4.19031 0
M  V30 3424 C 302.995 -2.05797 4.9351 0
M  V30 3425 C 304.295 0.109251 5.22186 0
M  V30 3426 H 305.989 0.340336 2.97459 0
M  V30 3427 H 303.535 0.165119 1.4305 0
M  V30 3428 H 305.488 -1.9798 3.71997 0
M  V30 3429 H 304.212 -2.11917 2.48513 0
M  V30 3430 H 302.871 -0.333442 3.6508 0
M  V30 3431 H 302.519 -2.74427 4.21544 0
M  V30 3432 H 302.219 -1.6976 5.62544 0
M  V30 3433 H 303.743 -2.62331 5.51375 0
M  V30 3434 H 305.157 -0.361405 5.7216 0
M  V30 3435 H 303.554 0.383316 5.98875 0
M  V30 3436 H 304.624 1.03887 4.73641 0
M  V30 3437 N 305.967 -1.56429 0.191757 0
M  V30 3438 C 307.216 -1.9666 -0.448088 0
M  V30 3439 C 307.529 -1.08136 -1.62991 0
M  V30 3440 O 308.735 -1.38135 -2.33733 0
M  V30 3441 C 307.191 -3.49753 -0.848585 0
M  V30 3442 C 306.799 -4.46935 0.308764 0
M  V30 3443 C 308.543 -3.9876 -1.4557 0
M  V30 3444 C 306.45 -5.91293 -0.112506 0
M  V30 3445 H 305.38 -0.734312 -0.171179 0
M  V30 3446 H 308.031 -1.81301 0.283242 0
M  V30 3447 H 306.413 -3.60604 -1.63649 0
M  V30 3448 H 307.587 -4.47813 1.08627 0
M  V30 3449 H 305.902 -4.08102 0.827158 0
M  V30 3450 H 308.499 -5.04086 -1.78328 0
M  V30 3451 H 308.842 -3.42875 -2.36099 0
M  V30 3452 H 309.375 -3.9101 -0.731836 0
M  V30 3453 H 306.114 -6.51097 0.758514 0
M  V30 3454 H 305.634 -5.93676 -0.854941 0
M  V30 3455 H 307.313 -6.44663 -0.549448 0
M  V30 3456 N 307.445 0.0818655 -1.57387 0
M  V30 3457 C 308.375 1.09885 -2.06028 0
M  V30 3458 C 309.356 1.4098 -0.951774 0
M  V30 3459 O 310.541 1.50781 -1.22387 0
M  V30 3460 C 307.671 2.4151 -2.4958 0
M  V30 3461 C 306.625 2.24792 -3.64215 0
M  V30 3462 C 305.951 3.61712 -3.93787 0
M  V30 3463 C 307.251 1.67749 -4.94629 0
M  V30 3464 H 308.945 0.694128 -2.91243 0
M  V30 3465 H 306.491 0.332448 -1.4011 0
M  V30 3466 H 308.444 3.12939 -2.82219 0
M  V30 3467 H 307.168 2.83943 -1.61381 0
M  V30 3468 H 305.827 1.55807 -3.31843 0
M  V30 3469 H 305.475 4.01697 -3.02735 0
M  V30 3470 H 305.175 3.51368 -4.70971 0
M  V30 3471 H 306.699 4.34587 -4.28913 0
M  V30 3472 H 308.113 2.29032 -5.25564 0
M  V30 3473 H 306.51 1.68128 -5.76067 0
M  V30 3474 H 307.58 0.638059 -4.80684 0
M  V30 3475 N 308.923 1.53595 0.353017 0
M  V30 3476 C 309.833 1.83897 1.45667 0
M  V30 3477 C 310.849 0.728334 1.58023 0
M  V30 3478 O 312.025 1.01968 1.73679 0
M  V30 3479 C 309.09 2.03383 2.80778 0
M  V30 3480 C 308.151 3.27262 2.77845 0
M  V30 3481 C 307.384 3.45809 4.06512 0
M  V30 3482 O 307.607 2.68387 5.03314 0
M  V30 3483 O 306.541 4.39207 4.11559 0
M  V30 3484 H 310.367 2.77686 1.2298 0
M  V30 3485 H 307.952 1.39132 0.544308 0
M  V30 3486 H 309.834 2.17698 3.60812 0
M  V30 3487 H 308.509 1.12783 3.03417 0
M  V30 3488 H 307.416 3.18359 1.96465 0
M  V30 3489 H 308.749 4.17824 2.60161 0
M  V30 3490 N 310.401 -0.613514 1.45168 0
M  V30 3491 C 311.348 -1.72456 1.53387 0
M  V30 3492 C 312.318 -1.6169 0.380191 0
M  V30 3493 O 313.503 -1.81356 0.592836 0
M  V30 3494 C 310.643 -3.10753 1.50088 0
M  V30 3495 C 309.756 -3.32368 2.75963 0
M  V30 3496 C 308.891 -4.60737 2.64376 0
M  V30 3497 C 307.93 -4.7559 3.85332 0
M  V30 3498 N 307.067 -5.95253 3.72315 0
M  V30 3499 H 311.907 -1.64768 2.48305 0
M  V30 3500 H 309.444 -0.803503 1.23216 0
M  V30 3501 H 311.402 -3.90758 1.46164 0
M  V30 3502 H 310.032 -3.17413 0.587243 0
M  V30 3503 H 309.084 -2.4618 2.89999 0
M  V30 3504 H 310.396 -3.39218 3.65695 0
M  V30 3505 H 309.55 -5.48928 2.58385 0
M  V30 3506 H 308.289 -4.56275 1.72233 0
M  V30 3507 H 307.294 -3.85824 3.91688 0
M  V30 3508 H 308.519 -4.81854 4.78533 0
M  V30 3509 H 306.465 -5.91847 2.82937 0
M  V30 3510 H 306.382 -6.03236 4.55677 0
M  V30 3511 H 307.65 -6.85958 3.70246 0
M  V30 3512 N 311.879 -1.3236 -0.855495 0
M  V30 3513 C 312.827 -1.2118 -1.9854 0
M  V30 3514 C 313.821 -0.116788 -1.68997 0
M  V30 3515 O 315.027 -0.279657 -1.77814 0
M  V30 3516 H 311.402 -0.375608 -0.651477 0
M  V30 3517 H 313.373 -2.16743 -2.05098 0
M  V30 3518 C 312.122 -0.950849 -3.34446 0
M  V30 3519 H 311.445 -1.78563 -3.57708 0
M  V30 3520 H 312.885 -0.912863 -4.14057 0
M  V30 3521 C 311.344 0.346404 -3.35114 0
M  V30 3522 O 311.874 1.35855 -3.7803 0
M  V30 3523 N 310.08 0.36808 -2.88259 0
M  V30 3524 H 309.627 -0.456102 -2.5353 0
M  V30 3525 H 309.585 1.23591 -2.89089 0
M  V30 3526 N 313.357 1.07166 -1.15556 0
M  V30 3527 C 314.634 1.76546 -0.842069 0
M  V30 3528 C 315.014 2.00453 0.661939 0
M  V30 3529 O 314.362 1.62452 1.60691 0
M  V30 3530 C 314.572 3.07266 -1.65495 0
M  V30 3531 C 315.92 3.81578 -1.86234 0
M  V30 3532 O 316.944 3.17083 -1.62287 0
M  V30 3533 O 315.803 4.97419 -2.26355 0
M  V30 3534 H 312.897 0.766756 -0.309862 0
M  V30 3535 H 315.443 1.13514 -1.26145 0
M  V30 3536 H 314.215 2.85494 -2.67598 0
M  V30 3537 H 313.838 3.7803 -1.23203 0
M  V30 3538 N 314.835 0.952656 1.25548 0
M  V30 3539 C 316.081 0.607272 1.93494 0
M  V30 3540 C 316.414 -0.853245 1.74452 0
M  V30 3541 O 315.689 -1.61194 1.08843 0
M  V30 3542 C 315.972 0.96435 3.46947 0
M  V30 3543 C 315.825 2.48045 3.75225 0
M  V30 3544 C 317.144 0.487987 4.37386 0
M  V30 3545 H 314.263 0.222096 0.702739 0
M  V30 3546 H 316.905 1.18895 1.48203 0
M  V30 3547 H 315.055 0.469361 3.85654 0
M  V30 3548 H 316.727 3.04905 3.46166 0
M  V30 3549 H 314.97 2.919 3.209 0
M  V30 3550 H 315.641 2.6808 4.82532 0
M  V30 3551 H 318.117 0.912558 4.0597 0
M  V30 3552 H 316.993 0.766547 5.43521 0
M  V30 3553 H 317.254 -0.612063 4.37843 0
M  V30 3554 N 316.313 -1.40141 0.720998 0
M  V30 3555 C 317.263 -2.27949 0.0482544 0
M  V30 3556 C 318.247 -1.43538 -0.727021 0
M  V30 3557 O 319.439 -1.6658 -0.598332 0
M  V30 3558 C 316.568 -3.32126 -0.868729 0
M  V30 3559 C 315.654 -4.24008 -0.0883515 0
M  V30 3560 N 316.045 -4.97154 0.931226 0
M  V30 3561 C 314.343 -4.4485 -0.320105 0
M  V30 3562 C 315.044 -5.64587 1.4006 0
M  V30 3563 N 314.02 -5.38787 0.721752 0
M  V30 3564 H 317.822 -2.81948 0.829609 0
M  V30 3565 H 315.336 -1.52656 0.554067 0
M  V30 3566 H 317.333 -3.93884 -1.36605 0
M  V30 3567 H 315.993 -2.79687 -1.6494 0
M  V30 3568 H 317.004 -5.01 1.31222 0
M  V30 3569 H 313.681 -4.03378 -1.07668 0
M  V30 3570 H 315.071 -6.33175 2.24808 0
M  V30 3571 N 317.792 -0.46758 -1.50504 0
M  V30 3572 C 319.038 0.0808869 -2.03239 0
M  V30 3573 C 319.393 1.37721 -1.34353 0
M  V30 3574 O 318.686 1.86016 -0.459194 0
M  V30 3575 C 318.88 0.323995 -3.55928 0
M  V30 3576 C 318.709 -0.947215 -4.39611 0
M  V30 3577 C 317.479 -1.48951 -4.82848 0
M  V30 3578 C 319.677 -1.84166 -4.80195 0
M  V30 3579 N 317.659 -2.71011 -5.50842 0
M  V30 3580 C 319.03 -2.90815 -5.47564 0
M  V30 3581 C 321.085 -1.85246 -4.62156 0
M  V30 3582 C 319.788 -3.98529 -5.98805 0
M  V30 3583 C 321.814 -2.91914 -5.14335 0
M  V30 3584 C 321.176 -3.97282 -5.81676 0
M  V30 3585 H 317.275 -0.0103394 -0.781932 0
M  V30 3586 H 319.859 -0.635003 -1.84054 0
M  V30 3587 H 318.03 1.00892 -3.75067 0
M  V30 3588 H 319.762 0.866492 -3.95315 0
M  V30 3589 H 316.517 -1.03918 -4.62058 0
M  V30 3590 H 316.941 -3.32988 -5.89447 0
M  V30 3591 H 321.583 -1.05103 -4.09528 0
M  V30 3592 H 319.301 -4.79491 -6.50472 0
M  V30 3593 H 322.887 -2.93729 -5.0221 0
M  V30 3594 H 321.767 -4.78462 -6.21324 0
M  V30 3595 N 319.27 1.56325 -0.20005 0
M  V30 3596 C 320.516 1.98772 0.431408 0
M  V30 3597 C 320.871 1.0849 1.58895 0
M  V30 3598 O 320.164 0.130331 1.91156 0
M  V30 3599 C 320.358 3.4495 0.935103 0
M  V30 3600 C 320.187 4.49371 -0.172096 0
M  V30 3601 C 318.957 5.0134 -0.631377 0
M  V30 3602 C 321.155 5.04822 -0.982806 0
M  V30 3603 N 319.137 5.89433 -1.71588 0
M  V30 3604 C 320.508 5.89632 -1.91661 0
M  V30 3605 C 322.563 4.87242 -1.02467 0
M  V30 3606 C 321.266 6.58741 -2.88881 0
M  V30 3607 C 323.292 5.57094 -1.98494 0
M  V30 3608 C 322.654 6.41655 -2.90617 0
M  V30 3609 H 318.753 0.771922 0.125144 0
M  V30 3610 H 321.337 1.92266 -0.306883 0
M  V30 3611 H 319.508 3.51946 1.64282 0
M  V30 3612 H 321.24 3.74354 1.53758 0
M  V30 3613 H 317.995 4.73071 -0.223827 0
M  V30 3614 H 318.419 6.38182 -2.25948 0
M  V30 3615 H 323.061 4.21538 -0.326408 0
M  V30 3616 H 320.779 7.23641 -3.5968 0
M  V30 3617 H 324.365 5.45466 -2.0238 0
M  V30 3618 H 323.245 6.94755 -3.63711 0
M  V30 3619 N 320.748 -0.0735177 1.57428 0
M  V30 3620 C 322.164 -0.428264 1.53747 0
M  V30 3621 C 322.364 -1.79272 0.91998 0
M  V30 3622 O 321.42 -2.47051 0.521745 0
M  V30 3623 C 322.733 -0.370914 2.98404 0
M  V30 3624 C 324.281 -0.451224 3.0973 0
M  V30 3625 C 324.756 -0.4238 4.56035 0
M  V30 3626 N 326.247 -0.483925 4.60665 0
M  V30 3627 C 326.982 -0.484891 5.71346 0
M  V30 3628 N 326.478 -0.440775 6.91396 0
M  V30 3629 N 328.271 -0.531319 5.59583 0
M  V30 3630 H 320.422 0.819949 1.95935 0
M  V30 3631 H 322.685 0.307493 0.896745 0
M  V30 3632 H 322.391 0.564956 3.47133 0
M  V30 3633 H 322.265 -1.18176 3.5821 0
M  V30 3634 H 324.652 -1.37752 2.60976 0
M  V30 3635 H 324.733 0.388167 2.52838 0
M  V30 3636 H 324.377 0.498638 5.05446 0
M  V30 3637 H 324.307 -1.2807 5.10789 0
M  V30 3638 H 326.798 -0.522338 3.74273 0
M  V30 3639 H 327.111 -0.44539 7.71515 0
M  V30 3640 H 325.456 -0.40749 6.93804 0
M  V30 3641 H 328.647 -0.563464 4.64696 0
M  V30 3642 H 328.82 -0.528603 6.4584 0
M  V30 3643 N 322.226 -1.5378 -0.344866 0
M  V30 3644 C 323.189 -1.80981 -1.40637 0
M  V30 3645 C 324.189 -0.680816 -1.45676 0
M  V30 3646 O 325.379 -0.949095 -1.46075 0
M  V30 3647 C 322.511 -1.95063 -2.79577 0
M  V30 3648 H 323.704 -2.75803 -1.17783 0
M  V30 3649 H 321.257 -1.45173 -0.579181 0
M  V30 3650 H 321.992 -1.02379 -3.07716 0
M  V30 3651 H 321.777 -2.77198 -2.77315 0
M  V30 3652 H 323.267 -2.17629 -3.56409 0
M  V30 3653 N 323.704 0.605807 -1.45491 0
M  V30 3654 C 325.12 0.926751 -1.29936 0
M  V30 3655 C 325.32 1.99896 -0.253706 0
M  V30 3656 O 324.376 2.50038 0.351737 0
M  V30 3657 C 325.689 1.36599 -2.67883 0
M  V30 3658 C 327.237 1.4801 -2.75793 0
M  V30 3659 C 327.712 1.95309 -4.14268 0
M  V30 3660 N 329.203 2.0254 -4.16571 0
M  V30 3661 C 329.938 2.40363 -5.20589 0
M  V30 3662 N 329.434 2.77143 -6.34952 0
M  V30 3663 N 331.227 2.40718 -5.07948 0
M  V30 3664 H 323.378 -0.102862 -2.12151 0
M  V30 3665 H 325.641 0.016639 -0.947854 0
M  V30 3666 H 325.347 0.652306 -3.45598 0
M  V30 3667 H 325.221 2.33215 -2.96463 0
M  V30 3668 H 327.608 2.1847 -1.98381 0
M  V30 3669 H 327.689 0.497041 -2.50925 0
M  V30 3670 H 327.333 1.25436 -4.92167 0
M  V30 3671 H 327.263 2.94532 -4.3653 0
M  V30 3672 H 329.754 1.76699 -3.34045 0
M  V30 3673 H 330.067 3.0489 -7.10114 0
M  V30 3674 H 328.412 2.74834 -6.3835 0
M  V30 3675 H 331.603 2.11392 -4.1765 0
M  V30 3676 H 331.776 2.69869 -5.89131 0
M  V30 3677 N 325.182 1.32811 0.848464 0
M  V30 3678 C 326.459 1.14334 1.58704 0
M  V30 3679 C 326.839 -0.293948 2.09043 0
M  V30 3680 O 326.187 -1.29153 1.88499 0
M  V30 3681 C 326.397 2.17626 2.72837 0
M  V30 3682 C 327.745 2.51282 3.42261 0
M  V30 3683 O 328.769 2.16219 2.83068 0
M  V30 3684 O 327.628 3.11413 4.49093 0
M  V30 3685 H 324.722 0.441601 0.699226 0
M  V30 3686 H 327.268 1.44362 0.892053 0
M  V30 3687 H 326.04 3.14211 2.3321 0
M  V30 3688 H 325.663 1.88628 3.50008 0
M  V30 3689 N 326.66 -1.06551 1.16123 0
M  V30 3690 C 327.607 -2.13961 0.865414 0
M  V30 3691 C 328.577 -1.65066 -0.185055 0
M  V30 3692 O 329.762 -1.90732 -0.05083 0
M  V30 3693 C 326.902 -3.43113 0.369776 0
M  V30 3694 C 326.015 -4.05756 1.48276 0
M  V30 3695 C 325.15 -5.22773 0.942414 0
M  V30 3696 C 324.189 -5.77395 2.03179 0
M  V30 3697 N 323.326 -6.85731 1.50721 0
M  V30 3698 H 328.166 -2.38605 1.78527 0
M  V30 3699 H 325.703 -1.17072 0.890646 0
M  V30 3700 H 327.661 -4.17151 0.0640643 0
M  V30 3701 H 326.291 -3.18695 -0.513143 0
M  V30 3702 H 325.343 -3.29292 1.9045 0
M  V30 3703 H 326.655 -4.42351 2.30493 0
M  V30 3704 H 325.809 -6.03827 0.589729 0
M  V30 3705 H 324.548 -4.87618 0.0895191 0
M  V30 3706 H 323.553 -4.94981 2.3932 0
M  V30 3707 H 324.778 -6.14603 2.8886 0
M  V30 3708 H 322.724 -6.52499 0.676811 0
M  V30 3709 H 322.641 -7.21254 2.26557 0
M  V30 3710 H 323.909 -7.7047 1.18303 0
M  V30 3711 N 328.138 -0.959301 -1.25041 0
M  V30 3712 C 329.368 -0.63303 -1.96663 0
M  V30 3713 C 329.776 0.800031 -1.71453 0
M  V30 3714 O 329.119 1.54736 -0.99008 0
M  V30 3715 C 329.181 -0.817523 -3.50081 0
M  V30 3716 C 328.845 -2.22863 -3.98975 0
M  V30 3717 C 329.842 -3.20569 -4.09306 0
M  V30 3718 C 327.527 -2.55407 -4.32519 0
M  V30 3719 C 329.521 -4.4891 -4.52503 0
M  V30 3720 C 327.208 -3.83976 -4.754 0
M  V30 3721 C 328.206 -4.8054 -4.85356 0
M  V30 3722 O 327.894 -6.06817 -5.27284 0
M  V30 3723 H 327.626 -0.235866 -0.633516 0
M  V30 3724 H 330.18 -1.2874 -1.60047 0
M  V30 3725 H 328.41 -0.105992 -3.86555 0
M  V30 3726 H 330.099 -0.491604 -4.02912 0
M  V30 3727 H 330.865 -2.96753 -3.83618 0
M  V30 3728 H 326.744 -1.8097 -4.23994 0
M  V30 3729 H 330.288 -5.24283 -4.60188 0
M  V30 3730 H 326.185 -4.07596 -5.00535 0
M  V30 3731 H 326.953 -6.10262 -5.45457 0
M  V30 3732 N 329.616 1.39756 -0.72842 0
M  V30 3733 C 330.864 2.00248 -0.272946 0
M  V30 3734 C 331.185 1.58077 1.14178 0
M  V30 3735 O 330.455 0.826014 1.77634 0
M  V30 3736 H 329.035 0.740554 -0.0979247 0
M  V30 3737 H 331.697 1.70903 -0.936912 0
M  V30 3738 H 330.793 3.10495 -0.316142 0
M  V30 3739 N 331.094 0.475555 1.50254 0
M  V30 3740 C 332.042 -0.330276 2.30243 0
M  V30 3741 C 333.036 -0.986306 1.37726 0
M  V30 3742 O 334.242 -0.9169 1.54897 0
M  V30 3743 H 330.617 -0.125353 0.741479 0
M  V30 3744 H 332.588 0.364702 2.96163 0
M  V30 3745 C 331.337 -1.39704 3.18399 0
M  V30 3746 H 330.66 -0.901621 3.89501 0
M  V30 3747 H 332.1 -1.93336 3.77355 0
M  V30 3748 C 330.559 -2.4014 2.36293 0
M  V30 3749 O 331.089 -3.45504 2.04914 0
M  V30 3750 N 329.295 -2.1197 1.98789 0
M  V30 3751 H 328.842 -1.2631 2.24507 0
M  V30 3752 H 328.8 -2.79403 1.44157 0
M  V30 3753 N 332.573 -1.56217 0.208337 0
M  V30 3754 C 333.483 -2.23316 -0.718836 0
M  V30 3755 C 334.499 -1.23648 -1.22422 0
M  V30 3756 O 335.675 -1.56423 -1.26861 0
M  V30 3757 C 332.74 -2.88968 -1.91568 0
M  V30 3758 C 331.801 -4.03943 -1.45357 0
M  V30 3759 C 331.034 -4.66455 -2.59337 0
M  V30 3760 O 331.257 -4.27919 -3.77149 0
M  V30 3761 O 330.191 -5.55686 -2.31293 0
M  V30 3762 H 334.017 -3.03182 -0.177315 0
M  V30 3763 H 331.602 -1.49384 -0.0215402 0
M  V30 3764 H 333.484 -3.30455 -2.61491 0
M  V30 3765 H 332.159 -2.12071 -2.44556 0
M  V30 3766 H 331.066 -3.67052 -0.722746 0
M  V30 3767 H 332.399 -4.82543 -0.970219 0
M  V30 3768 N 334.051 0.0651679 -1.57465 0
M  V30 3769 C 335.299 0.761555 -1.87202 0
M  V30 3770 C 335.62 1.77778 -0.801243 0
M  V30 3771 O 334.89 1.95166 0.16937 0
M  V30 3772 H 333.47 0.284251 -0.690804 0
M  V30 3773 H 336.132 0.0396827 -1.9486 0
M  V30 3774 H 335.228 1.27365 -2.84929 0
M  V30 3775 N 335.529 1.53961 0.336706 0
M  V30 3776 C 336.759 1.75229 1.09446 0
M  V30 3777 C 337.167 0.494602 1.82621 0
M  V30 3778 O 336.51 -0.543764 1.75468 0
M  V30 3779 C 336.572 2.88288 2.1478 0
M  V30 3780 C 336.236 4.27656 1.6112 0
M  V30 3781 C 337.233 5.08981 1.0599 0
M  V30 3782 C 334.918 4.74161 1.6576 0
M  V30 3783 C 336.912 6.34916 0.562129 0
M  V30 3784 C 334.599 6.00067 1.15595 0
M  V30 3785 C 335.597 6.80278 0.609147 0
M  V30 3786 O 335.285 8.03818 0.114999 0
M  V30 3787 H 335.017 0.588881 0.331956 0
M  V30 3788 H 337.571 2.01614 0.392566 0
M  V30 3789 H 335.801 2.57443 2.88548 0
M  V30 3790 H 337.49 2.97461 2.76174 0
M  V30 3791 H 338.256 4.74213 1.01722 0
M  V30 3792 H 334.135 4.11781 2.07261 0
M  V30 3793 H 337.679 6.9747 0.134668 0
M  V30 3794 H 333.576 6.3433 1.19566 0
M  V30 3795 H 334.344 8.18172 0.231651 0
M  V30 3796 N 337.007 -0.598083 1.45811 0
M  V30 3797 C 338.256 -1.35295 1.49594 0
M  V30 3798 C 338.569 -1.95057 0.145679 0
M  V30 3799 O 339.775 -2.71431 0.0612099 0
M  V30 3800 C 338.231 -2.45124 2.63519 0
M  V30 3801 C 337.839 -1.91732 4.04899 0
M  V30 3802 C 339.583 -3.2205 2.76558 0
M  V30 3803 C 337.49 -2.991 5.1019 0
M  V30 3804 H 336.42 -0.508552 0.556679 0
M  V30 3805 H 339.071 -0.639977 1.71978 0
M  V30 3806 H 337.453 -3.19149 2.34435 0
M  V30 3807 H 338.627 -1.24352 4.43704 0
M  V30 3808 H 336.942 -1.27522 3.96393 0
M  V30 3809 H 339.539 -4.0215 3.52391 0
M  V30 3810 H 339.882 -3.73663 1.83526 0
M  V30 3811 H 340.415 -2.55127 3.05213 0
M  V30 3812 H 337.154 -2.52393 6.04961 0
M  V30 3813 H 336.674 -3.65017 4.75944 0
M  V30 3814 H 338.353 -3.63318 5.35359 0
M  V30 3815 N 338.485 -1.33259 -0.841409 0
M  V30 3816 C 339.896 -1.22066 -1.41269 0
M  V30 3817 C 340.247 0.161479 -1.95534 0
M  V30 3818 O 339.372 1.06094 -1.88608 0
M  V30 3819 C 339.967 -2.20996 -2.568 0
M  V30 3820 C 338.526 -2.13649 -3.09888 0
M  V30 3821 C 337.673 -2.08623 -1.82679 0
M  V30 3822 H 340.624 -1.44895 -0.647395 0
M  V30 3823 H 340.645 -1.81621 -3.34356 0
M  V30 3824 H 340.157 -3.2158 -2.17274 0
M  V30 3825 H 338.258 -1.16359 -3.53965 0
M  V30 3826 H 338.371 -3.04079 -3.70234 0
M  V30 3827 H 336.735 -1.54061 -2.02824 0
M  V30 3828 H 337.518 -3.1101 -1.45353 0
M  V30 3829 N 339.963 1.05934 -1.16686 0
M  V30 3830 C 341.188 1.83029 -0.975455 0
M  V30 3831 C 341.613 1.82096 0.471452 0
M  V30 3832 O 340.971 1.22443 1.33706 0
M  V30 3833 C 341.019 3.27372 -1.51195 0
M  V30 3834 O 340.123 4.06054 -0.720701 0
M  V30 3835 H 339.464 0.566194 -0.346872 0
M  V30 3836 H 341.994 1.33541 -1.55009 0
M  V30 3837 H 342.004 3.78186 -1.53099 0
M  V30 3838 H 340.679 3.27366 -2.56523 0
M  V30 3839 H 339.256 3.64812 -0.772458 0
M  V30 3840 N 341.441 0.965919 1.2453 0
M  V30 3841 C 342.389 0.486506 2.27455 0
M  V30 3842 C 343.383 -0.449041 1.6334 0
M  V30 3843 O 344.589 -0.324527 1.7705 0
M  V30 3844 H 340.964 0.138857 0.739069 0
M  V30 3845 H 342.935 1.3666 2.65267 0
M  V30 3846 C 341.684 -0.209481 3.47068 0
M  V30 3847 H 341.007 0.50129 3.96645 0
M  V30 3848 H 342.447 -0.508775 4.20936 0
M  V30 3849 C 340.906 -1.43586 3.0477 0
M  V30 3850 O 341.436 -2.53299 3.11773 0
M  V30 3851 N 339.642 -1.30126 2.59838 0
M  V30 3852 H 339.189 -0.408583 2.54339 0
M  V30 3853 H 339.147 -2.12294 2.31902 0
M  V30 3854 N 342.919 -1.39368 0.735821 0
M  V30 3855 C 344.149 -2.04498 0.293967 0
M  V30 3856 C 344.557 -1.55593 -1.07645 0
M  V30 3857 O 343.9 -0.716324 -1.69158 0
M  V30 3858 C 343.962 -3.58836 0.218342 0
M  V30 3859 C 343.626 -4.30721 1.52736 0
M  V30 3860 C 344.623 -4.57305 2.47322 0
M  V30 3861 C 342.308 -4.69251 1.79189 0
M  V30 3862 C 344.302 -5.21429 3.66593 0
M  V30 3863 C 341.989 -5.33104 2.98737 0
M  V30 3864 C 342.987 -5.59125 3.9226 0
M  V30 3865 O 342.675 -6.21653 5.09708 0
M  V30 3866 H 342.407 -0.664118 0.126189 0
M  V30 3867 H 344.961 -1.79385 1.00051 0
M  V30 3868 H 343.191 -3.8285 -0.544314 0
M  V30 3869 H 344.88 -4.05447 -0.191626 0
M  V30 3870 H 345.646 -4.27983 2.28156 0
M  V30 3871 H 341.525 -4.48354 1.07239 0
M  V30 3872 H 345.069 -5.41656 4.39607 0
M  V30 3873 H 340.966 -5.61846 3.17803 0
M  V30 3874 H 341.734 -6.40146 5.10054 0
M  V30 3875 N 344.397 -0.483516 -1.5 0
M  V30 3876 C 345.643 0.0672592 -2.02688 0
M  V30 3877 C 345.976 1.38247 -1.36387 0
M  V30 3878 O 345.251 1.88131 -0.493675 0
M  V30 3879 C 345.534 0.238109 -3.59312 0
M  V30 3880 C 345.387 -1.099 -4.36168 0
M  V30 3881 C 346.706 0.986916 -4.28892 0
M  V30 3882 H 343.825 0.0229696 -0.736642 0
M  V30 3883 H 346.467 -0.631527 -1.79197 0
M  V30 3884 H 344.617 0.8333 -3.79458 0
M  V30 3885 H 346.289 -1.73172 -4.27562 0
M  V30 3886 H 344.532 -1.69261 -3.99416 0
M  V30 3887 H 345.203 -0.932954 -5.44059 0
M  V30 3888 H 347.679 0.482302 -4.13295 0
M  V30 3889 H 346.555 1.07527 -5.38265 0
M  V30 3890 H 346.816 2.0265 -3.92919 0
M  V30 3891 N 345.875 1.56104 -0.216619 0
M  V30 3892 C 347.103 2.02563 0.421413 0
M  V30 3893 C 347.518 1.0965 1.53695 0
M  V30 3894 O 346.875 0.10521 1.82196 0
M  V30 3895 C 346.926 3.48584 0.957665 0
M  V30 3896 O 346.647 4.37953 -0.113389 0
M  V30 3897 C 348.148 4.10664 1.66943 0
M  V30 3898 H 345.368 0.662944 0.103665 0
M  V30 3899 H 347.912 2.01793 -0.331629 0
M  V30 3900 H 346.067 3.49985 1.661 0
M  V30 3901 H 346.481 5.23704 0.288932 0
M  V30 3902 H 347.955 5.14622 1.99671 0
M  V30 3903 H 348.432 3.55373 2.58083 0
M  V30 3904 H 349.038 4.13098 1.01142 0
M  V30 3905 N 347.353 -0.0568162 1.57498 0
M  V30 3906 C 348.601 -0.751617 1.87604 0
M  V30 3907 C 348.922 -1.77351 0.81066 0
M  V30 3908 O 348.192 -1.95254 -0.159018 0
M  V30 3909 H 346.772 -0.280583 0.692302 0
M  V30 3910 H 349.434 -0.0293483 1.94878 0
M  V30 3911 H 348.53 -1.25852 2.856 0
M  V30 3912 N 348.832 -1.54138 -0.328536 0
M  V30 3913 C 349.779 -1.83176 -1.40411 0
M  V30 3914 C 350.749 -0.678494 -1.5161 0
M  V30 3915 O 351.934 -0.92443 -1.6691 0
M  V30 3916 C 349.074 -2.06035 -2.76846 0
M  V30 3917 C 348.187 -3.33727 -2.74318 0
M  V30 3918 C 347.322 -3.46574 -4.02567 0
M  V30 3919 C 346.361 -4.68159 -3.94327 0
M  V30 3920 N 345.498 -4.77959 -5.14296 0
M  V30 3921 H 350.338 -2.74938 -1.14948 0
M  V30 3922 H 347.875 -1.36166 -0.556538 0
M  V30 3923 H 349.833 -2.1728 -3.56153 0
M  V30 3924 H 348.463 -1.1757 -3.00628 0
M  V30 3925 H 347.515 -3.31246 -1.8703 0
M  V30 3926 H 348.827 -4.23139 -2.64111 0
M  V30 3927 H 347.981 -3.57333 -4.90304 0
M  V30 3928 H 346.72 -2.55245 -4.15574 0
M  V30 3929 H 345.725 -4.57461 -3.04974 0
M  V30 3930 H 346.95 -5.60868 -3.82889 0
M  V30 3931 H 344.896 -3.89544 -5.27818 0
M  V30 3932 H 344.813 -5.6133 -5.06404 0
M  V30 3933 H 346.081 -4.93044 -6.03761 0
M  V30 3934 N 350.31 0.590341 -1.46126 0
M  V30 3935 C 351.257 1.69994 -1.56111 0
M  V30 3936 C 352.227 1.61065 -0.405867 0
M  V30 3937 O 353.412 1.8039 -0.621613 0
M  V30 3938 C 350.552 3.08326 -1.55013 0
M  V30 3939 C 349.665 3.27936 -2.81215 0
M  V30 3940 C 348.8 4.56473 -2.71673 0
M  V30 3941 C 347.839 4.694 -3.92849 0
M  V30 3942 N 346.976 5.89254 -3.81738 0
M  V30 3943 H 351.816 1.60797 -2.50895 0
M  V30 3944 H 349.353 0.783799 -1.24479 0
M  V30 3945 H 351.311 3.88383 -1.52362 0
M  V30 3946 H 349.941 3.16439 -0.637667 0
M  V30 3947 H 348.993 2.41536 -2.93879 0
M  V30 3948 H 350.305 3.33357 -3.71045 0
M  V30 3949 H 349.459 5.44748 -2.67085 0
M  V30 3950 H 348.198 4.53477 -1.7947 0
M  V30 3951 H 347.203 3.79544 -3.97777 0
M  V30 3952 H 348.428 4.7418 -4.86138 0
M  V30 3953 H 346.374 5.87271 -2.92317 0
M  V30 3954 H 346.291 5.95911 -4.65217 0
M  V30 3955 H 347.559 6.79981 -3.81112 0
M  V30 3956 N 351.788 1.33704 0.83433 0
M  V30 3957 C 353.013 1.28615 1.62705 0
M  V30 3958 C 353.438 -0.139242 1.87584 0
M  V30 3959 O 352.796 -1.09734 1.4432 0
M  V30 3960 C 352.844 2.07139 2.95171 0
M  V30 3961 O 351.948 1.4331 3.86699 0
M  V30 3962 H 351.289 0.44226 0.49528 0
M  V30 3963 H 353.819 1.76335 1.03766 0
M  V30 3964 H 353.829 2.18073 3.44831 0
M  V30 3965 H 352.504 3.10779 2.76386 0
M  V30 3966 H 351.081 1.4105 3.45195 0
M  V30 3967 N 353.266 -1.05314 1.17247 0
M  V30 3968 C 354.214 -2.15137 0.884238 0
M  V30 3969 C 355.208 -1.68729 -0.15063 0
M  V30 3970 O 356.414 -1.8 -0.00366673 0
M  V30 3971 H 352.789 -0.702471 0.2684 0
M  V30 3972 H 354.76 -2.36652 1.81764 0
M  V30 3973 C 353.509 -3.45243 0.412659 0
M  V30 3974 H 352.832 -3.81352 1.20043 0
M  V30 3975 H 354.272 -4.23263 0.249858 0
M  V30 3976 C 352.731 -3.25487 -0.86948 0
M  V30 3977 O 353.261 -3.51938 -1.93655 0
M  V30 3978 N 351.467 -2.78875 -0.817147 0
M  V30 3979 H 351.014 -2.57549 0.0514211 0
M  V30 3980 H 350.972 -2.66036 -1.67547 0
M  V30 3981 N 354.744 -0.972509 -1.24016 0
M  V30 3982 C 355.692 -0.498562 -2.27194 0
M  V30 3983 C 356.686 0.440372 -1.63576 0
M  V30 3984 O 357.892 0.315133 -1.7722 0
M  V30 3985 H 354.267 -0.142775 -0.738322 0
M  V30 3986 H 356.238 -1.38065 -2.64539 0
M  V30 3987 C 354.987 0.191072 -3.47175 0
M  V30 3988 H 354.31 -0.522318 -3.96373 0
M  V30 3989 H 355.75 0.486445 -4.212 0
M  V30 3990 C 354.209 1.41967 -3.05527 0
M  V30 3991 O 354.739 2.51642 -3.13112 0
M  V30 3992 N 352.945 1.28746 -2.60524 0
M  V30 3993 H 352.492 0.395089 -2.54552 0
M  V30 3994 H 352.45 2.11061 -2.33025 0
M  V30 3995 N 356.222 1.38976 -0.743202 0
M  V30 3996 C 357.152 2.33171 -0.123873 0
M  V30 3997 C 358.133 1.54336 0.71516 0
M  V30 3998 O 359.318 1.82696 0.658467 0
M  V30 3999 C 356.448 3.38474 0.777978 0
M  V30 4000 C 355.402 4.27979 0.0424758 0
M  V30 4001 C 354.728 5.2405 1.06189 0
M  V30 4002 C 356.028 5.10155 -1.1198 0
M  V30 4003 H 357.722 2.85213 -0.910709 0
M  V30 4004 H 355.268 1.37133 -0.439388 0
M  V30 4005 H 357.221 4.03328 1.22084 0
M  V30 4006 H 355.945 2.84891 1.59702 0
M  V30 4007 H 354.604 3.64616 -0.380853 0
M  V30 4008 H 354.252 4.66758 1.87472 0
M  V30 4009 H 353.952 5.84785 0.574485 0
M  V30 4010 H 355.476 5.9178 1.50428 0
M  V30 4011 H 356.89 5.68307 -0.75499 0
M  V30 4012 H 355.287 5.80073 -1.53738 0
M  V30 4013 H 356.357 4.44504 -1.93764 0
M  V30 4014 N 357.7 0.491464 1.49741 0
M  V30 4015 C 358.977 -0.118984 1.95238 0
M  V30 4016 C 359.357 -1.55044 1.43264 0
M  V30 4017 O 358.705 -2.19287 0.642287 0
M  V30 4018 C 358.915 -0.0414187 3.48975 0
M  V30 4019 C 360.263 -0.220133 4.24029 0
M  V30 4020 O 361.287 -0.117055 3.56008 0
M  V30 4021 O 360.146 -0.430567 5.44801 0
M  V30 4022 H 357.24 -0.100536 0.820866 0
M  V30 4023 H 359.786 0.553322 1.60426 0
M  V30 4024 H 358.558 0.957214 3.79412 0
M  V30 4025 H 358.181 -0.754292 3.9038 0
M  V30 4026 N 359.178 -1.55987 0.224894 0
M  V30 4027 C 360.11 -2.17722 -0.716224 0
M  V30 4028 C 361.123 -1.14723 -1.15509 0
M  V30 4029 O 362.312 -1.41688 -1.08567 0
M  V30 4030 C 359.412 -2.74873 -1.98238 0
M  V30 4031 C 358.585 -4.03074 -1.69853 0
M  V30 4032 C 357.644 -4.44757 -2.81208 0
M  V30 4033 O 356.67 -5.11587 -2.49534 0
M  V30 4034 N 357.872 -4.10716 -4.10235 0
M  V30 4035 H 360.637 -2.99109 -0.188123 0
M  V30 4036 H 358.198 -1.6184 0.0440123 0
M  V30 4037 H 360.19 -2.99727 -2.7193 0
M  V30 4038 H 358.76 -1.9777 -2.42086 0
M  V30 4039 H 357.98 -3.86041 -0.797875 0
M  V30 4040 H 359.268 -4.86701 -1.48324 0
M  V30 4041 H 358.666 -3.57019 -4.38809 0
M  V30 4042 H 357.223 -4.40455 -4.80461 0
M  V30 4043 N 360.656 0.0484629 -1.57525 0
M  V30 4044 C 361.886 0.754326 -1.92337 0
M  V30 4045 C 362.294 1.70443 -0.82132 0
M  V30 4046 O 361.637 1.82466 0.21254 0
M  V30 4047 C 361.699 1.58231 -3.22805 0
M  V30 4048 C 361.363 0.799074 -4.4996 0
M  V30 4049 C 362.36 0.1079 -5.19788 0
M  V30 4050 C 360.045 0.759345 -4.96527 0
M  V30 4051 C 362.039 -0.612516 -6.3445 0
M  V30 4052 C 359.726 0.0351713 -6.1109 0
M  V30 4053 C 360.724 -0.649537 -6.79904 0
M  V30 4054 O 360.412 -1.36199 -7.92278 0
M  V30 4055 H 360.144 0.218257 -0.639797 0
M  V30 4056 H 362.698 0.0159295 -2.05394 0
M  V30 4057 H 360.928 2.36406 -3.06021 0
M  V30 4058 H 362.617 2.16898 -3.43089 0
M  V30 4059 H 363.383 0.129748 -4.84826 0
M  V30 4060 H 359.262 1.28177 -4.42822 0
M  V30 4061 H 362.806 -1.14751 -6.88097 0
M  V30 4062 H 358.703 0.0113314 -6.45499 0
M  V30 4063 H 359.471 -1.27366 -8.0853 0
M  V30 4064 N 362.134 1.5431 0.320358 0
M  V30 4065 C 363.044 1.86946 1.41734 0
M  V30 4066 C 364.06 0.761689 1.56443 0
M  V30 4067 O 365.236 1.05629 1.71477 0
M  V30 4068 C 362.301 2.09293 2.76401 0
M  V30 4069 C 361.362 3.33082 2.70841 0
M  V30 4070 C 360.595 3.54353 3.99086 0
M  V30 4071 O 360.818 2.79002 4.97508 0
M  V30 4072 O 359.752 4.47838 4.0215 0
M  V30 4073 H 363.578 2.80232 1.17062 0
M  V30 4074 H 361.163 1.40255 0.514673 0
M  V30 4075 H 363.045 2.25303 3.56113 0
M  V30 4076 H 361.72 1.19194 3.00956 0
M  V30 4077 H 360.627 3.22454 1.89668 0
M  V30 4078 H 361.96 4.23249 2.5124 0
M  V30 4079 N 363.613 -0.582584 1.46437 0
M  V30 4080 C 364.859 -1.34064 1.52965 0
M  V30 4081 C 365.214 -1.91566 0.178968 0
M  V30 4082 O 364.507 -1.73526 -0.812365 0
M  V30 4083 C 364.701 -2.48964 2.56421 0
M  V30 4084 C 364.53 -2.02717 4.01417 0
M  V30 4085 C 363.3 -1.87728 4.69134 0
M  V30 4086 C 365.498 -1.58675 4.8921 0
M  V30 4087 N 363.48 -1.35554 5.98747 0
M  V30 4088 C 364.851 -1.18093 6.08649 0
M  V30 4089 C 366.906 -1.46494 4.75861 0
M  V30 4090 C 365.609 -0.665427 7.16215 0
M  V30 4091 C 367.635 -0.96347 5.83499 0
M  V30 4092 C 366.997 -0.567432 7.02111 0
M  V30 4093 H 363.096 -0.483551 0.614575 0
M  V30 4094 H 365.68 -0.663309 1.83053 0
M  V30 4095 H 363.851 -3.1426 2.28244 0
M  V30 4096 H 365.583 -3.15913 2.52944 0
M  V30 4097 H 362.338 -2.09678 4.24655 0
M  V30 4098 H 362.762 -1.11628 6.67734 0
M  V30 4099 H 367.404 -1.75731 3.8455 0
M  V30 4100 H 365.122 -0.360639 8.07295 0
M  V30 4101 H 368.708 -0.873129 5.75211 0
M  V30 4102 H 367.588 -0.185389 7.83981 0
M  V30 4103 N 365.091 -1.34144 -0.827227 0
M  V30 4104 C 366.321 -1.29138 -1.61267 0
M  V30 4105 C 366.729 0.137597 -1.88699 0
M  V30 4106 O 366.072 1.09379 -1.47587 0
M  V30 4107 C 366.134 -2.0097 -2.9808 0
M  V30 4108 C 365.798 -3.50242 -2.93563 0
M  V30 4109 C 366.795 -4.4523 -2.68452 0
M  V30 4110 C 364.48 -3.92592 -3.13331 0
M  V30 4111 C 366.474 -5.80542 -2.63154 0
M  V30 4112 C 364.161 -5.28005 -3.07658 0
M  V30 4113 C 365.159 -6.21792 -2.82602 0
M  V30 4114 O 364.847 -7.54723 -2.76853 0
M  V30 4115 H 364.579 -0.445851 -0.508127 0
M  V30 4116 H 367.133 -1.77263 -1.03763 0
M  V30 4117 H 365.363 -1.47451 -3.57484 0
M  V30 4118 H 367.052 -1.89309 -3.5905 0
M  V30 4119 H 367.818 -4.13832 -2.52919 0
M  V30 4120 H 363.697 -3.19994 -3.31851 0
M  V30 4121 H 367.241 -6.53717 -2.43516 0
M  V30 4122 H 363.138 -5.59023 -3.22743 0
M  V30 4123 H 363.906 -7.64409 -2.92611 0
M  V30 4124 N 366.569 1.04691 -1.17803 0
M  V30 4125 C 367.809 1.79352 -0.980423 0
M  V30 4126 C 368.173 1.85853 0.481958 0
M  V30 4127 O 369.374 2.56656 0.798809 0
M  V30 4128 C 367.645 3.19088 -1.6099 0
M  V30 4129 S 369.204 4.10164 -1.55918 0
M  V30 4130 H 366.022 0.617631 -0.352211 0
M  V30 4131 H 368.624 1.25575 -1.49837 0
M  V30 4132 H 367.328 3.11962 -2.66661 0
M  V30 4133 H 366.859 3.77941 -1.09197 0
M  V30 4134 H 368.874 4.92907 -0.570685 0
M  V30 4135 N 368.047 0.979072 1.23499 0
M  V30 4136 C 369.463 0.687475 1.44034 0
M  V30 4137 C 369.663 -0.746801 1.8715 0
M  V30 4138 O 368.719 -1.51939 2.0167 0
M  V30 4139 C 370.032 1.68127 2.49307 0
M  V30 4140 C 371.58 1.69516 2.63122 0
M  V30 4141 C 372.055 2.67723 3.71603 0
M  V30 4142 N 373.546 2.66233 3.79044 0
M  V30 4143 C 374.281 3.38891 4.62537 0
M  V30 4144 N 373.777 4.21103 5.50131 0
M  V30 4145 N 375.57 3.27661 4.56721 0
M  V30 4146 H 367.721 1.90559 0.938135 0
M  V30 4147 H 369.984 0.821051 0.473897 0
M  V30 4148 H 369.69 2.70693 2.2454 0
M  V30 4149 H 369.564 1.46306 3.4767 0
M  V30 4150 H 371.951 0.676561 2.8724 0
M  V30 4151 H 372.032 1.95404 1.65079 0
M  V30 4152 H 371.676 3.69724 3.48233 0
M  V30 4153 H 371.606 2.39111 4.69184 0
M  V30 4154 H 374.097 2.06568 3.16446 0
M  V30 4155 H 374.41 4.73403 6.10827 0
M  V30 4156 H 372.755 4.25195 5.49759 0
M  V30 4157 H 375.946 2.62887 3.87309 0
M  V30 4158 H 376.119 3.84547 5.21562 0
M  V30 4159 N 369.525 -1.3858 0.750561 0
M  V30 4160 C 370.473 -2.32339 0.110162 0
M  V30 4161 C 371.467 -1.53864 -0.708674 0
M  V30 4162 O 372.673 -1.69417 -0.608112 0
M  V30 4163 H 369.048 -0.751812 0.0168275 0
M  V30 4164 H 371.019 -2.83959 0.917053 0
M  V30 4165 C 369.768 -3.39043 -0.771067 0
M  V30 4166 H 369.091 -3.99517 -0.150374 0
M  V30 4167 H 370.531 -4.07061 -1.1865 0
M  V30 4168 C 368.99 -2.77365 -1.91234 0
M  V30 4169 O 369.52 -2.66434 -3.00626 0
M  V30 4170 N 367.726 -2.35219 -1.70646 0
M  V30 4171 H 367.273 -2.4431 -0.81673 0
M  V30 4172 H 367.231 -1.94294 -2.47178 0
M  V30 4173 N 371.003 -0.499398 -1.49478 0
M  V30 4174 C 371.936 0.326491 -2.25852 0
M  V30 4175 C 372.914 0.971776 -1.30366 0
M  V30 4176 O 374.098 1.00219 -1.59651 0
M  V30 4177 C 371.225 1.45969 -3.05632 0
M  V30 4178 C 370.271 0.928938 -4.16261 0
M  V30 4179 S 371.104 -0.179012 -5.35201 0
M  V30 4180 C 372.26 0.957389 -6.18534 0
M  V30 4181 H 372.493 -0.321746 -2.95554 0
M  V30 4182 H 370.026 -0.284674 -1.51753 0
M  V30 4183 H 371.984 2.109 -3.52181 0
M  V30 4184 H 370.645 2.07953 -2.35402 0
M  V30 4185 H 369.838 1.77813 -4.71592 0
M  V30 4186 H 369.44 0.356869 -3.72293 0
M  V30 4187 H 371.732 1.86296 -6.51383 0
M  V30 4188 H 372.675 0.442733 -7.06715 0
M  V30 4189 H 373.083 1.224 -5.5107 0
M  V30 4190 N 372.481 1.55866 -0.233164 0
M  V30 4191 C 373.429 2.22176 0.68851 0
M  V30 4192 C 374.423 1.20487 1.19076 0
M  V30 4193 O 375.629 1.38536 1.14925 0
M  V30 4194 H 372.004 0.712511 0.240483 0
M  V30 4195 H 373.975 2.98212 0.105935 0
M  V30 4196 C 372.724 2.92446 1.88071 0
M  V30 4197 H 372.047 3.70458 1.50337 0
M  V30 4198 H 373.487 3.42226 2.50314 0
M  V30 4199 C 371.946 1.95555 2.74335 0
M  V30 4200 O 372.476 1.47986 3.73447 0
M  V30 4201 N 370.682 1.62953 2.40613 0
M  V30 4202 H 370.229 2.01831 1.60069 0
M  V30 4203 H 370.187 0.983886 2.98609 0
M  V30 4204 N 373.959 -0.0401083 1.57549 0
M  V30 4205 C 375.375 -0.395556 1.54621 0
M  V30 4206 C 375.575 -1.77281 0.957799 0
M  V30 4207 O 374.631 -2.45888 0.574031 0
M  V30 4208 C 375.944 -0.307535 2.99123 0
M  V30 4209 C 377.492 -0.385425 3.10618 0
M  V30 4210 C 377.967 -0.326973 4.56831 0
M  V30 4211 N 379.458 -0.386102 4.61588 0
M  V30 4212 C 380.193 -0.363591 5.72246 0
M  V30 4213 N 379.689 -0.29402 6.92176 0
M  V30 4214 N 381.482 -0.412503 5.60584 0
M  V30 4215 H 373.633 0.861325 1.94152 0
M  V30 4216 H 375.896 0.326445 0.890021 0
M  V30 4217 H 375.602 0.638461 3.45856 0
M  V30 4218 H 375.476 -1.10552 3.60636 0
M  V30 4219 H 377.863 -1.32185 2.63839 0
M  V30 4220 H 377.944 0.44171 2.51957 0
M  V30 4221 H 377.588 0.605738 5.04275 0
M  V30 4222 H 377.518 -1.17207 5.13391 0
M  V30 4223 H 380.009 -0.442832 3.75296 0
M  V30 4224 H 380.322 -0.28164 7.72287 0
M  V30 4225 H 378.667 -0.260232 6.94513 0
M  V30 4226 H 381.858 -0.464769 4.65787 0
M  V30 4227 H 382.031 -0.391492 6.46816 0
M  V30 4228 N 375.437 -1.54477 -0.31217 0
M  V30 4229 C 376.662 -1.77526 -1.07235 0
M  V30 4230 C 377.087 -0.527775 -1.80544 0
M  V30 4231 O 376.445 0.52121 -1.73646 0
M  V30 4232 C 376.493 -2.97535 -2.03728 0
M  V30 4233 O 375.597 -2.69878 -3.11833 0
M  V30 4234 H 374.938 -0.58792 -0.30862 0
M  V30 4235 H 377.468 -2.01532 -0.352993 0
M  V30 4236 H 377.478 -3.25198 -2.46395 0
M  V30 4237 H 376.153 -3.87996 -1.49774 0
M  V30 4238 H 374.73 -2.53199 -2.7376 0
M  V30 4239 N 376.915 0.57481 -1.46744 0
M  V30 4240 C 377.862 1.68329 -1.57905 0
M  V30 4241 C 378.832 1.60625 -0.422927 0
M  V30 4242 O 380.017 1.79721 -0.640711 0
M  V30 4243 C 377.157 3.06665 -1.58274 0
M  V30 4244 C 376.27 3.24935 -2.84678 0
M  V30 4245 C 375.405 4.53566 -2.76499 0
M  V30 4246 C 374.444 4.65207 -3.97806 0
M  V30 4247 N 373.581 5.85172 -3.87967 0
M  V30 4248 H 378.421 1.58127 -2.52587 0
M  V30 4249 H 375.958 0.770552 -1.25303 0
M  V30 4250 H 377.916 3.86745 -1.56473 0
M  V30 4251 H 376.546 3.15745 -0.671194 0
M  V30 4252 H 375.598 2.38405 -2.96424 0
M  V30 4253 H 376.91 3.29403 -3.7456 0
M  V30 4254 H 376.064 5.41885 -2.72848 0
M  V30 4255 H 374.803 4.51548 -1.8427 0
M  V30 4256 H 373.808 3.75304 -4.0178 0
M  V30 4257 H 375.033 4.68997 -4.9114 0
M  V30 4258 H 372.979 5.84137 -2.98529 0
M  V30 4259 H 372.896 5.90943 -4.71511 0
M  V30 4260 H 374.164 6.759 -3.88303 0
M  V30 4261 N 378.394 1.34581 0.820102 0
M  V30 4262 C 379.357 1.2628 1.91275 0
M  V30 4263 C 380.357 0.177344 1.59819 0
M  V30 4264 O 381.547 0.430156 1.68806 0
M  V30 4265 C 378.679 0.950327 3.27386 0
M  V30 4266 H 379.872 2.23421 2.00057 0
M  V30 4267 H 377.425 1.1891 1.0144 0
M  V30 4268 H 378.16 -0.0177938 3.24295 0
M  V30 4269 H 377.945 1.73549 3.51601 0
M  V30 4270 H 379.435 0.917492 4.07396 0
M  V30 4271 N 379.872 -1.04064 1.18357 0
M  V30 4272 C 380.782 -2.15569 0.925596 0
M  V30 4273 C 381.798 -1.7365 -0.110295 0
M  V30 4274 O 382.974 -2.01273 0.0716218 0
M  V30 4275 C 380.039 -3.43704 0.454836 0
M  V30 4276 C 379.1 -4.00004 1.55869 0
M  V30 4277 C 378.333 -5.22023 1.1103 0
M  V30 4278 O 378.556 -5.70392 -0.0309756 0
M  V30 4279 O 377.49 -5.70856 1.90805 0
M  V30 4280 H 381.316 -2.40187 1.8586 0
M  V30 4281 H 378.901 -1.1402 0.965394 0
M  V30 4282 H 380.783 -4.20923 0.200382 0
M  V30 4283 H 379.458 -3.20559 -0.449876 0
M  V30 4284 H 378.365 -3.24172 1.86716 0
M  V30 4285 H 379.698 -4.2749 2.43953 0
M  V30 4286 N 381.35 -0.985608 -1.22978 0
M  V30 4287 C 382.282 -0.488154 -2.23941 0
M  V30 4288 C 383.295 0.41282 -1.57479 0
M  V30 4289 O 384.484 0.216121 -1.77187 0
M  V30 4290 C 381.584 0.312611 -3.37455 0
M  V30 4291 C 380.757 -0.582741 -4.33501 0
M  V30 4292 C 379.816 0.165064 -5.25941 0
M  V30 4293 O 378.842 -0.447077 -5.67442 0
M  V30 4294 N 380.044 1.44953 -5.62111 0
M  V30 4295 H 382.809 -1.3563 -2.67254 0
M  V30 4296 H 380.37 -0.859477 -1.37203 0
M  V30 4297 H 382.362 0.821357 -3.96277 0
M  V30 4298 H 380.932 1.0818 -2.93285 0
M  V30 4299 H 380.152 -1.27225 -3.73105 0
M  V30 4300 H 381.44 -1.19275 -4.94622 0
M  V30 4301 H 380.838 1.9683 -5.30353 0
M  V30 4302 H 379.395 1.90361 -6.23383 0
M  V30 4303 N 382.828 1.3818 -0.7579 0
M  V30 4304 C 383.758 2.33027 -0.148597 0
M  V30 4305 C 384.739 1.55085 0.69875 0
M  V30 4306 O 385.924 1.83384 0.639053 0
M  V30 4307 C 383.054 3.3928 0.742034 0
M  V30 4308 C 382.008 4.28 -0.00291946 0
M  V30 4309 C 381.334 5.25146 1.00625 0
M  V30 4310 C 382.634 5.08938 -1.17385 0
M  V30 4311 H 384.328 2.84231 -0.940909 0
M  V30 4312 H 381.874 1.36659 -0.453908 0
M  V30 4313 H 383.827 4.046 1.17799 0
M  V30 4314 H 382.551 2.86569 1.56671 0
M  V30 4315 H 381.21 3.64192 -0.419504 0
M  V30 4316 H 380.858 4.68721 1.8251 0
M  V30 4317 H 380.558 5.85361 0.512428 0
M  V30 4318 H 382.082 5.93342 1.44143 0
M  V30 4319 H 383.496 5.67474 -0.815224 0
M  V30 4320 H 381.893 5.7841 -1.59882 0
M  V30 4321 H 382.963 4.42424 -1.98468 0
M  V30 4322 N 384.306 0.507319 1.49211 0
M  V30 4323 C 385.236 -0.256939 2.32082 0
M  V30 4324 C 386.217 -0.956609 1.40652 0
M  V30 4325 O 387.402 -0.946788 1.69557 0
M  V30 4326 C 384.532 -1.31802 3.21318 0
M  V30 4327 C 383.486 -0.737855 4.21592 0
M  V30 4328 C 382.812 -1.89992 4.99807 0
M  V30 4329 C 384.112 0.275325 5.21574 0
M  V30 4330 H 385.806 0.434798 2.96226 0
M  V30 4331 H 383.352 0.210546 1.42452 0
M  V30 4332 H 385.305 -1.86045 3.78107 0
M  V30 4333 H 384.029 -2.03903 2.5513 0
M  V30 4334 H 382.688 -0.217126 3.65956 0
M  V30 4335 H 382.336 -2.60877 4.30061 0
M  V30 4336 H 382.036 -1.51777 5.6766 0
M  V30 4337 H 383.56 -2.44657 5.59442 0
M  V30 4338 H 384.974 -0.179193 5.7302 0
M  V30 4339 H 383.371 0.573649 5.97352 0
M  V30 4340 H 384.441 1.18903 4.70096 0
M  V30 4341 N 385.784 -1.5574 0.241426 0
M  V30 4342 C 387.2 -1.59196 -0.113548 0
M  V30 4343 C 387.4 -1.25852 -1.57364 0
M  V30 4344 O 386.456 -1.00322 -2.31715 0
M  V30 4345 C 387.769 -2.99814 0.230695 0
M  V30 4346 C 389.317 -3.12513 0.174547 0
M  V30 4347 C 389.792 -4.55342 0.492744 0
M  V30 4348 N 391.283 -4.61076 0.443043 0
M  V30 4349 C 392.018 -5.6956 0.662484 0
M  V30 4350 N 391.514 -6.86328 0.944761 0
M  V30 4351 N 393.307 -5.58957 0.593564 0
M  V30 4352 H 385.458 -1.75685 1.19368 0
M  V30 4353 H 387.721 -0.81756 0.479896 0
M  V30 4354 H 387.427 -3.28932 1.24485 0
M  V30 4355 H 387.301 -3.74568 -0.444833 0
M  V30 4356 H 389.688 -2.83179 -0.830277 0
M  V30 4357 H 389.769 -2.40045 0.883845 0
M  V30 4358 H 389.413 -4.85396 1.4951 0
M  V30 4359 H 389.343 -5.26062 -0.23797 0
M  V30 4360 H 391.834 -3.77179 0.233374 0
M  V30 4361 H 392.147 -7.64935 1.09977 0
M  V30 4362 H 390.492 -6.88025 0.982175 0
M  V30 4363 H 393.683 -4.66611 0.373123 0
M  V30 4364 H 393.856 -6.43433 0.767981 0
M  V30 4365 N 387.262 0.0317525 -1.57568 0
M  V30 4366 C 388.487 0.738664 -1.938 0
M  V30 4367 C 388.912 1.68242 -0.841208 0
M  V30 4368 O 388.27 1.80157 0.203267 0
M  V30 4369 C 388.318 1.47417 -3.29091 0
M  V30 4370 O 387.422 2.5872 -3.2115 0
M  V30 4371 H 386.763 0.198856 -0.633524 0
M  V30 4372 H 389.293 -0.0119713 -2.04596 0
M  V30 4373 H 389.303 1.84468 -3.63917 0
M  V30 4374 H 387.978 0.781988 -4.08482 0
M  V30 4375 H 386.555 2.24231 -2.97951 0
M  V30 4376 N 388.74 1.54641 0.303973 0
M  V30 4377 C 389.65 1.88439 1.39743 0
M  V30 4378 C 390.666 0.778239 1.55626 0
M  V30 4379 O 391.842 1.07442 1.70347 0
M  V30 4380 C 388.907 2.12212 2.74166 0
M  V30 4381 C 387.968 3.35936 2.67293 0
M  V30 4382 C 387.201 3.58566 3.95305 0
M  V30 4383 O 387.424 2.84263 4.9452 0
M  V30 4384 O 386.358 4.52078 3.97378 0
M  V30 4385 H 390.184 2.81458 1.14083 0
M  V30 4386 H 387.769 1.40793 0.499768 0
M  V30 4387 H 389.651 2.29067 3.53704 0
M  V30 4388 H 388.326 1.22379 2.99675 0
M  V30 4389 H 387.233 3.24448 1.86237 0
M  V30 4390 H 388.566 4.2589 2.46736 0
M  V30 4391 N 390.218 -0.567019 1.47046 0
M  V30 4392 C 391.495 -1.3276 1.43646 0
M  V30 4393 C 391.875 -2.1071 0.128186 0
M  V30 4394 O 391.223 -2.10441 -0.890326 0
M  V30 4395 C 391.433 -2.2404 2.67595 0
M  V30 4396 C 392.781 -2.85372 3.14401 0
M  V30 4397 O 393.805 -2.34346 2.68254 0
M  V30 4398 O 392.664 -3.78091 3.946 0
M  V30 4399 H 389.758 -0.597293 0.571988 0
M  V30 4400 H 392.304 -0.586735 1.59234 0
M  V30 4401 H 391.076 -1.65975 3.54356 0
M  V30 4402 H 390.699 -3.05439 2.54544 0
M  V30 4403 N 391.696 -1.35014 -0.812953 0
M  V30 4404 C 392.643 -1.27412 -1.92444 0
M  V30 4405 C 393.613 -0.14733 -1.65445 0
M  V30 4406 O 394.798 -0.329974 -1.87925 0
M  V30 4407 C 391.938 -1.04558 -3.28879 0
M  V30 4408 C 391.051 -2.26101 -3.68106 0
M  V30 4409 C 390.186 -1.96449 -4.9354 0
M  V30 4410 C 389.225 -3.14081 -5.25376 0
M  V30 4411 N 388.362 -2.84246 -6.41988 0
M  V30 4412 H 393.202 -2.22463 -1.98278 0
M  V30 4413 H 390.739 -1.10593 -0.969933 0
M  V30 4414 H 392.697 -0.893413 -4.07522 0
M  V30 4415 H 391.327 -0.131719 -3.22531 0
M  V30 4416 H 390.379 -2.52204 -2.84775 0
M  V30 4417 H 391.691 -3.13959 -3.87597 0
M  V30 4418 H 390.845 -1.78026 -5.79993 0
M  V30 4419 H 389.584 -1.05867 -4.76071 0
M  V30 4420 H 388.589 -3.33089 -4.37415 0
M  V30 4421 H 389.814 -4.05455 -5.44778 0
M  V30 4422 H 387.76 -1.96252 -6.25956 0
M  V30 4423 H 387.677 -3.65637 -6.61699 0
M  V30 4424 H 388.945 -2.6935 -7.31485 0
M  V30 4425 N 393.175 1.03435 -1.18907 0
M  V30 4426 C 394.085 2.15075 -0.937015 0
M  V30 4427 C 395.101 1.73706 0.101085 0
M  V30 4428 O 396.277 2.01232 -0.0822948 0
M  V30 4429 C 393.342 3.43458 -0.473057 0
M  V30 4430 C 392.403 3.99172 -1.57989 0
M  V30 4431 C 391.636 5.21427 -1.13797 0
M  V30 4432 O 391.859 5.704 0.000725941 0
M  V30 4433 O 390.793 5.69837 -1.9383 0
M  V30 4434 H 394.619 2.39198 -1.87131 0
M  V30 4435 H 392.204 1.13506 -0.971427 0
M  V30 4436 H 394.086 4.20811 -0.222702 0
M  V30 4437 H 392.761 3.20793 0.432869 0
M  V30 4438 H 391.668 3.23178 -1.88433 0
M  V30 4439 H 393.001 4.2619 -2.46217 0
M  V30 4440 N 394.653 0.992116 1.22453 0
M  V30 4441 C 395.901 0.666215 1.90804 0
M  V30 4442 C 396.222 -0.804152 1.77647 0
M  V30 4443 O 395.492 -1.57629 1.16318 0
M  V30 4444 H 394.072 0.243423 0.706225 0
M  V30 4445 H 396.734 1.25845 1.48825 0
M  V30 4446 H 395.83 0.928069 2.97982 0
M  V30 4447 N 396.131 -1.37776 0.765217 0
M  V30 4448 C 397.379 -1.99454 0.325943 0
M  V30 4449 C 397.7 -1.61049 -1.09947 0
M  V30 4450 O 396.97 -0.872821 -1.75381 0
M  V30 4451 H 395.55 -0.737697 0.117525 0
M  V30 4452 H 398.212 -1.68359 0.981895 0
M  V30 4453 H 397.308 -3.09547 0.398353 0
M  V30 4454 N 397.609 -0.515225 -1.4894 0
M  V30 4455 C 398.856 0.024215 -2.02486 0
M  V30 4456 C 399.184 1.35671 -1.39368 0
M  V30 4457 O 398.439 1.88566 -0.523574 0
M  V30 4458 C 398.738 0.210595 -3.56779 0
M  V30 4459 C 398.404 -1.04569 -4.38607 0
M  V30 4460 C 397.066 -1.39002 -4.60686 0
M  V30 4461 C 399.418 -1.88008 -4.86109 0
M  V30 4462 C 396.746 -2.568 -5.27514 0
M  V30 4463 C 399.098 -3.04972 -5.54234 0
M  V30 4464 C 397.762 -3.39768 -5.74555 0
M  V30 4465 H 397.032 0.00886088 -0.740947 0
M  V30 4466 H 399.679 -0.678263 -1.79086 0
M  V30 4467 H 397.984 0.99572 -3.78936 0
M  V30 4468 H 399.681 0.642659 -3.95817 0
M  V30 4469 H 396.271 -0.767497 -4.21672 0
M  V30 4470 H 400.455 -1.62719 -4.68867 0
M  V30 4471 H 395.711 -2.8398 -5.41447 0
M  V30 4472 H 399.885 -3.69943 -5.90013 0
M  V30 4473 H 397.512 -4.31148 -6.26112 0
M  V30 4474 N 399.087 1.5561 -0.249682 0
M  V30 4475 C 400.02 2.17537 0.689408 0
M  V30 4476 C 400.998 1.12829 1.17083 0
M  V30 4477 O 402.182 1.41229 1.24846 0
M  V30 4478 C 399.309 2.77828 1.93725 0
M  V30 4479 C 398.355 3.95615 1.59346 0
M  V30 4480 S 399.188 5.30988 0.69367 0
M  V30 4481 C 400.344 5.94734 1.95046 0
M  V30 4482 H 400.577 2.96852 0.163142 0
M  V30 4483 H 398.11 1.54362 -0.0341166 0
M  V30 4484 H 400.068 3.13199 2.65361 0
M  V30 4485 H 398.729 1.98454 2.43465 0
M  V30 4486 H 397.922 4.364 2.52132 0
M  V30 4487 H 397.524 3.61535 0.957512 0
M  V30 4488 H 399.816 6.12419 2.89739 0
M  V30 4489 H 400.759 6.90109 1.58604 0
M  V30 4490 H 401.167 5.23832 2.10381 0
M  V30 4491 N 400.565 -0.0233959 1.57583 0
M  V30 4492 C 401.811 -0.714119 1.89811 0
M  V30 4493 C 402.144 -1.74702 0.848113 0
M  V30 4494 O 401.419 -1.94023 -0.136135 0
M  V30 4495 C 401.702 -1.37853 3.32669 0
M  V30 4496 C 401.555 -0.358764 4.48367 0
M  V30 4497 C 402.874 -2.31101 3.7454 0
M  V30 4498 H 399.993 -0.25814 0.690314 0
M  V30 4499 H 402.635 0.0230927 1.89986 0
M  V30 4500 H 400.785 -2.00689 3.3265 0
M  V30 4501 H 402.457 0.268115 4.6052 0
M  V30 4502 H 400.7 0.321387 4.32608 0
M  V30 4503 H 401.371 -0.862242 5.45224 0
M  V30 4504 H 403.847 -1.78304 3.75961 0
M  V30 4505 H 402.723 -2.74567 4.75294 0
M  V30 4506 H 402.984 -3.18018 3.0711 0
M  V30 4507 N 402.043 -1.548 -0.295768 0
M  V30 4508 C 403.459 -1.4613 -0.641722 0
M  V30 4509 C 403.659 -0.656771 -1.90496 0
M  V30 4510 O 402.715 -0.166547 -2.5195 0
M  V30 4511 C 404.028 -2.90141 -0.789852 0
M  V30 4512 C 405.576 -3.00216 -0.885396 0
M  V30 4513 C 406.051 -4.45434 -1.06548 0
M  V30 4514 N 407.542 -4.49166 -1.13156 0
M  V30 4515 C 408.277 -5.58717 -1.28929 0
M  V30 4516 N 407.773 -6.78182 -1.41567 0
M  V30 4517 N 409.566 -5.46415 -1.31859 0
M  V30 4518 H 401.717 -2.05574 0.534147 0
M  V30 4519 H 403.98 -0.931259 0.177372 0
M  V30 4520 H 403.686 -3.51635 0.0675598 0
M  V30 4521 H 403.56 -3.37859 -1.67724 0
M  V30 4522 H 405.947 -2.38833 -1.73329 0
M  V30 4523 H 406.028 -2.55787 0.0261185 0
M  V30 4524 H 405.672 -5.07413 -0.222335 0
M  V30 4525 H 405.602 -4.87499 -1.9913 0
M  V30 4526 H 408.093 -3.631 -1.04721 0
M  V30 4527 H 408.406 -7.57428 -1.53372 0
M  V30 4528 H 406.751 -6.81037 -1.38613 0
M  V30 4529 H 409.942 -4.5203 -1.21601 0
M  V30 4530 H 410.115 -6.31841 -1.43808 0
M  V30 4531 N 403.521 0.559213 -1.47345 0
M  V30 4532 C 404.798 1.31997 -1.44348 0
M  V30 4533 C 405.178 2.1064 -0.139358 0
M  V30 4534 O 404.526 2.1091 0.879153 0
M  V30 4535 C 404.736 2.22618 -2.68779 0
M  V30 4536 C 406.084 2.83701 -3.1591 0
M  V30 4537 O 407.108 2.32921 -2.69493 0
M  V30 4538 O 405.967 3.75993 -3.966 0
M  V30 4539 H 403.061 0.594251 -0.575147 0
M  V30 4540 H 405.607 0.578282 -1.59543 0
M  V30 4541 H 404.379 1.64093 -3.55231 0
M  V30 4542 H 404.002 3.04085 -2.5616 0
M  V30 4543 N 404.999 1.35443 0.805782 0
M  V30 4544 C 406.224 1.32037 1.59941 0
M  V30 4545 C 406.649 -0.0994215 1.87837 0
M  V30 4546 O 406.007 -1.06648 1.46615 0
M  V30 4547 C 406.055 2.13354 2.90711 0
M  V30 4548 O 405.159 1.5148 3.83572 0
M  V30 4549 H 404.5 0.452666 0.485787 0
M  V30 4550 H 407.03 1.78496 1.00002 0
M  V30 4551 H 407.04 2.25338 3.40128 0
M  V30 4552 H 405.715 3.16572 2.69732 0
M  V30 4553 H 404.292 1.4834 3.42125 0
M  V30 4554 N 406.477 -1.02803 1.19454 0
M  V30 4555 C 407.702 -1.80378 1.02364 0
M  V30 4556 C 408.127 -1.83282 -0.423007 0
M  V30 4557 O 407.485 -1.25945 -1.30413 0
M  V30 4558 C 407.533 -3.23248 1.59821 0
M  V30 4559 O 406.637 -4.04 0.828105 0
M  V30 4560 H 405.978 -0.556799 0.361761 0
M  V30 4561 H 408.508 -1.29385 1.58495 0
M  V30 4562 H 408.518 -3.73994 1.63073 0
M  V30 4563 H 407.193 -3.2045 2.65113 0
M  V30 4564 H 405.77 -3.62635 0.86891 0
M  V30 4565 N 407.956 -0.998596 -1.21925 0
M  V30 4566 C 408.888 -0.511879 -2.23411 0
M  V30 4567 C 409.901 0.396094 -1.57908 0
M  V30 4568 O 411.09 0.197316 -1.77406 0
M  V30 4569 C 408.19 0.276802 -3.37768 0
M  V30 4570 C 407.363 -0.628687 -4.32858 0
M  V30 4571 C 406.422 0.109272 -5.26087 0
M  V30 4572 O 405.448 -0.507237 -5.66935 0
M  V30 4573 N 406.65 1.38983 -5.63617 0
M  V30 4574 H 409.415 -1.38457 -2.658 0
M  V30 4575 H 406.976 -0.873981 -1.36283 0
M  V30 4576 H 408.968 0.77928 -3.97126 0
M  V30 4577 H 407.538 1.05063 -2.94415 0
M  V30 4578 H 406.758 -1.31175 -3.71735 0
M  V30 4579 H 408.046 -1.24514 -4.93329 0
M  V30 4580 H 407.444 1.91194 -5.32411 0
M  V30 4581 H 406.001 1.83739 -6.25367 0
M  V30 4582 N 409.434 1.37368 -0.772513 0
M  V30 4583 C 410.845 1.8231 -0.402493 0
M  V30 4584 C 411.196 1.6436 1.07146 0
M  V30 4585 O 410.321 1.15514 1.82991 0
M  V30 4586 C 410.916 3.30979 -0.723776 0
M  V30 4587 C 409.475 3.74195 -0.406802 0
M  V30 4588 C 408.622 2.59885 -0.967218 0
M  V30 4589 H 411.573 1.25829 -0.967099 0
M  V30 4590 H 411.594 3.80499 -0.00870832 0
M  V30 4591 H 411.106 3.44011 -1.7966 0
M  V30 4592 H 409.207 3.66732 0.658673 0
M  V30 4593 H 409.32 4.7027 -0.915588 0
M  V30 4594 H 407.684 2.51674 -0.391416 0
M  V30 4595 H 408.467 2.7571 -2.04546 0
M  V30 4596 N 410.912 0.523116 1.48665 0
M  V30 4597 C 412.16 -0.0134497 2.02096 0
M  V30 4598 C 412.481 -1.35418 1.40311 0
M  V30 4599 O 411.751 -1.87543 0.566074 0
M  V30 4600 H 410.331 -0.00795915 0.746958 0
M  V30 4601 H 412.993 0.685388 1.82451 0
M  V30 4602 H 412.089 -0.126849 3.11842 0
M  V30 4603 N 412.39 -1.55475 0.257931 0
M  V30 4604 C 413.32 -2.24815 -0.630912 0
M  V30 4605 C 414.301 -1.23224 -1.17259 0
M  V30 4606 O 415.486 -1.51904 -1.20991 0
M  V30 4607 C 412.616 -2.95609 -1.82298 0
M  V30 4608 C 411.57 -4.03982 -1.41359 0
M  V30 4609 C 410.896 -4.6226 -2.68738 0
M  V30 4610 C 412.196 -5.19109 -0.57648 0
M  V30 4611 H 413.89 -2.99354 -0.0526878 0
M  V30 4612 H 411.436 -1.4398 -0.023901 0
M  V30 4613 H 413.389 -3.42822 -2.45054 0
M  V30 4614 H 412.113 -2.18577 -2.42676 0
M  V30 4615 H 410.772 -3.57555 -0.809324 0
M  V30 4616 H 410.42 -3.81915 -3.27338 0
M  V30 4617 H 410.12 -5.35424 -2.42065 0
M  V30 4618 H 411.644 -5.12212 -3.32372 0
M  V30 4619 H 413.058 -5.62479 -1.10861 0
M  V30 4620 H 411.455 -5.98729 -0.405351 0
M  V30 4621 H 412.525 -4.83174 0.408776 0
M  V30 4622 N 413.868 0.0150385 -1.57593 0
M  V30 4623 C 415.098 0.713359 -1.93894 0
M  V30 4624 C 415.506 1.68663 -0.857289 0
M  V30 4625 O 414.849 1.82876 0.173788 0
M  V30 4626 C 414.911 1.51348 -3.26089 0
M  V30 4627 C 414.575 0.703451 -4.51554 0
M  V30 4628 C 415.572 -0.00237924 -5.199 0
M  V30 4629 C 413.257 0.653854 -4.98026 0
M  V30 4630 C 415.251 -0.746955 -6.33008 0
M  V30 4631 C 412.938 -0.0944578 -6.11027 0
M  V30 4632 C 413.936 -0.793609 -6.78374 0
M  V30 4633 O 413.624 -1.52974 -7.89211 0
M  V30 4634 H 413.356 0.204637 -0.644282 0
M  V30 4635 H 415.91 -0.0276411 -2.05381 0
M  V30 4636 H 414.14 2.29862 -3.10967 0
M  V30 4637 H 415.829 2.09572 -3.47612 0
M  V30 4638 H 416.595 0.0268803 -4.84993 0
M  V30 4639 H 412.474 1.18756 -4.45441 0
M  V30 4640 H 416.018 -1.2932 -6.85509 0
M  V30 4641 H 411.915 -0.125591 -6.45378 0
M  V30 4642 H 412.683 -1.44488 -8.05646 0
M  V30 4643 N 415.346 1.54954 0.287554 0
M  V30 4644 C 416.574 1.78881 1.03967 0
M  V30 4645 C 416.989 0.554894 1.80462 0
M  V30 4646 O 416.346 -0.475676 1.76192 0
M  V30 4647 C 416.397 3.00488 2.0097 0
M  V30 4648 O 416.118 4.19113 1.27577 0
M  V30 4649 C 417.619 3.36907 2.88112 0
M  V30 4650 H 414.839 0.596259 0.307761 0
M  V30 4651 H 417.383 2.01937 0.322749 0
M  V30 4652 H 415.538 2.79601 2.68145 0
M  V30 4653 H 415.952 4.87765 1.92835 0
M  V30 4654 H 417.426 4.25205 3.52001 0
M  V30 4655 H 417.903 2.55659 3.57121 0
M  V30 4656 H 418.509 3.60001 2.26449 0
M  V30 4657 N 416.824 -0.551391 1.4764 0
M  V30 4658 C 418.07 -1.31024 1.54792 0
M  V30 4659 C 418.403 -1.9304 0.211967 0
M  V30 4660 O 417.678 -1.78175 -0.77999 0
M  V30 4661 C 417.961 -2.41593 2.67029 0
M  V30 4662 C 417.814 -1.84408 4.10261 0
M  V30 4663 C 419.133 -3.43488 2.75143 0
M  V30 4664 H 416.252 -0.475031 0.563485 0
M  V30 4665 H 418.894 -0.616454 1.79722 0
M  V30 4666 H 417.044 -3.00772 2.45904 0
M  V30 4667 H 418.716 -1.29445 4.42766 0
M  V30 4668 H 416.959 -1.15051 4.18265 0
M  V30 4669 H 417.63 -2.64367 4.84576 0
M  V30 4670 H 420.106 -2.94236 2.94218 0
M  V30 4671 H 418.982 -4.18274 3.55441 0
M  V30 4672 H 419.243 -4.02703 1.82435 0
M  V30 4673 N 418.302 -1.35869 -0.798587 0
M  V30 4674 C 419.527 -1.32883 -1.59238 0
M  V30 4675 C 419.952 0.0894587 -1.87887 0
M  V30 4676 O 419.31 1.05869 -1.47178 0
M  V30 4677 C 419.358 -2.14892 -2.89575 0
M  V30 4678 O 418.462 -1.53512 -3.82763 0
M  V30 4679 H 417.803 -0.455236 -0.48338 0
M  V30 4680 H 420.333 -1.79024 -0.990539 0
M  V30 4681 H 420.343 -2.27139 -3.38928 0
M  V30 4682 H 419.018 -3.17998 -2.68049 0
M  V30 4683 H 417.595 -1.50153 -3.41334 0
M  V30 4684 N 419.78 1.02168 -1.19998 0
M  V30 4685 C 420.71 2.12488 -0.96804 0
M  V30 4686 C 421.691 1.69799 0.101185 0
M  V30 4687 O 422.876 1.94121 -0.0552993 0
M  V30 4688 C 420.006 3.43479 -0.513776 0
M  V30 4689 C 418.96 3.99884 -1.52566 0
M  V30 4690 C 418.286 5.26582 -0.928214 0
M  V30 4691 C 419.586 4.33861 -2.90795 0
M  V30 4692 H 421.28 2.32149 -1.89069 0
M  V30 4693 H 418.826 1.11564 -0.910468 0
M  V30 4694 H 420.779 4.20036 -0.338774 0
M  V30 4695 H 419.503 3.23561 0.444493 0
M  V30 4696 H 418.162 3.25429 -1.68794 0
M  V30 4697 H 417.81 5.02986 0.0378289 0
M  V30 4698 H 417.51 5.65284 -1.60397 0
M  V30 4699 H 419.034 6.05799 -0.764167 0
M  V30 4700 H 420.448 5.01327 -2.78109 0
M  V30 4701 H 418.845 4.83664 -3.55231 0
M  V30 4702 H 419.915 3.42848 -3.42904 0
M  V30 4703 N 421.258 1.00505 1.21394 0
M  V30 4704 C 422.488 0.705584 1.94178 0
M  V30 4705 C 422.896 -0.735846 1.74304 0
M  V30 4706 O 422.239 -1.50954 1.04683 0
M  V30 4707 C 422.301 0.94689 3.46806 0
M  V30 4708 C 421.965 2.37517 3.90429 0
M  V30 4709 C 422.962 3.35539 3.97127 0
M  V30 4710 C 420.647 2.71284 4.22742 0
M  V30 4711 C 422.641 4.65395 4.3553 0
M  V30 4712 C 420.328 4.01356 4.60822 0
M  V30 4713 C 421.326 4.98223 4.67186 0
M  V30 4714 O 421.014 6.25969 5.04399 0
M  V30 4715 H 420.746 0.259216 0.624326 0
M  V30 4716 H 423.3 1.34592 1.55159 0
M  V30 4717 H 421.53 0.249386 3.85895 0
M  V30 4718 H 423.219 0.640804 4.0081 0
M  V30 4719 H 423.985 3.10786 3.7234 0
M  V30 4720 H 419.864 1.96581 4.16985 0
M  V30 4721 H 423.408 5.41002 4.40412 0
M  V30 4722 H 419.305 4.25893 4.85063 0
M  V30 4723 H 420.073 6.30085 5.22431 0
M  V30 4724 N 422.737 -1.36956 0.779787 0
M  V30 4725 C 423.965 -2.03755 0.359398 0
M  V30 4726 C 424.38 -1.58807 -1.02106 0
M  V30 4727 O 423.737 -0.773024 -1.6532 0
M  V30 4728 C 423.788 -3.59251 0.402568 0
M  V30 4729 O 423.509 -4.02557 1.72858 0
M  V30 4730 C 425.01 -4.43291 -0.0284068 0
M  V30 4731 H 422.23 -0.654148 0.149437 0
M  V30 4732 H 424.774 -1.75128 1.05595 0
M  V30 4733 H 422.929 -3.86621 -0.245478 0
M  V30 4734 H 423.343 -4.97111 1.67275 0
M  V30 4735 H 424.817 -5.51975 0.0529466 0
M  V30 4736 H 425.294 -4.25719 -1.07982 0
M  V30 4737 H 425.9 -4.21163 0.591758 0
M  V30 4738 N 424.215 -0.530993 -1.48385 0
M  V30 4739 C 425.162 0.231223 -2.29639 0
M  V30 4740 C 426.132 0.932864 -1.37429 0
M  V30 4741 O 427.317 0.933692 -1.66394 0
M  V30 4742 C 424.457 1.27155 -3.2082 0
M  V30 4743 C 423.57 0.578655 -4.28107 0
M  V30 4744 C 422.705 1.602 -5.06467 0
M  V30 4745 C 421.744 0.892625 -6.05556 0
M  V30 4746 N 420.881 1.86157 -6.76971 0
M  V30 4747 H 425.721 -0.467848 -2.94305 0
M  V30 4748 H 423.258 -0.242556 -1.45086 0
M  V30 4749 H 425.216 1.88703 -3.72085 0
M  V30 4750 H 423.846 1.939 -2.58075 0
M  V30 4751 H 422.898 -0.150782 -3.80101 0
M  V30 4752 H 424.21 0.0217065 -4.98795 0
M  V30 4753 H 423.364 2.29173 -5.61751 0
M  V30 4754 H 422.103 2.19285 -4.35621 0
M  V30 4755 H 421.108 0.188829 -5.49476 0
M  V30 4756 H 422.333 0.307878 -6.78402 0
M  V30 4757 H 420.279 2.44147 -6.08875 0
M  V30 4758 H 420.196 1.35608 -7.43738 0
M  V30 4759 H 421.464 2.54325 -7.36844 0
M  V30 4760 N 425.693 1.55336 -0.266172 0
M  V30 4761 C 426.94 1.99397 0.353158 0
M  V30 4762 C 427.268 1.15451 1.56529 0
M  V30 4763 O 426.523 0.209974 1.9457 0
M  V30 4764 C 426.822 3.48606 0.787957 0
M  V30 4765 C 426.488 4.49773 -0.318541 0
M  V30 4766 C 425.15 4.77158 -0.62239 0
M  V30 4767 C 427.502 5.10212 -1.06459 0
M  V30 4768 C 424.83 5.62251 -1.67602 0
M  V30 4769 C 427.182 5.96449 -2.10788 0
M  V30 4770 C 425.846 6.22158 -2.41817 0
M  V30 4771 H 425.116 0.729644 0.12923 0
M  V30 4772 H 427.763 1.87732 -0.37802 0
M  V30 4773 H 426.068 3.57701 1.59866 0
M  V30 4774 H 427.765 3.80098 1.27775 0
M  V30 4775 H 424.355 4.2854 -0.0715925 0
M  V30 4776 H 428.539 4.89086 -0.843098 0
M  V30 4777 H 423.795 5.80419 -1.92155 0
M  V30 4778 H 427.969 6.42317 -2.69076 0
M  V30 4779 H 425.596 6.87888 -3.23596 0
M  V30 4780 N 427.171 -0.0066808 1.57599 0
M  V30 4781 C 428.419 -0.691552 1.899 0
M  V30 4782 C 428.74 -1.74682 0.866672 0
M  V30 4783 O 428.01 -1.95661 -0.0968189 0
M  V30 4784 H 426.59 -0.258416 0.700878 0
M  V30 4785 H 429.252 0.0326655 1.94873 0
M  V30 4786 H 428.348 -1.16702 2.8946 0
M  V30 4787 N 428.649 -1.55105 -0.279332 0
M  V30 4788 C 429.897 -1.75066 -1.00977 0
M  V30 4789 C 430.218 -0.551276 -1.87045 0
M  V30 4790 O 429.488 0.433984 -1.91032 0
M  V30 4791 H 428.068 -0.645578 -0.375816 0
M  V30 4792 H 430.73 -1.92497 -0.305089 0
M  V30 4793 H 429.826 -2.64894 -1.65038 0
M  V30 4794 N 430.127 0.543554 -1.4793 0
M  V30 4795 C 431.037 1.67657 -1.64098 0
M  V30 4796 C 432.053 1.65934 -0.523622 0
M  V30 4797 O 433.229 1.85133 -0.792943 0
M  V30 4798 C 430.294 3.04146 -1.66421 0
M  V30 4799 C 429.355 3.16831 -2.89684 0
M  V30 4800 C 428.588 4.46809 -2.91886 0
M  V30 4801 O 428.811 5.33095 -2.02895 0
M  V30 4802 O 427.745 4.63573 -3.83906 0
M  V30 4803 H 431.571 1.56957 -2.59997 0
M  V30 4804 H 429.156 0.715116 -1.31173 0
M  V30 4805 H 431.038 3.85346 -1.70548 0
M  V30 4806 H 429.713 3.152 -0.736923 0
M  V30 4807 H 428.62 2.34977 -2.91095 0
M  V30 4808 H 429.953 3.10687 -3.81752 0
M  V30 4809 N 431.605 1.3629 0.791371 0
M  V30 4810 C 432.853 1.30154 1.5461 0
M  V30 4811 C 433.174 -0.119409 1.94634 0
M  V30 4812 O 432.444 -1.05924 1.64794 0
M  V30 4813 H 431.024 0.478784 0.573389 0
M  V30 4814 H 433.686 1.70565 0.94306 0
M  V30 4815 H 432.782 1.92762 2.45457 0
M  V30 4816 N 433.083 -1.0153 1.20538 0
M  V30 4817 C 434.308 -1.79283 1.04271 0
M  V30 4818 C 434.733 -1.8372 -0.403544 0
M  V30 4819 O 434.091 -1.27321 -1.2907 0
M  V30 4820 C 434.139 -3.21535 1.63241 0
M  V30 4821 O 433.243 -4.03099 0.870908 0
M  V30 4822 H 432.584 -0.55293 0.367647 0
M  V30 4823 H 435.114 -1.27696 1.59859 0
M  V30 4824 H 435.124 -3.72243 1.6703 0
M  V30 4825 H 433.799 -3.1762 2.68497 0
M  V30 4826 H 432.376 -3.61693 0.907323 0
M  V30 4827 N 434.561 -1.01147 -1.20859 0
M  V30 4828 C 435.786 -0.716698 -1.94623 0
M  V30 4829 C 436.211 0.715415 -1.73964 0
M  V30 4830 O 435.569 1.49157 -1.03062 0
M  V30 4831 C 435.617 -1.0513 -3.44935 0
M  V30 4832 O 434.721 -0.160131 -4.12089 0
M  V30 4833 H 434.062 -0.266404 -0.608214 0
M  V30 4834 H 436.592 -1.35346 -1.53436 0
M  V30 4835 H 436.602 -1.00086 -3.95533 0
M  V30 4836 H 435.277 -2.09475 -3.59295 0
M  V30 4837 H 433.854 -0.267657 -3.71938 0
M  V30 4838 N 436.039 1.36541 -0.78704 0
M  V30 4839 C 437.287 1.98911 -0.357633 0
M  V30 4840 C 437.608 1.62778 1.07371 0
M  V30 4841 O 436.878 0.900612 1.73971 0
M  V30 4842 H 435.458 0.735734 -0.129246 0
M  V30 4843 H 438.12 1.66776 -1.00855 0
M  V30 4844 H 437.216 3.08874 -0.447549 0
M  V30 4845 N 437.518 0.538854 1.48102 0
M  V30 4846 C 438.765 0.0080018 2.02498 0
M  V30 4847 C 439.093 -1.33437 1.41509 0
M  V30 4848 O 438.348 -1.87709 0.553507 0
M  V30 4849 C 438.647 -0.153808 3.57069 0
M  V30 4850 C 438.313 1.11533 4.36888 0
M  V30 4851 C 436.975 1.46314 4.58417 0
M  V30 4852 C 439.327 1.95718 4.83057 0
M  V30 4853 C 436.655 2.6516 5.23361 0
M  V30 4854 C 439.007 3.13751 5.49312 0
M  V30 4855 C 437.671 3.48866 5.69077 0
M  V30 4856 H 436.941 0.00292807 0.740994 0
M  V30 4857 H 439.588 0.706668 1.77984 0
M  V30 4858 H 437.893 -0.935309 3.80472 0
M  V30 4859 H 439.59 -0.579607 3.96789 0
M  V30 4860 H 436.18 0.834484 4.20398 0
M  V30 4861 H 440.364 1.70158 4.66219 0
M  V30 4862 H 435.62 2.92558 5.36861 0
M  V30 4863 H 439.794 3.79282 5.84053 0
M  V30 4864 H 437.421 4.41054 6.19173 0
M  V30 4865 N 438.996 -1.55193 0.274407 0
M  V30 4866 C 440.412 -1.59401 -0.0797543 0
M  V30 4867 C 440.612 -1.29162 -1.54659 0
M  V30 4868 O 439.668 -1.05215 -2.29534 0
M  V30 4869 C 440.981 -2.99257 0.294238 0
M  V30 4870 C 442.529 -3.12072 0.240796 0
M  V30 4871 C 443.004 -4.54194 0.589218 0
M  V30 4872 N 444.495 -4.60033 0.540744 0
M  V30 4873 C 445.23 -5.68027 0.783147 0
M  V30 4874 N 444.726 -6.8417 1.09013 0
M  V30 4875 N 446.519 -5.57572 0.711993 0
M  V30 4876 H 438.67 -1.73113 1.23067 0
M  V30 4877 H 440.933 -0.807197 0.497129 0
M  V30 4878 H 440.639 -3.26217 1.31435 0
M  V30 4879 H 440.513 -3.75427 -0.365281 0
M  V30 4880 H 442.9 -2.84877 -0.770024 0
M  V30 4881 H 442.981 -2.38117 0.934563 0
M  V30 4882 H 442.625 -4.82115 1.59772 0
M  V30 4883 H 442.555 -5.26448 -0.126331 0
M  V30 4884 H 445.046 -3.76599 0.313327 0
M  V30 4885 H 445.359 -7.6243 1.26178 0
M  V30 4886 H 443.704 -6.85787 1.12789 0
M  V30 4887 H 446.895 -4.65714 0.472014 0
M  V30 4888 H 447.068 -6.41659 0.90429 0
M  V30 4889 N 440.474 -0.00167713 -1.576 0
M  V30 4890 C 441.424 0.997744 -2.0501 0
M  V30 4891 C 442.408 1.30214 -0.94515 0
M  V30 4892 O 443.6 1.29284 -1.20891 0
M  V30 4893 C 440.729 2.2892 -2.55833 0
M  V30 4894 C 439.815 2.01437 -3.73208 0
M  V30 4895 N 440.206 1.44119 -4.84833 0
M  V30 4896 C 438.504 2.31571 -3.8117 0
M  V30 4897 C 439.205 1.33145 -5.66257 0
M  V30 4898 N 438.181 1.81763 -5.12312 0
M  V30 4899 H 441.983 0.549098 -2.88725 0
M  V30 4900 H 439.497 0.20398 -1.61114 0
M  V30 4901 H 441.494 3.01361 -2.88075 0
M  V30 4902 H 440.154 2.74436 -1.73537 0
M  V30 4903 H 441.165 1.11978 -5.0565 0
M  V30 4904 H 437.842 2.7995 -3.09732 0
M  V30 4905 H 439.232 0.890567 -6.65972 0
M  V30 4906 N 441.952 1.55251 0.271103 0
M  V30 4907 C 443.182 1.79713 1.01916 0
M  V30 4908 C 443.59 0.571613 1.80359 0
M  V30 4909 O 442.933 -0.468853 1.77616 0
M  V30 4910 C 442.995 2.97138 2.02359 0
M  V30 4911 C 442.659 4.34104 1.42837 0
M  V30 4912 C 443.656 5.13019 0.843071 0
M  V30 4913 C 441.341 4.80765 1.455 0
M  V30 4914 C 443.335 6.36729 0.292333 0
M  V30 4915 C 441.022 6.0443 0.900402 0
M  V30 4916 C 442.02 6.8225 0.32007 0
M  V30 4917 O 441.708 8.03582 -0.226031 0
M  V30 4918 H 441.44 0.602431 0.306681 0
M  V30 4919 H 443.994 2.03097 0.306701 0
M  V30 4920 H 442.224 2.6945 2.77369 0
M  V30 4921 H 443.913 3.08907 2.63309 0
M  V30 4922 H 444.679 4.781 0.815178 0
M  V30 4923 H 440.558 4.20202 1.89609 0
M  V30 4924 H 444.102 6.97414 -0.161274 0
M  V30 4925 H 439.999 6.3883 0.925541 0
M  V30 4926 H 440.767 8.18418 -0.115572 0
M  V30 4927 N 443.43 -0.535701 1.48216 0
M  V30 4928 C 444.38 -1.63688 1.58714 0
M  V30 4929 C 445.364 -1.54635 0.444615 0
M  V30 4930 O 446.556 -1.62753 0.695742 0
M  V30 4931 C 443.685 -3.02423 1.62466 0
M  V30 4932 C 442.771 -3.16601 2.82178 0
M  V30 4933 N 443.162 -3.00771 4.06658 0
M  V30 4934 C 441.46 -3.47645 2.79391 0
M  V30 4935 C 442.161 -3.18213 4.86945 0
M  V30 4936 N 441.137 -3.45528 4.19656 0
M  V30 4937 H 444.939 -1.5005 2.5271 0
M  V30 4938 H 442.453 -0.741018 1.44508 0
M  V30 4939 H 444.45 -3.81517 1.6808 0
M  V30 4940 H 443.11 -3.17157 0.695826 0
M  V30 4941 H 444.121 -2.77652 4.37184 0
M  V30 4942 H 440.798 -3.68771 1.95739 0
M  V30 4943 H 442.188 -3.1076 5.95716 0
M  V30 4944 N 444.908 -1.36708 -0.784132 0
M  V30 4945 C 446.157 -1.30559 -1.53744 0
M  V30 4946 C 446.47 0.111374 -1.95283 0
M  V30 4947 O 447.676 0.29527 -2.6989 0
M  V30 4948 C 446.132 -2.29098 -2.77565 0
M  V30 4949 C 445.74 -3.76258 -2.43174 0
M  V30 4950 C 447.484 -2.31936 -3.55536 0
M  V30 4951 C 445.391 -4.6656 -3.63422 0
M  V30 4952 H 444.321 -0.48518 -0.577162 0
M  V30 4953 H 446.972 -1.62101 -0.859981 0
M  V30 4954 H 445.354 -1.90557 -3.47137 0
M  V30 4955 H 446.528 -4.23565 -1.81465 0
M  V30 4956 H 444.843 -3.76246 -1.78403 0
M  V30 4957 H 447.44 -2.9661 -4.44889 0
M  V30 4958 H 447.783 -1.3294 -3.94503 0
M  V30 4959 H 448.316 -2.6912 -2.92949 0
M  V30 4960 H 445.055 -5.66638 -3.29547 0
M  V30 4961 H 444.575 -4.23966 -4.24279 0
M  V30 4962 H 446.254 -4.8309 -4.30387 0
M  V30 4963 N 446.386 1.0089 -1.21074 0
M  V30 4964 C 447.333 2.09588 -0.966512 0
M  V30 4965 C 448.303 1.65761 0.106089 0
M  V30 4966 O 449.488 1.90758 -0.0402287 0
M  V30 4967 C 446.628 3.40958 -0.533058 0
M  V30 4968 C 445.741 3.9822 -1.67467 0
M  V30 4969 C 444.876 5.17682 -1.19076 0
M  V30 4970 C 443.915 5.67043 -2.30496 0
M  V30 4971 N 443.052 6.77759 -1.83267 0
M  V30 4972 H 447.892 2.29815 -1.89708 0
M  V30 4973 H 445.429 1.12689 -0.945489 0
M  V30 4974 H 447.387 4.1637 -0.263019 0
M  V30 4975 H 446.017 3.20781 0.360505 0
M  V30 4976 H 445.069 3.1983 -2.05944 0
M  V30 4977 H 446.381 4.3085 -2.51336 0
M  V30 4978 H 445.535 6.00326 -0.877151 0
M  V30 4979 H 444.274 4.86635 -0.322066 0
M  V30 4980 H 443.279 4.82999 -2.62664 0
M  V30 4981 H 444.504 6.00121 -3.17855 0
M  V30 4982 H 442.45 6.48527 -0.987356 0
M  V30 4983 H 442.367 7.09624 -2.60711 0
M  V30 4984 H 443.635 7.63949 -1.54928 0
M  V30 4985 N 447.864 1.01787 1.20321 0
M  V30 4986 C 448.774 0.598898 2.26827 0
M  V30 4987 C 449.79 -0.36418 1.70146 0
M  V30 4988 O 450.966 -0.224812 2.00141 0
M  V30 4989 C 448.031 -0.0549769 3.46656 0
M  V30 4990 C 447.092 0.954205 4.18561 0
M  V30 4991 C 446.325 0.331439 5.3267 0
M  V30 4992 O 446.548 -0.86851 5.63749 0
M  V30 4993 O 445.482 1.0488 5.92692 0
M  V30 4994 H 449.308 1.48562 2.64883 0
M  V30 4995 H 446.893 0.787434 1.26964 0
M  V30 4996 H 448.775 -0.420102 4.19301 0
M  V30 4997 H 447.45 -0.915876 3.10473 0
M  V30 4998 H 446.357 1.37072 3.48083 0
M  V30 4999 H 447.69 1.78511 4.58688 0
M  V30 5000 N 449.342 -1.36122 0.79427 0
M  V30 5001 C 450.57 -2.03362 0.380989 0
M  V30 5002 C 450.985 -1.59881 -1.00416 0
M  V30 5003 O 450.342 -0.790515 -1.6449 0
M  V30 5004 C 450.393 -3.58804 0.440649 0
M  V30 5005 O 450.114 -4.007 1.77118 0
M  V30 5006 C 451.615 -4.43296 0.0186117 0
M  V30 5007 H 448.835 -0.652526 0.156367 0
M  V30 5008 H 451.379 -1.73998 1.07447 0
M  V30 5009 H 449.534 -3.8686 -0.204458 0
M  V30 5010 H 449.948 -4.95309 1.72538 0
M  V30 5011 H 451.422 -5.51887 0.111488 0
M  V30 5012 H 451.899 -4.2684 -1.03461 0
M  V30 5013 H 452.505 -4.20512 0.636395 0
M  V30 5014 N 450.82 -0.546701 -1.47814 0
M  V30 5015 C 452.048 -0.0232857 -2.06887 0
M  V30 5016 C 452.463 1.26571 -1.4009 0
M  V30 5017 O 451.82 1.7569 -0.493906 0
M  V30 5018 C 451.871 0.186975 -3.61016 0
M  V30 5019 O 451.592 -1.05097 -4.25307 0
M  V30 5020 C 453.093 0.748872 -4.36929 0
M  V30 5021 H 450.313 -0.0410763 -0.669742 0
M  V30 5022 H 452.857 -0.757117 -1.89968 0
M  V30 5023 H 451.012 0.870903 -3.77484 0
M  V30 5024 H 451.426 -0.842121 -5.17695 0
M  V30 5025 H 452.9 0.845334 -5.45489 0
M  V30 5026 H 453.377 1.75772 -4.02493 0
M  V30 5027 H 453.983 0.100979 -4.2518 0
M  V30 5028 N 452.299 1.55045 -0.282633 0
M  V30 5029 C 453.527 2.04168 0.33512 0
M  V30 5030 C 453.942 1.16071 1.48906 0
M  V30 5031 O 453.299 0.182391 1.81586 0
M  V30 5032 C 453.35 3.52332 0.808957 0
M  V30 5033 O 453.071 4.37078 -0.299038 0
M  V30 5034 C 454.572 4.17375 1.49375 0
M  V30 5035 H 451.792 0.666744 0.0754543 0
M  V30 5036 H 454.336 2.00205 -0.416918 0
M  V30 5037 H 452.491 3.56715 1.51106 0
M  V30 5038 H 452.905 5.24458 0.0665514 0
M  V30 5039 H 454.379 5.22627 1.77664 0
M  V30 5040 H 454.856 3.65999 2.42778 0
M  V30 5041 H 455.462 4.17016 0.835305 0
M  V30 5042 N 453.777 0.010035 1.57597 0
M  V30 5043 C 455.002 -0.687021 1.95691 0
M  V30 5044 C 455.427 -1.65952 0.885519 0
M  V30 5045 O 454.785 -1.80633 -0.15543 0
M  V30 5046 C 454.833 -1.3864 3.32884 0
M  V30 5047 O 453.937 -2.50115 3.27897 0
M  V30 5048 H 453.278 -0.181989 0.638573 0
M  V30 5049 H 455.808 0.0662122 2.04493 0
M  V30 5050 H 455.818 -1.74754 3.6868 0
M  V30 5051 H 454.493 -0.673411 4.10412 0
M  V30 5052 H 453.07 -2.16253 3.03791 0
M  V30 5053 N 455.255 -1.55392 -0.262866 0
M  V30 5054 C 456.666 -1.67079 -0.833158 0
M  V30 5055 C 457.017 -0.604539 -1.86654 0
M  V30 5056 O 456.142 0.252138 -2.14926 0
M  V30 5057 C 456.737 -3.02891 -1.51797 0
M  V30 5058 C 455.296 -3.16571 -2.03617 0
M  V30 5059 C 454.443 -2.62909 -0.881701 0
M  V30 5060 H 457.394 -1.58652 -0.0389986 0
M  V30 5061 H 457.415 -2.96445 -2.38538 0
M  V30 5062 H 456.927 -3.80473 -0.765619 0
M  V30 5063 H 455.028 -2.43782 -2.81782 0
M  V30 5064 H 455.141 -4.23271 -2.24452 0
M  V30 5065 H 453.505 -2.20324 -1.27786 0
M  V30 5066 H 454.288 -3.43003 -0.14269 0
M  V30 5067 N 456.733 0.527833 -1.48498 0
M  V30 5068 C 457.68 1.6322 -1.6318 0
M  V30 5069 C 458.65 1.59199 -0.473815 0
M  V30 5070 O 459.835 1.77591 -0.697563 0
M  V30 5071 C 456.975 3.01474 -1.67951 0
M  V30 5072 C 456.088 3.15713 -2.94871 0
M  V30 5073 C 455.223 4.44539 -2.90789 0
M  V30 5074 C 454.262 4.52315 -4.12404 0
M  V30 5075 N 453.399 5.72533 -4.06387 0
M  V30 5076 H 458.239 1.50011 -2.57489 0
M  V30 5077 H 455.776 0.730298 -1.27691 0
M  V30 5078 H 457.734 3.81572 -1.68698 0
M  V30 5079 H 456.364 3.1345 -0.771306 0
M  V30 5080 H 455.416 2.28854 -3.03859 0
M  V30 5081 H 456.728 3.1732 -3.8485 0
M  V30 5082 H 455.882 5.3293 -2.89949 0
M  V30 5083 H 454.621 4.45457 -1.98542 0
M  V30 5084 H 453.626 3.62331 -4.13517 0
M  V30 5085 H 454.851 4.53134 -5.05812 0
M  V30 5086 H 452.797 5.74344 -3.16962 0
M  V30 5087 H 452.714 5.75643 -4.90073 0
M  V30 5088 H 453.982 6.63204 -4.0961 0
M  V30 5089 N 458.211 1.37122 0.776871 0
M  V30 5090 C 459.158 1.3247 1.88998 0
M  V30 5091 C 460.128 0.191143 1.64997 0
M  V30 5092 O 461.313 0.379683 1.86984 0
M  V30 5093 C 458.453 1.13241 3.25992 0
M  V30 5094 C 457.566 2.35782 3.61982 0
M  V30 5095 C 456.701 2.09465 4.88158 0
M  V30 5096 C 455.74 3.279 5.16864 0
M  V30 5097 N 454.877 3.01167 6.34226 0
M  V30 5098 H 459.717 2.27642 1.9231 0
M  V30 5099 H 457.254 1.13125 0.94027 0
M  V30 5100 H 459.212 1.00115 4.0501 0
M  V30 5101 H 457.842 0.217186 3.22069 0
M  V30 5102 H 456.894 2.59666 2.77989 0
M  V30 5103 H 458.206 3.24125 3.79137 0
M  V30 5104 H 457.36 1.93341 5.75069 0
M  V30 5105 H 456.099 1.18452 4.73097 0
M  V30 5106 H 455.104 3.44569 4.2843 0
M  V30 5107 H 456.329 4.19757 5.33836 0
M  V30 5108 H 454.275 2.12779 6.20533 0
M  V30 5109 H 454.192 3.83052 6.51772 0
M  V30 5110 H 455.46 2.88649 7.24087 0
M  V30 5111 N 459.689 -1.00246 1.21608 0
M  V30 5112 C 460.919 -1.77373 1.05935 0
M  V30 5113 C 461.327 -1.85059 -0.393686 0
M  V30 5114 O 460.67 -1.31289 -1.28487 0
M  V30 5115 C 460.732 -3.22705 1.58435 0
M  V30 5116 C 460.396 -3.38591 3.06929 0
M  V30 5117 C 461.393 -3.2667 4.04454 0
M  V30 5118 C 459.078 -3.6395 3.46187 0
M  V30 5119 C 461.072 -3.39877 5.39224 0
M  V30 5120 C 458.759 -3.768 4.81108 0
M  V30 5121 C 459.757 -3.6477 5.77436 0
M  V30 5122 O 459.445 -3.77206 7.09909 0
M  V30 5123 H 459.177 -0.56419 0.372378 0
M  V30 5124 H 461.731 -1.26971 1.61454 0
M  V30 5125 H 459.961 -3.74255 0.973147 0
M  V30 5126 H 461.65 -3.81515 1.38568 0
M  V30 5127 H 462.416 -3.06999 3.75468 0
M  V30 5128 H 458.295 -3.72395 2.71741 0
M  V30 5129 H 461.839 -3.30404 6.14393 0
M  V30 5130 H 457.736 -3.95975 5.09779 0
M  V30 5131 H 458.504 -3.94138 7.17355 0
M  V30 5132 N 461.167 -1.02423 -1.1978 0
M  V30 5133 C 462.397 -0.736387 -1.93031 0
M  V30 5134 C 462.805 0.708023 -1.75453 0
M  V30 5135 O 462.148 1.4927 -1.07071 0
M  V30 5136 C 462.21 -1.00194 -3.45255 0
M  V30 5137 C 461.874 -2.43698 -3.86601 0
M  V30 5138 C 462.871 -3.41814 -3.91738 0
M  V30 5139 C 460.556 -2.77975 -4.18372 0
M  V30 5140 C 462.55 -4.72265 -4.28071 0
M  V30 5141 C 460.237 -4.08636 -4.54378 0
M  V30 5142 C 461.235 -5.05592 -4.59201 0
M  V30 5143 O 460.923 -6.33914 -4.94376 0
M  V30 5144 H 460.655 -0.269116 -0.620123 0
M  V30 5145 H 463.209 -1.37043 -1.52998 0
M  V30 5146 H 461.439 -0.310747 -3.85449 0
M  V30 5147 H 463.128 -0.704488 -3.9974 0
M  V30 5148 H 463.894 -3.16671 -3.67348 0
M  V30 5149 H 459.773 -2.0319 -4.13805 0
M  V30 5150 H 463.317 -5.4794 -4.3175 0
M  V30 5151 H 459.214 -4.33556 -4.78226 0
M  V30 5152 H 459.982 -6.38317 -5.12341 0
M  V30 5153 N 462.645 1.35699 -0.801477 0
M  V30 5154 C 463.575 2.32436 -0.222658 0
M  V30 5155 C 464.556 1.5723 0.649057 0
M  V30 5156 O 465.741 1.85324 0.580387 0
M  V30 5157 C 462.871 3.41469 0.633719 0
M  V30 5158 C 461.825 4.27774 -0.139083 0
M  V30 5159 C 461.151 5.28082 0.838666 0
M  V30 5160 C 462.451 5.04946 -1.33517 0
M  V30 5161 H 464.145 2.81094 -1.03086 0
M  V30 5162 H 461.691 1.35146 -0.497155 0
M  V30 5163 H 463.644 4.08143 1.04868 0
M  V30 5164 H 462.368 2.91408 1.47475 0
M  V30 5165 H 461.027 3.62673 -0.535156 0
M  V30 5166 H 460.675 4.7429 1.67506 0
M  V30 5167 H 460.375 5.86695 0.32594 0
M  V30 5168 H 461.899 5.97628 1.25194 0
M  V30 5169 H 463.313 5.64593 -0.995349 0
M  V30 5170 H 461.71 5.7303 -1.78202 0
M  V30 5171 H 462.78 4.35886 -2.12442 0
M  V30 5172 N 464.123 0.554532 1.47522 0
M  V30 5173 C 465.086 -0.184174 2.28459 0
M  V30 5174 C 466.086 -0.845195 1.36796 0
M  V30 5175 O 467.276 -0.701467 1.59452 0
M  V30 5176 C 464.408 -1.26903 3.16399 0
M  V30 5177 H 465.601 0.526751 2.95238 0
M  V30 5178 H 463.154 0.311375 1.53167 0
M  V30 5179 H 463.889 -2.01244 2.54306 0
M  V30 5180 H 463.674 -0.799883 3.83854 0
M  V30 5181 H 465.164 -1.78794 3.77389 0
M  V30 5182 N 465.601 -1.54893 0.290851 0
M  V30 5183 C 466.511 -2.26812 -0.59945 0
M  V30 5184 C 467.527 -1.29963 -1.15696 0
M  V30 5185 O 468.703 -1.62928 -1.18391 0
M  V30 5186 C 465.768 -2.98716 -1.75982 0
M  V30 5187 C 464.829 -4.1108 -1.2374 0
M  V30 5188 C 464.062 -4.79546 -2.34246 0
M  V30 5189 O 464.285 -4.47309 -3.53936 0
M  V30 5190 O 463.219 -5.67165 -2.01512 0
M  V30 5191 H 467.045 -3.03696 -0.0163561 0
M  V30 5192 H 464.63 -1.49289 0.0576755 0
M  V30 5193 H 466.512 -3.43851 -2.43607 0
M  V30 5194 H 465.187 -2.24737 -2.3297 0
M  V30 5195 H 464.094 -3.70367 -0.527163 0
M  V30 5196 H 465.427 -4.87007 -0.71307 0
M  V30 5197 N 467.08 -0.0183926 -1.57589 0
M  V30 5198 C 468.027 0.967022 -2.09565 0
M  V30 5199 C 468.997 1.32983 -0.995225 0
M  V30 5200 O 470.182 1.42501 -1.26878 0
M  V30 5201 C 467.322 2.24772 -2.61861 0
M  V30 5202 C 466.435 1.94232 -3.85873 0
M  V30 5203 C 465.57 3.16518 -4.26603 0
M  V30 5204 C 464.609 2.81748 -5.43401 0
M  V30 5205 N 463.746 3.96626 -5.79338 0
M  V30 5206 H 468.586 0.516874 -2.93483 0
M  V30 5207 H 466.123 0.243544 -1.4507 0
M  V30 5208 H 468.081 2.99667 -2.90268 0
M  V30 5209 H 466.711 2.67423 -1.8079 0
M  V30 5210 H 465.763 1.09625 -3.64262 0
M  V30 5211 H 467.075 1.64616 -4.70853 0
M  V30 5212 H 466.229 3.99743 -4.56389 0
M  V30 5213 H 464.968 3.49286 -3.40368 0
M  V30 5214 H 463.973 1.96933 -5.1332 0
M  V30 5215 H 465.198 2.50207 -6.31327 0
M  V30 5216 H 463.144 4.29257 -4.96059 0
M  V30 5217 H 463.061 3.70598 -6.58933 0
M  V30 5218 H 464.329 4.80586 -6.13724 0
M  V30 5219 N 468.558 1.5553 0.254621 0
M  V30 5220 C 469.508 1.86057 1.31783 0
M  V30 5221 C 470.492 0.720827 1.4385 0
M  V30 5222 O 471.684 0.982586 1.47222 0
M  V30 5223 C 468.813 2.15203 2.67475 0
M  V30 5224 C 467.899 3.35484 2.59444 0
M  V30 5225 N 468.29 4.54945 2.2104 0
M  V30 5226 C 466.588 3.38441 2.90472 0
M  V30 5227 C 467.289 5.3707 2.23453 0
M  V30 5228 N 466.265 4.75936 2.62652 0
M  V30 5229 H 470.067 2.75953 1.01129 0
M  V30 5230 H 467.581 1.55653 0.463255 0
M  V30 5231 H 469.578 2.35235 3.44195 0
M  V30 5232 H 468.238 1.26601 2.99002 0
M  V30 5233 H 469.249 4.8071 1.92712 0
M  V30 5234 H 465.926 2.60087 3.2659 0
M  V30 5235 H 467.316 6.42626 1.96166 0
M  V30 5236 N 470.036 -0.519951 1.48776 0
M  V30 5237 C 470.999 -1.60574 1.6355 0
M  V30 5238 C 471.999 -1.52557 0.508234 0
M  V30 5239 O 473.189 -1.56047 0.774262 0
M  V30 5240 C 470.321 -3.00211 1.61512 0
M  V30 5241 H 471.514 -1.4881 2.60376 0
M  V30 5242 H 469.067 -0.742772 1.37523 0
M  V30 5243 H 469.802 -3.17471 0.662009 0
M  V30 5244 H 469.587 -3.07439 2.43359 0
M  V30 5245 H 471.077 -3.79134 1.75064 0
M  V30 5246 N 471.514 -1.37532 -0.769588 0
M  V30 5247 C 472.761 -1.3286 -1.52822 0
M  V30 5248 C 473.089 0.0862597 -1.94309 0
M  V30 5249 O 472.344 1.05995 -1.6451 0
M  V30 5250 C 472.643 -2.21558 -2.8044 0
M  V30 5251 C 472.309 -3.69796 -2.57996 0
M  V30 5252 C 470.971 -4.10194 -2.51583 0
M  V30 5253 C 473.323 -4.63699 -2.37976 0
M  V30 5254 C 470.651 -5.42608 -2.23144 0
M  V30 5255 C 473.003 -5.96353 -2.1106 0
M  V30 5256 C 471.667 -6.35853 -2.03093 0
M  V30 5257 H 470.937 -0.486168 -0.559215 0
M  V30 5258 H 473.584 -1.69757 -0.886277 0
M  V30 5259 H 471.889 -1.77663 -3.49204 0
M  V30 5260 H 473.586 -2.15256 -3.38328 0
M  V30 5261 H 470.176 -3.37759 -2.63851 0
M  V30 5262 H 474.36 -4.33346 -2.41919 0
M  V30 5263 H 469.616 -5.72173 -2.15472 0
M  V30 5264 H 473.79 -6.68667 -1.94568 0
M  V30 5265 H 471.417 -7.38382 -1.8082 0
M  V30 5266 N 472.992 0.995999 -1.22138 0
M  V30 5267 C 474.24 1.73167 -1.042 0
M  V30 5268 C 474.561 1.90329 0.42423 0
M  V30 5269 O 473.831 1.4607 1.30539 0
M  V30 5270 H 472.411 0.641593 -0.38258 0
M  V30 5271 H 475.073 1.19974 -1.53598 0
M  V30 5272 H 474.169 2.72734 -1.51731 0
M  V30 5273 N 474.47 1.03057 1.19235 0
M  V30 5274 C 475.695 0.74757 1.93458 0
M  V30 5275 C 476.12 -0.687648 1.7508 0
M  V30 5276 O 475.478 -1.47499 1.05422 0
M  V30 5277 C 475.526 1.10604 3.43219 0
M  V30 5278 O 474.63 0.225671 4.11782 0
M  V30 5279 H 473.971 0.276047 0.603899 0
M  V30 5280 H 476.501 1.3777 1.51263 0
M  V30 5281 H 476.511 1.06366 3.93891 0
M  V30 5282 H 475.186 2.15165 3.55917 0
M  V30 5283 H 473.763 0.326795 3.71465 0
M  V30 5284 N 475.948 -1.35272 0.808662 0
M  V30 5285 C 477.197 -1.97963 0.386483 0
M  V30 5286 C 477.51 -1.64866 -1.05255 0
M  V30 5287 O 478.716 -2.20937 -1.57794 0
M  V30 5288 C 477.172 -3.54162 0.640096 0
M  V30 5289 C 476.78 -3.96166 2.0918 0
M  V30 5290 C 478.524 -4.23553 0.283376 0
M  V30 5291 C 476.431 -5.4522 2.29106 0
M  V30 5292 H 475.361 -0.740742 0.140774 0
M  V30 5293 H 478.012 -1.5431 0.993012 0
M  V30 5294 H 476.394 -3.95983 -0.0364117 0
M  V30 5295 H 477.568 -3.65491 2.80629 0
M  V30 5296 H 475.883 -3.3967 2.40859 0
M  V30 5297 H 478.48 -5.33124 0.410273 0
M  V30 5298 H 478.823 -4.09105 -0.770659 0
M  V30 5299 H 479.356 -3.8716 0.913884 0
M  V30 5300 H 476.095 -5.64638 3.32962 0
M  V30 5301 H 475.615 -5.77457 1.62184 0
M  V30 5302 H 477.294 -6.1171 2.1076 0
M  V30 5303 N 477.426 -0.562348 -1.47226 0
M  V30 5304 C 478.837 -0.130325 -1.86245 0
M  V30 5305 C 479.188 1.30128 -1.46838 0
M  V30 5306 O 478.313 1.97974 -0.873805 0
M  V30 5307 C 478.908 -0.229738 -3.3802 0
M  V30 5308 C 477.467 0.14728 -3.76112 0
M  V30 5309 C 476.614 -0.574971 -2.71274 0
M  V30 5310 H 479.565 -0.771773 -1.3867 0
M  V30 5311 H 479.586 0.550316 -3.76499 0
M  V30 5312 H 479.098 -1.27178 -3.66671 0
M  V30 5313 H 477.199 1.19023 -3.53078 0
M  V30 5314 H 477.312 -0.214858 -4.78618 0
M  V30 5315 H 475.676 -0.0174756 -2.54694 0
M  V30 5316 H 476.459 -1.61827 -3.02766 0
M  V30 5317 N 478.904 1.54736 -0.299062 0
M  V30 5318 C 479.814 2.27127 0.587413 0
M  V30 5319 C 480.83 1.30575 1.15005 0
M  V30 5320 O 482.006 1.63554 1.17525 0
M  V30 5321 C 479.071 2.99645 1.74395 0
M  V30 5322 C 478.132 4.11731 1.21559 0
M  V30 5323 C 477.365 4.80781 2.317 0
M  V30 5324 O 477.588 4.4918 3.51558 0
M  V30 5325 O 476.522 5.68226 1.98501 0
M  V30 5326 H 480.348 3.037 0.000250109 0
M  V30 5327 H 477.933 1.49256 -0.0655919 0
M  V30 5328 H 479.815 3.45138 2.4178 0
M  V30 5329 H 478.49 2.25969 2.31775 0
M  V30 5330 H 477.397 3.70641 0.507514 0
M  V30 5331 H 478.73 4.87379 0.687233 0
M  V30 5332 N 480.382 0.0267497 1.57577 0
M  V30 5333 C 481.631 -0.651736 1.9088 0
M  V30 5334 C 481.944 -1.73427 0.904576 0
M  V30 5335 O 483.15 -2.46923 1.12877 0
M  V30 5336 C 481.606 -1.21048 3.38933 0
M  V30 5337 C 481.214 -0.161362 4.47709 0
M  V30 5338 C 482.958 -1.86562 3.81307 0
M  V30 5339 C 480.865 -0.731611 5.86857 0
M  V30 5340 H 479.795 -0.247198 0.712326 0
M  V30 5341 H 482.446 0.0916641 1.83271 0
M  V30 5342 H 480.828 -2.00542 3.41466 0
M  V30 5343 H 482.002 0.61094 4.56732 0
M  V30 5344 H 480.317 0.394877 4.14523 0
M  V30 5345 H 482.914 -2.30178 4.8262 0
M  V30 5346 H 483.257 -2.70735 3.16241 0
M  V30 5347 H 483.79 -1.13762 3.81186 0
M  V30 5348 H 480.529 0.0719329 6.55461 0
M  V30 5349 H 480.049 -1.47245 5.81445 0
M  V30 5350 H 481.728 -1.22208 6.35354 0
M  V30 5351 N 481.861 -1.55662 -0.24637 0
M  V30 5352 C 483.11 -1.7672 -0.972254 0
M  V30 5353 C 483.423 -0.59078 -1.86465 0
M  V30 5354 O 484.629 -0.684391 -2.62732 0
M  V30 5355 C 483.085 -3.12869 -1.7788 0
M  V30 5356 C 482.693 -4.38161 -0.933768 0
M  V30 5357 C 484.437 -3.43265 -2.49738 0
M  V30 5358 C 482.344 -5.6534 -1.73623 0
M  V30 5359 H 481.274 -0.658795 -0.366749 0
M  V30 5360 H 483.925 -1.82092 -0.226902 0
M  V30 5361 H 482.307 -3.01606 -2.56612 0
M  V30 5362 H 483.481 -4.60413 -0.188736 0
M  V30 5363 H 481.796 -4.15102 -0.328488 0
M  V30 5364 H 484.393 -4.35501 -3.10231 0
M  V30 5365 H 484.736 -2.64614 -3.2138 0
M  V30 5366 H 485.269 -3.55746 -1.78016 0
M  V30 5367 H 482.008 -6.46814 -1.06354 0
M  V30 5368 H 481.528 -5.47188 -2.45653 0
M  V30 5369 H 483.207 -6.04616 -2.30323 0
M  V30 5370 N 483.339 0.512053 -1.4905 0
M  V30 5371 C 484.249 1.64139 -1.67617 0
M  V30 5372 C 485.265 1.64786 -0.558701 0
M  V30 5373 O 486.441 1.8341 -0.832034 0
M  V30 5374 C 483.506 3.00548 -1.72835 0
M  V30 5375 C 482.567 3.10615 -2.96339 0
M  V30 5376 C 481.8 4.40517 -3.01298 0
M  V30 5377 O 482.023 5.28671 -2.14157 0
M  V30 5378 O 480.957 4.55325 -3.93653 0
M  V30 5379 H 484.783 1.51407 -2.63267 0
M  V30 5380 H 482.368 0.687131 -1.32661 0
M  V30 5381 H 484.25 3.81641 -1.78683 0
M  V30 5382 H 482.925 3.13566 -0.803616 0
M  V30 5383 H 481.832 2.2875 -2.96014 0
M  V30 5384 H 483.165 3.0252 -3.88256 0
M  V30 5385 N 484.817 1.37938 0.762283 0
M  V30 5386 C 486.047 1.36685 1.54922 0
M  V30 5387 C 486.455 -0.0474099 1.89141 0
M  V30 5388 O 485.798 -1.02213 1.52638 0
M  V30 5389 C 485.86 2.14963 2.88152 0
M  V30 5390 C 485.524 3.6385 2.76518 0
M  V30 5391 C 486.521 4.57531 2.46904 0
M  V30 5392 C 484.206 4.07095 2.94243 0
M  V30 5393 C 486.2 5.92436 2.35156 0
M  V30 5394 C 483.887 5.42083 2.82116 0
M  V30 5395 C 484.885 6.34567 2.52614 0
M  V30 5396 O 484.573 7.67073 2.40529 0
M  V30 5397 H 484.305 0.469586 0.486276 0
M  V30 5398 H 486.859 1.82012 0.951876 0
M  V30 5399 H 485.089 1.6434 3.50042 0
M  V30 5400 H 486.778 2.06224 3.49609 0
M  V30 5401 H 487.544 4.25428 2.32886 0
M  V30 5402 H 483.423 3.35462 3.16206 0
M  V30 5403 H 486.967 6.64591 2.12049 0
M  V30 5404 H 482.864 5.73785 2.95704 0
M  V30 5405 H 483.632 7.77499 2.55807 0
M  V30 5406 N 486.295 -0.989507 1.22664 0
M  V30 5407 C 487.245 -2.06478 0.967005 0
M  V30 5408 C 488.229 -1.60682 -0.0836374 0
M  V30 5409 O 489.421 -1.76541 0.127322 0
M  V30 5410 C 486.55 -3.38861 0.550313 0
M  V30 5411 C 485.636 -3.9128 1.63587 0
M  V30 5412 N 486.027 -4.16884 2.86429 0
M  V30 5413 C 484.325 -4.1972 1.50834 0
M  V30 5414 C 485.026 -4.5954 3.56648 0
M  V30 5415 N 484.002 -4.63434 2.84131 0
M  V30 5416 H 487.804 -2.24219 1.90008 0
M  V30 5417 H 485.318 -1.17153 1.12467 0
M  V30 5418 H 487.315 -4.15465 0.345612 0
M  V30 5419 H 485.975 -3.22518 -0.375822 0
M  V30 5420 H 486.986 -4.04976 3.22823 0
M  V30 5421 H 483.663 -4.1243 0.648643 0
M  V30 5422 H 485.053 -4.87944 4.61909 0
M  V30 5423 N 487.773 -1.03688 -1.18687 0
M  V30 5424 C 488.72 -0.624624 -2.22187 0
M  V30 5425 C 489.69 0.365636 -1.62026 0
M  V30 5426 O 490.875 0.260481 -1.89014 0
M  V30 5427 C 488.015 0.0101738 -3.45099 0
M  V30 5428 C 487.128 -1.02709 -4.19613 0
M  V30 5429 C 486.263 -0.361213 -5.2997 0
M  V30 5430 C 485.302 -1.38384 -5.96252 0
M  V30 5431 N 484.439 -0.743196 -6.98155 0
M  V30 5432 H 489.279 -1.51176 -2.56807 0
M  V30 5433 H 486.816 -0.75636 -1.26165 0
M  V30 5434 H 488.774 0.395528 -4.15321 0
M  V30 5435 H 487.404 0.860848 -3.1111 0
M  V30 5436 H 486.456 -1.53043 -3.48256 0
M  V30 5437 H 487.768 -1.80398 -4.65036 0
M  V30 5438 H 486.922 0.0785537 -6.06649 0
M  V30 5439 H 485.661 0.447799 -4.8564 0
M  V30 5440 H 484.666 -1.83378 -5.18317 0
M  V30 5441 H 485.891 -2.19448 -6.42666 0
M  V30 5442 H 483.837 0.0455789 -6.55984 0
M  V30 5443 H 483.754 -1.45784 -7.41811 0
M  V30 5444 H 485.022 -0.327698 -7.78811 0
M  V30 5445 N 489.251 1.34841 -0.815825 0
M  V30 5446 C 490.201 2.27075 -0.205169 0
M  V30 5447 C 491.185 1.48205 0.626414 0
M  V30 5448 O 492.377 1.70306 0.482157 0
M  V30 5449 C 489.506 3.37322 0.637871 0
M  V30 5450 C 488.592 4.23609 -0.203948 0
M  V30 5451 N 488.983 4.89558 -1.27149 0
M  V30 5452 C 487.281 4.45998 0.0128971 0
M  V30 5453 C 487.982 5.53597 -1.7862 0
M  V30 5454 N 486.958 5.32535 -1.0912 0
M  V30 5455 H 490.76 2.75563 -1.02187 0
M  V30 5456 H 488.274 1.48477 -0.657912 0
M  V30 5457 H 490.271 4.02359 1.09146 0
M  V30 5458 H 488.931 2.90385 1.45281 0
M  V30 5459 H 489.942 4.9077 -1.65423 0
M  V30 5460 H 486.619 4.09837 0.79624 0
M  V30 5461 H 488.009 6.16184 -2.67892 0
M  V30 5462 N 490.729 0.570148 1.46925 0
M  V30 5463 C 491.677 -0.183181 2.31878 0
M  V30 5464 C 492.671 -0.896721 1.43719 0
M  V30 5465 O 493.877 -0.816536 1.60414 0
M  V30 5466 H 490.252 -0.077944 0.74795 0
M  V30 5467 H 492.223 0.552312 2.93244 0
M  V30 5468 C 490.972 -1.19172 3.2664 0
M  V30 5469 H 490.295 -0.652088 3.94446 0
M  V30 5470 H 491.735 -1.68946 3.88887 0
M  V30 5471 C 490.194 -2.24627 2.51086 0
M  V30 5472 O 490.724 -3.31773 2.26472 0
M  V30 5473 N 488.93 -1.98898 2.11867 0
M  V30 5474 H 488.477 -1.11777 2.32086 0
M  V30 5475 H 488.435 -2.6967 1.61634 0
M  V30 5476 N 492.207 -1.54576 0.307264 0
M  V30 5477 C 493.17 -2.22423 -0.553224 0
M  V30 5478 C 494.17 -1.21231 -1.05639 0
M  V30 5479 O 495.36 -1.45923 -0.951419 0
M  V30 5480 C 492.492 -2.91552 -1.76664 0
M  V30 5481 H 493.685 -2.99874 0.0396484 0
M  V30 5482 H 491.238 -1.56192 0.0581629 0
M  V30 5483 H 491.973 -2.18196 -2.39918 0
M  V30 5484 H 491.758 -3.65738 -1.41343 0
M  V30 5485 H 493.248 -3.43292 -2.37783 0
M  V30 5486 N 493.685 -0.035106 -1.57561 0
M  V30 5487 C 494.648 0.929819 -2.09492 0
M  V30 5488 C 495.648 1.25026 -1.01119 0
M  V30 5489 O 496.838 1.18961 -1.27255 0
M  V30 5490 C 493.97 2.24457 -2.56577 0
M  V30 5491 H 495.163 0.479935 -2.96035 0
M  V30 5492 H 492.716 0.213033 -1.54841 0
M  V30 5493 H 493.451 2.74061 -1.73382 0
M  V30 5494 H 493.236 2.02508 -3.35757 0
M  V30 5495 H 494.726 2.93607 -2.96959 0
M  V30 5496 N 495.163 1.55791 0.238111 0
M  V30 5497 C 496.411 1.77681 0.963001 0
M  V30 5498 C 496.732 0.600674 1.85518 0
M  V30 5499 O 496.002 -0.383182 1.92116 0
M  V30 5500 H 494.582 0.655315 0.358568 0
M  V30 5501 H 497.244 1.93239 0.253945 0
M  V30 5502 H 496.34 2.69177 1.57956 0
M  V30 5503 N 496.642 -0.504142 1.49319 0
M  V30 5504 C 497.572 -1.61473 1.68667 0
M  V30 5505 C 498.553 -1.61455 0.535378 0
M  V30 5506 O 499.738 -1.78245 0.770868 0
M  V30 5507 C 496.868 -2.99971 1.75028 0
M  V30 5508 C 495.822 -3.14854 2.89916 0
M  V30 5509 C 495.148 -4.54671 2.81387 0
M  V30 5510 C 496.448 -2.95176 4.30893 0
M  V30 5511 H 498.142 -1.45535 2.61648 0
M  V30 5512 H 495.688 -0.698711 1.25913 0
M  V30 5513 H 497.641 -3.77562 1.8715 0
M  V30 5514 H 496.365 -3.1699 0.786441 0
M  V30 5515 H 495.024 -2.39687 2.77391 0
M  V30 5516 H 494.672 -4.68562 1.82917 0
M  V30 5517 H 494.372 -4.6557 3.58494 0
M  V30 5518 H 495.896 -5.34327 2.95512 0
M  V30 5519 H 497.31 -3.62538 4.44116 0
M  V30 5520 H 495.707 -3.17549 5.09198 0
M  V30 5521 H 496.777 -1.91332 4.45556 0
M  V30 5522 N 498.12 -1.38341 -0.754957 0
M  V30 5523 C 499.366 -1.34672 -1.51628 0
M  V30 5524 C 499.699 0.0636036 -1.94096 0
M  V30 5525 O 498.974 1.0245 -1.6533 0
M  V30 5526 C 499.257 -2.30116 -2.76981 0
M  V30 5527 C 499.11 -3.80003 -2.4066 0
M  V30 5528 C 500.429 -2.23715 -3.78998 0
M  V30 5529 H 497.548 -0.490517 -0.550056 0
M  V30 5530 H 500.19 -1.69178 -0.864807 0
M  V30 5531 H 498.34 -2.00821 -3.3257 0
M  V30 5532 H 500.012 -4.19966 -1.90856 0
M  V30 5533 H 498.255 -3.97751 -1.73137 0
M  V30 5534 H 498.926 -4.42244 -3.30339 0
M  V30 5535 H 501.402 -2.49574 -3.32945 0
M  V30 5536 H 500.278 -2.9261 -4.64403 0
M  V30 5537 H 500.539 -1.23554 -4.24484 0
M  V30 5538 N 499.598 0.982988 -1.23187 0
M  V30 5539 C 500.826 1.75921 -1.08901 0
M  V30 5540 C 501.241 1.85341 0.359719 0
M  V30 5541 O 500.598 1.33072 1.24892 0
M  V30 5542 C 500.649 3.18742 -1.70545 0
M  V30 5543 O 500.37 3.09814 -3.09753 0
M  V30 5544 C 501.871 4.1277 -1.61667 0
M  V30 5545 H 499.091 0.552166 -0.381252 0
M  V30 5546 H 501.635 1.23516 -1.62985 0
M  V30 5547 H 499.79 3.68182 -1.20501 0
M  V30 5548 H 500.204 3.99703 -3.39614 0
M  V30 5549 H 501.678 5.10697 -2.09506 0
M  V30 5550 H 502.155 4.3542 -0.575009 0
M  V30 5551 H 502.761 3.69232 -2.11064 0
M  V30 5552 N 501.076 1.04316 1.18135 0
M  V30 5553 C 502.492 0.762858 1.40188 0
M  V30 5554 C 502.692 -0.646547 1.90846 0
M  V30 5555 O 501.748 -1.41036 2.0944 0
M  V30 5556 C 503.061 1.81106 2.40044 0
M  V30 5557 C 504.609 1.83226 2.53766 0
M  V30 5558 C 505.084 2.87044 3.56889 0
M  V30 5559 N 506.575 2.85951 3.64398 0
M  V30 5560 C 507.31 3.62932 4.43923 0
M  V30 5561 N 506.806 4.49672 5.27036 0
M  V30 5562 N 508.599 3.51411 4.38711 0
M  V30 5563 H 500.75 1.95264 0.835805 0
M  V30 5564 H 503.013 0.845017 0.429709 0
M  V30 5565 H 502.719 2.82214 2.09876 0
M  V30 5566 H 502.593 1.64529 3.39426 0
M  V30 5567 H 504.98 0.827869 2.8325 0
M  V30 5568 H 505.061 2.03879 1.54489 0
M  V30 5569 H 504.705 3.87663 3.28145 0
M  V30 5570 H 504.635 2.63645 4.5585 0
M  V30 5571 H 507.126 2.23051 3.05052 0
M  V30 5572 H 507.439 5.05116 5.84874 0
M  V30 5573 H 505.784 4.53738 5.26447 0
M  V30 5574 H 508.975 2.83047 3.72829 0
M  V30 5575 H 509.148 4.11654 5.00445 0
M  V30 5576 N 502.554 -1.34406 0.822964 0
M  V30 5577 C 503.484 -2.32052 0.259608 0
M  V30 5578 C 504.465 -1.58243 -0.623961 0
M  V30 5579 O 505.65 -1.86224 -0.55083 0
M  V30 5580 C 502.78 -3.42434 -0.579314 0
M  V30 5581 C 501.734 -4.27499 0.20712 0
M  V30 5582 C 501.06 -5.29349 -0.754547 0
M  V30 5583 C 502.36 -5.02758 1.41533 0
M  V30 5584 H 504.054 -2.79418 1.07545 0
M  V30 5585 H 501.6 -1.34338 0.518593 0
M  V30 5586 H 503.553 -4.0976 -0.983612 0
M  V30 5587 H 502.277 -2.93717 -1.4282 0
M  V30 5588 H 500.936 -3.61776 0.592787 0
M  V30 5589 H 500.584 -4.76895 -1.59939 0
M  V30 5590 H 500.284 -5.8714 -0.232561 0
M  V30 5591 H 501.808 -5.99544 -1.1567 0
M  V30 5592 H 503.222 -5.62938 1.08504 0
M  V30 5593 H 501.619 -5.70123 1.87296 0
M  V30 5594 H 502.689 -4.32451 2.1935 0
M  V30 5595 N 504.032 -0.577932 -1.46621 0
M  V30 5596 C 505.448 -0.239242 -1.57797 0
M  V30 5597 C 505.648 1.25843 -1.57371 0
M  V30 5598 O 504.704 2.03988 -1.48813 0
M  V30 5599 C 506.017 -0.884227 -2.87405 0
M  V30 5600 C 507.565 -0.857373 -3.01028 0
M  V30 5601 C 508.04 -1.48181 -4.33366 0
M  V30 5602 N 509.531 -1.44593 -4.40053 0
M  V30 5603 C 510.266 -1.89852 -5.41058 0
M  V30 5604 N 509.762 -2.43062 -6.48762 0
M  V30 5605 N 511.555 -1.80797 -5.3223 0
M  V30 5606 H 503.706 -1.55073 -1.45142 0
M  V30 5607 H 505.969 -0.647903 -0.692044 0
M  V30 5608 H 505.675 -1.93759 -2.93514 0
M  V30 5609 H 505.549 -0.389585 -3.75183 0
M  V30 5610 H 507.936 0.187357 -2.94505 0
M  V30 5611 H 508.017 -1.38999 -2.14739 0
M  V30 5612 H 507.661 -2.52572 -4.40647 0
M  V30 5613 H 507.591 -0.924464 -5.18422 0
M  V30 5614 H 510.082 -1.05694 -3.62819 0
M  V30 5615 H 510.395 -2.75466 -7.22038 0
M  V30 5616 H 508.74 -2.47085 -6.49595 0
M  V30 5617 H 511.931 -1.38989 -4.46989 0
M  V30 5618 H 512.104 -2.16385 -6.10804 0
M  V30 5619 N 505.51 1.54411 -0.315457 0
M  V30 5620 C 506.74 2.04536 0.291315 0
M  V30 5621 C 507.148 1.19162 1.4696 0
M  V30 5622 O 506.491 0.213199 1.82459 0
M  V30 5623 C 506.553 3.5056 0.796725 0
M  V30 5624 C 506.217 4.5627 -0.258178 0
M  V30 5625 C 507.214 5.08312 -1.09153 0
M  V30 5626 C 504.899 5.00672 -0.404036 0
M  V30 5627 C 506.893 6.03312 -2.05655 0
M  V30 5628 C 504.58 5.95488 -1.37248 0
M  V30 5629 C 505.578 6.46693 -2.19721 0
M  V30 5630 O 505.266 7.39648 -3.14921 0
M  V30 5631 H 504.998 0.672856 0.0651165 0
M  V30 5632 H 507.552 2.00244 -0.457308 0
M  V30 5633 H 505.782 3.52223 1.59612 0
M  V30 5634 H 507.471 3.83804 1.32096 0
M  V30 5635 H 508.237 4.74793 -0.98979 0
M  V30 5636 H 504.116 4.60436 0.22799 0
M  V30 5637 H 507.66 6.43203 -2.70067 0
M  V30 5638 H 503.557 6.28424 -1.47489 0
M  V30 5639 H 504.325 7.57496 -3.10067 0
M  V30 5640 N 506.988 0.0434614 1.5754 0
M  V30 5641 C 508.399 -0.493343 1.80064 0
M  V30 5642 C 508.75 -1.71388 0.955023 0
M  V30 5643 O 507.875 -2.15736 0.169434 0
M  V30 5644 C 508.47 -0.90179 3.26578 0
M  V30 5645 C 507.029 -1.38362 3.50047 0
M  V30 5646 C 506.176 -0.355129 2.75017 0
M  V30 5647 H 509.127 0.2694 1.56397 0
M  V30 5648 H 509.148 -1.76523 3.37075 0
M  V30 5649 H 508.66 -0.013271 3.88098 0
M  V30 5650 H 506.761 -2.29159 2.93798 0
M  V30 5651 H 506.874 -1.3811 4.58762 0
M  V30 5652 H 505.238 -0.826348 2.40922 0
M  V30 5653 H 506.021 0.525172 3.39259 0
M  V30 5654 N 508.466 -1.55915 -0.229846 0
M  V30 5655 C 509.712 -1.78807 -0.956868 0
M  V30 5656 C 510.045 -0.611687 -1.84315 0
M  V30 5657 O 509.32 0.389398 -1.90562 0
M  V30 5658 C 509.603 -3.11718 -1.80288 0
M  V30 5659 C 509.456 -4.3979 -0.943649 0
M  V30 5660 C 510.775 -3.40999 -2.78222 0
M  V30 5661 H 507.894 -0.6505 -0.346437 0
M  V30 5662 H 510.536 -1.88648 -0.226252 0
M  V30 5663 H 508.686 -3.03459 -2.42579 0
M  V30 5664 H 510.358 -4.60059 -0.338121 0
M  V30 5665 H 508.601 -4.33086 -0.248705 0
M  V30 5666 H 509.272 -5.29208 -1.5698 0
M  V30 5667 H 511.748 -3.49332 -2.26067 0
M  V30 5668 H 510.624 -4.35183 -3.34526 0
M  V30 5669 H 510.885 -2.62754 -3.55546 0
M  V30 5670 N 509.944 0.496216 -1.49584 0
M  V30 5671 C 511.169 1.27865 -1.63295 0
M  V30 5672 C 511.594 1.85592 -0.306156 0
M  V30 5673 O 510.952 1.66092 0.726851 0
M  V30 5674 C 511 2.38128 -2.7079 0
M  V30 5675 O 510.104 3.42108 -2.30296 0
M  V30 5676 H 509.445 0.377279 -0.546403 0
M  V30 5677 H 511.975 0.593497 -1.95803 0
M  V30 5678 H 511.985 2.8382 -2.93104 0
M  V30 5679 H 510.66 1.95479 -3.67098 0
M  V30 5680 H 509.237 3.02301 -2.18331 0
M  V30 5681 N 511.423 1.38739 0.74761 0
M  V30 5682 C 512.669 1.35475 1.50912 0
M  V30 5683 C 513.002 -0.0533093 1.94127 0
M  V30 5684 O 512.277 -1.01572 1.65871 0
M  V30 5685 C 512.56 2.31582 2.75757 0
M  V30 5686 C 512.413 3.81274 2.38642 0
M  V30 5687 C 513.732 2.25722 3.77806 0
M  V30 5688 H 510.851 0.493427 0.547447 0
M  V30 5689 H 513.493 1.69634 0.855823 0
M  V30 5690 H 511.643 2.02582 3.31501 0
M  V30 5691 H 513.315 4.20972 1.88626 0
M  V30 5692 H 511.558 3.98664 1.71025 0
M  V30 5693 H 512.229 4.4399 3.27989 0
M  V30 5694 H 514.705 2.51336 3.31616 0
M  V30 5695 H 513.581 2.95069 4.62845 0
M  V30 5696 H 513.842 1.25803 4.23823 0
M  V30 5697 N 512.901 -0.976442 1.23707 0
M  V30 5698 C 513.848 -2.06952 1.02174 0
M  V30 5699 C 514.818 -1.65984 -0.0621034 0
M  V30 5700 O 516.003 -1.90584 0.0907906 0
M  V30 5701 C 513.143 -3.39425 0.62327 0
M  V30 5702 C 512.256 -3.9364 1.77966 0
M  V30 5703 C 511.391 -5.14343 1.3276 0
M  V30 5704 C 510.43 -5.60733 2.45449 0
M  V30 5705 N 509.567 -6.72662 2.01172 0
M  V30 5706 H 514.407 -2.24704 1.95734 0
M  V30 5707 H 511.944 -1.10143 0.975034 0
M  V30 5708 H 513.902 -4.15526 0.37332 0
M  V30 5709 H 512.532 -3.21624 -0.275329 0
M  V30 5710 H 511.584 -3.14258 2.14351 0
M  V30 5711 H 512.896 -4.24035 2.62671 0
M  V30 5712 H 512.05 -5.97789 1.03601 0
M  V30 5713 H 510.789 -4.8561 0.450975 0
M  V30 5714 H 509.794 -4.75865 2.75378 0
M  V30 5715 H 511.019 -5.91483 3.33654 0
M  V30 5716 H 508.965 -6.45681 1.15895 0
M  V30 5717 H 508.882 -7.02462 2.79434 0
M  V30 5718 H 510.15 -7.59572 1.75129 0
M  V30 5719 N 514.379 -1.04941 -1.1758 0
M  V30 5720 C 515.627 -0.756492 -1.87408 0
M  V30 5721 C 515.948 0.718478 -1.81281 0
M  V30 5722 O 515.218 1.519 -1.23706 0
M  V30 5723 H 513.798 -0.276841 -0.693807 0
M  V30 5724 H 516.46 -1.32803 -1.42652 0
M  V30 5725 H 515.556 -1.06918 -2.93215 0
M  V30 5726 N 515.857 1.33968 -0.830081 0
M  V30 5727 C 516.804 2.29387 -0.255008 0
M  V30 5728 C 517.774 1.53923 0.624243 0
M  V30 5729 O 518.959 1.82262 0.564372 0
M  V30 5730 C 516.099 3.4034 0.571209 0
M  V30 5731 C 515.212 4.30729 -0.331083 0
M  V30 5732 C 514.347 5.2879 0.505389 0
M  V30 5733 C 513.386 6.10819 -0.395843 0
M  V30 5734 N 512.523 7.00948 0.401979 0
M  V30 5735 H 517.363 2.77972 -1.07404 0
M  V30 5736 H 514.9 1.36785 -0.541133 0
M  V30 5737 H 516.858 4.03361 1.06562 0
M  V30 5738 H 515.488 2.9297 1.35529 0
M  V30 5739 H 514.54 3.68507 -0.943759 0
M  V30 5740 H 515.852 4.88181 -1.02377 0
M  V30 5741 H 515.006 5.97297 1.06399 0
M  V30 5742 H 513.745 4.71894 1.23155 0
M  V30 5743 H 512.75 5.41238 -0.966529 0
M  V30 5744 H 513.975 6.69797 -1.12023 0
M  V30 5745 H 511.921 6.46512 1.11168 0
M  V30 5746 H 511.838 7.55643 -0.232167 0
M  V30 5747 H 513.106 7.73774 0.943102 0
M  V30 5748 N 517.335 0.585699 1.46312 0
M  V30 5749 C 518.283 -0.158577 2.32059 0
M  V30 5750 C 519.277 -0.881427 1.44662 0
M  V30 5751 O 520.483 -0.799476 1.61271 0
M  V30 5752 H 516.858 -0.0700066 0.748734 0
M  V30 5753 H 518.829 0.583383 2.92642 0
M  V30 5754 C 517.578 -1.15701 3.27885 0
M  V30 5755 H 516.901 -0.610215 3.95116 0
M  V30 5756 H 518.341 -1.64812 3.90657 0
M  V30 5757 C 516.8 -2.21951 2.53455 0
M  V30 5758 O 517.33 -3.29352 2.29978 0
M  V30 5759 N 515.536 -1.9664 2.13965 0
M  V30 5760 H 515.083 -1.09309 2.33258 0
M  V30 5761 H 515.041 -2.6794 1.64485 0
M  V30 5762 N 518.813 -1.54241 0.323641 0
M  V30 5763 C 519.776 -2.22997 -0.529602 0
M  V30 5764 C 520.776 -1.22345 -1.04347 0
M  V30 5765 O 521.966 -1.46924 -0.935889 0
M  V30 5766 C 519.098 -2.93409 -1.73562 0
M  V30 5767 H 520.291 -2.99815 0.0714518 0
M  V30 5768 H 517.844 -1.56121 0.0747258 0
M  V30 5769 H 518.579 -2.20729 -2.37591 0
M  V30 5770 H 518.364 -3.67217 -1.37456 0
M  V30 5771 H 519.854 -3.45794 -2.34128 0
M  V30 5772 N 520.291 -0.0518155 -1.57515 0
M  V30 5773 C 521.702 0.483787 -1.80323 0
M  V30 5774 C 522.053 1.70879 -0.964099 0
M  V30 5775 O 521.178 2.15643 -0.180872 0
M  V30 5776 C 521.773 0.884459 -3.27052 0
M  V30 5777 C 520.332 1.36504 -3.50776 0
M  V30 5778 C 519.479 0.340539 -2.75201 0
M  V30 5779 H 522.43 -0.277691 -1.56252 0
M  V30 5780 H 522.451 1.74733 -3.38007 0
M  V30 5781 H 521.963 -0.00731093 -3.88099 0
M  V30 5782 H 520.064 2.27598 -2.95009 0
M  V30 5783 H 520.177 1.35675 -4.59488 0
M  V30 5784 H 518.541 0.81356 -2.41357 0
M  V30 5785 H 519.324 -0.543156 -3.38976 0
M  V30 5786 N 521.769 1.56035 0.221574 0
M  V30 5787 C 522.997 1.8313 0.962864 0
M  V30 5788 C 523.412 0.630934 1.77946 0
M  V30 5789 O 522.769 -0.400519 1.78051 0
M  V30 5790 C 522.82 3.08742 1.88045 0
M  V30 5791 O 522.541 4.24147 1.09686 0
M  V30 5792 C 524.042 3.48824 2.73563 0
M  V30 5793 H 521.262 0.608775 0.282194 0
M  V30 5794 H 523.806 2.03124 0.23681 0
M  V30 5795 H 521.961 2.90723 2.56045 0
M  V30 5796 H 522.375 4.95505 1.71974 0
M  V30 5797 H 523.849 4.39752 3.3365 0
M  V30 5798 H 524.326 2.70575 3.45956 0
M  V30 5799 H 524.932 3.69282 2.10976 0
M  V30 5800 N 523.247 -0.488276 1.49845 0
M  V30 5801 C 524.475 -1.26527 1.63702 0
M  V30 5802 C 524.89 -1.8618 0.313447 0
M  V30 5803 O 524.247 -1.68432 -0.702624 0
M  V30 5804 C 524.298 -2.3864 2.71538 0
M  V30 5805 O 524.019 -1.81437 3.98763 0
M  V30 5806 C 525.52 -3.29805 2.96215 0
M  V30 5807 H 522.74 -0.383295 0.55075 0
M  V30 5808 H 525.284 -0.584779 1.95961 0
M  V30 5809 H 523.439 -3.02496 2.42023 0
M  V30 5810 H 523.853 -2.55135 4.58265 0
M  V30 5811 H 525.327 -4.04722 3.75372 0
M  V30 5812 H 525.804 -3.87563 2.06619 0
M  V30 5813 H 526.41 -2.71703 3.27196 0
M  V30 5814 N 524.725 -1.39134 -0.740242 0
M  V30 5815 C 525.688 -1.37217 -1.83587 0
M  V30 5816 C 526.688 -0.270221 -1.58513 0
M  V30 5817 O 527.878 -0.527843 -1.6601 0
M  V30 5818 C 525.01 -1.13959 -3.21288 0
M  V30 5819 H 526.203 -2.34705 -1.86691 0
M  V30 5820 H 523.756 -1.24622 -0.94335 0
M  V30 5821 H 524.491 -0.17131 -3.23847 0
M  V30 5822 H 524.276 -1.93754 -3.40884 0
M  V30 5823 H 525.766 -1.15346 -4.01354 0
M  V30 5824 N 526.204 0.969867 -1.24223 0
M  V30 5825 C 527.452 1.70918 -1.0785 0
M  V30 5826 C 527.773 1.91186 0.383763 0
M  V30 5827 O 527.043 1.48806 1.27411 0
M  V30 5828 H 525.623 0.633334 -0.396103 0
M  V30 5829 H 528.285 1.16689 -1.56108 0
M  V30 5830 H 527.381 2.69455 -1.57482 0
M  V30 5831 N 527.682 1.05563 1.17022 0
M  V30 5832 C 528.929 0.767937 1.87374 0
M  V30 5833 C 529.257 -0.705224 1.81265 0
M  V30 5834 O 528.512 -1.5318 1.21796 0
M  V30 5835 C 528.811 1.19849 3.36706 0
M  V30 5836 C 528.477 2.6745 3.63017 0
M  V30 5837 C 527.139 3.0777 3.69907 0
M  V30 5838 C 529.491 3.62811 3.74189 0
M  V30 5839 C 526.819 4.42307 3.85463 0
M  V30 5840 C 529.171 4.97087 3.91264 0
M  V30 5841 C 527.835 5.37055 3.96394 0
M  V30 5842 H 527.105 0.281008 0.68565 0
M  V30 5843 H 529.752 1.32339 1.38415 0
M  V30 5844 H 528.057 0.562096 3.87747 0
M  V30 5845 H 529.754 0.953038 3.8951 0
M  V30 5846 H 526.344 2.35228 3.58282 0
M  V30 5847 H 530.528 3.32798 3.68183 0
M  V30 5848 H 525.784 4.72769 3.87684 0
M  V30 5849 H 529.958 5.70869 3.9885 0
M  V30 5850 H 527.585 6.41308 4.082 0
M  V30 5851 N 529.16 -1.33526 0.837174 0
M  V30 5852 C 530.385 -2.0258 0.444545 0
M  V30 5853 C 530.81 -1.6258 -0.946006 0
M  V30 5854 O 530.168 -0.817548 -1.6182 0
M  V30 5855 C 530.216 -3.5605 0.571006 0
M  V30 5856 O 529.32 -4.10422 -0.403431 0
M  V30 5857 H 528.661 -0.638866 0.180958 0
M  V30 5858 H 531.191 -1.70462 1.13154 0
M  V30 5859 H 531.201 -4.05488 0.452024 0
M  V30 5860 H 529.876 -3.84509 1.58512 0
M  V30 5861 H 528.453 -3.72113 -0.242147 0
M  V30 5862 N 530.638 -0.59345 -1.46 0
M  V30 5863 C 531.868 -0.0889642 -2.06408 0
M  V30 5864 C 532.276 1.22597 -1.44106 0
M  V30 5865 O 531.619 1.75448 -0.544398 0
M  V30 5866 C 531.681 0.139902 -3.59228 0
M  V30 5867 C 531.345 -1.09107 -4.43784 0
M  V30 5868 C 532.342 -2.00577 -4.79651 0
M  V30 5869 C 530.027 -1.31593 -4.84756 0
M  V30 5870 C 532.021 -3.12873 -5.55328 0
M  V30 5871 C 529.708 -2.44192 -5.60191 0
M  V30 5872 C 530.706 -3.34661 -5.95392 0
M  V30 5873 O 530.394 -4.45302 -6.69299 0
M  V30 5874 H 530.126 -0.0594613 -0.67338 0
M  V30 5875 H 532.68 -0.817 -1.88452 0
M  V30 5876 H 530.91 0.922672 -3.75531 0
M  V30 5877 H 532.599 0.594228 -4.01527 0
M  V30 5878 H 533.365 -1.84425 -4.48567 0
M  V30 5879 H 529.244 -0.620801 -4.56801 0
M  V30 5880 H 532.788 -3.83511 -5.82722 0
M  V30 5881 H 528.685 -2.60303 -5.90688 0
M  V30 5882 H 529.453 -4.43805 -6.87735 0
M  V30 5883 N 532.116 1.54067 -0.331816 0
M  V30 5884 C 533.026 2.28322 0.539104 0
M  V30 5885 C 534.042 1.32985 1.1221 0
M  V30 5886 O 535.218 1.6601 1.1403 0
M  V30 5887 C 532.283 3.03277 1.68 0
M  V30 5888 C 531.344 4.14216 1.12798 0
M  V30 5889 C 530.577 4.85588 2.2145 0
M  V30 5890 O 530.8 4.56536 3.41952 0
M  V30 5891 O 529.734 5.72309 1.86404 0
M  V30 5892 H 533.56 3.03632 -0.0641692 0
M  V30 5893 H 531.145 1.49083 -0.0972365 0
M  V30 5894 H 533.027 3.50189 2.34405 0
M  V30 5895 H 531.702 2.30834 2.2693 0
M  V30 5896 H 530.609 3.71635 0.428782 0
M  V30 5897 H 531.942 4.88727 0.583698 0
M  V30 5898 N 533.594 0.0601682 1.57485 0
M  V30 5899 C 534.541 -0.91112 2.12055 0
M  V30 5900 C 535.511 -1.30298 1.03013 0
M  V30 5901 O 536.696 -1.39087 1.30612 0
M  V30 5902 C 533.836 -2.1775 2.67729 0
M  V30 5903 C 532.949 -1.83933 3.90887 0
M  V30 5904 C 532.084 -3.05096 4.34845 0
M  V30 5905 C 531.123 -2.67241 5.5068 0
M  V30 5906 N 530.26 -3.81127 5.8965 0
M  V30 5907 H 535.1 -0.43888 2.9475 0
M  V30 5908 H 532.637 -0.204995 1.45665 0
M  V30 5909 H 534.595 -2.91866 2.98111 0
M  V30 5910 H 533.225 -2.62535 1.87816 0
M  V30 5911 H 532.277 -0.999287 3.6704 0
M  V30 5912 H 533.589 -1.52074 4.75052 0
M  V30 5913 H 532.743 -3.87502 4.66827 0
M  V30 5914 H 531.482 -3.40139 3.49509 0
M  V30 5915 H 530.487 -1.83254 5.18361 0
M  V30 5916 H 531.712 -2.3338 6.37738 0
M  V30 5917 H 529.658 -4.15954 5.07266 0
M  V30 5918 H 529.575 -3.52997 6.68528 0
M  V30 5919 H 530.843 -4.64145 6.2625 0
M  V30 5920 N 535.072 -1.5615 -0.213296 0
M  V30 5921 C 536.318 -1.80718 -0.933402 0
M  V30 5922 C 536.673 -0.634441 -1.81639 0
M  V30 5923 O 535.966 0.371182 -1.8797 0
M  V30 5924 C 536.16 -3.08772 -1.79985 0
M  V30 5925 C 535.989 -4.38389 -1.00224 0
M  V30 5926 C 534.759 -5.00513 -0.693885 0
M  V30 5927 C 536.957 -5.13013 -0.363598 0
M  V30 5928 N 534.939 -6.13774 0.124266 0
M  V30 5929 C 536.31 -6.19186 0.31757 0
M  V30 5930 C 538.365 -4.97126 -0.277468 0
M  V30 5931 C 537.068 -7.11197 1.07664 0
M  V30 5932 C 539.094 -5.89544 0.468155 0
M  V30 5933 C 538.456 -6.95149 1.13784 0
M  V30 5934 H 534.555 -0.712833 -0.321549 0
M  V30 5935 H 537.139 -1.93633 -0.203588 0
M  V30 5936 H 535.31 -2.97126 -2.50142 0
M  V30 5937 H 537.042 -3.21499 -2.45806 0
M  V30 5938 H 533.797 -4.62619 -1.01391 0
M  V30 5939 H 534.221 -6.74981 0.522418 0
M  V30 5940 H 538.863 -4.15526 -0.78087 0
M  V30 5941 H 536.581 -7.92273 1.59153 0
M  V30 5942 H 540.167 -5.79327 0.535911 0
M  V30 5943 H 539.047 -7.65428 1.70557 0
M  V30 5944 N 536.55 0.480323 -1.50102 0
M  V30 5945 C 537.46 1.60547 -1.71061 0
M  V30 5946 C 538.476 1.63564 -0.593529 0
M  V30 5947 O 539.652 1.81604 -0.870751 0
M  V30 5948 C 536.717 2.96814 -1.79171 0
M  V30 5949 C 535.778 3.04259 -3.02861 0
M  V30 5950 C 535.011 4.34027 -3.10574 0
M  V30 5951 O 535.234 5.24009 -2.25323 0
M  V30 5952 O 534.168 4.46873 -4.03223 0
M  V30 5953 H 537.994 1.45788 -2.6642 0
M  V30 5954 H 535.579 0.658838 -1.34088 0
M  V30 5955 H 537.461 3.77765 -1.86738 0
M  V30 5956 H 536.136 3.11791 -0.869947 0
M  V30 5957 H 535.043 2.22419 -3.008 0
M  V30 5958 H 536.376 2.94216 -3.94586 0
M  V30 5959 N 538.028 1.39524 0.732853 0
M  V30 5960 C 539.277 1.36175 1.48792 0
M  V30 5961 C 539.59 -0.0388195 1.95561 0
M  V30 5962 O 540.796 -0.194899 2.708 0
M  V30 5963 C 539.252 2.39242 2.68871 0
M  V30 5964 C 538.86 3.85024 2.29042 0
M  V30 5965 C 540.604 2.44972 3.46683 0
M  V30 5966 C 538.511 4.79727 3.45856 0
M  V30 5967 H 537.441 0.506267 0.558757 0
M  V30 5968 H 540.092 1.65181 0.799226 0
M  V30 5969 H 538.474 2.0331 3.39825 0
M  V30 5970 H 539.648 4.30008 1.6562 0
M  V30 5971 H 537.963 3.82609 1.64316 0
M  V30 5972 H 540.56 3.12918 4.33574 0
M  V30 5973 H 540.903 1.4749 3.89297 0
M  V30 5974 H 541.436 2.79808 2.82759 0
M  V30 5975 H 538.175 5.78479 3.08289 0
M  V30 5976 H 537.695 4.39421 4.08251 0
M  V30 5977 H 539.374 4.98731 4.12161 0
M  V30 5978 N 539.506 -0.963266 1.24736 0
M  V30 5979 C 540.454 -2.07985 1.04139 0
M  V30 5980 C 541.448 -1.69381 -0.0250556 0
M  V30 5981 O 542.654 -1.79531 0.129863 0
M  V30 5982 H 539.029 -0.680627 0.319768 0
M  V30 5983 H 541 -2.22517 1.98818 0
M  V30 5984 C 539.749 -3.4123 0.667615 0
M  V30 5985 H 539.072 -3.71397 1.48 0
M  V30 5986 H 540.512 -4.20244 0.563136 0
M  V30 5987 C 538.971 -3.3104 -0.625647 0
M  V30 5988 O 539.501 -3.65334 -1.67016 0
M  V30 5989 N 537.707 -2.84168 -0.608033 0
M  V30 5990 H 537.254 -2.56458 0.242323 0
M  V30 5991 H 537.212 -2.77732 -1.47352 0
M  V30 5992 N 540.985 -1.06182 -1.16461 0
M  V30 5993 C 542.396 -0.802426 -1.68576 0
M  V30 5994 C 542.747 0.67412 -1.84255 0
M  V30 5995 O 541.872 1.52303 -1.5373 0
M  V30 5996 C 542.467 -1.45002 -3.06202 0
M  V30 5997 C 541.026 -1.23843 -3.55443 0
M  V30 5998 C 540.173 -1.52724 -2.31454 0
M  V30 5999 H 543.124 -1.22545 -1.00839 0
M  V30 6000 H 543.145 -0.864731 -3.70544 0
M  V30 6001 H 542.657 -2.52466 -2.94759 0
M  V30 6002 H 540.758 -0.183487 -3.72148 0
M  V30 6003 H 540.871 -1.95036 -4.37604 0
M  V30 6004 H 539.235 -0.947726 -2.36411 0
M  V30 6005 H 540.018 -2.61343 -2.22609 0
M  V30 6006 N 542.463 1.3308 -0.844243 0
M  V30 6007 C 543.688 2.02341 -0.455282 0
M  V30 6008 C 544.113 1.6308 0.93737 0
M  V30 6009 O 543.471 0.826118 1.61385 0
M  V30 6010 C 543.519 3.55743 -0.58988 0
M  V30 6011 O 542.623 4.1063 0.38166 0
M  V30 6012 H 541.964 0.637898 -0.184343 0
M  V30 6013 H 544.494 1.6986 -1.14056 0
M  V30 6014 H 544.504 4.05243 -0.473522 0
M  V30 6015 H 543.179 3.83662 -1.60549 0
M  V30 6016 H 541.756 3.72236 0.22241 0
M  V30 6017 N 543.941 0.601185 1.45683 0
M  V30 6018 C 544.851 -0.123395 2.34275 0
M  V30 6019 C 545.867 -0.86702 1.5086 0
M  V30 6020 O 547.043 -0.826049 1.8368 0
M  V30 6021 C 544.108 -1.11237 3.2837 0
M  V30 6022 C 543.169 -0.371405 4.2769 0
M  V30 6023 C 542.402 -1.31327 5.1729 0
M  V30 6024 O 542.625 -2.55078 5.10188 0
M  V30 6025 O 541.559 -0.813811 5.96373 0
M  V30 6026 H 545.385 0.604483 2.97623 0
M  V30 6027 H 542.97 0.361477 1.44961 0
M  V30 6028 H 544.852 -1.68214 3.8637 0
M  V30 6029 H 543.527 -1.82139 2.67595 0
M  V30 6030 H 542.434 0.24067 3.73325 0
M  V30 6031 H 543.767 0.296998 4.91303 0
M  V30 6032 N 545.419 -1.53889 0.339982 0
M  V30 6033 C 546.349 -2.27843 -0.510856 0
M  V30 6034 C 547.33 -1.29267 -1.10563 0
M  V30 6035 O 548.515 -1.58104 -1.12768 0
M  V30 6036 C 545.645 -3.04857 -1.66372 0
M  V30 6037 C 544.599 -4.10907 -1.19746 0
M  V30 6038 C 543.925 -4.75855 -2.43857 0
M  V30 6039 C 545.225 -5.21435 -0.300501 0
M  V30 6040 H 546.919 -2.99212 0.106067 0
M  V30 6041 H 544.465 -1.43904 0.0524533 0
M  V30 6042 H 546.418 -3.5533 -2.26537 0
M  V30 6043 H 545.142 -2.31133 -2.30749 0
M  V30 6044 H 543.801 -3.61342 -0.618654 0
M  V30 6045 H 543.449 -3.9873 -3.06633 0
M  V30 6046 H 543.149 -5.47502 -2.13343 0
M  V30 6047 H 544.673 -5.2911 -3.04754 0
M  V30 6048 H 546.087 -5.67565 -0.80889 0
M  V30 6049 H 544.484 -6.00036 -0.0874076 0
M  V30 6050 H 545.554 -4.80328 0.664321 0
M  V30 6051 N 546.897 -0.0685191 -1.57451 0
M  V30 6052 C 548.125 0.610462 -1.97689 0
M  V30 6053 C 548.54 1.63346 -0.946758 0
M  V30 6054 O 547.897 1.82377 0.0669868 0
M  V30 6055 C 547.948 1.28196 -3.38006 0
M  V30 6056 O 547.669 0.299906 -4.37072 0
M  V30 6057 C 549.17 2.04907 -3.931 0
M  V30 6058 H 546.39 0.165689 -0.650222 0
M  V30 6059 H 548.934 -0.139953 -2.04021 0
M  V30 6060 H 547.089 1.98348 -3.32771 0
M  V30 6061 H 547.503 0.78126 -5.18649 0
M  V30 6062 H 548.977 2.47287 -4.93511 0
M  V30 6063 H 549.454 2.9043 -3.29465 0
M  V30 6064 H 550.06 1.39629 -4.01726 0
M  V30 6065 N 548.375 1.56261 0.205012 0
M  V30 6066 C 549.622 1.8004 0.926927 0
M  V30 6067 C 549.95 0.640086 1.83666 0
M  V30 6068 O 549.205 -0.374702 1.92079 0
M  V30 6069 C 549.504 3.09722 1.78345 0
M  V30 6070 C 549.17 4.39082 1.02555 0
M  V30 6071 C 547.832 4.74226 0.816256 0
M  V30 6072 C 550.184 5.18877 0.491559 0
M  V30 6073 C 547.512 5.86668 0.0613287 0
M  V30 6074 C 549.864 6.32105 -0.250107 0
M  V30 6075 C 548.528 6.6584 -0.470508 0
M  V30 6076 H 547.798 0.658812 0.339187 0
M  V30 6077 H 550.445 1.90515 0.19395 0
M  V30 6078 H 548.75 2.9444 2.5848 0
M  V30 6079 H 550.447 3.25324 2.34446 0
M  V30 6080 H 547.037 4.11497 1.19868 0
M  V30 6081 H 551.221 4.92147 0.640684 0
M  V30 6082 H 546.477 6.11283 -0.119501 0
M  V30 6083 H 550.651 6.93157 -0.671307 0
M  V30 6084 H 548.278 7.5281 -1.05739 0
M  V30 6085 N 549.853 -0.472356 1.50355 0
M  V30 6086 C 550.786 -1.58923 1.63764 0
M  V30 6087 C 551.764 -1.55173 0.485793 0
M  V30 6088 O 552.948 -1.74815 0.705132 0
M  V30 6089 C 550.075 -2.97497 1.61905 0
M  V30 6090 C 549.121 -3.19405 2.82635 0
M  V30 6091 S 549.954 -2.99441 4.43954 0
M  V30 6092 C 551.11 -4.40359 4.44786 0
M  V30 6093 H 551.343 -1.47309 2.58239 0
M  V30 6094 H 548.876 -0.659601 1.39602 0
M  V30 6095 H 550.834 -3.77389 1.61518 0
M  V30 6096 H 549.495 -3.06502 0.686683 0
M  V30 6097 H 548.688 -4.20636 2.77636 0
M  V30 6098 H 548.29 -2.47283 2.80583 0
M  V30 6099 H 550.582 -5.32969 4.1827 0
M  V30 6100 H 551.525 -4.50403 5.46391 0
M  V30 6101 H 551.933 -4.22378 3.74509 0
M  V30 6102 N 551.331 -1.39911 -0.725443 0
M  V30 6103 C 552.747 -1.21725 -1.03224 0
M  V30 6104 C 552.947 -0.0855224 -2.01318 0
M  V30 6105 O 552.003 0.55976 -2.46217 0
M  V30 6106 C 553.316 -2.55511 -1.58539 0
M  V30 6107 C 554.864 -2.62439 -1.70572 0
M  V30 6108 C 555.339 -3.9647 -2.29294 0
M  V30 6109 N 556.83 -3.98159 -2.36692 0
M  V30 6110 C 557.565 -4.98647 -2.83088 0
M  V30 6111 N 557.061 -6.0953 -3.2931 0
M  V30 6112 N 558.854 -4.8602 -2.82384 0
M  V30 6113 H 551.005 -2.12267 -0.075048 0
M  V30 6114 H 553.268 -0.943136 -0.0959066 0
M  V30 6115 H 552.974 -3.38926 -0.939249 0
M  V30 6116 H 552.848 -2.75905 -2.57208 0
M  V30 6117 H 555.235 -1.79401 -2.34306 0
M  V30 6118 H 555.316 -2.45885 -0.705297 0
M  V30 6119 H 554.96 -4.79942 -1.66186 0
M  V30 6120 H 554.89 -4.10349 -3.30032 0
M  V30 6121 H 557.381 -3.18085 -2.04035 0
M  V30 6122 H 557.694 -6.82106 -3.6325 0
M  V30 6123 H 556.039 -6.1311 -3.27294 0
M  V30 6124 H 559.23 -3.98493 -2.45603 0
M  V30 6125 H 559.403 -5.64478 -3.18226 0
M  V30 6126 N 552.809 0.956637 -1.25245 0
M  V30 6127 C 553.719 2.0868 -1.0719 0
M  V30 6128 C 554.735 1.73997 -0.00959074 0
M  V30 6129 O 555.911 2.00301 -0.210104 0
M  V30 6130 C 552.976 3.39754 -0.690526 0
M  V30 6131 C 552.037 3.88316 -1.83055 0
M  V30 6132 C 551.27 5.13134 -1.46728 0
M  V30 6133 O 551.493 5.6925 -0.362029 0
M  V30 6134 O 550.427 5.56356 -2.29677 0
M  V30 6135 H 554.253 2.26813 -2.01965 0
M  V30 6136 H 551.838 1.07098 -1.04165 0
M  V30 6137 H 553.72 4.18543 -0.489871 0
M  V30 6138 H 552.395 3.22896 0.227981 0
M  V30 6139 H 551.302 3.1054 -2.08604 0
M  V30 6140 H 552.635 4.09669 -2.72822 0
M  V30 6141 N 554.287 1.06798 1.15896 0
M  V30 6142 C 555.217 0.704677 2.22613 0
M  V30 6143 C 556.198 -0.305252 1.67339 0
M  V30 6144 O 557.383 -0.179247 1.93371 0
M  V30 6145 C 554.513 0.0957325 3.47168 0
M  V30 6146 C 553.467 1.0322 4.15367 0
M  V30 6147 C 552.793 0.286293 5.33933 0
M  V30 6148 C 554.093 2.36341 4.65768 0
M  V30 6149 H 555.787 1.59688 2.53259 0
M  V30 6150 H 553.333 0.769257 1.21731 0
M  V30 6151 H 555.286 -0.170333 4.21056 0
M  V30 6152 H 554.01 -0.831516 3.15838 0
M  V30 6153 H 552.669 1.28309 3.43413 0
M  V30 6154 H 552.317 -0.644237 4.98857 0
M  V30 6155 H 552.017 0.910436 5.80504 0
M  V30 6156 H 553.541 0.0278938 6.10594 0
M  V30 6157 H 554.955 2.1561 5.31211 0
M  V30 6158 H 553.352 2.94299 5.2298 0
M  V30 6159 H 554.422 2.99047 3.81705 0
M  V30 6160 N 555.766 -1.3263 0.851289 0
M  V30 6161 C 557.014 -1.96978 0.452128 0
M  V30 6162 C 557.335 -1.67715 -0.99482 0
M  V30 6163 O 556.605 -0.98259 -1.69476 0
M  V30 6164 H 555.185 -0.72873 0.164202 0
M  V30 6165 H 557.847 -1.61774 1.08698 0
M  V30 6166 H 556.943 -3.06387 0.594407 0
M  V30 6167 N 557.244 -0.608902 -1.45362 0
M  V30 6168 C 558.469 -0.10921 -2.07112 0
M  V30 6169 C 558.894 1.19779 -1.45033 0
M  V30 6170 O 558.252 1.72961 -0.543527 0
M  V30 6171 C 558.3 0.0155745 -3.60597 0
M  V30 6172 O 557.404 1.06546 -3.98399 0
M  V30 6173 H 556.745 -0.0746619 -0.659789 0
M  V30 6174 H 559.275 -0.839283 -1.86594 0
M  V30 6175 H 559.285 0.213364 -4.07442 0
M  V30 6176 H 557.96 -0.938765 -4.05167 0
M  V30 6177 H 556.537 0.844024 -3.63223 0
M  V30 6178 N 558.722 1.53707 -0.348139 0
M  V30 6179 C 559.97 2.00591 0.246478 0
M  V30 6180 C 560.291 1.23753 1.50699 0
M  V30 6181 O 559.561 0.345964 1.92821 0
M  V30 6182 H 558.141 0.741053 0.0940679 0
M  V30 6183 H 560.803 1.89139 -0.470354 0
M  V30 6184 H 559.899 3.08297 0.485714 0
M  V30 6185 N 560.2 0.0768682 1.57412 0
M  V30 6186 C 561.13 -0.886026 2.16037 0
M  V30 6187 C 562.111 -1.30691 1.08876 0
M  V30 6188 O 563.296 -1.37705 1.36934 0
M  V30 6189 C 560.426 -2.1518 2.72608 0
M  V30 6190 C 559.38 -1.87015 3.8498 0
M  V30 6191 C 558.706 -3.20266 4.28175 0
M  V30 6192 C 560.006 -1.17143 5.08994 0
M  V30 6193 H 561.7 -0.397642 2.96748 0
M  V30 6194 H 559.246 -0.189823 1.42743 0
M  V30 6195 H 561.199 -2.82962 3.12266 0
M  V30 6196 H 559.923 -2.66269 1.89125 0
M  V30 6197 H 558.582 -1.21636 3.45833 0
M  V30 6198 H 558.23 -3.69207 3.41607 0
M  V30 6199 H 557.93 -3.0221 5.03927 0
M  V30 6200 H 559.454 -3.89237 4.70454 0
M  V30 6201 H 560.868 -1.75003 5.45937 0
M  V30 6202 H 559.265 -1.09328 5.90057 0
M  V30 6203 H 560.335 -0.151295 4.84664 0
M  V30 6204 N 561.678 -1.56367 -0.196722 0
M  V30 6205 C 562.925 -1.80529 -0.917366 0
M  V30 6206 C 563.253 -0.649817 -1.83324 0
M  V30 6207 O 562.508 0.36451 -1.92275 0
M  V30 6208 C 562.807 -3.10663 -1.767 0
M  V30 6209 C 562.473 -4.3962 -1.00225 0
M  V30 6210 C 561.135 -4.74653 -0.791095 0
M  V30 6211 C 563.487 -5.1913 -0.464035 0
M  V30 6212 C 560.815 -5.86692 -0.0302155 0
M  V30 6213 C 563.167 -6.31964 0.283625 0
M  V30 6214 C 561.831 -6.65581 0.505813 0
M  V30 6215 H 561.101 -0.660602 -0.335688 0
M  V30 6216 H 563.748 -1.90615 -0.183844 0
M  V30 6217 H 562.053 -2.95807 -2.56915 0
M  V30 6218 H 563.75 -3.26563 -2.32718 0
M  V30 6219 H 560.34 -4.12127 -1.17684 0
M  V30 6220 H 564.524 -4.9248 -0.614575 0
M  V30 6221 H 559.78 -6.11211 0.151917 0
M  V30 6222 H 563.954 -6.92791 0.708057 0
M  V30 6223 H 561.581 -7.52239 1.0973 0
M  V30 6224 N 563.156 0.464375 -1.50603 0
M  V30 6225 C 564.404 1.21356 -1.61608 0
M  V30 6226 C 564.725 1.92329 -0.321643 0
M  V30 6227 O 563.995 1.84403 0.661232 0
M  V30 6228 H 562.575 0.45094 -0.595535 0
M  V30 6229 H 565.237 0.535046 -1.87412 0
M  V30 6230 H 564.333 1.95783 -2.43054 0
M  V30 6231 N 564.634 1.40294 0.718013 0
M  V30 6232 C 565.88 1.38645 1.48005 0
M  V30 6233 C 566.213 -0.0121202 1.94196 0
M  V30 6234 O 565.488 -0.980309 1.67989 0
M  V30 6235 C 565.771 2.37379 2.70782 0
M  V30 6236 C 565.624 3.8625 2.30501 0
M  V30 6237 C 566.943 2.33685 3.72933 0
M  V30 6238 H 564.062 0.504928 0.536858 0
M  V30 6239 H 566.704 1.71411 0.819649 0
M  V30 6240 H 564.854 2.09568 3.27129 0
M  V30 6241 H 566.526 4.24879 1.79655 0
M  V30 6242 H 564.769 4.02202 1.6253 0
M  V30 6243 H 565.44 4.50847 3.18498 0
M  V30 6244 H 567.916 2.58314 3.2621 0
M  V30 6245 H 566.792 3.0482 4.56482 0
M  V30 6246 H 567.053 1.34765 4.21059 0
M  V30 6247 N 566.112 -0.949982 1.2575 0
M  V30 6248 C 567.358 -1.69766 1.10938 0
M  V30 6249 C 567.691 -1.91056 -0.348028 0
M  V30 6250 O 566.966 -1.48488 -1.25625 0
M  V30 6251 C 567.249 -3.07779 1.86933 0
M  V30 6252 C 567.102 -2.9387 3.4053 0
M  V30 6253 C 568.421 -4.07749 1.65616 0
M  V30 6254 H 565.54 -0.616144 0.404396 0
M  V30 6255 H 568.182 -1.10394 1.54639 0
M  V30 6256 H 566.332 -3.58462 1.4979 0
M  V30 6257 H 568.004 -2.50476 3.87375 0
M  V30 6258 H 566.247 -2.29686 3.68004 0
M  V30 6259 H 566.918 -3.91719 3.88922 0
M  V30 6260 H 569.394 -3.65994 1.97959 0
M  V30 6261 H 568.27 -5.02348 2.21218 0
M  V30 6262 H 568.531 -4.38029 0.598595 0
M  V30 6263 N 567.59 -1.07411 -1.15328 0
M  V30 6264 C 569.006 -0.799759 -1.38116 0
M  V30 6265 C 569.206 0.59572 -1.92493 0
M  V30 6266 O 568.262 1.35433 -2.13106 0
M  V30 6267 C 569.575 -1.87407 -2.35158 0
M  V30 6268 C 571.123 -1.89889 -2.48819 0
M  V30 6269 C 571.598 -2.96406 -3.49153 0
M  V30 6270 N 573.089 -2.95512 -3.56689 0
M  V30 6271 C 573.824 -3.74575 -4.34144 0
M  V30 6272 N 573.32 -4.63488 -5.14928 0
M  V30 6273 N 575.113 -3.62919 -4.29239 0
M  V30 6274 H 567.264 -1.97411 -0.78374 0
M  V30 6275 H 569.527 -0.856113 -0.407154 0
M  V30 6276 H 569.233 -2.8768 -2.0232 0
M  V30 6277 H 569.107 -1.73471 -3.34944 0
M  V30 6278 H 571.494 -0.902677 -2.80955 0
M  V30 6279 H 571.575 -2.07904 -1.49029 0
M  V30 6280 H 571.219 -3.96227 -3.17752 0
M  V30 6281 H 571.149 -2.75638 -4.48699 0
M  V30 6282 H 573.64 -2.31061 -2.99031 0
M  V30 6283 H 573.953 -5.20445 -5.71276 0
M  V30 6284 H 572.298 -4.67537 -5.14232 0
M  V30 6285 H 575.489 -2.92833 -3.65194 0
M  V30 6286 H 575.662 -4.24777 -4.89355 0
M  V30 6287 N 569.068 1.32177 -0.85831 0
M  V30 6288 C 569.998 2.31282 -0.321041 0
M  V30 6289 C 570.979 1.59841 0.581786 0
M  V30 6290 O 572.164 1.87619 0.501262 0
M  V30 6291 C 569.294 3.4385 0.48832 0
M  V30 6292 C 568.248 4.26799 -0.320391 0
M  V30 6293 C 567.574 5.31164 0.613934 0
M  V30 6294 C 568.874 4.98829 -1.54813 0
M  V30 6295 H 570.568 2.76469 -1.14915 0
M  V30 6296 H 568.114 1.32916 -0.554028 0
M  V30 6297 H 570.067 4.12224 0.874626 0
M  V30 6298 H 568.791 2.97401 1.34983 0
M  V30 6299 H 567.45 3.60077 -0.688497 0
M  V30 6300 H 567.098 4.80967 1.47239 0
M  V30 6301 H 566.798 5.8755 0.0768097 0
M  V30 6302 H 568.322 6.024 0.997336 0
M  V30 6303 H 569.736 5.59864 -1.23392 0
M  V30 6304 H 568.133 5.64957 -2.02346 0
M  V30 6305 H 569.203 4.26483 -2.30739 0
M  V30 6306 N 570.547 0.616602 1.45037 0
M  V30 6307 C 571.795 0.115103 2.01772 0
M  V30 6308 C 572.116 -1.2622 1.48639 0
M  V30 6309 O 571.386 -1.83563 0.684199 0
M  V30 6310 H 569.966 0.0395607 0.745952 0
M  V30 6311 H 572.628 0.800032 1.77723 0
M  V30 6312 H 571.724 0.0717274 3.12018 0
M  V30 6313 N 572.025 -1.5352 0.356285 0
M  V30 6314 C 572.972 -2.25439 -0.494569 0
M  V30 6315 C 573.942 -1.25752 -1.08516 0
M  V30 6316 O 575.127 -1.54513 -1.1194 0
M  V30 6317 C 572.267 -3.04011 -1.63313 0
M  V30 6318 C 571.38 -4.18574 -1.06862 0
M  V30 6319 C 570.515 -4.84607 -2.17552 0
M  V30 6320 C 569.554 -5.91218 -1.58518 0
M  V30 6321 N 568.691 -6.50979 -2.63003 0
M  V30 6322 H 573.531 -2.97737 0.125244 0
M  V30 6323 H 571.068 -1.46916 0.0735789 0
M  V30 6324 H 573.026 -3.47834 -2.30363 0
M  V30 6325 H 571.656 -2.33986 -2.22374 0
M  V30 6326 H 570.708 -3.79303 -0.288672 0
M  V30 6327 H 572.02 -4.95215 -0.596924 0
M  V30 6328 H 571.174 -5.31566 -2.92442 0
M  V30 6329 H 569.913 -4.07418 -2.6807 0
M  V30 6330 H 568.918 -5.4363 -0.821391 0
M  V30 6331 H 570.143 -6.70322 -1.08836 0
M  V30 6332 H 568.089 -5.76648 -3.12751 0
M  V30 6333 H 568.006 -7.23131 -2.20493 0
M  V30 6334 H 569.274 -7.02589 -3.37623 0
M  V30 6335 N 573.503 -0.0852151 -1.57369 0
M  V30 6336 C 574.749 0.575588 -1.95086 0
M  V30 6337 C 575.104 1.66402 -0.96582 0
M  V30 6338 O 574.397 1.91598 0.00978463 0
M  V30 6339 C 574.591 1.18482 -3.3719 0
M  V30 6340 C 574.42 0.156928 -4.49426 0
M  V30 6341 C 573.19 -0.263126 -5.04614 0
M  V30 6342 C 575.388 -0.611068 -5.10657 0
M  V30 6343 N 573.37 -1.28032 -6.00401 0
M  V30 6344 C 574.741 -1.48036 -6.02068 0
M  V30 6345 C 576.796 -0.665669 -4.9343 0
M  V30 6346 C 575.499 -2.39943 -6.781 0
M  V30 6347 C 577.525 -1.5723 -5.70116 0
M  V30 6348 C 576.887 -2.42924 -6.61186 0
M  V30 6349 H 572.986 0.181249 -0.760705 0
M  V30 6350 H 575.57 -0.165484 -1.93995 0
M  V30 6351 H 573.741 1.89575 -3.38992 0
M  V30 6352 H 575.473 1.80718 -3.62109 0
M  V30 6353 H 572.228 0.122664 -4.73441 0
M  V30 6354 H 572.652 -1.78682 -6.52994 0
M  V30 6355 H 577.294 -0.0173214 -4.22796 0
M  V30 6356 H 575.012 -3.05807 -7.48002 0
M  V30 6357 H 578.598 -1.61956 -5.58804 0
M  V30 6358 H 577.478 -3.1194 -7.19488 0
M  V30 6359 N 574.981 1.5647 0.188427 0
M  V30 6360 C 576.397 1.50204 0.539532 0
M  V30 6361 C 576.597 0.78644 1.85519 0
M  V30 6362 O 575.653 0.339714 2.50204 0
M  V30 6363 C 576.966 2.94893 0.588103 0
M  V30 6364 C 578.514 3.05602 0.67648 0
M  V30 6365 C 578.989 4.51716 0.756101 0
M  V30 6366 N 580.48 4.55894 0.819451 0
M  V30 6367 C 581.215 5.66272 0.90134 0
M  V30 6368 N 580.711 6.86323 0.945118 0
M  V30 6369 N 582.504 5.54201 0.939043 0
M  V30 6370 H 574.655 2.01406 -0.674493 0
M  V30 6371 H 576.918 0.916828 -0.241103 0
M  V30 6372 H 576.624 3.50334 -0.309633 0
M  V30 6373 H 576.498 3.4861 1.44051 0
M  V30 6374 H 578.885 2.50206 1.56465 0
M  V30 6375 H 578.966 2.54999 -0.202262 0
M  V30 6376 H 578.61 5.07739 -0.12774 0
M  V30 6377 H 578.54 5.00058 1.65074 0
M  V30 6378 H 581.031 3.69452 0.794594 0
M  V30 6379 H 581.344 7.66194 1.0083 0
M  V30 6380 H 579.689 6.88968 0.913683 0
M  V30 6381 H 582.88 4.59333 0.901725 0
M  V30 6382 H 583.053 6.40247 0.999402 0
M  V30 6383 N 576.459 -0.456382 1.50847 0
M  V30 6384 C 577.422 -1.53493 1.70213 0
M  V30 6385 C 578.422 -1.50264 0.572481 0
M  V30 6386 O 579.612 -1.52623 0.839751 0
M  V30 6387 C 576.744 -2.93091 1.741 0
M  V30 6388 H 577.937 -1.37633 2.66453 0
M  V30 6389 H 575.49 -0.683776 1.4055 0
M  V30 6390 H 576.225 -3.14378 0.796063 0
M  V30 6391 H 576.01 -2.9684 2.5618 0
M  V30 6392 H 577.5 -3.71368 1.90987 0
M  V30 6393 N 577.937 -1.40673 -0.710563 0
M  V30 6394 C 578.869 -1.37256 -1.83558 0
M  V30 6395 C 579.882 -0.277133 -1.60424 0
M  V30 6396 O 581.071 -0.537831 -1.70205 0
M  V30 6397 C 578.171 -1.1144 -3.20054 0
M  V30 6398 C 577.344 -2.32734 -3.70342 0
M  V30 6399 C 576.403 -2.03002 -4.85465 0
M  V30 6400 O 575.429 -2.75912 -4.97857 0
M  V30 6401 N 576.631 -1.01105 -5.71627 0
M  V30 6402 H 579.396 -2.34215 -1.86985 0
M  V30 6403 H 576.957 -1.35091 -0.892301 0
M  V30 6404 H 578.949 -0.895265 -3.94673 0
M  V30 6405 H 577.519 -0.231307 -3.11743 0
M  V30 6406 H 576.739 -2.70446 -2.86798 0
M  V30 6407 H 578.027 -3.13584 -4.00678 0
M  V30 6408 H 577.425 -0.407303 -5.64232 0
M  V30 6409 H 575.982 -0.85182 -6.4621 0
M  V30 6410 N 579.415 0.9433 -1.26252 0
M  V30 6411 C 580.645 1.72117 -1.14277 0
M  V30 6412 C 581.053 1.86726 0.304944 0
M  V30 6413 O 580.396 1.3727 1.22076 0
M  V30 6414 C 580.458 3.14778 -1.73651 0
M  V30 6415 C 580.122 3.23561 -3.22734 0
M  V30 6416 C 581.119 3.07001 -4.19579 0
M  V30 6417 C 578.804 3.47019 -3.63157 0
M  V30 6418 C 580.798 3.13763 -5.54826 0
M  V30 6419 C 578.485 3.53416 -4.98538 0
M  V30 6420 C 579.483 3.36804 -5.94182 0
M  V30 6421 O 579.171 3.42906 -7.27098 0
M  V30 6422 H 578.903 0.545781 -0.398873 0
M  V30 6423 H 581.457 1.19123 -1.67328 0
M  V30 6424 H 579.687 3.69186 -1.1506 0
M  V30 6425 H 581.376 3.74469 -1.56613 0
M  V30 6426 H 582.142 2.88736 -3.89688 0
M  V30 6427 H 578.021 3.59006 -2.89199 0
M  V30 6428 H 581.565 3.00714 -6.29458 0
M  V30 6429 H 577.462 3.71201 -5.28091 0
M  V30 6430 H 578.23 3.59463 -7.35342 0
M  V30 6431 N 580.893 1.08022 1.14757 0
M  V30 6432 C 581.84 0.706657 2.19716 0
M  V30 6433 C 582.81 -0.30525 1.63271 0
M  V30 6434 O 583.995 -0.19015 1.8985 0
M  V30 6435 C 581.135 0.117914 3.44898 0
M  V30 6436 C 580.248 1.18212 4.15512 0
M  V30 6437 C 579.383 0.557659 5.28265 0
M  V30 6438 C 578.422 1.60418 5.90705 0
M  V30 6439 N 577.559 1.0018 6.94916 0
M  V30 6440 H 582.399 1.60603 2.51019 0
M  V30 6441 H 579.936 0.802664 1.23271 0
M  V30 6442 H 581.894 -0.241112 4.16503 0
M  V30 6443 H 580.524 -0.744788 3.1409 0
M  V30 6444 H 579.576 1.65863 3.42335 0
M  V30 6445 H 580.888 1.97533 4.5802 0
M  V30 6446 H 580.042 0.146654 6.06523 0
M  V30 6447 H 578.781 -0.267249 4.86967 0
M  V30 6448 H 577.786 2.02489 5.11154 0
M  V30 6449 H 579.011 2.43149 6.34078 0
M  V30 6450 H 576.957 0.197917 6.55701 0
M  V30 6451 H 576.874 1.73216 7.35889 0
M  V30 6452 H 578.142 0.616523 7.77058 0
M  V30 6453 N 582.371 -1.3172 0.865308 0
M  V30 6454 C 583.617 -1.97168 0.474633 0
M  V30 6455 C 583.95 -1.68263 -0.969604 0
M  V30 6456 O 583.225 -0.976588 -1.68205 0
M  V30 6457 C 583.508 -3.52689 0.726808 0
M  V30 6458 C 583.361 -3.91185 2.22024 0
M  V30 6459 C 584.68 -4.39689 0.190201 0
M  V30 6460 H 581.799 -0.716185 0.17392 0
M  V30 6461 H 584.441 -1.55925 1.08569 0
M  V30 6462 H 582.591 -3.8795 0.206705 0
M  V30 6463 H 584.263 -3.66049 2.80724 0
M  V30 6464 H 582.506 -3.3996 2.69462 0
M  V30 6465 H 583.177 -4.99604 2.34735 0
M  V30 6466 H 585.653 -4.11225 0.635103 0
M  V30 6467 H 584.529 -5.47469 0.396132 0
M  V30 6468 H 584.79 -4.32683 -0.907625 0
M  V30 6469 N 583.85 -0.624285 -1.44708 0
M  V30 6470 C 584.812 0.0749638 -2.29077 0
M  V30 6471 C 585.812 0.778965 -1.40673 0
M  V30 6472 O 587.003 0.624591 -1.62618 0
M  V30 6473 C 584.135 1.11663 -3.22094 0
M  V30 6474 H 585.327 -0.667013 -2.92388 0
M  V30 6475 H 582.88 -0.384098 -1.51507 0
M  V30 6476 H 583.615 1.88881 -2.63618 0
M  V30 6477 H 583.401 0.61583 -3.87234 0
M  V30 6478 H 584.891 1.60585 -3.8549 0
M  V30 6479 N 585.328 1.53329 -0.364422 0
M  V30 6480 C 586.577 2.00421 0.226747 0
M  V30 6481 C 586.89 1.25581 1.49963 0
M  V30 6482 O 588.096 1.63256 2.16933 0
M  V30 6483 C 586.552 3.57017 0.454618 0
M  V30 6484 C 586.16 4.40734 -0.803568 0
M  V30 6485 C 587.904 4.12468 1.00351 0
M  V30 6486 C 585.811 5.8888 -0.545345 0
M  V30 6487 H 584.741 0.748787 0.0885082 0
M  V30 6488 H 587.392 1.7703 -0.482983 0
M  V30 6489 H 585.774 3.76558 1.22558 0
M  V30 6490 H 586.948 4.32967 -1.57723 0
M  V30 6491 H 585.263 3.96381 -1.27559 0
M  V30 6492 H 587.86 5.20783 1.212 0
M  V30 6493 H 588.203 3.6699 1.9653 0
M  V30 6494 H 588.736 3.96721 0.29274 0
M  V30 6495 H 585.475 6.38633 -1.47743 0
M  V30 6496 H 584.995 5.99499 0.189842 0
M  V30 6497 H 586.674 6.46776 -0.170425 0
M  V30 6498 N 586.806 0.0935595 1.57322 0
M  V30 6499 C 587.753 -0.865935 2.1394 0
M  V30 6500 C 588.723 -1.28083 1.05754 0
M  V30 6501 O 589.908 -1.36285 1.33533 0
M  V30 6502 C 587.048 -2.12023 2.72287 0
M  V30 6503 C 586.161 -1.756 3.94701 0
M  V30 6504 C 585.296 -2.95804 4.41218 0
M  V30 6505 C 584.335 -2.555 5.56225 0
M  V30 6506 N 583.472 -3.68534 5.97601 0
M  V30 6507 H 588.312 -0.376261 2.95615 0
M  V30 6508 H 585.849 -0.174052 1.46067 0
M  V30 6509 H 587.807 -2.85477 3.04235 0
M  V30 6510 H 586.437 -2.58492 1.93343 0
M  V30 6511 H 585.489 -0.921208 3.69077 0
M  V30 6512 H 586.801 -1.41964 4.78171 0
M  V30 6513 H 585.955 -3.77513 4.74941 0
M  V30 6514 H 584.694 -3.32649 3.56645 0
M  V30 6515 H 583.699 -1.72218 5.22131 0
M  V30 6516 H 584.924 -2.19801 6.42545 0
M  V30 6517 H 582.87 -4.051 5.15974 0
M  V30 6518 H 582.787 -3.38737 6.75865 0
M  V30 6519 H 584.055 -4.50757 6.35955 0
M  V30 6520 N 588.284 -1.56567 -0.180126 0
M  V30 6521 C 589.247 -1.94852 -1.20686 0
M  V30 6522 C 590.247 -0.831212 -1.3765 0
M  V30 6523 O 591.437 -1.09841 -1.35206 0
M  V30 6524 C 588.569 -2.23565 -2.57355 0
M  V30 6525 H 589.762 -2.86722 -0.879225 0
M  V30 6526 H 587.315 -1.50489 -0.422237 0
M  V30 6527 H 588.05 -1.34381 -2.95148 0
M  V30 6528 H 587.835 -3.04999 -2.46411 0
M  V30 6529 H 589.325 -2.54137 -3.31367 0
M  V30 6530 N 589.762 0.448376 -1.51087 0
M  V30 6531 C 591.011 1.19561 -1.62444 0
M  V30 6532 C 591.324 1.92602 -0.341151 0
M  V30 6533 O 592.53 2.69439 -0.333936 0
M  V30 6534 C 590.986 2.17373 -2.8684 0
M  V30 6535 C 590.594 1.5003 -4.22131 0
M  V30 6536 C 592.338 2.92597 -3.0755 0
M  V30 6537 C 590.245 2.46262 -5.37689 0
M  V30 6538 H 589.175 0.449975 -0.605011 0
M  V30 6539 H 591.826 0.463735 -1.77544 0
M  V30 6540 H 590.208 2.93948 -2.65349 0
M  V30 6541 H 591.382 0.790886 -4.53962 0
M  V30 6542 H 589.697 0.870011 -4.0721 0
M  V30 6543 H 592.294 3.64663 -3.91056 0
M  V30 6544 H 592.637 3.53306 -2.20183 0
M  V30 6545 H 593.17 2.23131 -3.29329 0
M  V30 6546 H 589.909 1.90258 -6.27281 0
M  V30 6547 H 589.429 3.15289 -5.10248 0
M  V30 6548 H 591.108 3.07623 -5.6919 0
M  V30 6549 N 591.24 1.41047 0.703093 0
M  V30 6550 C 592.656 1.23351 1.01275 0
M  V30 6551 C 592.856 0.11754 2.01157 0
M  V30 6552 O 591.912 -0.520518 2.47077 0
M  V30 6553 C 593.225 2.58001 1.54454 0
M  V30 6554 C 594.773 2.65119 1.66376 0
M  V30 6555 C 595.248 4.00067 2.22958 0
M  V30 6556 N 596.739 4.01875 2.30328 0
M  V30 6557 C 597.474 5.03087 2.75119 0
M  V30 6558 N 596.97 6.14692 3.19571 0
M  V30 6559 N 598.763 4.90451 2.74616 0
M  V30 6560 H 590.914 2.1236 0.0412686 0
M  V30 6561 H 593.177 0.944543 0.08089 0
M  V30 6562 H 592.883 3.40378 0.88521 0
M  V30 6563 H 592.757 2.79962 2.52786 0
M  V30 6564 H 595.144 1.83106 2.31422 0
M  V30 6565 H 595.225 2.46975 0.666089 0
M  V30 6566 H 594.869 4.82526 1.58529 0
M  V30 6567 H 594.799 4.15547 3.23462 0
M  V30 6568 H 597.29 3.21291 1.98949 0
M  V30 6569 H 597.603 6.87799 3.52352 0
M  V30 6570 H 595.948 6.18239 3.17498 0
M  V30 6571 H 599.139 4.0235 2.39233 0
M  V30 6572 H 599.312 5.6947 3.09206 0
M  V30 6573 N 592.718 -0.936591 1.26751 0
M  V30 6574 C 593.628 -2.06949 1.10496 0
M  V30 6575 C 594.644 -1.7396 0.037271 0
M  V30 6576 O 595.82 -1.99941 0.241944 0
M  V30 6577 C 592.885 -3.38612 0.744491 0
M  V30 6578 C 591.946 -3.85355 1.89209 0
M  V30 6579 C 591.179 -5.10735 1.54873 0
M  V30 6580 O 591.402 -5.68602 0.452546 0
M  V30 6581 O 590.336 -5.52632 2.38499 0
M  V30 6582 H 594.162 -2.23571 2.05547 0
M  V30 6583 H 591.747 -1.05428 1.05855 0
M  V30 6584 H 593.629 -4.17711 0.556396 0
M  V30 6585 H 592.304 -3.23218 -0.176582 0
M  V30 6586 H 591.211 -3.07182 2.13518 0
M  V30 6587 H 592.544 -4.05277 2.79305 0
M  V30 6588 N 594.196 -1.08629 -1.14182 0
M  V30 6589 C 595.444 -0.815731 -1.84906 0
M  V30 6590 C 595.765 0.660441 -1.83475 0
M  V30 6591 O 595.035 1.47888 -1.28476 0
M  V30 6592 H 593.615 -0.298773 -0.684648 0
M  V30 6593 H 596.277 -1.37274 -1.38354 0
M  V30 6594 H 595.373 -1.16193 -2.89665 0
M  V30 6595 N 595.674 1.31259 -0.872281 0
M  V30 6596 C 596.637 2.26744 -0.334656 0
M  V30 6597 C 597.637 1.52307 0.515681 0
M  V30 6598 O 598.827 1.71148 0.324656 0
M  V30 6599 C 595.959 3.36841 0.524482 0
M  V30 6600 H 597.152 2.75812 -1.17762 0
M  V30 6601 H 594.705 1.42232 -0.648064 0
M  V30 6602 H 595.44 2.93069 1.38855 0
M  V30 6603 H 595.225 3.92009 -0.0844299 0
M  V30 6604 H 596.715 4.07944 0.892838 0
M  V30 6605 N 597.152 0.631951 1.44375 0
M  V30 6606 C 598.085 -0.121822 2.27875 0
M  V30 6607 C 599.063 -0.850457 1.38586 0
M  V30 6608 O 600.247 -0.854378 1.68026 0
M  V30 6609 C 597.374 -1.17859 3.17533 0
M  V30 6610 C 596.42 -0.550391 4.22934 0
M  V30 6611 S 597.253 0.660145 5.31415 0
M  V30 6612 C 598.409 -0.396613 6.24642 0
M  V30 6613 H 598.642 0.586537 2.91457 0
M  V30 6614 H 596.175 0.420146 1.48574 0
M  V30 6615 H 598.133 -1.78335 3.69739 0
M  V30 6616 H 596.794 -1.85915 2.53169 0
M  V30 6617 H 595.987 -1.34631 4.85685 0
M  V30 6618 H 595.589 -0.0202306 3.73995 0
M  V30 6619 H 597.881 -1.26893 6.65511 0
M  V30 6620 H 598.824 0.195345 7.0783 0
M  V30 6621 H 599.232 -0.72288 5.59852 0
M  V30 6622 N 598.631 -1.53133 0.372548 0
M  V30 6623 C 599.871 -2.03267 -0.214943 0
M  V30 6624 C 600.235 -1.25362 -1.45425 0
M  V30 6625 O 601.436 -1.65536 -2.11781 0
M  V30 6626 C 599.707 -3.53985 -0.492897 0
M  V30 6627 S 601.266 -4.25977 -1.05307 0
M  V30 6628 H 598.084 -0.708289 -0.062029 0
M  V30 6629 H 600.686 -1.88539 0.517025 0
M  V30 6630 H 599.39 -4.08282 0.416442 0
M  V30 6631 H 598.921 -3.72887 -1.25375 0
M  V30 6632 H 600.936 -4.37731 -2.33679 0
M  V30 6633 N 600.109 -0.101901 -1.5727 0
M  V30 6634 C 601.019 0.868647 -2.17926 0
M  V30 6635 C 602.035 1.30527 -1.1506 0
M  V30 6636 O 603.211 1.37178 -1.47459 0
M  V30 6637 C 600.276 2.10727 -2.75309 0
M  V30 6638 C 599.337 1.7242 -3.93154 0
M  V30 6639 C 598.57 2.90377 -4.47791 0
M  V30 6640 O 598.793 4.05305 -4.01353 0
M  V30 6641 O 597.727 2.6845 -5.38719 0
M  V30 6642 H 601.553 0.382544 -3.01281 0
M  V30 6643 H 599.138 0.122812 -1.48894 0
M  V30 6644 H 601.02 2.83303 -3.11958 0
M  V30 6645 H 599.695 2.58376 -1.94996 0
M  V30 6646 H 598.602 0.970039 -3.61305 0
M  V30 6647 H 599.935 1.29528 -4.74851 0
M  V30 6648 N 601.587 1.56661 0.17182 0
M  V30 6649 C 602.497 1.99604 1.2327 0
M  V30 6650 C 603.513 0.907333 1.4847 0
M  V30 6651 O 604.689 1.21492 1.60629 0
M  V30 6652 C 601.754 2.34685 2.55194 0
M  V30 6653 C 600.815 3.57381 2.3786 0
M  V30 6654 C 600.048 3.90779 3.63494 0
M  V30 6655 O 600.271 3.25152 4.6865 0
M  V30 6656 O 599.205 4.84129 3.57634 0
M  V30 6657 H 603.031 2.90114 0.898192 0
M  V30 6658 H 600.616 1.44522 0.378647 0
M  V30 6659 H 602.498 2.5822 3.33017 0
M  V30 6660 H 601.173 1.47336 2.88225 0
M  V30 6661 H 600.08 3.39064 1.5807 0
M  V30 6662 H 601.413 4.45268 2.09754 0
M  V30 6663 N 603.065 -0.440357 1.51323 0
M  V30 6664 C 604.342 -1.20109 1.5438 0
M  V30 6665 C 604.722 -2.08866 0.306303 0
M  V30 6666 O 604.07 -2.1723 -0.708773 0
M  V30 6667 C 604.28 -2.00555 2.8562 0
M  V30 6668 C 605.628 -2.577 3.37455 0
M  V30 6669 O 606.652 -2.10769 2.8715 0
M  V30 6670 O 605.511 -3.43289 4.25224 0
M  V30 6671 H 602.605 -0.546668 0.620551 0
M  V30 6672 H 605.151 -0.449672 1.63634 0
M  V30 6673 H 603.923 -1.35346 3.67147 0
M  V30 6674 H 603.546 -2.82768 2.79514 0
M  V30 6675 N 604.543 -1.41418 -0.695603 0
M  V30 6676 C 605.79 -1.40774 -1.45564 0
M  V30 6677 C 606.118 -0.0168604 -1.94493 0
M  V30 6678 O 605.373 0.971259 -1.69897 0
M  V30 6679 C 605.672 -2.36112 -2.68302 0
M  V30 6680 C 605.338 -3.82952 -2.38031 0
M  V30 6681 C 604 -4.22954 -2.29486 0
M  V30 6682 C 606.352 -4.75662 -2.13061 0
M  V30 6683 C 603.68 -5.53674 -1.94067 0
M  V30 6684 C 606.032 -6.06702 -1.79151 0
M  V30 6685 C 604.696 -6.45725 -1.69102 0
M  V30 6686 H 603.966 -0.515128 -0.532658 0
M  V30 6687 H 606.613 -1.74216 -0.795047 0
M  V30 6688 H 604.918 -1.95924 -3.39295 0
M  V30 6689 H 606.615 -2.32887 -3.26442 0
M  V30 6690 H 603.205 -3.5127 -2.45576 0
M  V30 6691 H 607.389 -4.45561 -2.18608 0
M  V30 6692 H 602.645 -5.8279 -1.8484 0
M  V30 6693 H 606.819 -6.78041 -1.5885 0
M  V30 6694 H 604.446 -7.46929 -1.41426 0
M  V30 6695 N 606.021 0.929856 -1.27246 0
M  V30 6696 C 607.27 1.67182 -1.12842 0
M  V30 6697 C 607.583 1.9287 0.325666 0
M  V30 6698 O 608.789 2.64999 0.590572 0
M  V30 6699 C 607.245 3.01097 -1.97151 0
M  V30 6700 C 606.853 2.83115 -3.47203 0
M  V30 6701 C 608.597 3.78907 -1.91389 0
M  V30 6702 C 606.504 4.12573 -4.23719 0
M  V30 6703 H 605.434 0.627064 -0.418697 0
M  V30 6704 H 608.085 1.0332 -1.51649 0
M  V30 6705 H 606.467 3.66004 -1.51186 0
M  V30 6706 H 607.641 2.26989 -4.01015 0
M  V30 6707 H 605.956 2.18736 -3.54321 0
M  V30 6708 H 608.553 4.74837 -2.45834 0
M  V30 6709 H 608.896 4.0674 -0.887047 0
M  V30 6710 H 609.429 3.20794 -2.35237 0
M  V30 6711 H 606.168 3.8992 -5.26918 0
M  V30 6712 H 605.688 4.68371 -3.74685 0
M  V30 6713 H 607.367 4.8095 -4.32777 0
M  V30 6714 N 607.499 1.09233 1.13605 0
M  V30 6715 C 608.409 0.741939 2.22559 0
M  V30 6716 C 609.425 -0.255236 1.72118 0
M  V30 6717 O 610.601 -0.0970747 2.01166 0
M  V30 6718 C 607.666 0.165595 3.46304 0
M  V30 6719 C 606.727 1.21846 4.11645 0
M  V30 6720 C 605.96 0.669526 5.29484 0
M  V30 6721 O 606.183 -0.508228 5.68131 0
M  V30 6722 O 605.117 1.42361 5.84822 0
M  V30 6723 H 608.943 1.65107 2.54899 0
M  V30 6724 H 606.528 0.866584 1.21699 0
M  V30 6725 H 608.41 -0.152592 4.21124 0
M  V30 6726 H 607.085 -0.716573 3.15669 0
M  V30 6727 H 605.992 1.58931 3.38662 0
M  V30 6728 H 607.325 2.07321 4.46407 0
M  V30 6729 N 608.977 -1.30795 0.87923 0
M  V30 6730 C 609.887 -2.32041 0.345565 0
M  V30 6731 C 610.903 -1.65103 -0.549265 0
M  V30 6732 O 612.079 -1.9645 -0.443763 0
M  V30 6733 C 609.144 -3.43944 -0.436245 0
M  V30 6734 C 608.205 -4.26521 0.48765 0
M  V30 6735 C 607.438 -5.33081 -0.256943 0
M  V30 6736 O 607.661 -5.50762 -1.48381 0
M  V30 6737 O 606.595 -6.00635 0.389985 0
M  V30 6738 H 610.421 -2.79627 1.18501 0
M  V30 6739 H 608.006 -1.3486 0.642885 0
M  V30 6740 H 609.888 -4.12128 -0.879119 0
M  V30 6741 H 608.563 -2.98504 -1.25208 0
M  V30 6742 H 607.47 -3.61057 0.979216 0
M  V30 6743 H 608.803 -4.75551 1.26933 0
M  V30 6744 N 610.455 -0.639598 -1.44038 0
M  V30 6745 C 611.418 0.0506628 -2.29144 0
M  V30 6746 C 612.418 0.764001 -1.41491 0
M  V30 6747 O 613.608 0.607309 -1.63271 0
M  V30 6748 C 610.74 1.0824 -3.2326 0
M  V30 6749 H 611.933 -0.697987 -2.91664 0
M  V30 6750 H 609.486 -0.400146 -1.51091 0
M  V30 6751 H 610.221 1.86075 -2.65606 0
M  V30 6752 H 610.006 0.574725 -3.87865 0
M  V30 6753 H 611.496 1.56487 -3.87171 0
M  V30 6754 N 611.933 1.52934 -0.380664 0
M  V30 6755 C 612.88 2.26197 0.458641 0
M  V30 6756 C 613.85 1.27462 1.06502 0
M  V30 6757 O 615.035 1.56274 1.09467 0
M  V30 6758 C 612.175 3.06571 1.58456 0
M  V30 6759 C 611.288 4.20222 1.00189 0
M  V30 6760 C 610.423 4.88007 2.09815 0
M  V30 6761 C 609.462 5.93665 1.49092 0
M  V30 6762 N 608.599 6.55081 2.52613 0
M  V30 6763 H 613.439 2.975 -0.172595 0
M  V30 6764 H 610.976 1.4678 -0.0969426 0
M  V30 6765 H 612.934 3.51455 2.24801 0
M  V30 6766 H 611.564 2.37494 2.18624 0
M  V30 6767 H 610.616 3.79714 0.228292 0
M  V30 6768 H 611.928 4.96102 0.518064 0
M  V30 6769 H 611.082 5.36151 2.83948 0
M  V30 6770 H 609.821 4.11632 2.61555 0
M  V30 6771 H 608.826 5.44868 0.7348 0
M  V30 6772 H 610.051 6.71969 0.981582 0
M  V30 6773 H 607.997 5.8155 3.03538 0
M  V30 6774 H 607.914 7.26548 2.08961 0
M  V30 6775 H 609.182 7.07871 3.26402 0
M  V30 6776 N 613.412 0.11024 1.57214 0
M  V30 6777 C 614.658 -0.550684 1.9518 0
M  V30 6778 C 614.991 -1.66885 0.993122 0
M  V30 6779 O 614.266 -1.94479 0.0287907 0
M  V30 6780 C 614.549 -1.09163 3.43155 0
M  V30 6781 C 614.402 0.0225198 4.49794 0
M  V30 6782 C 615.721 -1.98527 3.92778 0
M  V30 6783 H 612.84 -0.198706 0.709708 0
M  V30 6784 H 615.482 0.184024 1.89107 0
M  V30 6785 H 613.632 -1.71775 3.48462 0
M  V30 6786 H 615.304 0.657443 4.56591 0
M  V30 6787 H 613.547 0.686868 4.28328 0
M  V30 6788 H 614.218 -0.39706 5.5057 0
M  V30 6789 H 616.694 -1.458 3.8972 0
M  V30 6790 H 615.57 -2.33298 4.96853 0
M  V30 6791 H 615.831 -2.90846 3.32958 0
M  V30 6792 N 614.89 -1.56749 -0.16351 0
M  V30 6793 C 615.823 -1.9213 -1.23132 0
M  V30 6794 C 616.801 -0.785047 -1.42393 0
M  V30 6795 O 617.985 -1.0391 -1.57273 0
M  V30 6796 C 615.112 -2.17901 -2.59301 0
M  V30 6797 C 614.158 -3.40576 -2.5673 0
M  V30 6798 S 614.991 -4.94689 -2.05045 0
M  V30 6799 C 616.147 -5.23564 -3.42975 0
M  V30 6800 H 616.38 -2.824 -0.929383 0
M  V30 6801 H 613.913 -1.4994 -0.368418 0
M  V30 6802 H 615.871 -2.33429 -3.3767 0
M  V30 6803 H 614.532 -1.28324 -2.86691 0
M  V30 6804 H 613.725 -3.55833 -3.5693 0
M  V30 6805 H 613.327 -3.24204 -1.86462 0
M  V30 6806 H 615.619 -5.16019 -4.3901 0
M  V30 6807 H 616.562 -6.25134 -3.32586 0
M  V30 6808 H 616.97 -4.51113 -3.39348 0
M  V30 6809 N 616.368 0.432326 -1.51554 0
M  V30 6810 C 617.301 1.54525 -1.6792 0
M  V30 6811 C 618.279 1.53831 -0.526764 0
M  V30 6812 O 619.463 1.72884 -0.751233 0
M  V30 6813 C 616.59 2.931 -1.69736 0
M  V30 6814 C 615.636 3.11799 -2.91005 0
M  V30 6815 S 616.469 2.87565 -4.51737 0
M  V30 6816 C 617.625 4.28412 -4.56305 0
M  V30 6817 H 617.858 1.4041 -2.62054 0
M  V30 6818 H 615.391 0.622357 -1.41301 0
M  V30 6819 H 617.349 3.72974 -1.71467 0
M  V30 6820 H 616.01 3.04574 -0.767705 0
M  V30 6821 H 615.203 4.13127 -2.8869 0
M  V30 6822 H 614.805 2.39757 -2.87041 0
M  V30 6823 H 617.097 5.21692 -4.32254 0
M  V30 6824 H 618.04 4.35758 -5.58141 0
M  V30 6825 H 618.448 4.12301 -3.85576 0
M  V30 6826 N 617.846 1.41785 0.688094 0
M  V30 6827 C 618.793 1.44221 1.80191 0
M  V30 6828 C 619.763 0.295688 1.63447 0
M  V30 6829 O 620.948 0.49783 1.84191 0
M  V30 6830 C 618.088 1.33743 3.1813 0
M  V30 6831 C 617.201 2.58325 3.46254 0
M  V30 6832 C 616.336 2.40086 4.73848 0
M  V30 6833 C 615.375 3.60107 4.94964 0
M  V30 6834 N 614.512 3.40892 6.13789 0
M  V30 6835 H 619.352 2.39411 1.77444 0
M  V30 6836 H 616.889 1.18876 0.866423 0
M  V30 6837 H 618.847 1.25669 3.97823 0
M  V30 6838 H 617.477 0.42157 3.20035 0
M  V30 6839 H 616.529 2.7682 2.60912 0
M  V30 6840 H 617.841 3.4758 3.57756 0
M  V30 6841 H 616.995 2.29522 5.61609 0
M  V30 6842 H 615.734 1.483 4.64606 0
M  V30 6843 H 614.739 3.71118 4.05649 0
M  V30 6844 H 615.964 4.52857 5.06061 0
M  V30 6845 H 613.91 2.51812 6.05745 0
M  V30 6846 H 613.827 4.23727 6.26092 0
M  V30 6847 H 615.095 3.34114 7.04264 0
M  V30 6848 N 619.324 -0.923095 1.27737 0
M  V30 6849 C 620.254 -2.04124 1.13383 0
M  V30 6850 C 621.235 -1.70066 0.0340658 0
M  V30 6851 O 622.42 -1.93068 0.209383 0
M  V30 6852 C 619.55 -3.3831 0.785097 0
M  V30 6853 C 618.504 -3.86496 1.8386 0
M  V30 6854 C 617.83 -5.1754 1.34373 0
M  V30 6855 C 619.13 -4.09381 3.24353 0
M  V30 6856 H 620.824 -2.1639 2.06919 0
M  V30 6857 H 618.37 -1.03976 0.996243 0
M  V30 6858 H 620.323 -4.16016 0.671485 0
M  V30 6859 H 619.047 -3.2607 -0.185969 0
M  V30 6860 H 617.706 -3.10987 1.9412 0
M  V30 6861 H 617.354 -5.01696 0.361989 0
M  V30 6862 H 617.054 -5.50751 2.04811 0
M  V30 6863 H 618.578 -5.97811 1.24315 0
M  V30 6864 H 619.992 -4.77641 3.17067 0
M  V30 6865 H 618.389 -4.53906 3.92542 0
M  V30 6866 H 619.459 -3.14515 3.69064 0
M  V30 6867 N 620.802 -1.09834 -1.13024 0
M  V30 6868 C 622.03 -0.858902 -1.8823 0
M  V30 6869 C 622.445 0.590164 -1.79339 0
M  V30 6870 O 621.802 1.4065 -1.16292 0
M  V30 6871 C 621.853 -1.29066 -3.37675 0
M  V30 6872 O 621.574 -2.6829 -3.46341 0
M  V30 6873 C 623.075 -1.08421 -4.29837 0
M  V30 6874 H 620.295 -0.308713 -0.595766 0
M  V30 6875 H 622.839 -1.4614 -1.4305 0
M  V30 6876 H 620.994 -0.731961 -3.80422 0
M  V30 6877 H 621.408 -2.86598 -4.39274 0
M  V30 6878 H 622.882 -1.43553 -5.33007 0
M  V30 6879 H 623.359 -0.0223315 -4.39194 0
M  V30 6880 H 623.965 -1.62907 -3.92863 0
M  V30 6881 N 622.28 1.30327 -0.886154 0
M  V30 6882 C 623.23 2.25668 -0.325248 0
M  V30 6883 C 624.214 1.51318 0.546972 0
M  V30 6884 O 625.406 1.72623 0.391203 0
M  V30 6885 C 622.535 3.40229 0.458167 0
M  V30 6886 C 621.621 4.21933 -0.428208 0
M  V30 6887 N 622.012 4.82129 -1.52921 0
M  V30 6888 C 620.31 4.45439 -0.223535 0
M  V30 6889 C 621.011 5.43351 -2.07714 0
M  V30 6890 N 619.987 5.26002 -1.37195 0
M  V30 6891 H 623.789 2.69759 -1.1665 0
M  V30 6892 H 621.303 1.4478 -0.735691 0
M  V30 6893 H 623.3 4.07579 0.876648 0
M  V30 6894 H 621.96 2.97678 1.29684 0
M  V30 6895 H 622.971 4.81312 -1.91205 0
M  V30 6896 H 619.648 4.13481 0.577875 0
M  V30 6897 H 621.038 6.01118 -3.00178 0
M  V30 6898 N 623.758 0.647228 1.43697 0
M  V30 6899 C 625.169 0.238689 1.85168 0
M  V30 6900 C 625.52 -1.21345 1.54175 0
M  V30 6901 O 624.645 -1.92542 0.987743 0
M  V30 6902 C 625.24 0.426422 3.36106 0
M  V30 6903 C 623.799 0.0722541 3.76331 0
M  V30 6904 C 622.946 0.732153 2.6746 0
M  V30 6905 H 625.897 0.851309 1.33934 0
M  V30 6906 H 625.918 -0.32987 3.79067 0
M  V30 6907 H 625.43 1.48339 3.58632 0
M  V30 6908 H 623.531 -0.982355 3.59417 0
M  V30 6909 H 623.644 0.493541 4.76551 0
M  V30 6910 H 622.008 0.16594 2.54159 0
M  V30 6911 H 622.791 1.79204 2.92816 0
M  V30 6912 N 625.236 -1.5273 0.388769 0
M  V30 6913 C 626.183 -2.26437 -0.446639 0
M  V30 6914 C 627.153 -1.28025 -1.05824 0
M  V30 6915 O 628.338 -1.56852 -1.08637 0
M  V30 6916 C 625.478 -3.07407 -1.56828 0
M  V30 6917 C 624.591 -4.20747 -0.979589 0
M  V30 6918 C 623.726 -4.89113 -2.07224 0
M  V30 6919 C 622.765 -5.94447 -1.45942 0
M  V30 6920 N 621.902 -6.56411 -2.49135 0
M  V30 6921 H 626.742 -2.97404 0.18837 0
M  V30 6922 H 624.279 -1.46727 0.104725 0
M  V30 6923 H 626.237 -3.52642 -2.22934 0
M  V30 6924 H 624.867 -2.3865 -2.17361 0
M  V30 6925 H 623.919 -3.7983 -0.208151 0
M  V30 6926 H 625.231 -4.9637 -0.491747 0
M  V30 6927 H 624.385 -5.3765 -2.81101 0
M  V30 6928 H 623.124 -4.13013 -2.59368 0
M  V30 6929 H 622.129 -5.4525 -0.705894 0
M  V30 6930 H 623.354 -6.7248 -0.945932 0
M  V30 6931 H 621.3 -5.83152 -3.00449 0
M  V30 6932 H 621.217 -7.27645 -2.05105 0
M  V30 6933 H 622.485 -7.09592 -3.22644 0
M  V30 6934 N 626.714 -0.118576 -1.57153 0
M  V30 6935 C 627.644 0.828436 -2.1831 0
M  V30 6936 C 628.625 1.27758 -1.12303 0
M  V30 6937 O 629.81 1.34026 -1.40537 0
M  V30 6938 C 626.94 2.07876 -2.78217 0
M  V30 6939 C 625.894 1.76742 -3.89803 0
M  V30 6940 C 625.22 3.08801 -4.36516 0
M  V30 6941 C 626.52 1.03606 -5.11921 0
M  V30 6942 H 628.214 0.318824 -2.97698 0
M  V30 6943 H 625.76 0.151911 -1.43196 0
M  V30 6944 H 627.713 2.74584 -3.19659 0
M  V30 6945 H 626.437 2.61161 -1.96118 0
M  V30 6946 H 625.096 1.12424 -3.48936 0
M  V30 6947 H 624.744 3.6002 -3.51276 0
M  V30 6948 H 624.444 2.88743 -5.11763 0
M  V30 6949 H 625.968 3.76627 -4.80608 0
M  V30 6950 H 627.382 1.60467 -5.50385 0
M  V30 6951 H 625.779 0.936454 -5.92748 0
M  V30 6952 H 626.849 0.0227421 -4.84895 0
M  V30 6953 N 628.193 1.56834 0.155195 0
M  V30 6954 C 629.439 1.83169 0.870467 0
M  V30 6955 C 629.772 0.698929 1.81187 0
M  V30 6956 O 629.047 -0.298035 1.92203 0
M  V30 6957 C 629.33 3.19965 1.65211 0
M  V30 6958 C 629.183 4.43792 0.732744 0
M  V30 6959 C 630.502 3.53885 2.61636 0
M  V30 6960 H 627.621 0.666288 0.315006 0
M  V30 6961 H 630.263 1.89513 0.135988 0
M  V30 6962 H 628.413 3.14687 2.27825 0
M  V30 6963 H 630.085 4.61148 0.118236 0
M  V30 6964 H 628.328 4.3378 0.0417906 0
M  V30 6965 H 628.999 5.36095 1.31552 0
M  V30 6966 H 631.475 3.5972 2.09143 0
M  V30 6967 H 630.351 4.50648 3.13381 0
M  V30 6968 H 630.612 2.79418 3.42605 0
M  V30 6969 N 629.671 -0.424282 1.51781 0
M  V30 6970 C 630.603 -1.53457 1.70246 0
M  V30 6971 C 631.616 -1.52004 0.582967 0
M  V30 6972 O 632.805 -1.56544 0.857683 0
M  V30 6973 C 629.905 -2.92368 1.71389 0
M  V30 6974 C 629.078 -3.1818 3.00133 0
M  V30 6975 C 628.137 -4.36884 2.9329 0
M  V30 6976 O 627.163 -4.34901 3.67219 0
M  V30 6977 N 628.365 -5.4117 2.10036 0
M  V30 6978 H 631.13 -1.38017 2.66029 0
M  V30 6979 H 628.691 -0.613394 1.4983 0
M  V30 6980 H 630.683 -3.6982 1.64362 0
M  V30 6981 H 629.253 -3.0134 0.831449 0
M  V30 6982 H 628.473 -2.28908 3.20928 0
M  V30 6983 H 629.761 -3.32261 3.85331 0
M  V30 6984 H 629.159 -5.45623 1.49373 0
M  V30 6985 H 627.716 -6.17425 2.08878 0
M  V30 6986 N 631.149 -1.42148 -0.680565 0
M  V30 6987 C 632.079 -1.4796 -1.80638 0
M  V30 6988 C 633.06 -0.336728 -1.66734 0
M  V30 6989 O 634.245 -0.550247 -1.86242 0
M  V30 6990 C 631.375 -1.37569 -3.18892 0
M  V30 6991 C 630.329 -2.49823 -3.47524 0
M  V30 6992 C 629.655 -2.24491 -4.85291 0
M  V30 6993 C 630.955 -3.92144 -3.44994 0
M  V30 6994 H 632.649 -2.42184 -1.76032 0
M  V30 6995 H 630.195 -1.16566 -0.845481 0
M  V30 6996 H 632.148 -1.40243 -3.97379 0
M  V30 6997 H 630.872 -0.398357 -3.24162 0
M  V30 6998 H 629.531 -2.46455 -2.71395 0
M  V30 6999 H 629.179 -1.25066 -4.87204 0
M  V30 7000 H 628.879 -2.99722 -5.05411 0
M  V30 7001 H 630.403 -2.28906 -5.66069 0
M  V30 7002 H 631.817 -3.97145 -4.13459 0
M  V30 7003 H 630.214 -4.67179 -3.76648 0
M  V30 7004 H 631.284 -4.19225 -2.43676 0
M  V30 7005 N 632.627 0.916307 -1.28225 0
M  V30 7006 C 633.857 1.69654 -1.17902 0
M  V30 7007 C 634.265 1.87331 0.265268 0
M  V30 7008 O 633.608 1.39828 1.19137 0
M  V30 7009 C 633.67 3.11024 -1.80289 0
M  V30 7010 C 633.334 3.16643 -3.29525 0
M  V30 7011 C 634.331 2.98032 -4.25997 0
M  V30 7012 C 632.016 3.39238 -3.70436 0
M  V30 7013 C 634.01 3.01924 -5.61356 0
M  V30 7014 C 631.697 3.42762 -5.05922 0
M  V30 7015 C 632.695 3.24125 -6.01192 0
M  V30 7016 O 632.383 3.27406 -7.34208 0
M  V30 7017 H 632.115 0.537197 -0.41036 0
M  V30 7018 H 634.669 1.15547 -1.69817 0
M  V30 7019 H 632.899 3.66662 -1.22865 0
M  V30 7020 H 634.588 3.71063 -1.6452 0
M  V30 7021 H 635.354 2.80405 -3.95725 0
M  V30 7022 H 631.233 3.52791 -2.96749 0
M  V30 7023 H 634.777 2.87295 -6.35694 0
M  V30 7024 H 630.674 3.59916 -5.35846 0
M  V30 7025 H 631.442 3.43784 -7.42802 0
M  V30 7026 N 634.105 1.10431 1.1244 0
M  V30 7027 C 635.353 0.845045 1.83585 0
M  V30 7028 C 635.674 -0.631168 1.84503 0
M  V30 7029 O 634.944 -1.45825 1.30813 0
M  V30 7030 H 633.524 0.309628 0.679809 0
M  V30 7031 H 636.186 1.39458 1.36153 0
M  V30 7032 H 635.282 1.20786 2.8778 0
M  V30 7033 N 635.583 -1.29855 0.893053 0
M  V30 7034 C 636.829 -1.96116 0.516349 0
M  V30 7035 C 637.162 -1.70281 -0.933695 0
M  V30 7036 O 636.437 -1.01205 -1.66096 0
M  V30 7037 C 636.72 -3.51068 0.801455 0
M  V30 7038 C 636.573 -3.86387 2.30272 0
M  V30 7039 C 637.892 -4.39186 0.283423 0
M  V30 7040 H 635.011 -0.712335 0.189072 0
M  V30 7041 H 637.653 -1.53587 1.11852 0
M  V30 7042 H 635.803 -3.87424 0.288949 0
M  V30 7043 H 637.475 -3.60012 2.88425 0
M  V30 7044 H 635.718 -3.34167 2.76613 0
M  V30 7045 H 636.389 -4.94512 2.45279 0
M  V30 7046 H 638.865 -4.09785 0.722187 0
M  V30 7047 H 637.741 -5.46505 0.512169 0
M  V30 7048 H 638.002 -4.34511 -0.815643 0
M  V30 7049 N 637.061 -0.65484 -1.43351 0
M  V30 7050 C 638.301 -0.172514 -2.03671 0
M  V30 7051 C 638.665 1.19154 -1.50553 0
M  V30 7052 O 639.866 1.76737 -2.02528 0
M  V30 7053 C 638.137 -0.183982 -3.56926 0
M  V30 7054 S 639.696 0.230262 -4.38195 0
M  V30 7055 H 636.514 -0.0727503 -0.707268 0
M  V30 7056 H 639.116 -0.863537 -1.75395 0
M  V30 7057 H 637.82 -1.17945 -3.93087 0
M  V30 7058 H 637.351 0.527527 -3.89847 0
M  V30 7059 H 639.366 1.46874 -4.73965 0
M  V30 7060 N 638.539 1.52521 -0.396863 0
M  V30 7061 C 639.767 2.06091 0.18275 0
M  V30 7062 C 640.182 1.26796 1.39886 0
M  V30 7063 O 639.539 0.316585 1.79733 0
M  V30 7064 C 639.59 3.57362 0.545377 0
M  V30 7065 O 639.311 4.33656 -0.622428 0
M  V30 7066 C 640.812 4.27305 1.18004 0
M  V30 7067 H 638.032 0.670504 0.025789 0
M  V30 7068 H 640.576 1.96561 -0.564276 0
M  V30 7069 H 638.731 3.66941 1.2423 0
M  V30 7070 H 639.145 5.23507 -0.322662 0
M  V30 7071 H 640.619 5.34366 1.38408 0
M  V30 7072 H 641.096 3.83 2.1496 0
M  V30 7073 H 641.702 4.22064 0.523671 0
M  V30 7074 N 640.017 0.126909 1.57088 0
M  V30 7075 C 640.949 -0.850973 2.12817 0
M  V30 7076 C 641.962 -1.22457 1.07276 0
M  V30 7077 O 643.151 -1.17215 1.34622 0
M  V30 7078 C 640.251 -2.15039 2.61938 0
M  V30 7079 C 639.424 -1.94726 3.91664 0
M  V30 7080 C 638.483 -3.0847 4.26301 0
M  V30 7081 O 637.509 -2.81038 4.94981 0
M  V30 7082 N 638.711 -4.35116 3.84259 0
M  V30 7083 H 641.476 -0.3748 2.97347 0
M  V30 7084 H 639.037 -0.0572793 1.61799 0
M  V30 7085 H 641.029 -2.90141 2.82135 0
M  V30 7086 H 639.599 -2.5398 1.82244 0
M  V30 7087 H 638.819 -1.03772 3.80296 0
M  V30 7088 H 640.107 -1.78469 4.76473 0
M  V30 7089 H 639.505 -4.60276 3.2888 0
M  V30 7090 H 638.062 -5.07064 4.09548 0
M  V30 7091 N 641.495 -1.56914 -0.146875 0
M  V30 7092 C 642.427 -1.94878 -1.20645 0
M  V30 7093 C 643.44 -0.844633 -1.39175 0
M  V30 7094 O 644.629 -1.12304 -1.38744 0
M  V30 7095 C 641.729 -2.20769 -2.57127 0
M  V30 7096 C 640.902 -3.52053 -2.59572 0
M  V30 7097 C 639.961 -3.66482 -3.77594 0
M  V30 7098 O 638.987 -4.38873 -3.62462 0
M  V30 7099 N 640.189 -3.03156 -4.95052 0
M  V30 7100 H 642.954 -2.86374 -0.883757 0
M  V30 7101 H 640.515 -1.58366 -0.336436 0
M  V30 7102 H 642.507 -2.27664 -3.34591 0
M  V30 7103 H 641.077 -1.35538 -2.81688 0
M  V30 7104 H 640.297 -3.56598 -1.68023 0
M  V30 7105 H 641.585 -4.38396 -2.58238 0
M  V30 7106 H 640.983 -2.44258 -5.10249 0
M  V30 7107 H 639.54 -3.15611 -5.70292 0
M  V30 7108 N 642.974 0.416227 -1.52004 0
M  V30 7109 C 643.921 1.50666 -1.74838 0
M  V30 7110 C 644.891 1.55245 -0.590599 0
M  V30 7111 O 646.076 1.71928 -0.827374 0
M  V30 7112 C 643.216 2.88185 -1.89851 0
M  V30 7113 C 642.329 2.92971 -3.17478 0
M  V30 7114 C 641.464 4.21745 -3.22962 0
M  V30 7115 C 640.503 4.20478 -4.4482 0
M  V30 7116 N 639.64 5.40811 -4.47736 0
M  V30 7117 H 644.48 1.30498 -2.67907 0
M  V30 7118 H 642.017 0.633568 -1.32757 0
M  V30 7119 H 643.975 3.68007 -1.96537 0
M  V30 7120 H 642.605 3.06865 -1.00169 0
M  V30 7121 H 641.657 2.05684 -3.19997 0
M  V30 7122 H 642.969 2.87899 -4.07328 0
M  V30 7123 H 642.123 5.09954 -3.28682 0
M  V30 7124 H 640.862 4.29503 -2.31038 0
M  V30 7125 H 639.867 3.30659 -4.39254 0
M  V30 7126 H 641.092 4.14366 -5.38031 0
M  V30 7127 H 639.038 5.4925 -3.58692 0
M  V30 7128 H 638.955 5.37705 -5.31422 0
M  V30 7129 H 640.223 6.30993 -4.57676 0
M  V30 7130 N 644.452 1.42507 0.673017 0
M  V30 7131 C 645.863 1.38347 1.25367 0
M  V30 7132 C 646.214 0.0776327 1.96046 0
M  V30 7133 O 645.339 -0.823571 2.00116 0
M  V30 7134 C 645.934 2.506 2.28002 0
M  V30 7135 C 644.493 2.49767 2.81591 0
M  V30 7136 C 643.64 2.293 1.55938 0
M  V30 7137 H 646.591 1.51695 0.466288 0
M  V30 7138 H 646.612 2.20953 3.09774 0
M  V30 7139 H 646.124 3.45627 1.76532 0
M  V30 7140 H 644.225 1.58563 3.37177 0
M  V30 7141 H 644.338 3.46867 3.30485 0
M  V30 7142 H 642.702 1.77594 1.82572 0
M  V30 7143 H 643.485 3.26385 1.06431 0
M  V30 7144 N 645.93 -0.909495 1.28709 0
M  V30 7145 C 647.179 -1.65365 1.15487 0
M  V30 7146 C 647.492 -1.93364 -0.294941 0
M  V30 7147 O 648.698 -2.65905 -0.548338 0
M  V30 7148 C 647.154 -2.97923 2.01916 0
M  V30 7149 C 646.762 -2.77556 3.51663 0
M  V30 7150 C 648.506 -3.75814 1.97393 0
M  V30 7151 C 646.413 -4.0578 4.30229 0
M  V30 7152 H 645.343 -0.620323 0.42862 0
M  V30 7153 H 647.994 -1.00894 1.53273 0
M  V30 7154 H 646.376 -3.63552 1.5699 0
M  V30 7155 H 647.55 -2.2058 4.04575 0
M  V30 7156 H 645.865 -2.13072 3.57756 0
M  V30 7157 H 648.462 -4.70866 2.53357 0
M  V30 7158 H 648.805 -4.05277 0.951643 0
M  V30 7159 H 649.338 -3.1701 2.40311 0
M  V30 7160 H 646.077 -3.81488 5.33055 0
M  V30 7161 H 645.597 -4.62351 3.82089 0
M  V30 7162 H 647.276 -4.74004 4.40374 0
M  V30 7163 N 647.408 -1.11026 -1.11852 0
M  V30 7164 C 648.638 -0.877544 -1.87037 0
M  V30 7165 C 649.046 0.575925 -1.80221 0
M  V30 7166 O 648.389 1.40916 -1.17849 0
M  V30 7167 C 648.451 -1.25529 -3.36872 0
M  V30 7168 C 648.115 -2.71704 -3.67459 0
M  V30 7169 C 649.112 -3.69931 -3.65304 0
M  V30 7170 C 646.797 -3.08243 -3.966 0
M  V30 7171 C 648.791 -5.02717 -3.9186 0
M  V30 7172 C 646.478 -4.41215 -4.22815 0
M  V30 7173 C 647.476 -5.38262 -4.20432 0
M  V30 7174 O 647.164 -6.68839 -4.45992 0
M  V30 7175 H 646.896 -0.314374 -0.598452 0
M  V30 7176 H 649.45 -1.48015 -1.42411 0
M  V30 7177 H 647.68 -0.595808 -3.82082 0
M  V30 7178 H 649.369 -0.999064 -3.93413 0
M  V30 7179 H 650.135 -3.43047 -3.42846 0
M  V30 7180 H 646.014 -2.33326 -3.97593 0
M  V30 7181 H 649.558 -5.78456 -3.89916 0
M  V30 7182 H 645.455 -4.67835 -4.44748 0
M  V30 7183 H 646.223 -6.74563 -4.63581 0
M  V30 7184 N 648.886 1.2938 -0.899927 0
M  V30 7185 C 650.135 1.9483 -0.521937 0
M  V30 7186 C 650.448 1.71725 0.936473 0
M  V30 7187 O 651.654 2.31282 1.42199 0
M  V30 7188 C 650.11 3.48911 -0.88255 0
M  V30 7189 C 649.718 3.80815 -2.35974 0
M  V30 7190 C 651.462 4.20595 -0.57448 0
M  V30 7191 C 649.369 5.28142 -2.66121 0
M  V30 7192 H 648.299 0.729285 -0.191468 0
M  V30 7193 H 650.95 1.47103 -1.09695 0
M  V30 7194 H 649.332 3.95293 -0.236459 0
M  V30 7195 H 650.506 3.45291 -3.05141 0
M  V30 7196 H 648.821 3.22271 -2.63686 0
M  V30 7197 H 651.418 5.29031 -0.776556 0
M  V30 7198 H 651.761 4.13442 0.487005 0
M  V30 7199 H 652.294 3.79945 -1.17842 0
M  V30 7200 H 649.033 5.4036 -3.71068 0
M  V30 7201 H 648.553 5.64913 -2.01578 0
M  V30 7202 H 650.232 5.95738 -2.52399 0
M  V30 7203 N 650.364 0.662433 1.43002 0
M  V30 7204 C 651.61 0.179857 2.02001 0
M  V30 7205 C 651.943 -1.20625 1.52195 0
M  V30 7206 O 651.218 -1.80726 0.718911 0
M  V30 7207 C 651.501 0.200845 3.59539 0
M  V30 7208 C 651.354 1.62153 4.19555 0
M  V30 7209 C 652.673 -0.457738 4.37713 0
M  V30 7210 H 649.792 0.0668305 0.733964 0
M  V30 7211 H 652.434 0.84487 1.70182 0
M  V30 7212 H 650.584 -0.365411 3.86778 0
M  V30 7213 H 652.256 2.23908 4.03315 0
M  V30 7214 H 650.499 2.16601 3.75854 0
M  V30 7215 H 651.17 1.58799 5.28665 0
M  V30 7216 H 653.646 0.0241495 4.16093 0
M  V30 7217 H 652.522 -0.412363 5.47349 0
M  V30 7218 H 652.783 -1.53336 4.14657 0
M  V30 7219 N 651.842 -1.52309 0.404946 0
M  V30 7220 C 653.07 -2.06185 -0.171818 0
M  V30 7221 C 653.485 -1.27536 -1.39212 0
M  V30 7222 O 652.842 -0.326112 -1.79563 0
M  V30 7223 C 652.893 -3.57647 -0.526417 0
M  V30 7224 O 652.614 -4.3332 0.645417 0
M  V30 7225 C 654.115 -4.27925 -1.15736 0
M  V30 7226 H 651.335 -0.670632 -0.0222328 0
M  V30 7227 H 653.879 -1.96259 0.574692 0
M  V30 7228 H 652.034 -3.67595 -1.22282 0
M  V30 7229 H 652.448 -5.23328 0.35042 0
M  V30 7230 H 653.922 -5.35093 -1.35572 0
M  V30 7231 H 654.399 -3.84134 -2.12926 0
M  V30 7232 H 655.005 -4.22335 -0.501281 0
M  V30 7233 N 653.32 -0.135238 -1.57019 0
M  V30 7234 C 654.23 0.822226 -2.19719 0
M  V30 7235 C 655.246 1.28057 -1.17802 0
M  V30 7236 O 656.422 1.3402 -1.50335 0
M  V30 7237 C 653.487 2.0484 -2.79717 0
M  V30 7238 C 652.548 1.64042 -3.96723 0
M  V30 7239 C 651.781 2.80814 -4.53849 0
M  V30 7240 O 652.004 3.967 -4.0986 0
M  V30 7241 O 650.938 2.56963 -5.44292 0
M  V30 7242 H 654.764 0.318552 -3.02025 0
M  V30 7243 H 652.349 0.0912021 -1.49121 0
M  V30 7244 H 654.231 2.76622 -3.17897 0
M  V30 7245 H 652.906 2.54182 -2.00432 0
M  V30 7246 H 651.813 0.893182 -3.63281 0
M  V30 7247 H 653.146 1.19426 -4.77492 0
M  V30 7248 N 654.798 1.5699 0.138552 0
M  V30 7249 C 656.045 1.83809 0.849732 0
M  V30 7250 C 656.373 0.717409 1.80786 0
M  V30 7251 O 655.628 -0.292897 1.93496 0
M  V30 7252 C 655.927 3.17007 1.65049 0
M  V30 7253 C 655.593 4.43037 0.838398 0
M  V30 7254 C 654.255 4.77262 0.614385 0
M  V30 7255 C 656.607 5.20495 0.271044 0
M  V30 7256 C 653.935 5.864 -0.187552 0
M  V30 7257 C 656.287 6.30476 -0.517979 0
M  V30 7258 C 654.951 6.63245 -0.75249 0
M  V30 7259 H 654.221 0.672605 0.310939 0
M  V30 7260 H 656.868 1.91166 0.112971 0
M  V30 7261 H 655.173 3.05138 2.4576 0
M  V30 7262 H 656.87 3.34975 2.20437 0
M  V30 7263 H 653.46 4.16211 1.02307 0
M  V30 7264 H 657.644 4.94422 0.431371 0
M  V30 7265 H 652.9 6.10226 -0.378659 0
M  V30 7266 H 657.074 6.89686 -0.964694 0
M  V30 7267 H 654.701 7.47648 -1.37573 0
M  V30 7268 N 656.276 -0.40816 1.52223 0
M  V30 7269 C 657.209 -1.51834 1.70357 0
M  V30 7270 C 658.187 -1.52973 0.551171 0
M  V30 7271 O 659.371 -1.71667 0.778642 0
M  V30 7272 C 656.498 -2.90362 1.74378 0
M  V30 7273 C 655.544 -3.0713 2.95928 0
M  V30 7274 S 656.377 -2.80342 4.56255 0
M  V30 7275 C 657.533 -4.21098 4.63063 0
M  V30 7276 H 657.766 -1.36223 2.64255 0
M  V30 7277 H 655.299 -0.599798 1.42274 0
M  V30 7278 H 657.257 -3.70199 1.77379 0
M  V30 7279 H 655.918 -3.03314 0.816063 0
M  V30 7280 H 655.111 -4.08482 2.95226 0
M  V30 7281 H 654.713 -2.3516 2.90819 0
M  V30 7282 H 657.005 -5.14749 4.40499 0
M  V30 7283 H 657.948 -4.26823 5.65002 0
M  V30 7284 H 658.356 -4.06114 3.92086 0
M  V30 7285 N 657.755 -1.42862 -0.66545 0
M  V30 7286 C 658.665 -1.49491 -1.80803 0
M  V30 7287 C 659.681 -0.382914 -1.69734 0
M  V30 7288 O 660.857 -0.635223 -1.9112 0
M  V30 7289 C 657.922 -1.40383 -3.17007 0
M  V30 7290 C 656.983 -2.62152 -3.39963 0
M  V30 7291 C 656.216 -2.53469 -4.69669 0
M  V30 7292 O 656.439 -1.57568 -5.48205 0
M  V30 7293 O 655.373 -3.43763 -4.94075 0
M  V30 7294 H 659.199 -2.45949 -1.78165 0
M  V30 7295 H 656.784 -1.24728 -0.822387 0
M  V30 7296 H 658.666 -1.377 -3.98267 0
M  V30 7297 H 657.341 -0.470546 -3.20262 0
M  V30 7298 H 656.248 -2.70409 -2.58515 0
M  V30 7299 H 657.581 -3.54411 -3.41546 0
M  V30 7300 N 659.233 0.902656 -1.29189 0
M  V30 7301 C 660.649 1.18296 -1.07137 0
M  V30 7302 C 660.849 2.00701 0.179223 0
M  V30 7303 O 659.905 2.3675 0.877812 0
M  V30 7304 C 661.218 1.90677 -2.32514 0
M  V30 7305 C 662.766 2.03515 -2.37804 0
M  V30 7306 C 663.241 2.79307 -3.62976 0
M  V30 7307 N 664.732 2.86862 -3.63681 0
M  V30 7308 C 665.467 3.46035 -4.57217 0
M  V30 7309 N 664.963 4.06399 -5.61081 0
M  V30 7310 N 666.756 3.43681 -4.44792 0
M  V30 7311 H 658.907 0.352765 -2.0945 0
M  V30 7312 H 661.17 0.21876 -0.922414 0
M  V30 7313 H 660.876 1.3756 -3.23682 0
M  V30 7314 H 660.75 2.91169 -2.39793 0
M  V30 7315 H 663.137 2.55809 -1.47125 0
M  V30 7316 H 663.218 1.02166 -2.34512 0
M  V30 7317 H 662.862 2.2769 -4.54004 0
M  V30 7318 H 662.792 3.80995 -3.63525 0
M  V30 7319 H 665.283 2.43987 -2.88581 0
M  V30 7320 H 665.596 4.49564 -6.2858 0
M  V30 7321 H 663.941 4.0487 -5.64894 0
M  V30 7322 H 667.132 2.9574 -3.62843 0
M  V30 7323 H 667.305 3.89503 -5.17872 0
M  V30 7324 N 660.711 1.11618 1.11262 0
M  V30 7325 C 661.959 0.864469 1.82678 0
M  V30 7326 C 662.28 -0.611564 1.85162 0
M  V30 7327 O 661.55 -1.44429 1.32352 0
M  V30 7328 H 660.13 0.316821 0.676486 0
M  V30 7329 H 662.792 1.40894 1.34666 0
M  V30 7330 H 661.888 1.23832 2.86482 0
M  V30 7331 N 662.189 -1.289 0.906776 0
M  V30 7332 C 663.429 -1.97046 0.543329 0
M  V30 7333 C 663.793 -1.69862 -0.895034 0
M  V30 7334 O 664.994 -2.31521 -1.36571 0
M  V30 7335 C 663.265 -3.47489 0.835833 0
M  V30 7336 S 664.824 -4.3498 0.577756 0
M  V30 7337 H 661.642 -0.681908 0.201302 0
M  V30 7338 H 664.244 -1.5657 1.17073 0
M  V30 7339 H 662.948 -3.64768 1.88075 0
M  V30 7340 H 662.479 -3.92907 0.196817 0
M  V30 7341 H 664.494 -4.92868 -0.574052 0
M  V30 7342 N 663.667 -0.670007 -1.42649 0
M  V30 7343 C 664.597 -0.00258501 -2.335 0
M  V30 7344 C 665.578 0.794364 -1.50412 0
M  V30 7345 O 666.763 0.75248 -1.79029 0
M  V30 7346 C 663.893 0.952748 -3.33976 0
M  V30 7347 C 662.847 0.264733 -4.2718 0
M  V30 7348 C 662.173 1.33267 -5.17826 0
M  V30 7349 C 663.473 -0.853289 -5.15283 0
M  V30 7350 H 665.167 -0.761326 -2.89559 0
M  V30 7351 H 662.713 -0.367561 -1.3923 0
M  V30 7352 H 664.666 1.4287 -3.96442 0
M  V30 7353 H 663.39 1.74285 -2.7621 0
M  V30 7354 H 662.049 -0.190938 -3.66102 0
M  V30 7355 H 661.697 2.11464 -4.5639 0
M  V30 7356 H 661.397 0.877476 -5.81011 0
M  V30 7357 H 662.921 1.80965 -5.83167 0
M  V30 7358 H 664.335 -0.458763 -5.71462 0
M  V30 7359 H 662.732 -1.23398 -5.87276 0
M  V30 7360 H 663.802 -1.70412 -4.53969 0
M  V30 7361 N 665.145 1.52092 -0.413018 0
M  V30 7362 C 666.075 2.30021 0.401567 0
M  V30 7363 C 667.056 1.34395 1.04269 0
M  V30 7364 O 668.241 1.63304 1.05097 0
M  V30 7365 C 665.371 3.12447 1.51638 0
M  V30 7366 C 664.325 4.16153 1.00005 0
M  V30 7367 C 663.651 4.86948 2.20875 0
M  V30 7368 C 664.951 5.22275 0.0513757 0
M  V30 7369 H 666.645 2.98365 -0.248704 0
M  V30 7370 H 664.191 1.4349 -0.121052 0
M  V30 7371 H 666.144 3.65733 2.09326 0
M  V30 7372 H 664.868 2.41879 2.19458 0
M  V30 7373 H 663.527 3.63882 0.445549 0
M  V30 7374 H 663.175 4.12905 2.8726 0
M  V30 7375 H 662.875 5.57057 1.86978 0
M  V30 7376 H 664.399 5.43048 2.79162 0
M  V30 7377 H 665.813 5.70778 0.537176 0
M  V30 7378 H 664.21 5.9977 -0.198977 0
M  V30 7379 H 665.28 4.76611 -0.892736 0
M  V30 7380 N 666.623 0.143563 1.56945 0
M  V30 7381 C 667.571 -0.814556 2.17871 0
M  V30 7382 C 668.565 -1.25778 1.13474 0
M  V30 7383 O 669.771 -1.22666 1.31731 0
M  V30 7384 H 666.146 -0.280873 0.697578 0
M  V30 7385 H 668.117 -0.276459 2.97117 0
M  V30 7386 C 666.866 -2.04503 2.81201 0
M  V30 7387 H 666.189 -1.71296 3.61245 0
M  V30 7388 H 667.629 -2.69493 3.27337 0
M  V30 7389 C 666.088 -2.85079 1.79532 0
M  V30 7390 O 666.618 -3.81306 1.26368 0
M  V30 7391 N 664.824 -2.49546 1.48913 0
M  V30 7392 H 664.371 -1.71359 1.92338 0
M  V30 7393 H 664.329 -3.03751 0.811348 0
M  V30 7394 N 668.101 -1.57061 -0.130224 0
M  V30 7395 C 669.348 -1.84257 -0.839972 0
M  V30 7396 C 669.676 -0.726986 -1.80403 0
M  V30 7397 O 668.931 0.282632 -1.93648 0
M  V30 7398 C 669.23 -3.17878 -1.63365 0
M  V30 7399 C 668.896 -4.43475 -0.814891 0
M  V30 7400 C 667.558 -4.77581 -0.589066 0
M  V30 7401 C 669.91 -5.20631 -0.243437 0
M  V30 7402 C 667.238 -5.86292 0.218648 0
M  V30 7403 C 669.59 -6.30192 0.551408 0
M  V30 7404 C 668.254 -6.62837 0.787653 0
M  V30 7405 H 667.524 -0.674245 -0.307367 0
M  V30 7406 H 670.171 -1.91224 -0.102832 0
M  V30 7407 H 668.476 -3.06437 -2.44138 0
M  V30 7408 H 670.173 -3.3614 -2.18658 0
M  V30 7409 H 666.763 -4.16747 -1.00098 0
M  V30 7410 H 670.947 -4.94644 -0.405145 0
M  V30 7411 H 666.203 -6.10017 0.411016 0
M  V30 7412 H 670.377 -6.89165 1.00126 0
M  V30 7413 H 668.004 -7.46908 1.41537 0
M  V30 7414 N 669.579 0.400081 -1.52437 0
M  V30 7415 C 670.509 1.4947 -1.7939 0
M  V30 7416 C 671.49 1.57383 -0.645329 0
M  V30 7417 O 672.675 1.72511 -0.891826 0
M  V30 7418 C 669.805 2.87201 -1.95276 0
M  V30 7419 C 668.759 2.94134 -3.10917 0
M  V30 7420 C 668.085 4.34207 -3.1204 0
M  V30 7421 C 669.385 2.64791 -4.50203 0
M  V30 7422 H 671.079 1.27165 -2.71052 0
M  V30 7423 H 668.625 0.610312 -1.30427 0
M  V30 7424 H 670.578 3.63772 -2.12715 0
M  V30 7425 H 669.302 3.10819 -1.00294 0
M  V30 7426 H 667.961 2.20009 -2.93243 0
M  V30 7427 H 667.609 4.54848 -2.14761 0
M  V30 7428 H 667.309 4.39768 -3.89715 0
M  V30 7429 H 668.833 5.127 -3.31619 0
M  V30 7430 H 670.247 3.31083 -4.68035 0
M  V30 7431 H 668.644 2.81717 -5.29864 0
M  V30 7432 H 669.714 1.60184 -4.57678 0
M  V30 7433 N 671.057 1.43213 0.657864 0
M  V30 7434 C 672.473 1.26511 0.972992 0
M  V30 7435 C 672.673 0.181477 2.00681 0
M  V30 7436 O 671.729 -0.441649 2.48608 0
M  V30 7437 C 673.042 2.62784 1.46168 0
M  V30 7438 C 674.59 2.70278 1.57857 0
M  V30 7439 C 675.065 4.06958 2.10117 0
M  V30 7440 N 676.556 4.08999 2.17426 0
M  V30 7441 C 677.291 5.11585 2.58975 0
M  V30 7442 N 676.787 6.24548 2.99853 0
M  V30 7443 N 678.58 4.9894 2.58873 0
M  V30 7444 H 670.731 2.12384 -0.0263129 0
M  V30 7445 H 672.994 0.946638 0.0507992 0
M  V30 7446 H 672.7 3.43022 0.776474 0
M  V30 7447 H 672.574 2.87863 2.43751 0
M  V30 7448 H 674.961 1.90376 2.25479 0
M  V30 7449 H 675.042 2.4897 0.587179 0
M  V30 7450 H 674.686 4.87325 1.43098 0
M  V30 7451 H 674.616 4.25628 3.10078 0
M  V30 7452 H 677.107 3.27457 1.88627 0
M  V30 7453 H 677.42 6.98661 3.30292 0
M  V30 7454 H 675.765 6.28027 2.97669 0
M  V30 7455 H 678.956 4.09757 2.26311 0
M  V30 7456 H 679.129 5.79019 2.90932 0
M  V30 7457 N 672.536 -0.895792 1.29666 0
M  V30 7458 C 673.468 -2.00563 1.10937 0
M  V30 7459 C 674.481 -1.62705 0.055734 0
M  V30 7460 O 675.67 -1.7595 0.300656 0
M  V30 7461 C 672.77 -3.32262 0.667448 0
M  V30 7462 C 671.943 -3.98625 1.80047 0
M  V30 7463 C 671.002 -5.08617 1.3489 0
M  V30 7464 O 670.028 -5.30837 2.05429 0
M  V30 7465 N 671.23 -5.80076 0.221937 0
M  V30 7466 H 673.995 -2.17184 2.06522 0
M  V30 7467 H 671.556 -1.06822 1.21658 0
M  V30 7468 H 673.548 -4.03196 0.348586 0
M  V30 7469 H 672.118 -3.11985 -0.196055 0
M  V30 7470 H 671.338 -3.21005 2.28801 0
M  V30 7471 H 672.626 -4.39704 2.56003 0
M  V30 7472 H 672.024 -5.64514 -0.366084 0
M  V30 7473 H 670.581 -6.51789 -0.0375346 0
M  V30 7474 N 674.014 -1.12206 -1.10668 0
M  V30 7475 C 675.43 -0.857619 -1.346 0
M  V30 7476 C 675.63 0.513542 -1.94846 0
M  V30 7477 O 674.686 1.26273 -2.18658 0
M  V30 7478 C 675.999 -1.97212 -2.26998 0
M  V30 7479 C 677.547 -2.00272 -2.40542 0
M  V30 7480 C 678.022 -3.10948 -3.36267 0
M  V30 7481 N 679.513 -3.10375 -3.43834 0
M  V30 7482 C 680.248 -3.92651 -4.17867 0
M  V30 7483 N 679.744 -4.84911 -4.94807 0
M  V30 7484 N 681.537 -3.80798 -4.1346 0
M  V30 7485 H 673.688 -2.00558 -0.699306 0
M  V30 7486 H 675.951 -0.872612 -0.370477 0
M  V30 7487 H 675.657 -2.96002 -1.89936 0
M  V30 7488 H 675.531 -1.87521 -3.27286 0
M  V30 7489 H 677.918 -1.02103 -2.76874 0
M  V30 7490 H 677.999 -2.14037 -1.40077 0
M  V30 7491 H 677.643 -4.09348 -3.00661 0
M  V30 7492 H 677.573 -2.94421 -4.36605 0
M  V30 7493 H 680.064 -2.43536 -2.88961 0
M  V30 7494 H 680.377 -5.44207 -5.48688 0
M  V30 7495 H 678.722 -4.88926 -4.93939 0
M  V30 7496 H 681.913 -3.08058 -3.52445 0
M  V30 7497 H 682.086 -4.4515 -4.70898 0
M  V30 7498 N 675.492 1.28418 -0.913599 0
M  V30 7499 C 676.424 2.26368 -0.359169 0
M  V30 7500 C 677.437 1.54858 0.502285 0
M  V30 7501 O 678.626 1.75659 0.31719 0
M  V30 7502 C 675.726 3.35112 0.50526 0
M  V30 7503 C 674.899 4.36126 -0.333648 0
M  V30 7504 C 673.958 5.24134 0.465845 0
M  V30 7505 O 672.984 5.6907 -0.121538 0
M  V30 7506 N 674.186 5.52892 1.76891 0
M  V30 7507 H 676.951 2.74579 -1.2011 0
M  V30 7508 H 674.512 1.41898 -0.779532 0
M  V30 7509 H 676.504 3.90926 1.04684 0
M  V30 7510 H 675.074 2.86611 1.2479 0
M  V30 7511 H 674.294 3.79776 -1.0566 0
M  V30 7512 H 675.582 5.00638 -0.907669 0
M  V30 7513 H 674.98 5.18217 2.26865 0
M  V30 7514 H 673.537 6.11464 2.25732 0
M  V30 7515 N 676.97 0.677563 1.42291 0
M  V30 7516 C 678.218 0.200578 2.01102 0
M  V30 7517 C 678.539 -1.19803 1.53858 0
M  V30 7518 O 677.809 -1.80496 0.761439 0
M  V30 7519 H 676.389 0.0711634 0.743603 0
M  V30 7520 H 679.051 0.874691 1.7417 0
M  V30 7521 H 678.147 0.204 3.11433 0
M  V30 7522 N 678.448 -1.51871 0.421078 0
M  V30 7523 C 679.398 -2.24171 -0.416111 0
M  V30 7524 C 680.382 -1.25763 -1.00362 0
M  V30 7525 O 681.574 -1.5094 -0.924452 0
M  V30 7526 C 678.703 -3.07533 -1.52571 0
M  V30 7527 C 677.789 -4.1336 -0.948399 0
M  V30 7528 N 678.18 -5.05704 -0.0987933 0
M  V30 7529 C 676.478 -4.29055 -1.21768 0
M  V30 7530 C 677.179 -5.8127 0.223705 0
M  V30 7531 N 676.155 -5.4221 -0.388524 0
M  V30 7532 H 679.957 -2.92925 0.239166 0
M  V30 7533 H 677.471 -1.60732 0.232191 0
M  V30 7534 H 679.468 -3.57893 -2.13819 0
M  V30 7535 H 678.128 -2.4032 -2.18349 0
M  V30 7536 H 679.139 -5.17214 0.266428 0
M  V30 7537 H 675.816 -3.73071 -1.87416 0
M  V30 7538 H 677.206 -6.65653 0.914076 0
M  V30 7539 N 679.926 -0.151884 -1.56866 0
M  V30 7540 C 681.173 0.498004 -1.96281 0
M  V30 7541 C 681.501 1.64551 -1.03698 0
M  V30 7542 O 680.756 1.95585 -0.0671497 0
M  V30 7543 C 681.055 1.04074 -3.41911 0
M  V30 7544 C 680.721 0.0111688 -4.50899 0
M  V30 7545 C 679.383 -0.271844 -4.80432 0
M  V30 7546 C 681.735 -0.68869 -5.1663 0
M  V30 7547 C 679.063 -1.26044 -5.73001 0
M  V30 7548 C 681.415 -1.66613 -6.10264 0
M  V30 7549 C 680.079 -1.9568 -6.38174 0
M  V30 7550 H 679.349 0.182233 -0.718242 0
M  V30 7551 H 681.996 -0.239746 -1.89993 0
M  V30 7552 H 680.301 1.85592 -3.45055 0
M  V30 7553 H 681.998 1.55224 -3.69738 0
M  V30 7554 H 678.588 0.241932 -4.27917 0
M  V30 7555 H 682.772 -0.48324 -4.93942 0
M  V30 7556 H 678.028 -1.49202 -5.92915 0
M  V30 7557 H 682.202 -2.21392 -6.60272 0
M  V30 7558 H 679.829 -2.72434 -7.09707 0
M  V30 7559 N 681.404 1.57128 0.121893 0
M  V30 7560 C 682.629 1.89254 0.848385 0
M  V30 7561 C 683.054 0.743527 1.72781 0
M  V30 7562 O 682.412 -0.306056 1.78698 0
M  V30 7563 C 682.46 3.20113 1.66012 0
M  V30 7564 O 681.564 3.05815 2.76679 0
M  V30 7565 H 680.905 0.621103 0.234793 0
M  V30 7566 H 683.435 2.0433 0.10516 0
M  V30 7567 H 683.445 3.52761 2.04996 0
M  V30 7568 H 682.12 4.03336 1.01452 0
M  V30 7569 H 680.697 2.84627 2.40918 0
M  V30 7570 N 682.882 -0.391992 1.52647 0
M  V30 7571 C 684.298 -0.731848 1.41831 0
M  V30 7572 C 684.498 -1.9423 0.536361 0
M  V30 7573 O 683.554 -2.52499 0.00866571 0
M  V30 7574 C 684.867 -0.969743 2.84634 0
M  V30 7575 C 686.415 -1.0714 2.94092 0
M  V30 7576 C 686.89 -1.34195 4.37899 0
M  V30 7577 N 688.381 -1.41023 4.41211 0
M  V30 7578 C 689.116 -1.63616 5.49561 0
M  V30 7579 N 688.612 -1.83699 6.68002 0
M  V30 7580 N 690.405 -1.65771 5.371 0
M  V30 7581 H 682.556 0.404547 2.08512 0
M  V30 7582 H 684.819 0.11879 0.940528 0
M  V30 7583 H 684.525 -0.152465 3.51369 0
M  V30 7584 H 684.399 -1.88523 3.26709 0
M  V30 7585 H 686.786 -1.87925 2.27526 0
M  V30 7586 H 686.867 -0.133887 2.55449 0
M  V30 7587 H 686.511 -0.539207 5.0503 0
M  V30 7588 H 686.441 -2.29226 4.74092 0
M  V30 7589 H 688.932 -1.27223 3.55841 0
M  V30 7590 H 689.245 -2.00437 7.46354 0
M  V30 7591 H 687.59 -1.8093 6.71036 0
M  V30 7592 H 690.781 -1.4963 4.43541 0
M  V30 7593 H 690.954 -1.83038 6.21612 0
M  V30 7594 N 684.36 -1.4356 -0.65026 0
M  V30 7595 C 685.637 -1.35811 -1.40765 0
M  V30 7596 C 686.017 -0.00736379 -2.11099 0
M  V30 7597 O 685.365 1.00932 -2.05 0
M  V30 7598 C 685.575 -2.54332 -2.3899 0
M  V30 7599 C 686.923 -2.97551 -3.02901 0
M  V30 7600 O 687.947 -2.544 -2.49317 0
M  V30 7601 O 686.806 -3.72311 -4.00059 0
M  V30 7602 H 683.9 -0.536861 -0.629054 0
M  V30 7603 H 686.446 -1.55615 -0.676919 0
M  V30 7604 H 685.218 -3.44274 -1.85986 0
M  V30 7605 H 684.841 -2.36643 -3.19509 0
M  V30 7606 N 685.838 0.888903 -1.30139 0
M  V30 7607 C 687.084 1.6428 -1.18912 0
M  V30 7608 C 687.417 1.92499 0.256477 0
M  V30 7609 O 686.692 1.54312 1.18397 0
M  V30 7610 C 686.975 2.9851 -2.01405 0
M  V30 7611 C 686.828 2.77288 -3.54163 0
M  V30 7612 C 688.147 3.99383 -1.84882 0
M  V30 7613 H 685.266 0.596148 -0.433333 0
M  V30 7614 H 687.908 1.0289 -1.5973 0
M  V30 7615 H 686.058 3.50907 -1.66722 0
M  V30 7616 H 687.73 2.31709 -3.98884 0
M  V30 7617 H 685.973 2.11867 -3.78543 0
M  V30 7618 H 686.644 3.72717 -4.07168 0
M  V30 7619 H 689.12 3.56132 -2.15196 0
M  V30 7620 H 687.996 4.91222 -2.44934 0
M  V30 7621 H 688.257 4.34674 -0.806902 0
M  V30 7622 N 687.317 1.12792 1.10072 0
M  V30 7623 C 688.247 0.821688 2.18565 0
M  V30 7624 C 689.228 -0.21612 1.68721 0
M  V30 7625 O 690.413 -0.0764932 1.94049 0
M  V30 7626 C 687.543 0.279624 3.46172 0
M  V30 7627 C 686.497 1.25092 4.09312 0
M  V30 7628 C 685.823 0.568916 5.31665 0
M  V30 7629 C 687.123 2.60699 4.52585 0
M  V30 7630 H 688.817 1.72888 2.44438 0
M  V30 7631 H 686.363 0.832702 1.17482 0
M  V30 7632 H 688.316 0.053099 4.21367 0
M  V30 7633 H 687.04 -0.662929 3.19801 0
M  V30 7634 H 685.699 1.46332 3.36129 0
M  V30 7635 H 685.347 -0.378898 5.01571 0
M  V30 7636 H 685.047 1.21687 5.74862 0
M  V30 7637 H 686.571 0.351517 6.09587 0
M  V30 7638 H 687.985 2.43465 5.19035 0
M  V30 7639 H 686.382 3.21608 5.06644 0
M  V30 7640 H 687.452 3.1886 3.65317 0
M  V30 7641 N 688.795 -1.27931 0.920396 0
M  V30 7642 C 689.725 -2.29487 0.431024 0
M  V30 7643 C 690.706 -1.62435 -0.504861 0
M  V30 7644 O 691.891 -1.89797 -0.411176 0
M  V30 7645 C 689.021 -3.45788 -0.323709 0
M  V30 7646 C 687.975 -4.24784 0.523658 0
M  V30 7647 C 687.301 -5.33488 -0.359809 0
M  V30 7648 C 688.601 -4.90874 1.78437 0
M  V30 7649 H 690.295 -2.70671 1.27975 0
M  V30 7650 H 687.841 -1.30121 0.616813 0
M  V30 7651 H 689.794 -4.15927 -0.676952 0
M  V30 7652 H 688.518 -3.03502 -1.2064 0
M  V30 7653 H 687.177 -3.56382 0.85951 0
M  V30 7654 H 686.825 -4.87445 -1.24124 0
M  V30 7655 H 686.525 -5.87247 0.203605 0
M  V30 7656 H 688.049 -6.06472 -0.708787 0
M  V30 7657 H 689.463 -5.53339 1.49963 0
M  V30 7658 H 687.86 -5.54659 2.29071 0
M  V30 7659 H 688.93 -4.14988 2.50824 0
M  V30 7660 N 690.273 -0.685099 -1.4193 0
M  V30 7661 C 691.498 -0.218842 -2.06242 0
M  V30 7662 C 691.923 1.11923 -1.51178 0
M  V30 7663 O 691.281 1.69837 -0.634446 0
M  V30 7664 C 691.329 -0.175592 -3.60172 0
M  V30 7665 O 690.433 0.852776 -4.03487 0
M  V30 7666 H 689.774 -0.109531 -0.654904 0
M  V30 7667 H 692.304 -0.937013 -1.81882 0
M  V30 7668 H 692.314 -0.00291151 -4.08 0
M  V30 7669 H 690.989 -1.15222 -3.99621 0
M  V30 7670 H 689.566 0.650301 -3.67186 0
M  V30 7671 N 691.751 1.51645 -0.429126 0
M  V30 7672 C 692.684 2.24083 0.431492 0
M  V30 7673 C 693.662 1.25691 1.03153 0
M  V30 7674 O 694.846 1.54802 1.07557 0
M  V30 7675 C 691.973 2.9849 1.60067 0
M  V30 7676 C 691.019 4.11474 1.12211 0
M  V30 7677 S 691.852 5.35453 0.0708449 0
M  V30 7678 C 693.008 6.13395 1.24488 0
M  V30 7679 H 693.241 2.96733 -0.183525 0
M  V30 7680 H 690.774 1.52916 -0.213574 0
M  V30 7681 H 692.732 3.4196 2.27099 0
M  V30 7682 H 691.393 2.25445 2.18708 0
M  V30 7683 H 690.586 4.62784 1.99618 0
M  V30 7684 H 690.188 3.70223 0.530149 0
M  V30 7685 H 692.48 6.41984 2.16479 0
M  V30 7686 H 693.423 7.0388 0.771921 0
M  V30 7687 H 693.831 5.44761 1.47973 0
M  V30 7688 N 693.229 0.160201 1.56784 0
M  V30 7689 C 694.469 -0.490179 1.98435 0
M  V30 7690 C 694.833 -1.61164 1.04355 0
M  V30 7691 O 696.034 -2.3238 1.35103 0
M  V30 7692 C 694.305 -0.971106 3.43954 0
M  V30 7693 S 695.864 -1.62423 4.07632 0
M  V30 7694 H 692.682 -0.158056 0.693209 0
M  V30 7695 H 695.284 0.255036 1.93829 0
M  V30 7696 H 693.988 -0.144323 4.10146 0
M  V30 7697 H 693.519 -1.75063 3.52302 0
M  V30 7698 H 695.534 -2.91199 4.01768 0
M  V30 7699 N 694.707 -1.5719 -0.113559 0
M  V30 7700 C 695.639 -1.97393 -1.16484 0
M  V30 7701 C 696.652 -0.873964 -1.37352 0
M  V30 7702 O 697.841 -1.15222 -1.36331 0
M  V30 7703 C 694.941 -2.26174 -2.52386 0
M  V30 7704 C 694.114 -3.57479 -2.52046 0
M  V30 7705 C 693.173 -3.74409 -3.69735 0
M  V30 7706 O 692.199 -4.46463 -3.53071 0
M  V30 7707 N 693.401 -3.13588 -4.88511 0
M  V30 7708 H 696.166 -2.88184 -0.822814 0
M  V30 7709 H 693.727 -1.59044 -0.302769 0
M  V30 7710 H 695.719 -2.3471 -3.29687 0
M  V30 7711 H 694.289 -1.41483 -2.7875 0
M  V30 7712 H 693.509 -3.60081 -1.60421 0
M  V30 7713 H 694.797 -4.43775 -2.48881 0
M  V30 7714 H 694.195 -2.55026 -5.04953 0
M  V30 7715 H 692.752 -3.27637 -5.63469 0
M  V30 7716 N 696.185 0.383891 -1.52853 0
M  V30 7717 C 697.462 1.14296 -1.58732 0
M  V30 7718 C 697.842 2.07585 -0.383611 0
M  V30 7719 O 697.19 2.1971 0.627661 0
M  V30 7720 C 697.4 1.89816 -2.92867 0
M  V30 7721 C 698.748 2.44998 -3.46787 0
M  V30 7722 O 699.772 1.99966 -2.94774 0
M  V30 7723 O 698.631 3.2727 -4.37672 0
M  V30 7724 H 695.725 0.52326 -0.640413 0
M  V30 7725 H 698.271 0.388631 -1.6519 0
M  V30 7726 H 697.043 1.21626 -3.71918 0
M  V30 7727 H 696.666 2.72199 -2.89816 0
M  V30 7728 N 697.663 1.43903 0.642637 0
M  V30 7729 C 698.909 1.46296 1.40447 0
M  V30 7730 C 699.242 0.0908361 1.93987 0
M  V30 7731 O 698.517 -0.889884 1.72949 0
M  V30 7732 C 698.8 2.51399 2.57819 0
M  V30 7733 C 698.653 3.97926 2.09702 0
M  V30 7734 C 699.972 2.53125 3.60022 0
M  V30 7735 H 697.091 0.532676 0.509338 0
M  V30 7736 H 699.733 1.75515 0.727635 0
M  V30 7737 H 697.883 2.26614 3.1556 0
M  V30 7738 H 699.555 4.33804 1.5688 0
M  V30 7739 H 697.798 4.10252 1.40982 0
M  V30 7740 H 698.469 4.67096 2.94152 0
M  V30 7741 H 700.945 2.75242 3.12059 0
M  V30 7742 H 699.821 3.28589 4.39682 0
M  V30 7743 H 700.082 1.56895 4.13324 0
M  V30 7744 N 699.141 -0.881989 1.30609 0
M  V30 7745 C 700.381 -1.64817 1.20891 0
M  V30 7746 C 700.745 -1.90593 -0.232043 0
M  V30 7747 O 701.946 -2.64964 -0.452516 0
M  V30 7748 C 700.217 -2.95006 2.01758 0
M  V30 7749 S 701.776 -3.85953 2.08771 0
M  V30 7750 H 698.594 -0.565651 0.430767 0
M  V30 7751 H 701.196 -1.04665 1.65122 0
M  V30 7752 H 699.9 -2.73973 3.0556 0
M  V30 7753 H 699.431 -3.60189 1.582 0
M  V30 7754 H 701.446 -4.81037 1.21727 0
M  V30 7755 N 700.619 -1.13374 -1.09472 0
M  V30 7756 C 701.529 -0.824029 -2.19652 0
M  V30 7757 C 702.545 0.19118 -1.72947 0
M  V30 7758 O 703.721 0.0223464 -2.01388 0
M  V30 7759 C 700.786 -0.294009 -3.45451 0
M  V30 7760 C 699.847 -1.3704 -4.0684 0
M  V30 7761 C 699.08 -0.86558 -5.26634 0
M  V30 7762 O 699.303 0.29702 -5.69626 0
M  V30 7763 O 698.237 -1.63968 -5.79136 0
M  V30 7764 H 702.063 -1.74454 -2.48595 0
M  V30 7765 H 699.648 -0.911155 -1.18399 0
M  V30 7766 H 701.53 -0.00381039 -4.214 0
M  V30 7767 H 700.205 0.598921 -3.18111 0
M  V30 7768 H 699.112 -1.71391 -3.3253 0
M  V30 7769 H 700.445 -2.23746 -4.38405 0
M  V30 7770 N 702.098 1.27442 -0.927168 0
M  V30 7771 C 703.346 1.94007 -0.566203 0
M  V30 7772 C 703.667 1.7323 0.895345 0
M  V30 7773 O 702.937 1.07973 1.63459 0
M  V30 7774 H 701.517 0.717917 -0.206409 0
M  V30 7775 H 704.179 1.55161 -1.17945 0
M  V30 7776 H 703.275 3.02401 -0.772028 0
M  V30 7777 N 703.576 0.692616 1.41565 0
M  V30 7778 C 704.509 -0.025063 2.28186 0
M  V30 7779 C 705.487 -0.790912 1.42068 0
M  V30 7780 O 706.671 -0.782344 1.71498 0
M  V30 7781 C 703.798 -1.04285 3.22246 0
M  V30 7782 C 702.844 -0.370515 4.24888 0
M  V30 7783 S 703.677 0.884942 5.28137 0
M  V30 7784 C 704.833 -0.131324 6.25762 0
M  V30 7785 H 705.066 0.709626 2.88707 0
M  V30 7786 H 702.599 0.482783 1.46658 0
M  V30 7787 H 704.557 -1.62493 3.7697 0
M  V30 7788 H 703.218 -1.7501 2.60827 0
M  V30 7789 H 702.411 -1.13911 4.90959 0
M  V30 7790 H 702.013 0.138411 3.73744 0
M  V30 7791 H 704.305 -0.985527 6.70294 0
M  V30 7792 H 705.248 0.495384 7.06365 0
M  V30 7793 H 705.656 -0.484777 5.62415 0
M  V30 7794 N 705.054 -1.51416 0.437162 0
M  V30 7795 C 705.964 -2.31493 -0.380537 0
M  V30 7796 C 706.98 -1.40399 -1.02782 0
M  V30 7797 O 708.156 -1.73471 -1.02323 0
M  V30 7798 C 705.221 -3.1413 -1.46709 0
M  V30 7799 C 704.282 -4.21003 -0.839953 0
M  V30 7800 C 703.515 -4.9969 -1.87473 0
M  V30 7801 O 703.738 -4.79008 -3.09689 0
M  V30 7802 O 702.672 -5.8379 -1.46536 0
M  V30 7803 H 706.498 -3.02469 0.273183 0
M  V30 7804 H 704.083 -1.48059 0.199706 0
M  V30 7805 H 705.965 -3.65505 -2.09724 0
M  V30 7806 H 704.64 -2.45919 -2.10489 0
M  V30 7807 H 703.547 -3.73706 -0.171752 0
M  V30 7808 H 704.88 -4.91587 -0.245638 0
M  V30 7809 N 706.532 -0.168513 -1.56696 0
M  V30 7810 C 707.762 0.482802 -2.0088 0
M  V30 7811 C 708.17 1.57537 -1.0478 0
M  V30 7812 O 707.513 1.83656 -0.0402746 0
M  V30 7813 C 707.575 1.1236 -3.4149 0
M  V30 7814 C 707.239 0.173027 -4.56672 0
M  V30 7815 C 708.236 -0.607565 -5.16338 0
M  V30 7816 C 705.921 0.0696691 -5.02252 0
M  V30 7817 C 707.915 -1.47874 -6.2001 0
M  V30 7818 C 705.602 -0.805096 -6.05773 0
M  V30 7819 C 706.6 -1.57789 -6.64524 0
M  V30 7820 O 706.288 -2.43804 -7.66038 0
M  V30 7821 H 706.02 0.128246 -0.663723 0
M  V30 7822 H 708.574 -0.266532 -2.03663 0
M  V30 7823 H 706.804 1.921 -3.35611 0
M  V30 7824 H 708.493 1.67683 -3.69645 0
M  V30 7825 H 709.259 -0.53787 -4.82008 0
M  V30 7826 H 705.138 0.660957 -4.56237 0
M  V30 7827 H 708.682 -2.0824 -6.65794 0
M  V30 7828 H 704.579 -0.876005 -6.39528 0
M  V30 7829 H 705.347 -2.37289 -7.83349 0
M  V30 7830 N 708.01 1.57248 0.105221 0
M  V30 7831 C 708.94 2.04374 1.12931 0
M  V30 7832 C 709.921 0.93074 1.42377 0
M  V30 7833 O 711.106 1.20136 1.52581 0
M  V30 7834 C 708.236 2.45967 2.45189 0
M  V30 7835 C 707.19 3.60838 2.30174 0
M  V30 7836 C 706.516 3.88374 3.67518 0
M  V30 7837 C 707.816 4.92084 1.75073 0
M  V30 7838 H 709.51 2.9018 0.737287 0
M  V30 7839 H 707.056 1.39601 0.353211 0
M  V30 7840 H 709.009 2.77542 3.17094 0
M  V30 7841 H 707.733 1.57148 2.86308 0
M  V30 7842 H 706.392 3.29493 1.60716 0
M  V30 7843 H 706.04 2.96739 4.06147 0
M  V30 7844 H 705.74 4.65703 3.58321 0
M  V30 7845 H 707.264 4.22415 4.40906 0
M  V30 7846 H 708.678 5.22106 2.36809 0
M  V30 7847 H 707.075 5.73507 1.76662 0
M  V30 7848 H 708.145 4.79684 0.709347 0
M  V30 7849 N 709.488 -0.375779 1.53054 0
M  V30 7850 C 710.398 -1.48381 1.81715 0
M  V30 7851 C 711.414 -1.59087 0.704795 0
M  V30 7852 O 712.59 -1.75174 0.993785 0
M  V30 7853 C 709.655 -2.83767 1.99192 0
M  V30 7854 C 708.716 -2.82673 3.23102 0
M  V30 7855 C 707.949 -4.11601 3.39736 0
M  V30 7856 O 708.172 -5.07243 2.60885 0
M  V30 7857 O 707.106 -4.18034 4.33049 0
M  V30 7858 H 710.932 -1.27089 2.7583 0
M  V30 7859 H 708.517 -0.564902 1.38308 0
M  V30 7860 H 710.399 -3.64004 2.12318 0
M  V30 7861 H 709.074 -3.05057 1.08267 0
M  V30 7862 H 707.981 -2.0117 3.15407 0
M  V30 7863 H 709.314 -2.66335 4.13916 0
M  V30 7864 N 710.966 -1.44241 -0.634997 0
M  V30 7865 C 712.382 -1.28043 -0.952742 0
M  V30 7866 C 712.582 -0.21338 -2.00367 0
M  V30 7867 O 711.638 0.402042 -2.49279 0
M  V30 7868 C 712.951 -2.65076 -1.41968 0
M  V30 7869 C 714.499 -2.72755 -1.53537 0
M  V30 7870 C 714.974 -4.10249 -2.03616 0
M  V30 7871 N 716.465 -4.12406 -2.10892 0
M  V30 7872 C 717.2 -5.15641 -2.50803 0
M  V30 7873 N 716.696 -6.29239 -2.89879 0
M  V30 7874 N 718.489 -5.02995 -2.50903 0
M  V30 7875 H 710.64 -2.12315 0.060098 0
M  V30 7876 H 712.903 -0.947326 -0.0357325 0
M  V30 7877 H 712.609 -3.44213 -0.721804 0
M  V30 7878 H 712.483 -2.91704 -2.39141 0
M  V30 7879 H 714.87 -1.93939 -2.22422 0
M  V30 7880 H 714.951 -2.49872 -0.547496 0
M  V30 7881 H 714.595 -4.8954 -1.35327 0
M  V30 7882 H 714.525 -4.30507 -3.03268 0
M  V30 7883 H 717.016 -3.30417 -1.83393 0
M  V30 7884 H 717.329 -7.03827 -3.19135 0
M  V30 7885 H 715.674 -6.32683 -2.8764 0
M  V30 7886 H 718.865 -4.13306 -2.19763 0
M  V30 7887 H 719.038 -5.83574 -2.81683 0
M  V30 7888 N 712.444 0.87505 -1.31075 0
M  V30 7889 C 713.392 2.00317 -1.18219 0
M  V30 7890 C 714.386 1.69152 -0.0916872 0
M  V30 7891 O 715.592 1.7821 -0.253229 0
M  V30 7892 H 711.967 0.656981 -0.365895 0
M  V30 7893 H 713.938 2.08293 -2.13674 0
M  V30 7894 C 712.687 3.35821 -0.901095 0
M  V30 7895 H 712.01 3.6032 -1.73233 0
M  V30 7896 H 713.45 4.15366 -0.851295 0
M  V30 7897 C 711.909 3.34563 0.396114 0
M  V30 7898 O 712.439 3.75971 1.41452 0
M  V30 7899 N 710.645 2.87681 0.410832 0
M  V30 7900 H 710.192 2.54179 -0.418415 0
M  V30 7901 H 710.15 2.87223 1.27869 0
M  V30 7902 N 713.922 1.13953 1.08869 0
M  V30 7903 C 715.147 0.928559 1.85452 0
M  V30 7904 C 715.572 -0.517642 1.80837 0
M  V30 7905 O 714.93 -1.36779 1.19001 0
M  V30 7906 C 714.978 1.42814 3.31114 0
M  V30 7907 O 714.082 0.617129 4.07756 0
M  V30 7908 H 713.423 0.33235 0.574839 0
M  V30 7909 H 715.953 1.5156 1.37443 0
M  V30 7910 H 715.963 1.43425 3.8196 0
M  V30 7911 H 714.638 2.48109 3.33788 0
M  V30 7912 H 713.215 0.679365 3.66659 0
M  V30 7913 N 715.4 -1.26948 0.933913 0
M  V30 7914 C 716.647 -1.94087 0.577625 0
M  V30 7915 C 716.975 -1.73345 -0.88214 0
M  V30 7916 O 716.23 -1.05945 -1.64542 0
M  V30 7917 C 716.529 -3.46963 0.857406 0
M  V30 7918 C 716.195 -3.87834 2.2999 0
M  V30 7919 C 714.857 -3.98704 2.69423 0
M  V30 7920 C 717.209 -4.08442 3.23766 0
M  V30 7921 C 714.537 -4.27573 4.01744 0
M  V30 7922 C 716.889 -4.38798 4.55675 0
M  V30 7923 C 715.553 -4.47881 4.94934 0
M  V30 7924 H 714.823 -0.710215 0.211368 0
M  V30 7925 H 717.47 -1.50899 1.17905 0
M  V30 7926 H 715.775 -3.91416 0.173369 0
M  V30 7927 H 717.472 -3.97062 0.560615 0
M  V30 7928 H 714.062 -3.79916 1.98399 0
M  V30 7929 H 718.246 -3.99479 2.94499 0
M  V30 7930 H 713.502 -4.32815 4.31834 0
M  V30 7931 H 717.676 -4.5369 5.28335 0
M  V30 7932 H 715.303 -4.70005 5.97495 0
M  V30 7933 N 716.879 -0.700114 -1.41195 0
M  V30 7934 C 718.128 -0.230082 -2.00383 0
M  V30 7935 C 718.441 1.17857 -1.56106 0
M  V30 7936 O 719.647 1.74631 -2.07885 0
M  V30 7937 C 718.103 -0.360447 -3.5809 0
M  V30 7938 C 717.711 -1.77475 -4.11347 0
M  V30 7939 C 719.455 0.0495799 -4.24471 0
M  V30 7940 C 717.362 -1.85653 -5.61504 0
M  V30 7941 H 716.292 -0.0822633 -0.749499 0
M  V30 7942 H 718.943 -0.868969 -1.6162 0
M  V30 7943 H 717.325 0.346768 -3.94479 0
M  V30 7944 H 718.499 -2.51109 -3.86369 0
M  V30 7945 H 716.814 -2.13486 -3.57509 0
M  V30 7946 H 719.411 0.00898219 -5.34699 0
M  V30 7947 H 719.754 1.08904 -4.01803 0
M  V30 7948 H 720.287 -0.607521 -3.93134 0
M  V30 7949 H 717.026 -2.87667 -5.89006 0
M  V30 7950 H 716.546 -1.1641 -5.88395 0
M  V30 7951 H 718.225 -1.62151 -6.26351 0
M  V30 7952 N 718.357 1.51182 -0.445186 0
M  V30 7953 C 719.307 2.24804 0.380394 0
M  V30 7954 C 720.291 1.27344 0.983482 0
M  V30 7955 O 721.483 1.52392 0.900322 0
M  V30 7956 C 718.612 3.09922 1.4766 0
M  V30 7957 C 717.698 4.14816 0.882517 0
M  V30 7958 N 718.089 5.05797 0.0183278 0
M  V30 7959 C 716.387 4.30938 1.14927 0
M  V30 7960 C 717.088 5.8084 -0.316152 0
M  V30 7961 N 716.064 5.42759 0.302214 0
M  V30 7962 H 719.866 2.92508 -0.285737 0
M  V30 7963 H 717.38 1.60342 -0.257733 0
M  V30 7964 H 719.377 3.61249 2.08098 0
M  V30 7965 H 718.037 2.43763 2.14498 0
M  V30 7966 H 719.048 5.16725 -0.348679 0
M  V30 7967 H 715.725 3.76005 1.81457 0
M  V30 7968 H 717.115 6.64115 -1.01986 0
M  V30 7969 N 719.835 0.176821 1.56605 0
M  V30 7970 C 721.251 -0.179278 1.5859 0
M  V30 7971 C 721.451 -1.62433 1.19238 0
M  V30 7972 O 720.507 -2.35665 0.906552 0
M  V30 7973 C 721.82 0.106524 3.00511 0
M  V30 7974 C 723.368 0.0451731 3.12967 0
M  V30 7975 C 723.843 0.304038 4.5699 0
M  V30 7976 N 725.334 0.252008 4.62514 0
M  V30 7977 C 726.069 0.426404 5.71812 0
M  V30 7978 N 725.565 0.660155 6.89648 0
M  V30 7979 N 727.358 0.361926 5.60934 0
M  V30 7980 H 719.509 1.12001 1.8047 0
M  V30 7981 H 721.772 0.445679 0.836704 0
M  V30 7982 H 721.478 1.10778 3.33798 0
M  V30 7983 H 721.352 -0.599337 3.72408 0
M  V30 7984 H 723.739 -0.946662 2.79504 0
M  V30 7985 H 723.82 0.78383 2.43495 0
M  V30 7986 H 723.464 1.29311 4.91163 0
M  V30 7987 H 723.394 -0.455294 5.24628 0
M  V30 7988 H 725.885 0.0772102 3.77821 0
M  V30 7989 H 726.198 0.782529 7.68828 0
M  V30 7990 H 724.543 0.696835 6.91498 0
M  V30 7991 H 727.734 0.17986 4.67754 0
M  V30 7992 H 727.907 0.501263 6.46058 0
M  V30 7993 N 721.313 -1.57302 -0.09688 0
M  V30 7994 C 722.59 -1.7701 -0.832272 0
M  V30 7995 C 722.97 -0.758025 -1.97021 0
M  V30 7996 O 722.318 0.213824 -2.27497 0
M  V30 7997 C 722.528 -3.22725 -1.32851 0
M  V30 7998 C 723.876 -3.85856 -1.772 0
M  V30 7999 O 724.9 -3.26464 -1.42478 0
M  V30 8000 O 723.759 -4.90295 -2.41398 0
M  V30 8001 H 720.853 -0.725558 -0.396856 0
M  V30 8002 H 723.399 -1.69516 -0.0789005 0
M  V30 8003 H 722.171 -3.87921 -0.51312 0
M  V30 8004 H 721.794 -3.34845 -2.14394 0
M  V30 8005 N 722.791 0.367657 -1.53252 0
M  V30 8006 C 723.721 1.45632 -1.8252 0
M  V30 8007 C 724.702 1.55979 -0.678568 0
M  V30 8008 O 725.887 1.70581 -0.928217 0
M  V30 8009 C 723.017 2.82994 -2.01325 0
M  V30 8010 C 721.971 2.87473 -3.17086 0
M  V30 8011 C 721.297 4.2749 -3.21179 0
M  V30 8012 C 722.597 2.55182 -4.55719 0
M  V30 8013 H 724.291 1.21387 -2.73689 0
M  V30 8014 H 721.837 0.58251 -1.31692 0
M  V30 8015 H 723.79 3.59179 -2.20383 0
M  V30 8016 H 722.514 3.08622 -1.06864 0
M  V30 8017 H 721.173 2.13739 -2.97844 0
M  V30 8018 H 720.821 4.5019 -2.24361 0
M  V30 8019 H 720.521 4.31403 -3.98955 0
M  V30 8020 H 722.045 5.0555 -3.42419 0
M  V30 8021 H 723.459 3.21081 -4.74953 0
M  V30 8022 H 721.856 2.70414 -5.3572 0
M  V30 8023 H 722.926 1.5044 -4.60973 0
M  V30 8024 N 724.269 1.44576 0.627338 0
M  V30 8025 C 725.232 1.51372 1.72102 0
M  V30 8026 C 726.232 0.395329 1.55865 0
M  V30 8027 O 727.422 0.658094 1.61291 0
M  V30 8028 C 724.554 1.39129 3.11217 0
M  V30 8029 H 725.747 2.48798 1.6745 0
M  V30 8030 H 723.3 1.31724 0.841336 0
M  V30 8031 H 724.035 0.428114 3.21462 0
M  V30 8032 H 723.82 2.20229 3.24409 0
M  V30 8033 H 725.31 1.46874 3.90919 0
M  V30 8034 N 725.747 -0.868086 1.31537 0
M  V30 8035 C 726.71 -1.95703 1.19302 0
M  V30 8036 C 727.71 -1.60355 0.119612 0
M  V30 8037 O 728.9 -1.70247 0.36902 0
M  V30 8038 C 726.032 -3.30599 0.831684 0
M  V30 8039 H 727.225 -2.07982 2.16064 0
M  V30 8040 H 724.778 -1.05661 1.15176 0
M  V30 8041 H 725.513 -3.2402 -0.134694 0
M  V30 8042 H 725.298 -3.57629 1.60761 0
M  V30 8043 H 726.788 -4.10439 0.770026 0
M  V30 8044 N 727.225 -1.14528 -1.08264 0
M  V30 8045 C 728.641 -0.885976 -1.3275 0
M  V30 8046 C 728.841 0.472096 -1.95892 0
M  V30 8047 O 727.897 1.21606 -2.21288 0
M  V30 8048 C 729.21 -2.01982 -2.22764 0
M  V30 8049 C 730.758 -2.05329 -2.36239 0
M  V30 8050 C 731.233 -3.1801 -3.29596 0
M  V30 8051 N 732.724 -3.17598 -3.37173 0
M  V30 8052 C 733.459 -4.01426 -4.09444 0
M  V30 8053 N 732.955 -4.95297 -4.8441 0
M  V30 8054 N 734.748 -3.89482 -4.0529 0
M  V30 8055 H 726.899 -2.01996 -0.656607 0
M  V30 8056 H 729.162 -0.880274 -0.351884 0
M  V30 8057 H 728.868 -2.99964 -1.83615 0
M  V30 8058 H 728.742 -1.94421 -3.23234 0
M  V30 8059 H 731.129 -1.07953 -2.74646 0
M  V30 8060 H 731.21 -2.1696 -1.35506 0
M  V30 8061 H 730.854 -4.15633 -2.9191 0
M  V30 8062 H 730.784 -3.03616 -4.30261 0
M  V30 8063 H 733.275 -2.4961 -2.83731 0
M  V30 8064 H 733.588 -5.55723 -5.37021 0
M  V30 8065 H 731.933 -4.99293 -4.83457 0
M  V30 8066 H 735.124 -3.15465 -3.45832 0
M  V30 8067 H 735.297 -4.55039 -4.6135 0
M  V30 8068 N 728.703 1.26451 -0.940633 0
M  V30 8069 C 729.651 2.28389 -0.440581 0
M  V30 8070 C 730.645 1.62402 0.481859 0
M  V30 8071 O 731.851 1.76361 0.360132 0
M  V30 8072 H 728.226 0.741716 -0.123938 0
M  V30 8073 H 730.197 2.67967 -1.31288 0
M  V30 8074 C 728.946 3.46576 0.279364 0
M  V30 8075 H 728.269 3.97574 -0.421274 0
M  V30 8076 H 729.709 4.19826 0.59348 0
M  V30 8077 C 728.168 3.01815 1.49697 0
M  V30 8078 O 728.698 3.06607 2.59529 0
M  V30 8079 N 726.904 2.57163 1.35334 0
M  V30 8080 H 726.451 2.53464 0.459743 0
M  V30 8081 H 726.409 2.27578 2.16923 0
M  V30 8082 N 730.181 0.707592 1.40822 0
M  V30 8083 C 731.421 0.247986 2.0289 0
M  V30 8084 C 731.785 -1.13484 1.54872 0
M  V30 8085 O 732.986 -1.69098 2.08948 0
M  V30 8086 C 731.257 0.316326 3.55997 0
M  V30 8087 S 732.816 -0.0674698 4.38748 0
M  V30 8088 H 729.634 0.09895 0.704081 0
M  V30 8089 H 732.236 0.928039 1.72069 0
M  V30 8090 H 730.94 1.32453 3.88438 0
M  V30 8091 H 730.471 -0.382474 3.91536 0
M  V30 8092 H 732.486 -1.29182 4.79089 0
M  V30 8093 N 731.66 -1.50943 0.453197 0
M  V30 8094 C 732.59 -2.31005 -0.34044 0
M  V30 8095 C 733.571 -1.37112 -1.00669 0
M  V30 8096 O 734.756 -1.66033 -1.0073 0
M  V30 8097 C 731.886 -3.16358 -1.433 0
M  V30 8098 C 730.84 -4.18658 -0.889363 0
M  V30 8099 C 730.166 -4.92633 -2.07887 0
M  V30 8100 C 731.466 -5.22227 0.0871142 0
M  V30 8101 H 733.16 -2.97601 0.327723 0
M  V30 8102 H 730.706 -1.43119 0.159054 0
M  V30 8103 H 732.659 -3.71155 -1.99555 0
M  V30 8104 H 731.383 -2.47613 -2.12968 0
M  V30 8105 H 730.042 -3.64936 -0.348915 0
M  V30 8106 H 729.69 -4.20376 -2.76211 0
M  V30 8107 H 729.39 -5.61819 -1.72143 0
M  V30 8108 H 730.914 -5.50258 -2.64666 0
M  V30 8109 H 732.328 -5.72001 -0.385656 0
M  V30 8110 H 730.725 -5.99032 0.357926 0
M  V30 8111 H 731.795 -4.74077 1.01879 0
M  V30 8112 N 733.138 -0.185124 -1.56509 0
M  V30 8113 C 734.384 0.456934 -1.97585 0
M  V30 8114 C 734.717 1.61957 -1.07161 0
M  V30 8115 O 733.992 1.9412 -0.121546 0
M  V30 8116 C 734.275 0.926666 -3.47973 0
M  V30 8117 C 734.128 -0.237097 -4.49175 0
M  V30 8118 C 735.447 1.79561 -4.01803 0
M  V30 8119 H 732.566 0.164619 -0.71838 0
M  V30 8120 H 735.208 -0.274039 -1.88013 0
M  V30 8121 H 733.358 1.54954 -3.56261 0
M  V30 8122 H 735.03 -0.87454 -4.52934 0
M  V30 8123 H 733.273 -0.890446 -4.24563 0
M  V30 8124 H 733.944 0.133924 -5.51838 0
M  V30 8125 H 736.42 1.27039 -3.96232 0
M  V30 8126 H 735.296 2.09327 -5.07418 0
M  V30 8127 H 735.557 2.74629 -3.46455 0
M  V30 8128 N 734.616 1.57351 0.0885366 0
M  V30 8129 C 735.841 1.91011 0.80805 0
M  V30 8130 C 736.266 0.780009 1.71165 0
M  V30 8131 O 735.624 -0.268083 1.79307 0
M  V30 8132 C 735.672 3.23562 1.59185 0
M  V30 8133 O 734.776 3.11615 2.7013 0
M  V30 8134 H 734.117 0.625943 0.221565 0
M  V30 8135 H 736.647 2.04507 0.0617954 0
M  V30 8136 H 736.657 3.5703 1.97468 0
M  V30 8137 H 735.332 4.05398 0.928741 0
M  V30 8138 H 733.909 2.89673 2.34827 0
M  V30 8139 N 736.094 -0.359525 1.53444 0
M  V30 8140 C 737.004 -1.46445 1.83278 0
M  V30 8141 C 738.02 -1.5833 0.721629 0
M  V30 8142 O 739.196 -1.7411 1.01231 0
M  V30 8143 C 736.261 -2.81638 2.02191 0
M  V30 8144 C 735.322 -2.7923 3.26082 0
M  V30 8145 C 734.555 -4.07974 3.44082 0
M  V30 8146 O 734.778 -5.04447 2.66251 0
M  V30 8147 O 733.712 -4.13417 4.37458 0
M  V30 8148 H 737.538 -1.24156 2.77162 0
M  V30 8149 H 735.123 -0.550201 1.389 0
M  V30 8150 H 737.005 -3.61732 2.16167 0
M  V30 8151 H 735.68 -3.03892 1.11496 0
M  V30 8152 H 734.587 -1.97813 3.17523 0
M  V30 8153 H 735.92 -2.6193 4.16718 0
M  V30 8154 N 737.572 -1.44907 -0.619662 0
M  V30 8155 C 738.535 -1.52282 -1.71297 0
M  V30 8156 C 739.535 -0.40359 -1.55653 0
M  V30 8157 O 740.725 -0.666638 -1.6094 0
M  V30 8158 C 737.857 -1.40778 -3.10474 0
M  V30 8159 H 739.05 -2.49683 -1.66128 0
M  V30 8160 H 736.603 -1.32168 -0.834339 0
M  V30 8161 H 737.338 -0.445156 -3.2123 0
M  V30 8162 H 737.123 -2.21947 -3.23237 0
M  V30 8163 H 738.613 -1.48946 -3.90135 0
M  V30 8164 N 739.05 0.861098 -1.31996 0
M  V30 8165 C 740.298 1.61162 -1.21947 0
M  V30 8166 C 740.619 1.93751 0.220351 0
M  V30 8167 O 739.889 1.59069 1.14341 0
M  V30 8168 H 738.469 0.597485 -0.448353 0
M  V30 8169 H 741.131 1.03039 -1.65436 0
M  V30 8170 H 740.227 2.55138 -1.79752 0
M  V30 8171 N 740.528 1.15101 1.07655 0
M  V30 8172 C 741.774 0.925343 1.80458 0
M  V30 8173 C 742.107 -0.546354 1.86356 0
M  V30 8174 O 741.382 -1.40496 1.34503 0
M  V30 8175 C 741.665 1.53646 3.25676 0
M  V30 8176 C 741.518 3.07854 3.27942 0
M  V30 8177 C 742.837 1.21968 4.22861 0
M  V30 8178 H 739.956 0.337592 0.655134 0
M  V30 8179 H 742.598 1.42217 1.25993 0
M  V30 8180 H 740.748 1.11395 3.72187 0
M  V30 8181 H 742.42 3.58989 2.89697 0
M  V30 8182 H 740.663 3.41904 2.66991 0
M  V30 8183 H 741.334 3.45725 4.30324 0
M  V30 8184 H 743.81 1.5851 3.84726 0
M  V30 8185 H 742.686 1.67349 5.22767 0
M  V30 8186 H 742.947 0.136207 4.4189 0
M  V30 8187 N 742.006 -1.2595 0.947325 0
M  V30 8188 C 743.252 -1.9375 0.599064 0
M  V30 8189 C 743.585 -1.74088 -0.860632 0
M  V30 8190 O 742.86 -1.08158 -1.61654 0
M  V30 8191 C 743.143 -3.47353 0.949634 0
M  V30 8192 C 742.996 -3.76273 2.46452 0
M  V30 8193 C 744.315 -4.37589 0.469442 0
M  V30 8194 H 741.434 -0.703674 0.219115 0
M  V30 8195 H 744.076 -1.48705 1.18266 0
M  V30 8196 H 742.226 -3.8585 0.453008 0
M  V30 8197 H 743.898 -3.47455 3.03435 0
M  V30 8198 H 742.141 -3.22135 2.90537 0
M  V30 8199 H 742.812 -4.83664 2.66032 0
M  V30 8200 H 745.288 -4.06353 0.89534 0
M  V30 8201 H 744.164 -5.43841 0.7435 0
M  V30 8202 H 744.425 -4.37579 -0.630618 0
M  V30 8203 N 743.484 -0.715051 -1.40445 0
M  V30 8204 C 744.431 -0.0621393 -2.30716 0
M  V30 8205 C 745.401 0.750871 -1.48159 0
M  V30 8206 O 746.586 0.714928 -1.76899 0
M  V30 8207 C 743.726 0.854036 -3.34365 0
M  V30 8208 C 742.839 0.0305565 -4.31989 0
M  V30 8209 C 741.974 0.946162 -5.22706 0
M  V30 8210 C 741.013 0.116741 -6.11989 0
M  V30 8211 N 740.15 0.987194 -6.95125 0
M  V30 8212 H 744.99 -0.83764 -2.85985 0
M  V30 8213 H 742.527 -0.424759 -1.40834 0
M  V30 8214 H 744.485 1.39946 -3.93028 0
M  V30 8215 H 743.115 1.59572 -2.806 0
M  V30 8216 H 742.167 -0.632044 -3.75112 0
M  V30 8217 H 743.479 -0.611615 -4.95036 0
M  V30 8218 H 742.633 1.56014 -5.86297 0
M  V30 8219 H 741.372 1.62216 -4.59932 0
M  V30 8220 H 740.377 -0.510176 -5.47428 0
M  V30 8221 H 741.602 -0.555742 -6.76822 0
M  V30 8222 H 739.548 1.64885 -6.3494 0
M  V30 8223 H 739.465 0.401046 -7.54936 0
M  V30 8224 H 740.733 1.58737 -7.63166 0
M  V30 8225 N 744.962 1.50701 -0.461195 0
M  V30 8226 C 746.208 2.02566 0.0973411 0
M  V30 8227 C 746.541 1.3432 1.40257 0
M  V30 8228 O 745.816 0.465692 1.88843 0
M  V30 8229 C 746.099 3.58919 0.291423 0
M  V30 8230 C 745.952 4.37751 -1.03413 0
M  V30 8231 C 747.271 4.27379 1.05048 0
M  V30 8232 H 744.39 0.73622 0.0339026 0
M  V30 8233 H 747.032 1.80115 -0.604855 0
M  V30 8234 H 745.182 3.78179 0.889539 0
M  V30 8235 H 746.854 4.30085 -1.66806 0
M  V30 8236 H 745.097 4.01885 -1.63313 0
M  V30 8237 H 745.768 5.45384 -0.852085 0
M  V30 8238 H 748.244 4.12534 0.543603 0
M  V30 8239 H 747.12 5.36609 1.15506 0
M  V30 8240 H 747.381 3.89868 2.0846 0
M  V30 8241 N 746.441 0.193421 1.56409 0
M  V30 8242 C 747.666 -0.454552 2.02358 0
M  V30 8243 C 748.091 -1.54516 1.07268 0
M  V30 8244 O 747.449 -1.81214 0.0558962 0
M  V30 8245 C 747.497 -0.989469 3.46759 0
M  V30 8246 O 746.601 -2.10244 3.54783 0
M  V30 8247 H 745.942 -0.106417 0.655417 0
M  V30 8248 H 748.472 0.303807 2.02332 0
M  V30 8249 H 748.482 -1.30649 3.86516 0
M  V30 8250 H 747.157 -0.191083 4.15461 0
M  V30 8251 H 745.734 -1.79419 3.26899 0
M  V30 8252 N 747.919 -1.57396 -0.0801906 0
M  V30 8253 C 749.196 -1.77883 -0.813451 0
M  V30 8254 C 749.576 -0.778879 -1.96206 0
M  V30 8255 O 748.924 0.189683 -2.27711 0
M  V30 8256 C 749.134 -3.24116 -1.2942 0
M  V30 8257 C 750.482 -3.87714 -1.73098 0
M  V30 8258 O 751.506 -3.27956 -1.39007 0
M  V30 8259 O 750.365 -4.92828 -2.36184 0
M  V30 8260 H 747.459 -0.729727 -0.389138 0
M  V30 8261 H 750.005 -1.69591 -0.0609166 0
M  V30 8262 H 748.777 -3.88443 -0.471947 0
M  V30 8263 H 748.4 -3.371 -2.1083 0
M  V30 8264 N 749.397 0.351382 -1.53633 0
M  V30 8265 C 750.644 1.0925 -1.70502 0
M  V30 8266 C 750.972 1.88881 -0.464123 0
M  V30 8267 O 750.227 1.87693 0.554077 0
M  V30 8268 C 750.526 2.06744 -2.91533 0
M  V30 8269 C 750.192 1.43484 -4.27461 0
M  V30 8270 C 748.854 1.2596 -4.64422 0
M  V30 8271 C 751.206 0.978436 -5.11934 0
M  V30 8272 C 748.534 0.614017 -5.83478 0
M  V30 8273 C 750.886 0.346795 -6.31649 0
M  V30 8274 C 749.55 0.15917 -6.6731 0
M  V30 8275 H 748.82 0.399773 -0.623909 0
M  V30 8276 H 751.467 0.372656 -1.87839 0
M  V30 8277 H 749.772 2.85082 -2.68767 0
M  V30 8278 H 751.469 2.64066 -3.01778 0
M  V30 8279 H 748.059 1.5812 -3.98367 0
M  V30 8280 H 752.243 1.1017 -4.83918 0
M  V30 8281 H 747.499 0.457194 -6.09688 0
M  V30 8282 H 751.673 -0.0149864 -6.96398 0
M  V30 8283 H 749.3 -0.343129 -7.59425 0
M  V30 8284 N 750.875 1.45233 0.611969 0
M  V30 8285 C 752.123 1.48727 1.36838 0
M  V30 8286 C 752.444 0.128616 1.94575 0
M  V30 8287 O 751.714 -0.84149 1.76906 0
M  V30 8288 H 750.294 0.547695 0.507976 0
M  V30 8289 H 752.956 1.81156 0.718925 0
M  V30 8290 H 752.052 2.2236 2.19003 0
M  V30 8291 N 752.353 -0.854086 1.3245 0
M  V30 8292 C 753.286 -1.96654 1.15768 0
M  V30 8293 C 754.264 -1.625 0.0569975 0
M  V30 8294 O 755.448 -1.87254 0.216412 0
M  V30 8295 C 752.575 -3.29776 0.772361 0
M  V30 8296 C 751.621 -3.82909 1.87837 0
M  V30 8297 S 752.454 -4.0643 3.48675 0
M  V30 8298 C 753.61 -5.42526 3.12116 0
M  V30 8299 H 753.843 -2.10504 2.09942 0
M  V30 8300 H 751.376 -1.00612 1.17118 0
M  V30 8301 H 753.334 -4.06706 0.556809 0
M  V30 8302 H 751.995 -3.13739 -0.150519 0
M  V30 8303 H 751.188 -4.79192 1.56177 0
M  V30 8304 H 750.79 -3.12825 2.0498 0
M  V30 8305 H 753.082 -6.24792 2.61996 0
M  V30 8306 H 754.025 -5.79148 4.07422 0
M  V30 8307 H 754.433 -5.06556 2.49121 0
M  V30 8308 N 753.831 -1.1567 -1.07043 0
M  V30 8309 C 754.794 -0.858906 -2.12498 0
M  V30 8310 C 755.794 0.142735 -1.60165 0
M  V30 8311 O 756.984 -0.0872678 -1.73981 0
M  V30 8312 C 754.116 -0.283021 -3.39723 0
M  V30 8313 H 755.309 -1.79368 -2.40348 0
M  V30 8314 H 752.862 -0.964608 -1.22984 0
M  V30 8315 H 753.597 0.659796 -3.17517 0
M  V30 8316 H 753.382 -1.00467 -3.7901 0
M  V30 8317 H 754.872 -0.0923543 -4.17498 0
M  V30 8318 N 755.309 1.25446 -0.953992 0
M  V30 8319 C 756.725 1.4539 -0.658316 0
M  V30 8320 C 756.925 1.85607 0.784356 0
M  V30 8321 O 755.981 1.98568 1.55972 0
M  V30 8322 C 757.294 2.52643 -1.6307 0
M  V30 8323 C 758.842 2.66484 -1.64181 0
M  V30 8324 C 759.317 3.76921 -2.60182 0
M  V30 8325 N 760.808 3.84331 -2.58542 0
M  V30 8326 C 761.543 4.69271 -3.29503 0
M  V30 8327 N 761.039 5.58503 -4.09934 0
M  V30 8328 N 762.832 4.6323 -3.18393 0
M  V30 8329 H 754.983 0.976337 -1.8863 0
M  V30 8330 H 757.246 0.490343 -0.811337 0
M  V30 8331 H 756.952 2.29949 -2.66114 0
M  V30 8332 H 756.826 3.50547 -1.39271 0
M  V30 8333 H 759.213 2.88545 -0.618552 0
M  V30 8334 H 759.294 1.68982 -1.92038 0
M  V30 8335 H 758.938 3.55612 -3.62633 0
M  V30 8336 H 758.868 4.73906 -2.29609 0
M  V30 8337 H 761.359 3.20544 -2.0015 0
M  V30 8338 H 761.672 6.20241 -4.61 0
M  V30 8339 H 760.017 5.58214 -4.14032 0
M  V30 8340 H 763.208 3.92527 -2.5503 0
M  V30 8341 H 763.381 5.29204 -3.73961 0
M  V30 8342 N 756.787 0.722489 1.40064 0
M  V30 8343 C 758.017 0.274439 2.04769 0
M  V30 8344 C 758.425 -1.09125 1.54559 0
M  V30 8345 O 757.768 -1.69834 0.700149 0
M  V30 8346 C 757.83 0.184091 3.59028 0
M  V30 8347 C 757.494 1.48619 4.32159 0
M  V30 8348 C 758.491 2.42947 4.59644 0
M  V30 8349 C 756.176 1.74703 4.7094 0
M  V30 8350 C 758.17 3.616 5.24904 0
M  V30 8351 C 755.857 2.93636 5.3593 0
M  V30 8352 C 756.855 3.86907 5.62843 0
M  V30 8353 O 756.543 5.03753 6.26489 0
M  V30 8354 H 756.275 0.119847 0.665292 0
M  V30 8355 H 758.829 0.983352 1.80331 0
M  V30 8356 H 757.059 -0.580821 3.82313 0
M  V30 8357 H 758.748 -0.230306 4.05246 0
M  V30 8358 H 759.514 2.24062 4.30141 0
M  V30 8359 H 755.393 1.02955 4.49356 0
M  V30 8360 H 758.937 4.34418 5.45827 0
M  V30 8361 H 754.834 3.12428 5.64853 0
M  V30 8362 H 755.602 5.03922 6.44984 0
M  V30 8363 N 758.265 -1.50454 0.469181 0
M  V30 8364 C 759.511 -2.02615 -0.0865971 0
M  V30 8365 C 759.844 -1.35062 -1.39542 0
M  V30 8366 O 759.119 -0.475701 -1.88593 0
M  V30 8367 C 759.402 -3.59068 -0.272385 0
M  V30 8368 C 759.255 -4.37196 1.05733 0
M  V30 8369 C 760.574 -4.2793 -1.0278 0
M  V30 8370 H 757.693 -0.736389 -0.0299977 0
M  V30 8371 H 760.335 -1.79792 0.614399 0
M  V30 8372 H 758.485 -3.78646 -0.869471 0
M  V30 8373 H 760.157 -4.29195 1.69084 0
M  V30 8374 H 758.4 -4.01013 1.65442 0
M  V30 8375 H 759.071 -5.44924 0.880997 0
M  V30 8376 H 761.547 -4.12816 -0.521718 0
M  V30 8377 H 760.423 -5.37214 -1.12659 0
M  V30 8378 H 760.684 -3.90968 -2.0639 0
M  V30 8379 N 759.743 -0.201713 -1.56304 0
M  V30 8380 C 760.673 0.71155 -2.22394 0
M  V30 8381 C 761.654 1.21625 -1.18917 0
M  V30 8382 O 762.839 1.26388 -1.47444 0
M  V30 8383 C 759.969 1.92837 -2.88845 0
M  V30 8384 C 758.923 1.55831 -3.98623 0
M  V30 8385 C 758.249 2.85228 -4.52271 0
M  V30 8386 C 759.549 0.763249 -5.16693 0
M  V30 8387 H 761.243 0.160573 -2.98969 0
M  V30 8388 H 758.789 0.0757916 -1.438 0
M  V30 8389 H 760.742 2.57253 -3.33764 0
M  V30 8390 H 759.466 2.50398 -2.09686 0
M  V30 8391 H 758.125 0.9377 -3.54405 0
M  V30 8392 H 757.773 3.40893 -3.69866 0
M  V30 8393 H 757.473 2.6121 -5.26349 0
M  V30 8394 H 758.997 3.50622 -4.99897 0
M  V30 8395 H 760.411 1.31066 -5.58117 0
M  V30 8396 H 758.808 0.620935 -5.96879 0
M  V30 8397 H 759.878 -0.234322 -4.84334 0
M  V30 8398 N 761.222 1.57436 0.0718424 0
M  V30 8399 C 762.499 1.78312 0.804006 0
M  V30 8400 C 762.879 0.789273 1.9579 0
M  V30 8401 O 762.227 -0.177605 2.27809 0
M  V30 8402 C 762.437 3.24798 1.277 0
M  V30 8403 C 763.785 3.88627 1.71039 0
M  V30 8404 O 764.809 3.28689 1.37266 0
M  V30 8405 O 763.668 4.94073 2.33567 0
M  V30 8406 H 760.762 0.73178 0.385262 0
M  V30 8407 H 763.308 1.69621 0.0519219 0
M  V30 8408 H 762.08 3.88688 0.45134 0
M  V30 8409 H 761.703 3.38213 2.0904 0
M  V30 8410 N 762.7 -0.34323 1.53817 0
M  V30 8411 C 763.977 -1.10047 1.61706 0
M  V30 8412 C 764.357 -2.06495 0.438514 0
M  V30 8413 O 763.705 -2.21297 -0.569188 0
M  V30 8414 C 763.915 -1.81985 2.97796 0
M  V30 8415 C 765.263 -2.35717 3.53161 0
M  V30 8416 O 766.287 -1.9208 2.99973 0
M  V30 8417 O 765.146 -3.15551 4.46195 0
M  V30 8418 H 762.24 -0.506096 0.654061 0
M  V30 8419 H 764.786 -0.344697 1.66162 0
M  V30 8420 H 763.558 -1.11722 3.75012 0
M  V30 8421 H 763.181 -2.64419 2.96931 0
M  V30 8422 N 764.178 -1.45556 -0.604258 0
M  V30 8423 C 765.11 -1.50494 -1.72871 0
M  V30 8424 C 766.123 -0.395368 -1.57926 0
M  V30 8425 O 767.312 -0.662603 -1.65746 0
M  V30 8426 C 764.412 -1.34874 -3.10906 0
M  V30 8427 C 763.585 -2.59564 -3.52058 0
M  V30 8428 C 762.644 -2.38453 -4.6907 0
M  V30 8429 O 761.67 -3.12082 -4.76018 0
M  V30 8430 N 762.872 -1.43229 -5.62553 0
M  V30 8431 H 765.637 -2.4744 -1.69097 0
M  V30 8432 H 763.198 -1.41338 -0.789636 0
M  V30 8433 H 765.19 -1.18556 -3.86945 0
M  V30 8434 H 763.76 -0.461913 -3.09168 0
M  V30 8435 H 762.98 -2.90974 -2.65946 0
M  V30 8436 H 764.268 -3.42441 -3.76313 0
M  V30 8437 H 763.666 -0.824714 -5.59656 0
M  V30 8438 H 762.223 -1.32882 -6.38111 0
M  V30 8439 N 765.656 0.84705 -1.32902 0
M  V30 8440 C 766.886 1.63166 -1.26729 0
M  V30 8441 C 767.294 1.88474 0.165595 0
M  V30 8442 O 766.637 1.45947 1.11558 0
M  V30 8443 C 766.699 3.0103 -1.96522 0
M  V30 8444 C 766.363 2.9873 -3.45846 0
M  V30 8445 C 767.36 2.75032 -4.41196 0
M  V30 8446 C 765.045 3.19125 -3.87898 0
M  V30 8447 C 767.039 2.71743 -5.76571 0
M  V30 8448 C 764.726 3.15462 -5.2338 0
M  V30 8449 C 765.724 2.91801 -6.17528 0
M  V30 8450 O 765.412 2.88027 -7.5053 0
M  V30 8451 H 765.144 0.51469 -0.438258 0
M  V30 8452 H 767.698 1.06383 -1.75704 0
M  V30 8453 H 765.928 3.59634 -1.42128 0
M  V30 8454 H 767.617 3.61821 -1.83958 0
M  V30 8455 H 768.383 2.59034 -4.10032 0
M  V30 8456 H 764.262 3.36565 -3.15032 0
M  V30 8457 H 767.806 2.53194 -6.5003 0
M  V30 8458 H 763.703 3.31006 -5.54171 0
M  V30 8459 H 764.471 3.03927 -7.59981 0
M  V30 8460 N 767.134 1.16236 1.06428 0
M  V30 8461 C 768.362 0.967184 1.82902 0
M  V30 8462 C 768.777 -0.484601 1.82475 0
M  V30 8463 O 768.134 -1.33631 1.24294 0
M  V30 8464 C 768.185 1.48534 3.29576 0
M  V30 8465 O 767.906 2.88026 3.3011 0
M  V30 8466 C 769.407 1.33298 4.22784 0
M  V30 8467 H 766.627 0.342923 0.576754 0
M  V30 8468 H 769.171 1.54232 1.34286 0
M  V30 8469 H 767.326 0.952513 3.75508 0
M  V30 8470 H 767.74 3.11721 4.21818 0
M  V30 8471 H 769.214 1.74385 5.23731 0
M  V30 8472 H 769.691 0.278356 4.38317 0
M  V30 8473 H 770.297 1.85535 3.82697 0
M  V30 8474 N 768.612 -1.24939 0.960631 0
M  V30 8475 C 769.837 -1.9742 0.635608 0
M  V30 8476 C 770.262 -1.70857 -0.786737 0
M  V30 8477 O 769.62 -0.968063 -1.53291 0
M  V30 8478 C 769.668 -3.48987 0.907771 0
M  V30 8479 O 768.772 -4.12399 -0.0104053 0
M  V30 8480 H 768.113 -0.61871 0.241027 0
M  V30 8481 H 770.643 -1.58901 1.28886 0
M  V30 8482 H 770.653 -3.99334 0.836453 0
M  V30 8483 H 769.328 -3.6765 1.94439 0
M  V30 8484 H 767.905 -3.72727 0.113631 0
M  V30 8485 N 770.09 -0.729906 -1.39679 0
M  V30 8486 C 771.315 -0.284345 -2.05442 0
M  V30 8487 C 771.74 1.07056 -1.54663 0
M  V30 8488 O 771.098 1.67732 -0.688157 0
M  V30 8489 C 771.146 -0.290089 -3.59431 0
M  V30 8490 O 770.25 0.723978 -4.05995 0
M  V30 8491 H 769.591 -0.130311 -0.651088 0
M  V30 8492 H 772.121 -0.994403 -1.78809 0
M  V30 8493 H 772.131 -0.132712 -4.07784 0
M  V30 8494 H 770.806 -1.27877 -3.95753 0
M  V30 8495 H 769.383 0.533154 -3.69069 0
M  V30 8496 N 771.568 1.50203 -0.477153 0
M  V30 8497 C 772.793 2.07263 0.0754986 0
M  V30 8498 C 773.218 1.33801 1.32208 0
M  V30 8499 O 772.576 0.387482 1.77111 0
M  V30 8500 C 772.624 3.59028 0.336348 0
M  V30 8501 O 771.728 3.87339 1.4157 0
M  V30 8502 H 771.069 0.663815 -0.015662 0
M  V30 8503 H 773.599 1.93321 -0.669936 0
M  V30 8504 H 773.609 4.03927 0.575034 0
M  V30 8505 H 772.284 4.11912 -0.574551 0
M  V30 8506 H 770.861 3.54272 1.16385 0
M  V30 8507 N 773.046 0.209999 1.56195 0
M  V30 8508 C 774.294 -0.423974 1.97603 0
M  V30 8509 C 774.615 -1.61112 1.09854 0
M  V30 8510 O 773.885 -1.95134 0.173032 0
M  V30 8511 H 772.465 -0.159629 0.729745 0
M  V30 8512 H 775.127 0.300205 1.92574 0
M  V30 8513 H 774.223 -0.75809 3.02753 0
M  V30 8514 N 774.524 -1.57472 -0.0634922 0
M  V30 8515 C 775.487 -2.03268 -1.059 0
M  V30 8516 C 776.487 -0.931028 -1.31105 0
M  V30 8517 O 777.677 -1.19567 -1.26686 0
M  V30 8518 C 774.809 -2.42039 -2.40062 0
M  V30 8519 H 776.002 -2.92454 -0.664119 0
M  V30 8520 H 773.555 -1.53206 -0.309444 0
M  V30 8521 H 774.29 -1.55904 -2.84367 0
M  V30 8522 H 774.075 -3.22437 -2.23108 0
M  V30 8523 H 775.565 -2.78017 -3.11603 0
M  V30 8524 N 776.003 0.335068 -1.53997 0
M  V30 8525 C 776.95 1.41187 -1.82579 0
M  V30 8526 C 777.92 1.51897 -0.672061 0
M  V30 8527 O 779.105 1.673 -0.917346 0
M  V30 8528 C 776.245 2.77717 -2.0486 0
M  V30 8529 C 775.358 2.7573 -3.32561 0
M  V30 8530 C 774.493 4.04032 -3.44864 0
M  V30 8531 C 773.532 3.96308 -4.66483 0
M  V30 8532 N 772.669 5.16317 -4.75774 0
M  V30 8533 H 777.509 1.16113 -2.74448 0
M  V30 8534 H 775.046 0.562305 -1.35928 0
M  V30 8535 H 777.004 3.57071 -2.15768 0
M  V30 8536 H 775.634 3.01124 -1.16294 0
M  V30 8537 H 774.686 1.88432 -3.3045 0
M  V30 8538 H 775.998 2.65902 -4.22016 0
M  V30 8539 H 775.152 4.91814 -3.55251 0
M  V30 8540 H 773.891 4.16652 -2.53481 0
M  V30 8541 H 772.896 3.06911 -4.56164 0
M  V30 8542 H 774.121 3.85263 -5.5924 0
M  V30 8543 H 772.067 5.29464 -3.87303 0
M  V30 8544 H 771.984 5.08779 -5.59178 0
M  V30 8545 H 773.252 6.05846 -4.9048 0
M  V30 8546 N 777.481 1.45874 0.596531 0
M  V30 8547 C 778.728 1.50467 1.35521 0
M  V30 8548 C 779.056 0.150802 1.93915 0
M  V30 8549 O 778.311 -0.851913 1.76184 0
M  V30 8550 C 778.61 2.54034 2.51399 0
M  V30 8551 C 778.276 3.9844 2.11085 0
M  V30 8552 C 776.938 4.37758 1.99804 0
M  V30 8553 C 779.29 4.89209 1.79788 0
M  V30 8554 C 776.618 5.65727 1.55465 0
M  V30 8555 C 778.97 6.17602 1.36931 0
M  V30 8556 C 777.634 6.5584 1.24218 0
M  V30 8557 H 776.904 0.550597 0.495907 0
M  V30 8558 H 779.551 1.79279 0.673145 0
M  V30 8559 H 777.856 2.18832 3.24992 0
M  V30 8560 H 779.553 2.54822 3.09624 0
M  V30 8561 H 776.143 3.67353 2.20794 0
M  V30 8562 H 780.327 4.59562 1.87395 0
M  V30 8563 H 775.583 5.94139 1.44253 0
M  V30 8564 H 779.757 6.87373 1.11764 0
M  V30 8565 H 777.384 7.54897 0.896353 0
M  V30 8566 N 778.959 -0.83999 1.33349 0
M  V30 8567 C 780.37 -1.41139 1.22216 0
M  V30 8568 C 780.721 -1.95551 -0.159398 0
M  V30 8569 O 779.846 -1.88721 -1.05893 0
M  V30 8570 C 780.441 -2.56564 2.21269 0
M  V30 8571 C 779 -3.09661 2.13979 0
M  V30 8572 C 778.147 -1.82457 2.08818 0
M  V30 8573 H 781.098 -0.645853 1.44964 0
M  V30 8574 H 781.119 -3.34163 1.81976 0
M  V30 8575 H 780.631 -2.16932 3.21811 0
M  V30 8576 H 778.732 -3.53841 1.16736 0
M  V30 8577 H 778.845 -3.6991 3.04472 0
M  V30 8578 H 777.209 -2.0266 1.54276 0
M  V30 8579 H 777.992 -1.45022 3.11165 0
M  V30 8580 N 780.437 -1.16799 -1.0581 0
M  V30 8581 C 781.683 -0.953935 -1.78963 0
M  V30 8582 C 782.016 0.516638 -1.87202 0
M  V30 8583 O 781.291 1.38338 -1.36721 0
M  V30 8584 C 781.574 -1.58808 -3.23191 0
M  V30 8585 C 781.427 -3.13032 -3.23003 0
M  V30 8586 C 782.746 -1.2868 -4.20867 0
M  V30 8587 H 779.865 -0.347972 -0.64968 0
M  V30 8588 H 782.507 -1.44204 -1.23715 0
M  V30 8589 H 780.657 -1.17303 -3.70368 0
M  V30 8590 H 782.329 -3.63553 -2.83949 0
M  V30 8591 H 780.572 -3.46108 -2.61518 0
M  V30 8592 H 781.243 -3.52527 -4.24769 0
M  V30 8593 H 783.719 -1.6461 -3.82155 0
M  V30 8594 H 782.595 -1.75645 -5.20038 0
M  V30 8595 H 782.856 -0.206491 -4.41618 0
M  V30 8596 N 781.915 1.24427 -0.967243 0
M  V30 8597 C 782.862 2.25398 -0.496419 0
M  V30 8598 C 783.832 1.59667 0.457781 0
M  V30 8599 O 785.017 1.87213 0.368246 0
M  V30 8600 C 782.157 3.44474 0.207693 0
M  V30 8601 C 781.27 4.24804 -0.785221 0
M  V30 8602 C 780.405 5.31169 -0.0572631 0
M  V30 8603 C 779.444 6.03195 -1.04027 0
M  V30 8604 N 778.581 7.01265 -0.34235 0
M  V30 8605 H 783.421 2.65039 -1.36229 0
M  V30 8606 H 780.958 1.30288 -0.682902 0
M  V30 8607 H 782.916 4.12376 0.632612 0
M  V30 8608 H 781.546 3.05672 1.03752 0
M  V30 8609 H 780.598 3.56445 -1.32858 0
M  V30 8610 H 781.91 4.74599 -1.53483 0
M  V30 8611 H 781.064 6.05205 0.425674 0
M  V30 8612 H 779.803 4.8228 0.725047 0
M  V30 8613 H 778.808 5.27964 -1.53409 0
M  V30 8614 H 780.033 6.54173 -1.82302 0
M  V30 8615 H 777.979 6.54648 0.420993 0
M  V30 8616 H 777.896 7.48939 -1.03084 0
M  V30 8617 H 779.164 7.7941 0.118634 0
M  V30 8618 N 783.393 0.737304 1.3929 0
M  V30 8619 C 784.639 0.295581 2.01241 0
M  V30 8620 C 784.994 -1.10561 1.57461 0
M  V30 8621 O 784.287 -1.74346 0.7946 0
M  V30 8622 C 784.481 0.338438 3.55794 0
M  V30 8623 C 784.31 1.74225 4.14579 0
M  V30 8624 C 783.08 2.35502 4.47065 0
M  V30 8625 C 785.278 2.69623 4.37959 0
M  V30 8626 N 783.26 3.68014 4.91365 0
M  V30 8627 C 784.631 3.86873 4.84489 0
M  V30 8628 C 786.686 2.67355 4.2003 0
M  V30 8629 C 785.389 5.02193 5.14971 0
M  V30 8630 C 787.415 3.8182 4.51627 0
M  V30 8631 C 786.777 4.97806 4.98366 0
M  V30 8632 H 782.876 0.154468 0.766592 0
M  V30 8633 H 785.46 0.963768 1.69173 0
M  V30 8634 H 783.631 -0.299406 3.87244 0
M  V30 8635 H 785.363 -0.122053 4.04516 0
M  V30 8636 H 782.118 1.87406 4.34943 0
M  V30 8637 H 782.542 4.36051 5.17869 0
M  V30 8638 H 787.184 1.78876 3.83097 0
M  V30 8639 H 784.902 5.913 5.50809 0
M  V30 8640 H 788.488 3.81366 4.39376 0
M  V30 8641 H 787.368 5.84909 5.22351 0
M  V30 8642 N 784.871 -1.49948 0.485112 0
M  V30 8643 C 786.111 -2.04301 -0.0635728 0
M  V30 8644 C 786.475 -1.35804 -1.35725 0
M  V30 8645 O 787.676 -1.80789 -1.98919 0
M  V30 8646 C 785.947 -3.56666 -0.228962 0
M  V30 8647 S 787.506 -4.32614 -0.734185 0
M  V30 8648 H 784.324 -0.710939 -0.00931895 0
M  V30 8649 H 786.926 -1.84185 0.655455 0
M  V30 8650 H 785.63 -4.04068 0.718148 0
M  V30 8651 H 785.161 -3.8116 -0.973696 0
M  V30 8652 H 787.176 -4.53859 -2.00565 0
M  V30 8653 N 786.349 -0.21828 -1.56081 0
M  V30 8654 C 787.76 0.290166 -1.84431 0
M  V30 8655 C 788.111 1.59712 -1.13958 0
M  V30 8656 O 787.236 2.12516 -0.40815 0
M  V30 8657 C 787.831 0.53325 -3.34577 0
M  V30 8658 C 786.39 0.986011 -3.63256 0
M  V30 8659 C 785.537 0.0472798 -2.7726 0
M  V30 8660 H 788.488 -0.441548 -1.52434 0
M  V30 8661 H 788.509 1.37967 -3.54606 0
M  V30 8662 H 788.021 -0.418137 -3.85841 0
M  V30 8663 H 786.122 1.95087 -3.17446 0
M  V30 8664 H 786.235 0.862684 -4.71269 0
M  V30 8665 H 784.599 0.553471 -2.48614 0
M  V30 8666 H 785.382 -0.898966 -3.31321 0
M  V30 8667 N 787.827 1.57504 0.0551401 0
M  V30 8668 C 789.238 1.76626 0.604979 0
M  V30 8669 C 789.589 0.845978 1.77024 0
M  V30 8670 O 788.714 0.0341936 2.16373 0
M  V30 8671 C 789.309 3.203 1.10425 0
M  V30 8672 C 787.868 3.4071 1.59981 0
M  V30 8673 C 787.015 2.72258 0.526414 0
M  V30 8674 H 789.966 1.57775 -0.171072 0
M  V30 8675 H 789.987 3.25377 1.97256 0
M  V30 8676 H 789.499 3.87255 0.255939 0
M  V30 8677 H 787.6 2.78892 2.47083 0
M  V30 8678 H 787.713 4.49227 1.66528 0
M  V30 8679 H 786.077 2.35283 0.97539 0
M  V30 8680 H 786.86 3.41879 -0.311991 0
M  V30 8681 N 789.305 -0.326896 1.54172 0
M  V30 8682 C 790.215 -1.42525 1.86343 0
M  V30 8683 C 791.231 -1.56764 0.75505 0
M  V30 8684 O 792.407 -1.71924 1.04901 0
M  V30 8685 C 789.472 -2.77286 2.08119 0
M  V30 8686 C 788.533 -2.7225 3.31931 0
M  V30 8687 C 787.766 -4.00584 3.52659 0
M  V30 8688 O 787.989 -4.98686 2.76891 0
M  V30 8689 O 786.923 -4.04045 4.46129 0
M  V30 8690 H 790.749 -1.18249 2.79734 0
M  V30 8691 H 788.334 -0.520614 1.40036 0
M  V30 8692 H 790.216 -3.57065 2.23791 0
M  V30 8693 H 788.891 -3.01459 1.17917 0
M  V30 8694 H 787.798 -1.91033 3.21647 0
M  V30 8695 H 789.131 -2.53032 4.2218 0
M  V30 8696 N 790.784 -1.46188 -0.588786 0
M  V30 8697 C 792.03 -1.51407 -1.34921 0
M  V30 8698 C 792.363 -0.162771 -1.93517 0
M  V30 8699 O 791.638 0.825082 -1.76132 0
M  V30 8700 C 791.921 -2.60795 -2.48311 0
M  V30 8701 C 791.774 -4.05435 -1.94789 0
M  V30 8702 C 793.093 -2.66313 -3.50379 0
M  V30 8703 H 790.212 -0.551213 -0.489217 0
M  V30 8704 H 792.854 -1.78095 -0.661993 0
M  V30 8705 H 791.004 -2.3817 -3.06932 0
M  V30 8706 H 792.676 -4.39328 -1.40672 0
M  V30 8707 H 790.919 -4.15202 -1.25659 0
M  V30 8708 H 791.59 -4.77691 -2.76613 0
M  V30 8709 H 794.066 -2.86634 -3.01629 0
M  V30 8710 H 792.942 -3.44681 -4.27184 0
M  V30 8711 H 793.203 -1.72127 -4.07216 0
M  V30 8712 N 792.262 0.832906 -1.33792 0
M  V30 8713 C 793.509 1.58853 -1.25586 0
M  V30 8714 C 793.837 1.93695 0.176807 0
M  V30 8715 O 793.092 1.59386 1.13554 0
M  V30 8716 C 793.391 2.9047 -2.08235 0
M  V30 8717 C 793.057 2.74965 -3.57358 0
M  V30 8718 C 791.719 2.70444 -3.98012 0
M  V30 8719 C 794.071 2.59347 -4.52093 0
M  V30 8720 C 791.399 2.48212 -5.31608 0
M  V30 8721 C 793.751 2.38649 -5.85858 0
M  V30 8722 C 792.415 2.32533 -6.25687 0
M  V30 8723 H 791.685 0.581285 -0.459553 0
M  V30 8724 H 794.332 0.964501 -1.65438 0
M  V30 8725 H 792.637 3.57111 -1.6118 0
M  V30 8726 H 794.334 3.48001 -1.99239 0
M  V30 8727 H 790.924 2.79319 -3.25083 0
M  V30 8728 H 795.108 2.6187 -4.2159 0
M  V30 8729 H 790.364 2.41929 -5.61498 0
M  V30 8730 H 794.538 2.25549 -6.58863 0
M  V30 8731 H 792.165 2.15067 -7.29143 0
M  V30 8732 N 793.74 1.17359 1.05189 0
M  V30 8733 C 794.688 0.886527 2.15043 0
M  V30 8734 C 795.682 -0.148834 1.68745 0
M  V30 8735 O 796.888 -0.00175123 1.8 0
M  V30 8736 H 793.263 0.269147 0.702185 0
M  V30 8737 H 795.234 1.82016 2.36459 0
M  V30 8738 C 793.983 0.416333 3.45198 0
M  V30 8739 H 793.306 1.20449 3.81225 0
M  V30 8740 H 794.746 0.254362 4.23236 0
M  V30 8741 C 793.205 -0.866016 3.25579 0
M  V30 8742 O 793.735 -1.9328 3.52144 0
M  V30 8743 N 791.941 -0.814179 2.78961 0
M  V30 8744 H 791.488 0.0541618 2.57543 0
M  V30 8745 H 791.446 -1.67264 2.66214 0
M  V30 8746 N 795.218 -1.23913 0.973828 0
M  V30 8747 C 796.448 -1.95911 0.655938 0
M  V30 8748 C 796.856 -1.72375 -0.779967 0
M  V30 8749 O 796.199 -1.00807 -1.5357 0
M  V30 8750 C 796.261 -3.49103 0.858324 0
M  V30 8751 C 795.925 -3.96347 2.27504 0
M  V30 8752 C 796.922 -4.05537 3.25324 0
M  V30 8753 C 794.607 -4.29509 2.60437 0
M  V30 8754 C 796.601 -4.47233 4.5416 0
M  V30 8755 C 794.288 -4.70887 3.89498 0
M  V30 8756 C 795.286 -4.79714 4.86172 0
M  V30 8757 O 794.974 -5.20166 6.1293 0
M  V30 8758 H 794.706 -0.630721 0.243244 0
M  V30 8759 H 797.26 -1.58534 1.30599 0
M  V30 8760 H 795.49 -3.86405 0.151097 0
M  V30 8761 H 797.179 -4.02311 0.538592 0
M  V30 8762 H 797.945 -3.80128 3.0121 0
M  V30 8763 H 793.824 -4.21853 1.85906 0
M  V30 8764 H 797.368 -4.54038 5.29618 0
M  V30 8765 H 793.265 -4.95744 4.1341 0
M  V30 8766 H 794.033 -5.38298 6.16586 0
M  V30 8767 N 796.696 -0.74468 -1.38897 0
M  V30 8768 C 797.921 -0.306119 -2.05128 0
M  V30 8769 C 798.346 1.0541 -1.55789 0
M  V30 8770 O 797.704 1.66993 -0.705909 0
M  V30 8771 C 797.752 -0.328195 -3.59103 0
M  V30 8772 O 796.856 0.680876 -4.06741 0
M  V30 8773 H 796.197 -0.137209 -0.649669 0
M  V30 8774 H 798.727 -1.01331 -1.77745 0
M  V30 8775 H 798.737 -0.175956 -4.0762 0
M  V30 8776 H 797.412 -1.32067 -3.94374 0
M  V30 8777 H 795.989 0.49398 -3.69614 0
M  V30 8778 N 798.174 1.49689 -0.493057 0
M  V30 8779 C 799.59 1.58907 -0.148526 0
M  V30 8780 C 799.79 1.4991 1.34645 0
M  V30 8781 O 798.846 1.36893 2.12171 0
M  V30 8782 C 800.159 2.91996 -0.718265 0
M  V30 8783 C 801.707 3.05443 -0.683658 0
M  V30 8784 C 802.182 4.41138 -1.23132 0
M  V30 8785 N 803.673 4.47608 -1.19167 0
M  V30 8786 C 804.408 5.51038 -1.5857 0
M  V30 8787 N 803.904 6.61612 -2.05528 0
M  V30 8788 N 805.697 5.41706 -1.50036 0
M  V30 8789 H 797.848 1.5378 -1.46511 0
M  V30 8790 H 800.111 0.727996 -0.607228 0
M  V30 8791 H 799.817 3.04123 -1.7664 0
M  V30 8792 H 799.691 3.76798 -0.17419 0
M  V30 8793 H 802.078 2.92949 0.355626 0
M  V30 8794 H 802.159 2.22344 -1.26479 0
M  V30 8795 H 801.803 4.54382 -2.26935 0
M  V30 8796 H 801.733 5.22864 -0.626201 0
M  V30 8797 H 804.224 3.68274 -0.847524 0
M  V30 8798 H 804.537 7.36622 -2.33685 0
M  V30 8799 H 802.882 6.62674 -2.09497 0
M  V30 8800 H 806.073 4.54212 -1.13176 0
M  V30 8801 H 806.246 6.22188 -1.81068 0
M  V30 8802 N 799.652 0.226554 1.55963 0
M  V30 8803 C 800.899 -0.403789 1.98433 0
M  V30 8804 C 801.227 -1.59416 1.1143 0
M  V30 8805 O 800.482 -1.95042 0.160389 0
M  V30 8806 C 800.781 -0.87642 3.46488 0
M  V30 8807 C 800.447 0.203973 4.50438 0
M  V30 8808 C 799.109 0.500754 4.78587 0
M  V30 8809 C 801.461 0.934396 5.12756 0
M  V30 8810 C 798.789 1.53239 5.66334 0
M  V30 8811 C 801.141 1.9554 6.0162 0
M  V30 8812 C 799.805 2.25905 6.28111 0
M  V30 8813 H 799.075 -0.147757 0.726119 0
M  V30 8814 H 801.722 0.330121 1.88633 0
M  V30 8815 H 800.027 -1.68918 3.53517 0
M  V30 8816 H 801.724 -1.37407 3.76723 0
M  V30 8817 H 798.314 -0.0374917 4.28584 0
M  V30 8818 H 802.498 0.718355 4.91074 0
M  V30 8819 H 797.754 1.77321 5.85122 0
M  V30 8820 H 801.928 2.52642 6.48957 0
M  V30 8821 H 799.555 3.05985 6.959 0
M  V30 8822 N 801.13 -1.57531 -0.0467866 0
M  V30 8823 C 802.355 -1.93087 -0.757123 0
M  V30 8824 C 802.78 -0.825116 -1.69037 0
M  V30 8825 O 802.138 0.220449 -1.79955 0
M  V30 8826 C 802.186 -3.27669 -1.5055 0
M  V30 8827 O 801.29 -3.18667 -2.61773 0
M  V30 8828 H 800.631 -0.631597 -0.204892 0
M  V30 8829 H 803.161 -2.04599 -0.00755232 0
M  V30 8830 H 803.171 -3.6214 -1.87932 0
M  V30 8831 H 801.846 -4.07717 -0.820931 0
M  V30 8832 H 800.423 -2.95798 -2.27064 0
M  V30 8833 N 802.608 0.318715 -1.54344 0
M  V30 8834 C 803.833 1.07987 -1.77069 0
M  V30 8835 C 804.258 1.80766 -0.520117 0
M  V30 8836 O 803.616 1.73424 0.528566 0
M  V30 8837 C 803.664 2.04987 -2.96669 0
M  V30 8838 O 802.768 3.12974 -2.68554 0
M  V30 8839 H 802.109 0.311109 -0.586606 0
M  V30 8840 H 804.639 0.361533 -2.0138 0
M  V30 8841 H 804.649 2.47771 -3.2415 0
M  V30 8842 H 803.324 1.51417 -3.87357 0
M  V30 8843 H 801.901 2.74831 -2.52037 0
M  V30 8844 N 804.086 1.46499 0.581025 0
M  V30 8845 C 805.033 1.5719 1.68997 0
M  V30 8846 C 806.003 0.416114 1.60803 0
M  V30 8847 O 807.188 0.633086 1.79991 0
M  V30 8848 C 804.328 1.56973 3.07333 0
M  V30 8849 C 803.441 2.83298 3.26139 0
M  V30 8850 C 802.576 2.74574 4.54734 0
M  V30 8851 C 801.615 3.9583 4.66889 0
M  V30 8852 N 800.752 3.85482 5.86811 0
M  V30 8853 H 805.592 2.51914 1.59196 0
M  V30 8854 H 803.129 1.24975 0.775857 0
M  V30 8855 H 805.087 1.54832 3.87405 0
M  V30 8856 H 803.717 0.657803 3.16027 0
M  V30 8857 H 802.769 2.95411 2.3966 0
M  V30 8858 H 804.081 3.7316 3.30988 0
M  V30 8859 H 803.235 2.70548 5.43036 0
M  V30 8860 H 801.974 1.82354 4.52325 0
M  V30 8861 H 800.979 4.00186 3.77003 0
M  V30 8862 H 802.204 4.89148 4.71075 0
M  V30 8863 H 800.15 2.96051 5.85397 0
M  V30 8864 H 800.067 4.69002 5.92936 0
M  V30 8865 H 801.335 3.85434 6.7754 0
M  V30 8866 N 805.565 -0.825799 1.34232 0
M  V30 8867 C 806.79 -1.61883 1.29648 0
M  V30 8868 C 807.215 -1.87669 -0.127295 0
M  V30 8869 O 806.573 -1.45016 -1.08813 0
M  V30 8870 C 806.621 -2.93846 2.09014 0
M  V30 8871 O 805.725 -3.85778 1.4577 0
M  V30 8872 H 805.066 -0.492454 0.445405 0
M  V30 8873 H 807.596 -1.02641 1.76992 0
M  V30 8874 H 807.606 -3.43435 2.20264 0
M  V30 8875 H 806.281 -2.74401 3.12533 0
M  V30 8876 H 804.858 -3.4429 1.43245 0
M  V30 8877 N 807.043 -1.17915 -1.04565 0
M  V30 8878 C 808.32 -0.881187 -1.74627 0
M  V30 8879 C 808.7 0.617123 -2.01878 0
M  V30 8880 O 808.048 1.57032 -1.65991 0
M  V30 8881 C 808.258 -1.72299 -3.03503 0
M  V30 8882 C 809.606 -1.94688 -3.77335 0
M  V30 8883 O 810.63 -1.6931 -3.13389 0
M  V30 8884 O 809.489 -2.37379 -4.92253 0
M  V30 8885 H 806.583 -0.326864 -0.759664 0
M  V30 8886 H 809.129 -1.28642 -1.10676 0
M  V30 8887 H 807.901 -2.73891 -2.79462 0
M  V30 8888 H 807.524 -1.31593 -3.75192 0
M  V30 8889 N 808.521 1.23394 -0.980386 0
M  V30 8890 C 809.767 1.92094 -0.650223 0
M  V30 8891 C 810.1 1.76309 0.814173 0
M  V30 8892 O 809.375 1.12406 1.5873 0
M  V30 8893 C 809.658 3.44713 -1.04139 0
M  V30 8894 C 809.511 3.69606 -2.56342 0
M  V30 8895 C 810.83 4.36191 -0.585296 0
M  V30 8896 H 807.949 0.697618 -0.237695 0
M  V30 8897 H 810.591 1.45517 -1.22167 0
M  V30 8898 H 808.741 3.84513 -0.55515 0
M  V30 8899 H 810.413 3.39288 -3.1254 0
M  V30 8900 H 808.656 3.14318 -2.98976 0
M  V30 8901 H 809.327 4.76441 -2.78762 0
M  V30 8902 H 811.803 4.03836 -1.00276 0
M  V30 8903 H 810.679 5.41679 -0.887428 0
M  V30 8904 H 810.94 4.39097 0.51438 0
M  V30 8905 N 809.999 0.752036 1.385 0
M  V30 8906 C 811.245 0.316909 2.00916 0
M  V30 8907 C 811.6 -1.08884 1.58625 0
M  V30 8908 O 810.893 -1.73494 0.813047 0
M  V30 8909 C 811.087 0.376155 3.55415 0
M  V30 8910 C 810.916 1.78612 4.12708 0
M  V30 8911 C 809.686 2.4023 4.44542 0
M  V30 8912 C 811.884 2.74253 4.35075 0
M  V30 8913 N 809.866 3.73204 4.87434 0
M  V30 8914 C 811.237 3.9199 4.80358 0
M  V30 8915 C 813.292 2.71795 4.17171 0
M  V30 8916 C 811.995 5.07627 5.09615 0
M  V30 8917 C 814.021 3.86589 4.47552 0
M  V30 8918 C 813.383 5.03064 4.93058 0
M  V30 8919 H 809.482 0.16259 0.764911 0
M  V30 8920 H 812.066 0.981657 1.68142 0
M  V30 8921 H 810.237 -0.258317 3.8754 0
M  V30 8922 H 811.969 -0.0791421 4.04623 0
M  V30 8923 H 808.724 1.92009 4.32931 0
M  V30 8924 H 809.148 4.41519 5.13215 0
M  V30 8925 H 813.79 1.82929 3.81178 0
M  V30 8926 H 811.508 5.97109 5.44506 0
M  V30 8927 H 815.094 3.86005 4.35306 0
M  V30 8928 H 813.974 5.90417 5.16118 0
M  V30 8929 N 811.477 -1.49425 0.500989 0
M  V30 8930 C 812.702 -2.07356 -0.0425154 0
M  V30 8931 C 813.127 -1.35887 -1.30063 0
M  V30 8932 O 812.485 -0.41561 -1.76472 0
M  V30 8933 C 812.533 -3.59518 -0.279188 0
M  V30 8934 O 811.637 -3.89542 -1.3539 0
M  V30 8935 H 810.978 -0.663482 0.0262207 0
M  V30 8936 H 813.508 -1.92231 0.700607 0
M  V30 8937 H 813.518 -4.04791 -0.5107 0
M  V30 8938 H 812.193 -4.10946 0.640009 0
M  V30 8939 H 810.77 -3.56079 -1.10734 0
M  V30 8940 N 812.955 -0.234822 -1.55841 0
M  V30 8941 C 814.202 0.39326 -1.98645 0
M  V30 8942 C 814.53 1.58823 -1.12274 0
M  V30 8943 O 813.785 1.94954 -0.170731 0
M  V30 8944 C 814.084 0.858032 -3.46947 0
M  V30 8945 C 813.75 -0.227858 -4.50324 0
M  V30 8946 C 812.412 -0.526128 -4.78315 0
M  V30 8947 C 814.764 -0.961576 -5.12253 0
M  V30 8948 C 812.092 -1.5624 -5.65514 0
M  V30 8949 C 814.444 -1.98728 -6.00575 0
M  V30 8950 C 813.108 -2.29233 -6.26904 0
M  V30 8951 H 812.378 0.143904 -0.726892 0
M  V30 8952 H 815.025 -0.34012 -1.88455 0
M  V30 8953 H 813.33 1.67041 -3.54408 0
M  V30 8954 H 815.027 1.35407 -3.77447 0
M  V30 8955 H 811.617 0.0147624 -4.28597 0
M  V30 8956 H 815.801 -0.744388 -4.90686 0
M  V30 8957 H 811.057 -1.80422 -5.84173 0
M  V30 8958 H 815.231 -2.5608 -6.47608 0
M  V30 8959 H 812.858 -3.09671 -6.94268 0
M  V30 8960 N 814.433 1.57553 0.0384317 0
M  V30 8961 C 815.681 1.88468 0.729672 0
M  V30 8962 C 816.002 0.831302 1.76393 0
M  V30 8963 O 815.272 -0.13622 1.95426 0
M  V30 8964 H 813.852 0.695529 0.272485 0
M  V30 8965 H 816.514 1.94899 0.0066032 0
M  V30 8966 H 815.61 2.8705 1.22511 0
M  V30 8967 N 815.911 -0.310526 1.54511 0
M  V30 8968 C 817.157 -1.04846 1.73595 0
M  V30 8969 C 817.49 -1.87244 0.515118 0
M  V30 8970 O 816.765 -1.88282 -0.48786 0
M  V30 8971 C 817.048 -1.96237 3.01932 0
M  V30 8972 C 816.901 -1.17082 4.34295 0
M  V30 8973 C 818.22 -2.9556 3.26086 0
M  V30 8974 H 815.339 -0.37976 0.631626 0
M  V30 8975 H 817.981 -0.32394 1.87218 0
M  V30 8976 H 816.131 -2.58015 2.90449 0
M  V30 8977 H 817.803 -0.576643 4.57682 0
M  V30 8978 H 816.046 -0.473336 4.3121 0
M  V30 8979 H 816.717 -1.84257 5.20339 0
M  V30 8980 H 819.193 -2.43908 3.37117 0
M  V30 8981 H 818.069 -3.5668 4.17218 0
M  V30 8982 H 818.33 -3.68715 2.4393 0
M  V30 8983 N 817.389 -1.46805 -0.573248 0
M  V30 8984 C 818.319 -1.60951 -1.69165 0
M  V30 8985 C 819.3 -0.45948 -1.63777 0
M  V30 8986 O 820.485 -0.68688 -1.81647 0
M  V30 8987 C 817.615 -1.60844 -3.07809 0
M  V30 8988 C 816.569 -2.74913 -3.28035 0
M  V30 8989 C 815.895 -2.59871 -4.67302 0
M  V30 8990 C 817.195 -4.16654 -3.14955 0
M  V30 8991 H 818.889 -2.54574 -1.57582 0
M  V30 8992 H 816.435 -1.22516 -0.756686 0
M  V30 8993 H 818.388 -1.69334 -3.85881 0
M  V30 8994 H 817.112 -0.637714 -3.20314 0
M  V30 8995 H 815.771 -2.65908 -2.52366 0
M  V30 8996 H 815.419 -1.60861 -4.76585 0
M  V30 8997 H 815.119 -3.36386 -4.81786 0
M  V30 8998 H 816.643 -2.70265 -5.4753 0
M  V30 8999 H 818.057 -4.26721 -3.82861 0
M  V30 9000 H 816.454 -4.93831 -3.40956 0
M  V30 9001 H 817.524 -4.36146 -2.11908 0
M  V30 9002 N 818.867 0.818669 -1.34668 0
M  V30 9003 C 819.8 1.93516 -1.20941 0
M  V30 9004 C 820.778 1.62292 -0.100061 0
M  V30 9005 O 821.962 1.86614 -0.265983 0
M  V30 9006 C 819.089 3.27612 -0.859524 0
M  V30 9007 C 818.135 3.77794 -1.97923 0
M  V30 9008 S 818.968 3.97043 -3.59329 0
M  V30 9009 C 820.124 5.3406 -3.2639 0
M  V30 9010 H 820.357 2.04864 -2.15449 0
M  V30 9011 H 817.89 0.974716 -1.19744 0
M  V30 9012 H 819.848 4.05087 -0.664444 0
M  V30 9013 H 818.509 3.14028 0.0672835 0
M  V30 9014 H 817.702 4.74883 -1.68827 0
M  V30 9015 H 817.304 3.0728 -2.13202 0
M  V30 9016 H 819.596 6.17626 -2.78469 0
M  V30 9017 H 820.539 5.68143 -4.22634 0
M  V30 9018 H 820.947 4.99773 -2.62464 0
M  V30 9019 N 820.346 1.18468 1.03938 0
M  V30 9020 C 821.592 0.992302 1.77553 0
M  V30 9021 C 821.947 -0.472959 1.86496 0
M  V30 9022 O 821.24 -1.34662 1.36296 0
M  V30 9023 C 821.434 1.58229 3.20466 0
M  V30 9024 C 821.263 3.1034 3.25452 0
M  V30 9025 C 820.033 3.79166 3.34008 0
M  V30 9026 C 822.231 4.07814 3.13357 0
M  V30 9027 N 820.213 5.18768 3.28258 0
M  V30 9028 C 821.584 5.33946 3.15121 0
M  V30 9029 C 823.639 3.99315 2.97409 0
M  V30 9030 C 822.342 6.52565 3.02574 0
M  V30 9031 C 824.368 5.17532 2.86208 0
M  V30 9032 C 823.73 6.42557 2.88617 0
M  V30 9033 H 819.829 0.417131 0.661457 0
M  V30 9034 H 822.413 1.50265 1.23808 0
M  V30 9035 H 820.584 1.0981 3.72554 0
M  V30 9036 H 822.316 1.32531 3.82384 0
M  V30 9037 H 819.071 3.29905 3.39794 0
M  V30 9038 H 819.495 5.91783 3.28818 0
M  V30 9039 H 824.137 3.03485 2.94375 0
M  V30 9040 H 821.855 7.48592 3.0436 0
M  V30 9041 H 825.441 5.12748 2.7492 0
M  V30 9042 H 824.321 7.32494 2.80039 0
M  V30 9043 N 821.824 -1.22873 0.986916 0
M  V30 9044 C 822.734 -2.28277 0.540978 0
M  V30 9045 C 823.75 -1.69164 -0.407363 0
M  V30 9046 O 824.926 -1.99504 -0.275674 0
M  V30 9047 C 821.991 -3.46404 -0.143181 0
M  V30 9048 C 821.052 -4.20854 0.847375 0
M  V30 9049 C 820.285 -5.33341 0.19577 0
M  V30 9050 O 820.508 -5.61356 -1.0117 0
M  V30 9051 O 819.442 -5.95169 0.897623 0
M  V30 9052 H 823.268 -2.68578 1.41773 0
M  V30 9053 H 820.853 -1.28927 0.754867 0
M  V30 9054 H 822.735 -4.18096 -0.526676 0
M  V30 9055 H 821.41 -3.08041 -0.994593 0
M  V30 9056 H 820.317 -3.51459 1.28169 0
M  V30 9057 H 821.65 -4.63082 1.6678 0
M  V30 9058 N 823.302 -0.75937 -1.38099 0
M  V30 9059 C 824.548 -0.318584 -2.00282 0
M  V30 9060 C 824.881 1.09854 -1.60143 0
M  V30 9061 O 824.156 1.75344 -0.841702 0
M  V30 9062 C 824.439 -0.448047 -3.57302 0
M  V30 9063 C 824.292 -1.9067 -4.07388 0
M  V30 9064 C 825.611 0.155119 -4.39827 0
M  V30 9065 H 822.73 -0.117233 -0.727616 0
M  V30 9066 H 825.372 -0.960097 -1.63958 0
M  V30 9067 H 823.522 0.0981003 -3.88376 0
M  V30 9068 H 825.194 -2.5116 -3.86932 0
M  V30 9069 H 823.437 -2.41979 -3.6004 0
M  V30 9070 H 824.108 -1.94841 -5.1647 0
M  V30 9071 H 826.584 -0.31073 -4.14938 0
M  V30 9072 H 825.46 0.0343264 -5.48889 0
M  V30 9073 H 825.721 1.24407 -4.24235 0
M  V30 9074 N 824.78 1.49157 -0.508906 0
M  V30 9075 C 826.027 2.02473 0.0327983 0
M  V30 9076 C 826.355 1.38792 1.36261 0
M  V30 9077 O 825.61 0.515576 1.88786 0
M  V30 9078 C 825.909 3.56687 0.225717 0
M  V30 9079 C 825.575 4.39046 -1.02708 0
M  V30 9080 C 824.237 4.61271 -1.37048 0
M  V30 9081 C 826.589 4.86902 -1.85946 0
M  V30 9082 C 823.917 5.28598 -2.54562 0
M  V30 9083 C 826.269 5.55521 -3.0262 0
M  V30 9084 C 824.933 5.7599 -3.3733 0
M  V30 9085 H 824.203 0.740903 0.0120017 0
M  V30 9086 H 826.85 1.79372 -0.670665 0
M  V30 9087 H 825.155 3.78511 1.01177 0
M  V30 9088 H 826.852 3.95541 0.659433 0
M  V30 9089 H 823.442 4.21994 -0.749615 0
M  V30 9090 H 827.626 4.69553 -1.6073 0
M  V30 9091 H 822.882 5.42646 -2.81682 0
M  V30 9092 H 827.056 5.91576 -3.67438 0
M  V30 9093 H 824.683 6.27934 -4.2849 0
M  V30 9094 N 826.258 0.243083 1.55714 0
M  V30 9095 C 827.486 -0.386971 2.03249 0
M  V30 9096 C 827.901 -1.51812 1.12243 0
M  V30 9097 O 827.258 -1.81992 0.136119 0
M  V30 9098 C 827.309 -0.898361 3.5016 0
M  V30 9099 O 827.03 0.187708 4.37698 0
M  V30 9100 C 828.531 -1.59949 4.13438 0
M  V30 9101 H 825.751 -0.0923981 0.664608 0
M  V30 9102 H 828.295 0.365832 2.01201 0
M  V30 9103 H 826.45 -1.60136 3.52754 0
M  V30 9104 H 826.864 -0.200001 5.24119 0
M  V30 9105 H 828.338 -1.90907 5.17937 0
M  V30 9106 H 828.815 -2.52014 3.59702 0
M  V30 9107 H 829.421 -0.941163 4.14756 0
M  V30 9108 N 827.736 -1.57571 -0.0300757 0
M  V30 9109 C 828.646 -2.09892 -1.04798 0
M  V30 9110 C 829.662 -1.03732 -1.39698 0
M  V30 9111 O 830.838 -1.35461 -1.49038 0
M  V30 9112 C 827.903 -2.56707 -2.33028 0
M  V30 9113 C 826.964 -3.77345 -2.04718 0
M  V30 9114 C 826.197 -4.21918 -3.26834 0
M  V30 9115 O 826.42 -3.66025 -4.37472 0
M  V30 9116 O 825.354 -5.14362 -3.12594 0
M  V30 9117 H 829.18 -2.97023 -0.633344 0
M  V30 9118 H 826.765 -1.47344 -0.246991 0
M  V30 9119 H 828.647 -2.87154 -3.08417 0
M  V30 9120 H 827.322 -1.72688 -2.73789 0
M  V30 9121 H 826.229 -3.51919 -1.26901 0
M  V30 9122 H 827.562 -4.62345 -1.68813 0
M  V30 9123 N 829.214 0.302327 -1.54673 0
M  V30 9124 C 830.462 1.03565 -1.73547 0
M  V30 9125 C 830.783 1.87843 -0.523448 0
M  V30 9126 O 830.053 1.90367 0.462295 0
M  V30 9127 H 828.633 0.385358 -0.639928 0
M  V30 9128 H 831.295 0.333632 -1.92023 0
M  V30 9129 H 830.391 1.68952 -2.62415 0
M  V30 9130 N 830.692 1.47107 0.565454 0
M  V30 9131 C 832.108 1.32443 0.890566 0
M  V30 9132 C 832.308 0.308735 1.99121 0
M  V30 9133 O 831.364 -0.28265 2.50913 0
M  V30 9134 C 832.677 2.71548 1.2916 0
M  V30 9135 C 834.225 2.7977 1.40349 0
M  V30 9136 C 834.7 4.19497 1.83811 0
M  V30 9137 N 836.191 4.21998 1.90975 0
M  V30 9138 C 836.926 5.2702 2.25916 0
M  V30 9139 N 836.422 6.42353 2.59527 0
M  V30 9140 N 838.215 5.14393 2.26619 0
M  V30 9141 H 830.366 2.11786 -0.161328 0
M  V30 9142 H 832.629 0.947952 -0.00950631 0
M  V30 9143 H 832.335 3.47265 0.556753 0
M  V30 9144 H 832.209 3.02782 2.24951 0
M  V30 9145 H 834.596 2.0433 2.12916 0
M  V30 9146 H 834.677 2.522 0.427655 0
M  V30 9147 H 834.321 4.95439 1.11816 0
M  V30 9148 H 834.251 4.44486 2.82382 0
M  V30 9149 H 836.742 3.38791 1.6742 0
M  V30 9150 H 837.055 7.18252 2.85191 0
M  V30 9151 H 835.4 6.45687 2.57126 0
M  V30 9152 H 838.591 4.2332 1.99794 0
M  V30 9153 H 838.764 5.96349 2.5352 0
M  V30 9154 N 832.17 -0.811516 1.35101 0
M  V30 9155 C 833.103 -1.92872 1.21966 0
M  V30 9156 C 834.081 -1.62236 0.108667 0
M  V30 9157 O 835.265 -1.8647 0.275875 0
M  V30 9158 C 832.392 -3.27152 0.876886 0
M  V30 9159 C 831.438 -3.7674 1.99924 0
M  V30 9160 S 832.271 -3.95132 3.61429 0
M  V30 9161 C 833.427 -5.32322 3.29218 0
M  V30 9162 H 833.66 -2.03718 2.16532 0
M  V30 9163 H 831.193 -0.968352 1.20259 0
M  V30 9164 H 833.151 -4.04729 0.685917 0
M  V30 9165 H 831.812 -3.14059 -0.0506289 0
M  V30 9166 H 831.005 -4.73981 1.71343 0
M  V30 9167 H 830.607 -3.06145 2.14829 0
M  V30 9168 H 832.899 -6.1614 2.8174 0
M  V30 9169 H 833.842 -5.65893 4.25641 0
M  V30 9170 H 834.25 -4.98374 2.65111 0
M  V30 9171 N 833.648 -1.19017 -1.03309 0
M  V30 9172 C 835.059 -0.993206 -1.5809 0
M  V30 9173 C 835.41 0.45505 -1.9085 0
M  V30 9174 O 834.535 1.33372 -1.70414 0
M  V30 9175 C 835.13 -1.79661 -2.87241 0
M  V30 9176 C 833.689 -1.64377 -3.38611 0
M  V30 9177 C 832.836 -1.78628 -2.12102 0
M  V30 9178 H 835.787 -1.3345 -0.858879 0
M  V30 9179 H 835.808 -1.29019 -3.57958 0
M  V30 9180 H 835.32 -2.85061 -2.63366 0
M  V30 9181 H 833.421 -0.615447 -3.67482 0
M  V30 9182 H 833.534 -2.44651 -4.11926 0
M  V30 9183 H 831.898 -1.21648 -2.23772 0
M  V30 9184 H 832.681 -2.8548 -1.90673 0
M  V30 9185 N 835.127 1.22348 -0.993418 0
M  V30 9186 C 836.374 1.9111 -0.669568 0
M  V30 9187 C 836.702 1.77357 0.79843 0
M  V30 9188 O 835.957 1.13675 1.593 0
M  V30 9189 C 836.256 3.42477 -1.02197 0
M  V30 9190 C 835.922 3.7642 -2.48232 0
M  V30 9191 C 834.584 3.85395 -2.88139 0
M  V30 9192 C 836.936 3.9253 -3.42884 0
M  V30 9193 C 834.264 4.07918 -4.21687 0
M  V30 9194 C 836.616 4.16557 -4.76091 0
M  V30 9195 C 835.28 4.23757 -5.15739 0
M  V30 9196 H 834.55 0.699321 -0.245012 0
M  V30 9197 H 837.197 1.45102 -1.2497 0
M  V30 9198 H 835.502 3.90143 -0.359921 0
M  V30 9199 H 837.199 3.93935 -0.74942 0
M  V30 9200 H 833.789 3.70017 -2.16299 0
M  V30 9201 H 837.973 3.84974 -3.13224 0
M  V30 9202 H 833.229 4.11719 -4.51993 0
M  V30 9203 H 837.403 4.27966 -5.4938 0
M  V30 9204 H 835.03 4.40962 -6.19239 0
M  V30 9205 N 836.605 0.766683 1.37694 0
M  V30 9206 C 837.515 0.150158 2.34119 0
M  V30 9207 C 838.531 -0.685513 1.59927 0
M  V30 9208 O 839.707 -0.606616 1.92047 0
M  V30 9209 C 836.772 -0.722562 3.39087 0
M  V30 9210 C 835.833 0.128983 4.29106 0
M  V30 9211 C 835.066 -0.702178 5.29061 0
M  V30 9212 O 835.289 -1.93954 5.36412 0
M  V30 9213 O 834.223 -0.114056 6.01792 0
M  V30 9214 H 838.049 0.946829 2.88563 0
M  V30 9215 H 835.634 0.527765 1.39768 0
M  V30 9216 H 837.516 -1.22095 4.03325 0
M  V30 9217 H 836.191 -1.49751 2.86978 0
M  V30 9218 H 835.098 0.673612 3.67985 0
M  V30 9219 H 836.431 0.866892 4.84506 0
M  V30 9220 N 838.083 -1.48885 0.516809 0
M  V30 9221 C 839.03 -2.29408 -0.253125 0
M  V30 9222 C 840 -1.36533 -0.945935 0
M  V30 9223 O 841.185 -1.65495 -0.949527 0
M  V30 9224 C 838.325 -3.19592 -1.30211 0
M  V30 9225 C 837.438 -4.27535 -0.61948 0
M  V30 9226 C 836.573 -5.04916 -1.65026 0
M  V30 9227 C 835.612 -6.04677 -0.950368 0
M  V30 9228 N 834.749 -6.75164 -1.92608 0
M  V30 9229 H 839.589 -2.94738 0.439744 0
M  V30 9230 H 837.126 -1.45311 0.2287 0
M  V30 9231 H 839.084 -3.70267 -1.92245 0
M  V30 9232 H 837.714 -2.56213 -1.96353 0
M  V30 9233 H 836.766 -3.80228 0.114505 0
M  V30 9234 H 838.078 -4.98752 -0.0693016 0
M  V30 9235 H 837.232 -5.59539 -2.34523 0
M  V30 9236 H 835.971 -4.33508 -2.23432 0
M  V30 9237 H 834.976 -5.4927 -0.241252 0
M  V30 9238 H 836.201 -6.78077 -0.372599 0
M  V30 9239 H 834.147 -6.06517 -2.49946 0
M  V30 9240 H 834.064 -7.4241 -1.42699 0
M  V30 9241 H 835.332 -7.34384 -2.61345 0
M  V30 9242 N 839.561 -0.251338 -1.55583 0
M  V30 9243 C 840.791 0.375642 -2.03156 0
M  V30 9244 C 841.199 1.51761 -1.12983 0
M  V30 9245 O 840.542 1.83184 -0.13757 0
M  V30 9246 C 840.604 0.941001 -3.46966 0
M  V30 9247 C 840.268 -0.0692886 -4.56947 0
M  V30 9248 C 841.265 -0.88041 -5.12391 0
M  V30 9249 C 838.95 -0.196661 -5.01915 0
M  V30 9250 C 840.944 -1.80532 -6.11299 0
M  V30 9251 C 838.631 -1.12507 -6.00654 0
M  V30 9252 C 839.629 -1.92792 -6.55225 0
M  V30 9253 O 839.317 -2.84067 -7.52038 0
M  V30 9254 H 839.049 0.0928836 -0.669588 0
M  V30 9255 H 841.603 -0.374115 -2.01964 0
M  V30 9256 H 839.833 1.7404 -3.45322 0
M  V30 9257 H 841.522 1.47853 -3.78014 0
M  V30 9258 H 842.288 -0.792615 -4.78479 0
M  V30 9259 H 838.167 0.418187 -4.59099 0
M  V30 9260 H 841.711 -2.43239 -6.5382 0
M  V30 9261 H 837.608 -1.21377 -6.33986 0
M  V30 9262 H 838.376 -2.78479 -7.6967 0
M  V30 9263 N 841.039 1.57585 0.0217189 0
M  V30 9264 C 842.267 1.93871 0.722619 0
M  V30 9265 C 842.682 0.851706 1.68498 0
M  V30 9266 O 842.039 -0.17127 1.81695 0
M  V30 9267 C 842.09 3.30114 1.47333 0
M  V30 9268 O 841.811 4.34639 0.549597 0
M  V30 9269 C 843.312 3.80727 2.27072 0
M  V30 9270 H 840.532 0.639671 0.202637 0
M  V30 9271 H 843.076 2.04487 -0.0229414 0
M  V30 9272 H 841.231 3.20872 2.17071 0
M  V30 9273 H 841.645 5.13326 1.07686 0
M  V30 9274 H 843.119 4.78547 2.75131 0
M  V30 9275 H 843.596 3.12301 3.08812 0
M  V30 9276 H 844.202 3.93075 1.62395 0
M  V30 9277 N 842.517 -0.29412 1.54831 0
M  V30 9278 C 843.465 -1.38296 1.87021 0
M  V30 9279 C 844.459 -1.5216 0.744557 0
M  V30 9280 O 845.665 -1.54196 0.92864 0
M  V30 9281 H 842.04 -0.462088 0.593278 0
M  V30 9282 H 844.011 -1.08386 2.7802 0
M  V30 9283 C 842.76 -2.74024 2.14023 0
M  V30 9284 H 842.083 -2.6414 3.00117 0
M  V30 9285 H 843.523 -3.49205 2.40482 0
M  V30 9286 C 841.982 -3.23492 0.940982 0
M  V30 9287 O 842.512 -4.01361 0.164937 0
M  V30 9288 N 840.718 -2.80902 0.744467 0
M  V30 9289 H 840.265 -2.17694 1.37721 0
M  V30 9290 H 840.223 -3.14349 -0.0563652 0
M  V30 9291 N 843.995 -1.47404 -0.557645 0
M  V30 9292 C 845.225 -1.57393 -1.33832 0
M  V30 9293 C 845.633 -0.222978 -1.87881 0
M  V30 9294 O 844.976 0.793854 -1.65661 0
M  V30 9295 C 845.038 -2.53882 -2.54528 0
M  V30 9296 C 844.702 -3.99585 -2.21767 0
M  V30 9297 C 845.699 -4.88082 -1.79087 0
M  V30 9298 C 843.384 -4.44917 -2.3314 0
M  V30 9299 C 845.378 -6.1993 -1.48209 0
M  V30 9300 C 843.065 -5.76793 -2.01874 0
M  V30 9301 C 844.063 -6.64121 -1.59476 0
M  V30 9302 O 843.751 -7.93546 -1.28607 0
M  V30 9303 H 843.483 -0.534172 -0.41429 0
M  V30 9304 H 846.037 -1.93733 -0.682404 0
M  V30 9305 H 844.267 -2.12609 -3.23009 0
M  V30 9306 H 845.956 -2.54003 -3.16603 0
M  V30 9307 H 846.722 -4.54307 -1.69794 0
M  V30 9308 H 842.601 -3.77152 -2.65099 0
M  V30 9309 H 846.145 -6.88049 -1.15043 0
M  V30 9310 H 842.042 -6.1011 -2.10799 0
M  V30 9311 H 842.81 -8.06046 -1.42241 0
M  V30 9312 N 845.473 0.80434 -1.35529 0
M  V30 9313 C 846.383 1.94784 -1.30753 0
M  V30 9314 C 847.399 1.72703 -0.212071 0
M  V30 9315 O 848.575 1.96494 -0.441841 0
M  V30 9316 C 845.64 3.29406 -1.08133 0
M  V30 9317 C 844.701 3.64367 -2.27013 0
M  V30 9318 C 843.934 4.92566 -2.05463 0
M  V30 9319 O 844.157 5.61166 -1.02222 0
M  V30 9320 O 843.091 5.25838 -2.92879 0
M  V30 9321 H 846.917 2.01761 -2.26994 0
M  V30 9322 H 844.502 0.942448 -1.15924 0
M  V30 9323 H 846.384 4.09995 -0.973756 0
M  V30 9324 H 845.059 3.23355 -0.149444 0
M  V30 9325 H 843.966 2.84146 -2.43335 0
M  V30 9326 H 845.299 3.75125 -3.18656 0
M  V30 9327 N 846.951 1.19563 1.02676 0
M  V30 9328 C 848.197 1.00105 1.76371 0
M  V30 9329 C 848.53 -0.466823 1.88506 0
M  V30 9330 O 847.805 -1.34665 1.40341 0
M  V30 9331 C 848.088 1.67321 3.18866 0
M  V30 9332 C 847.941 3.21486 3.1459 0
M  V30 9333 C 849.26 1.39794 4.17308 0
M  V30 9334 H 846.379 0.365075 0.640226 0
M  V30 9335 H 849.021 1.47433 1.19848 0
M  V30 9336 H 847.171 1.27081 3.67128 0
M  V30 9337 H 848.843 3.70953 2.7421 0
M  V30 9338 H 847.086 3.5292 2.52249 0
M  V30 9339 H 847.757 3.63665 4.15273 0
M  V30 9340 H 850.233 1.74685 3.77657 0
M  V30 9341 H 849.109 1.89371 5.15199 0
M  V30 9342 H 849.37 0.323505 4.40915 0
M  V30 9343 N 848.429 -1.21819 0.999893 0
M  V30 9344 C 849.675 -1.91035 0.680701 0
M  V30 9345 C 850.008 -1.77582 -0.786021 0
M  V30 9346 O 849.283 -1.14917 -1.56921 0
M  V30 9347 C 849.566 -3.43013 1.0961 0
M  V30 9348 C 849.419 -3.65481 2.6219 0
M  V30 9349 C 850.738 -4.35204 0.654616 0
M  V30 9350 H 847.857 -0.693748 0.248763 0
M  V30 9351 H 850.499 -1.43555 1.24466 0
M  V30 9352 H 848.649 -3.83581 0.616253 0
M  V30 9353 H 850.321 -3.34273 3.17899 0
M  V30 9354 H 848.564 -3.09522 3.03938 0
M  V30 9355 H 849.235 -4.71945 2.86307 0
M  V30 9356 H 851.711 -4.0219 1.06688 0
M  V30 9357 H 850.587 -5.40198 0.973492 0
M  V30 9358 H 850.848 -4.3986 -0.444458 0
M  V30 9359 N 849.908 -0.773975 -1.37286 0
M  V30 9360 C 851.136 -0.350758 -2.03905 0
M  V30 9361 C 851.551 1.02779 -1.58373 0
M  V30 9362 O 850.908 1.65646 -0.766009 0
M  V30 9363 C 850.959 -0.387335 -3.59419 0
M  V30 9364 O 850.68 -1.7115 -4.03286 0
M  V30 9365 C 852.181 0.047198 -4.43275 0
M  V30 9366 H 849.401 -0.146663 -0.654775 0
M  V30 9367 H 851.945 -1.04852 -1.75574 0
M  V30 9368 H 850.1 0.261865 -3.86514 0
M  V30 9369 H 850.514 -1.65166 -4.97816 0
M  V30 9370 H 851.988 -0.0295474 -5.51992 0
M  V30 9371 H 852.465 1.09786 -4.25257 0
M  V30 9372 H 853.071 -0.573899 -4.2141 0
M  V30 9373 N 851.386 1.48609 -0.524698 0
M  V30 9374 C 852.319 2.26374 0.288109 0
M  V30 9375 C 853.297 1.31997 0.949509 0
M  V30 9376 O 854.481 1.61329 0.974946 0
M  V30 9377 C 851.608 3.08065 1.4076 0
M  V30 9378 C 850.654 4.17777 0.858152 0
M  V30 9379 S 851.487 5.3482 -0.269827 0
M  V30 9380 C 852.643 6.2007 0.852266 0
M  V30 9381 H 852.876 2.94965 -0.371865 0
M  V30 9382 H 850.409 1.51248 -0.31039 0
M  V30 9383 H 852.367 3.5571 2.04892 0
M  V30 9384 H 851.028 2.38898 2.03928 0
M  V30 9385 H 850.221 4.74542 1.69783 0
M  V30 9386 H 849.823 3.72846 0.293627 0
M  V30 9387 H 852.115 6.54451 1.75213 0
M  V30 9388 H 853.058 7.07364 0.322717 0
M  V30 9389 H 853.466 5.53068 1.13029 0
M  V30 9390 N 852.864 0.259585 1.55447 0
M  V30 9391 C 854.11 -0.362143 1.9954 0
M  V30 9392 C 854.443 -1.5666 1.14767 0
M  V30 9393 O 853.718 -1.93319 0.214025 0
M  V30 9394 C 854.001 -0.759588 3.51998 0
M  V30 9395 C 853.854 0.451134 4.47532 0
M  V30 9396 C 855.173 -1.60186 4.09913 0
M  V30 9397 H 852.292 -0.130157 0.725416 0
M  V30 9398 H 854.934 0.363431 1.86492 0
M  V30 9399 H 853.084 -1.3778 3.63248 0
M  V30 9400 H 854.756 1.08965 4.48246 0
M  V30 9401 H 852.999 1.092 4.19831 0
M  V30 9402 H 853.67 0.129518 5.51848 0
M  V30 9403 H 856.146 -1.0799 4.01842 0
M  V30 9404 H 855.022 -1.84879 5.16828 0
M  V30 9405 H 855.283 -2.57787 3.59163 0
M  V30 9406 N 854.342 -1.57594 -0.0133615 0
M  V30 9407 C 855.57 -1.94251 -0.712328 0
M  V30 9408 C 855.985 -0.86063 -1.68043 0
M  V30 9409 O 855.342 0.161632 -1.81783 0
M  V30 9410 C 855.393 -3.30891 -1.45581 0
M  V30 9411 O 855.114 -4.34924 -0.526539 0
M  V30 9412 C 856.615 -3.81926 -2.2505 0
M  V30 9413 H 853.835 -0.640737 -0.199241 0
M  V30 9414 H 856.379 -2.04472 0.0337855 0
M  V30 9415 H 854.534 -3.22019 -2.15366 0
M  V30 9416 H 854.948 -5.1389 -1.04962 0
M  V30 9417 H 856.422 -4.79999 -2.72589 0
M  V30 9418 H 856.899 -3.13934 -3.07152 0
M  V30 9419 H 857.505 -3.93931 -1.60308 0
M  V30 9420 N 855.82 0.285905 -1.54985 0
M  V30 9421 C 857.236 0.632405 -1.46536 0
M  V30 9422 C 857.436 1.90074 -0.668888 0
M  V30 9423 O 856.492 2.51839 -0.182586 0
M  V30 9424 C 857.805 0.771361 -2.90638 0
M  V30 9425 C 859.353 0.866262 -3.00774 0
M  V30 9426 C 859.828 1.0371 -4.46103 0
M  V30 9427 N 861.319 1.10294 -4.49877 0
M  V30 9428 C 862.054 1.25369 -5.59527 0
M  V30 9429 N 861.55 1.37246 -6.7907 0
M  V30 9430 N 863.343 1.28377 -5.47244 0
M  V30 9431 H 855.494 -0.547226 -2.0523 0
M  V30 9432 H 857.757 -0.183298 -0.930111 0
M  V30 9433 H 857.463 -0.0899485 -3.51585 0
M  V30 9434 H 857.337 1.65569 -3.3892 0
M  V30 9435 H 859.724 1.71805 -2.39931 0
M  V30 9436 H 859.805 -0.0424049 -2.55765 0
M  V30 9437 H 859.449 0.190021 -5.07544 0
M  V30 9438 H 859.379 1.96022 -4.88757 0
M  V30 9439 H 861.87 1.02407 -3.6376 0
M  V30 9440 H 862.183 1.48546 -7.58389 0
M  V30 9441 H 860.528 1.34274 -6.81906 0
M  V30 9442 H 863.719 1.1872 -4.52795 0
M  V30 9443 H 863.892 1.39782 -6.32744 0
M  V30 9444 N 857.298 1.47698 0.54982 0
M  V30 9445 C 858.546 1.54397 1.30407 0
M  V30 9446 C 858.867 0.211026 1.93855 0
M  V30 9447 O 858.137 -0.765701 1.80316 0
M  V30 9448 H 856.717 0.568747 0.484289 0
M  V30 9449 H 859.379 1.84042 0.641444 0
M  V30 9450 H 858.475 2.31449 2.09375 0
M  V30 9451 N 858.776 -0.797141 1.35954 0
M  V30 9452 C 859.726 -1.89899 1.26184 0
M  V30 9453 C 860.71 -1.60152 0.155007 0
M  V30 9454 O 861.902 -1.72715 0.387108 0
M  V30 9455 C 859.031 -3.2699 1.04559 0
M  V30 9456 C 858.117 -3.62772 2.19675 0
M  V30 9457 N 858.508 -3.6992 3.44953 0
M  V30 9458 C 856.806 -3.92786 2.1127 0
M  V30 9459 C 857.507 -4.01718 4.20711 0
M  V30 9460 N 856.483 -4.16298 3.49567 0
M  V30 9461 H 860.285 -1.9364 2.2109 0
M  V30 9462 H 857.799 -0.992246 1.28562 0
M  V30 9463 H 859.796 -4.0578 0.956474 0
M  V30 9464 H 858.456 -3.24529 0.105467 0
M  V30 9465 H 859.467 -3.52759 3.79185 0
M  V30 9466 H 856.144 -3.98295 1.25168 0
M  V30 9467 H 857.534 -4.14237 5.29016 0
M  V30 9468 N 860.254 -1.20106 -1.0204 0
M  V30 9469 C 861.67 -0.955099 -1.27867 0
M  V30 9470 C 861.87 0.367595 -1.98119 0
M  V30 9471 O 860.926 1.09705 -2.27423 0
M  V30 9472 C 862.239 -2.13507 -2.11744 0
M  V30 9473 C 863.787 -2.17563 -2.25023 0
M  V30 9474 C 864.262 -3.35035 -3.12275 0
M  V30 9475 N 865.753 -3.35024 -3.19864 0
M  V30 9476 C 866.488 -4.22566 -3.8759 0
M  V30 9477 N 865.984 -5.20278 -4.57474 0
M  V30 9478 N 867.777 -4.10418 -3.84075 0
M  V30 9479 H 859.928 -2.05193 -0.54861 0
M  V30 9480 H 862.191 -0.897689 -0.304728 0
M  V30 9481 H 861.897 -3.09275 -1.67456 0
M  V30 9482 H 861.771 -2.11281 -3.12474 0
M  V30 9483 H 864.158 -1.22359 -2.68537 0
M  V30 9484 H 864.239 -2.23838 -1.23815 0
M  V30 9485 H 863.883 -4.30522 -2.69468 0
M  V30 9486 H 863.813 -3.25996 -4.13563 0
M  V30 9487 H 866.304 -2.64299 -2.701 0
M  V30 9488 H 866.617 -5.83408 -5.06809 0
M  V30 9489 H 864.962 -5.24219 -4.56311 0
M  V30 9490 H 868.153 -3.33353 -3.28623 0
M  V30 9491 H 868.326 -4.78854 -4.36581 0
M  V30 9492 N 861.732 1.21287 -1.00634 0
M  V30 9493 C 862.662 2.25973 -0.588089 0
M  V30 9494 C 863.643 1.65527 0.391764 0
M  V30 9495 O 864.828 1.92179 0.279452 0
M  V30 9496 C 861.958 3.47197 0.0847336 0
M  V30 9497 C 860.912 4.20168 -0.815039 0
M  V30 9498 C 860.238 5.34699 -0.00855393 0
M  V30 9499 C 861.538 4.77416 -2.11828 0
M  V30 9500 H 863.232 2.61212 -1.46317 0
M  V30 9501 H 860.778 1.25563 -0.704985 0
M  V30 9502 H 862.731 4.19602 0.388821 0
M  V30 9503 H 861.455 3.11092 0.994456 0
M  V30 9504 H 860.114 3.49614 -1.10297 0
M  V30 9505 H 859.762 4.94837 0.902499 0
M  V30 9506 H 859.462 5.84449 -0.607664 0
M  V30 9507 H 860.986 6.09914 0.289317 0
M  V30 9508 H 862.4 5.41694 -1.87725 0
M  V30 9509 H 860.797 5.37561 -2.66736 0
M  V30 9510 H 861.867 3.96724 -2.78816 0
M  V30 9511 N 863.21 0.781244 1.36873 0
M  V30 9512 C 864.44 0.361042 2.03421 0
M  V30 9513 C 864.848 -1.02471 1.59048 0
M  V30 9514 O 864.191 -1.66712 0.771552 0
M  V30 9515 C 864.253 0.336202 3.57924 0
M  V30 9516 C 863.917 1.66815 4.25467 0
M  V30 9517 C 864.914 2.62224 4.48926 0
M  V30 9518 C 862.599 1.9452 4.63106 0
M  V30 9519 C 864.593 3.83538 5.09095 0
M  V30 9520 C 862.28 3.16103 5.22994 0
M  V30 9521 C 863.278 4.10431 5.45926 0
M  V30 9522 O 862.966 5.29871 6.04559 0
M  V30 9523 H 862.698 0.147956 0.65961 0
M  V30 9524 H 865.252 1.05895 1.75998 0
M  V30 9525 H 863.482 -0.418147 3.84433 0
M  V30 9526 H 865.171 -0.0582199 4.05858 0
M  V30 9527 H 865.937 2.42104 4.20251 0
M  V30 9528 H 861.816 1.21921 4.44585 0
M  V30 9529 H 865.36 4.57178 5.2691 0
M  V30 9530 H 861.257 3.36104 5.51094 0
M  V30 9531 H 862.025 5.30825 6.23031 0
M  V30 9532 N 864.689 -1.48329 0.532571 0
M  V30 9533 C 865.621 -2.27652 -0.265931 0
M  V30 9534 C 866.634 -1.35522 -0.902083 0
M  V30 9535 O 867.823 -1.60552 -0.780088 0
M  V30 9536 C 864.923 -3.0899 -1.39207 0
M  V30 9537 C 864.096 -4.28915 -0.857349 0
M  V30 9538 C 863.155 -4.92044 -1.86493 0
M  V30 9539 O 862.181 -5.51181 -1.42084 0
M  V30 9540 N 863.383 -4.84518 -3.19723 0
M  V30 9541 H 866.148 -2.96821 0.414389 0
M  V30 9542 H 863.709 -1.57684 0.367066 0
M  V30 9543 H 865.701 -3.48091 -2.06433 0
M  V30 9544 H 864.271 -2.42224 -1.97601 0
M  V30 9545 H 863.491 -3.94199 -0.00901765 0
M  V30 9546 H 864.779 -5.0654 -0.479025 0
M  V30 9547 H 864.177 -4.37628 -3.58467 0
M  V30 9548 H 862.734 -5.27712 -3.82575 0
M  V30 9549 N 866.167 -0.267825 -1.55308 0
M  V30 9550 C 867.578 0.231344 -1.85261 0
M  V30 9551 C 867.929 1.56006 -1.18982 0
M  V30 9552 O 867.054 2.1111 -0.475554 0
M  V30 9553 C 867.649 0.426537 -3.36104 0
M  V30 9554 C 866.208 0.869945 -3.66209 0
M  V30 9555 C 865.355 -0.0409522 -2.7727 0
M  V30 9556 H 868.306 -0.489821 -1.50952 0
M  V30 9557 H 868.327 1.26616 -3.58816 0
M  V30 9558 H 867.839 -0.540678 -3.84315 0
M  V30 9559 H 865.94 1.84889 -3.23492 0
M  V30 9560 H 866.053 0.712316 -4.73775 0
M  V30 9561 H 864.417 0.474097 -2.50249 0
M  V30 9562 H 865.2 -1.00392 -3.28293 0
M  V30 9563 N 867.645 1.57599 0.00500368 0
M  V30 9564 C 868.592 2.08106 0.998025 0
M  V30 9565 C 869.562 0.975374 1.34446 0
M  V30 9566 O 870.747 1.24749 1.44369 0
M  V30 9567 C 867.887 2.58496 2.28635 0
M  V30 9568 C 867 3.82947 1.99939 0
M  V30 9569 C 866.135 4.21857 3.22816 0
M  V30 9570 C 865.174 5.39159 2.89783 0
M  V30 9571 N 864.311 5.73386 4.05183 0
M  V30 9572 H 869.151 2.92684 0.560385 0
M  V30 9573 H 866.688 1.44692 0.265053 0
M  V30 9574 H 868.646 2.85787 3.03943 0
M  V30 9575 H 867.276 1.768 2.70077 0
M  V30 9576 H 866.328 3.62594 1.1502 0
M  V30 9577 H 867.64 4.68358 1.71588 0
M  V30 9578 H 866.794 4.50404 4.06474 0
M  V30 9579 H 865.533 3.35145 3.54301 0
M  V30 9580 H 864.538 5.1034 2.04532 0
M  V30 9581 H 865.763 6.27543 2.59551 0
M  V30 9582 H 863.709 4.89632 4.36574 0
M  V30 9583 H 863.626 6.53359 3.80339 0
M  V30 9584 H 864.894 6.06522 4.89644 0
M  V30 9585 N 869.123 -0.277682 1.55134 0
M  V30 9586 C 870.053 -1.34742 1.90701 0
M  V30 9587 C 871.034 -1.51757 0.768354 0
M  V30 9588 O 872.219 -1.64879 1.02609 0
M  V30 9589 C 869.349 -2.70775 2.17481 0
M  V30 9590 C 868.303 -2.68497 3.33307 0
M  V30 9591 C 867.629 -4.08037 3.45557 0
M  V30 9592 C 868.929 -2.28178 4.69821 0
M  V30 9593 H 870.623 -1.05224 2.803 0
M  V30 9594 H 868.169 -0.504738 1.34864 0
M  V30 9595 H 870.122 -3.45719 2.40949 0
M  V30 9596 H 868.846 -3.01867 1.24676 0
M  V30 9597 H 867.505 -1.9601 3.09799 0
M  V30 9598 H 867.153 -4.36344 2.50226 0
M  V30 9599 H 866.853 -4.07409 4.23429 0
M  V30 9600 H 868.377 -4.84726 3.71312 0
M  V30 9601 H 869.791 -2.92843 4.92865 0
M  V30 9602 H 868.188 -2.3872 5.50575 0
M  V30 9603 H 869.258 -1.23308 4.6896 0
M  V30 9604 N 870.601 -1.47988 -0.541979 0
M  V30 9605 C 871.564 -1.61148 -1.62984 0
M  V30 9606 C 872.564 -0.48553 -1.53295 0
M  V30 9607 O 873.754 -0.751012 -1.5718 0
M  V30 9608 C 870.886 -1.57038 -3.02576 0
M  V30 9609 H 872.079 -2.58138 -1.52659 0
M  V30 9610 H 869.632 -1.36405 -0.763106 0
M  V30 9611 H 870.367 -0.614807 -3.18419 0
M  V30 9612 H 870.152 -2.38769 -3.11018 0
M  V30 9613 H 871.642 -1.69416 -3.81691 0
M  V30 9614 N 872.079 0.78992 -1.36375 0
M  V30 9615 C 873.304 1.58389 -1.33895 0
M  V30 9616 C 873.729 1.8794 0.0774934 0
M  V30 9617 O 873.087 1.4785 1.0493 0
M  V30 9618 C 873.135 2.88201 -2.16732 0
M  V30 9619 O 872.239 3.81778 -1.55946 0
M  V30 9620 H 871.58 0.480471 -0.458305 0
M  V30 9621 H 874.11 0.979119 -1.79651 0
M  V30 9622 H 874.12 3.37475 -2.29292 0
M  V30 9623 H 872.795 2.66019 -3.19698 0
M  V30 9624 H 871.372 3.40371 -1.52323 0
M  V30 9625 N 873.557 1.20646 1.01402 0
M  V30 9626 C 874.505 0.954493 2.12114 0
M  V30 9627 C 875.499 -0.0950737 1.69133 0
M  V30 9628 O 876.705 0.0555153 1.79914 0
M  V30 9629 H 873.08 0.29135 0.693267 0
M  V30 9630 H 875.051 1.89447 2.30548 0
M  V30 9631 C 873.8 0.525944 3.43699 0
M  V30 9632 H 873.123 1.32516 3.772 0
M  V30 9633 H 874.563 0.388883 4.22213 0
M  V30 9634 C 873.022 -0.761997 3.28169 0
M  V30 9635 O 873.552 -1.81979 3.58115 0
M  V30 9636 N 871.758 -0.725017 2.8141 0
M  V30 9637 H 871.305 0.13607 2.5724 0
M  V30 9638 H 871.263 -1.5871 2.71401 0
M  V30 9639 N 875.035 -1.20752 1.01276 0
M  V30 9640 C 876.265 -1.93725 0.717934 0
M  V30 9641 C 876.673 -1.74769 -0.724732 0
M  V30 9642 O 876.016 -1.05642 -1.50285 0
M  V30 9643 C 876.078 -3.46196 0.968954 0
M  V30 9644 C 875.742 -3.88909 2.39998 0
M  V30 9645 C 876.739 -3.94982 3.38061 0
M  V30 9646 C 874.424 -4.21006 2.7397 0
M  V30 9647 C 876.418 -4.32558 4.68159 0
M  V30 9648 C 874.105 -4.58257 4.04282 0
M  V30 9649 C 875.103 -4.64004 5.01187 0
M  V30 9650 O 874.791 -5.00403 6.29168 0
M  V30 9651 H 874.523 -0.622663 0.263186 0
M  V30 9652 H 877.077 -1.54299 1.35577 0
M  V30 9653 H 875.307 -3.85728 0.273952 0
M  V30 9654 H 876.996 -4.00394 0.666312 0
M  V30 9655 H 877.762 -3.70353 3.13151 0
M  V30 9656 H 873.641 -4.15725 1.99233 0
M  V30 9657 H 877.185 -4.36959 5.43795 0
M  V30 9658 H 873.082 -4.82341 4.28973 0
M  V30 9659 H 873.85 -5.18409 6.33399 0
M  V30 9660 N 876.513 -0.788492 -1.36457 0
M  V30 9661 C 877.759 -0.360995 -1.99561 0
M  V30 9662 C 878.092 1.06433 -1.62437 0
M  V30 9663 O 877.367 1.7352 -0.878705 0
M  V30 9664 C 877.65 -0.523735 -3.56271 0
M  V30 9665 C 877.503 -1.99268 -4.03252 0
M  V30 9666 C 878.822 0.0617908 -4.40057 0
M  V30 9667 H 875.941 -0.13264 -0.724966 0
M  V30 9668 H 878.583 -0.994659 -1.61884 0
M  V30 9669 H 876.733 0.0156979 -3.88497 0
M  V30 9670 H 878.405 -2.59311 -3.81518 0
M  V30 9671 H 876.648 -2.49561 -3.54826 0
M  V30 9672 H 877.319 -2.05752 -5.12221 0
M  V30 9673 H 879.795 -0.398674 -4.14186 0
M  V30 9674 H 878.671 -0.0821089 -5.48839 0
M  V30 9675 H 878.932 1.15381 -4.26778 0
M  V30 9676 N 877.991 1.48044 -0.54043 0
M  V30 9677 C 879.221 2.06595 -0.0144943 0
M  V30 9678 C 879.629 1.39593 1.27713 0
M  V30 9679 O 878.972 0.480794 1.77297 0
M  V30 9680 C 879.034 3.5849 0.269316 0
M  V30 9681 C 878.698 4.47429 -0.930372 0
M  V30 9682 C 879.695 4.8657 -1.83155 0
M  V30 9683 C 877.38 4.89185 -1.14032 0
M  V30 9684 C 879.374 5.66246 -2.92649 0
M  V30 9685 C 877.061 5.6863 -2.23838 0
M  V30 9686 C 878.059 6.07069 -3.12979 0
M  V30 9687 O 877.747 6.84917 -4.20884 0
M  V30 9688 H 877.479 0.675086 -0.0351467 0
M  V30 9689 H 880.033 1.91275 -0.74853 0
M  V30 9690 H 878.263 3.71961 1.05745 0
M  V30 9691 H 879.952 3.99124 0.738595 0
M  V30 9692 H 880.718 4.54924 -1.68134 0
M  V30 9693 H 876.597 4.58742 -0.455717 0
M  V30 9694 H 880.141 5.96169 -3.62254 0
M  V30 9695 H 876.038 5.99688 -2.38839 0
M  V30 9696 H 876.806 7.03287 -4.18723 0
M  V30 9697 N 879.47 0.276058 1.55163 0
M  V30 9698 C 880.38 -0.621066 2.2623 0
M  V30 9699 C 881.396 -1.16931 1.28853 0
M  V30 9700 O 882.572 -1.1994 1.61791 0
M  V30 9701 C 879.637 -1.78824 2.97023 0
M  V30 9702 C 878.698 -1.27657 4.09881 0
M  V30 9703 C 877.931 -2.38812 4.77289 0
M  V30 9704 O 878.154 -3.58188 4.43912 0
M  V30 9705 O 877.088 -2.06915 5.65217 0
M  V30 9706 H 880.914 -0.0453346 3.03666 0
M  V30 9707 H 878.499 0.0434275 1.49337 0
M  V30 9708 H 880.381 -2.46877 3.41511 0
M  V30 9709 H 879.056 -2.35104 2.22503 0
M  V30 9710 H 877.963 -0.56248 3.69847 0
M  V30 9711 H 879.296 -0.759509 4.86305 0
M  V30 9712 N 880.948 -1.576 0.00335426 0
M  V30 9713 C 882.194 -1.90996 -0.681799 0
M  V30 9714 C 882.527 -0.877643 -1.73237 0
M  V30 9715 O 881.802 0.103183 -1.94226 0
M  V30 9716 C 882.085 -3.34961 -1.32187 0
M  V30 9717 C 881.938 -4.48911 -0.28261 0
M  V30 9718 C 883.257 -3.78408 -2.24711 0
M  V30 9719 H 880.376 -0.694596 -0.246386 0
M  V30 9720 H 883.018 -1.89919 0.055336 0
M  V30 9721 H 881.168 -3.36008 -1.95014 0
M  V30 9722 H 882.84 -4.59999 0.346241 0
M  V30 9723 H 881.083 -4.32 0.394768 0
M  V30 9724 H 881.754 -5.46609 -0.769576 0
M  V30 9725 H 884.23 -3.78934 -1.71897 0
M  V30 9726 H 883.106 -4.79885 -2.66461 0
M  V30 9727 H 883.367 -3.12464 -3.1276 0
M  V30 9728 N 882.426 0.269451 -1.5528 0
M  V30 9729 C 883.359 1.3588 -1.83336 0
M  V30 9730 C 884.337 1.4739 -0.68666 0
M  V30 9731 O 885.521 1.63959 -0.930037 0
M  V30 9732 C 882.648 2.73483 -1.99812 0
M  V30 9733 C 881.694 2.79239 -3.22378 0
M  V30 9734 S 882.527 2.38125 -4.79642 0
M  V30 9735 C 883.683 3.77697 -4.99095 0
M  V30 9736 H 883.916 1.11878 -2.75446 0
M  V30 9737 H 881.449 0.469268 -1.47096 0
M  V30 9738 H 883.407 3.52725 -2.09989 0
M  V30 9739 H 882.068 2.94735 -1.08583 0
M  V30 9740 H 881.261 3.80243 -3.30804 0
M  V30 9741 H 880.863 2.08022 -3.1081 0
M  V30 9742 H 883.155 4.72999 -4.85055 0
M  V30 9743 H 884.098 3.7422 -6.01136 0
M  V30 9744 H 884.506 3.69164 -4.27058 0
M  V30 9745 N 883.904 1.48273 0.534124 0
M  V30 9746 C 884.834 1.6538 1.64839 0
M  V30 9747 C 885.815 0.502741 1.62501 0
M  V30 9748 O 887 0.734799 1.79762 0
M  V30 9749 C 884.13 1.68949 3.03436 0
M  V30 9750 C 883.084 2.83513 3.20631 0
M  V30 9751 C 882.41 2.72169 4.60248 0
M  V30 9752 C 883.71 4.24858 3.03797 0
M  V30 9753 H 885.404 2.58663 1.50777 0
M  V30 9754 H 882.95 1.24479 0.723937 0
M  V30 9755 H 884.903 1.79505 3.81256 0
M  V30 9756 H 883.627 0.722415 3.1851 0
M  V30 9757 H 882.286 2.72505 2.45227 0
M  V30 9758 H 881.934 1.7344 4.72152 0
M  V30 9759 H 881.634 3.49042 4.72698 0
M  V30 9760 H 883.158 2.84687 5.40172 0
M  V30 9761 H 884.572 4.36721 3.71413 0
M  V30 9762 H 882.969 5.02697 3.27743 0
M  V30 9763 H 884.039 4.41611 2.0027 0
M  V30 9764 N 885.382 -0.782676 1.36792 0
M  V30 9765 C 886.798 -1.08169 1.17352 0
M  V30 9766 C 886.998 -2.015 0.0022037 0
M  V30 9767 O 886.054 -2.43692 -0.661093 0
M  V30 9768 C 887.367 -1.68969 2.48737 0
M  V30 9769 C 888.915 -1.81278 2.55161 0
M  V30 9770 C 889.39 -2.45492 3.86649 0
M  V30 9771 N 890.881 -2.52954 3.88032 0
M  V30 9772 C 891.616 -3.03465 4.86515 0
M  V30 9773 N 891.112 -3.54232 5.95392 0
M  V30 9774 N 892.905 -3.02239 4.73928 0
M  V30 9775 H 885.056 -0.162757 2.11775 0
M  V30 9776 H 887.319 -0.134823 0.938364 0
M  V30 9777 H 887.025 -1.07859 3.34753 0
M  V30 9778 H 886.899 -2.68397 2.65034 0
M  V30 9779 H 889.286 -2.41524 1.69559 0
M  V30 9780 H 889.367 -0.806367 2.42758 0
M  V30 9781 H 889.011 -1.85889 4.7266 0
M  V30 9782 H 888.941 -3.46718 3.96351 0
M  V30 9783 H 891.432 -2.17014 3.09376 0
M  V30 9784 H 891.745 -3.91145 6.66503 0
M  V30 9785 H 890.09 -3.52366 5.99052 0
M  V30 9786 H 893.281 -2.61871 3.87996 0
M  V30 9787 H 893.454 -3.41295 5.50837 0
M  V30 9788 N 886.86 -1.21182 -1.00761 0
M  V30 9789 C 888.1 -1.03886 -1.76031 0
M  V30 9790 C 888.464 0.420593 -1.87337 0
M  V30 9791 O 889.665 0.713994 -2.59144 0
M  V30 9792 C 887.936 -1.71394 -3.13622 0
M  V30 9793 S 889.495 -1.69319 -4.04816 0
M  V30 9794 H 886.313 -0.372327 -0.605717 0
M  V30 9795 H 888.915 -1.53885 -1.20581 0
M  V30 9796 H 887.619 -2.76773 -3.03026 0
M  V30 9797 H 887.15 -1.21564 -3.74147 0
M  V30 9798 H 889.165 -0.732434 -4.90765 0
M  V30 9799 N 888.338 1.20213 -1.01915 0
M  V30 9800 C 889.584 1.90203 -0.720724 0
M  V30 9801 C 889.939 1.77526 0.74178 0
M  V30 9802 O 889.232 1.15037 1.53222 0
M  V30 9803 C 889.426 3.40232 -1.09438 0
M  V30 9804 C 889.255 3.67509 -2.59167 0
M  V30 9805 C 888.025 3.86082 -3.25989 0
M  V30 9806 C 890.223 3.69863 -3.5736 0
M  V30 9807 N 888.205 4.009 -4.64922 0
M  V30 9808 C 889.576 3.90136 -4.81865 0
M  V30 9809 C 891.631 3.52839 -3.51296 0
M  V30 9810 C 890.334 3.9515 -6.0104 0
M  V30 9811 C 892.36 3.59125 -4.69875 0
M  V30 9812 C 891.722 3.79874 -5.93191 0
M  V30 9813 H 887.821 0.715556 -0.315442 0
M  V30 9814 H 890.405 1.44538 -1.30449 0
M  V30 9815 H 888.576 3.84643 -0.538933 0
M  V30 9816 H 890.308 3.97704 -0.74923 0
M  V30 9817 H 887.063 3.84569 -2.76413 0
M  V30 9818 H 887.487 4.12181 -5.37062 0
M  V30 9819 H 892.129 3.35762 -2.56951 0
M  V30 9820 H 889.847 4.11022 -6.95763 0
M  V30 9821 H 893.433 3.47257 -4.66802 0
M  V30 9822 H 892.313 3.846 -6.83412 0
M  V30 9823 N 889.816 0.795718 1.36037 0
M  V30 9824 C 890.748 0.156336 2.28666 0
M  V30 9825 C 891.761 -0.638075 1.49775 0
M  V30 9826 O 892.95 -0.472222 1.7214 0
M  V30 9827 C 890.05 -0.801417 3.29288 0
M  V30 9828 C 889.223 -0.0557118 4.37365 0
M  V30 9829 C 888.282 -0.930338 5.1791 0
M  V30 9830 O 887.308 -0.385266 5.67895 0
M  V30 9831 N 888.51 -2.25382 5.34961 0
M  V30 9832 H 891.275 0.952033 2.84177 0
M  V30 9833 H 888.836 0.650189 1.48271 0
M  V30 9834 H 890.828 -1.39051 3.80062 0
M  V30 9835 H 889.398 -1.49796 2.74372 0
M  V30 9836 H 888.618 0.714508 3.87671 0
M  V30 9837 H 889.906 0.458633 5.06729 0
M  V30 9838 H 889.304 -2.72073 4.95977 0
M  V30 9839 H 887.861 -2.79241 5.88955 0
M  V30 9840 N 891.294 -1.47756 0.548274 0
M  V30 9841 C 892.204 -2.33678 -0.207773 0
M  V30 9842 C 893.22 -1.47636 -0.920843 0
M  V30 9843 O 894.396 -1.80583 -0.89173 0
M  V30 9844 C 891.461 -3.24147 -1.23003 0
M  V30 9845 C 890.522 -4.26073 -0.52535 0
M  V30 9846 C 889.755 -5.12219 -1.4989 0
M  V30 9847 O 889.978 -5.0066 -2.73305 0
M  V30 9848 O 888.912 -5.93051 -1.02828 0
M  V30 9849 H 892.738 -2.99609 0.496794 0
M  V30 9850 H 890.323 -1.4617 0.308982 0
M  V30 9851 H 892.205 -3.80055 -1.82034 0
M  V30 9852 H 890.88 -2.60855 -1.91668 0
M  V30 9853 H 889.787 -3.7395 0.105927 0
M  V30 9854 H 891.12 -4.92054 0.119686 0
M  V30 9855 N 892.772 -0.284283 -1.55015 0
M  V30 9856 C 893.719 0.599194 -2.22886 0
M  V30 9857 C 894.689 1.14264 -1.20553 0
M  V30 9858 O 895.874 1.19025 -1.49123 0
M  V30 9859 C 893.014 1.77317 -2.96062 0
M  V30 9860 C 892.127 1.26271 -4.13134 0
M  V30 9861 C 891.262 2.39922 -4.73931 0
M  V30 9862 C 890.301 1.85925 -5.8318 0
M  V30 9863 N 889.438 2.93084 -6.38002 0
M  V30 9864 H 894.278 0.0137816 -2.97997 0
M  V30 9865 H 891.815 -0.00496503 -1.47099 0
M  V30 9866 H 893.773 2.46339 -3.36709 0
M  V30 9867 H 892.403 2.33047 -2.23358 0
M  V30 9868 H 891.455 0.465296 -3.77544 0
M  V30 9869 H 892.767 0.827284 -4.91892 0
M  V30 9870 H 891.921 3.1692 -5.17346 0
M  V30 9871 H 890.66 2.86784 -3.9447 0
M  V30 9872 H 889.665 1.07409 -5.39206 0
M  V30 9873 H 890.89 1.39987 -6.64515 0
M  V30 9874 H 888.836 3.3931 -5.61431 0
M  V30 9875 H 888.753 2.53986 -7.12058 0
M  V30 9876 H 890.021 3.7003 -6.86075 0
M  V30 9877 N 894.251 1.57596 -0.0117121 0
M  V30 9878 C 895.662 1.79033 0.529521 0
M  V30 9879 C 896.013 0.920299 1.73277 0
M  V30 9880 O 895.138 0.125934 2.16033 0
M  V30 9881 C 895.733 3.24695 0.967405 0
M  V30 9882 C 894.292 3.47188 1.45387 0
M  V30 9883 C 893.439 2.74245 0.410466 0
M  V30 9884 H 896.39 1.56908 -0.237836 0
M  V30 9885 H 896.411 3.33451 1.83278 0
M  V30 9886 H 895.923 3.87992 0.0914605 0
M  V30 9887 H 894.024 2.89121 2.35032 0
M  V30 9888 H 894.137 4.55886 1.47325 0
M  V30 9889 H 892.501 2.39209 0.874721 0
M  V30 9890 H 893.284 3.40248 -0.456713 0
M  V30 9891 N 895.729 -0.261212 1.5542 0
M  V30 9892 C 896.639 -1.34493 1.92221 0
M  V30 9893 C 897.655 -1.53421 0.82086 0
M  V30 9894 O 898.831 -1.6732 1.12099 0
M  V30 9895 C 895.896 -2.68209 2.19692 0
M  V30 9896 C 894.957 -2.57927 3.43179 0
M  V30 9897 C 894.19 -3.85266 3.69331 0
M  V30 9898 O 894.413 -4.86493 2.97793 0
M  V30 9899 O 893.347 -3.8476 4.62865 0
M  V30 9900 H 897.173 -1.06278 2.84497 0
M  V30 9901 H 894.758 -0.460752 1.42118 0
M  V30 9902 H 896.64 -3.47252 2.38734 0
M  V30 9903 H 895.315 -2.96186 1.30597 0
M  V30 9904 H 894.222 -1.77219 3.2946 0
M  V30 9905 H 895.555 -2.34898 4.32532 0
M  V30 9906 N 897.207 -1.48554 -0.526253 0
M  V30 9907 C 898.455 -1.56452 -1.27935 0
M  V30 9908 C 898.776 -0.24184 -1.93495 0
M  V30 9909 O 898.046 0.736917 -1.81511 0
M  V30 9910 H 896.626 -0.576379 -0.47518 0
M  V30 9911 H 899.288 -1.85039 -0.612083 0
M  V30 9912 H 898.384 -2.34751 -2.05666 0
M  V30 9913 N 898.685 0.775411 -1.37205 0
M  V30 9914 C 900.101 1.07546 -1.17924 0
M  V30 9915 C 900.301 2.01496 -0.0128897 0
M  V30 9916 O 899.357 2.44039 0.64816 0
M  V30 9917 C 900.67 1.67647 -2.49629 0
M  V30 9918 C 902.218 1.79923 -2.56119 0
M  V30 9919 C 902.693 2.43438 -3.87946 0
M  V30 9920 N 904.184 2.50893 -3.89368 0
M  V30 9921 C 904.919 3.00881 -4.88117 0
M  V30 9922 N 904.415 3.5107 -5.97262 0
M  V30 9923 N 906.208 2.99722 -4.75524 0
M  V30 9924 H 898.359 0.151524 -2.11859 0
M  V30 9925 H 900.622 0.129845 -0.939066 0
M  V30 9926 H 900.328 1.06082 -3.3532 0
M  V30 9927 H 900.202 2.66988 -2.66453 0
M  V30 9928 H 902.589 2.40621 -1.70838 0
M  V30 9929 H 902.67 0.793482 -2.43182 0
M  V30 9930 H 902.314 1.8338 -4.73639 0
M  V30 9931 H 902.244 3.44611 -3.98184 0
M  V30 9932 H 904.735 2.1537 -3.10522 0
M  V30 9933 H 905.048 3.87604 -6.68568 0
M  V30 9934 H 903.393 3.49184 -6.00912 0
M  V30 9935 H 906.584 2.5981 -3.8938 0
M  V30 9936 H 906.757 3.38369 -5.52639 0
M  V30 9937 N 900.163 1.21714 1.00117 0
M  V30 9938 C 901.574 1.03477 1.55401 0
M  V30 9939 C 901.925 -0.40429 1.91989 0
M  V30 9940 O 901.05 -1.28807 1.7389 0
M  V30 9941 C 901.645 1.87213 2.82377 0
M  V30 9942 C 900.204 1.73297 3.34133 0
M  V30 9943 C 899.351 1.84189 2.07291 0
M  V30 9944 H 902.302 1.3568 0.823195 0
M  V30 9945 H 902.323 1.38465 3.54412 0
M  V30 9946 H 901.835 2.91944 2.55715 0
M  V30 9947 H 899.936 0.712662 3.65721 0
M  V30 9948 H 900.049 2.55486 4.05294 0
M  V30 9949 H 898.413 1.27538 2.20468 0
M  V30 9950 H 899.196 2.90435 1.83037 0
M  V30 9951 N 901.641 -1.19671 1.02551 0
M  V30 9952 C 902.866 -1.93774 0.739363 0
M  V30 9953 C 903.291 -1.74787 -0.695064 0
M  V30 9954 O 902.649 -1.04796 -1.47944 0
M  V30 9955 C 902.697 -3.43684 1.09149 0
M  V30 9956 O 901.801 -4.11874 0.208213 0
M  V30 9957 H 901.142 -0.605064 0.273484 0
M  V30 9958 H 903.672 -1.51846 1.37128 0
M  V30 9959 H 903.682 -3.94339 1.04695 0
M  V30 9960 H 902.357 -3.56826 2.13654 0
M  V30 9961 H 900.934 -3.716 0.311045 0
M  V30 9962 N 903.119 -0.802921 -1.35613 0
M  V30 9963 C 904.366 -0.381576 -1.98872 0
M  V30 9964 C 904.694 1.0503 -1.63704 0
M  V30 9965 O 903.949 1.7427 -0.890418 0
M  V30 9966 C 904.248 -0.507806 -3.53774 0
M  V30 9967 C 903.914 -1.90245 -4.088 0
M  V30 9968 C 902.576 -2.28401 -4.2354 0
M  V30 9969 C 904.928 -2.81504 -4.3864 0
M  V30 9970 C 902.256 -3.57192 -4.65436 0
M  V30 9971 C 904.608 -4.09737 -4.81973 0
M  V30 9972 C 903.272 -4.47897 -4.94919 0
M  V30 9973 H 902.542 -0.139629 -0.727726 0
M  V30 9974 H 905.189 -1.023 -1.61886 0
M  V30 9975 H 903.494 0.21708 -3.91198 0
M  V30 9976 H 905.191 -0.162625 -4.0067 0
M  V30 9977 H 901.781 -1.596 -3.97776 0
M  V30 9978 H 905.965 -2.53276 -4.26808 0
M  V30 9979 H 901.221 -3.86611 -4.73648 0
M  V30 9980 H 905.395 -4.80555 -5.04024 0
M  V30 9981 H 903.022 -5.47747 -5.27141 0
M  V30 9982 N 904.597 1.47463 -0.556102 0
M  V30 9983 C 905.507 2.33785 0.195378 0
M  V30 9984 C 906.523 1.48123 0.913 0
M  V30 9985 O 907.699 1.81053 0.882141 0
M  V30 9986 C 904.764 3.24795 1.21282 0
M  V30 9987 C 903.825 4.26346 0.502747 0
M  V30 9988 C 903.058 5.13007 1.47172 0
M  V30 9989 O 903.281 5.02103 2.70646 0
M  V30 9990 O 902.215 5.93588 0.996814 0
M  V30 9991 H 906.041 2.99341 -0.512676 0
M  V30 9992 H 903.626 1.46004 -0.31673 0
M  V30 9993 H 905.508 3.81015 1.80016 0
M  V30 9994 H 904.183 2.61868 1.90282 0
M  V30 9995 H 903.09 3.73889 -0.125757 0
M  V30 9996 H 904.423 4.91984 -0.145779 0
M  V30 9997 N 906.075 0.2925 1.54862 0
M  V30 9998 C 907.352 -0.371946 1.92031 0
M  V30 9999 C 907.732 -1.72363 1.21878 0
M  V30 10000 O 907.08 -2.25779 0.351573 0
M  V30 10001 C 907.29 -0.495027 3.45471 0
M  V30 10002 C 908.638 -0.769855 4.17562 0
M  V30 10003 O 909.662 -0.579168 3.5146 0
M  V30 10004 O 908.521 -1.13561 5.34571 0
M  V30 10005 H 905.615 -0.206463 0.800813 0
M  V30 10006 H 908.161 0.339933 1.6626 0
M  V30 10007 H 906.933 0.455528 3.88639 0
M  V30 10008 H 906.556 -1.2557 3.7725 0
M  V30 10009 N 907.553 -1.57587 0.0200696 0
M  V30 10010 C 908.483 -2.12702 -0.963333 0
M  V30 10011 C 909.464 -1.04094 -1.34531 0
M  V30 10012 O 910.649 -1.31881 -1.42552 0
M  V30 10013 C 907.779 -2.64673 -2.24868 0
M  V30 10014 C 906.733 -3.77987 -2.00772 0
M  V30 10015 C 906.059 -4.16351 -3.35494 0
M  V30 10016 C 907.359 -5.0444 -1.35416 0
M  V30 10017 H 909.053 -2.95121 -0.504363 0
M  V30 10018 H 906.599 -1.41966 -0.24116 0
M  V30 10019 H 908.552 -3.01862 -2.94036 0
M  V30 10020 H 907.276 -1.79403 -2.72914 0
M  V30 10021 H 905.935 -3.41223 -1.34025 0
M  V30 10022 H 905.583 -3.28075 -3.81282 0
M  V30 10023 H 905.283 -4.92705 -3.20181 0
M  V30 10024 H 906.807 -4.56115 -4.05945 0
M  V30 10025 H 908.221 -5.39273 -1.94571 0
M  V30 10026 H 906.618 -5.85732 -1.30529 0
M  V30 10027 H 907.688 -4.83803 -0.325923 0
M  V30 10028 N 909.032 0.252966 -1.55557 0
M  V30 10029 C 909.962 1.31691 -1.9282 0
M  V30 10030 C 910.943 1.50516 -0.7924 0
M  V30 10031 O 912.128 1.63225 -1.05219 0
M  V30 10032 C 909.258 2.67281 -2.21762 0
M  V30 10033 C 908.212 2.6316 -3.37536 0
M  V30 10034 C 907.538 4.02488 -3.52005 0
M  V30 10035 C 908.838 2.20675 -4.73392 0
M  V30 10036 H 910.532 1.00751 -2.81939 0
M  V30 10037 H 908.078 0.483219 -1.3565 0
M  V30 10038 H 910.031 3.41842 -2.46419 0
M  V30 10039 H 908.755 2.99845 -1.29463 0
M  V30 10040 H 907.414 1.91057 -3.12878 0
M  V30 10041 H 907.062 4.32307 -2.57137 0
M  V30 10042 H 906.762 4.00621 -4.29857 0
M  V30 10043 H 908.286 4.78758 -3.78977 0
M  V30 10044 H 909.7 2.84965 -4.97461 0
M  V30 10045 H 908.097 2.29931 -5.54303 0
M  V30 10046 H 909.167 1.15831 -4.70862 0
M  V30 10047 N 910.51 1.48831 0.518367 0
M  V30 10048 C 911.926 1.35209 0.847979 0
M  V30 10049 C 912.126 0.371927 1.98038 0
M  V30 10050 O 911.182 -0.202681 2.51685 0
M  V30 10051 C 912.495 2.7552 1.20455 0
M  V30 10052 C 914.043 2.84094 1.31377 0
M  V30 10053 C 914.518 4.25132 1.70372 0
M  V30 10054 N 916.009 4.27861 1.77453 0
M  V30 10055 C 916.744 5.3394 2.09035 0
M  V30 10056 N 916.24 6.50285 2.3896 0
M  V30 10057 N 918.033 5.21343 2.10139 0
M  V30 10058 H 910.184 2.11166 -0.228624 0
M  V30 10059 H 912.447 0.94717 -0.0396599 0
M  V30 10060 H 912.153 3.48861 0.445991 0
M  V30 10061 H 912.027 3.09785 2.15204 0
M  V30 10062 H 914.414 2.11001 2.06307 0
M  V30 10063 H 914.495 2.53433 0.347203 0
M  V30 10064 H 914.139 4.98745 0.959975 0
M  V30 10065 H 914.069 4.53245 2.68098 0
M  V30 10066 H 916.56 3.43945 1.56557 0
M  V30 10067 H 916.873 7.26961 2.62196 0
M  V30 10068 H 915.218 6.5354 2.36454 0
M  V30 10069 H 918.409 4.29462 1.86225 0
M  V30 10070 H 918.582 6.04112 2.34419 0
M  V30 10071 N 911.988 -0.768124 1.37614 0
M  V30 10072 C 913.216 -1.55726 1.36224 0
M  V30 10073 C 913.631 -1.8873 -0.0515357 0
M  V30 10074 O 912.988 -1.51718 -1.0143 0
M  V30 10075 C 913.039 -2.86533 2.20412 0
M  V30 10076 O 912.76 -2.54942 3.56281 0
M  V30 10077 C 914.261 -3.80745 2.27041 0
M  V30 10078 H 911.481 -0.482325 0.46648 0
M  V30 10079 H 914.025 -0.95176 1.81002 0
M  V30 10080 H 912.18 -3.43496 1.79134 0
M  V30 10081 H 912.594 -3.38732 4.00451 0
M  V30 10082 H 914.068 -4.69523 2.90263 0
M  V30 10083 H 914.545 -4.20138 1.27987 0
M  V30 10084 H 915.151 -3.2971 2.68647 0
M  V30 10085 N 913.466 -1.22244 -0.994698 0
M  V30 10086 C 914.715 -1.04005 -1.72817 0
M  V30 10087 C 915.028 0.425413 -1.90918 0
M  V30 10088 O 916.234 0.727429 -2.61574 0
M  V30 10089 C 914.69 -1.81244 -3.10932 0
M  V30 10090 C 914.298 -3.32028 -3.00768 0
M  V30 10091 C 916.042 -1.71448 -3.88337 0
M  V30 10092 C 913.949 -4.01716 -4.34026 0
M  V30 10093 H 912.879 -0.385559 -0.647966 0
M  V30 10094 H 915.53 -1.46077 -1.11058 0
M  V30 10095 H 913.912 -1.3197 -3.73363 0
M  V30 10096 H 915.086 -3.88682 -2.47513 0
M  V30 10097 H 913.401 -3.4248 -2.36846 0
M  V30 10098 H 915.998 -2.20836 -4.86965 0
M  V30 10099 H 916.341 -0.674568 -4.10798 0
M  V30 10100 H 916.874 -2.18256 -3.3258 0
M  V30 10101 H 913.613 -5.05952 -4.16765 0
M  V30 10102 H 913.133 -3.49849 -4.87202 0
M  V30 10103 H 914.812 -4.0721 -5.02782 0
M  V30 10104 N 914.944 1.19125 -1.03184 0
M  V30 10105 C 916.221 1.84674 -0.644574 0
M  V30 10106 C 916.601 1.92042 0.876534 0
M  V30 10107 O 915.949 1.43965 1.77444 0
M  V30 10108 C 916.159 3.23477 -1.3101 0
M  V30 10109 C 917.507 3.99608 -1.43524 0
M  V30 10110 O 918.531 3.32886 -1.2675 0
M  V30 10111 O 917.39 5.19132 -1.70776 0
M  V30 10112 H 914.484 0.795968 -0.22442 0
M  V30 10113 H 917.03 1.2659 -1.13018 0
M  V30 10114 H 915.802 3.12967 -2.34878 0
M  V30 10115 H 915.425 3.89209 -0.812547 0
M  V30 10116 N 916.422 0.810101 1.35185 0
M  V30 10117 C 917.332 0.224565 2.33523 0
M  V30 10118 C 918.348 -0.634287 1.62027 0
M  V30 10119 O 919.524 -0.545211 1.9388 0
M  V30 10120 C 916.589 -0.614319 3.41214 0
M  V30 10121 C 915.65 0.265435 4.28479 0
M  V30 10122 C 914.883 -0.533506 5.31027 0
M  V30 10123 O 915.106 -1.7679 5.42311 0
M  V30 10124 O 914.04 0.0774573 6.0185 0
M  V30 10125 H 917.866 1.03815 2.85405 0
M  V30 10126 H 915.451 0.571964 1.38018 0
M  V30 10127 H 917.333 -1.09201 4.07005 0
M  V30 10128 H 916.008 -1.40545 2.91597 0
M  V30 10129 H 914.915 0.790343 3.65656 0
M  V30 10130 H 916.248 1.0206 4.81503 0
M  V30 10131 N 917.9 -1.47166 0.563914 0
M  V30 10132 C 918.83 -2.32894 -0.168148 0
M  V30 10133 C 919.811 -1.44202 -0.902214 0
M  V30 10134 O 920.996 -1.73048 -0.881365 0
M  V30 10135 C 918.126 -3.26116 -1.19439 0
M  V30 10136 C 917.08 -4.24101 -0.576363 0
M  V30 10137 C 916.406 -5.06696 -1.70772 0
M  V30 10138 C 917.706 -5.20142 0.47425 0
M  V30 10139 H 919.4 -2.9435 0.547573 0
M  V30 10140 H 916.946 -1.41545 0.264778 0
M  V30 10141 H 918.899 -3.84935 -1.71474 0
M  V30 10142 H 917.623 -2.62728 -1.94014 0
M  V30 10143 H 916.282 -3.66519 -0.0772534 0
M  V30 10144 H 915.93 -4.39707 -2.44268 0
M  V30 10145 H 915.63 -5.7304 -1.29994 0
M  V30 10146 H 917.154 -5.68375 -2.2312 0
M  V30 10147 H 918.568 -5.73286 0.0397035 0
M  V30 10148 H 916.965 -5.94726 0.801287 0
M  V30 10149 H 918.035 -4.65214 1.36764 0
M  V30 10150 N 919.378 -0.300708 -1.54705 0
M  V30 10151 C 920.624 0.309111 -2.0043 0
M  V30 10152 C 920.957 1.53562 -1.1888 0
M  V30 10153 O 920.232 1.92683 -0.265205 0
M  V30 10154 C 920.515 0.665995 -3.53888 0
M  V30 10155 C 920.368 -0.56963 -4.46178 0
M  V30 10156 C 921.687 1.49262 -4.14016 0
M  V30 10157 H 918.806 0.110878 -0.728612 0
M  V30 10158 H 921.448 -0.412748 -1.85463 0
M  V30 10159 H 919.598 1.281 -3.66773 0
M  V30 10160 H 921.27 -1.20811 -4.45199 0
M  V30 10161 H 919.513 -1.20292 -4.16788 0
M  V30 10162 H 920.184 -0.275785 -5.51311 0
M  V30 10163 H 922.66 0.972979 -4.04564 0
M  V30 10164 H 921.536 1.71111 -5.21548 0
M  V30 10165 H 921.797 2.48174 -3.65872 0
M  V30 10166 N 920.856 1.57574 -0.0284266 0
M  V30 10167 C 921.766 2.13637 0.96936 0
M  V30 10168 C 922.782 1.08845 1.35752 0
M  V30 10169 O 923.958 1.40899 1.43908 0
M  V30 10170 C 921.023 2.65179 2.2334 0
M  V30 10171 C 920.084 3.84683 1.90572 0
M  V30 10172 C 919.317 4.33758 3.1095 0
M  V30 10173 O 919.54 3.82009 4.23586 0
M  V30 10174 O 918.474 5.2561 2.93288 0
M  V30 10175 H 922.3 2.99169 0.52267 0
M  V30 10176 H 919.885 1.48159 0.192135 0
M  V30 10177 H 921.767 2.98402 2.97547 0
M  V30 10178 H 920.442 1.82731 2.67191 0
M  V30 10179 H 919.349 3.56386 1.13753 0
M  V30 10180 H 920.682 4.68292 1.51538 0
M  V30 10181 N 922.334 -0.244713 1.55689 0
M  V30 10182 C 923.574 -0.979776 1.79387 0
M  V30 10183 C 923.938 -1.8244 0.598298 0
M  V30 10184 O 925.139 -2.59141 0.7141 0
M  V30 10185 C 923.41 -1.81573 3.07841 0
M  V30 10186 S 924.969 -2.60959 3.52769 0
M  V30 10187 H 921.787 -0.329526 0.630027 0
M  V30 10188 H 924.389 -0.247435 1.93928 0
M  V30 10189 H 923.093 -1.18497 3.92921 0
M  V30 10190 H 922.624 -2.59078 2.96044 0
M  V30 10191 H 924.639 -3.83987 3.14275 0
M  V30 10192 N 923.813 -1.49104 -0.510467 0
M  V30 10193 C 924.723 -1.67792 -1.6396 0
M  V30 10194 C 925.739 -0.560454 -1.64727 0
M  V30 10195 O 926.915 -0.833985 -1.83321 0
M  V30 10196 C 923.98 -1.73154 -3.00364 0
M  V30 10197 C 923.041 -2.9667 -3.10299 0
M  V30 10198 C 922.274 -3.01767 -4.40196 0
M  V30 10199 O 922.497 -2.1472 -5.28443 0
M  V30 10200 O 921.431 -3.94137 -4.54906 0
M  V30 10201 H 925.257 -2.63428 -1.51126 0
M  V30 10202 H 922.842 -1.32734 -0.685719 0
M  V30 10203 H 924.724 -1.79089 -3.81451 0
M  V30 10204 H 923.399 -0.806952 -3.1348 0
M  V30 10205 H 922.306 -2.96257 -2.28435 0
M  V30 10206 H 923.639 -3.88578 -3.02106 0
M  V30 10207 N 925.291 0.760815 -1.38019 0
M  V30 10208 C 926.201 1.90526 -1.36884 0
M  V30 10209 C 927.217 1.71941 -0.266908 0
M  V30 10210 O 928.393 1.94988 -0.50413 0
M  V30 10211 C 925.458 3.25799 -1.18558 0
M  V30 10212 C 924.519 3.56961 -2.3849 0
M  V30 10213 C 923.752 4.8578 -2.21029 0
M  V30 10214 O 923.975 5.57629 -1.20023 0
M  V30 10215 O 922.909 5.16254 -3.0946 0
M  V30 10216 H 926.735 1.94437 -2.33298 0
M  V30 10217 H 924.32 0.905091 -1.18863 0
M  V30 10218 H 926.202 4.0669 -1.1037 0
M  V30 10219 H 924.877 3.22716 -0.252241 0
M  V30 10220 H 923.784 2.7626 -2.52252 0
M  V30 10221 H 925.117 3.64798 -3.30429 0
M  V30 10222 N 926.769 1.22769 0.988202 0
M  V30 10223 C 927.997 1.08155 1.76381 0
M  V30 10224 C 928.412 -0.367573 1.85187 0
M  V30 10225 O 927.769 -1.25455 1.32541 0
M  V30 10226 C 927.82 1.69193 3.19462 0
M  V30 10227 O 927.541 3.08437 3.11125 0
M  V30 10228 C 929.042 1.59915 4.13451 0
M  V30 10229 H 926.262 0.378908 0.553778 0
M  V30 10230 H 928.806 1.6246 1.24206 0
M  V30 10231 H 926.961 1.18939 3.6869 0
M  V30 10232 H 927.375 3.37916 4.0114 0
M  V30 10233 H 928.849 2.07339 5.1158 0
M  V30 10234 H 929.326 0.556546 4.3566 0
M  V30 10235 H 929.932 2.09497 3.70123 0
M  V30 10236 N 928.247 -1.18576 1.03814 0
M  V30 10237 C 929.494 -1.88493 0.740036 0
M  V30 10238 C 929.822 -1.80198 -0.732056 0
M  V30 10239 O 929.077 -1.19509 -1.54971 0
M  V30 10240 C 929.376 -3.38448 1.14837 0
M  V30 10241 C 929.042 -3.66947 2.62031 0
M  V30 10242 C 927.704 -3.74435 3.02244 0
M  V30 10243 C 930.056 -3.79534 3.57217 0
M  V30 10244 C 927.384 -3.91986 4.36536 0
M  V30 10245 C 929.736 -3.986 4.91223 0
M  V30 10246 C 928.4 -4.04323 5.31111 0
M  V30 10247 H 927.67 -0.689746 0.270798 0
M  V30 10248 H 930.317 -1.40364 1.3027 0
M  V30 10249 H 928.622 -3.88539 0.504472 0
M  V30 10250 H 930.319 -3.90882 0.89511 0
M  V30 10251 H 926.909 -3.61734 2.29883 0
M  V30 10252 H 931.093 -3.73083 3.27296 0
M  V30 10253 H 926.349 -3.9466 4.66962 0
M  V30 10254 H 930.523 -4.07281 5.64885 0
M  V30 10255 H 928.15 -4.17676 6.35178 0
M  V30 10256 N 929.725 -0.817259 -1.34754 0
M  V30 10257 C 930.973 -0.401852 -1.98065 0
M  V30 10258 C 931.294 1.03718 -1.65129 0
M  V30 10259 O 930.564 1.71921 -0.939141 0
M  V30 10260 H 929.144 -0.145603 -0.732672 0
M  V30 10261 H 931.806 -1.04545 -1.64488 0
M  V30 10262 H 930.902 -0.516241 -3.07801 0
M  V30 10263 N 931.203 1.46865 -0.571711 0
M  V30 10264 C 932.619 1.57897 -0.23255 0
M  V30 10265 C 932.819 1.56836 1.26509 0
M  V30 10266 O 931.875 1.47947 2.04617 0
M  V30 10267 C 933.188 2.87778 -0.872036 0
M  V30 10268 C 934.736 3.01389 -0.844605 0
M  V30 10269 C 935.211 4.33991 -1.46343 0
M  V30 10270 N 936.702 4.40662 -1.42727 0
M  V30 10271 C 937.437 5.41858 -1.87557 0
M  V30 10272 N 936.933 6.49787 -2.4031 0
M  V30 10273 N 938.726 5.32992 -1.7854 0
M  V30 10274 H 930.877 1.45798 -1.54457 0
M  V30 10275 H 933.14 0.694785 -0.644964 0
M  V30 10276 H 932.846 2.94332 -1.92513 0
M  V30 10277 H 932.72 3.75345 -0.373677 0
M  V30 10278 H 935.107 2.94423 0.19984 0
M  V30 10279 H 935.188 2.15327 -1.38087 0
M  V30 10280 H 934.832 4.41714 -2.50701 0
M  V30 10281 H 934.762 5.18809 -0.902479 0
M  V30 10282 H 937.253 3.63263 -1.04155 0
M  V30 10283 H 937.566 7.23199 -2.72403 0
M  V30 10284 H 935.911 6.50637 -2.44329 0
M  V30 10285 H 939.102 4.47575 -1.37093 0
M  V30 10286 H 939.275 6.11716 -2.13794 0
M  V30 10287 O 932.72 0.451008 1.55075 0
M  V30 10288 H 933.411 -0.0793462 1.93537 0
M  V30 END ATOM
M  V30 BEGIN BOND
M  V30 END BOND
M  V30 END CTAB
M  END
$$$$
