drugbank_target|Q9BYT3 Serine/threonine-protein kinase 33 (DB12010)
 OpenBabel12092121133D

  0  0  0     0  0            999 V3000
M  V30 BEGIN CTAB
M  V30 COUNTS 8133 8201 0 0 0
M  V30 BEGIN ATOM
M  V30 1 H -0.908 1.98254 -0.117106 0
M  V30 2 N 0 1.576 0 0
M  V30 3 C 0.933 2.03868 1.02534 0
M  V30 4 C 1.911 0.928543 1.3348 0
M  V30 5 O 3.095 1.19667 1.45644 0
M  V30 6 C 0.222 2.43627 2.35294 0
M  V30 7 C -0.732 3.65373 2.2001 0
M  V30 8 S 0.101 5.13292 1.52614 0
M  V30 9 C 1.257 5.56322 2.86805 0
M  V30 10 H 1.49 2.90518 0.631377 0
M  V30 11 H -0.977 1.52953 0.210867 0
M  V30 12 H 0.981 2.67203 3.11629 0
M  V30 13 H -0.358 1.57376 2.7183 0
M  V30 14 H -1.165 3.90944 3.18086 0
M  V30 15 H -1.563 3.418 1.51819 0
M  V30 16 H 0.729 5.58782 3.83104 0
M  V30 17 H 1.672 6.56266 2.65933 0
M  V30 18 H 2.08 4.83886 2.90714 0
M  V30 19 N 1.4781 -0.272755 1.55222 0
M  V30 20 C 2.4411 -1.32041 1.87344 0
M  V30 21 C 3.4411 -1.42342 0.74803 0
M  V30 22 O 4.6311 -1.41488 1.0162 0
M  V30 23 C 1.7631 -2.70173 2.07893 0
M  V30 24 H 2.9561 -1.04789 2.80997 0
M  V30 25 H 0.5091 -0.51083 1.47717 0
M  V30 26 H 1.2441 -3.02605 1.16622 0
M  V30 27 H 1.0291 -2.64082 2.89833 0
M  V30 28 H 2.5191 -3.45869 2.34017 0
M  V30 29 N 2.9562 -1.48159 -0.537278 0
M  V30 30 C 4.2332 -1.46291 -1.29839 0
M  V30 31 C 4.6132 -0.170613 -2.10409 0
M  V30 32 O 3.9612 0.847746 -2.12192 0
M  V30 33 C 4.1712 -2.72055 -2.18603 0
M  V30 34 C 5.5192 -3.20087 -2.7898 0
M  V30 35 O 6.5432 -2.72921 -2.28894 0
M  V30 36 O 5.4022 -4.02138 -3.70064 0
M  V30 37 H 2.4962 -0.583906 -0.585647 0
M  V30 38 H 5.0422 -1.60384 -0.554534 0
M  V30 39 H 3.8142 -3.57628 -1.58801 0
M  V30 40 H 3.4372 -2.60646 -3.00249 0
M  V30 41 N 4.4343 0.785586 -1.36625 0
M  V30 42 C 5.6593 1.57963 -1.34397 0
M  V30 43 C 6.0843 1.87964 0.071526 0
M  V30 44 O 5.4423 1.48182 1.0446 0
M  V30 45 C 5.4903 2.87511 -2.17646 0
M  V30 46 O 4.5943 3.81281 -1.57158 0
M  V30 47 H 3.9353 0.479014 -0.459828 0
M  V30 48 H 6.4653 0.973411 -1.79961 0
M  V30 49 H 6.4753 3.36745 -2.30362 0
M  V30 50 H 5.1503 2.65002 -3.20541 0
M  V30 51 H 3.7273 3.39885 -1.53403 0
M  V30 52 N 5.9124 1.20967 1.01018 0
M  V30 53 C 7.1604 1.02172 1.74371 0
M  V30 54 C 7.4814 -0.446414 1.89821 0
M  V30 55 O 6.7514 -1.32234 1.44537 0
M  V30 56 H 5.3314 0.375066 0.646014 0
M  V30 57 H 7.9934 1.52187 1.21758 0
M  V30 58 H 7.0894 1.48538 2.74487 0
M  V30 59 N 7.3905 -1.2043 1.01659 0
M  V30 60 C 8.3205 -2.25466 0.607226 0
M  V30 61 C 9.3015 -1.65853 -0.377716 0
M  V30 62 O 10.4865 -1.92409 -0.263149 0
M  V30 63 C 7.6165 -3.47256 -0.0552949 0
M  V30 64 C 6.5705 -4.19462 0.850632 0
M  V30 65 C 5.8965 -5.34673 0.0538859 0
M  V30 66 C 7.1965 -4.75603 2.15868 0
M  V30 67 H 8.8905 -2.59962 1.48526 0
M  V30 68 H 6.4365 -1.2496 0.715605 0
M  V30 69 H 8.3895 -4.19917 -0.353233 0
M  V30 70 H 7.1135 -3.11924 -0.968045 0
M  V30 71 H 5.7725 -3.48667 1.13257 0
M  V30 72 H 5.4205 -4.95585 -0.860514 0
M  V30 73 H 5.1205 -5.83913 0.657192 0
M  V30 74 H 6.6445 -6.10138 -0.237598 0
M  V30 75 H 8.0585 -5.40083 1.92311 0
M  V30 76 H 6.4555 -5.3528 2.71284 0
M  V30 77 H 7.5255 -3.94346 2.82169 0
M  V30 78 N 8.8686 -0.792821 -1.36206 0
M  V30 79 C 10.1456 -0.290627 -1.93429 0
M  V30 80 C 10.5256 1.21773 -1.72437 0
M  V30 81 O 9.8736 2.0108 -1.08531 0
M  V30 82 C 10.0836 -0.686973 -3.42172 0
M  V30 83 C 11.4316 -0.668643 -4.19302 0
M  V30 84 O 12.4556 -0.627658 -3.50626 0
M  V30 85 O 11.3146 -0.714597 -5.41808 0
M  V30 86 H 8.4086 -0.0727927 -0.82379 0
M  V30 87 H 10.9546 -0.875593 -1.45367 0
M  V30 88 H 9.7266 -1.72711 -3.51122 0
M  V30 89 H 9.3496 -0.0760733 -3.97527 0
M  V30 90 N 10.3467 1.47872 -0.545128 0
M  V30 91 C 11.2937 2.29849 0.2093 0
M  V30 92 C 12.2637 1.38313 0.919707 0
M  V30 93 O 13.4487 1.67277 0.917772 0
M  V30 94 C 10.5887 3.22019 1.24088 0
M  V30 95 C 9.7017 4.2864 0.537778 0
M  V30 96 C 8.8367 5.07973 1.5536 0
M  V30 97 C 7.8757 6.06381 0.8348 0
M  V30 98 N 7.0127 6.78717 1.79688 0
M  V30 99 H 11.8527 2.93845 -0.49591 0
M  V30 100 H 9.3897 1.44848 -0.256389 0
M  V30 101 H 11.3477 3.73868 1.85144 0
M  V30 102 H 9.9777 2.59914 1.91428 0
M  V30 103 H 9.0297 3.7994 -0.187046 0
M  V30 104 H 10.3417 4.98793 -0.0258907 0
M  V30 105 H 9.4957 5.63912 2.23803 0
M  V30 106 H 8.2347 4.37693 2.15118 0
M  V30 107 H 7.2397 5.49631 0.136388 0
M  V30 108 H 8.4647 6.78665 0.24313 0
M  V30 109 H 6.4107 6.11177 2.38326 0
M  V30 110 H 6.3277 7.44998 1.28505 0
M  V30 111 H 7.5957 7.39237 2.47282 0
M  V30 112 N 11.8248 0.280983 1.55075 0
M  V30 113 C 12.7718 -0.603937 2.22758 0
M  V30 114 C 13.7418 -1.1452 1.20309 0
M  V30 115 O 14.9268 -1.19343 1.48869 0
M  V30 116 C 12.0668 -1.77947 2.95684 0
M  V30 117 C 11.1798 -1.2715 4.12864 0
M  V30 118 C 10.3148 -2.4093 4.7342 0
M  V30 119 C 9.3538 -1.87165 5.82783 0
M  V30 120 N 8.4908 -2.94441 6.37377 0
M  V30 121 H 13.3308 -0.020124 2.97993 0
M  V30 122 H 10.8678 0.00183425 1.471 0
M  V30 123 H 12.8258 -2.47055 3.36184 0
M  V30 124 H 11.4558 -2.33522 2.22861 0
M  V30 125 H 10.5078 -0.473331 3.77444 0
M  V30 126 H 11.8198 -0.837751 4.91715 0
M  V30 127 H 10.9738 -3.18021 5.1667 0
M  V30 128 H 9.7128 -2.87623 3.93859 0
M  V30 129 H 8.7178 -1.08556 5.38976 0
M  V30 130 H 9.9428 -1.41401 6.64216 0
M  V30 131 H 7.8888 -3.40505 5.60707 0
M  V30 132 H 7.8058 -2.55501 7.11516 0
M  V30 133 H 9.0738 -3.71489 6.85285 0
M  V30 134 N 13.3029 -1.57598 0.00835791 0
M  V30 135 C 14.5279 -1.95617 -0.689103 0
M  V30 136 C 14.9529 -0.883753 -1.66046 0
M  V30 137 O 14.3109 0.157352 -1.80616 0
M  V30 138 C 14.3589 -3.32736 -1.38994 0
M  V30 139 O 13.4629 -3.27631 -2.50463 0
M  V30 140 H 12.8039 -0.638379 -0.182668 0
M  V30 141 H 15.3339 -2.045 0.064036 0
M  V30 142 H 15.3439 -3.68494 -1.75147 0
M  V30 143 H 14.0189 -4.1034 -0.677778 0
M  V30 144 H 12.5959 -3.03561 -2.16576 0
M  V30 145 N 14.781 0.264519 -1.55364 0
M  V30 146 C 16.009 1.013 -1.80405 0
M  V30 147 C 16.424 1.79618 -0.581622 0
M  V30 148 O 15.781 1.76879 0.449468 0
M  V30 149 C 15.832 1.96487 -3.03439 0
M  V30 150 O 15.553 1.21341 -4.20961 0
M  V30 151 C 17.054 2.83079 -3.41147 0
M  V30 152 H 14.274 0.298875 -0.600762 0
M  V30 153 H 16.818 0.292736 -2.02394 0
M  V30 154 H 14.973 2.63965 -2.83551 0
M  V30 155 H 15.387 1.85573 -4.90574 0
M  V30 156 H 16.861 3.4565 -4.30384 0
M  V30 157 H 17.338 3.53286 -2.60932 0
M  V30 158 H 17.944 2.2108 -3.63323 0
M  V30 159 N 16.2591 1.48442 0.529413 0
M  V30 160 C 17.2061 1.63007 1.63394 0
M  V30 161 C 18.1761 0.47212 1.59249 0
M  V30 162 O 19.3611 0.695673 1.77666 0
M  V30 163 C 16.5011 1.6763 3.01653 0
M  V30 164 C 15.6141 2.94535 3.16027 0
M  V30 165 C 14.7491 2.90316 4.44849 0
M  V30 166 C 13.7881 4.11923 4.52754 0
M  V30 167 N 12.9251 4.05777 5.72965 0
M  V30 168 H 17.7651 2.5733 1.50285 0
M  V30 169 H 15.3021 1.27613 0.731656 0
M  V30 170 H 17.2601 1.68292 3.81751 0
M  V30 171 H 15.8901 0.76797 3.13532 0
M  V30 172 H 14.9421 3.03615 2.29177 0
M  V30 173 H 16.2541 3.84512 3.17729 0
M  V30 174 H 15.4081 2.89382 5.33238 0
M  V30 175 H 14.1471 1.98068 4.45668 0
M  V30 176 H 13.1521 4.13131 3.62771 0
M  V30 177 H 14.3771 5.0533 4.53672 0
M  V30 178 H 12.3231 3.16351 5.74681 0
M  V30 179 H 12.2401 4.8946 5.76164 0
M  V30 180 H 13.5081 4.08904 6.6364 0
M  V30 181 N 17.7372 -0.778329 1.37039 0
M  V30 182 C 18.9772 -1.54973 1.33276 0
M  V30 183 C 19.3412 -1.91816 -0.0839376 0
M  V30 184 O 20.5422 -2.6767 -0.246228 0
M  V30 185 C 18.8132 -2.78517 2.23971 0
M  V30 186 S 20.3722 -3.6865 2.37997 0
M  V30 187 H 17.1902 -0.530639 0.473226 0
M  V30 188 H 19.7922 -0.915806 1.72723 0
M  V30 189 H 18.4962 -2.4952 3.25835 0
M  V30 190 H 18.0272 -3.46875 1.85584 0
M  V30 191 H 20.0422 -4.70182 1.58567 0
M  V30 192 N 19.2153 -1.21501 -1.00376 0
M  V30 193 C 20.6263 -1.03146 -1.55621 0
M  V30 194 C 20.9773 0.408375 -1.91903 0
M  V30 195 O 20.1023 1.29177 -1.73616 0
M  V30 196 C 20.6973 -1.86612 -2.82775 0
M  V30 197 C 19.2563 -1.72586 -3.34501 0
M  V30 198 C 18.4033 -1.83747 -2.07683 0
M  V30 199 H 21.3543 -1.35505 -0.826081 0
M  V30 200 H 21.3753 -1.3771 -3.54706 0
M  V30 201 H 20.8873 -2.91399 -2.56336 0
M  V30 202 H 18.9883 -0.704877 -3.65872 0
M  V30 203 H 19.1013 -2.54623 -4.05837 0
M  V30 204 H 17.4653 -1.27069 -2.20739 0
M  V30 205 H 18.2483 -2.90044 -1.83655 0
M  V30 206 N 20.6934 1.19889 -1.02296 0
M  V30 207 C 21.9704 1.85148 -0.630832 0
M  V30 208 C 22.3504 1.91385 0.890782 0
M  V30 209 O 21.6984 1.42642 1.78509 0
M  V30 210 C 21.9084 3.24442 -1.28602 0
M  V30 211 C 23.2564 4.00663 -1.4055 0
M  V30 212 O 24.2804 3.33818 -1.24273 0
M  V30 213 O 23.1394 5.20387 -1.66913 0
M  V30 214 H 20.2334 0.797613 -0.218499 0
M  V30 215 H 22.7794 1.27427 -1.12074 0
M  V30 216 H 21.5514 3.14704 -2.32545 0
M  V30 217 H 21.1744 3.89802 -0.7836 0
M  V30 218 N 22.1715 0.800033 1.35784 0
M  V30 219 C 23.4115 0.382891 2.00782 0
M  V30 220 C 23.7755 -1.02891 1.62103 0
M  V30 221 O 24.9765 -1.54771 2.19771 0
M  V30 222 C 23.2475 0.553299 3.53091 0
M  V30 223 S 24.8065 0.225608 4.3822 0
M  V30 224 H 21.6245 0.145737 0.695904 0
M  V30 225 H 24.2265 1.04085 1.65489 0
M  V30 226 H 22.9305 1.58091 3.78729 0
M  V30 227 H 22.4615 -0.120214 3.93216 0
M  V30 228 H 24.4765 -0.969074 4.86645 0
M  V30 229 N 23.6496 -1.47581 0.552962 0
M  V30 230 C 24.8746 -2.07378 0.0300593 0
M  V30 231 C 25.2996 -1.40355 -1.25229 0
M  V30 232 O 24.6576 -0.477099 -1.7491 0
M  V30 233 C 24.7056 -3.60274 -0.153231 0
M  V30 234 O 23.8096 -3.94041 -1.21678 0
M  V30 235 H 23.1506 -0.662158 0.0494182 0
M  V30 236 H 25.6806 -1.89662 0.767434 0
M  V30 237 H 25.6906 -4.0633 -0.368761 0
M  V30 238 H 24.3656 -4.08455 0.783397 0
M  V30 239 H 22.9426 -3.59735 -0.982079 0
M  V30 240 N 25.1277 -0.289203 -1.54924 0
M  V30 241 C 26.3527 0.329299 -2.04769 0
M  V30 242 C 26.7777 1.4763 -1.16564 0
M  V30 243 O 26.1357 1.80527 -0.167186 0
M  V30 244 C 26.1837 0.774438 -3.52186 0
M  V30 245 O 25.2877 1.88038 -3.67036 0
M  V30 246 H 24.6287 0.0659259 -0.660719 0
M  V30 247 H 27.1587 -0.42761 -2.00082 0
M  V30 248 H 27.1687 1.06642 -3.93816 0
M  V30 249 H 25.8437 -0.0646707 -4.1585 0
M  V30 250 H 24.4207 1.58985 -3.3731 0
M  V30 251 N 26.6058 1.57591 -0.0167156 0
M  V30 252 C 27.5688 2.08393 0.954204 0
M  V30 253 C 28.5688 0.996531 1.26198 0
M  V30 254 O 29.7588 1.25858 1.20438 0
M  V30 255 C 26.8908 2.5394 2.27436 0
M  V30 256 H 28.0838 2.95455 0.514451 0
M  V30 257 H 25.6368 1.54582 0.231089 0
M  V30 258 H 26.3718 1.70171 2.76066 0
M  V30 259 H 26.1568 3.33371 2.06412 0
M  V30 260 H 27.6468 2.93512 2.97053 0
M  V30 261 N 28.0839 -0.256276 1.55502 0
M  V30 262 C 29.3089 -1.00766 1.81276 0
M  V30 263 C 29.7339 -1.78524 0.59252 0
M  V30 264 O 29.0919 -1.75413 -0.45827 0
M  V30 265 C 29.1399 -1.92869 3.04687 0
M  V30 266 O 28.2439 -3.019 2.80945 0
M  V30 267 H 27.5849 -0.287224 0.598664 0
M  V30 268 H 30.1149 -0.280109 2.02674 0
M  V30 269 H 30.1249 -2.34511 3.33869 0
M  V30 270 H 28.7999 -1.35689 3.93143 0
M  V30 271 H 27.3769 -2.64454 2.62904 0
M  V30 272 N 29.562 -1.4872 -0.521534 0
M  V30 273 C 30.494 -1.59968 -1.64143 0
M  V30 274 C 31.507 -0.483463 -1.55456 0
M  V30 275 O 32.696 -0.75467 -1.61762 0
M  V30 276 C 29.796 -1.52127 -3.02838 0
M  V30 277 C 28.969 -2.78932 -3.36921 0
M  V30 278 C 28.028 -2.64428 -4.54933 0
M  V30 279 O 27.054 -3.38331 -4.57735 0
M  V30 280 N 28.256 -1.74606 -5.53618 0
M  V30 281 H 31.021 -2.56548 -1.54929 0
M  V30 282 H 28.582 -1.45551 -0.708988 0
M  V30 283 H 30.574 -1.40106 -3.79674 0
M  V30 284 H 29.144 -0.634868 -3.06085 0
M  V30 285 H 28.364 -3.05455 -2.4918 0
M  V30 286 H 29.652 -3.63041 -3.56481 0
M  V30 287 H 29.05 -1.13782 -5.54139 0
M  V30 288 H 27.607 -1.6852 -6.29638 0
M  V30 289 N 31.0401 0.771051 -1.3745 0
M  V30 290 C 31.9871 1.88435 -1.3327 0
M  V30 291 C 32.9571 1.64914 -0.198136 0
M  V30 292 O 34.1421 1.86821 -0.387606 0
M  V30 293 C 31.2821 3.25509 -1.14622 0
M  V30 294 C 30.3951 3.60979 -2.37314 0
M  V30 295 C 29.5301 4.87265 -2.11533 0
M  V30 296 C 28.5691 5.15469 -3.30088 0
M  V30 297 N 27.7061 6.32944 -3.03853 0
M  V30 298 H 32.5461 1.91344 -2.28455 0
M  V30 299 H 30.0831 0.935466 -1.13523 0
M  V30 300 H 32.0411 4.04582 -1.01831 0
M  V30 301 H 30.6711 3.21974 -0.230837 0
M  V30 302 H 29.7231 2.76885 -2.60842 0
M  V30 303 H 31.0351 3.77759 -3.25729 0
M  V30 304 H 30.1891 5.74244 -1.95777 0
M  V30 305 H 28.9281 4.7259 -1.20457 0
M  V30 306 H 27.9331 4.26966 -3.46382 0
M  V30 307 H 29.1581 5.32052 -4.22016 0
M  V30 308 H 27.1041 6.19625 -2.15407 0
M  V30 309 H 27.0211 6.50143 -3.85812 0
M  V30 310 H 28.2891 7.22857 -2.91716 0
M  V30 311 N 32.5182 1.22032 0.997298 0
M  V30 312 C 33.7952 0.950823 1.70935 0
M  V30 313 C 34.1752 -0.535292 2.042 0
M  V30 314 O 33.5232 -1.50217 1.72183 0
M  V30 315 C 33.7332 1.84386 2.96315 0
M  V30 316 C 35.0812 2.09732 3.69185 0
M  V30 317 O 36.1052 1.81798 3.06314 0
M  V30 318 O 34.9642 2.57018 4.82291 0
M  V30 319 H 32.0582 0.357204 0.745878 0
M  V30 320 H 34.6042 1.32997 1.05404 0
M  V30 321 H 33.3762 2.84928 2.68201 0
M  V30 322 H 32.9992 1.46602 3.69586 0
M  V30 323 N 33.9963 -1.19345 1.0293 0
M  V30 324 C 35.2423 -1.89318 0.727083 0
M  V30 325 C 35.5753 -1.79446 -0.742483 0
M  V30 326 O 34.8503 -1.1871 -1.54072 0
M  V30 327 C 35.1333 -3.40238 1.17942 0
M  V30 328 C 34.9863 -3.58979 2.71024 0
M  V30 329 C 36.3053 -4.33479 0.760548 0
M  V30 330 H 33.4243 -0.687475 0.265606 0
M  V30 331 H 36.0663 -1.40477 1.2793 0
M  V30 332 H 34.2163 -3.81964 0.709608 0
M  V30 333 H 35.8883 -3.26421 3.25955 0
M  V30 334 H 34.1313 -3.02018 3.11396 0
M  V30 335 H 34.8023 -4.64823 2.9773 0
M  V30 336 H 37.2783 -3.99469 1.16464 0
M  V30 337 H 36.1543 -5.37664 1.10493 0
M  V30 338 H 36.4153 -4.40813 -0.337063 0
M  V30 339 N 35.4744 -0.807222 -1.35358 0
M  V30 340 C 36.4044 -0.232509 -2.3234 0
M  V30 341 C 37.3854 0.642386 -1.57504 0
M  V30 342 O 38.5704 0.572526 -1.85569 0
M  V30 343 C 35.7004 0.619238 -3.41735 0
M  V30 344 C 34.6544 -0.157215 -4.27711 0
M  V30 345 C 33.9804 0.816273 -5.28433 0
M  V30 346 C 35.2804 -1.35656 -5.04376 0
M  V30 347 H 36.9744 -1.04276 -2.80654 0
M  V30 348 H 34.5204 -0.50288 -1.34934 0
M  V30 349 H 36.4734 1.03137 -4.08584 0
M  V30 350 H 35.1974 1.46239 -2.92031 0
M  V30 351 H 33.8564 -0.550525 -3.62443 0
M  V30 352 H 33.5044 1.65494 -4.74996 0
M  V30 353 H 33.2044 0.301067 -5.86828 0
M  V30 354 H 34.7284 1.22659 -5.98153 0
M  V30 355 H 36.1424 -1.01927 -5.64166 0
M  V30 356 H 34.5394 -1.8063 -5.7227 0
M  V30 357 H 35.6094 -2.14288 -4.34981 0
M  V30 358 N 36.9525 1.47285 -0.560781 0
M  V30 359 C 38.1925 2.0436 -0.0404627 0
M  V30 360 C 38.5565 1.42534 1.28639 0
M  V30 361 O 39.7575 1.90677 1.89462 0
M  V30 362 C 38.0285 3.57369 0.0471856 0
M  V30 363 S 39.5875 4.3579 0.513109 0
M  V30 364 H 36.4055 0.710492 -0.0268674 0
M  V30 365 H 39.0075 1.80611 -0.748323 0
M  V30 366 H 37.7115 3.9989 -0.922817 0
M  V30 367 H 37.2425 3.8562 0.778491 0
M  V30 368 H 39.2575 4.63476 1.77212 0
M  V30 369 N 38.4306 0.297415 1.54768 0
M  V30 370 C 39.6766 -0.313376 2.00364 0
M  V30 371 C 40.0096 -1.53815 1.18553 0
M  V30 372 O 39.2846 -1.92739 0.261103 0
M  V30 373 C 39.5676 -0.673525 3.53745 0
M  V30 374 C 39.4206 0.560133 4.46299 0
M  V30 375 C 40.7396 -1.50143 4.13697 0
M  V30 376 H 37.8586 -0.112428 0.728374 0
M  V30 377 H 40.5006 0.4088 1.8555 0
M  V30 378 H 38.6506 -1.28881 3.665 0
M  V30 379 H 40.3226 1.19863 4.45455 0
M  V30 380 H 38.5656 1.19405 4.17043 0
M  V30 381 H 39.2366 0.26405 5.51368 0
M  V30 382 H 41.7126 -0.981588 4.04356 0
M  V30 383 H 40.5886 -1.72221 5.21182 0
M  V30 384 H 40.8496 -2.48952 3.65343 0
M  V30 385 N 39.9087 -1.5758 0.0250728 0
M  V30 386 C 41.1487 -1.93497 -0.65865 0
M  V30 387 C 41.5127 -0.901409 -1.69525 0
M  V30 388 O 42.7137 -1.14664 -2.43116 0
M  V30 389 C 40.9847 -3.34352 -1.26267 0
M  V30 390 S 42.5437 -3.92191 -1.96803 0
M  V30 391 H 39.3617 -0.67709 -0.216958 0
M  V30 392 H 41.9637 -1.95303 0.0877692 0
M  V30 393 H 40.6677 -4.07395 -0.495741 0
M  V30 394 H 40.1987 -3.3598 -2.04648 0
M  V30 395 H 42.2137 -3.75298 -3.24601 0
M  V30 396 N 41.3868 0.248026 -1.55636 0
M  V30 397 C 42.6118 0.998028 -1.81808 0
M  V30 398 C 43.0368 1.78207 -0.601979 0
M  V30 399 O 42.3948 1.75653 0.448961 0
M  V30 400 C 42.4428 1.9125 -3.05705 0
M  V30 401 O 41.5468 3.00406 -2.82542 0
M  V30 402 H 40.8878 0.284045 -0.600179 0
M  V30 403 H 43.4178 0.269357 -2.02819 0
M  V30 404 H 43.4278 2.32737 -3.35108 0
M  V30 405 H 42.1028 1.33602 -3.93857 0
M  V30 406 H 40.6798 2.63056 -2.64303 0
M  V30 407 N 42.8649 1.48995 0.513639 0
M  V30 408 C 44.0899 1.61792 1.29762 0
M  V30 409 C 44.5149 0.284475 1.85936 0
M  V30 410 O 43.8729 -0.746185 1.65232 0
M  V30 411 C 43.9209 2.67993 2.41272 0
M  V30 412 O 43.0249 2.26287 3.44772 0
M  V30 413 H 42.3659 0.541963 0.38363 0
M  V30 414 H 44.8959 1.95097 0.616307 0
M  V30 415 H 44.9059 2.89772 2.87221 0
M  V30 416 H 43.5809 3.64791 1.9975 0
M  V30 417 H 42.1579 2.14788 3.04829 0
M  V30 418 N 44.343 -0.763751 1.37857 0
M  V30 419 C 45.29 -1.87726 1.34267 0
M  V30 420 C 46.26 -1.64807 0.206879 0
M  V30 421 O 47.445 -1.86613 0.397508 0
M  V30 422 C 44.585 -3.24896 1.16346 0
M  V30 423 C 43.698 -3.59716 2.39225 0
M  V30 424 C 42.833 -4.86137 2.14114 0
M  V30 425 C 41.872 -5.13711 3.32817 0
M  V30 426 N 41.009 -6.31323 3.07206 0
M  V30 427 H 45.849 -1.90129 2.29466 0
M  V30 428 H 43.386 -0.929433 1.14017 0
M  V30 429 H 45.344 -4.04036 1.03975 0
M  V30 430 H 43.974 -3.21847 0.247909 0
M  V30 431 H 43.026 -2.75498 2.62307 0
M  V30 432 H 44.338 -3.76027 3.27728 0
M  V30 433 H 43.492 -5.73198 1.9882 0
M  V30 434 H 42.231 -4.71945 1.22961 0
M  V30 435 H 41.236 -4.25123 3.48641 0
M  V30 436 H 42.461 -5.29807 4.24832 0
M  V30 437 H 40.407 -6.18474 2.1869 0
M  V30 438 H 40.324 -6.48087 3.89254 0
M  V30 439 H 41.592 -7.213 2.95546 0
M  V30 440 N 45.8211 -1.22559 -0.990812 0
M  V30 441 C 47.0491 -1.07779 -1.76611 0
M  V30 442 C 47.4641 0.371513 -1.85109 0
M  V30 443 O 46.8211 1.25737 -1.32274 0
M  V30 444 C 46.8721 -1.68512 -3.19822 0
M  V30 445 O 46.5931 -3.07774 -3.1178 0
M  V30 446 C 48.0941 -1.59035 -4.13791 0
M  V30 447 H 45.3141 -0.377729 -0.554583 0
M  V30 448 H 47.8581 -1.62195 -1.24551 0
M  V30 449 H 46.0131 -1.18154 -3.68942 0
M  V30 450 H 46.4271 -3.37062 -4.01858 0
M  V30 451 H 47.9011 -2.0625 -5.1202 0
M  V30 452 H 48.3781 -0.547273 -4.35777 0
M  V30 453 H 48.9841 -2.08709 -3.70568 0
M  V30 454 N 47.2992 1.18797 -1.03562 0
M  V30 455 C 48.7152 1.40671 -0.753917 0
M  V30 456 C 48.9152 1.9043 0.658686 0
M  V30 457 O 47.9712 2.08538 1.42366 0
M  V30 458 C 49.2842 2.41192 -1.79574 0
M  V30 459 C 50.8322 2.54928 -1.81606 0
M  V30 460 C 51.3072 3.58709 -2.84766 0
M  V30 461 N 52.7982 3.66212 -2.83625 0
M  V30 462 C 53.5332 4.46225 -3.60098 0
M  V30 463 N 53.0292 5.29888 -4.46308 0
M  V30 464 N 54.8222 4.40939 -3.4861 0
M  V30 465 H 46.9732 0.848221 -1.94728 0
M  V30 466 H 49.2362 0.435081 -0.842264 0
M  V30 467 H 48.9422 2.11669 -2.80872 0
M  V30 468 H 48.8162 3.40467 -1.62365 0
M  V30 469 H 51.2032 2.83771 -0.809817 0
M  V30 470 H 51.2842 1.55784 -2.02891 0
M  V30 471 H 50.9282 3.30607 -3.85566 0
M  V30 472 H 50.8582 4.57519 -2.60737 0
M  V30 473 H 53.3492 3.06466 -2.21105 0
M  V30 474 H 53.6622 5.88078 -5.01382 0
M  V30 475 H 52.0072 5.29326 -4.50377 0
M  V30 476 H 55.1982 3.74624 -2.80668 0
M  V30 477 H 55.3712 5.03056 -4.08459 0
M  V30 478 N 48.7773 0.814389 1.34928 0
M  V30 479 C 50.0233 0.399013 1.98836 0
M  V30 480 C 50.3563 -1.03314 1.64438 0
M  V30 481 O 49.6313 -1.71811 0.911659 0
M  V30 482 C 49.9143 0.591629 3.55207 0
M  V30 483 C 49.7673 2.06928 3.99376 0
M  V30 484 C 51.0863 0.022199 4.40094 0
M  V30 485 H 48.2053 0.146451 0.722303 0
M  V30 486 H 50.8473 1.02537 1.59957 0
M  V30 487 H 48.9973 0.0584441 3.88456 0
M  V30 488 H 50.6693 2.66544 3.76499 0
M  V30 489 H 48.9123 2.56287 3.49999 0
M  V30 490 H 49.5833 2.1549 5.08201 0
M  V30 491 H 52.0593 0.477643 4.13349 0
M  V30 492 H 50.9353 0.186832 5.48582 0
M  V30 493 H 51.1963 -1.07215 4.28902 0
M  V30 494 N 50.2554 -1.46986 0.568584 0
M  V30 495 C 51.6664 -1.86188 0.138219 0
M  V30 496 C 52.0174 -1.47388 -1.29504 0
M  V30 497 O 51.1424 -0.88219 -1.97602 0
M  V30 498 C 51.7374 -3.3792 0.244065 0
M  V30 499 C 50.2964 -3.76171 -0.131335 0
M  V30 500 C 49.4434 -2.71027 0.586465 0
M  V30 501 H 52.3944 -1.38342 0.777645 0
M  V30 502 H 52.4154 -3.76729 -0.534351 0
M  V30 503 H 51.9274 -3.66128 1.28731 0
M  V30 504 H 50.0284 -3.5358 -1.17526 0
M  V30 505 H 50.1414 -4.78523 0.235146 0
M  V30 506 H 48.5054 -2.54684 0.0282722 0
M  V30 507 H 49.2884 -3.02077 1.63109 0
M  V30 508 N 51.7335 -0.305618 -1.54608 0
M  V30 509 C 53.1445 0.186098 -1.8577 0
M  V30 510 C 53.4955 1.53058 -1.22751 0
M  V30 511 O 52.6205 2.09888 -0.526893 0
M  V30 512 C 53.2155 0.344449 -3.37044 0
M  V30 513 C 51.7745 0.780384 -3.68221 0
M  V30 514 C 50.9215 -0.108554 -2.77087 0
M  V30 515 H 53.8725 -0.526485 -1.49712 0
M  V30 516 H 53.8935 1.17828 -3.61796 0
M  V30 517 H 53.4055 -0.634235 -3.82883 0
M  V30 518 H 51.5065 1.76945 -3.27904 0
M  V30 519 H 51.6195 0.596572 -4.75371 0
M  V30 520 H 49.9835 0.412931 -2.5133 0
M  V30 521 H 50.7665 -1.08368 -3.25747 0
M  V30 522 N 53.2116 1.57565 -0.0334293 0
M  V30 523 C 54.4576 1.92262 0.645226 0
M  V30 524 C 54.7906 0.910543 1.71531 0
M  V30 525 O 54.0656 -0.066099 1.94388 0
M  V30 526 C 54.3486 3.37422 1.2577 0
M  V30 527 C 54.2016 4.49369 0.196891 0
M  V30 528 C 55.5206 3.82628 2.17449 0
M  V30 529 H 52.6396 0.699171 0.233085 0
M  V30 530 H 55.2816 1.89779 -0.0915694 0
M  V30 531 H 53.4316 3.39669 1.88566 0
M  V30 532 H 55.1036 4.59254 -0.433962 0
M  V30 533 H 53.3466 4.31168 -0.477137 0
M  V30 534 H 54.0176 5.47978 0.665124 0
M  V30 535 H 56.4936 3.82145 1.64634 0
M  V30 536 H 55.3696 4.84883 2.57254 0
M  V30 537 H 55.6306 3.18376 3.0674 0
M  V30 538 N 54.6897 -0.239769 1.55765 0
M  V30 539 C 55.6197 -1.30052 1.9393 0
M  V30 540 C 56.6007 -1.49839 0.805132 0
M  V30 541 O 57.7857 -1.62328 1.06599 0
M  V30 542 C 54.9157 -2.65391 2.2402 0
M  V30 543 C 53.8697 -2.60289 3.39755 0
M  V30 544 C 53.1957 -3.99489 3.55405 0
M  V30 545 C 54.4957 -2.16654 4.75246 0
M  V30 546 H 56.1897 -0.983573 2.82783 0
M  V30 547 H 53.7357 -0.471701 1.36055 0
M  V30 548 H 55.6887 -3.3974 2.49308 0
M  V30 549 H 54.4127 -2.98736 1.32 0
M  V30 550 H 53.0717 -1.88398 3.14487 0
M  V30 551 H 52.7197 -4.30112 2.60793 0
M  V30 552 H 52.4197 -3.96962 4.33238 0
M  V30 553 H 53.9437 -4.75528 3.83022 0
M  V30 554 H 55.3577 -2.80737 4.99859 0
M  V30 555 H 53.7547 -2.25223 5.56232 0
M  V30 556 H 54.8247 -1.11835 4.71827 0
M  V30 557 N 56.1678 -1.49265 -0.50573 0
M  V30 558 C 57.4138 -1.58748 -1.26202 0
M  V30 559 C 57.7468 -0.271227 -1.92297 0
M  V30 560 O 57.0218 0.724831 -1.80489 0
M  V30 561 C 57.3048 -2.74332 -2.33268 0
M  V30 562 C 57.1578 -4.15737 -1.71705 0
M  V30 563 C 58.4768 -2.85576 -3.34865 0
M  V30 564 H 55.5958 -0.577826 -0.457478 0
M  V30 565 H 58.2378 -1.81532 -0.560897 0
M  V30 566 H 56.3878 -2.55036 -2.93068 0
M  V30 567 H 58.0598 -4.46537 -1.15769 0
M  V30 568 H 56.3028 -4.21605 -1.02135 0
M  V30 569 H 56.9738 -4.92477 -2.49341 0
M  V30 570 H 59.4498 -3.03127 -2.8505 0
M  V30 571 H 58.3258 -3.68135 -4.07146 0
M  V30 572 H 58.5868 -1.94732 -3.96903 0
M  V30 573 N 57.6459 0.756429 -1.3826 0
M  V30 574 C 58.8919 1.51772 -1.34511 0
M  V30 575 C 59.2249 1.94089 0.0656691 0
M  V30 576 O 58.4999 1.65221 1.02626 0
M  V30 577 C 58.7829 2.77226 -2.29821 0
M  V30 578 C 58.6359 2.41065 -3.79747 0
M  V30 579 C 59.9549 3.79236 -2.23312 0
M  V30 580 H 57.0739 0.550578 -0.489931 0
M  V30 581 H 59.7159 0.866607 -1.69086 0
M  V30 582 H 57.8659 3.32784 -2.00467 0
M  V30 583 H 59.5379 1.91303 -4.19763 0
M  V30 584 H 57.7809 1.7356 -3.97567 0
M  V30 585 H 58.4519 3.3081 -4.41892 0
M  V30 586 H 60.9279 3.3321 -2.49219 0
M  V30 587 H 59.8039 4.64714 -2.92116 0
M  V30 588 H 60.0649 4.24615 -1.23102 0
M  V30 589 N 59.124 1.23083 0.984299 0
M  V30 590 C 60.034 1.02515 2.11016 0
M  V30 591 C 61.05 -0.0291702 1.73976 0
M  V30 592 O 62.226 0.165434 2.00719 0
M  V30 593 C 59.291 0.614673 3.41208 0
M  V30 594 C 58.352 1.74359 3.92297 0
M  V30 595 C 57.585 1.35261 5.16275 0
M  V30 596 O 57.808 0.235136 5.69915 0
M  V30 597 O 56.742 2.17227 5.61334 0
M  V30 598 H 60.568 1.96862 2.31255 0
M  V30 599 H 58.153 1.01753 1.09392 0
M  V30 600 H 60.035 0.396518 4.1953 0
M  V30 601 H 58.71 -0.299851 3.22308 0
M  V30 602 H 57.617 2.01635 3.1511 0
M  V30 603 H 58.95 2.63629 4.15645 0
M  V30 604 N 60.6021 -1.18246 1.0419 0
M  V30 605 C 61.5351 -2.20746 0.578474 0
M  V30 606 C 62.5131 -1.57912 -0.387624 0
M  V30 607 O 63.6971 -1.86071 -0.301634 0
M  V30 608 C 60.8241 -3.38346 -0.154762 0
M  V30 609 C 59.8701 -4.19587 0.764782 0
M  V30 610 S 60.7031 -4.86014 2.24835 0
M  V30 611 C 61.8591 -6.07012 1.526 0
M  V30 612 H 62.0921 -2.59715 1.44691 0
M  V30 613 H 59.6251 -1.287 0.85297 0
M  V30 614 H 61.5831 -4.065 -0.571641 0
M  V30 615 H 60.2441 -2.97786 -0.999105 0
M  V30 616 H 59.4371 -5.03611 0.197976 0
M  V30 617 H 59.0391 -3.56818 1.12057 0
M  V30 618 H 61.3311 -6.72523 0.819733 0
M  V30 619 H 62.2741 -6.68202 2.34333 0
M  V30 620 H 62.6821 -5.55249 1.01779 0
M  V30 621 N 62.0802 -0.821533 -1.34494 0
M  V30 622 C 63.3052 -0.420873 -2.03085 0
M  V30 623 C 63.7302 0.964915 -1.61465 0
M  V30 624 O 63.0882 1.62763 -0.798607 0
M  V30 625 C 63.1362 -0.529414 -3.56693 0
M  V30 626 O 62.2402 0.451302 -4.09923 0
M  V30 627 H 61.5812 -0.173489 -0.640935 0
M  V30 628 H 64.1112 -1.11157 -1.71771 0
M  V30 629 H 64.1212 -0.404671 -4.05988 0
M  V30 630 H 62.7962 -1.54014 -3.86332 0
M  V30 631 H 61.3732 0.285558 -3.71805 0
M  V30 632 N 63.5583 1.46682 -0.576371 0
M  V30 633 C 64.4903 2.28341 0.198231 0
M  V30 634 C 65.5033 1.38141 0.861453 0
M  V30 635 O 66.6923 1.62797 0.732082 0
M  V30 636 C 63.7923 3.12986 1.29972 0
M  V30 637 C 62.9653 4.31271 0.729639 0
M  V30 638 C 62.0243 4.97363 1.71803 0
M  V30 639 O 61.0503 5.55156 1.25658 0
M  V30 640 N 62.2523 4.93796 3.05198 0
M  V30 641 H 65.0173 2.9546 -0.502324 0
M  V30 642 H 62.5783 1.56525 -0.413715 0
M  V30 643 H 64.5703 3.54066 1.96008 0
M  V30 644 H 63.1403 2.47984 1.90323 0
M  V30 645 H 62.3603 3.94052 -0.108012 0
M  V30 646 H 63.6483 5.07739 0.328438 0
M  V30 647 H 63.0463 4.48077 3.45317 0
M  V30 648 H 61.6033 5.38837 3.6674 0
M  V30 649 N 65.0364 0.313813 1.54444 0
M  V30 650 C 66.2644 -0.293918 2.04802 0
M  V30 651 C 66.6794 -1.46537 1.19047 0
M  V30 652 O 66.0364 -1.81182 0.218939 0
M  V30 653 C 66.0874 -0.737806 3.53891 0
M  V30 654 O 65.8084 0.387038 4.36387 0
M  V30 655 C 67.3094 -1.40936 4.203 0
M  V30 656 H 64.5294 -0.0620057 0.668129 0
M  V30 657 H 67.0734 0.457169 1.99324 0
M  V30 658 H 65.2284 -1.43889 3.59687 0
M  V30 659 H 65.6424 0.0391274 5.24485 0
M  V30 660 H 67.1164 -1.67099 5.26101 0
M  V30 661 H 67.5934 -2.35355 3.70816 0
M  V30 662 H 68.1994 -0.751117 4.18615 0
M  V30 663 N 66.5145 -1.57545 0.0417849 0
M  V30 664 C 67.7395 -1.97035 -0.647455 0
M  V30 665 C 68.1645 -0.918775 -1.64135 0
M  V30 666 O 67.5225 0.119006 -1.80909 0
M  V30 667 C 67.5705 -3.35609 -1.31905 0
M  V30 668 O 66.6745 -3.3287 -2.43457 0
M  V30 669 H 66.0155 -0.64211 -0.169086 0
M  V30 670 H 68.5455 -2.04318 0.107399 0
M  V30 671 H 68.5555 -3.72126 -1.67291 0
M  V30 672 H 67.2305 -4.11685 -0.590586 0
M  V30 673 H 65.8075 -3.08087 -2.10088 0
M  V30 674 N 67.9926 0.231505 -1.5589 0
M  V30 675 C 69.2176 0.978689 -1.82856 0
M  V30 676 C 69.6426 1.77559 -0.620846 0
M  V30 677 O 69.0006 1.76119 0.430305 0
M  V30 678 C 69.0486 1.87997 -3.07716 0
M  V30 679 O 68.1526 2.97393 -2.85712 0
M  V30 680 H 67.4936 0.277663 -0.603158 0
M  V30 681 H 70.0236 0.24783 -2.03093 0
M  V30 682 H 70.0336 2.2917 -3.37558 0
M  V30 683 H 68.7086 1.29417 -3.95252 0
M  V30 684 H 67.2856 2.60238 -2.67078 0
M  V30 685 N 69.4707 1.49531 0.497807 0
M  V30 686 C 70.7197 1.58426 1.24837 0
M  V30 687 C 71.0327 0.277643 1.93619 0
M  V30 688 O 72.2387 0.24517 2.70391 0
M  V30 689 C 70.6947 2.79538 2.26686 0
M  V30 690 C 70.3027 4.16971 1.63828 0
M  V30 691 C 72.0467 2.97764 3.0255 0
M  V30 692 C 69.9537 5.29301 2.63807 0
M  V30 693 H 68.8837 0.58989 0.469623 0
M  V30 694 H 71.5347 1.75923 0.521857 0
M  V30 695 H 69.9167 2.55542 3.02514 0
M  V30 696 H 71.0907 4.51116 0.939711 0
M  V30 697 H 69.4057 4.04129 1.00342 0
M  V30 698 H 72.0027 3.78856 3.77323 0
M  V30 699 H 72.3457 2.08448 3.60354 0
M  V30 700 H 72.8787 3.21815 2.33838 0
M  V30 701 H 69.6177 6.20687 2.10779 0
M  V30 702 H 69.1377 4.99606 3.31894 0
M  V30 703 H 70.8167 5.58768 3.2617 0
M  V30 704 N 70.9488 -0.749086 1.3866 0
M  V30 705 C 72.1968 -1.50535 1.34847 0
M  V30 706 C 72.5178 -1.94909 -0.0595016 0
M  V30 707 O 71.7878 -1.67973 -1.00806 0
M  V30 708 H 70.3678 -0.558395 0.49619 0
M  V30 709 H 73.0298 -0.890165 1.73384 0
M  V30 710 H 72.1258 -2.39413 2.00219 0
M  V30 711 N 72.4269 -1.23603 -0.977757 0
M  V30 712 C 73.6519 -1.09735 -1.75991 0
M  V30 713 C 74.0769 0.346858 -1.84874 0
M  V30 714 O 73.4349 1.25093 -1.3123 0
M  V30 715 C 73.4829 -1.73051 -3.16363 0
M  V30 716 O 72.5869 -0.994452 -4.0023 0
M  V30 717 H 71.9279 -0.384476 -0.541364 0
M  V30 718 H 74.4579 -1.6371 -1.2272 0
M  V30 719 H 74.4679 -1.78398 -3.66931 0
M  V30 720 H 73.1429 -2.78137 -3.09213 0
M  V30 721 H 71.7199 -1.01812 -3.58732 0
M  V30 722 N 73.905 1.17692 -1.04816 0
M  V30 723 C 74.868 2.19787 -0.650117 0
M  V30 724 C 75.868 1.58044 0.296427 0
M  V30 725 O 77.058 1.74012 0.0808097 0
M  V30 726 C 74.19 3.40869 0.0456987 0
M  V30 727 H 75.383 2.56516 -1.5537 0
M  V30 728 H 72.936 1.31708 -0.841594 0
M  V30 729 H 73.671 3.09681 0.962726 0
M  V30 730 H 73.456 3.86928 -0.634727 0
M  V30 731 H 74.946 4.16445 0.310432 0
M  V30 732 N 75.3831 0.828654 1.34056 0
M  V30 733 C 76.2931 0.256725 2.33191 0
M  V30 734 C 77.3091 -0.611898 1.62886 0
M  V30 735 O 78.4851 -0.51844 1.94613 0
M  V30 736 C 75.5501 -0.567238 3.42028 0
M  V30 737 C 74.6111 0.324458 4.28072 0
M  V30 738 C 73.8441 -0.460274 5.31712 0
M  V30 739 O 74.0671 -1.693 5.44696 0
M  V30 740 O 73.0011 0.160391 6.01686 0
M  V30 741 H 76.8271 1.07739 2.83947 0
M  V30 742 H 74.4121 0.59093 1.37217 0
M  V30 743 H 76.2941 -1.03582 4.08471 0
M  V30 744 H 74.9691 -1.36513 2.93506 0
M  V30 745 H 73.8761 0.840659 3.64532 0
M  V30 746 H 75.2091 1.08685 4.8005 0
M  V30 747 N 76.8612 -1.46375 0.584142 0
M  V30 748 C 78.0862 -2.07268 0.0740405 0
M  V30 749 C 78.5112 -1.42979 -1.22223 0
M  V30 750 O 77.8692 -0.514092 -1.73859 0
M  V30 751 C 77.9172 -3.60518 -0.0767769 0
M  V30 752 O 77.0212 -3.96533 -1.13292 0
M  V30 753 H 76.3622 -0.660961 0.0634524 0
M  V30 754 H 78.8922 -1.87991 0.807492 0
M  V30 755 H 78.9022 -4.07021 -0.282489 0
M  V30 756 H 77.5772 -4.06702 0.86986 0
M  V30 757 H 76.1542 -3.61738 -0.905553 0
M  V30 758 N 78.3393 -0.321999 -1.54275 0
M  V30 759 C 79.2693 0.537411 -2.27231 0
M  V30 760 C 80.2503 1.12064 -1.27968 0
M  V30 761 O 81.4353 1.14606 -1.56777 0
M  V30 762 C 78.5653 1.69919 -3.02894 0
M  V30 763 C 77.5193 1.24534 -4.09482 0
M  V30 764 C 76.8453 2.49394 -4.72977 0
M  V30 765 C 78.1453 0.361335 -5.21049 0
M  V30 766 H 79.8393 -0.0711406 -2.99315 0
M  V30 767 H 77.3853 -0.0356555 -1.43956 0
M  V30 768 H 79.3383 2.30668 -3.52662 0
M  V30 769 H 78.0623 2.33431 -2.28424 0
M  V30 770 H 76.7213 0.660782 -3.60596 0
M  V30 771 H 76.3693 3.11265 -3.95124 0
M  V30 772 H 76.0693 2.19718 -5.44975 0
M  V30 773 H 77.5933 3.10908 -5.25517 0
M  V30 774 H 79.0073 0.875072 -5.66582 0
M  V30 775 H 77.4043 0.157428 -5.99893 0
M  V30 776 H 78.4743 -0.60822 -4.8107 0
M  V30 777 N 79.8174 1.5752 -0.0501392 0
M  V30 778 C 81.0664 1.91827 0.623328 0
M  V30 779 C 81.3794 0.930222 1.72065 0
M  V30 780 O 82.5854 1.1653 2.4522 0
M  V30 781 C 81.0414 3.40692 1.16003 0
M  V30 782 C 80.6494 4.479 0.0948811 0
M  V30 783 C 82.3934 3.84034 1.80881 0
M  V30 784 C 80.3004 5.87879 0.644411 0
M  V30 785 H 79.2304 0.715918 0.236596 0
M  V30 786 H 81.8814 1.83115 -0.118861 0
M  V30 787 H 80.2634 3.44405 1.9545 0
M  V30 788 H 81.4374 4.55775 -0.678675 0
M  V30 789 H 79.7524 4.13892 -0.45637 0
M  V30 790 H 82.3494 4.85984 2.22988 0
M  V30 791 H 82.6924 3.20225 2.6601 0
M  V30 792 H 83.2254 3.82833 1.0809 0
M  V30 793 H 79.9644 6.55282 -0.169229 0
M  V30 794 H 79.4844 5.83567 1.38598 0
M  V30 795 H 81.1634 6.37098 1.12763 0
M  V30 796 N 81.2955 -0.223234 1.56011 0
M  V30 797 C 82.5205 -0.968978 1.83373 0
M  V30 798 C 82.9455 -1.77227 0.630254 0
M  V30 799 O 82.3035 -1.76345 -0.420959 0
M  V30 800 C 82.3515 -1.86363 3.08709 0
M  V30 801 O 81.4555 -2.95873 2.87285 0
M  V30 802 H 80.7965 -0.274461 0.604622 0
M  V30 803 H 83.3265 -0.237056 2.03222 0
M  V30 804 H 83.3365 -2.27376 3.38768 0
M  V30 805 H 82.0115 -1.27319 3.95933 0
M  V30 806 H 80.5885 -2.58818 2.68454 0
M  V30 807 N 82.7736 -1.49793 -0.48987 0
M  V30 808 C 83.7036 -1.70201 -1.59856 0
M  V30 809 C 84.6846 -0.55076 -1.60937 0
M  V30 810 O 85.8696 -0.787841 -1.77501 0
M  V30 811 C 82.9996 -1.77882 -2.98287 0
M  V30 812 C 81.9536 -2.92907 -3.12073 0
M  V30 813 C 81.2796 -2.85712 -4.51965 0
M  V30 814 C 82.5796 -4.3369 -2.91051 0
M  V30 815 H 84.2736 -2.63025 -1.43032 0
M  V30 816 H 81.8196 -1.26574 -0.686664 0
M  V30 817 H 83.7726 -1.90744 -3.75759 0
M  V30 818 H 82.4966 -0.816653 -3.16225 0
M  V30 819 H 81.1556 -2.79665 -2.37029 0
M  V30 820 H 80.8036 -1.8738 -4.66795 0
M  V30 821 H 80.5036 -3.62921 -4.62128 0
M  V30 822 H 82.0276 -3.00598 -5.31482 0
M  V30 823 H 83.4416 -4.47555 -3.58284 0
M  V30 824 H 81.8386 -5.12205 -3.12675 0
M  V30 825 H 82.9086 -4.47362 -1.87071 0
M  V30 826 N 84.2517 0.741722 -1.39055 0
M  V30 827 C 85.1617 1.88621 -1.39496 0
M  V30 828 C 86.1777 1.71557 -0.290578 0
M  V30 829 O 87.3537 1.94275 -0.530954 0
M  V30 830 C 84.4187 3.24134 -1.23037 0
M  V30 831 C 83.4797 3.5364 -2.43387 0
M  V30 832 C 82.7127 4.82687 -2.27703 0
M  V30 833 O 82.9357 5.55922 -1.27696 0
M  V30 834 O 81.8697 5.1194 -3.16545 0
M  V30 835 H 85.6957 1.91203 -2.35956 0
M  V30 836 H 83.2807 0.888625 -1.20099 0
M  V30 837 H 85.1627 4.0513 -1.15964 0
M  V30 838 H 83.8377 3.22337 -0.296691 0
M  V30 839 H 82.7447 2.72758 -2.56035 0
M  V30 840 H 84.0777 3.60209 -3.35425 0
M  V30 841 N 85.7298 1.2412 0.971189 0
M  V30 842 C 87.1458 1.00584 1.23916 0
M  V30 843 C 87.3458 -0.287481 1.99439 0
M  V30 844 O 86.4018 -1.00454 2.31658 0
M  V30 845 C 87.7148 2.21864 2.0297 0
M  V30 846 C 89.2628 2.26452 2.16076 0
M  V30 847 C 89.7378 3.47343 2.98524 0
M  V30 848 N 91.2288 3.47639 3.06107 0
M  V30 849 C 91.9638 4.37837 3.70251 0
M  V30 850 N 91.4598 5.38286 4.36142 0
M  V30 851 N 93.2528 4.25558 3.67228 0
M  V30 852 H 85.4038 2.07236 0.465499 0
M  V30 853 H 87.6668 0.909236 0.268315 0
M  V30 854 H 87.3728 3.15771 1.54861 0
M  V30 855 H 87.2468 2.23698 3.03709 0
M  V30 856 H 89.6338 1.33078 2.6339 0
M  V30 857 H 89.7148 2.28645 1.14696 0
M  V30 858 H 89.3588 4.41029 2.51905 0
M  V30 859 H 89.2888 3.42393 4.00093 0
M  V30 860 H 91.7798 2.74966 2.59233 0
M  V30 861 H 92.0928 6.03352 4.82894 0
M  V30 862 H 90.4378 5.42176 4.34822 0
M  V30 863 H 93.6288 3.46322 3.14927 0
M  V30 864 H 93.8018 4.96054 4.16935 0
M  V30 865 N 87.2079 -1.17134 1.05439 0
M  V30 866 C 88.1549 -2.21235 0.657539 0
M  V30 867 C 89.1249 -1.62551 -0.341543 0
M  V30 868 O 90.3099 -1.89379 -0.232393 0
M  V30 869 C 87.4499 -3.45076 0.0410575 0
M  V30 870 C 86.5629 -4.18042 1.08927 0
M  V30 871 C 85.6979 -5.29376 0.439848 0
M  V30 872 C 84.7369 -5.94132 1.4722 0
M  V30 873 N 83.8739 -6.96975 0.846756 0
M  V30 874 H 88.7139 -2.54534 1.54972 0
M  V30 875 H 86.2509 -1.25028 0.775006 0
M  V30 876 H 88.2089 -4.15862 -0.33383 0
M  V30 877 H 86.8389 -3.12353 -0.814568 0
M  V30 878 H 85.8909 -3.45945 1.58196 0
M  V30 879 H 87.2029 -4.62306 1.87282 0
M  V30 880 H 86.3569 -6.06699 0.0115125 0
M  V30 881 H 85.0959 -4.86251 -0.375656 0
M  V30 882 H 84.1009 -5.15538 1.91052 0
M  V30 883 H 85.3259 -6.39337 2.28965 0
M  V30 884 H 83.2719 -6.5598 0.0518075 0
M  V30 885 H 83.1889 -7.39565 1.5678 0
M  V30 886 H 84.4569 -7.78239 0.443277 0
M  V30 887 N 88.686 -0.835752 -1.33615 0
M  V30 888 C 89.633 -0.26473 -2.29277 0
M  V30 889 C 90.603 0.617712 -1.54187 0
M  V30 890 O 91.788 0.556641 -1.825 0
M  V30 891 C 88.928 0.556777 -3.40579 0
M  V30 892 C 88.041 -0.349339 -4.30585 0
M  V30 893 C 87.176 0.482969 -5.29 0
M  V30 894 C 86.215 -0.421732 -6.10645 0
M  V30 895 N 85.352 0.372262 -7.01112 0
M  V30 896 H 90.192 -1.08582 -2.77514 0
M  V30 897 H 87.729 -0.546927 -1.36554 0
M  V30 898 H 89.687 1.04852 -4.03809 0
M  V30 899 H 88.317 1.34286 -2.93542 0
M  V30 900 H 87.369 -0.959372 -3.68104 0
M  V30 901 H 88.681 -1.04445 -4.87742 0
M  V30 902 H 87.835 1.03866 -5.97743 0
M  V30 903 H 86.574 1.21153 -4.72412 0
M  V30 904 H 85.579 -0.989464 -5.40823 0
M  V30 905 H 86.804 -1.14861 -6.69316 0
M  V30 906 H 84.75 1.08426 -6.46977 0
M  V30 907 H 84.667 -0.264198 -7.55538 0
M  V30 908 H 85.935 0.910293 -7.74167 0
M  V30 909 N 90.1641 1.46063 -0.591896 0
M  V30 910 C 91.0741 2.34192 0.13831 0
M  V30 911 C 92.0901 1.50305 0.876608 0
M  V30 912 O 93.2661 1.8315 0.837728 0
M  V30 913 C 90.3311 3.27656 1.13326 0
M  V30 914 C 89.3921 4.27445 0.39863 0
M  V30 915 C 88.6251 5.16443 1.34618 0
M  V30 916 O 88.8481 5.08553 2.58321 0
M  V30 917 O 87.7821 5.95843 0.851768 0
M  V30 918 H 91.6081 2.98002 -0.58552 0
M  V30 919 H 89.1931 1.45188 -0.352239 0
M  V30 920 H 91.0751 3.85291 1.70671 0
M  V30 921 H 89.7501 2.6643 1.83839 0
M  V30 922 H 88.6571 3.73471 -0.216895 0
M  V30 923 H 89.9901 4.91482 -0.265709 0
M  V30 924 N 91.6422 0.330177 1.54103 0
M  V30 925 C 92.5892 -0.532762 2.24567 0
M  V30 926 C 93.5592 -1.10635 1.23892 0
M  V30 927 O 94.7442 -1.14546 1.5259 0
M  V30 928 C 91.8842 -1.6845 3.01195 0
M  V30 929 C 90.9972 -1.13951 4.167 0
M  V30 930 C 90.1322 -2.25746 4.80845 0
M  V30 931 C 89.1712 -1.6853 5.88442 0
M  V30 932 N 88.3082 -2.74014 6.46421 0
M  V30 933 H 93.1482 0.0746905 2.97906 0
M  V30 934 H 90.6852 0.048632 1.4702 0
M  V30 935 H 92.6432 -2.36234 3.43874 0
M  V30 936 H 91.2732 -2.26314 2.30178 0
M  V30 937 H 90.3252 -0.35301 3.78758 0
M  V30 938 H 91.6372 -0.680892 4.94131 0
M  V30 939 H 90.7912 -3.01422 5.26526 0
M  V30 940 H 89.5302 -2.74947 4.0281 0
M  V30 941 H 88.5352 -0.913543 5.42157 0
M  V30 942 H 89.7602 -1.20198 6.68378 0
M  V30 943 H 87.7062 -3.22494 5.71256 0
M  V30 944 H 87.6232 -2.32735 7.19285 0
M  V30 945 H 88.8912 -3.49499 6.96757 0
M  V30 946 N 93.1203 -1.57491 0.0584922 0
M  V30 947 C 94.0683 -2.13148 -0.931168 0
M  V30 948 C 95.0623 -1.06507 -1.31729 0
M  V30 949 O 96.2683 -1.24906 -1.29609 0
M  V30 950 H 92.6433 -0.68137 -0.31818 0
M  V30 951 H 94.6143 -2.95187 -0.436707 0
M  V30 952 C 93.3633 -2.69732 -2.19408 0
M  V30 953 H 92.6863 -3.51454 -1.90578 0
M  V30 954 H 94.1263 -3.12287 -2.86798 0
M  V30 955 C 92.5853 -1.63855 -2.94369 0
M  V30 956 O 93.1153 -1.05565 -3.87581 0
M  V30 957 N 91.3213 -1.35202 -2.57233 0
M  V30 958 H 90.8683 -1.82791 -1.81508 0
M  V30 959 H 90.8263 -0.645922 -3.07693 0
M  V30 960 N 94.5984 0.214957 -1.56127 0
M  V30 961 C 95.8474 0.936451 -1.78643 0
M  V30 962 C 96.1604 1.85237 -0.628229 0
M  V30 963 O 97.3664 2.613 -0.737186 0
M  V30 964 C 95.8224 1.7154 -3.16389 0
M  V30 965 C 95.4304 0.845299 -4.39953 0
M  V30 966 C 97.1744 2.42772 -3.48227 0
M  V30 967 C 95.0814 1.62198 -5.68723 0
M  V30 968 H 94.0114 0.353401 -0.666051 0
M  V30 969 H 96.6624 0.190169 -1.82512 0
M  V30 970 H 95.0444 2.50484 -3.06715 0
M  V30 971 H 96.2184 0.0959353 -4.607 0
M  V30 972 H 94.5334 0.244789 -4.1568 0
M  V30 973 H 97.1304 3.01394 -4.41663 0
M  V30 974 H 97.4734 3.15984 -2.71035 0
M  V30 975 H 98.0064 1.70813 -3.5926 0
M  V30 976 H 94.7454 0.933011 -6.48826 0
M  V30 977 H 94.2654 2.34579 -5.52026 0
M  V30 978 H 95.9444 2.18095 -6.09133 0
M  V30 979 N 96.0765 1.50051 0.48192 0
M  V30 980 C 97.0245 1.68635 1.60203 0
M  V30 981 C 98.0185 0.552184 1.60148 0
M  V30 982 O 99.2245 0.732377 1.64427 0
M  V30 983 H 95.5995 0.532081 0.531407 0
M  V30 984 H 97.5705 2.62616 1.41688 0
M  V30 985 C 96.3195 1.78775 2.9822 0
M  V30 986 H 95.6425 2.6543 2.98976 0
M  V30 987 H 97.0825 1.95806 3.7608 0
M  V30 988 C 95.5415 0.536849 3.32595 0
M  V30 989 O 96.0715 -0.328897 4.00351 0
M  V30 990 N 94.2775 0.394091 2.87915 0
M  V30 991 H 93.8245 1.09962 2.32951 0
M  V30 992 H 93.7825 -0.441737 3.11281 0
M  V30 993 N 97.5546 -0.734337 1.39446 0
M  V30 994 C 98.9706 -1.03997 1.21065 0
M  V30 995 C 99.1706 -2.01369 0.0727019 0
M  V30 996 O 98.2266 -2.45856 -0.575426 0
M  V30 997 C 99.5396 -1.60163 2.54496 0
M  V30 998 C 101.088 -1.7224 2.61347 0
M  V30 999 C 101.563 -2.31814 3.95002 0
M  V30 1000 N 103.054 -2.39223 3.96644 0
M  V30 1001 C 103.789 -2.86258 4.96834 0
M  V30 1002 N 103.285 -3.33184 6.07421 0
M  V30 1003 N 105.078 -2.85473 4.84213 0
M  V30 1004 H 97.2286 -0.0885624 2.12215 0
M  V30 1005 H 99.4916 -0.10191 0.942506 0
M  V30 1006 H 99.1976 -0.960811 3.38321 0
M  V30 1007 H 99.0716 -2.5896 2.74262 0
M  V30 1008 H 101.459 -2.35443 1.77906 0
M  V30 1009 H 101.54 -0.720939 2.4543 0
M  V30 1010 H 101.184 -1.69238 4.78875 0
M  V30 1011 H 101.114 -3.32638 4.08239 0
M  V30 1012 H 103.605 -2.06057 3.16779 0
M  V30 1013 H 103.918 -3.67586 6.7978 0
M  V30 1014 H 102.263 -3.31191 6.11013 0
M  V30 1015 H 105.454 -2.48136 3.96921 0
M  V30 1016 H 105.627 -3.21814 5.62441 0
M  V30 1017 N 99.0327 -1.24633 -0.964593 0
M  V30 1018 C 100.31 -0.995809 -1.68354 0
M  V30 1019 C 100.69 0.480964 -2.05548 0
M  V30 1020 O 100.038 1.45599 -1.76105 0
M  V30 1021 C 100.248 -1.92177 -2.91323 0
M  V30 1022 C 101.596 -2.19446 -3.63495 0
M  V30 1023 O 102.62 -1.89855 -3.01386 0
M  V30 1024 O 101.479 -2.69714 -4.75307 0
M  V30 1025 H 98.5727 -0.376854 -0.736146 0
M  V30 1026 H 101.119 -1.35745 -1.0184 0
M  V30 1027 H 99.8907 -2.91938 -2.60553 0
M  V30 1028 H 99.5137 -1.56349 -3.65569 0
M  V30 1029 N 100.511 1.16574 -1.06058 0
M  V30 1030 C 101.76 1.86385 -0.770944 0
M  V30 1031 C 102.073 1.82448 0.705129 0
M  V30 1032 O 103.279 2.47815 1.10905 0
M  V30 1033 C 101.735 3.34466 -1.32893 0
M  V30 1034 C 101.343 3.46883 -2.83507 0
M  V30 1035 C 103.087 4.09548 -1.11672 0
M  V30 1036 C 100.994 4.89036 -3.32562 0
M  V30 1037 H 99.9238 0.698181 -0.284709 0
M  V30 1038 H 102.575 1.31583 -1.27899 0
M  V30 1039 H 100.957 3.88859 -0.748662 0
M  V30 1040 H 102.131 3.02663 -3.47465 0
M  V30 1041 H 100.446 2.85232 -3.03368 0
M  V30 1042 H 103.043 5.14434 -1.45814 0
M  V30 1043 H 103.386 4.16264 -0.0549535 0
M  V30 1044 H 103.919 3.61387 -1.66265 0
M  V30 1045 H 100.658 4.87499 -4.38207 0
M  V30 1046 H 100.178 5.3389 -2.73351 0
M  V30 1047 H 101.857 5.57843 -3.2775 0
M  V30 1048 N 101.989 0.842826 1.3317 0
M  V30 1049 C 103.217 0.454055 2.01856 0
M  V30 1050 C 103.632 -0.94587 1.63397 0
M  V30 1051 O 102.989 -1.61534 0.849302 0
M  V30 1052 C 103.04 0.569715 3.56982 0
M  V30 1053 O 102.761 1.91448 3.94055 0
M  V30 1054 C 104.262 0.178412 4.42941 0
M  V30 1055 H 101.482 0.17979 0.646465 0
M  V30 1056 H 104.026 1.1365 1.70012 0
M  V30 1057 H 102.181 -0.0648587 3.87346 0
M  V30 1058 H 102.595 1.90282 4.88767 0
M  V30 1059 H 104.069 0.310376 5.51127 0
M  V30 1060 H 104.546 -0.880056 4.30293 0
M  V30 1061 H 105.152 0.787579 4.17944 0
M  V30 1062 N 103.467 -1.45747 0.599634 0
M  V30 1063 C 104.692 -2.07178 0.0960198 0
M  V30 1064 C 105.117 -1.44268 -1.207 0
M  V30 1065 O 104.475 -0.532503 -1.73303 0
M  V30 1066 C 104.523 -3.60579 -0.0385348 0
M  V30 1067 O 103.627 -3.97713 -1.0908 0
M  V30 1068 H 102.968 -0.660251 0.0704593 0
M  V30 1069 H 105.498 -1.87124 0.827385 0
M  V30 1070 H 105.508 -4.07298 -0.239304 0
M  V30 1071 H 104.183 -4.05756 0.912947 0
M  V30 1072 H 102.76 -3.62678 -0.867135 0
M  V30 1073 N 104.945 -0.338344 -1.53925 0
M  V30 1074 C 106.361 0.0137736 -1.59594 0
M  V30 1075 C 106.561 1.49186 -1.35447 0
M  V30 1076 O 105.617 2.24987 -1.14616 0
M  V30 1077 C 106.93 -0.41773 -2.97784 0
M  V30 1078 C 108.478 -0.369633 -3.1081 0
M  V30 1079 C 108.953 -0.776524 -4.51369 0
M  V30 1080 N 110.444 -0.730506 -4.57403 0
M  V30 1081 C 111.179 -1.01736 -5.64303 0
M  V30 1082 N 110.675 -1.3721 -6.79077 0
M  V30 1083 N 112.468 -0.941942 -5.54151 0
M  V30 1084 H 104.619 -1.3012 -1.67876 0
M  V30 1085 H 106.882 -0.530082 -0.78595 0
M  V30 1086 H 106.588 -1.44811 -3.20504 0
M  V30 1087 H 106.462 0.209729 -3.76616 0
M  V30 1088 H 108.849 0.651568 -2.87817 0
M  V30 1089 H 108.93 -1.03223 -2.34049 0
M  V30 1090 H 108.574 -1.79571 -4.75096 0
M  V30 1091 H 108.504 -0.0914649 -5.26521 0
M  V30 1092 H 110.995 -0.468783 -3.74981 0
M  V30 1093 H 111.308 -1.57597 -7.5656 0
M  V30 1094 H 109.653 -1.4105 -6.80536 0
M  V30 1095 H 112.844 -0.664184 -4.63364 0
M  V30 1096 H 113.017 -1.16884 -6.37371 0
M  V30 1097 N 106.423 1.57458 -0.0668435 0
M  V30 1098 C 107.37 2.12439 0.902122 0
M  V30 1099 C 108.34 1.03565 1.2986 0
M  V30 1100 O 109.525 1.312 1.38532 0
M  V30 1101 C 106.665 2.6865 2.16614 0
M  V30 1102 C 105.778 3.91663 1.82274 0
M  V30 1103 C 104.913 4.36134 3.0325 0
M  V30 1104 C 103.952 5.51808 2.64904 0
M  V30 1105 N 103.089 5.9126 3.78624 0
M  V30 1106 H 107.929 2.94934 0.426382 0
M  V30 1107 H 105.466 1.4575 0.198819 0
M  V30 1108 H 107.424 2.99346 2.90599 0
M  V30 1109 H 106.054 1.88928 2.61737 0
M  V30 1110 H 105.106 3.6746 0.983719 0
M  V30 1111 H 106.418 4.75693 1.50059 0
M  V30 1112 H 105.572 4.68465 3.85519 0
M  V30 1113 H 104.311 3.50948 3.38655 0
M  V30 1114 H 103.316 5.19133 1.81055 0
M  V30 1115 H 104.541 6.38722 2.30675 0
M  V30 1116 H 102.487 5.09024 4.138 0
M  V30 1117 H 102.404 6.70018 3.5016 0
M  V30 1118 H 103.672 6.28212 4.61486 0
M  V30 1119 N 107.901 -0.206675 1.56239 0
M  V30 1120 C 109.178 -0.954051 1.70755 0
M  V30 1121 C 109.558 -2.01841 0.618353 0
M  V30 1122 O 108.906 -2.25444 -0.372434 0
M  V30 1123 C 109.116 -1.551 3.12642 0
M  V30 1124 C 110.464 -2.03757 3.72516 0
M  V30 1125 O 111.488 -1.64965 3.15698 0
M  V30 1126 O 110.347 -2.75103 4.72208 0
M  V30 1127 H 107.441 -0.446636 0.696021 0
M  V30 1128 H 109.987 -0.197283 1.68549 0
M  V30 1129 H 108.759 -0.783212 3.83382 0
M  V30 1130 H 108.382 -2.37291 3.19028 0
M  V30 1131 N 109.379 -1.50304 -0.473955 0
M  V30 1132 C 110.309 -1.71886 -1.58042 0
M  V30 1133 C 111.29 -0.567799 -1.60344 0
M  V30 1134 O 112.475 -0.806623 -1.76656 0
M  V30 1135 C 109.605 -1.81036 -2.96384 0
M  V30 1136 C 108.559 -2.962 -3.08949 0
M  V30 1137 C 107.885 -2.9049 -4.48909 0
M  V30 1138 C 109.185 -4.36752 -2.86434 0
M  V30 1139 H 110.879 -2.64527 -1.40234 0
M  V30 1140 H 108.425 -1.27295 -0.673201 0
M  V30 1141 H 110.378 -1.94719 -3.73714 0
M  V30 1142 H 109.102 -0.850147 -3.15341 0
M  V30 1143 H 107.761 -2.82164 -2.3405 0
M  V30 1144 H 107.409 -1.92321 -4.64781 0
M  V30 1145 H 107.109 -3.67802 -4.58253 0
M  V30 1146 H 108.633 -3.06218 -5.28264 0
M  V30 1147 H 110.047 -4.5133 -3.53517 0
M  V30 1148 H 108.444 -5.15493 -3.07225 0
M  V30 1149 H 109.514 -4.49321 -1.82316 0
M  V30 1150 N 110.857 0.726932 -1.39834 0
M  V30 1151 C 112.268 1.30558 -1.3346 0
M  V30 1152 C 112.619 1.962 -0.00273003 0
M  V30 1153 O 111.744 1.96826 0.899371 0
M  V30 1154 C 112.339 2.37404 -2.41713 0
M  V30 1155 C 110.898 2.90921 -2.38835 0
M  V30 1156 C 110.045 1.64578 -2.2318 0
M  V30 1157 H 112.996 0.523862 -1.49804 0
M  V30 1158 H 113.017 3.17984 -2.08966 0
M  V30 1159 H 112.529 1.89599 -3.38635 0
M  V30 1160 H 110.63 3.42985 -1.45575 0
M  V30 1161 H 110.743 3.43487 -3.33997 0
M  V30 1162 H 109.107 1.89219 -1.70494 0
M  V30 1163 H 109.89 1.18814 -3.22084 0
M  V30 1164 N 112.336 1.25143 0.95797 0
M  V30 1165 C 113.561 1.12521 1.74223 0
M  V30 1166 C 113.986 -0.317402 1.85403 0
M  V30 1167 O 113.344 -1.2299 1.33204 0
M  V30 1168 C 113.392 1.78062 3.1357 0
M  V30 1169 O 112.496 1.058 3.98598 0
M  V30 1170 H 111.837 0.39304 0.535178 0
M  V30 1171 H 114.367 1.65641 1.201 0
M  V30 1172 H 114.377 1.84213 3.64046 0
M  V30 1173 H 113.052 2.83021 3.04749 0
M  V30 1174 H 111.629 1.07506 3.57067 0
M  V30 1175 N 113.814 -1.1601 1.06675 0
M  V30 1176 C 115.23 -1.38622 0.790948 0
M  V30 1177 C 115.43 -1.92109 -0.607965 0
M  V30 1178 O 114.486 -2.12239 -1.36787 0
M  V30 1179 C 115.799 -2.36347 1.85905 0
M  V30 1180 C 117.347 -2.50023 1.88301 0
M  V30 1181 C 117.822 -3.51033 2.94176 0
M  V30 1182 N 119.313 -3.58563 2.93235 0
M  V30 1183 C 120.048 -4.36521 3.71803 0
M  V30 1184 N 119.544 -5.17869 4.602 0
M  V30 1185 N 121.337 -4.31541 3.60178 0
M  V30 1186 H 113.488 -0.796294 1.96908 0
M  V30 1187 H 115.751 -0.412597 0.853503 0
M  V30 1188 H 115.457 -2.04147 2.86386 0
M  V30 1189 H 115.331 -3.36042 1.71334 0
M  V30 1190 H 117.718 -2.81524 0.884769 0
M  V30 1191 H 117.799 -1.5035 2.06951 0
M  V30 1192 H 117.443 -3.20268 3.94196 0
M  V30 1193 H 117.373 -4.50445 2.72776 0
M  V30 1194 H 119.864 -3.00496 2.29152 0
M  V30 1195 H 120.177 -5.74578 5.16797 0
M  V30 1196 H 118.522 -5.17199 4.64253 0
M  V30 1197 H 121.713 -3.67051 2.90502 0
M  V30 1198 H 121.886 -4.9205 4.21653 0
M  V30 1199 N 115.292 -0.849877 -1.32721 0
M  V30 1200 C 116.52 -0.464754 -2.01613 0
M  V30 1201 C 116.935 0.937191 -1.63897 0
M  V30 1202 O 116.292 1.61081 -0.857856 0
M  V30 1203 C 116.343 -0.588638 -3.56675 0
M  V30 1204 O 116.064 -1.93535 -3.93034 0
M  V30 1205 C 117.565 -0.2019 -4.4284 0
M  V30 1206 H 114.785 -0.183215 -0.645502 0
M  V30 1207 H 117.329 -1.1455 -1.69407 0
M  V30 1208 H 115.484 0.0443159 -3.87375 0
M  V30 1209 H 115.898 -1.92871 -4.87751 0
M  V30 1210 H 117.372 -0.339599 -5.50954 0
M  V30 1211 H 117.849 0.857224 -4.30753 0
M  V30 1212 H 118.455 -0.809733 -4.17521 0
M  V30 1213 N 116.77 1.45427 -0.607355 0
M  V30 1214 C 117.995 2.07124 -0.107006 0
M  V30 1215 C 118.42 1.44906 1.19933 0
M  V30 1216 O 117.778 0.541687 1.73019 0
M  V30 1217 C 117.826 3.60595 0.0194119 0
M  V30 1218 O 116.93 3.98285 1.0697 0
M  V30 1219 H 116.271 0.659868 -0.0739597 0
M  V30 1220 H 118.801 1.86683 -0.837297 0
M  V30 1221 H 118.811 4.07419 0.2177 0
M  V30 1222 H 117.486 4.05266 -0.934453 0
M  V30 1223 H 116.063 3.63133 0.847889 0
M  V30 1224 N 118.248 0.346503 1.53744 0
M  V30 1225 C 119.196 -0.52422 2.26616 0
M  V30 1226 C 120.19 -1.09948 1.28871 0
M  V30 1227 O 121.396 -1.04488 1.46568 0
M  V30 1228 H 117.771 -0.187743 0.728187 0
M  V30 1229 H 119.742 0.11239 2.98188 0
M  V30 1230 C 118.491 -1.66186 3.05414 0
M  V30 1231 H 117.814 -1.22848 3.80458 0
M  V30 1232 H 119.254 -2.24622 3.59612 0
M  V30 1233 C 117.713 -2.59302 2.1509 0
M  V30 1234 O 118.243 -3.61628 1.74895 0
M  V30 1235 N 116.449 -2.28055 1.8011 0
M  V30 1236 H 115.996 -1.44883 2.12994 0
M  V30 1237 H 115.954 -2.90615 1.19958 0
M  V30 1238 N 119.726 -1.57421 0.075193 0
M  V30 1239 C 120.972 -1.93905 -0.594025 0
M  V30 1240 C 121.305 -0.955701 -1.69056 0
M  V30 1241 O 120.58 0.0145373 -1.94495 0
M  V30 1242 C 120.863 -3.40638 -1.1678 0
M  V30 1243 C 120.716 -4.49733 -0.0776792 0
M  V30 1244 C 122.035 -3.88259 -2.07228 0
M  V30 1245 H 119.154 -0.705105 -0.214466 0
M  V30 1246 H 121.796 -1.8947 0.141854 0
M  V30 1247 H 119.946 -3.44549 -1.79494 0
M  V30 1248 H 121.618 -4.57942 0.555573 0
M  V30 1249 H 119.861 -4.29751 0.591286 0
M  V30 1250 H 120.532 -5.49549 -0.519603 0
M  V30 1251 H 123.008 -3.86376 -1.54445 0
M  V30 1252 H 121.884 -4.91533 -2.44308 0
M  V30 1253 H 122.145 -3.26396 -2.98191 0
M  V30 1254 N 121.204 0.198386 -1.56346 0
M  V30 1255 C 122.114 1.2664 -1.97483 0
M  V30 1256 C 123.13 1.49989 -0.882002 0
M  V30 1257 O 124.306 1.62668 -1.18748 0
M  V30 1258 C 121.371 2.59141 -2.30319 0
M  V30 1259 C 120.432 2.43892 -3.53292 0
M  V30 1260 C 119.665 3.70074 -3.84553 0
M  V30 1261 O 119.888 4.74101 -3.1715 0
M  V30 1262 O 118.822 3.658 -4.7799 0
M  V30 1263 H 122.648 0.947304 -2.88548 0
M  V30 1264 H 120.233 0.403123 -1.43859 0
M  V30 1265 H 122.115 3.37352 -2.5253 0
M  V30 1266 H 120.79 2.90684 -1.42423 0
M  V30 1267 H 119.697 1.63803 -3.36332 0
M  V30 1268 H 121.03 2.17282 -4.41644 0
M  V30 1269 N 122.682 1.50554 0.465978 0
M  V30 1270 C 124.098 1.38093 0.800154 0
M  V30 1271 C 124.298 0.440988 1.96615 0
M  V30 1272 O 123.354 -0.114499 2.5224 0
M  V30 1273 C 124.667 2.79565 1.10742 0
M  V30 1274 C 126.215 2.88516 1.21357 0
M  V30 1275 C 126.69 4.30833 1.55393 0
M  V30 1276 N 128.181 4.33807 1.62375 0
M  V30 1277 C 128.916 5.40927 1.90225 0
M  V30 1278 N 128.412 6.58247 2.16062 0
M  V30 1279 N 130.205 5.28376 1.9177 0
M  V30 1280 H 122.356 2.10237 -0.302366 0
M  V30 1281 H 124.619 0.945203 -0.0727746 0
M  V30 1282 H 124.325 3.50208 0.323661 0
M  V30 1283 H 124.199 3.17125 2.04234 0
M  V30 1284 H 126.586 2.1809 1.98799 0
M  V30 1285 H 126.667 2.54492 0.258321 0
M  V30 1286 H 126.311 5.01799 0.784889 0
M  V30 1287 H 126.241 4.62347 2.52076 0
M  V30 1288 H 128.732 3.49212 1.44427 0
M  V30 1289 H 129.045 7.3569 2.36601 0
M  V30 1290 H 127.39 6.61413 2.13444 0
M  V30 1291 H 130.581 4.35715 1.71085 0
M  V30 1292 H 130.754 6.11944 2.13139 0
M  V30 1293 N 124.16 -0.719506 1.40217 0
M  V30 1294 C 125.107 -1.83359 1.40172 0
M  V30 1295 C 126.077 -1.64065 0.259206 0
M  V30 1296 O 127.262 -1.85254 0.456677 0
M  V30 1297 C 124.402 -3.2103 1.26624 0
M  V30 1298 C 123.515 -3.51923 2.50548 0
M  V30 1299 C 122.65 -4.79079 2.29471 0
M  V30 1300 C 121.689 -5.02863 3.48992 0
M  V30 1301 N 120.826 -6.2123 3.27135 0
M  V30 1302 H 125.666 -1.82733 2.35399 0
M  V30 1303 H 123.203 -0.892688 1.16917 0
M  V30 1304 H 125.161 -4.00524 1.16776 0
M  V30 1305 H 123.791 -3.20895 0.350176 0
M  V30 1306 H 122.843 -2.67014 2.70939 0
M  V30 1307 H 124.155 -3.6541 3.39525 0
M  V30 1308 H 123.309 -5.66582 2.16955 0
M  V30 1309 H 122.048 -4.67794 1.37913 0
M  V30 1310 H 121.053 -4.13816 3.6199 0
M  V30 1311 H 122.278 -5.16023 4.41472 0
M  V30 1312 H 120.224 -6.11204 2.38256 0
M  V30 1313 H 120.141 -6.35375 4.09675 0
M  V30 1314 H 121.409 -7.11532 3.18344 0
M  V30 1315 N 125.638 -1.25649 -0.95132 0
M  V30 1316 C 126.601 -1.06399 -2.03007 0
M  V30 1317 C 127.601 -0.0156794 -1.60792 0
M  V30 1318 O 128.791 -0.25817 -1.72276 0
M  V30 1319 C 125.923 -0.616184 -3.35285 0
M  V30 1320 H 127.116 -2.02164 -2.21517 0
M  V30 1321 H 124.669 -1.08103 -1.12887 0
M  V30 1322 H 125.404 0.343917 -3.22471 0
M  V30 1323 H 125.189 -1.37301 -3.67275 0
M  V30 1324 H 126.679 -0.503032 -4.14559 0
M  V30 1325 N 127.117 1.15442 -1.07289 0
M  V30 1326 C 128.342 1.90638 -0.816828 0
M  V30 1327 C 128.767 1.77445 0.624083 0
M  V30 1328 O 128.125 1.10671 1.43602 0
M  V30 1329 C 128.173 3.39008 -1.22906 0
M  V30 1330 O 127.277 4.10701 -0.373975 0
M  V30 1331 H 126.618 0.593555 -0.297638 0
M  V30 1332 H 129.148 1.46198 -1.43134 0
M  V30 1333 H 129.158 3.89801 -1.20497 0
M  V30 1334 H 127.833 3.47929 -2.27856 0
M  V30 1335 H 126.41 3.70046 -0.460499 0
M  V30 1336 N 128.595 0.856903 1.32268 0
M  V30 1337 C 129.527 0.260412 2.27716 0
M  V30 1338 C 130.54 -0.569137 1.52528 0
M  V30 1339 O 131.729 -0.39326 1.74114 0
M  V30 1340 C 128.829 -0.650477 3.32599 0
M  V30 1341 C 128.002 0.14372 4.37164 0
M  V30 1342 C 127.061 -0.69328 5.21613 0
M  V30 1343 O 126.087 -0.12599 5.69061 0
M  V30 1344 N 127.289 -2.00761 5.44679 0
M  V30 1345 H 130.054 1.08059 2.79541 0
M  V30 1346 H 127.615 0.717103 1.45152 0
M  V30 1347 H 129.607 -1.21581 3.86005 0
M  V30 1348 H 128.177 -1.37133 2.80915 0
M  V30 1349 H 127.397 0.890486 3.8401 0
M  V30 1350 H 128.685 0.68915 5.04111 0
M  V30 1351 H 128.083 -2.49181 5.07863 0
M  V30 1352 H 126.64 -2.52103 6.01072 0
M  V30 1353 N 130.073 -1.45103 0.615059 0
M  V30 1354 C 131.005 -2.28786 -0.13762 0
M  V30 1355 C 132.018 -1.40376 -0.824525 0
M  V30 1356 O 133.207 -1.64681 -0.688662 0
M  V30 1357 C 130.307 -3.16322 -1.21628 0
M  V30 1358 C 129.48 -4.33054 -0.615039 0
M  V30 1359 C 128.539 -5.01743 -1.58556 0
M  V30 1360 O 127.565 -5.58293 -1.10895 0
M  V30 1361 N 128.767 -5.01714 -2.91998 0
M  V30 1362 H 131.532 -2.94025 0.580483 0
M  V30 1363 H 129.093 -1.55373 0.45507 0
M  V30 1364 H 131.085 -3.59139 -1.86552 0
M  V30 1365 H 129.655 -2.52943 -1.83681 0
M  V30 1366 H 128.875 -3.93627 0.21245 0
M  V30 1367 H 130.163 -5.08431 -0.193704 0
M  V30 1368 H 129.561 -4.57075 -3.33316 0
M  V30 1369 H 128.118 -5.48371 -3.52325 0
M  V30 1370 N 131.551 -0.354651 -1.53558 0
M  V30 1371 C 132.483 0.5315 -2.22952 0
M  V30 1372 C 133.496 1.05503 -1.23988 0
M  V30 1373 O 134.685 0.963279 -1.50277 0
M  V30 1374 C 131.785 1.74538 -2.90499 0
M  V30 1375 C 130.958 1.35524 -4.15875 0
M  V30 1376 C 130.017 2.42999 -4.66731 0
M  V30 1377 O 129.043 2.05844 -5.30676 0
M  V30 1378 N 130.245 3.74423 -4.43608 0
M  V30 1379 H 133.01 -0.0628615 -2.99634 0
M  V30 1380 H 130.571 -0.179302 -1.60904 0
M  V30 1381 H 132.563 2.45892 -3.21433 0
M  V30 1382 H 131.133 2.24686 -2.17336 0
M  V30 1383 H 130.353 0.471998 -3.91364 0
M  V30 1384 H 131.641 1.07071 -4.97406 0
M  V30 1385 H 131.039 4.07391 -3.92491 0
M  V30 1386 H 129.596 4.41913 -4.7912 0
M  V30 1387 N 133.029 1.57378 -0.0835403 0
M  V30 1388 C 134.275 1.95025 0.577664 0
M  V30 1389 C 134.63 0.964049 1.66505 0
M  V30 1390 O 133.923 -0.0118235 1.91596 0
M  V30 1391 C 134.117 3.37063 1.1884 0
M  V30 1392 C 133.946 4.49409 0.16171 0
M  V30 1393 C 132.716 5.04642 -0.257756 0
M  V30 1394 C 134.914 5.10722 -0.605634 0
M  V30 1395 N 132.896 6.00537 -1.27393 0
M  V30 1396 C 134.267 6.02225 -1.47395 0
M  V30 1397 C 136.322 4.93501 -0.660418 0
M  V30 1398 C 135.025 6.78355 -2.39221 0
M  V30 1399 C 137.051 5.70283 -1.56623 0
M  V30 1400 C 136.413 6.61444 -2.4222 0
M  V30 1401 H 132.512 0.760512 0.182058 0
M  V30 1402 H 135.096 1.94013 -0.163419 0
M  V30 1403 H 133.267 3.3879 1.89936 0
M  V30 1404 H 134.999 3.61917 1.81103 0
M  V30 1405 H 131.754 4.73428 0.127702 0
M  V30 1406 H 132.178 6.53184 -1.77987 0
M  V30 1407 H 136.82 4.22798 -0.0128221 0
M  V30 1408 H 134.538 7.48327 -3.05011 0
M  V30 1409 H 138.124 5.58976 -1.61361 0
M  V30 1410 H 137.004 7.1982 -3.11174 0
M  V30 1411 N 134.507 -0.190092 1.56449 0
M  V30 1412 C 135.755 -0.907908 1.80559 0
M  V30 1413 C 136.076 -1.83583 0.657438 0
M  V30 1414 O 135.346 -1.93203 -0.323924 0
M  V30 1415 H 133.926 -0.338247 0.666032 0
M  V30 1416 H 136.588 -0.194403 1.93928 0
M  V30 1417 H 135.684 -1.49604 2.73907 0
M  V30 1418 N 135.985 -1.50799 -0.457987 0
M  V30 1419 C 137.401 -1.38515 -0.792819 0
M  V30 1420 C 137.601 -0.451409 -1.96379 0
M  V30 1421 O 136.657 0.10112 -2.52297 0
M  V30 1422 C 137.97 -2.80149 -1.09258 0
M  V30 1423 C 139.518 -2.89156 -1.19825 0
M  V30 1424 C 139.993 -4.31651 -1.53106 0
M  V30 1425 N 141.484 -4.34662 -1.60072 0
M  V30 1426 C 142.219 -5.41928 -1.87354 0
M  V30 1427 N 141.715 -6.59384 -2.12568 0
M  V30 1428 N 143.508 -5.29385 -1.88965 0
M  V30 1429 H 135.659 -2.10073 0.313511 0
M  V30 1430 H 137.922 -0.944803 0.0777862 0
M  V30 1431 H 137.628 -3.50374 -0.305084 0
M  V30 1432 H 137.502 -3.18204 -2.02549 0
M  V30 1433 H 139.889 -2.19141 -1.97639 0
M  V30 1434 H 139.97 -2.54626 -0.244821 0
M  V30 1435 H 139.614 -5.02208 -0.758266 0
M  V30 1436 H 139.544 -4.63678 -2.49621 0
M  V30 1437 H 142.035 -3.49973 -1.42573 0
M  V30 1438 H 142.348 -7.36934 -2.32696 0
M  V30 1439 H 140.693 -6.62535 -2.09933 0
M  V30 1440 H 143.884 -4.36616 -1.68772 0
M  V30 1441 H 144.057 -6.13066 -2.09891 0
M  V30 1442 N 137.463 0.71206 -1.40597 0
M  V30 1443 C 138.711 1.46907 -1.38791 0
M  V30 1444 C 139.032 1.94998 0.00780391 0
M  V30 1445 O 138.302 1.70587 0.963174 0
M  V30 1446 H 136.882 0.545043 -0.51082 0
M  V30 1447 H 139.544 0.843882 -1.75683 0
M  V30 1448 H 138.64 2.34021 -2.06496 0
M  V30 1449 N 138.941 1.26152 0.944643 0
M  V30 1450 C 139.889 1.07215 2.06417 0
M  V30 1451 C 140.883 9.2007e-05 1.694 0
M  V30 1452 O 142.089 0.1565 1.79318 0
M  V30 1453 H 138.464 0.329837 0.675805 0
M  V30 1454 H 140.435 2.02099 2.19541 0
M  V30 1455 C 139.184 0.718197 3.40202 0
M  V30 1456 H 138.507 1.53497 3.69159 0
M  V30 1457 H 139.947 0.625459 4.19361 0
M  V30 1458 C 138.406 -0.576435 3.31932 0
M  V30 1459 O 138.936 -1.61574 3.67773 0
M  V30 1460 N 137.142 -0.565781 2.85039 0
M  V30 1461 H 136.689 0.280367 2.5607 0
M  V30 1462 H 136.647 -1.43213 2.79888 0
M  V30 1463 N 140.419 -1.14872 1.07899 0
M  V30 1464 C 141.666 -1.85789 0.805532 0
M  V30 1465 C 141.994 -1.82649 -0.668561 0
M  V30 1466 O 141.249 -1.24858 -1.50695 0
M  V30 1467 C 141.548 -3.34223 1.26609 0
M  V30 1468 C 141.214 -3.57555 2.74709 0
M  V30 1469 C 139.876 -3.63631 3.1516 0
M  V30 1470 C 142.228 -3.66803 3.70277 0
M  V30 1471 C 139.556 -3.76473 4.49983 0
M  V30 1472 C 141.908 -3.8117 5.04869 0
M  V30 1473 C 140.572 -3.85494 5.44932 0
M  V30 1474 H 139.842 -0.679849 0.294765 0
M  V30 1475 H 142.489 -1.3572 1.35101 0
M  V30 1476 H 140.794 -3.86536 0.640103 0
M  V30 1477 H 142.491 -3.87511 1.03132 0
M  V30 1478 H 139.081 -3.5347 2.42398 0
M  V30 1479 H 143.265 -3.61404 3.40149 0
M  V30 1480 H 138.521 -3.7808 4.80484 0
M  V30 1481 H 142.695 -3.87268 5.78789 0
M  V30 1482 H 140.322 -3.95197 6.49403 0
M  V30 1483 N 141.898 -0.863906 -1.31812 0
M  V30 1484 C 143.126 -0.486111 -2.01108 0
M  V30 1485 C 143.541 0.919755 -1.64882 0
M  V30 1486 O 142.898 1.60162 -0.874893 0
M  V30 1487 C 142.949 -0.626435 -3.56031 0
M  V30 1488 O 142.67 -1.97693 -3.90959 0
M  V30 1489 C 144.171 -0.248857 -4.42601 0
M  V30 1490 H 141.391 -0.190052 -0.643523 0
M  V30 1491 H 143.935 -1.1634 -1.68182 0
M  V30 1492 H 142.09 0.00322717 -3.874 0
M  V30 1493 H 142.504 -1.98034 -4.85678 0
M  V30 1494 H 143.978 -0.398016 -5.50563 0
M  V30 1495 H 144.455 0.811489 -4.31638 0
M  V30 1496 H 145.061 -0.853971 -4.16638 0
M  V30 1497 N 143.376 1.44774 -0.622745 0
M  V30 1498 C 144.286 2.34433 0.0886031 0
M  V30 1499 C 145.302 1.52131 0.844529 0
M  V30 1500 O 146.478 1.84886 0.798691 0
M  V30 1501 C 143.543 3.29986 1.0635 0
M  V30 1502 C 142.604 4.28195 0.307873 0
M  V30 1503 C 141.837 5.19183 1.23633 0
M  V30 1504 O 142.06 5.13918 2.47476 0
M  V30 1505 O 140.994 5.97515 0.725189 0
M  V30 1506 H 144.82 2.96693 -0.648599 0
M  V30 1507 H 142.405 1.44408 -0.382957 0
M  V30 1508 H 144.287 3.88825 1.6246 0
M  V30 1509 H 142.962 2.70269 1.78146 0
M  V30 1510 H 141.869 3.72927 -0.296064 0
M  V30 1511 H 143.202 4.90808 -0.3699 0
M  V30 1512 N 144.854 0.36279 1.53368 0
M  V30 1513 C 146.102 -0.227326 2.00817 0
M  V30 1514 C 146.423 -1.49511 1.25186 0
M  V30 1515 O 145.693 -1.92482 0.364348 0
M  V30 1516 H 144.273 -0.0869923 0.741917 0
M  V30 1517 H 146.935 0.488381 1.88682 0
M  V30 1518 H 146.031 -0.456273 3.08747 0
M  V30 1519 N 146.332 -1.57332 0.0918853 0
M  V30 1520 C 147.279 -2.13847 -0.868211 0
M  V30 1521 C 148.249 -1.05618 -1.28196 0
M  V30 1522 O 149.434 -1.33387 -1.36427 0
M  V30 1523 C 146.574 -2.72062 -2.12312 0
M  V30 1524 C 145.687 -3.94514 -1.7602 0
M  V30 1525 C 144.822 -4.40903 -2.96273 0
M  V30 1526 C 143.861 -5.55953 -2.56092 0
M  V30 1527 N 142.998 -5.97209 -3.69169 0
M  V30 1528 H 147.838 -2.95575 -0.379406 0
M  V30 1529 H 145.375 -1.46048 -0.175606 0
M  V30 1530 H 147.333 -3.03931 -2.858 0
M  V30 1531 H 145.963 -1.93068 -2.58698 0
M  V30 1532 H 145.015 -3.68979 -0.925135 0
M  V30 1533 H 146.327 -4.7802 -1.42472 0
M  V30 1534 H 145.481 -4.74539 -3.78018 0
M  V30 1535 H 144.22 -3.56291 -3.33029 0
M  V30 1536 H 143.225 -5.21948 -1.72773 0
M  V30 1537 H 144.45 -6.42311 -2.20484 0
M  V30 1538 H 142.396 -5.15543 -4.05649 0
M  V30 1539 H 142.313 -6.75504 -3.39456 0
M  V30 1540 H 143.581 -6.35475 -4.51434 0
M  V30 1541 N 147.81 0.181792 -1.56548 0
M  V30 1542 C 149.056 0.901431 -1.81665 0
M  V30 1543 C 149.389 1.82347 -0.668075 0
M  V30 1544 O 148.664 1.91669 0.330615 0
M  V30 1545 C 148.947 1.70618 -3.17115 0
M  V30 1546 C 148.8 0.807964 -4.42484 0
M  V30 1547 C 150.119 2.67605 -3.49393 0
M  V30 1548 H 147.238 0.32627 -0.660846 0
M  V30 1549 H 149.88 0.168134 -1.89255 0
M  V30 1550 H 148.03 2.33133 -3.10775 0
M  V30 1551 H 149.702 0.19649 -4.60881 0
M  V30 1552 H 147.945 0.115411 -4.33646 0
M  V30 1553 H 148.616 1.40632 -5.33785 0
M  V30 1554 H 151.092 2.15218 -3.56118 0
M  V30 1555 H 149.968 3.20985 -4.45264 0
M  V30 1556 H 150.229 3.47298 -2.73563 0
M  V30 1557 N 149.288 1.51039 0.449983 0
M  V30 1558 C 150.699 1.557 1.03026 0
M  V30 1559 C 151.05 0.372939 1.92623 0
M  V30 1560 O 150.175 -0.511771 2.10261 0
M  V30 1561 C 150.77 2.82171 1.87523 0
M  V30 1562 C 149.329 2.89444 2.40622 0
M  V30 1563 C 148.476 2.50228 1.19504 0
M  V30 1564 H 151.427 1.56999 0.231745 0
M  V30 1565 H 151.448 2.65219 2.72835 0
M  V30 1566 H 150.96 3.68331 1.22286 0
M  V30 1567 H 149.061 2.07685 3.0935 0
M  V30 1568 H 149.174 3.92816 2.74285 0
M  V30 1569 H 147.538 2.03139 1.53644 0
M  V30 1570 H 148.321 3.38719 0.558972 0
M  V30 1571 N 150.766 -0.704594 1.40972 0
M  V30 1572 C 151.716 -1.81051 1.38581 0
M  V30 1573 C 152.7 -1.58759 0.261585 0
M  V30 1574 O 153.892 -1.69745 0.501556 0
M  V30 1575 C 151.021 -3.19279 1.26157 0
M  V30 1576 C 150.107 -3.47296 2.43405 0
M  V30 1577 N 150.498 -3.46064 3.68881 0
M  V30 1578 C 148.796 -3.77804 2.37023 0
M  V30 1579 C 149.497 -3.72733 4.46592 0
M  V30 1580 N 148.473 -3.9203 3.76581 0
M  V30 1581 H 152.275 -1.78448 2.33525 0
M  V30 1582 H 149.789 -0.904198 1.349 0
M  V30 1583 H 151.786 -3.98488 1.22526 0
M  V30 1584 H 150.446 -3.231 0.321902 0
M  V30 1585 H 151.457 -3.26656 4.01891 0
M  V30 1586 H 148.134 -3.8905 1.51481 0
M  V30 1587 H 149.524 -3.77993 5.55492 0
M  V30 1588 N 152.244 -1.26651 -0.937939 0
M  V30 1589 C 153.493 -1.11775 -1.67897 0
M  V30 1590 C 153.806 0.33794 -1.92659 0
M  V30 1591 O 155.012 0.607434 -2.64618 0
M  V30 1592 C 153.468 -1.9523 -3.02346 0
M  V30 1593 C 153.076 -3.45393 -2.8532 0
M  V30 1594 C 154.82 -1.88972 -3.80118 0
M  V30 1595 C 152.727 -4.21083 -4.15263 0
M  V30 1596 H 151.657 -0.414696 -0.629717 0
M  V30 1597 H 154.308 -1.50988 -1.04283 0
M  V30 1598 H 152.69 -1.48853 -3.66959 0
M  V30 1599 H 153.864 -3.99561 -2.29537 0
M  V30 1600 H 152.179 -3.52921 -2.20988 0
M  V30 1601 H 154.776 -2.42805 -4.76392 0
M  V30 1602 H 155.119 -0.86113 -4.07296 0
M  V30 1603 H 155.652 -2.33189 -3.22285 0
M  V30 1604 H 152.391 -5.24425 -3.93267 0
M  V30 1605 H 151.911 -3.71695 -4.70747 0
M  V30 1606 H 153.59 -4.29706 -4.83696 0
M  V30 1607 N 153.722 1.14298 -1.08507 0
M  V30 1608 C 155.138 1.37347 -0.812901 0
M  V30 1609 C 155.338 1.93052 0.577325 0
M  V30 1610 O 154.394 2.14389 1.33393 0
M  V30 1611 C 155.707 2.33359 -1.89642 0
M  V30 1612 C 157.255 2.46996 -1.92255 0
M  V30 1613 C 157.73 3.46309 -2.99724 0
M  V30 1614 N 159.221 3.53853 -2.98902 0
M  V30 1615 C 159.956 4.3055 -3.787 0
M  V30 1616 N 159.452 5.10482 -4.6838 0
M  V30 1617 N 161.245 4.25757 -3.66998 0
M  V30 1618 H 153.396 0.764867 -1.9815 0
M  V30 1619 H 155.659 0.398966 -0.859959 0
M  V30 1620 H 155.365 1.99565 -2.89597 0
M  V30 1621 H 155.239 3.33274 -1.76659 0
M  V30 1622 H 157.626 2.80081 -0.929445 0
M  V30 1623 H 157.707 1.47039 -2.09316 0
M  V30 1624 H 157.351 3.13957 -3.99241 0
M  V30 1625 H 157.281 4.46049 -2.79907 0
M  V30 1626 H 159.772 2.96812 -2.33904 0
M  V30 1627 H 160.085 5.66284 -5.25873 0
M  V30 1628 H 158.43 5.09747 -4.72422 0
M  V30 1629 H 161.621 3.62383 -2.96304 0
M  V30 1630 H 161.794 4.85279 -4.29427 0
M  V30 1631 N 155.201 0.870884 1.31352 0
M  V30 1632 C 156.45 0.478408 1.95944 0
M  V30 1633 C 156.763 -0.974493 1.69597 0
M  V30 1634 O 157.969 -1.47316 2.28058 0
M  V30 1635 C 156.425 0.804609 3.50791 0
M  V30 1636 C 156.033 2.27433 3.85977 0
M  V30 1637 C 157.777 0.480648 4.2177 0
M  V30 1638 C 155.684 2.5429 5.33939 0
M  V30 1639 H 154.614 0.175175 0.733369 0
M  V30 1640 H 157.265 1.06391 1.4951 0
M  V30 1641 H 155.647 0.148347 3.95722 0
M  V30 1642 H 156.821 2.97373 3.52002 0
M  V30 1643 H 155.136 2.56442 3.28065 0
M  V30 1644 H 157.733 0.658519 5.30629 0
M  V30 1645 H 158.076 -0.578979 4.12254 0
M  V30 1646 H 158.609 1.09349 3.82476 0
M  V30 1647 H 155.348 3.58939 5.48491 0
M  V30 1648 H 154.868 1.88945 5.69263 0
M  V30 1649 H 156.547 2.39066 6.01212 0
M  V30 1650 N 156.679 -1.44442 0.630414 0
M  V30 1651 C 157.589 -2.34476 -0.0761693 0
M  V30 1652 C 158.605 -1.52576 -0.836449 0
M  V30 1653 O 159.781 -1.85307 -0.788874 0
M  V30 1654 C 156.846 -3.30545 -1.04599 0
M  V30 1655 C 155.907 -4.28352 -0.28516 0
M  V30 1656 C 155.14 -5.19831 -1.20878 0
M  V30 1657 O 155.363 -5.15223 -2.44747 0
M  V30 1658 O 154.297 -5.97892 -0.693491 0
M  V30 1659 H 158.123 -2.96345 0.664324 0
M  V30 1660 H 155.708 -1.44203 0.39061 0
M  V30 1661 H 157.59 -3.89681 -1.60396 0
M  V30 1662 H 156.265 -2.7121 -1.76711 0
M  V30 1663 H 155.172 -3.72764 0.315837 0
M  V30 1664 H 156.505 -4.90605 0.395924 0
M  V30 1665 N 158.157 -0.370918 -1.53173 0
M  V30 1666 C 159.105 0.488101 -2.27421 0
M  V30 1667 C 160.099 1.07884 -1.30604 0
M  V30 1668 O 161.305 1.02143 -1.48212 0
M  V30 1669 H 157.68 0.176134 -0.731082 0
M  V30 1670 H 159.651 -0.159815 -2.97972 0
M  V30 1671 C 158.4 1.61306 -3.08019 0
M  V30 1672 H 157.723 1.1678 -3.82364 0
M  V30 1673 H 159.163 2.18872 -3.63141 0
M  V30 1674 C 157.622 2.55848 -2.19188 0
M  V30 1675 O 158.152 3.58799 -1.80626 0
M  V30 1676 N 156.358 2.2516 -1.83715 0
M  V30 1677 H 155.905 1.41476 -2.15273 0
M  V30 1678 H 155.863 2.8867 -1.24567 0
M  V30 1679 N 159.635 1.57281 -0.100228 0
M  V30 1680 C 160.883 1.94153 0.561157 0
M  V30 1681 C 161.204 0.983157 1.68401 0
M  V30 1682 O 160.474 0.0361132 1.95867 0
M  V30 1683 H 159.054 0.716791 0.210283 0
M  V30 1684 H 161.716 1.94202 -0.164765 0
M  V30 1685 H 160.812 2.96709 0.968008 0
M  V30 1686 N 161.113 -0.173488 1.56642 0
M  V30 1687 C 162.076 -1.19859 1.95362 0
M  V30 1688 C 163.076 -1.37296 0.83704 0
M  V30 1689 O 164.266 -1.34739 1.10413 0
M  V30 1690 C 161.398 -2.56405 2.24654 0
M  V30 1691 H 162.591 -0.867062 2.87092 0
M  V30 1692 H 160.144 -0.415853 1.50666 0
M  V30 1693 H 160.879 -2.94576 1.35631 0
M  V30 1694 H 160.664 -2.45115 3.06041 0
M  V30 1695 H 162.154 -3.30287 2.5554 0
M  V30 1696 N 162.591 -1.51276 -0.441967 0
M  V30 1697 C 163.554 -1.7167 -1.51862 0
M  V30 1698 C 164.554 -0.586793 -1.49711 0
M  V30 1699 O 165.744 -0.854276 -1.51815 0
M  V30 1700 C 162.876 -1.76889 -2.91416 0
M  V30 1701 H 164.069 -2.67754 -1.35084 0
M  V30 1702 H 161.622 -1.41196 -0.670333 0
M  V30 1703 H 162.357 -0.826026 -3.13604 0
M  V30 1704 H 162.142 -2.59001 -2.94382 0
M  V30 1705 H 163.632 -1.94522 -3.69528 0
M  V30 1706 N 164.069 0.697108 -1.41344 0
M  V30 1707 C 165.318 1.45279 -1.39918 0
M  V30 1708 C 165.631 1.95597 -0.0109624 0
M  V30 1709 O 166.837 2.71208 0.125919 0
M  V30 1710 C 165.293 2.62695 -2.46007 0
M  V30 1711 C 164.901 2.19169 -3.90729 0
M  V30 1712 C 166.645 3.40336 -2.53715 0
M  V30 1713 C 164.552 3.33535 -4.88373 0
M  V30 1714 H 163.482 0.545692 -0.520323 0
M  V30 1715 H 166.133 0.756929 -1.67161 0
M  V30 1716 H 164.515 3.34541 -2.11892 0
M  V30 1717 H 165.689 1.54623 -4.34083 0
M  V30 1718 H 164.004 1.54525 -3.86666 0
M  V30 1719 H 166.601 4.2547 -3.2385 0
M  V30 1720 H 166.944 3.85418 -1.5735 0
M  V30 1721 H 167.477 2.75546 -2.86913 0
M  V30 1722 H 164.216 2.93468 -5.86137 0
M  V30 1723 H 163.736 3.96936 -4.49668 0
M  V30 1724 H 165.415 3.99335 -5.09059 0
M  V30 1725 N 165.547 1.27147 0.931209 0
M  V30 1726 C 166.457 1.11372 2.06478 0
M  V30 1727 C 167.473 0.044645 1.73943 0
M  V30 1728 O 168.649 0.250417 1.99837 0
M  V30 1729 C 165.714 0.758838 3.38294 0
M  V30 1730 C 164.775 1.90841 3.84549 0
M  V30 1731 C 164.008 1.57036 5.10074 0
M  V30 1732 O 164.231 0.476645 5.68405 0
M  V30 1733 O 163.165 2.40839 5.51616 0
M  V30 1734 H 166.991 2.06493 2.22698 0
M  V30 1735 H 164.576 1.06301 1.04978 0
M  V30 1736 H 166.458 0.574098 4.17471 0
M  V30 1737 H 165.133 -0.162879 3.2329 0
M  V30 1738 H 164.04 2.14819 3.06274 0
M  V30 1739 H 165.373 2.81021 4.04089 0
M  V30 1740 N 167.025 -1.13721 1.09112 0
M  V30 1741 C 167.935 -2.22638 0.73957 0
M  V30 1742 C 168.951 -1.72091 -0.257068 0
M  V30 1743 O 170.127 -2.01155 -0.0992154 0
M  V30 1744 C 167.192 -3.46322 0.16191 0
M  V30 1745 C 166.253 -4.11775 1.21408 0
M  V30 1746 C 165.486 -5.29555 0.663891 0
M  V30 1747 O 165.709 -5.68077 -0.514274 0
M  V30 1748 O 164.643 -5.84973 1.41738 0
M  V30 1749 H 168.469 -2.55074 1.64836 0
M  V30 1750 H 166.054 -1.21791 0.865289 0
M  V30 1751 H 167.936 -4.21107 -0.157073 0
M  V30 1752 H 166.611 -3.15593 -0.719932 0
M  V30 1753 H 165.518 -3.3883 1.58571 0
M  V30 1754 H 166.851 -4.46627 2.06845 0
M  V30 1755 N 168.503 -0.877838 -1.30888 0
M  V30 1756 C 169.752 -0.488793 -1.95688 0
M  V30 1757 C 170.065 0.965485 -1.70111 0
M  V30 1758 O 171.271 1.46104 -2.28836 0
M  V30 1759 C 169.727 -0.823201 -3.50359 0
M  V30 1760 C 169.335 -2.29477 -3.84765 0
M  V30 1761 C 171.079 -0.503009 -4.21509 0
M  V30 1762 C 168.986 -2.57118 -5.32583 0
M  V30 1763 H 167.916 -0.179062 -0.732429 0
M  V30 1764 H 170.567 -1.07183 -1.48943 0
M  V30 1765 H 168.949 -0.169331 -3.95638 0
M  V30 1766 H 170.123 -2.99236 -3.5042 0
M  V30 1767 H 168.438 -2.58178 -3.267 0
M  V30 1768 H 171.035 -0.68665 -5.30273 0
M  V30 1769 H 171.378 0.557109 -4.12555 0
M  V30 1770 H 171.911 -1.11376 -3.8189 0
M  V30 1771 H 168.65 -3.61843 -5.4658 0
M  V30 1772 H 168.17 -1.91961 -5.68253 0
M  V30 1773 H 169.849 -2.42251 -5.99936 0
M  V30 1774 N 169.982 1.44106 -0.638065 0
M  V30 1775 C 171.212 2.06037 -0.152394 0
M  V30 1776 C 171.62 1.47808 1.18108 0
M  V30 1777 O 170.963 0.598092 1.73691 0
M  V30 1778 C 171.025 3.59488 0.0293714 0
M  V30 1779 C 170.689 4.4022 -1.22702 0
M  V30 1780 C 171.686 4.73256 -2.15232 0
M  V30 1781 C 169.371 4.8048 -1.46437 0
M  V30 1782 C 171.365 5.45444 -3.29802 0
M  V30 1783 C 169.052 5.52417 -2.61303 0
M  V30 1784 C 170.05 5.84819 -3.52811 0
M  V30 1785 O 169.738 6.55289 -4.65673 0
M  V30 1786 H 169.47 0.671233 -0.0801401 0
M  V30 1787 H 172.024 1.85851 -0.874563 0
M  V30 1788 H 170.254 3.78191 0.806758 0
M  V30 1789 H 171.943 4.03164 0.470475 0
M  V30 1790 H 172.709 4.42684 -1.98131 0
M  V30 1791 H 168.588 4.54676 -0.760977 0
M  V30 1792 H 172.132 5.70653 -4.01249 0
M  V30 1793 H 168.029 5.82404 -2.78344 0
M  V30 1794 H 168.797 6.73762 -4.64744 0
M  V30 1795 N 171.46 0.379036 1.52974 0
M  V30 1796 C 172.688 -0.20679 2.05864 0
M  V30 1797 C 173.103 -1.41356 1.25155 0
M  V30 1798 O 172.46 -1.8009 0.295588 0
M  V30 1799 C 172.511 -0.587045 3.56702 0
M  V30 1800 O 172.232 0.571776 4.34353 0
M  V30 1801 C 173.733 -1.22983 4.25899 0
M  V30 1802 H 170.953 -0.0336123 0.670158 0
M  V30 1803 H 173.497 0.541298 1.97206 0
M  V30 1804 H 171.652 -1.28504 3.65466 0
M  V30 1805 H 172.066 0.261544 5.23847 0
M  V30 1806 H 173.54 -1.44635 5.32715 0
M  V30 1807 H 174.017 -2.19416 3.80465 0
M  V30 1808 H 174.623 -0.572892 4.21424 0
M  V30 1809 N 172.938 -1.57226 0.108567 0
M  V30 1810 C 174.185 -1.94833 -0.551943 0
M  V30 1811 C 174.513 -0.991204 -1.67348 0
M  V30 1812 O 173.768 -0.0131878 -1.95696 0
M  V30 1813 C 174.067 -3.38911 -1.13463 0
M  V30 1814 C 173.733 -4.50696 -0.135509 0
M  V30 1815 C 172.395 -4.80998 0.139252 0
M  V30 1816 C 174.747 -5.18333 0.545957 0
M  V30 1817 C 172.075 -5.76259 1.10194 0
M  V30 1818 C 174.427 -6.14627 1.49721 0
M  V30 1819 C 173.091 -6.43327 1.78006 0
M  V30 1820 H 172.361 -0.712944 -0.20197 0
M  V30 1821 H 175.008 -1.90582 0.18726 0
M  V30 1822 H 173.313 -3.39805 -1.95037 0
M  V30 1823 H 175.01 -3.65317 -1.65362 0
M  V30 1824 H 171.6 -4.27087 -0.359846 0
M  V30 1825 H 175.784 -4.95087 0.346842 0
M  V30 1826 H 171.04 -5.96804 1.32795 0
M  V30 1827 H 175.214 -6.66126 2.03099 0
M  V30 1828 H 172.841 -7.1695 2.52759 0
M  V30 1829 N 174.416 0.165178 -1.56732 0
M  V30 1830 C 175.664 0.879068 -1.8198 0
M  V30 1831 C 175.985 1.82514 -0.686561 0
M  V30 1832 O 175.255 1.93694 0.293146 0
M  V30 1833 H 173.835 0.327608 -0.671329 0
M  V30 1834 H 176.497 0.163526 -1.94213 0
M  V30 1835 H 175.593 1.45228 -2.76252 0
M  V30 1836 N 175.894 1.51508 0.433938 0
M  V30 1837 C 177.31 1.39759 0.770682 0
M  V30 1838 C 177.51 0.482594 1.95636 0
M  V30 1839 O 176.566 -0.0609691 2.52426 0
M  V30 1840 C 177.879 2.81851 1.04787 0
M  V30 1841 C 179.427 2.91025 1.1521 0
M  V30 1842 C 179.902 4.34032 1.46219 0
M  V30 1843 N 181.393 4.37154 1.53136 0
M  V30 1844 C 182.128 5.4484 1.78709 0
M  V30 1845 N 181.624 6.62682 2.02051 0
M  V30 1846 N 183.417 5.32324 1.80519 0
M  V30 1847 H 175.568 2.09548 -0.346892 0
M  V30 1848 H 177.831 0.943446 -0.0928074 0
M  V30 1849 H 177.537 3.50815 0.249304 0
M  V30 1850 H 177.411 3.21386 1.97461 0
M  V30 1851 H 179.798 2.22257 1.94128 0
M  V30 1852 H 179.879 2.54983 0.204281 0
M  V30 1853 H 179.523 5.03351 0.678274 0
M  V30 1854 H 179.453 4.6759 2.42212 0
M  V30 1855 H 181.944 3.52197 1.36987 0
M  V30 1856 H 182.257 7.40543 2.20943 0
M  V30 1857 H 180.602 6.65791 1.99366 0
M  V30 1858 H 183.793 4.39246 1.61805 0
M  V30 1859 H 183.966 6.16328 2.00111 0
M  V30 1860 N 177.372 -0.689602 1.41712 0
M  V30 1861 C 178.621 -1.44534 1.40686 0
M  V30 1862 C 178.934 -1.95588 0.0213352 0
M  V30 1863 O 180.14 -2.71271 -0.111534 0
M  V30 1864 C 178.596 -2.61387 2.47396 0
M  V30 1865 C 178.204 -2.17094 3.91885 0
M  V30 1866 C 179.948 -3.38986 2.55517 0
M  V30 1867 C 177.855 -3.3094 4.90135 0
M  V30 1868 H 176.785 -0.542925 0.52321 0
M  V30 1869 H 179.436 -0.748054 1.6756 0
M  V30 1870 H 177.818 -3.33412 2.13664 0
M  V30 1871 H 178.992 -1.52318 4.34897 0
M  V30 1872 H 177.307 -1.52473 3.8748 0
M  V30 1873 H 179.904 -4.23747 3.26102 0
M  V30 1874 H 180.247 -3.84578 1.59391 0
M  V30 1875 H 180.78 -2.74021 2.8837 0
M  V30 1876 H 177.519 -2.90355 5.87685 0
M  V30 1877 H 177.039 -3.94546 4.51767 0
M  V30 1878 H 178.718 -3.9663 5.11169 0
M  V30 1879 N 178.85 -1.27639 -0.924453 0
M  V30 1880 C 179.78 -1.13166 -2.04244 0
M  V30 1881 C 180.761 -0.032256 -1.70069 0
M  V30 1882 O 181.946 -0.207328 -1.9309 0
M  V30 1883 C 179.076 -0.781496 -3.38393 0
M  V30 1884 C 178.03 -1.83449 -3.86692 0
M  V30 1885 C 177.356 -1.33822 -5.17683 0
M  V30 1886 C 178.656 -3.23917 -4.09726 0
M  V30 1887 H 180.35 -2.06689 -2.1661 0
M  V30 1888 H 177.896 -0.995136 -1.04082 0
M  V30 1889 H 179.849 -0.667057 -4.16087 0
M  V30 1890 H 178.573 0.189439 -3.2605 0
M  V30 1891 H 177.232 -1.93789 -3.11193 0
M  V30 1892 H 176.88 -0.35665 -5.01734 0
M  V30 1893 H 176.58 -2.04224 -5.50968 0
M  V30 1894 H 178.104 -1.23679 -5.97943 0
M  V30 1895 H 179.518 -3.16559 -4.77978 0
M  V30 1896 H 177.915 -3.92059 -4.54324 0
M  V30 1897 H 178.985 -3.68729 -3.14908 0
M  V30 1898 N 180.328 1.1314 -1.09713 0
M  V30 1899 C 181.576 1.84119 -0.833338 0
M  V30 1900 C 181.897 1.84097 0.642904 0
M  V30 1901 O 181.167 1.29881 1.46655 0
M  V30 1902 H 179.747 0.681766 -0.305293 0
M  V30 1903 H 182.409 1.37038 -1.38588 0
M  V30 1904 H 181.505 2.88543 -1.18951 0
M  V30 1905 N 181.806 0.884767 1.30421 0
M  V30 1906 C 182.753 0.349642 2.28136 0
M  V30 1907 C 183.723 -0.560061 1.56373 0
M  V30 1908 O 184.908 -0.488524 1.8444 0
M  V30 1909 C 182.048 -0.42999 3.42411 0
M  V30 1910 C 181.161 0.508907 4.28992 0
M  V30 1911 C 180.296 -0.286301 5.30428 0
M  V30 1912 C 179.335 0.648079 6.08659 0
M  V30 1913 N 178.472 -0.111792 7.02011 0
M  V30 1914 H 183.312 1.18807 2.73293 0
M  V30 1915 H 180.849 0.597231 1.3443 0
M  V30 1916 H 182.807 -0.897923 4.07423 0
M  V30 1917 H 181.437 -1.23299 2.98324 0
M  V30 1918 H 180.489 1.09533 3.64289 0
M  V30 1919 H 181.801 1.22475 4.8353 0
M  V30 1920 H 180.955 -0.816098 6.01186 0
M  V30 1921 H 179.694 -1.03536 4.76583 0
M  V30 1922 H 178.699 1.18951 5.36778 0
M  V30 1923 H 179.924 1.39623 6.64592 0
M  V30 1924 H 177.87 -0.843395 6.50556 0
M  V30 1925 H 177.787 0.544429 7.54037 0
M  V30 1926 H 179.055 -0.622339 7.77012 0
M  V30 1927 N 183.284 -1.43765 0.645699 0
M  V30 1928 C 184.532 -2.01499 0.155731 0
M  V30 1929 C 184.853 -1.51151 -1.232 0
M  V30 1930 O 184.123 -0.721044 -1.82148 0
M  V30 1931 H 182.703 -0.745003 0.0545817 0
M  V30 1932 H 185.365 -1.76075 0.835677 0
M  V30 1933 H 184.461 -3.1181 0.134577 0
M  V30 1934 N 184.763 -0.387143 -1.52771 0
M  V30 1935 C 185.988 0.198407 -2.06449 0
M  V30 1936 C 186.413 1.39918 -1.25716 0
M  V30 1937 O 185.771 1.79099 -0.281657 0
M  V30 1938 C 185.819 0.548893 -3.56398 0
M  V30 1939 O 184.923 1.64315 -3.78252 0
M  V30 1940 H 184.264 0.0237731 -0.663574 0
M  V30 1941 H 186.794 -0.553989 -1.96957 0
M  V30 1942 H 186.804 0.813812 -3.99801 0
M  V30 1943 H 185.479 -0.329005 -4.14597 0
M  V30 1944 H 184.056 1.37211 -3.46738 0
M  V30 1945 N 186.241 1.57166 -0.116904 0
M  V30 1946 C 187.488 1.95123 0.541603 0
M  V30 1947 C 187.816 1.00006 1.6682 0
M  V30 1948 O 187.071 0.0235658 1.95686 0
M  V30 1949 C 187.37 3.39508 1.11664 0
M  V30 1950 C 187.036 4.50762 0.111606 0
M  V30 1951 C 185.698 4.80918 -0.164758 0
M  V30 1952 C 188.05 5.18036 -0.573438 0
M  V30 1953 C 185.378 5.75666 -1.13249 0
M  V30 1954 C 187.73 6.13824 -1.52978 0
M  V30 1955 C 186.394 6.42374 -1.81415 0
M  V30 1956 H 185.664 0.714005 0.198187 0
M  V30 1957 H 188.311 1.9048 -0.197365 0
M  V30 1958 H 186.616 3.40835 1.93232 0
M  V30 1959 H 188.313 3.66189 1.63422 0
M  V30 1960 H 184.903 4.27272 0.337192 0
M  V30 1961 H 189.087 4.94896 -0.373092 0
M  V30 1962 H 184.343 5.96092 -1.35958 0
M  V30 1963 H 188.517 6.65039 -2.06629 0
M  V30 1964 H 186.144 7.15599 -2.56557 0
M  V30 1965 N 187.719 -0.156864 1.56817 0
M  V30 1966 C 188.967 -0.869404 1.82444 0
M  V30 1967 C 189.288 -1.82147 0.69623 0
M  V30 1968 O 188.558 -1.93847 -0.28287 0
M  V30 1969 H 187.138 -0.324043 0.673056 0
M  V30 1970 H 189.8 -0.153224 1.94297 0
M  V30 1971 H 188.896 -1.43761 2.77019 0
M  V30 1972 N 189.197 -1.51736 -0.425897 0
M  V30 1973 C 190.446 -1.64201 -1.17136 0
M  V30 1974 C 190.759 -0.369705 -1.92074 0
M  V30 1975 O 191.965 -0.373898 -2.68913 0
M  V30 1976 C 190.421 -2.90035 -2.13091 0
M  V30 1977 C 190.029 -4.24312 -1.43747 0
M  V30 1978 C 191.773 -3.1186 -2.87999 0
M  V30 1979 C 189.68 -5.41285 -2.38253 0
M  V30 1980 H 188.61 -0.611624 -0.440944 0
M  V30 1981 H 191.261 -1.78212 -0.437328 0
M  V30 1982 H 189.643 -2.69684 -2.89977 0
M  V30 1983 H 190.817 -4.55086 -0.723408 0
M  V30 1984 H 189.132 -4.08456 -0.809465 0
M  V30 1985 H 191.729 -3.96427 -3.58817 0
M  V30 1986 H 192.072 -2.25403 -3.49999 0
M  V30 1987 H 192.605 -3.32605 -2.18217 0
M  V30 1988 H 189.344 -6.30037 -1.80925 0
M  V30 1989 H 188.864 -5.14872 -3.0768 0
M  V30 1990 H 190.543 -5.73694 -2.99139 0
M  V30 1991 N 190.675 0.682077 -1.42076 0
M  V30 1992 C 191.921 1.44428 -1.42367 0
M  V30 1993 C 192.254 1.94164 -0.0373056 0
M  V30 1994 O 191.529 1.70429 0.937239 0
M  V30 1995 C 191.812 2.64654 -2.44194 0
M  V30 1996 C 191.665 2.20596 -3.91991 0
M  V30 1997 C 192.984 3.66865 -2.431 0
M  V30 1998 H 190.103 0.523834 -0.518428 0
M  V30 1999 H 192.745 0.77576 -1.73442 0
M  V30 2000 H 190.895 3.2169 -2.17826 0
M  V30 2001 H 192.567 1.68783 -4.29313 0
M  V30 2002 H 190.81 1.52242 -4.06208 0
M  V30 2003 H 191.481 3.06921 -4.58807 0
M  V30 2004 H 193.957 3.19531 -2.66532 0
M  V30 2005 H 192.833 4.48577 -3.16339 0
M  V30 2006 H 193.094 4.17493 -1.45437 0
M  V30 2007 N 192.153 1.28127 0.917671 0
M  V30 2008 C 193.402 1.14432 1.66097 0
M  V30 2009 C 193.715 -0.307247 1.93172 0
M  V30 2010 O 194.921 -0.565259 2.65551 0
M  V30 2011 C 193.377 2.00015 2.99202 0
M  V30 2012 C 192.985 3.49889 2.79789 0
M  V30 2013 C 194.729 1.94996 3.77064 0
M  V30 2014 C 192.636 4.27636 4.08511 0
M  V30 2015 H 191.566 0.424662 0.62304 0
M  V30 2016 H 194.217 1.52628 1.01868 0
M  V30 2017 H 192.599 1.54672 3.64544 0
M  V30 2018 H 193.773 4.03162 2.23152 0
M  V30 2019 H 192.088 3.56392 2.15345 0
M  V30 2020 H 194.685 2.50354 4.72469 0
M  V30 2021 H 195.028 0.925819 4.05875 0
M  V30 2022 H 195.561 2.38287 3.18534 0
M  V30 2023 H 192.3 5.30615 3.84874 0
M  V30 2024 H 191.82 3.79137 4.64774 0
M  V30 2025 H 193.499 4.37346 4.76799 0
M  V30 2026 N 193.631 -1.12557 1.10312 0
M  V30 2027 C 194.541 -2.21841 0.763142 0
M  V30 2028 C 195.557 -1.72354 -0.238801 0
M  V30 2029 O 196.733 -2.01249 -0.0778746 0
M  V30 2030 C 193.798 -3.46131 0.198632 0
M  V30 2031 C 192.859 -4.10464 1.25769 0
M  V30 2032 C 192.092 -5.28821 0.72002 0
M  V30 2033 O 192.315 -5.6859 -0.453993 0
M  V30 2034 O 191.249 -5.83437 1.47935 0
M  V30 2035 H 195.075 -2.53312 1.67532 0
M  V30 2036 H 192.66 -1.20867 0.878157 0
M  V30 2037 H 194.542 -4.2125 -0.112401 0
M  V30 2038 H 193.217 -3.16338 -0.686419 0
M  V30 2039 H 192.124 -3.3713 1.62156 0
M  V30 2040 H 193.457 -4.44408 2.11571 0
M  V30 2041 N 195.109 -0.891671 -1.2995 0
M  V30 2042 C 196.072 -0.36828 -2.26222 0
M  V30 2043 C 197.072 0.493014 -1.53056 0
M  V30 2044 O 198.262 0.299213 -1.71611 0
M  V30 2045 C 195.394 0.47442 -3.37583 0
M  V30 2046 H 196.587 -1.21844 -2.74033 0
M  V30 2047 H 194.14 -0.669107 -1.41254 0
M  V30 2048 H 194.875 1.34489 -2.95099 0
M  V30 2049 H 194.66 -0.142615 -3.91841 0
M  V30 2050 H 196.15 0.83218 -4.09224 0
M  V30 2051 N 196.587 1.43421 -0.653314 0
M  V30 2052 C 197.815 2.06163 -0.174491 0
M  V30 2053 C 198.23 1.48969 1.1599 0
M  V30 2054 O 197.587 0.621042 1.71608 0
M  V30 2055 C 197.638 3.61417 -0.0774865 0
M  V30 2056 O 197.359 4.16485 -1.35912 0
M  V30 2057 C 198.86 4.41235 0.427402 0
M  V30 2058 H 196.08 0.664946 -0.0899353 0
M  V30 2059 H 198.624 1.83924 -0.893988 0
M  V30 2060 H 196.779 3.82841 0.59257 0
M  V30 2061 H 197.193 5.10153 -1.21839 0
M  V30 2062 H 198.667 5.5021 0.44423 0
M  V30 2063 H 199.144 4.14268 1.45873 0
M  V30 2064 H 199.75 4.2478 -0.210167 0
M  V30 2065 N 198.065 0.39524 1.52563 0
M  V30 2066 C 199.342 -0.242908 1.94086 0
M  V30 2067 C 199.722 -1.63841 1.33114 0
M  V30 2068 O 199.07 -2.22928 0.501529 0
M  V30 2069 C 199.28 -0.26327 3.48006 0
M  V30 2070 C 200.628 -0.489354 4.21771 0
M  V30 2071 O 201.652 -0.343226 3.54543 0
M  V30 2072 O 200.511 -0.776169 5.4096 0
M  V30 2073 H 197.605 -0.152536 0.812811 0
M  V30 2074 H 200.151 0.450178 1.6362 0
M  V30 2075 H 198.923 0.713985 3.84731 0
M  V30 2076 H 198.546 -1.00103 3.84792 0
M  V30 2077 N 199.544 -1.57102 0.125237 0
M  V30 2078 C 200.491 -2.15641 -0.822655 0
M  V30 2079 C 201.461 -1.08313 -1.25927 0
M  V30 2080 O 202.646 -1.36251 -1.33567 0
M  V30 2081 C 199.786 -2.76504 -2.06494 0
M  V30 2082 C 198.899 -3.98158 -1.67612 0
M  V30 2083 C 198.034 -4.47088 -2.86854 0
M  V30 2084 C 197.073 -5.6126 -2.44242 0
M  V30 2085 N 196.21 -6.04905 -3.56419 0
M  V30 2086 H 201.05 -2.96313 -0.316625 0
M  V30 2087 H 198.587 -1.46388 -0.144588 0
M  V30 2088 H 200.545 -3.09925 -2.79289 0
M  V30 2089 H 199.175 -1.98512 -2.54545 0
M  V30 2090 H 198.227 -3.70858 -0.846661 0
M  V30 2091 H 199.539 -4.80934 -1.32301 0
M  V30 2092 H 198.693 -4.82451 -3.67867 0
M  V30 2093 H 197.432 -3.63275 -3.25396 0
M  V30 2094 H 196.437 -5.25495 -1.61663 0
M  V30 2095 H 197.662 -6.46843 -2.0681 0
M  V30 2096 H 195.608 -5.24032 -3.94623 0
M  V30 2097 H 195.525 -6.82552 -3.25051 0
M  V30 2098 H 196.793 -6.44907 -4.37853 0
M  V30 2099 N 201.022 0.148545 -1.56898 0
M  V30 2100 C 201.932 1.20293 -2.01412 0
M  V30 2101 C 202.948 1.47107 -0.929273 0
M  V30 2102 O 204.124 1.58807 -1.23863 0
M  V30 2103 C 201.189 2.51682 -2.38447 0
M  V30 2104 C 200.25 2.32529 -3.60872 0
M  V30 2105 C 199.483 3.57653 -3.96132 0
M  V30 2106 O 199.706 4.63771 -3.32073 0
M  V30 2107 O 198.64 3.50408 -4.89385 0
M  V30 2108 H 202.466 0.855025 -2.91416 0
M  V30 2109 H 200.051 0.357151 -1.45068 0
M  V30 2110 H 201.933 3.29147 -2.63135 0
M  V30 2111 H 200.608 2.86006 -1.51599 0
M  V30 2112 H 199.515 1.53019 -3.41373 0
M  V30 2113 H 200.848 2.03121 -4.48333 0
M  V30 2114 N 202.5 1.5196 0.417844 0
M  V30 2115 C 203.728 1.69426 1.18753 0
M  V30 2116 C 204.143 0.399955 1.84515 0
M  V30 2117 O 203.5 -0.623288 1.71527 0
M  V30 2118 C 203.551 2.82375 2.25714 0
M  V30 2119 O 203.272 4.06793 1.62638 0
M  V30 2120 C 204.773 3.11277 3.15628 0
M  V30 2121 H 201.993 0.568031 0.357186 0
M  V30 2122 H 204.537 1.98475 0.49273 0
M  V30 2123 H 202.692 2.5587 2.90877 0
M  V30 2124 H 203.106 4.69667 2.3348 0
M  V30 2125 H 204.58 3.93843 3.86771 0
M  V30 2126 H 205.057 2.24473 3.77503 0
M  V30 2127 H 205.663 3.39515 2.56144 0
M  V30 2128 N 203.978 -0.674533 1.42435 0
M  V30 2129 C 204.888 -1.81751 1.48337 0
M  V30 2130 C 205.904 -1.69975 0.372099 0
M  V30 2131 O 207.08 -1.91521 0.62304 0
M  V30 2132 C 204.145 -3.17895 1.38361 0
M  V30 2133 C 203.206 -3.41625 2.59982 0
M  V30 2134 C 202.439 -4.71274 2.50473 0
M  V30 2135 O 202.662 -5.49197 1.54075 0
M  V30 2136 O 201.596 -4.96254 3.4061 0
M  V30 2137 H 205.422 -1.79728 2.44809 0
M  V30 2138 H 203.007 -0.830312 1.24202 0
M  V30 2139 H 204.889 -3.99136 1.35161 0
M  V30 2140 H 203.564 -3.20555 0.450144 0
M  V30 2141 H 202.471 -2.60231 2.68757 0
M  V30 2142 H 203.804 -3.43796 3.52229 0
M  V30 2143 N 205.456 -1.28612 -0.910864 0
M  V30 2144 C 206.684 -1.18792 -1.69399 0
M  V30 2145 C 207.099 0.253039 -1.87097 0
M  V30 2146 O 206.456 1.17071 -1.40003 0
M  V30 2147 C 206.507 -1.88511 -3.08457 0
M  V30 2148 O 206.228 -3.26979 -2.91576 0
M  V30 2149 C 207.729 -1.85029 -4.02839 0
M  V30 2150 H 204.949 -0.412233 -0.529438 0
M  V30 2151 H 207.493 -1.69788 -1.13984 0
M  V30 2152 H 205.648 -1.41379 -3.60681 0
M  V30 2153 H 206.062 -3.61936 -3.79608 0
M  V30 2154 H 207.536 -2.38395 -4.97867 0
M  V30 2155 H 208.013 -0.823303 -4.31414 0
M  V30 2156 H 208.619 -2.31853 -3.56545 0
M  V30 2157 N 206.934 1.1197 -1.10907 0
M  V30 2158 C 207.881 2.17846 -0.762345 0
M  V30 2159 C 208.851 1.63995 0.263599 0
M  V30 2160 O 210.036 1.90273 0.141773 0
M  V30 2161 C 207.176 3.44487 -0.205651 0
M  V30 2162 C 206.289 4.12369 -1.28748 0
M  V30 2163 C 205.424 5.26674 -0.691919 0
M  V30 2164 C 204.463 5.86431 -1.75399 0
M  V30 2165 N 203.6 6.92142 -1.17833 0
M  V30 2166 H 208.44 2.46851 -1.6694 0
M  V30 2167 H 205.977 1.21188 -0.833776 0
M  V30 2168 H 207.935 4.16981 0.135037 0
M  V30 2169 H 206.565 3.15884 0.664613 0
M  V30 2170 H 205.617 3.38003 -1.74522 0
M  V30 2171 H 206.929 4.52844 -2.09125 0
M  V30 2172 H 206.083 6.05953 -0.300963 0
M  V30 2173 H 204.822 4.8749 0.143232 0
M  V30 2174 H 203.827 5.05835 -2.15432 0
M  V30 2175 H 205.052 6.27685 -2.59208 0
M  V30 2176 H 202.998 6.54985 -0.364725 0
M  V30 2177 H 202.915 7.31242 -1.91887 0
M  V30 2178 H 204.183 7.75237 -0.81408 0
M  V30 2179 N 208.412 0.89855 1.29475 0
M  V30 2180 C 209.658 0.534065 1.96263 0
M  V30 2181 C 210.013 -0.909415 1.69551 0
M  V30 2182 O 209.306 -1.63596 0.997349 0
M  V30 2183 C 209.5 0.761398 3.49195 0
M  V30 2184 C 209.329 2.22542 3.90775 0
M  V30 2185 C 208.099 2.87264 4.15701 0
M  V30 2186 C 210.297 3.20051 4.02581 0
M  V30 2187 N 208.279 4.24121 4.4384 0
M  V30 2188 C 209.65 4.42023 4.34759 0
M  V30 2189 C 211.705 3.15657 3.85052 0
M  V30 2190 C 210.408 5.60161 4.51235 0
M  V30 2191 C 212.434 4.33078 4.02737 0
M  V30 2192 C 211.796 5.5382 4.35273 0
M  V30 2193 H 207.895 0.245013 0.742625 0
M  V30 2194 H 210.479 1.15912 1.56437 0
M  V30 2195 H 208.65 0.165732 3.88046 0
M  V30 2196 H 210.382 0.362462 4.03074 0
M  V30 2197 H 207.137 2.38064 4.09417 0
M  V30 2198 H 207.561 4.94839 4.6202 0
M  V30 2199 H 212.203 2.23396 3.58962 0
M  V30 2200 H 209.921 6.52913 4.76162 0
M  V30 2201 H 213.507 4.31163 3.90628 0
M  V30 2202 H 212.387 6.43166 4.48672 0
M  V30 2203 N 209.89 -1.43072 0.660911 0
M  V30 2204 C 210.853 -2.29194 -0.0166406 0
M  V30 2205 C 211.853 -1.42609 -0.742912 0
M  V30 2206 O 213.043 -1.64155 -0.583004 0
M  V30 2207 C 210.175 -3.24831 -1.0343 0
M  V30 2208 H 211.368 -2.90596 0.741208 0
M  V30 2209 H 208.921 -1.5048 0.422532 0
M  V30 2210 H 209.656 -2.68339 -1.82111 0
M  V30 2211 H 209.441 -3.88676 -0.517082 0
M  V30 2212 H 210.931 -3.89451 -1.50723 0
M  V30 2213 N 211.368 -0.403325 -1.52352 0
M  V30 2214 C 212.617 0.175668 -2.00934 0
M  V30 2215 C 212.93 1.46718 -1.29356 0
M  V30 2216 O 214.136 2.12708 -1.68724 0
M  V30 2217 C 212.592 0.363612 -3.58058 0
M  V30 2218 C 212.2 -0.915472 -4.38547 0
M  V30 2219 C 213.944 0.89821 -4.14888 0
M  V30 2220 C 211.851 -0.695035 -5.87302 0
M  V30 2221 H 210.781 0.0694234 -0.750797 0
M  V30 2222 H 213.432 -0.527879 -1.75743 0
M  V30 2223 H 211.814 1.12935 -3.79555 0
M  V30 2224 H 212.988 -1.68691 -4.28812 0
M  V30 2225 H 211.303 -1.37606 -3.93006 0
M  V30 2226 H 213.9 1.07907 -5.23699 0
M  V30 2227 H 214.243 1.87126 -3.71873 0
M  V30 2228 H 214.776 0.191681 -3.97338 0
M  V30 2229 H 211.515 -1.63948 -6.34666 0
M  V30 2230 H 211.035 0.0372116 -5.99788 0
M  V30 2231 H 212.714 -0.33497 -6.46132 0
M  V30 2232 N 212.846 1.57033 -0.133567 0
M  V30 2233 C 213.793 2.16074 0.811208 0
M  V30 2234 C 214.763 1.08979 1.2535 0
M  V30 2235 O 215.948 1.36958 1.32843 0
M  V30 2236 C 213.088 2.77595 2.05024 0
M  V30 2237 C 212.201 3.99042 1.65498 0
M  V30 2238 C 211.336 4.48603 2.84479 0
M  V30 2239 C 210.375 5.62547 2.41262 0
M  V30 2240 N 209.512 6.06787 3.53206 0
M  V30 2241 H 214.352 2.96477 0.300906 0
M  V30 2242 H 211.889 1.46462 0.136822 0
M  V30 2243 H 213.847 3.11402 2.77642 0
M  V30 2244 H 212.477 1.99859 2.53488 0
M  V30 2245 H 211.529 3.71302 0.826981 0
M  V30 2246 H 212.841 4.81629 1.29748 0
M  V30 2247 H 211.995 4.84395 3.65303 0
M  V30 2248 H 210.734 3.64995 3.23465 0
M  V30 2249 H 209.739 5.26345 1.58874 0
M  V30 2250 H 210.964 6.47931 2.03377 0
M  V30 2251 H 208.91 5.26117 3.91838 0
M  V30 2252 H 208.827 6.84266 3.21427 0
M  V30 2253 H 210.095 6.4722 4.34427 0
M  V30 2254 N 214.325 -0.140222 1.56975 0
M  V30 2255 C 215.272 -1.17292 1.98774 0
M  V30 2256 C 216.242 -1.4232 0.856408 0
M  V30 2257 O 217.427 -1.54541 1.119 0
M  V30 2258 C 214.567 -2.49973 2.37923 0
M  V30 2259 C 213.68 -2.32062 3.64378 0
M  V30 2260 C 212.815 -3.57825 3.926 0
M  V30 2261 C 211.854 -3.3498 5.12303 0
M  V30 2262 N 210.991 -4.52891 5.36502 0
M  V30 2263 H 215.831 -0.809472 2.86795 0
M  V30 2264 H 213.368 -0.388237 1.41884 0
M  V30 2265 H 215.326 -3.27346 2.58652 0
M  V30 2266 H 213.956 -2.84252 1.52972 0
M  V30 2267 H 213.008 -1.45711 3.51387 0
M  V30 2268 H 214.32 -2.11145 4.51906 0
M  V30 2269 H 213.474 -4.43624 4.13863 0
M  V30 2270 H 212.213 -3.81753 3.03506 0
M  V30 2271 H 211.218 -2.4757 4.90906 0
M  V30 2272 H 212.443 -3.12444 6.02956 0
M  V30 2273 H 210.389 -4.76979 4.50363 0
M  V30 2274 H 210.306 -4.35001 6.18312 0
M  V30 2275 H 211.574 -5.39884 5.62268 0
M  V30 2276 N 215.803 -1.52179 -0.40978 0
M  V30 2277 C 217.049 -1.66453 -1.15851 0
M  V30 2278 C 217.382 -0.392972 -1.90182 0
M  V30 2279 O 216.657 0.608579 -1.84734 0
M  V30 2280 C 216.94 -2.88612 -2.15349 0
M  V30 2281 C 216.793 -4.25815 -1.44918 0
M  V30 2282 C 218.112 -3.06294 -3.16026 0
M  V30 2283 H 215.231 -0.60575 -0.419805 0
M  V30 2284 H 217.873 -1.84732 -0.444314 0
M  V30 2285 H 216.023 -2.73158 -2.76255 0
M  V30 2286 H 217.695 -4.52995 -0.871365 0
M  V30 2287 H 215.938 -4.27247 -0.751159 0
M  V30 2288 H 216.609 -5.07337 -2.17516 0
M  V30 2289 H 219.085 -3.20641 -2.65195 0
M  V30 2290 H 217.961 -3.93283 -3.8291 0
M  V30 2291 H 218.222 -2.19579 -3.83715 0
M  V30 2292 N 217.281 0.66697 -1.42791 0
M  V30 2293 C 218.229 1.80157 -1.47127 0
M  V30 2294 C 219.223 1.65825 -0.346199 0
M  V30 2295 O 220.429 1.72338 -0.519572 0
M  V30 2296 H 216.804 0.594158 -0.460956 0
M  V30 2297 H 218.775 1.73619 -2.42692 0
M  V30 2298 C 217.524 3.18351 -1.39813 0
M  V30 2299 H 216.847 3.3001 -2.25684 0
M  V30 2300 H 218.287 3.97736 -1.46908 0
M  V30 2301 C 216.746 3.36707 -0.11391 0
M  V30 2302 O 217.276 3.93027 0.830241 0
M  V30 2303 N 215.482 2.90586 -0.0285295 0
M  V30 2304 H 215.029 2.4494 -0.79764 0
M  V30 2305 H 214.987 3.03245 0.830063 0
M  V30 2306 N 218.759 1.29093 0.90403 0
M  V30 2307 C 219.706 1.13853 2.00764 0
M  V30 2308 C 220.676 0.0330084 1.66067 0
M  V30 2309 O 221.861 0.199733 1.89752 0
M  V30 2310 C 219.001 0.816537 3.35301 0
M  V30 2311 C 218.114 2.00206 3.82807 0
M  V30 2312 C 217.249 1.61983 5.059 0
M  V30 2313 C 216.288 2.77143 5.45764 0
M  V30 2314 N 215.425 2.39346 6.60044 0
M  V30 2315 H 220.265 2.08276 2.13132 0
M  V30 2316 H 217.802 1.03648 1.04381 0
M  V30 2317 H 219.76 0.610557 4.12708 0
M  V30 2318 H 218.39 -0.090779 3.22672 0
M  V30 2319 H 217.442 2.31988 3.01473 0
M  V30 2320 H 218.754 2.86512 4.08304 0
M  V30 2321 H 217.908 1.37649 5.90879 0
M  V30 2322 H 216.647 0.728202 4.82233 0
M  V30 2323 H 215.652 3.02165 4.59322 0
M  V30 2324 H 216.877 3.66964 5.71414 0
M  V30 2325 H 214.823 1.52665 6.37989 0
M  V30 2326 H 214.74 3.19185 6.85315 0
M  V30 2327 H 216.008 2.1832 7.48303 0
M  V30 2328 N 220.237 -1.11381 1.11499 0
M  V30 2329 C 221.147 -2.21019 0.786628 0
M  V30 2330 C 222.163 -1.72597 -0.220507 0
M  V30 2331 O 223.339 -2.01321 -0.0565251 0
M  V30 2332 C 220.404 -3.459 0.235333 0
M  V30 2333 C 219.465 -4.09107 1.30115 0
M  V30 2334 C 218.698 -5.28027 0.776068 0
M  V30 2335 O 218.921 -5.6904 -0.393661 0
M  V30 2336 O 217.855 -5.81835 1.54114 0
M  V30 2337 H 221.681 -2.51521 1.70209 0
M  V30 2338 H 219.266 -1.19928 0.890928 0
M  V30 2339 H 221.148 -4.21346 -0.067715 0
M  V30 2340 H 219.823 -3.17049 -0.652828 0
M  V30 2341 H 218.73 -3.35391 1.65722 0
M  V30 2342 H 220.063 -4.42139 2.16273 0
M  V30 2343 N 221.715 -0.905404 -1.28997 0
M  V30 2344 C 222.662 -0.385892 -2.27551 0
M  V30 2345 C 223.632 0.535113 -1.57244 0
M  V30 2346 O 224.817 0.459119 -1.85194 0
M  V30 2347 C 221.957 0.375461 -3.43051 0
M  V30 2348 C 221.07 -0.577092 -4.28128 0
M  V30 2349 C 220.205 0.201879 -5.30816 0
M  V30 2350 C 219.244 -0.744829 -6.07551 0
M  V30 2351 N 218.381 9.42587e-05 -7.021 0
M  V30 2352 H 223.221 -1.23139 -2.71368 0
M  V30 2353 H 220.758 -0.618542 -1.33463 0
M  V30 2354 H 222.716 0.832992 -4.088 0
M  V30 2355 H 221.346 1.18537 -3.00248 0
M  V30 2356 H 220.398 -1.15315 -3.62501 0
M  V30 2357 H 221.71 -1.30152 -4.8152 0
M  V30 2358 H 220.864 0.720351 -6.02408 0
M  V30 2359 H 219.603 0.959413 -4.7817 0
M  V30 2360 H 218.608 -1.27475 -5.34818 0
M  V30 2361 H 219.833 -1.50178 -6.62286 0
M  V30 2362 H 217.779 0.739791 -6.51815 0
M  V30 2363 H 217.696 -0.664321 -7.53076 0
M  V30 2364 H 218.964 0.498644 -7.77903 0
M  V30 2365 N 223.193 1.4272 -0.668489 0
M  V30 2366 C 224.156 2.292 0.00448567 0
M  V30 2367 C 225.156 1.43001 0.735339 0
M  V30 2368 O 226.346 1.64461 0.57429 0
M  V30 2369 C 223.478 3.25375 1.01705 0
M  V30 2370 H 224.671 2.90199 -0.756608 0
M  V30 2371 H 222.224 1.50254 -0.430506 0
M  V30 2372 H 222.959 2.69301 1.80686 0
M  V30 2373 H 222.744 3.88944 0.496463 0
M  V30 2374 H 224.234 3.90245 1.48655 0
M  V30 2375 N 224.671 0.411399 1.52136 0
M  V30 2376 C 225.919 -0.163322 2.01439 0
M  V30 2377 C 226.24 -1.45453 1.29879 0
M  V30 2378 O 225.51 -1.91225 0.4254 0
M  V30 2379 H 224.09 -0.0633447 0.744309 0
M  V30 2380 H 226.752 0.548161 1.87033 0
M  V30 2381 H 225.848 -0.357817 3.10042 0
M  V30 2382 N 226.149 -1.5696 0.141893 0
M  V30 2383 C 227.374 -2.00754 -0.520838 0
M  V30 2384 C 227.799 -1.0213 -1.57959 0
M  V30 2385 O 227.157 0.00371324 -1.813 0
M  V30 2386 C 227.205 -3.43318 -1.10294 0
M  V30 2387 O 226.309 -3.47679 -2.21795 0
M  V30 2388 H 225.65 -0.651564 -0.127908 0
M  V30 2389 H 228.18 -2.03221 0.23712 0
M  V30 2390 H 228.19 -3.82012 -1.43287 0
M  V30 2391 H 226.865 -4.14608 -0.327574 0
M  V30 2392 H 225.442 -3.20824 -1.9007 0
M  V30 2393 N 227.627 0.131896 -1.57047 0
M  V30 2394 C 228.852 0.860418 -1.8871 0
M  V30 2395 C 229.277 1.73251 -0.73251 0
M  V30 2396 O 228.635 1.785 0.317429 0
M  V30 2397 C 228.683 1.68047 -3.19049 0
M  V30 2398 O 227.787 2.7862 -3.04047 0
M  V30 2399 H 227.128 0.238743 -0.619595 0
M  V30 2400 H 229.658 0.118169 -2.04258 0
M  V30 2401 H 229.668 2.07238 -3.51449 0
M  V30 2402 H 228.343 1.04018 -4.02682 0
M  V30 2403 H 226.92 2.42726 -2.83088 0
M  V30 2404 N 229.106 1.52395 0.401703 0
M  V30 2405 C 230.069 1.75636 1.47257 0
M  V30 2406 C 231.069 0.62628 1.48103 0
M  V30 2407 O 232.259 0.894227 1.49497 0
M  V30 2408 C 229.391 1.84553 2.86624 0
M  V30 2409 H 230.584 2.71241 1.27938 0
M  V30 2410 H 228.137 1.42923 0.632662 0
M  V30 2411 H 228.872 0.908882 3.11303 0
M  V30 2412 H 228.657 2.66715 2.87412 0
M  V30 2413 H 230.147 2.04251 3.64241 0
M  V30 2414 N 230.584 -0.659388 1.43143 0
M  V30 2415 C 231.83 -1.42145 1.44647 0
M  V30 2416 C 232.163 -1.9408 0.0681907 0
M  V30 2417 O 231.438 -1.71899 -0.910007 0
M  V30 2418 C 231.721 -2.60735 2.48373 0
M  V30 2419 C 231.574 -2.14332 3.95451 0
M  V30 2420 C 232.893 -3.62951 2.48906 0
M  V30 2421 H 230.012 -0.51552 0.526696 0
M  V30 2422 H 232.654 -0.748069 1.74654 0
M  V30 2423 H 230.804 -3.18184 2.22916 0
M  V30 2424 H 232.476 -1.61932 4.31944 0
M  V30 2425 H 230.719 -1.4576 4.08578 0
M  V30 2426 H 231.39 -2.99583 4.63631 0
M  V30 2427 H 233.866 -3.1525 2.71582 0
M  V30 2428 H 232.742 -4.43487 3.23435 0
M  V30 2429 H 233.003 -4.15126 1.52061 0
M  V30 2430 N 232.062 -1.29571 -0.897171 0
M  V30 2431 C 233.009 -1.14916 -2.00158 0
M  V30 2432 C 233.979 -0.0418149 -1.66047 0
M  V30 2433 O 235.164 -0.209793 -1.89643 0
M  V30 2434 C 232.304 -0.834307 -3.34863 0
M  V30 2435 C 231.417 -2.02234 -3.8174 0
M  V30 2436 C 230.552 -1.64664 -5.05034 0
M  V30 2437 C 229.591 -2.80033 -5.44286 0
M  V30 2438 N 228.728 -2.42843 -6.58765 0
M  V30 2439 H 233.568 -2.09403 -2.12025 0
M  V30 2440 H 231.105 -1.042 -1.0383 0
M  V30 2441 H 233.063 -0.632436 -4.12379 0
M  V30 2442 H 231.693 0.0736656 -3.22716 0
M  V30 2443 H 230.745 -2.33583 -3.00238 0
M  V30 2444 H 232.057 -2.88673 -4.06779 0
M  V30 2445 H 231.211 -1.4078 -5.9014 0
M  V30 2446 H 229.95 -0.753766 -4.8184 0
M  V30 2447 H 228.955 -3.04596 -4.57713 0
M  V30 2448 H 230.18 -3.69989 -5.6946 0
M  V30 2449 H 228.126 -1.56046 -6.3717 0
M  V30 2450 H 228.043 -3.22815 -6.83613 0
M  V30 2451 H 229.311 -2.22285 -7.47134 0
M  V30 2452 N 233.54 1.10788 -1.12088 0
M  V30 2453 C 234.47 2.19083 -0.807755 0
M  V30 2454 C 235.451 1.6858 0.226859 0
M  V30 2455 O 236.636 1.93997 0.0888475 0
M  V30 2456 C 233.766 3.46344 -0.257576 0
M  V30 2457 C 232.72 4.101 -1.22483 0
M  V30 2458 C 232.046 5.32016 -0.535052 0
M  V30 2459 C 233.346 4.54236 -2.57811 0
M  V30 2460 H 235.04 2.45534 -1.71328 0
M  V30 2461 H 232.586 1.1801 -0.825205 0
M  V30 2462 H 234.539 4.21392 -0.0262679 0
M  V30 2463 H 233.263 3.19373 0.683278 0
M  V30 2464 H 231.922 3.37054 -1.44189 0
M  V30 2465 H 231.57 5.01319 0.410827 0
M  V30 2466 H 231.27 5.75625 -1.18024 0
M  V30 2467 H 232.794 6.09799 -0.312695 0
M  V30 2468 H 234.208 5.20575 -2.40155 0
M  V30 2469 H 232.605 5.08682 -3.18375 0
M  V30 2470 H 233.675 3.6734 -3.16528 0
M  V30 2471 N 235.018 0.912232 1.28515 0
M  V30 2472 C 235.948 0.416403 2.29757 0
M  V30 2473 C 236.929 -0.515194 1.6211 0
M  V30 2474 O 238.114 -0.423253 1.89532 0
M  V30 2475 C 235.244 -0.34572 3.45575 0
M  V30 2476 C 234.198 0.496599 4.25109 0
M  V30 2477 C 233.524 -0.393771 5.33248 0
M  V30 2478 C 234.824 1.75307 4.92001 0
M  V30 2479 H 236.518 1.26249 2.7148 0
M  V30 2480 H 234.064 0.608515 1.30511 0
M  V30 2481 H 236.017 -0.703422 4.15488 0
M  V30 2482 H 234.741 -1.2257 3.02728 0
M  V30 2483 H 233.4 0.8368 3.56922 0
M  V30 2484 H 233.048 -1.27225 4.86644 0
M  V30 2485 H 232.748 0.166209 5.87365 0
M  V30 2486 H 234.272 -0.747389 6.06009 0
M  V30 2487 H 235.686 1.46437 5.54283 0
M  V30 2488 H 234.083 2.25534 5.56106 0
M  V30 2489 H 235.153 2.48176 4.16577 0
M  V30 2490 N 236.496 -1.42363 0.676048 0
M  V30 2491 C 237.406 -2.346 -0.00153389 0
M  V30 2492 C 238.422 -1.5516 -0.787485 0
M  V30 2493 O 239.598 -1.87723 -0.729521 0
M  V30 2494 C 236.663 -3.33705 -0.940298 0
M  V30 2495 C 235.724 -4.29042 -0.148739 0
M  V30 2496 C 234.957 -5.23413 -1.04279 0
M  V30 2497 O 235.18 -5.22749 -2.28232 0
M  V30 2498 O 234.114 -5.99795 -0.502925 0
M  V30 2499 H 237.94 -2.94082 0.758268 0
M  V30 2500 H 235.525 -1.42888 0.436289 0
M  V30 2501 H 237.407 -3.94586 -1.47917 0
M  V30 2502 H 236.082 -2.76695 -1.67993 0
M  V30 2503 H 234.989 -3.71571 0.43427 0
M  V30 2504 H 236.322 -4.89097 0.551805 0
M  V30 2505 N 237.974 -0.419461 -1.51915 0
M  V30 2506 C 239.39 -0.0708431 -1.59443 0
M  V30 2507 C 239.59 1.41796 -1.43164 0
M  V30 2508 O 238.646 2.18596 -1.26381 0
M  V30 2509 C 239.959 -0.574991 -2.95151 0
M  V30 2510 C 241.507 -0.533867 -3.08413 0
M  V30 2511 C 241.982 -1.01469 -4.46618 0
M  V30 2512 N 243.473 -0.971939 -4.52888 0
M  V30 2513 C 244.208 -1.31505 -5.58116 0
M  V30 2514 N 243.704 -1.73014 -6.70849 0
M  V30 2515 N 245.497 -1.23436 -5.48379 0
M  V30 2516 H 237.648 -1.38836 -1.60743 0
M  V30 2517 H 239.911 -0.570998 -0.756747 0
M  V30 2518 H 239.617 -1.61597 -3.12377 0
M  V30 2519 H 239.491 0.00979777 -3.77199 0
M  V30 2520 H 241.878 0.498086 -2.90866 0
M  V30 2521 H 241.959 -1.15484 -2.28248 0
M  V30 2522 H 241.603 -2.04502 -4.6491 0
M  V30 2523 H 241.533 -0.370433 -5.25295 0
M  V30 2524 H 244.024 -0.666893 -3.71969 0
M  V30 2525 H 244.337 -1.97479 -7.47143 0
M  V30 2526 H 242.682 -1.76926 -6.72103 0
M  V30 2527 H 245.873 -0.908869 -4.59192 0
M  V30 2528 H 246.046 -1.50506 -6.30279 0
M  V30 2529 N 239.452 1.56882 -0.150215 0
M  V30 2530 C 240.362 2.20494 0.801222 0
M  V30 2531 C 241.378 1.19019 1.26927 0
M  V30 2532 O 242.554 1.51607 1.32579 0
M  V30 2533 C 239.619 2.81659 2.02161 0
M  V30 2534 C 238.68 3.9827 1.60249 0
M  V30 2535 C 237.913 4.56508 2.7647 0
M  V30 2536 O 238.136 4.13627 3.92771 0
M  V30 2537 O 237.07 5.46719 2.51757 0
M  V30 2538 H 240.896 3.02315 0.289717 0
M  V30 2539 H 238.481 1.49202 0.0769684 0
M  V30 2540 H 240.363 3.20522 2.73576 0
M  V30 2541 H 239.038 2.02849 2.52258 0
M  V30 2542 H 237.945 3.64117 0.858477 0
M  V30 2543 H 239.278 4.78609 1.14864 0
M  V30 2544 N 240.93 -0.123565 1.57115 0
M  V30 2545 C 242.176 -0.833386 1.84885 0
M  V30 2546 C 242.509 -1.79742 0.735292 0
M  V30 2547 O 241.784 -1.92764 -0.25925 0
M  V30 2548 C 242.067 -1.5873 3.23228 0
M  V30 2549 C 241.92 -0.643183 4.45178 0
M  V30 2550 C 243.239 -2.54453 3.59085 0
M  V30 2551 H 240.358 -0.301518 0.6725 0
M  V30 2552 H 243 -0.097778 1.89748 0
M  V30 2553 H 241.15 -2.21438 3.19214 0
M  V30 2554 H 242.822 -0.0253015 4.61293 0
M  V30 2555 H 241.065 0.0456139 4.33776 0
M  V30 2556 H 241.736 -1.20724 5.38637 0
M  V30 2557 H 244.212 -2.01853 3.63861 0
M  V30 2558 H 243.088 -3.04238 4.5687 0
M  V30 2559 H 243.349 -3.36906 2.86264 0
M  V30 2560 N 242.408 -1.52605 -0.393616 0
M  V30 2561 C 243.356 -1.77688 -1.50099 0
M  V30 2562 C 244.35 -0.644615 -1.56656 0
M  V30 2563 O 245.556 -0.826997 -1.59877 0
M  V30 2564 H 241.931 -0.562159 -0.499481 0
M  V30 2565 H 243.902 -2.7043 -1.26135 0
M  V30 2566 C 242.651 -1.95858 -2.87289 0
M  V30 2567 H 241.974 -2.8241 -2.82992 0
M  V30 2568 H 243.414 -2.174 -3.64024 0
M  V30 2569 C 241.873 -0.729848 -3.28899 0
M  V30 2570 O 242.403 0.0949217 -4.01588 0
M  V30 2571 N 240.609 -0.561283 -2.85128 0
M  V30 2572 H 240.156 -1.23357 -2.26143 0
M  V30 2573 H 240.114 0.2595 -3.13327 0
M  V30 2574 N 243.887 0.651787 -1.4349 0
M  V30 2575 C 245.136 1.40754 -1.44469 0
M  V30 2576 C 245.449 1.95463 -0.0731845 0
M  V30 2577 O 246.655 2.71471 0.0395721 0
M  V30 2578 C 245.111 2.54735 -2.5424 0
M  V30 2579 C 244.719 2.06628 -3.97504 0
M  V30 2580 C 246.463 3.32092 -2.64414 0
M  V30 2581 C 244.37 3.17829 -4.98737 0
M  V30 2582 H 243.3 0.528862 -0.53742 0
M  V30 2583 H 245.951 0.703365 -1.69485 0
M  V30 2584 H 244.333 3.2763 -2.22428 0
M  V30 2585 H 245.507 1.40734 -4.38783 0
M  V30 2586 H 243.822 1.42146 -3.91387 0
M  V30 2587 H 246.419 4.14952 -3.37223 0
M  V30 2588 H 246.762 3.80217 -1.69532 0
M  V30 2589 H 247.295 2.66279 -2.95534 0
M  V30 2590 H 244.034 2.74671 -5.95177 0
M  V30 2591 H 243.554 3.82429 -4.62069 0
M  V30 2592 H 245.233 3.82937 -5.21505 0
M  V30 2593 N 245.365 1.30045 0.890287 0
M  V30 2594 C 246.295 1.18541 2.01172 0
M  V30 2595 C 247.276 0.0773356 1.69924 0
M  V30 2596 O 248.461 0.25845 1.92473 0
M  V30 2597 C 245.591 0.870941 3.36202 0
M  V30 2598 C 244.545 1.93637 3.81692 0
M  V30 2599 C 243.871 1.475 5.13953 0
M  V30 2600 C 245.171 3.34666 4.00994 0
M  V30 2601 H 246.865 2.12359 2.11054 0
M  V30 2602 H 244.411 1.02238 1.01407 0
M  V30 2603 H 246.364 0.777141 4.14172 0
M  V30 2604 H 245.088 -0.102926 3.26438 0
M  V30 2605 H 243.747 2.01972 3.05946 0
M  V30 2606 H 243.395 0.489551 5.00612 0
M  V30 2607 H 243.095 2.1876 5.4536 0
M  V30 2608 H 244.619 1.39489 5.94454 0
M  V30 2609 H 246.033 3.2912 4.69417 0
M  V30 2610 H 244.43 4.03966 4.43769 0
M  V30 2611 H 245.5 3.76949 3.05021 0
M  V30 2612 N 246.843 -1.10192 1.12674 0
M  V30 2613 C 247.79 -2.16606 0.796906 0
M  V30 2614 C 248.76 -1.64394 -0.237476 0
M  V30 2615 O 249.945 -1.90474 -0.111484 0
M  V30 2616 C 247.085 -3.44116 0.26043 0
M  V30 2617 C 246.198 -4.10268 1.35293 0
M  V30 2618 C 245.333 -5.25507 0.775621 0
M  V30 2619 C 244.372 -5.83567 1.84706 0
M  V30 2620 N 243.509 -6.90179 1.28829 0
M  V30 2621 H 248.349 -2.44163 1.70846 0
M  V30 2622 H 245.886 -1.19846 0.85295 0
M  V30 2623 H 247.844 -4.17143 -0.0686814 0
M  V30 2624 H 246.474 -3.16901 -0.614274 0
M  V30 2625 H 245.526 -3.35184 1.79877 0
M  V30 2626 H 246.838 -4.4946 2.16303 0
M  V30 2627 H 245.992 -6.05398 0.397327 0
M  V30 2628 H 244.731 -4.87656 -0.0656581 0
M  V30 2629 H 243.736 -5.02344 2.23452 0
M  V30 2630 H 244.961 -6.23482 2.69161 0
M  V30 2631 H 242.907 -6.54322 0.468881 0
M  V30 2632 H 242.824 -7.28097 2.03497 0
M  V30 2633 H 244.092 -7.73844 0.937311 0
M  V30 2634 N 248.321 -0.919034 -1.28029 0
M  V30 2635 C 249.546 -0.570357 -1.99403 0
M  V30 2636 C 249.971 0.842486 -1.68178 0
M  V30 2637 O 249.329 1.56391 -0.917141 0
M  V30 2638 C 249.377 -0.792541 -3.51783 0
M  V30 2639 O 248.481 0.145988 -4.12142 0
M  V30 2640 H 247.822 -0.220555 -0.6263 0
M  V30 2641 H 250.352 -1.23592 -1.63053 0
M  V30 2642 H 250.362 -0.704708 -4.01868 0
M  V30 2643 H 249.037 -1.82247 -3.73844 0
M  V30 2644 H 247.614 0.00897528 -3.72899 0
M  V30 2645 N 249.799 1.42003 -0.683588 0
M  V30 2646 C 251.045 2.01712 -0.209825 0
M  V30 2647 C 251.378 1.53968 1.18353 0
M  V30 2648 O 250.653 0.745661 1.79639 0
M  V30 2649 C 250.936 3.59202 -0.254197 0
M  V30 2650 C 250.789 4.17102 -1.68363 0
M  V30 2651 C 252.108 4.38344 0.392709 0
M  V30 2652 H 249.227 0.732891 -0.0777189 0
M  V30 2653 H 251.869 1.68909 -0.87004 0
M  V30 2654 H 250.019 3.87278 0.307954 0
M  V30 2655 H 251.691 3.99946 -2.29871 0
M  V30 2656 H 249.934 3.72597 -2.22157 0
M  V30 2657 H 250.605 5.26249 -1.6663 0
M  V30 2658 H 253.081 4.16011 -0.0859162 0
M  V30 2659 H 251.957 5.47901 0.331063 0
M  V30 2660 H 252.218 4.16887 1.47164 0
M  V30 2661 N 251.277 0.427512 1.51691 0
M  V30 2662 C 252.224 -0.388867 2.275 0
M  V30 2663 C 253.194 -1.02532 1.30677 0
M  V30 2664 O 254.379 -1.0461 1.59566 0
M  V30 2665 C 251.519 -1.48954 3.11298 0
M  V30 2666 C 250.632 -0.872194 4.23104 0
M  V30 2667 C 249.767 -1.94709 4.94228 0
M  V30 2668 C 248.806 -1.30766 5.97969 0
M  V30 2669 N 247.943 -2.32349 6.62539 0
M  V30 2670 H 252.783 0.263997 2.96828 0
M  V30 2671 H 250.32 0.142033 1.46413 0
M  V30 2672 H 252.278 -2.13887 3.58201 0
M  V30 2673 H 250.908 -2.11217 2.44105 0
M  V30 2674 H 249.96 -0.111419 3.80237 0
M  V30 2675 H 251.272 -0.365264 4.97461 0
M  V30 2676 H 250.426 -2.67327 5.44629 0
M  V30 2677 H 249.165 -2.48773 4.1948 0
M  V30 2678 H 248.17 -0.566902 5.4687 0
M  V30 2679 H 249.395 -0.774483 6.74669 0
M  V30 2680 H 247.341 -2.85511 5.90609 0
M  V30 2681 H 247.258 -1.8652 7.3263 0
M  V30 2682 H 248.526 -3.04481 7.17574 0
M  V30 2683 N 252.755 -1.56801 0.158532 0
M  V30 2684 C 253.705 -2.13923 -0.788738 0
M  V30 2685 C 254.689 -1.07006 -1.2016 0
M  V30 2686 O 255.881 -1.33159 -1.1661 0
M  V30 2687 C 253.01 -2.77348 -2.02319 0
M  V30 2688 C 252.096 -3.91404 -1.6329 0
M  V30 2689 N 252.487 -4.9677 -0.951463 0
M  V30 2690 C 250.785 -4.02326 -1.92482 0
M  V30 2691 C 251.486 -5.76698 -0.761221 0
M  V30 2692 N 250.462 -5.27859 -1.29869 0
M  V30 2693 H 254.264 -2.92757 -0.258995 0
M  V30 2694 H 251.778 -1.62344 -0.0426055 0
M  V30 2695 H 253.775 -3.16639 -2.71192 0
M  V30 2696 H 252.435 -1.99991 -2.558 0
M  V30 2697 H 253.446 -5.14284 -0.610928 0
M  V30 2698 H 250.123 -3.36059 -2.47732 0
M  V30 2699 H 251.513 -6.71529 -0.223284 0
M  V30 2700 N 254.233 0.115231 -1.57178 0
M  V30 2701 C 255.143 1.15994 -2.03918 0
M  V30 2702 C 256.159 1.45103 -0.960268 0
M  V30 2703 O 257.335 1.56144 -1.27204 0
M  V30 2704 C 254.4 2.46568 -2.43732 0
M  V30 2705 C 253.461 2.24822 -3.65723 0
M  V30 2706 C 252.694 3.4917 -4.03629 0
M  V30 2707 O 252.917 4.56623 -3.41835 0
M  V30 2708 O 251.851 3.39949 -4.96708 0
M  V30 2709 H 255.677 0.793019 -2.93164 0
M  V30 2710 H 253.262 0.3263 -1.45793 0
M  V30 2711 H 255.144 3.23492 -2.70057 0
M  V30 2712 H 253.819 2.82726 -1.57631 0
M  V30 2713 H 252.726 1.45744 -3.44542 0
M  V30 2714 H 254.059 1.93566 -4.52541 0
M  V30 2715 N 255.711 1.52812 0.385517 0
M  V30 2716 C 256.661 1.74219 1.47078 0
M  V30 2717 C 257.645 0.59632 1.49442 0
M  V30 2718 O 258.837 0.85428 1.5502 0
M  V30 2719 C 255.966 1.9176 2.84751 0
M  V30 2720 C 255.052 3.12289 2.86943 0
M  V30 2721 N 255.443 4.34575 2.58802 0
M  V30 2722 C 253.741 3.12605 3.1811 0
M  V30 2723 C 254.442 5.162 2.68166 0
M  V30 2724 N 253.418 4.51964 3.02043 0
M  V30 2725 H 257.22 2.6639 1.24152 0
M  V30 2726 H 254.734 1.51166 0.593504 0
M  V30 2727 H 256.731 2.05218 3.62893 0
M  V30 2728 H 255.391 1.00805 3.08656 0
M  V30 2729 H 256.402 4.62649 2.32759 0
M  V30 2730 H 253.079 2.31472 3.47458 0
M  V30 2731 H 254.469 6.23689 2.49923 0
M  V30 2732 N 257.189 -0.644168 1.43834 0
M  V30 2733 C 258.438 -1.39985 1.45214 0
M  V30 2734 C 258.751 -1.95421 0.0835494 0
M  V30 2735 O 259.957 -2.71488 -0.0251748 0
M  V30 2736 C 258.413 -2.53384 2.55587 0
M  V30 2737 C 258.021 -2.04517 3.98594 0
M  V30 2738 C 259.765 -3.30685 2.66172 0
M  V30 2739 C 257.672 -3.1518 5.00416 0
M  V30 2740 H 256.602 -0.526005 0.540218 0
M  V30 2741 H 259.253 -0.694367 1.69855 0
M  V30 2742 H 257.635 -3.26446 2.24163 0
M  V30 2743 H 258.809 -1.38405 4.39523 0
M  V30 2744 H 257.124 -1.40068 3.92135 0
M  V30 2745 H 259.721 -4.13158 3.39418 0
M  V30 2746 H 260.064 -3.79312 1.71546 0
M  V30 2747 H 260.597 -2.64708 2.96942 0
M  V30 2748 H 257.336 -2.71511 5.96625 0
M  V30 2749 H 256.856 -3.79974 4.64091 0
M  V30 2750 H 258.535 -3.80166 5.23529 0
M  V30 2751 N 258.668 -1.30515 -0.883378 0
M  V30 2752 C 259.917 -1.18795 -1.63005 0
M  V30 2753 C 260.23 0.255923 -1.93919 0
M  V30 2754 O 261.436 0.494654 -2.66956 0
M  V30 2755 C 259.892 -2.07878 -2.93794 0
M  V30 2756 C 259.5 -3.57184 -2.70414 0
M  V30 2757 C 261.244 -2.04924 -3.71761 0
M  V30 2758 C 259.151 -4.38317 -3.97029 0
M  V30 2759 H 258.081 -0.441031 -0.611562 0
M  V30 2760 H 260.732 -1.55275 -0.977854 0
M  V30 2761 H 259.114 -1.64283 -3.60315 0
M  V30 2762 H 260.288 -4.08937 -2.12384 0
M  V30 2763 H 258.603 -3.61976 -2.0582 0
M  V30 2764 H 261.2 -2.62792 -4.65665 0
M  V30 2765 H 261.543 -1.0331 -4.03277 0
M  V30 2766 H 262.076 -2.46649 -3.12104 0
M  V30 2767 H 258.815 -5.40632 -3.70671 0
M  V30 2768 H 258.335 -3.91326 -4.54559 0
M  V30 2769 H 260.014 -4.49834 -4.65036 0
M  V30 2770 N 260.146 1.09593 -1.13257 0
M  V30 2771 C 261.096 2.14345 -0.777179 0
M  V30 2772 C 262.08 1.59277 0.227966 0
M  V30 2773 O 263.272 1.76971 0.0321413 0
M  V30 2774 C 260.401 3.42439 -0.242991 0
M  V30 2775 C 259.487 4.04419 -1.27694 0
M  V30 2776 N 259.878 4.40979 -2.47732 0
M  V30 2777 C 258.176 4.31596 -1.12432 0
M  V30 2778 C 258.877 4.89784 -3.13826 0
M  V30 2779 N 257.853 4.87133 -2.41252 0
M  V30 2780 H 261.655 2.40415 -1.69049 0
M  V30 2781 H 259.169 1.26803 -1.01463 0
M  V30 2782 H 261.166 4.16889 0.0298496 0
M  V30 2783 H 259.826 3.17824 0.66467 0
M  V30 2784 H 260.837 4.32396 -2.85051 0
M  V30 2785 H 257.514 4.16595 -0.274684 0
M  V30 2786 H 258.904 5.2755 -4.16102 0
M  V30 2787 N 261.624 0.925811 1.2754 0
M  V30 2788 C 262.554 0.440748 2.29303 0
M  V30 2789 C 263.535 -0.497971 1.62648 0
M  V30 2790 O 264.72 -0.403126 1.8997 0
M  V30 2791 C 261.85 -0.309048 3.45922 0
M  V30 2792 C 260.804 0.54166 4.24559 0
M  V30 2793 C 260.13 -0.337191 5.33636 0
M  V30 2794 C 261.43 1.80516 4.90114 0
M  V30 2795 H 263.124 1.29121 2.70126 0
M  V30 2796 H 260.67 0.622323 1.29858 0
M  V30 2797 H 262.623 -0.659315 4.1621 0
M  V30 2798 H 261.347 -1.19352 3.04011 0
M  V30 2799 H 260.006 0.874609 3.56014 0
M  V30 2800 H 259.654 -1.22056 4.87966 0
M  V30 2801 H 259.354 0.228497 5.87156 0
M  V30 2802 H 260.878 -0.683072 6.06767 0
M  V30 2803 H 262.292 1.52307 5.52698 0
M  V30 2804 H 260.689 2.3142 5.53683 0
M  V30 2805 H 261.759 2.52581 4.13921 0
M  V30 2806 N 263.102 -1.41638 0.69111 0
M  V30 2807 C 264.012 -2.34588 0.0233487 0
M  V30 2808 C 265.028 -1.55987 -0.770984 0
M  V30 2809 O 266.204 -1.88486 -0.709569 0
M  V30 2810 C 263.269 -3.34684 -0.904851 0
M  V30 2811 C 262.33 -4.29176 -0.103225 0
M  V30 2812 C 261.563 -5.2449 -0.987216 0
M  V30 2813 O 261.786 -5.2514 -2.22674 0
M  V30 2814 O 260.72 -6.00295 -0.439281 0
M  V30 2815 H 264.546 -2.93261 0.789416 0
M  V30 2816 H 262.131 -1.42417 0.45142 0
M  V30 2817 H 264.013 -3.96133 -1.43724 0
M  V30 2818 H 262.688 -2.78461 -1.65049 0
M  V30 2819 H 261.595 -3.71089 0.473655 0
M  V30 2820 H 262.928 -4.88484 0.60365 0
M  V30 2821 N 264.58 -0.43555 -1.51462 0
M  V30 2822 C 265.512 0.41257 -2.25456 0
M  V30 2823 C 266.525 0.987822 -1.29406 0
M  V30 2824 O 267.714 0.882266 -1.55172 0
M  V30 2825 C 264.814 1.58894 -2.99342 0
M  V30 2826 C 263.987 1.13288 -4.22474 0
M  V30 2827 C 263.046 2.17917 -4.78956 0
M  V30 2828 O 262.072 1.77425 -5.40841 0
M  V30 2829 N 263.274 3.50382 -4.62832 0
M  V30 2830 H 266.039 -0.221603 -2.9888 0
M  V30 2831 H 263.6 -0.264342 -1.59727 0
M  V30 2832 H 265.592 2.28508 -3.34015 0
M  V30 2833 H 264.162 2.12849 -2.28941 0
M  V30 2834 H 263.382 0.263881 -3.93316 0
M  V30 2835 H 264.67 0.805542 -5.02383 0
M  V30 2836 H 264.068 3.86013 -4.13534 0
M  V30 2837 H 262.625 4.15895 -5.01871 0
M  V30 2838 N 266.058 1.56714 -0.166846 0
M  V30 2839 C 267.304 1.97039 0.479962 0
M  V30 2840 C 267.637 1.05264 1.63197 0
M  V30 2841 O 266.912 0.0988833 1.94248 0
M  V30 2842 C 267.195 3.46867 0.967212 0
M  V30 2843 C 267.048 4.49421 -0.18466 0
M  V30 2844 C 268.367 3.9968 1.84238 0
M  V30 2845 H 265.486 0.71641 0.172992 0
M  V30 2846 H 268.128 1.8832 -0.252079 0
M  V30 2847 H 266.278 3.54428 1.59101 0
M  V30 2848 H 267.95 4.53924 -0.821621 0
M  V30 2849 H 266.193 4.25573 -0.840837 0
M  V30 2850 H 266.864 5.51644 0.198317 0
M  V30 2851 H 269.34 3.94723 1.31655 0
M  V30 2852 H 268.216 5.04941 2.15234 0
M  V30 2853 H 268.477 3.43226 2.78654 0
M  V30 2854 N 267.536 -0.106894 1.57237 0
M  V30 2855 C 268.783 -0.812526 1.85484 0
M  V30 2856 C 269.111 -1.79304 0.753687 0
M  V30 2857 O 268.366 -1.94047 -0.253853 0
M  V30 2858 C 268.665 -1.58628 3.20268 0
M  V30 2859 C 268.331 -0.748967 4.44636 0
M  V30 2860 C 266.993 -0.518104 4.78403 0
M  V30 2861 C 269.345 -0.166122 5.20935 0
M  V30 2862 C 266.673 0.305659 5.85903 0
M  V30 2863 C 269.025 0.644899 6.29304 0
M  V30 2864 C 267.689 0.885965 6.61594 0
M  V30 2865 H 266.959 -0.297324 0.678734 0
M  V30 2866 H 269.606 -0.0744332 1.91355 0
M  V30 2867 H 267.911 -2.39562 3.10028 0
M  V30 2868 H 269.608 -2.13643 3.39349 0
M  V30 2869 H 266.198 -0.939006 4.18187 0
M  V30 2870 H 270.382 -0.33167 4.95191 0
M  V30 2871 H 265.638 0.501528 6.0934 0
M  V30 2872 H 269.812 1.10345 6.87602 0
M  V30 2873 H 267.439 1.52609 7.44725 0
M  V30 2874 N 269.014 -1.53014 -0.377408 0
M  V30 2875 C 269.924 -1.81557 -1.48574 0
M  V30 2876 C 270.94 -0.703102 -1.59162 0
M  V30 2877 O 272.116 -0.99192 -1.75279 0
M  V30 2878 C 269.181 -1.9889 -2.83978 0
M  V30 2879 C 268.242 -3.22801 -2.83016 0
M  V30 2880 C 267.475 -3.39298 -4.11962 0
M  V30 2881 O 267.698 -2.60345 -5.0752 0
M  V30 2882 O 266.632 -4.32604 -4.18494 0
M  V30 2883 H 270.458 -2.75695 -1.27382 0
M  V30 2884 H 268.043 -1.38248 -0.566373 0
M  V30 2885 H 269.925 -2.11931 -3.6423 0
M  V30 2886 H 268.6 -1.07942 -3.05172 0
M  V30 2887 H 267.507 -3.15193 -2.01505 0
M  V30 2888 H 268.84 -4.13632 -2.66775 0
M  V30 2889 N 270.492 0.636531 -1.44174 0
M  V30 2890 C 271.72 1.42353 -1.50144 0
M  V30 2891 C 272.135 1.88389 -0.124575 0
M  V30 2892 O 271.492 1.6051 0.868489 0
M  V30 2893 C 271.543 2.64744 -2.46156 0
M  V30 2894 O 271.264 2.20629 -3.7849 0
M  V30 2895 C 272.765 3.57929 -2.61537 0
M  V30 2896 H 269.985 0.436752 -0.5094 0
M  V30 2897 H 272.529 0.778933 -1.89084 0
M  V30 2898 H 270.684 3.25307 -2.10366 0
M  V30 2899 H 271.098 2.99938 -4.30276 0
M  V30 2900 H 272.572 4.40428 -3.32757 0
M  V30 2901 H 273.049 4.06382 -1.66585 0
M  V30 2902 H 273.655 3.03238 -2.98206 0
M  V30 2903 N 271.97 1.30982 0.876444 0
M  V30 2904 C 273.381 1.18277 1.44456 0
M  V30 2905 C 273.732 -0.213265 1.95037 0
M  V30 2906 O 272.857 -1.11057 1.85729 0
M  V30 2907 C 273.452 2.1411 2.62569 0
M  V30 2908 C 272.011 2.05358 3.15444 0
M  V30 2909 C 271.158 2.03706 1.88146 0
M  V30 2910 H 274.109 1.43127 0.685584 0
M  V30 2911 H 274.13 1.72692 3.39054 0
M  V30 2912 H 273.642 3.15706 2.25724 0
M  V30 2913 H 271.743 1.06934 3.56926 0
M  V30 2914 H 271.856 2.94156 3.78166 0
M  V30 2915 H 270.22 1.48629 2.06837 0
M  V30 2916 H 271.003 3.07047 1.53547 0
M  V30 2917 N 273.449 -1.08991 1.13837 0
M  V30 2918 C 274.396 -2.15748 0.819835 0
M  V30 2919 C 275.366 -1.64636 -0.220026 0
M  V30 2920 O 276.551 -1.90582 -0.0912757 0
M  V30 2921 C 273.691 -3.4382 0.296913 0
M  V30 2922 C 272.804 -4.0881 1.39636 0
M  V30 2923 C 271.939 -5.24655 0.831314 0
M  V30 2924 C 270.978 -5.81575 1.90886 0
M  V30 2925 N 270.115 -6.88774 1.36142 0
M  V30 2926 H 274.955 -2.42338 1.73426 0
M  V30 2927 H 272.492 -1.18935 0.865613 0
M  V30 2928 H 274.45 -4.17193 -0.0244339 0
M  V30 2929 H 273.08 -3.17535 -0.580628 0
M  V30 2930 H 272.132 -3.33258 1.83422 0
M  V30 2931 H 273.444 -4.47141 2.21058 0
M  V30 2932 H 272.598 -6.04942 0.461515 0
M  V30 2933 H 271.337 -4.87698 -0.013932 0
M  V30 2934 H 270.342 -4.99946 2.28767 0
M  V30 2935 H 271.567 -6.20592 2.75758 0
M  V30 2936 H 269.513 -6.53788 0.538254 0
M  V30 2937 H 269.43 -7.25898 2.11208 0
M  V30 2938 H 270.698 -7.72806 1.01933 0
M  V30 2939 N 274.927 -0.932562 -1.27047 0
M  V30 2940 C 275.874 -0.434072 -2.26681 0
M  V30 2941 C 276.844 0.501639 -1.58344 0
M  V30 2942 O 278.029 0.419734 -1.86126 0
M  V30 2943 C 275.169 0.30261 -3.43771 0
M  V30 2944 C 274.282 -0.667774 -4.26808 0
M  V30 2945 C 273.417 0.0892393 -5.31125 0
M  V30 2946 C 272.456 -0.873532 -6.05835 0
M  V30 2947 N 271.593 -0.148832 -7.01942 0
M  V30 2948 H 276.433 -1.28868 -2.68695 0
M  V30 2949 H 273.97 -0.646713 -1.32121 0
M  V30 2950 H 275.928 0.746092 -4.10474 0
M  V30 2951 H 274.558 1.12142 -3.02695 0
M  V30 2952 H 273.61 -1.22978 -3.59973 0
M  V30 2953 H 274.922 -1.40337 -4.78651 0
M  V30 2954 H 274.076 0.592409 -6.03801 0
M  V30 2955 H 272.815 0.85777 -4.80097 0
M  V30 2956 H 271.82 -1.38791 -5.31994 0
M  V30 2957 H 273.045 -1.64193 -6.58952 0
M  V30 2958 H 270.991 0.601365 -6.53238 0
M  V30 2959 H 270.908 -0.82391 -7.51497 0
M  V30 2960 H 272.176 0.333527 -7.78786 0
M  V30 2961 N 276.405 1.4127 -0.698611 0
M  V30 2962 C 277.338 2.28195 0.0153898 0
M  V30 2963 C 278.316 1.42402 0.784883 0
M  V30 2964 O 279.5 1.71828 0.775067 0
M  V30 2965 C 276.627 3.22685 1.02918 0
M  V30 2966 C 275.673 4.25041 0.352501 0
M  V30 2967 S 276.506 5.27757 -0.907322 0
M  V30 2968 C 277.662 6.25812 0.104796 0
M  V30 2969 H 277.895 2.88403 -0.721858 0
M  V30 2970 H 275.428 1.46452 -0.488996 0
M  V30 2971 H 277.386 3.77655 1.60893 0
M  V30 2972 H 276.047 2.61566 1.73902 0
M  V30 2973 H 275.24 4.91437 1.11828 0
M  V30 2974 H 274.842 3.73682 -0.154254 0
M  V30 2975 H 277.134 6.70705 0.957103 0
M  V30 2976 H 278.077 7.06149 -0.525323 0
M  V30 2977 H 278.485 5.62615 0.460931 0
M  V30 2978 N 277.883 0.443576 1.51229 0
M  V30 2979 C 279.113 -0.119117 2.06256 0
M  V30 2980 C 279.521 -1.36471 1.31043 0
M  V30 2981 O 278.864 -1.80034 0.365151 0
M  V30 2982 C 278.926 -0.500546 3.55998 0
M  V30 2983 C 278.59 0.639125 4.52509 0
M  V30 2984 C 279.587 1.51311 4.97394 0
M  V30 2985 C 277.272 0.821632 4.95535 0
M  V30 2986 C 279.266 2.55425 5.83984 0
M  V30 2987 C 276.953 1.86603 5.81913 0
M  V30 2988 C 277.951 2.73072 6.26036 0
M  V30 2989 O 277.639 3.75718 7.10698 0
M  V30 2990 H 277.371 -0.00857665 0.675946 0
M  V30 2991 H 279.925 0.623288 1.95715 0
M  V30 2992 H 278.155 -1.29575 3.64345 0
M  V30 2993 H 279.844 -0.995116 3.93513 0
M  V30 2994 H 280.61 1.38367 4.64844 0
M  V30 2995 H 276.489 0.158149 4.60729 0
M  V30 2996 H 280.033 3.22949 6.18344 0
M  V30 2997 H 275.93 1.99564 6.13876 0
M  V30 2998 H 276.698 3.72374 7.2889 0
M  V30 2999 N 279.361 -1.56624 0.175154 0
M  V30 3000 C 280.291 -2.21155 -0.749195 0
M  V30 3001 C 281.272 -1.16836 -1.23626 0
M  V30 3002 O 282.457 -1.45277 -1.28873 0
M  V30 3003 C 279.587 -2.8553 -1.97711 0
M  V30 3004 C 278.541 -3.95921 -1.62575 0
M  V30 3005 C 277.867 -4.47365 -2.92864 0
M  V30 3006 C 279.167 -5.15323 -0.850838 0
M  V30 3007 H 280.861 -2.98653 -0.211295 0
M  V30 3008 H 278.407 -1.43651 -0.100188 0
M  V30 3009 H 280.36 -3.2935 -2.62881 0
M  V30 3010 H 279.084 -2.05406 -2.53921 0
M  V30 3011 H 277.743 -3.52762 -0.997719 0
M  V30 3012 H 277.391 -3.64027 -3.47122 0
M  V30 3013 H 277.091 -5.21839 -2.70106 0
M  V30 3014 H 278.615 -4.93873 -3.59056 0
M  V30 3015 H 280.029 -5.55812 -1.40521 0
M  V30 3016 H 278.426 -5.95739 -0.722154 0
M  V30 3017 H 279.496 -4.84661 0.152082 0
M  V30 3018 N 280.839 0.0985539 -1.57292 0
M  V30 3019 C 282.085 0.803867 -1.86188 0
M  V30 3020 C 282.418 1.78549 -0.763794 0
M  V30 3021 O 281.693 1.93153 0.22855 0
M  V30 3022 C 281.976 1.53568 -3.25713 0
M  V30 3023 C 281.829 0.572277 -4.46145 0
M  V30 3024 C 283.148 2.48708 -3.63087 0
M  V30 3025 H 280.267 0.290781 -0.677211 0
M  V30 3026 H 282.909 0.0675783 -1.8988 0
M  V30 3027 H 281.059 2.16332 -3.22696 0
M  V30 3028 H 282.731 -0.0480894 -4.61275 0
M  V30 3029 H 280.974 -0.114618 -4.33649 0
M  V30 3030 H 281.645 1.12139 -5.40489 0
M  V30 3031 H 284.121 1.96039 -3.67026 0
M  V30 3032 H 282.997 2.96932 -4.61652 0
M  V30 3033 H 283.258 3.32309 -2.91588 0
M  V30 3034 N 282.317 1.53212 0.369288 0
M  V30 3035 C 283.25 1.74166 1.4745 0
M  V30 3036 C 284.228 0.589923 1.51521 0
M  V30 3037 O 285.412 0.822078 1.69629 0
M  V30 3038 C 282.539 1.81711 2.8583 0
M  V30 3039 C 281.585 3.03649 2.99499 0
M  V30 3040 S 282.418 4.63242 2.6864 0
M  V30 3041 C 283.574 4.7363 4.09177 0
M  V30 3042 H 283.807 2.67636 1.29454 0
M  V30 3043 H 281.34 1.43754 0.563396 0
M  V30 3044 H 283.298 1.86743 3.65564 0
M  V30 3045 H 281.959 0.89299 3.01139 0
M  V30 3046 H 281.152 3.05526 4.00836 0
M  V30 3047 H 280.754 2.9671 2.27683 0
M  V30 3048 H 283.046 4.53456 5.03372 0
M  V30 3049 H 283.989 5.75682 4.12306 0
M  V30 3050 H 284.397 4.02295 3.96004 0
M  V30 3051 N 283.795 -0.628877 1.44509 0
M  V30 3052 C 284.705 -1.7694 1.54044 0
M  V30 3053 C 285.721 -1.68705 0.425987 0
M  V30 3054 O 286.897 -1.89442 0.683656 0
M  V30 3055 C 283.962 -3.13332 1.48405 0
M  V30 3056 C 283.023 -3.33181 2.70719 0
M  V30 3057 C 282.256 -4.63067 2.6534 0
M  V30 3058 O 282.479 -5.44017 1.71469 0
M  V30 3059 O 281.413 -4.85167 3.56226 0
M  V30 3060 H 285.239 -1.71848 2.50403 0
M  V30 3061 H 282.824 -0.790378 1.26781 0
M  V30 3062 H 284.706 -3.94634 1.47791 0
M  V30 3063 H 283.381 -3.1896 0.551898 0
M  V30 3064 H 282.288 -2.51549 2.769 0
M  V30 3065 H 283.621 -3.32416 3.62988 0
M  V30 3066 N 285.273 -1.31445 -0.869486 0
M  V30 3067 C 286.203 -1.21727 -1.99261 0
M  V30 3068 C 287.184 -0.104359 -1.6978 0
M  V30 3069 O 288.369 -0.289038 -1.92037 0
M  V30 3070 C 285.499 -0.924317 -3.34774 0
M  V30 3071 C 284.453 -1.99685 -3.78563 0
M  V30 3072 C 283.779 -1.55658 -5.11541 0
M  V30 3073 C 285.079 -3.41003 -3.95619 0
M  V30 3074 H 286.773 -2.1569 -2.07649 0
M  V30 3075 H 284.319 -1.03839 -0.997675 0
M  V30 3076 H 286.272 -0.842934 -4.12883 0
M  V30 3077 H 284.996 0.0509793 -3.2656 0
M  V30 3078 H 283.655 -2.06813 -3.02694 0
M  V30 3079 H 283.303 -0.569132 -4.9977 0
M  V30 3080 H 283.003 -2.27409 -5.41811 0
M  V30 3081 H 284.527 -1.48928 -5.92159 0
M  V30 3082 H 285.941 -3.36547 -4.64122 0
M  V30 3083 H 284.338 -4.10975 -4.37286 0
M  V30 3084 H 285.408 -3.81754 -2.98985 0
M  V30 3085 N 286.751 1.08385 -1.14413 0
M  V30 3086 C 287.991 1.8238 -0.922868 0
M  V30 3087 C 288.355 1.84225 0.540842 0
M  V30 3088 O 289.556 2.53985 0.880058 0
M  V30 3089 C 287.827 3.24048 -1.50757 0
M  V30 3090 S 289.386 4.14917 -1.4279 0
M  V30 3091 H 286.204 0.628524 -0.332384 0
M  V30 3092 H 288.806 1.30278 -1.45766 0
M  V30 3093 H 287.51 3.20288 -2.56601 0
M  V30 3094 H 287.041 3.81224 -0.971178 0
M  V30 3095 H 289.056 4.94473 -0.413582 0
M  V30 3096 N 288.23 0.939286 1.26551 0
M  V30 3097 C 289.14 0.453432 2.30176 0
M  V30 3098 C 290.156 -0.471649 1.67486 0
M  V30 3099 O 291.332 -0.35164 1.98306 0
M  V30 3100 C 288.397 -0.275326 3.45605 0
M  V30 3101 C 287.458 0.686084 4.23782 0
M  V30 3102 C 286.691 -0.00798994 5.33699 0
M  V30 3103 O 286.914 -1.22528 5.57085 0
M  V30 3104 O 285.848 0.669746 5.98162 0
M  V30 3105 H 289.674 1.31416 2.73795 0
M  V30 3106 H 287.259 0.705095 1.31715 0
M  V30 3107 H 289.141 -0.685911 4.1578 0
M  V30 3108 H 287.816 -1.11147 3.0402 0
M  V30 3109 H 286.723 1.14658 3.56096 0
M  V30 3110 H 288.056 1.48979 4.69112 0
M  V30 3111 N 289.708 -1.40897 0.706093 0
M  V30 3112 C 290.985 -1.94868 0.169099 0
M  V30 3113 C 291.365 -1.64485 -1.32318 0
M  V30 3114 O 290.713 -0.95744 -2.07474 0
M  V30 3115 C 290.923 -3.45798 0.471654 0
M  V30 3116 C 292.271 -4.22663 0.405127 0
M  V30 3117 O 293.295 -3.53865 0.407168 0
M  V30 3118 O 292.154 -5.45216 0.374383 0
M  V30 3119 H 289.248 -0.82673 0.0211352 0
M  V30 3120 H 291.794 -1.50558 0.782976 0
M  V30 3121 H 290.566 -3.61235 1.50416 0
M  V30 3122 H 290.189 -3.97225 -0.172666 0
M  V30 3123 N 291.186 -0.45159 -1.50991 0
M  V30 3124 C 292.434 0.109857 -2.01801 0
M  V30 3125 C 292.755 1.41958 -1.3369 0
M  V30 3126 O 292.025 1.9003 -0.475951 0
M  V30 3127 H 290.605 0.0435884 -0.745727 0
M  V30 3128 H 293.267 -0.597557 -1.85514 0
M  V30 3129 H 292.363 0.275489 -3.10882 0
M  V30 3130 N 292.664 1.56529 -0.183458 0
M  V30 3131 C 293.574 2.22144 0.754272 0
M  V30 3132 C 294.59 1.21684 1.24374 0
M  V30 3133 O 295.766 1.54385 1.29333 0
M  V30 3134 C 292.831 2.85884 1.96141 0
M  V30 3135 C 291.892 4.01579 1.51765 0
M  V30 3136 C 291.125 4.6227 2.66725 0
M  V30 3137 O 291.348 4.21865 3.83909 0
M  V30 3138 O 290.282 5.51936 2.40104 0
M  V30 3139 H 294.108 3.02861 0.225527 0
M  V30 3140 H 291.693 1.49331 0.0453032 0
M  V30 3141 H 293.575 3.26253 2.66715 0
M  V30 3142 H 292.25 2.08154 2.47899 0
M  V30 3143 H 291.157 3.65856 0.781049 0
M  V30 3144 H 292.49 4.80938 1.04686 0
M  V30 3145 N 294.142 -0.090211 1.57342 0
M  V30 3146 C 295.072 -1.10976 2.05443 0
M  V30 3147 C 296.053 -1.41482 0.944284 0
M  V30 3148 O 297.238 -1.51428 1.21586 0
M  V30 3149 C 294.368 -2.42831 2.48295 0
M  V30 3150 C 293.322 -2.26721 3.63018 0
M  V30 3151 C 292.648 -3.63796 3.91863 0
M  V30 3152 C 293.948 -1.7037 4.93732 0
M  V30 3153 H 295.642 -0.709564 2.9087 0
M  V30 3154 H 293.188 -0.339874 1.39932 0
M  V30 3155 H 295.141 -3.14431 2.80555 0
M  V30 3156 H 293.865 -2.84795 1.59873 0
M  V30 3157 H 292.524 -1.57565 3.31012 0
M  V30 3158 H 292.172 -4.03297 3.00601 0
M  V30 3159 H 291.872 -3.53861 4.69101 0
M  V30 3160 H 293.396 -4.36855 4.26603 0
M  V30 3161 H 294.81 -2.31816 5.24342 0
M  V30 3162 H 293.207 -1.71181 5.75167 0
M  V30 3163 H 294.277 -0.663542 4.80339 0
M  V30 3164 N 295.62 -1.53406 -0.361157 0
M  V30 3165 C 296.567 -1.80156 -1.44265 0
M  V30 3166 C 297.537 -0.646183 -1.53015 0
M  V30 3167 O 298.722 -0.888818 -1.68833 0
M  V30 3168 C 295.862 -2.00116 -2.81154 0
M  V30 3169 C 294.975 -3.27833 -2.81335 0
M  V30 3170 C 294.11 -3.37957 -4.09828 0
M  V30 3171 C 293.149 -4.59689 -4.04168 0
M  V30 3172 N 292.286 -4.66942 -5.24318 0
M  V30 3173 H 297.126 -2.72438 -1.20754 0
M  V30 3174 H 294.663 -1.34954 -0.585296 0
M  V30 3175 H 296.621 -2.09677 -3.60682 0
M  V30 3176 H 295.251 -1.11167 -3.03054 0
M  V30 3177 H 294.303 -3.27204 -1.94014 0
M  V30 3178 H 295.615 -4.17442 -2.73027 0
M  V30 3179 H 294.769 -3.46853 -4.97773 0
M  V30 3180 H 293.508 -2.46372 -4.20894 0
M  V30 3181 H 292.513 -4.50889 -3.14609 0
M  V30 3182 H 293.738 -5.5262 -3.947 0
M  V30 3183 H 291.684 -3.7826 -5.35962 0
M  V30 3184 H 291.601 -5.50462 -5.18197 0
M  V30 3185 H 292.869 -4.80127 -6.14084 0
M  V30 3186 N 297.098 0.621204 -1.44841 0
M  V30 3187 C 298.008 1.7612 -1.5498 0
M  V30 3188 C 299.024 1.68477 -0.434927 0
M  V30 3189 O 300.2 1.89076 -0.693693 0
M  V30 3190 C 297.265 3.1254 -1.50065 0
M  V30 3191 C 296.326 3.31741 -2.72482 0
M  V30 3192 C 295.559 4.61653 -2.67792 0
M  V30 3193 O 295.782 5.431 -1.74352 0
M  V30 3194 O 294.716 4.83271 -3.58794 0
M  V30 3195 H 298.542 1.70518 -2.51311 0
M  V30 3196 H 296.127 0.783643 -1.27198 0
M  V30 3197 H 298.009 3.93844 -1.49882 0
M  V30 3198 H 296.684 3.18663 -0.568806 0
M  V30 3199 H 295.591 2.50077 -2.7823 0
M  V30 3200 H 296.924 3.30486 -3.64746 0
M  V30 3201 N 298.576 1.31904 0.862503 0
M  V30 3202 C 299.825 1.21373 1.61094 0
M  V30 3203 C 300.138 -0.22504 1.94301 0
M  V30 3204 O 301.344 -0.452121 2.67709 0
M  V30 3205 C 299.8 2.12525 2.9045 0
M  V30 3206 C 299.408 3.61441 2.64697 0
M  V30 3207 C 301.152 2.10813 3.68454 0
M  V30 3208 C 299.059 4.44578 3.90006 0
M  V30 3209 H 297.989 0.450705 0.604468 0
M  V30 3210 H 300.64 1.56811 0.953027 0
M  V30 3211 H 299.022 1.69994 3.57656 0
M  V30 3212 H 300.196 4.12264 2.05851 0
M  V30 3213 H 298.511 3.65205 2.00036 0
M  V30 3214 H 301.108 2.70167 4.61426 0
M  V30 3215 H 301.451 1.09713 4.01583 0
M  V30 3216 H 301.984 2.51583 3.08141 0
M  V30 3217 H 298.723 5.46461 3.62023 0
M  V30 3218 H 298.243 3.98508 4.48276 0
M  V30 3219 H 299.922 4.57176 4.5782 0
M  V30 3220 N 300.054 -1.07777 1.14986 0
M  V30 3221 C 300.984 -2.16865 0.865557 0
M  V30 3222 C 301.965 -1.69123 -0.182083 0
M  V30 3223 O 303.15 -1.94164 -0.0373815 0
M  V30 3224 C 300.28 -3.45539 0.349313 0
M  V30 3225 C 299.234 -4.06708 1.33313 0
M  V30 3226 C 298.56 -5.30411 0.675918 0
M  V30 3227 C 299.86 -4.47241 2.69764 0
M  V30 3228 H 301.554 -2.40905 1.77778 0
M  V30 3229 H 299.1 -1.15781 0.856203 0
M  V30 3230 H 301.053 -4.21174 0.137983 0
M  V30 3231 H 299.777 -3.21072 -0.598362 0
M  V30 3232 H 298.436 -3.33112 1.53075 0
M  V30 3233 H 298.084 -5.02232 -0.277767 0
M  V30 3234 H 297.784 -5.72293 1.33244 0
M  V30 3235 H 299.308 -6.08755 0.474262 0
M  V30 3236 H 300.722 -5.14025 2.53873 0
M  V30 3237 H 299.119 -5.00062 3.3175 0
M  V30 3238 H 300.189 -3.58818 3.26156 0
M  V30 3239 N 301.532 -0.945985 -1.26051 0
M  V30 3240 C 302.809 -0.513816 -1.88731 0
M  V30 3241 C 303.189 1.00872 -1.8544 0
M  V30 3242 O 302.537 1.8708 -1.312 0
M  V30 3243 C 302.747 -1.08062 -3.31849 0
M  V30 3244 C 304.095 -1.1522 -4.08668 0
M  V30 3245 O 305.119 -1.03155 -3.40936 0
M  V30 3246 O 303.978 -1.34044 -5.29806 0
M  V30 3247 H 301.072 -0.168193 -0.809716 0
M  V30 3248 H 303.618 -1.03886 -1.34186 0
M  V30 3249 H 302.39 -2.1241 -3.2863 0
M  V30 3250 H 302.013 -0.538307 -3.93939 0
M  V30 3251 N 303.011 1.40521 -0.713556 0
M  V30 3252 C 304.427 1.54839 -0.386907 0
M  V30 3253 C 304.627 1.68532 1.1045 0
M  V30 3254 O 303.683 1.67377 1.89053 0
M  V30 3255 C 304.996 2.77792 -1.15118 0
M  V30 3256 C 306.544 2.91607 -1.13729 0
M  V30 3257 C 307.019 4.1747 -1.88368 0
M  V30 3258 N 308.51 4.24466 -1.85427 0
M  V30 3259 C 309.245 5.20755 -2.40004 0
M  V30 3260 N 308.741 6.22965 -3.03129 0
M  V30 3261 N 310.534 5.1282 -2.30158 0
M  V30 3262 H 302.685 1.29879 -1.68063 0
M  V30 3263 H 304.948 0.627896 -0.710247 0
M  V30 3264 H 304.654 2.73944 -2.20561 0
M  V30 3265 H 304.528 3.6984 -0.741477 0
M  V30 3266 H 306.915 2.94959 -0.0910608 0
M  V30 3267 H 306.996 2.00682 -1.5862 0
M  V30 3268 H 306.64 4.1488 -2.9298 0
M  V30 3269 H 306.57 5.074 -1.40898 0
M  V30 3270 H 309.061 3.51241 -1.3942 0
M  V30 3271 H 309.374 6.92859 -3.42295 0
M  V30 3272 H 307.719 6.23415 -3.07212 0
M  V30 3273 H 310.91 4.31899 -1.80501 0
M  V30 3274 H 311.083 5.87689 -2.72993 0
M  V30 3275 N 304.489 0.459591 1.5075 0
M  V30 3276 C 305.436 -0.340524 2.28274 0
M  V30 3277 C 306.406 -0.997371 1.32822 0
M  V30 3278 O 307.591 -1.01202 1.61749 0
M  V30 3279 C 304.731 -1.42317 3.14388 0
M  V30 3280 C 303.844 -0.782251 4.24859 0
M  V30 3281 C 302.979 -1.84182 4.98247 0
M  V30 3282 C 302.018 -1.18053 6.00608 0
M  V30 3283 N 301.155 -2.18244 6.67319 0
M  V30 3284 H 305.995 0.326899 2.96202 0
M  V30 3285 H 303.532 0.173057 1.46078 0
M  V30 3286 H 305.49 -2.06241 3.62658 0
M  V30 3287 H 304.12 -2.05992 2.4853 0
M  V30 3288 H 303.172 -0.0307404 3.80388 0
M  V30 3289 H 304.484 -0.259663 4.98124 0
M  V30 3290 H 303.638 -2.55714 5.50177 0
M  V30 3291 H 302.377 -2.39819 4.24662 0
M  V30 3292 H 301.382 -0.450776 5.47949 0
M  V30 3293 H 302.607 -0.631202 6.7616 0
M  V30 3294 H 300.553 -2.72919 5.96533 0
M  V30 3295 H 300.47 -1.70938 7.36421 0
M  V30 3296 H 301.738 -2.89191 7.23871 0
M  V30 3297 N 305.967 -1.56429 0.191757 0
M  V30 3298 C 307.215 -1.97095 -0.447006 0
M  V30 3299 C 307.536 -1.07967 -1.62383 0
M  V30 3300 O 306.806 -0.150248 -1.95323 0
M  V30 3301 H 305.386 -0.727832 -0.168135 0
M  V30 3302 H 308.048 -1.92911 0.27771 0
M  V30 3303 H 307.144 -3.01848 -0.793371 0
M  V30 3304 N 307.445 0.0818655 -1.57387 0
M  V30 3305 C 308.395 1.10501 -1.99433 0
M  V30 3306 C 309.379 1.35041 -0.874798 0
M  V30 3307 O 310.571 1.35511 -1.13868 0
M  V30 3308 C 307.7 2.42159 -2.43339 0
M  V30 3309 C 306.786 2.20937 -3.62005 0
M  V30 3310 N 307.177 1.69616 -4.76512 0
M  V30 3311 C 305.475 2.51451 -3.68359 0
M  V30 3312 C 306.176 1.62973 -5.58404 0
M  V30 3313 N 305.152 2.08664 -5.01956 0
M  V30 3314 H 308.954 0.701373 -2.85408 0
M  V30 3315 H 306.468 0.289096 -1.59806 0
M  V30 3316 H 308.465 3.16208 -2.71695 0
M  V30 3317 H 307.125 2.83249 -1.58746 0
M  V30 3318 H 308.136 1.38624 -4.99003 0
M  V30 3319 H 304.813 2.95975 -2.94457 0
M  V30 3320 H 306.203 1.24233 -6.60315 0
M  V30 3321 N 308.923 1.53595 0.353017 0
M  V30 3322 C 310.17 1.70385 1.09431 0
M  V30 3323 C 310.498 0.462113 1.88931 0
M  V30 3324 O 309.753 -0.556074 1.87633 0
M  V30 3325 C 310.052 2.91313 2.07054 0
M  V30 3326 C 309.718 4.27308 1.43939 0
M  V30 3327 C 308.38 4.64287 1.26454 0
M  V30 3328 C 310.732 5.11829 0.983883 0
M  V30 3329 C 308.06 5.83412 0.620226 0
M  V30 3330 C 310.412 6.31611 0.353516 0
M  V30 3331 C 309.076 6.67293 0.166272 0
M  V30 3332 H 308.346 0.623484 0.400436 0
M  V30 3333 H 310.993 1.87799 0.374655 0
M  V30 3334 H 309.298 2.68463 2.85368 0
M  V30 3335 H 310.995 3.01497 2.64387 0
M  V30 3336 H 307.585 3.98198 1.58543 0
M  V30 3337 H 311.769 4.838 1.10685 0
M  V30 3338 H 307.025 6.09639 0.463681 0
M  V30 3339 H 311.199 6.964 -0.00757555 0
M  V30 3340 H 308.826 7.59461 -0.335047 0
M  V30 3341 N 310.401 -0.613514 1.45168 0
M  V30 3342 C 311.626 -1.40437 1.52618 0
M  V30 3343 C 312.051 -1.87438 0.157707 0
M  V30 3344 O 311.409 -1.59791 -0.856537 0
M  V30 3345 C 311.457 -2.58894 2.51011 0
M  V30 3346 O 310.561 -3.59326 2.02382 0
M  V30 3347 H 309.902 -0.419506 0.514695 0
M  V30 3348 H 312.432 -0.747215 1.90467 0
M  V30 3349 H 312.442 -3.06214 2.69624 0
M  V30 3350 H 311.117 -2.24032 3.50403 0
M  V30 3351 H 309.694 -3.18695 1.93618 0
M  V30 3352 N 311.879 -1.3236 -0.855495 0
M  V30 3353 C 312.789 -1.23221 -1.99634 0
M  V30 3354 C 313.805 -0.145983 -1.73387 0
M  V30 3355 O 314.981 -0.366502 -1.98037 0
M  V30 3356 C 312.046 -0.954782 -3.33294 0
M  V30 3357 C 311.107 -2.12937 -3.72769 0
M  V30 3358 C 310.34 -1.86508 -5.00051 0
M  V30 3359 O 310.563 -0.807231 -5.64659 0
M  V30 3360 O 309.497 -2.72591 -5.36636 0
M  V30 3361 H 313.323 -2.19126 -2.1028 0
M  V30 3362 H 310.908 -1.12241 -0.986018 0
M  V30 3363 H 312.79 -0.816519 -4.13414 0
M  V30 3364 H 311.465 -0.0258854 -3.2369 0
M  V30 3365 H 310.372 -2.3231 -2.93228 0
M  V30 3366 H 311.705 -3.04102 -3.87018 0
M  V30 3367 N 313.357 1.07166 -1.15556 0
M  V30 3368 C 314.305 2.16517 -0.8499 0
M  V30 3369 C 315.299 1.68468 0.177454 0
M  V30 3370 O 316.505 1.79971 0.0323026 0
M  V30 3371 H 312.88 0.706652 -0.25719 0
M  V30 3372 H 314.851 2.39514 -1.77976 0
M  V30 3373 C 313.6 3.45855 -0.357682 0
M  V30 3374 H 312.923 3.83214 -1.13961 0
M  V30 3375 H 314.363 4.23607 -0.182489 0
M  V30 3376 C 312.822 3.24062 0.921152 0
M  V30 3377 O 313.352 3.48813 1.9923 0
M  V30 3378 N 311.558 2.77539 0.86141 0
M  V30 3379 H 311.105 2.57598 -0.0104408 0
M  V30 3380 H 311.063 2.63337 1.71758 0
M  V30 3381 N 314.835 0.952656 1.25548 0
M  V30 3382 C 315.745 0.47782 2.29682 0
M  V30 3383 C 316.761 -0.453859 1.67977 0
M  V30 3384 O 317.937 -0.330587 1.98668 0
M  V30 3385 C 315.002 -0.238655 3.45878 0
M  V30 3386 C 314.063 0.730994 4.23031 0
M  V30 3387 C 313.296 0.0486165 5.33678 0
M  V30 3388 O 313.519 -1.16612 5.58353 0
M  V30 3389 O 312.453 0.733152 5.97418 0
M  V30 3390 H 316.279 1.34312 2.72386 0
M  V30 3391 H 313.864 0.719026 1.30959 0
M  V30 3392 H 315.746 -0.641774 4.16484 0
M  V30 3393 H 314.421 -1.07916 3.05181 0
M  V30 3394 H 313.328 1.18428 3.5486 0
M  V30 3395 H 314.661 1.53946 4.67506 0
M  V30 3396 N 316.313 -1.40141 0.720998 0
M  V30 3397 C 317.541 -2.05096 0.272656 0
M  V30 3398 C 317.956 -1.54334 -1.0875 0
M  V30 3399 O 317.313 -0.702211 -1.6845 0
M  V30 3400 C 317.364 -3.60636 0.249835 0
M  V30 3401 O 317.085 -4.09526 1.55629 0
M  V30 3402 C 318.586 -4.42772 -0.216396 0
M  V30 3403 H 315.806 -0.659897 0.121558 0
M  V30 3404 H 318.35 -1.79449 0.980723 0
M  V30 3405 H 316.505 -3.85232 -0.409237 0
M  V30 3406 H 316.919 -5.03758 1.4604 0
M  V30 3407 H 318.393 -5.51702 -0.181212 0
M  V30 3408 H 318.87 -4.20756 -1.25941 0
M  V30 3409 H 319.476 -4.23294 0.412596 0
M  V30 3410 N 317.792 -0.46758 -1.50504 0
M  V30 3411 C 319.208 -0.121533 -1.59137 0
M  V30 3412 C 319.408 1.3717 -1.47603 0
M  V30 3413 O 318.464 2.14464 -1.33272 0
M  V30 3414 C 319.777 -0.6686 -2.93173 0
M  V30 3415 C 321.325 -0.631716 -3.06559 0
M  V30 3416 C 321.8 -1.15627 -4.43164 0
M  V30 3417 N 323.291 -1.11553 -4.49567 0
M  V30 3418 C 324.026 -1.49195 -5.5365 0
M  V30 3419 N 323.522 -1.94269 -6.65005 0
M  V30 3420 N 325.315 -1.4082 -5.44175 0
M  V30 3421 H 317.466 -1.4388 -1.56245 0
M  V30 3422 H 319.729 -0.594784 -0.738198 0
M  V30 3423 H 319.435 -1.71453 -3.07078 0
M  V30 3424 H 319.309 -0.11021 -3.77039 0
M  V30 3425 H 321.696 0.405297 -2.92304 0
M  V30 3426 H 321.777 -1.22687 -2.24458 0
M  V30 3427 H 321.421 -2.1919 -4.58168 0
M  V30 3428 H 321.351 -0.537365 -5.23851 0
M  V30 3429 H 323.842 -0.784895 -3.69659 0
M  V30 3430 H 324.155 -2.21148 -7.40482 0
M  V30 3431 H 322.5 -1.98219 -6.66134 0
M  V30 3432 H 325.691 -1.0545 -4.56068 0
M  V30 3433 H 325.864 -1.70481 -6.25172 0
M  V30 3434 N 319.27 1.56325 -0.20005 0
M  V30 3435 C 320.516 1.98772 0.431408 0
M  V30 3436 C 320.871 1.0849 1.58895 0
M  V30 3437 O 320.164 0.130331 1.91156 0
M  V30 3438 C 320.358 3.4495 0.935103 0
M  V30 3439 C 320.187 4.49371 -0.172096 0
M  V30 3440 C 318.957 5.0134 -0.631377 0
M  V30 3441 C 321.155 5.04822 -0.982806 0
M  V30 3442 N 319.137 5.89433 -1.71588 0
M  V30 3443 C 320.508 5.89632 -1.91661 0
M  V30 3444 C 322.563 4.87242 -1.02467 0
M  V30 3445 C 321.266 6.58741 -2.88881 0
M  V30 3446 C 323.292 5.57094 -1.98494 0
M  V30 3447 C 322.654 6.41655 -2.90617 0
M  V30 3448 H 318.753 0.771922 0.125144 0
M  V30 3449 H 321.337 1.92266 -0.306883 0
M  V30 3450 H 319.508 3.51946 1.64282 0
M  V30 3451 H 321.24 3.74354 1.53758 0
M  V30 3452 H 317.995 4.73071 -0.223827 0
M  V30 3453 H 318.419 6.38182 -2.25948 0
M  V30 3454 H 323.061 4.21538 -0.326408 0
M  V30 3455 H 320.779 7.23641 -3.5968 0
M  V30 3456 H 324.365 5.45466 -2.0238 0
M  V30 3457 H 323.245 6.94755 -3.63711 0
M  V30 3458 N 320.748 -0.0735177 1.57428 0
M  V30 3459 C 321.997 -0.771809 1.86349 0
M  V30 3460 C 322.31 -1.78828 0.792452 0
M  V30 3461 O 323.516 -2.53602 0.96945 0
M  V30 3462 C 321.972 -1.42358 3.30548 0
M  V30 3463 C 321.58 -0.445761 4.45777 0
M  V30 3464 C 323.324 -2.10434 3.6867 0
M  V30 3465 C 321.231 -1.10335 5.81016 0
M  V30 3466 H 320.161 -0.291999 0.695164 0
M  V30 3467 H 322.812 -0.0250749 1.83483 0
M  V30 3468 H 321.194 -2.21852 3.28021 0
M  V30 3469 H 322.368 0.319239 4.59693 0
M  V30 3470 H 320.683 0.130457 4.16196 0
M  V30 3471 H 323.28 -2.60405 4.67004 0
M  V30 3472 H 323.623 -2.90298 2.98383 0
M  V30 3473 H 324.156 -1.37773 3.7318 0
M  V30 3474 H 320.895 -0.345061 6.54591 0
M  V30 3475 H 320.415 -1.83925 5.70904 0
M  V30 3476 H 322.094 -1.62367 6.26295 0
M  V30 3477 N 322.226 -1.5378 -0.344866 0
M  V30 3478 C 323.475 -1.7018 -1.08267 0
M  V30 3479 C 323.788 -0.471 -1.89845 0
M  V30 3480 O 324.994 -0.515917 -2.66553 0
M  V30 3481 C 323.45 -3.00923 -1.97417 0
M  V30 3482 C 323.058 -4.31335 -1.21053 0
M  V30 3483 C 324.802 -3.26688 -2.71063 0
M  V30 3484 C 322.709 -5.53153 -2.09225 0
M  V30 3485 H 321.639 -0.634138 -0.407903 0
M  V30 3486 H 324.29 -1.8028 -0.342246 0
M  V30 3487 H 322.672 -2.84676 -2.75274 0
M  V30 3488 H 323.846 -4.58281 -0.481159 0
M  V30 3489 H 322.161 -4.12173 -0.591813 0
M  V30 3490 H 324.758 -4.1489 -3.37299 0
M  V30 3491 H 325.101 -2.43639 -3.37558 0
M  V30 3492 H 325.634 -3.43705 -2.0028 0
M  V30 3493 H 322.373 -6.38741 -1.47274 0
M  V30 3494 H 321.893 -5.30458 -2.79955 0
M  V30 3495 H 323.572 -5.88744 -2.68308 0
M  V30 3496 N 323.704 0.605807 -1.45491 0
M  V30 3497 C 324.636 1.73031 -1.5031 0
M  V30 3498 C 325.649 1.57968 -0.393687 0
M  V30 3499 O 326.838 1.65817 -0.660839 0
M  V30 3500 C 323.938 3.11049 -1.34543 0
M  V30 3501 C 323.111 3.52334 -2.59189 0
M  V30 3502 C 322.17 4.69323 -2.37954 0
M  V30 3503 O 321.196 4.7635 -3.11575 0
M  V30 3504 N 322.398 5.62705 -1.4263 0
M  V30 3505 H 325.163 1.6936 -2.4726 0
M  V30 3506 H 322.724 0.79114 -1.41254 0
M  V30 3507 H 324.716 3.87071 -1.18144 0
M  V30 3508 H 323.286 3.09217 -0.458623 0
M  V30 3509 H 322.506 2.66256 -2.90691 0
M  V30 3510 H 323.794 3.76677 -3.42041 0
M  V30 3511 H 323.192 5.59744 -0.818758 0
M  V30 3512 H 321.749 6.38252 -1.32202 0
M  V30 3513 N 325.182 1.32811 0.848464 0
M  V30 3514 C 326.407 1.26882 1.6406 0
M  V30 3515 C 326.832 -0.15913 1.87426 0
M  V30 3516 O 326.19 -1.11258 1.43148 0
M  V30 3517 C 326.238 2.03997 2.97351 0
M  V30 3518 O 325.342 1.39201 3.88197 0
M  V30 3519 H 324.683 0.436982 0.499943 0
M  V30 3520 H 327.213 1.75224 1.0563 0
M  V30 3521 H 327.223 2.14403 3.47124 0
M  V30 3522 H 325.898 3.0783 2.79666 0
M  V30 3523 H 324.475 1.37381 3.46671 0
M  V30 3524 N 326.66 -1.06551 1.16123 0
M  V30 3525 C 327.59 -2.15935 0.88851 0
M  V30 3526 C 328.571 -1.69306 -0.164135 0
M  V30 3527 O 329.756 -1.94193 -0.0167857 0
M  V30 3528 C 326.886 -3.45149 0.385942 0
M  V30 3529 C 325.84 -4.05271 1.3762 0
M  V30 3530 C 325.166 -5.29664 0.732137 0
M  V30 3531 C 326.466 -4.44355 2.74493 0
M  V30 3532 H 328.16 -2.39006 1.80323 0
M  V30 3533 H 325.706 -1.14866 0.868435 0
M  V30 3534 H 327.659 -4.21004 0.182647 0
M  V30 3535 H 326.383 -3.21689 -0.564274 0
M  V30 3536 H 325.042 -3.3147 1.56599 0
M  V30 3537 H 324.69 -5.02499 -0.224483 0
M  V30 3538 H 324.39 -5.70848 1.39307 0
M  V30 3539 H 325.914 -6.08218 0.538802 0
M  V30 3540 H 327.328 -5.11303 2.59311 0
M  V30 3541 H 325.725 -4.96515 3.37035 0
M  V30 3542 H 326.795 -3.55339 3.29943 0
M  V30 3543 N 328.138 -0.959301 -1.25041 0
M  V30 3544 C 329.101 -0.487677 -2.23952 0
M  V30 3545 C 330.101 0.41119 -1.55454 0
M  V30 3546 O 331.291 0.207825 -1.72956 0
M  V30 3547 C 328.423 0.294807 -3.39623 0
M  V30 3548 H 329.616 -1.36198 -2.67189 0
M  V30 3549 H 327.169 -0.743042 -1.37508 0
M  V30 3550 H 327.904 1.18658 -3.01813 0
M  V30 3551 H 327.689 -0.35012 -3.90534 0
M  V30 3552 H 329.179 0.614089 -4.1306 0
M  V30 3553 N 329.616 1.39756 -0.72842 0
M  V30 3554 C 330.841 2.05472 -0.282159 0
M  V30 3555 C 331.266 1.54549 1.07221 0
M  V30 3556 O 330.624 0.686372 1.67805 0
M  V30 3557 C 330.672 3.59462 -0.286264 0
M  V30 3558 O 329.776 4.05918 0.728298 0
M  V30 3559 H 329.117 0.651226 -0.129618 0
M  V30 3560 H 331.647 1.78915 -0.992499 0
M  V30 3561 H 331.657 4.07798 -0.128373 0
M  V30 3562 H 330.332 3.95889 -1.27456 0
M  V30 3563 H 328.909 3.69012 0.537081 0
M  V30 3564 N 331.094 0.475555 1.50254 0
M  V30 3565 C 332.057 -0.305016 2.27161 0
M  V30 3566 C 333.057 -0.916519 1.32123 0
M  V30 3567 O 334.247 -0.785003 1.5551 0
M  V30 3568 C 331.379 -1.43496 3.09227 0
M  V30 3569 H 332.572 0.369511 2.97615 0
M  V30 3570 H 330.125 0.229747 1.54602 0
M  V30 3571 H 330.86 -2.14441 2.43281 0
M  V30 3572 H 330.645 -1.00223 3.79075 0
M  V30 3573 H 332.135 -1.98548 3.67381 0
M  V30 3574 N 332.573 -1.56217 0.208337 0
M  V30 3575 C 333.822 -1.97124 -0.427204 0
M  V30 3576 C 334.135 -1.09859 -1.61835 0
M  V30 3577 O 335.341 -1.40606 -2.32255 0
M  V30 3578 C 333.797 -3.50633 -0.811442 0
M  V30 3579 C 333.405 -4.46582 0.35615 0
M  V30 3580 C 335.149 -4.00282 -1.41332 0
M  V30 3581 C 333.056 -5.91379 -0.0497852 0
M  V30 3582 H 331.986 -0.736086 -0.163381 0
M  V30 3583 H 334.637 -1.8099 0.302456 0
M  V30 3584 H 333.019 -3.62319 -1.59815 0
M  V30 3585 H 334.193 -4.46636 1.1337 0
M  V30 3586 H 332.508 -4.07202 0.870396 0
M  V30 3587 H 335.105 -5.0595 -1.72972 0
M  V30 3588 H 335.448 -3.45359 -2.32449 0
M  V30 3589 H 335.981 -3.91764 -0.690323 0
M  V30 3590 H 332.72 -6.50255 0.827529 0
M  V30 3591 H 332.24 -5.94549 -0.791926 0
M  V30 3592 H 333.919 -6.45209 -0.481042 0
M  V30 3593 N 334.051 0.0651679 -1.57465 0
M  V30 3594 C 335.014 1.06117 -2.03155 0
M  V30 3595 C 336.014 1.31204 -0.929632 0
M  V30 3596 O 337.204 1.26813 -1.19432 0
M  V30 3597 C 334.336 2.4032 -2.41783 0
M  V30 3598 H 335.529 0.667231 -2.92383 0
M  V30 3599 H 333.082 0.311075 -1.53173 0
M  V30 3600 H 333.817 2.84532 -1.55601 0
M  V30 3601 H 333.602 2.23451 -3.22199 0
M  V30 3602 H 335.092 3.11898 -2.77685 0
M  V30 3603 N 335.529 1.53961 0.336706 0
M  V30 3604 C 336.759 1.75229 1.09446 0
M  V30 3605 C 337.167 0.494602 1.82621 0
M  V30 3606 O 336.51 -0.543764 1.75468 0
M  V30 3607 C 336.572 2.88288 2.1478 0
M  V30 3608 C 336.236 4.27656 1.6112 0
M  V30 3609 C 337.233 5.08981 1.0599 0
M  V30 3610 C 334.918 4.74161 1.6576 0
M  V30 3611 C 336.912 6.34916 0.562129 0
M  V30 3612 C 334.599 6.00067 1.15595 0
M  V30 3613 C 335.597 6.80278 0.609147 0
M  V30 3614 O 335.285 8.03818 0.114999 0
M  V30 3615 H 335.017 0.588881 0.331956 0
M  V30 3616 H 337.571 2.01614 0.392566 0
M  V30 3617 H 335.801 2.57443 2.88548 0
M  V30 3618 H 337.49 2.97461 2.76174 0
M  V30 3619 H 338.256 4.74213 1.01722 0
M  V30 3620 H 334.135 4.11781 2.07261 0
M  V30 3621 H 337.679 6.9747 0.134668 0
M  V30 3622 H 333.576 6.3433 1.19566 0
M  V30 3623 H 334.344 8.18172 0.231651 0
M  V30 3624 N 337.007 -0.598083 1.45811 0
M  V30 3625 C 337.937 -1.71873 1.58057 0
M  V30 3626 C 338.918 -1.64533 0.431615 0
M  V30 3627 O 340.103 -1.82787 0.65595 0
M  V30 3628 C 337.233 -3.10495 1.55597 0
M  V30 3629 C 336.187 -3.32654 2.69305 0
M  V30 3630 C 335.513 -4.71646 2.51902 0
M  V30 3631 C 336.813 -3.21981 4.11248 0
M  V30 3632 H 338.507 -1.61881 2.51863 0
M  V30 3633 H 336.053 -0.777372 1.21214 0
M  V30 3634 H 338.006 -3.88699 1.6276 0
M  V30 3635 H 336.73 -3.2135 0.583255 0
M  V30 3636 H 335.389 -2.56843 2.61586 0
M  V30 3637 H 335.037 -4.79246 1.52748 0
M  V30 3638 H 334.737 -4.87426 3.2816 0
M  V30 3639 H 336.261 -5.52038 2.60933 0
M  V30 3640 H 337.675 -3.90049 4.20161 0
M  V30 3641 H 336.072 -3.49289 4.87972 0
M  V30 3642 H 337.142 -2.1928 4.32486 0
M  V30 3643 N 338.485 -1.33259 -0.841409 0
M  V30 3644 C 339.435 -1.19872 -1.93945 0
M  V30 3645 C 340.419 -0.102269 -1.60575 0
M  V30 3646 O 341.611 -0.330114 -1.73894 0
M  V30 3647 C 338.74 -0.937517 -3.30251 0
M  V30 3648 C 337.826 -2.07629 -3.69799 0
M  V30 3649 N 338.217 -3.32604 -3.81062 0
M  V30 3650 C 336.515 -1.98242 -3.9952 0
M  V30 3651 C 337.216 -4.07275 -4.15333 0
M  V30 3652 N 336.192 -3.35691 -4.27566 0
M  V30 3653 H 339.994 -2.14604 -2.00805 0
M  V30 3654 H 337.508 -1.2523 -1.03398 0
M  V30 3655 H 339.505 -0.822545 -4.08705 0
M  V30 3656 H 338.165 0.00128798 -3.247 0
M  V30 3657 H 339.176 -3.67382 -3.65035 0
M  V30 3658 H 335.853 -1.12005 -4.02195 0
M  V30 3659 H 337.243 -5.1511 -4.31406 0
M  V30 3660 N 339.963 1.05934 -1.16686 0
M  V30 3661 C 340.911 2.15603 -0.872817 0
M  V30 3662 C 341.905 1.68647 0.159576 0
M  V30 3663 O 343.111 1.79995 0.0132125 0
M  V30 3664 H 339.486 0.703885 -0.264671 0
M  V30 3665 H 341.457 2.37613 -1.80507 0
M  V30 3666 C 340.206 3.45457 -0.394344 0
M  V30 3667 H 339.529 3.81984 -1.18019 0
M  V30 3668 H 340.969 4.2339 -0.227408 0
M  V30 3669 C 339.428 3.25021 0.88673 0
M  V30 3670 O 339.958 3.50906 1.95519 0
M  V30 3671 N 338.164 2.78437 0.831925 0
M  V30 3672 H 337.711 2.57572 -0.0377619 0
M  V30 3673 H 337.669 2.65144 1.68956 0
M  V30 3674 N 341.441 0.965919 1.2453 0
M  V30 3675 C 342.389 0.486506 2.27455 0
M  V30 3676 C 343.383 -0.449041 1.6334 0
M  V30 3677 O 344.589 -0.324527 1.7705 0
M  V30 3678 H 340.964 0.138857 0.739069 0
M  V30 3679 H 342.935 1.3666 2.65267 0
M  V30 3680 C 341.684 -0.209481 3.47068 0
M  V30 3681 H 341.007 0.50129 3.96645 0
M  V30 3682 H 342.447 -0.508775 4.20936 0
M  V30 3683 C 340.906 -1.43586 3.0477 0
M  V30 3684 O 341.436 -2.53299 3.11773 0
M  V30 3685 N 339.642 -1.30126 2.59838 0
M  V30 3686 H 339.189 -0.408583 2.54339 0
M  V30 3687 H 339.147 -2.12294 2.31902 0
M  V30 3688 N 342.919 -1.39368 0.735821 0
M  V30 3689 C 344.196 -1.94465 0.210395 0
M  V30 3690 C 344.576 -1.67254 -1.28799 0
M  V30 3691 O 343.924 -1.00123 -2.05396 0
M  V30 3692 C 344.134 -3.4472 0.544897 0
M  V30 3693 C 345.482 -4.21708 0.494689 0
M  V30 3694 O 346.506 -3.52922 0.482136 0
M  V30 3695 O 345.365 -5.44299 0.489947 0
M  V30 3696 H 342.459 -0.826096 0.0386666 0
M  V30 3697 H 345.005 -1.48863 0.814735 0
M  V30 3698 H 343.777 -3.57963 1.58045 0
M  V30 3699 H 343.4 -3.97502 -0.08837 0
M  V30 3700 N 344.397 -0.483516 -1.5 0
M  V30 3701 C 345.646 0.0689102 -2.01582 0
M  V30 3702 C 345.959 1.39655 -1.36952 0
M  V30 3703 O 347.165 2.03465 -1.79762 0
M  V30 3704 C 345.621 0.173302 -3.59483 0
M  V30 3705 C 345.229 -1.14665 -4.33077 0
M  V30 3706 C 346.973 0.677024 -4.19066 0
M  V30 3707 C 344.88 -1.00537 -5.82792 0
M  V30 3708 H 343.81 0.0295277 -0.753422 0
M  V30 3709 H 346.461 -0.620295 -1.72698 0
M  V30 3710 H 344.843 0.926569 -3.85007 0
M  V30 3711 H 346.017 -1.91184 -4.19268 0
M  V30 3712 H 344.332 -1.58244 -3.85159 0
M  V30 3713 H 346.929 0.799952 -5.28682 0
M  V30 3714 H 347.272 1.67151 -3.81269 0
M  V30 3715 H 347.805 -0.0192083 -3.97795 0
M  V30 3716 H 344.544 -1.9736 -6.25083 0
M  V30 3717 H 344.064 -0.280776 -5.99142 0
M  V30 3718 H 345.743 -0.677 -6.43448 0
M  V30 3719 N 345.875 1.56104 -0.216619 0
M  V30 3720 C 347.121 1.98466 0.417033 0
M  V30 3721 C 347.454 1.10403 1.59765 0
M  V30 3722 O 346.729 0.160632 1.93836 0
M  V30 3723 C 347.012 3.49769 0.85637 0
M  V30 3724 C 346.865 4.48606 -0.327546 0
M  V30 3725 C 348.184 4.05339 1.7143 0
M  V30 3726 H 345.303 0.721551 0.150112 0
M  V30 3727 H 347.945 1.87423 -0.311864 0
M  V30 3728 H 346.095 3.5931 1.47745 0
M  V30 3729 H 347.767 4.5108 -0.965618 0
M  V30 3730 H 346.01 4.22682 -0.975805 0
M  V30 3731 H 346.681 5.51995 0.0227149 0
M  V30 3732 H 349.157 3.98712 1.19031 0
M  V30 3733 H 348.033 5.11533 1.99061 0
M  V30 3734 H 348.294 3.51918 2.67593 0
M  V30 3735 N 347.353 -0.0568162 1.57498 0
M  V30 3736 C 348.303 -1.07315 2.01166 0
M  V30 3737 C 349.287 -1.33632 0.896171 0
M  V30 3738 O 350.479 -1.33682 1.16009 0
M  V30 3739 C 347.608 -2.38257 2.47161 0
M  V30 3740 C 346.694 -2.1515 3.65474 0
M  V30 3741 N 347.085 -1.62014 4.7915 0
M  V30 3742 C 345.383 -2.45559 3.72313 0
M  V30 3743 C 346.084 -1.54069 5.60926 0
M  V30 3744 N 345.06 -2.00652 5.05213 0
M  V30 3745 H 348.862 -0.655878 2.86488 0
M  V30 3746 H 346.376 -0.263635 1.60246 0
M  V30 3747 H 348.373 -3.11845 2.76691 0
M  V30 3748 H 347.033 -2.80687 1.63232 0
M  V30 3749 H 348.044 -1.30667 5.01145 0
M  V30 3750 H 344.721 -2.91253 2.99129 0
M  V30 3751 H 346.111 -1.13712 6.62208 0
M  V30 3752 N 348.832 -1.54138 -0.328536 0
M  V30 3753 C 350.248 -1.44736 -0.672574 0
M  V30 3754 C 350.448 -0.616217 -1.91846 0
M  V30 3755 O 349.504 -0.113067 -2.52247 0
M  V30 3756 C 350.817 -2.884 -0.851217 0
M  V30 3757 C 352.365 -2.98271 -0.948877 0
M  V30 3758 C 352.84 -4.43074 -1.15973 0
M  V30 3759 N 354.331 -4.46665 -1.22658 0
M  V30 3760 C 355.066 -5.55857 -1.40751 0
M  V30 3761 N 354.562 -6.75026 -1.5592 0
M  V30 3762 N 356.355 -5.43495 -1.4342 0
M  V30 3763 H 348.506 -2.06661 0.490421 0
M  V30 3764 H 350.769 -0.934812 0.157579 0
M  V30 3765 H 350.475 -3.51699 -0.00704236 0
M  V30 3766 H 350.349 -3.34225 -1.74853 0
M  V30 3767 H 352.736 -2.35102 -1.78356 0
M  V30 3768 H 352.817 -2.55785 -0.0281435 0
M  V30 3769 H 352.461 -5.06827 -0.329915 0
M  V30 3770 H 352.391 -4.83165 -2.09426 0
M  V30 3771 H 354.882 -3.60797 -1.124 0
M  V30 3772 H 355.195 -7.54004 -1.69404 0
M  V30 3773 H 353.54 -6.77944 -1.53027 0
M  V30 3774 H 356.731 -4.49349 -1.31162 0
M  V30 3775 H 356.904 -6.28649 -1.57178 0
M  V30 3776 N 350.31 0.590341 -1.46126 0
M  V30 3777 C 351.587 1.35029 -1.41515 0
M  V30 3778 C 351.967 2.10888 -0.0946472 0
M  V30 3779 O 351.315 2.08998 0.923693 0
M  V30 3780 C 351.525 2.28269 -2.63997 0
M  V30 3781 C 352.873 2.90338 -3.09821 0
M  V30 3782 O 353.897 2.38585 -2.64492 0
M  V30 3783 O 352.756 3.84321 -3.88535 0
M  V30 3784 H 349.85 0.606317 -0.562413 0
M  V30 3785 H 352.396 0.611994 -1.58281 0
M  V30 3786 H 351.168 1.71591 -3.51671 0
M  V30 3787 H 350.791 3.0945 -2.49652 0
M  V30 3788 N 351.788 1.33704 0.83433 0
M  V30 3789 C 352.718 1.26967 1.95963 0
M  V30 3790 C 353.699 0.149337 1.69443 0
M  V30 3791 O 354.884 0.339852 1.91203 0
M  V30 3792 C 352.014 1.01275 3.32206 0
M  V30 3793 C 350.968 2.09652 3.73136 0
M  V30 3794 C 350.294 1.69166 5.07235 0
M  V30 3795 C 351.594 3.51372 3.86439 0
M  V30 3796 H 353.288 2.2112 2.01857 0
M  V30 3797 H 350.834 1.06447 0.969793 0
M  V30 3798 H 352.787 0.952106 4.10503 0
M  V30 3799 H 351.511 0.0356203 3.26581 0
M  V30 3800 H 350.17 2.14766 2.97104 0
M  V30 3801 H 349.818 0.701437 4.98085 0
M  V30 3802 H 349.518 2.41694 5.35591 0
M  V30 3803 H 351.042 1.64576 5.88003 0
M  V30 3804 H 352.456 3.48734 4.55036 0
M  V30 3805 H 350.853 4.22425 4.26236 0
M  V30 3806 H 351.923 3.89546 2.88759 0
M  V30 3807 N 353.266 -1.05314 1.17247 0
M  V30 3808 C 354.213 -2.13031 0.888058 0
M  V30 3809 C 355.183 -1.65253 -0.167537 0
M  V30 3810 O 356.368 -1.90775 -0.0305974 0
M  V30 3811 C 353.508 -3.42702 0.406147 0
M  V30 3812 C 352.621 -4.04161 1.52572 0
M  V30 3813 C 351.756 -5.21744 0.997808 0
M  V30 3814 C 350.795 -5.75207 2.09291 0
M  V30 3815 N 349.932 -6.84094 1.57986 0
M  V30 3816 H 354.772 -2.36698 1.81048 0
M  V30 3817 H 352.309 -1.16121 0.903013 0
M  V30 3818 H 354.267 -4.17059 0.108305 0
M  V30 3819 H 352.897 -3.19222 -0.479313 0
M  V30 3820 H 351.949 -3.27253 1.93931 0
M  V30 3821 H 353.261 -4.39881 2.35172 0
M  V30 3822 H 352.415 -6.03168 0.653739 0
M  V30 3823 H 351.154 -4.87495 0.141232 0
M  V30 3824 H 350.159 -4.92414 2.44557 0
M  V30 3825 H 351.384 -6.11505 2.95362 0
M  V30 3826 H 349.33 -6.51745 0.74598 0
M  V30 3827 H 349.247 -7.18811 2.34195 0
M  V30 3828 H 350.515 -7.69172 1.26468 0
M  V30 3829 N 354.744 -0.972509 -1.24016 0
M  V30 3830 C 355.674 -0.525548 -2.27509 0
M  V30 3831 C 356.655 0.437262 -1.64384 0
M  V30 3832 O 357.84 0.332343 -1.91335 0
M  V30 3833 C 354.97 0.180448 -3.46831 0
M  V30 3834 C 353.924 -0.698859 -4.22256 0
M  V30 3835 C 353.25 0.138903 -5.3452 0
M  V30 3836 C 354.55 -1.98582 -4.83076 0
M  V30 3837 H 356.244 -1.39058 -2.65148 0
M  V30 3838 H 353.79 -0.67009 -1.27459 0
M  V30 3839 H 355.743 0.504387 -4.18371 0
M  V30 3840 H 354.467 1.07987 -3.08231 0
M  V30 3841 H 353.126 -1.00614 -3.52523 0
M  V30 3842 H 352.774 1.03862 -4.9216 0
M  V30 3843 H 352.474 -0.446259 -5.85903 0
M  V30 3844 H 353.998 0.457404 -6.08884 0
M  V30 3845 H 355.412 -1.72715 -5.46665 0
M  V30 3846 H 353.809 -2.5181 -5.44713 0
M  V30 3847 H 354.879 -2.67769 -4.04262 0
M  V30 3848 N 356.222 1.38976 -0.743202 0
M  V30 3849 C 357.132 2.3434 -0.110399 0
M  V30 3850 C 358.148 1.58741 0.712559 0
M  V30 3851 O 359.324 1.9099 0.639125 0
M  V30 3852 C 356.389 3.37812 0.780012 0
M  V30 3853 C 355.45 4.29263 -0.0561319 0
M  V30 3854 C 354.683 5.27793 0.791875 0
M  V30 3855 O 354.906 5.33043 2.03031 0
M  V30 3856 O 353.84 6.01512 0.216183 0
M  V30 3857 H 357.666 2.90129 -0.897714 0
M  V30 3858 H 355.251 1.40643 -0.503966 0
M  V30 3859 H 357.133 4.01194 1.28923 0
M  V30 3860 H 355.808 2.84395 1.546 0
M  V30 3861 H 354.715 3.69076 -0.611056 0
M  V30 3862 H 356.048 4.85907 -0.784531 0
M  V30 3863 N 357.7 0.491464 1.49741 0
M  V30 3864 C 358.648 -0.305837 2.30581 0
M  V30 3865 C 359.642 -0.971642 1.38764 0
M  V30 3866 O 360.848 -0.90042 1.5586 0
M  V30 3867 H 357.223 -0.117482 0.742767 0
M  V30 3868 H 359.194 0.396093 2.95759 0
M  V30 3869 C 357.943 -1.36319 3.19863 0
M  V30 3870 H 357.266 -0.860258 3.90435 0
M  V30 3871 H 358.706 -1.89323 3.79385 0
M  V30 3872 C 357.165 -2.37621 2.38826 0
M  V30 3873 O 357.695 -3.43311 2.08567 0
M  V30 3874 N 355.901 -2.09849 2.01026 0
M  V30 3875 H 355.448 -1.23922 2.25834 0
M  V30 3876 H 355.406 -2.77859 1.47112 0
M  V30 3877 N 359.178 -1.55987 0.224894 0
M  V30 3878 C 360.427 -1.97566 -0.406273 0
M  V30 3879 C 360.74 -1.11569 -1.6066 0
M  V30 3880 O 361.946 -1.43062 -2.3075 0
M  V30 3881 C 360.402 -3.51474 -0.774207 0
M  V30 3882 C 360.01 -4.46179 0.403496 0
M  V30 3883 C 361.754 -4.01758 -1.37079 0
M  V30 3884 C 359.661 -5.91399 0.0129412 0
M  V30 3885 H 358.591 -0.737777 -0.155565 0
M  V30 3886 H 361.242 -1.80659 0.321635 0
M  V30 3887 H 359.624 -3.63994 -1.55963 0
M  V30 3888 H 360.798 -4.45409 1.18101 0
M  V30 3889 H 359.113 -4.06255 0.913536 0
M  V30 3890 H 361.71 -5.07756 -1.67596 0
M  V30 3891 H 362.053 -3.47805 -2.28773 0
M  V30 3892 H 362.586 -3.92475 -0.648733 0
M  V30 3893 H 359.325 -6.49341 0.896451 0
M  V30 3894 H 358.845 -5.95356 -0.728821 0
M  V30 3895 H 360.524 -6.45683 -0.412582 0
M  V30 3896 N 360.656 0.0484629 -1.57525 0
M  V30 3897 C 361.589 1.08755 -2.00618 0
M  V30 3898 C 362.567 1.36272 -0.887058 0
M  V30 3899 O 363.751 1.49255 -1.15131 0
M  V30 3900 C 360.878 2.42675 -2.36277 0
M  V30 3901 C 359.924 2.31142 -3.58435 0
M  V30 3902 S 360.757 1.68326 -5.08357 0
M  V30 3903 C 361.913 3.03776 -5.47239 0
M  V30 3904 H 362.146 0.720415 -2.88439 0
M  V30 3905 H 359.679 0.257801 -1.52233 0
M  V30 3906 H 361.637 3.19699 -2.57494 0
M  V30 3907 H 360.298 2.76541 -1.48942 0
M  V30 3908 H 359.491 3.29957 -3.80978 0
M  V30 3909 H 359.093 1.62258 -3.36969 0
M  V30 3910 H 361.385 4.00106 -5.46737 0
M  V30 3911 H 362.328 2.85988 -6.47778 0
M  V30 3912 H 362.736 3.05456 -4.74718 0
M  V30 3913 N 362.134 1.5431 0.320358 0
M  V30 3914 C 363.38 1.72924 1.05949 0
M  V30 3915 C 363.713 0.503185 1.87568 0
M  V30 3916 O 362.988 -0.499839 1.87968 0
M  V30 3917 C 363.271 3.00676 1.98156 0
M  V30 3918 C 363.124 4.3354 1.19845 0
M  V30 3919 C 364.443 3.24198 2.9763 0
M  V30 3920 H 361.562 0.629195 0.383774 0
M  V30 3921 H 364.204 1.87008 0.335854 0
M  V30 3922 H 362.354 2.888 2.59859 0
M  V30 3923 H 364.026 4.57305 0.605773 0
M  V30 3924 H 362.269 4.309 0.500784 0
M  V30 3925 H 362.94 5.19156 1.87567 0
M  V30 3926 H 365.416 3.35557 2.4605 0
M  V30 3927 H 364.292 4.14938 3.59329 0
M  V30 3928 H 364.553 2.41577 3.7026 0
M  V30 3929 N 363.613 -0.582584 1.46437 0
M  V30 3930 C 364.56 -1.69164 1.5701 0
M  V30 3931 C 365.53 -1.60847 0.414403 0
M  V30 3932 O 366.715 -1.80058 0.631171 0
M  V30 3933 C 363.855 -3.075 1.56646 0
M  V30 3934 C 362.968 -3.2644 2.82951 0
M  V30 3935 C 362.103 -4.55026 2.7409 0
M  V30 3936 C 361.142 -4.6731 3.95333 0
M  V30 3937 N 360.279 -5.87221 3.84858 0
M  V30 3938 H 365.119 -1.59464 2.51744 0
M  V30 3939 H 362.656 -0.777186 1.24893 0
M  V30 3940 H 364.614 -3.8757 1.5442 0
M  V30 3941 H 363.244 -3.16096 0.654439 0
M  V30 3942 H 362.296 -2.39974 2.95155 0
M  V30 3943 H 363.608 -3.31385 3.72808 0
M  V30 3944 H 362.762 -5.43324 2.6997 0
M  V30 3945 H 361.501 -4.52519 1.81873 0
M  V30 3946 H 360.506 -3.77429 3.99784 0
M  V30 3947 H 361.731 -4.71595 4.88646 0
M  V30 3948 H 359.677 -5.85712 2.95427 0
M  V30 3949 H 359.594 -5.93435 4.6837 0
M  V30 3950 H 360.862 -6.7795 3.84713 0
M  V30 3951 N 365.091 -1.34144 -0.827227 0
M  V30 3952 C 366.316 -1.29476 -1.62021 0
M  V30 3953 C 366.741 0.129292 -1.87655 0
M  V30 3954 O 366.099 1.08967 -1.449 0
M  V30 3955 C 366.147 -2.08702 -2.94068 0
M  V30 3956 O 365.251 -1.45359 -3.85933 0
M  V30 3957 H 364.592 -0.444881 -0.492927 0
M  V30 3958 H 367.122 -1.76882 -1.02829 0
M  V30 3959 H 367.132 -2.19898 -3.43669 0
M  V30 3960 H 365.807 -3.12241 -2.74734 0
M  V30 3961 H 364.384 -1.42879 -3.44442 0
M  V30 3962 N 366.569 1.04691 -1.17803 0
M  V30 3963 C 367.794 1.81984 -0.994813 0
M  V30 3964 C 368.219 1.82586 0.452112 0
M  V30 3965 O 367.577 1.23854 1.324 0
M  V30 3966 C 367.625 3.2575 -1.54659 0
M  V30 3967 O 366.729 4.05267 -0.763728 0
M  V30 3968 H 366.07 0.562483 -0.352857 0
M  V30 3969 H 368.6 1.3189 -1.56417 0
M  V30 3970 H 368.61 3.76541 -1.57102 0
M  V30 3971 H 367.285 3.24627 -2.59981 0
M  V30 3972 H 365.862 3.63972 -0.811108 0
M  V30 3973 N 368.047 0.979072 1.23499 0
M  V30 3974 C 368.977 0.537606 2.27227 0
M  V30 3975 C 369.958 -0.428539 1.64613 0
M  V30 3976 O 371.143 -0.322191 1.91509 0
M  V30 3977 C 368.273 -0.162052 3.46922 0
M  V30 3978 C 367.227 0.721242 4.21879 0
M  V30 3979 C 366.553 -0.110555 5.34586 0
M  V30 3980 C 367.853 2.01141 4.82016 0
M  V30 3981 H 369.547 1.40462 2.64406 0
M  V30 3982 H 367.093 0.67684 1.27102 0
M  V30 3983 H 369.046 -0.482192 4.18632 0
M  V30 3984 H 367.77 -1.06351 3.08799 0
M  V30 3985 H 366.429 1.02482 3.51984 0
M  V30 3986 H 366.077 -1.0125 4.92704 0
M  V30 3987 H 365.777 0.477325 5.85658 0
M  V30 3988 H 367.301 -0.425107 6.09118 0
M  V30 3989 H 368.715 1.75612 5.45741 0
M  V30 3990 H 367.112 2.54695 5.43369 0
M  V30 3991 H 368.182 2.69909 4.02836 0
M  V30 3992 N 369.525 -1.3858 0.750561 0
M  V30 3993 C 370.774 -1.99424 0.302172 0
M  V30 3994 C 371.087 -1.60254 -1.12152 0
M  V30 3995 O 372.293 -2.14046 -1.67023 0
M  V30 3996 C 370.749 -3.56558 0.489307 0
M  V30 3997 C 370.357 -4.04682 1.92189 0
M  V30 3998 C 372.101 -4.24374 0.103478 0
M  V30 3999 C 370.008 -5.54446 2.05775 0
M  V30 4000 H 368.938 -0.746046 0.10923 0
M  V30 4001 H 371.589 -1.58383 0.92667 0
M  V30 4002 H 369.971 -3.95472 -0.204329 0
M  V30 4003 H 371.145 -3.77065 2.64875 0
M  V30 4004 H 369.46 -3.4958 2.26236 0
M  V30 4005 H 372.057 -5.34384 0.183787 0
M  V30 4006 H 372.4 -4.05468 -0.943481 0
M  V30 4007 H 372.933 -3.90688 0.748854 0
M  V30 4008 H 369.672 -5.78252 3.08714 0
M  V30 4009 H 369.192 -5.83816 1.37546 0
M  V30 4010 H 370.871 -6.20099 1.84626 0
M  V30 4011 N 371.003 -0.499398 -1.49478 0
M  V30 4012 C 372.28 0.108629 -1.95298 0
M  V30 4013 C 372.66 1.54282 -1.44084 0
M  V30 4014 O 372.008 2.18944 -0.653908 0
M  V30 4015 C 372.218 0.0229111 -3.48992 0
M  V30 4016 C 373.566 0.197643 -4.2414 0
M  V30 4017 O 374.59 0.0981735 -3.56065 0
M  V30 4018 O 373.449 0.401669 -5.45022 0
M  V30 4019 H 370.543 0.096181 -0.821388 0
M  V30 4020 H 373.089 -0.561822 -1.6013 0
M  V30 4021 H 371.861 -0.977321 -3.78899 0
M  V30 4022 H 371.484 0.733579 -3.90774 0
M  V30 4023 N 372.481 1.55866 -0.233164 0
M  V30 4024 C 373.758 1.90471 0.444988 0
M  V30 4025 C 374.138 1.15209 1.7689 0
M  V30 4026 O 373.486 0.265119 2.26957 0
M  V30 4027 C 373.696 3.4333 0.626559 0
M  V30 4028 C 375.044 4.14319 0.92871 0
M  V30 4029 O 376.068 3.48993 0.712926 0
M  V30 4030 O 374.927 5.29846 1.33887 0
M  V30 4031 H 372.021 0.792347 0.236885 0
M  V30 4032 H 374.567 1.67437 -0.276211 0
M  V30 4033 H 373.339 3.90095 -0.306822 0
M  V30 4034 H 372.962 3.72181 1.39881 0
M  V30 4035 N 373.959 -0.0401083 1.57549 0
M  V30 4036 C 374.907 -1.06264 2.06908 0
M  V30 4037 C 375.901 -1.38132 0.980608 0
M  V30 4038 O 377.107 -1.37167 1.16556 0
M  V30 4039 H 373.482 -0.360166 0.660139 0
M  V30 4040 H 375.453 -0.620445 2.91878 0
M  V30 4041 C 374.202 -2.35846 2.55483 0
M  V30 4042 H 373.525 -2.12183 3.38849 0
M  V30 4043 H 374.965 -3.05765 2.93741 0
M  V30 4044 C 373.424 -3.0404 1.45126 0
M  V30 4045 O 373.954 -3.93424 0.811216 0
M  V30 4046 N 372.16 -2.65184 1.18852 0
M  V30 4047 H 371.707 -1.92584 1.71083 0
M  V30 4048 H 371.665 -3.1113 0.452244 0
M  V30 4049 N 375.437 -1.54477 -0.31217 0
M  V30 4050 C 376.385 -1.85395 -1.40469 0
M  V30 4051 C 377.379 -0.726749 -1.53019 0
M  V30 4052 O 378.585 -0.910582 -1.55269 0
M  V30 4053 H 374.96 -0.587845 -0.46898 0
M  V30 4054 H 376.931 -2.76736 -1.11623 0
M  V30 4055 C 375.68 -2.10811 -2.76503 0
M  V30 4056 H 375.003 -2.97014 -2.67625 0
M  V30 4057 H 376.443 -2.3639 -3.51988 0
M  V30 4058 C 374.902 -0.903165 -3.24568 0
M  V30 4059 O 375.432 -0.118085 -4.01526 0
M  V30 4060 N 373.638 -0.711634 -2.81752 0
M  V30 4061 H 373.185 -1.35171 -2.19286 0
M  V30 4062 H 373.143 0.0930473 -3.14262 0
M  V30 4063 N 376.915 0.57481 -1.46744 0
M  V30 4064 C 377.825 1.711 -1.60505 0
M  V30 4065 C 378.841 1.67008 -0.488307 0
M  V30 4066 O 380.017 1.86774 -0.753495 0
M  V30 4067 C 377.082 3.07608 -1.59932 0
M  V30 4068 C 376.143 3.22904 -2.82898 0
M  V30 4069 C 375.376 4.529 -2.82343 0
M  V30 4070 O 375.599 5.37278 -1.91542 0
M  V30 4071 O 374.533 4.71611 -3.73987 0
M  V30 4072 H 378.359 1.62436 -2.56609 0
M  V30 4073 H 375.944 0.742779 -1.29627 0
M  V30 4074 H 377.826 3.88877 -1.62336 0
M  V30 4075 H 376.501 3.16692 -0.669898 0
M  V30 4076 H 375.408 2.41099 -2.86046 0
M  V30 4077 H 376.741 3.18715 -3.75076 0
M  V30 4078 N 378.394 1.34581 0.820102 0
M  V30 4079 C 379.643 1.26437 1.57151 0
M  V30 4080 C 379.956 -0.163111 1.94919 0
M  V30 4081 O 381.162 -0.366722 2.69012 0
M  V30 4082 C 379.618 2.21658 2.83541 0
M  V30 4083 C 379.226 3.69679 2.53065 0
M  V30 4084 C 380.97 2.22428 3.61561 0
M  V30 4085 C 378.877 4.56761 3.75664 0
M  V30 4086 H 377.807 0.469707 0.589823 0
M  V30 4087 H 380.458 1.59763 0.902656 0
M  V30 4088 H 378.84 1.81287 3.52067 0
M  V30 4089 H 380.014 4.18605 1.92631 0
M  V30 4090 H 378.329 3.71384 1.88316 0
M  V30 4091 H 380.926 2.8471 4.52597 0
M  V30 4092 H 381.269 1.22434 3.97889 0
M  V30 4093 H 381.802 2.61259 2.99981 0
M  V30 4094 H 378.541 5.57702 3.44454 0
M  V30 4095 H 378.061 4.12568 4.35371 0
M  V30 4096 H 379.74 4.71509 4.43044 0
M  V30 4097 N 379.872 -1.04064 1.18357 0
M  V30 4098 C 380.82 -2.14187 0.907007 0
M  V30 4099 C 381.814 -1.68879 -0.132725 0
M  V30 4100 O 383.02 -1.79993 0.0154248 0
M  V30 4101 H 379.395 -0.699585 0.275835 0
M  V30 4102 H 381.366 -2.34711 1.84264 0
M  V30 4103 C 380.115 -3.44785 0.449254 0
M  V30 4104 H 379.438 -3.80058 1.24081 0
M  V30 4105 H 380.878 -4.22974 0.294737 0
M  V30 4106 C 379.337 -3.26391 -0.834909 0
M  V30 4107 O 379.867 -3.53973 -1.89911 0
M  V30 4108 N 378.073 -2.79726 -0.787523 0
M  V30 4109 H 377.62 -2.5748 0.0787347 0
M  V30 4110 H 377.578 -2.67798 -1.64716 0
M  V30 4111 N 381.35 -0.985608 -1.22978 0
M  V30 4112 C 382.28 -0.549649 -2.26939 0
M  V30 4113 C 383.261 0.419803 -1.64838 0
M  V30 4114 O 384.446 0.31203 -1.91677 0
M  V30 4115 C 381.576 0.143652 -3.47003 0
M  V30 4116 C 380.53 -0.743606 -4.21491 0
M  V30 4117 C 379.856 0.0822027 -5.34637 0
M  V30 4118 C 381.156 -2.03694 -4.80943 0
M  V30 4119 H 382.85 -1.41862 -2.63658 0
M  V30 4120 H 380.396 -0.683571 -1.26741 0
M  V30 4121 H 382.349 0.459985 -4.18882 0
M  V30 4122 H 381.073 1.04711 -3.09359 0
M  V30 4123 H 379.732 -1.04347 -3.51436 0
M  V30 4124 H 379.38 0.986359 -4.93234 0
M  V30 4125 H 379.08 -0.508377 -5.85397 0
M  V30 4126 H 380.604 0.392797 -6.09335 0
M  V30 4127 H 382.018 -1.78504 -5.44802 0
M  V30 4128 H 380.415 -2.57573 -5.42011 0
M  V30 4129 H 381.485 -2.72042 -4.01399 0
M  V30 4130 N 382.828 1.3818 -0.7579 0
M  V30 4131 C 383.776 2.32277 -0.122482 0
M  V30 4132 C 384.77 1.54238 0.700505 0
M  V30 4133 O 385.976 1.69737 0.599119 0
M  V30 4134 H 382.351 0.751712 -0.0208143 0
M  V30 4135 H 384.322 2.83469 -0.932099 0
M  V30 4136 C 383.071 3.39447 0.753076 0
M  V30 4137 H 382.394 3.99591 0.129184 0
M  V30 4138 H 383.834 4.07684 1.16489 0
M  V30 4139 C 382.293 2.78375 1.8976 0
M  V30 4140 O 382.823 2.68025 2.99208 0
M  V30 4141 N 381.029 2.36121 1.69397 0
M  V30 4142 H 380.576 2.4474 0.803762 0
M  V30 4143 H 380.534 1.95602 2.46145 0
M  V30 4144 N 384.306 0.507319 1.49211 0
M  V30 4145 C 385.555 -0.0368315 2.01666 0
M  V30 4146 C 385.868 -1.37459 1.39156 0
M  V30 4147 O 387.074 -2.00579 1.82976 0
M  V30 4148 C 385.53 -0.116089 3.59713 0
M  V30 4149 C 385.138 1.2154 4.31198 0
M  V30 4150 C 386.882 -0.610268 4.2009 0
M  V30 4151 C 384.789 1.09796 5.81119 0
M  V30 4152 H 383.719 -0.0175376 0.753796 0
M  V30 4153 H 386.37 0.647691 1.71689 0
M  V30 4154 H 384.752 -0.8652 3.86433 0
M  V30 4155 H 385.926 1.9783 4.16173 0
M  V30 4156 H 384.241 1.64352 3.82593 0
M  V30 4157 H 386.838 -0.715742 5.29888 0
M  V30 4158 H 387.181 -1.61064 3.8388 0
M  V30 4159 H 387.714 0.0824916 3.97714 0
M  V30 4160 H 384.453 2.0728 6.21864 0
M  V30 4161 H 383.973 0.376058 5.9862 0
M  V30 4162 H 385.652 0.779281 6.4229 0
M  V30 4163 N 385.784 -1.5574 0.241426 0
M  V30 4164 C 386.731 -2.21149 -0.660432 0
M  V30 4165 C 387.701 -1.17356 -1.17545 0
M  V30 4166 O 388.886 -1.45784 -1.23093 0
M  V30 4167 C 386.026 -2.91059 -1.85414 0
M  V30 4168 C 385.139 -4.09495 -1.37616 0
M  V30 4169 C 384.274 -4.67135 -2.529 0
M  V30 4170 C 383.313 -5.77831 -2.01936 0
M  V30 4171 N 382.45 -6.29677 -3.10566 0
M  V30 4172 H 387.29 -2.97845 -0.095955 0
M  V30 4173 H 384.827 -1.47057 -0.0356024 0
M  V30 4174 H 386.785 -3.29788 -2.5553 0
M  V30 4175 H 385.415 -2.16846 -2.39118 0
M  V30 4176 H 384.467 -3.76117 -0.569235 0
M  V30 4177 H 385.779 -4.89423 -0.962618 0
M  V30 4178 H 384.933 -5.08409 -3.31067 0
M  V30 4179 H 383.672 -3.86411 -2.97553 0
M  V30 4180 H 382.677 -5.36039 -1.22238 0
M  V30 4181 H 383.902 -6.60402 -1.58259 0
M  V30 4182 H 381.848 -5.5186 -3.54664 0
M  V30 4183 H 381.765 -7.04783 -2.73526 0
M  V30 4184 H 383.033 -6.75609 -3.88809 0
M  V30 4185 N 387.262 0.0317525 -1.57568 0
M  V30 4186 C 388.508 0.724175 -1.8943 0
M  V30 4187 C 388.841 1.75149 -0.838836 0
M  V30 4188 O 388.116 1.93948 0.146422 0
M  V30 4189 C 388.399 1.39615 -3.31933 0
M  V30 4190 C 388.252 0.382537 -4.4817 0
M  V30 4191 C 389.571 2.33084 -3.73309 0
M  V30 4192 H 386.69 0.261797 -0.688935 0
M  V30 4193 H 389.332 -0.013017 -1.89996 0
M  V30 4194 H 387.482 2.02451 -3.31581 0
M  V30 4195 H 389.154 -0.243689 -4.60656 0
M  V30 4196 H 387.397 -0.29844 -4.32772 0
M  V30 4197 H 388.068 0.891145 -5.44759 0
M  V30 4198 H 390.544 1.80295 -3.7501 0
M  V30 4199 H 389.42 2.77084 -4.73831 0
M  V30 4200 H 389.681 3.19643 -3.05419 0
M  V30 4201 N 388.74 1.54641 0.303973 0
M  V30 4202 C 389.968 1.77768 1.05858 0
M  V30 4203 C 390.383 0.535722 1.8104 0
M  V30 4204 O 389.74 -0.494337 1.75677 0
M  V30 4205 C 389.791 2.9834 2.04146 0
M  V30 4206 O 389.512 4.17736 1.32015 0
M  V30 4207 C 391.013 3.33832 2.91669 0
M  V30 4208 H 388.233 0.592961 0.314067 0
M  V30 4209 H 390.777 2.01583 0.344149 0
M  V30 4210 H 388.932 2.76742 2.71096 0
M  V30 4211 H 389.346 4.85693 1.97998 0
M  V30 4212 H 390.82 4.21448 3.56491 0
M  V30 4213 H 391.297 2.51857 3.59812 0
M  V30 4214 H 391.903 3.57579 2.30254 0
M  V30 4215 N 390.218 -0.567019 1.47046 0
M  V30 4216 C 391.495 -1.3276 1.43646 0
M  V30 4217 C 391.875 -2.1071 0.128186 0
M  V30 4218 O 391.223 -2.10441 -0.890326 0
M  V30 4219 C 391.433 -2.2404 2.67595 0
M  V30 4220 C 392.781 -2.85372 3.14401 0
M  V30 4221 O 393.805 -2.34346 2.68254 0
M  V30 4222 O 392.664 -3.78091 3.946 0
M  V30 4223 H 389.758 -0.597293 0.571988 0
M  V30 4224 H 392.304 -0.586735 1.59234 0
M  V30 4225 H 391.076 -1.65975 3.54356 0
M  V30 4226 H 390.699 -3.05439 2.54544 0
M  V30 4227 N 391.696 -1.35014 -0.812953 0
M  V30 4228 C 392.943 -1.27931 -1.56971 0
M  V30 4229 C 393.271 0.148034 -1.93936 0
M  V30 4230 O 392.526 1.11175 -1.61054 0
M  V30 4231 C 392.825 -2.12524 -2.87347 0
M  V30 4232 C 392.491 -3.61401 -2.6963 0
M  V30 4233 C 391.153 -4.01983 -2.64506 0
M  V30 4234 C 393.505 -4.55894 -2.52607 0
M  V30 4235 C 390.833 -5.35235 -2.40293 0
M  V30 4236 C 393.185 -5.89336 -2.29925 0
M  V30 4237 C 391.849 -6.2907 -2.23219 0
M  V30 4238 H 391.119 -0.468131 -0.574399 0
M  V30 4239 H 393.766 -1.66851 -0.939836 0
M  V30 4240 H 392.071 -1.66463 -3.54679 0
M  V30 4241 H 393.768 -2.04383 -3.45005 0
M  V30 4242 H 390.358 -3.29193 -2.74463 0
M  V30 4243 H 394.542 -4.25431 -2.55583 0
M  V30 4244 H 389.798 -5.65028 -2.33566 0
M  V30 4245 H 393.972 -6.62139 -2.15743 0
M  V30 4246 H 391.599 -7.32256 -2.04219 0
M  V30 4247 N 393.175 1.03435 -1.18907 0
M  V30 4248 C 394.423 1.76394 -0.986382 0
M  V30 4249 C 394.744 1.88883 0.484567 0
M  V30 4250 O 394.014 1.41843 1.3512 0
M  V30 4251 H 392.594 0.65344 -0.361975 0
M  V30 4252 H 395.256 1.248 -1.49703 0
M  V30 4253 H 394.352 2.77424 -1.42978 0
M  V30 4254 N 394.653 0.992116 1.22453 0
M  V30 4255 C 395.583 0.561677 2.26644 0
M  V30 4256 C 396.564 -0.411055 1.65059 0
M  V30 4257 O 397.749 -0.301861 1.9184 0
M  V30 4258 C 394.879 -0.125247 3.47074 0
M  V30 4259 C 393.833 0.765948 4.21091 0
M  V30 4260 C 393.159 -0.0538484 5.34673 0
M  V30 4261 C 394.459 2.06242 4.79856 0
M  V30 4262 H 396.153 1.43259 2.62902 0
M  V30 4263 H 393.699 0.690283 1.26377 0
M  V30 4264 H 395.652 -0.437764 4.1912 0
M  V30 4265 H 394.376 -1.03069 3.0991 0
M  V30 4266 H 393.035 1.0621 3.50878 0
M  V30 4267 H 392.683 -0.960188 4.9375 0
M  V30 4268 H 392.383 0.539415 5.85119 0
M  V30 4269 H 393.907 -0.360477 6.09535 0
M  V30 4270 H 395.321 1.8139 5.43848 0
M  V30 4271 H 393.718 2.60444 5.40638 0
M  V30 4272 H 394.788 2.74167 3.99951 0
M  V30 4273 N 396.131 -1.37776 0.765217 0
M  V30 4274 C 397.094 -2.28686 0.153416 0
M  V30 4275 C 398.094 -1.47727 -0.635081 0
M  V30 4276 O 399.284 -1.68027 -0.459632 0
M  V30 4277 C 396.416 -3.31608 -0.790495 0
M  V30 4278 H 397.609 -2.84297 0.954723 0
M  V30 4279 H 395.162 -1.46932 0.53299 0
M  V30 4280 H 395.897 -2.81109 -1.61705 0
M  V30 4281 H 395.682 -3.9144 -0.227348 0
M  V30 4282 H 397.172 -3.99559 -1.21419 0
M  V30 4283 N 397.609 -0.515225 -1.4894 0
M  V30 4284 C 398.855 0.0242508 -2.02785 0
M  V30 4285 C 399.188 1.35323 -1.39289 0
M  V30 4286 O 398.463 1.87041 -0.533469 0
M  V30 4287 C 398.746 0.16184 -3.59736 0
M  V30 4288 C 398.599 -1.19127 -4.33738 0
M  V30 4289 C 399.918 0.895719 -4.30888 0
M  V30 4290 H 397.037 0.00733914 -0.736963 0
M  V30 4291 H 399.679 -0.669395 -1.77818 0
M  V30 4292 H 397.829 0.752624 -3.8114 0
M  V30 4293 H 399.501 -1.82202 -4.23792 0
M  V30 4294 H 397.744 -1.77695 -3.95736 0
M  V30 4295 H 398.415 -1.04815 -5.41957 0
M  V30 4296 H 400.891 0.394528 -4.14225 0
M  V30 4297 H 399.767 0.960859 -5.40425 0
M  V30 4298 H 400.028 1.9427 -3.97129 0
M  V30 4299 N 399.087 1.5561 -0.249682 0
M  V30 4300 C 400.034 2.21496 0.648694 0
M  V30 4301 C 401.004 1.17977 1.16921 0
M  V30 4302 O 402.189 1.46434 1.22318 0
M  V30 4303 C 399.329 2.92039 1.83868 0
M  V30 4304 C 398.442 4.10219 1.35442 0
M  V30 4305 C 397.577 4.6847 2.50419 0
M  V30 4306 C 396.616 5.78893 1.98869 0
M  V30 4307 N 395.753 6.31315 3.07223 0
M  V30 4308 H 400.593 2.97892 0.0801582 0
M  V30 4309 H 398.13 1.47074 0.0278031 0
M  V30 4310 H 400.088 3.31138 2.53778 0
M  V30 4311 H 398.718 2.18111 2.37965 0
M  V30 4312 H 397.77 3.76413 0.54928 0
M  V30 4313 H 399.082 4.89927 0.936649 0
M  V30 4314 H 398.236 5.10158 3.28366 0
M  V30 4315 H 396.975 3.87984 2.95499 0
M  V30 4316 H 395.98 5.3668 1.19393 0
M  V30 4317 H 397.205 6.61232 1.54755 0
M  V30 4318 H 395.151 5.53733 3.51732 0
M  V30 4319 H 395.068 7.06224 2.69784 0
M  V30 4320 H 396.336 6.77662 3.8522 0
M  V30 4321 N 400.565 -0.0233959 1.57583 0
M  V30 4322 C 401.512 -1.02224 2.06927 0
M  V30 4323 C 402.482 -1.35575 0.959617 0
M  V30 4324 O 403.667 -1.45815 1.23055 0
M  V30 4325 C 400.807 -2.31636 2.5581 0
M  V30 4326 C 399.92 -2.04394 3.80588 0
M  V30 4327 C 399.055 -3.27717 4.18061 0
M  V30 4328 C 398.094 -2.96056 5.3574 0
M  V30 4329 N 397.231 -4.11847 5.68618 0
M  V30 4330 H 402.071 -0.594504 2.9201 0
M  V30 4331 H 399.608 -0.281921 1.44373 0
M  V30 4332 H 401.566 -3.07258 2.82221 0
M  V30 4333 H 400.196 -2.72122 1.73636 0
M  V30 4334 H 399.248 -1.19244 3.61227 0
M  V30 4335 H 400.56 -1.77042 4.66323 0
M  V30 4336 H 399.714 -4.11702 4.4563 0
M  V30 4337 H 398.453 -3.58188 3.30988 0
M  V30 4338 H 397.458 -2.10474 5.07918 0
M  V30 4339 H 398.683 -2.66857 6.24471 0
M  V30 4340 H 396.629 -4.42258 4.84504 0
M  V30 4341 H 396.546 -3.87938 6.48876 0
M  V30 4342 H 397.814 -4.96689 6.00766 0
M  V30 4343 N 402.043 -1.548 -0.295768 0
M  V30 4344 C 402.975 -1.82492 -1.3867 0
M  V30 4345 C 403.988 -0.708134 -1.46592 0
M  V30 4346 O 405.177 -0.985686 -1.48817 0
M  V30 4347 C 402.277 -1.95256 -2.76999 0
M  V30 4348 C 401.45 -3.25709 -2.91946 0
M  V30 4349 C 400.509 -3.28824 -4.10806 0
M  V30 4350 O 399.535 -4.02328 -4.02643 0
M  V30 4351 N 400.737 -2.5459 -5.21694 0
M  V30 4352 H 403.502 -2.76646 -1.15269 0
M  V30 4353 H 401.063 -1.54438 -0.485849 0
M  V30 4354 H 403.055 -1.94736 -3.54768 0
M  V30 4355 H 401.625 -1.08072 -2.93324 0
M  V30 4356 H 400.845 -3.38959 -2.01247 0
M  V30 4357 H 402.133 -4.11786 -2.98847 0
M  V30 4358 H 401.531 -1.94512 -5.31208 0
M  V30 4359 H 400.088 -2.59818 -5.97778 0
M  V30 4360 N 403.521 0.559213 -1.47345 0
M  V30 4361 C 404.746 1.34676 -1.57725 0
M  V30 4362 C 405.171 1.86723 -0.227164 0
M  V30 4363 O 404.529 1.6286 0.796642 0
M  V30 4364 C 404.577 2.49399 -2.60447 0
M  V30 4365 O 403.681 3.51567 -2.15578 0
M  V30 4366 H 403.022 0.400115 -0.52991 0
M  V30 4367 H 405.552 0.676009 -1.93109 0
M  V30 4368 H 405.562 2.95996 -2.80803 0
M  V30 4369 H 404.237 2.10873 -3.58477 0
M  V30 4370 H 402.814 3.11289 -2.05313 0
M  V30 4371 N 404.999 1.35443 0.805782 0
M  V30 4372 C 406.415 1.15499 1.10146 0
M  V30 4373 C 406.615 -0.0319975 2.01475 0
M  V30 4374 O 405.671 -0.70236 2.42535 0
M  V30 4375 C 406.984 2.45833 1.73166 0
M  V30 4376 C 408.532 2.52047 1.85583 0
M  V30 4377 C 409.007 3.82427 2.52019 0
M  V30 4378 N 410.498 3.83682 2.59504 0
M  V30 4379 C 411.233 4.81294 3.11679 0
M  V30 4380 N 410.729 5.89294 3.64287 0
M  V30 4381 N 412.522 4.6873 3.1024 0
M  V30 4382 H 404.673 2.11469 0.198678 0
M  V30 4383 H 406.936 0.93594 0.150731 0
M  V30 4384 H 406.642 3.32874 1.13526 0
M  V30 4385 H 406.516 2.6044 2.72857 0
M  V30 4386 H 408.903 1.65435 2.44367 0
M  V30 4387 H 408.984 2.41354 0.847455 0
M  V30 4388 H 408.628 4.69437 1.93885 0
M  V30 4389 H 408.558 3.90409 3.53395 0
M  V30 4390 H 411.049 3.05648 2.22234 0
M  V30 4391 H 411.362 6.59768 4.02401 0
M  V30 4392 H 409.707 5.92985 3.62483 0
M  V30 4393 H 412.898 3.83496 2.68419 0
M  V30 4394 H 413.071 5.44965 3.50596 0
M  V30 4395 N 406.477 -1.02803 1.19454 0
M  V30 4396 C 407.702 -1.80378 1.02364 0
M  V30 4397 C 408.127 -1.83282 -0.423007 0
M  V30 4398 O 407.485 -1.25945 -1.30413 0
M  V30 4399 C 407.533 -3.23248 1.59821 0
M  V30 4400 O 406.637 -4.04 0.828105 0
M  V30 4401 H 405.978 -0.556799 0.361761 0
M  V30 4402 H 408.508 -1.29385 1.58495 0
M  V30 4403 H 408.518 -3.73994 1.63073 0
M  V30 4404 H 407.193 -3.2045 2.65113 0
M  V30 4405 H 405.77 -3.62635 0.86891 0
M  V30 4406 N 407.956 -0.998596 -1.21925 0
M  V30 4407 C 408.866 -0.562736 -2.27751 0
M  V30 4408 C 409.882 0.391203 -1.69545 0
M  V30 4409 O 411.058 0.256625 -1.99758 0
M  V30 4410 C 408.123 0.11012 -3.46525 0
M  V30 4411 C 407.184 -0.887495 -4.20026 0
M  V30 4412 C 406.417 -0.246654 -5.3313 0
M  V30 4413 O 406.64 0.958088 -5.62296 0
M  V30 4414 O 405.574 -0.954374 -5.94286 0
M  V30 4415 H 409.4 -1.44329 -2.67213 0
M  V30 4416 H 406.985 -0.767135 -1.28201 0
M  V30 4417 H 408.867 0.486756 -4.18579 0
M  V30 4418 H 407.542 0.965154 -3.08976 0
M  V30 4419 H 406.449 -1.31517 -3.5022 0
M  V30 4420 H 407.782 -1.71191 -4.6147 0
M  V30 4421 N 409.434 1.37368 -0.772513 0
M  V30 4422 C 410.397 2.28601 -0.165541 0
M  V30 4423 C 411.397 1.48062 0.627238 0
M  V30 4424 O 412.587 1.68268 0.450715 0
M  V30 4425 C 409.719 3.32023 0.772897 0
M  V30 4426 H 410.912 2.83787 -0.969787 0
M  V30 4427 H 408.465 1.46647 -0.540775 0
M  V30 4428 H 409.2 2.81962 1.60212 0
M  V30 4429 H 408.985 3.91555 0.206585 0
M  V30 4430 H 410.475 4.00197 1.19298 0
M  V30 4431 N 410.912 0.523116 1.48665 0
M  V30 4432 C 411.845 -0.290518 2.26343 0
M  V30 4433 C 412.823 -0.950913 1.31895 0
M  V30 4434 O 414.007 -0.976662 1.61225 0
M  V30 4435 C 411.134 -1.41088 3.07915 0
M  V30 4436 C 410.18 -0.862597 4.17686 0
M  V30 4437 S 411.013 0.264135 5.34848 0
M  V30 4438 C 412.169 -0.858864 6.19979 0
M  V30 4439 H 412.402 0.368726 2.95005 0
M  V30 4440 H 409.935 0.30878 1.51281 0
M  V30 4441 H 411.893 -2.0527 3.55492 0
M  V30 4442 H 410.554 -2.04182 2.38681 0
M  V30 4443 H 409.747 -1.70287 4.74361 0
M  V30 4444 H 409.349 -0.297595 3.72814 0
M  V30 4445 H 411.641 -1.7591 6.54264 0
M  V30 4446 H 412.584 -0.330244 7.07329 0
M  V30 4447 H 412.992 -1.13617 5.52948 0
M  V30 4448 N 412.39 -1.55475 0.257931 0
M  V30 4449 C 413.32 -2.24815 -0.630912 0
M  V30 4450 C 414.301 -1.23224 -1.17259 0
M  V30 4451 O 415.486 -1.51904 -1.20991 0
M  V30 4452 C 412.616 -2.95609 -1.82298 0
M  V30 4453 C 411.57 -4.03982 -1.41359 0
M  V30 4454 C 410.896 -4.6226 -2.68738 0
M  V30 4455 C 412.196 -5.19109 -0.57648 0
M  V30 4456 H 413.89 -2.99354 -0.0526878 0
M  V30 4457 H 411.436 -1.4398 -0.023901 0
M  V30 4458 H 413.389 -3.42822 -2.45054 0
M  V30 4459 H 412.113 -2.18577 -2.42676 0
M  V30 4460 H 410.772 -3.57555 -0.809324 0
M  V30 4461 H 410.42 -3.81915 -3.27338 0
M  V30 4462 H 410.12 -5.35424 -2.42065 0
M  V30 4463 H 411.644 -5.12212 -3.32372 0
M  V30 4464 H 413.058 -5.62479 -1.10861 0
M  V30 4465 H 411.455 -5.98729 -0.405351 0
M  V30 4466 H 412.525 -4.83174 0.408776 0
M  V30 4467 N 413.868 0.0150385 -1.57593 0
M  V30 4468 C 414.8 1.03912 -2.04291 0
M  V30 4469 C 415.813 1.31618 -0.958146 0
M  V30 4470 O 417.002 1.28859 -1.23522 0
M  V30 4471 C 414.102 2.37749 -2.41514 0
M  V30 4472 C 413.275 2.29198 -3.72541 0
M  V30 4473 C 412.334 3.45598 -3.96797 0
M  V30 4474 O 411.36 3.24461 -4.67668 0
M  V30 4475 N 412.562 4.67945 -3.43523 0
M  V30 4476 H 415.327 0.64099 -2.92765 0
M  V30 4477 H 412.888 0.20272 -1.60626 0
M  V30 4478 H 414.88 3.14364 -2.54867 0
M  V30 4479 H 413.45 2.69357 -1.58637 0
M  V30 4480 H 412.67 1.3759 -3.69408 0
M  V30 4481 H 413.958 2.20642 -4.5847 0
M  V30 4482 H 413.356 4.88017 -2.86104 0
M  V30 4483 H 411.913 5.41878 -3.62232 0
M  V30 4484 N 415.346 1.54954 0.287554 0
M  V30 4485 C 416.309 1.86076 1.33823 0
M  V30 4486 C 417.309 0.734414 1.43049 0
M  V30 4487 O 418.499 1.00266 1.42452 0
M  V30 4488 C 415.631 2.05305 2.72144 0
M  V30 4489 H 416.824 2.79984 1.07465 0
M  V30 4490 H 414.377 1.47223 0.524902 0
M  V30 4491 H 415.112 1.1373 3.03704 0
M  V30 4492 H 414.897 2.873 2.66836 0
M  V30 4493 H 416.387 2.30706 3.48087 0
M  V30 4494 N 416.824 -0.551391 1.4764 0
M  V30 4495 C 418.052 -1.33357 1.58189 0
M  V30 4496 C 418.467 -1.87342 0.234199 0
M  V30 4497 O 417.824 -1.65301 -0.77343 0
M  V30 4498 C 417.875 -2.49942 2.61173 0
M  V30 4499 O 417.596 -1.98187 3.90709 0
M  V30 4500 C 419.097 -3.42072 2.8196 0
M  V30 4501 H 416.317 -0.40631 0.533998 0
M  V30 4502 H 418.861 -0.667367 1.93304 0
M  V30 4503 H 417.016 -3.12489 2.28975 0
M  V30 4504 H 417.43 -2.74342 4.47031 0
M  V30 4505 H 418.904 -4.20278 3.57869 0
M  V30 4506 H 419.381 -3.95978 1.89995 0
M  V30 4507 H 419.987 -2.85336 3.15378 0
M  V30 4508 N 418.302 -1.35869 -0.798587 0
M  V30 4509 C 419.542 -1.30961 -1.56935 0
M  V30 4510 C 419.906 0.112404 -1.91671 0
M  V30 4511 O 421.107 0.285937 -2.67275 0
M  V30 4512 C 419.378 -2.19811 -2.81811 0
M  V30 4513 S 420.937 -2.32498 -3.72143 0
M  V30 4514 H 417.755 -0.465297 -0.537606 0
M  V30 4515 H 420.357 -1.71344 -0.941346 0
M  V30 4516 H 419.061 -3.22095 -2.54329 0
M  V30 4517 H 418.592 -1.80415 -3.49591 0
M  V30 4518 H 420.607 -1.5157 -4.72484 0
M  V30 4519 N 419.78 1.02168 -1.19998 0
M  V30 4520 C 421.028 1.75338 -1.00504 0
M  V30 4521 C 421.349 1.89387 0.464506 0
M  V30 4522 O 420.619 1.43268 1.33608 0
M  V30 4523 H 419.199 0.649564 -0.368885 0
M  V30 4524 H 421.861 1.23205 -1.51018 0
M  V30 4525 H 420.957 2.75892 -1.45912 0
M  V30 4526 N 421.258 1.00505 1.21394 0
M  V30 4527 C 422.486 0.706609 1.9446 0
M  V30 4528 C 422.901 -0.73081 1.74082 0
M  V30 4529 O 422.258 -1.49446 1.04747 0
M  V30 4530 C 422.309 1.01824 3.46863 0
M  V30 4531 O 422.03 2.39919 3.66566 0
M  V30 4532 C 423.531 0.739216 4.37093 0
M  V30 4533 H 420.751 0.260394 0.618414 0
M  V30 4534 H 423.295 1.34311 1.54211 0
M  V30 4535 H 421.45 0.427343 3.85036 0
M  V30 4536 H 421.864 2.50784 4.6066 0
M  V30 4537 H 423.338 1.00744 5.42729 0
M  V30 4538 H 423.815 -0.326746 4.37983 0
M  V30 4539 H 424.421 1.31173 4.04566 0
M  V30 4540 N 422.737 -1.36956 0.779787 0
M  V30 4541 C 424.148 -1.82094 0.412156 0
M  V30 4542 C 424.499 -1.64926 -1.06273 0
M  V30 4543 O 423.624 -1.16483 -1.82375 0
M  V30 4544 C 424.219 -3.3059 0.741319 0
M  V30 4545 C 422.778 -3.73974 0.426641 0
M  V30 4546 C 421.925 -2.59368 0.980987 0
M  V30 4547 H 424.876 -1.25314 0.973758 0
M  V30 4548 H 424.897 -3.80489 0.028887 0
M  V30 4549 H 424.409 -3.43054 1.81482 0
M  V30 4550 H 422.51 -3.67076 -0.639215 0
M  V30 4551 H 422.623 -4.69778 0.940515 0
M  V30 4552 H 420.987 -2.51463 0.404757 0
M  V30 4553 H 421.77 -2.74621 2.06005 0
M  V30 4554 N 424.215 -0.530993 -1.48385 0
M  V30 4555 C 425.464 0.00474348 -2.01699 0
M  V30 4556 C 425.777 1.35227 -1.41325 0
M  V30 4557 O 426.983 1.97643 -1.86144 0
M  V30 4558 C 425.439 0.0588473 -3.59852 0
M  V30 4559 C 425.047 -1.28385 -4.2921 0
M  V30 4560 C 426.791 0.543358 -4.21008 0
M  V30 4561 C 424.698 -1.19028 -5.79298 0
M  V30 4562 H 423.628 0.00554317 -0.75398 0
M  V30 4563 H 426.279 -0.674924 -1.70637 0
M  V30 4564 H 424.661 0.803612 -3.8776 0
M  V30 4565 H 425.835 -2.04426 -4.12973 0
M  V30 4566 H 424.15 -1.70418 -3.7993 0
M  V30 4567 H 426.747 0.631351 -5.3096 0
M  V30 4568 H 427.09 1.54937 -3.86394 0
M  V30 4569 H 427.623 -0.145754 -3.97533 0
M  V30 4570 H 424.362 -2.17147 -6.18488 0
M  V30 4571 H 423.882 -0.471246 -5.97946 0
M  V30 4572 H 425.561 -0.881365 -6.40969 0
M  V30 4573 N 425.693 1.55336 -0.266172 0
M  V30 4574 C 426.923 2.03506 0.356239 0
M  V30 4575 C 427.331 1.14426 1.50676 0
M  V30 4576 O 426.674 0.155043 1.83045 0
M  V30 4577 C 426.736 3.47848 0.90785 0
M  V30 4578 C 426.4 4.56861 -0.112888 0
M  V30 4579 C 427.397 5.11528 -0.929264 0
M  V30 4580 C 425.082 5.01704 -0.244546 0
M  V30 4581 C 427.076 6.09549 -1.86357 0
M  V30 4582 C 424.763 5.99553 -1.18234 0
M  V30 4583 C 425.761 6.53356 -1.99036 0
M  V30 4584 O 425.449 7.49293 -2.91231 0
M  V30 4585 H 425.181 0.670444 0.08649 0
M  V30 4586 H 427.735 2.01598 -0.39337 0
M  V30 4587 H 425.965 3.46967 1.70737 0
M  V30 4588 H 427.654 3.79407 1.44239 0
M  V30 4589 H 428.42 4.77701 -0.838237 0
M  V30 4590 H 424.299 4.59477 0.374359 0
M  V30 4591 H 427.843 6.51469 -2.49467 0
M  V30 4592 H 423.74 6.32799 -1.27421 0
M  V30 4593 H 424.508 7.66978 -2.8581 0
M  V30 4594 N 427.171 -0.0066808 1.57599 0
M  V30 4595 C 428.104 -1.03397 2.03431 0
M  V30 4596 C 429.082 -1.33872 0.922877 0
M  V30 4597 O 430.266 -1.4615 1.19048 0
M  V30 4598 C 427.393 -2.36325 2.42628 0
M  V30 4599 C 426.439 -2.21557 3.64438 0
M  V30 4600 S 427.272 -1.54789 5.12641 0
M  V30 4601 C 428.428 -2.8916 5.55101 0
M  V30 4602 H 428.661 -0.643687 2.90248 0
M  V30 4603 H 426.194 -0.217349 1.52863 0
M  V30 4604 H 428.152 -3.12759 2.65879 0
M  V30 4605 H 426.813 -2.72495 1.56222 0
M  V30 4606 H 426.006 -3.1974 3.89592 0
M  V30 4607 H 425.608 -1.53267 3.41153 0
M  V30 4608 H 427.9 -3.8547 5.57153 0
M  V30 4609 H 428.843 -2.68713 6.55133 0
M  V30 4610 H 429.251 -2.92762 4.82649 0
M  V30 4611 N 428.649 -1.55105 -0.279332 0
M  V30 4612 C 429.612 -1.86783 -1.32834 0
M  V30 4613 C 430.612 -0.74199 -1.42657 0
M  V30 4614 O 431.802 -1.0102 -1.41918 0
M  V30 4615 C 428.934 -2.06746 -2.71052 0
M  V30 4616 H 430.127 -2.8055 -1.05979 0
M  V30 4617 H 427.68 -1.47499 -0.517087 0
M  V30 4618 H 428.415 -1.15339 -3.03097 0
M  V30 4619 H 428.2 -2.88711 -2.65309 0
M  V30 4620 H 429.69 -2.32549 -3.46858 0
M  V30 4621 N 430.127 0.543554 -1.4793 0
M  V30 4622 C 431.538 1.12561 -1.48953 0
M  V30 4623 C 431.889 1.94578 -0.251754 0
M  V30 4624 O 431.014 2.0665 0.642255 0
M  V30 4625 C 431.609 2.04801 -2.69892 0
M  V30 4626 C 430.168 2.58251 -2.73831 0
M  V30 4627 C 429.315 1.34918 -2.42265 0
M  V30 4628 H 432.266 0.32947 -1.55242 0
M  V30 4629 H 432.287 2.88886 -2.47639 0
M  V30 4630 H 431.799 1.4508 -3.59963 0
M  V30 4631 H 429.9 3.21732 -1.87934 0
M  V30 4632 H 430.013 2.98312 -3.74895 0
M  V30 4633 H 428.377 1.66046 -1.93134 0
M  V30 4634 H 429.16 0.769693 -3.3456 0
M  V30 4635 N 431.605 1.3629 0.791371 0
M  V30 4636 C 432.515 1.32606 1.93527 0
M  V30 4637 C 433.531 0.228541 1.72493 0
M  V30 4638 O 434.707 0.460571 1.96063 0
M  V30 4639 C 431.772 1.11271 3.28359 0
M  V30 4640 C 430.833 2.3048 3.62185 0
M  V30 4641 C 430.066 2.10154 4.90583 0
M  V30 4642 O 430.289 1.07572 5.60165 0
M  V30 4643 O 429.223 2.97884 5.23019 0
M  V30 4644 H 433.049 2.28909 1.99585 0
M  V30 4645 H 430.634 1.16818 0.931344 0
M  V30 4646 H 432.516 1.01283 4.09047 0
M  V30 4647 H 431.191 0.180292 3.23198 0
M  V30 4648 H 430.098 2.46036 2.81811 0
M  V30 4649 H 431.431 3.22221 3.72068 0
M  V30 4650 N 433.083 -1.0153 1.20538 0
M  V30 4651 C 434.329 -1.75408 1.01783 0
M  V30 4652 C 434.662 -1.88943 -0.448814 0
M  V30 4653 O 433.937 -1.4162 -1.33319 0
M  V30 4654 C 434.22 -3.17255 1.70356 0
M  V30 4655 C 434.073 -3.11508 3.24473 0
M  V30 4656 C 435.392 -4.15955 1.43769 0
M  V30 4657 H 432.511 -0.636713 0.371167 0
M  V30 4658 H 435.153 -1.18436 1.4857 0
M  V30 4659 H 433.303 -3.65898 1.30578 0
M  V30 4660 H 434.975 -2.70658 3.73553 0
M  V30 4661 H 433.218 -2.4887 3.55311 0
M  V30 4662 H 433.889 -4.11784 3.67611 0
M  V30 4663 H 436.365 -3.75973 1.7828 0
M  V30 4664 H 435.241 -5.13368 1.94279 0
M  V30 4665 H 435.502 -4.40586 0.365564 0
M  V30 4666 N 434.561 -1.01147 -1.20859 0
M  V30 4667 C 435.81 -0.693214 -1.89413 0
M  V30 4668 C 436.123 0.779969 -1.79376 0
M  V30 4669 O 437.329 1.21057 -2.43017 0
M  V30 4670 C 435.785 -1.18949 -3.39675 0
M  V30 4671 C 435.393 -2.68921 -3.58309 0
M  V30 4672 C 437.137 -0.94642 -4.13815 0
M  V30 4673 C 435.044 -3.12056 -5.0237 0
M  V30 4674 H 433.974 -0.255595 -0.709357 0
M  V30 4675 H 436.625 -1.22349 -1.36759 0
M  V30 4676 H 435.007 -0.587228 -3.91622 0
M  V30 4677 H 436.181 -3.34652 -3.16772 0
M  V30 4678 H 434.496 -2.91314 -2.97532 0
M  V30 4679 H 437.093 -1.24417 -5.20023 0
M  V30 4680 H 437.436 0.117219 -4.16135 0
M  V30 4681 H 437.969 -1.5118 -3.67953 0
M  V30 4682 H 434.708 -4.17674 -5.05202 0
M  V30 4683 H 434.228 -2.51041 -5.44737 0
M  V30 4684 H 435.907 -3.04403 -5.70918 0
M  V30 4685 N 436.039 1.36541 -0.78704 0
M  V30 4686 C 437.264 2.0409 -0.369053 0
M  V30 4687 C 437.689 1.58957 1.00569 0
M  V30 4688 O 437.047 0.756926 1.64743 0
M  V30 4689 C 437.095 3.57924 -0.438466 0
M  V30 4690 O 436.199 4.08642 0.555479 0
M  V30 4691 H 435.54 0.645142 -0.157122 0
M  V30 4692 H 438.07 1.74545 -1.06749 0
M  V30 4693 H 438.08 4.06887 -0.301218 0
M  V30 4694 H 436.755 3.90127 -1.44132 0
M  V30 4695 H 435.332 3.70958 0.380088 0
M  V30 4696 N 437.518 0.538854 1.48102 0
M  V30 4697 C 438.481 -0.208395 2.28251 0
M  V30 4698 C 439.481 -0.859656 1.35892 0
M  V30 4699 O 440.671 -0.71834 1.58699 0
M  V30 4700 C 437.803 -1.30252 3.15035 0
M  V30 4701 H 438.996 0.495407 2.9578 0
M  V30 4702 H 436.549 0.295112 1.53489 0
M  V30 4703 H 437.284 -2.0393 2.52157 0
M  V30 4704 H 437.069 -0.840551 3.82985 0
M  V30 4705 H 438.559 -1.82787 3.75471 0
M  V30 4706 N 438.996 -1.55193 0.274407 0
M  V30 4707 C 439.946 -2.19184 -0.627882 0
M  V30 4708 C 440.93 -1.15625 -1.11892 0
M  V30 4709 O 442.122 -1.41441 -1.06411 0
M  V30 4710 C 439.251 -2.91591 -1.81189 0
M  V30 4711 C 438.337 -4.02438 -1.33807 0
M  V30 4712 N 438.728 -5.0246 -0.580349 0
M  V30 4713 C 437.026 -4.15496 -1.62109 0
M  V30 4714 C 437.727 -5.80756 -0.331344 0
M  V30 4715 N 436.703 -5.36038 -0.903556 0
M  V30 4716 H 440.505 -2.93871 -0.0411216 0
M  V30 4717 H 438.019 -1.62213 0.0779348 0
M  V30 4718 H 440.016 -3.35883 -2.46957 0
M  V30 4719 H 438.676 -2.18414 -2.40261 0
M  V30 4720 H 439.687 -5.17399 -0.227762 0
M  V30 4721 H 436.364 -3.53509 -2.22121 0
M  V30 4722 H 437.754 -6.71335 0.275454 0
M  V30 4723 N 440.474 -0.00167713 -1.576 0
M  V30 4724 C 441.751 0.719951 -1.81868 0
M  V30 4725 C 442.131 1.91895 -0.879747 0
M  V30 4726 O 441.479 2.28389 0.0711423 0
M  V30 4727 C 441.689 1.12409 -3.30402 0
M  V30 4728 C 443.037 1.52724 -3.96182 0
M  V30 4729 O 444.061 1.21784 -3.34734 0
M  V30 4730 O 442.92 2.10265 -5.04431 0
M  V30 4731 H 440.014 0.350707 -0.748955 0
M  V30 4732 H 442.56 -0.0272597 -1.69678 0
M  V30 4733 H 441.332 0.269532 -3.90371 0
M  V30 4734 H 440.955 1.93035 -3.47596 0
M  V30 4735 N 441.952 1.55251 0.271103 0
M  V30 4736 C 443.182 1.79713 1.01916 0
M  V30 4737 C 443.59 0.571613 1.80359 0
M  V30 4738 O 442.933 -0.468853 1.77616 0
M  V30 4739 C 442.995 2.97138 2.02359 0
M  V30 4740 C 442.659 4.34104 1.42837 0
M  V30 4741 C 443.656 5.13019 0.843071 0
M  V30 4742 C 441.341 4.80765 1.455 0
M  V30 4743 C 443.335 6.36729 0.292333 0
M  V30 4744 C 441.022 6.0443 0.900402 0
M  V30 4745 C 442.02 6.8225 0.32007 0
M  V30 4746 O 441.708 8.03582 -0.226031 0
M  V30 4747 H 441.44 0.602431 0.306681 0
M  V30 4748 H 443.994 2.03097 0.306701 0
M  V30 4749 H 442.224 2.6945 2.77369 0
M  V30 4750 H 443.913 3.08907 2.63309 0
M  V30 4751 H 444.679 4.781 0.815178 0
M  V30 4752 H 440.558 4.20202 1.89609 0
M  V30 4753 H 444.102 6.97414 -0.161274 0
M  V30 4754 H 439.999 6.3883 0.925541 0
M  V30 4755 H 440.767 8.18418 -0.115572 0
M  V30 4756 N 443.43 -0.535701 1.48216 0
M  V30 4757 C 444.655 -1.32149 1.59848 0
M  V30 4758 C 445.08 -1.86338 0.256842 0
M  V30 4759 O 444.438 -1.64107 -0.770632 0
M  V30 4760 C 444.486 -2.45224 2.64381 0
M  V30 4761 O 443.59 -3.48093 2.21144 0
M  V30 4762 H 442.931 -0.391634 0.536208 0
M  V30 4763 H 445.461 -0.645202 1.94161 0
M  V30 4764 H 445.471 -2.91491 2.85476 0
M  V30 4765 H 444.146 -2.05143 3.61786 0
M  V30 4766 H 442.723 -3.07984 2.10239 0
M  V30 4767 N 444.908 -1.36708 -0.784132 0
M  V30 4768 C 445.84 -1.27333 -1.90575 0
M  V30 4769 C 446.853 -0.191706 -1.61667 0
M  V30 4770 O 448.042 -0.446854 -1.72816 0
M  V30 4771 C 445.142 -0.943177 -3.25511 0
M  V30 4772 C 444.315 -2.12776 -3.82158 0
M  V30 4773 C 443.374 -1.76983 -4.95544 0
M  V30 4774 O 442.4 -2.49134 -5.11782 0
M  V30 4775 N 443.602 -0.706624 -5.76183 0
M  V30 4776 H 446.367 -2.23974 -1.99138 0
M  V30 4777 H 443.928 -1.30171 -0.962656 0
M  V30 4778 H 445.92 -0.684799 -3.98864 0
M  V30 4779 H 444.49 -0.0657333 -3.12531 0
M  V30 4780 H 443.71 -2.54863 -3.0073 0
M  V30 4781 H 444.998 -2.91904 -4.16737 0
M  V30 4782 H 444.396 -0.107643 -5.65598 0
M  V30 4783 H 442.953 -0.50808 -6.49817 0
M  V30 4784 N 446.386 1.0089 -1.21074 0
M  V30 4785 C 447.318 2.09737 -0.924291 0
M  V30 4786 C 448.331 1.62546 0.0909809 0
M  V30 4787 O 449.52 1.77942 -0.141021 0
M  V30 4788 C 446.62 3.36922 -0.36559 0
M  V30 4789 C 445.793 4.13216 -1.43426 0
M  V30 4790 C 444.852 5.18696 -0.885496 0
M  V30 4791 O 443.878 5.47176 -1.56801 0
M  V30 4792 N 445.08 5.79718 0.301227 0
M  V30 4793 H 447.845 2.34895 -1.8613 0
M  V30 4794 H 445.406 1.17341 -1.11546 0
M  V30 4795 H 447.398 4.04697 0.0158407 0
M  V30 4796 H 445.968 3.08952 0.476149 0
M  V30 4797 H 445.188 3.40301 -1.9897 0
M  V30 4798 H 446.476 4.60967 -2.15376 0
M  V30 4799 H 445.874 5.58926 0.872849 0
M  V30 4800 H 444.431 6.48804 0.624211 0
M  V30 4801 N 447.864 1.01787 1.20321 0
M  V30 4802 C 449.104 0.716493 1.91431 0
M  V30 4803 C 449.468 -0.740352 1.77152 0
M  V30 4804 O 450.669 -1.1543 2.42754 0
M  V30 4805 C 448.94 1.14169 3.38674 0
M  V30 4806 S 450.499 0.962482 4.28114 0
M  V30 4807 H 447.317 0.261175 0.661293 0
M  V30 4808 H 449.919 1.30539 1.45533 0
M  V30 4809 H 448.623 2.19784 3.46588 0
M  V30 4810 H 448.154 0.545621 3.89598 0
M  V30 4811 H 450.169 -0.133253 4.96021 0
M  V30 4812 N 449.342 -1.36122 0.79427 0
M  V30 4813 C 450.619 -1.93398 0.292685 0
M  V30 4814 C 450.999 -1.72567 -1.21589 0
M  V30 4815 O 450.347 -1.08745 -2.00965 0
M  V30 4816 C 450.557 -3.42099 0.690614 0
M  V30 4817 C 451.905 -4.19231 0.673105 0
M  V30 4818 O 452.929 -3.50559 0.631389 0
M  V30 4819 O 451.788 -5.41732 0.720362 0
M  V30 4820 H 448.882 -0.823712 0.0736693 0
M  V30 4821 H 451.428 -1.45273 0.87714 0
M  V30 4822 H 450.2 -3.50938 1.73085 0
M  V30 4823 H 449.823 -3.97519 0.0803036 0
M  V30 4824 N 450.82 -0.546701 -1.47814 0
M  V30 4825 C 452.069 -0.0166497 -2.01693 0
M  V30 4826 C 452.382 1.33721 -1.42752 0
M  V30 4827 O 453.588 1.95658 -1.8823 0
M  V30 4828 C 452.044 0.0206769 -3.59894 0
M  V30 4829 C 451.652 -1.3293 -4.27824 0
M  V30 4830 C 453.396 0.498674 -4.21561 0
M  V30 4831 C 451.303 -1.25165 -5.78003 0
M  V30 4832 H 450.233 -0.0024541 -0.753996 0
M  V30 4833 H 452.884 -0.692984 -1.69912 0
M  V30 4834 H 451.266 0.76244 -3.88591 0
M  V30 4835 H 452.44 -2.08795 -4.10781 0
M  V30 4836 H 450.755 -1.74438 -3.78101 0
M  V30 4837 H 453.352 0.575 -5.31599 0
M  V30 4838 H 453.695 1.5083 -3.88016 0
M  V30 4839 H 454.228 -0.18791 -3.97356 0
M  V30 4840 H 450.967 -2.23695 -6.1615 0
M  V30 4841 H 450.487 -0.53464 -5.97412 0
M  V30 4842 H 452.166 -0.949299 -6.39998 0
M  V30 4843 N 452.299 1.55045 -0.282633 0
M  V30 4844 C 453.545 2.0078 0.325436 0
M  V30 4845 C 453.9 1.1676 1.52921 0
M  V30 4846 O 453.193 0.231475 1.90197 0
M  V30 4847 C 453.387 3.49422 0.750938 0
M  V30 4848 C 453.216 4.47827 -0.410056 0
M  V30 4849 C 451.986 4.97288 -0.896239 0
M  V30 4850 C 454.184 4.98903 -1.24902 0
M  V30 4851 N 452.166 5.79508 -2.02591 0
M  V30 4852 C 453.537 5.78644 -2.22646 0
M  V30 4853 C 455.592 4.81126 -1.2815 0
M  V30 4854 C 454.295 6.42502 -3.23393 0
M  V30 4855 C 456.321 5.45789 -2.27745 0
M  V30 4856 C 455.683 6.25348 -3.24222 0
M  V30 4857 H 451.782 0.77747 0.08405 0
M  V30 4858 H 454.366 1.90369 -0.408368 0
M  V30 4859 H 452.537 3.60159 1.45395 0
M  V30 4860 H 454.269 3.81978 1.33698 0
M  V30 4861 H 451.024 4.71219 -0.474277 0
M  V30 4862 H 451.448 6.25308 -2.59459 0
M  V30 4863 H 456.09 4.19215 -0.549397 0
M  V30 4864 H 453.808 7.03558 -3.97533 0
M  V30 4865 H 457.394 5.33972 -2.31009 0
M  V30 4866 H 456.274 6.74498 -4.00027 0
M  V30 4867 N 453.777 0.010035 1.57597 0
M  V30 4868 C 455.002 -0.687021 1.95691 0
M  V30 4869 C 455.427 -1.65952 0.885519 0
M  V30 4870 O 454.785 -1.80633 -0.15543 0
M  V30 4871 C 454.833 -1.3864 3.32884 0
M  V30 4872 O 453.937 -2.50115 3.27897 0
M  V30 4873 H 453.278 -0.181989 0.638573 0
M  V30 4874 H 455.808 0.0662122 2.04493 0
M  V30 4875 H 455.818 -1.74754 3.6868 0
M  V30 4876 H 454.493 -0.673411 4.10412 0
M  V30 4877 H 453.07 -2.16253 3.03791 0
M  V30 4878 N 455.255 -1.55392 -0.262866 0
M  V30 4879 C 456.504 -1.75679 -0.990943 0
M  V30 4880 C 456.817 -0.57097 -1.87081 0
M  V30 4881 O 458.023 -0.656486 -2.63444 0
M  V30 4882 C 456.479 -3.10964 -1.81188 0
M  V30 4883 C 456.087 -4.37146 -0.980188 0
M  V30 4884 C 457.831 -3.40597 -2.53365 0
M  V30 4885 C 455.738 -5.63466 -1.7961 0
M  V30 4886 H 454.668 -0.654868 -0.373716 0
M  V30 4887 H 457.319 -1.81841 -0.246203 0
M  V30 4888 H 455.701 -2.98867 -2.59797 0
M  V30 4889 H 456.875 -4.60187 -0.237558 0
M  V30 4890 H 455.19 -4.14731 -0.372497 0
M  V30 4891 H 457.787 -4.32186 -3.14833 0
M  V30 4892 H 458.13 -2.6119 -3.24169 0
M  V30 4893 H 458.663 -3.53838 -1.81779 0
M  V30 4894 H 455.402 -6.4565 -1.13209 0
M  V30 4895 H 454.922 -5.44552 -2.51443 0
M  V30 4896 H 456.601 -6.02139 -2.36723 0
M  V30 4897 N 456.733 0.527833 -1.48498 0
M  V30 4898 C 457.981 1.28101 -1.56316 0
M  V30 4899 C 458.302 1.9352 -0.239781 0
M  V30 4900 O 457.572 1.81433 0.738849 0
M  V30 4901 H 456.152 0.475793 -0.575873 0
M  V30 4902 H 458.814 0.614052 -1.84974 0
M  V30 4903 H 457.91 2.05916 -2.34532 0
M  V30 4904 N 458.211 1.37122 0.776871 0
M  V30 4905 C 459.457 1.32243 1.53752 0
M  V30 4906 C 459.79 -0.0944745 1.9397 0
M  V30 4907 O 459.065 -1.05068 1.6368 0
M  V30 4908 C 459.348 2.25681 2.80607 0
M  V30 4909 C 459.201 3.76127 2.46676 0
M  V30 4910 C 460.52 2.17657 3.82509 0
M  V30 4911 H 457.639 0.481704 0.557791 0
M  V30 4912 H 460.281 1.6778 0.891612 0
M  V30 4913 H 458.431 1.95505 3.35723 0
M  V30 4914 H 460.103 4.16877 1.97513 0
M  V30 4915 H 458.346 3.94946 1.79443 0
M  V30 4916 H 459.017 4.36933 3.37333 0
M  V30 4917 H 461.493 2.44245 3.36873 0
M  V30 4918 H 460.369 2.85185 4.69 0
M  V30 4919 H 460.63 1.16785 4.26396 0
M  V30 4920 N 459.689 -1.00246 1.21608 0
M  V30 4921 C 460.935 -1.74319 1.03638 0
M  V30 4922 C 461.268 -1.89408 -0.428749 0
M  V30 4923 O 460.543 -1.43026 -1.3181 0
M  V30 4924 C 460.826 -3.15431 1.73711 0
M  V30 4925 C 460.679 -3.08049 3.27759 0
M  V30 4926 C 461.998 -4.14407 1.48173 0
M  V30 4927 H 459.117 -0.632741 0.377899 0
M  V30 4928 H 461.759 -1.16853 1.49818 0
M  V30 4929 H 459.909 -3.64493 1.34452 0
M  V30 4930 H 461.581 -2.66681 3.76403 0
M  V30 4931 H 459.824 -2.45088 3.57931 0
M  V30 4932 H 460.495 -4.07862 3.71958 0
M  V30 4933 H 462.971 -3.74061 1.82258 0
M  V30 4934 H 461.847 -5.11279 1.99713 0
M  V30 4935 H 462.108 -4.40174 0.412273 0
M  V30 4936 N 461.167 -1.02423 -1.1978 0
M  V30 4937 C 462.1 -0.545641 -2.21581 0
M  V30 4938 C 463.078 0.411024 -1.57319 0
M  V30 4939 O 464.262 0.329223 -1.85603 0
M  V30 4940 C 461.389 0.204973 -3.38079 0
M  V30 4941 C 460.435 -0.70241 -4.20676 0
M  V30 4942 S 461.268 -2.17595 -4.89298 0
M  V30 4943 C 462.424 -1.43572 -6.09211 0
M  V30 4944 H 462.657 -1.4082 -2.61834 0
M  V30 4945 H 460.19 -0.833771 -1.29952 0
M  V30 4946 H 462.148 0.631924 -4.05607 0
M  V30 4947 H 460.809 1.0432 -2.9627 0
M  V30 4948 H 460.002 -0.123193 -5.03849 0
M  V30 4949 H 459.604 -1.06747 -3.58442 0
M  V30 4950 H 461.896 -0.719806 -6.73665 0
M  V30 4951 H 462.839 -2.24388 -6.71607 0
M  V30 4952 H 463.247 -0.935252 -5.56699 0
M  V30 4953 N 462.645 1.35699 -0.801477 0
M  V30 4954 C 463.875 2.02862 -0.3912 0
M  V30 4955 C 464.283 1.60552 1.00099 0
M  V30 4956 O 463.626 0.796215 1.65548 0
M  V30 4957 C 463.688 3.57386 -0.389299 0
M  V30 4958 C 463.352 4.22943 -1.73113 0
M  V30 4959 C 464.349 4.44984 -2.68859 0
M  V30 4960 C 462.034 4.60167 -2.01373 0
M  V30 4961 C 464.028 5.03345 -3.91053 0
M  V30 4962 C 461.715 5.18243 -3.23832 0
M  V30 4963 C 462.713 5.39773 -4.1849 0
M  V30 4964 O 462.401 5.96626 -5.38788 0
M  V30 4965 H 462.133 0.657341 -0.157732 0
M  V30 4966 H 464.687 1.74407 -1.08496 0
M  V30 4967 H 462.917 3.85011 0.361031 0
M  V30 4968 H 464.606 4.059 -0.0020365 0
M  V30 4969 H 465.372 4.1661 -2.48316 0
M  V30 4970 H 461.251 4.42726 -1.28508 0
M  V30 4971 H 464.795 5.20065 -4.64949 0
M  V30 4972 H 460.692 5.46044 -3.44248 0
M  V30 4973 H 461.46 6.15082 -5.40015 0
M  V30 4974 N 464.123 0.554532 1.47522 0
M  V30 4975 C 465.056 -0.242442 2.26908 0
M  V30 4976 C 466.034 -0.922722 1.33883 0
M  V30 4977 O 467.218 -0.942244 1.63261 0
M  V30 4978 C 464.345 -1.34525 3.10839 0
M  V30 4979 C 463.391 -0.773805 4.19422 0
M  V30 4980 S 464.224 0.377525 5.34168 0
M  V30 4981 C 465.38 -0.727164 6.21662 0
M  V30 4982 H 465.613 0.431218 2.94156 0
M  V30 4983 H 463.146 0.3408 1.50592 0
M  V30 4984 H 465.104 -1.97683 3.59766 0
M  V30 4985 H 463.765 -1.99073 2.42958 0
M  V30 4986 H 462.958 -1.60187 4.77866 0
M  V30 4987 H 462.56 -0.218448 3.73361 0
M  V30 4988 H 464.852 -1.61992 6.57849 0
M  V30 4989 H 465.795 -0.180135 7.07871 0
M  V30 4990 H 466.203 -1.01863 5.55233 0
M  V30 4991 N 465.601 -1.54893 0.290851 0
M  V30 4992 C 466.531 -2.26103 -0.583084 0
M  V30 4993 C 467.512 -1.25684 -1.14619 0
M  V30 4994 O 468.697 -1.54436 -1.17741 0
M  V30 4995 C 465.827 -2.99409 -1.75987 0
M  V30 4996 C 464.781 -4.0689 -1.32758 0
M  V30 4997 C 464.107 -4.67856 -2.58872 0
M  V30 4998 C 465.407 -5.20215 -0.46624 0
M  V30 4999 H 467.101 -2.99398 0.0108214 0
M  V30 5000 H 464.647 -1.43998 0.00664468 0
M  V30 5001 H 466.6 -3.47943 -2.37727 0
M  V30 5002 H 465.324 -2.23675 -2.37985 0
M  V30 5003 H 463.983 -3.59191 -0.733299 0
M  V30 5004 H 463.631 -3.88772 -3.19163 0
M  V30 5005 H 463.331 -5.40438 -2.30653 0
M  V30 5006 H 464.855 -5.19147 -3.21433 0
M  V30 5007 H 466.269 -5.64704 -0.989047 0
M  V30 5008 H 464.666 -5.99455 -0.27826 0
M  V30 5009 H 465.736 -4.82198 0.511173 0
M  V30 5010 N 467.08 -0.0183926 -1.57589 0
M  V30 5011 C 468.01 0.965596 -2.12599 0
M  V30 5012 C 468.991 1.34641 -1.0395 0
M  V30 5013 O 470.176 1.42693 -1.31729 0
M  V30 5014 C 467.306 2.25149 -2.64434 0
M  V30 5015 C 466.26 2.01175 -3.77773 0
M  V30 5016 C 465.586 3.35937 -4.15994 0
M  V30 5017 C 466.886 1.35953 -5.04296 0
M  V30 5018 H 468.58 0.507504 -2.95067 0
M  V30 5019 H 466.126 0.242671 -1.41941 0
M  V30 5020 H 468.079 2.94357 -3.01549 0
M  V30 5021 H 466.803 2.73105 -1.79112 0
M  V30 5022 H 465.462 1.34388 -3.4108 0
M  V30 5023 H 465.11 3.81631 -3.27669 0
M  V30 5024 H 464.81 3.20705 -4.92364 0
M  V30 5025 H 466.334 4.0643 -4.55683 0
M  V30 5026 H 467.748 1.95144 -5.39065 0
M  V30 5027 H 466.145 1.31152 -5.85593 0
M  V30 5028 H 467.215 0.331071 -4.83768 0
M  V30 5029 N 468.558 1.5553 0.254621 0
M  V30 5030 C 469.974 1.4778 0.602753 0
M  V30 5031 C 470.174 0.707047 1.88688 0
M  V30 5032 O 469.23 0.233288 2.5142 0
M  V30 5033 C 470.543 2.92133 0.712648 0
M  V30 5034 C 472.091 3.02458 0.805488 0
M  V30 5035 C 472.566 4.48102 0.947009 0
M  V30 5036 N 474.057 4.52008 1.01207 0
M  V30 5037 C 474.792 5.61939 1.1407 0
M  V30 5038 N 474.288 6.81697 1.23536 0
M  V30 5039 N 476.081 5.49719 1.17325 0
M  V30 5040 H 468.232 2.04085 -0.588463 0
M  V30 5041 H 470.495 0.926229 -0.202001 0
M  V30 5042 H 470.201 3.51332 -0.160766 0
M  V30 5043 H 470.075 3.42187 1.58707 0
M  V30 5044 H 472.462 2.43344 1.66936 0
M  V30 5045 H 472.543 2.55627 -0.0939266 0
M  V30 5046 H 472.187 5.07824 0.087725 0
M  V30 5047 H 472.117 4.92607 1.86135 0
M  V30 5048 H 474.608 3.65749 0.950577 0
M  V30 5049 H 474.921 7.61228 1.33236 0
M  V30 5050 H 473.266 6.84473 1.20508 0
M  V30 5051 H 476.457 4.55095 1.09573 0
M  V30 5052 H 476.63 6.35432 1.27005 0
M  V30 5053 N 470.036 -0.519951 1.48776 0
M  V30 5054 C 471.284 -1.2727 1.56993 0
M  V30 5055 C 471.605 -1.9339 0.25004 0
M  V30 5056 O 470.875 -1.81822 -0.729216 0
M  V30 5057 H 469.455 -0.472732 0.578389 0
M  V30 5058 H 472.117 -0.604234 1.85297 0
M  V30 5059 H 471.213 -2.04669 2.3562 0
M  V30 5060 N 471.514 -1.37532 -0.769588 0
M  V30 5061 C 472.424 -1.35668 -1.91393 0
M  V30 5062 C 473.44 -0.255954 -1.72107 0
M  V30 5063 O 474.616 -0.491704 -1.95305 0
M  V30 5064 C 471.681 -1.16481 -3.26547 0
M  V30 5065 C 470.742 -2.36212 -3.58472 0
M  V30 5066 C 469.975 -2.17932 -4.87177 0
M  V30 5067 O 470.198 -1.1647 -5.58382 0
M  V30 5068 O 469.132 -3.06167 -5.18214 0
M  V30 5069 H 472.958 -2.32055 -1.95918 0
M  V30 5070 H 470.543 -1.18284 -0.912641 0
M  V30 5071 H 472.425 -1.07778 -4.07384 0
M  V30 5072 H 471.1 -0.231687 -3.2287 0
M  V30 5073 H 470.007 -2.50488 -2.77861 0
M  V30 5074 H 471.34 -3.281 -3.66894 0
M  V30 5075 N 472.992 0.995999 -1.22138 0
M  V30 5076 C 474.403 1.54961 -1.04135 0
M  V30 5077 C 474.754 1.92159 0.396147 0
M  V30 5078 O 473.879 1.74435 1.28069 0
M  V30 5079 C 474.474 2.81581 -1.88408 0
M  V30 5080 C 473.033 3.33396 -1.74712 0
M  V30 5081 C 472.18 2.06509 -1.85066 0
M  V30 5082 H 475.131 0.817436 -1.36028 0
M  V30 5083 H 475.152 3.53822 -1.39966 0
M  V30 5084 H 474.664 2.54476 -2.93025 0
M  V30 5085 H 472.765 3.65416 -0.728159 0
M  V30 5086 H 472.878 4.04208 -2.57202 0
M  V30 5087 H 471.242 2.19925 -1.28472 0
M  V30 5088 H 472.025 1.81804 -2.91208 0
M  V30 5089 N 474.47 1.03057 1.19235 0
M  V30 5090 C 475.881 0.757449 1.70645 0
M  V30 5091 C 476.232 -0.722735 1.82403 0
M  V30 5092 O 475.357 -1.56325 1.49638 0
M  V30 5093 C 475.952 1.36833 3.09939 0
M  V30 5094 C 474.511 1.14375 3.58602 0
M  V30 5095 C 473.658 1.46533 2.35422 0
M  V30 5096 H 476.609 1.19828 1.04052 0
M  V30 5097 H 476.63 0.766184 3.72706 0
M  V30 5098 H 476.142 2.44562 3.01349 0
M  V30 5099 H 474.243 0.0847542 3.72504 0
M  V30 5100 H 474.356 1.83366 4.42622 0
M  V30 5101 H 472.72 0.884712 2.38841 0
M  V30 5102 H 473.503 2.55349 2.2946 0
M  V30 5103 N 475.948 -1.35272 0.808662 0
M  V30 5104 C 477.195 -1.98709 0.390003 0
M  V30 5105 C 477.523 -1.64148 -1.04335 0
M  V30 5106 O 476.778 -0.897797 -1.73891 0
M  V30 5107 C 477.077 -3.53556 0.522798 0
M  V30 5108 C 476.743 -4.0799 1.91977 0
M  V30 5109 C 475.405 -4.22568 2.30195 0
M  V30 5110 C 477.757 -4.37442 2.83361 0
M  V30 5111 C 475.085 -4.63918 3.59162 0
M  V30 5112 C 477.437 -4.80232 4.11776 0
M  V30 5113 C 476.101 -4.93016 4.49991 0
M  V30 5114 H 475.371 -0.727127 0.142712 0
M  V30 5115 H 478.018 -1.6145 1.02985 0
M  V30 5116 H 476.323 -3.91287 -0.200494 0
M  V30 5117 H 478.02 -4.00598 0.179608 0
M  V30 5118 H 474.61 -3.97096 1.61284 0
M  V30 5119 H 478.794 -4.25731 2.55083 0
M  V30 5120 H 474.05 -4.72005 3.88615 0
M  V30 5121 H 478.224 -5.01982 4.82687 0
M  V30 5122 H 475.851 -5.24814 5.49976 0
M  V30 5123 N 477.426 -0.562348 -1.47226 0
M  V30 5124 C 478.356 0.170627 -2.32876 0
M  V30 5125 C 479.337 0.903748 -1.44106 0
M  V30 5126 O 480.522 0.883206 -1.72954 0
M  V30 5127 C 477.652 1.19786 -3.25989 0
M  V30 5128 C 476.606 0.580875 -4.2404 0
M  V30 5129 C 475.932 1.71311 -5.06514 0
M  V30 5130 C 477.232 -0.468714 -5.20193 0
M  V30 5131 H 478.926 -0.544441 -2.94408 0
M  V30 5132 H 476.472 -0.263271 -1.41573 0
M  V30 5133 H 478.425 1.71884 -3.84752 0
M  V30 5134 H 477.149 1.94294 -2.62521 0
M  V30 5135 H 475.808 0.0811538 -3.6651 0
M  V30 5136 H 475.456 2.44736 -4.39447 0
M  V30 5137 H 475.156 1.30604 -5.72902 0
M  V30 5138 H 476.68 2.23725 -5.68137 0
M  V30 5139 H 478.094 -0.0336028 -5.7329 0
M  V30 5140 H 476.491 -0.794957 -5.94811 0
M  V30 5141 H 477.561 -1.36269 -4.65359 0
M  V30 5142 N 478.904 1.54736 -0.299062 0
M  V30 5143 C 479.867 2.22127 0.565012 0
M  V30 5144 C 480.867 1.20669 1.06281 0
M  V30 5145 O 482.057 1.45417 0.959145 0
M  V30 5146 C 479.189 2.90611 1.78208 0
M  V30 5147 H 480.382 2.99891 -0.0237448 0
M  V30 5148 H 477.935 1.5622 -0.0498788 0
M  V30 5149 H 478.67 2.16921 2.41072 0
M  V30 5150 H 478.455 3.64984 1.43281 0
M  V30 5151 H 479.945 3.42026 2.396 0
M  V30 5152 N 480.382 0.0267497 1.57577 0
M  V30 5153 C 481.607 -0.666227 1.96408 0
M  V30 5154 C 482.032 -1.65004 0.903071 0
M  V30 5155 O 481.39 -1.80787 -0.136263 0
M  V30 5156 C 481.438 -1.35101 3.34335 0
M  V30 5157 O 480.542 -2.46623 3.30531 0
M  V30 5158 H 479.883 -0.175206 0.640468 0
M  V30 5159 H 482.413 0.0878977 2.04411 0
M  V30 5160 H 482.423 -1.70834 3.70513 0
M  V30 5161 H 481.098 -0.629844 4.11103 0
M  V30 5162 H 479.675 -2.13019 3.06068 0
M  V30 5163 N 481.861 -1.55662 -0.24637 0
M  V30 5164 C 483.086 -1.81914 -0.996093 0
M  V30 5165 C 483.511 -0.603875 -1.78143 0
M  V30 5166 O 482.869 0.447091 -1.75701 0
M  V30 5167 C 482.917 -3.05908 -1.90925 0
M  V30 5168 O 482.021 -2.82861 -3.00105 0
M  V30 5169 H 481.362 -0.600481 -0.283406 0
M  V30 5170 H 483.892 -2.02848 -0.267199 0
M  V30 5171 H 483.902 -3.35356 -2.3238 0
M  V30 5172 H 482.577 -3.93999 -1.33183 0
M  V30 5173 H 481.154 -2.64583 -2.62775 0
M  V30 5174 N 483.339 0.512053 -1.4905 0
M  V30 5175 C 484.249 1.64139 -1.67617 0
M  V30 5176 C 485.265 1.64786 -0.558701 0
M  V30 5177 O 486.441 1.8341 -0.832034 0
M  V30 5178 C 483.506 3.00548 -1.72835 0
M  V30 5179 C 482.567 3.10615 -2.96339 0
M  V30 5180 C 481.8 4.40517 -3.01298 0
M  V30 5181 O 482.023 5.28671 -2.14157 0
M  V30 5182 O 480.957 4.55325 -3.93653 0
M  V30 5183 H 484.783 1.51407 -2.63267 0
M  V30 5184 H 482.368 0.687131 -1.32661 0
M  V30 5185 H 484.25 3.81641 -1.78683 0
M  V30 5186 H 482.925 3.13566 -0.803616 0
M  V30 5187 H 481.832 2.2875 -2.96014 0
M  V30 5188 H 483.165 3.0252 -3.88256 0
M  V30 5189 N 484.817 1.37938 0.762283 0
M  V30 5190 C 485.727 1.36681 1.90671 0
M  V30 5191 C 486.743 0.265078 1.71969 0
M  V30 5192 O 487.919 0.502055 1.95042 0
M  V30 5193 C 484.984 1.18211 3.25925 0
M  V30 5194 C 484.045 2.3811 3.57214 0
M  V30 5195 C 483.278 2.20512 4.86014 0
M  V30 5196 O 483.501 1.19429 5.57757 0
M  V30 5197 O 482.435 3.08911 5.16583 0
M  V30 5198 H 486.261 2.33091 1.94685 0
M  V30 5199 H 483.846 1.18767 0.906356 0
M  V30 5200 H 485.728 1.09937 4.06807 0
M  V30 5201 H 484.403 0.248807 3.22742 0
M  V30 5202 H 483.31 2.51958 2.76529 0
M  V30 5203 H 484.643 3.30041 3.65149 0
M  V30 5204 N 486.295 -0.989507 1.22664 0
M  V30 5205 C 487.242 -2.08024 0.999733 0
M  V30 5206 C 488.212 -1.65909 -0.0797047 0
M  V30 5207 O 489.397 -1.90669 0.0705715 0
M  V30 5208 C 486.537 -3.40067 0.587234 0
M  V30 5209 C 485.65 -3.95505 1.73781 0
M  V30 5210 C 484.785 -5.15722 1.27297 0
M  V30 5211 C 483.824 -5.63305 2.39488 0
M  V30 5212 N 482.961 -6.74758 1.94026 0
M  V30 5213 H 487.801 -2.26768 1.9334 0
M  V30 5214 H 485.338 -1.11171 0.963297 0
M  V30 5215 H 487.296 -4.15899 0.329227 0
M  V30 5216 H 485.926 -3.21314 -0.309426 0
M  V30 5217 H 484.978 -3.16513 2.11006 0
M  V30 5218 H 486.29 -4.26797 2.58158 0
M  V30 5219 H 485.444 -5.98854 0.972546 0
M  V30 5220 H 484.183 -4.86061 0.399445 0
M  V30 5221 H 483.188 -4.78759 2.70315 0
M  V30 5222 H 484.413 -5.94988 3.27362 0
M  V30 5223 H 482.359 -6.46874 1.09041 0
M  V30 5224 H 482.276 -7.05386 2.71968 0
M  V30 5225 H 483.544 -7.61387 1.67062 0
M  V30 5226 N 487.773 -1.03688 -1.18687 0
M  V30 5227 C 488.703 -0.645407 -2.24403 0
M  V30 5228 C 489.684 0.349511 -1.66471 0
M  V30 5229 O 490.869 0.230453 -1.92828 0
M  V30 5230 C 487.999 -0.00365337 -3.473 0
M  V30 5231 C 486.953 -0.921705 -4.17958 0
M  V30 5232 C 486.279 -0.144629 -5.34504 0
M  V30 5233 C 487.579 -2.23909 -4.71871 0
M  V30 5234 H 489.273 -1.52917 -2.57404 0
M  V30 5235 H 486.819 -0.736711 -1.23728 0
M  V30 5236 H 488.772 0.281908 -4.20456 0
M  V30 5237 H 487.496 0.914963 -3.13522 0
M  V30 5238 H 486.155 -1.19159 -3.46694 0
M  V30 5239 H 485.803 0.776274 -4.96974 0
M  V30 5240 H 485.503 -0.756206 -5.82714 0
M  V30 5241 H 487.027 0.134004 -6.10453 0
M  V30 5242 H 488.441 -2.0145 -5.36741 0
M  V30 5243 H 486.838 -2.8033 -5.30599 0
M  V30 5244 H 487.908 -2.88822 -3.895 0
M  V30 5245 N 489.251 1.34841 -0.815825 0
M  V30 5246 C 490.498 1.98499 -0.400535 0
M  V30 5247 C 490.826 1.64699 1.03463 0
M  V30 5248 O 490.081 0.907006 1.73412 0
M  V30 5249 C 490.38 3.53273 -0.541541 0
M  V30 5250 C 490.046 4.06966 -1.94138 0
M  V30 5251 C 488.708 4.21341 -2.32433 0
M  V30 5252 C 491.06 4.35933 -2.85677 0
M  V30 5253 C 488.388 4.62007 -3.61617 0
M  V30 5254 C 490.74 4.78042 -4.14317 0
M  V30 5255 C 489.404 4.90622 -4.52599 0
M  V30 5256 H 488.674 0.72636 -0.146566 0
M  V30 5257 H 491.321 1.60902 -1.0384 0
M  V30 5258 H 489.626 3.91387 0.179741 0
M  V30 5259 H 491.323 4.00497 -0.20085 0
M  V30 5260 H 487.913 3.96235 -1.63388 0
M  V30 5261 H 492.097 4.24372 -2.57337 0
M  V30 5262 H 487.353 4.69937 -3.91113 0
M  V30 5263 H 491.527 4.99415 -4.85342 0
M  V30 5264 H 489.154 5.2189 -5.52752 0
M  V30 5265 N 490.729 0.570148 1.46925 0
M  V30 5266 C 491.639 -0.173061 2.33961 0
M  V30 5267 C 492.655 -0.898825 1.48987 0
M  V30 5268 O 493.831 -0.864825 1.81887 0
M  V30 5269 C 490.896 -1.18177 3.25937 0
M  V30 5270 C 489.957 -0.462041 4.26806 0
M  V30 5271 C 489.19 -1.4227 5.14388 0
M  V30 5272 O 489.413 -2.65842 5.04662 0
M  V30 5273 O 488.347 -0.940127 5.94513 0
M  V30 5274 H 492.173 0.541216 2.98839 0
M  V30 5275 H 489.758 0.330647 1.45695 0
M  V30 5276 H 491.64 -1.76372 3.82715 0
M  V30 5277 H 490.315 -1.87774 2.63671 0
M  V30 5278 H 489.222 0.161429 3.73752 0
M  V30 5279 H 490.555 0.192719 4.91823 0
M  V30 5280 N 492.207 -1.54576 0.307264 0
M  V30 5281 C 493.137 -2.26708 -0.55907 0
M  V30 5282 C 494.118 -1.26893 -1.1328 0
M  V30 5283 O 495.303 -1.55677 -1.16097 0
M  V30 5284 C 492.433 -3.01259 -1.72801 0
M  V30 5285 C 491.387 -4.08275 -1.28435 0
M  V30 5286 C 490.713 -4.70575 -2.53895 0
M  V30 5287 C 492.013 -5.2068 -0.411038 0
M  V30 5288 H 493.707 -2.9937 0.042576 0
M  V30 5289 H 491.253 -1.43983 0.0219173 0
M  V30 5290 H 493.206 -3.50444 -2.34023 0
M  V30 5291 H 491.93 -2.26187 -2.356 0
M  V30 5292 H 490.589 -3.59949 -0.695161 0
M  V30 5293 H 490.237 -3.92136 -3.15021 0
M  V30 5294 H 489.937 -5.42854 -2.24908 0
M  V30 5295 H 491.461 -5.22527 -3.15908 0
M  V30 5296 H 492.875 -5.65721 -0.929097 0
M  V30 5297 H 491.272 -5.99716 -0.214664 0
M  V30 5298 H 492.342 -4.81629 0.562287 0
M  V30 5299 N 493.685 -0.035106 -1.57561 0
M  V30 5300 C 494.934 0.641604 -1.91223 0
M  V30 5301 C 495.247 1.72944 -0.913761 0
M  V30 5302 O 496.453 2.46321 -1.14185 0
M  V30 5303 C 494.909 1.19249 -3.3957 0
M  V30 5304 C 494.517 0.137616 -4.47789 0
M  V30 5305 C 496.261 1.84537 -3.82291 0
M  V30 5306 C 494.168 0.700478 -5.87237 0
M  V30 5307 H 493.098 0.243417 -0.713627 0
M  V30 5308 H 495.749 -0.101382 -1.8322 0
M  V30 5309 H 494.131 1.98728 -3.42525 0
M  V30 5310 H 495.305 -0.635153 -4.56402 0
M  V30 5311 H 493.62 -0.416855 -4.14308 0
M  V30 5312 H 496.217 2.27616 -4.83834 0
M  V30 5313 H 496.56 2.69054 -3.17672 0
M  V30 5314 H 497.093 1.11739 -3.81784 0
M  V30 5315 H 493.832 -0.106693 -6.55413 0
M  V30 5316 H 493.352 1.4416 -5.82218 0
M  V30 5317 H 495.031 1.18837 -6.35993 0
M  V30 5318 N 495.163 1.55791 0.238111 0
M  V30 5319 C 496.579 1.48411 0.587045 0
M  V30 5320 C 496.779 0.72702 1.87927 0
M  V30 5321 O 495.835 0.259942 2.51158 0
M  V30 5322 C 497.148 2.92873 0.681623 0
M  V30 5323 C 498.696 3.03295 0.773363 0
M  V30 5324 C 499.171 4.49082 0.899428 0
M  V30 5325 N 500.662 4.53056 0.964075 0
M  V30 5326 C 501.397 5.63117 1.08104 0
M  V30 5327 N 500.893 6.82969 1.16299 0
M  V30 5328 N 502.686 5.50933 1.11488 0
M  V30 5329 H 494.837 2.0345 -0.610076 0
M  V30 5330 H 497.1 0.924034 -0.211813 0
M  V30 5331 H 496.806 3.51142 -0.19802 0
M  V30 5332 H 496.68 3.43851 1.55069 0
M  V30 5333 H 499.067 2.45101 1.64346 0
M  V30 5334 H 499.148 2.55513 -0.121034 0
M  V30 5335 H 498.792 5.07889 0.0338586 0
M  V30 5336 H 498.722 4.94553 1.809 0
M  V30 5337 H 501.213 3.66737 0.91173 0
M  V30 5338 H 501.526 7.62598 1.25155 0
M  V30 5339 H 499.871 6.85712 1.13241 0
M  V30 5340 H 503.062 4.56231 1.0474 0
M  V30 5341 H 503.235 6.36743 1.20259 0
M  V30 5342 N 496.642 -0.504142 1.49319 0
M  V30 5343 C 497.589 -1.60603 1.65756 0
M  V30 5344 C 498.559 -1.58425 0.499082 0
M  V30 5345 O 499.744 -1.76459 0.725728 0
M  V30 5346 C 496.884 -2.98764 1.72726 0
M  V30 5347 C 495.997 -3.10982 2.99857 0
M  V30 5348 C 495.132 -4.39857 2.97824 0
M  V30 5349 C 494.171 -4.45697 4.19548 0
M  V30 5350 N 493.308 -5.65995 4.15444 0
M  V30 5351 H 498.148 -1.45895 2.59843 0
M  V30 5352 H 495.685 -0.709891 1.28837 0
M  V30 5353 H 497.643 -3.78839 1.74747 0
M  V30 5354 H 496.273 -3.12183 0.821075 0
M  V30 5355 H 495.325 -2.23991 3.07461 0
M  V30 5356 H 496.637 -3.11157 3.89849 0
M  V30 5357 H 495.791 -5.2825 2.98391 0
M  V30 5358 H 494.53 -4.42242 2.05604 0
M  V30 5359 H 493.535 -3.55707 4.19229 0
M  V30 5360 H 494.76 -4.4503 5.12957 0
M  V30 5361 H 492.706 -5.69229 3.26059 0
M  V30 5362 H 492.623 -5.67773 4.99169 0
M  V30 5363 H 493.891 -6.56604 4.20109 0
M  V30 5364 N 498.12 -1.38341 -0.754957 0
M  V30 5365 C 499.368 -1.34208 -1.51105 0
M  V30 5366 C 499.689 0.0677634 -1.94882 0
M  V30 5367 O 498.959 1.01517 -1.67544 0
M  V30 5368 H 497.539 -0.493819 -0.560493 0
M  V30 5369 H 500.201 -1.73005 -0.897507 0
M  V30 5370 H 499.297 -1.99203 -2.4026 0
M  V30 5371 N 499.598 0.982988 -1.23187 0
M  V30 5372 C 500.508 2.10907 -1.02739 0
M  V30 5373 C 501.524 1.73979 0.0273188 0
M  V30 5374 O 502.7 2.00702 -0.16757 0
M  V30 5375 C 499.765 3.41142 -0.618304 0
M  V30 5376 C 498.826 3.92112 -1.74777 0
M  V30 5377 C 498.059 5.16131 -1.3581 0
M  V30 5378 O 498.282 5.6989 -0.241201 0
M  V30 5379 O 497.216 5.61103 -2.17824 0
M  V30 5380 H 501.042 2.31046 -1.97108 0
M  V30 5381 H 498.627 1.09284 -1.01869 0
M  V30 5382 H 500.509 4.19488 -0.400982 0
M  V30 5383 H 499.184 3.2234 0.296421 0
M  V30 5384 H 498.091 3.14895 -2.0197 0
M  V30 5385 H 499.424 4.15364 -2.64071 0
M  V30 5386 N 501.076 1.04316 1.18135 0
M  V30 5387 C 502.006 0.657299 2.24058 0
M  V30 5388 C 502.987 -0.340678 1.66654 0
M  V30 5389 O 504.172 -0.220223 1.92947 0
M  V30 5390 C 501.302 0.0220715 3.47293 0
M  V30 5391 C 500.256 0.943857 4.17463 0
M  V30 5392 C 499.582 0.172973 5.3442 0
M  V30 5393 C 500.882 2.26409 4.70677 0
M  V30 5394 H 502.576 1.5428 2.56589 0
M  V30 5395 H 500.122 0.743263 1.23335 0
M  V30 5396 H 502.075 -0.259607 4.206 0
M  V30 5397 H 500.799 -0.898323 3.14003 0
M  V30 5398 H 499.458 1.20996 3.46057 0
M  V30 5399 H 499.106 -0.749907 4.97379 0
M  V30 5400 H 498.806 0.787098 5.82304 0
M  V30 5401 H 500.33 -0.101628 6.10515 0
M  V30 5402 H 501.744 2.04294 5.35665 0
M  V30 5403 H 500.141 2.8314 5.29105 0
M  V30 5404 H 501.211 2.90883 3.87962 0
M  V30 5405 N 502.554 -1.34406 0.822964 0
M  V30 5406 C 503.504 -2.26963 0.217208 0
M  V30 5407 C 504.488 -1.48536 -0.618545 0
M  V30 5408 O 505.68 -1.7056 -0.473118 0
M  V30 5409 C 502.809 -3.37655 -0.619973 0
M  V30 5410 C 501.895 -4.23495 0.226411 0
M  V30 5411 N 502.286 -4.88876 1.29744 0
M  V30 5412 C 500.584 -4.45999 0.0107554 0
M  V30 5413 C 501.285 -5.52642 1.81553 0
M  V30 5414 N 500.261 -5.31949 1.11942 0
M  V30 5415 H 504.063 -2.75017 1.03647 0
M  V30 5416 H 501.577 -1.48126 0.665777 0
M  V30 5417 H 503.574 -4.02932 -1.07011 0
M  V30 5418 H 502.234 -2.91151 -1.43739 0
M  V30 5419 H 503.245 -4.89886 1.68024 0
M  V30 5420 H 499.922 -4.10253 -0.774495 0
M  V30 5421 H 501.312 -6.14755 2.71156 0
M  V30 5422 N 504.032 -0.577932 -1.46621 0
M  V30 5423 C 505.279 -0.0616879 -2.02406 0
M  V30 5424 C 505.607 1.29638 -1.44997 0
M  V30 5425 O 504.862 1.86176 -0.60308 0
M  V30 5426 C 505.161 0.0590832 -3.57351 0
M  V30 5427 C 504.827 -1.23077 -4.33777 0
M  V30 5428 C 503.489 -1.58416 -4.54376 0
M  V30 5429 C 505.841 -2.08457 -4.77698 0
M  V30 5430 C 503.169 -2.78943 -5.16147 0
M  V30 5431 C 505.521 -3.28204 -5.408 0
M  V30 5432 C 504.185 -3.63832 -5.59627 0
M  V30 5433 H 503.455 -0.0225732 -0.740656 0
M  V30 5434 H 506.102 -0.753609 -1.76048 0
M  V30 5435 H 504.407 0.834104 -3.82818 0
M  V30 5436 H 506.104 0.474202 -3.98186 0
M  V30 5437 H 502.694 -0.945652 -4.18038 0
M  V30 5438 H 506.878 -1.82459 -4.61544 0
M  V30 5439 H 502.134 -3.06689 -5.28916 0
M  V30 5440 H 506.308 -3.94634 -5.73792 0
M  V30 5441 H 503.935 -4.57315 -6.07262 0
M  V30 5442 N 505.51 1.54411 -0.315457 0
M  V30 5443 C 506.42 2.27737 0.56329 0
M  V30 5444 C 507.436 1.31787 1.13614 0
M  V30 5445 O 508.612 1.64791 1.15784 0
M  V30 5446 C 505.677 3.01478 1.71207 0
M  V30 5447 C 504.738 4.12997 1.17185 0
M  V30 5448 C 503.971 4.83212 2.26588 0
M  V30 5449 O 504.194 4.52884 3.46775 0
M  V30 5450 O 503.128 5.70299 1.92463 0
M  V30 5451 H 506.954 3.03683 -0.0319614 0
M  V30 5452 H 504.539 1.49178 -0.0814188 0
M  V30 5453 H 506.421 3.47683 2.38106 0
M  V30 5454 H 505.096 2.28414 2.29366 0
M  V30 5455 H 504.003 3.71159 0.468174 0
M  V30 5456 H 505.336 4.8808 0.635501 0
M  V30 5457 N 506.988 0.0434614 1.5754 0
M  V30 5458 C 507.936 -0.951465 2.1225 0
M  V30 5459 C 508.93 -1.3274 1.05245 0
M  V30 5460 O 510.136 -1.30795 1.23663 0
M  V30 5461 H 506.511 -0.324667 0.678303 0
M  V30 5462 H 508.482 -0.464855 2.94757 0
M  V30 5463 C 507.231 -2.21972 2.67626 0
M  V30 5464 H 506.554 -1.93923 3.4962 0
M  V30 5465 H 507.994 -2.89765 3.09536 0
M  V30 5466 C 506.453 -2.95919 1.61038 0
M  V30 5467 O 506.983 -3.8857 1.01862 0
M  V30 5468 N 505.189 -2.58511 1.32741 0
M  V30 5469 H 504.736 -1.83244 1.81051 0
M  V30 5470 H 504.694 -3.08296 0.616531 0
M  V30 5471 N 508.466 -1.55915 -0.229846 0
M  V30 5472 C 509.429 -1.90914 -1.26824 0
M  V30 5473 C 510.429 -0.786999 -1.40225 0
M  V30 5474 O 511.619 -1.05484 -1.38632 0
M  V30 5475 C 508.751 -2.15264 -2.64337 0
M  V30 5476 H 509.944 -2.8378 -0.969998 0
M  V30 5477 H 507.497 -1.49069 -0.4699 0
M  V30 5478 H 508.232 -1.24923 -2.99274 0
M  V30 5479 H 508.017 -2.97005 -2.55989 0
M  V30 5480 H 509.507 -2.43467 -3.39284 0
M  V30 5481 N 509.944 0.496216 -1.49584 0
M  V30 5482 C 511.19 1.25189 -1.59548 0
M  V30 5483 C 511.523 1.9212 -0.283466 0
M  V30 5484 O 510.798 1.80947 0.713324 0
M  V30 5485 C 511.081 2.31516 -2.75812 0
M  V30 5486 C 510.934 1.69054 -4.16822 0
M  V30 5487 C 512.253 3.3304 -2.87702 0
M  V30 5488 H 509.372 0.45379 -0.580727 0
M  V30 5489 H 512.014 0.549327 -1.81886 0
M  V30 5490 H 510.164 2.91438 -2.56897 0
M  V30 5491 H 511.836 1.12923 -4.47265 0
M  V30 5492 H 510.079 0.994485 -4.22247 0
M  V30 5493 H 510.75 2.462 -4.94054 0
M  V30 5494 H 513.226 2.83114 -3.04936 0
M  V30 5495 H 512.102 4.04794 -3.7072 0
M  V30 5496 H 512.363 3.95655 -1.97255 0
M  V30 5497 N 511.423 1.38739 0.74761 0
M  V30 5498 C 512.669 1.3648 1.50814 0
M  V30 5499 C 513.024 -0.0431982 1.92351 0
M  V30 5500 O 512.317 -1.0071 1.62997 0
M  V30 5501 C 512.511 2.25992 2.7688 0
M  V30 5502 C 512.34 3.75354 2.47668 0
M  V30 5503 C 511.11 4.44348 2.40589 0
M  V30 5504 C 513.308 4.67642 2.14046 0
M  V30 5505 N 511.29 5.79114 2.03715 0
M  V30 5506 C 512.661 5.90965 1.87512 0
M  V30 5507 C 514.716 4.55787 2.00407 0
M  V30 5508 C 513.419 7.03759 1.48714 0
M  V30 5509 C 515.445 5.68491 1.63011 0
M  V30 5510 C 514.807 6.90879 1.37353 0
M  V30 5511 H 510.906 0.554695 0.551214 0
M  V30 5512 H 513.49 1.7418 0.870033 0
M  V30 5513 H 511.661 1.9047 3.3849 0
M  V30 5514 H 513.393 2.14815 3.42982 0
M  V30 5515 H 510.148 3.97634 2.57262 0
M  V30 5516 H 510.572 6.504 1.87906 0
M  V30 5517 H 515.214 3.61712 2.18916 0
M  V30 5518 H 512.932 7.97746 1.28945 0
M  V30 5519 H 516.518 5.613 1.53081 0
M  V30 5520 H 515.398 7.76609 1.08848 0
M  V30 5521 N 512.901 -0.976442 1.23707 0
M  V30 5522 C 513.849 -2.09078 1.01927 0
M  V30 5523 C 514.843 -1.69345 -0.0430193 0
M  V30 5524 O 516.049 -1.79659 0.110814 0
M  V30 5525 H 512.424 -0.68398 0.312531 0
M  V30 5526 H 514.395 -2.24614 1.96447 0
M  V30 5527 C 513.144 -3.41919 0.631385 0
M  V30 5528 H 512.467 -3.72946 1.44053 0
M  V30 5529 H 513.907 -4.20817 0.518532 0
M  V30 5530 C 512.366 -3.30357 -0.660723 0
M  V30 5531 O 512.896 -3.63542 -1.70881 0
M  V30 5532 N 511.102 -2.83507 -0.638139 0
M  V30 5533 H 510.649 -2.567 0.215108 0
M  V30 5534 H 510.607 -2.76153 -1.50289 0
M  V30 5535 N 514.379 -1.04941 -1.1758 0
M  V30 5536 C 515.604 -0.778253 -1.92245 0
M  V30 5537 C 516.029 0.659707 -1.76152 0
M  V30 5538 O 515.387 1.45803 -1.07755 0
M  V30 5539 C 515.435 -1.16051 -3.41416 0
M  V30 5540 O 514.539 -0.291153 -4.11371 0
M  V30 5541 H 513.88 -0.285619 -0.599431 0
M  V30 5542 H 516.41 -1.40159 -1.49052 0
M  V30 5543 H 516.42 -1.12619 -3.92149 0
M  V30 5544 H 515.095 -2.208 -3.52449 0
M  V30 5545 H 513.672 -0.385851 -3.70898 0
M  V30 5546 N 515.857 1.33968 -0.830081 0
M  V30 5547 C 517.106 1.97323 -0.417928 0
M  V30 5548 C 517.419 1.6652 1.02618 0
M  V30 5549 O 518.625 2.2342 1.54259 0
M  V30 5550 C 517.081 3.53099 -0.696359 0
M  V30 5551 C 516.689 3.92788 -2.15457 0
M  V30 5552 C 518.433 4.23049 -0.350724 0
M  V30 5553 C 516.34 5.41506 -2.37751 0
M  V30 5554 H 515.27 0.738409 -0.152541 0
M  V30 5555 H 517.921 1.52711 -1.01744 0
M  V30 5556 H 516.303 3.95991 -0.0265904 0
M  V30 5557 H 517.477 3.6098 -2.86408 0
M  V30 5558 H 515.792 3.35795 -2.46232 0
M  V30 5559 H 518.389 5.32403 -0.495036 0
M  V30 5560 H 518.732 4.10279 0.705476 0
M  V30 5561 H 519.265 3.85657 -0.975362 0
M  V30 5562 H 516.004 5.5927 -3.41903 0
M  V30 5563 H 515.524 5.74804 -1.7135 0
M  V30 5564 H 517.203 6.0828 -2.20465 0
M  V30 5565 N 517.335 0.585699 1.46312 0
M  V30 5566 C 518.56 0.0762461 2.0726 0
M  V30 5567 C 518.985 -1.22071 1.43109 0
M  V30 5568 O 518.343 -1.73804 0.515942 0
M  V30 5569 C 518.391 -0.0729404 3.60526 0
M  V30 5570 O 517.495 -1.1287 3.96654 0
M  V30 5571 H 516.836 0.0641558 0.660893 0
M  V30 5572 H 519.366 0.809492 1.87905 0
M  V30 5573 H 519.376 -0.278158 4.07051 0
M  V30 5574 H 518.051 0.874188 4.06609 0
M  V30 5575 H 516.628 -0.901703 3.61834 0
M  V30 5576 N 518.813 -1.54241 0.323641 0
M  V30 5577 C 520.09 -1.92741 -0.333181 0
M  V30 5578 C 520.47 -1.25326 -1.69872 0
M  V30 5579 O 519.818 -0.396991 -2.25025 0
M  V30 5580 C 520.028 -3.46399 -0.425322 0
M  V30 5581 C 521.376 -4.19029 -0.68557 0
M  V30 5582 O 522.4 -3.52555 -0.50824 0
M  V30 5583 O 521.259 -5.36751 -1.02767 0
M  V30 5584 H 518.353 -0.804811 -0.190286 0
M  V30 5585 H 520.899 -1.65542 0.373361 0
M  V30 5586 H 519.671 -3.87643 0.533737 0
M  V30 5587 H 519.294 -3.79704 -1.17944 0
M  V30 5588 N 520.291 -0.0518155 -1.57515 0
M  V30 5589 C 521.531 0.625712 -1.94587 0
M  V30 5590 C 521.895 1.6797 -0.930053 0
M  V30 5591 O 523.096 2.41135 -1.18774 0
M  V30 5592 C 521.367 1.20574 -3.36447 0
M  V30 5593 S 522.926 1.90118 -3.95475 0
M  V30 5594 H 519.744 0.205434 -0.680675 0
M  V30 5595 H 522.346 -0.120906 -1.95126 0
M  V30 5596 H 521.05 0.426521 -4.08178 0
M  V30 5597 H 520.581 1.98916 -3.39405 0
M  V30 5598 H 522.596 3.18184 -3.80753 0
M  V30 5599 N 521.769 1.56035 0.221574 0
M  V30 5600 C 522.732 1.91584 1.2581 0
M  V30 5601 C 523.732 0.794425 1.39805 0
M  V30 5602 O 524.922 1.06217 1.38071 0
M  V30 5603 C 522.054 2.16663 2.63192 0
M  V30 5604 H 523.247 2.8429 0.954935 0
M  V30 5605 H 520.8 1.49316 0.461988 0
M  V30 5606 H 521.535 1.26508 2.98607 0
M  V30 5607 H 521.32 2.98358 2.5441 0
M  V30 5608 H 522.81 2.45262 3.37988 0
M  V30 5609 N 523.247 -0.488276 1.49845 0
M  V30 5610 C 524.194 -1.58836 1.67451 0
M  V30 5611 C 525.164 -1.57886 0.515857 0
M  V30 5612 O 526.349 -1.75679 0.744403 0
M  V30 5613 C 523.489 -2.96915 1.75885 0
M  V30 5614 C 522.602 -3.07784 3.03138 0
M  V30 5615 C 521.737 -4.36673 3.02473 0
M  V30 5616 C 520.776 -4.41222 4.24252 0
M  V30 5617 N 519.913 -5.61557 4.21424 0
M  V30 5618 H 524.753 -1.43131 2.61376 0
M  V30 5619 H 522.29 -0.696186 1.29583 0
M  V30 5620 H 524.248 -3.76965 1.78755 0
M  V30 5621 H 522.878 -3.11295 0.85414 0
M  V30 5622 H 521.93 -2.20717 3.09819 0
M  V30 5623 H 523.242 -3.07005 3.93128 0
M  V30 5624 H 522.396 -5.25055 3.03977 0
M  V30 5625 H 521.135 -4.40037 2.10283 0
M  V30 5626 H 520.14 -3.5124 4.22978 0
M  V30 5627 H 521.365 -4.39564 5.17649 0
M  V30 5628 H 519.311 -5.65738 3.32078 0
M  V30 5629 H 519.228 -5.62447 5.05163 0
M  V30 5630 H 520.496 -6.52111 4.2705 0
M  V30 5631 N 524.725 -1.39134 -0.740242 0
M  V30 5632 C 525.95 -1.39518 -1.53459 0
M  V30 5633 C 526.375 0.00968883 -1.88098 0
M  V30 5634 O 525.733 0.995312 -1.51536 0
M  V30 5635 C 525.781 -2.26981 -2.802 0
M  V30 5636 O 524.885 -1.69609 -3.75908 0
M  V30 5637 H 524.226 -0.475328 -0.463637 0
M  V30 5638 H 526.756 -1.83064 -0.913717 0
M  V30 5639 H 526.766 -2.41309 -3.28989 0
M  V30 5640 H 525.441 -3.29081 -2.5432 0
M  V30 5641 H 524.018 -1.64495 -3.34658 0
M  V30 5642 N 526.204 0.969867 -1.24223 0
M  V30 5643 C 527.45 1.7151 -1.08223 0
M  V30 5644 C 527.783 1.90478 0.37838 0
M  V30 5645 O 527.058 1.4647 1.27971 0
M  V30 5646 C 527.341 3.10714 -1.82013 0
M  V30 5647 C 527.194 2.9925 -3.35811 0
M  V30 5648 C 528.513 4.10332 -1.59108 0
M  V30 5649 H 525.632 0.622499 -0.394543 0
M  V30 5650 H 528.274 1.1284 -1.52863 0
M  V30 5651 H 526.424 3.608 -1.44068 0
M  V30 5652 H 528.096 2.56608 -3.83341 0
M  V30 5653 H 526.339 2.35512 -3.64303 0
M  V30 5654 H 527.01 3.97857 -3.82641 0
M  V30 5655 H 529.486 3.69097 -1.92111 0
M  V30 5656 H 528.362 5.05804 -2.13198 0
M  V30 5657 H 528.623 4.38926 -0.528832 0
M  V30 5658 N 527.682 1.05563 1.17022 0
M  V30 5659 C 528.612 0.681026 2.23348 0
M  V30 5660 C 529.593 -0.322983 1.67005 0
M  V30 5661 O 530.778 -0.199746 1.9317 0
M  V30 5662 C 527.908 0.0589053 3.4725 0
M  V30 5663 C 526.862 0.988082 4.16438 0
M  V30 5664 C 526.188 0.229646 5.34207 0
M  V30 5665 C 527.488 2.31388 4.68249 0
M  V30 5666 H 529.182 1.56993 2.54938 0
M  V30 5667 H 526.728 0.756302 1.2254 0
M  V30 5668 H 528.681 -0.214982 4.20851 0
M  V30 5669 H 527.405 -0.864968 3.14938 0
M  V30 5670 H 526.064 1.24659 3.44754 0
M  V30 5671 H 525.712 -0.697111 4.98146 0
M  V30 5672 H 525.412 0.848815 5.81437 0
M  V30 5673 H 526.936 -0.0368694 6.10589 0
M  V30 5674 H 528.35 2.09964 5.33468 0
M  V30 5675 H 526.747 2.88736 5.26072 0
M  V30 5676 H 527.817 2.94982 3.84855 0
M  V30 5677 N 529.16 -1.33526 0.837174 0
M  V30 5678 C 530.107 -2.29248 0.267169 0
M  V30 5679 C 531.077 -1.54252 -0.616071 0
M  V30 5680 O 532.262 -1.82559 -0.554699 0
M  V30 5681 C 529.402 -3.40638 -0.553152 0
M  V30 5682 C 528.515 -4.30548 0.353921 0
M  V30 5683 C 527.65 -5.29051 -0.477339 0
M  V30 5684 C 526.689 -6.106 0.42823 0
M  V30 5685 N 525.826 -7.01152 -0.364801 0
M  V30 5686 H 530.666 -2.77398 1.08877 0
M  V30 5687 H 528.203 -1.36496 0.54838 0
M  V30 5688 H 530.161 -4.03921 -1.04422 0
M  V30 5689 H 528.791 -2.93685 -1.33973 0
M  V30 5690 H 527.843 -3.68001 0.963289 0
M  V30 5691 H 529.155 -4.87631 1.04964 0
M  V30 5692 H 528.309 -5.97853 -1.0323 0
M  V30 5693 H 527.048 -4.72541 -1.2065 0
M  V30 5694 H 526.053 -5.40718 0.995219 0
M  V30 5695 H 527.278 -6.69193 1.15573 0
M  V30 5696 H 525.224 -6.47092 -1.07738 0
M  V30 5697 H 525.141 -7.5551 0.272238 0
M  V30 5698 H 526.409 -7.74263 -0.902054 0
M  V30 5699 N 530.638 -0.59345 -1.46 0
M  V30 5700 C 531.57 0.171569 -2.28557 0
M  V30 5701 C 532.583 0.845273 -1.39137 0
M  V30 5702 O 533.772 0.713033 -1.6364 0
M  V30 5703 C 530.872 1.26311 -3.14482 0
M  V30 5704 C 530.045 0.679258 -4.32094 0
M  V30 5705 C 529.104 1.65987 -4.99334 0
M  V30 5706 O 528.13 1.19171 -5.56585 0
M  V30 5707 N 529.332 2.99414 -4.97324 0
M  V30 5708 H 532.097 -0.536771 -2.94854 0
M  V30 5709 H 529.658 -0.431954 -1.56031 0
M  V30 5710 H 531.65 1.91863 -3.5633 0
M  V30 5711 H 530.22 1.87416 -2.50188 0
M  V30 5712 H 529.44 -0.153992 -3.93899 0
M  V30 5713 H 530.728 0.26916 -5.08088 0
M  V30 5714 H 530.126 3.40064 -4.52076 0
M  V30 5715 H 528.683 3.60426 -5.4308 0
M  V30 5716 N 532.116 1.54067 -0.331816 0
M  V30 5717 C 533.046 2.27569 0.522932 0
M  V30 5718 C 534.027 1.28679 1.11247 0
M  V30 5719 O 535.212 1.57504 1.13605 0
M  V30 5720 C 532.342 3.0397 1.67987 0
M  V30 5721 C 531.296 4.10267 1.21924 0
M  V30 5722 C 530.622 4.74555 2.46377 0
M  V30 5723 C 531.922 5.21268 0.32815 0
M  V30 5724 H 533.616 2.99264 -0.0901977 0
M  V30 5725 H 531.162 1.4393 -0.044821 0
M  V30 5726 H 533.115 3.54123 2.28418 0
M  V30 5727 H 531.839 2.29906 2.31971 0
M  V30 5728 H 530.498 3.61009 0.637809 0
M  V30 5729 H 530.146 3.97098 3.08743 0
M  V30 5730 H 529.846 5.46363 2.16243 0
M  V30 5731 H 531.37 5.27487 3.07555 0
M  V30 5732 H 532.784 5.67128 0.838978 0
M  V30 5733 H 531.181 5.99982 0.119228 0
M  V30 5734 H 532.251 4.80673 -0.638839 0
M  V30 5735 N 533.594 0.0601682 1.57485 0
M  V30 5736 C 534.527 -0.94676 2.07634 0
M  V30 5737 C 535.505 -1.29837 0.978826 0
M  V30 5738 O 536.689 -1.40969 1.2514 0
M  V30 5739 C 533.816 -2.25822 2.52433 0
M  V30 5740 C 532.862 -2.05901 3.73507 0
M  V30 5741 S 533.695 -1.32907 5.18745 0
M  V30 5742 C 534.851 -2.65356 5.66866 0
M  V30 5743 H 535.084 -0.520003 2.92717 0
M  V30 5744 H 532.617 -0.152319 1.53647 0
M  V30 5745 H 534.575 -3.01201 2.78905 0
M  V30 5746 H 533.236 -2.65624 1.67639 0
M  V30 5747 H 532.429 -3.02929 4.02803 0
M  V30 5748 H 532.031 -1.38659 3.47347 0
M  V30 5749 H 534.323 -3.61492 5.73001 0
M  V30 5750 H 535.266 -2.40685 6.6594 0
M  V30 5751 H 535.674 -2.72028 4.94632 0
M  V30 5752 N 535.072 -1.5615 -0.213296 0
M  V30 5753 C 536.019 -1.93086 -1.26437 0
M  V30 5754 C 536.989 -0.789086 -1.4616 0
M  V30 5755 O 538.174 -1.04569 -1.59593 0
M  V30 5756 C 535.314 -2.26003 -2.608 0
M  V30 5757 C 534.427 -3.53156 -2.48807 0
M  V30 5758 C 533.562 -3.7548 -3.7575 0
M  V30 5759 C 532.601 -4.96119 -3.58514 0
M  V30 5760 N 531.738 -5.14791 -4.77425 0
M  V30 5761 H 536.578 -2.82707 -0.942376 0
M  V30 5762 H 534.115 -1.39919 -0.454001 0
M  V30 5763 H 536.073 -2.431 -3.39055 0
M  V30 5764 H 534.703 -1.39546 -2.91079 0
M  V30 5765 H 533.755 -3.44207 -1.61944 0
M  V30 5766 H 535.067 -4.41565 -2.31996 0
M  V30 5767 H 534.221 -3.92718 -4.62447 0
M  V30 5768 H 532.96 -2.85368 -3.95495 0
M  V30 5769 H 531.965 -4.78823 -2.70201 0
M  V30 5770 H 533.19 -5.87724 -3.40231 0
M  V30 5771 H 531.136 -4.27623 -4.97468 0
M  V30 5772 H 531.053 -5.97347 -4.63371 0
M  V30 5773 H 532.321 -5.36471 -5.65525 0
M  V30 5774 N 536.55 0.480323 -1.50102 0
M  V30 5775 C 537.796 1.23489 -1.60867 0
M  V30 5776 C 538.129 1.91809 -0.303827 0
M  V30 5777 O 537.404 1.81694 0.694092 0
M  V30 5778 C 537.687 2.28578 -2.78252 0
M  V30 5779 C 537.54 1.64624 -4.18592 0
M  V30 5780 C 538.859 3.2997 -2.91218 0
M  V30 5781 H 535.978 0.447605 -0.585507 0
M  V30 5782 H 538.62 0.530005 -1.82458 0
M  V30 5783 H 536.77 2.88697 -2.59974 0
M  V30 5784 H 538.442 1.08173 -4.48438 0
M  V30 5785 H 536.685 0.949645 -4.23278 0
M  V30 5786 H 537.356 2.40946 -4.96638 0
M  V30 5787 H 539.832 2.79864 -3.07921 0
M  V30 5788 H 538.708 4.00839 -3.74993 0
M  V30 5789 H 538.969 3.93541 -2.0144 0
M  V30 5790 N 538.028 1.39524 0.732853 0
M  V30 5791 C 539.305 1.27373 1.48444 0
M  V30 5792 C 539.685 -0.115725 2.10783 0
M  V30 5793 O 539.033 -1.12713 1.98766 0
M  V30 5794 C 539.243 2.39966 2.53412 0
M  V30 5795 C 540.591 2.79384 3.19733 0
M  V30 5796 O 541.615 2.39431 2.63725 0
M  V30 5797 O 540.474 3.48353 4.21085 0
M  V30 5798 H 537.568 0.499272 0.659285 0
M  V30 5799 H 540.114 1.51403 0.766496 0
M  V30 5800 H 538.886 3.32845 2.05742 0
M  V30 5801 H 538.509 2.17612 3.32762 0
M  V30 5802 N 539.506 -0.963266 1.24736 0
M  V30 5803 C 540.917 -1.52145 1.08207 0
M  V30 5804 C 541.268 -1.93142 -0.345061 0
M  V30 5805 O 540.393 -1.77769 -1.23399 0
M  V30 5806 C 540.988 -2.76486 1.95808 0
M  V30 5807 C 539.547 -3.28646 1.8349 0
M  V30 5808 C 538.694 -2.01529 1.90476 0
M  V30 5809 H 541.645 -0.781083 1.38148 0
M  V30 5810 H 541.666 -3.49986 1.49297 0
M  V30 5811 H 541.178 -2.46617 2.99669 0
M  V30 5812 H 539.279 -3.63357 0.824787 0
M  V30 5813 H 539.392 -3.97246 2.67829 0
M  V30 5814 H 537.756 -2.16442 1.34258 0
M  V30 5815 H 538.539 -1.7402 2.95926 0
M  V30 5816 N 540.985 -1.06182 -1.16461 0
M  V30 5817 C 541.948 -0.675723 -2.19013 0
M  V30 5818 C 542.948 0.277963 -1.58379 0
M  V30 5819 O 544.138 0.0604962 -1.74095 0
M  V30 5820 C 541.27 0.00591459 -3.40899 0
M  V30 5821 H 542.463 -1.58353 -2.54685 0
M  V30 5822 H 540.016 -0.856908 -1.30716 0
M  V30 5823 H 540.751 0.92652 -3.10783 0
M  V30 5824 H 540.536 -0.67984 -3.86161 0
M  V30 5825 H 542.026 0.26181 -4.16778 0
M  V30 5826 N 542.463 1.3308 -0.844243 0
M  V30 5827 C 543.413 2.26589 -0.253289 0
M  V30 5828 C 544.397 1.49501 0.594836 0
M  V30 5829 O 545.589 1.71291 0.445924 0
M  V30 5830 C 542.718 3.38599 0.566176 0
M  V30 5831 C 541.804 4.23081 -0.293756 0
M  V30 5832 N 542.195 4.86751 -1.37505 0
M  V30 5833 C 540.493 4.45925 -0.0817086 0
M  V30 5834 C 541.194 5.49684 -1.90323 0
M  V30 5835 N 540.17 5.30101 -1.20391 0
M  V30 5836 H 543.972 2.73334 -1.08009 0
M  V30 5837 H 541.486 1.47048 -0.689258 0
M  V30 5838 H 543.483 4.04584 1.00587 0
M  V30 5839 H 542.143 2.93401 1.39089 0
M  V30 5840 H 543.154 4.87151 -1.75796 0
M  V30 5841 H 539.831 4.11434 0.709129 0
M  V30 5842 H 541.221 6.10363 -2.80902 0
M  V30 5843 N 543.941 0.601185 1.45683 0
M  V30 5844 C 545.357 0.264315 1.57396 0
M  V30 5845 C 545.557 -1.23324 1.59353 0
M  V30 5846 O 544.613 -2.01594 1.52039 0
M  V30 5847 C 545.926 0.929839 2.85962 0
M  V30 5848 C 547.474 0.905156 2.99626 0
M  V30 5849 C 547.949 1.55057 4.30954 0
M  V30 5850 N 549.44 1.51576 4.37697 0
M  V30 5851 C 550.175 1.98436 5.37969 0
M  V30 5852 N 549.671 2.53352 6.44813 0
M  V30 5853 N 551.464 1.89242 5.29286 0
M  V30 5854 H 543.615 1.57363 1.42656 0
M  V30 5855 H 545.878 0.658831 0.681649 0
M  V30 5856 H 545.584 1.98404 2.90394 0
M  V30 5857 H 545.458 0.449224 3.74515 0
M  V30 5858 H 547.845 -0.14048 2.94765 0
M  V30 5859 H 547.926 1.42397 2.12501 0
M  V30 5860 H 547.57 2.5955 4.36573 0
M  V30 5861 H 547.5 1.00682 5.16886 0
M  V30 5862 H 549.991 1.11452 3.61091 0
M  V30 5863 H 550.304 2.86918 7.17564 0
M  V30 5864 H 548.649 2.57388 6.45582 0
M  V30 5865 H 551.84 1.46083 4.44722 0
M  V30 5866 H 552.013 2.26075 6.07284 0
M  V30 5867 N 545.419 -1.53889 0.339982 0
M  V30 5868 C 546.668 -2.00035 -0.258604 0
M  V30 5869 C 546.981 -1.23179 -1.51942 0
M  V30 5870 O 548.187 -1.59784 -2.19503 0
M  V30 5871 C 546.643 -3.56249 -0.511359 0
M  V30 5872 C 546.251 -4.41957 0.733349 0
M  V30 5873 C 547.995 -4.1082 -1.069 0
M  V30 5874 C 545.902 -5.89673 0.451591 0
M  V30 5875 H 544.832 -0.747284 -0.10041 0
M  V30 5876 H 547.483 -1.77776 0.454758 0
M  V30 5877 H 545.865 -3.7456 -1.28533 0
M  V30 5878 H 547.039 -4.35421 1.50815 0
M  V30 5879 H 545.354 -3.9836 1.21237 0
M  V30 5880 H 547.951 -5.18789 -1.2947 0
M  V30 5881 H 548.294 -3.63817 -2.02343 0
M  V30 5882 H 548.827 -3.96205 -0.355817 0
M  V30 5883 H 545.566 -6.40903 1.37565 0
M  V30 5884 H 545.086 -5.99122 -0.285193 0
M  V30 5885 H 546.765 -6.46965 0.0675067 0
M  V30 5886 N 546.897 -0.0685191 -1.57451 0
M  V30 5887 C 548.125 0.610462 -1.97689 0
M  V30 5888 C 548.54 1.63346 -0.946758 0
M  V30 5889 O 547.897 1.82377 0.0669868 0
M  V30 5890 C 547.948 1.28196 -3.38006 0
M  V30 5891 O 547.669 0.299906 -4.37072 0
M  V30 5892 C 549.17 2.04907 -3.931 0
M  V30 5893 H 546.39 0.165689 -0.650222 0
M  V30 5894 H 548.934 -0.139953 -2.04021 0
M  V30 5895 H 547.089 1.98348 -3.32771 0
M  V30 5896 H 547.503 0.78126 -5.18649 0
M  V30 5897 H 548.977 2.47287 -4.93511 0
M  V30 5898 H 549.454 2.9043 -3.29465 0
M  V30 5899 H 550.06 1.39629 -4.01726 0
M  V30 5900 N 548.375 1.56261 0.205012 0
M  V30 5901 C 549.338 1.92908 1.23771 0
M  V30 5902 C 550.338 0.809208 1.38955 0
M  V30 5903 O 551.528 1.07676 1.36936 0
M  V30 5904 C 548.66 2.19442 2.60879 0
M  V30 5905 H 549.853 2.85287 0.924728 0
M  V30 5906 H 547.406 1.49798 0.446125 0
M  V30 5907 H 548.141 1.29668 2.97248 0
M  V30 5908 H 547.926 3.0104 2.51232 0
M  V30 5909 H 549.416 2.48833 3.35368 0
M  V30 5910 N 549.853 -0.472356 1.50355 0
M  V30 5911 C 550.8 -1.57051 1.69126 0
M  V30 5912 C 551.77 -1.5733 0.532574 0
M  V30 5913 O 552.955 -1.7488 0.762994 0
M  V30 5914 C 550.095 -2.95033 1.79024 0
M  V30 5915 C 549.208 -3.04552 3.06386 0
M  V30 5916 C 548.343 -4.33441 3.07087 0
M  V30 5917 C 547.382 -4.36697 4.28908 0
M  V30 5918 N 546.519 -5.57056 4.27356 0
M  V30 5919 H 551.359 -1.40351 2.62879 0
M  V30 5920 H 548.896 -0.682403 1.30314 0
M  V30 5921 H 550.854 -3.75048 1.82744 0
M  V30 5922 H 549.484 -3.10371 0.887109 0
M  V30 5923 H 548.536 -2.17419 3.12143 0
M  V30 5924 H 549.848 -3.02818 3.96362 0
M  V30 5925 H 549.002 -5.21801 3.09529 0
M  V30 5926 H 547.741 -4.37782 2.14939 0
M  V30 5927 H 546.746 -3.46734 4.2668 0
M  V30 5928 H 547.971 -4.34049 5.22282 0
M  V30 5929 H 545.917 -5.62184 3.3806 0
M  V30 5930 H 545.834 -5.57058 5.111 0
M  V30 5931 H 547.102 -6.47545 4.33942 0
M  V30 5932 N 551.331 -1.39911 -0.725443 0
M  V30 5933 C 552.241 -1.41688 -1.8698 0
M  V30 5934 C 553.257 -0.310579 -1.71206 0
M  V30 5935 O 554.433 -0.55359 -1.93642 0
M  V30 5936 C 551.498 -1.26811 -3.22676 0
M  V30 5937 C 550.559 -2.47497 -3.50776 0
M  V30 5938 C 549.792 -2.3332 -4.79997 0
M  V30 5939 O 550.015 -1.34175 -5.54394 0
M  V30 5940 O 548.949 -3.22498 -5.08211 0
M  V30 5941 H 552.775 -2.38171 -1.88436 0
M  V30 5942 H 550.36 -1.21128 -0.874548 0
M  V30 5943 H 552.242 -1.20684 -4.03749 0
M  V30 5944 H 550.917 -0.334289 -3.21969 0
M  V30 5945 H 549.824 -2.59201 -2.69751 0
M  V30 5946 H 551.157 -3.39606 -3.5627 0
M  V30 5947 N 552.809 0.956637 -1.25245 0
M  V30 5948 C 553.739 2.07058 -1.07931 0
M  V30 5949 C 554.72 1.70096 0.0110361 0
M  V30 5950 O 555.905 1.93555 -0.158121 0
M  V30 5951 C 553.035 3.40272 -0.695124 0
M  V30 5952 C 551.989 3.91235 -1.73549 0
M  V30 5953 C 551.315 5.20921 -1.20604 0
M  V30 5954 C 552.615 4.17837 -3.13385 0
M  V30 5955 H 554.309 2.218 -2.01109 0
M  V30 5956 H 551.855 1.06581 -0.968326 0
M  V30 5957 H 553.808 4.1765 -0.560949 0
M  V30 5958 H 552.532 3.25462 0.272355 0
M  V30 5959 H 551.191 3.16025 -1.85807 0
M  V30 5960 H 550.839 5.02479 -0.228846 0
M  V30 5961 H 550.539 5.55987 -1.90136 0
M  V30 5962 H 552.063 6.00897 -1.08421 0
M  V30 5963 H 553.477 4.8588 -3.04292 0
M  V30 5964 H 551.874 4.64154 -3.80369 0
M  V30 5965 H 552.944 3.2419 -3.60595 0
M  V30 5966 N 554.287 1.06798 1.15896 0
M  V30 5967 C 555.217 0.704677 2.22613 0
M  V30 5968 C 556.198 -0.305252 1.67339 0
M  V30 5969 O 557.383 -0.179247 1.93371 0
M  V30 5970 C 554.513 0.0957325 3.47168 0
M  V30 5971 C 553.467 1.0322 4.15367 0
M  V30 5972 C 552.793 0.286293 5.33933 0
M  V30 5973 C 554.093 2.36341 4.65768 0
M  V30 5974 H 555.787 1.59688 2.53259 0
M  V30 5975 H 553.333 0.769257 1.21731 0
M  V30 5976 H 555.286 -0.170333 4.21056 0
M  V30 5977 H 554.01 -0.831516 3.15838 0
M  V30 5978 H 552.669 1.28309 3.43413 0
M  V30 5979 H 552.317 -0.644237 4.98857 0
M  V30 5980 H 552.017 0.910436 5.80504 0
M  V30 5981 H 553.541 0.0278938 6.10594 0
M  V30 5982 H 554.955 2.1561 5.31211 0
M  V30 5983 H 553.352 2.94299 5.2298 0
M  V30 5984 H 554.422 2.99047 3.81705 0
M  V30 5985 N 555.766 -1.3263 0.851289 0
M  V30 5986 C 557.043 -1.91982 0.374448 0
M  V30 5987 C 557.423 -1.77568 -1.14161 0
M  V30 5988 O 556.771 -1.1717 -1.96172 0
M  V30 5989 C 556.981 -3.38862 0.835088 0
M  V30 5990 C 558.329 -4.15999 0.850309 0
M  V30 5991 O 559.353 -3.47566 0.779505 0
M  V30 5992 O 558.212 -5.38189 0.949481 0
M  V30 5993 H 555.306 -0.819846 0.10854 0
M  V30 5994 H 557.852 -1.41422 0.937966 0
M  V30 5995 H 556.624 -3.43281 1.87814 0
M  V30 5996 H 556.247 -3.96821 0.248833 0
M  V30 5997 N 557.244 -0.608902 -1.45362 0
M  V30 5998 C 558.192 0.121639 -2.32282 0
M  V30 5999 C 559.186 0.858301 -1.46046 0
M  V30 6000 O 560.392 0.773718 -1.62523 0
M  V30 6001 H 556.767 0.058086 -0.749753 0
M  V30 6002 H 558.738 -0.629866 -2.91677 0
M  V30 6003 C 557.487 1.1047 -3.29684 0
M  V30 6004 H 556.81 0.547278 -3.96036 0
M  V30 6005 H 558.25 1.58576 -3.9323 0
M  V30 6006 C 556.709 2.17891 -2.56954 0
M  V30 6007 O 557.239 3.25652 -2.35189 0
M  V30 6008 N 555.445 1.93211 -2.17066 0
M  V30 6009 H 554.992 1.05584 -2.34967 0
M  V30 6010 H 554.95 2.6529 -1.68727 0
M  V30 6011 N 558.722 1.53707 -0.348139 0
M  V30 6012 C 559.654 2.22725 0.540946 0
M  V30 6013 C 560.667 1.2354 1.06027 0
M  V30 6014 O 561.856 1.49867 0.96964 0
M  V30 6015 C 558.956 2.89756 1.75768 0
M  V30 6016 C 558.129 4.15297 1.37285 0
M  V30 6017 C 557.188 4.65697 2.44976 0
M  V30 6018 O 556.214 5.29798 2.08092 0
M  V30 6019 N 557.416 4.42017 3.763 0
M  V30 6020 H 560.181 2.99658 -0.0501592 0
M  V30 6021 H 557.742 1.60979 -0.17248 0
M  V30 6022 H 559.734 3.20388 2.47252 0
M  V30 6023 H 558.304 2.16382 2.25605 0
M  V30 6024 H 557.524 3.9116 0.488584 0
M  V30 6025 H 558.812 4.96948 1.09179 0
M  V30 6026 H 558.21 3.9076 4.09051 0
M  V30 6027 H 556.767 4.77242 4.4394 0
M  V30 6028 N 560.2 0.0768682 1.57412 0
M  V30 6029 C 561.446 -0.585926 1.94778 0
M  V30 6030 C 561.801 -1.66912 0.956982 0
M  V30 6031 O 561.094 -1.9159 -0.0199454 0
M  V30 6032 C 561.288 -1.20268 3.36557 0
M  V30 6033 C 561.117 -0.18076 4.49337 0
M  V30 6034 C 559.887 0.236362 5.04747 0
M  V30 6035 C 562.085 0.583978 5.10974 0
M  V30 6036 N 560.067 1.24846 6.01071 0
M  V30 6037 C 561.438 1.44841 6.02844 0
M  V30 6038 C 563.493 0.639492 4.93776 0
M  V30 6039 C 562.196 2.36343 6.79363 0
M  V30 6040 C 564.222 1.54204 5.70942 0
M  V30 6041 C 563.584 2.39414 6.62465 0
M  V30 6042 H 559.683 -0.185281 0.759734 0
M  V30 6043 H 562.267 0.155193 1.9408 0
M  V30 6044 H 560.438 -1.9137 3.37982 0
M  V30 6045 H 562.17 -1.82636 3.61146 0
M  V30 6046 H 558.925 -0.14777 4.73369 0
M  V30 6047 H 559.349 1.75217 6.53933 0
M  V30 6048 H 563.991 -0.00510074 4.228 0
M  V30 6049 H 561.709 3.01836 7.49614 0
M  V30 6050 H 565.295 1.5899 5.59655 0
M  V30 6051 H 564.175 3.0812 7.21132 0
M  V30 6052 N 561.678 -1.56367 -0.196722 0
M  V30 6053 C 562.608 -1.97442 -1.24655 0
M  V30 6054 C 563.589 -0.846147 -1.47561 0
M  V30 6055 O 564.774 -1.11035 -1.59326 0
M  V30 6056 C 561.904 -2.31253 -2.59112 0
M  V30 6057 C 560.858 -3.46804 -2.50821 0
M  V30 6058 C 560.184 -3.66286 -3.89536 0
M  V30 6059 C 561.484 -4.8104 -2.03465 0
M  V30 6060 H 563.178 -2.85388 -0.905216 0
M  V30 6061 H 560.724 -1.37304 -0.434002 0
M  V30 6062 H 562.677 -2.58583 -3.32736 0
M  V30 6063 H 561.401 -1.40188 -2.94983 0
M  V30 6064 H 560.06 -3.19563 -1.79653 0
M  V30 6065 H 559.708 -2.72555 -4.22756 0
M  V30 6066 H 559.408 -4.4402 -3.84864 0
M  V30 6067 H 560.932 -3.9599 -4.64784 0
M  V30 6068 H 562.346 -5.07411 -2.66846 0
M  V30 6069 H 560.743 -5.62232 -2.09798 0
M  V30 6070 H 561.813 -4.74732 -0.98781 0
M  V30 6071 N 563.156 0.464375 -1.50603 0
M  V30 6072 C 564.384 1.23907 -1.65695 0
M  V30 6073 C 564.799 1.85658 -0.343027 0
M  V30 6074 O 564.156 1.69529 0.675739 0
M  V30 6075 C 564.207 2.3429 -2.75301 0
M  V30 6076 O 563.928 1.7507 -4.01599 0
M  V30 6077 C 565.429 3.25051 -3.01424 0
M  V30 6078 H 562.649 0.374485 -0.556778 0
M  V30 6079 H 565.193 0.55353 -1.96866 0
M  V30 6080 H 563.348 2.98607 -2.46804 0
M  V30 6081 H 563.762 2.47812 -4.62266 0
M  V30 6082 H 565.236 3.98699 -3.81763 0
M  V30 6083 H 565.713 3.84227 -2.12758 0
M  V30 6084 H 566.319 2.66463 -3.31477 0
M  V30 6085 N 564.634 1.40294 0.718013 0
M  V30 6086 C 565.882 1.38167 1.47494 0
M  V30 6087 C 566.203 -0.01607 1.94993 0
M  V30 6088 O 565.473 -0.970396 1.70177 0
M  V30 6089 H 564.053 0.508505 0.547203 0
M  V30 6090 H 566.715 1.75324 0.851322 0
M  V30 6091 H 565.811 2.05503 2.34894 0
M  V30 6092 N 566.112 -0.949982 1.2575 0
M  V30 6093 C 567.06 -2.06869 1.06339 0
M  V30 6094 C 568.054 -1.69399 -0.00708901 0
M  V30 6095 O 569.26 -1.79383 0.148897 0
M  V30 6096 H 565.635 -0.677197 0.326969 0
M  V30 6097 H 567.606 -2.20396 2.01167 0
M  V30 6098 C 566.355 -3.40503 0.703769 0
M  V30 6099 H 565.678 -3.69807 1.51931 0
M  V30 6100 H 567.118 -4.19623 0.607677 0
M  V30 6101 C 565.577 -3.31685 -0.5905 0
M  V30 6102 O 566.107 -3.67085 -1.63131 0
M  V30 6103 N 564.313 -2.84797 -0.577859 0
M  V30 6104 H 563.86 -2.56186 0.26951 0
M  V30 6105 H 563.818 -2.79279 -1.44398 0
M  V30 6106 N 567.59 -1.07411 -1.15328 0
M  V30 6107 C 568.537 -0.694995 -2.20087 0
M  V30 6108 C 569.507 0.313904 -1.63107 0
M  V30 6109 O 570.692 0.200216 -1.89747 0
M  V30 6110 C 567.832 -0.0996218 -3.44956 0
M  V30 6111 C 566.945 -1.16007 -4.16133 0
M  V30 6112 C 566.08 -0.529636 -5.28553 0
M  V30 6113 C 565.119 -1.57283 -5.91548 0
M  V30 6114 N 564.256 -0.964932 -6.95438 0
M  V30 6115 H 569.096 -1.5927 -2.51867 0
M  V30 6116 H 566.633 -0.796115 -1.23695 0
M  V30 6117 H 568.591 0.263197 -4.16369 0
M  V30 6118 H 567.221 0.761435 -3.13691 0
M  V30 6119 H 566.273 -1.64045 -3.4321 0
M  V30 6120 H 567.585 -1.95101 -4.59061 0
M  V30 6121 H 566.739 -0.114487 -6.06592 0
M  V30 6122 H 565.478 0.29307 -4.86819 0
M  V30 6123 H 564.483 -1.99775 -5.12221 0
M  V30 6124 H 565.708 -2.39783 -6.35359 0
M  V30 6125 H 563.654 -0.16314 -6.55797 0
M  V30 6126 H 563.571 -1.69311 -7.36797 0
M  V30 6127 H 564.839 -0.575305 -7.77374 0
M  V30 6128 N 569.068 1.32177 -0.85831 0
M  V30 6129 C 569.998 2.31282 -0.321041 0
M  V30 6130 C 570.979 1.59841 0.581786 0
M  V30 6131 O 572.164 1.87619 0.501262 0
M  V30 6132 C 569.294 3.4385 0.48832 0
M  V30 6133 C 568.248 4.26799 -0.320391 0
M  V30 6134 C 567.574 5.31164 0.613934 0
M  V30 6135 C 568.874 4.98829 -1.54813 0
M  V30 6136 H 570.568 2.76469 -1.14915 0
M  V30 6137 H 568.114 1.32916 -0.554028 0
M  V30 6138 H 570.067 4.12224 0.874626 0
M  V30 6139 H 568.791 2.97401 1.34983 0
M  V30 6140 H 567.45 3.60077 -0.688497 0
M  V30 6141 H 567.098 4.80967 1.47239 0
M  V30 6142 H 566.798 5.8755 0.0768097 0
M  V30 6143 H 568.322 6.024 0.997336 0
M  V30 6144 H 569.736 5.59864 -1.23392 0
M  V30 6145 H 568.133 5.64957 -2.02346 0
M  V30 6146 H 569.203 4.26483 -2.30739 0
M  V30 6147 N 570.547 0.616602 1.45037 0
M  V30 6148 C 571.772 0.120192 2.07051 0
M  V30 6149 C 572.197 -1.19008 1.45666 0
M  V30 6150 O 571.555 -1.7267 0.552692 0
M  V30 6151 C 571.603 0.00354901 3.606 0
M  V30 6152 O 570.707 -1.04431 3.98958 0
M  V30 6153 H 570.048 0.0781599 0.659384 0
M  V30 6154 H 572.578 0.849167 1.86146 0
M  V30 6155 H 572.588 -0.191754 4.07549 0
M  V30 6156 H 571.263 0.960239 4.04663 0
M  V30 6157 H 569.84 -0.824749 3.63665 0
M  V30 6158 N 572.025 -1.5352 0.356285 0
M  V30 6159 C 573.25 -2.06007 -0.239961 0
M  V30 6160 C 573.675 -1.22872 -1.42422 0
M  V30 6161 O 573.033 -0.245516 -1.7963 0
M  V30 6162 C 573.081 -3.5522 -0.620587 0
M  V30 6163 O 572.185 -3.74864 -1.71902 0
M  V30 6164 H 571.526 -0.662961 -0.0371377 0
M  V30 6165 H 574.056 -1.98033 0.514194 0
M  V30 6166 H 574.066 -3.98081 -0.894197 0
M  V30 6167 H 572.741 -4.15175 0.245407 0
M  V30 6168 H 571.318 -3.43904 -1.44169 0
M  V30 6169 N 573.503 -0.0852151 -1.57369 0
M  V30 6170 C 574.749 0.581666 -1.94279 0
M  V30 6171 C 575.082 1.68444 -0.966446 0
M  V30 6172 O 574.357 1.945 0.00215277 0
M  V30 6173 C 574.64 1.14609 -3.41375 0
M  V30 6174 C 574.493 0.0490414 -4.49773 0
M  V30 6175 C 575.812 2.04751 -3.8957 0
M  V30 6176 H 572.931 0.209972 -0.706456 0
M  V30 6177 H 575.573 -0.153915 -1.89376 0
M  V30 6178 H 573.723 1.77297 -3.45685 0
M  V30 6179 H 575.395 -0.584721 -4.57579 0
M  V30 6180 H 573.638 -0.618638 -4.29366 0
M  V30 6181 H 574.309 0.484601 -5.49869 0
M  V30 6182 H 576.785 1.51981 -3.87351 0
M  V30 6183 H 575.661 2.41173 -4.93079 0
M  V30 6184 H 575.922 2.96107 -3.28288 0
M  V30 6185 N 574.981 1.5647 0.188427 0
M  V30 6186 C 576.397 1.50204 0.539532 0
M  V30 6187 C 576.597 0.78644 1.85519 0
M  V30 6188 O 575.653 0.339714 2.50204 0
M  V30 6189 C 576.966 2.94893 0.588103 0
M  V30 6190 C 578.514 3.05602 0.67648 0
M  V30 6191 C 578.989 4.51716 0.756101 0
M  V30 6192 N 580.48 4.55894 0.819451 0
M  V30 6193 C 581.215 5.66272 0.90134 0
M  V30 6194 N 580.711 6.86323 0.945118 0
M  V30 6195 N 582.504 5.54201 0.939043 0
M  V30 6196 H 574.655 2.01406 -0.674493 0
M  V30 6197 H 576.918 0.916828 -0.241103 0
M  V30 6198 H 576.624 3.50334 -0.309633 0
M  V30 6199 H 576.498 3.4861 1.44051 0
M  V30 6200 H 578.885 2.50206 1.56465 0
M  V30 6201 H 578.966 2.54999 -0.202262 0
M  V30 6202 H 578.61 5.07739 -0.12774 0
M  V30 6203 H 578.54 5.00058 1.65074 0
M  V30 6204 H 581.031 3.69452 0.794594 0
M  V30 6205 H 581.344 7.66194 1.0083 0
M  V30 6206 H 579.689 6.88968 0.913683 0
M  V30 6207 H 582.88 4.59333 0.901725 0
M  V30 6208 H 583.053 6.40247 0.999402 0
M  V30 6209 N 576.459 -0.456382 1.50847 0
M  V30 6210 C 577.87 -1.03685 1.55262 0
M  V30 6211 C 578.221 -1.92779 0.364771 0
M  V30 6212 O 577.346 -2.10043 -0.52068 0
M  V30 6213 C 577.941 -1.88718 2.81374 0
M  V30 6214 C 576.5 -2.41847 2.88422 0
M  V30 6215 C 575.647 -1.20564 2.49719 0
M  V30 6216 H 578.598 -0.238399 1.56899 0
M  V30 6217 H 578.619 -2.73957 2.6406 0
M  V30 6218 H 578.131 -1.23847 3.67809 0
M  V30 6219 H 576.232 -3.10228 2.06372 0
M  V30 6220 H 576.345 -2.75947 3.9165 0
M  V30 6221 H 574.709 -1.54504 2.02486 0
M  V30 6222 H 575.492 -0.573326 3.38479 0
M  V30 6223 N 577.937 -1.40673 -0.710563 0
M  V30 6224 C 579.165 -1.42547 -1.4996 0
M  V30 6225 C 579.58 -0.0265485 -1.88781 0
M  V30 6226 O 578.937 0.950694 -1.55782 0
M  V30 6227 C 578.988 -2.32071 -2.77173 0
M  V30 6228 O 578.709 -3.66518 -2.39992 0
M  V30 6229 C 580.21 -2.42591 -3.71032 0
M  V30 6230 H 577.43 -0.486025 -0.462623 0
M  V30 6231 H 579.974 -1.84783 -0.876102 0
M  V30 6232 H 578.129 -1.93184 -3.35795 0
M  V30 6233 H 578.543 -4.14115 -3.21884 0
M  V30 6234 H 580.017 -3.09429 -4.57119 0
M  V30 6235 H 580.494 -1.4525 -4.14486 0
M  V30 6236 H 581.1 -2.82051 -3.18319 0
M  V30 6237 N 579.415 0.9433 -1.26252 0
M  V30 6238 C 580.363 2.06302 -1.07434 0
M  V30 6239 C 581.357 1.694 -0.00189471 0
M  V30 6240 O 582.563 1.79302 -0.158408 0
M  V30 6241 H 578.938 0.675453 -0.330556 0
M  V30 6242 H 580.909 2.19326 -2.02333 0
M  V30 6243 C 579.658 3.40125 -0.721817 0
M  V30 6244 H 578.981 3.68996 -1.5389 0
M  V30 6245 H 580.421 4.19295 -0.629922 0
M  V30 6246 C 578.88 3.31993 0.572902 0
M  V30 6247 O 579.41 3.67945 1.61182 0
M  V30 6248 N 577.616 2.85099 0.562748 0
M  V30 6249 H 577.163 2.5604 -0.283092 0
M  V30 6250 H 577.121 2.80041 1.42915 0
M  V30 6251 N 580.893 1.08022 1.14757 0
M  V30 6252 C 582.139 0.808705 1.85978 0
M  V30 6253 C 582.472 -0.663764 1.82504 0
M  V30 6254 O 581.747 -1.48765 1.25296 0
M  V30 6255 C 582.03 1.32623 3.34788 0
M  V30 6256 C 581.883 2.86375 3.46856 0
M  V30 6257 C 583.202 0.948291 4.29762 0
M  V30 6258 H 580.321 0.295244 0.675278 0
M  V30 6259 H 582.963 1.33917 1.34783 0
M  V30 6260 H 581.113 0.875002 3.78518 0
M  V30 6261 H 582.785 3.39839 3.11941 0
M  V30 6262 H 581.028 3.24232 2.88194 0
M  V30 6263 H 581.699 3.17658 4.51439 0
M  V30 6264 H 584.175 1.33722 3.94028 0
M  V30 6265 H 583.051 1.33765 5.32352 0
M  V30 6266 H 583.312 -0.145094 4.41862 0
M  V30 6267 N 582.371 -1.3172 0.865308 0
M  V30 6268 C 583.301 -2.31109 0.333302 0
M  V30 6269 C 584.282 -1.60148 -0.573301 0
M  V30 6270 O 585.467 -1.87882 -0.491305 0
M  V30 6271 C 582.597 -3.44104 -0.470078 0
M  V30 6272 C 581.551 -4.26623 0.343021 0
M  V30 6273 C 580.877 -5.31482 -0.585756 0
M  V30 6274 C 582.177 -4.98001 1.57456 0
M  V30 6275 H 583.871 -2.75855 1.1638 0
M  V30 6276 H 581.417 -1.3262 0.561069 0
M  V30 6277 H 583.37 -4.12682 -0.852752 0
M  V30 6278 H 582.094 -2.98112 -1.33404 0
M  V30 6279 H 580.753 -3.59707 0.707583 0
M  V30 6280 H 580.401 -4.81741 -1.44686 0
M  V30 6281 H 580.101 -5.87582 -0.0456494 0
M  V30 6282 H 581.625 -6.0292 -0.965375 0
M  V30 6283 H 583.039 -5.59201 1.26359 0
M  V30 6284 H 581.436 -5.63876 2.05339 0
M  V30 6285 H 582.506 -4.25253 2.32997 0
M  V30 6286 N 583.85 -0.624285 -1.44708 0
M  V30 6287 C 584.76 0.0861083 -2.34442 0
M  V30 6288 C 585.776 0.84291 -1.5222 0
M  V30 6289 O 586.952 0.796723 -1.84971 0
M  V30 6290 C 584.017 1.05999 -3.30099 0
M  V30 6291 C 583.077 0.303316 -4.28227 0
M  V30 6292 C 582.311 1.23081 -5.19314 0
M  V30 6293 O 582.534 2.46929 -5.14181 0
M  V30 6294 O 581.468 0.71883 -5.97592 0
M  V30 6295 H 585.293 -0.651756 -2.96624 0
M  V30 6296 H 582.879 -0.384493 -1.44368 0
M  V30 6297 H 584.76 1.62046 -3.88997 0
M  V30 6298 H 583.436 1.77859 -2.70459 0
M  V30 6299 H 582.343 -0.300033 -3.72895 0
M  V30 6300 H 583.676 -0.375123 -4.90768 0
M  V30 6301 N 585.328 1.53329 -0.364422 0
M  V30 6302 C 586.261 2.22052 0.526145 0
M  V30 6303 C 587.239 1.21203 1.08391 0
M  V30 6304 O 588.423 1.50101 1.14026 0
M  V30 6305 C 585.55 2.91432 1.72583 0
M  V30 6306 C 584.596 4.06345 1.29562 0
M  V30 6307 S 585.429 5.34671 0.297885 0
M  V30 6308 C 586.585 6.07563 1.50392 0
M  V30 6309 H 586.818 2.97244 -0.0575055 0
M  V30 6310 H 584.351 1.53684 -0.148525 0
M  V30 6311 H 586.309 3.3202 2.41398 0
M  V30 6312 H 584.97 2.15966 2.28073 0
M  V30 6313 H 584.163 4.53901 2.19067 0
M  V30 6314 H 583.765 3.67642 0.686696 0
M  V30 6315 H 586.057 6.32224 2.43513 0
M  V30 6316 H 587 6.99973 1.06977 0
M  V30 6317 H 587.408 5.37994 1.70945 0
M  V30 6318 N 586.806 0.0935595 1.57322 0
M  V30 6319 C 587.739 -0.902505 2.09595 0
M  V30 6320 C 588.717 -1.27732 1.00615 0
M  V30 6321 O 589.901 -1.38283 1.28102 0
M  V30 6322 C 587.028 -2.20416 2.57166 0
M  V30 6323 C 586.074 -1.97932 3.7779 0
M  V30 6324 S 586.907 -1.21873 5.21447 0
M  V30 6325 C 588.063 -2.53273 5.72367 0
M  V30 6326 H 588.296 -0.457797 2.93754 0
M  V30 6327 H 585.829 -0.119694 1.53935 0
M  V30 6328 H 587.787 -2.95217 2.85232 0
M  V30 6329 H 586.448 -2.62008 1.73235 0
M  V30 6330 H 585.641 -2.94316 4.09138 0
M  V30 6331 H 585.243 -1.3126 3.5021 0
M  V30 6332 H 587.535 -3.49256 5.8054 0
M  V30 6333 H 588.478 -2.26505 6.70896 0
M  V30 6334 H 588.886 -2.61475 5.00291 0
M  V30 6335 N 588.284 -1.56567 -0.180126 0
M  V30 6336 C 589.231 -1.95725 -1.22313 0
M  V30 6337 C 590.201 -0.819911 -1.44453 0
M  V30 6338 O 591.386 -1.07931 -1.57339 0
M  V30 6339 C 588.526 -2.31484 -2.55947 0
M  V30 6340 C 587.639 -3.58354 -2.4126 0
M  V30 6341 C 586.774 -3.83366 -3.67701 0
M  V30 6342 C 585.813 -5.03612 -3.47909 0
M  V30 6343 N 584.95 -5.24802 -4.66398 0
M  V30 6344 H 589.79 -2.84642 -0.882198 0
M  V30 6345 H 587.327 -1.4085 -0.42422 0
M  V30 6346 H 589.285 -2.50237 -3.33822 0
M  V30 6347 H 587.915 -1.45689 -2.88053 0
M  V30 6348 H 586.967 -3.47565 -1.54606 0
M  V30 6349 H 588.279 -4.46386 -2.22577 0
M  V30 6350 H 587.433 -4.02439 -4.54013 0
M  V30 6351 H 586.172 -2.93692 -3.89353 0
M  V30 6352 H 585.177 -4.84447 -2.59983 0
M  V30 6353 H 586.402 -5.94809 -3.27688 0
M  V30 6354 H 584.348 -4.38079 -4.88286 0
M  V30 6355 H 584.265 -6.07041 -4.50596 0
M  V30 6356 H 585.533 -5.48346 -5.54019 0
M  V30 6357 N 589.762 0.448376 -1.51087 0
M  V30 6358 C 590.672 1.56882 -1.74428 0
M  V30 6359 C 591.688 1.62268 -0.62809 0
M  V30 6360 O 592.864 1.79716 -0.909075 0
M  V30 6361 C 589.929 2.92947 -1.85426 0
M  V30 6362 C 588.99 2.97766 -3.09247 0
M  V30 6363 C 588.223 4.27341 -3.19711 0
M  V30 6364 O 588.446 5.19112 -2.36387 0
M  V30 6365 O 587.38 4.38219 -4.12611 0
M  V30 6366 H 591.206 1.40104 -2.69452 0
M  V30 6367 H 588.791 0.630247 -1.35456 0
M  V30 6368 H 590.673 3.73719 -1.94709 0
M  V30 6369 H 589.348 3.09876 -0.935887 0
M  V30 6370 H 588.255 2.15989 -3.0545 0
M  V30 6371 H 589.588 2.8578 -4.00738 0
M  V30 6372 N 591.24 1.41047 0.703093 0
M  V30 6373 C 592.486 1.41209 1.46396 0
M  V30 6374 C 592.841 0.0180188 1.92392 0
M  V30 6375 O 592.134 -0.954739 1.66118 0
M  V30 6376 C 592.328 2.34686 2.6955 0
M  V30 6377 C 592.157 3.83044 2.35601 0
M  V30 6378 C 590.927 4.51777 2.26331 0
M  V30 6379 C 593.125 4.74215 1.9906 0
M  V30 6380 N 591.107 5.85302 1.85188 0
M  V30 6381 C 592.478 5.96631 1.68616 0
M  V30 6382 C 594.533 4.61932 1.85805 0
M  V30 6383 C 593.236 7.08134 1.26249 0
M  V30 6384 C 595.262 5.73389 1.44842 0
M  V30 6385 C 594.624 6.94899 1.15304 0
M  V30 6386 H 590.723 0.571951 0.533288 0
M  V30 6387 H 593.307 1.76859 0.814179 0
M  V30 6388 H 591.478 2.01143 3.32259 0
M  V30 6389 H 593.21 2.25618 3.35974 0
M  V30 6390 H 589.965 4.05618 2.44482 0
M  V30 6391 H 590.389 6.56049 1.67119 0
M  V30 6392 H 595.031 3.68494 2.07298 0
M  V30 6393 H 592.749 8.01445 1.035 0
M  V30 6394 H 596.335 5.65886 1.35146 0
M  V30 6395 H 595.215 7.79679 0.840854 0
M  V30 6396 N 592.718 -0.936591 1.26751 0
M  V30 6397 C 593.665 -2.03597 1.08706 0
M  V30 6398 C 594.635 -1.66097 -0.00926542 0
M  V30 6399 O 595.82 -1.90199 0.151377 0
M  V30 6400 C 592.96 -3.3727 0.73094 0
M  V30 6401 C 592.073 -3.87778 1.90399 0
M  V30 6402 C 591.208 -5.09859 1.49056 0
M  V30 6403 C 590.247 -5.5264 2.63164 0
M  V30 6404 N 589.384 -6.65921 2.22471 0
M  V30 6405 H 594.224 -2.18364 2.02784 0
M  V30 6406 H 591.761 -1.06985 1.00958 0
M  V30 6407 H 593.719 -4.14128 0.505328 0
M  V30 6408 H 592.349 -3.22337 -0.172868 0
M  V30 6409 H 591.401 -3.07279 2.2424 0
M  V30 6410 H 592.713 -4.15464 2.76028 0
M  V30 6411 H 591.867 -5.9419 1.22567 0
M  V30 6412 H 590.606 -4.8393 0.60524 0
M  V30 6413 H 589.611 -4.66863 2.90377 0
M  V30 6414 H 590.836 -5.80568 3.52303 0
M  V30 6415 H 588.782 -6.41667 1.36379 0
M  V30 6416 H 588.699 -6.93216 3.01641 0
M  V30 6417 H 589.967 -7.53616 1.99205 0
M  V30 6418 N 594.196 -1.08629 -1.14182 0
M  V30 6419 C 595.144 -0.71284 -2.21408 0
M  V30 6420 C 596.138 0.282457 -1.67029 0
M  V30 6421 O 597.344 0.144783 -1.79417 0
M  V30 6422 H 593.719 -0.212497 -0.721352 0
M  V30 6423 H 595.69 -1.6265 -2.50175 0
M  V30 6424 C 594.439 -0.140704 -3.47415 0
M  V30 6425 H 593.762 -0.897739 -3.8959 0
M  V30 6426 H 595.202 0.0827677 -4.23919 0
M  V30 6427 C 593.661 1.122 -3.17668 0
M  V30 6428 O 594.191 2.20652 -3.35672 0
M  V30 6429 N 592.397 1.03328 -2.71609 0
M  V30 6430 H 591.944 0.150666 -2.57159 0
M  V30 6431 H 591.902 1.8789 -2.52081 0
M  V30 6432 N 595.674 1.31259 -0.872281 0
M  V30 6433 C 596.622 2.30404 -0.318897 0
M  V30 6434 C 597.616 1.5962 0.567267 0
M  V30 6435 O 598.822 1.74204 0.453111 0
M  V30 6436 H 595.197 0.747243 -0.0844474 0
M  V30 6437 H 597.168 2.74549 -1.16899 0
M  V30 6438 C 595.917 3.44608 0.462683 0
M  V30 6439 H 595.24 3.99248 -0.209936 0
M  V30 6440 H 596.68 4.1609 0.815187 0
M  V30 6441 C 595.139 2.93456 1.65485 0
M  V30 6442 O 595.669 2.92418 2.75417 0
M  V30 6443 N 593.875 2.49628 1.48776 0
M  V30 6444 H 593.422 2.50671 0.593452 0
M  V30 6445 H 593.38 2.15759 2.28682 0
M  V30 6446 N 597.152 0.631951 1.44375 0
M  V30 6447 C 598.563 0.219036 1.85411 0
M  V30 6448 C 598.914 -1.22974 1.52879 0
M  V30 6449 O 598.039 -1.93579 0.967266 0
M  V30 6450 C 598.634 0.39075 3.36539 0
M  V30 6451 C 597.193 0.0323351 3.76386 0
M  V30 6452 C 596.34 0.703744 2.68221 0
M  V30 6453 H 599.291 0.837056 1.3483 0
M  V30 6454 H 599.312 -0.370056 3.78696 0
M  V30 6455 H 598.824 1.44527 3.60185 0
M  V30 6456 H 596.925 -1.02042 3.58355 0
M  V30 6457 H 597.038 0.442969 4.77048 0
M  V30 6458 H 595.402 0.138974 2.54321 0
M  V30 6459 H 596.185 1.76088 2.947 0
M  V30 6460 N 598.631 -1.53133 0.372548 0
M  V30 6461 C 599.541 -2.29671 -0.478379 0
M  V30 6462 C 600.557 -1.35913 -1.08644 0
M  V30 6463 O 601.733 -1.68975 -1.09588 0
M  V30 6464 C 598.798 -3.07625 -1.599 0
M  V30 6465 C 597.859 -4.17061 -1.01776 0
M  V30 6466 C 597.092 -4.91289 -2.08497 0
M  V30 6467 O 597.315 -4.65442 -3.29727 0
M  V30 6468 O 596.249 -5.7705 -1.71164 0
M  V30 6469 H 600.075 -3.03355 0.144649 0
M  V30 6470 H 597.66 -1.48773 0.136729 0
M  V30 6471 H 599.542 -3.56281 -2.25038 0
M  V30 6472 H 598.217 -2.3677 -2.2073 0
M  V30 6473 H 597.124 -3.72641 -0.330098 0
M  V30 6474 H 598.457 -4.90102 -0.453915 0
M  V30 6475 N 600.109 -0.101901 -1.5727 0
M  V30 6476 C 601.334 0.571759 -1.99363 0
M  V30 6477 C 601.759 1.60507 -0.980768 0
M  V30 6478 O 601.117 1.81231 0.0498517 0
M  V30 6479 C 601.165 1.18996 -3.404 0
M  V30 6480 O 600.269 2.30572 -3.41922 0
M  V30 6481 H 599.61 0.144449 -0.648098 0
M  V30 6482 H 602.14 -0.185325 -2.03759 0
M  V30 6483 H 602.15 1.52962 -3.78241 0
M  V30 6484 H 600.825 0.432984 -4.1364 0
M  V30 6485 H 599.402 1.98173 -3.15883 0
M  V30 6486 N 601.587 1.56661 0.17182 0
M  V30 6487 C 602.833 1.82235 0.889845 0
M  V30 6488 C 603.166 0.679673 1.81918 0
M  V30 6489 O 602.441 -0.318404 1.91876 0
M  V30 6490 C 602.724 3.18195 1.68595 0
M  V30 6491 C 602.577 4.42989 0.779773 0
M  V30 6492 C 603.896 3.5109 2.65375 0
M  V30 6493 H 601.015 0.66291 0.322056 0
M  V30 6494 H 603.657 1.89358 0.15608 0
M  V30 6495 H 601.807 3.12253 2.3115 0
M  V30 6496 H 603.479 4.60997 0.16714 0
M  V30 6497 H 601.722 4.33711 0.0877964 0
M  V30 6498 H 602.393 5.3467 1.3723 0
M  V30 6499 H 604.869 3.57482 2.12946 0
M  V30 6500 H 603.745 4.47298 3.18144 0
M  V30 6501 H 604.006 2.75768 3.45549 0
M  V30 6502 N 603.065 -0.440357 1.51323 0
M  V30 6503 C 603.975 -1.55955 1.75258 0
M  V30 6504 C 604.991 -1.61933 0.636687 0
M  V30 6505 O 606.167 -1.79231 0.918593 0
M  V30 6506 C 603.232 -2.9196 1.86977 0
M  V30 6507 C 602.293 -2.96122 3.10822 0
M  V30 6508 C 601.526 -4.2564 3.21973 0
M  V30 6509 O 601.749 -5.17851 2.39137 0
M  V30 6510 O 600.683 -4.36025 4.14929 0
M  V30 6511 H 604.509 -1.38673 2.70191 0
M  V30 6512 H 602.094 -0.623055 1.35788 0
M  V30 6513 H 603.976 -3.72682 1.96688 0
M  V30 6514 H 602.651 -3.09375 0.952307 0
M  V30 6515 H 601.558 -2.14366 3.06591 0
M  V30 6516 H 602.891 -2.83651 4.02247 0
M  V30 6517 N 604.543 -1.41418 -0.695603 0
M  V30 6518 C 605.453 -1.45622 -1.83933 0
M  V30 6519 C 606.469 -0.346825 -1.70508 0
M  V30 6520 O 607.645 -0.59454 -1.92424 0
M  V30 6521 C 604.71 -1.33627 -3.19914 0
M  V30 6522 C 603.771 -2.54882 -3.45447 0
M  V30 6523 C 603.004 -2.43449 -4.7494 0
M  V30 6524 O 603.227 -1.45905 -5.51424 0
M  V30 6525 O 602.161 -3.33206 -5.01256 0
M  V30 6526 H 605.987 -2.42114 -1.83342 0
M  V30 6527 H 603.572 -1.22956 -0.848658 0
M  V30 6528 H 605.454 -1.29221 -4.01098 0
M  V30 6529 H 604.129 -0.402508 -3.21188 0
M  V30 6530 H 603.036 -2.64865 -2.64192 0
M  V30 6531 H 604.369 -3.47087 -3.48987 0
M  V30 6532 N 606.021 0.929856 -1.27246 0
M  V30 6533 C 606.969 2.05151 -1.09616 0
M  V30 6534 C 607.963 1.69388 -0.0198617 0
M  V30 6535 O 609.169 1.79124 -0.177417 0
M  V30 6536 H 605.544 0.671909 -0.337701 0
M  V30 6537 H 607.515 2.17168 -2.04648 0
M  V30 6538 C 606.264 3.3934 -0.757851 0
M  V30 6539 H 605.587 3.67343 -1.57795 0
M  V30 6540 H 607.027 4.18603 -0.674358 0
M  V30 6541 C 605.486 3.32582 0.537658 0
M  V30 6542 O 606.016 3.69633 1.57271 0
M  V30 6543 N 604.222 2.8568 0.532478 0
M  V30 6544 H 603.769 2.55725 -0.310233 0
M  V30 6545 H 603.727 2.81541 1.39936 0
M  V30 6546 N 607.499 1.09233 1.13605 0
M  V30 6547 C 608.727 0.848908 1.88683 0
M  V30 6548 C 609.142 -0.599667 1.79024 0
M  V30 6549 O 608.499 -1.41265 1.15544 0
M  V30 6550 C 608.55 1.27273 3.38355 0
M  V30 6551 O 608.271 2.66449 3.47759 0
M  V30 6552 C 609.772 1.0614 4.30406 0
M  V30 6553 H 606.992 0.305549 0.597395 0
M  V30 6554 H 609.536 1.4538 1.43823 0
M  V30 6555 H 607.691 0.711776 3.80805 0
M  V30 6556 H 608.105 2.84264 4.40788 0
M  V30 6557 H 609.579 1.40725 5.33761 0
M  V30 6558 H 610.056 -0.000960332 4.392 0
M  V30 6559 H 610.662 1.60821 3.93722 0
M  V30 6560 N 608.977 -1.30795 0.87923 0
M  V30 6561 C 610.205 -2.00527 0.509548 0
M  V30 6562 C 610.62 -1.65944 -0.90045 0
M  V30 6563 O 609.977 -0.893525 -1.5913 0
M  V30 6564 C 610.028 -3.55276 0.667943 0
M  V30 6565 O 609.749 -3.88625 2.02242 0
M  V30 6566 C 611.25 -4.4228 0.300494 0
M  V30 6567 H 608.47 -0.641261 0.197549 0
M  V30 6568 H 611.014 -1.66813 1.18295 0
M  V30 6569 H 609.169 -3.87377 0.0419843 0
M  V30 6570 H 609.583 -4.83334 2.03688 0
M  V30 6571 H 611.057 -5.50061 0.462242 0
M  V30 6572 H 611.534 -4.32556 -0.76106 0
M  V30 6573 H 612.14 -4.15613 0.902536 0
M  V30 6574 N 610.455 -0.639598 -1.44038 0
M  V30 6575 C 611.365 0.0612377 -2.3452 0
M  V30 6576 C 612.381 0.826717 -1.53106 0
M  V30 6577 O 613.557 0.777059 -1.85806 0
M  V30 6578 C 610.622 1.02492 -3.31204 0
M  V30 6579 C 609.683 0.25788 -4.28525 0
M  V30 6580 C 608.916 1.17566 -5.2059 0
M  V30 6581 O 609.139 2.41461 -5.16771 0
M  V30 6582 O 608.073 0.655407 -5.98321 0
M  V30 6583 H 611.899 -0.68318 -2.95916 0
M  V30 6584 H 609.484 -0.399784 -1.43952 0
M  V30 6585 H 611.366 1.57911 -3.90694 0
M  V30 6586 H 610.041 1.7498 -2.7233 0
M  V30 6587 H 608.948 -0.339566 -3.72556 0
M  V30 6588 H 610.281 -0.427154 -4.90343 0
M  V30 6589 N 611.933 1.52934 -0.380664 0
M  V30 6590 C 612.843 2.29921 0.466192 0
M  V30 6591 C 613.859 1.36488 1.07922 0
M  V30 6592 O 615.035 1.69553 1.0869 0
M  V30 6593 C 612.1 3.08468 1.58266 0
M  V30 6594 C 611.161 4.17595 0.995627 0
M  V30 6595 C 610.394 4.92387 2.05889 0
M  V30 6596 O 610.617 4.67184 3.27254 0
M  V30 6597 O 609.551 5.77949 1.68102 0
M  V30 6598 H 613.377 3.03274 -0.160735 0
M  V30 6599 H 610.962 1.48698 -0.144617 0
M  V30 6600 H 612.844 3.57469 2.23145 0
M  V30 6601 H 611.519 2.37937 2.19471 0
M  V30 6602 H 610.426 3.72811 0.310332 0
M  V30 6603 H 611.759 4.90336 0.427918 0
M  V30 6604 N 613.412 0.11024 1.57214 0
M  V30 6605 C 614.359 -0.843195 2.14846 0
M  V30 6606 C 615.329 -1.26954 1.07107 0
M  V30 6607 O 616.514 -1.34861 1.34971 0
M  V30 6608 C 613.654 -2.09123 2.74521 0
M  V30 6609 C 612.767 -1.71404 3.96541 0
M  V30 6610 C 611.902 -2.91107 4.44331 0
M  V30 6611 C 610.941 -2.49586 5.58903 0
M  V30 6612 N 610.078 -3.62175 6.01477 0
M  V30 6613 H 614.918 -0.344886 2.95998 0
M  V30 6614 H 612.455 -0.15855 1.46243 0
M  V30 6615 H 614.413 -2.82234 3.07246 0
M  V30 6616 H 613.043 -2.56427 1.96074 0
M  V30 6617 H 612.095 -0.88201 3.70033 0
M  V30 6618 H 613.407 -1.36884 4.7965 0
M  V30 6619 H 612.561 -3.72454 4.78919 0
M  V30 6620 H 611.3 -3.28848 3.60153 0
M  V30 6621 H 610.305 -1.6667 5.23929 0
M  V30 6622 H 611.53 -2.12973 6.4484 0
M  V30 6623 H 609.476 -3.99605 5.20242 0
M  V30 6624 H 609.393 -3.3155 6.79419 0
M  V30 6625 H 610.661 -4.43987 6.407 0
M  V30 6626 N 614.89 -1.56749 -0.16351 0
M  V30 6627 C 615.838 -1.97939 -1.22159 0
M  V30 6628 C 616.832 -0.869288 -1.45395 0
M  V30 6629 O 618.038 -1.05443 -1.45883 0
M  V30 6630 H 614.413 -0.629869 -0.410815 0
M  V30 6631 H 616.384 -2.86115 -0.847381 0
M  V30 6632 C 615.133 -2.36206 -2.55151 0
M  V30 6633 H 614.456 -3.2117 -2.38097 0
M  V30 6634 H 615.896 -2.68863 -3.27854 0
M  V30 6635 C 614.355 -1.20841 -3.14482 0
M  V30 6636 O 614.885 -0.500258 -3.98573 0
M  V30 6637 N 613.091 -0.976943 -2.73686 0
M  V30 6638 H 612.638 -1.55457 -2.05404 0
M  V30 6639 H 612.596 -0.206912 -3.13718 0
M  V30 6640 N 616.368 0.432326 -1.51554 0
M  V30 6641 C 617.315 1.52512 -1.7323 0
M  V30 6642 C 618.285 1.55863 -0.5741 0
M  V30 6643 O 619.47 1.72796 -0.809093 0
M  V30 6644 C 616.61 2.90183 -1.86783 0
M  V30 6645 C 615.723 2.96322 -3.14352 0
M  V30 6646 C 614.858 4.25147 -3.18471 0
M  V30 6647 C 613.897 4.25172 -4.40335 0
M  V30 6648 N 613.034 5.45529 -4.41975 0
M  V30 6649 H 617.874 1.33332 -2.66508 0
M  V30 6650 H 615.411 0.647613 -1.32077 0
M  V30 6651 H 617.369 3.70071 -1.92623 0
M  V30 6652 H 615.999 3.0791 -0.969087 0
M  V30 6653 H 615.051 2.09066 -3.17798 0
M  V30 6654 H 616.363 2.92203 -4.04251 0
M  V30 6655 H 615.517 5.13411 -3.23255 0
M  V30 6656 H 614.256 4.31929 -2.2647 0
M  V30 6657 H 613.261 3.353 -4.35723 0
M  V30 6658 H 614.486 4.20049 -5.33606 0
M  V30 6659 H 612.432 5.53024 -3.52847 0
M  V30 6660 H 612.349 5.43311 -5.25689 0
M  V30 6661 H 613.617 6.35812 -4.50958 0
M  V30 6662 N 617.846 1.41785 0.688094 0
M  V30 6663 C 619.257 1.3701 1.26828 0
M  V30 6664 C 619.608 0.056835 1.96118 0
M  V30 6665 O 618.733 -0.84475 1.99231 0
M  V30 6666 C 619.328 2.48168 2.30648 0
M  V30 6667 C 617.887 2.46766 2.84224 0
M  V30 6668 C 617.034 2.27633 1.58361 0
M  V30 6669 H 619.985 1.51192 0.482351 0
M  V30 6670 H 620.006 2.17655 3.121 0
M  V30 6671 H 619.518 3.43735 1.80188 0
M  V30 6672 H 617.619 1.54978 3.3884 0
M  V30 6673 H 617.732 3.43342 3.34145 0
M  V30 6674 H 616.096 1.75648 1.84445 0
M  V30 6675 H 616.879 3.25238 1.09887 0
M  V30 6676 N 619.324 -0.923095 1.27737 0
M  V30 6677 C 620.549 -1.71054 1.17283 0
M  V30 6678 C 620.974 -1.86208 -0.266153 0
M  V30 6679 O 620.332 -1.36545 -1.1927 0
M  V30 6680 C 620.38 -3.0854 1.86642 0
M  V30 6681 O 619.484 -3.95528 1.16752 0
M  V30 6682 H 618.825 -0.524136 0.407649 0
M  V30 6683 H 621.355 -1.15487 1.6889 0
M  V30 6684 H 621.365 -3.58828 1.94182 0
M  V30 6685 H 620.04 -2.96828 2.91317 0
M  V30 6686 H 618.617 -3.53967 1.17312 0
M  V30 6687 N 620.802 -1.09834 -1.13024 0
M  V30 6688 C 622.03 -0.858902 -1.8823 0
M  V30 6689 C 622.445 0.590164 -1.79339 0
M  V30 6690 O 621.802 1.4065 -1.16292 0
M  V30 6691 C 621.853 -1.29066 -3.37675 0
M  V30 6692 O 621.574 -2.6829 -3.46341 0
M  V30 6693 C 623.075 -1.08421 -4.29837 0
M  V30 6694 H 620.295 -0.308713 -0.595766 0
M  V30 6695 H 622.839 -1.4614 -1.4305 0
M  V30 6696 H 620.994 -0.731961 -3.80422 0
M  V30 6697 H 621.408 -2.86598 -4.39274 0
M  V30 6698 H 622.882 -1.43553 -5.33007 0
M  V30 6699 H 623.359 -0.0223315 -4.39194 0
M  V30 6700 H 623.965 -1.62907 -3.92863 0
M  V30 6701 N 622.28 1.30327 -0.886154 0
M  V30 6702 C 623.19 2.31854 -0.357866 0
M  V30 6703 C 624.206 1.65392 0.540502 0
M  V30 6704 O 625.382 1.96683 0.433339 0
M  V30 6705 C 622.447 3.44171 0.417999 0
M  V30 6706 C 621.508 4.26257 -0.510263 0
M  V30 6707 C 620.741 5.3321 0.228669 0
M  V30 6708 O 620.964 5.51542 1.45458 0
M  V30 6709 O 619.898 6.0042 -0.421832 0
M  V30 6710 H 623.724 2.78995 -1.19982 0
M  V30 6711 H 621.309 1.34518 -0.650028 0
M  V30 6712 H 623.191 4.12588 0.857251 0
M  V30 6713 H 621.866 2.99164 1.23623 0
M  V30 6714 H 620.773 3.60533 -0.99835 0
M  V30 6715 H 622.106 4.74871 -1.29454 0
M  V30 6716 N 623.758 0.647228 1.43697 0
M  V30 6717 C 624.668 -0.0487997 2.34549 0
M  V30 6718 C 625.684 -0.818586 1.53542 0
M  V30 6719 O 626.86 -0.767195 1.86215 0
M  V30 6720 C 623.925 -1.00734 3.31743 0
M  V30 6721 C 622.986 -0.23515 4.28655 0
M  V30 6722 C 622.219 -1.14803 5.21206 0
M  V30 6723 O 622.442 -2.38717 5.18045 0
M  V30 6724 O 621.376 -0.623667 5.9866 0
M  V30 6725 H 625.202 0.698863 2.9555 0
M  V30 6726 H 622.787 0.407412 1.43738 0
M  V30 6727 H 624.669 -1.55837 3.91526 0
M  V30 6728 H 623.344 -1.73534 2.73254 0
M  V30 6729 H 622.251 0.359319 3.7237 0
M  V30 6730 H 623.584 0.453152 4.9011 0
M  V30 6731 N 625.236 -1.5273 0.388769 0
M  V30 6732 C 626.183 -2.26437 -0.446639 0
M  V30 6733 C 627.153 -1.28025 -1.05824 0
M  V30 6734 O 628.338 -1.56852 -1.08637 0
M  V30 6735 C 625.478 -3.07407 -1.56828 0
M  V30 6736 C 624.591 -4.20747 -0.979589 0
M  V30 6737 C 623.726 -4.89113 -2.07224 0
M  V30 6738 C 622.765 -5.94447 -1.45942 0
M  V30 6739 N 621.902 -6.56411 -2.49135 0
M  V30 6740 H 626.742 -2.97404 0.18837 0
M  V30 6741 H 624.279 -1.46727 0.104725 0
M  V30 6742 H 626.237 -3.52642 -2.22934 0
M  V30 6743 H 624.867 -2.3865 -2.17361 0
M  V30 6744 H 623.919 -3.7983 -0.208151 0
M  V30 6745 H 625.231 -4.9637 -0.491747 0
M  V30 6746 H 624.385 -5.3765 -2.81101 0
M  V30 6747 H 623.124 -4.13013 -2.59368 0
M  V30 6748 H 622.129 -5.4525 -0.705894 0
M  V30 6749 H 623.354 -6.7248 -0.945932 0
M  V30 6750 H 621.3 -5.83152 -3.00449 0
M  V30 6751 H 621.217 -7.27645 -2.05105 0
M  V30 6752 H 622.485 -7.09592 -3.22644 0
M  V30 6753 N 626.714 -0.118576 -1.57153 0
M  V30 6754 C 627.644 0.828436 -2.1831 0
M  V30 6755 C 628.625 1.27758 -1.12303 0
M  V30 6756 O 629.81 1.34026 -1.40537 0
M  V30 6757 C 626.94 2.07876 -2.78217 0
M  V30 6758 C 625.894 1.76742 -3.89803 0
M  V30 6759 C 625.22 3.08801 -4.36516 0
M  V30 6760 C 626.52 1.03606 -5.11921 0
M  V30 6761 H 628.214 0.318824 -2.97698 0
M  V30 6762 H 625.76 0.151911 -1.43196 0
M  V30 6763 H 627.713 2.74584 -3.19659 0
M  V30 6764 H 626.437 2.61161 -1.96118 0
M  V30 6765 H 625.096 1.12424 -3.48936 0
M  V30 6766 H 624.744 3.6002 -3.51276 0
M  V30 6767 H 624.444 2.88743 -5.11763 0
M  V30 6768 H 625.968 3.76627 -4.80608 0
M  V30 6769 H 627.382 1.60467 -5.50385 0
M  V30 6770 H 625.779 0.936454 -5.92748 0
M  V30 6771 H 626.849 0.0227421 -4.84895 0
M  V30 6772 N 628.193 1.56834 0.155195 0
M  V30 6773 C 629.14 1.97646 1.19184 0
M  V30 6774 C 630.11 0.842788 1.4313 0
M  V30 6775 O 631.295 1.1042 1.55602 0
M  V30 6776 C 628.435 2.35527 2.52232 0
M  V30 6777 C 627.548 3.62147 2.35529 0
M  V30 6778 C 626.683 3.89167 3.61555 0
M  V30 6779 C 625.722 5.09084 3.39853 0
M  V30 6780 N 624.859 5.32156 4.5799 0
M  V30 6781 H 629.699 2.8601 0.836802 0
M  V30 6782 H 627.236 1.41507 0.401758 0
M  V30 6783 H 629.194 2.55516 3.29799 0
M  V30 6784 H 627.824 1.50253 2.85699 0
M  V30 6785 H 626.876 3.4998 1.49057 0
M  V30 6786 H 628.188 4.49871 2.15448 0
M  V30 6787 H 627.342 4.09611 4.47553 0
M  V30 6788 H 626.081 2.9985 3.84632 0
M  V30 6789 H 625.086 4.88522 2.52243 0
M  V30 6790 H 626.311 5.99947 3.18183 0
M  V30 6791 H 624.257 4.45791 4.81255 0
M  V30 6792 H 624.174 6.14133 4.40882 0
M  V30 6793 H 625.442 5.57091 5.45225 0
M  V30 6794 N 629.671 -0.424282 1.51781 0
M  V30 6795 C 630.896 -1.19928 1.6921 0
M  V30 6796 C 631.321 -1.8392 0.394355 0
M  V30 6797 O 630.679 -1.69371 -0.646778 0
M  V30 6798 C 630.727 -2.24937 2.81843 0
M  V30 6799 O 629.831 -3.3073 2.46356 0
M  V30 6800 H 629.172 -0.35078 0.563781 0
M  V30 6801 H 631.702 -0.499401 1.98412 0
M  V30 6802 H 631.712 -2.69512 3.06312 0
M  V30 6803 H 630.387 -1.77742 3.76006 0
M  V30 6804 H 628.964 -2.9154 2.32505 0
M  V30 6805 N 631.149 -1.42148 -0.680565 0
M  V30 6806 C 632.379 -1.45485 -1.46689 0
M  V30 6807 C 632.787 -0.0629451 -1.89095 0
M  V30 6808 O 632.13 0.931397 -1.58337 0
M  V30 6809 C 632.192 -2.31397 -2.75129 0
M  V30 6810 C 631.856 -3.79353 -2.54834 0
M  V30 6811 C 632.853 -4.71148 -2.19808 0
M  V30 6812 C 630.538 -4.23557 -2.70008 0
M  V30 6813 C 632.532 -6.05139 -2.00215 0
M  V30 6814 C 630.219 -5.57609 -2.50031 0
M  V30 6815 C 631.217 -6.48216 -2.15187 0
M  V30 6816 O 630.905 -7.79792 -1.95397 0
M  V30 6817 H 630.637 -0.497139 -0.458071 0
M  V30 6818 H 633.191 -1.87252 -0.844139 0
M  V30 6819 H 631.421 -1.84468 -3.39865 0
M  V30 6820 H 633.11 -2.26257 -3.36991 0
M  V30 6821 H 633.876 -4.38282 -2.07686 0
M  V30 6822 H 629.755 -3.53327 -2.96109 0
M  V30 6823 H 633.299 -6.75823 -1.72941 0
M  V30 6824 H 629.196 -5.9005 -2.61748 0
M  V30 6825 H 629.964 -7.91091 -2.10042 0
M  V30 6826 N 632.627 0.916307 -1.28225 0
M  V30 6827 C 633.559 2.02303 -1.07732 0
M  V30 6828 C 634.572 1.62773 -0.0298421 0
M  V30 6829 O 635.761 1.76406 -0.272626 0
M  V30 6830 C 632.861 3.33282 -0.614504 0
M  V30 6831 C 632.034 4.01439 -1.73682 0
M  V30 6832 C 631.093 5.10698 -1.26781 0
M  V30 6833 O 630.119 5.34038 -1.96958 0
M  V30 6834 N 631.321 5.80355 -0.129624 0
M  V30 6835 H 634.086 2.20442 -2.03041 0
M  V30 6836 H 631.647 1.08744 -1.19943 0
M  V30 6837 H 633.639 4.03699 -0.284397 0
M  V30 6838 H 632.209 3.11633 0.245664 0
M  V30 6839 H 631.429 3.24604 -2.23665 0
M  V30 6840 H 632.717 4.43721 -2.48976 0
M  V30 6841 H 632.115 5.6386 0.455847 0
M  V30 6842 H 630.672 6.51647 0.141224 0
M  V30 6843 N 634.105 1.10431 1.1244 0
M  V30 6844 C 635.516 0.864439 1.65482 0
M  V30 6845 C 635.867 -0.60527 1.8663 0
M  V30 6846 O 634.992 -1.46492 1.59276 0
M  V30 6847 C 635.587 1.56267 3.0061 0
M  V30 6848 C 634.146 1.3695 3.50602 0
M  V30 6849 C 633.293 1.61209 2.25626 0
M  V30 6850 H 636.244 1.26203 0.962209 0
M  V30 6851 H 636.265 1.00166 3.67079 0
M  V30 6852 H 635.777 2.63231 2.85186 0
M  V30 6853 H 633.878 0.321481 3.71211 0
M  V30 6854 H 633.991 2.11143 4.30064 0
M  V30 6855 H 632.355 1.03482 2.32731 0
M  V30 6856 H 633.138 2.69425 2.12756 0
M  V30 6857 N 635.583 -1.29855 0.893053 0
M  V30 6858 C 636.829 -1.96488 0.52574 0
M  V30 6859 C 637.184 -1.69164 -0.916594 0
M  V30 6860 O 636.477 -0.990405 -1.64017 0
M  V30 6861 C 636.671 -3.49515 0.746588 0
M  V30 6862 C 636.5 -3.91715 2.20884 0
M  V30 6863 C 635.27 -4.16915 2.85499 0
M  V30 6864 C 637.468 -4.03934 3.18342 0
M  V30 6865 N 635.45 -4.45634 4.22236 0
M  V30 6866 C 636.821 -4.36629 4.40176 0
M  V30 6867 C 638.876 -3.86387 3.14021 0
M  V30 6868 C 637.579 -4.53605 5.58243 0
M  V30 6869 C 639.605 -4.04569 4.31367 0
M  V30 6870 C 638.967 -4.37617 5.5197 0
M  V30 6871 H 635.066 -0.743657 0.241863 0
M  V30 6872 H 637.65 -1.56927 1.15248 0
M  V30 6873 H 635.821 -3.88113 0.149281 0
M  V30 6874 H 637.553 -4.03224 0.345372 0
M  V30 6875 H 634.308 -4.10423 2.36326 0
M  V30 6876 H 634.732 -4.64114 4.92876 0
M  V30 6877 H 639.374 -3.59906 2.21873 0
M  V30 6878 H 637.092 -4.78925 6.50889 0
M  V30 6879 H 640.678 -3.92452 4.29503 0
M  V30 6880 H 639.558 -4.51395 6.41258 0
M  V30 6881 N 637.061 -0.65484 -1.43351 0
M  V30 6882 C 638.309 -0.168559 -2.01396 0
M  V30 6883 C 638.63 1.22235 -1.51933 0
M  V30 6884 O 637.9 1.81685 -0.732627 0
M  V30 6885 H 636.48 -0.0593244 -0.744641 0
M  V30 6886 H 639.142 -0.846871 -1.75539 0
M  V30 6887 H 638.238 -0.154428 -3.11718 0
M  V30 6888 N 638.539 1.52521 -0.396863 0
M  V30 6889 C 639.487 2.28217 0.44943 0
M  V30 6890 C 640.481 1.32416 1.05652 0
M  V30 6891 O 641.687 1.49925 0.996124 0
M  V30 6892 H 638.062 0.733966 0.1637 0
M  V30 6893 H 640.033 2.97658 -0.210367 0
M  V30 6894 C 638.782 3.10713 1.56054 0
M  V30 6895 H 638.105 3.84291 1.10273 0
M  V30 6896 H 639.545 3.66803 2.12677 0
M  V30 6897 C 638.004 2.23499 2.52091 0
M  V30 6898 O 638.534 1.8669 3.55682 0
M  V30 6899 N 636.74 1.8751 2.2201 0
M  V30 6900 H 636.287 2.17643 1.37802 0
M  V30 6901 H 636.245 1.29448 2.86514 0
M  V30 6902 N 640.017 0.126909 1.57088 0
M  V30 6903 C 641.263 -0.529952 1.95753 0
M  V30 6904 C 641.596 -1.65823 1.01077 0
M  V30 6905 O 640.871 -1.94437 0.0494162 0
M  V30 6906 C 641.154 -1.05517 3.44294 0
M  V30 6907 C 641.007 0.0702253 4.49745 0
M  V30 6908 C 642.326 -1.9435 3.94862 0
M  V30 6909 H 639.445 -0.191168 0.711775 0
M  V30 6910 H 642.087 0.204071 1.88901 0
M  V30 6911 H 640.237 -1.68069 3.50264 0
M  V30 6912 H 641.909 0.705834 4.55868 0
M  V30 6913 H 640.152 0.732259 4.27575 0
M  V30 6914 H 640.823 -0.338642 5.5096 0
M  V30 6915 H 643.299 -1.41658 3.91244 0
M  V30 6916 H 642.175 -2.28015 4.993 0
M  V30 6917 H 642.436 -2.87299 3.36024 0
M  V30 6918 N 641.495 -1.56914 -0.146875 0
M  V30 6919 C 642.906 -1.72799 -0.706928 0
M  V30 6920 C 643.257 -0.741329 -1.81656 0
M  V30 6921 O 642.382 0.0920162 -2.16204 0
M  V30 6922 C 642.977 -3.13317 -1.28911 0
M  V30 6923 C 641.536 -3.30803 -1.79573 0
M  V30 6924 C 640.683 -2.68725 -0.684252 0
M  V30 6925 H 643.634 -1.58504 0.0787931 0
M  V30 6926 H 643.655 -3.13323 -2.15891 0
M  V30 6927 H 643.167 -3.85104 -0.481284 0
M  V30 6928 H 641.268 -2.64012 -2.62923 0
M  V30 6929 H 641.381 -4.38754 -1.92436 0
M  V30 6930 H 639.745 -2.29196 -1.11091 0
M  V30 6931 H 640.528 -3.43117 0.112134 0
M  V30 6932 N 642.974 0.416227 -1.52004 0
M  V30 6933 C 644.251 1.17637 -1.56272 0
M  V30 6934 C 644.631 2.08352 -0.339493 0
M  V30 6935 O 643.979 2.1833 0.674124 0
M  V30 6936 C 644.189 1.95986 -2.88774 0
M  V30 6937 C 645.537 2.52299 -3.41512 0
M  V30 6938 O 646.561 2.06174 -2.90467 0
M  V30 6939 O 645.42 3.3648 -4.30631 0
M  V30 6940 H 642.514 0.536726 -0.629169 0
M  V30 6941 H 645.06 0.423583 -1.64329 0
M  V30 6942 H 643.832 1.29487 -3.69254 0
M  V30 6943 H 643.455 2.78285 -2.83978 0
M  V30 6944 N 644.452 1.42507 0.673017 0
M  V30 6945 C 645.415 1.4582 1.76831 0
M  V30 6946 C 646.415 0.345542 1.57043 0
M  V30 6947 O 647.605 0.606447 1.63303 0
M  V30 6948 C 644.737 1.29158 3.15485 0
M  V30 6949 H 645.93 2.43345 1.7528 0
M  V30 6950 H 643.483 1.28981 0.882817 0
M  V30 6951 H 644.218 0.325626 3.22661 0
M  V30 6952 H 644.003 2.09797 3.31252 0
M  V30 6953 H 645.493 1.34363 3.95394 0
M  V30 6954 N 645.93 -0.909495 1.28709 0
M  V30 6955 C 646.878 -2.03381 1.12866 0
M  V30 6956 C 647.872 -1.69335 0.0468074 0
M  V30 6957 O 649.078 -1.78819 0.205891 0
M  V30 6958 H 645.453 -0.666452 0.348348 0
M  V30 6959 H 647.424 -2.13885 2.08077 0
M  V30 6960 C 646.173 -3.38092 0.811742 0
M  V30 6961 H 645.496 -3.64786 1.63619 0
M  V30 6962 H 646.936 -4.17477 0.740869 0
M  V30 6963 C 645.395 -3.33395 -0.484679 0
M  V30 6964 O 645.925 -3.72089 -1.5137 0
M  V30 6965 N 644.131 -2.86491 -0.486961 0
M  V30 6966 H 643.678 -2.55199 0.350877 0
M  V30 6967 H 643.636 -2.83731 -1.3544 0
M  V30 6968 N 647.408 -1.11026 -1.11852 0
M  V30 6969 C 648.638 -0.877544 -1.87037 0
M  V30 6970 C 649.046 0.575925 -1.80221 0
M  V30 6971 O 648.389 1.40916 -1.17849 0
M  V30 6972 C 648.451 -1.25529 -3.36872 0
M  V30 6973 C 648.115 -2.71704 -3.67459 0
M  V30 6974 C 649.112 -3.69931 -3.65304 0
M  V30 6975 C 646.797 -3.08243 -3.966 0
M  V30 6976 C 648.791 -5.02717 -3.9186 0
M  V30 6977 C 646.478 -4.41215 -4.22815 0
M  V30 6978 C 647.476 -5.38262 -4.20432 0
M  V30 6979 O 647.164 -6.68839 -4.45992 0
M  V30 6980 H 646.896 -0.314374 -0.598452 0
M  V30 6981 H 649.45 -1.48015 -1.42411 0
M  V30 6982 H 647.68 -0.595808 -3.82082 0
M  V30 6983 H 649.369 -0.999064 -3.93413 0
M  V30 6984 H 650.135 -3.43047 -3.42846 0
M  V30 6985 H 646.014 -2.33326 -3.97593 0
M  V30 6986 H 649.558 -5.78456 -3.89916 0
M  V30 6987 H 645.455 -4.67835 -4.44748 0
M  V30 6988 H 646.223 -6.74563 -4.63581 0
M  V30 6989 N 648.886 1.2938 -0.899927 0
M  V30 6990 C 650.114 1.99691 -0.541386 0
M  V30 6991 C 650.529 1.67355 0.873936 0
M  V30 6992 O 649.886 0.918728 1.57688 0
M  V30 6993 C 649.937 3.54168 -0.72438 0
M  V30 6994 O 649.658 3.85359 -2.08399 0
M  V30 6995 C 651.159 4.41746 -0.370819 0
M  V30 6996 H 648.379 0.638037 -0.207726 0
M  V30 6997 H 650.923 1.6491 -1.20934 0
M  V30 6998 H 649.078 3.87261 -0.103607 0
M  V30 6999 H 649.492 4.80032 -2.11352 0
M  V30 7000 H 650.966 5.49256 -0.549693 0
M  V30 7001 H 651.443 4.33712 0.692148 0
M  V30 7002 H 652.049 4.14125 -0.968543 0
M  V30 7003 N 650.364 0.662433 1.43002 0
M  V30 7004 C 651.589 0.186003 2.06564 0
M  V30 7005 C 652.014 -1.14314 1.49379 0
M  V30 7006 O 651.372 -1.70824 0.607346 0
M  V30 7007 C 651.42 0.118269 3.60406 0
M  V30 7008 O 650.524 -0.916859 4.02079 0
M  V30 7009 H 649.865 0.0990981 0.656563 0
M  V30 7010 H 652.395 0.907958 1.8335 0
M  V30 7011 H 652.405 -0.0619981 4.07953 0
M  V30 7012 H 651.08 1.08849 4.01403 0
M  V30 7013 H 649.657 -0.708635 3.66105 0
M  V30 7014 N 651.842 -1.52309 0.404946 0
M  V30 7015 C 653.119 -1.94237 -0.230544 0
M  V30 7016 C 653.499 -1.34154 -1.6299 0
M  V30 7017 O 652.847 -0.515713 -2.22604 0
M  V30 7018 C 653.057 -3.48166 -0.241106 0
M  V30 7019 C 654.405 -4.22074 -0.462488 0
M  V30 7020 O 655.429 -3.54754 -0.320644 0
M  V30 7021 O 654.288 -5.41443 -0.741708 0
M  V30 7022 H 651.382 -0.813766 -0.147358 0
M  V30 7023 H 653.928 -1.6333 0.460587 0
M  V30 7024 H 652.7 -3.84269 0.738467 0
M  V30 7025 H 652.323 -3.85422 -0.97651 0
M  V30 7026 N 653.32 -0.135238 -1.57019 0
M  V30 7027 C 654.23 0.822226 -2.19719 0
M  V30 7028 C 655.246 1.28057 -1.17802 0
M  V30 7029 O 656.422 1.3402 -1.50335 0
M  V30 7030 C 653.487 2.0484 -2.79717 0
M  V30 7031 C 652.548 1.64042 -3.96723 0
M  V30 7032 C 651.781 2.80814 -4.53849 0
M  V30 7033 O 652.004 3.967 -4.0986 0
M  V30 7034 O 650.938 2.56963 -5.44292 0
M  V30 7035 H 654.764 0.318552 -3.02025 0
M  V30 7036 H 652.349 0.0912021 -1.49121 0
M  V30 7037 H 654.231 2.76622 -3.17897 0
M  V30 7038 H 652.906 2.54182 -2.00432 0
M  V30 7039 H 651.813 0.893182 -3.63281 0
M  V30 7040 H 653.146 1.19426 -4.77492 0
M  V30 7041 N 654.798 1.5699 0.138552 0
M  V30 7042 C 655.708 2.02174 1.19008 0
M  V30 7043 C 656.724 0.938622 1.46512 0
M  V30 7044 O 657.9 1.24872 1.58016 0
M  V30 7045 C 654.965 2.40045 2.50159 0
M  V30 7046 C 654.026 3.62346 2.30226 0
M  V30 7047 C 653.259 3.98401 3.55123 0
M  V30 7048 O 653.482 3.35019 4.61647 0
M  V30 7049 O 652.416 4.91606 3.47285 0
M  V30 7050 H 656.242 2.91954 0.836452 0
M  V30 7051 H 653.827 1.45293 0.347907 0
M  V30 7052 H 655.709 2.65225 3.27465 0
M  V30 7053 H 654.384 1.53417 2.85035 0
M  V30 7054 H 653.291 3.42341 1.50843 0
M  V30 7055 H 654.624 4.49617 2.00262 0
M  V30 7056 N 656.276 -0.40816 1.52223 0
M  V30 7057 C 657.186 -1.52202 1.78526 0
M  V30 7058 C 658.202 -1.60546 0.670892 0
M  V30 7059 O 659.378 -1.77242 0.956404 0
M  V30 7060 C 656.443 -2.87928 1.93128 0
M  V30 7061 C 655.504 -2.89463 3.17033 0
M  V30 7062 C 654.737 -4.18715 3.30929 0
M  V30 7063 O 654.96 -5.12662 2.50067 0
M  V30 7064 O 653.894 -4.27125 4.24084 0
M  V30 7065 H 657.72 -1.32911 2.73072 0
M  V30 7066 H 655.305 -0.594112 1.37079 0
M  V30 7067 H 657.187 -3.68426 2.04549 0
M  V30 7068 H 655.862 -3.07285 1.01772 0
M  V30 7069 H 654.769 -2.07815 3.11069 0
M  V30 7070 H 656.102 -2.75055 4.08174 0
M  V30 7071 N 657.755 -1.42862 -0.66545 0
M  V30 7072 C 658.665 -1.49491 -1.80803 0
M  V30 7073 C 659.681 -0.382914 -1.69734 0
M  V30 7074 O 660.857 -0.635223 -1.9112 0
M  V30 7075 C 657.922 -1.40383 -3.17007 0
M  V30 7076 C 656.983 -2.62152 -3.39963 0
M  V30 7077 C 656.216 -2.53469 -4.69669 0
M  V30 7078 O 656.439 -1.57568 -5.48205 0
M  V30 7079 O 655.373 -3.43763 -4.94075 0
M  V30 7080 H 659.199 -2.45949 -1.78165 0
M  V30 7081 H 656.784 -1.24728 -0.822387 0
M  V30 7082 H 658.666 -1.377 -3.98267 0
M  V30 7083 H 657.341 -0.470546 -3.20262 0
M  V30 7084 H 656.248 -2.70409 -2.58515 0
M  V30 7085 H 657.581 -3.54411 -3.41546 0
M  V30 7086 N 659.233 0.902656 -1.29189 0
M  V30 7087 C 660.18 2.00643 -1.14066 0
M  V30 7088 C 661.15 1.66064 -0.0347756 0
M  V30 7089 O 662.335 1.8973 -0.201752 0
M  V30 7090 C 659.475 3.35214 -0.820104 0
M  V30 7091 C 658.588 3.82594 -2.00614 0
M  V30 7092 C 657.723 5.05727 -1.62522 0
M  V30 7093 C 656.762 5.45469 -2.77724 0
M  V30 7094 N 655.899 6.59789 -2.40048 0
M  V30 7095 H 660.739 2.1291 -2.08502 0
M  V30 7096 H 658.276 1.04271 -1.03759 0
M  V30 7097 H 660.234 4.12643 -0.614949 0
M  V30 7098 H 658.864 3.22682 0.0873452 0
M  V30 7099 H 657.916 3.01226 -2.32308 0
M  V30 7100 H 659.228 4.07999 -2.86946 0
M  V30 7101 H 658.382 5.90732 -1.38277 0
M  V30 7102 H 657.121 4.82155 -0.733333 0
M  V30 7103 H 656.126 4.59 -3.02653 0
M  V30 7104 H 657.351 5.71024 -3.67572 0
M  V30 7105 H 655.297 6.37826 -1.53343 0
M  V30 7106 H 655.214 6.84975 -3.19914 0
M  V30 7107 H 656.482 7.4807 -2.19116 0
M  V30 7108 N 660.711 1.11618 1.11262 0
M  V30 7109 C 661.643 0.734015 2.17129 0
M  V30 7110 C 662.656 -0.235243 1.61091 0
M  V30 7111 O 663.845 -0.0178597 1.78491 0
M  V30 7112 C 660.945 0.0643682 3.38839 0
M  V30 7113 C 660.118 1.06092 4.24339 0
M  V30 7114 C 659.177 0.420482 5.24517 0
M  V30 7115 O 658.203 1.07495 5.58957 0
M  V30 7116 N 659.405 -0.815828 5.74739 0
M  V30 7117 H 662.17 1.64492 2.50524 0
M  V30 7118 H 659.731 1.00664 1.26801 0
M  V30 7119 H 661.723 -0.375851 4.02951 0
M  V30 7120 H 660.293 -0.749147 3.03491 0
M  V30 7121 H 659.513 1.67903 3.56654 0
M  V30 7122 H 660.801 1.73507 4.78302 0
M  V30 7123 H 660.199 -1.36668 5.48943 0
M  V30 7124 H 658.756 -1.199 6.40677 0
M  V30 7125 N 662.189 -1.289 0.906776 0
M  V30 7126 C 663.414 -1.99939 0.551303 0
M  V30 7127 C 663.839 -1.67366 -0.858496 0
M  V30 7128 O 663.197 -0.902176 -1.57259 0
M  V30 7129 C 663.245 -3.52523 0.758937 0
M  V30 7130 O 662.349 -4.11983 -0.185308 0
M  V30 7131 H 661.69 -0.628376 0.214568 0
M  V30 7132 H 664.22 -1.64225 1.2203 0
M  V30 7133 H 664.23 -4.02522 0.666329 0
M  V30 7134 H 662.905 -3.75566 1.78671 0
M  V30 7135 H 661.482 -3.72873 -0.0445577 0
M  V30 7136 N 663.667 -0.670007 -1.42649 0
M  V30 7137 C 664.895 -0.19854 -2.05945 0
M  V30 7138 C 665.31 1.14243 -1.50313 0
M  V30 7139 O 664.667 1.70872 -0.641027 0
M  V30 7140 C 664.718 -0.11966 -3.61302 0
M  V30 7141 O 664.439 -1.40764 -4.1487 0
M  V30 7142 C 665.94 0.375878 -4.41704 0
M  V30 7143 H 663.16 -0.0976894 -0.663851 0
M  V30 7144 H 665.704 -0.915392 -1.82868 0
M  V30 7145 H 663.859 0.547851 -3.83507 0
M  V30 7146 H 664.273 -1.27784 -5.08696 0
M  V30 7147 H 665.747 0.379988 -5.50691 0
M  V30 7148 H 666.224 1.41028 -4.15942 0
M  V30 7149 H 666.83 -0.259727 -4.24506 0
M  V30 7150 N 665.145 1.52092 -0.413018 0
M  V30 7151 C 666.108 2.25706 0.398687 0
M  V30 7152 C 667.108 1.28221 0.970368 0
M  V30 7153 O 668.298 1.52131 0.848635 0
M  V30 7154 C 665.43 3.03029 1.5616 0
M  V30 7155 H 666.623 2.98888 -0.246131 0
M  V30 7156 H 664.176 1.5542 -0.165622 0
M  V30 7157 H 664.911 2.34205 2.24317 0
M  V30 7158 H 664.696 3.74606 1.15812 0
M  V30 7159 H 666.186 3.58857 2.13569 0
M  V30 7160 N 666.623 0.143563 1.56945 0
M  V30 7161 C 667.853 -0.514699 2.00086 0
M  V30 7162 C 668.261 -1.59184 1.0226 0
M  V30 7163 O 667.604 -1.83697 0.0110514 0
M  V30 7164 C 667.666 -1.17778 3.39659 0
M  V30 7165 C 667.33 -0.245657 4.56339 0
M  V30 7166 C 668.327 0.525343 5.17239 0
M  V30 7167 C 666.012 -0.149564 5.02077 0
M  V30 7168 C 668.006 1.37992 6.22284 0
M  V30 7169 C 665.693 0.708621 6.06978 0
M  V30 7170 C 666.691 1.47197 6.6695 0
M  V30 7171 O 666.379 2.31586 7.6982 0
M  V30 7172 H 666.111 -0.138789 0.661599 0
M  V30 7173 H 668.665 0.234098 2.04062 0
M  V30 7174 H 666.895 -1.97415 3.32512 0
M  V30 7175 H 668.584 -1.73542 3.6693 0
M  V30 7176 H 669.35 0.461118 4.82803 0
M  V30 7177 H 665.229 -0.733457 4.55128 0
M  V30 7178 H 668.773 1.97621 6.69023 0
M  V30 7179 H 664.67 0.77415 6.40841 0
M  V30 7180 H 665.438 2.24796 7.87025 0
M  V30 7181 N 668.101 -1.57061 -0.130224 0
M  V30 7182 C 669.011 -2.02802 -1.17934 0
M  V30 7183 C 670.027 -0.946378 -1.46013 0
M  V30 7184 O 671.203 -1.25708 -1.57351 0
M  V30 7185 C 668.268 -2.41368 -2.48882 0
M  V30 7186 C 667.329 -3.63561 -2.28301 0
M  V30 7187 C 666.562 -4.00279 -3.53005 0
M  V30 7188 O 666.785 -3.37463 -4.59864 0
M  V30 7189 O 665.719 -4.93441 -3.44673 0
M  V30 7190 H 669.545 -2.92394 -0.820958 0
M  V30 7191 H 667.13 -1.45475 -0.340197 0
M  V30 7192 H 669.012 -2.66958 -3.26054 0
M  V30 7193 H 667.687 -1.54926 -2.84217 0
M  V30 7194 H 666.594 -3.43136 -1.49025 0
M  V30 7195 H 667.927 -4.50673 -1.97875 0
M  V30 7196 N 669.579 0.400081 -1.52437 0
M  V30 7197 C 670.526 1.48803 -1.76426 0
M  V30 7198 C 671.496 1.5461 -0.607032 0
M  V30 7199 O 672.681 1.71041 -0.845563 0
M  V30 7200 C 669.821 2.86156 -1.92896 0
M  V30 7201 C 668.934 2.89587 -3.20567 0
M  V30 7202 C 668.069 4.18296 -3.27417 0
M  V30 7203 C 667.108 4.15736 -4.49255 0
M  V30 7204 N 666.245 5.36032 -4.53447 0
M  V30 7205 H 671.085 1.27649 -2.69276 0
M  V30 7206 H 668.622 0.619451 -1.33421 0
M  V30 7207 H 670.58 3.65901 -2.00429 0
M  V30 7208 H 669.21 3.05785 -1.03418 0
M  V30 7209 H 668.262 2.02278 -3.22161 0
M  V30 7210 H 669.574 2.83562 -4.10358 0
M  V30 7211 H 668.728 5.06439 -3.34072 0
M  V30 7212 H 667.467 4.27028 -2.35581 0
M  V30 7213 H 666.472 3.25982 -4.42737 0
M  V30 7214 H 667.697 4.08636 -5.42396 0
M  V30 7215 H 665.643 5.45415 -3.64498 0
M  V30 7216 H 665.56 5.32038 -5.37096 0
M  V30 7217 H 666.828 6.26104 -4.64343 0
M  V30 7218 N 671.057 1.43213 0.657864 0
M  V30 7219 C 671.989 1.43974 1.78337 0
M  V30 7220 C 673.002 0.336482 1.59285 0
M  V30 7221 O 674.191 0.600631 1.68091 0
M  V30 7222 C 671.291 1.23242 3.15697 0
M  V30 7223 C 670.464 2.46319 3.61449 0
M  V30 7224 C 669.523 2.2088 4.77597 0
M  V30 7225 O 668.549 2.942 4.87273 0
M  V30 7226 N 669.751 1.22251 5.67481 0
M  V30 7227 H 672.516 2.40993 1.78164 0
M  V30 7228 H 670.077 1.3831 0.841549 0
M  V30 7229 H 672.069 1.04113 3.91079 0
M  V30 7230 H 670.639 0.346849 3.1067 0
M  V30 7231 H 669.859 2.80904 2.76563 0
M  V30 7232 H 671.147 3.28239 3.88763 0
M  V30 7233 H 670.545 0.616433 5.62331 0
M  V30 7234 H 669.102 1.09107 6.42603 0
M  V30 7235 N 672.536 -0.895792 1.29666 0
M  V30 7236 C 673.783 -1.64664 1.17864 0
M  V30 7237 C 674.111 -1.92631 -0.26902 0
M  V30 7238 O 673.366 -1.53787 -1.21029 0
M  V30 7239 C 673.665 -3.00075 1.94139 0
M  V30 7240 C 673.331 -2.91702 3.43833 0
M  V30 7241 C 671.993 -2.89126 3.84656 0
M  V30 7242 C 674.345 -2.80622 4.39205 0
M  V30 7243 C 671.673 -2.73293 5.1916 0
M  V30 7244 C 674.025 -2.66329 5.73805 0
M  V30 7245 C 672.689 -2.62121 6.1388 0
M  V30 7246 H 671.959 -0.602549 0.431295 0
M  V30 7247 H 674.606 -1.04234 1.60648 0
M  V30 7248 H 672.911 -3.64394 1.43958 0
M  V30 7249 H 674.608 -3.57111 1.82408 0
M  V30 7250 H 671.198 -2.94511 3.11386 0
M  V30 7251 H 675.382 -2.81686 4.08615 0
M  V30 7252 H 670.638 -2.68443 5.49316 0
M  V30 7253 H 674.812 -2.56727 6.47352 0
M  V30 7254 H 672.439 -2.49611 7.18052 0
M  V30 7255 N 674.014 -1.12206 -1.10668 0
M  V30 7256 C 675.425 -0.890657 -1.64086 0
M  V30 7257 C 675.776 0.575502 -1.8757 0
M  V30 7258 O 674.901 1.4394 -1.61587 0
M  V30 7259 C 675.496 -1.61029 -2.98085 0
M  V30 7260 C 674.055 -1.4251 -3.48379 0
M  V30 7261 C 673.202 -1.64778 -2.23033 0
M  V30 7262 H 676.153 -1.27718 -0.94201 0
M  V30 7263 H 676.174 -1.05993 -3.65439 0
M  V30 7264 H 675.686 -2.67735 -2.80962 0
M  V30 7265 H 673.787 -0.380497 -3.70652 0
M  V30 7266 H 673.9 -2.17959 -4.26651 0
M  V30 7267 H 672.264 -1.07171 -2.31055 0
M  V30 7268 H 673.047 -2.72776 -2.08443 0
M  V30 7269 N 675.492 1.28418 -0.913599 0
M  V30 7270 C 676.455 2.25564 -0.406624 0
M  V30 7271 C 677.455 1.5387 0.466965 0
M  V30 7272 O 678.645 1.72094 0.270042 0
M  V30 7273 C 675.777 3.38339 0.417053 0
M  V30 7274 H 676.97 2.71926 -1.26477 0
M  V30 7275 H 674.523 1.40098 -0.692986 0
M  V30 7276 H 675.258 2.97339 1.29461 0
M  V30 7277 H 675.043 3.91542 -0.209102 0
M  V30 7278 H 676.533 4.10578 0.762602 0
M  V30 7279 N 676.97 0.677563 1.42291 0
M  V30 7280 C 678.198 0.209459 2.05837 0
M  V30 7281 C 678.613 -1.13444 1.50917 0
M  V30 7282 O 677.97 -1.70529 0.65008 0
M  V30 7283 C 678.021 0.138819 3.61233 0
M  V30 7284 O 677.742 1.42962 4.14118 0
M  V30 7285 C 679.243 -0.352449 4.41897 0
M  V30 7286 H 676.463 0.101209 0.663323 0
M  V30 7287 H 679.007 0.925077 1.8238 0
M  V30 7288 H 677.162 -0.527505 3.83792 0
M  V30 7289 H 677.576 1.3048 5.08011 0
M  V30 7290 H 679.05 -0.350778 5.50884 0
M  V30 7291 H 679.527 -1.3882 4.16684 0
M  V30 7292 H 680.133 0.282236 4.24362 0
M  V30 7293 N 678.448 -1.51871 0.421078 0
M  V30 7294 C 679.673 -2.0684 -0.152371 0
M  V30 7295 C 680.098 -1.28802 -1.37083 0
M  V30 7296 O 679.456 -0.321482 -1.78427 0
M  V30 7297 C 679.504 -3.57532 -0.469368 0
M  V30 7298 O 678.608 -3.81818 -1.55848 0
M  V30 7299 H 677.949 -0.663939 -0.00898586 0
M  V30 7300 H 680.479 -1.95674 0.597724 0
M  V30 7301 H 680.489 -4.01515 -0.724553 0
M  V30 7302 H 679.164 -4.13761 0.421276 0
M  V30 7303 H 677.741 -3.49709 -1.29453 0
M  V30 7304 N 679.926 -0.151884 -1.56866 0
M  V30 7305 C 680.873 0.785936 -2.17006 0
M  V30 7306 C 681.843 1.2407 -1.10435 0
M  V30 7307 O 683.028 1.31235 -1.38499 0
M  V30 7308 C 680.168 2.01771 -2.79969 0
M  V30 7309 C 679.281 1.6083 -4.00946 0
M  V30 7310 C 678.416 2.79224 -4.51893 0
M  V30 7311 C 677.455 2.3468 -5.65324 0
M  V30 7312 N 676.592 3.461 -6.10867 0
M  V30 7313 H 681.432 0.266286 -2.96808 0
M  V30 7314 H 678.969 0.11972 -1.46612 0
M  V30 7315 H 680.927 2.73989 -3.14621 0
M  V30 7316 H 679.557 2.51139 -2.02803 0
M  V30 7317 H 678.609 0.783592 -3.72242 0
M  V30 7318 H 679.921 1.24119 -4.83111 0
M  V30 7319 H 679.075 3.59625 -4.88625 0
M  V30 7320 H 677.814 3.19183 -3.68746 0
M  V30 7321 H 676.819 1.52721 -5.28163 0
M  V30 7322 H 678.044 1.95801 -6.5026 0
M  V30 7323 H 675.99 3.85671 -5.30654 0
M  V30 7324 H 675.907 3.1342 -6.87971 0
M  V30 7325 H 677.175 4.26844 -6.52246 0
M  V30 7326 N 681.404 1.57128 0.121893 0
M  V30 7327 C 682.681 1.75664 0.860327 0
M  V30 7328 C 683.061 0.726585 1.98202 0
M  V30 7329 O 682.409 -0.24999 2.27128 0
M  V30 7330 C 682.619 3.20571 1.37968 0
M  V30 7331 C 683.967 3.82988 1.83317 0
M  V30 7332 O 684.991 3.24156 1.47654 0
M  V30 7333 O 683.85 4.86393 2.49168 0
M  V30 7334 H 680.944 0.719153 0.408348 0
M  V30 7335 H 683.49 1.6937 0.105859 0
M  V30 7336 H 682.262 3.87056 0.57477 0
M  V30 7337 H 681.885 3.31392 2.19694 0
M  V30 7338 N 682.882 -0.391992 1.52647 0
M  V30 7339 C 683.83 -1.4991 1.77848 0
M  V30 7340 C 684.824 -1.56587 0.646282 0
M  V30 7341 O 686.03 -1.59789 0.828698 0
M  V30 7342 H 682.405 -0.498883 0.56269 0
M  V30 7343 H 684.376 -1.25847 2.70564 0
M  V30 7344 C 683.125 -2.87081 1.96163 0
M  V30 7345 H 682.448 -2.82692 2.82711 0
M  V30 7346 H 683.888 -3.63792 2.17787 0
M  V30 7347 C 682.347 -3.28822 0.733348 0
M  V30 7348 O 682.877 -4.01598 -0.0906481 0
M  V30 7349 N 681.083 -2.85068 0.564317 0
M  V30 7350 H 680.63 -2.26012 1.23598 0
M  V30 7351 H 680.588 -3.13355 -0.256166 0
M  V30 7352 N 684.36 -1.4356 -0.65026 0
M  V30 7353 C 685.607 -1.45333 -1.41012 0
M  V30 7354 C 685.935 -0.0787282 -1.94341 0
M  V30 7355 O 685.19 0.916715 -1.72901 0
M  V30 7356 C 685.489 -2.44528 -2.60654 0
M  V30 7357 C 685.155 -3.90331 -2.25727 0
M  V30 7358 C 683.817 -4.3004 -2.15914 0
M  V30 7359 C 686.169 -4.822 -1.97821 0
M  V30 7360 C 683.497 -5.59568 -1.76354 0
M  V30 7361 C 685.849 -6.12095 -1.59759 0
M  V30 7362 C 684.513 -6.50778 -1.48473 0
M  V30 7363 H 683.783 -0.531813 -0.516 0
M  V30 7364 H 686.43 -1.76657 -0.739219 0
M  V30 7365 H 684.735 -2.06619 -3.3289 0
M  V30 7366 H 686.432 -2.43155 -3.18868 0
M  V30 7367 H 683.022 -3.58905 -2.34276 0
M  V30 7368 H 687.206 -4.5229 -2.04322 0
M  V30 7369 H 682.462 -5.88376 -1.66205 0
M  V30 7370 H 686.636 -6.82751 -1.37198 0
M  V30 7371 H 684.263 -7.5105 -1.17591 0
M  V30 7372 N 685.838 0.888903 -1.30139 0
M  V30 7373 C 687.115 1.62145 -1.094 0
M  V30 7374 C 687.495 2.08041 0.358091 0
M  V30 7375 O 686.843 1.84438 1.34888 0
M  V30 7376 C 687.053 2.794 -2.09133 0
M  V30 7377 C 688.401 3.49826 -2.40638 0
M  V30 7378 O 689.425 2.89583 -2.07412 0
M  V30 7379 O 688.284 4.58457 -2.97455 0
M  V30 7380 H 685.378 0.712475 -0.41989 0
M  V30 7381 H 687.924 0.936023 -1.41551 0
M  V30 7382 H 686.696 2.42762 -3.06891 0
M  V30 7383 H 686.319 3.55643 -1.77776 0
M  V30 7384 N 687.317 1.12792 1.10072 0
M  V30 7385 C 688.25 0.742921 2.15768 0
M  V30 7386 C 689.228 -0.267714 1.60381 0
M  V30 7387 O 690.412 -0.160782 1.87813 0
M  V30 7388 C 687.539 0.100244 3.38552 0
M  V30 7389 C 686.585 1.07831 4.12644 0
M  V30 7390 S 687.418 2.60765 4.6772 0
M  V30 7391 C 688.574 1.97838 5.9381 0
M  V30 7392 H 688.807 1.63822 2.48092 0
M  V30 7393 H 686.34 0.947385 1.21918 0
M  V30 7394 H 688.298 -0.264175 4.09649 0
M  V30 7395 H 686.959 -0.772223 3.04459 0
M  V30 7396 H 686.152 0.576325 5.00694 0
M  V30 7397 H 685.754 1.38586 3.47376 0
M  V30 7398 H 688.046 1.32341 6.64449 0
M  V30 7399 H 688.989 2.83943 6.48677 0
M  V30 7400 H 689.397 1.43267 5.46017 0
M  V30 7401 N 688.795 -1.27931 0.920396 0
M  V30 7402 C 690.035 -1.96459 0.564198 0
M  V30 7403 C 690.399 -1.70802 -0.876967 0
M  V30 7404 O 691.6 -2.32956 -1.34107 0
M  V30 7405 C 689.871 -3.46583 0.872641 0
M  V30 7406 S 691.43 -4.34343 0.623859 0
M  V30 7407 H 688.248 -0.679735 0.208523 0
M  V30 7408 H 690.85 -1.55319 1.18727 0
M  V30 7409 H 689.554 -3.62753 1.91933 0
M  V30 7410 H 689.085 -3.92677 0.238479 0
M  V30 7411 H 691.1 -4.93449 -0.521744 0
M  V30 7412 N 690.273 -0.685099 -1.4193 0
M  V30 7413 C 691.498 -0.218842 -2.06242 0
M  V30 7414 C 691.923 1.11923 -1.51178 0
M  V30 7415 O 691.281 1.69837 -0.634446 0
M  V30 7416 C 691.329 -0.175592 -3.60172 0
M  V30 7417 O 690.433 0.852776 -4.03487 0
M  V30 7418 H 689.774 -0.109531 -0.654904 0
M  V30 7419 H 692.304 -0.937013 -1.81882 0
M  V30 7420 H 692.314 -0.00291151 -4.08 0
M  V30 7421 H 690.989 -1.15222 -3.99621 0
M  V30 7422 H 689.566 0.650301 -3.67186 0
M  V30 7423 N 691.751 1.51645 -0.429126 0
M  V30 7424 C 692.976 2.06917 0.141399 0
M  V30 7425 C 693.401 1.29527 1.36398 0
M  V30 7426 O 692.759 0.33094 1.78254 0
M  V30 7427 C 692.807 3.57776 0.4504 0
M  V30 7428 O 691.911 3.82639 1.53821 0
M  V30 7429 H 691.252 0.663978 0.0054647 0
M  V30 7430 H 693.782 1.95355 -0.608093 0
M  V30 7431 H 693.792 4.01894 0.703249 0
M  V30 7432 H 692.467 4.13532 -0.443213 0
M  V30 7433 H 691.044 3.5039 1.27597 0
M  V30 7434 N 693.229 0.160201 1.56784 0
M  V30 7435 C 694.454 -0.497373 2.01348 0
M  V30 7436 C 694.879 -1.56757 1.03966 0
M  V30 7437 O 694.237 -1.81292 0.0174455 0
M  V30 7438 C 694.285 -1.0628 3.44582 0
M  V30 7439 O 693.389 -2.17723 3.50244 0
M  V30 7440 H 692.73 -0.120295 0.653012 0
M  V30 7441 H 695.26 0.260821 2.02931 0
M  V30 7442 H 695.27 -1.38819 3.83658 0
M  V30 7443 H 693.945 -0.279166 4.14962 0
M  V30 7444 H 692.522 -1.86313 3.2302 0
M  V30 7445 N 694.707 -1.5719 -0.113559 0
M  V30 7446 C 695.954 -1.85138 -0.820382 0
M  V30 7447 C 696.282 -0.74608 -1.79622 0
M  V30 7448 O 695.537 0.262077 -1.93937 0
M  V30 7449 C 695.836 -3.19593 -1.59984 0
M  V30 7450 C 695.502 -4.44315 -0.767809 0
M  V30 7451 C 694.164 -4.78179 -0.538379 0
M  V30 7452 C 696.516 -5.2086 -0.188203 0
M  V30 7453 C 693.844 -5.86028 0.28082 0
M  V30 7454 C 696.196 -6.29572 0.618217 0
M  V30 7455 C 694.86 -6.61964 0.857912 0
M  V30 7456 H 694.13 -0.677467 -0.300199 0
M  V30 7457 H 696.777 -1.91322 -0.0825443 0
M  V30 7458 H 695.082 -3.0901 -2.40874 0
M  V30 7459 H 696.779 -3.3844 -2.1508 0
M  V30 7460 H 693.369 -4.17786 -0.956724 0
M  V30 7461 H 697.553 -4.95045 -0.352658 0
M  V30 7462 H 692.809 -6.09547 0.475693 0
M  V30 7463 H 696.983 -6.88064 1.0743 0
M  V30 7464 H 694.61 -7.45365 1.49451 0
M  V30 7465 N 696.185 0.383891 -1.52853 0
M  V30 7466 C 697.413 1.1495 -1.7203 0
M  V30 7467 C 697.828 1.83578 -0.440957 0
M  V30 7468 O 697.185 1.72872 0.584925 0
M  V30 7469 C 697.236 2.19368 -2.87333 0
M  V30 7470 O 696.957 1.53536 -4.10315 0
M  V30 7471 C 698.458 3.08616 -3.18231 0
M  V30 7472 H 695.678 0.344445 -0.575846 0
M  V30 7473 H 698.222 0.448397 -1.99524 0
M  V30 7474 H 696.377 2.85105 -2.62286 0
M  V30 7475 H 696.791 2.2296 -4.74752 0
M  V30 7476 H 698.265 3.77902 -4.02361 0
M  V30 7477 H 698.742 3.72409 -2.32826 0
M  V30 7478 H 699.348 2.48518 -3.45136 0
M  V30 7479 N 697.663 1.43903 0.642637 0
M  V30 7480 C 698.888 1.49758 1.43483 0
M  V30 7481 C 699.313 0.119911 1.87717 0
M  V30 7482 O 698.671 -0.888558 1.58033 0
M  V30 7483 C 698.719 2.45744 2.63898 0
M  V30 7484 O 697.823 1.95101 3.63331 0
M  V30 7485 H 697.164 0.506138 0.429791 0
M  V30 7486 H 699.694 1.88923 0.785438 0
M  V30 7487 H 699.704 2.63399 3.11584 0
M  V30 7488 H 698.379 3.45818 2.31046 0
M  V30 7489 H 696.956 1.87158 3.22531 0
M  V30 7490 N 699.141 -0.881989 1.30609 0
M  V30 7491 C 700.366 -1.67236 1.22665 0
M  V30 7492 C 700.791 -1.8696 -0.206777 0
M  V30 7493 O 700.149 -1.4027 -1.14865 0
M  V30 7494 C 700.197 -3.02446 1.96363 0
M  V30 7495 O 699.301 -3.91614 1.29276 0
M  V30 7496 H 698.642 -0.510902 0.424117 0
M  V30 7497 H 701.172 -1.10055 1.72479 0
M  V30 7498 H 701.182 -3.52468 2.055 0
M  V30 7499 H 699.857 -2.8741 3.00613 0
M  V30 7500 H 698.434 -3.50055 1.28514 0
M  V30 7501 N 700.619 -1.13374 -1.09472 0
M  V30 7502 C 701.566 -0.810682 -2.16094 0
M  V30 7503 C 702.536 0.227003 -1.64541 0
M  V30 7504 O 703.721 0.0993538 -1.90541 0
M  V30 7505 C 700.861 -0.282336 -3.43943 0
M  V30 7506 C 699.974 -1.37902 -4.09398 0
M  V30 7507 C 699.109 -0.809066 -5.25002 0
M  V30 7508 C 698.148 -1.88419 -5.82379 0
M  V30 7509 N 697.285 -1.33221 -6.89345 0
M  V30 7510 H 702.125 -1.72397 -2.43071 0
M  V30 7511 H 699.662 -0.860564 -1.19301 0
M  V30 7512 H 701.62 0.0421189 -4.17179 0
M  V30 7513 H 700.25 0.594083 -3.17286 0
M  V30 7514 H 699.302 -1.82008 -3.34032 0
M  V30 7515 H 700.614 -2.19161 -4.48074 0
M  V30 7516 H 699.768 -0.435867 -6.05132 0
M  V30 7517 H 698.507 0.0346058 -4.87688 0
M  V30 7518 H 697.512 -2.26646 -5.00911 0
M  V30 7519 H 698.737 -2.73125 -6.21755 0
M  V30 7520 H 696.683 -0.510535 -6.5401 0
M  V30 7521 H 696.6 -2.08129 -7.26786 0
M  V30 7522 H 697.868 -0.986565 -7.73232 0
M  V30 7523 N 702.098 1.27442 -0.927168 0
M  V30 7524 C 703.028 2.29256 -0.443188 0
M  V30 7525 C 704.009 1.62701 0.49624 0
M  V30 7526 O 705.194 1.90013 0.401105 0
M  V30 7527 C 702.324 3.45955 0.305366 0
M  V30 7528 C 701.278 4.24501 -0.546178 0
M  V30 7529 C 700.604 5.33671 0.331512 0
M  V30 7530 C 701.904 4.89921 -1.81037 0
M  V30 7531 H 703.598 2.69988 -1.29409 0
M  V30 7532 H 701.144 1.29792 -0.623705 0
M  V30 7533 H 703.097 4.1628 0.654885 0
M  V30 7534 H 701.821 3.04138 1.19029 0
M  V30 7535 H 700.48 3.55921 -0.878398 0
M  V30 7536 H 700.128 4.88096 1.21537 0
M  V30 7537 H 699.828 5.87131 -0.234746 0
M  V30 7538 H 701.352 6.0684 0.676614 0
M  V30 7539 H 702.766 5.52536 -1.52895 0
M  V30 7540 H 701.163 5.53436 -2.32009 0
M  V30 7541 H 702.233 4.13652 -2.53021 0
M  V30 7542 N 703.576 0.692616 1.41565 0
M  V30 7543 C 704.506 0.0397325 2.33466 0
M  V30 7544 C 705.487 -0.770334 1.51657 0
M  V30 7545 O 706.672 -0.723903 1.80203 0
M  V30 7546 C 703.802 -0.899495 3.3545 0
M  V30 7547 C 702.756 -0.196738 4.27548 0
M  V30 7548 C 702.082 -1.25012 5.19881 0
M  V30 7549 C 703.382 0.935158 5.1386 0
M  V30 7550 H 705.076 0.807296 2.88311 0
M  V30 7551 H 702.622 0.389665 1.38628 0
M  V30 7552 H 704.575 -1.36545 3.98665 0
M  V30 7553 H 703.299 -1.69869 2.78948 0
M  V30 7554 H 701.958 0.249158 3.65752 0
M  V30 7555 H 701.606 -2.04177 4.59696 0
M  V30 7556 H 701.306 -0.784931 5.82334 0
M  V30 7557 H 702.83 -1.71665 5.85972 0
M  V30 7558 H 704.244 0.549619 5.70659 0
M  V30 7559 H 702.641 1.32726 5.85238 0
M  V30 7560 H 703.711 1.77613 4.512 0
M  V30 7561 N 705.054 -1.51416 0.437162 0
M  V30 7562 C 706.465 -1.86682 -0.0260005 0
M  V30 7563 C 706.816 -1.35432 -1.4196 0
M  V30 7564 O 705.941 -0.705055 -2.04592 0
M  V30 7565 C 706.536 -3.38757 -0.0539577 0
M  V30 7566 C 705.095 -3.7356 -0.461532 0
M  V30 7567 C 704.242 -2.75134 0.345924 0
M  V30 7568 H 707.193 -1.44642 0.653013 0
M  V30 7569 H 707.214 -3.70573 -0.863478 0
M  V30 7570 H 706.726 -3.76028 0.96045 0
M  V30 7571 H 704.827 -3.41878 -1.48155 0
M  V30 7572 H 704.94 -4.78737 -0.186451 0
M  V30 7573 H 703.304 -2.53947 -0.195739 0
M  V30 7574 H 704.087 -3.15247 1.35921 0
M  V30 7575 N 706.532 -0.168513 -1.56696 0
M  V30 7576 C 707.495 0.748928 -2.16619 0
M  V30 7577 C 708.495 1.16007 -1.11351 0
M  V30 7578 O 709.685 1.07748 -1.3688 0
M  V30 7579 C 706.817 2.01904 -2.74677 0
M  V30 7580 H 708.01 0.227317 -2.99037 0
M  V30 7581 H 705.563 0.0810372 -1.5609 0
M  V30 7582 H 706.298 2.58381 -1.95985 0
M  V30 7583 H 706.083 1.73323 -3.51712 0
M  V30 7584 H 707.573 2.67383 -3.20774 0
M  V30 7585 N 708.01 1.57248 0.105221 0
M  V30 7586 C 708.92 2.04653 1.14693 0
M  V30 7587 C 709.936 0.969488 1.44489 0
M  V30 7588 O 711.112 1.28196 1.55331 0
M  V30 7589 C 708.177 2.45297 2.45011 0
M  V30 7590 C 707.238 3.67148 2.22489 0
M  V30 7591 C 706.471 4.05844 3.46592 0
M  V30 7592 O 706.694 3.44736 4.54437 0
M  V30 7593 O 705.628 4.98862 3.36779 0
M  V30 7594 H 709.454 2.93663 0.774336 0
M  V30 7595 H 707.039 1.45998 0.31701 0
M  V30 7596 H 708.921 2.72112 3.21766 0
M  V30 7597 H 707.596 1.59429 2.81717 0
M  V30 7598 H 706.503 3.45463 1.43547 0
M  V30 7599 H 707.836 4.53764 1.9068 0
M  V30 7600 N 709.488 -0.375779 1.53054 0
M  V30 7601 C 710.737 -1.11674 1.67964 0
M  V30 7602 C 711.05 -1.90755 0.432655 0
M  V30 7603 O 712.256 -2.67538 0.462109 0
M  V30 7604 C 710.712 -2.0344 2.96884 0
M  V30 7605 C 710.32 -1.29719 4.28809 0
M  V30 7606 C 712.064 -2.7759 3.2116 0
M  V30 7607 C 709.971 -2.20327 5.48826 0
M  V30 7608 H 708.901 -0.420597 0.625791 0
M  V30 7609 H 711.552 -0.378499 1.79554 0
M  V30 7610 H 709.934 -2.80953 2.79072 0
M  V30 7611 H 711.108 -0.573394 4.57219 0
M  V30 7612 H 709.423 -0.674735 4.10897 0
M  V30 7613 H 712.02 -3.4559 4.0801 0
M  V30 7614 H 712.363 -3.42399 2.36789 0
M  V30 7615 H 712.896 -2.07164 3.396 0
M  V30 7616 H 709.635 -1.60113 6.35645 0
M  V30 7617 H 709.155 -2.90585 5.2471 0
M  V30 7618 H 710.834 -2.80116 5.83219 0
M  V30 7619 N 710.966 -1.44241 -0.634997 0
M  V30 7620 C 711.913 -1.5081 -1.74714 0
M  V30 7621 C 712.883 -0.356147 -1.62237 0
M  V30 7622 O 714.068 -0.565848 -1.82216 0
M  V30 7623 C 711.208 -1.45458 -3.12947 0
M  V30 7624 C 710.321 -2.70998 -3.36428 0
M  V30 7625 C 709.456 -2.57507 -4.64611 0
M  V30 7626 C 708.495 -3.78229 -4.81258 0
M  V30 7627 N 707.632 -3.63438 -6.00714 0
M  V30 7628 H 712.472 -2.45832 -1.68436 0
M  V30 7629 H 710.009 -1.2201 -0.821706 0
M  V30 7630 H 711.967 -1.40347 -3.92885 0
M  V30 7631 H 710.597 -0.540058 -3.1825 0
M  V30 7632 H 709.649 -2.86312 -2.50458 0
M  V30 7633 H 710.961 -3.60619 -3.44609 0
M  V30 7634 H 710.115 -2.50207 -5.52703 0
M  V30 7635 H 708.854 -1.65441 -4.58782 0
M  V30 7636 H 707.859 -3.85918 -3.91596 0
M  V30 7637 H 709.084 -4.71327 -4.88904 0
M  V30 7638 H 707.03 -2.7412 -5.95982 0
M  V30 7639 H 706.947 -4.46672 -6.09934 0
M  V30 7640 H 708.215 -3.60022 -6.91378 0
M  V30 7641 N 712.444 0.87505 -1.31075 0
M  V30 7642 C 713.692 1.62447 -1.20231 0
M  V30 7643 C 714.013 1.93506 0.240888 0
M  V30 7644 O 713.283 1.57847 1.16022 0
M  V30 7645 H 711.863 0.602207 -0.441991 0
M  V30 7646 H 714.525 1.04788 -1.64334 0
M  V30 7647 H 713.621 2.57031 -1.77036 0
M  V30 7648 N 713.922 1.13953 1.08869 0
M  V30 7649 C 714.832 0.835666 2.19212 0
M  V30 7650 C 715.848 -0.182005 1.73045 0
M  V30 7651 O 717.024 -0.0116661 2.01397 0
M  V30 7652 C 714.089 0.312325 3.4529 0
M  V30 7653 C 713.15 1.39196 4.06107 0
M  V30 7654 C 712.383 0.893496 5.26168 0
M  V30 7655 O 712.606 -0.266807 5.69776 0
M  V30 7656 O 711.54 1.67037 5.78258 0
M  V30 7657 H 715.366 1.75769 2.47667 0
M  V30 7658 H 712.951 0.917421 1.17914 0
M  V30 7659 H 714.833 0.0261582 4.21392 0
M  V30 7660 H 713.508 -0.582042 3.18424 0
M  V30 7661 H 712.415 1.73152 3.31616 0
M  V30 7662 H 713.748 2.26068 4.37212 0
M  V30 7663 N 715.4 -1.26948 0.933913 0
M  V30 7664 C 716.333 -2.24977 0.382169 0
M  V30 7665 C 717.311 -1.53893 -0.524949 0
M  V30 7666 O 718.495 -1.82699 -0.464048 0
M  V30 7667 C 715.622 -3.35676 -0.451615 0
M  V30 7668 C 714.668 -4.24686 0.392947 0
M  V30 7669 S 715.501 -5.03898 1.81237 0
M  V30 7670 C 716.657 -6.18078 0.986443 0
M  V30 7671 H 716.89 -2.71429 1.21299 0
M  V30 7672 H 714.423 -1.35701 0.736523 0
M  V30 7673 H 716.381 -3.99901 -0.926797 0
M  V30 7674 H 715.042 -2.8785 -1.25703 0
M  V30 7675 H 714.235 -5.03402 -0.245533 0
M  V30 7676 H 713.837 -3.65288 0.802537 0
M  V30 7677 H 716.129 -6.77125 0.225321 0
M  V30 7678 H 717.072 -6.86216 1.74682 0
M  V30 7679 H 717.48 -5.62047 0.525711 0
M  V30 7680 N 716.879 -0.700114 -1.41195 0
M  V30 7681 C 717.789 -0.0382854 -2.34569 0
M  V30 7682 C 718.805 0.761036 -1.56474 0
M  V30 7683 O 719.981 0.697553 -1.88934 0
M  V30 7684 C 717.046 0.883522 -3.35253 0
M  V30 7685 C 716.107 0.0758957 -4.29233 0
M  V30 7686 C 715.34 0.9538 -5.25108 0
M  V30 7687 O 715.563 2.19326 -5.26547 0
M  V30 7688 O 714.497 0.401049 -6.00562 0
M  V30 7689 H 718.323 -0.808073 -2.92752 0
M  V30 7690 H 715.908 -0.460479 -1.42127 0
M  V30 7691 H 717.79 1.41199 -3.9704 0
M  V30 7692 H 716.465 1.63272 -2.79506 0
M  V30 7693 H 715.372 -0.497274 -3.7078 0
M  V30 7694 H 716.705 -0.634741 -4.8809 0
M  V30 7695 N 718.357 1.51182 -0.445186 0
M  V30 7696 C 719.304 2.27939 0.362291 0
M  V30 7697 C 720.274 1.31864 1.01 0
M  V30 7698 O 721.459 1.60776 1.02741 0
M  V30 7699 C 718.599 3.13016 1.45311 0
M  V30 7700 C 717.712 4.24093 0.822757 0
M  V30 7701 C 716.847 4.96467 1.88928 0
M  V30 7702 C 715.886 5.99454 1.23778 0
M  V30 7703 N 715.023 6.65206 2.24602 0
M  V30 7704 H 719.863 2.965 -0.29862 0
M  V30 7705 H 717.4 1.46237 -0.15911 0
M  V30 7706 H 719.358 3.60673 2.09692 0
M  V30 7707 H 717.988 2.46553 2.08354 0
M  V30 7708 H 717.04 3.80341 0.0670364 0
M  V30 7709 H 718.352 4.97853 0.307184 0
M  V30 7710 H 717.506 5.47712 2.60953 0
M  V30 7711 H 716.245 4.22355 2.4386 0
M  V30 7712 H 715.25 5.47494 0.503042 0
M  V30 7713 H 716.475 6.75527 0.695694 0
M  V30 7714 H 714.421 5.93901 2.78599 0
M  V30 7715 H 714.338 7.34756 1.77958 0
M  V30 7716 H 715.606 7.21078 2.96085 0
M  V30 7717 N 719.835 0.176821 1.56605 0
M  V30 7718 C 721.063 -0.472828 2.01425 0
M  V30 7719 C 721.478 -1.56436 1.05703 0
M  V30 7720 O 720.835 -1.82405 0.058808 0
M  V30 7721 C 720.886 -1.04607 3.46034 0
M  V30 7722 O 720.607 0.00189608 4.381 0
M  V30 7723 C 722.108 -1.7734 4.06282 0
M  V30 7724 H 719.328 -0.120503 0.660091 0
M  V30 7725 H 721.872 0.280166 2.02572 0
M  V30 7726 H 720.027 -1.74953 3.45645 0
M  V30 7727 H 720.441 -0.422118 5.22799 0
M  V30 7728 H 721.915 -2.12703 5.09374 0
M  V30 7729 H 722.392 -2.67043 3.4869 0
M  V30 7730 H 722.998 -1.11623 4.10391 0
M  V30 7731 N 721.313 -1.57302 -0.09688 0
M  V30 7732 C 722.724 -1.7496 -0.651595 0
M  V30 7733 C 723.075 -0.798746 -1.79205 0
M  V30 7734 O 722.2 0.0231858 -2.16388 0
M  V30 7735 C 722.795 -3.17259 -1.18878 0
M  V30 7736 C 721.354 -3.36348 -1.68958 0
M  V30 7737 C 720.501 -2.70766 -0.598413 0
M  V30 7738 H 723.452 -1.58173 0.12918 0
M  V30 7739 H 723.473 -3.20033 -2.05814 0
M  V30 7740 H 722.985 -3.8644 -0.358523 0
M  V30 7741 H 721.086 -2.72243 -2.5439 0
M  V30 7742 H 721.199 -4.44654 -1.7838 0
M  V30 7743 H 719.563 -2.32615 -1.03743 0
M  V30 7744 H 720.346 -3.42586 0.221238 0
M  V30 7745 N 722.791 0.367657 -1.53252 0
M  V30 7746 C 724.037 1.11216 -1.69584 0
M  V30 7747 C 724.37 1.89026 -0.445269 0
M  V30 7748 O 723.645 1.86342 0.557404 0
M  V30 7749 C 723.928 2.07308 -2.94441 0
M  V30 7750 C 723.781 1.3312 -4.2965 0
M  V30 7751 C 725.1 3.07459 -3.14892 0
M  V30 7752 H 722.219 0.40294 -0.617096 0
M  V30 7753 H 724.861 0.393201 -1.85887 0
M  V30 7754 H 723.011 2.68617 -2.80673 0
M  V30 7755 H 724.683 0.746111 -4.55226 0
M  V30 7756 H 722.926 0.633051 -4.29156 0
M  V30 7757 H 723.597 2.03443 -5.13142 0
M  V30 7758 H 726.073 2.56252 -3.27832 0
M  V30 7759 H 724.949 3.71919 -4.03693 0
M  V30 7760 H 725.21 3.77514 -2.30077 0
M  V30 7761 N 724.269 1.44576 0.627338 0
M  V30 7762 C 725.497 1.51048 1.41394 0
M  V30 7763 C 725.912 0.136568 1.88305 0
M  V30 7764 O 725.269 -0.858251 1.6106 0
M  V30 7765 C 725.32 2.47837 2.63172 0
M  V30 7766 O 725.041 3.79887 2.18215 0
M  V30 7767 C 726.542 2.63811 3.56257 0
M  V30 7768 H 723.762 0.512171 0.4335 0
M  V30 7769 H 726.306 1.89576 0.766878 0
M  V30 7770 H 724.461 2.12433 3.23961 0
M  V30 7771 H 724.875 4.32177 2.97192 0
M  V30 7772 H 726.349 3.35554 4.38301 0
M  V30 7773 H 726.826 1.69169 4.05313 0
M  V30 7774 H 727.432 3.0013 3.01333 0
M  V30 7775 N 725.747 -0.868086 1.31537 0
M  V30 7776 C 727.158 -1.437 1.19195 0
M  V30 7777 C 727.509 -1.95169 -0.200842 0
M  V30 7778 O 726.634 -1.86432 -1.09872 0
M  V30 7779 C 727.229 -2.612 2.15778 0
M  V30 7780 C 725.788 -3.1413 2.07363 0
M  V30 7781 C 724.935 -1.86845 2.049 0
M  V30 7782 H 727.886 -0.676457 1.43561 0
M  V30 7783 H 727.907 -3.37948 1.74847 0
M  V30 7784 H 727.419 -2.23709 3.17137 0
M  V30 7785 H 725.52 -3.56238 1.09204 0
M  V30 7786 H 725.633 -3.76285 2.96557 0
M  V30 7787 H 723.997 -2.05886 1.49943 0
M  V30 7788 H 724.78 -1.51589 3.08019 0
M  V30 7789 N 727.225 -1.14528 -1.08264 0
M  V30 7790 C 728.45 -0.938381 -1.84957 0
M  V30 7791 C 728.875 0.508044 -1.81109 0
M  V30 7792 O 728.233 1.36146 -1.19724 0
M  V30 7793 C 728.281 -1.44568 -3.30352 0
M  V30 7794 O 727.385 -0.638745 -4.07423 0
M  V30 7795 H 726.726 -0.335394 -0.573068 0
M  V30 7796 H 729.256 -1.52287 -1.36637 0
M  V30 7797 H 729.266 -1.45449 -3.81194 0
M  V30 7798 H 727.941 -2.49876 -3.32468 0
M  V30 7799 H 726.518 -0.698801 -3.66294 0
M  V30 7800 N 728.703 1.26451 -0.940633 0
M  V30 7801 C 729.635 2.25556 -0.407104 0
M  V30 7802 C 730.648 1.55888 0.469324 0
M  V30 7803 O 731.837 1.76292 0.279858 0
M  V30 7804 C 728.937 3.36109 0.434064 0
M  V30 7805 C 728.11 4.3532 -0.426082 0
M  V30 7806 C 727.169 5.25004 0.354563 0
M  V30 7807 O 726.195 5.68684 -0.242219 0
M  V30 7808 N 727.397 5.5652 1.65123 0
M  V30 7809 H 730.162 2.7197 -1.25907 0
M  V30 7810 H 727.723 1.40212 -0.809456 0
M  V30 7811 H 729.715 3.93059 0.963684 0
M  V30 7812 H 728.285 2.89194 1.18683 0
M  V30 7813 H 727.505 3.77449 -1.13692 0
M  V30 7814 H 728.793 4.986 -1.01366 0
M  V30 7815 H 728.191 5.22912 2.15822 0
M  V30 7816 H 726.748 6.16115 2.12711 0
M  V30 7817 N 730.181 0.707592 1.40822 0
M  V30 7818 C 731.429 0.243189 2.00632 0
M  V30 7819 C 731.75 -1.16512 1.56365 0
M  V30 7820 O 731.02 -1.78841 0.799553 0
M  V30 7821 H 729.6 0.0869203 0.741926 0
M  V30 7822 H 732.262 0.911438 1.72275 0
M  V30 7823 H 731.358 0.270014 3.1093 0
M  V30 7824 N 731.66 -1.50943 0.453197 0
M  V30 7825 C 732.888 -2.06628 -0.106135 0
M  V30 7826 C 733.303 -1.31901 -1.35084 0
M  V30 7827 O 732.66 -0.383074 -1.78434 0
M  V30 7828 C 732.711 -3.5914 -0.412368 0
M  V30 7829 O 732.432 -4.31047 0.782948 0
M  V30 7830 C 733.933 -4.31391 -1.02064 0
M  V30 7831 H 731.153 -0.670999 -0.000885896 0
M  V30 7832 H 733.697 -1.94331 0.63684 0
M  V30 7833 H 731.852 -3.71299 -1.10526 0
M  V30 7834 H 732.266 -5.21948 0.516736 0
M  V30 7835 H 733.74 -5.39135 -1.1848 0
M  V30 7836 H 734.217 -3.90714 -2.00598 0
M  V30 7837 H 734.823 -4.23716 -0.366664 0
M  V30 7838 N 733.138 -0.185124 -1.56509 0
M  V30 7839 C 734.101 0.72591 -2.17401 0
M  V30 7840 C 735.101 1.14819 -1.12575 0
M  V30 7841 O 736.291 1.0629 -1.38015 0
M  V30 7842 C 733.423 1.98979 -2.76803 0
M  V30 7843 H 734.616 0.195588 -2.99262 0
M  V30 7844 H 732.169 0.0644772 -1.56167 0
M  V30 7845 H 732.904 2.56287 -1.98714 0
M  V30 7846 H 732.689 1.69583 -3.53531 0
M  V30 7847 H 734.179 2.63966 -3.23592 0
M  V30 7848 N 734.616 1.57351 0.0885366 0
M  V30 7849 C 735.844 1.90631 0.804196 0
M  V30 7850 C 736.259 0.779474 1.71958 0
M  V30 7851 O 735.616 -0.248179 1.80805 0
M  V30 7852 C 735.667 3.23568 1.61202 0
M  V30 7853 O 735.388 4.31917 0.733447 0
M  V30 7854 C 736.889 3.70753 2.43016 0
M  V30 7855 H 734.109 0.630501 0.229585 0
M  V30 7856 H 736.653 2.044 0.0638092 0
M  V30 7857 H 734.808 3.11377 2.30485 0
M  V30 7858 H 735.222 5.08297 1.29361 0
M  V30 7859 H 736.696 4.66447 2.9518 0
M  V30 7860 H 737.173 2.98922 3.2178 0
M  V30 7861 H 737.779 3.85834 1.7892 0
M  V30 7862 N 736.094 -0.359525 1.53444 0
M  V30 7863 C 737.041 -1.44073 1.8031 0
M  V30 7864 C 738.011 -1.52946 0.647811 0
M  V30 7865 O 739.196 -1.68739 0.890614 0
M  V30 7866 C 736.336 -2.80941 2.00416 0
M  V30 7867 C 735.449 -2.80986 3.28132 0
M  V30 7868 C 734.584 -4.09468 3.38393 0
M  V30 7869 C 733.623 -4.03679 4.60119 0
M  V30 7870 N 732.76 -5.23821 4.675 0
M  V30 7871 H 737.6 -1.20464 2.72566 0
M  V30 7872 H 735.137 -0.583859 1.35017 0
M  V30 7873 H 737.095 -3.60459 2.1006 0
M  V30 7874 H 735.725 -3.02936 1.11489 0
M  V30 7875 H 734.777 -1.93666 3.27411 0
M  V30 7876 H 736.089 -2.72583 4.17732 0
M  V30 7877 H 735.243 -4.97404 3.47382 0
M  V30 7878 H 733.982 -4.20632 2.4682 0
M  V30 7879 H 732.987 -3.14129 4.51224 0
M  V30 7880 H 734.212 -3.94112 5.5304 0
M  V30 7881 H 732.158 -5.35559 3.7883 0
M  V30 7882 H 732.075 -5.17611 5.51013 0
M  V30 7883 H 733.343 -6.13572 4.8078 0
M  V30 7884 N 737.572 -1.44907 -0.619662 0
M  V30 7885 C 738.802 -1.51575 -1.40387 0
M  V30 7886 C 739.21 -0.14309 -1.88658 0
M  V30 7887 O 738.553 0.863403 -1.62145 0
M  V30 7888 C 738.615 -2.42858 -2.65067 0
M  V30 7889 C 738.279 -3.8982 -2.38515 0
M  V30 7890 C 739.276 -4.80047 -1.99627 0
M  V30 7891 C 736.961 -4.34628 -2.51801 0
M  V30 7892 C 738.955 -6.13086 -1.74369 0
M  V30 7893 C 736.642 -5.67712 -2.26156 0
M  V30 7894 C 737.64 -6.56759 -1.875 0
M  V30 7895 O 737.328 -7.87377 -1.62148 0
M  V30 7896 H 737.06 -0.51612 -0.436573 0
M  V30 7897 H 739.614 -1.90664 -0.763959 0
M  V30 7898 H 737.844 -1.98717 -3.31735 0
M  V30 7899 H 739.533 -2.40346 -3.27091 0
M  V30 7900 H 740.299 -4.46697 -1.8891 0
M  V30 7901 H 736.178 -3.65568 -2.80857 0
M  V30 7902 H 739.722 -6.8255 -1.44122 0
M  V30 7903 H 735.619 -6.0062 -2.36486 0
M  V30 7904 H 736.387 -7.99288 -1.763 0
M  V30 7905 N 739.05 0.861098 -1.31996 0
M  V30 7906 C 740.461 1.43065 -1.19955 0
M  V30 7907 C 740.812 1.95273 0.190489 0
M  V30 7908 O 739.937 1.87012 1.08882 0
M  V30 7909 C 740.532 2.60052 -2.1716 0
M  V30 7910 C 739.091 3.13026 -2.09026 0
M  V30 7911 C 738.238 1.85756 -2.05888 0
M  V30 7912 H 741.189 0.668834 -1.43918 0
M  V30 7913 H 741.21 3.37016 -1.76637 0
M  V30 7914 H 740.722 2.22024 -3.18319 0
M  V30 7915 H 738.823 3.55653 -1.11092 0
M  V30 7916 H 738.936 3.74707 -2.98549 0
M  V30 7917 H 737.3 2.05088 -1.51033 0
M  V30 7918 H 738.083 1.49954 -3.08818 0
M  V30 7919 N 740.528 1.15101 1.07655 0
M  V30 7920 C 741.491 0.847625 2.12951 0
M  V30 7921 C 742.491 -0.151227 1.60087 0
M  V30 7922 O 743.681 0.0780399 1.74025 0
M  V30 7923 C 740.813 0.265 3.39868 0
M  V30 7924 H 742.006 1.7809 2.41296 0
M  V30 7925 H 739.559 0.958072 1.23494 0
M  V30 7926 H 740.294 -0.676625 3.17163 0
M  V30 7927 H 740.079 0.984554 3.79538 0
M  V30 7928 H 741.569 0.0702121 4.17541 0
M  V30 7929 N 742.006 -1.2595 0.947325 0
M  V30 7930 C 742.953 -2.26159 0.460497 0
M  V30 7931 C 743.923 -1.58919 -0.483125 0
M  V30 7932 O 745.108 -1.86603 -0.397983 0
M  V30 7933 C 742.248 -3.441 -0.26247 0
M  V30 7934 C 741.361 -4.25999 0.717539 0
M  V30 7935 C 740.496 -5.31193 -0.0272486 0
M  V30 7936 C 739.535 -6.04774 0.944177 0
M  V30 7937 N 738.672 -7.01721 0.230741 0
M  V30 7938 H 743.512 -2.67173 1.31995 0
M  V30 7939 H 741.049 -1.31358 0.662088 0
M  V30 7940 H 743.007 -4.11317 -0.698137 0
M  V30 7941 H 741.637 -3.03983 -1.08602 0
M  V30 7942 H 740.689 -3.58513 1.27171 0
M  V30 7943 H 742.001 -4.76981 1.45913 0
M  V30 7944 H 741.155 -6.04451 -0.521903 0
M  V30 7945 H 739.894 -4.81066 -0.801682 0
M  V30 7946 H 738.899 -5.30338 1.4499 0
M  V30 7947 H 740.124 -6.56991 1.71872 0
M  V30 7948 H 738.07 -6.53895 -0.525088 0
M  V30 7949 H 737.987 -7.50484 0.911556 0
M  V30 7950 H 739.255 -7.79122 -0.242616 0
M  V30 7951 N 743.484 -0.715051 -1.40445 0
M  V30 7952 C 744.709 -0.26254 -2.05732 0
M  V30 7953 C 745.134 1.08691 -1.53519 0
M  V30 7954 O 744.492 1.68453 -0.670328 0
M  V30 7955 C 744.54 -0.25195 -3.59719 0
M  V30 7956 O 743.644 0.766998 -4.05205 0
M  V30 7957 H 742.985 -0.123398 -0.652433 0
M  V30 7958 H 745.515 -0.975382 -1.79854 0
M  V30 7959 H 745.525 -0.0894537 -4.07902 0
M  V30 7960 H 744.2 -1.23672 -3.97087 0
M  V30 7961 H 742.777 0.572269 -3.68483 0
M  V30 7962 N 744.962 1.50701 -0.461195 0
M  V30 7963 C 746.21 2.01867 0.0970051 0
M  V30 7964 C 746.531 1.34591 1.41104 0
M  V30 7965 O 745.801 0.488041 1.89723 0
M  V30 7966 H 744.381 0.74599 0.0388392 0
M  V30 7967 H 747.043 1.85129 -0.609357 0
M  V30 7968 H 746.139 3.11051 0.255688 0
M  V30 7969 N 746.441 0.193421 1.56409 0
M  V30 7970 C 747.404 -0.714371 2.17783 0
M  V30 7971 C 748.404 -1.1422 1.13183 0
M  V30 7972 O 749.594 -1.05557 1.38576 0
M  V30 7973 C 746.726 -1.97509 2.77855 0
M  V30 7974 H 747.919 -0.179714 2.99361 0
M  V30 7975 H 745.472 -0.0561944 1.56199 0
M  V30 7976 H 746.207 -2.5523 2.0007 0
M  V30 7977 H 745.992 -1.67706 3.54425 0
M  V30 7978 H 747.482 -2.62246 3.24987 0
M  V30 7979 N 747.919 -1.57396 -0.0801906 0
M  V30 7980 C 748.849 -2.06145 -1.09665 0
M  V30 7981 C 749.83 -0.953273 -1.40878 0
M  V30 7982 O 751.015 -1.22548 -1.50651 0
M  V30 7983 C 748.145 -2.49836 -2.41245 0
M  V30 7984 C 747.099 -3.64454 -2.24405 0
M  V30 7985 C 746.425 -3.94172 -3.61293 0
M  V30 7986 C 747.725 -4.94807 -1.67223 0
M  V30 7987 H 749.419 -2.91316 -0.691028 0
M  V30 7988 H 746.965 -1.40145 -0.330957 0
M  V30 7989 H 748.918 -2.82552 -3.12638 0
M  V30 7990 H 747.642 -1.61683 -2.83771 0
M  V30 7991 H 746.301 -3.32008 -1.55454 0
M  V30 7992 H 745.949 -3.03163 -4.01374 0
M  V30 7993 H 745.649 -4.71345 -3.50867 0
M  V30 7994 H 747.173 -4.29376 -4.3413 0
M  V30 7995 H 748.587 -5.25807 -2.28472 0
M  V30 7996 H 746.984 -5.76245 -1.67515 0
M  V30 7997 H 748.054 -4.80751 -0.632944 0
M  V30 7998 N 749.397 0.351382 -1.53633 0
M  V30 7999 C 750.622 1.11718 -1.74739 0
M  V30 8000 C 751.047 1.81829 -0.481657 0
M  V30 8001 O 750.405 1.72264 0.565233 0
M  V30 8002 C 750.453 2.11234 -2.92254 0
M  V30 8003 O 749.557 3.186 -2.61855 0
M  V30 8004 H 748.898 0.323482 -0.579875 0
M  V30 8005 H 751.428 0.404167 -2.00568 0
M  V30 8006 H 751.438 2.54591 -3.18822 0
M  V30 8007 H 750.113 1.59599 -3.84058 0
M  V30 8008 H 748.69 2.80115 -2.4615 0
M  V30 8009 N 750.875 1.45233 0.611969 0
M  V30 8010 C 752.291 1.29542 0.932251 0
M  V30 8011 C 752.491 0.24523 2.00002 0
M  V30 8012 O 751.547 -0.362333 2.49887 0
M  V30 8013 C 752.86 2.67301 1.37733 0
M  V30 8014 C 754.408 2.75163 1.49178 0
M  V30 8015 C 754.883 4.13437 1.97064 0
M  V30 8016 N 756.374 4.15709 2.04304 0
M  V30 8017 C 757.109 5.19566 2.42568 0
M  V30 8018 N 756.605 6.33771 2.79832 0
M  V30 8019 N 758.398 5.06923 2.42869 0
M  V30 8020 H 750.549 2.12192 -0.0938679 0
M  V30 8021 H 752.812 0.947775 0.0206569 0
M  V30 8022 H 752.518 3.45318 0.666951 0
M  V30 8023 H 752.392 2.95472 2.3447 0
M  V30 8024 H 754.779 1.97453 2.19309 0
M  V30 8025 H 754.86 2.50712 0.507674 0
M  V30 8026 H 754.504 4.91631 1.27521 0
M  V30 8027 H 754.434 4.35277 2.9638 0
M  V30 8028 H 756.925 3.33293 1.78113 0
M  V30 8029 H 757.238 7.08815 3.07898 0
M  V30 8030 H 755.583 6.37179 2.77538 0
M  V30 8031 H 758.774 4.1675 2.1316 0
M  V30 8032 H 758.947 5.87981 2.72364 0
M  V30 8033 N 752.353 -0.854086 1.3245 0
M  V30 8034 C 753.581 -1.64074 1.26045 0
M  V30 8035 C 753.996 -1.8802 -0.171456 0
M  V30 8036 O 753.353 -1.4496 -1.10873 0
M  V30 8037 C 753.404 -2.9997 2.01743 0
M  V30 8038 O 753.125 -2.77084 3.39346 0
M  V30 8039 C 754.626 -3.94414 2.02368 0
M  V30 8040 H 751.846 -0.511015 0.434862 0
M  V30 8041 H 754.39 -1.06494 1.74583 0
M  V30 8042 H 752.545 -3.54193 1.56926 0
M  V30 8043 H 752.959 -3.63514 3.78098 0
M  V30 8044 H 754.433 -4.87032 2.59815 0
M  V30 8045 H 754.91 -4.27427 1.01009 0
M  V30 8046 H 755.516 -3.46127 2.47135 0
M  V30 8047 N 753.831 -1.1567 -1.07043 0
M  V30 8048 C 754.778 -0.856336 -2.14326 0
M  V30 8049 C 755.748 0.192051 -1.64986 0
M  V30 8050 O 756.933 0.0589148 -1.90709 0
M  V30 8051 C 754.073 -0.355227 -3.43267 0
M  V30 8052 C 753.186 -1.46555 -4.06381 0
M  V30 8053 C 752.321 -0.920245 -5.23168 0
M  V30 8054 C 751.36 -2.00729 -5.78251 0
M  V30 8055 N 750.497 -1.47813 -6.86364 0
M  V30 8056 H 755.337 -1.77514 -2.39359 0
M  V30 8057 H 752.874 -0.885676 -1.17449 0
M  V30 8058 H 754.832 -0.0463804 -4.17174 0
M  V30 8059 H 753.462 0.526649 -3.18475 0
M  V30 8060 H 752.514 -1.89052 -3.30096 0
M  V30 8061 H 753.826 -2.28616 -4.43324 0
M  V30 8062 H 752.98 -0.564127 -6.04072 0
M  V30 8063 H 751.719 -0.0688477 -4.87651 0
M  V30 8064 H 750.724 -2.3722 -4.95991 0
M  V30 8065 H 751.949 -2.86252 -6.15822 0
M  V30 8066 H 749.895 -0.649145 -6.5278 0
M  V30 8067 H 749.812 -2.23498 -7.22208 0
M  V30 8068 H 751.08 -1.15036 -7.70965 0
M  V30 8069 N 755.309 1.25446 -0.953992 0
M  V30 8070 C 756.256 2.25912 -0.472485 0
M  V30 8071 C 757.226 1.59173 0.47469 0
M  V30 8072 O 758.411 1.86812 0.388082 0
M  V30 8073 C 755.551 3.44235 0.244218 0
M  V30 8074 C 754.664 4.25613 -0.740121 0
M  V30 8075 C 753.799 5.312 -0.000922267 0
M  V30 8076 C 752.838 6.04265 -0.976236 0
M  V30 8077 N 751.975 7.01589 -0.267952 0
M  V30 8078 H 756.815 2.66469 -1.3341 0
M  V30 8079 H 754.352 1.31005 -0.669045 0
M  V30 8080 H 756.31 4.11682 0.676314 0
M  V30 8081 H 754.94 3.04554 1.06988 0
M  V30 8082 H 753.992 3.57834 -1.2907 0
M  V30 8083 H 755.304 4.762 -1.48441 0
M  V30 8084 H 754.458 6.04719 0.48984 0
M  V30 8085 H 753.197 4.81484 0.776159 0
M  V30 8086 H 752.202 5.29561 -1.478 0
M  V30 8087 H 753.427 6.5607 -1.75354 0
M  V30 8088 H 751.373 6.54164 0.490403 0
M  V30 8089 H 751.29 7.4999 -0.951344 0
M  V30 8090 H 752.558 7.7924 0.201294 0
M  V30 8091 N 756.787 0.722489 1.40064 0
M  V30 8092 C 757.734 0.0743738 2.3068 0
M  V30 8093 C 758.704 -0.743004 1.48555 0
M  V30 8094 O 759.889 -0.705536 1.77276 0
M  V30 8095 C 757.029 -0.836292 3.34814 0
M  V30 8096 C 756.142 -0.00764663 4.31999 0
M  V30 8097 C 755.277 -0.918428 5.232 0
M  V30 8098 C 754.316 -0.0842838 6.12042 0
M  V30 8099 N 753.453 -0.950316 6.95639 0
M  V30 8100 H 758.293 0.852794 2.85537 0
M  V30 8101 H 755.83 0.432222 1.40607 0
M  V30 8102 H 757.788 -1.3786 3.93765 0
M  V30 8103 H 756.418 -1.58082 2.81443 0
M  V30 8104 H 755.47 0.651928 3.74772 0
M  V30 8105 H 756.782 0.63786 4.94705 0
M  V30 8106 H 755.936 -1.52902 5.87116 0
M  V30 8107 H 754.675 -1.59774 4.60786 0
M  V30 8108 H 753.68 0.5392 5.4715 0
M  V30 8109 H 754.905 0.591628 6.76518 0
M  V30 8110 H 752.851 -1.61515 6.35806 0
M  V30 8111 H 752.768 -0.361004 7.55138 0
M  V30 8112 H 754.036 -1.54687 7.63997 0
M  V30 8113 N 758.265 -1.50454 0.469181 0
M  V30 8114 C 759.195 -2.31353 -0.31592 0
M  V30 8115 C 760.176 -1.38172 -0.992094 0
M  V30 8116 O 761.361 -1.67093 -0.989633 0
M  V30 8117 C 758.491 -3.1786 -1.39937 0
M  V30 8118 C 757.445 -4.19578 -0.844909 0
M  V30 8119 C 756.771 -4.9481 -2.0265 0
M  V30 8120 C 758.071 -5.22106 0.142499 0
M  V30 8121 H 759.765 -2.97237 0.359269 0
M  V30 8122 H 757.311 -1.42942 0.174224 0
M  V30 8123 H 759.264 -3.7325 -1.95607 0
M  V30 8124 H 757.988 -2.49858 -2.1033 0
M  V30 8125 H 756.647 -3.65285 -0.310189 0
M  V30 8126 H 756.295 -4.23282 -2.71737 0
M  V30 8127 H 755.995 -5.63613 -1.66174 0
M  V30 8128 H 757.519 -5.53035 -2.58815 0
M  V30 8129 H 758.933 -5.72378 -0.324966 0
M  V30 8130 H 757.33 -5.98618 0.421441 0
M  V30 8131 H 758.4 -4.7297 1.06901 0
M  V30 8132 O 759.782 -0.343108 -1.57813 0
M  V30 8133 H 760.473 0.212482 -1.92531 0
M  V30 END ATOM
M  V30 BEGIN BOND
M  V30 END BOND
M  V30 END CTAB
M  END
$$$$
