drugbank_target|P43353 Aldehyde dehydrogenase family 3 member B1 (DB00157)
 OpenBabel12092119323D

  0  0  0     0  0            999 V3000
M  V30 BEGIN CTAB
M  V30 COUNTS 7299 7376 0 0 0
M  V30 BEGIN ATOM
M  V30 1 H -0.908 1.98254 -0.117106 0
M  V30 2 N 0 1.576 0 0
M  V30 3 C 0.933 2.03868 1.02534 0
M  V30 4 C 1.911 0.928543 1.3348 0
M  V30 5 O 3.095 1.19667 1.45644 0
M  V30 6 C 0.222 2.43627 2.35294 0
M  V30 7 C -0.732 3.65373 2.2001 0
M  V30 8 S 0.101 5.13292 1.52614 0
M  V30 9 C 1.257 5.56322 2.86805 0
M  V30 10 H 1.49 2.90518 0.631377 0
M  V30 11 H -0.977 1.52953 0.210867 0
M  V30 12 H 0.981 2.67203 3.11629 0
M  V30 13 H -0.358 1.57376 2.7183 0
M  V30 14 H -1.165 3.90944 3.18086 0
M  V30 15 H -1.563 3.418 1.51819 0
M  V30 16 H 0.729 5.58782 3.83104 0
M  V30 17 H 1.672 6.56266 2.65933 0
M  V30 18 H 2.08 4.83886 2.90714 0
M  V30 19 N 1.4781 -0.272755 1.55222 0
M  V30 20 C 2.7551 -1.02562 1.66555 0
M  V30 21 C 3.1351 -2.04282 0.532189 0
M  V30 22 O 2.4831 -2.23662 -0.467717 0
M  V30 23 C 2.6931 -1.6822 3.05782 0
M  V30 24 C 4.0411 -2.19373 3.63539 0
M  V30 25 O 5.0651 -1.78206 3.08417 0
M  V30 26 O 3.9241 -2.94883 4.60115 0
M  V30 27 H 1.0181 -0.475755 0.676451 0
M  V30 28 H 3.5641 -0.268593 1.67561 0
M  V30 29 H 2.3361 -0.945112 3.79715 0
M  V30 30 H 1.9591 -2.50609 3.08676 0
M  V30 31 N 2.9562 -1.48159 -0.537278 0
M  V30 32 C 4.3672 -1.49429 -1.11928 0
M  V30 33 C 4.7182 -0.26 -1.9447 0
M  V30 34 O 3.8432 0.633489 -2.0692 0
M  V30 35 C 4.4382 -2.70758 -2.03656 0
M  V30 36 C 2.9972 -2.74923 -2.57088 0
M  V30 37 C 2.1442 -2.42835 -1.3389 0
M  V30 38 H 5.0952 -1.55381 -0.322886 0
M  V30 39 H 5.1162 -2.48861 -2.87834 0
M  V30 40 H 4.6282 -3.60575 -1.43553 0
M  V30 41 H 2.7292 -1.89296 -3.20933 0
M  V30 42 H 2.8422 -3.76157 -2.9672 0
M  V30 43 H 1.2062 -1.93836 -1.65226 0
M  V30 44 H 1.9892 -3.34884 -0.755504 0
M  V30 45 N 4.4343 0.785586 -1.36625 0
M  V30 46 C 5.3643 1.91259 -1.33949 0
M  V30 47 C 6.3453 1.68795 -0.210325 0
M  V30 48 O 7.5303 1.89854 -0.408561 0
M  V30 49 C 4.6603 3.28339 -1.13186 0
M  V30 50 C 3.6143 3.65335 -2.22967 0
M  V30 51 C 2.9403 5.00806 -1.87342 0
M  V30 52 C 4.2403 3.7352 -3.65075 0
M  V30 53 H 5.9343 1.93755 -2.28253 0
M  V30 54 H 3.4803 0.930788 -1.09874 0
M  V30 55 H 5.4333 4.06804 -1.09948 0
M  V30 56 H 4.1573 3.2624 -0.153332 0
M  V30 57 H 2.8163 2.89169 -2.25337 0
M  V30 58 H 2.4643 4.95233 -0.880545 0
M  V30 59 H 2.1643 5.26529 -2.60846 0
M  V30 60 H 3.6883 5.81687 -1.85667 0
M  V30 61 H 5.1023 4.42168 -3.64911 0
M  V30 62 H 3.4993 4.10731 -4.37516 0
M  V30 63 H 4.5693 2.74527 -3.99703 0
M  V30 64 N 5.9124 1.20967 1.01018 0
M  V30 65 C 7.1604 1.02172 1.74371 0
M  V30 66 C 7.4814 -0.446414 1.89821 0
M  V30 67 O 6.7514 -1.32234 1.44537 0
M  V30 68 H 5.3314 0.375066 0.646014 0
M  V30 69 H 7.9934 1.52187 1.21758 0
M  V30 70 H 7.0894 1.48538 2.74487 0
M  V30 71 N 7.3905 -1.2043 1.01659 0
M  V30 72 C 8.6675 -1.8548 0.621004 0
M  V30 73 C 9.0475 -1.9091 -0.900919 0
M  V30 74 O 8.3955 -1.41694 -1.79263 0
M  V30 75 C 8.6055 -3.25119 1.2688 0
M  V30 76 C 9.9535 -4.01403 1.38423 0
M  V30 77 O 10.9775 -3.34473 1.22501 0
M  V30 78 O 9.8365 -5.21265 1.64151 0
M  V30 79 H 6.9305 -0.798761 0.214266 0
M  V30 80 H 9.4765 -1.28019 1.11396 0
M  V30 81 H 8.2485 -3.15932 2.30873 0
M  V30 82 H 7.8715 -3.90212 0.762917 0
M  V30 83 N 8.8686 -0.792821 -1.36206 0
M  V30 84 C 10.0966 -0.378825 -2.03402 0
M  V30 85 C 10.5116 1.00586 -1.59774 0
M  V30 86 O 9.8686 1.64574 -0.788764 0
M  V30 87 C 9.9196 -0.43683 -3.58851 0
M  V30 88 O 9.6406 -1.76691 -4.00889 0
M  V30 89 C 11.1416 -0.0138943 -4.43298 0
M  V30 90 H 8.3616 -0.155673 -0.652692 0
M  V30 91 H 10.9056 -1.07261 -1.74113 0
M  V30 92 H 9.0606 0.208575 -3.86838 0
M  V30 93 H 9.4746 -1.72011 -4.95492 0
M  V30 94 H 10.9486 -0.105615 -5.51899 0
M  V30 95 H 11.4256 1.03915 -4.2673 0
M  V30 96 H 12.0316 -0.63192 -4.20579 0
M  V30 97 N 10.3467 1.47872 -0.545128 0
M  V30 98 C 11.2767 2.32661 0.197793 0
M  V30 99 C 12.2577 1.43041 0.920504 0
M  V30 100 O 13.4427 1.71912 0.90333 0
M  V30 101 C 10.5727 3.24569 1.23582 0
M  V30 102 C 9.5267 4.23333 0.630323 0
M  V30 103 C 8.8527 5.0448 1.77211 0
M  V30 104 C 10.1527 5.20704 -0.407974 0
M  V30 105 H 11.8467 2.95024 -0.510045 0
M  V30 106 H 9.3927 1.4187 -0.246731 0
M  V30 107 H 11.3457 3.8272 1.76362 0
M  V30 108 H 10.0697 2.60236 1.97344 0
M  V30 109 H 8.7287 3.6639 0.123922 0
M  V30 110 H 8.3767 4.36561 2.49847 0
M  V30 111 H 8.0767 5.71339 1.37281 0
M  V30 112 H 9.6007 5.65487 2.3034 0
M  V30 113 H 11.0147 5.7329 0.033305 0
M  V30 114 H 9.4117 5.95699 -0.725486 0
M  V30 115 H 10.4817 4.66917 -1.30828 0
M  V30 116 N 11.8248 0.280983 1.55075 0
M  V30 117 C 13.2408 -0.0729964 1.59433 0
M  V30 118 C 13.4408 -1.5411 1.29817 0
M  V30 119 O 12.4968 -2.29086 1.06187 0
M  V30 120 C 13.8098 0.306921 2.9913 0
M  V30 121 C 15.3578 0.254023 3.11968 0
M  V30 122 C 15.8328 0.608467 4.5394 0
M  V30 123 N 17.3238 0.560241 4.59799 0
M  V30 124 C 18.0588 0.80722 5.6769 0
M  V30 125 N 17.5548 1.11912 6.83701 0
M  V30 126 N 19.3478 0.735623 5.57266 0
M  V30 127 H 11.4988 1.238 1.7259 0
M  V30 128 H 13.7618 0.500547 0.805082 0
M  V30 129 H 13.4678 1.32816 3.25657 0
M  V30 130 H 13.3418 -0.349363 3.75579 0
M  V30 131 H 15.7288 -0.75794 2.852 0
M  V30 132 H 15.8098 0.944649 2.37718 0
M  V30 133 H 15.4538 1.61814 4.81434 0
M  V30 134 H 15.3838 -0.104013 5.26497 0
M  V30 135 H 17.8748 0.329288 3.76463 0
M  V30 136 H 18.1878 1.29409 7.61888 0
M  V30 137 H 16.5328 1.15695 6.85303 0
M  V30 138 H 19.7238 0.491752 4.6551 0
M  V30 139 H 19.8968 0.931482 6.4127 0
M  V30 140 N 13.3029 -1.57598 0.00835791 0
M  V30 141 C 14.7189 -1.55764 -0.347822 0
M  V30 142 C 14.9189 -1.01186 -1.74252 0
M  V30 143 O 13.9749 -0.649371 -2.44007 0
M  V30 144 C 15.2879 -2.99927 -0.215407 0
M  V30 145 C 16.8359 -3.11656 -0.289725 0
M  V30 146 C 17.3109 -4.57621 -0.18634 0
M  V30 147 N 18.8019 -4.62557 -0.243978 0
M  V30 148 C 19.5369 -5.73094 -0.18745 0
M  V30 149 N 19.0329 -6.92753 -0.0810331 0
M  V30 150 N 20.8259 -5.61588 -0.239925 0
M  V30 151 H 12.9769 -1.91411 0.92062 0
M  V30 152 H 15.2399 -0.879562 0.353659 0
M  V30 153 H 14.9459 -3.43729 0.744512 0
M  V30 154 H 14.8199 -3.63865 -0.994097 0
M  V30 155 H 17.2069 -2.67779 -1.24009 0
M  V30 156 H 17.2879 -2.5048 0.51898 0
M  V30 157 H 16.9319 -5.02174 0.760519 0
M  V30 158 H 16.8619 -5.16752 -1.01364 0
M  V30 159 H 19.3529 -3.76481 -0.327217 0
M  V30 160 H 19.6659 -7.72787 -0.0440241 0
M  V30 161 H 18.0109 -6.94984 -0.0465419 0
M  V30 162 H 21.2019 -4.66996 -0.321317 0
M  V30 163 H 21.3749 -6.47714 -0.192407 0
M  V30 164 N 14.781 0.264519 -1.55364 0
M  V30 165 C 15.711 1.33121 -1.91836 0
M  V30 166 C 16.692 1.51101 -0.781192 0
M  V30 167 O 17.877 1.64003 -1.04003 0
M  V30 168 C 15.007 2.68921 -2.19769 0
M  V30 169 C 13.961 2.65661 -3.35571 0
M  V30 170 C 13.287 4.05093 -3.49004 0
M  V30 171 C 14.587 2.24187 -4.71739 0
M  V30 172 H 16.281 1.02844 -2.81182 0
M  V30 173 H 13.827 0.493286 -1.35287 0
M  V30 174 H 15.78 3.43663 -2.43872 0
M  V30 175 H 14.504 3.00799 -1.27231 0
M  V30 176 H 13.163 1.93377 -3.1145 0
M  V30 177 H 12.811 4.34206 -2.53917 0
M  V30 178 H 12.511 4.03804 -4.26868 0
M  V30 179 H 14.035 4.81561 -3.75408 0
M  V30 180 H 15.449 2.88654 -4.9533 0
M  V30 181 H 13.846 2.34044 -5.52579 0
M  V30 182 H 14.916 1.19327 -4.69988 0
M  V30 183 N 16.2591 1.48442 0.529413 0
M  V30 184 C 17.6751 1.34575 0.858004 0
M  V30 185 C 17.8751 0.3572 1.98309 0
M  V30 186 O 16.9311 -0.221379 2.51528 0
M  V30 187 C 18.2441 2.74617 1.22499 0
M  V30 188 C 19.7921 2.83109 1.33484 0
M  V30 189 C 20.2671 4.23854 1.73526 0
M  V30 190 N 21.7581 4.2653 1.80628 0
M  V30 191 C 22.4931 5.32372 2.12997 0
M  V30 192 N 21.9891 6.48491 2.43786 0
M  V30 193 N 23.7821 5.19766 2.14008 0
M  V30 194 H 15.9331 2.1133 -0.212925 0
M  V30 195 H 18.1961 0.947439 -0.0326199 0
M  V30 196 H 17.9021 3.4852 0.471905 0
M  V30 197 H 17.7761 3.08177 2.17501 0
M  V30 198 H 20.1631 2.09462 2.0787 0
M  V30 199 H 20.2441 2.53168 0.366027 0
M  V30 200 H 19.8881 4.98018 0.997013 0
M  V30 201 H 19.8181 4.5124 2.71459 0
M  V30 202 H 22.3091 3.42772 1.59108 0
M  V30 203 H 22.6221 7.24993 2.67592 0
M  V30 204 H 20.9671 6.51765 2.41304 0
M  V30 205 H 24.1581 4.28066 1.89412 0
M  V30 206 H 24.3311 6.02354 2.38902 0
M  V30 207 N 17.7372 -0.778329 1.37039 0
M  V30 208 C 18.6472 -1.92253 1.34446 0
M  V30 209 C 19.6632 -1.72267 0.244991 0
M  V30 210 O 20.8392 -1.95615 0.479258 0
M  V30 211 C 17.9042 -3.27282 1.144 0
M  V30 212 C 16.9652 -3.59969 2.33925 0
M  V30 213 C 16.1982 -4.88555 2.14825 0
M  V30 214 O 16.4212 -5.59113 1.12912 0
M  V30 215 O 15.3552 -5.20153 3.02861 0
M  V30 216 H 19.1812 -1.97392 2.30803 0
M  V30 217 H 16.7662 -0.920154 1.17701 0
M  V30 218 H 18.6482 -4.08062 1.05182 0
M  V30 219 H 17.3232 -3.23011 0.211124 0
M  V30 220 H 16.2302 -2.7945 2.48714 0
M  V30 221 H 17.5632 -3.68976 3.25757 0
M  V30 222 N 19.2153 -1.21501 -1.00376 0
M  V30 223 C 20.1783 -0.976927 -2.07337 0
M  V30 224 C 21.1783 0.0525322 -1.60714 0
M  V30 225 O 22.3683 -0.184869 -1.73216 0
M  V30 226 C 19.5003 -0.473423 -3.37597 0
M  V30 227 H 20.6933 -1.92587 -2.29892 0
M  V30 228 H 18.2463 -1.03217 -1.17371 0
M  V30 229 H 18.9813 0.480379 -3.20722 0
M  V30 230 H 18.7663 -1.216 -3.72768 0
M  V30 231 H 20.2563 -0.32675 -4.1632 0
M  V30 232 N 20.6934 1.19889 -1.02296 0
M  V30 233 C 21.9404 1.8942 -0.715972 0
M  V30 234 C 22.2684 1.79251 0.754944 0
M  V30 235 O 21.5234 1.17526 1.56481 0
M  V30 236 C 21.8224 3.39883 -1.10518 0
M  V30 237 C 21.4884 3.70254 -2.57337 0
M  V30 238 C 20.1504 3.78254 -2.97452 0
M  V30 239 C 22.5024 3.84052 -3.52354 0
M  V30 240 C 19.8304 3.97514 -4.31509 0
M  V30 241 C 22.1824 4.04824 -4.86108 0
M  V30 242 C 20.8464 4.11054 -5.25919 0
M  V30 243 H 20.1164 0.693138 -0.261993 0
M  V30 244 H 22.7634 1.42012 -1.28472 0
M  V30 245 H 21.0684 3.8915 -0.454953 0
M  V30 246 H 22.7654 3.9199 -0.845261 0
M  V30 247 H 19.3554 3.64632 -2.25258 0
M  V30 248 H 23.5394 3.77221 -3.22518 0
M  V30 249 H 18.7954 4.00574 -4.61898 0
M  V30 250 H 22.9694 4.14442 -5.59653 0
M  V30 251 H 20.5964 4.2573 -6.29808 0
M  V30 252 N 22.1715 0.800033 1.35784 0
M  V30 253 C 23.1215 0.178654 2.27299 0
M  V30 254 C 24.1055 -0.643667 1.47464 0
M  V30 255 O 25.2975 -0.502 1.69732 0
M  V30 256 C 22.4265 -0.677194 3.36555 0
M  V30 257 C 21.5125 0.154497 4.23818 0
M  V30 258 N 21.9035 1.21427 4.91008 0
M  V30 259 C 20.2015 -0.0649462 4.45953 0
M  V30 260 C 20.9025 1.72147 5.55644 0
M  V30 261 N 19.8785 1.02897 5.33773 0
M  V30 262 H 23.6805 0.989637 2.76737 0
M  V30 263 H 21.1945 0.64054 1.49234 0
M  V30 264 H 23.1915 -1.13835 4.01058 0
M  V30 265 H 21.8515 -1.4866 2.8867 0
M  V30 266 H 22.8625 1.59684 4.92668 0
M  V30 267 H 19.5395 -0.844016 4.0888 0
M  V30 268 H 20.9295 2.60683 6.19269 0
M  V30 269 N 23.6496 -1.47581 0.552962 0
M  V30 270 C 24.6126 -2.28439 -0.186605 0
M  V30 271 C 25.6126 -1.36706 -0.84665 0
M  V30 272 O 26.8026 -1.59378 -0.703164 0
M  V30 273 C 23.9346 -3.16264 -1.2724 0
M  V30 274 H 25.1276 -2.95294 0.523609 0
M  V30 275 H 22.6806 -1.532 0.309745 0
M  V30 276 H 23.4156 -2.54091 -2.01514 0
M  V30 277 H 23.2006 -3.83769 -0.803968 0
M  V30 278 H 24.6906 -3.77198 -1.79196 0
M  V30 279 N 25.1277 -0.289203 -1.54924 0
M  V30 280 C 26.3757 0.322879 -1.99504 0
M  V30 281 C 26.6967 1.55313 -1.1791 0
M  V30 282 O 25.9667 1.94001 -0.272097 0
M  V30 283 H 24.5467 0.122291 -0.736922 0
M  V30 284 H 27.2087 -0.397802 -1.90797 0
M  V30 285 H 26.3047 0.603061 -3.06218 0
M  V30 286 N 26.6058 1.57591 -0.0167156 0
M  V30 287 C 28.0218 1.55946 0.339557 0
M  V30 288 C 28.2218 1.02109 1.73713 0
M  V30 289 O 27.2778 0.662303 2.43659 0
M  V30 290 C 28.5908 3.00037 0.199499 0
M  V30 291 C 30.1388 3.11805 0.273193 0
M  V30 292 C 30.6138 4.57713 0.162068 0
M  V30 293 N 32.1048 4.6268 0.219444 0
M  V30 294 C 32.8398 5.73185 0.157054 0
M  V30 295 N 32.3358 6.92786 0.0442936 0
M  V30 296 N 34.1288 5.61707 0.21014 0
M  V30 297 H 26.2798 1.90921 -0.930758 0
M  V30 298 H 28.5428 0.877674 -0.358319 0
M  V30 299 H 28.2488 3.4333 -0.76273 0
M  V30 300 H 28.1228 3.64387 0.974786 0
M  V30 301 H 30.5098 2.68433 1.22587 0
M  V30 302 H 30.5908 2.50201 -0.532256 0
M  V30 303 H 30.2348 5.01763 -0.78714 0
M  V30 304 H 30.1648 5.17283 0.986222 0
M  V30 305 H 32.6558 3.76649 0.307246 0
M  V30 306 H 32.9688 7.728 0.00304069 0
M  V30 307 H 31.3138 6.94999 0.00968457 0
M  V30 308 H 34.5048 4.6716 0.296546 0
M  V30 309 H 34.6778 6.47807 0.158054 0
M  V30 310 N 28.0839 -0.256276 1.55502 0
M  V30 311 C 29.3119 -1.00342 1.8094 0
M  V30 312 C 29.7269 -1.79307 0.59114 0
M  V30 313 O 29.0839 -1.77114 -0.440081 0
M  V30 314 C 29.1349 -1.94875 3.04476 0
M  V30 315 O 28.8559 -1.19107 4.21598 0
M  V30 316 C 30.3569 -2.81266 3.42644 0
M  V30 317 H 27.5769 -0.295685 0.602338 0
M  V30 318 H 30.1209 -0.281998 2.02546 0
M  V30 319 H 28.2759 -2.62457 2.84947 0
M  V30 320 H 28.6899 -1.82969 4.91551 0
M  V30 321 H 30.1639 -3.43362 4.32211 0
M  V30 322 H 30.6409 -3.51897 2.62802 0
M  V30 323 H 31.2469 -2.1915 3.64491 0
M  V30 324 N 29.562 -1.4872 -0.521534 0
M  V30 325 C 30.978 -1.35028 -0.850855 0
M  V30 326 C 31.178 -0.367712 -1.98116 0
M  V30 327 O 30.234 0.208037 -2.51642 0
M  V30 328 C 31.547 -2.75263 -1.21041 0
M  V30 329 C 33.095 -2.83813 -1.31981 0
M  V30 330 C 33.57 -4.24769 -1.71276 0
M  V30 331 N 35.061 -4.27482 -1.78363 0
M  V30 332 C 35.796 -5.33494 -2.1017 0
M  V30 333 N 35.292 -6.49775 -2.40343 0
M  V30 334 N 37.085 -5.20894 -2.11248 0
M  V30 335 H 29.236 -2.11214 0.22413 0
M  V30 336 H 31.499 -0.947252 0.0376439 0
M  V30 337 H 31.205 -3.48765 -0.453415 0
M  V30 338 H 31.079 -3.09327 -2.15863 0
M  V30 339 H 33.466 -2.10561 -2.06756 0
M  V30 340 H 33.547 -2.53358 -0.352596 0
M  V30 341 H 33.191 -4.9854 -0.970588 0
M  V30 342 H 33.121 -4.52673 -2.69062 0
M  V30 343 H 35.612 -3.43611 -1.57288 0
M  V30 344 H 35.925 -7.26402 -2.63743 0
M  V30 345 H 34.27 -6.53035 -2.37844 0
M  V30 346 H 37.461 -4.29065 -1.87139 0
M  V30 347 H 37.634 -6.03612 -2.35704 0
M  V30 348 N 31.0401 0.771051 -1.3745 0
M  V30 349 C 32.4511 1.34737 -1.29239 0
M  V30 350 C 32.8021 1.96109 0.0596908 0
M  V30 351 O 31.9271 1.93865 0.961534 0
M  V30 352 C 32.5221 2.44973 -2.34037 0
M  V30 353 C 31.0811 2.98372 -2.29458 0
M  V30 354 C 30.2281 1.71595 -2.17831 0
M  V30 355 H 33.1791 0.571256 -1.48062 0
M  V30 356 H 33.2001 3.24471 -1.98744 0
M  V30 357 H 32.7121 2.00276 -3.32432 0
M  V30 358 H 30.8131 3.47443 -1.34589 0
M  V30 359 H 30.9261 3.53939 -3.229 0
M  V30 360 H 29.2901 1.94547 -1.64388 0
M  V30 361 H 30.0731 1.29001 -3.18141 0
M  V30 362 N 32.5182 1.22032 0.997298 0
M  V30 363 C 33.4812 0.987909 2.06816 0
M  V30 364 C 34.4812 -0.0440084 1.6074 0
M  V30 365 O 35.6712 0.194053 1.73116 0
M  V30 366 C 32.8032 0.49132 3.37341 0
M  V30 367 H 33.9962 1.93803 2.28868 0
M  V30 368 H 31.5492 1.03838 1.16822 0
M  V30 369 H 32.2842 -0.463364 3.20973 0
M  V30 370 H 32.0692 1.23575 3.72118 0
M  V30 371 H 33.5592 0.348824 4.16141 0
M  V30 372 N 33.9963 -1.19345 1.0293 0
M  V30 373 C 34.9063 -2.26245 0.620515 0
M  V30 374 C 35.9223 -1.70486 -0.347928 0
M  V30 375 O 37.0983 -2.00347 -0.205704 0
M  V30 376 C 34.1633 -3.46693 -0.0218957 0
M  V30 377 C 33.2243 -4.17632 0.994102 0
M  V30 378 C 32.4573 -5.32329 0.382253 0
M  V30 379 O 32.6803 -5.64552 -0.814676 0
M  V30 380 O 31.6143 -5.91664 1.10531 0
M  V30 381 H 35.4403 -2.63453 1.51083 0
M  V30 382 H 33.0253 -1.26207 0.799513 0
M  V30 383 H 34.9073 -4.19683 -0.380072 0
M  V30 384 H 33.5823 -3.11333 -0.886209 0
M  V30 385 H 32.4893 -3.4676 1.40387 0
M  V30 386 H 33.8223 -4.56964 1.8288 0
M  V30 387 N 35.4744 -0.807222 -1.35358 0
M  V30 388 C 36.7214 -0.387888 -1.9875 0
M  V30 389 C 37.0494 1.04509 -1.64037 0
M  V30 390 O 36.3044 1.73986 -0.895946 0
M  V30 391 C 36.6034 -0.519036 -3.53611 0
M  V30 392 C 36.2694 -1.91542 -4.08194 0
M  V30 393 C 34.9314 -2.29745 -4.22813 0
M  V30 394 C 37.2834 -2.82896 -4.37744 0
M  V30 395 C 34.6114 -3.58668 -4.643 0
M  V30 396 C 36.9634 -4.11265 -4.8067 0
M  V30 397 C 35.6274 -4.49466 -4.93494 0
M  V30 398 H 34.8974 -0.141938 -0.727279 0
M  V30 399 H 37.5444 -1.02814 -1.6156 0
M  V30 400 H 35.8494 0.204658 -3.91265 0
M  V30 401 H 37.5464 -0.175345 -4.00616 0
M  V30 402 H 34.1364 -1.60862 -3.97268 0
M  V30 403 H 38.3204 -2.54629 -4.26002 0
M  V30 404 H 33.5764 -3.88113 -4.72418 0
M  V30 405 H 37.7504 -4.82153 -5.02496 0
M  V30 406 H 35.3774 -5.49418 -5.25399 0
M  V30 407 N 36.9525 1.47285 -0.560781 0
M  V30 408 C 38.3685 1.58065 -0.22081 0
M  V30 409 C 38.5685 1.55892 1.27671 0
M  V30 410 O 37.6245 1.46422 2.0571 0
M  V30 411 C 38.9375 2.88418 -0.850625 0
M  V30 412 C 40.4855 3.02009 -0.822184 0
M  V30 413 C 40.9605 4.35066 -1.43113 0
M  V30 414 N 42.4515 4.41711 -1.39448 0
M  V30 415 C 43.1865 5.43237 -1.83525 0
M  V30 416 N 42.6825 6.51555 -2.35474 0
M  V30 417 N 44.4755 5.34304 -1.74574 0
M  V30 418 H 36.6265 1.46941 -1.53369 0
M  V30 419 H 38.8895 0.699558 -0.639783 0
M  V30 420 H 38.5955 2.95755 -1.9032 0
M  V30 421 H 38.4695 3.75612 -0.345773 0
M  V30 422 H 40.8565 2.94266 0.221714 0
M  V30 423 H 40.9375 2.16347 -1.36483 0
M  V30 424 H 40.5815 4.43565 -2.47412 0
M  V30 425 H 40.5115 5.19465 -0.863899 0
M  V30 426 H 43.0025 3.64027 -1.01452 0
M  V30 427 H 43.3155 7.25203 -2.67021 0
M  V30 428 H 41.6605 6.52435 -2.39487 0
M  V30 429 H 44.8515 4.48581 -1.33763 0
M  V30 430 H 45.0245 6.13288 -2.09242 0
M  V30 431 N 38.4306 0.297415 1.54768 0
M  V30 432 C 39.3936 -0.567375 2.22066 0
M  V30 433 C 40.3936 -1.06409 1.20556 0
M  V30 434 O 41.5836 -0.960691 1.45315 0
M  V30 435 C 38.7156 -1.78517 2.90421 0
M  V30 436 H 39.9086 0.0205534 2.99893 0
M  V30 437 H 37.4616 0.0482163 1.56226 0
M  V30 438 H 38.1966 -2.41303 2.16664 0
M  V30 439 H 37.9816 -1.43669 3.64831 0
M  V30 440 H 39.4716 -2.39964 3.41771 0
M  V30 441 N 39.9087 -1.5758 0.0250728 0
M  V30 442 C 40.8717 -2.08896 -0.943139 0
M  V30 443 C 41.8717 -1.00321 -1.25668 0
M  V30 444 O 43.0617 -1.26495 -1.19769 0
M  V30 445 C 40.1937 -2.55143 -2.26086 0
M  V30 446 H 41.3867 -2.95723 -0.498775 0
M  V30 447 H 38.9397 -1.54703 -0.222888 0
M  V30 448 H 39.6747 -1.71633 -2.75159 0
M  V30 449 H 39.4597 -3.34461 -2.04641 0
M  V30 450 H 40.9497 -2.95083 -2.95492 0
M  V30 451 N 41.3868 0.248026 -1.55636 0
M  V30 452 C 42.3188 1.32993 -1.8667 0
M  V30 453 C 43.3318 1.44345 -0.752877 0
M  V30 454 O 44.5208 1.45715 -1.03098 0
M  V30 455 C 41.6208 2.70863 -2.03682 0
M  V30 456 C 40.7938 2.81792 -3.34532 0
M  V30 457 C 39.8528 4.005 -3.41301 0
M  V30 458 O 38.8788 3.9008 -4.14519 0
M  V30 459 N 40.0808 5.13618 -2.70512 0
M  V30 460 H 42.8458 1.06707 -2.8006 0
M  V30 461 H 40.4068 0.438129 -1.55859 0
M  V30 462 H 42.3988 3.48612 -2.05553 0
M  V30 463 H 40.9688 2.89862 -1.17041 0
M  V30 464 H 40.1888 1.90729 -3.44987 0
M  V30 465 H 41.4768 2.86043 -4.20781 0
M  V30 466 H 40.8748 5.24975 -2.10755 0
M  V30 467 H 39.4318 5.89505 -2.78077 0
M  V30 468 N 42.8649 1.48995 0.513639 0
M  V30 469 C 43.7949 1.67636 1.62544 0
M  V30 470 C 44.7759 0.525087 1.61793 0
M  V30 471 O 45.9609 0.759502 1.78732 0
M  V30 472 C 43.0909 1.73114 3.01079 0
M  V30 473 C 42.0449 2.87905 3.16693 0
M  V30 474 C 41.3709 2.78486 4.56453 0
M  V30 475 C 42.6709 4.29005 2.97913 0
M  V30 476 H 44.3649 2.60716 1.47198 0
M  V30 477 H 41.9109 1.25465 0.706714 0
M  V30 478 H 43.8639 1.84742 3.78746 0
M  V30 479 H 42.5879 0.766241 3.17484 0
M  V30 480 H 41.2469 2.75859 2.41448 0
M  V30 481 H 40.8949 1.7993 4.69717 0
M  V30 482 H 40.5949 3.55523 4.67843 0
M  V30 483 H 42.1189 2.92104 5.36197 0
M  V30 484 H 43.5329 4.41798 3.65359 0
M  V30 485 H 41.9299 5.07166 3.20785 0
M  V30 486 H 42.9999 4.44329 1.94165 0
M  V30 487 N 44.343 -0.763751 1.37857 0
M  V30 488 C 45.275 -1.88664 1.30148 0
M  V30 489 C 46.288 -1.61365 0.215685 0
M  V30 490 O 47.477 -1.72134 0.472459 0
M  V30 491 C 44.577 -3.24075 0.991396 0
M  V30 492 C 43.75 -3.78958 2.18426 0
M  V30 493 C 42.809 -4.92862 1.8432 0
M  V30 494 O 41.835 -5.08027 2.56704 0
M  V30 495 N 43.037 -5.75071 0.792081 0
M  V30 496 H 45.802 -1.95791 2.26905 0
M  V30 497 H 43.363 -0.943226 1.31586 0
M  V30 498 H 45.355 -3.97804 0.743935 0
M  V30 499 H 43.925 -3.12399 0.112122 0
M  V30 500 H 43.145 -2.96913 2.59299 0
M  V30 501 H 44.433 -4.12357 2.98058 0
M  V30 502 H 43.831 -5.65375 0.191595 0
M  V30 503 H 42.388 -6.48991 0.60449 0
M  V30 504 N 45.8211 -1.22559 -0.990812 0
M  V30 505 C 47.0691 -1.04933 -1.72724 0
M  V30 506 C 47.3901 0.416158 -1.90508 0
M  V30 507 O 46.6601 1.29918 -1.46622 0
M  V30 508 H 45.2401 -0.385296 -0.639965 0
M  V30 509 H 47.9021 -1.54105 -1.19322 0
M  V30 510 H 46.9981 -1.52886 -2.72089 0
M  V30 511 N 47.2992 1.18797 -1.03562 0
M  V30 512 C 48.2292 2.24472 -0.643019 0
M  V30 513 C 49.2102 1.66433 0.351283 0
M  V30 514 O 50.3952 1.92803 0.232505 0
M  V30 515 C 47.5252 3.473 4.24935e-05 0
M  V30 516 C 46.4792 4.18055 -0.917257 0
M  V30 517 C 45.8052 5.34519 -0.138941 0
M  V30 518 C 47.1052 4.72109 -2.23407 0
M  V30 519 H 48.7992 2.57566 -1.52643 0
M  V30 520 H 46.3452 1.23806 -0.735394 0
M  V30 521 H 48.2982 4.20426 0.286383 0
M  V30 522 H 47.0222 3.13424 0.918299 0
M  V30 523 H 45.6812 3.46821 -1.1879 0
M  V30 524 H 45.3292 4.96891 0.781562 0
M  V30 525 H 45.0292 5.82794 -0.750005 0
M  V30 526 H 46.5532 6.10438 0.1405 0
M  V30 527 H 47.9672 5.36955 -2.00879 0
M  V30 528 H 46.3642 5.30897 -2.79765 0
M  V30 529 H 47.4342 3.89807 -2.88407 0
M  V30 530 N 48.7773 0.814389 1.34928 0
M  V30 531 C 50.0253 0.397636 1.9815 0
M  V30 532 C 50.3463 -1.04069 1.64908 0
M  V30 533 O 49.6163 -1.72121 0.93548 0
M  V30 534 H 48.1963 0.144043 0.732981 0
M  V30 535 H 50.8583 1.04195 1.6471 0
M  V30 536 H 49.9543 0.509688 3.0791 0
M  V30 537 N 50.2554 -1.46986 0.568584 0
M  V30 538 C 51.6714 -1.57946 0.229189 0
M  V30 539 C 51.8714 -1.56567 -1.26843 0
M  V30 540 O 50.9274 -1.47511 -2.04931 0
M  V30 541 C 52.2404 -2.87963 0.865909 0
M  V30 542 C 53.7884 -3.01568 0.838188 0
M  V30 543 C 54.2634 -4.34301 1.45419 0
M  V30 544 N 55.7544 -4.40965 1.41788 0
M  V30 545 C 56.4894 -5.42256 1.86403 0
M  V30 546 N 55.9854 -6.50297 2.38926 0
M  V30 547 N 57.7784 -5.3337 1.77405 0
M  V30 548 H 49.9294 -1.46126 1.54146 0
M  V30 549 H 52.1924 -0.696156 0.643484 0
M  V30 550 H 51.8984 -2.94742 1.91886 0
M  V30 551 H 51.7724 -3.75423 0.365687 0
M  V30 552 H 54.1594 -2.94379 -0.206106 0
M  V30 553 H 54.2404 -2.1562 1.37629 0
M  V30 554 H 53.8844 -4.42247 2.49761 0
M  V30 555 H 53.8144 -5.19 0.891435 0
M  V30 556 H 56.3054 -3.63484 1.03381 0
M  V30 557 H 56.6184 -7.23777 2.70863 0
M  V30 558 H 54.9634 -6.51155 2.42944 0
M  V30 559 H 58.1544 -4.47865 1.3614 0
M  V30 560 H 58.3274 -6.12169 2.12492 0
M  V30 561 N 51.7335 -0.305618 -1.54608 0
M  V30 562 C 52.9805 0.302298 -2.00231 0
M  V30 563 C 53.3085 1.5354 -1.19398 0
M  V30 564 O 52.5635 1.93973 -0.259423 0
M  V30 565 C 52.8625 0.698983 -3.50498 0
M  V30 566 C 52.5285 -0.432903 -4.48817 0
M  V30 567 C 51.1905 -0.743622 -4.75419 0
M  V30 568 C 53.5425 -1.19409 -5.07337 0
M  V30 569 C 50.8705 -1.81857 -5.57804 0
M  V30 570 C 53.2225 -2.25899 -5.90891 0
M  V30 571 C 51.8865 -2.57572 -6.15803 0
M  V30 572 H 51.1565 0.110619 -0.732697 0
M  V30 573 H 53.8035 -0.425674 -1.86709 0
M  V30 574 H 52.1085 1.50711 -3.61654 0
M  V30 575 H 53.8055 1.1806 -3.83227 0
M  V30 576 H 50.3955 -0.18063 -4.28219 0
M  V30 577 H 54.5795 -0.967295 -4.86782 0
M  V30 578 H 49.8355 -2.06864 -5.75341 0
M  V30 579 H 54.0095 -2.85335 -6.35261 0
M  V30 580 H 51.6365 -3.40998 -6.7943 0
M  V30 581 N 53.2116 1.57565 -0.0334293 0
M  V30 582 C 54.1416 2.13511 0.945265 0
M  V30 583 C 55.1226 1.05231 1.33643 0
M  V30 584 O 56.3076 1.33084 1.41429 0
M  V30 585 C 53.4376 2.6657 2.22616 0
M  V30 586 C 52.3916 3.79676 1.97561 0
M  V30 587 C 51.7176 4.1918 3.31952 0
M  V30 588 C 53.0176 5.0557 1.31135 0
M  V30 589 H 54.7116 2.95538 0.479325 0
M  V30 590 H 52.2576 1.42166 0.229115 0
M  V30 591 H 54.2106 3.04344 2.91466 0
M  V30 592 H 52.9346 1.8171 2.71384 0
M  V30 593 H 51.5936 3.42347 1.31127 0
M  V30 594 H 51.2416 3.31296 3.78487 0
M  V30 595 H 50.9416 4.95402 3.15992 0
M  V30 596 H 52.4656 4.59541 4.02063 0
M  V30 597 H 53.8796 5.40903 1.89992 0
M  V30 598 H 52.2766 5.86818 1.25559 0
M  V30 599 H 53.3466 4.84062 0.284894 0
M  V30 600 N 54.6897 -0.239769 1.55765 0
M  V30 601 C 55.6217 -1.32001 1.87372 0
M  V30 602 C 56.6347 -1.43944 0.760522 0
M  V30 603 O 57.8237 -1.45167 1.0387 0
M  V30 604 C 54.9237 -2.69779 2.05115 0
M  V30 605 C 54.0967 -2.80014 3.36022 0
M  V30 606 C 53.1557 -3.98684 3.4342 0
M  V30 607 O 52.1817 -3.87877 4.16582 0
M  V30 608 N 53.3837 -5.12176 2.73232 0
M  V30 609 H 56.1487 -1.0522 2.80622 0
M  V30 610 H 53.7097 -0.429857 1.56089 0
M  V30 611 H 55.7017 -3.47517 2.07399 0
M  V30 612 H 54.2717 -2.89237 1.18577 0
M  V30 613 H 53.4917 -1.88896 3.45994 0
M  V30 614 H 54.7797 -2.83808 4.22292 0
M  V30 615 H 54.1777 -5.2385 2.13536 0
M  V30 616 H 52.7347 -5.88022 2.81199 0
M  V30 617 N 56.1678 -1.49265 -0.50573 0
M  V30 618 C 57.0778 -1.68312 -1.63427 0
M  V30 619 C 58.0938 -0.565682 -1.64548 0
M  V30 620 O 59.2698 -0.839801 -1.83055 0
M  V30 621 C 56.3348 -1.74107 -2.99813 0
M  V30 622 C 55.3958 -2.97653 -3.09356 0
M  V30 623 C 54.6288 -3.03163 -4.39236 0
M  V30 624 O 54.8518 -2.16396 -5.27758 0
M  V30 625 O 53.7858 -3.9558 -4.53652 0
M  V30 626 H 57.6118 -2.63907 -1.50289 0
M  V30 627 H 55.1968 -1.32951 -0.681502 0
M  V30 628 H 57.0788 -1.803 -3.80881 0
M  V30 629 H 55.7538 -0.816901 -3.13223 0
M  V30 630 H 54.6608 -2.96981 -2.27493 0
M  V30 631 H 55.9938 -3.89535 -3.00871 0
M  V30 632 N 57.6459 0.756429 -1.3826 0
M  V30 633 C 58.5939 1.89149 -1.35372 0
M  V30 634 C 59.5879 1.67691 -0.24004 0
M  V30 635 O 60.7939 1.75294 -0.408919 0
M  V30 636 H 57.1689 0.622271 -0.422236 0
M  V30 637 H 59.1399 1.88701 -2.31159 0
M  V30 638 C 57.8889 3.26599 -1.19284 0
M  V30 639 H 57.2119 3.43695 -2.0424 0
M  V30 640 H 58.6519 4.06274 -1.21316 0
M  V30 641 C 57.1109 3.3675 0.100454 0
M  V30 642 O 57.6409 3.86951 1.07851 0
M  V30 643 N 55.8469 2.90179 0.15633 0
M  V30 644 H 55.3939 2.49517 -0.640253 0
M  V30 645 H 55.3519 2.97352 1.02123 0
M  V30 646 N 59.124 1.23083 0.984299 0
M  V30 647 C 60.071 1.00854 2.07598 0
M  V30 648 C 61.041 -0.0726709 1.65941 0
M  V30 649 O 62.226 0.0786535 1.90638 0
M  V30 650 C 59.366 0.601645 3.39815 0
M  V30 651 C 58.479 1.75456 3.94765 0
M  V30 652 C 57.614 1.29482 5.15177 0
M  V30 653 C 56.653 2.41873 5.62284 0
M  V30 654 N 55.79 1.96885 6.73929 0
M  V30 655 H 60.63 1.943 2.25946 0
M  V30 656 H 58.167 0.968001 1.10762 0
M  V30 657 H 60.125 0.346854 4.15756 0
M  V30 658 H 58.755 -0.295803 3.21442 0
M  V30 659 H 57.807 2.12346 3.15616 0
M  V30 660 H 59.119 2.59965 4.25699 0
M  V30 661 H 58.273 0.997923 5.98437 0
M  V30 662 H 57.012 0.420046 4.85888 0
M  V30 663 H 56.017 2.72342 4.77608 0
M  V30 664 H 57.242 3.29881 5.93595 0
M  V30 665 H 55.188 1.11782 6.46406 0
M  V30 666 H 55.105 2.74956 7.04227 0
M  V30 667 H 56.373 1.70289 7.60672 0
M  V30 668 N 60.6021 -1.18246 1.0419 0
M  V30 669 C 61.5341 -2.2142 0.592088 0
M  V30 670 C 62.5471 -1.59233 -0.338909 0
M  V30 671 O 63.7361 -1.78002 -0.133231 0
M  V30 672 C 60.8361 -3.38546 -0.154854 0
M  V30 673 C 60.0091 -4.3031 0.784328 0
M  V30 674 C 59.0681 -5.26138 0.0804583 0
M  V30 675 O 58.0941 -5.64738 0.711292 0
M  V30 676 N 59.2961 -5.68261 -1.18574 0
M  V30 677 H 62.0611 -2.60636 1.47949 0
M  V30 678 H 59.6221 -1.33044 0.922544 0
M  V30 679 H 61.6141 -3.99678 -0.635606 0
M  V30 680 H 60.1841 -2.98012 -0.943811 0
M  V30 681 H 59.4041 -3.66764 1.44491 0
M  V30 682 H 60.6921 -4.8852 1.42218 0
M  V30 683 H 60.0901 -5.38957 -1.71876 0
M  V30 684 H 58.6471 -6.31584 -1.61074 0
M  V30 685 N 62.0802 -0.821533 -1.34494 0
M  V30 686 C 63.0102 -0.257138 -2.3208 0
M  V30 687 C 63.9912 0.625645 -1.58176 0
M  V30 688 O 65.1762 0.552811 -1.86166 0
M  V30 689 C 62.3062 0.582958 -3.42372 0
M  V30 690 C 61.2602 -0.202571 -4.2752 0
M  V30 691 C 60.5862 0.760179 -5.29269 0
M  V30 692 C 61.8862 -1.40998 -5.02908 0
M  V30 693 H 63.5802 -1.07247 -2.79532 0
M  V30 694 H 61.1262 -0.517163 -1.34393 0
M  V30 695 H 63.0792 0.987972 -4.09655 0
M  V30 696 H 61.8032 1.43133 -2.93565 0
M  V30 697 H 60.4622 -0.588936 -3.61838 0
M  V30 698 H 60.1102 1.60447 -4.76724 0
M  V30 699 H 59.8102 0.238809 -5.87115 0
M  V30 700 H 61.3342 1.16308 -5.9942 0
M  V30 701 H 62.7482 -1.07905 -5.63054 0
M  V30 702 H 61.1452 -1.86689 -5.70322 0
M  V30 703 H 62.2152 -2.1889 -4.32684 0
M  V30 704 N 63.5583 1.46682 -0.576371 0
M  V30 705 C 64.4883 2.33028 0.148397 0
M  V30 706 C 65.4693 1.44961 0.889956 0
M  V30 707 O 66.6543 1.73789 0.866662 0
M  V30 708 C 63.7843 3.27117 1.1667 0
M  V30 709 C 62.7383 4.24575 0.540386 0
M  V30 710 C 62.0643 5.08126 1.6647 0
M  V30 711 C 63.3643 5.19722 -0.518331 0
M  V30 712 H 65.0583 2.93875 -0.572509 0
M  V30 713 H 62.6043 1.41315 -0.276768 0
M  V30 714 H 64.5573 3.86374 1.68204 0
M  V30 715 H 63.2813 2.64364 1.9178 0
M  V30 716 H 61.9403 3.66571 0.0461769 0
M  V30 717 H 61.5883 4.41762 2.40531 0
M  V30 718 H 61.2883 5.74122 1.25131 0
M  V30 719 H 62.8123 5.70246 2.18293 0
M  V30 720 H 64.2263 5.73232 -0.0883058 0
M  V30 721 H 62.6233 5.94026 -0.851679 0
M  V30 722 H 63.6933 4.64037 -1.40703 0
M  V30 723 N 65.0364 0.313813 1.54444 0
M  V30 724 C 65.9864 -0.571898 2.20711 0
M  V30 725 C 66.9704 -1.08913 1.18435 0
M  V30 726 O 68.1624 -1.02777 1.44104 0
M  V30 727 C 65.2914 -1.7371 2.96108 0
M  V30 728 C 64.3774 -1.23522 4.05713 0
M  V30 729 N 64.7684 -0.452288 5.03774 0
M  V30 730 C 63.0664 -1.51482 4.19487 0
M  V30 731 C 63.7674 -0.183438 5.81411 0
M  V30 732 N 62.7434 -0.766845 5.38164 0
M  V30 733 H 66.5454 0.0336802 2.93881 0
M  V30 734 H 64.0594 0.119192 1.61962 0
M  V30 735 H 66.0564 -2.38329 3.4206 0
M  V30 736 H 64.7164 -2.34625 2.24458 0
M  V30 737 H 65.7274 -0.0960131 5.17811 0
M  V30 738 H 62.4044 -2.13053 3.59047 0
M  V30 739 H 63.7944 0.446216 6.70417 0
M  V30 740 N 66.5145 -1.57545 0.0417849 0
M  V30 741 C 67.7915 -1.83642 -0.673433 0
M  V30 742 C 68.1715 -0.928298 -1.89594 0
M  V30 743 O 67.5195 0.0129955 -2.28496 0
M  V30 744 C 67.7295 -3.33155 -1.03964 0
M  V30 745 C 69.0775 -3.99941 -1.42592 0
M  V30 746 O 70.1015 -3.37725 -1.13226 0
M  V30 747 O 68.9605 -5.09619 -1.9736 0
M  V30 748 H 66.0545 -0.757638 -0.331533 0
M  V30 749 H 68.6005 -1.69554 0.070433 0
M  V30 750 H 67.3725 -3.9093 -0.170098 0
M  V30 751 H 66.9955 -3.52396 -1.84126 0
M  V30 752 N 67.9926 0.231505 -1.5589 0
M  V30 753 C 68.9556 1.27028 -1.90779 0
M  V30 754 C 69.9556 1.40308 -0.785507 0
M  V30 755 O 71.1456 1.38744 -1.05336 0
M  V30 756 C 68.2776 2.64566 -2.14983 0
M  V30 757 H 69.4706 0.973017 -2.83677 0
M  V30 758 H 67.0236 0.471486 -1.49019 0
M  V30 759 H 67.7586 2.99406 -1.24604 0
M  V30 760 H 67.5436 2.56305 -2.96732 0
M  V30 761 H 69.0336 3.39543 -2.43105 0
M  V30 762 N 69.4707 1.49531 0.497807 0
M  V30 763 C 70.4007 1.6935 1.60757 0
M  V30 764 C 71.3817 0.542218 1.61227 0
M  V30 765 O 72.5667 0.778417 1.77917 0
M  V30 766 C 69.6967 1.76298 2.99226 0
M  V30 767 C 68.6507 2.91248 3.13622 0
M  V30 768 C 67.9767 2.83312 4.53474 0
M  V30 769 C 69.2767 4.3214 2.93346 0
M  V30 770 H 70.9707 2.62263 1.44425 0
M  V30 771 H 68.5167 1.26208 0.693367 0
M  V30 772 H 70.4697 1.88749 3.76765 0
M  V30 773 H 69.1937 0.799871 3.16654 0
M  V30 774 H 67.8527 2.78404 2.38509 0
M  V30 775 H 67.5007 1.84902 4.67782 0
M  V30 776 H 67.2007 3.60465 4.64046 0
M  V30 777 H 68.7247 2.97775 5.33069 0
M  V30 778 H 70.1387 4.45649 3.60652 0
M  V30 779 H 68.5357 5.1054 3.15387 0
M  V30 780 H 69.6057 4.46363 1.89441 0
M  V30 781 N 70.9488 -0.749086 1.3866 0
M  V30 782 C 71.9118 -1.84457 1.36045 0
M  V30 783 C 72.9118 -1.58682 0.260122 0
M  V30 784 O 74.1018 -1.66343 0.517261 0
M  V30 785 C 71.2338 -3.22008 1.11911 0
M  V30 786 H 72.4268 -1.88182 2.33512 0
M  V30 787 H 69.9798 -0.951266 1.24019 0
M  V30 788 H 70.7148 -3.2395 0.150686 0
M  V30 789 H 70.4998 -3.42111 1.91579 0
M  V30 790 H 71.9898 -4.0208 1.12788 0
M  V30 791 N 72.4269 -1.23603 -0.977757 0
M  V30 792 C 73.3589 -0.977369 -2.07317 0
M  V30 793 C 74.3719 0.0495845 -1.62724 0
M  V30 794 O 75.5609 -0.186261 -1.77526 0
M  V30 795 C 72.6609 -0.451216 -3.35883 0
M  V30 796 C 71.8339 -1.53896 -4.09432 0
M  V30 797 C 70.8929 -1.01721 -5.16274 0
M  V30 798 O 69.9189 -1.70676 -5.43009 0
M  V30 799 N 71.1209 0.153594 -5.80297 0
M  V30 800 H 73.8859 -1.92047 -2.30082 0
M  V30 801 H 71.4469 -1.14497 -1.14465 0
M  V30 802 H 73.4389 -0.0871574 -4.04606 0
M  V30 803 H 72.0089 0.397368 -3.10064 0
M  V30 804 H 71.2289 -2.07566 -3.35127 0
M  V30 805 H 72.5169 -2.27037 -4.55337 0
M  V30 806 H 71.9149 0.730323 -5.60966 0
M  V30 807 H 70.4719 0.458892 -6.50183 0
M  V30 808 N 73.905 1.17692 -1.04816 0
M  V30 809 C 75.182 1.83768 -0.669963 0
M  V30 810 C 75.562 1.93232 0.849986 0
M  V30 811 O 74.91 1.46397 1.75443 0
M  V30 812 C 75.12 3.21641 -1.35455 0
M  V30 813 C 76.468 3.97592 -1.49017 0
M  V30 814 O 77.492 3.31107 -1.31326 0
M  V30 815 O 76.351 5.16729 -1.77914 0
M  V30 816 H 73.445 0.792799 -0.235368 0
M  V30 817 H 75.991 1.25021 -1.14751 0
M  V30 818 H 74.763 3.097 -2.39168 0
M  V30 819 H 74.386 3.88052 -0.866107 0
M  V30 820 N 75.3831 0.828654 1.34056 0
M  V30 821 C 76.3131 0.269443 2.3194 0
M  V30 822 C 77.2941 -0.617247 1.58506 0
M  V30 823 O 78.4791 -0.542931 1.86456 0
M  V30 824 C 75.6091 -0.564793 3.42677 0
M  V30 825 C 74.5631 0.225241 4.27407 0
M  V30 826 C 73.8891 -0.7321 5.29664 0
M  V30 827 C 75.1891 1.43663 5.02154 0
M  V30 828 H 76.8831 1.08728 2.7896 0
M  V30 829 H 74.4291 0.524283 1.34117 0
M  V30 830 H 76.3821 -0.966233 4.10173 0
M  V30 831 H 75.1061 -1.41574 2.9432 0
M  V30 832 H 73.7651 0.608117 3.61521 0
M  V30 833 H 73.4131 -1.57916 4.77568 0
M  V30 834 H 73.1131 -0.20767 5.87233 0
M  V30 835 H 74.6371 -1.13128 6.00029 0
M  V30 836 H 76.0511 1.1089 5.62473 0
M  V30 837 H 74.4481 1.89711 5.69324 0
M  V30 838 H 75.5181 2.21181 4.31517 0
M  V30 839 N 76.8612 -1.46375 0.584142 0
M  V30 840 C 77.8112 -2.27371 -0.169232 0
M  V30 841 C 78.7952 -1.35955 -0.860523 0
M  V30 842 O 79.9872 -1.60119 -0.754382 0
M  V30 843 C 77.1162 -3.22334 -1.18134 0
M  V30 844 C 76.2022 -4.21235 -0.492088 0
M  V30 845 N 76.5932 -5.03766 0.453129 0
M  V30 846 C 74.8912 -4.39773 -0.742652 0
M  V30 847 C 75.5922 -5.75366 0.85609 0
M  V30 848 N 74.5682 -5.43214 0.204926 0
M  V30 849 H 78.3702 -2.88572 0.557097 0
M  V30 850 H 75.8842 -1.57242 0.406042 0
M  V30 851 H 77.8812 -3.79071 -1.73525 0
M  V30 852 H 76.5412 -2.62693 -1.90847 0
M  V30 853 H 77.5522 -5.11227 0.828723 0
M  V30 854 H 74.2292 -3.91279 -1.45625 0
M  V30 855 H 75.6192 -6.5172 1.63434 0
M  V30 856 N 78.3393 -0.321999 -1.54275 0
M  V30 857 C 79.2863 0.544664 -2.24281 0
M  V30 858 C 80.2563 1.1129 -1.23303 0
M  V30 859 O 81.4413 1.15354 -1.51981 0
M  V30 860 C 78.5813 1.70045 -3.00298 0
M  V30 861 C 77.6943 1.16159 -4.1609 0
M  V30 862 C 76.8293 2.28293 -4.79641 0
M  V30 863 C 75.8683 1.71648 -5.8754 0
M  V30 864 N 75.0053 2.77438 -6.44959 0
M  V30 865 H 79.8453 -0.0588907 -2.97942 0
M  V30 866 H 77.3823 -0.0408345 -1.47043 0
M  V30 867 H 79.3403 2.38054 -3.42616 0
M  V30 868 H 77.9703 2.27531 -2.28975 0
M  V30 869 H 77.0223 0.373092 -3.78566 0
M  V30 870 H 78.3343 0.707087 -4.93763 0
M  V30 871 H 77.4883 3.0421 -5.2492 0
M  V30 872 H 76.2273 2.77079 -4.01346 0
M  V30 873 H 75.2323 0.942282 -5.41665 0
M  V30 874 H 76.4573 1.23741 -6.67731 0
M  V30 875 H 74.4033 3.25519 -5.69538 0
M  V30 876 H 74.3203 2.36547 -7.1804 0
M  V30 877 H 75.5883 3.53189 -6.94894 0
M  V30 878 N 79.8174 1.5752 -0.0501392 0
M  V30 879 C 81.0424 1.97376 0.636997 0
M  V30 880 C 81.4674 0.927466 1.63645 0
M  V30 881 O 80.8254 -0.10941 1.8097 0
M  V30 882 C 80.8734 3.36304 1.30123 0
M  V30 883 O 79.9774 3.34156 2.41689 0
M  V30 884 H 79.3184 0.642998 0.165679 0
M  V30 885 H 81.8484 2.04258 -0.118233 0
M  V30 886 H 81.8584 3.73008 1.65315 0
M  V30 887 H 80.5334 4.11993 0.568746 0
M  V30 888 H 79.1104 3.09196 2.08451 0
M  V30 889 N 81.2955 -0.223234 1.56011 0
M  V30 890 C 82.2585 -1.26014 1.9145 0
M  V30 891 C 83.2585 -1.3989 0.792937 0
M  V30 892 O 84.4485 -1.38184 1.0607 0
M  V30 893 C 81.5805 -2.63422 2.16383 0
M  V30 894 H 82.7735 -0.95796 2.84189 0
M  V30 895 H 80.3265 -0.463576 1.49267 0
M  V30 896 H 81.0615 -2.98741 1.2619 0
M  V30 897 H 80.8465 -2.54728 2.98088 0
M  V30 898 H 82.3365 -3.38249 2.44903 0
M  V30 899 N 82.7736 -1.49793 -0.48987 0
M  V30 900 C 84.0206 -1.59841 -1.24327 0
M  V30 901 C 84.3486 -0.290135 -1.92324 0
M  V30 902 O 83.6036 0.722749 -1.81865 0
M  V30 903 C 83.9026 -2.71488 -2.32441 0
M  V30 904 C 83.5686 -4.12614 -1.81826 0
M  V30 905 C 82.2306 -4.51017 -1.67742 0
M  V30 906 C 84.5826 -5.00892 -1.4407 0
M  V30 907 C 81.9106 -5.75459 -1.14297 0
M  V30 908 C 84.2626 -6.25863 -0.920742 0
M  V30 909 C 82.9266 -6.63086 -0.766383 0
M  V30 910 H 82.1966 -0.584899 -0.454944 0
M  V30 911 H 84.8436 -1.83663 -0.542215 0
M  V30 912 H 83.1486 -2.4168 -3.0838 0
M  V30 913 H 84.8456 -2.76469 -2.90458 0
M  V30 914 H 81.4356 -3.82307 -1.93751 0
M  V30 915 H 85.6196 -4.7187 -1.53794 0
M  V30 916 H 80.8756 -6.02989 -1.01068 0
M  V30 917 H 85.0496 -6.9364 -0.619448 0
M  V30 918 H 82.6766 -7.59393 -0.350083 0
M  V30 919 N 84.2517 0.741722 -1.39055 0
M  V30 920 C 85.1617 1.88621 -1.39496 0
M  V30 921 C 86.1777 1.71557 -0.290578 0
M  V30 922 O 87.3537 1.94275 -0.530954 0
M  V30 923 C 84.4187 3.24134 -1.23037 0
M  V30 924 C 83.4797 3.5364 -2.43387 0
M  V30 925 C 82.7127 4.82687 -2.27703 0
M  V30 926 O 82.9357 5.55922 -1.27696 0
M  V30 927 O 81.8697 5.1194 -3.16545 0
M  V30 928 H 85.6957 1.91203 -2.35956 0
M  V30 929 H 83.2807 0.888625 -1.20099 0
M  V30 930 H 85.1627 4.0513 -1.15964 0
M  V30 931 H 83.8377 3.22337 -0.296691 0
M  V30 932 H 82.7447 2.72758 -2.56035 0
M  V30 933 H 84.0777 3.60209 -3.35425 0
M  V30 934 N 85.7298 1.2412 0.971189 0
M  V30 935 C 86.9548 1.10667 1.75407 0
M  V30 936 C 87.3798 -0.337048 1.85056 0
M  V30 937 O 86.7378 -1.24396 1.31892 0
M  V30 938 C 86.7858 1.74726 3.15441 0
M  V30 939 O 85.8898 1.01566 3.99697 0
M  V30 940 H 85.2308 0.387341 0.539317 0
M  V30 941 H 87.7608 1.64358 1.2185 0
M  V30 942 H 87.7708 1.80341 3.6598 0
M  V30 943 H 86.4458 2.79773 3.07734 0
M  V30 944 H 85.0228 1.03713 3.58187 0
M  V30 945 N 87.2079 -1.17134 1.05439 0
M  V30 946 C 88.1179 -2.24878 0.668365 0
M  V30 947 C 89.1339 -1.71186 -0.311687 0
M  V30 948 O 90.3099 -2.00738 -0.163161 0
M  V30 949 C 87.3749 -3.46662 0.051648 0
M  V30 950 C 86.4359 -4.15429 1.08246 0
M  V30 951 C 85.6689 -5.31399 0.495082 0
M  V30 952 O 85.8919 -5.66153 -0.694743 0
M  V30 953 O 84.8259 -5.89187 1.23056 0
M  V30 954 H 88.6519 -2.60189 1.56637 0
M  V30 955 H 86.2369 -1.24482 0.826104 0
M  V30 956 H 88.1189 -4.20394 -0.290966 0
M  V30 957 H 86.7939 -3.13142 -0.819971 0
M  V30 958 H 85.7009 -3.43704 1.47711 0
M  V30 959 H 87.0339 -4.52982 1.92532 0
M  V30 960 N 88.686 -0.835752 -1.33615 0
M  V30 961 C 89.932 -0.430596 -1.98176 0
M  V30 962 C 90.265 1.00684 -1.66061 0
M  V30 963 O 89.54 1.70339 -0.938877 0
M  V30 964 C 89.823 -0.648065 -3.5422 0
M  V30 965 C 89.676 -2.13255 -3.96033 0
M  V30 966 C 90.995 -0.0922113 -4.40003 0
M  V30 967 H 88.114 -0.157924 -0.719881 0
M  V30 968 H 90.756 -1.05069 -1.58305 0
M  V30 969 H 88.906 -0.120237 -3.88314 0
M  V30 970 H 90.578 -2.725 -3.72211 0
M  V30 971 H 88.821 -2.61823 -3.45878 0
M  V30 972 H 89.492 -2.23547 -5.04708 0
M  V30 973 H 91.968 -0.543343 -4.12537 0
M  V30 974 H 90.844 -0.274083 -5.48215 0
M  V30 975 H 91.105 1.00378 -4.30554 0
M  V30 976 N 90.1641 1.46063 -0.591896 0
M  V30 977 C 91.3891 2.07226 -0.0850314 0
M  V30 978 C 91.8141 1.43625 1.21463 0
M  V30 979 O 91.1721 0.523305 1.73583 0
M  V30 980 C 91.2201 3.60554 0.0576567 0
M  V30 981 O 90.3241 3.97128 1.11188 0
M  V30 982 H 89.6651 0.660615 -0.0669568 0
M  V30 983 H 92.1951 1.8756 -0.81745 0
M  V30 984 H 92.2051 4.07165 0.2609 0
M  V30 985 H 90.8801 4.06235 -0.891416 0
M  V30 986 H 89.4571 3.62213 0.886356 0
M  V30 987 N 91.6422 0.330177 1.54103 0
M  V30 988 C 92.5522 -0.541534 2.28264 0
M  V30 989 C 93.5682 -1.12351 1.32866 0
M  V30 990 O 94.7442 -1.14206 1.65888 0
M  V30 991 C 91.8092 -1.68322 3.03098 0
M  V30 992 C 90.8702 -1.13238 4.14096 0
M  V30 993 C 90.1032 -2.21966 4.85352 0
M  V30 994 O 90.3262 -3.42437 4.56172 0
M  V30 995 O 89.2602 -1.87013 5.7211 0
M  V30 996 H 93.0862 0.060938 3.03639 0
M  V30 997 H 90.6712 0.09565 1.49093 0
M  V30 998 H 92.5532 -2.34777 3.49939 0
M  V30 999 H 91.2282 -2.27176 2.30593 0
M  V30 1000 H 90.1352 -0.432736 3.71589 0
M  V30 1001 H 91.4682 -0.588898 4.88664 0
M  V30 1002 N 93.1203 -1.57491 0.0584922 0
M  V30 1003 C 94.3663 -1.93264 -0.614558 0
M  V30 1004 C 94.6993 -0.937717 -1.7006 0
M  V30 1005 O 93.9743 0.0351652 -1.94468 0
M  V30 1006 C 94.2573 -3.3938 -1.20386 0
M  V30 1007 C 94.1103 -4.49625 -0.125375 0
M  V30 1008 C 95.4293 -3.86039 -2.11334 0
M  V30 1009 H 92.5483 -0.702791 -0.221933 0
M  V30 1010 H 95.1903 -1.8961 0.12175 0
M  V30 1011 H 93.3403 -3.42626 -1.83139 0
M  V30 1012 H 95.0123 -4.58506 0.506971 0
M  V30 1013 H 93.2553 -4.30354 0.545672 0
M  V30 1014 H 93.9263 -5.48967 -0.577861 0
M  V30 1015 H 96.4023 -3.84716 -1.58534 0
M  V30 1016 H 95.2783 -4.88914 -2.49507 0
M  V30 1017 H 95.5393 -3.23215 -3.01636 0
M  V30 1018 N 94.5984 0.214957 -1.56127 0
M  V30 1019 C 95.5614 1.24997 -1.92116 0
M  V30 1020 C 96.5614 1.39467 -0.800344 0
M  V30 1021 O 97.7514 1.37619 -1.06802 0
M  V30 1022 C 94.8834 2.62271 -2.17777 0
M  V30 1023 H 96.0764 0.942875 -2.84693 0
M  V30 1024 H 93.6294 0.455654 -1.49511 0
M  V30 1025 H 94.3644 2.98068 -1.27773 0
M  V30 1026 H 94.1494 2.53143 -2.99434 0
M  V30 1027 H 95.6394 3.36946 -2.46693 0
M  V30 1028 N 96.0765 1.50051 0.48192 0
M  V30 1029 C 97.3255 1.59741 1.23149 0
M  V30 1030 C 97.6385 0.298163 1.93314 0
M  V30 1031 O 98.8445 0.273835 2.70116 0
M  V30 1032 C 97.3005 2.81926 2.23708 0
M  V30 1033 C 96.9085 4.18685 1.59396 0
M  V30 1034 C 98.6525 3.00956 2.99375 0
M  V30 1035 C 96.5595 5.3207 2.58178 0
M  V30 1036 H 95.4895 0.594838 0.46334 0
M  V30 1037 H 98.1405 1.76467 0.503169 0
M  V30 1038 H 96.5225 2.58736 2.99786 0
M  V30 1039 H 97.6965 4.52088 0.891811 0
M  V30 1040 H 96.0115 4.05171 0.960503 0
M  V30 1041 H 98.6085 3.82836 3.73283 0
M  V30 1042 H 98.9515 2.12258 3.58123 0
M  V30 1043 H 99.4845 3.24277 2.30411 0
M  V30 1044 H 96.2235 6.22888 2.04184 0
M  V30 1045 H 95.7435 5.03098 3.26577 0
M  V30 1046 H 97.4225 5.62196 3.20225 0
M  V30 1047 N 97.5546 -0.734337 1.39446 0
M  V30 1048 C 98.7796 -1.52866 1.40167 0
M  V30 1049 C 99.2046 -1.881 -0.00171513 0
M  V30 1050 O 98.5626 -1.51957 -0.988879 0
M  V30 1051 C 98.6106 -2.79235 2.28167 0
M  V30 1052 O 97.7146 -3.75185 1.71201 0
M  V30 1053 H 97.0556 -0.461618 0.477289 0
M  V30 1054 H 99.5856 -0.905949 1.8345 0
M  V30 1055 H 99.5956 -3.27963 2.42702 0
M  V30 1056 H 98.2706 -2.52923 3.30156 0
M  V30 1057 H 96.8476 -3.33958 1.65912 0
M  V30 1058 N 99.0327 -1.24633 -0.964593 0
M  V30 1059 C 99.9647 -0.999302 -2.06268 0
M  V30 1060 C 100.978 0.0323226 -1.62768 0
M  V30 1061 O 102.167 -0.205079 -1.77318 0
M  V30 1062 C 99.2667 -0.486816 -3.35385 0
M  V30 1063 C 98.4397 -1.5823 -4.07777 0
M  V30 1064 C 97.4987 -1.07191 -5.15166 0
M  V30 1065 O 96.5247 -1.76426 -5.41168 0
M  V30 1066 N 97.7267 0.0920373 -5.80427 0
M  V30 1067 H 100.492 -1.94477 -2.28033 0
M  V30 1068 H 98.0527 -1.15704 -1.13244 0
M  V30 1069 H 100.045 -0.130066 -4.04491 0
M  V30 1070 H 98.6147 0.364459 -3.10468 0
M  V30 1071 H 97.8347 -2.11109 -3.32906 0
M  V30 1072 H 99.1227 -2.31854 -4.52903 0
M  V30 1073 H 98.5207 0.670784 -5.61709 0
M  V30 1074 H 97.0777 0.389905 -6.50633 0
M  V30 1075 N 100.511 1.16574 -1.06058 0
M  V30 1076 C 101.759 1.86677 -0.77434 0
M  V30 1077 C 102.08 1.81959 0.701147 0
M  V30 1078 O 101.35 1.2515 1.50713 0
M  V30 1079 H 99.9298 0.691134 -0.283449 0
M  V30 1080 H 102.592 1.41378 -1.34158 0
M  V30 1081 H 101.688 2.92181 -1.09711 0
M  V30 1082 N 101.989 0.842826 1.3317 0
M  V30 1083 C 102.899 0.281444 2.32906 0
M  V30 1084 C 103.915 -0.594587 1.63526 0
M  V30 1085 O 105.091 -0.49777 1.95152 0
M  V30 1086 C 102.156 -0.530929 3.42611 0
M  V30 1087 C 101.217 0.369843 4.27704 0
M  V30 1088 C 100.45 -0.403853 5.3217 0
M  V30 1089 O 100.673 -1.63513 5.46461 0
M  V30 1090 O 99.6069 0.224199 6.01482 0
M  V30 1091 H 103.433 1.10744 2.82789 0
M  V30 1092 H 101.018 0.60545 1.36582 0
M  V30 1093 H 102.9 -0.992437 4.09547 0
M  V30 1094 H 101.575 -1.33392 2.94938 0
M  V30 1095 H 100.482 0.879275 3.6362 0
M  V30 1096 H 101.815 1.13771 4.78871 0
M  V30 1097 N 103.467 -1.45747 0.599634 0
M  V30 1098 C 104.713 -2.02592 0.0918643 0
M  V30 1099 C 105.046 -1.46806 -1.27128 0
M  V30 1100 O 104.321 -0.639658 -1.83681 0
M  V30 1101 C 104.604 -3.60073 0.0443398 0
M  V30 1102 C 104.457 -4.26208 1.43759 0
M  V30 1103 C 105.776 -4.35309 -0.647608 0
M  V30 1104 H 102.895 -0.736175 0.034857 0
M  V30 1105 H 105.537 -1.73694 0.770081 0
M  V30 1106 H 103.687 -3.84823 -0.533224 0
M  V30 1107 H 105.359 -4.12668 2.06162 0
M  V30 1108 H 103.602 -3.84916 2.00056 0
M  V30 1109 H 104.273 -5.35069 1.35665 0
M  V30 1110 H 106.749 -4.15805 -0.156776 0
M  V30 1111 H 105.625 -5.45038 -0.649942 0
M  V30 1112 H 105.886 -4.07598 -1.71219 0
M  V30 1113 N 104.945 -0.338344 -1.53925 0
M  V30 1114 C 106.173 0.261298 -2.05243 0
M  V30 1115 C 106.588 1.44625 -1.21363 0
M  V30 1116 O 105.945 1.80811 -0.247736 0
M  V30 1117 C 105.996 0.681412 -3.5502 0
M  V30 1118 O 105.717 -0.456414 -4.35716 0
M  V30 1119 C 107.218 1.34232 -4.22489 0
M  V30 1120 H 104.438 0.0513685 -0.669031 0
M  V30 1121 H 106.982 -0.488822 -1.98572 0
M  V30 1122 H 105.137 1.38148 -3.61931 0
M  V30 1123 H 105.551 -0.122564 -5.24357 0
M  V30 1124 H 107.025 1.58708 -5.28693 0
M  V30 1125 H 107.502 2.29426 -3.74514 0
M  V30 1126 H 108.108 0.684424 -4.19757 0
M  V30 1127 N 106.423 1.57458 -0.0668435 0
M  V30 1128 C 107.353 2.15468 0.899764 0
M  V30 1129 C 108.334 1.08042 1.31381 0
M  V30 1130 O 109.519 1.36054 1.38574 0
M  V30 1131 C 106.649 2.71232 2.16911 0
M  V30 1132 C 105.603 3.83781 1.89463 0
M  V30 1133 C 104.929 4.26127 3.22986 0
M  V30 1134 C 106.229 5.08238 1.20381 0
M  V30 1135 H 107.923 2.96488 0.416529 0
M  V30 1136 H 105.469 1.4262 0.198908 0
M  V30 1137 H 107.422 3.10458 2.84945 0
M  V30 1138 H 106.146 1.87426 2.67468 0
M  V30 1139 H 104.805 3.45051 1.23836 0
M  V30 1140 H 104.453 3.39249 3.71374 0
M  V30 1141 H 104.153 5.01993 3.05413 0
M  V30 1142 H 105.677 4.67966 3.92225 0
M  V30 1143 H 107.091 5.44811 1.78475 0
M  V30 1144 H 105.488 5.89349 1.13083 0
M  V30 1145 H 106.558 4.84558 0.182153 0
M  V30 1146 N 107.901 -0.206675 1.56239 0
M  V30 1147 C 108.864 -1.23976 1.92776 0
M  V30 1148 C 109.864 -1.39041 0.807729 0
M  V30 1149 O 111.054 -1.37051 1.0753 0
M  V30 1150 C 108.186 -2.61112 2.19165 0
M  V30 1151 H 109.379 -0.927764 2.85189 0
M  V30 1152 H 106.932 -0.447718 1.4975 0
M  V30 1153 H 107.667 -2.97386 1.29352 0
M  V30 1154 H 107.452 -2.51552 3.00772 0
M  V30 1155 H 108.942 -3.35633 2.48476 0
M  V30 1156 N 109.379 -1.50304 -0.473955 0
M  V30 1157 C 110.309 -1.71886 -1.58042 0
M  V30 1158 C 111.29 -0.567799 -1.60344 0
M  V30 1159 O 112.475 -0.806623 -1.76656 0
M  V30 1160 C 109.605 -1.81036 -2.96384 0
M  V30 1161 C 108.559 -2.962 -3.08949 0
M  V30 1162 C 107.885 -2.9049 -4.48909 0
M  V30 1163 C 109.185 -4.36752 -2.86434 0
M  V30 1164 H 110.879 -2.64527 -1.40234 0
M  V30 1165 H 108.425 -1.27295 -0.673201 0
M  V30 1166 H 110.378 -1.94719 -3.73714 0
M  V30 1167 H 109.102 -0.850147 -3.15341 0
M  V30 1168 H 107.761 -2.82164 -2.3405 0
M  V30 1169 H 107.409 -1.92321 -4.64781 0
M  V30 1170 H 107.109 -3.67802 -4.58253 0
M  V30 1171 H 108.633 -3.06218 -5.28264 0
M  V30 1172 H 110.047 -4.5133 -3.53517 0
M  V30 1173 H 108.444 -5.15493 -3.07225 0
M  V30 1174 H 109.514 -4.49321 -1.82316 0
M  V30 1175 N 110.857 0.726932 -1.39834 0
M  V30 1176 C 112.273 1.03354 -1.21615 0
M  V30 1177 C 112.473 2.01327 -0.08338 0
M  V30 1178 O 111.529 2.46158 0.56238 0
M  V30 1179 C 112.842 1.58811 -2.55342 0
M  V30 1180 C 114.39 1.70851 -2.62257 0
M  V30 1181 C 114.865 2.29716 -3.96225 0
M  V30 1182 N 116.356 2.37116 -3.97907 0
M  V30 1183 C 117.091 2.83619 -4.98345 0
M  V30 1184 N 116.587 3.29958 -6.09179 0
M  V30 1185 N 118.38 2.82901 -4.8572 0
M  V30 1186 H 110.531 0.0773069 -2.12259 0
M  V30 1187 H 112.794 0.0969102 -0.943034 0
M  V30 1188 H 112.5 0.942855 -3.38826 0
M  V30 1189 H 112.374 2.57502 -2.75632 0
M  V30 1190 H 114.761 2.34497 -1.79152 0
M  V30 1191 H 114.842 0.707913 -2.45809 0
M  V30 1192 H 114.486 1.66696 -4.79765 0
M  V30 1193 H 114.416 3.30469 -4.09997 0
M  V30 1194 H 116.907 2.04374 -3.17868 0
M  V30 1195 H 117.22 3.63976 -6.8172 0
M  V30 1196 H 115.565 3.27946 -6.12761 0
M  V30 1197 H 118.756 2.46027 -3.98231 0
M  V30 1198 H 118.929 3.18827 -5.6414 0
M  V30 1199 N 112.336 1.25143 0.95797 0
M  V30 1200 C 113.284 1.05019 2.07542 0
M  V30 1201 C 114.278 -0.0178751 1.69391 0
M  V30 1202 O 115.484 0.137472 1.79474 0
M  V30 1203 H 111.859 0.32265 0.679265 0
M  V30 1204 H 113.83 1.99759 2.21673 0
M  V30 1205 C 112.579 0.682074 3.40944 0
M  V30 1206 H 111.902 1.49573 3.70767 0
M  V30 1207 H 113.342 0.580945 4.20001 0
M  V30 1208 C 111.801 -0.611608 3.31302 0
M  V30 1209 O 112.331 -1.65465 3.66038 0
M  V30 1210 N 110.537 -0.595982 2.84423 0
M  V30 1211 H 110.084 0.253192 2.56353 0
M  V30 1212 H 110.042 -1.46173 2.78354 0
M  V30 1213 N 113.814 -1.1601 1.06675 0
M  V30 1214 C 114.744 -2.22688 0.702307 0
M  V30 1215 C 115.725 -1.67306 -0.307032 0
M  V30 1216 O 116.91 -1.93352 -0.181305 0
M  V30 1217 C 114.04 -3.47178 0.092038 0
M  V30 1218 C 112.994 -4.15477 1.02777 0
M  V30 1219 C 112.32 -5.33963 0.28061 0
M  V30 1220 C 113.62 -4.66019 2.35846 0
M  V30 1221 H 115.314 -2.53429 1.59419 0
M  V30 1222 H 112.86 -1.21813 0.767961 0
M  V30 1223 H 114.813 -4.21037 -0.174814 0
M  V30 1224 H 113.537 -3.15749 -0.834877 0
M  V30 1225 H 112.196 -3.43549 1.27944 0
M  V30 1226 H 111.844 -4.98788 -0.649545 0
M  V30 1227 H 111.544 -5.806 0.904258 0
M  V30 1228 H 113.068 -6.10596 0.021396 0
M  V30 1229 H 114.482 -5.3144 2.15045 0
M  V30 1230 H 112.879 -5.23293 2.93743 0
M  V30 1231 H 113.949 -3.82023 2.98641 0
M  V30 1232 N 115.292 -0.849877 -1.32721 0
M  V30 1233 C 116.708 -0.539102 -1.50219 0
M  V30 1234 C 116.908 0.931271 -1.78689 0
M  V30 1235 O 115.964 1.71455 -1.85363 0
M  V30 1236 C 117.277 -1.42196 -2.64954 0
M  V30 1237 C 118.825 -1.42189 -2.78839 0
M  V30 1238 C 119.3 -2.28985 -3.96648 0
M  V30 1239 N 120.791 -2.26754 -4.03902 0
M  V30 1240 C 121.526 -2.90644 -4.94281 0
M  V30 1241 N 121.022 -3.63629 -5.897 0
M  V30 1242 N 122.815 -2.80057 -4.87365 0
M  V30 1243 H 114.966 -1.80156 -1.12506 0
M  V30 1244 H 117.229 -0.769217 -0.554085 0
M  V30 1245 H 116.935 -2.46733 -2.50631 0
M  V30 1246 H 116.809 -1.10591 -3.60624 0
M  V30 1247 H 119.196 -0.38419 -2.92588 0
M  V30 1248 H 119.277 -1.77807 -1.83898 0
M  V30 1249 H 118.921 -3.32819 -3.83658 0
M  V30 1250 H 118.851 -1.90702 -4.90857 0
M  V30 1251 H 121.342 -1.73688 -3.3562 0
M  V30 1252 H 121.655 -4.09558 -6.55349 0
M  V30 1253 H 120 -3.67737 -5.89741 0
M  V30 1254 H 123.191 -2.22593 -4.11789 0
M  V30 1255 H 123.364 -3.30132 -5.57599 0
M  V30 1256 N 116.77 1.45427 -0.607355 0
M  V30 1257 C 117.733 2.28974 0.101693 0
M  V30 1258 C 118.733 1.39754 0.795329 0
M  V30 1259 O 119.923 1.61878 0.643527 0
M  V30 1260 C 117.055 3.20768 1.15414 0
M  V30 1261 H 118.248 2.93147 -0.632844 0
M  V30 1262 H 115.801 1.51945 -0.366391 0
M  V30 1263 H 116.536 2.61395 1.91945 0
M  V30 1264 H 116.321 3.86489 0.66098 0
M  V30 1265 H 117.811 3.83589 1.65073 0
M  V30 1266 N 118.248 0.346503 1.53744 0
M  V30 1267 C 119.494 -0.242135 2.01954 0
M  V30 1268 C 119.849 -1.47962 1.22984 0
M  V30 1269 O 119.142 -1.89077 0.309924 0
M  V30 1270 C 119.336 -0.605809 3.52228 0
M  V30 1271 C 119.165 0.594882 4.45748 0
M  V30 1272 C 117.935 1.1011 4.93157 0
M  V30 1273 C 120.133 1.45425 4.93311 0
M  V30 1274 N 118.115 2.26381 5.70636 0
M  V30 1275 C 119.486 2.46383 5.68942 0
M  V30 1276 C 121.541 1.47935 4.75415 0
M  V30 1277 C 120.244 3.49684 6.28581 0
M  V30 1278 C 122.27 2.50119 5.35905 0
M  V30 1279 C 121.632 3.49803 6.11406 0
M  V30 1280 H 117.731 -0.0518296 0.780281 0
M  V30 1281 H 120.315 0.486736 1.88518 0
M  V30 1282 H 118.486 -1.30378 3.65864 0
M  V30 1283 H 120.218 -1.17789 3.87179 0
M  V30 1284 H 116.973 0.668721 4.68855 0
M  V30 1285 H 117.397 2.85094 6.14044 0
M  V30 1286 H 122.039 0.722274 4.16585 0
M  V30 1287 H 119.757 4.26285 6.86518 0
M  V30 1288 H 123.343 2.52892 5.23963 0
M  V30 1289 H 122.223 4.27576 6.5738 0
M  V30 1290 N 119.726 -1.57421 0.075193 0
M  V30 1291 C 120.659 -2.08528 -0.926904 0
M  V30 1292 C 121.637 -0.991171 -1.28898 0
M  V30 1293 O 122.821 -1.26479 -1.39769 0
M  V30 1294 C 119.948 -2.54576 -2.23402 0
M  V30 1295 C 118.994 -3.75454 -2.02327 0
M  V30 1296 S 119.827 -5.19989 -1.27951 0
M  V30 1297 C 120.983 -5.69372 -2.59935 0
M  V30 1298 H 121.216 -2.932 -0.492048 0
M  V30 1299 H 118.749 -1.53785 -0.137651 0
M  V30 1300 H 120.707 -2.81767 -2.98526 0
M  V30 1301 H 119.368 -1.70166 -2.64012 0
M  V30 1302 H 118.561 -4.05675 -2.99071 0
M  V30 1303 H 118.163 -3.48654 -1.35339 0
M  V30 1304 H 120.455 -5.76424 -3.56008 0
M  V30 1305 H 121.398 -6.68207 -2.34319 0
M  V30 1306 H 121.806 -4.97205 -2.67296 0
M  V30 1307 N 121.204 0.198386 -1.56346 0
M  V30 1308 C 122.151 1.24589 -1.94284 0
M  V30 1309 C 123.121 1.454 -0.802997 0
M  V30 1310 O 124.306 1.58588 -1.06087 0
M  V30 1311 C 121.446 2.58631 -2.28482 0
M  V30 1312 C 120.559 2.45426 -3.55514 0
M  V30 1313 C 119.694 3.7215 -3.79049 0
M  V30 1314 C 118.733 3.53763 -4.99518 0
M  V30 1315 N 117.87 4.72491 -5.19323 0
M  V30 1316 H 122.71 0.915356 -2.83593 0
M  V30 1317 H 120.247 0.440629 -1.40346 0
M  V30 1318 H 122.205 3.3672 -2.46324 0
M  V30 1319 H 120.835 2.89734 -1.42317 0
M  V30 1320 H 119.887 1.58652 -3.45737 0
M  V30 1321 H 121.199 2.27772 -4.43758 0
M  V30 1322 H 120.353 4.58679 -3.97113 0
M  V30 1323 H 119.092 3.92754 -2.89129 0
M  V30 1324 H 118.097 2.65619 -4.8138 0
M  V30 1325 H 119.322 3.34607 -5.90944 0
M  V30 1326 H 117.268 4.93365 -4.3235 0
M  V30 1327 H 117.185 4.5765 -6.01741 0
M  V30 1328 H 118.453 5.6038 -5.41843 0
M  V30 1329 N 122.682 1.50554 0.465978 0
M  V30 1330 C 123.959 1.5232 1.22712 0
M  V30 1331 C 124.339 0.270807 2.09356 0
M  V30 1332 O 123.687 -0.745541 2.15995 0
M  V30 1333 C 123.897 2.82175 2.05374 0
M  V30 1334 C 125.245 3.33033 2.6339 0
M  V30 1335 O 126.269 2.83531 2.15612 0
M  V30 1336 O 125.128 4.19336 3.50456 0
M  V30 1337 H 122.222 0.611183 0.557122 0
M  V30 1338 H 124.768 1.62847 0.477381 0
M  V30 1339 H 123.54 3.64797 1.41558 0
M  V30 1340 H 123.163 2.74675 2.87471 0
M  V30 1341 N 124.16 -0.719506 1.40217 0
M  V30 1342 C 125.07 -1.86378 1.42479 0
M  V30 1343 C 126.086 -1.71073 0.317834 0
M  V30 1344 O 127.262 -1.93406 0.561794 0
M  V30 1345 C 124.327 -3.22136 1.28178 0
M  V30 1346 C 123.388 -3.49723 2.48982 0
M  V30 1347 C 122.621 -4.79004 2.35353 0
M  V30 1348 O 122.844 -5.53821 1.36524 0
M  V30 1349 O 121.778 -5.06839 3.2465 0
M  V30 1350 H 125.604 -1.87425 2.38968 0
M  V30 1351 H 123.189 -0.869405 1.21498 0
M  V30 1352 H 125.071 -4.03234 1.22395 0
M  V30 1353 H 123.746 -3.21825 0.347934 0
M  V30 1354 H 122.653 -2.6865 2.60342 0
M  V30 1355 H 123.986 -3.54828 3.41113 0
M  V30 1356 N 125.638 -1.25649 -0.95132 0
M  V30 1357 C 127.054 -1.02542 -1.223 0
M  V30 1358 C 127.254 0.255715 -1.99871 0
M  V30 1359 O 126.31 0.967558 -2.33226 0
M  V30 1360 C 127.623 -2.25065 -1.99415 0
M  V30 1361 C 129.171 -2.29861 -2.12446 0
M  V30 1362 C 129.646 -3.52048 -2.92961 0
M  V30 1363 N 131.137 -3.52465 -3.00538 0
M  V30 1364 C 131.872 -4.43672 -3.63239 0
M  V30 1365 N 131.368 -5.45157 -4.27523 0
M  V30 1366 N 133.161 -4.31346 -3.60412 0
M  V30 1367 H 125.312 -2.07951 -0.432471 0
M  V30 1368 H 127.575 -0.91339 -0.253816 0
M  V30 1369 H 127.281 -3.18194 -1.49817 0
M  V30 1370 H 127.155 -2.28502 -3.00111 0
M  V30 1371 H 129.542 -1.37252 -2.61239 0
M  V30 1372 H 129.623 -2.3044 -1.11044 0
M  V30 1373 H 129.267 -4.44981 -2.44856 0
M  V30 1374 H 129.197 -3.48715 -3.94596 0
M  V30 1375 H 131.688 -2.79056 -2.54826 0
M  V30 1376 H 132.001 -6.10958 -4.73234 0
M  V30 1377 H 130.346 -5.49025 -4.26141 0
M  V30 1378 H 133.537 -3.51288 -3.09377 0
M  V30 1379 H 133.71 -5.02624 -4.0899 0
M  V30 1380 N 127.117 1.15442 -1.07289 0
M  V30 1381 C 128.363 1.86489 -0.796846 0
M  V30 1382 C 128.696 1.82078 0.675371 0
M  V30 1383 O 127.971 1.24346 1.4956 0
M  V30 1384 C 128.254 3.35626 -1.30489 0
M  V30 1385 C 128.107 3.48673 -2.84161 0
M  V30 1386 C 129.426 4.30357 -0.920907 0
M  V30 1387 H 126.545 0.677144 -0.290939 0
M  V30 1388 H 129.187 1.35633 -1.33056 0
M  V30 1389 H 127.337 3.79068 -0.850883 0
M  V30 1390 H 129.009 3.14099 -3.37846 0
M  V30 1391 H 127.252 2.90253 -3.22391 0
M  V30 1392 H 127.923 4.53453 -3.14777 0
M  V30 1393 H 130.399 3.94871 -1.3121 0
M  V30 1394 H 129.275 5.33193 -1.30372 0
M  V30 1395 H 129.536 4.4176 0.173226 0
M  V30 1396 N 128.595 0.856903 1.32268 0
M  V30 1397 C 130.006 0.515711 1.79436 0
M  V30 1398 C 130.357 -0.966586 1.70738 0
M  V30 1399 O 129.482 -1.75409 1.26731 0
M  V30 1400 C 130.077 0.929335 3.25805 0
M  V30 1401 C 128.636 0.640006 3.70919 0
M  V30 1402 C 127.783 1.12784 2.53328 0
M  V30 1403 H 130.734 1.04389 1.19535 0
M  V30 1404 H 130.755 0.246633 3.797 0
M  V30 1405 H 130.267 2.00821 3.32103 0
M  V30 1406 H 128.368 -0.428051 3.70133 0
M  V30 1407 H 128.481 1.20788 4.63624 0
M  V30 1408 H 126.845 0.548033 2.48734 0
M  V30 1409 H 127.628 2.21387 2.62379 0
M  V30 1410 N 130.073 -1.45103 0.615059 0
M  V30 1411 C 131.02 -2.30586 -0.0993978 0
M  V30 1412 C 131.99 -1.42544 -0.852669 0
M  V30 1413 O 133.175 -1.71465 -0.836917 0
M  V30 1414 C 130.315 -3.27572 -1.08583 0
M  V30 1415 C 129.428 -4.30717 -0.332656 0
M  V30 1416 C 128.563 -5.14807 -1.30947 0
M  V30 1417 C 127.602 -6.09673 -0.544538 0
M  V30 1418 N 126.739 -6.86517 -1.47101 0
M  V30 1419 H 131.579 -2.91144 0.635542 0
M  V30 1420 H 129.116 -1.4346 0.325206 0
M  V30 1421 H 131.074 -3.82276 -1.67095 0
M  V30 1422 H 129.704 -2.68751 -1.78809 0
M  V30 1423 H 128.756 -3.78615 0.368107 0
M  V30 1424 H 130.068 -4.98102 0.263842 0
M  V30 1425 H 129.222 -5.73948 -1.96643 0
M  V30 1426 H 127.961 -4.47458 -1.9399 0
M  V30 1427 H 126.966 -5.49656 0.126003 0
M  V30 1428 H 128.191 -6.79052 0.080947 0
M  V30 1429 H 126.137 -6.21851 -2.08895 0
M  V30 1430 H 126.054 -7.50281 -0.928137 0
M  V30 1431 H 127.322 -7.50194 -2.11731 0
M  V30 1432 N 131.551 -0.354651 -1.53558 0
M  V30 1433 C 132.499 0.512195 -2.26891 0
M  V30 1434 C 133.493 1.09263 -1.29452 0
M  V30 1435 O 134.699 1.03709 -1.47121 0
M  V30 1436 H 131.074 0.183878 -0.729173 0
M  V30 1437 H 133.045 -0.128202 -2.98124 0
M  V30 1438 C 131.794 1.64563 -3.06291 0
M  V30 1439 H 131.117 1.20829 -3.81104 0
M  V30 1440 H 132.557 2.22711 -3.60799 0
M  V30 1441 C 131.016 2.58158 -2.16462 0
M  V30 1442 O 131.546 3.60695 -1.76811 0
M  V30 1443 N 129.752 2.27096 -1.81317 0
M  V30 1444 H 129.299 1.43751 -2.1376 0
M  V30 1445 H 129.257 2.89975 -1.21498 0
M  V30 1446 N 133.029 1.57378 -0.0835403 0
M  V30 1447 C 133.959 2.1641 0.87686 0
M  V30 1448 C 134.94 1.09429 1.30228 0
M  V30 1449 O 136.125 1.37516 1.37124 0
M  V30 1450 C 133.255 2.73517 2.14022 0
M  V30 1451 C 132.209 3.85769 1.85381 0
M  V30 1452 C 131.535 4.29529 3.18448 0
M  V30 1453 C 132.835 5.09486 1.14984 0
M  V30 1454 H 134.529 2.96914 0.385059 0
M  V30 1455 H 132.075 1.42823 0.18377 0
M  V30 1456 H 134.028 3.13463 2.81636 0
M  V30 1457 H 132.752 1.90252 2.65465 0
M  V30 1458 H 131.411 3.46345 1.20169 0
M  V30 1459 H 131.059 3.43169 3.67755 0
M  V30 1460 H 130.759 5.05204 3.00071 0
M  V30 1461 H 132.283 4.72099 3.8724 0
M  V30 1462 H 133.697 5.46674 1.72687 0
M  V30 1463 H 132.094 5.90515 1.06826 0
M  V30 1464 H 133.164 4.84724 0.130749 0
M  V30 1465 N 134.507 -0.190092 1.56449 0
M  V30 1466 C 135.47 -1.21925 1.9408 0
M  V30 1467 C 136.47 -1.38176 0.822431 0
M  V30 1468 O 137.66 -1.35903 1.08977 0
M  V30 1469 C 134.792 -2.58773 2.21922 0
M  V30 1470 H 135.985 -0.897464 2.86157 0
M  V30 1471 H 133.538 -0.43181 1.50217 0
M  V30 1472 H 134.273 -2.95998 1.32499 0
M  V30 1473 H 134.058 -2.48348 3.03424 0
M  V30 1474 H 135.548 -3.32978 2.52022 0
M  V30 1475 N 135.985 -1.50799 -0.457987 0
M  V30 1476 C 137.213 -1.66218 -1.23203 0
M  V30 1477 C 137.628 -0.350894 -1.85511 0
M  V30 1478 O 136.985 0.668546 -1.69814 0
M  V30 1479 C 137.036 -2.76291 -2.33121 0
M  V30 1480 O 136.757 -4.02338 -1.73366 0
M  V30 1481 C 138.258 -3.028 -3.2377 0
M  V30 1482 H 135.478 -0.558361 -0.372121 0
M  V30 1483 H 138.022 -1.97099 -0.545179 0
M  V30 1484 H 136.177 -2.48068 -2.97558 0
M  V30 1485 H 136.591 -4.63312 -2.4585 0
M  V30 1486 H 138.065 -3.8345 -3.97077 0
M  V30 1487 H 138.542 -2.14385 -3.83322 0
M  V30 1488 H 139.148 -3.32604 -2.65056 0
M  V30 1489 N 137.463 0.71206 -1.40597 0
M  V30 1490 C 138.395 1.83704 -1.37061 0
M  V30 1491 C 139.408 1.60453 -0.275426 0
M  V30 1492 O 140.597 1.70262 -0.53602 0
M  V30 1493 C 137.697 3.20172 -1.11099 0
M  V30 1494 C 136.87 3.7059 -2.3234 0
M  V30 1495 C 135.929 4.85681 -2.02485 0
M  V30 1496 O 134.955 4.9815 -2.75382 0
M  V30 1497 N 136.157 5.71735 -1.00497 0
M  V30 1498 H 138.922 1.87235 -2.34016 0
M  V30 1499 H 136.483 0.893739 -1.34996 0
M  V30 1500 H 138.475 3.94768 -0.891064 0
M  V30 1501 H 137.045 3.11767 -0.227989 0
M  V30 1502 H 136.265 2.87085 -2.7014 0
M  V30 1503 H 137.553 4.01011 -3.13157 0
M  V30 1504 H 136.951 5.64275 -0.401298 0
M  V30 1505 H 135.508 6.463 -0.844942 0
M  V30 1506 N 138.941 1.26152 0.944643 0
M  V30 1507 C 139.871 1.09902 2.06019 0
M  V30 1508 C 140.852 0.00519538 1.70099 0
M  V30 1509 O 142.037 0.176583 1.93396 0
M  V30 1510 C 139.167 0.727562 3.39594 0
M  V30 1511 C 138.121 1.77274 3.89561 0
M  V30 1512 C 137.447 1.25569 5.19747 0
M  V30 1513 C 138.747 3.17357 4.14827 0
M  V30 1514 H 140.441 2.03217 2.19871 0
M  V30 1515 H 137.987 0.978452 1.05652 0
M  V30 1516 H 139.94 0.600777 4.17095 0
M  V30 1517 H 138.664 -0.241287 3.25707 0
M  V30 1518 H 137.323 1.88814 3.14237 0
M  V30 1519 H 136.971 0.276783 5.02238 0
M  V30 1520 H 136.671 1.95433 5.54148 0
M  V30 1521 H 138.195 1.1415 5.99835 0
M  V30 1522 H 139.609 3.08914 4.82954 0
M  V30 1523 H 138.006 3.84781 4.60504 0
M  V30 1524 H 139.076 3.63673 3.20734 0
M  V30 1525 N 140.419 -1.14872 1.07899 0
M  V30 1526 C 141.696 -1.81928 0.71845 0
M  V30 1527 C 142.076 -1.95417 -0.798455 0
M  V30 1528 O 141.424 -1.50997 -1.715 0
M  V30 1529 C 141.634 -3.17937 1.43935 0
M  V30 1530 C 142.982 -3.93501 1.59506 0
M  V30 1531 O 144.006 -3.27509 1.40058 0
M  V30 1532 O 142.865 -5.1183 1.91551 0
M  V30 1533 H 139.959 -0.78628 0.256305 0
M  V30 1534 H 142.505 -1.21934 1.18026 0
M  V30 1535 H 141.277 -3.0325 2.47295 0
M  V30 1536 H 140.9 -3.85619 0.968687 0
M  V30 1537 N 141.898 -0.863906 -1.31812 0
M  V30 1538 C 143.123 -0.48527 -2.01643 0
M  V30 1539 C 143.548 0.913058 -1.64453 0
M  V30 1540 O 142.906 1.6014 -0.849985 0
M  V30 1541 C 142.954 -0.642625 -3.54828 0
M  V30 1542 O 142.058 0.320659 -4.11151 0
M  V30 1543 H 141.399 -0.193793 -0.635091 0
M  V30 1544 H 143.929 -1.16565 -1.68148 0
M  V30 1545 H 143.939 -0.533628 -4.04495 0
M  V30 1546 H 142.614 -1.66227 -3.81237 0
M  V30 1547 H 141.191 0.167126 -3.72525 0
M  V30 1548 N 143.376 1.44774 -0.622745 0
M  V30 1549 C 144.339 2.29069 0.0774015 0
M  V30 1550 C 145.339 1.4059 0.780461 0
M  V30 1551 O 146.529 1.62551 0.626322 0
M  V30 1552 C 143.661 3.21974 1.12006 0
M  V30 1553 H 144.854 2.92459 -0.663901 0
M  V30 1554 H 142.407 1.51548 -0.382486 0
M  V30 1555 H 143.142 2.63417 1.89162 0
M  V30 1556 H 142.927 3.87168 0.619951 0
M  V30 1557 H 144.417 3.85318 1.60995 0
M  V30 1558 N 144.854 0.36279 1.53368 0
M  V30 1559 C 146.101 -0.227776 2.01215 0
M  V30 1560 C 146.429 -1.49003 1.25014 0
M  V30 1561 O 145.684 -1.92876 0.331236 0
M  V30 1562 C 145.983 -0.568417 3.52851 0
M  V30 1563 C 145.649 0.59918 4.46901 0
M  V30 1564 C 144.311 0.919559 4.72332 0
M  V30 1565 C 146.663 1.38156 5.02556 0
M  V30 1566 C 143.991 2.02434 5.5067 0
M  V30 1567 C 146.343 2.47674 5.821 0
M  V30 1568 C 145.007 2.8025 6.05819 0
M  V30 1569 H 144.277 -0.083349 0.736297 0
M  V30 1570 H 146.924 0.494677 1.85001 0
M  V30 1571 H 145.229 -1.37185 3.66998 0
M  V30 1572 H 146.926 -1.03756 3.87344 0
M  V30 1573 H 143.516 0.339437 4.27254 0
M  V30 1574 H 147.7 1.14729 4.82857 0
M  V30 1575 H 142.956 2.28075 5.67267 0
M  V30 1576 H 147.13 3.08716 6.24234 0
M  V30 1577 H 144.757 3.65979 6.66306 0
M  V30 1578 N 146.332 -1.57332 0.0918853 0
M  V30 1579 C 147.581 -1.93412 -0.572249 0
M  V30 1580 C 147.894 -0.975515 -1.69538 0
M  V30 1581 O 149.1 -1.22991 -2.42045 0
M  V30 1582 C 147.556 -3.43648 -1.0693 0
M  V30 1583 C 147.164 -4.47994 0.0239049 0
M  V30 1584 C 148.908 -3.88695 -1.70635 0
M  V30 1585 C 146.815 -5.89381 -0.488319 0
M  V30 1586 H 145.745 -0.721939 -0.217532 0
M  V30 1587 H 148.396 -1.82735 0.167369 0
M  V30 1588 H 146.778 -3.49466 -1.8625 0
M  V30 1589 H 147.952 -4.53815 0.799277 0
M  V30 1590 H 146.267 -4.12536 0.565946 0
M  V30 1591 H 148.864 -4.91725 -2.10025 0
M  V30 1592 H 149.207 -3.27166 -2.57426 0
M  V30 1593 H 149.74 -3.85564 -0.979023 0
M  V30 1594 H 146.479 -6.54602 0.342906 0
M  V30 1595 H 145.999 -5.87037 -1.23077 0
M  V30 1596 H 147.678 -6.39863 -0.958317 0
M  V30 1597 N 147.81 0.181792 -1.56548 0
M  V30 1598 C 149.226 0.53316 -1.50431 0
M  V30 1599 C 149.426 1.85184 -0.794297 0
M  V30 1600 O 148.482 2.50058 -0.350318 0
M  V30 1601 C 149.795 0.575597 -2.9514 0
M  V30 1602 C 151.343 0.663519 -3.05886 0
M  V30 1603 C 151.818 0.736946 -4.52032 0
M  V30 1604 N 153.309 0.800118 -4.56237 0
M  V30 1605 C 154.044 0.877327 -5.66649 0
M  V30 1606 N 153.54 0.916016 -6.86718 0
M  V30 1607 N 155.333 0.915542 -5.54594 0
M  V30 1608 H 147.484 -0.683025 -2.01118 0
M  V30 1609 H 149.747 -0.244988 -0.915797 0
M  V30 1610 H 149.453 -0.324482 -3.502 0
M  V30 1611 H 149.327 1.42572 -3.49218 0
M  V30 1612 H 151.714 1.55403 -2.50867 0
M  V30 1613 H 151.795 -0.21307 -2.54911 0
M  V30 1614 H 151.439 -0.149262 -5.07681 0
M  V30 1615 H 151.369 1.62953 -5.00753 0
M  V30 1616 H 153.86 0.778926 -3.69785 0
M  V30 1617 H 154.173 0.975813 -7.66614 0
M  V30 1618 H 152.518 0.884469 -6.89349 0
M  V30 1619 H 155.709 0.882245 -4.59711 0
M  V30 1620 H 155.882 0.972253 -6.40665 0
M  V30 1621 N 149.288 1.51039 0.449983 0
M  V30 1622 C 150.235 1.71439 1.54523 0
M  V30 1623 C 151.205 0.555871 1.56522 0
M  V30 1624 O 152.39 0.788871 1.73728 0
M  V30 1625 C 149.53 1.83384 2.92343 0
M  V30 1626 C 148.643 3.10873 2.9997 0
M  V30 1627 C 147.778 3.13488 4.28834 0
M  V30 1628 C 146.817 4.35343 4.30282 0
M  V30 1629 N 145.954 4.35579 5.5065 0
M  V30 1630 H 150.794 2.64934 1.36433 0
M  V30 1631 H 148.331 1.31312 0.662982 0
M  V30 1632 H 150.289 1.88291 3.72293 0
M  V30 1633 H 148.919 0.933086 3.0902 0
M  V30 1634 H 147.971 3.15336 2.12761 0
M  V30 1635 H 149.283 4.00814 2.96901 0
M  V30 1636 H 148.437 3.17241 5.17149 0
M  V30 1637 H 147.176 2.21414 4.34543 0
M  V30 1638 H 146.181 4.3178 3.40362 0
M  V30 1639 H 147.406 5.28668 4.26248 0
M  V30 1640 H 145.352 3.46369 5.57104 0
M  V30 1641 H 145.269 5.19313 5.49409 0
M  V30 1642 H 146.537 4.43507 6.41032 0
M  V30 1643 N 150.766 -0.704594 1.40972 0
M  V30 1644 C 151.676 -1.84856 1.44448 0
M  V30 1645 C 152.692 -1.70726 0.335961 0
M  V30 1646 O 153.868 -1.92799 0.582276 0
M  V30 1647 C 150.933 -3.20758 1.31587 0
M  V30 1648 C 149.994 -3.47063 2.52677 0
M  V30 1649 C 149.227 -4.76481 2.4042 0
M  V30 1650 O 149.45 -5.52341 1.42391 0
M  V30 1651 O 148.384 -5.03367 3.30007 0
M  V30 1652 H 152.21 -1.8488 2.40942 0
M  V30 1653 H 149.795 -0.85647 1.22413 0
M  V30 1654 H 151.677 -4.01913 1.26665 0
M  V30 1655 H 150.352 -3.21438 0.382049 0
M  V30 1656 H 149.259 -2.65873 2.63177 0
M  V30 1657 H 150.592 -3.5119 3.44858 0
M  V30 1658 N 152.244 -1.26651 -0.937939 0
M  V30 1659 C 153.655 -1.1125 -1.49934 0
M  V30 1660 C 154.006 0.306077 -1.93798 0
M  V30 1661 O 153.131 1.19792 -1.80219 0
M  V30 1662 C 153.726 -2.01339 -2.72485 0
M  V30 1663 C 152.285 -1.90074 -3.24883 0
M  V30 1664 C 151.432 -1.94498 -1.97651 0
M  V30 1665 H 154.383 -1.39693 -0.753091 0
M  V30 1666 H 154.404 -1.56319 -3.46907 0
M  V30 1667 H 153.916 -3.04577 -2.40529 0
M  V30 1668 H 152.017 -0.897827 -3.61621 0
M  V30 1669 H 152.13 -2.75778 -3.9177 0
M  V30 1670 H 150.494 -1.38591 -2.13693 0
M  V30 1671 H 151.277 -2.99372 -1.68022 0
M  V30 1672 N 153.722 1.14298 -1.08507 0
M  V30 1673 C 154.969 1.85359 -0.815373 0
M  V30 1674 C 155.297 1.83001 0.658865 0
M  V30 1675 O 154.552 1.25655 1.50031 0
M  V30 1676 C 154.851 3.33547 -1.28379 0
M  V30 1677 C 154.517 3.56093 -2.76602 0
M  V30 1678 C 153.179 3.61955 -3.17084 0
M  V30 1679 C 155.531 3.64834 -3.72217 0
M  V30 1680 C 152.859 3.74082 -4.51973 0
M  V30 1681 C 155.211 3.78487 -5.06883 0
M  V30 1682 C 153.875 3.82598 -5.46969 0
M  V30 1683 H 153.145 0.678276 -0.298366 0
M  V30 1684 H 155.792 1.35002 -1.35819 0
M  V30 1685 H 154.097 3.86191 -0.660593 0
M  V30 1686 H 155.794 3.86959 -1.05186 0
M  V30 1687 H 152.384 3.52179 -2.4427 0
M  V30 1688 H 156.568 3.59595 -3.42061 0
M  V30 1689 H 151.824 3.75527 -4.82483 0
M  V30 1690 H 155.998 3.84193 -5.80834 0
M  V30 1691 H 153.625 3.91747 -6.51489 0
M  V30 1692 N 155.201 0.870884 1.31352 0
M  V30 1693 C 156.449 0.48132 1.96285 0
M  V30 1694 C 156.77 -0.969813 1.69173 0
M  V30 1695 O 156.04 -1.67998 1.00764 0
M  V30 1696 H 154.62 0.175002 0.726212 0
M  V30 1697 H 157.282 1.11087 1.60143 0
M  V30 1698 H 156.378 0.639825 3.05471 0
M  V30 1699 N 156.679 -1.44442 0.630414 0
M  V30 1700 C 157.609 -2.33418 -0.0618083 0
M  V30 1701 C 158.59 -1.48165 -0.835541 0
M  V30 1702 O 159.775 -1.76886 -0.801564 0
M  V30 1703 C 156.905 -3.31222 -1.04449 0
M  V30 1704 C 155.859 -4.26288 -0.382436 0
M  V30 1705 C 155.185 -5.13954 -1.47497 0
M  V30 1706 C 156.485 -5.1744 0.710865 0
M  V30 1707 H 158.179 -2.91548 0.681184 0
M  V30 1708 H 155.725 -1.40191 0.329026 0
M  V30 1709 H 157.678 -3.92351 -1.53748 0
M  V30 1710 H 156.402 -2.71299 -1.81836 0
M  V30 1711 H 155.061 -3.6649 0.0899054 0
M  V30 1712 H 154.709 -4.50385 -2.2397 0
M  V30 1713 H 154.409 -5.7837 -1.03737 0
M  V30 1714 H 155.933 -5.77955 -1.96979 0
M  V30 1715 H 157.347 -5.72509 0.300996 0
M  V30 1716 H 155.744 -5.90455 1.07156 0
M  V30 1717 H 156.814 -4.58496 1.57829 0
M  V30 1718 N 158.157 -0.370918 -1.53173 0
M  V30 1719 C 159.403 0.217423 -2.01631 0
M  V30 1720 C 159.736 1.47983 -1.25756 0
M  V30 1721 O 159.011 1.91274 -0.352764 0
M  V30 1722 C 159.294 0.503982 -3.56556 0
M  V30 1723 C 159.147 -0.77243 -4.43118 0
M  V30 1724 C 160.466 1.30234 -4.20389 0
M  V30 1725 H 157.585 0.0775486 -0.732909 0
M  V30 1726 H 160.227 -0.496863 -1.83388 0
M  V30 1727 H 158.377 1.11248 -3.72231 0
M  V30 1728 H 160.049 -1.4098 -4.39229 0
M  V30 1729 H 158.292 -1.39167 -4.10871 0
M  V30 1730 H 158.963 -0.526815 -5.4948 0
M  V30 1731 H 161.439 0.787546 -4.08579 0
M  V30 1732 H 160.315 1.47158 -5.28806 0
M  V30 1733 H 160.576 2.31237 -3.76805 0
M  V30 1734 N 159.635 1.57281 -0.100228 0
M  V30 1735 C 160.565 2.17328 0.853857 0
M  V30 1736 C 161.546 1.10804 1.2906 0
M  V30 1737 O 162.731 1.38963 1.35657 0
M  V30 1738 C 159.861 2.75772 2.11109 0
M  V30 1739 C 158.815 3.87713 1.81279 0
M  V30 1740 C 158.141 4.32882 3.13874 0
M  V30 1741 C 159.441 5.10677 1.09574 0
M  V30 1742 H 161.135 2.97305 0.353545 0
M  V30 1743 H 158.681 1.43009 0.168612 0
M  V30 1744 H 160.634 3.16433 2.78296 0
M  V30 1745 H 159.358 1.93057 2.63432 0
M  V30 1746 H 158.017 3.476 1.16489 0
M  V30 1747 H 157.665 3.47051 3.64095 0
M  V30 1748 H 157.365 5.08358 2.94696 0
M  V30 1749 H 158.889 4.7618 3.82211 0
M  V30 1750 H 160.303 5.48474 1.66879 0
M  V30 1751 H 158.7 5.91615 1.00557 0
M  V30 1752 H 159.77 4.84835 0.0793299 0
M  V30 1753 N 161.113 -0.173488 1.56642 0
M  V30 1754 C 162.362 -0.888758 1.81063 0
M  V30 1755 C 162.675 -1.83506 0.67712 0
M  V30 1756 O 163.881 -2.59254 0.806206 0
M  V30 1757 C 162.337 -1.63091 3.20826 0
M  V30 1758 C 161.945 -0.728357 4.4204 0
M  V30 1759 C 163.689 -2.33454 3.54541 0
M  V30 1760 C 161.596 -1.47062 5.72823 0
M  V30 1761 H 160.526 -0.335618 0.675186 0
M  V30 1762 H 163.177 -0.141712 1.82952 0
M  V30 1763 H 161.559 -2.42263 3.13248 0
M  V30 1764 H 162.733 0.0262449 4.60793 0
M  V30 1765 H 161.048 -0.134492 4.16183 0
M  V30 1766 H 163.645 -2.89578 4.49498 0
M  V30 1767 H 163.988 -3.08687 2.79317 0
M  V30 1768 H 164.521 -1.61227 3.63663 0
M  V30 1769 H 161.26 -0.760658 6.51072 0
M  V30 1770 H 160.78 -2.1986 5.58052 0
M  V30 1771 H 162.459 -2.01868 6.14702 0
M  V30 1772 N 162.591 -1.51276 -0.441967 0
M  V30 1773 C 163.84 -1.6295 -1.18871 0
M  V30 1774 C 164.153 -0.349312 -1.92456 0
M  V30 1775 O 165.359 -0.345355 -2.69295 0
M  V30 1776 C 163.815 -2.87759 -2.16155 0
M  V30 1777 C 163.423 -4.22764 -1.48239 0
M  V30 1778 C 165.167 -3.08788 -2.91291 0
M  V30 1779 C 163.074 -5.38728 -2.4398 0
M  V30 1780 H 162.004 -0.606913 -0.447406 0
M  V30 1781 H 164.655 -1.77739 -0.456205 0
M  V30 1782 H 163.037 -2.66593 -2.92821 0
M  V30 1783 H 164.211 -4.54293 -0.771635 0
M  V30 1784 H 162.526 -4.07575 -0.852741 0
M  V30 1785 H 165.123 -3.92599 -3.63002 0
M  V30 1786 H 165.466 -2.21679 -3.5237 0
M  V30 1787 H 165.999 -3.30272 -2.21733 0
M  V30 1788 H 162.738 -6.28082 -1.87598 0
M  V30 1789 H 162.258 -5.1158 -3.13123 0
M  V30 1790 H 163.937 -5.70489 -3.05207 0
M  V30 1791 N 164.069 0.697108 -1.41344 0
M  V30 1792 C 165.032 1.79281 -1.42797 0
M  V30 1793 C 166.032 1.57607 -0.318837 0
M  V30 1794 O 167.222 1.64309 -0.578642 0
M  V30 1795 C 164.354 3.17632 -1.23785 0
M  V30 1796 H 165.547 1.79385 -2.40335 0
M  V30 1797 H 163.1 0.904582 -1.27464 0
M  V30 1798 H 163.835 3.23167 -0.270814 0
M  V30 1799 H 163.62 3.34765 -2.04144 0
M  V30 1800 H 165.11 3.97617 -1.27633 0
M  V30 1801 N 165.547 1.27147 0.931209 0
M  V30 1802 C 166.958 1.12044 1.49342 0
M  V30 1803 C 167.309 -0.295795 1.93957 0
M  V30 1804 O 166.434 -1.18835 1.80852 0
M  V30 1805 C 167.029 2.02781 2.71414 0
M  V30 1806 C 165.588 1.91794 3.2387 0
M  V30 1807 C 164.735 1.95543 1.96617 0
M  V30 1808 H 167.686 1.40091 0.745672 0
M  V30 1809 H 167.707 1.58156 3.46074 0
M  V30 1810 H 167.219 3.05848 2.38911 0
M  V30 1811 H 165.32 0.916992 3.6114 0
M  V30 1812 H 165.433 2.77852 3.90302 0
M  V30 1813 H 163.797 1.39722 2.12955 0
M  V30 1814 H 164.58 3.00259 1.66432 0
M  V30 1815 N 167.025 -1.13721 1.09112 0
M  V30 1816 C 168.271 -1.85413 0.836283 0
M  V30 1817 C 168.626 -1.8175 -0.631249 0
M  V30 1818 O 167.919 -1.24238 -1.45861 0
M  V30 1819 C 168.113 -3.32861 1.30146 0
M  V30 1820 C 167.942 -3.50882 2.81268 0
M  V30 1821 C 166.712 -3.65312 3.49106 0
M  V30 1822 C 168.91 -3.47196 3.7942 0
M  V30 1823 N 166.892 -3.71563 4.88686 0
M  V30 1824 C 168.263 -3.59777 5.04936 0
M  V30 1825 C 170.318 -3.30577 3.72321 0
M  V30 1826 C 169.021 -3.57455 6.24194 0
M  V30 1827 C 171.047 -3.29562 4.91063 0
M  V30 1828 C 170.409 -3.42691 6.15421 0
M  V30 1829 H 166.508 -0.694812 0.358832 0
M  V30 1830 H 169.092 -1.36246 1.39087 0
M  V30 1831 H 167.263 -3.80602 0.774361 0
M  V30 1832 H 168.995 -3.92346 0.99229 0
M  V30 1833 H 165.75 -3.6685 2.9953 0
M  V30 1834 H 166.174 -3.78387 5.61384 0
M  V30 1835 H 170.816 -3.19332 2.77105 0
M  V30 1836 H 168.534 -3.67475 7.19714 0
M  V30 1837 H 172.12 -3.17905 4.87266 0
M  V30 1838 H 171 -3.41862 7.05762 0
M  V30 1839 N 168.503 -0.877838 -1.30888 0
M  V30 1840 C 169.451 -0.328662 -2.30266 0
M  V30 1841 C 170.445 0.560496 -1.59859 0
M  V30 1842 O 171.651 0.445722 -1.74394 0
M  V30 1843 H 168.026 -0.0876142 -0.746879 0
M  V30 1844 H 169.997 -1.18061 -2.74051 0
M  V30 1845 C 168.746 0.448071 -3.44801 0
M  V30 1846 H 168.069 -0.226859 -3.99156 0
M  V30 1847 H 169.509 0.797541 -4.16432 0
M  V30 1848 C 167.968 1.64239 -2.94155 0
M  V30 1849 O 168.498 2.74175 -2.93583 0
M  V30 1850 N 166.704 1.47716 -2.50256 0
M  V30 1851 H 166.251 0.582821 -2.5092 0
M  V30 1852 H 166.209 2.27765 -2.16727 0
M  V30 1853 N 169.982 1.44106 -0.638065 0
M  V30 1854 C 171.212 2.06037 -0.152394 0
M  V30 1855 C 171.62 1.47808 1.18108 0
M  V30 1856 O 170.963 0.598092 1.73691 0
M  V30 1857 C 171.025 3.59488 0.0293714 0
M  V30 1858 C 170.689 4.4022 -1.22702 0
M  V30 1859 C 171.686 4.73256 -2.15232 0
M  V30 1860 C 169.371 4.8048 -1.46437 0
M  V30 1861 C 171.365 5.45444 -3.29802 0
M  V30 1862 C 169.052 5.52417 -2.61303 0
M  V30 1863 C 170.05 5.84819 -3.52811 0
M  V30 1864 O 169.738 6.55289 -4.65673 0
M  V30 1865 H 169.47 0.671233 -0.0801401 0
M  V30 1866 H 172.024 1.85851 -0.874563 0
M  V30 1867 H 170.254 3.78191 0.806758 0
M  V30 1868 H 171.943 4.03164 0.470475 0
M  V30 1869 H 172.709 4.42684 -1.98131 0
M  V30 1870 H 168.588 4.54676 -0.760977 0
M  V30 1871 H 172.132 5.70653 -4.01249 0
M  V30 1872 H 168.029 5.82404 -2.78344 0
M  V30 1873 H 168.797 6.73762 -4.64744 0
M  V30 1874 N 171.46 0.379036 1.52974 0
M  V30 1875 C 172.871 -0.0972525 1.86447 0
M  V30 1876 C 173.222 -1.47027 1.29914 0
M  V30 1877 O 172.347 -2.07135 0.626433 0
M  V30 1878 C 172.942 -0.183248 3.38304 0
M  V30 1879 C 171.501 -0.603812 3.71525 0
M  V30 1880 C 170.648 0.240632 2.76254 0
M  V30 1881 H 173.599 0.597316 1.4703 0
M  V30 1882 H 173.62 -1.00432 3.67006 0
M  V30 1883 H 173.132 0.816191 3.79421 0
M  V30 1884 H 171.233 -1.61099 3.35973 0
M  V30 1885 H 171.346 -0.369086 4.77676 0
M  V30 1886 H 169.71 -0.292548 2.53014 0
M  V30 1887 H 170.493 1.23786 3.20206 0
M  V30 1888 N 172.938 -1.57226 0.108567 0
M  V30 1889 C 173.868 -2.17778 -0.84232 0
M  V30 1890 C 174.849 -1.11487 -1.2847 0
M  V30 1891 O 176.034 -1.39681 -1.34918 0
M  V30 1892 C 173.164 -2.76888 -2.09644 0
M  V30 1893 C 172.118 -3.88669 -1.79221 0
M  V30 1894 C 171.444 -4.34541 -3.11574 0
M  V30 1895 C 172.744 -5.11251 -1.06864 0
M  V30 1896 H 174.438 -2.97489 -0.337774 0
M  V30 1897 H 171.984 -1.43097 -0.161025 0
M  V30 1898 H 173.937 -3.17904 -2.76614 0
M  V30 1899 H 172.661 -1.94451 -2.62405 0
M  V30 1900 H 171.32 -3.48213 -1.14644 0
M  V30 1901 H 170.968 -3.48977 -3.62249 0
M  V30 1902 H 170.668 -5.09914 -2.91996 0
M  V30 1903 H 172.192 -4.782 -3.7968 0
M  V30 1904 H 173.606 -5.49352 -1.63968 0
M  V30 1905 H 172.003 -5.9214 -0.974178 0
M  V30 1906 H 173.073 -4.8487 -0.0536168 0
M  V30 1907 N 174.416 0.165178 -1.56732 0
M  V30 1908 C 175.364 1.22369 -1.97809 0
M  V30 1909 C 176.358 1.45488 -0.867741 0
M  V30 1910 O 177.564 1.45995 -1.05288 0
M  V30 1911 H 173.939 0.411486 -0.629431 0
M  V30 1912 H 175.91 0.850425 -2.86025 0
M  V30 1913 C 174.659 2.55403 -2.35934 0
M  V30 1914 H 173.982 2.38438 -3.20916 0
M  V30 1915 H 175.422 3.2814 -2.68514 0
M  V30 1916 C 173.881 3.14611 -1.20506 0
M  V30 1917 O 174.411 3.98626 -0.496016 0
M  V30 1918 N 172.617 2.7379 -0.97403 0
M  V30 1919 H 172.164 2.0557 -1.55238 0
M  V30 1920 H 172.122 3.1374 -0.203573 0
M  V30 1921 N 175.894 1.51508 0.433938 0
M  V30 1922 C 176.824 1.76016 1.53429 0
M  V30 1923 C 177.805 0.610112 1.58782 0
M  V30 1924 O 178.99 0.853177 1.74455 0
M  V30 1925 C 176.12 1.88831 2.9148 0
M  V30 1926 C 175.074 3.04288 3.00987 0
M  V30 1927 C 174.4 3.0229 4.4105 0
M  V30 1928 C 175.7 4.44193 2.74754 0
M  V30 1929 H 177.394 2.68152 1.33171 0
M  V30 1930 H 174.94 1.29035 0.639214 0
M  V30 1931 H 176.893 2.04559 3.6842 0
M  V30 1932 H 175.617 0.933455 3.12976 0
M  V30 1933 H 174.276 2.8827 2.26486 0
M  V30 1934 H 173.924 2.04576 4.59519 0
M  V30 1935 H 173.624 3.79822 4.4834 0
M  V30 1936 H 175.148 3.20116 5.1996 0
M  V30 1937 H 176.562 4.60544 3.41426 0
M  V30 1938 H 174.959 5.23457 2.9345 0
M  V30 1939 H 176.029 4.53996 1.70339 0
M  V30 1940 N 177.372 -0.689602 1.41712 0
M  V30 1941 C 178.6 -1.47827 1.44758 0
M  V30 1942 C 179.015 -1.88721 0.0545703 0
M  V30 1943 O 178.372 -1.57176 -0.927463 0
M  V30 1944 C 178.423 -2.73698 2.3616 0
M  V30 1945 O 178.144 -2.34524 3.7004 0
M  V30 1946 C 179.645 -3.67389 2.48072 0
M  V30 1947 H 176.865 -0.455357 0.49284 0
M  V30 1948 H 179.409 -0.848574 1.86063 0
M  V30 1949 H 177.564 -3.32891 1.98148 0
M  V30 1950 H 177.978 -3.15701 4.18847 0
M  V30 1951 H 179.452 -4.52475 3.16181 0
M  V30 1952 H 179.929 -4.12284 1.51388 0
M  V30 1953 H 180.535 -3.14097 2.86746 0
M  V30 1954 N 178.85 -1.27639 -0.924453 0
M  V30 1955 C 179.78 -1.13166 -2.04244 0
M  V30 1956 C 180.761 -0.032256 -1.70069 0
M  V30 1957 O 181.946 -0.207328 -1.9309 0
M  V30 1958 C 179.076 -0.781496 -3.38393 0
M  V30 1959 C 178.03 -1.83449 -3.86692 0
M  V30 1960 C 177.356 -1.33822 -5.17683 0
M  V30 1961 C 178.656 -3.23917 -4.09726 0
M  V30 1962 H 180.35 -2.06689 -2.1661 0
M  V30 1963 H 177.896 -0.995136 -1.04082 0
M  V30 1964 H 179.849 -0.667057 -4.16087 0
M  V30 1965 H 178.573 0.189439 -3.2605 0
M  V30 1966 H 177.232 -1.93789 -3.11193 0
M  V30 1967 H 176.88 -0.35665 -5.01734 0
M  V30 1968 H 176.58 -2.04224 -5.50968 0
M  V30 1969 H 178.104 -1.23679 -5.97943 0
M  V30 1970 H 179.518 -3.16559 -4.77978 0
M  V30 1971 H 177.915 -3.92059 -4.54324 0
M  V30 1972 H 178.985 -3.68729 -3.14908 0
M  V30 1973 N 180.328 1.1314 -1.09713 0
M  V30 1974 C 181.574 1.84757 -0.836224 0
M  V30 1975 C 181.907 1.8347 0.636598 0
M  V30 1976 O 181.182 1.27491 1.46889 0
M  V30 1977 C 181.465 3.32782 -1.37578 0
M  V30 1978 C 181.318 3.42567 -2.91493 0
M  V30 1979 C 182.637 4.28307 -1.01198 0
M  V30 1980 H 179.756 0.67082 -0.305236 0
M  V30 1981 H 182.398 1.3278 -1.35903 0
M  V30 1982 H 180.548 3.77177 -0.931097 0
M  V30 1983 H 182.22 3.06862 -3.44432 0
M  V30 1984 H 180.463 2.83349 -3.28475 0
M  V30 1985 H 181.134 4.46674 -3.24324 0
M  V30 1986 H 183.61 3.91999 -1.39556 0
M  V30 1987 H 182.486 5.30307 -1.41653 0
M  V30 1988 H 182.747 4.42029 0.0794833 0
M  V30 1989 N 181.806 0.884767 1.30421 0
M  V30 1990 C 183.217 0.553656 1.78302 0
M  V30 1991 C 183.568 -0.930153 1.7275 0
M  V30 1992 O 182.693 -1.72681 1.30423 0
M  V30 1993 C 183.288 0.998234 3.2376 0
M  V30 1994 C 181.847 0.71854 3.69478 0
M  V30 1995 C 180.994 1.18132 2.50879 0
M  V30 1996 H 183.945 1.06901 1.17294 0
M  V30 1997 H 183.966 0.327118 3.79091 0
M  V30 1998 H 183.478 2.0782 3.27769 0
M  V30 1999 H 181.579 -0.349444 3.70958 0
M  V30 2000 H 181.692 1.30595 4.60958 0
M  V30 2001 H 180.056 0.600669 2.47516 0
M  V30 2002 H 180.839 2.26902 2.57624 0
M  V30 2003 N 183.284 -1.43765 0.645699 0
M  V30 2004 C 184.214 -2.33471 -0.0370477 0
M  V30 2005 C 185.195 -1.49042 -0.819779 0
M  V30 2006 O 186.38 -1.77726 -0.782758 0
M  V30 2007 C 183.51 -3.32311 -1.0093 0
M  V30 2008 C 182.464 -4.2667 -0.337201 0
M  V30 2009 C 181.79 -5.1549 -1.42037 0
M  V30 2010 C 183.09 -5.16657 0.765706 0
M  V30 2011 H 184.784 -2.90809 0.712069 0
M  V30 2012 H 182.33 -1.39834 0.343876 0
M  V30 2013 H 184.283 -3.9396 -1.49578 0
M  V30 2014 H 183.007 -2.73213 -1.78948 0
M  V30 2015 H 181.666 -3.66374 0.128771 0
M  V30 2016 H 181.314 -4.52735 -2.1918 0
M  V30 2017 H 181.014 -5.79438 -0.975966 0
M  V30 2018 H 182.538 -5.80012 -1.90838 0
M  V30 2019 H 183.952 -5.72158 0.361702 0
M  V30 2020 H 182.349 -5.89286 1.13413 0
M  V30 2021 H 183.419 -4.56796 1.62683 0
M  V30 2022 N 184.763 -0.387143 -1.52771 0
M  V30 2023 C 186.009 0.196025 -2.0185 0
M  V30 2024 C 186.342 1.46641 -1.27319 0
M  V30 2025 O 185.617 1.90889 -0.373032 0
M  V30 2026 C 185.9 0.466136 -3.5707 0
M  V30 2027 C 185.753 -0.819385 -4.42274 0
M  V30 2028 C 187.072 1.25768 -4.21747 0
M  V30 2029 H 184.191 0.0697708 -0.73369 0
M  V30 2030 H 186.833 -0.516286 -1.82851 0
M  V30 2031 H 184.983 1.07293 -3.7339 0
M  V30 2032 H 186.655 -1.4563 -4.37709 0
M  V30 2033 H 184.898 -1.43517 -4.09372 0
M  V30 2034 H 185.569 -0.585065 -5.48891 0
M  V30 2035 H 188.045 0.744167 -4.09391 0
M  V30 2036 H 186.921 1.41541 -5.30337 0
M  V30 2037 H 187.182 2.27228 -3.79236 0
M  V30 2038 N 186.241 1.57166 -0.116904 0
M  V30 2039 C 187.489 1.94737 0.540533 0
M  V30 2040 C 187.81 1.00096 1.67349 0
M  V30 2041 O 187.08 0.0568854 1.95817 0
M  V30 2042 H 185.66 0.718981 0.202669 0
M  V30 2043 H 188.322 1.94017 -0.185353 0
M  V30 2044 H 187.418 2.97719 0.936483 0
M  V30 2045 N 187.719 -0.156864 1.56817 0
M  V30 2046 C 188.682 -1.17781 1.96622 0
M  V30 2047 C 189.682 -1.36401 0.851555 0
M  V30 2048 O 190.872 -1.33561 1.11836 0
M  V30 2049 C 188.004 -2.54008 2.27361 0
M  V30 2050 H 189.197 -0.836564 2.87996 0
M  V30 2051 H 186.75 -0.39985 1.51099 0
M  V30 2052 H 187.485 -2.9312 1.38748 0
M  V30 2053 H 187.27 -2.41856 3.08623 0
M  V30 2054 H 188.76 -3.27558 2.59029 0
M  V30 2055 N 189.197 -1.51736 -0.425897 0
M  V30 2056 C 190.127 -1.76827 -1.52494 0
M  V30 2057 C 191.108 -0.618524 -1.58456 0
M  V30 2058 O 192.293 -0.862416 -1.74 0
M  V30 2059 C 189.423 -1.90374 -2.90474 0
M  V30 2060 C 188.377 -3.0588 -2.99369 0
M  V30 2061 C 187.703 -3.04625 -4.3944 0
M  V30 2062 C 189.003 -4.45644 -2.72394 0
M  V30 2063 H 190.697 -2.68855 -1.31748 0
M  V30 2064 H 188.243 -1.29372 -0.632362 0
M  V30 2065 H 190.196 -2.0651 -3.6733 0
M  V30 2066 H 188.92 -0.95004 -3.12477 0
M  V30 2067 H 187.579 -2.89467 -2.24954 0
M  V30 2068 H 187.227 -2.0701 -4.58428 0
M  V30 2069 H 186.927 -3.82195 -4.46319 0
M  V30 2070 H 188.451 -3.22869 -5.18255 0
M  V30 2071 H 189.865 -4.62348 -3.38979 0
M  V30 2072 H 188.262 -5.25006 -2.9067 0
M  V30 2073 H 189.332 -4.54893 -1.67929 0
M  V30 2074 N 190.675 0.682077 -1.42076 0
M  V30 2075 C 191.638 1.77756 -1.44691 0
M  V30 2076 C 192.638 1.5726 -0.335535 0
M  V30 2077 O 193.828 1.63686 -0.596037 0
M  V30 2078 C 190.96 3.16301 -1.27146 0
M  V30 2079 H 192.153 1.76826 -2.42224 0
M  V30 2080 H 189.706 0.891012 -1.28416 0
M  V30 2081 H 190.441 3.22862 -0.305075 0
M  V30 2082 H 190.226 3.32581 -2.07683 0
M  V30 2083 H 191.716 3.96241 -1.31843 0
M  V30 2084 N 192.153 1.28127 0.917671 0
M  V30 2085 C 193.116 1.11744 2.00115 0
M  V30 2086 C 194.116 0.0583052 1.60694 0
M  V30 2087 O 195.306 0.303755 1.71531 0
M  V30 2088 C 192.438 0.704862 3.33533 0
M  V30 2089 H 193.631 2.07966 2.16079 0
M  V30 2090 H 191.184 1.11058 1.09981 0
M  V30 2091 H 191.919 -0.258299 3.2327 0
M  V30 2092 H 191.704 1.4699 3.63505 0
M  V30 2093 H 193.194 0.612768 4.1308 0
M  V30 2094 N 193.631 -1.12557 1.10312 0
M  V30 2095 C 194.879 -1.83675 0.843091 0
M  V30 2096 C 195.2 -1.84435 -0.633131 0
M  V30 2097 O 194.47 -1.30657 -1.45964 0
M  V30 2098 H 193.05 -0.680138 0.308904 0
M  V30 2099 H 195.712 -1.36301 1.39313 0
M  V30 2100 H 194.808 -2.87908 1.2048 0
M  V30 2101 N 195.109 -0.891671 -1.2995 0
M  V30 2102 C 196.057 -0.353066 -2.29905 0
M  V30 2103 C 197.051 0.543509 -1.60444 0
M  V30 2104 O 198.257 0.4272 -1.74857 0
M  V30 2105 H 194.632 -0.095531 -0.745907 0
M  V30 2106 H 196.603 -1.20961 -2.72784 0
M  V30 2107 C 195.352 0.411475 -3.45257 0
M  V30 2108 H 194.675 -0.269182 -3.98893 0
M  V30 2109 H 196.115 0.753328 -4.17254 0
M  V30 2110 C 194.574 1.6111 -2.9588 0
M  V30 2111 O 195.104 2.71045 -2.96475 0
M  V30 2112 N 193.31 1.45054 -2.51809 0
M  V30 2113 H 192.857 0.556175 -2.51524 0
M  V30 2114 H 192.815 2.25453 -2.1913 0
M  V30 2115 N 196.587 1.43421 -0.653314 0
M  V30 2116 C 197.827 2.03689 -0.170346 0
M  V30 2117 C 198.191 1.50427 1.19314 0
M  V30 2118 O 199.392 2.0234 1.76952 0
M  V30 2119 C 197.663 3.56946 -0.180183 0
M  V30 2120 S 199.222 4.38171 0.234925 0
M  V30 2121 H 196.04 0.707345 -0.0719976 0
M  V30 2122 H 198.642 1.75486 -0.86167 0
M  V30 2123 H 197.346 3.93212 -1.17526 0
M  V30 2124 H 196.877 3.89791 0.531675 0
M  V30 2125 H 198.892 4.73808 1.47378 0
M  V30 2126 N 198.065 0.39524 1.52563 0
M  V30 2127 C 199.311 -0.185318 2.01952 0
M  V30 2128 C 199.644 -1.45964 1.28095 0
M  V30 2129 O 198.919 -1.90689 0.38315 0
M  V30 2130 C 199.202 -0.447193 3.57312 0
M  V30 2131 C 199.055 0.842828 4.41833 0
M  V30 2132 C 200.374 -1.23529 4.22408 0
M  V30 2133 H 197.493 -0.0658788 0.73405 0
M  V30 2134 H 200.135 0.525975 1.82575 0
M  V30 2135 H 198.285 -1.05312 3.73954 0
M  V30 2136 H 199.957 1.4795 4.36931 0
M  V30 2137 H 198.2 1.45686 4.08605 0
M  V30 2138 H 198.871 0.614165 5.48573 0
M  V30 2139 H 201.347 -0.722445 4.0978 0
M  V30 2140 H 200.223 -1.38727 5.3108 0
M  V30 2141 H 200.484 -2.25213 3.80436 0
M  V30 2142 N 199.544 -1.57102 0.125237 0
M  V30 2143 C 200.79 -1.95697 -0.532035 0
M  V30 2144 C 201.123 -1.009 -1.6593 0
M  V30 2145 O 200.398 -0.047347 -1.94442 0
M  V30 2146 C 200.681 -3.44181 -1.05884 0
M  V30 2147 C 200.534 -4.49752 0.0654392 0
M  V30 2148 C 201.853 -3.94655 -1.9477 0
M  V30 2149 H 198.972 -0.711571 -0.191925 0
M  V30 2150 H 201.614 -1.88923 0.20206 0
M  V30 2151 H 199.764 -3.50085 -1.68442 0
M  V30 2152 H 201.436 -4.55943 0.700982 0
M  V30 2153 H 199.679 -4.27653 0.727709 0
M  V30 2154 H 200.35 -5.50924 -0.344505 0
M  V30 2155 H 202.826 -3.91094 -1.42074 0
M  V30 2156 H 201.702 -4.99057 -2.28546 0
M  V30 2157 H 201.963 -3.35718 -2.87656 0
M  V30 2158 N 201.022 0.148545 -1.56898 0
M  V30 2159 C 201.952 1.18524 -2.01182 0
M  V30 2160 C 202.933 1.4489 -0.891123 0
M  V30 2161 O 204.118 1.55836 -1.15882 0
M  V30 2162 C 201.248 2.51879 -2.39112 0
M  V30 2163 C 200.202 2.40038 -3.54353 0
M  V30 2164 C 199.528 3.78089 -3.78091 0
M  V30 2165 C 200.828 1.88577 -4.87069 0
M  V30 2166 H 202.522 0.817029 -2.88036 0
M  V30 2167 H 200.068 0.391575 -1.38574 0
M  V30 2168 H 202.021 3.24627 -2.68692 0
M  V30 2169 H 200.745 2.90532 -1.49193 0
M  V30 2170 H 199.404 1.69742 -3.24936 0
M  V30 2171 H 199.052 4.14175 -2.85426 0
M  V30 2172 H 198.752 3.71028 -4.55645 0
M  V30 2173 H 200.276 4.52387 -4.10095 0
M  V30 2174 H 201.69 2.51117 -5.15377 0
M  V30 2175 H 200.087 1.9241 -5.68417 0
M  V30 2176 H 201.157 0.84136 -4.77545 0
M  V30 2177 N 202.5 1.5196 0.417844 0
M  V30 2178 C 203.447 1.74678 1.50852 0
M  V30 2179 C 204.417 0.588947 1.55308 0
M  V30 2180 O 205.602 0.825544 1.72016 0
M  V30 2181 C 202.742 1.89544 2.88387 0
M  V30 2182 C 201.855 3.17166 2.93309 0
M  V30 2183 C 200.99 3.22513 4.22088 0
M  V30 2184 C 200.029 4.44372 4.20951 0
M  V30 2185 N 199.166 4.47161 5.41287 0
M  V30 2186 H 204.006 2.67768 1.30783 0
M  V30 2187 H 201.543 1.32689 0.63498 0
M  V30 2188 H 203.501 1.96146 3.68216 0
M  V30 2189 H 202.131 0.998424 3.06971 0
M  V30 2190 H 201.183 3.19778 2.06024 0
M  V30 2191 H 202.495 4.07021 2.88332 0
M  V30 2192 H 201.649 3.28139 5.10303 0
M  V30 2193 H 200.388 2.30581 4.29748 0
M  V30 2194 H 199.393 4.38902 3.31127 0
M  V30 2195 H 200.618 5.3759 4.14938 0
M  V30 2196 H 198.564 3.58108 5.49632 0
M  V30 2197 H 198.481 5.3085 5.3827 0
M  V30 2198 H 199.749 4.57005 6.3148 0
M  V30 2199 N 203.978 -0.674533 1.42435 0
M  V30 2200 C 205.389 -1.25514 1.38214 0
M  V30 2201 C 205.74 -1.96055 0.0755464 0
M  V30 2202 O 204.865 -2.00028 -0.8257 0
M  V30 2203 C 205.46 -2.28269 2.50357 0
M  V30 2204 C 204.019 -2.81856 2.49467 0
M  V30 2205 C 203.166 -1.56182 2.29134 0
M  V30 2206 H 206.117 -0.467902 1.51646 0
M  V30 2207 H 206.138 -3.10009 2.20624 0
M  V30 2208 H 205.65 -1.769 3.45439 0
M  V30 2209 H 203.751 -3.37346 1.58204 0
M  V30 2210 H 203.864 -3.30854 3.46515 0
M  V30 2211 H 202.228 -1.82761 1.774 0
M  V30 2212 H 203.011 -1.06778 3.26272 0
M  V30 2213 N 205.456 -1.28612 -0.910864 0
M  V30 2214 C 206.681 -1.1891 -1.69927 0
M  V30 2215 C 207.106 0.248372 -1.86453 0
M  V30 2216 O 206.464 1.17961 -1.37676 0
M  V30 2217 C 206.512 -1.89578 -3.06745 0
M  V30 2218 O 205.616 -1.20521 -3.94396 0
M  V30 2219 H 204.957 -0.412632 -0.520222 0
M  V30 2220 H 207.487 -1.69985 -1.1387 0
M  V30 2221 H 207.497 -1.97597 -3.56958 0
M  V30 2222 H 206.172 -2.94136 -2.94035 0
M  V30 2223 H 204.749 -1.20684 -3.52831 0
M  V30 2224 N 206.934 1.1197 -1.10907 0
M  V30 2225 C 207.844 2.21433 -0.774896 0
M  V30 2226 C 208.86 1.72478 0.229657 0
M  V30 2227 O 210.036 2.01288 0.0672008 0
M  V30 2228 C 207.101 3.4602 -0.216986 0
M  V30 2229 C 206.162 4.09791 -1.27944 0
M  V30 2230 C 205.395 5.28431 -0.748055 0
M  V30 2231 O 205.618 5.68823 0.423833 0
M  V30 2232 O 204.552 5.82644 -1.51027 0
M  V30 2233 H 208.378 2.5242 -1.68873 0
M  V30 2234 H 205.963 1.20399 -0.884555 0
M  V30 2235 H 207.845 4.21304 0.090059 0
M  V30 2236 H 206.52 3.16698 0.669633 0
M  V30 2237 H 205.427 3.36265 -1.63941 0
M  V30 2238 H 206.76 4.4328 -2.13925 0
M  V30 2239 N 208.412 0.89855 1.29475 0
M  V30 2240 C 209.661 0.519863 1.94885 0
M  V30 2241 C 209.974 -0.9383 1.71625 0
M  V30 2242 O 211.18 -1.42445 2.31131 0
M  V30 2243 C 209.636 0.878836 3.49005 0
M  V30 2244 C 209.244 2.35569 3.81066 0
M  V30 2245 C 210.988 0.570004 4.20656 0
M  V30 2246 C 208.895 2.65558 5.28425 0
M  V30 2247 H 207.825 0.190692 0.729488 0
M  V30 2248 H 210.476 1.09539 1.47219 0
M  V30 2249 H 208.858 0.232253 3.95318 0
M  V30 2250 H 210.032 3.04773 3.45616 0
M  V30 2251 H 208.347 2.63343 3.22552 0
M  V30 2252 H 210.944 0.770925 5.29113 0
M  V30 2253 H 211.287 -0.491404 4.1339 0
M  V30 2254 H 211.82 1.17438 3.8007 0
M  V30 2255 H 208.559 3.70493 5.40754 0
M  V30 2256 H 208.079 2.00977 5.65127 0
M  V30 2257 H 209.758 2.51765 5.96006 0
M  V30 2258 N 209.89 -1.43072 0.660911 0
M  V30 2259 C 211.115 -2.06584 0.183805 0
M  V30 2260 C 211.54 -1.49257 -1.14472 0
M  V30 2261 O 210.898 -0.605528 -1.70889 0
M  V30 2262 C 210.946 -3.60418 0.114434 0
M  V30 2263 O 210.05 -4.01981 -0.921137 0
M  V30 2264 H 209.391 -0.656669 0.0983994 0
M  V30 2265 H 211.921 -1.83447 0.906006 0
M  V30 2266 H 211.931 -4.07946 -0.0663394 0
M  V30 2267 H 210.606 -4.01519 1.08422 0
M  V30 2268 H 209.183 -3.66029 -0.71253 0
M  V30 2269 N 211.368 -0.403325 -1.52352 0
M  V30 2270 C 212.315 0.425011 -2.26853 0
M  V30 2271 C 213.285 1.04598 -1.29029 0
M  V30 2272 O 214.47 1.07135 -1.57882 0
M  V30 2273 C 211.61 1.53888 -3.08889 0
M  V30 2274 C 210.723 0.939396 -4.21663 0
M  V30 2275 C 209.858 2.02547 -4.91068 0
M  V30 2276 C 208.897 1.40263 -5.95813 0
M  V30 2277 N 208.034 2.4286 -6.58759 0
M  V30 2278 H 212.874 -0.21674 -2.97211 0
M  V30 2279 H 210.411 -0.118722 -1.4662 0
M  V30 2280 H 212.369 2.19558 -3.54753 0
M  V30 2281 H 210.999 2.15074 -2.40714 0
M  V30 2282 H 210.051 0.171898 -3.80011 0
M  V30 2283 H 211.363 0.44436 -4.96817 0
M  V30 2284 H 210.517 2.75958 -5.40308 0
M  V30 2285 H 209.256 2.55415 -4.15469 0
M  V30 2286 H 208.261 0.653833 -5.45898 0
M  V30 2287 H 209.486 0.881719 -6.73352 0
M  V30 2288 H 207.432 2.94871 -5.85992 0
M  V30 2289 H 207.349 1.98152 -7.2957 0
M  V30 2290 H 208.617 3.15858 -7.12639 0
M  V30 2291 N 212.846 1.57033 -0.133567 0
M  V30 2292 C 213.794 2.17348 0.828412 0
M  V30 2293 C 214.788 1.12671 1.26498 0
M  V30 2294 O 215.994 1.30947 1.23502 0
M  V30 2295 H 212.369 0.695775 0.285309 0
M  V30 2296 H 214.34 2.96935 0.295372 0
M  V30 2297 C 213.089 2.79893 2.06289 0
M  V30 2298 H 212.412 3.60147 1.73592 0
M  V30 2299 H 213.852 3.25615 2.71572 0
M  V30 2300 C 212.311 1.77713 2.86216 0
M  V30 2301 O 212.841 1.23937 3.82103 0
M  V30 2302 N 211.047 1.47321 2.50489 0
M  V30 2303 H 210.594 1.91243 1.7258 0
M  V30 2304 H 210.552 0.79199 3.04261 0
M  V30 2305 N 214.325 -0.140222 1.56975 0
M  V30 2306 C 215.571 -0.852949 1.83991 0
M  V30 2307 C 215.904 -1.80512 0.716187 0
M  V30 2308 O 215.179 -1.92479 -0.279681 0
M  V30 2309 C 215.462 -1.6215 3.21527 0
M  V30 2310 C 215.315 -0.690363 4.4447 0
M  V30 2311 C 216.634 -2.58247 3.56366 0
M  V30 2312 H 213.753 -0.308634 0.669264 0
M  V30 2313 H 216.395 -0.117898 1.89634 0
M  V30 2314 H 214.545 -2.24812 3.16847 0
M  V30 2315 H 216.217 -0.0742264 4.6124 0
M  V30 2316 H 214.46 -0.000396433 4.338 0
M  V30 2317 H 215.131 -1.2643 5.37326 0
M  V30 2318 H 217.607 -2.05701 3.61699 0
M  V30 2319 H 216.483 -3.09067 4.53617 0
M  V30 2320 H 216.744 -3.39923 2.82674 0
M  V30 2321 N 215.803 -1.52179 -0.40978 0
M  V30 2322 C 216.713 -1.78364 -1.52392 0
M  V30 2323 C 217.729 -0.669183 -1.60617 0
M  V30 2324 O 218.905 -0.954518 -1.77344 0
M  V30 2325 C 215.97 -1.92822 -2.88133 0
M  V30 2326 C 215.031 -3.16725 -2.898 0
M  V30 2327 C 214.264 -3.30483 -4.19067 0
M  V30 2328 O 214.487 -2.49522 -5.12928 0
M  V30 2329 O 213.421 -4.2363 -4.27576 0
M  V30 2330 H 217.247 -2.72931 -1.33201 0
M  V30 2331 H 214.832 -1.37016 -0.59557 0
M  V30 2332 H 216.714 -2.04157 -3.68643 0
M  V30 2333 H 215.389 -1.01444 -3.07393 0
M  V30 2334 H 214.296 -3.10848 -2.08146 0
M  V30 2335 H 215.629 -4.07881 -2.75489 0
M  V30 2336 N 217.281 0.66697 -1.42791 0
M  V30 2337 C 218.228 1.7803 -1.4688 0
M  V30 2338 C 219.198 1.6299 -0.319919 0
M  V30 2339 O 220.383 1.83432 -0.525118 0
M  V30 2340 C 217.523 3.1611 -1.38451 0
M  V30 2341 C 216.636 3.42381 -2.63437 0
M  V30 2342 C 215.771 4.70232 -2.47094 0
M  V30 2343 C 214.81 4.89564 -3.67415 0
M  V30 2344 N 213.947 6.08661 -3.49966 0
M  V30 2345 H 218.787 1.7387 -2.42019 0
M  V30 2346 H 216.324 0.84868 -1.20149 0
M  V30 2347 H 218.282 3.95914 -1.31561 0
M  V30 2348 H 216.912 3.19374 -0.469033 0
M  V30 2349 H 215.964 2.56774 -2.80662 0
M  V30 2350 H 217.276 3.52557 -3.52853 0
M  V30 2351 H 216.43 5.5814 -2.37834 0
M  V30 2352 H 215.169 4.62353 -1.5518 0
M  V30 2353 H 214.174 4.00096 -3.77099 0
M  V30 2354 H 215.399 4.99282 -4.6032 0
M  V30 2355 H 213.345 6.0194 -2.60776 0
M  V30 2356 H 213.262 6.19733 -4.32975 0
M  V30 2357 H 214.53 6.99226 -3.44532 0
M  V30 2358 N 218.759 1.29093 0.90403 0
M  V30 2359 C 220.008 1.16187 1.64874 0
M  V30 2360 C 220.321 -0.286742 1.93487 0
M  V30 2361 O 221.527 -0.537062 2.66135 0
M  V30 2362 C 219.983 2.03177 2.97064 0
M  V30 2363 C 219.591 3.52836 2.76062 0
M  V30 2364 C 221.335 1.98984 3.74974 0
M  V30 2365 C 219.242 4.31945 4.03952 0
M  V30 2366 H 218.172 0.431246 0.618501 0
M  V30 2367 H 220.823 1.53699 1.00243 0
M  V30 2368 H 219.205 1.5853 3.62883 0
M  V30 2369 H 220.379 4.05507 2.18863 0
M  V30 2370 H 218.694 3.58656 2.11553 0
M  V30 2371 H 221.291 2.55351 4.69787 0
M  V30 2372 H 221.634 0.968815 4.0487 0
M  V30 2373 H 222.167 2.41652 3.15989 0
M  V30 2374 H 218.906 5.34667 3.79225 0
M  V30 2375 H 218.426 3.84045 4.60727 0
M  V30 2376 H 220.105 4.42379 4.72133 0
M  V30 2377 N 220.237 -1.11381 1.11499 0
M  V30 2378 C 221.167 -2.19509 0.796125 0
M  V30 2379 C 222.148 -1.68458 -0.235796 0
M  V30 2380 O 223.333 -1.93947 -0.0991344 0
M  V30 2381 C 220.463 -3.46475 0.239205 0
M  V30 2382 C 219.417 -4.10744 1.20307 0
M  V30 2383 C 218.743 -5.32293 0.50683 0
M  V30 2384 C 220.043 -4.55597 2.55399 0
M  V30 2385 H 221.737 -2.46439 1.70024 0
M  V30 2386 H 219.283 -1.18446 0.818935 0
M  V30 2387 H 221.236 -4.214 0.00392006 0
M  V30 2388 H 219.96 -3.19006 -0.700206 0
M  V30 2389 H 218.619 -3.37813 1.42399 0
M  V30 2390 H 218.267 -5.01095 -0.437408 0
M  V30 2391 H 217.967 -5.76243 1.1497 0
M  V30 2392 H 219.491 -6.09956 0.280351 0
M  V30 2393 H 220.905 -5.21841 2.37391 0
M  V30 2394 H 219.302 -5.10363 3.15673 0
M  V30 2395 H 220.372 -3.69013 3.14575 0
M  V30 2396 N 221.715 -0.905404 -1.28997 0
M  V30 2397 C 222.678 -0.392253 -2.25819 0
M  V30 2398 C 223.678 0.476753 -1.5357 0
M  V30 2399 O 224.868 0.280994 -1.71919 0
M  V30 2400 C 222 0.438588 -3.38067 0
M  V30 2401 H 223.193 -1.24743 -2.72725 0
M  V30 2402 H 220.746 -0.684051 -1.40536 0
M  V30 2403 H 221.481 1.31352 -2.96508 0
M  V30 2404 H 221.266 -0.184167 -3.91667 0
M  V30 2405 H 222.756 0.78873 -4.10084 0
M  V30 2406 N 223.193 1.4272 -0.668489 0
M  V30 2407 C 224.103 2.34596 0.0139753 0
M  V30 2408 C 225.119 1.5474 0.795703 0
M  V30 2409 O 226.295 1.87334 0.739466 0
M  V30 2410 C 223.36 3.33202 0.957982 0
M  V30 2411 C 222.421 4.28957 0.17149 0
M  V30 2412 C 221.654 5.22853 1.07053 0
M  V30 2413 O 221.877 5.21531 2.31001 0
M  V30 2414 O 220.811 5.9952 0.534727 0
M  V30 2415 H 224.637 2.9448 -0.742661 0
M  V30 2416 H 222.222 1.43117 -0.428705 0
M  V30 2417 H 224.104 3.93796 1.50008 0
M  V30 2418 H 222.779 2.758 1.69458 0
M  V30 2419 H 221.686 3.71796 -0.414558 0
M  V30 2420 H 223.019 4.89383 -0.52586 0
M  V30 2421 N 224.671 0.411399 1.52136 0
M  V30 2422 C 225.917 -0.163888 2.02137 0
M  V30 2423 C 226.25 -1.44597 1.29636 0
M  V30 2424 O 225.525 -1.90272 0.403353 0
M  V30 2425 C 225.808 -0.40927 3.57767 0
M  V30 2426 C 225.661 0.889643 4.40914 0
M  V30 2427 C 226.98 -1.19042 4.23694 0
M  V30 2428 H 224.099 -0.0580896 0.734707 0
M  V30 2429 H 226.741 0.54531 1.82007 0
M  V30 2430 H 224.891 -1.0134 3.7505 0
M  V30 2431 H 226.563 1.52575 4.35337 0
M  V30 2432 H 224.806 1.50011 4.07037 0
M  V30 2433 H 225.477 0.672314 5.4789 0
M  V30 2434 H 227.953 -0.678942 4.10524 0
M  V30 2435 H 226.829 -1.33086 5.32522 0
M  V30 2436 H 227.09 -2.21166 3.82803 0
M  V30 2437 N 226.149 -1.5696 0.141893 0
M  V30 2438 C 227.079 -2.19516 -0.795936 0
M  V30 2439 C 228.06 -1.14187 -1.26077 0
M  V30 2440 O 229.245 -1.42511 -1.31925 0
M  V30 2441 C 226.375 -2.81272 -2.03723 0
M  V30 2442 C 225.329 -3.92384 -1.70936 0
M  V30 2443 C 224.655 -4.41052 -3.02287 0
M  V30 2444 C 225.955 -5.13403 -0.959954 0
M  V30 2445 H 227.649 -2.98138 -0.274596 0
M  V30 2446 H 225.195 -1.43406 -0.130636 0
M  V30 2447 H 227.148 -3.237 -2.69808 0
M  V30 2448 H 225.872 -1.99973 -2.58221 0
M  V30 2449 H 224.531 -3.50566 -1.07232 0
M  V30 2450 H 224.179 -3.56582 -3.54765 0
M  V30 2451 H 223.879 -5.15993 -2.81114 0
M  V30 2452 H 225.403 -4.86146 -3.69451 0
M  V30 2453 H 226.817 -5.52706 -1.52279 0
M  V30 2454 H 225.214 -5.94073 -0.848357 0
M  V30 2455 H 226.284 -4.84875 0.0492434 0
M  V30 2456 N 227.627 0.131896 -1.57047 0
M  V30 2457 C 229.038 0.690407 -1.73465 0
M  V30 2458 C 229.389 1.8094 -0.758629 0
M  V30 2459 O 228.514 2.16282 0.0713813 0
M  V30 2460 C 229.109 1.25916 -3.14532 0
M  V30 2461 C 227.668 1.76409 -3.32501 0
M  V30 2462 C 226.815 0.658579 -2.69366 0
M  V30 2463 H 229.766 -0.0939144 -1.58422 0
M  V30 2464 H 229.787 2.12892 -3.15369 0
M  V30 2465 H 229.299 0.444515 -3.85546 0
M  V30 2466 H 227.4 2.60391 -2.66509 0
M  V30 2467 H 227.513 1.88241 -4.4057 0
M  V30 2468 H 225.877 1.08899 -2.30246 0
M  V30 2469 H 226.66 -0.14487 -3.42994 0
M  V30 2470 N 229.106 1.52395 0.401703 0
M  V30 2471 C 230.038 1.72505 1.50912 0
M  V30 2472 C 231.051 0.605468 1.51122 0
M  V30 2473 O 232.24 0.880828 1.55254 0
M  V30 2474 C 229.34 1.75711 2.89791 0
M  V30 2475 C 228.513 3.04824 3.1369 0
M  V30 2476 C 227.572 2.99743 4.32482 0
M  V30 2477 O 226.598 3.73635 4.29402 0
M  V30 2478 N 227.8 2.18047 5.37992 0
M  V30 2479 H 230.565 2.68049 1.34052 0
M  V30 2480 H 228.126 1.50724 0.591084 0
M  V30 2481 H 230.118 1.69834 3.6734 0
M  V30 2482 H 228.688 0.876092 3.00072 0
M  V30 2483 H 227.908 3.2429 2.24119 0
M  V30 2484 H 229.196 3.90221 3.26504 0
M  V30 2485 H 228.594 1.57456 5.43345 0
M  V30 2486 H 227.151 2.18021 6.14256 0
M  V30 2487 N 230.584 -0.659388 1.43143 0
M  V30 2488 C 231.814 -1.44513 1.47646 0
M  V30 2489 C 232.222 -1.88981 0.0910095 0
M  V30 2490 O 231.565 -1.59702 -0.907789 0
M  V30 2491 C 231.627 -2.71663 2.35456 0
M  V30 2492 C 231.291 -2.49175 3.83094 0
M  V30 2493 C 232.288 -2.1279 4.74359 0
M  V30 2494 C 229.973 -2.63691 4.27519 0
M  V30 2495 C 231.967 -1.9121 6.08044 0
M  V30 2496 C 229.654 -2.41726 5.61259 0
M  V30 2497 C 230.652 -2.0554 6.51339 0
M  V30 2498 O 230.34 -1.838 7.82606 0
M  V30 2499 H 230.072 -0.45064 0.503884 0
M  V30 2500 H 232.626 -0.816248 1.88485 0
M  V30 2501 H 230.856 -3.37089 1.89493 0
M  V30 2502 H 232.545 -3.33595 2.31235 0
M  V30 2503 H 233.311 -2.01157 4.41317 0
M  V30 2504 H 229.19 -2.90832 3.57684 0
M  V30 2505 H 232.734 -1.62889 6.78316 0
M  V30 2506 H 228.631 -2.52959 5.9387 0
M  V30 2507 H 229.399 -1.98275 7.94122 0
M  V30 2508 N 232.062 -1.29571 -0.897171 0
M  V30 2509 C 233.308 -1.17863 -1.65034 0
M  V30 2510 C 233.641 0.268729 -1.92332 0
M  V30 2511 O 232.916 1.19378 -1.53555 0
M  V30 2512 C 233.199 -1.995 -2.99786 0
M  V30 2513 C 233.052 -3.5239 -2.79538 0
M  V30 2514 C 234.371 -1.82335 -4.00552 0
M  V30 2515 H 231.49 -0.429528 -0.598895 0
M  V30 2516 H 234.132 -1.59072 -1.03905 0
M  V30 2517 H 232.282 -1.64485 -3.51962 0
M  V30 2518 H 233.954 -3.97401 -2.34244 0
M  V30 2519 H 232.197 -3.77187 -2.14273 0
M  V30 2520 H 232.868 -4.04787 -3.75302 0
M  V30 2521 H 235.344 -2.12924 -3.57495 0
M  V30 2522 H 234.22 -2.41801 -4.92771 0
M  V30 2523 H 234.481 -0.779209 -4.35179 0
M  V30 2524 N 233.54 1.10788 -1.12088 0
M  V30 2525 C 234.817 1.79136 -0.785476 0
M  V30 2526 C 235.197 1.98246 0.725377 0
M  V30 2527 O 234.545 1.57258 1.65778 0
M  V30 2528 C 234.755 3.12375 -1.55636 0
M  V30 2529 C 236.103 3.8731 -1.74001 0
M  V30 2530 O 237.127 3.22085 -1.52117 0
M  V30 2531 O 235.986 5.04369 -2.10415 0
M  V30 2532 H 233.08 0.776226 -0.285311 0
M  V30 2533 H 235.626 1.1747 -1.2247 0
M  V30 2534 H 234.398 2.93863 -2.5838 0
M  V30 2535 H 234.021 3.81758 -1.11114 0
M  V30 2536 N 235.018 0.912232 1.28515 0
M  V30 2537 C 235.95 0.35676 2.26406 0
M  V30 2538 C 236.963 -0.503933 1.54804 0
M  V30 2539 O 238.152 -0.319059 1.75625 0
M  V30 2540 C 235.252 -0.508825 3.35058 0
M  V30 2541 C 234.425 0.329007 4.36161 0
M  V30 2542 C 233.484 -0.471422 5.24084 0
M  V30 2543 O 232.51 0.115482 5.69083 0
M  V30 2544 N 233.712 -1.77479 5.52704 0
M  V30 2545 H 236.477 1.19818 2.74707 0
M  V30 2546 H 234.038 0.778022 1.4198 0
M  V30 2547 H 236.03 -1.051 3.90815 0
M  V30 2548 H 234.6 -1.25095 2.86478 0
M  V30 2549 H 233.82 1.05256 3.79888 0
M  V30 2550 H 235.108 0.90234 5.00735 0
M  V30 2551 H 234.506 -2.27417 5.17975 0
M  V30 2552 H 233.063 -2.26382 6.11224 0
M  V30 2553 N 236.496 -1.42363 0.676048 0
M  V30 2554 C 237.721 -2.06377 0.205705 0
M  V30 2555 C 238.146 -1.50463 -1.12883 0
M  V30 2556 O 237.504 -0.623619 -1.70237 0
M  V30 2557 C 237.552 -3.60277 0.152655 0
M  V30 2558 O 236.656 -4.02935 -0.87845 0
M  V30 2559 H 235.997 -0.655588 0.105359 0
M  V30 2560 H 238.527 -1.82475 0.925412 0
M  V30 2561 H 238.537 -4.07993 -0.0230675 0
M  V30 2562 H 237.212 -4.00346 1.12675 0
M  V30 2563 H 235.789 -3.66764 -0.673668 0
M  V30 2564 N 237.974 -0.419461 -1.51915 0
M  V30 2565 C 239.214 0.152336 -2.03832 0
M  V30 2566 C 239.578 1.41501 -1.29775 0
M  V30 2567 O 240.779 2.06591 -1.7197 0
M  V30 2568 C 239.05 0.383812 -3.55333 0
M  V30 2569 S 240.609 0.921577 -4.29013 0
M  V30 2570 H 237.427 0.0402193 -0.709862 0
M  V30 2571 H 240.029 -0.574758 -1.8686 0
M  V30 2572 H 238.733 -0.541794 -4.06808 0
M  V30 2573 H 238.264 1.13849 -3.76566 0
M  V30 2574 H 240.279 2.20108 -4.4471 0
M  V30 2575 N 239.452 1.56882 -0.150215 0
M  V30 2576 C 240.699 1.96228 0.500093 0
M  V30 2577 C 241.027 1.03522 1.64661 0
M  V30 2578 O 240.282 0.0650683 1.95592 0
M  V30 2579 C 240.581 3.41801 1.04437 0
M  V30 2580 C 240.247 4.50897 0.0159671 0
M  V30 2581 C 238.909 4.8046 -0.266731 0
M  V30 2582 C 241.261 5.16703 -0.683192 0
M  V30 2583 C 238.589 5.73135 -1.25434 0
M  V30 2584 C 240.941 6.10441 -1.65964 0
M  V30 2585 C 239.605 6.38382 -1.95 0
M  V30 2586 H 238.875 0.718048 0.182997 0
M  V30 2587 H 241.522 1.90019 -0.237724 0
M  V30 2588 H 239.827 3.44857 1.85959 0
M  V30 2589 H 241.524 3.69573 1.55618 0
M  V30 2590 H 238.114 4.27891 0.246485 0
M  V30 2591 H 242.298 4.93993 -0.477983 0
M  V30 2592 H 237.554 5.93074 -1.48571 0
M  V30 2593 H 241.728 6.60507 -2.20689 0
M  V30 2594 H 239.355 7.09996 -2.71679 0
M  V30 2595 N 240.93 -0.123565 1.57115 0
M  V30 2596 C 241.893 -1.13583 1.99076 0
M  V30 2597 C 242.893 -1.34564 0.880296 0
M  V30 2598 O 244.083 -1.31158 1.14644 0
M  V30 2599 C 241.215 -2.49128 2.32698 0
M  V30 2600 H 242.408 -0.775287 2.89706 0
M  V30 2601 H 239.961 -0.36771 1.51913 0
M  V30 2602 H 240.696 -2.90111 1.44934 0
M  V30 2603 H 240.481 -2.35255 3.13684 0
M  V30 2604 H 241.971 -3.2199 2.65918 0
M  V30 2605 N 242.408 -1.52605 -0.393616 0
M  V30 2606 C 243.654 -1.67672 -1.14079 0
M  V30 2607 C 243.987 -0.413121 -1.89755 0
M  V30 2608 O 243.262 0.588952 -1.85369 0
M  V30 2609 C 243.545 -2.9088 -2.12276 0
M  V30 2610 C 243.398 -4.27329 -1.40394 0
M  V30 2611 C 244.717 -3.09628 -3.12759 0
M  V30 2612 H 241.836 -0.610168 -0.413356 0
M  V30 2613 H 244.478 -1.85193 -0.424696 0
M  V30 2614 H 242.628 -2.76073 -2.73342 0
M  V30 2615 H 244.3 -4.53894 -0.82327 0
M  V30 2616 H 242.543 -4.2802 -0.705801 0
M  V30 2617 H 243.214 -5.09615 -2.12123 0
M  V30 2618 H 245.69 -3.23436 -2.61779 0
M  V30 2619 H 244.566 -3.97322 -3.78717 0
M  V30 2620 H 244.827 -2.23637 -3.81365 0
M  V30 2621 N 243.887 0.651787 -1.4349 0
M  V30 2622 C 245.133 1.41376 -1.45398 0
M  V30 2623 C 245.466 1.94041 -0.0784823 0
M  V30 2624 O 244.741 1.72379 0.900878 0
M  V30 2625 C 245.024 2.59414 -2.49752 0
M  V30 2626 C 244.877 2.12232 -3.96582 0
M  V30 2627 C 246.196 3.61626 -2.50827 0
M  V30 2628 H 243.315 0.512719 -0.529422 0
M  V30 2629 H 245.957 0.738796 -1.75048 0
M  V30 2630 H 244.107 3.16997 -2.246 0
M  V30 2631 H 245.779 1.59639 -4.32797 0
M  V30 2632 H 244.022 1.43592 -4.09346 0
M  V30 2633 H 244.693 2.9712 -4.65214 0
M  V30 2634 H 247.169 3.13805 -2.7325 0
M  V30 2635 H 246.045 4.41766 -3.25783 0
M  V30 2636 H 246.306 4.14314 -1.5426 0
M  V30 2637 N 245.365 1.30045 0.890287 0
M  V30 2638 C 246.295 1.18541 2.01172 0
M  V30 2639 C 247.276 0.0773356 1.69924 0
M  V30 2640 O 248.461 0.25845 1.92473 0
M  V30 2641 C 245.591 0.870941 3.36202 0
M  V30 2642 C 244.545 1.93637 3.81692 0
M  V30 2643 C 243.871 1.475 5.13953 0
M  V30 2644 C 245.171 3.34666 4.00994 0
M  V30 2645 H 246.865 2.12359 2.11054 0
M  V30 2646 H 244.411 1.02238 1.01407 0
M  V30 2647 H 246.364 0.777141 4.14172 0
M  V30 2648 H 245.088 -0.102926 3.26438 0
M  V30 2649 H 243.747 2.01972 3.05946 0
M  V30 2650 H 243.395 0.489551 5.00612 0
M  V30 2651 H 243.095 2.1876 5.4536 0
M  V30 2652 H 244.619 1.39489 5.94454 0
M  V30 2653 H 246.033 3.2912 4.69417 0
M  V30 2654 H 244.43 4.03966 4.43769 0
M  V30 2655 H 245.5 3.76949 3.05021 0
M  V30 2656 N 246.843 -1.10192 1.12674 0
M  V30 2657 C 248.091 -1.81845 0.881861 0
M  V30 2658 C 248.412 -1.85737 -0.593867 0
M  V30 2659 O 247.682 -1.33724 -1.4316 0
M  V30 2660 H 246.262 -0.673432 0.323261 0
M  V30 2661 H 248.924 -1.33316 1.42172 0
M  V30 2662 H 248.02 -2.85288 1.2656 0
M  V30 2663 N 248.321 -0.919034 -1.28029 0
M  V30 2664 C 249.569 -0.553838 -1.94363 0
M  V30 2665 C 249.89 0.906357 -1.72656 0
M  V30 2666 O 249.16 1.64143 -1.0693 0
M  V30 2667 H 247.74 -0.201834 -0.719216 0
M  V30 2668 H 250.402 -1.16954 -1.55909 0
M  V30 2669 H 249.498 -0.752758 -3.02886 0
M  V30 2670 N 249.799 1.42003 -0.683588 0
M  V30 2671 C 251.21 1.84501 -0.285736 0
M  V30 2672 C 251.561 1.57213 1.17382 0
M  V30 2673 O 250.686 1.03642 1.89966 0
M  V30 2674 C 251.281 3.34912 -0.511821 0
M  V30 2675 C 249.84 3.76025 -0.168005 0
M  V30 2676 C 248.987 2.6551 -0.799983 0
M  V30 2677 H 251.938 1.31724 -0.885119 0
M  V30 2678 H 251.959 3.79784 0.233292 0
M  V30 2679 H 251.471 3.54741 -1.57418 0
M  V30 2680 H 249.572 3.61801 0.890567 0
M  V30 2681 H 249.685 4.75141 -0.614661 0
M  V30 2682 H 248.049 2.53654 -0.230568 0
M  V30 2683 H 248.832 2.8816 -1.86597 0
M  V30 2684 N 251.277 0.427512 1.51691 0
M  V30 2685 C 252.209 -0.424521 2.25234 0
M  V30 2686 C 253.222 -0.994671 1.2888 0
M  V30 2687 O 254.411 -0.890483 1.54702 0
M  V30 2688 C 251.511 -1.60479 2.98496 0
M  V30 2689 C 250.684 -1.15527 4.21868 0
M  V30 2690 C 249.743 -2.20454 4.77793 0
M  V30 2691 O 248.769 -1.8029 5.39893 0
M  V30 2692 N 249.971 -3.52831 4.60967 0
M  V30 2693 H 252.736 0.205749 2.98993 0
M  V30 2694 H 250.297 0.255867 1.59865 0
M  V30 2695 H 252.289 -2.30276 3.32799 0
M  V30 2696 H 250.859 -2.14061 2.27809 0
M  V30 2697 H 250.079 -0.284736 3.9317 0
M  V30 2698 H 251.367 -0.832173 5.01949 0
M  V30 2699 H 250.765 -3.88201 4.11481 0
M  V30 2700 H 249.322 -4.18551 4.99658 0
M  V30 2701 N 252.755 -1.56801 0.158532 0
M  V30 2702 C 253.665 -2.20916 -0.789518 0
M  V30 2703 C 254.681 -1.1969 -1.26294 0
M  V30 2704 O 255.857 -1.52308 -1.31773 0
M  V30 2705 C 252.922 -2.82727 -2.00665 0
M  V30 2706 C 251.983 -3.99114 -1.58134 0
M  V30 2707 C 251.216 -4.57968 -2.74045 0
M  V30 2708 O 251.439 -4.15704 -3.90572 0
M  V30 2709 O 250.373 -5.48047 -2.48855 0
M  V30 2710 H 254.199 -3.02464 -0.273681 0
M  V30 2711 H 251.784 -1.4924 -0.0690548 0
M  V30 2712 H 253.666 -3.21968 -2.71872 0
M  V30 2713 H 252.341 -2.04184 -2.51179 0
M  V30 2714 H 251.248 -3.64567 -0.839155 0
M  V30 2715 H 252.581 -4.79212 -1.12325 0
M  V30 2716 N 254.233 0.115231 -1.57178 0
M  V30 2717 C 255.461 0.836437 -1.89239 0
M  V30 2718 C 255.876 1.73256 -0.750175 0
M  V30 2719 O 255.233 1.80357 0.278832 0
M  V30 2720 C 255.284 1.66671 -3.20785 0
M  V30 2721 O 255.005 0.806652 -4.3061 0
M  V30 2722 C 256.506 2.49274 -3.66575 0
M  V30 2723 H 253.726 0.240253 -0.626514 0
M  V30 2724 H 256.27 0.0984932 -2.04263 0
M  V30 2725 H 254.425 2.35737 -3.0742 0
M  V30 2726 H 254.839 1.37969 -5.06028 0
M  V30 2727 H 256.313 3.03055 -4.6137 0
M  V30 2728 H 256.79 3.26807 -2.93417 0
M  V30 2729 H 257.396 1.85443 -3.82741 0
M  V30 2730 N 255.711 1.52812 0.385517 0
M  V30 2731 C 256.959 1.67694 1.12797 0
M  V30 2732 C 257.28 0.421115 1.90399 0
M  V30 2733 O 256.55 -0.564551 1.87589 0
M  V30 2734 H 255.13 0.618155 0.419396 0
M  V30 2735 H 257.792 1.89938 0.436972 0
M  V30 2736 H 256.888 2.52896 1.82894 0
M  V30 2737 N 257.189 -0.644168 1.43834 0
M  V30 2738 C 258.121 -1.76955 1.45669 0
M  V30 2739 C 259.134 -1.58956 0.351666 0
M  V30 2740 O 260.323 -1.6751 0.616644 0
M  V30 2741 C 257.423 -3.14507 1.26248 0
M  V30 2742 C 256.596 -3.59083 2.49757 0
M  V30 2743 C 255.655 -4.75467 2.25427 0
M  V30 2744 O 254.681 -4.84444 2.98836 0
M  V30 2745 N 255.883 -5.66289 1.27661 0
M  V30 2746 H 258.648 -1.75856 2.42682 0
M  V30 2747 H 256.209 -0.828312 1.39106 0
M  V30 2748 H 258.201 -3.90067 1.0784 0
M  V30 2749 H 256.771 -3.10325 0.376478 0
M  V30 2750 H 255.991 -2.7387 2.8353 0
M  V30 2751 H 257.279 -3.85613 3.31934 0
M  V30 2752 H 256.677 -5.61718 0.670064 0
M  V30 2753 H 255.234 -6.41533 1.15234 0
M  V30 2754 N 258.668 -1.30515 -0.883378 0
M  V30 2755 C 259.598 -1.19607 -2.00541 0
M  V30 2756 C 260.579 -0.086346 -1.69881 0
M  V30 2757 O 261.764 -0.268654 -1.92333 0
M  V30 2758 C 258.894 -0.888758 -3.35736 0
M  V30 2759 C 257.848 -1.95659 -3.8066 0
M  V30 2760 C 257.174 -1.50224 -5.13164 0
M  V30 2761 C 258.474 -3.36788 -3.99213 0
M  V30 2762 H 260.168 -2.13476 -2.09925 0
M  V30 2763 H 257.714 -1.02775 -1.00863 0
M  V30 2764 H 259.667 -0.799094 -4.13754 0
M  V30 2765 H 258.391 0.0856125 -3.26488 0
M  V30 2766 H 257.05 -2.03591 -3.04871 0
M  V30 2767 H 256.698 -0.516092 -5.00345 0
M  V30 2768 H 256.398 -2.2165 -5.44192 0
M  V30 2769 H 257.922 -1.42639 -5.93706 0
M  V30 2770 H 259.336 -3.31605 -4.67665 0
M  V30 2771 H 257.733 -4.06314 -4.41621 0
M  V30 2772 H 258.803 -3.78561 -3.03017 0
M  V30 2773 N 260.146 1.09593 -1.13257 0
M  V30 2774 C 261.076 2.18214 -0.830946 0
M  V30 2775 C 262.057 1.68812 0.208966 0
M  V30 2776 O 263.242 1.9408 0.0682666 0
M  V30 2777 C 260.372 3.46051 -0.294296 0
M  V30 2778 C 259.326 4.08778 -1.26826 0
M  V30 2779 C 258.652 5.31419 -0.591449 0
M  V30 2780 C 259.952 4.51476 -2.62615 0
M  V30 2781 H 261.646 2.43703 -1.73923 0
M  V30 2782 H 259.192 1.17128 -0.837675 0
M  V30 2783 H 261.145 4.2134 -0.0709606 0
M  V30 2784 H 259.869 3.20079 0.649366 0
M  V30 2785 H 258.528 3.35505 -1.47756 0
M  V30 2786 H 258.176 5.01727 0.357633 0
M  V30 2787 H 257.876 5.74341 -1.24123 0
M  V30 2788 H 259.4 6.09433 -0.377355 0
M  V30 2789 H 260.814 5.17999 -2.45663 0
M  V30 2790 H 259.211 5.05277 -3.23752 0
M  V30 2791 H 260.281 3.63962 -3.20406 0
M  V30 2792 N 261.624 0.925811 1.2754 0
M  V30 2793 C 262.534 0.428993 2.30644 0
M  V30 2794 C 263.55 -0.489387 1.66976 0
M  V30 2795 O 264.726 -0.372653 1.97922 0
M  V30 2796 C 261.791 -0.311967 3.45294 0
M  V30 2797 C 260.852 0.641098 4.24486 0
M  V30 2798 C 260.085 -0.0645955 5.33661 0
M  V30 2799 O 260.308 -1.28429 5.55754 0
M  V30 2800 O 259.242 0.606265 5.98839 0
M  V30 2801 H 263.068 1.28504 2.75173 0
M  V30 2802 H 260.653 0.691086 1.32455 0
M  V30 2803 H 262.535 -0.729972 4.15029 0
M  V30 2804 H 261.21 -1.14365 3.02824 0
M  V30 2805 H 260.117 1.10874 3.57292 0
M  V30 2806 H 261.45 1.43995 4.70666 0
M  V30 2807 N 263.102 -1.41638 0.69111 0
M  V30 2808 C 264.052 -2.28 -0.000107832 0
M  V30 2809 C 265.036 -1.41964 -0.757304 0
M  V30 2810 O 266.228 -1.65274 -0.633532 0
M  V30 2811 C 263.357 -3.30209 -0.938983 0
M  V30 2812 C 262.443 -4.23725 -0.17827 0
M  V30 2813 N 262.834 -4.99017 0.825563 0
M  V30 2814 C 261.132 -4.44071 -0.414392 0
M  V30 2815 C 261.833 -5.67431 1.28052 0
M  V30 2816 N 260.809 -5.40197 0.607304 0
M  V30 2817 H 264.611 -2.83644 0.769617 0
M  V30 2818 H 262.125 -1.53797 0.521562 0
M  V30 2819 H 264.122 -3.90898 -1.44929 0
M  V30 2820 H 262.782 -2.76126 -1.70836 0
M  V30 2821 H 263.793 -5.03671 1.20566 0
M  V30 2822 H 260.47 -4.01004 -1.162 0
M  V30 2823 H 261.86 -6.37801 2.11327 0
M  V30 2824 N 264.58 -0.43555 -1.51462 0
M  V30 2825 C 265.996 -0.0877501 -1.59359 0
M  V30 2826 C 266.196 1.4027 -1.4466 0
M  V30 2827 O 265.252 2.17243 -1.28693 0
M  V30 2828 C 266.565 -0.606264 -2.94525 0
M  V30 2829 C 268.113 -0.566548 -3.0783 0
M  V30 2830 C 268.588 -1.06201 -4.45517 0
M  V30 2831 N 270.079 -1.01992 -4.51832 0
M  V30 2832 C 270.814 -1.37417 -5.5669 0
M  V30 2833 N 270.31 -1.80119 -6.68976 0
M  V30 2834 N 272.103 -1.29245 -5.47039 0
M  V30 2835 H 264.254 -1.40533 -1.59261 0
M  V30 2836 H 266.517 -0.578992 -0.750648 0
M  V30 2837 H 266.223 -1.64901 -3.10645 0
M  V30 2838 H 266.097 -0.0302097 -3.77188 0
M  V30 2839 H 268.484 0.467208 -2.91378 0
M  V30 2840 H 268.565 -1.17898 -2.2701 0
M  V30 2841 H 268.209 -2.09422 -4.62715 0
M  V30 2842 H 268.139 -0.426127 -5.24873 0
M  V30 2843 H 270.63 -0.706308 -3.71241 0
M  V30 2844 H 270.943 -2.05392 -7.45006 0
M  V30 2845 H 269.288 -1.84044 -6.70189 0
M  V30 2846 H 272.479 -0.957522 -4.58202 0
M  V30 2847 H 272.652 -1.57182 -6.28648 0
M  V30 2848 N 266.058 1.56714 -0.166846 0
M  V30 2849 C 267.305 1.96747 0.479252 0
M  V30 2850 C 267.633 1.05263 1.63554 0
M  V30 2851 O 266.888 0.0858098 1.95512 0
M  V30 2852 C 267.187 3.42889 1.00806 0
M  V30 2853 C 266.853 4.50889 -0.0318574 0
M  V30 2854 C 265.515 4.8015 -0.317675 0
M  V30 2855 C 267.867 5.15949 -0.737956 0
M  V30 2856 C 265.195 5.71772 -1.31506 0
M  V30 2857 C 267.547 6.08647 -1.72429 0
M  V30 2858 C 266.211 6.36277 -2.0176 0
M  V30 2859 H 265.481 0.719949 0.175371 0
M  V30 2860 H 268.128 1.89756 -0.257864 0
M  V30 2861 H 266.433 3.4681 1.82291 0
M  V30 2862 H 268.13 3.71203 1.51689 0
M  V30 2863 H 264.72 4.28128 0.201088 0
M  V30 2864 H 268.904 4.93458 -0.530351 0
M  V30 2865 H 264.16 5.91465 -1.54853 0
M  V30 2866 H 268.334 6.58129 -2.27682 0
M  V30 2867 H 265.961 7.07075 -2.79194 0
M  V30 2868 N 267.536 -0.106894 1.57237 0
M  V30 2869 C 268.813 -0.843526 1.76477 0
M  V30 2870 C 269.193 -1.97499 0.745464 0
M  V30 2871 O 268.541 -2.27357 -0.228306 0
M  V30 2872 C 268.751 -1.34903 3.21873 0
M  V30 2873 C 270.099 -1.79654 3.8472 0
M  V30 2874 O 271.123 -1.44554 3.2555 0
M  V30 2875 O 269.982 -2.44515 4.88748 0
M  V30 2876 H 267.076 -0.401468 0.723016 0
M  V30 2877 H 269.622 -0.0896927 1.69463 0
M  V30 2878 H 268.394 -0.53781 3.87586 0
M  V30 2879 H 268.017 -2.16522 3.33473 0
M  V30 2880 N 269.014 -1.53014 -0.377408 0
M  V30 2881 C 270.244 -1.72265 -1.14054 0
M  V30 2882 C 270.652 -0.44601 -1.83868 0
M  V30 2883 O 269.995 0.590095 -1.73964 0
M  V30 2884 C 270.057 -2.82492 -2.22348 0
M  V30 2885 C 269.721 -4.23233 -1.72402 0
M  V30 2886 C 270.718 -5.05992 -1.19448 0
M  V30 2887 C 268.403 -4.696 -1.78273 0
M  V30 2888 C 270.397 -6.33203 -0.730268 0
M  V30 2889 C 268.084 -5.96792 -1.31464 0
M  V30 2890 C 269.082 -6.78424 -0.789297 0
M  V30 2891 O 268.77 -8.0323 -0.328077 0
M  V30 2892 H 268.502 -0.579873 -0.347453 0
M  V30 2893 H 271.056 -2.00502 -0.445882 0
M  V30 2894 H 269.286 -2.49702 -2.95272 0
M  V30 2895 H 270.975 -2.90034 -2.83963 0
M  V30 2896 H 271.741 -4.71349 -1.14259 0
M  V30 2897 H 267.62 -4.06142 -2.18106 0
M  V30 2898 H 271.164 -6.96868 -0.319542 0
M  V30 2899 H 267.061 -6.30937 -1.36342 0
M  V30 2900 H 267.829 -8.1727 -0.448493 0
M  V30 2901 N 270.492 0.636531 -1.44174 0
M  V30 2902 C 271.741 1.39213 -1.45954 0
M  V30 2903 C 272.054 1.95374 -0.0939119 0
M  V30 2904 O 273.26 2.71498 0.0107767 0
M  V30 2905 C 271.716 2.52025 -2.56927 0
M  V30 2906 C 271.324 2.024 -3.99673 0
M  V30 2907 C 273.068 3.29269 -2.67922 0
M  V30 2908 C 270.975 3.12521 -5.0208 0
M  V30 2909 H 269.905 0.523132 -0.542999 0
M  V30 2910 H 272.556 0.685349 -1.70221 0
M  V30 2911 H 270.938 3.25253 -2.25891 0
M  V30 2912 H 272.112 1.36073 -4.40251 0
M  V30 2913 H 270.427 1.37987 -3.92872 0
M  V30 2914 H 273.024 4.11352 -3.41605 0
M  V30 2915 H 273.367 3.78397 -1.73555 0
M  V30 2916 H 273.9 2.63129 -2.98342 0
M  V30 2917 H 270.639 2.68343 -5.98057 0
M  V30 2918 H 270.159 3.77507 -4.66099 0
M  V30 2919 H 271.838 3.77385 -5.25538 0
M  V30 2920 N 271.97 1.30982 0.876444 0
M  V30 2921 C 273.217 1.20296 1.62896 0
M  V30 2922 C 273.545 -0.240395 1.93009 0
M  V30 2923 O 272.8 -1.18733 1.55567 0
M  V30 2924 C 273.099 1.98572 2.9716 0
M  V30 2925 C 272.765 3.48125 2.86566 0
M  V30 2926 C 271.427 3.88905 2.83383 0
M  V30 2927 C 273.779 4.43322 2.74071 0
M  V30 2928 C 271.107 5.2316 2.65556 0
M  V30 2929 C 273.459 5.77695 2.57781 0
M  V30 2930 C 272.123 6.17704 2.52979 0
M  V30 2931 H 271.393 0.440193 0.59608 0
M  V30 2932 H 274.04 1.62177 1.01837 0
M  V30 2933 H 272.345 1.49352 3.62217 0
M  V30 2934 H 274.042 1.8769 3.54364 0
M  V30 2935 H 270.632 3.15723 2.89856 0
M  V30 2936 H 274.816 4.12752 2.75589 0
M  V30 2937 H 270.072 5.53241 2.60259 0
M  V30 2938 H 274.246 6.51091 2.47089 0
M  V30 2939 H 271.873 7.21678 2.38924 0
M  V30 2940 N 273.449 -1.08991 1.13837 0
M  V30 2941 C 274.696 -1.81258 0.902882 0
M  V30 2942 C 275.024 -1.85936 -0.570803 0
M  V30 2943 O 274.279 -1.3267 -1.43865 0
M  V30 2944 C 274.578 -3.27042 1.44147 0
M  V30 2945 C 274.244 -3.4249 2.93276 0
M  V30 2946 C 272.906 -3.46414 3.33992 0
M  V30 2947 C 275.258 -3.4666 3.892 0
M  V30 2948 C 272.586 -3.52091 4.69307 0
M  V30 2949 C 274.938 -3.53872 5.24364 0
M  V30 2950 C 273.602 -3.56066 5.646 0
M  V30 2951 H 272.872 -0.663268 0.330388 0
M  V30 2952 H 275.519 -1.28368 1.42105 0
M  V30 2953 H 273.824 -3.82599 0.844097 0
M  V30 2954 H 275.521 -3.81499 1.23528 0
M  V30 2955 H 272.111 -3.40124 2.60794 0
M  V30 2956 H 276.295 -3.42865 3.58828 0
M  V30 2957 H 271.551 -3.52079 4.9985 0
M  V30 2958 H 275.725 -3.56043 5.98503 0
M  V30 2959 H 273.352 -3.60218 6.69438 0
M  V30 2960 N 274.927 -0.932562 -1.27047 0
M  V30 2961 C 276.155 -0.592031 -1.98249 0
M  V30 2962 C 276.57 0.831062 -1.69525 0
M  V30 2963 O 275.927 1.55299 -0.958561 0
M  V30 2964 C 275.978 -0.814279 -3.5221 0
M  V30 2965 O 275.699 -2.18139 -3.7993 0
M  V30 2966 C 277.2 -0.483121 -4.4066 0
M  V30 2967 H 274.42 -0.223896 -0.632544 0
M  V30 2968 H 276.964 -1.25091 -1.61779 0
M  V30 2969 H 275.119 -0.20213 -3.86872 0
M  V30 2970 H 275.533 -2.235 -4.74498 0
M  V30 2971 H 277.007 -0.689298 -5.47679 0
M  V30 2972 H 277.484 0.581546 -4.35333 0
M  V30 2973 H 278.09 -1.07362 -4.11526 0
M  V30 2974 N 276.405 1.4127 -0.698611 0
M  V30 2975 C 277.653 2.00782 -0.230409 0
M  V30 2976 C 277.974 1.5562 1.17505 0
M  V30 2977 O 277.244 0.78815 1.79346 0
M  V30 2978 H 275.824 0.742464 -0.0821944 0
M  V30 2979 H 278.486 1.72852 -0.90045 0
M  V30 2980 H 277.582 3.11095 -0.25021 0
M  V30 2981 N 277.883 0.443576 1.51229 0
M  V30 2982 C 279.108 -0.121648 2.07043 0
M  V30 2983 C 279.533 -1.35156 1.30823 0
M  V30 2984 O 278.891 -1.7793 0.347934 0
M  V30 2985 C 278.939 -0.41624 3.5819 0
M  V30 2986 O 278.043 -1.50163 3.8409 0
M  V30 2987 H 277.384 0.000871367 0.663999 0
M  V30 2988 H 279.914 0.626706 1.94765 0
M  V30 2989 H 279.924 -0.664867 4.02546 0
M  V30 2990 H 278.599 0.482653 4.1309 0
M  V30 2991 H 277.176 -1.24248 3.51592 0
M  V30 2992 N 279.361 -1.56624 0.175154 0
M  V30 2993 C 280.772 -1.83561 -0.340916 0
M  V30 2994 C 281.123 -1.09511 -1.62794 0
M  V30 2995 O 280.248 -0.349389 -2.13561 0
M  V30 2996 C 280.843 -3.32979 -0.625313 0
M  V30 2997 C 279.402 -3.60399 -1.08581 0
M  V30 2998 C 278.549 -2.77024 -0.123722 0
M  V30 2999 H 281.5 -1.53593 0.399344 0
M  V30 3000 H 281.521 -3.50666 -1.47694 0
M  V30 3001 H 281.033 -3.86847 0.311575 0
M  V30 3002 H 279.134 -3.11945 -2.03767 0
M  V30 3003 H 279.247 -4.68711 -0.992317 0
M  V30 3004 H 277.611 -2.46993 -0.621821 0
M  V30 3005 H 278.394 -3.33674 0.807256 0
M  V30 3006 N 280.839 0.0985539 -1.57292 0
M  V30 3007 C 282.255 0.45267 -1.53046 0
M  V30 3008 C 282.455 1.80713 -0.891342 0
M  V30 3009 O 281.511 2.4785 -0.482375 0
M  V30 3010 C 282.824 0.418341 -2.97776 0
M  V30 3011 C 284.372 0.500443 -3.08973 0
M  V30 3012 C 284.847 0.496297 -4.55303 0
M  V30 3013 N 286.338 0.557151 -4.59837 0
M  V30 3014 C 287.073 0.575726 -5.70502 0
M  V30 3015 N 286.569 0.550714 -6.90608 0
M  V30 3016 N 288.362 0.620277 -5.58667 0
M  V30 3017 H 280.513 -0.788673 -1.97215 0
M  V30 3018 H 282.776 -0.293188 -0.901524 0
M  V30 3019 H 282.482 -0.509659 -3.47988 0
M  V30 3020 H 282.356 1.2386 -3.56284 0
M  V30 3021 H 284.743 1.41886 -2.58751 0
M  V30 3022 H 284.824 -0.347894 -2.53423 0
M  V30 3023 H 284.468 -0.418162 -5.06176 0
M  V30 3024 H 284.398 1.3618 -5.08687 0
M  V30 3025 H 286.889 0.581816 -3.73394 0
M  V30 3026 H 287.202 0.568075 -7.70709 0
M  V30 3027 H 285.547 0.517816 -6.93068 0
M  V30 3028 H 288.738 0.637322 -4.63741 0
M  V30 3029 H 288.911 0.631283 -6.44918 0
M  V30 3030 N 282.317 1.53212 0.369288 0
M  V30 3031 C 283.563 1.69466 1.11397 0
M  V30 3032 C 283.896 0.443257 1.89074 0
M  V30 3033 O 283.171 -0.559386 1.86282 0
M  V30 3034 C 283.454 2.9422 2.07621 0
M  V30 3035 C 283.307 4.29508 1.33577 0
M  V30 3036 C 284.626 3.14565 3.07794 0
M  V30 3037 H 281.745 0.616667 0.403597 0
M  V30 3038 H 284.387 1.85845 0.395179 0
M  V30 3039 H 282.537 2.80387 2.68916 0
M  V30 3040 H 284.209 4.55147 0.750955 0
M  V30 3041 H 282.452 4.29088 0.637618 0
M  V30 3042 H 283.123 5.12926 2.03989 0
M  V30 3043 H 285.599 3.2756 2.56601 0
M  V30 3044 H 284.475 4.03297 3.72348 0
M  V30 3045 H 284.736 2.29675 3.77759 0
M  V30 3046 N 283.795 -0.628877 1.44509 0
M  V30 3047 C 285.043 -1.38565 1.4712 0
M  V30 3048 C 285.364 -1.94712 0.105899 0
M  V30 3049 O 284.634 -1.75912 -0.862079 0
M  V30 3050 H 283.214 -0.514333 0.541729 0
M  V30 3051 H 285.876 -0.740018 1.80305 0
M  V30 3052 H 284.972 -2.21583 2.19789 0
M  V30 3053 N 285.273 -1.31445 -0.869486 0
M  V30 3054 C 286.22 -1.19135 -1.97675 0
M  V30 3055 C 287.19 -0.0770266 -1.65921 0
M  V30 3056 O 288.375 -0.249972 -1.89155 0
M  V30 3057 C 285.515 -0.905149 -3.33018 0
M  V30 3058 C 284.628 -2.10285 -3.77365 0
M  V30 3059 C 283.763 -1.75339 -5.01427 0
M  V30 3060 C 282.802 -2.91515 -5.38224 0
M  V30 3061 N 281.939 -2.56762 -6.53466 0
M  V30 3062 H 286.779 -2.13853 -2.07535 0
M  V30 3063 H 284.316 -1.06379 -1.01597 0
M  V30 3064 H 286.274 -0.719765 -4.10944 0
M  V30 3065 H 284.904 0.00519624 -3.228 0
M  V30 3066 H 283.956 -2.39899 -2.95216 0
M  V30 3067 H 285.268 -2.97237 -4.00564 0
M  V30 3068 H 284.422 -1.53266 -5.87022 0
M  V30 3069 H 283.161 -0.855801 -4.80133 0
M  V30 3070 H 282.166 -3.14237 -4.51149 0
M  V30 3071 H 283.391 -3.81985 -5.61484 0
M  V30 3072 H 281.337 -1.69526 -6.33717 0
M  V30 3073 H 281.254 -3.37243 -6.76612 0
M  V30 3074 H 282.522 -2.38083 -7.42251 0
M  V30 3075 N 286.751 1.08385 -1.14413 0
M  V30 3076 C 288 1.80153 -0.907076 0
M  V30 3077 C 288.313 1.87176 0.567851 0
M  V30 3078 O 289.519 2.55359 0.922172 0
M  V30 3079 C 287.975 3.23687 -1.57336 0
M  V30 3080 C 287.583 3.24897 -3.08457 0
M  V30 3081 C 289.327 4.00136 -1.41744 0
M  V30 3082 C 287.234 4.6302 -3.67921 0
M  V30 3083 H 286.164 0.675139 -0.335714 0
M  V30 3084 H 288.815 1.21733 -1.37307 0
M  V30 3085 H 287.197 3.82234 -1.03505 0
M  V30 3086 H 288.371 2.76055 -3.68958 0
M  V30 3087 H 286.686 2.61943 -3.2369 0
M  V30 3088 H 289.283 5.02201 -1.83572 0
M  V30 3089 H 289.626 4.14709 -0.363576 0
M  V30 3090 H 290.159 3.48058 -1.92614 0
M  V30 3091 H 286.898 4.5365 -4.73161 0
M  V30 3092 H 286.418 5.12143 -3.12201 0
M  V30 3093 H 288.097 5.31994 -3.68227 0
M  V30 3094 N 288.23 0.939286 1.26551 0
M  V30 3095 C 289.476 0.586715 1.94128 0
M  V30 3096 C 289.809 -0.8717 1.73537 0
M  V30 3097 O 289.084 -1.62339 1.07127 0
M  V30 3098 C 289.367 0.927497 3.4795 0
M  V30 3099 C 289.22 2.44052 3.77834 0
M  V30 3100 C 290.539 0.441569 4.37879 0
M  V30 3101 H 287.658 0.21463 0.705055 0
M  V30 3102 H 290.3 1.17316 1.49455 0
M  V30 3103 H 288.45 0.428431 3.8613 0
M  V30 3104 H 290.122 3.01216 3.4938 0
M  V30 3105 H 288.365 2.8848 3.23978 0
M  V30 3106 H 289.036 2.62947 4.85348 0
M  V30 3107 H 291.512 0.869448 4.06915 0
M  V30 3108 H 290.388 0.708856 5.44304 0
M  V30 3109 H 290.649 -0.658467 4.37169 0
M  V30 3110 N 289.708 -1.40897 0.706093 0
M  V30 3111 C 290.641 -2.282 -0.00328781 0
M  V30 3112 C 291.619 -1.42816 -0.77732 0
M  V30 3113 O 292.803 -1.72237 -0.765944 0
M  V30 3114 C 289.93 -3.23226 -1.01205 0
M  V30 3115 C 288.976 -4.25222 -0.329955 0
M  V30 3116 S 289.809 -5.27269 0.935298 0
M  V30 3117 C 290.965 -6.25859 -0.0716061 0
M  V30 3118 H 291.198 -2.88016 0.737143 0
M  V30 3119 H 288.731 -1.46191 0.496756 0
M  V30 3120 H 290.689 -3.78503 -1.58888 0
M  V30 3121 H 289.35 -2.62485 -1.72513 0
M  V30 3122 H 288.543 -4.92023 -1.09221 0
M  V30 3123 H 288.145 -3.73595 0.174069 0
M  V30 3124 H 290.437 -6.71204 -0.921521 0
M  V30 3125 H 291.38 -7.0586 0.562765 0
M  V30 3126 H 291.788 -5.62852 -0.431088 0
M  V30 3127 N 291.186 -0.45159 -1.50991 0
M  V30 3128 C 292.414 0.108334 -2.06616 0
M  V30 3129 C 292.829 1.35224 -1.31757 0
M  V30 3130 O 292.186 1.78475 -0.381174 0
M  V30 3131 C 292.237 0.41619 -3.59096 0
M  V30 3132 O 291.958 -0.778361 -4.3113 0
M  V30 3133 C 293.459 1.02523 -4.31282 0
M  V30 3134 H 290.679 0.00159995 -0.670998 0
M  V30 3135 H 293.223 -0.634771 -1.94399 0
M  V30 3136 H 291.378 1.10921 -3.71181 0
M  V30 3137 H 291.792 -0.511181 -5.22003 0
M  V30 3138 H 293.266 1.19053 -5.39009 0
M  V30 3139 H 293.743 2.01013 -3.905 0
M  V30 3140 H 294.349 0.371173 -4.23677 0
M  V30 3141 N 292.664 1.56529 -0.183458 0
M  V30 3142 C 293.627 2.17324 0.728223 0
M  V30 3143 C 294.627 1.12453 1.14939 0
M  V30 3144 O 295.817 1.37902 1.06437 0
M  V30 3145 C 292.949 2.76591 1.99274 0
M  V30 3146 H 294.142 2.99241 0.198772 0
M  V30 3147 H 291.695 1.5616 0.0661391 0
M  V30 3148 H 292.43 1.98441 2.56499 0
M  V30 3149 H 292.215 3.5335 1.69959 0
M  V30 3150 H 293.705 3.23311 2.6431 0
M  V30 3151 N 294.142 -0.090211 1.57342 0
M  V30 3152 C 295.105 -1.09335 2.01441 0
M  V30 3153 C 296.105 -1.32666 0.908641 0
M  V30 3154 O 297.295 -1.28697 1.174 0
M  V30 3155 C 294.427 -2.44136 2.3793 0
M  V30 3156 H 295.62 -0.713662 2.91285 0
M  V30 3157 H 293.173 -0.335404 1.52659 0
M  V30 3158 H 293.908 -2.86972 1.51055 0
M  V30 3159 H 293.693 -2.28548 3.18603 0
M  V30 3160 H 295.183 -3.16277 2.72688 0
M  V30 3161 N 295.62 -1.53406 -0.361157 0
M  V30 3162 C 296.583 -1.79479 -1.42548 0
M  V30 3163 C 297.583 -0.665327 -1.4639 0
M  V30 3164 O 298.773 -0.933549 -1.47073 0
M  V30 3165 C 295.905 -1.92087 -2.8163 0
M  V30 3166 H 297.098 -2.74538 -1.20701 0
M  V30 3167 H 294.651 -1.4455 -0.594546 0
M  V30 3168 H 295.386 -0.991099 -3.08784 0
M  V30 3169 H 295.171 -2.74241 -2.80239 0
M  V30 3170 H 296.661 -2.13836 -3.58697 0
M  V30 3171 N 297.098 0.621204 -1.44841 0
M  V30 3172 C 298.045 1.73267 -1.5247 0
M  V30 3173 C 299.015 1.6189 -0.371611 0
M  V30 3174 O 300.2 1.81668 -0.58321 0
M  V30 3175 C 297.34 3.11545 -1.48438 0
M  V30 3176 C 296.453 3.33827 -2.74196 0
M  V30 3177 C 295.588 4.62133 -2.61929 0
M  V30 3178 C 294.627 4.77627 -3.82804 0
M  V30 3179 N 293.764 5.97219 -3.69153 0
M  V30 3180 H 298.604 1.66082 -2.47428 0
M  V30 3181 H 296.141 0.810026 -1.22788 0
M  V30 3182 H 298.099 3.91528 -1.4409 0
M  V30 3183 H 296.729 3.1772 -0.570402 0
M  V30 3184 H 295.781 2.47715 -2.88689 0
M  V30 3185 H 297.093 3.41153 -3.6389 0
M  V30 3186 H 296.247 5.50291 -2.5547 0
M  V30 3187 H 294.986 4.57182 -1.69811 0
M  V30 3188 H 293.991 3.87896 -3.89637 0
M  V30 3189 H 295.216 4.84385 -4.75971 0
M  V30 3190 H 293.162 5.93339 -2.79794 0
M  V30 3191 H 293.079 6.05644 -4.52472 0
M  V30 3192 H 294.347 6.87912 -3.66603 0
M  V30 3193 N 298.576 1.31904 0.862503 0
M  V30 3194 C 299.526 1.16772 1.95827 0
M  V30 3195 C 300.51 0.0767098 1.60717 0
M  V30 3196 O 301.702 0.302407 1.74398 0
M  V30 3197 C 298.831 0.884858 3.317 0
M  V30 3198 C 297.917 2.0172 3.73055 0
M  V30 3199 N 298.308 3.265 3.86305 0
M  V30 3200 C 296.606 1.91861 4.02623 0
M  V30 3201 C 297.307 4.00616 4.2176 0
M  V30 3202 N 296.283 3.28847 4.32852 0
M  V30 3203 H 300.085 2.11382 2.04193 0
M  V30 3204 H 297.599 1.2357 1.05377 0
M  V30 3205 H 299.596 0.757419 4.09962 0
M  V30 3206 H 298.256 -0.0529448 3.24657 0
M  V30 3207 H 299.267 3.61529 3.70833 0
M  V30 3208 H 295.944 1.05593 4.03926 0
M  V30 3209 H 297.334 5.08182 4.39546 0
M  V30 3210 N 300.054 -1.07777 1.14986 0
M  V30 3211 C 300.984 -2.16865 0.865557 0
M  V30 3212 C 301.965 -1.69123 -0.182083 0
M  V30 3213 O 303.15 -1.94164 -0.0373815 0
M  V30 3214 C 300.28 -3.45539 0.349313 0
M  V30 3215 C 299.234 -4.06708 1.33313 0
M  V30 3216 C 298.56 -5.30411 0.675918 0
M  V30 3217 C 299.86 -4.47241 2.69764 0
M  V30 3218 H 301.554 -2.40905 1.77778 0
M  V30 3219 H 299.1 -1.15781 0.856203 0
M  V30 3220 H 301.053 -4.21174 0.137983 0
M  V30 3221 H 299.777 -3.21072 -0.598362 0
M  V30 3222 H 298.436 -3.33112 1.53075 0
M  V30 3223 H 298.084 -5.02232 -0.277767 0
M  V30 3224 H 297.784 -5.72293 1.33244 0
M  V30 3225 H 299.308 -6.08755 0.474262 0
M  V30 3226 H 300.722 -5.14025 2.53873 0
M  V30 3227 H 299.119 -5.00062 3.3175 0
M  V30 3228 H 300.189 -3.58818 3.26156 0
M  V30 3229 N 301.532 -0.945985 -1.26051 0
M  V30 3230 C 302.76 -0.613025 -1.9761 0
M  V30 3231 C 303.175 0.813035 -1.70397 0
M  V30 3232 O 302.532 1.54274 -0.974979 0
M  V30 3233 C 302.583 -0.85159 -3.51326 0
M  V30 3234 O 302.304 -2.22157 -3.77595 0
M  V30 3235 C 303.805 -0.529831 -4.40122 0
M  V30 3236 H 301.025 -0.230593 -0.630133 0
M  V30 3237 H 303.569 -1.268 -1.60443 0
M  V30 3238 H 301.724 -0.243151 -3.86636 0
M  V30 3239 H 302.138 -2.2852 -4.721 0
M  V30 3240 H 303.612 -0.747348 -5.46917 0
M  V30 3241 H 304.089 0.535341 -4.35925 0
M  V30 3242 H 304.695 -1.11721 -4.10364 0
M  V30 3243 N 303.011 1.40521 -0.713556 0
M  V30 3244 C 304.422 1.83853 -0.324807 0
M  V30 3245 C 304.773 1.59667 1.14021 0
M  V30 3246 O 303.898 1.07649 1.87725 0
M  V30 3247 C 304.493 3.33751 -0.582746 0
M  V30 3248 C 303.052 3.75584 -0.247727 0
M  V30 3249 C 302.199 2.63753 -0.856121 0
M  V30 3250 H 305.15 1.29817 -0.91286 0
M  V30 3251 H 305.171 3.80194 0.152682 0
M  V30 3252 H 304.683 3.51322 -1.64908 0
M  V30 3253 H 302.784 3.63608 0.813624 0
M  V30 3254 H 302.897 4.7373 -0.715307 0
M  V30 3255 H 301.261 2.53108 -0.28432 0
M  V30 3256 H 302.044 2.84137 -1.92668 0
M  V30 3257 N 304.489 0.459591 1.5075 0
M  V30 3258 C 305.735 -0.0994966 2.02556 0
M  V30 3259 C 306.068 -1.40399 1.3417 0
M  V30 3260 O 305.343 -1.88892 0.463683 0
M  V30 3261 C 305.626 -0.295242 3.58888 0
M  V30 3262 C 305.479 1.02947 4.37861 0
M  V30 3263 C 306.798 -1.05502 4.27267 0
M  V30 3264 H 303.917 -0.034686 0.736183 0
M  V30 3265 H 306.559 0.602938 1.8018 0
M  V30 3266 H 304.709 -0.893563 3.78084 0
M  V30 3267 H 306.381 1.66348 4.30263 0
M  V30 3268 H 304.624 1.62885 4.02058 0
M  V30 3269 H 305.295 0.846281 5.45474 0
M  V30 3270 H 307.771 -0.547993 4.12476 0
M  V30 3271 H 306.647 -1.16077 5.36486 0
M  V30 3272 H 306.908 -2.08875 3.89645 0
M  V30 3273 N 305.967 -1.56429 0.191757 0
M  V30 3274 C 307.195 -2.01867 -0.453586 0
M  V30 3275 C 307.61 -1.07191 -1.5542 0
M  V30 3276 O 306.967 -0.0762108 -1.82341 0
M  V30 3277 C 307.018 -3.47017 -1.013 0
M  V30 3278 O 306.739 -4.38078 0.0437005 0
M  V30 3279 C 308.24 -4.07956 -1.73456 0
M  V30 3280 H 305.46 -0.661211 -0.114199 0
M  V30 3281 H 308.004 -2.02295 0.299483 0
M  V30 3282 H 306.159 -3.47298 -1.71647 0
M  V30 3283 H 306.573 -5.23178 -0.372212 0
M  V30 3284 H 308.047 -5.1138 -2.07833 0
M  V30 3285 H 308.524 -3.51222 -2.63704 0
M  V30 3286 H 309.13 -4.11437 -1.07702 0
M  V30 3287 N 307.445 0.0818655 -1.57387 0
M  V30 3288 C 308.375 1.09885 -2.06028 0
M  V30 3289 C 309.356 1.4098 -0.951774 0
M  V30 3290 O 310.541 1.50781 -1.22387 0
M  V30 3291 C 307.671 2.4151 -2.4958 0
M  V30 3292 C 306.625 2.24792 -3.64215 0
M  V30 3293 C 305.951 3.61712 -3.93787 0
M  V30 3294 C 307.251 1.67749 -4.94629 0
M  V30 3295 H 308.945 0.694128 -2.91243 0
M  V30 3296 H 306.491 0.332448 -1.4011 0
M  V30 3297 H 308.444 3.12939 -2.82219 0
M  V30 3298 H 307.168 2.83943 -1.61381 0
M  V30 3299 H 305.827 1.55807 -3.31843 0
M  V30 3300 H 305.475 4.01697 -3.02735 0
M  V30 3301 H 305.175 3.51368 -4.70971 0
M  V30 3302 H 306.699 4.34587 -4.28913 0
M  V30 3303 H 308.113 2.29032 -5.25564 0
M  V30 3304 H 306.51 1.68128 -5.76067 0
M  V30 3305 H 307.58 0.638059 -4.80684 0
M  V30 3306 N 308.923 1.53595 0.353017 0
M  V30 3307 C 309.833 1.83897 1.45667 0
M  V30 3308 C 310.849 0.728334 1.58023 0
M  V30 3309 O 312.025 1.01968 1.73679 0
M  V30 3310 C 309.09 2.03383 2.80778 0
M  V30 3311 C 308.151 3.27262 2.77845 0
M  V30 3312 C 307.384 3.45809 4.06512 0
M  V30 3313 O 307.607 2.68387 5.03314 0
M  V30 3314 O 306.541 4.39207 4.11559 0
M  V30 3315 H 310.367 2.77686 1.2298 0
M  V30 3316 H 307.952 1.39132 0.544308 0
M  V30 3317 H 309.834 2.17698 3.60812 0
M  V30 3318 H 308.509 1.12783 3.03417 0
M  V30 3319 H 307.416 3.18359 1.96465 0
M  V30 3320 H 308.749 4.17824 2.60161 0
M  V30 3321 N 310.401 -0.613514 1.45168 0
M  V30 3322 C 311.331 -1.7354 1.56225 0
M  V30 3323 C 312.312 -1.64981 0.41414 0
M  V30 3324 O 313.497 -1.83472 0.636526 0
M  V30 3325 C 310.627 -3.12128 1.52295 0
M  V30 3326 C 309.581 -3.35491 2.65762 0
M  V30 3327 C 308.907 -4.74291 2.46885 0
M  V30 3328 C 310.207 -3.26325 4.0781 0
M  V30 3329 H 311.901 -1.64543 2.50132 0
M  V30 3330 H 309.447 -0.790185 1.20383 0
M  V30 3331 H 311.4 -3.90404 1.58628 0
M  V30 3332 H 310.124 -3.2195 0.549139 0
M  V30 3333 H 308.783 -2.59603 2.58847 0
M  V30 3334 H 308.431 -4.80839 1.47657 0
M  V30 3335 H 308.131 -4.9088 3.22972 0
M  V30 3336 H 309.655 -5.54775 2.55063 0
M  V30 3337 H 311.069 -3.94483 4.16 0
M  V30 3338 H 309.466 -3.54445 4.8424 0
M  V30 3339 H 310.536 -2.23855 4.30136 0
M  V30 3340 N 311.879 -1.3236 -0.855495 0
M  V30 3341 C 313.127 -1.22629 -1.60644 0
M  V30 3342 C 313.448 0.212136 -1.93843 0
M  V30 3343 O 312.718 1.13666 -1.59552 0
M  V30 3344 H 311.298 -0.450882 -0.595579 0
M  V30 3345 H 313.96 -1.65871 -1.02337 0
M  V30 3346 H 313.056 -1.80832 -2.54374 0
M  V30 3347 N 313.357 1.07166 -1.15556 0
M  V30 3348 C 314.605 1.79443 -0.929764 0
M  V30 3349 C 314.926 1.87246 0.544414 0
M  V30 3350 O 314.196 1.37473 1.39564 0
M  V30 3351 H 312.776 0.664625 -0.341003 0
M  V30 3352 H 315.438 1.29499 -1.45657 0
M  V30 3353 H 314.534 2.81832 -1.34079 0
M  V30 3354 N 314.835 0.952656 1.25548 0
M  V30 3355 C 315.782 0.47008 2.25962 0
M  V30 3356 C 316.752 -0.476384 1.59122 0
M  V30 3357 O 317.937 -0.39007 1.8677 0
M  V30 3358 C 315.077 -0.247881 3.44209 0
M  V30 3359 C 314.19 0.735591 4.25691 0
M  V30 3360 C 313.325 -0.0047306 5.312 0
M  V30 3361 C 312.364 0.969805 6.04368 0
M  V30 3362 N 311.501 0.260486 7.01617 0
M  V30 3363 H 316.341 1.33126 2.66611 0
M  V30 3364 H 313.878 0.66765 1.31076 0
M  V30 3365 H 315.836 -0.680695 4.1161 0
M  V30 3366 H 314.466 -1.07312 3.0444 0
M  V30 3367 H 313.518 1.28689 3.57971 0
M  V30 3368 H 314.83 1.47934 4.76358 0
M  V30 3369 H 313.984 -0.496275 6.04667 0
M  V30 3370 H 312.723 -0.781282 4.81401 0
M  V30 3371 H 311.728 1.47237 5.29718 0
M  V30 3372 H 312.953 1.74655 6.56256 0
M  V30 3373 H 310.899 -0.497364 6.54112 0
M  V30 3374 H 310.816 0.943362 7.50091 0
M  V30 3375 H 312.084 -0.209587 7.79218 0
M  V30 3376 N 316.313 -1.40141 0.720998 0
M  V30 3377 C 317.261 -2.3252 0.0608547 0
M  V30 3378 C 318.255 -1.52326 -0.741152 0
M  V30 3379 O 319.461 -1.68089 -0.643911 0
M  V30 3380 H 315.836 -0.751999 0.000876664 0
M  V30 3381 H 317.807 -2.8584 0.856614 0
M  V30 3382 C 316.556 -3.37331 -0.842809 0
M  V30 3383 H 315.879 -3.99108 -0.235084 0
M  V30 3384 H 317.319 -4.04452 -1.27257 0
M  V30 3385 C 315.778 -2.73246 -1.97074 0
M  V30 3386 O 316.308 -2.59998 -3.06209 0
M  V30 3387 N 314.514 -2.31547 -1.75597 0
M  V30 3388 H 314.061 -2.42522 -0.868368 0
M  V30 3389 H 314.019 -1.89007 -2.51244 0
M  V30 3390 N 317.792 -0.46758 -1.50504 0
M  V30 3391 C 319.203 -0.0116166 -1.86696 0
M  V30 3392 C 319.554 1.39202 -1.38265 0
M  V30 3393 O 318.679 2.0313 -0.746132 0
M  V30 3394 C 319.274 -0.0143044 -3.38797 0
M  V30 3395 C 317.833 0.386175 -3.74414 0
M  V30 3396 C 316.98 -0.401287 -2.74381 0
M  V30 3397 H 319.931 -0.682022 -1.43297 0
M  V30 3398 H 319.952 0.788641 -3.72237 0
M  V30 3399 H 319.464 -1.03602 -3.74016 0
M  V30 3400 H 317.565 1.41237 -3.44794 0
M  V30 3401 H 317.678 0.0899596 -4.79016 0
M  V30 3402 H 316.042 0.144536 -2.5429 0
M  V30 3403 H 316.825 -1.42244 -3.12444 0
M  V30 3404 N 319.27 1.56325 -0.20005 0
M  V30 3405 C 320.51 1.99619 0.439519 0
M  V30 3406 C 320.874 1.08423 1.58456 0
M  V30 3407 O 322.075 1.40973 2.28867 0
M  V30 3408 C 320.346 3.46314 0.883258 0
M  V30 3409 S 321.905 4.11634 1.51997 0
M  V30 3410 H 318.723 0.697007 0.140363 0
M  V30 3411 H 321.325 1.93118 -0.304282 0
M  V30 3412 H 320.029 4.10381 0.0398967 0
M  V30 3413 H 319.56 3.56643 1.6604 0
M  V30 3414 H 321.575 4.09049 2.8088 0
M  V30 3415 N 320.748 -0.0735177 1.57428 0
M  V30 3416 C 321.978 -0.78483 1.91112 0
M  V30 3417 C 322.386 -1.71729 0.7941 0
M  V30 3418 O 321.729 -1.82105 -0.241542 0
M  V30 3419 C 321.791 -1.63346 3.20247 0
M  V30 3420 C 321.455 -0.870557 4.48632 0
M  V30 3421 C 322.452 -0.19058 5.19551 0
M  V30 3422 C 320.137 -0.838242 4.95256 0
M  V30 3423 C 322.131 0.511503 6.35344 0
M  V30 3424 C 319.818 -0.132386 6.10957 0
M  V30 3425 C 320.816 0.541288 6.80852 0
M  V30 3426 O 320.504 1.23578 7.94345 0
M  V30 3427 H 320.236 -0.228408 0.636244 0
M  V30 3428 H 322.79 -0.0486039 2.05342 0
M  V30 3429 H 321.02 -2.41245 3.02222 0
M  V30 3430 H 322.709 -2.22329 3.39595 0
M  V30 3431 H 323.475 -0.206864 4.84559 0
M  V30 3432 H 319.354 -1.35206 4.40727 0
M  V30 3433 H 322.898 1.03789 6.89836 0
M  V30 3434 H 318.795 -0.114023 6.45399 0
M  V30 3435 H 319.563 1.14487 8.10454 0
M  V30 3436 N 322.226 -1.5378 -0.344866 0
M  V30 3437 C 323.472 -1.71216 -1.08687 0
M  V30 3438 C 323.805 -0.473281 -1.88345 0
M  V30 3439 O 323.08 0.52968 -1.87149 0
M  V30 3440 C 323.363 -2.97486 -2.02914 0
M  V30 3441 C 323.216 -4.31579 -1.26727 0
M  V30 3442 C 324.535 -3.19422 -3.0275 0
M  V30 3443 H 321.654 -0.62301 -0.393735 0
M  V30 3444 H 324.296 -1.8645 -0.365563 0
M  V30 3445 H 322.446 -2.84629 -2.64421 0
M  V30 3446 H 324.118 -4.56284 -0.67845 0
M  V30 3447 H 322.361 -4.30049 -0.569273 0
M  V30 3448 H 323.032 -5.16106 -1.95803 0
M  V30 3449 H 325.508 -3.316 -2.51357 0
M  V30 3450 H 324.384 -4.09169 -3.65885 0
M  V30 3451 H 324.645 -2.35656 -3.74057 0
M  V30 3452 N 323.704 0.605807 -1.45491 0
M  V30 3453 C 324.981 1.36522 -1.40075 0
M  V30 3454 C 325.361 2.10976 -0.0722744 0
M  V30 3455 O 324.709 2.08007 0.945808 0
M  V30 3456 C 324.919 2.31056 -2.61561 0
M  V30 3457 C 326.267 2.93608 -3.06724 0
M  V30 3458 O 327.291 2.41376 -2.61946 0
M  V30 3459 O 326.15 3.88421 -3.84437 0
M  V30 3460 H 323.244 0.612248 -0.555951 0
M  V30 3461 H 325.79 0.628747 -1.57623 0
M  V30 3462 H 324.562 1.75311 -3.49831 0
M  V30 3463 H 324.185 3.12081 -2.46356 0
M  V30 3464 N 325.182 1.32811 0.848464 0
M  V30 3465 C 326.459 1.14334 1.58704 0
M  V30 3466 C 326.839 -0.293948 2.09043 0
M  V30 3467 O 326.187 -1.29153 1.88499 0
M  V30 3468 C 326.397 2.17626 2.72837 0
M  V30 3469 C 327.745 2.51282 3.42261 0
M  V30 3470 O 328.769 2.16219 2.83068 0
M  V30 3471 O 327.628 3.11413 4.49093 0
M  V30 3472 H 324.722 0.441601 0.699226 0
M  V30 3473 H 327.268 1.44362 0.892053 0
M  V30 3474 H 326.04 3.14211 2.3321 0
M  V30 3475 H 325.663 1.88628 3.50008 0
M  V30 3476 N 326.66 -1.06551 1.16123 0
M  V30 3477 C 327.608 -2.16063 0.861371 0
M  V30 3478 C 328.602 -1.6856 -0.168517 0
M  V30 3479 O 329.808 -1.79986 -0.0227579 0
M  V30 3480 H 326.183 -0.705278 0.260934 0
M  V30 3481 H 328.154 -2.38567 1.79244 0
M  V30 3482 C 326.903 -3.45661 0.376018 0
M  V30 3483 H 326.226 -3.82604 1.15992 0
M  V30 3484 H 327.666 -4.23504 0.204951 0
M  V30 3485 C 326.125 -3.24546 -0.903954 0
M  V30 3486 O 326.655 -3.49865 -1.97377 0
M  V30 3487 N 324.861 -2.77992 -0.846679 0
M  V30 3488 H 324.408 -2.57589 0.0241017 0
M  V30 3489 H 324.366 -2.64244 -1.70359 0
M  V30 3490 N 328.138 -0.959301 -1.25041 0
M  V30 3491 C 329.378 -0.624343 -1.94631 0
M  V30 3492 C 329.742 0.82403 -1.73418 0
M  V30 3493 O 330.943 1.26881 -2.3697 0
M  V30 3494 C 329.214 -0.978805 -3.43736 0
M  V30 3495 S 330.773 -0.757127 -4.32219 0
M  V30 3496 H 327.591 -0.229327 -0.673001 0
M  V30 3497 H 330.193 -1.23447 -1.51595 0
M  V30 3498 H 328.897 -2.02997 -3.56679 0
M  V30 3499 H 328.428 -0.359117 -3.91757 0
M  V30 3500 H 330.443 0.369759 -4.9482 0
M  V30 3501 N 329.616 1.39756 -0.72842 0
M  V30 3502 C 330.893 1.94574 -0.200079 0
M  V30 3503 C 331.273 1.66569 1.29684 0
M  V30 3504 O 330.621 0.990326 2.05924 0
M  V30 3505 C 330.831 3.45004 -0.526608 0
M  V30 3506 C 332.179 4.21965 -0.472318 0
M  V30 3507 O 333.203 3.53173 -0.463413 0
M  V30 3508 O 332.062 5.44552 -0.461075 0
M  V30 3509 H 329.156 0.826289 -0.0342851 0
M  V30 3510 H 331.702 1.49293 -0.806829 0
M  V30 3511 H 330.474 3.58796 -1.56144 0
M  V30 3512 H 330.097 3.97449 0.109449 0
M  V30 3513 N 331.094 0.475555 1.50254 0
M  V30 3514 C 332.505 0.0215174 1.86688 0
M  V30 3515 C 332.856 -1.38467 1.39001 0
M  V30 3516 O 331.981 -2.02732 0.756894 0
M  V30 3517 C 332.576 0.0322715 3.38785 0
M  V30 3518 C 331.135 -0.366314 3.74613 0
M  V30 3519 C 330.282 0.415832 2.74164 0
M  V30 3520 H 333.233 0.689612 1.42934 0
M  V30 3521 H 333.254 -0.76889 3.7265 0
M  V30 3522 H 332.766 1.05584 3.73462 0
M  V30 3523 H 330.867 -1.39406 3.45538 0
M  V30 3524 H 330.98 -0.064555 4.79057 0
M  V30 3525 H 329.344 -0.131048 2.54363 0
M  V30 3526 H 330.127 1.43899 3.11686 0
M  V30 3527 N 332.573 -1.56217 0.208337 0
M  V30 3528 C 333.505 -2.1695 -0.739276 0
M  V30 3529 C 334.518 -1.13492 -1.1672 0
M  V30 3530 O 335.707 -1.40529 -1.10063 0
M  V30 3531 C 332.807 -2.72755 -2.01142 0
M  V30 3532 C 331.98 -4.0125 -1.74118 0
M  V30 3533 C 331.039 -4.41749 -2.85909 0
M  V30 3534 O 330.065 -5.08912 -2.54946 0
M  V30 3535 N 331.267 -4.06342 -4.14568 0
M  V30 3536 H 334.032 -2.98893 -0.219837 0
M  V30 3537 H 331.593 -1.61878 0.0268445 0
M  V30 3538 H 333.585 -2.96826 -2.75094 0
M  V30 3539 H 332.155 -1.95191 -2.4417 0
M  V30 3540 H 331.375 -3.85173 -0.838775 0
M  V30 3541 H 332.663 -4.851 -1.53477 0
M  V30 3542 H 332.061 -3.52345 -4.42571 0
M  V30 3543 H 330.618 -4.35335 -4.85105 0
M  V30 3544 N 334.051 0.0651679 -1.57465 0
M  V30 3545 C 335.279 0.775808 -1.91804 0
M  V30 3546 C 335.694 1.70782 -0.804916 0
M  V30 3547 O 335.051 1.81153 0.221311 0
M  V30 3548 C 335.102 1.56381 -3.25925 0
M  V30 3549 O 334.823 0.669248 -4.32958 0
M  V30 3550 C 336.324 2.37485 -3.7432 0
M  V30 3551 H 333.544 0.2202 -0.63384 0
M  V30 3552 H 336.088 0.0334587 -2.04473 0
M  V30 3553 H 334.243 2.25837 -3.14764 0
M  V30 3554 H 334.657 1.21801 -5.10162 0
M  V30 3555 H 336.131 2.88223 -4.70778 0
M  V30 3556 H 336.608 3.17307 -3.03666 0
M  V30 3557 H 337.214 1.73173 -3.88447 0
M  V30 3558 N 335.529 1.53961 0.336706 0
M  V30 3559 C 336.775 1.7179 1.07777 0
M  V30 3560 C 337.108 0.483263 1.88091 0
M  V30 3561 O 336.383 -0.519747 1.87427 0
M  V30 3562 C 336.666 2.98558 2.01334 0
M  V30 3563 C 336.519 4.32245 1.24437 0
M  V30 3564 C 337.838 3.21023 3.01052 0
M  V30 3565 H 334.957 0.625089 0.390426 0
M  V30 3566 H 337.599 1.86641 0.35567 0
M  V30 3567 H 335.749 2.86028 2.62908 0
M  V30 3568 H 337.421 4.56637 0.654243 0
M  V30 3569 H 335.664 4.30344 0.546458 0
M  V30 3570 H 336.335 5.17137 1.93063 0
M  V30 3571 H 338.811 3.32929 2.49595 0
M  V30 3572 H 337.687 4.11104 3.6371 0
M  V30 3573 H 337.948 2.37637 3.72802 0
M  V30 3574 N 337.007 -0.598083 1.45811 0
M  V30 3575 C 337.97 -1.69018 1.54808 0
M  V30 3576 C 338.97 -1.55037 0.426652 0
M  V30 3577 O 340.16 -1.59932 0.690456 0
M  V30 3578 C 337.292 -3.0835 1.45371 0
M  V30 3579 H 338.485 -1.62403 2.52121 0
M  V30 3580 H 336.038 -0.814626 1.33392 0
M  V30 3581 H 336.773 -3.20534 0.492793 0
M  V30 3582 H 336.558 -3.19907 2.26721 0
M  V30 3583 H 338.048 -3.8788 1.54721 0
M  V30 3584 N 338.485 -1.33259 -0.841409 0
M  V30 3585 C 339.433 -1.23279 -1.97244 0
M  V30 3586 C 340.427 -0.134706 -1.68864 0
M  V30 3587 O 341.633 -0.298501 -1.77508 0
M  V30 3588 H 338.008 -0.382497 -0.647457 0
M  V30 3589 H 339.979 -2.18906 -2.02787 0
M  V30 3590 C 338.728 -0.986268 -3.33419 0
M  V30 3591 H 338.051 -1.82347 -3.55794 0
M  V30 3592 H 339.491 -0.956728 -4.13065 0
M  V30 3593 C 337.95 0.310842 -3.35463 0
M  V30 3594 O 338.48 1.31838 -3.79449 0
M  V30 3595 N 336.686 0.337485 -2.88634 0
M  V30 3596 H 336.233 -0.482967 -2.53032 0
M  V30 3597 H 336.191 1.20518 -2.90384 0
M  V30 3598 N 339.963 1.05934 -1.16686 0
M  V30 3599 C 341.379 1.30938 -0.912542 0
M  V30 3600 C 341.579 1.96803 0.432533 0
M  V30 3601 O 340.635 2.23693 1.17123 0
M  V30 3602 C 341.948 2.18649 -2.06429 0
M  V30 3603 C 343.496 2.32055 -2.10047 0
M  V30 3604 C 343.971 3.23122 -3.24586 0
M  V30 3605 N 345.462 3.30706 -3.24327 0
M  V30 3606 C 346.197 4.01273 -4.09594 0
M  V30 3607 N 345.693 4.74332 -5.04956 0
M  V30 3608 N 347.486 3.97361 -3.97569 0
M  V30 3609 H 339.637 0.615777 -2.03278 0
M  V30 3610 H 341.9 0.334077 -0.887185 0
M  V30 3611 H 341.606 1.77534 -3.03603 0
M  V30 3612 H 341.48 3.19252 -2.00894 0
M  V30 3613 H 343.867 2.72415 -1.13464 0
M  V30 3614 H 343.948 1.31107 -2.19647 0
M  V30 3615 H 343.592 2.83477 -4.2143 0
M  V30 3616 H 343.522 4.24057 -3.12223 0
M  V30 3617 H 346.013 2.78644 -2.55276 0
M  V30 3618 H 346.326 5.25716 -5.6643 0
M  V30 3619 H 344.671 4.733 -5.08933 0
M  V30 3620 H 347.862 3.39405 -3.22369 0
M  V30 3621 H 348.035 4.52089 -4.64241 0
M  V30 3622 N 341.441 0.965919 1.2453 0
M  V30 3623 C 342.687 0.62776 1.92839 0
M  V30 3624 C 343.02 -0.834694 1.75347 0
M  V30 3625 O 342.295 -1.60031 1.10546 0
M  V30 3626 C 342.578 1.00109 3.45905 0
M  V30 3627 C 342.431 2.52011 3.72573 0
M  V30 3628 C 343.75 0.53435 4.36844 0
M  V30 3629 H 340.869 0.229537 0.700344 0
M  V30 3630 H 343.511 1.2046 1.46933 0
M  V30 3631 H 341.661 0.510238 3.85135 0
M  V30 3632 H 343.333 3.08559 3.42912 0
M  V30 3633 H 341.576 2.95287 3.17786 0
M  V30 3634 H 342.247 2.73183 4.79661 0
M  V30 3635 H 344.723 0.955565 4.04979 0
M  V30 3636 H 343.599 0.824152 5.42678 0
M  V30 3637 H 343.86 -0.565589 4.38467 0
M  V30 3638 N 342.919 -1.39368 0.735821 0
M  V30 3639 C 343.882 -2.2896 0.104874 0
M  V30 3640 C 344.882 -1.46347 -0.666274 0
M  V30 3641 O 346.072 -1.67014 -0.49517 0
M  V30 3642 C 343.204 -3.29857 -0.860656 0
M  V30 3643 H 344.397 -2.86259 0.894205 0
M  V30 3644 H 341.95 -1.48029 0.501704 0
M  V30 3645 H 342.685 -2.77615 -1.67631 0
M  V30 3646 H 342.47 -3.9087 -0.310327 0
M  V30 3647 H 343.96 -3.96893 -1.29867 0
M  V30 3648 N 344.397 -0.483516 -1.5 0
M  V30 3649 C 345.643 0.0593261 -2.03313 0
M  V30 3650 C 345.998 1.36288 -1.35806 0
M  V30 3651 O 345.291 1.85519 -0.478897 0
M  V30 3652 C 345.485 0.286226 -3.56252 0
M  V30 3653 C 345.314 -0.993788 -4.38582 0
M  V30 3654 C 344.084 -1.54064 -4.81241 0
M  V30 3655 C 346.282 -1.89249 -4.78215 0
M  V30 3656 N 344.264 -2.76838 -5.47936 0
M  V30 3657 C 345.635 -2.96606 -5.44449 0
M  V30 3658 C 347.69 -1.90138 -4.60165 0
M  V30 3659 C 346.393 -4.04857 -5.94544 0
M  V30 3660 C 348.419 -2.97353 -5.1121 0
M  V30 3661 C 347.781 -4.03429 -5.77429 0
M  V30 3662 H 343.88 -0.0186322 -0.781778 0
M  V30 3663 H 346.464 -0.654489 -1.8337 0
M  V30 3664 H 344.635 0.969086 -3.76116 0
M  V30 3665 H 346.367 0.824515 -3.96212 0
M  V30 3666 H 343.122 -1.08813 -4.6093 0
M  V30 3667 H 343.546 -3.39221 -5.85882 0
M  V30 3668 H 348.188 -1.09441 -4.0839 0
M  V30 3669 H 345.906 -4.86363 -6.4535 0
M  V30 3670 H 349.492 -2.99039 -4.99066 0
M  V30 3671 H 348.372 -4.85025 -6.16214 0
M  V30 3672 N 345.875 1.56104 -0.216619 0
M  V30 3673 C 347.122 1.98172 0.416416 0
M  V30 3674 C 347.45 1.10413 1.60122 0
M  V30 3675 O 346.705 0.147967 1.9514 0
M  V30 3676 C 347.004 3.45923 0.898464 0
M  V30 3677 C 346.67 4.50559 -0.175288 0
M  V30 3678 C 345.332 4.78897 -0.470271 0
M  V30 3679 C 347.684 5.1334 -0.901728 0
M  V30 3680 C 345.012 5.67299 -1.4963 0
M  V30 3681 C 347.364 6.02853 -1.91705 0
M  V30 3682 C 346.028 6.29537 -2.21901 0
M  V30 3683 H 345.298 0.725164 0.152377 0
M  V30 3684 H 347.945 1.88839 -0.318103 0
M  V30 3685 H 346.25 3.52434 1.71165 0
M  V30 3686 H 347.947 3.75841 1.39803 0
M  V30 3687 H 344.537 4.28551 0.0647806 0
M  V30 3688 H 348.721 4.91521 -0.687072 0
M  V30 3689 H 343.977 5.86239 -1.73592 0
M  V30 3690 H 348.151 6.50552 -2.48505 0
M  V30 3691 H 345.778 6.97835 -3.01548 0
M  V30 3692 N 347.353 -0.0568162 1.57498 0
M  V30 3693 C 348.769 -0.411933 1.54192 0
M  V30 3694 C 348.969 -1.78287 0.938942 0
M  V30 3695 O 348.025 -2.46483 0.547919 0
M  V30 3696 C 349.338 -0.339244 2.9878 0
M  V30 3697 C 350.886 -0.418348 3.10192 0
M  V30 3698 C 351.361 -0.375407 4.56459 0
M  V30 3699 N 352.852 -0.435038 4.61153 0
M  V30 3700 C 353.587 -0.424265 5.71828 0
M  V30 3701 N 353.083 -0.367418 6.91825 0
M  V30 3702 N 354.876 -0.471938 5.60115 0
M  V30 3703 H 347.027 0.840684 1.95055 0
M  V30 3704 H 349.29 0.316987 0.893433 0
M  V30 3705 H 348.996 0.601742 3.46514 0
M  V30 3706 H 348.87 -1.14371 3.59443 0
M  V30 3707 H 351.257 -1.34976 2.62422 0
M  V30 3708 H 351.338 0.414962 2.52412 0
M  V30 3709 H 350.982 0.552219 5.04889 0
M  V30 3710 H 350.912 -1.22645 5.12119 0
M  V30 3711 H 353.403 -0.482612 3.74806 0
M  V30 3712 H 353.716 -0.363535 7.71944 0
M  V30 3713 H 352.061 -0.333879 6.94198 0
M  V30 3714 H 355.252 -0.514145 4.65268 0
M  V30 3715 H 355.425 -0.460073 6.46365 0
M  V30 3716 N 348.832 -1.54138 -0.328536 0
M  V30 3717 C 350.062 -1.75807 -1.08516 0
M  V30 3718 C 350.47 -0.50428 -1.82356 0
M  V30 3719 O 349.813 0.534451 -1.75754 0
M  V30 3720 C 349.875 -2.89423 -2.13248 0
M  V30 3721 C 349.539 -4.28504 -1.5885 0
M  V30 3722 C 350.536 -5.09536 -1.03289 0
M  V30 3723 C 348.221 -4.75034 -1.63243 0
M  V30 3724 C 350.215 -6.35206 -0.52845 0
M  V30 3725 C 347.902 -6.00672 -1.12411 0
M  V30 3726 C 348.9 -6.80592 -0.573062 0
M  V30 3727 O 348.588 -8.03867 -0.0723692 0
M  V30 3728 H 348.32 -0.590633 -0.328829 0
M  V30 3729 H 350.874 -2.01819 -0.381868 0
M  V30 3730 H 349.104 -2.5897 -2.87178 0
M  V30 3731 H 350.793 -2.98921 -2.74592 0
M  V30 3732 H 351.559 -4.74745 -0.99206 0
M  V30 3733 H 347.438 -4.12875 -2.05074 0
M  V30 3734 H 350.982 -6.97532 -0.0976774 0
M  V30 3735 H 346.879 -6.34955 -1.162 0
M  V30 3736 H 347.647 -8.18283 -0.188258 0
M  V30 3737 N 350.31 0.590341 -1.46126 0
M  V30 3738 C 351.557 1.34882 -1.5104 0
M  V30 3739 C 351.885 1.93849 -0.159021 0
M  V30 3740 O 351.14 1.76544 0.844436 0
M  V30 3741 C 351.439 2.5032 -2.55097 0
M  V30 3742 C 351.105 2.09394 -3.99331 0
M  V30 3743 C 349.767 1.97947 -4.38601 0
M  V30 3744 C 352.119 1.77712 -4.89967 0
M  V30 3745 C 349.447 1.53065 -5.66381 0
M  V30 3746 C 351.799 1.34312 -6.18177 0
M  V30 3747 C 350.463 1.21436 -6.56361 0
M  V30 3748 H 349.733 0.493568 -0.552695 0
M  V30 3749 H 352.38 0.665539 -1.79563 0
M  V30 3750 H 350.685 3.24062 -2.20207 0
M  V30 3751 H 352.382 3.08541 -2.56132 0
M  V30 3752 H 348.972 2.19235 -3.68285 0
M  V30 3753 H 353.156 1.85445 -4.60352 0
M  V30 3754 H 348.412 1.41733 -5.94745 0
M  V30 3755 H 352.586 1.08849 -6.87841 0
M  V30 3756 H 350.213 0.864345 -7.5527 0
M  V30 3757 N 351.788 1.33704 0.83433 0
M  V30 3758 C 352.736 1.24323 1.96587 0
M  V30 3759 C 353.73 0.143659 1.6879 0
M  V30 3760 O 354.936 0.30791 1.77347 0
M  V30 3761 H 351.311 0.385925 0.645419 0
M  V30 3762 H 353.282 2.19978 2.01624 0
M  V30 3763 C 352.031 1.00394 3.32891 0
M  V30 3764 H 351.354 1.84231 3.54822 0
M  V30 3765 H 352.794 0.97862 4.12552 0
M  V30 3766 C 351.253 -0.293047 3.35623 0
M  V30 3767 O 351.783 -1.29823 3.80143 0
M  V30 3768 N 349.989 -0.322174 2.88809 0
M  V30 3769 H 349.536 0.496379 2.52772 0
M  V30 3770 H 349.494 -1.18977 2.91019 0
M  V30 3771 N 353.266 -1.05314 1.17247 0
M  V30 3772 C 354.229 -2.112 0.890357 0
M  V30 3773 C 355.229 -1.60359 -0.118943 0
M  V30 3774 O 356.419 -1.73833 0.113086 0
M  V30 3775 C 353.551 -3.39266 0.333422 0
M  V30 3776 H 354.744 -2.37659 1.82916 0
M  V30 3777 H 352.297 -1.21538 0.982758 0
M  V30 3778 H 353.032 -3.18462 -0.612587 0
M  V30 3779 H 352.817 -3.77477 1.06082 0
M  V30 3780 H 354.307 -4.17315 0.154322 0
M  V30 3781 N 354.744 -0.972509 -1.24016 0
M  V30 3782 C 355.992 -0.635776 -1.91839 0
M  V30 3783 C 356.313 0.832312 -1.76345 0
M  V30 3784 O 355.583 1.5946 -1.13795 0
M  V30 3785 H 354.163 -0.232157 -0.710009 0
M  V30 3786 H 356.825 -1.23462 -1.50809 0
M  V30 3787 H 355.921 -0.880545 -2.99421 0
M  V30 3788 N 356.222 1.38976 -0.743202 0
M  V30 3789 C 357.154 2.29096 -0.0689228 0
M  V30 3790 C 358.167 1.47229 0.694791 0
M  V30 3791 O 359.356 1.70212 0.537597 0
M  V30 3792 C 356.456 3.25988 0.926548 0
M  V30 3793 C 355.629 4.36833 0.222647 0
M  V30 3794 C 354.688 5.13981 1.12739 0
M  V30 3795 O 353.714 5.6601 0.601795 0
M  V30 3796 N 354.916 5.25966 2.45641 0
M  V30 3797 H 357.681 2.87604 -0.842846 0
M  V30 3798 H 355.242 1.50645 -0.593109 0
M  V30 3799 H 357.234 3.74476 1.5346 0
M  V30 3800 H 355.804 2.68453 1.60162 0
M  V30 3801 H 355.024 3.90116 -0.565983 0
M  V30 3802 H 356.312 5.0811 -0.264841 0
M  V30 3803 H 355.71 4.85228 2.9081 0
M  V30 3804 H 354.267 5.77865 3.01522 0
M  V30 3805 N 357.7 0.491464 1.49741 0
M  V30 3806 C 358.928 -0.0535151 2.06831 0
M  V30 3807 C 359.343 -1.31683 1.35296 0
M  V30 3808 O 358.7 -1.77402 0.42836 0
M  V30 3809 C 358.751 -0.320835 3.60073 0
M  V30 3810 O 358.472 0.892394 4.28915 0
M  V30 3811 C 359.973 -0.910519 4.33848 0
M  V30 3812 H 357.193 0.0161909 0.670805 0
M  V30 3813 H 359.737 0.68609 1.92647 0
M  V30 3814 H 357.892 -1.0104 3.73991 0
M  V30 3815 H 358.306 0.649401 5.20464 0
M  V30 3816 H 359.78 -1.04721 5.41976 0
M  V30 3817 H 360.257 -1.90589 3.95692 0
M  V30 3818 H 360.863 -0.258712 4.24512 0
M  V30 3819 N 359.178 -1.55987 0.224894 0
M  V30 3820 C 360.418 -2.00293 -0.407706 0
M  V30 3821 C 360.782 -1.1093 -1.56711 0
M  V30 3822 O 361.983 -1.44597 -2.26595 0
M  V30 3823 C 360.254 -3.47675 -0.82805 0
M  V30 3824 S 361.813 -4.14 -1.45429 0
M  V30 3825 H 358.631 -0.699152 -0.129256 0
M  V30 3826 H 361.233 -1.92609 0.334967 0
M  V30 3827 H 359.937 -4.10392 0.0253964 0
M  V30 3828 H 359.468 -3.59239 -1.60345 0
M  V30 3829 H 361.483 -4.13465 -2.74337 0
M  V30 3830 N 360.656 0.0484629 -1.57525 0
M  V30 3831 C 361.902 0.744226 -1.88651 0
M  V30 3832 C 362.235 1.76029 -0.820212 0
M  V30 3833 O 361.51 1.93782 0.166985 0
M  V30 3834 C 361.793 1.43128 -3.30434 0
M  V30 3835 C 361.646 0.43005 -4.47739 0
M  V30 3836 C 362.965 2.37031 -3.70816 0
M  V30 3837 H 360.084 0.269089 -0.68612 0
M  V30 3838 H 362.726 0.00713532 -1.89999 0
M  V30 3839 H 360.876 2.05956 -3.29415 0
M  V30 3840 H 362.548 -0.194816 -4.60888 0
M  V30 3841 H 360.791 -0.252522 -4.33064 0
M  V30 3842 H 361.462 0.948874 -5.43783 0
M  V30 3843 H 363.938 1.84263 -3.73077 0
M  V30 3844 H 362.814 2.82094 -4.70865 0
M  V30 3845 H 363.075 3.22864 -3.02012 0
M  V30 3846 N 362.134 1.5431 0.320358 0
M  V30 3847 C 363.097 1.83195 1.3774 0
M  V30 3848 C 364.097 0.703906 1.44575 0
M  V30 3849 O 365.287 0.972214 1.44546 0
M  V30 3850 C 362.419 1.99487 2.76438 0
M  V30 3851 H 363.612 2.77642 1.1338 0
M  V30 3852 H 361.165 1.46076 0.556012 0
M  V30 3853 H 361.9 1.07262 3.06048 0
M  V30 3854 H 361.685 2.81575 2.7287 0
M  V30 3855 H 363.175 2.23271 3.52902 0
M  V30 3856 N 363.613 -0.582584 1.46437 0
M  V30 3857 C 365.024 -1.1647 1.45916 0
M  V30 3858 C 365.375 -1.95177 0.200077 0
M  V30 3859 O 364.5 -2.04874 -0.696819 0
M  V30 3860 C 365.095 -2.11885 2.64367 0
M  V30 3861 C 363.654 -2.65421 2.66887 0
M  V30 3862 C 362.801 -1.41294 2.38603 0
M  V30 3863 H 365.752 -0.370514 1.54314 0
M  V30 3864 H 365.773 -2.9535 2.39892 0
M  V30 3865 H 365.285 -1.54573 3.5599 0
M  V30 3866 H 363.386 -3.26602 1.79338 0
M  V30 3867 H 363.499 -3.08147 3.66854 0
M  V30 3868 H 361.863 -1.71109 1.88663 0
M  V30 3869 H 362.646 -0.858125 3.32402 0
M  V30 3870 N 365.091 -1.34144 -0.827227 0
M  V30 3871 C 366.368 -1.16844 -1.56865 0
M  V30 3872 C 366.748 0.260654 -2.09485 0
M  V30 3873 O 366.096 1.26138 -1.9053 0
M  V30 3874 C 366.306 -2.21939 -2.6934 0
M  V30 3875 C 367.654 -2.56695 -3.3822 0
M  V30 3876 O 368.678 -2.20695 -2.79593 0
M  V30 3877 O 367.537 -3.18518 -4.44082 0
M  V30 3878 H 364.631 -0.452669 -0.692112 0
M  V30 3879 H 367.177 -1.45763 -0.868973 0
M  V30 3880 H 365.949 -3.17882 -2.28182 0
M  V30 3881 H 365.572 -1.94172 -3.46962 0
M  V30 3882 N 366.569 1.04691 -1.17803 0
M  V30 3883 C 367.799 1.81183 -0.992788 0
M  V30 3884 C 368.207 1.8347 0.462098 0
M  V30 3885 O 367.55 1.2643 1.33271 0
M  V30 3886 C 367.612 3.28363 -1.46349 0
M  V30 3887 C 367.276 3.49749 -2.94151 0
M  V30 3888 C 368.273 3.41456 -3.92051 0
M  V30 3889 C 365.958 3.76548 -3.32441 0
M  V30 3890 C 367.952 3.59656 -5.26238 0
M  V30 3891 C 365.639 3.94396 -4.66792 0
M  V30 3892 C 366.637 3.8595 -5.635 0
M  V30 3893 O 366.325 4.03294 -6.9542 0
M  V30 3894 H 366.057 0.577622 -0.351182 0
M  V30 3895 H 368.611 1.32876 -1.5663 0
M  V30 3896 H 366.841 3.77609 -0.833574 0
M  V30 3897 H 368.53 3.86395 -1.24313 0
M  V30 3898 H 369.296 3.20723 -3.63815 0
M  V30 3899 H 365.175 3.82224 -2.57732 0
M  V30 3900 H 368.719 3.52979 -6.01707 0
M  V30 3901 H 364.616 4.14622 -4.94731 0
M  V30 3902 H 365.384 4.2049 -7.02232 0
M  V30 3903 N 368.047 0.979072 1.23499 0
M  V30 3904 C 369.293 0.648178 1.92163 0
M  V30 3905 C 369.626 -0.816049 1.76222 0
M  V30 3906 O 368.901 -1.58849 1.12237 0
M  V30 3907 C 369.184 1.03773 3.44824 0
M  V30 3908 C 369.037 2.55948 3.69879 0
M  V30 3909 C 370.356 0.580653 4.36253 0
M  V30 3910 H 367.475 0.236952 0.69787 0
M  V30 3911 H 370.117 1.22012 1.45647 0
M  V30 3912 H 368.267 0.551058 3.84572 0
M  V30 3913 H 369.939 3.12179 3.3962 0
M  V30 3914 H 368.182 2.98641 3.14636 0
M  V30 3915 H 368.853 2.78255 4.76737 0
M  V30 3916 H 371.329 0.998465 4.03943 0
M  V30 3917 H 370.205 0.881663 5.41773 0
M  V30 3918 H 370.466 -0.519052 4.39042 0
M  V30 3919 N 369.525 -1.3858 0.750561 0
M  V30 3920 C 370.455 -2.33102 0.136237 0
M  V30 3921 C 371.436 -1.54713 -0.706965 0
M  V30 3922 O 372.621 -1.83043 -0.648769 0
M  V30 3923 C 369.751 -3.38882 -0.760017 0
M  V30 3924 C 368.705 -4.27995 -0.0197785 0
M  V30 3925 C 368.031 -5.24605 -1.03408 0
M  V30 3926 C 369.331 -5.09554 1.14684 0
M  V30 3927 H 371.025 -2.84726 0.925822 0
M  V30 3928 H 368.571 -1.36898 0.446654 0
M  V30 3929 H 370.524 -4.0397 -1.19943 0
M  V30 3930 H 369.248 -2.85734 -1.58189 0
M  V30 3931 H 367.907 -3.64409 0.400184 0
M  V30 3932 H 367.555 -4.67746 -1.84994 0
M  V30 3933 H 367.255 -5.85081 -0.543464 0
M  V30 3934 H 368.779 -5.9257 -1.47288 0
M  V30 3935 H 370.193 -5.67899 0.785118 0
M  V30 3936 H 368.59 -5.7925 1.56812 0
M  V30 3937 H 369.66 -4.4347 1.96118 0
M  V30 3938 N 371.003 -0.499398 -1.49478 0
M  V30 3939 C 372.243 0.0440751 -2.04352 0
M  V30 3940 C 372.607 1.34423 -1.37093 0
M  V30 3941 O 373.808 1.97184 -1.82679 0
M  V30 3942 C 372.079 0.194918 -3.56868 0
M  V30 3943 S 373.638 0.69287 -4.33295 0
M  V30 3944 H 370.456 0.00253458 -0.710995 0
M  V30 3945 H 373.058 -0.673 -1.83551 0
M  V30 3946 H 371.762 -0.756672 -4.03364 0
M  V30 3947 H 371.293 0.93728 -3.82071 0
M  V30 3948 H 373.308 1.96226 -4.55752 0
M  V30 3949 N 372.481 1.55866 -0.233164 0
M  V30 3950 C 373.706 2.03449 0.402906 0
M  V30 3951 C 374.131 1.11166 1.51736 0
M  V30 3952 O 373.489 0.101996 1.81013 0
M  V30 3953 C 373.537 3.49165 0.9009 0
M  V30 3954 O 372.641 3.60019 2.01147 0
M  V30 3955 H 371.982 0.657913 0.0897025 0
M  V30 3956 H 374.512 2.01493 -0.355201 0
M  V30 3957 H 374.522 3.89716 1.2077 0
M  V30 3958 H 373.197 4.15813 0.0852889 0
M  V30 3959 H 371.774 3.3136 1.71042 0
M  V30 3960 N 373.959 -0.0401083 1.57549 0
M  V30 3961 C 375.37 -0.588097 1.77196 0
M  V30 3962 C 375.721 -1.76209 0.862832 0
M  V30 3963 O 374.846 -2.16331 0.0548389 0
M  V30 3964 C 375.441 -1.07363 3.21339 0
M  V30 3965 C 374 -1.56723 3.42221 0
M  V30 3966 C 373.147 -0.50041 2.72747 0
M  V30 3967 H 376.098 0.186119 1.57605 0
M  V30 3968 H 376.119 -1.94143 3.27244 0
M  V30 3969 H 375.631 -0.218975 3.87482 0
M  V30 3970 H 373.732 -2.4441 2.81237 0
M  V30 3971 H 373.845 -1.62234 4.50796 0
M  V30 3972 H 372.209 -0.952894 2.36203 0
M  V30 3973 H 372.992 0.344599 3.41566 0
M  V30 3974 N 375.437 -1.54477 -0.31217 0
M  V30 3975 C 376.347 -1.87695 -1.4074 0
M  V30 3976 C 377.363 -0.769975 -1.56036 0
M  V30 3977 O 378.539 -1.06537 -1.70915 0
M  V30 3978 C 375.604 -2.10755 -2.75287 0
M  V30 3979 C 374.665 -3.34514 -2.69071 0
M  V30 3980 C 373.898 -3.56465 -3.97201 0
M  V30 3981 O 374.121 -2.81637 -4.96021 0
M  V30 3982 O 373.055 -4.49964 -3.9977 0
M  V30 3983 H 376.881 -2.80849 -1.15574 0
M  V30 3984 H 374.466 -1.40526 -0.507228 0
M  V30 3985 H 376.348 -2.27188 -3.54913 0
M  V30 3986 H 375.023 -1.20788 -3.0032 0
M  V30 3987 H 373.93 -3.23456 -1.87955 0
M  V30 3988 H 375.263 -4.24575 -2.48992 0
M  V30 3989 N 376.915 0.57481 -1.46744 0
M  V30 3990 C 377.848 1.69827 -1.52427 0
M  V30 3991 C 378.826 1.58151 -0.377744 0
M  V30 3992 O 380.01 1.79257 -0.58303 0
M  V30 3993 C 377.137 3.07943 -1.41027 0
M  V30 3994 C 376.183 3.38116 -2.59961 0
M  V30 3995 S 377.016 3.29313 -4.22272 0
M  V30 3996 C 378.172 4.69953 -4.13394 0
M  V30 3997 H 378.405 1.64748 -2.47478 0
M  V30 3998 H 375.938 0.754203 -1.34726 0
M  V30 3999 H 377.896 3.87619 -1.35137 0
M  V30 4000 H 376.557 3.10504 -0.473909 0
M  V30 4001 H 375.75 4.38762 -2.47999 0
M  V30 4002 H 375.352 2.66024 -2.62882 0
M  V30 4003 H 377.644 5.60517 -3.80562 0
M  V30 4004 H 378.587 4.86972 -5.14066 0
M  V30 4005 H 378.995 4.47174 -3.44522 0
M  V30 4006 N 378.394 1.34581 0.820102 0
M  V30 4007 C 379.326 1.22236 1.93884 0
M  V30 4008 C 380.339 0.148776 1.62119 0
M  V30 4009 O 381.528 0.400877 1.7394 0
M  V30 4010 C 378.628 0.856542 3.27897 0
M  V30 4011 C 377.801 2.02569 3.87666 0
M  V30 4012 C 376.86 1.63782 5.00062 0
M  V30 4013 O 375.886 2.35477 5.18208 0
M  V30 4014 N 377.088 0.553611 5.77854 0
M  V30 4015 H 379.853 2.18615 2.05006 0
M  V30 4016 H 377.414 1.27573 0.99683 0
M  V30 4017 H 379.406 0.578806 4.0054 0
M  V30 4018 H 377.976 -0.0171518 3.12595 0
M  V30 4019 H 377.196 2.468 3.07382 0
M  V30 4020 H 378.484 2.80752 4.24329 0
M  V30 4021 H 377.882 -0.0423528 5.65684 0
M  V30 4022 H 376.439 0.335614 6.50935 0
M  V30 4023 N 379.872 -1.04064 1.18357 0
M  V30 4024 C 380.782 -2.15569 0.925596 0
M  V30 4025 C 381.798 -1.7365 -0.110295 0
M  V30 4026 O 382.974 -2.01273 0.0716218 0
M  V30 4027 C 380.039 -3.43704 0.454836 0
M  V30 4028 C 379.1 -4.00004 1.55869 0
M  V30 4029 C 378.333 -5.22023 1.1103 0
M  V30 4030 O 378.556 -5.70392 -0.0309756 0
M  V30 4031 O 377.49 -5.70856 1.90805 0
M  V30 4032 H 381.316 -2.40187 1.8586 0
M  V30 4033 H 378.901 -1.1402 0.965394 0
M  V30 4034 H 380.783 -4.20923 0.200382 0
M  V30 4035 H 379.458 -3.20559 -0.449876 0
M  V30 4036 H 378.365 -3.24172 1.86716 0
M  V30 4037 H 379.698 -4.2749 2.43953 0
M  V30 4038 N 381.35 -0.985608 -1.22978 0
M  V30 4039 C 382.766 -0.695104 -1.43668 0
M  V30 4040 C 382.966 0.736866 -1.87543 0
M  V30 4041 O 382.022 1.50868 -2.02473 0
M  V30 4042 C 383.335 -1.69447 -2.48412 0
M  V30 4043 C 384.883 -1.70909 -2.62219 0
M  V30 4044 C 385.358 -2.6969 -3.70178 0
M  V30 4045 N 386.849 -2.6824 -3.77626 0
M  V30 4046 C 387.584 -3.41339 -4.60733 0
M  V30 4047 N 387.08 -4.24015 -5.4789 0
M  V30 4048 N 388.873 -3.30079 -4.54977 0
M  V30 4049 H 381.024 -1.91054 -0.928016 0
M  V30 4050 H 383.287 -0.823553 -0.469536 0
M  V30 4051 H 382.993 -2.7188 -2.23102 0
M  V30 4052 H 382.867 -1.48147 -3.46889 0
M  V30 4053 H 385.254 -0.691785 -2.86877 0
M  V30 4054 H 385.335 -1.96276 -1.6404 0
M  V30 4055 H 384.979 -3.71566 -3.46268 0
M  V30 4056 H 384.909 -2.41595 -4.67909 0
M  V30 4057 H 387.4 -2.08243 -3.15346 0
M  V30 4058 H 387.713 -4.76636 -6.08308 0
M  V30 4059 H 386.058 -4.28104 -5.47496 0
M  V30 4060 H 389.249 -2.64937 -3.85909 0
M  V30 4061 H 389.422 -3.87308 -5.19516 0
M  V30 4062 N 382.828 1.3818 -0.7579 0
M  V30 4063 C 383.758 2.33027 -0.148597 0
M  V30 4064 C 384.739 1.55085 0.69875 0
M  V30 4065 O 385.924 1.83384 0.639053 0
M  V30 4066 C 383.054 3.3928 0.742034 0
M  V30 4067 C 382.008 4.28 -0.00291946 0
M  V30 4068 C 381.334 5.25146 1.00625 0
M  V30 4069 C 382.634 5.08938 -1.17385 0
M  V30 4070 H 384.328 2.84231 -0.940909 0
M  V30 4071 H 381.874 1.36659 -0.453908 0
M  V30 4072 H 383.827 4.046 1.17799 0
M  V30 4073 H 382.551 2.86569 1.56671 0
M  V30 4074 H 381.21 3.64192 -0.419504 0
M  V30 4075 H 380.858 4.68721 1.8251 0
M  V30 4076 H 380.558 5.85361 0.512428 0
M  V30 4077 H 382.082 5.93342 1.44143 0
M  V30 4078 H 383.496 5.67474 -0.815224 0
M  V30 4079 H 381.893 5.7841 -1.59882 0
M  V30 4080 H 382.963 4.42424 -1.98468 0
M  V30 4081 N 384.306 0.507319 1.49211 0
M  V30 4082 C 385.236 -0.256939 2.32082 0
M  V30 4083 C 386.217 -0.956609 1.40652 0
M  V30 4084 O 387.402 -0.946788 1.69557 0
M  V30 4085 C 384.532 -1.31802 3.21318 0
M  V30 4086 C 383.486 -0.737855 4.21592 0
M  V30 4087 C 382.812 -1.89992 4.99807 0
M  V30 4088 C 384.112 0.275325 5.21574 0
M  V30 4089 H 385.806 0.434798 2.96226 0
M  V30 4090 H 383.352 0.210546 1.42452 0
M  V30 4091 H 385.305 -1.86045 3.78107 0
M  V30 4092 H 384.029 -2.03903 2.5513 0
M  V30 4093 H 382.688 -0.217126 3.65956 0
M  V30 4094 H 382.336 -2.60877 4.30061 0
M  V30 4095 H 382.036 -1.51777 5.6766 0
M  V30 4096 H 383.56 -2.44657 5.59442 0
M  V30 4097 H 384.974 -0.179193 5.7302 0
M  V30 4098 H 383.371 0.573649 5.97352 0
M  V30 4099 H 384.441 1.18903 4.70096 0
M  V30 4100 N 385.784 -1.5574 0.241426 0
M  V30 4101 C 387.195 -1.84842 -0.262755 0
M  V30 4102 C 387.546 -1.16317 -1.58003 0
M  V30 4103 O 386.671 -0.439653 -2.11887 0
M  V30 4104 C 387.266 -3.35332 -0.483523 0
M  V30 4105 C 385.825 -3.6468 -0.931977 0
M  V30 4106 C 384.972 -2.77299 -0.0061151 0
M  V30 4107 H 387.923 -1.51761 0.464129 0
M  V30 4108 H 387.944 -3.56615 -1.32688 0
M  V30 4109 H 387.456 -3.85178 0.47537 0
M  V30 4110 H 385.557 -3.20307 -1.90353 0
M  V30 4111 H 385.67 -4.72498 -0.792628 0
M  V30 4112 H 384.034 -2.49408 -0.516503 0
M  V30 4113 H 384.817 -3.2995 0.948052 0
M  V30 4114 N 387.262 0.0317525 -1.57568 0
M  V30 4115 C 388.225 1.01783 -2.0536 0
M  V30 4116 C 389.225 1.29203 -0.957253 0
M  V30 4117 O 390.415 1.24251 -1.22095 0
M  V30 4118 C 387.547 2.35137 -2.46827 0
M  V30 4119 H 388.74 0.605062 -2.93733 0
M  V30 4120 H 386.293 0.278514 -1.53799 0
M  V30 4121 H 387.028 2.81168 -1.61602 0
M  V30 4122 H 386.813 2.16566 -3.26866 0
M  V30 4123 H 388.303 3.05938 -2.84239 0
M  V30 4124 N 388.74 1.54641 0.303973 0
M  V30 4125 C 389.67 1.88386 1.3796 0
M  V30 4126 C 390.651 0.742485 1.5304 0
M  V30 4127 O 391.836 0.997959 1.66597 0
M  V30 4128 C 388.966 2.12854 2.74427 0
M  V30 4129 C 387.92 3.28702 2.74115 0
M  V30 4130 C 387.246 3.38582 4.13844 0
M  V30 4131 C 388.546 4.65881 2.3612 0
M  V30 4132 H 390.24 2.78474 1.09966 0
M  V30 4133 H 387.786 1.33988 0.527556 0
M  V30 4134 H 389.739 2.35047 3.49758 0
M  V30 4135 H 388.463 1.19535 3.03939 0
M  V30 4136 H 387.122 3.06428 2.0124 0
M  V30 4137 H 386.77 2.42784 4.40528 0
M  V30 4138 H 386.47 4.16453 4.14537 0
M  V30 4139 H 387.994 3.63031 4.90959 0
M  V30 4140 H 389.408 4.87823 3.01167 0
M  V30 4141 H 387.805 5.46444 2.48031 0
M  V30 4142 H 388.875 4.66799 1.3125 0
M  V30 4143 N 390.218 -0.567019 1.47046 0
M  V30 4144 C 391.15 -1.68985 1.54844 0
M  V30 4145 C 392.163 -1.56869 0.435431 0
M  V30 4146 O 393.352 -1.64006 0.70457 0
M  V30 4147 C 390.452 -3.07373 1.42742 0
M  V30 4148 C 389.625 -3.45339 2.6844 0
M  V30 4149 C 388.684 -4.62849 2.50314 0
M  V30 4150 O 387.71 -4.67922 3.24095 0
M  V30 4151 N 388.912 -5.58726 1.57499 0
M  V30 4152 H 391.677 -1.62745 2.51663 0
M  V30 4153 H 389.238 -0.753411 1.43302 0
M  V30 4154 H 391.23 -3.83803 1.28365 0
M  V30 4155 H 389.8 -3.07893 0.540445 0
M  V30 4156 H 389.02 -2.58455 2.97648 0
M  V30 4157 H 390.308 -3.67476 3.51907 0
M  V30 4158 H 389.706 -5.57376 0.966876 0
M  V30 4159 H 388.263 -6.34523 1.49078 0
M  V30 4160 N 391.696 -1.35014 -0.812953 0
M  V30 4161 C 392.921 -1.31187 -1.60639 0
M  V30 4162 C 393.346 0.109382 -1.87782 0
M  V30 4163 O 392.704 1.07424 -1.46047 0
M  V30 4164 C 392.752 -2.11809 -2.91838 0
M  V30 4165 O 391.856 -1.49444 -3.8437 0
M  V30 4166 H 391.197 -0.450084 -0.488181 0
M  V30 4167 H 393.727 -1.77963 -1.00947 0
M  V30 4168 H 393.737 -2.23531 -3.41318 0
M  V30 4169 H 392.412 -3.15137 -2.71407 0
M  V30 4170 H 390.989 -1.46524 -3.42907 0
M  V30 4171 N 393.175 1.03435 -1.18907 0
M  V30 4172 C 394.403 1.80381 -1.01342 0
M  V30 4173 C 394.818 1.83649 0.438005 0
M  V30 4174 O 394.175 1.27655 1.30424 0
M  V30 4175 C 394.226 3.25689 -1.56873 0
M  V30 4176 O 393.947 3.22673 -2.96334 0
M  V30 4177 C 395.448 4.19255 -1.44014 0
M  V30 4178 H 392.668 0.56784 -0.35749 0
M  V30 4179 H 395.212 1.30317 -1.576 0
M  V30 4180 H 393.367 3.72962 -1.04777 0
M  V30 4181 H 393.781 4.13748 -3.22355 0
M  V30 4182 H 395.255 5.19123 -1.87657 0
M  V30 4183 H 395.732 4.37467 -0.389815 0
M  V30 4184 H 396.338 3.77851 -1.95214 0
M  V30 4185 N 394.653 0.992116 1.22453 0
M  V30 4186 C 395.902 0.662992 1.90492 0
M  V30 4187 C 396.215 -0.808407 1.78113 0
M  V30 4188 O 397.421 -1.24908 2.41061 0
M  V30 4189 C 395.877 1.1353 3.41524 0
M  V30 4190 C 395.485 2.63187 3.62542 0
M  V30 4191 C 397.229 0.880465 4.15269 0
M  V30 4192 C 395.136 3.04024 5.0727 0
M  V30 4193 H 394.066 0.244278 0.713333 0
M  V30 4194 H 396.717 1.20157 1.38688 0
M  V30 4195 H 395.099 0.52485 3.92506 0
M  V30 4196 H 396.273 3.2957 3.22056 0
M  V30 4197 H 394.588 2.86543 3.02129 0
M  V30 4198 H 397.185 1.16128 5.21937 0
M  V30 4199 H 397.528 -0.183408 4.15896 0
M  V30 4200 H 398.061 1.45307 3.70312 0
M  V30 4201 H 394.8 4.09584 5.11782 0
M  V30 4202 H 394.32 2.42343 5.48662 0
M  V30 4203 H 395.999 2.95282 5.75689 0
M  V30 4204 N 396.131 -1.37776 0.765217 0
M  V30 4205 C 397.359 -2.04124 0.337767 0
M  V30 4206 C 397.774 -1.57715 -1.03785 0
M  V30 4207 O 397.131 -0.755447 -1.6613 0
M  V30 4208 C 397.182 -3.59658 0.364442 0
M  V30 4209 O 396.903 -4.04367 1.68579 0
M  V30 4210 C 398.404 -4.43236 -0.0754221 0
M  V30 4211 H 395.624 -0.655696 0.142491 0
M  V30 4212 H 398.168 -1.76238 1.03732 0
M  V30 4213 H 396.323 -3.86339 -0.286471 0
M  V30 4214 H 396.737 -4.98857 1.61993 0
M  V30 4215 H 398.211 -5.52 -0.00560067 0
M  V30 4216 H 398.688 -4.2455 -1.12491 0
M  V30 4217 H 399.294 -4.21767 0.547055 0
M  V30 4218 N 397.609 -0.515225 -1.4894 0
M  V30 4219 C 399.025 -0.172099 -1.58669 0
M  V30 4220 C 399.225 1.32405 -1.51892 0
M  V30 4221 O 398.281 2.10116 -1.40027 0
M  V30 4222 C 399.594 -0.761533 -2.90897 0
M  V30 4223 C 401.142 -0.728926 -3.04394 0
M  V30 4224 C 401.617 -1.29667 -4.39261 0
M  V30 4225 N 403.108 -1.25799 -4.4579 0
M  V30 4226 C 403.843 -1.66733 -5.48623 0
M  V30 4227 N 403.339 -2.15327 -6.58488 0
M  V30 4228 N 405.132 -1.58061 -5.39419 0
M  V30 4229 H 397.283 -1.48778 -1.51588 0
M  V30 4230 H 399.546 -0.617968 -0.718901 0
M  V30 4231 H 399.252 -1.81136 -3.01468 0
M  V30 4232 H 399.126 -0.230106 -3.76497 0
M  V30 4233 H 401.513 0.312098 -2.93445 0
M  V30 4234 H 401.594 -1.29766 -2.20442 0
M  V30 4235 H 401.238 -2.33655 -4.50963 0
M  V30 4236 H 401.168 -0.703752 -5.21876 0
M  V30 4237 H 403.659 -0.902102 -3.66975 0
M  V30 4238 H 403.972 -2.44594 -7.33071 0
M  V30 4239 H 402.317 -2.19311 -6.59491 0
M  V30 4240 H 405.508 -1.19906 -4.52482 0
M  V30 4241 H 405.681 -1.90284 -6.19432 0
M  V30 4242 N 399.087 1.5561 -0.249682 0
M  V30 4243 C 400.334 1.99011 0.374287 0
M  V30 4244 C 400.662 1.13785 1.57744 0
M  V30 4245 O 399.917 0.189326 1.94782 0
M  V30 4246 C 400.216 3.4775 0.824887 0
M  V30 4247 C 399.882 4.50086 -0.270819 0
M  V30 4248 C 398.544 4.77791 -0.571746 0
M  V30 4249 C 400.896 5.11312 -1.01041 0
M  V30 4250 C 398.224 5.63997 -1.61629 0
M  V30 4251 C 400.576 5.98651 -2.0445 0
M  V30 4252 C 399.24 6.24688 -2.35204 0
M  V30 4253 H 398.51 0.728233 0.136961 0
M  V30 4254 H 401.157 1.88122 -0.358087 0
M  V30 4255 H 399.462 3.55985 1.63651 0
M  V30 4256 H 401.159 3.78721 1.31799 0
M  V30 4257 H 397.749 4.28592 -0.026136 0
M  V30 4258 H 401.933 4.89953 -0.791177 0
M  V30 4259 H 397.189 5.82425 -1.85988 0
M  V30 4260 H 401.363 6.45135 -2.62248 0
M  V30 4261 H 398.99 6.91281 -3.16282 0
M  V30 4262 N 400.565 -0.0233959 1.57583 0
M  V30 4263 C 401.795 -0.723631 1.93513 0
M  V30 4264 C 402.203 -1.69115 0.848333 0
M  V30 4265 O 401.546 -1.82781 -0.183484 0
M  V30 4266 C 401.608 -1.53075 3.25282 0
M  V30 4267 C 401.272 -0.727388 4.51174 0
M  V30 4268 C 402.269 -0.0251924 5.19894 0
M  V30 4269 C 399.954 -0.680256 4.97672 0
M  V30 4270 C 401.948 0.713374 6.33395 0
M  V30 4271 C 399.635 0.0620523 6.11068 0
M  V30 4272 C 400.633 0.757622 6.78785 0
M  V30 4273 O 400.321 1.48787 7.90011 0
M  V30 4274 H 400.053 -0.208051 0.643188 0
M  V30 4275 H 402.607 0.0167489 2.05393 0
M  V30 4276 H 400.837 -2.31508 3.09744 0
M  V30 4277 H 402.526 -2.11413 3.46496 0
M  V30 4278 H 403.292 -0.0526003 4.84971 0
M  V30 4279 H 399.171 -1.21116 4.44805 0
M  V30 4280 H 402.715 1.25683 6.86185 0
M  V30 4281 H 398.612 0.0913634 6.45435 0
M  V30 4282 H 399.38 1.40213 8.06401 0
M  V30 4283 N 402.043 -1.548 -0.295768 0
M  V30 4284 C 403.291 -1.73985 -1.02828 0
M  V30 4285 C 403.612 -0.531406 -1.87619 0
M  V30 4286 O 402.882 0.454221 -1.90561 0
M  V30 4287 H 401.462 -0.641556 -0.382642 0
M  V30 4288 H 404.124 -1.92163 -0.325489 0
M  V30 4289 H 403.22 -2.63129 -1.67838 0
M  V30 4290 N 403.521 0.559213 -1.47345 0
M  V30 4291 C 404.798 1.31997 -1.44348 0
M  V30 4292 C 405.178 2.1064 -0.139358 0
M  V30 4293 O 404.526 2.1091 0.879153 0
M  V30 4294 C 404.736 2.22618 -2.68779 0
M  V30 4295 C 406.084 2.83701 -3.1591 0
M  V30 4296 O 407.108 2.32921 -2.69493 0
M  V30 4297 O 405.967 3.75993 -3.966 0
M  V30 4298 H 403.061 0.594251 -0.575147 0
M  V30 4299 H 405.607 0.578282 -1.59543 0
M  V30 4300 H 404.379 1.64093 -3.55231 0
M  V30 4301 H 404.002 3.04085 -2.5616 0
M  V30 4302 N 404.999 1.35443 0.805782 0
M  V30 4303 C 406.276 1.19325 1.54987 0
M  V30 4304 C 406.656 -0.227294 2.09873 0
M  V30 4305 O 406.004 -1.2309 1.92512 0
M  V30 4306 C 406.214 2.26196 2.65775 0
M  V30 4307 C 407.562 2.62043 3.34094 0
M  V30 4308 O 408.586 2.25115 2.76046 0
M  V30 4309 O 407.445 3.25542 4.38958 0
M  V30 4310 H 404.539 0.463623 0.684823 0
M  V30 4311 H 407.085 1.47127 0.845674 0
M  V30 4312 H 405.857 3.21471 2.23096 0
M  V30 4313 H 405.48 1.99667 3.43829 0
M  V30 4314 N 406.477 -1.02803 1.19454 0
M  V30 4315 C 407.888 -1.57667 0.999899 0
M  V30 4316 C 408.239 -1.91041 -0.446956 0
M  V30 4317 O 407.364 -1.70978 -1.32648 0
M  V30 4318 C 407.959 -2.86477 1.80877 0
M  V30 4319 C 406.518 -3.37911 1.65811 0
M  V30 4320 C 405.665 -2.11343 1.79526 0
M  V30 4321 H 408.616 -0.853214 1.33813 0
M  V30 4322 H 408.637 -3.57408 1.30536 0
M  V30 4323 H 408.149 -2.62155 2.86175 0
M  V30 4324 H 406.25 -3.67218 0.63102 0
M  V30 4325 H 406.363 -4.10885 2.46395 0
M  V30 4326 H 404.727 -2.23254 1.22596 0
M  V30 4327 H 405.51 -1.89461 2.86285 0
M  V30 4328 N 407.956 -0.998596 -1.21925 0
M  V30 4329 C 408.888 -0.511879 -2.23411 0
M  V30 4330 C 409.901 0.396094 -1.57908 0
M  V30 4331 O 411.09 0.197316 -1.77406 0
M  V30 4332 C 408.19 0.276802 -3.37768 0
M  V30 4333 C 407.363 -0.628687 -4.32858 0
M  V30 4334 C 406.422 0.109272 -5.26087 0
M  V30 4335 O 405.448 -0.507237 -5.66935 0
M  V30 4336 N 406.65 1.38983 -5.63617 0
M  V30 4337 H 409.415 -1.38457 -2.658 0
M  V30 4338 H 406.976 -0.873981 -1.36283 0
M  V30 4339 H 408.968 0.77928 -3.97126 0
M  V30 4340 H 407.538 1.05063 -2.94415 0
M  V30 4341 H 406.758 -1.31175 -3.71735 0
M  V30 4342 H 408.046 -1.24514 -4.93329 0
M  V30 4343 H 407.444 1.91194 -5.32411 0
M  V30 4344 H 406.001 1.83739 -6.25367 0
M  V30 4345 N 409.434 1.37368 -0.772513 0
M  V30 4346 C 410.659 2.0447 -0.347386 0
M  V30 4347 C 411.084 1.57882 1.0225 0
M  V30 4348 O 410.442 0.73941 1.65537 0
M  V30 4349 C 410.49 3.58369 -0.400479 0
M  V30 4350 O 409.594 4.0803 0.598789 0
M  V30 4351 H 408.935 0.646773 -0.15027 0
M  V30 4352 H 411.465 1.75667 -1.04892 0
M  V30 4353 H 411.475 4.07183 -0.258045 0
M  V30 4354 H 410.15 3.91633 -1.39986 0
M  V30 4355 H 408.727 3.70534 0.419411 0
M  V30 4356 N 410.912 0.523116 1.48665 0
M  V30 4357 C 412.137 -0.0117284 2.07397 0
M  V30 4358 C 412.562 -1.28031 1.37803 0
M  V30 4359 O 411.92 -1.75836 0.441762 0
M  V30 4360 C 411.968 -0.225786 3.59892 0
M  V30 4361 O 411.072 -1.29592 3.91509 0
M  V30 4362 H 410.413 0.0360673 0.66302 0
M  V30 4363 H 412.943 0.729066 1.9117 0
M  V30 4364 H 412.953 -0.450552 4.05505 0
M  V30 4365 H 411.628 0.700944 4.09951 0
M  V30 4366 H 410.205 -1.05436 3.57684 0
M  V30 4367 N 412.39 -1.55475 0.257931 0
M  V30 4368 C 413.801 -1.8511 -0.243135 0
M  V30 4369 C 414.152 -1.17986 -1.5676 0
M  V30 4370 O 413.277 -0.462102 -2.11409 0
M  V30 4371 C 413.872 -3.35826 -0.447929 0
M  V30 4372 C 412.431 -3.65647 -0.893245 0
M  V30 4373 C 411.578 -2.7729 0.0232965 0
M  V30 4374 H 414.529 -1.51261 0.480199 0
M  V30 4375 H 414.55 -3.58002 -1.28898 0
M  V30 4376 H 414.062 -3.84652 0.516196 0
M  V30 4377 H 412.163 -3.22308 -1.86945 0
M  V30 4378 H 412.276 -4.73312 -0.742469 0
M  V30 4379 H 410.64 -2.49942 -0.490021 0
M  V30 4380 H 411.423 -3.28926 0.982994 0
M  V30 4381 N 413.868 0.0150385 -1.57593 0
M  V30 4382 C 414.816 1.02958 -2.08572 0
M  V30 4383 C 415.81 1.36554 -1.00246 0
M  V30 4384 O 417.016 1.35295 -1.18724 0
M  V30 4385 H 413.391 0.349619 -0.665786 0
M  V30 4386 H 415.362 0.573932 -2.92829 0
M  V30 4387 C 414.111 2.31752 -2.59203 0
M  V30 4388 H 413.434 2.06765 -3.42182 0
M  V30 4389 H 414.874 3.01053 -2.98568 0
M  V30 4390 C 413.333 3.01692 -1.49945 0
M  V30 4391 O 413.863 3.92083 -0.873704 0
M  V30 4392 N 412.069 2.6326 -1.23056 0
M  V30 4393 H 411.616 1.89838 -1.74125 0
M  V30 4394 H 411.574 3.10372 -0.501685 0
M  V30 4395 N 415.346 1.54954 0.287554 0
M  V30 4396 C 416.276 1.89839 1.35954 0
M  V30 4397 C 417.257 0.758675 1.52244 0
M  V30 4398 O 418.442 1.01557 1.65529 0
M  V30 4399 C 415.572 2.15753 2.72154 0
M  V30 4400 C 414.526 3.3159 2.70614 0
M  V30 4401 C 413.852 3.42952 4.10229 0
M  V30 4402 C 415.152 4.68359 2.31165 0
M  V30 4403 H 416.846 2.79625 1.07007 0
M  V30 4404 H 414.392 1.3454 0.513316 0
M  V30 4405 H 416.345 2.38743 3.47246 0
M  V30 4406 H 415.069 1.22752 3.02654 0
M  V30 4407 H 413.728 3.08545 1.97979 0
M  V30 4408 H 413.376 2.47443 4.37928 0
M  V30 4409 H 413.076 4.20826 4.10097 0
M  V30 4410 H 414.6 3.68218 4.87081 0
M  V30 4411 H 416.014 4.9099 2.95976 0
M  V30 4412 H 414.411 5.49044 2.42221 0
M  V30 4413 H 415.481 4.68165 1.26291 0
M  V30 4414 N 416.824 -0.551391 1.4764 0
M  V30 4415 C 418.072 -1.30572 1.54258 0
M  V30 4416 C 418.393 -1.93877 0.208963 0
M  V30 4417 O 417.663 -1.80234 -0.767619 0
M  V30 4418 H 416.243 -0.484894 0.568231 0
M  V30 4419 H 418.905 -0.643402 1.83974 0
M  V30 4420 H 418.001 -2.09621 2.31226 0
M  V30 4421 N 418.302 -1.35869 -0.798587 0
M  V30 4422 C 419.718 -1.16082 -1.09532 0
M  V30 4423 C 419.918 0.0213124 -2.01489 0
M  V30 4424 O 418.974 0.689488 -2.42904 0
M  V30 4425 C 420.287 -2.46748 -1.7186 0
M  V30 4426 C 421.835 -2.53028 -1.84244 0
M  V30 4427 C 422.31 -3.83758 -2.49988 0
M  V30 4428 N 423.801 -3.85053 -2.57465 0
M  V30 4429 C 424.536 -4.8294 -3.09122 0
M  V30 4430 N 424.032 -5.91217 -3.61157 0
M  V30 4431 N 425.825 -4.70369 -3.0775 0
M  V30 4432 H 417.976 -2.11571 -0.187461 0
M  V30 4433 H 420.239 -0.936726 -0.145765 0
M  V30 4434 H 419.945 -3.33471 -1.11759 0
M  V30 4435 H 419.819 -2.61883 -2.71472 0
M  V30 4436 H 422.206 -1.66729 -2.43486 0
M  V30 4437 H 422.287 -2.418 -0.834643 0
M  V30 4438 H 421.931 -4.70459 -1.91393 0
M  V30 4439 H 421.861 -3.92278 -3.5132 0
M  V30 4440 H 424.352 -3.06822 -2.20609 0
M  V30 4441 H 424.665 -6.61892 -3.98896 0
M  V30 4442 H 423.01 -5.94899 -3.59333 0
M  V30 4443 H 426.201 -3.84914 -2.66381 0
M  V30 4444 H 426.374 -5.46816 -3.47701 0
M  V30 4445 N 419.78 1.02168 -1.19998 0
M  V30 4446 C 421.029 1.75091 -1.0013 0
M  V30 4447 C 421.342 1.89923 0.467835 0
M  V30 4448 O 422.548 2.59888 0.785515 0
M  V30 4449 C 421.004 3.14892 -1.74273 0
M  V30 4450 C 420.612 3.0809 -3.25245 0
M  V30 4451 C 422.356 3.9206 -1.62755 0
M  V30 4452 C 420.263 4.42867 -3.91948 0
M  V30 4453 H 419.193 0.656394 -0.37103 0
M  V30 4454 H 421.844 1.14284 -1.43567 0
M  V30 4455 H 420.226 3.7621 -1.2362 0
M  V30 4456 H 421.4 2.5611 -3.83072 0
M  V30 4457 H 419.715 2.44416 -3.3712 0
M  V30 4458 H 422.312 4.91764 -2.09934 0
M  V30 4459 H 422.655 4.12199 -0.582894 0
M  V30 4460 H 423.188 3.37359 -2.10793 0
M  V30 4461 H 419.927 4.27931 -4.96543 0
M  V30 4462 H 419.447 4.94874 -3.3891 0
M  V30 4463 H 421.126 5.11728 -3.95909 0
M  V30 4464 N 421.258 1.00505 1.21394 0
M  V30 4465 C 422.507 0.683159 1.89778 0
M  V30 4466 C 422.82 -0.789471 1.7896 0
M  V30 4467 O 424.026 -1.22344 2.42372 0
M  V30 4468 C 422.482 1.17146 3.40301 0
M  V30 4469 C 422.09 2.67017 3.5973 0
M  V30 4470 C 423.834 0.924461 4.14311 0
M  V30 4471 C 421.741 3.09387 5.04017 0
M  V30 4472 H 420.671 0.25183 0.710702 0
M  V30 4473 H 423.322 1.21622 1.37406 0
M  V30 4474 H 421.704 0.566451 3.91928 0
M  V30 4475 H 422.878 3.32968 3.18542 0
M  V30 4476 H 421.193 2.89732 2.99073 0
M  V30 4477 H 423.79 1.21658 5.20676 0
M  V30 4478 H 424.133 -0.139286 4.16067 0
M  V30 4479 H 424.666 1.49226 3.6875 0
M  V30 4480 H 421.405 4.14989 5.07409 0
M  V30 4481 H 420.925 2.48149 5.46061 0
M  V30 4482 H 422.604 3.01371 5.72525 0
M  V30 4483 N 422.737 -1.36956 0.779787 0
M  V30 4484 C 423.685 -2.32053 0.15942 0
M  V30 4485 C 424.679 -1.55333 -0.675878 0
M  V30 4486 O 425.885 -1.70668 -0.57204 0
M  V30 4487 H 422.26 -0.751286 0.0327707 0
M  V30 4488 H 424.231 -2.8195 0.977078 0
M  V30 4489 C 422.98 -3.40602 -0.698977 0
M  V30 4490 H 422.303 -3.99746 -0.0655966 0
M  V30 4491 H 423.743 -4.09486 -1.09989 0
M  V30 4492 C 422.202 -2.81359 -1.85307 0
M  V30 4493 O 422.732 -2.72751 -2.94906 0
M  V30 4494 N 420.938 -2.38786 -1.65619 0
M  V30 4495 H 420.485 -2.45987 -0.764725 0
M  V30 4496 H 420.443 -1.99493 -2.43002 0
M  V30 4497 N 424.215 -0.530993 -1.48385 0
M  V30 4498 C 425.147 0.268353 -2.27624 0
M  V30 4499 C 426.16 0.903525 -1.35426 0
M  V30 4500 O 427.349 0.781796 -1.60469 0
M  V30 4501 C 424.449 1.39535 -3.08842 0
M  V30 4502 C 423.622 0.861913 -4.28824 0
M  V30 4503 C 422.681 1.87016 -4.91845 0
M  V30 4504 O 421.707 1.4267 -5.5103 0
M  V30 4505 N 422.909 3.20238 -4.84178 0
M  V30 4506 H 425.674 -0.41123 -2.96865 0
M  V30 4507 H 423.235 -0.365387 -1.57723 0
M  V30 4508 H 425.227 2.06803 -3.47871 0
M  V30 4509 H 423.797 1.97859 -2.42014 0
M  V30 4510 H 423.017 0.0132126 -3.94198 0
M  V30 4511 H 424.305 0.484415 -5.06489 0
M  V30 4512 H 423.703 3.58932 -4.37246 0
M  V30 4513 H 422.26 3.83136 -5.27305 0
M  V30 4514 N 425.693 1.55336 -0.266172 0
M  V30 4515 C 426.64 2.22172 0.625165 0
M  V30 4516 C 427.61 1.19211 1.15663 0
M  V30 4517 O 428.795 1.47723 1.20758 0
M  V30 4518 C 425.935 2.93972 1.8076 0
M  V30 4519 C 425.048 4.11632 1.31084 0
M  V30 4520 C 424.183 4.71099 2.45436 0
M  V30 4521 C 423.222 5.8097 1.92718 0
M  V30 4522 N 422.359 6.34538 3.00509 0
M  V30 4523 H 427.199 2.9796 0.0485582 0
M  V30 4524 H 424.736 1.47095 0.0122024 0
M  V30 4525 H 426.694 3.33811 2.50251 0
M  V30 4526 H 425.324 2.20623 2.35638 0
M  V30 4527 H 424.376 3.76975 0.509326 0
M  V30 4528 H 425.688 4.90893 0.884633 0
M  V30 4529 H 424.842 5.13612 3.22936 0
M  V30 4530 H 423.581 3.91096 2.91368 0
M  V30 4531 H 422.586 5.37916 1.13695 0
M  V30 4532 H 423.811 6.62836 1.47733 0
M  V30 4533 H 421.757 5.57433 3.45839 0
M  V30 4534 H 421.674 7.09046 2.62279 0
M  V30 4535 H 422.942 6.81709 3.78011 0
M  V30 4536 N 427.171 -0.0066808 1.57599 0
M  V30 4537 C 428.103 -1.02827 2.04839 0
M  V30 4538 C 429.116 -1.31108 0.965113 0
M  V30 4539 O 430.305 -1.28202 1.24203 0
M  V30 4540 C 427.405 -2.36464 2.42771 0
M  V30 4541 C 426.578 -2.27219 3.73751 0
M  V30 4542 C 425.637 -3.43489 3.98625 0
M  V30 4543 O 424.663 -3.21976 4.69382 0
M  V30 4544 N 425.865 -4.66116 3.46 0
M  V30 4545 H 428.63 -0.625455 2.93101 0
M  V30 4546 H 426.191 -0.194198 1.60731 0
M  V30 4547 H 428.183 -3.13008 2.56531 0
M  V30 4548 H 426.753 -2.68512 1.60063 0
M  V30 4549 H 425.973 -1.35629 3.70133 0
M  V30 4550 H 427.261 -2.18208 4.59633 0
M  V30 4551 H 426.659 -4.86493 2.88688 0
M  V30 4552 H 425.216 -5.39949 3.65101 0
M  V30 4553 N 428.649 -1.55105 -0.279332 0
M  V30 4554 C 429.896 -1.75412 -1.01177 0
M  V30 4555 C 430.224 -0.551728 -1.86511 0
M  V30 4556 O 429.479 0.465919 -1.90073 0
M  V30 4557 C 429.778 -3.0086 -1.92919 0
M  V30 4558 C 429.444 -4.33689 -1.23387 0
M  V30 4559 C 428.106 -4.69792 -1.04159 0
M  V30 4560 C 430.458 -5.15941 -0.738562 0
M  V30 4561 C 427.786 -5.85707 -0.341166 0
M  V30 4562 C 430.138 -6.32579 -0.0517636 0
M  V30 4563 C 428.802 -6.67326 0.152292 0
M  V30 4564 H 428.072 -0.641879 -0.370233 0
M  V30 4565 H 430.719 -1.89373 -0.284627 0
M  V30 4566 H 429.024 -2.81773 -2.72234 0
M  V30 4567 H 430.721 -3.13768 -2.49701 0
M  V30 4568 H 427.311 -4.05309 -1.39364 0
M  V30 4569 H 431.495 -4.8853 -0.874764 0
M  V30 4570 H 426.751 -6.11157 -0.172287 0
M  V30 4571 H 430.925 -6.9557 0.339828 0
M  V30 4572 H 428.552 -7.56998 0.697014 0
M  V30 4573 N 430.127 0.543554 -1.4793 0
M  V30 4574 C 431.059 1.665 -1.57513 0
M  V30 4575 C 432.072 1.56156 -0.460333 0
M  V30 4576 O 433.261 1.62865 -0.730573 0
M  V30 4577 C 430.361 3.05063 -1.47614 0
M  V30 4578 C 429.534 3.41024 -2.739 0
M  V30 4579 C 428.593 4.58809 -2.57645 0
M  V30 4580 O 427.619 4.62707 -3.31498 0
M  V30 4581 N 428.821 5.56149 -1.66368 0
M  V30 4582 H 431.586 1.5872 -2.5422 0
M  V30 4583 H 429.147 0.730517 -1.44482 0
M  V30 4584 H 431.139 3.81712 -1.34455 0
M  V30 4585 H 429.709 3.06994 -0.589359 0
M  V30 4586 H 428.929 2.53687 -3.01723 0
M  V30 4587 H 430.217 3.61831 -3.57709 0
M  V30 4588 H 429.615 5.55767 -1.05543 0
M  V30 4589 H 428.172 6.32071 -1.59154 0
M  V30 4590 N 431.605 1.3629 0.791371 0
M  V30 4591 C 433.021 1.16661 1.08914 0
M  V30 4592 C 433.221 -0.0106266 2.01497 0
M  V30 4593 O 432.277 -0.676596 2.43266 0
M  V30 4594 C 433.59 2.47656 1.70549 0
M  V30 4595 C 435.138 2.54002 1.82899 0
M  V30 4596 C 435.613 3.85078 2.47949 0
M  V30 4597 N 437.104 3.86413 2.5542 0
M  V30 4598 C 437.839 4.84572 3.06557 0
M  V30 4599 N 437.335 5.93124 3.58016 0
M  V30 4600 N 439.128 4.71994 3.05251 0
M  V30 4601 H 431.279 2.11668 0.176238 0
M  V30 4602 H 433.542 0.937486 0.140796 0
M  V30 4603 H 433.248 3.34059 1.09989 0
M  V30 4604 H 433.122 2.63319 2.70079 0
M  V30 4605 H 435.509 1.68018 2.42598 0
M  V30 4606 H 435.59 2.42239 0.821808 0
M  V30 4607 H 435.234 4.71467 1.88895 0
M  V30 4608 H 435.164 3.94135 3.49235 0
M  V30 4609 H 437.655 3.07988 2.18979 0
M  V30 4610 H 437.968 6.63999 3.95381 0
M  V30 4611 H 436.313 5.96796 3.56173 0
M  V30 4612 H 439.504 3.86321 2.64336 0
M  V30 4613 H 439.677 5.48653 3.44796 0
M  V30 4614 N 433.083 -1.0153 1.20538 0
M  V30 4615 C 434.013 -2.11972 0.979295 0
M  V30 4616 C 434.994 -1.6985 -0.0921787 0
M  V30 4617 O 436.179 -1.94089 0.0655932 0
M  V30 4618 C 433.309 -3.43201 0.531984 0
M  V30 4619 C 432.263 -3.9907 1.54685 0
M  V30 4620 C 431.589 -5.26082 0.956127 0
M  V30 4621 C 432.889 -4.32313 2.93092 0
M  V30 4622 H 434.583 -2.31143 1.90298 0
M  V30 4623 H 432.129 -1.11079 0.916372 0
M  V30 4624 H 434.082 -4.1985 0.361044 0
M  V30 4625 H 432.806 -3.23792 -0.427327 0
M  V30 4626 H 431.465 -3.2453 1.70517 0
M  V30 4627 H 431.113 -5.02999 -0.0111538 0
M  V30 4628 H 430.813 -5.64426 1.63393 0
M  V30 4629 H 432.337 -6.05386 0.796284 0
M  V30 4630 H 433.751 -4.99845 2.80763 0
M  V30 4631 H 432.148 -4.81774 3.57791 0
M  V30 4632 H 433.218 -3.41025 3.44717 0
M  V30 4633 N 434.561 -1.01147 -1.20859 0
M  V30 4634 C 435.977 -0.725422 -1.42161 0
M  V30 4635 C 436.177 0.696919 -1.89064 0
M  V30 4636 O 435.233 1.46539 -2.05627 0
M  V30 4637 C 436.546 -1.74678 -2.44761 0
M  V30 4638 C 438.094 -1.76433 -2.58535 0
M  V30 4639 C 438.569 -2.77481 -3.64374 0
M  V30 4640 N 440.06 -2.76189 -3.71852 0
M  V30 4641 C 440.795 -3.51035 -4.53389 0
M  V30 4642 N 440.291 -4.35541 -5.38773 0
M  V30 4643 N 442.084 -3.39655 -4.47873 0
M  V30 4644 H 434.235 -1.92979 -0.887282 0
M  V30 4645 H 436.498 -0.833327 -0.451962 0
M  V30 4646 H 436.204 -2.76551 -2.17285 0
M  V30 4647 H 436.078 -1.55472 -3.43669 0
M  V30 4648 H 438.465 -0.75248 -2.85345 0
M  V30 4649 H 438.546 -1.99712 -1.5984 0
M  V30 4650 H 438.19 -3.78827 -3.38308 0
M  V30 4651 H 438.12 -2.51466 -4.6268 0
M  V30 4652 H 440.611 -2.14885 -3.10858 0
M  V30 4653 H 440.924 -4.89432 -5.98061 0
M  V30 4654 H 439.269 -4.39621 -5.38292 0
M  V30 4655 H 442.46 -2.73063 -3.80203 0
M  V30 4656 H 442.633 -3.9824 -5.11184 0
M  V30 4657 N 436.039 1.36541 -0.78704 0
M  V30 4658 C 437.002 2.28413 -0.189778 0
M  V30 4659 C 438.002 1.48719 0.611499 0
M  V30 4660 O 439.192 1.68737 0.432842 0
M  V30 4661 C 436.324 3.32824 0.737638 0
M  V30 4662 H 437.517 2.82743 -0.999831 0
M  V30 4663 H 435.07 1.46065 -0.556298 0
M  V30 4664 H 435.805 2.83646 1.57212 0
M  V30 4665 H 435.59 3.91752 0.165044 0
M  V30 4666 H 437.08 4.0144 1.15047 0
M  V30 4667 N 437.518 0.538854 1.48102 0
M  V30 4668 C 438.448 -0.207654 2.32575 0
M  V30 4669 C 439.429 -0.926559 1.4265 0
M  V30 4670 O 440.614 -0.91061 1.71527 0
M  V30 4671 C 437.744 -1.24957 3.24042 0
M  V30 4672 C 436.698 -0.648263 4.23062 0
M  V30 4673 C 436.024 -1.79348 5.03725 0
M  V30 4674 C 437.324 0.385897 5.20872 0
M  V30 4675 H 439.018 0.497534 2.95237 0
M  V30 4676 H 436.564 0.240715 1.41974 0
M  V30 4677 H 438.517 -1.77983 3.81969 0
M  V30 4678 H 437.241 -1.98446 2.59397 0
M  V30 4679 H 435.9 -0.139452 3.66335 0
M  V30 4680 H 435.548 -2.51696 4.35498 0
M  V30 4681 H 435.248 -1.39702 5.70751 0
M  V30 4682 H 436.772 -2.32735 5.64506 0
M  V30 4683 H 438.186 -0.057607 5.73271 0
M  V30 4684 H 436.583 0.700227 5.96001 0
M  V30 4685 H 437.653 1.28848 4.67468 0
M  V30 4686 N 438.996 -1.55193 0.274407 0
M  V30 4687 C 439.926 -2.25471 -0.607032 0
M  V30 4688 C 440.907 -1.24461 -1.15946 0
M  V30 4689 O 442.092 -1.53179 -1.19373 0
M  V30 4690 C 439.222 -2.97526 -1.79153 0
M  V30 4691 C 438.176 -4.05459 -1.37067 0
M  V30 4692 C 437.502 -4.65084 -2.6382 0
M  V30 4693 C 438.802 -5.19691 -0.521389 0
M  V30 4694 H 440.496 -2.99393 -0.0209343 0
M  V30 4695 H 438.042 -1.43997 -0.00862866 0
M  V30 4696 H 439.995 -3.45402 -2.41404 0
M  V30 4697 H 438.719 -2.21138 -2.40344 0
M  V30 4698 H 437.378 -3.58393 -0.771355 0
M  V30 4699 H 437.026 -3.85365 -3.23268 0
M  V30 4700 H 436.726 -5.37961 -2.36372 0
M  V30 4701 H 438.25 -5.15708 -3.26921 0
M  V30 4702 H 439.664 -5.63623 -1.04889 0
M  V30 4703 H 438.061 -5.99126 -0.341825 0
M  V30 4704 H 439.131 -4.82713 0.46 0
M  V30 4705 N 440.474 -0.00167713 -1.576 0
M  V30 4706 C 441.722 0.681471 -1.90264 0
M  V30 4707 C 442.043 1.7422 -0.875924 0
M  V30 4708 O 441.313 1.95709 0.0864412 0
M  V30 4709 H 439.893 0.254696 -0.702239 0
M  V30 4710 H 442.555 -0.0429996 -1.94853 0
M  V30 4711 H 441.651 1.15166 -2.90075 0
M  V30 4712 N 441.952 1.55251 0.271103 0
M  V30 4713 C 443.192 1.77698 1.01008 0
M  V30 4714 C 443.556 0.567246 1.83429 0
M  V30 4715 O 444.757 0.670013 2.60316 0
M  V30 4716 C 443.028 3.04715 1.86772 0
M  V30 4717 S 444.587 3.48289 2.66909 0
M  V30 4718 H 441.405 0.624343 0.340172 0
M  V30 4719 H 444.007 1.9348 0.280315 0
M  V30 4720 H 442.711 3.90853 1.25149 0
M  V30 4721 H 442.242 2.91604 2.64066 0
M  V30 4722 H 444.257 3.07712 3.89266 0
M  V30 4723 N 443.43 -0.535701 1.48216 0
M  V30 4724 C 444.678 -1.28928 1.55634 0
M  V30 4725 C 444.999 -1.93645 0.229514 0
M  V30 4726 O 444.269 -1.81038 -0.74846 0
M  V30 4727 H 442.849 -0.47884 0.573342 0
M  V30 4728 H 445.511 -0.623853 1.84646 0
M  V30 4729 H 444.607 -2.07157 2.33436 0
M  V30 4730 N 444.908 -1.36708 -0.784132 0
M  V30 4731 C 446.324 -1.17237 -1.08294 0
M  V30 4732 C 446.524 -5.93947e-05 -2.015 0
M  V30 4733 O 445.58 0.663686 -2.43622 0
M  V30 4734 C 446.893 -2.48557 -1.69233 0
M  V30 4735 C 448.441 -2.54968 -1.8155 0
M  V30 4736 C 448.916 -3.86388 -2.45904 0
M  V30 4737 N 450.407 -3.87762 -2.53367 0
M  V30 4738 C 451.142 -4.86191 -3.03983 0
M  V30 4739 N 450.638 -5.95015 -3.54866 0
M  V30 4740 N 452.431 -4.73606 -3.02743 0
M  V30 4741 H 444.582 -2.11758 -0.16501 0
M  V30 4742 H 446.845 -0.93822 -0.135822 0
M  V30 4743 H 446.551 -3.34638 -1.08215 0
M  V30 4744 H 446.425 -2.64748 -2.68679 0
M  V30 4745 H 448.812 -1.69302 -2.41704 0
M  V30 4746 H 448.893 -2.42672 -0.80895 0
M  V30 4747 H 448.537 -4.72462 -1.86392 0
M  V30 4748 H 448.467 -3.95982 -3.4714 0
M  V30 4749 H 450.958 -3.09145 -2.17343 0
M  V30 4750 H 451.271 -6.66086 -3.91854 0
M  V30 4751 H 449.616 -5.98676 -3.53003 0
M  V30 4752 H 452.807 -3.87717 -2.62284 0
M  V30 4753 H 452.98 -5.50473 -3.41881 0
M  V30 4754 N 446.386 1.0089 -1.21074 0
M  V30 4755 C 447.632 1.74866 -1.02712 0
M  V30 4756 C 447.965 1.89178 0.438787 0
M  V30 4757 O 447.24 1.42325 1.32567 0
M  V30 4758 C 447.523 3.16347 -1.72036 0
M  V30 4759 C 447.376 3.09782 -3.26121 0
M  V30 4760 C 448.695 4.15187 -1.45973 0
M  V30 4761 H 445.814 0.634736 -0.374539 0
M  V30 4762 H 448.456 1.17646 -1.49196 0
M  V30 4763 H 446.606 3.65201 -1.32517 0
M  V30 4764 H 448.278 2.68673 -3.74983 0
M  V30 4765 H 446.521 2.46982 -3.56626 0
M  V30 4766 H 447.192 4.09829 -3.6979 0
M  V30 4767 H 449.668 3.75022 -1.80272 0
M  V30 4768 H 448.544 5.12331 -1.96999 0
M  V30 4769 H 448.805 4.40386 -0.388924 0
M  V30 4770 N 447.864 1.01787 1.20321 0
M  V30 4771 C 448.827 0.593972 2.2137 0
M  V30 4772 C 449.827 -0.336553 1.57239 0
M  V30 4773 O 451.017 -0.125069 1.7375 0
M  V30 4774 C 448.149 -0.132433 3.40643 0
M  V30 4775 H 449.342 1.48791 2.60387 0
M  V30 4776 H 446.895 0.807803 1.33807 0
M  V30 4777 H 447.63 -1.04123 3.0713 0
M  V30 4778 H 447.415 0.53605 3.88418 0
M  V30 4779 H 448.905 -0.416314 4.1552 0
M  V30 4780 N 449.342 -1.36122 0.79427 0
M  V30 4781 C 450.591 -1.98361 0.365464 0
M  V30 4782 C 450.904 -1.6374 -1.06997 0
M  V30 4783 O 452.11 -2.19251 -1.60129 0
M  V30 4784 C 450.566 -3.54821 0.602496 0
M  V30 4785 C 450.174 -3.98362 2.04967 0
M  V30 4786 C 451.918 -4.2383 0.238437 0
M  V30 4787 C 449.825 -5.47619 2.2331 0
M  V30 4788 H 448.755 -0.742193 0.13291 0
M  V30 4789 H 451.406 -1.55354 0.976589 0
M  V30 4790 H 449.788 -3.95922 -0.078409 0
M  V30 4791 H 450.962 -3.68447 2.76737 0
M  V30 4792 H 449.277 -3.42206 2.37243 0
M  V30 4793 H 451.874 -5.33529 0.353705 0
M  V30 4794 H 452.217 -4.08264 -0.814006 0
M  V30 4795 H 452.75 -3.88108 0.872769 0
M  V30 4796 H 449.489 -5.68138 3.26955 0
M  V30 4797 H 449.009 -5.79145 1.5605 0
M  V30 4798 H 450.688 -6.13911 2.0426 0
M  V30 4799 N 450.82 -0.546701 -1.47814 0
M  V30 4800 C 452.068 -0.0187037 -2.02091 0
M  V30 4801 C 452.389 1.33168 -1.42447 0
M  V30 4802 O 451.659 1.86619 -0.595839 0
M  V30 4803 H 450.239 -0.00392531 -0.74699 0
M  V30 4804 H 452.901 -0.714327 -1.81338 0
M  V30 4805 H 451.997 0.0772219 -3.12004 0
M  V30 4806 N 452.299 1.55045 -0.282633 0
M  V30 4807 C 453.547 1.99365 0.331334 0
M  V30 4808 C 453.868 1.1725 1.55812 0
M  V30 4809 O 453.138 0.263871 1.94115 0
M  V30 4810 H 451.718 0.736397 0.125414 0
M  V30 4811 H 454.38 1.90964 -0.389711 0
M  V30 4812 H 453.476 3.0596 0.616036 0
M  V30 4813 N 453.777 0.010035 1.57597 0
M  V30 4814 C 454.709 -1.00649 2.05918 0
M  V30 4815 C 455.722 -1.30077 0.978964 0
M  V30 4816 O 456.911 -1.26878 1.25556 0
M  V30 4817 C 454.011 -2.33876 2.45265 0
M  V30 4818 C 453.184 -2.23242 3.7614 0
M  V30 4819 C 452.243 -3.39242 4.02245 0
M  V30 4820 O 451.269 -3.1698 4.72771 0
M  V30 4821 N 452.471 -4.6242 3.50924 0
M  V30 4822 H 455.236 -0.594333 2.93748 0
M  V30 4823 H 452.797 -0.17714 1.60928 0
M  V30 4824 H 454.789 -3.1027 2.59836 0
M  V30 4825 H 453.359 -2.66799 1.62902 0
M  V30 4826 H 452.579 -1.31696 3.71551 0
M  V30 4827 H 453.867 -2.13321 4.61922 0
M  V30 4828 H 453.265 -4.83404 2.93832 0
M  V30 4829 H 451.822 -5.36046 3.70807 0
M  V30 4830 N 455.255 -1.55392 -0.262866 0
M  V30 4831 C 456.48 -1.80847 -1.01533 0
M  V30 4832 C 456.905 -0.584946 -1.78774 0
M  V30 4833 O 456.263 0.465701 -1.75217 0
M  V30 4834 C 456.311 -3.03866 -1.94159 0
M  V30 4835 O 455.415 -2.79662 -3.03089 0
M  V30 4836 H 454.756 -0.597441 -0.289759 0
M  V30 4837 H 457.286 -2.02553 -0.288698 0
M  V30 4838 H 457.296 -3.32872 -2.35924 0
M  V30 4839 H 455.971 -3.92564 -1.37354 0
M  V30 4840 H 454.548 -2.61781 -2.65566 0
M  V30 4841 N 456.733 0.527833 -1.48498 0
M  V30 4842 C 458.01 1.28905 -1.47115 0
M  V30 4843 C 458.39 2.10297 -0.184007 0
M  V30 4844 O 457.738 2.12728 0.834218 0
M  V30 4845 C 457.948 2.16866 -2.73441 0
M  V30 4846 C 459.296 2.76936 -3.21857 0
M  V30 4847 O 460.32 2.27152 -2.74373 0
M  V30 4848 O 459.179 3.67496 -4.04486 0
M  V30 4849 H 456.273 0.581918 -0.587623 0
M  V30 4850 H 458.819 0.544311 -1.60734 0
M  V30 4851 H 457.591 1.56521 -3.58632 0
M  V30 4852 H 457.214 2.98583 -2.62553 0
M  V30 4853 N 458.211 1.37122 0.776871 0
M  V30 4854 C 459.121 1.34651 1.9211 0
M  V30 4855 C 460.137 0.246824 1.7224 0
M  V30 4856 O 461.313 0.48134 1.95563 0
M  V30 4857 C 458.378 1.14748 3.2716 0
M  V30 4858 C 457.439 2.34308 3.5972 0
M  V30 4859 C 456.672 2.15345 4.88326 0
M  V30 4860 O 456.895 1.13507 5.58992 0
M  V30 4861 O 455.829 3.03414 5.1983 0
M  V30 4862 H 459.655 2.31013 1.97146 0
M  V30 4863 H 457.24 1.17799 0.918901 0
M  V30 4864 H 459.122 1.05616 4.0795 0
M  V30 4865 H 457.797 0.214562 3.22988 0
M  V30 4866 H 456.704 2.49011 2.79185 0
M  V30 4867 H 458.037 3.26149 3.68629 0
M  V30 4868 N 459.689 -1.00246 1.21608 0
M  V30 4869 C 460.914 -1.78167 1.06167 0
M  V30 4870 C 461.339 -1.84138 -0.384035 0
M  V30 4871 O 460.697 -1.28683 -1.27712 0
M  V30 4872 C 460.745 -3.19786 1.66642 0
M  V30 4873 O 459.849 -4.02153 0.913613 0
M  V30 4874 H 459.19 -0.549 0.37349 0
M  V30 4875 H 461.72 -1.25994 1.61204 0
M  V30 4876 H 461.73 -3.70451 1.70969 0
M  V30 4877 H 460.405 -3.14754 2.7185 0
M  V30 4878 H 458.982 -3.60711 0.945635 0
M  V30 4879 N 461.167 -1.02423 -1.1978 0
M  V30 4880 C 462.444 -0.632802 -1.85081 0
M  V30 4881 C 462.824 0.888745 -1.9148 0
M  V30 4882 O 462.172 1.78357 -1.42832 0
M  V30 4883 C 462.382 -1.28947 -3.24305 0
M  V30 4884 C 463.73 -1.40976 -4.00513 0
M  V30 4885 O 464.754 -1.24628 -3.33686 0
M  V30 4886 O 463.613 -1.67467 -5.20209 0
M  V30 4887 H 460.707 -0.219348 -0.79738 0
M  V30 4888 H 463.253 -1.12209 -1.27307 0
M  V30 4889 H 462.025 -2.3288 -3.14456 0
M  V30 4890 H 461.648 -0.787748 -3.89718 0
M  V30 4891 N 462.645 1.35699 -0.801477 0
M  V30 4892 C 464.061 1.52065 -0.484596 0
M  V30 4893 C 464.261 1.75215 0.995084 0
M  V30 4894 O 463.317 1.79061 1.78026 0
M  V30 4895 C 464.63 2.69908 -1.32552 0
M  V30 4896 C 466.178 2.83784 -1.32044 0
M  V30 4897 C 466.653 4.04646 -2.14536 0
M  V30 4898 N 468.144 4.11814 -2.12046 0
M  V30 4899 C 468.879 5.04437 -2.72636 0
M  V30 4900 N 468.375 6.02426 -3.42133 0
M  V30 4901 N 470.168 4.97144 -2.62305 0
M  V30 4902 H 462.319 1.18928 -1.75983 0
M  V30 4903 H 464.582 0.581455 -0.748741 0
M  V30 4904 H 464.288 2.59363 -2.37537 0
M  V30 4905 H 464.162 3.64376 -0.975181 0
M  V30 4906 H 466.549 2.93783 -0.27846 0
M  V30 4907 H 466.63 1.90188 -1.71062 0
M  V30 4908 H 466.274 3.95407 -3.18772 0
M  V30 4909 H 466.204 4.97413 -1.72882 0
M  V30 4910 H 468.695 3.41664 -1.61476 0
M  V30 4911 H 469.008 6.69688 -3.85666 0
M  V30 4912 H 467.353 6.02615 -3.46237 0
M  V30 4913 H 470.544 4.19546 -2.07603 0
M  V30 4914 H 470.717 5.69138 -3.09815 0
M  V30 4915 N 464.123 0.554532 1.47522 0
M  V30 4916 C 465.353 0.0342074 2.06572 0
M  V30 4917 C 465.761 -1.26375 1.40805 0
M  V30 4918 O 465.104 -1.7683 0.49769 0
M  V30 4919 C 465.166 -0.235096 3.5873 0
M  V30 4920 C 464.83 0.973024 4.46521 0
M  V30 4921 C 465.827 1.8779 4.848 0
M  V30 4922 C 463.512 1.18694 4.88075 0
M  V30 4923 C 465.506 2.98039 5.63428 0
M  V30 4924 C 463.193 2.29254 5.66468 0
M  V30 4925 C 464.191 3.18757 6.04055 0
M  V30 4926 O 463.879 4.27401 6.8087 0
M  V30 4927 H 463.611 0.041587 0.67472 0
M  V30 4928 H 466.165 0.766748 1.90552 0
M  V30 4929 H 464.395 -1.02191 3.72953 0
M  V30 4930 H 466.084 -0.700477 3.9981 0
M  V30 4931 H 466.85 1.72467 4.53299 0
M  V30 4932 H 462.729 0.49947 4.58286 0
M  V30 4933 H 466.273 3.67926 5.92685 0
M  V30 4934 H 462.17 2.4455 5.97382 0
M  V30 4935 H 462.938 4.25415 6.9926 0
M  V30 4936 N 465.601 -1.54893 0.290851 0
M  V30 4937 C 466.85 -1.99111 -0.322113 0
M  V30 4938 C 467.163 -1.18283 -1.55784 0
M  V30 4939 O 468.369 -1.5272 -2.24475 0
M  V30 4940 C 466.825 -3.54442 -0.624438 0
M  V30 4941 C 466.433 -4.44066 0.592373 0
M  V30 4942 C 468.177 -4.07211 -1.19916 0
M  V30 4943 C 466.084 -5.90812 0.263762 0
M  V30 4944 H 465.014 -0.743712 -0.124133 0
M  V30 4945 H 467.665 -1.79132 0.39797 0
M  V30 4946 H 466.047 -3.70281 -1.40384 0
M  V30 4947 H 467.221 -4.39999 1.36886 0
M  V30 4948 H 465.536 -4.02015 1.08502 0
M  V30 4949 H 468.133 -5.14407 -1.45909 0
M  V30 4950 H 468.476 -3.57196 -2.13815 0
M  V30 4951 H 469.009 -3.94873 -0.481687 0
M  V30 4952 H 465.748 -6.44955 1.17105 0
M  V30 4953 H 465.268 -5.97911 -0.475655 0
M  V30 4954 H 466.947 -6.46852 -0.138354 0
M  V30 4955 N 467.08 -0.0183926 -1.57589 0
M  V30 4956 C 468.043 0.951986 -2.08494 0
M  V30 4957 C 469.043 1.26092 -0.997874 0
M  V30 4958 O 470.233 1.20304 -1.25987 0
M  V30 4959 C 467.365 2.27165 -2.54182 0
M  V30 4960 H 468.558 0.511307 -2.95509 0
M  V30 4961 H 466.111 0.229444 -1.54607 0
M  V30 4962 H 466.846 2.75884 -1.70465 0
M  V30 4963 H 466.631 2.06057 -3.33591 0
M  V30 4964 H 468.121 2.9674 -2.93828 0
M  V30 4965 N 468.558 1.5553 0.254621 0
M  V30 4966 C 469.969 1.67518 0.824286 0
M  V30 4967 C 470.32 0.614429 1.86331 0
M  V30 4968 O 469.445 -0.240736 2.15057 0
M  V30 4969 C 470.04 3.03692 1.50189 0
M  V30 4970 C 468.599 3.17646 2.01935 0
M  V30 4971 C 467.746 2.63373 0.867746 0
M  V30 4972 H 470.697 1.58671 0.0305843 0
M  V30 4973 H 470.718 2.97706 2.36962 0
M  V30 4974 H 470.23 3.80874 0.745431 0
M  V30 4975 H 468.331 2.45273 2.80485 0
M  V30 4976 H 468.444 4.24455 2.22204 0
M  V30 4977 H 466.808 2.20999 1.26616 0
M  V30 4978 H 467.591 3.43074 0.124498 0
M  V30 4979 N 470.036 -0.519951 1.48776 0
M  V30 4980 C 471.264 -1.29971 1.60982 0
M  V30 4981 C 471.679 -1.86803 0.273885 0
M  V30 4982 O 471.036 -1.66904 -0.738193 0
M  V30 4983 C 471.087 -2.44346 2.66415 0
M  V30 4984 O 470.808 -1.89855 3.94825 0
M  V30 4985 C 472.309 -3.36014 2.89153 0
M  V30 4986 H 469.529 -0.394891 0.542496 0
M  V30 4987 H 472.073 -0.626214 1.94676 0
M  V30 4988 H 470.228 -3.07562 2.35552 0
M  V30 4989 H 470.642 -2.64798 4.5275 0
M  V30 4990 H 472.116 -4.12593 3.66703 0
M  V30 4991 H 472.593 -3.91859 1.98351 0
M  V30 4992 H 473.199 -2.78582 3.21359 0
M  V30 4993 N 471.514 -1.37532 -0.769588 0
M  V30 4994 C 472.76 -1.33057 -1.53048 0
M  V30 4995 C 473.093 0.0841865 -1.94017 0
M  V30 4996 O 472.368 1.04198 -1.64235 0
M  V30 4997 C 472.651 -2.27166 -2.79406 0
M  V30 4998 C 472.504 -3.77429 -2.44677 0
M  V30 4999 C 473.823 -2.19683 -3.81349 0
M  V30 5000 H 470.942 -0.484655 -0.555228 0
M  V30 5001 H 473.584 -1.68251 -0.882702 0
M  V30 5002 H 471.734 -1.97283 -3.34682 0
M  V30 5003 H 473.406 -4.17918 -1.953 0
M  V30 5004 H 471.649 -3.95892 -1.77346 0
M  V30 5005 H 472.32 -4.38716 -3.35011 0
M  V30 5006 H 474.796 -2.46029 -3.35573 0
M  V30 5007 H 473.672 -2.87668 -4.67481 0
M  V30 5008 H 473.933 -1.19045 -4.25771 0
M  V30 5009 N 472.992 0.995999 -1.22138 0
M  V30 5010 C 473.922 2.10387 -1.01289 0
M  V30 5011 C 474.903 1.69975 0.0651454 0
M  V30 5012 O 476.088 1.9396 -0.0964628 0
M  V30 5013 C 473.218 3.42312 -0.586517 0
M  V30 5014 C 472.172 3.96558 -1.61014 0
M  V30 5015 C 471.498 5.24494 -1.0397 0
M  V30 5016 C 472.798 4.27595 -2.99933 0
M  V30 5017 H 474.492 2.28086 -1.93951 0
M  V30 5018 H 472.038 1.09607 -0.933928 0
M  V30 5019 H 473.991 4.19223 -0.427793 0
M  V30 5020 H 472.715 3.24431 0.375761 0
M  V30 5021 H 471.374 3.21776 -1.75658 0
M  V30 5022 H 471.022 5.02953 -0.0688703 0
M  V30 5023 H 470.722 5.61755 -1.72352 0
M  V30 5024 H 472.246 6.04042 -0.892494 0
M  V30 5025 H 473.66 4.95315 -2.8868 0
M  V30 5026 H 472.057 4.76021 -3.6541 0
M  V30 5027 H 473.127 3.35498 -3.50099 0
M  V30 5028 N 474.47 1.03057 1.19235 0
M  V30 5029 C 475.716 0.729098 1.89241 0
M  V30 5030 C 476.049 -0.740573 1.79525 0
M  V30 5031 O 475.324 -1.53946 1.18874 0
M  V30 5032 C 475.607 1.18304 3.40112 0
M  V30 5033 C 475.46 2.71406 3.5869 0
M  V30 5034 C 476.779 0.765161 4.33397 0
M  V30 5035 H 473.898 0.266338 0.687192 0
M  V30 5036 H 476.54 1.28079 1.40341 0
M  V30 5037 H 474.69 0.713672 3.81889 0
M  V30 5038 H 476.362 3.26303 3.26074 0
M  V30 5039 H 474.605 3.11717 3.01687 0
M  V30 5040 H 475.276 2.98225 4.64506 0
M  V30 5041 H 477.752 1.16889 3.99345 0
M  V30 5042 H 476.628 1.11065 5.37546 0
M  V30 5043 H 476.889 -0.332372 4.40849 0
M  V30 5044 N 475.948 -1.35272 0.808662 0
M  V30 5045 C 477.225 -1.93077 0.313181 0
M  V30 5046 C 477.605 -1.73847 -1.19752 0
M  V30 5047 O 476.953 -1.1087 -1.998 0
M  V30 5048 C 477.163 -3.41347 0.726859 0
M  V30 5049 C 478.511 -4.18493 0.717532 0
M  V30 5050 O 479.535 -3.4987 0.668535 0
M  V30 5051 O 478.394 -5.40937 0.777779 0
M  V30 5052 H 475.488 -0.822885 0.0824018 0
M  V30 5053 H 478.034 -1.44335 0.892499 0
M  V30 5054 H 476.806 -3.49082 1.76797 0
M  V30 5055 H 476.429 -3.97411 0.122461 0
M  V30 5056 N 477.426 -0.562348 -1.47226 0
M  V30 5057 C 478.672 -0.0402761 -2.0276 0
M  V30 5058 C 479.005 1.30823 -1.43523 0
M  V30 5059 O 478.28 1.85249 -0.592705 0
M  V30 5060 C 478.563 0.047311 -3.60069 0
M  V30 5061 C 478.416 -1.32865 -4.29729 0
M  V30 5062 C 479.735 0.758182 -4.3352 0
M  V30 5063 H 476.854 -0.0161105 -0.736824 0
M  V30 5064 H 479.496 -0.725628 -1.75598 0
M  V30 5065 H 477.646 0.630986 -3.83342 0
M  V30 5066 H 479.318 -1.95593 -4.17781 0
M  V30 5067 H 477.561 -1.90195 -3.89882 0
M  V30 5068 H 478.232 -1.22004 -5.38349 0
M  V30 5069 H 480.708 0.262546 -4.15271 0
M  V30 5070 H 479.584 0.78844 -5.43208 0
M  V30 5071 H 479.845 1.81537 -4.03109 0
M  V30 5072 N 478.904 1.54736 -0.299062 0
M  V30 5073 C 479.836 2.20891 0.61153 0
M  V30 5074 C 480.849 1.20104 1.09904 0
M  V30 5075 O 482.038 1.46707 1.01683 0
M  V30 5076 C 479.138 2.84018 1.84897 0
M  V30 5077 C 478.311 4.10719 1.50428 0
M  V30 5078 C 477.37 4.57667 2.59667 0
M  V30 5079 O 476.396 5.2291 2.24842 0
M  V30 5080 N 477.598 4.29821 3.90172 0
M  V30 5081 H 480.363 2.99666 0.0452001 0
M  V30 5082 H 477.924 1.61446 -0.121178 0
M  V30 5083 H 479.916 3.1236 2.5732 0
M  V30 5084 H 478.486 2.09095 2.32375 0
M  V30 5085 H 477.706 3.89408 0.612781 0
M  V30 5086 H 478.994 4.93223 1.24934 0
M  V30 5087 H 478.392 3.77549 4.21276 0
M  V30 5088 H 476.949 4.62877 4.58899 0
M  V30 5089 N 480.382 0.0267497 1.57577 0
M  V30 5090 C 481.292 -0.971633 2.13533 0
M  V30 5091 C 482.308 -1.35868 1.08701 0
M  V30 5092 O 483.484 -1.44058 1.40746 0
M  V30 5093 C 480.549 -2.23622 2.64941 0
M  V30 5094 C 479.61 -1.90982 3.8448 0
M  V30 5095 C 478.843 -3.11411 4.33427 0
M  V30 5096 O 479.066 -4.23992 3.81558 0
M  V30 5097 O 478 -2.93848 5.25297 0
M  V30 5098 H 481.826 -0.525853 2.99113 0
M  V30 5099 H 479.411 -0.193712 1.48139 0
M  V30 5100 H 481.293 -2.97864 2.98086 0
M  V30 5101 H 479.968 -2.67386 1.82446 0
M  V30 5102 H 478.875 -1.14132 3.56265 0
M  V30 5103 H 480.208 -1.52036 4.6813 0
M  V30 5104 N 481.861 -1.55662 -0.24637 0
M  V30 5105 C 482.794 -1.85332 -1.33143 0
M  V30 5106 C 483.772 -0.708464 -1.46354 0
M  V30 5107 O 484.956 -0.954274 -1.6256 0
M  V30 5108 C 482.083 -2.0385 -2.70487 0
M  V30 5109 C 481.129 -3.26488 -2.74423 0
M  V30 5110 S 481.962 -4.83124 -2.30979 0
M  V30 5111 C 483.118 -5.04647 -3.70246 0
M  V30 5112 H 483.351 -2.77077 -1.07777 0
M  V30 5113 H 480.884 -1.47776 -0.44738 0
M  V30 5114 H 482.842 -2.15202 -3.49569 0
M  V30 5115 H 481.503 -1.12947 -2.9309 0
M  V30 5116 H 480.696 -3.36413 -3.7529 0
M  V30 5117 H 480.298 -3.13864 -2.03385 0
M  V30 5118 H 482.59 -4.92023 -4.65746 0
M  V30 5119 H 483.533 -6.06625 -3.65255 0
M  V30 5120 H 483.941 -4.32491 -3.62784 0
M  V30 5121 N 483.339 0.512053 -1.4905 0
M  V30 5122 C 484.249 1.64139 -1.67617 0
M  V30 5123 C 485.265 1.64786 -0.558701 0
M  V30 5124 O 486.441 1.8341 -0.832034 0
M  V30 5125 C 483.506 3.00548 -1.72835 0
M  V30 5126 C 482.567 3.10615 -2.96339 0
M  V30 5127 C 481.8 4.40517 -3.01298 0
M  V30 5128 O 482.023 5.28671 -2.14157 0
M  V30 5129 O 480.957 4.55325 -3.93653 0
M  V30 5130 H 484.783 1.51407 -2.63267 0
M  V30 5131 H 482.368 0.687131 -1.32661 0
M  V30 5132 H 484.25 3.81641 -1.78683 0
M  V30 5133 H 482.925 3.13566 -0.803616 0
M  V30 5134 H 481.832 2.2875 -2.96014 0
M  V30 5135 H 483.165 3.0252 -3.88256 0
M  V30 5136 N 484.817 1.37938 0.762283 0
M  V30 5137 C 486.228 1.30094 1.33912 0
M  V30 5138 C 486.579 -0.0472026 1.96143 0
M  V30 5139 O 485.704 -0.94917 1.94473 0
M  V30 5140 C 486.299 2.35592 2.43478 0
M  V30 5141 C 484.858 2.31353 2.96905 0
M  V30 5142 C 484.005 2.18919 1.70205 0
M  V30 5143 H 486.956 1.48423 0.561816 0
M  V30 5144 H 486.977 2.00806 3.23199 0
M  V30 5145 H 486.489 3.33701 1.98155 0
M  V30 5146 H 484.59 1.36799 3.46579 0
M  V30 5147 H 484.703 3.25147 3.51875 0
M  V30 5148 H 483.067 1.65624 1.93496 0
M  V30 5149 H 483.85 3.18956 1.26973 0
M  V30 5150 N 486.295 -0.989507 1.22664 0
M  V30 5151 C 487.541 -1.7321 1.05481 0
M  V30 5152 C 487.874 -1.89852 -0.408635 0
M  V30 5153 O 487.149 -1.44416 -1.30285 0
M  V30 5154 C 487.432 -3.1357 1.77047 0
M  V30 5155 C 487.285 -3.04555 3.31008 0
M  V30 5156 C 488.604 -4.12812 1.5256 0
M  V30 5157 H 485.723 -0.628697 0.384589 0
M  V30 5158 H 488.365 -1.15258 1.51049 0
M  V30 5159 H 486.515 -3.63046 1.3831 0
M  V30 5160 H 488.187 -2.62674 3.7921 0
M  V30 5161 H 486.43 -2.41278 3.6051 0
M  V30 5162 H 487.101 -4.03894 3.76263 0
M  V30 5163 H 489.577 -3.72106 1.86215 0
M  V30 5164 H 488.453 -5.09132 2.05124 0
M  V30 5165 H 488.714 -4.39711 0.458936 0
M  V30 5166 N 487.773 -1.03688 -1.18687 0
M  V30 5167 C 488.706 -0.569112 -2.2099 0
M  V30 5168 C 489.684 0.394315 -1.57746 0
M  V30 5169 O 490.868 0.309519 -1.85941 0
M  V30 5170 C 487.995 0.169104 -3.38278 0
M  V30 5171 C 487.041 -0.746989 -4.19908 0
M  V30 5172 S 487.874 -2.22773 -4.86963 0
M  V30 5173 C 489.03 -1.50025 -6.07654 0
M  V30 5174 H 489.263 -1.43589 -2.60326 0
M  V30 5175 H 486.796 -0.847507 -1.29061 0
M  V30 5176 H 488.754 0.588868 -4.06254 0
M  V30 5177 H 487.415 1.01172 -2.9736 0
M  V30 5178 H 486.608 -0.176626 -5.0369 0
M  V30 5179 H 486.21 -1.10543 -3.5729 0
M  V30 5180 H 488.502 -0.791217 -6.72864 0
M  V30 5181 H 489.445 -2.31498 -6.69189 0
M  V30 5182 H 489.853 -0.994245 -5.55675 0
M  V30 5183 N 489.251 1.34841 -0.815825 0
M  V30 5184 C 490.183 2.28409 -0.190265 0
M  V30 5185 C 491.196 1.50705 0.615771 0
M  V30 5186 O 492.385 1.72822 0.446616 0
M  V30 5187 C 489.485 3.30441 0.752446 0
M  V30 5188 C 488.658 4.37399 -0.00922152 0
M  V30 5189 C 487.717 5.19234 0.853351 0
M  V30 5190 O 486.743 5.68404 0.300919 0
M  V30 5191 N 487.945 5.38248 2.17416 0
M  V30 5192 H 490.71 2.82732 -0.994114 0
M  V30 5193 H 488.271 1.47289 -0.672129 0
M  V30 5194 H 490.263 3.82084 1.33394 0
M  V30 5195 H 488.833 2.76565 1.45707 0
M  V30 5196 H 488.053 3.86567 -0.771979 0
M  V30 5197 H 489.341 5.05992 -0.533807 0
M  V30 5198 H 488.739 4.99961 2.6468 0
M  V30 5199 H 487.296 5.93035 2.70467 0
M  V30 5200 N 490.729 0.570148 1.46925 0
M  V30 5201 C 491.639 -0.173061 2.33961 0
M  V30 5202 C 492.655 -0.898825 1.48987 0
M  V30 5203 O 493.831 -0.864825 1.81887 0
M  V30 5204 C 490.896 -1.18177 3.25937 0
M  V30 5205 C 489.957 -0.462041 4.26806 0
M  V30 5206 C 489.19 -1.4227 5.14388 0
M  V30 5207 O 489.413 -2.65842 5.04662 0
M  V30 5208 O 488.347 -0.940127 5.94513 0
M  V30 5209 H 492.173 0.541216 2.98839 0
M  V30 5210 H 489.758 0.330647 1.45695 0
M  V30 5211 H 491.64 -1.76372 3.82715 0
M  V30 5212 H 490.315 -1.87774 2.63671 0
M  V30 5213 H 489.222 0.161429 3.73752 0
M  V30 5214 H 490.555 0.192719 4.91823 0
M  V30 5215 N 492.207 -1.54576 0.307264 0
M  V30 5216 C 493.117 -2.27435 -0.57536 0
M  V30 5217 C 494.133 -1.31183 -1.14311 0
M  V30 5218 O 495.309 -1.64175 -1.16656 0
M  V30 5219 C 492.374 -3.00566 -1.72803 0
M  V30 5220 C 491.435 -4.12369 -1.19373 0
M  V30 5221 C 490.668 -4.82003 -2.29147 0
M  V30 5222 O 490.891 -4.51038 -3.49171 0
M  V30 5223 O 489.825 -5.69271 -1.95485 0
M  V30 5224 H 493.651 -3.03696 0.0158558 0
M  V30 5225 H 491.236 -1.49219 0.0735064 0
M  V30 5226 H 493.118 -3.46416 -2.39946 0
M  V30 5227 H 491.793 -2.27195 -2.30574 0
M  V30 5228 H 490.7 -3.70905 -0.487851 0
M  V30 5229 H 492.033 -4.87736 -0.661376 0
M  V30 5230 N 493.685 -0.035106 -1.57561 0
M  V30 5231 C 494.934 0.641604 -1.91223 0
M  V30 5232 C 495.247 1.72944 -0.913761 0
M  V30 5233 O 496.453 2.46321 -1.14185 0
M  V30 5234 C 494.909 1.19249 -3.3957 0
M  V30 5235 C 494.517 0.137616 -4.47789 0
M  V30 5236 C 496.261 1.84537 -3.82291 0
M  V30 5237 C 494.168 0.700478 -5.87237 0
M  V30 5238 H 493.098 0.243417 -0.713627 0
M  V30 5239 H 495.749 -0.101382 -1.8322 0
M  V30 5240 H 494.131 1.98728 -3.42525 0
M  V30 5241 H 495.305 -0.635153 -4.56402 0
M  V30 5242 H 493.62 -0.416855 -4.14308 0
M  V30 5243 H 496.217 2.27616 -4.83834 0
M  V30 5244 H 496.56 2.69054 -3.17672 0
M  V30 5245 H 497.093 1.11739 -3.81784 0
M  V30 5246 H 493.832 -0.106693 -6.55413 0
M  V30 5247 H 493.352 1.4416 -5.82218 0
M  V30 5248 H 495.031 1.18837 -6.35993 0
M  V30 5249 N 495.163 1.55791 0.238111 0
M  V30 5250 C 496.41 1.78033 0.964907 0
M  V30 5251 C 496.738 0.600984 1.84982 0
M  V30 5252 O 495.993 -0.41536 1.91241 0
M  V30 5253 C 496.292 3.05869 1.84875 0
M  V30 5254 C 495.958 4.36808 1.11846 0
M  V30 5255 C 494.62 4.72388 0.916662 0
M  V30 5256 C 496.972 5.17717 0.60151 0
M  V30 5257 C 494.3 5.86406 0.185756 0
M  V30 5258 C 496.652 6.32494 -0.115972 0
M  V30 5259 C 495.316 6.66688 -0.329168 0
M  V30 5260 H 494.586 0.651469 0.353085 0
M  V30 5261 H 497.233 1.90061 0.234318 0
M  V30 5262 H 495.538 2.88891 2.64668 0
M  V30 5263 H 497.235 3.20278 2.41294 0
M  V30 5264 H 493.825 4.08862 1.28569 0
M  V30 5265 H 498.009 4.90678 0.744932 0
M  V30 5266 H 493.265 6.11399 0.0101886 0
M  V30 5267 H 497.439 6.94425 -0.524127 0
M  V30 5268 H 495.066 7.54884 -0.897474 0
M  V30 5269 N 496.642 -0.504142 1.49319 0
M  V30 5270 C 497.89 -1.25598 1.58334 0
M  V30 5271 C 498.211 -1.93114 0.270538 0
M  V30 5272 O 497.481 -1.82585 -0.709891 0
M  V30 5273 H 496.061 -0.466571 0.58337 0
M  V30 5274 H 498.723 -0.584547 1.85928 0
M  V30 5275 H 497.819 -2.02159 2.37778 0
M  V30 5276 N 498.12 -1.38341 -0.754957 0
M  V30 5277 C 499.531 -1.30803 -1.3322 0
M  V30 5278 C 499.882 0.0368 -1.96165 0
M  V30 5279 O 499.007 0.938844 -1.94974 0
M  V30 5280 C 499.602 -2.3688 -2.42225 0
M  V30 5281 C 498.161 -2.32925 -2.95674 0
M  V30 5282 C 497.308 -2.19819 -1.69042 0
M  V30 5283 H 500.259 -1.48719 -0.553937 0
M  V30 5284 H 500.28 -2.02517 -3.22129 0
M  V30 5285 H 499.792 -3.34747 -1.96383 0
M  V30 5286 H 497.893 -1.38635 -3.45848 0
M  V30 5287 H 498.006 -3.27008 -3.50146 0
M  V30 5288 H 496.37 -1.66648 -1.92615 0
M  V30 5289 H 497.153 -3.19625 -1.25279 0
M  V30 5290 N 499.598 0.982988 -1.23187 0
M  V30 5291 C 500.847 1.71817 -1.05649 0
M  V30 5292 C 501.16 1.91315 0.407176 0
M  V30 5293 O 502.366 2.62256 0.702436 0
M  V30 5294 C 500.822 3.09188 -1.84203 0
M  V30 5295 C 500.43 2.97586 -3.34882 0
M  V30 5296 C 502.174 3.86684 -1.75146 0
M  V30 5297 C 500.081 4.30173 -4.05839 0
M  V30 5298 H 499.011 0.644258 -0.391724 0
M  V30 5299 H 501.662 1.09659 -1.4713 0
M  V30 5300 H 500.044 3.72087 -1.35527 0
M  V30 5301 H 501.218 2.43793 -3.91026 0
M  V30 5302 H 499.533 2.33567 -3.44725 0
M  V30 5303 H 502.13 4.84836 -2.25473 0
M  V30 5304 H 502.473 4.10136 -0.713737 0
M  V30 5305 H 503.006 3.30482 -2.21419 0
M  V30 5306 H 499.745 4.11918 -5.09906 0
M  V30 5307 H 499.265 4.83841 -3.54482 0
M  V30 5308 H 500.944 4.98873 -4.11989 0
M  V30 5309 N 501.076 1.04316 1.18135 0
M  V30 5310 C 502.006 0.657299 2.24058 0
M  V30 5311 C 502.987 -0.340678 1.66654 0
M  V30 5312 O 504.172 -0.220223 1.92947 0
M  V30 5313 C 501.302 0.0220715 3.47293 0
M  V30 5314 C 500.256 0.943857 4.17463 0
M  V30 5315 C 499.582 0.172973 5.3442 0
M  V30 5316 C 500.882 2.26409 4.70677 0
M  V30 5317 H 502.576 1.5428 2.56589 0
M  V30 5318 H 500.122 0.743263 1.23335 0
M  V30 5319 H 502.075 -0.259607 4.206 0
M  V30 5320 H 500.799 -0.898323 3.14003 0
M  V30 5321 H 499.458 1.20996 3.46057 0
M  V30 5322 H 499.106 -0.749907 4.97379 0
M  V30 5323 H 498.806 0.787098 5.82304 0
M  V30 5324 H 500.33 -0.101628 6.10515 0
M  V30 5325 H 501.744 2.04294 5.35665 0
M  V30 5326 H 500.141 2.8314 5.29105 0
M  V30 5327 H 501.211 2.90883 3.87962 0
M  V30 5328 N 502.554 -1.34406 0.822964 0
M  V30 5329 C 503.965 -1.8069 0.469879 0
M  V30 5330 C 504.316 -1.68223 -1.00972 0
M  V30 5331 O 503.441 -1.22226 -1.78577 0
M  V30 5332 C 504.036 -3.28064 0.846118 0
M  V30 5333 C 502.595 -3.72428 0.545402 0
M  V30 5334 C 501.742 -2.56116 1.06301 0
M  V30 5335 H 504.693 -1.22153 1.01313 0
M  V30 5336 H 504.714 -3.80205 0.149922 0
M  V30 5337 H 504.226 -3.37107 1.92304 0
M  V30 5338 H 502.327 -3.68924 -0.522109 0
M  V30 5339 H 502.44 -4.66548 1.0895 0
M  V30 5340 H 500.804 -2.50048 0.484554 0
M  V30 5341 H 501.587 -2.67928 2.14638 0
M  V30 5342 N 504.032 -0.577932 -1.46621 0
M  V30 5343 C 505.281 -0.0594281 -2.01612 0
M  V30 5344 C 505.594 1.30663 -1.45556 0
M  V30 5345 O 506.8 1.91621 -1.92337 0
M  V30 5346 C 505.256 -0.0556666 -3.59857 0
M  V30 5347 C 504.864 -1.41975 -4.24908 0
M  V30 5348 C 506.608 0.409143 -4.22524 0
M  V30 5349 C 504.515 -1.37397 -5.75218 0
M  V30 5350 H 503.445 -0.0184469 -0.753774 0
M  V30 5351 H 506.096 -0.728869 -1.68404 0
M  V30 5352 H 504.478 0.679843 -3.90121 0
M  V30 5353 H 505.652 -2.17461 -4.0626 0
M  V30 5354 H 503.967 -1.82419 -3.74316 0
M  V30 5355 H 506.564 0.46211 -5.32699 0
M  V30 5356 H 506.907 1.42565 -3.91128 0
M  V30 5357 H 507.44 -0.272152 -3.96868 0
M  V30 5358 H 504.179 -2.36714 -6.11267 0
M  V30 5359 H 503.699 -0.661239 -5.96144 0
M  V30 5360 H 505.378 -1.08484 -6.3784 0
M  V30 5361 N 505.51 1.54411 -0.315457 0
M  V30 5362 C 506.756 2.00716 0.289972 0
M  V30 5363 C 507.089 1.2034 1.5242 0
M  V30 5364 O 506.364 0.283579 1.92422 0
M  V30 5365 C 506.647 3.54507 0.632196 0
M  V30 5366 C 506.5 4.45615 -0.61218 0
M  V30 5367 C 507.819 4.15421 1.45305 0
M  V30 5368 H 504.938 0.729637 0.10392 0
M  V30 5369 H 507.58 1.8506 -0.430427 0
M  V30 5370 H 505.73 3.67979 1.24595 0
M  V30 5371 H 507.402 4.44026 -1.25053 0
M  V30 5372 H 505.645 4.15621 -1.24264 0
M  V30 5373 H 506.316 5.51022 -0.328379 0
M  V30 5374 H 508.792 4.05474 0.934331 0
M  V30 5375 H 507.668 5.23157 1.66127 0
M  V30 5376 H 507.929 3.68223 2.44671 0
M  V30 5377 N 506.988 0.0434614 1.5754 0
M  V30 5378 C 507.936 -0.951465 2.1225 0
M  V30 5379 C 508.93 -1.3274 1.05245 0
M  V30 5380 O 510.136 -1.30795 1.23663 0
M  V30 5381 H 506.511 -0.324667 0.678303 0
M  V30 5382 H 508.482 -0.464855 2.94757 0
M  V30 5383 C 507.231 -2.21972 2.67626 0
M  V30 5384 H 506.554 -1.93923 3.4962 0
M  V30 5385 H 507.994 -2.89765 3.09536 0
M  V30 5386 C 506.453 -2.95919 1.61038 0
M  V30 5387 O 506.983 -3.8857 1.01862 0
M  V30 5388 N 505.189 -2.58511 1.32741 0
M  V30 5389 H 504.736 -1.83244 1.81051 0
M  V30 5390 H 504.694 -3.08296 0.616531 0
M  V30 5391 N 508.466 -1.55915 -0.229846 0
M  V30 5392 C 509.712 -1.78807 -0.956868 0
M  V30 5393 C 510.045 -0.611687 -1.84315 0
M  V30 5394 O 509.32 0.389398 -1.90562 0
M  V30 5395 C 509.603 -3.11718 -1.80288 0
M  V30 5396 C 509.456 -4.3979 -0.943649 0
M  V30 5397 C 510.775 -3.40999 -2.78222 0
M  V30 5398 H 507.894 -0.6505 -0.346437 0
M  V30 5399 H 510.536 -1.88648 -0.226252 0
M  V30 5400 H 508.686 -3.03459 -2.42579 0
M  V30 5401 H 510.358 -4.60059 -0.338121 0
M  V30 5402 H 508.601 -4.33086 -0.248705 0
M  V30 5403 H 509.272 -5.29208 -1.5698 0
M  V30 5404 H 511.748 -3.49332 -2.26067 0
M  V30 5405 H 510.624 -4.35183 -3.34526 0
M  V30 5406 H 510.885 -2.62754 -3.55546 0
M  V30 5407 N 509.944 0.496216 -1.49584 0
M  V30 5408 C 510.876 1.61404 -1.62731 0
M  V30 5409 C 511.889 1.54613 -0.50978 0
M  V30 5410 O 513.078 1.60458 -0.782017 0
M  V30 5411 C 510.178 3.00212 -1.57245 0
M  V30 5412 C 509.351 3.32138 -2.84611 0
M  V30 5413 C 508.41 4.5038 -2.72112 0
M  V30 5414 O 507.436 4.51926 -3.46051 0
M  V30 5415 N 508.638 5.50575 -1.83977 0
M  V30 5416 H 511.403 1.50552 -2.59141 0
M  V30 5417 H 508.964 0.684182 -1.46733 0
M  V30 5418 H 510.956 3.77241 -1.4653 0
M  V30 5419 H 509.526 3.04964 -0.686729 0
M  V30 5420 H 508.746 2.4396 -3.09641 0
M  V30 5421 H 510.034 3.50268 -3.69039 0
M  V30 5422 H 509.432 5.52128 -1.23171 0
M  V30 5423 H 507.989 6.26687 -1.79182 0
M  V30 5424 N 511.423 1.38739 0.74761 0
M  V30 5425 C 512.648 1.38702 1.54197 0
M  V30 5426 C 513.073 -0.019664 1.8809 0
M  V30 5427 O 512.431 -1.00333 1.51006 0
M  V30 5428 C 512.479 2.25492 2.814 0
M  V30 5429 O 511.583 1.67613 3.76802 0
M  V30 5430 H 510.924 0.472863 0.466151 0
M  V30 5431 H 513.454 1.82577 0.923413 0
M  V30 5432 H 513.464 2.39561 3.30264 0
M  V30 5433 H 512.139 3.27727 2.56062 0
M  V30 5434 H 510.716 1.62718 3.35526 0
M  V30 5435 N 512.901 -0.976442 1.23707 0
M  V30 5436 C 513.831 -2.08749 1.04624 0
M  V30 5437 C 514.812 -1.70057 -0.0380956 0
M  V30 5438 O 515.997 -1.93782 0.127308 0
M  V30 5439 C 513.127 -3.41335 0.640902 0
M  V30 5440 C 512.081 -3.93947 1.67302 0
M  V30 5441 C 511.407 -5.22774 1.12301 0
M  V30 5442 C 512.707 -4.22769 3.06697 0
M  V30 5443 H 514.401 -2.24972 1.97555 0
M  V30 5444 H 511.947 -1.08108 0.951247 0
M  V30 5445 H 513.9 -4.18489 0.494434 0
M  V30 5446 H 512.624 -3.24988 -0.324099 0
M  V30 5447 H 511.283 -3.18941 1.80755 0
M  V30 5448 H 510.931 -5.0278 0.148877 0
M  V30 5449 H 510.631 -5.58942 1.81267 0
M  V30 5450 H 512.155 -6.02546 0.988479 0
M  V30 5451 H 513.569 -4.90659 2.96524 0
M  V30 5452 H 511.966 -4.70147 3.72937 0
M  V30 5453 H 513.036 -3.29885 3.55392 0
M  V30 5454 N 514.379 -1.04941 -1.1758 0
M  V30 5455 C 515.656 -0.671918 -1.83697 0
M  V30 5456 C 516.036 0.847929 -1.93322 0
M  V30 5457 O 515.384 1.75287 -1.46583 0
M  V30 5458 C 515.594 -1.35797 -3.21497 0
M  V30 5459 C 516.942 -1.4944 -3.97433 0
M  V30 5460 O 517.966 -1.31678 -3.30967 0
M  V30 5461 O 516.825 -1.78463 -5.1654 0
M  V30 5462 H 513.919 -0.236212 -0.792548 0
M  V30 5463 H 516.465 -1.14884 -1.24899 0
M  V30 5464 H 515.237 -2.39498 -3.09446 0
M  V30 5465 H 514.86 -0.870236 -3.8796 0
M  V30 5466 N 515.857 1.33968 -0.830081 0
M  V30 5467 C 516.767 2.33164 -0.259207 0
M  V30 5468 C 517.783 1.62951 0.610164 0
M  V30 5469 O 518.959 1.94668 0.516369 0
M  V30 5470 C 516.024 3.42088 0.563598 0
M  V30 5471 C 515.085 4.28037 -0.329014 0
M  V30 5472 C 514.318 5.3176 0.454616 0
M  V30 5473 O 514.541 5.44876 1.6872 0
M  V30 5474 O 513.475 6.01669 -0.166794 0
M  V30 5475 H 517.301 2.83832 -1.08041 0
M  V30 5476 H 514.886 1.37154 -0.59239 0
M  V30 5477 H 516.768 4.08581 1.03147 0
M  V30 5478 H 515.443 2.93651 1.36201 0
M  V30 5479 H 514.35 3.64443 -0.844538 0
M  V30 5480 H 515.683 4.79934 -1.09196 0
M  V30 5481 N 517.335 0.585699 1.46312 0
M  V30 5482 C 518.298 -0.135673 2.28798 0
M  V30 5483 C 519.298 -0.815988 1.38558 0
M  V30 5484 O 520.488 -0.667487 1.60904 0
M  V30 5485 C 517.62 -1.20163 3.1902 0
M  V30 5486 H 518.813 0.589257 2.94054 0
M  V30 5487 H 516.366 0.343794 1.52472 0
M  V30 5488 H 517.101 -1.95804 2.58517 0
M  V30 5489 H 516.886 -0.718282 3.85465 0
M  V30 5490 H 518.376 -1.70749 3.81096 0
M  V30 5491 N 518.813 -1.54241 0.323641 0
M  V30 5492 C 520.062 -1.9975 -0.279806 0
M  V30 5493 C 520.375 -1.2156 -1.5324 0
M  V30 5494 O 521.581 -1.57447 -2.21185 0
M  V30 5495 C 520.037 -3.55686 -0.549115 0
M  V30 5496 C 519.645 -4.4271 0.686432 0
M  V30 5497 C 521.389 -4.09663 -1.11251 0
M  V30 5498 C 519.296 -5.90119 0.389022 0
M  V30 5499 H 518.226 -0.746177 -0.10833 0
M  V30 5500 H 520.877 -1.78248 0.435877 0
M  V30 5501 H 519.259 -3.73176 -1.32499 0
M  V30 5502 H 520.433 -4.36996 1.46188 0
M  V30 5503 H 518.748 -3.99623 1.17005 0
M  V30 5504 H 521.345 -5.17386 -1.34965 0
M  V30 5505 H 521.688 -3.61651 -2.06191 0
M  V30 5506 H 522.221 -3.95806 -0.39782 0
M  V30 5507 H 518.96 -6.42326 1.30759 0
M  V30 5508 H 518.48 -5.98785 -0.348722 0
M  V30 5509 H 520.159 -6.47 -0.0011164 0
M  V30 5510 N 520.291 -0.0518155 -1.57515 0
M  V30 5511 C 521.201 0.937539 -2.15052 0
M  V30 5512 C 522.217 1.34121 -1.10849 0
M  V30 5513 O 523.393 1.418 -1.4302 0
M  V30 5514 C 520.458 2.19379 -2.68466 0
M  V30 5515 C 519.519 1.84841 -3.87469 0
M  V30 5516 C 518.752 3.04477 -4.38326 0
M  V30 5517 O 518.975 4.17868 -3.88256 0
M  V30 5518 O 517.909 2.85453 -5.29906 0
M  V30 5519 H 521.735 0.478201 -2.99912 0
M  V30 5520 H 519.32 0.17012 -1.48428 0
M  V30 5521 H 521.202 2.93084 -3.02787 0
M  V30 5522 H 519.877 2.64449 -1.86677 0
M  V30 5523 H 518.784 1.08449 -3.58036 0
M  V30 5524 H 520.117 1.44569 -4.7049 0
M  V30 5525 N 521.769 1.56035 0.221574 0
M  V30 5526 C 523.016 1.79047 0.94597 0
M  V30 5527 C 523.344 0.62057 1.84334 0
M  V30 5528 O 522.599 -0.395053 1.91671 0
M  V30 5529 C 522.898 3.07813 1.8162 0
M  V30 5530 C 522.564 4.3797 1.07206 0
M  V30 5531 C 521.226 4.73334 0.866508 0
M  V30 5532 C 523.578 5.18326 0.546565 0
M  V30 5533 C 520.906 5.8657 0.123549 0
M  V30 5534 C 523.258 6.32335 -0.18305 0
M  V30 5535 C 521.922 6.66301 -0.399861 0
M  V30 5536 H 521.192 0.655178 0.346155 0
M  V30 5537 H 523.839 1.90299 0.214146 0
M  V30 5538 H 522.144 2.91682 2.61589 0
M  V30 5539 H 523.841 3.2282 2.37884 0
M  V30 5540 H 520.431 4.10202 1.24226 0
M  V30 5541 H 524.615 4.9144 0.692847 0
M  V30 5542 H 519.871 6.11376 -0.0546591 0
M  V30 5543 H 524.045 6.9383 -0.59775 0
M  V30 5544 H 521.672 7.53889 -0.977489 0
M  V30 5545 N 523.247 -0.488276 1.49845 0
M  V30 5546 C 524.496 -1.23826 1.59217 0
M  V30 5547 C 524.809 -1.93439 0.289966 0
M  V30 5548 O 526.015 -2.70229 0.262382 0
M  V30 5549 C 524.471 -2.24902 2.80976 0
M  V30 5550 C 524.079 -1.6117 4.18005 0
M  V30 5551 C 525.823 -3.00648 2.99685 0
M  V30 5552 C 523.73 -2.60431 5.3097 0
M  V30 5553 H 522.66 -0.465858 0.592868 0
M  V30 5554 H 525.311 -0.510645 1.76252 0
M  V30 5555 H 523.693 -3.0088 2.57463 0
M  V30 5556 H 524.867 -0.910968 4.51706 0
M  V30 5557 H 523.182 -0.97767 4.0476 0
M  V30 5558 H 525.779 -3.74903 3.81251 0
M  V30 5559 H 526.122 -3.5902 2.10738 0
M  V30 5560 H 526.655 -2.31784 3.23297 0
M  V30 5561 H 523.394 -2.06823 6.22017 0
M  V30 5562 H 522.914 -3.28707 5.01709 0
M  V30 5563 H 524.593 -3.22606 5.60834 0
M  V30 5564 N 524.725 -1.39134 -0.740242 0
M  V30 5565 C 525.673 -1.3757 -1.87556 0
M  V30 5566 C 526.667 -0.259593 -1.67399 0
M  V30 5567 O 527.873 -0.429349 -1.74804 0
M  V30 5568 H 524.248 -0.42947 -0.6173 0
M  V30 5569 H 526.219 -2.33345 -1.85991 0
M  V30 5570 C 524.968 -1.23087 -3.25184 0
M  V30 5571 H 524.291 -2.08237 -3.41288 0
M  V30 5572 H 525.731 -1.26049 -4.0483 0
M  V30 5573 C 524.19 0.0611471 -3.36845 0
M  V30 5574 O 524.72 1.03328 -3.88183 0
M  V30 5575 N 522.926 0.122454 -2.90342 0
M  V30 5576 H 522.473 -0.669329 -2.48752 0
M  V30 5577 H 522.431 0.986463 -2.98523 0
M  V30 5578 N 526.204 0.969867 -1.24223 0
M  V30 5579 C 527.62 1.23809 -1.00716 0
M  V30 5580 C 527.82 1.99469 0.285358 0
M  V30 5581 O 526.876 2.31764 1.00207 0
M  V30 5582 C 528.189 2.02734 -2.2208 0
M  V30 5583 C 529.737 2.15834 -2.26681 0
M  V30 5584 C 530.212 2.98154 -3.47661 0
M  V30 5585 N 531.703 3.05737 -3.47964 0
M  V30 5586 C 532.438 3.69785 -4.38231 0
M  V30 5587 N 531.934 4.35569 -5.3875 0
M  V30 5588 N 533.727 3.66775 -4.25949 0
M  V30 5589 H 525.878 0.463294 -2.07286 0
M  V30 5590 H 528.141 0.267348 -0.909521 0
M  V30 5591 H 527.847 1.54524 -3.15935 0
M  V30 5592 H 527.721 3.0347 -2.24021 0
M  V30 5593 H 530.108 2.63248 -1.33359 0
M  V30 5594 H 530.189 1.14453 -2.28767 0
M  V30 5595 H 529.833 2.51435 -4.41297 0
M  V30 5596 H 529.763 3.99729 -3.42818 0
M  V30 5597 H 532.254 2.58941 -2.75242 0
M  V30 5598 H 532.567 4.82251 -6.03866 0
M  V30 5599 H 530.912 4.34244 -5.42639 0
M  V30 5600 H 534.103 3.14558 -3.46657 0
M  V30 5601 H 534.276 4.16407 -4.96497 0
M  V30 5602 N 527.682 1.05563 1.17022 0
M  V30 5603 C 529.098 0.777684 1.39371 0
M  V30 5604 C 529.298 -0.626269 1.91521 0
M  V30 5605 O 528.354 -1.38806 2.10924 0
M  V30 5606 C 529.667 1.83642 2.3811 0
M  V30 5607 C 531.215 1.85907 2.51809 0
M  V30 5608 C 531.69 2.90813 3.53824 0
M  V30 5609 N 533.181 2.898 3.61345 0
M  V30 5610 C 533.916 3.6762 4.40049 0
M  V30 5611 N 533.412 4.55237 5.22237 0
M  V30 5612 N 535.205 3.56044 4.34959 0
M  V30 5613 H 527.356 1.9614 0.815047 0
M  V30 5614 H 529.619 0.849527 0.420722 0
M  V30 5615 H 529.325 2.84425 2.06871 0
M  V30 5616 H 529.199 1.6812 3.37662 0
M  V30 5617 H 531.586 0.857865 2.82356 0
M  V30 5618 H 531.667 2.05506 1.52318 0
M  V30 5619 H 531.311 3.91122 3.24015 0
M  V30 5620 H 531.241 2.68465 4.53028 0
M  V30 5621 H 533.732 2.26274 3.02669 0
M  V30 5622 H 534.045 5.11291 5.79484 0
M  V30 5623 H 532.39 4.59296 5.21605 0
M  V30 5624 H 535.581 2.86986 3.69806 0
M  V30 5625 H 535.754 4.16938 4.96051 0
M  V30 5626 N 529.16 -1.33526 0.837174 0
M  V30 5627 C 530.07 -2.33023 0.271568 0
M  V30 5628 C 531.086 -1.63272 -0.601514 0
M  V30 5629 O 532.262 -1.94939 -0.506038 0
M  V30 5630 C 529.327 -3.42382 -0.545448 0
M  V30 5631 C 528.388 -4.27857 0.351709 0
M  V30 5632 C 527.621 -5.31994 -0.426409 0
M  V30 5633 O 527.844 -5.45763 -1.65828 0
M  V30 5634 O 526.778 -6.01572 0.1987 0
M  V30 5635 H 530.604 -2.83256 1.09545 0
M  V30 5636 H 528.189 -1.36837 0.599655 0
M  V30 5637 H 530.071 -4.09122 -1.00979 0
M  V30 5638 H 528.746 -2.94369 -1.34641 0
M  V30 5639 H 527.653 -3.6399 0.863853 0
M  V30 5640 H 528.986 -4.79349 1.1174 0
M  V30 5641 N 530.638 -0.59345 -1.46 0
M  V30 5642 C 531.585 0.133618 -2.30413 0
M  V30 5643 C 532.555 0.873736 -1.41262 0
M  V30 5644 O 533.74 0.862279 -1.70204 0
M  V30 5645 C 530.88 1.13434 -3.25924 0
M  V30 5646 C 529.993 0.39656 -4.30176 0
M  V30 5647 C 529.128 1.38575 -5.12806 0
M  V30 5648 C 528.167 0.634984 -6.08797 0
M  V30 5649 N 527.304 1.57276 -6.84258 0
M  V30 5650 H 532.144 -0.592252 -2.92055 0
M  V30 5651 H 529.681 -0.303874 -1.43927 0
M  V30 5652 H 531.639 1.72752 -3.79753 0
M  V30 5653 H 530.269 1.82779 -2.66067 0
M  V30 5654 H 529.321 -0.311861 -3.79119 0
M  V30 5655 H 530.633 -0.189869 -4.98438 0
M  V30 5656 H 529.787 2.05141 -5.70966 0
M  V30 5657 H 528.526 2.00611 -4.44529 0
M  V30 5658 H 527.531 -0.0443925 -5.49782 0
M  V30 5659 H 528.756 0.0198678 -6.79097 0
M  V30 5660 H 526.702 2.18103 -6.18682 0
M  V30 5661 H 526.619 1.03941 -7.48821 0
M  V30 5662 H 527.887 2.22844 -7.46968 0
M  V30 5663 N 532.116 1.54067 -0.331816 0
M  V30 5664 C 533.527 1.86059 0.15454 0
M  V30 5665 C 533.878 1.25331 1.50952 0
M  V30 5666 O 533.003 0.562441 2.08963 0
M  V30 5667 C 533.598 3.37581 0.287192 0
M  V30 5668 C 532.157 3.69493 0.717773 0
M  V30 5669 C 531.304 2.76863 -0.155569 0
M  V30 5670 H 534.255 1.48797 -0.55182 0
M  V30 5671 H 534.276 3.63744 1.11671 0
M  V30 5672 H 533.788 3.81751 -0.699131 0
M  V30 5673 H 531.889 3.3086 1.71354 0
M  V30 5674 H 532.002 4.76315 0.5158 0
M  V30 5675 H 530.366 2.51995 0.370213 0
M  V30 5676 H 531.149 3.23861 -1.13881 0
M  V30 5677 N 533.594 0.0601682 1.57485 0
M  V30 5678 C 534.524 -0.90889 2.15085 0
M  V30 5679 C 535.505 -1.31838 1.07484 0
M  V30 5680 O 536.69 -1.3915 1.35466 0
M  V30 5681 C 533.82 -2.18059 2.7031 0
M  V30 5682 C 532.774 -1.91088 3.82974 0
M  V30 5683 C 532.1 -3.24789 4.24754 0
M  V30 5684 C 533.4 -1.22535 5.07723 0
M  V30 5685 H 535.094 -0.429093 2.96309 0
M  V30 5686 H 532.64 -0.204952 1.42534 0
M  V30 5687 H 534.593 -2.86258 3.09248 0
M  V30 5688 H 533.317 -2.6826 1.8629 0
M  V30 5689 H 531.976 -1.25297 3.44523 0
M  V30 5690 H 531.624 -3.72809 3.37672 0
M  V30 5691 H 531.324 -3.07538 5.00694 0
M  V30 5692 H 532.848 -3.94205 4.66299 0
M  V30 5693 H 534.262 -1.80783 5.4405 0
M  V30 5694 H 532.659 -1.1558 5.88864 0
M  V30 5695 H 533.729 -0.202692 4.84476 0
M  V30 5696 N 535.072 -1.5615 -0.213296 0
M  V30 5697 C 536.035 -1.92249 -1.24792 0
M  V30 5698 C 537.035 -0.801828 -1.39382 0
M  V30 5699 O 538.225 -1.06948 -1.37506 0
M  V30 5700 C 535.357 -2.18056 -2.62039 0
M  V30 5701 H 536.55 -2.84793 -0.939845 0
M  V30 5702 H 534.103 -1.49559 -0.454062 0
M  V30 5703 H 534.838 -1.2809 -2.97932 0
M  V30 5704 H 534.623 -2.99703 -2.52825 0
M  V30 5705 H 536.113 -2.47051 -3.36683 0
M  V30 5706 N 536.55 0.480323 -1.50102 0
M  V30 5707 C 537.48 1.58769 -1.71215 0
M  V30 5708 C 538.461 1.60583 -0.560997 0
M  V30 5709 O 539.646 1.76996 -0.799127 0
M  V30 5710 C 536.776 2.97148 -1.79778 0
M  V30 5711 C 535.73 3.10201 -2.94888 0
M  V30 5712 C 535.056 4.50137 -2.88584 0
M  V30 5713 C 536.356 2.88283 -4.35534 0
M  V30 5714 H 538.05 1.41354 -2.6393 0
M  V30 5715 H 535.596 0.678591 -1.27008 0
M  V30 5716 H 537.549 3.74536 -1.93133 0
M  V30 5717 H 536.273 3.15699 -0.836772 0
M  V30 5718 H 534.932 2.35244 -2.81169 0
M  V30 5719 H 534.58 4.65593 -1.90349 0
M  V30 5720 H 534.28 4.59808 -3.65856 0
M  V30 5721 H 535.804 5.29558 -3.03976 0
M  V30 5722 H 537.218 3.55427 -4.49827 0
M  V30 5723 H 535.615 3.09408 -5.14186 0
M  V30 5724 H 536.685 1.84219 -4.48544 0
M  V30 5725 N 538.028 1.39524 0.732853 0
M  V30 5726 C 539.258 1.3994 1.51988 0
M  V30 5727 C 539.666 -0.00727973 1.89199 0
M  V30 5728 O 539.009 -0.989521 1.54771 0
M  V30 5729 C 539.071 2.21026 2.83527 0
M  V30 5730 C 538.735 3.69633 2.68738 0
M  V30 5731 C 539.732 4.62665 2.37143 0
M  V30 5732 C 537.417 4.13244 2.85542 0
M  V30 5733 C 539.411 5.97291 2.22536 0
M  V30 5734 C 537.098 5.47945 2.70554 0
M  V30 5735 C 538.096 6.39783 2.39097 0
M  V30 5736 O 537.784 7.72002 2.24204 0
M  V30 5737 H 537.516 0.479795 0.476206 0
M  V30 5738 H 540.07 1.8399 0.913054 0
M  V30 5739 H 538.3 1.71728 3.46477 0
M  V30 5740 H 539.989 2.13594 3.45156 0
M  V30 5741 H 540.755 4.30272 2.2381 0
M  V30 5742 H 536.634 3.42094 3.09019 0
M  V30 5743 H 540.178 6.68939 1.97905 0
M  V30 5744 H 536.075 5.79928 2.83466 0
M  V30 5745 H 536.843 7.8275 2.39258 0
M  V30 5746 N 539.506 -0.963266 1.24736 0
M  V30 5747 C 540.469 -2.04013 1.04457 0
M  V30 5748 C 541.469 -1.608 0.000335555 0
M  V30 5749 O 542.659 -1.72515 0.241719 0
M  V30 5750 C 539.791 -3.35858 0.584162 0
M  V30 5751 H 540.984 -2.23436 2.00041 0
M  V30 5752 H 538.537 -1.13914 1.07021 0
M  V30 5753 H 539.272 -3.22128 -0.374673 0
M  V30 5754 H 539.057 -3.68568 1.3379 0
M  V30 5755 H 540.547 -4.1502 0.463451 0
M  V30 5756 N 540.985 -1.06182 -1.16461 0
M  V30 5757 C 542.232 -0.777863 -1.86964 0
M  V30 5758 C 542.56 0.695602 -1.81636 0
M  V30 5759 O 541.815 1.52532 -1.22607 0
M  V30 5760 C 542.114 -1.21633 -3.36066 0
M  V30 5761 C 541.78 -2.69371 -3.61594 0
M  V30 5762 C 540.442 -3.09727 -3.6827 0
M  V30 5763 C 542.794 -3.64791 -3.7226 0
M  V30 5764 C 540.122 -4.44345 -3.83112 0
M  V30 5765 C 542.474 -4.99155 -3.88623 0
M  V30 5766 C 541.138 -5.39149 -3.93541 0
M  V30 5767 H 540.408 -0.28464 -0.68415 0
M  V30 5768 H 543.055 -1.33071 -1.37711 0
M  V30 5769 H 541.36 -0.582651 -3.87443 0
M  V30 5770 H 543.057 -0.973682 -3.88999 0
M  V30 5771 H 539.647 -2.37124 -3.57029 0
M  V30 5772 H 543.831 -3.34746 -3.66413 0
M  V30 5773 H 539.087 -4.74819 -3.85172 0
M  V30 5774 H 543.261 -5.72976 -3.95817 0
M  V30 5775 H 540.888 -6.43464 -4.04794 0
M  V30 5776 N 542.463 1.3308 -0.844243 0
M  V30 5777 C 543.688 2.02341 -0.455282 0
M  V30 5778 C 544.113 1.6308 0.93737 0
M  V30 5779 O 543.471 0.826118 1.61385 0
M  V30 5780 C 543.519 3.55743 -0.58988 0
M  V30 5781 O 542.623 4.1063 0.38166 0
M  V30 5782 H 541.964 0.637898 -0.184343 0
M  V30 5783 H 544.494 1.6986 -1.14056 0
M  V30 5784 H 544.504 4.05243 -0.473522 0
M  V30 5785 H 543.179 3.83662 -1.60549 0
M  V30 5786 H 541.756 3.72236 0.22241 0
M  V30 5787 N 543.941 0.601185 1.45683 0
M  V30 5788 C 544.889 -0.133955 2.32214 0
M  V30 5789 C 545.883 -0.866034 1.45589 0
M  V30 5790 O 547.089 -0.782326 1.6211 0
M  V30 5791 H 543.464 -0.0620613 0.749435 0
M  V30 5792 H 545.435 0.614389 2.92007 0
M  V30 5793 C 544.184 -1.12216 3.29094 0
M  V30 5794 H 543.507 -0.568273 3.95741 0
M  V30 5795 H 544.947 -1.60659 3.92383 0
M  V30 5796 C 543.406 -2.19251 2.55794 0
M  V30 5797 O 543.936 -3.26894 2.33459 0
M  V30 5798 N 542.142 -1.9436 2.16039 0
M  V30 5799 H 541.689 -1.06829 2.34404 0
M  V30 5800 H 541.647 -2.66181 1.67318 0
M  V30 5801 N 545.419 -1.53889 0.339982 0
M  V30 5802 C 546.644 -2.05741 -0.261798 0
M  V30 5803 C 547.069 -1.21354 -1.43718 0
M  V30 5804 O 546.427 -0.22645 -1.7988 0
M  V30 5805 C 546.475 -3.54542 -0.658228 0
M  V30 5806 O 545.579 -3.7302 -1.75869 0
M  V30 5807 H 544.92 -0.662529 -0.0441672 0
M  V30 5808 H 547.45 -1.98568 0.493161 0
M  V30 5809 H 547.46 -3.9711 -0.936368 0
M  V30 5810 H 546.135 -4.15412 0.201358 0
M  V30 5811 H 544.712 -3.42355 -1.47809 0
M  V30 5812 N 546.897 -0.0685191 -1.57451 0
M  V30 5813 C 548.122 0.613919 -1.98106 0
M  V30 5814 C 548.547 1.62551 -0.946501 0
M  V30 5815 O 547.905 1.81085 0.0882824 0
M  V30 5816 C 547.953 1.26189 -3.378 0
M  V30 5817 O 547.057 2.37773 -3.36954 0
M  V30 5818 H 546.398 0.158163 -0.644888 0
M  V30 5819 H 548.928 -0.142063 -2.04106 0
M  V30 5820 H 548.938 1.60951 -3.74912 0
M  V30 5821 H 547.613 0.520625 -4.12629 0
M  V30 5822 H 546.19 2.04829 -3.11608 0
M  V30 5823 N 548.375 1.56261 0.205012 0
M  V30 5824 C 549.307 1.90266 1.27795 0
M  V30 5825 C 550.32 0.792397 1.42214 0
M  V30 5826 O 551.509 1.07077 1.42817 0
M  V30 5827 C 548.609 2.11074 2.65143 0
M  V30 5828 C 547.782 3.42176 2.7246 0
M  V30 5829 C 546.841 3.52216 3.90936 0
M  V30 5830 O 545.867 4.25119 3.78501 0
M  V30 5831 N 547.069 2.84573 5.05963 0
M  V30 5832 H 549.834 2.82896 0.989434 0
M  V30 5833 H 547.395 1.57008 0.394981 0
M  V30 5834 H 549.387 2.15089 3.4281 0
M  V30 5835 H 547.957 1.2499 2.86524 0
M  V30 5836 H 547.177 3.50116 1.81142 0
M  V30 5837 H 548.465 4.28509 2.74331 0
M  V30 5838 H 547.863 2.25152 5.18963 0
M  V30 5839 H 546.42 2.94228 5.81613 0
M  V30 5840 N 549.853 -0.472356 1.50355 0
M  V30 5841 C 551.099 -1.22634 1.6152 0
M  V30 5842 C 551.432 -1.91645 0.313995 0
M  V30 5843 O 550.707 -1.82059 -0.684446 0
M  V30 5844 C 550.99 -2.27099 2.7946 0
M  V30 5845 C 550.843 -1.62402 4.19459 0
M  V30 5846 C 552.162 -3.28421 2.92964 0
M  V30 5847 H 549.281 -0.444494 0.587873 0
M  V30 5848 H 551.923 -0.520321 1.82737 0
M  V30 5849 H 550.073 -2.87314 2.61501 0
M  V30 5850 H 551.745 -1.05793 4.49005 0
M  V30 5851 H 549.988 -0.927184 4.23776 0
M  V30 5852 H 550.659 -2.38309 4.97909 0
M  V30 5853 H 553.135 -2.78227 3.09401 0
M  V30 5854 H 552.011 -3.98845 3.77113 0
M  V30 5855 H 552.272 -3.92467 2.03525 0
M  V30 5856 N 551.331 -1.39911 -0.725443 0
M  V30 5857 C 552.577 -1.37858 -1.48738 0
M  V30 5858 C 552.91 0.0224187 -1.94187 0
M  V30 5859 O 552.185 0.989204 -1.67466 0
M  V30 5860 C 552.468 -2.3594 -2.72038 0
M  V30 5861 C 552.321 -3.85023 -2.32546 0
M  V30 5862 C 553.64 -2.31704 -3.74167 0
M  V30 5863 H 550.759 -0.502074 -0.539528 0
M  V30 5864 H 553.401 -1.70974 -0.828728 0
M  V30 5865 H 551.551 -2.0783 -3.28236 0
M  V30 5866 H 553.223 -4.2392 -1.81905 0
M  V30 5867 H 551.466 -4.01334 -1.64661 0
M  V30 5868 H 552.137 -4.49152 -3.20884 0
M  V30 5869 H 554.613 -2.5658 -3.27576 0
M  V30 5870 H 553.489 -3.02395 -4.58092 0
M  V30 5871 H 553.75 -1.3253 -4.21768 0
M  V30 5872 N 552.809 0.956637 -1.25245 0
M  V30 5873 C 553.756 2.053 -1.05454 0
M  V30 5874 C 554.726 1.66062 0.0356889 0
M  V30 5875 O 555.911 1.90415 -0.121099 0
M  V30 5876 C 553.051 3.38391 -0.677191 0
M  V30 5877 C 552.164 3.90758 -1.84206 0
M  V30 5878 C 551.299 5.12165 -1.40926 0
M  V30 5879 C 550.338 5.56757 -2.54338 0
M  V30 5880 N 549.475 6.69376 -2.11848 0
M  V30 5881 H 554.315 2.21562 -1.99284 0
M  V30 5882 H 551.852 1.08578 -0.992434 0
M  V30 5883 H 553.81 4.1488 -0.43938 0
M  V30 5884 H 552.44 3.22021 0.224127 0
M  V30 5885 H 551.492 3.10808 -2.19323 0
M  V30 5886 H 552.804 4.19802 -2.69383 0
M  V30 5887 H 551.958 5.96065 -1.13098 0
M  V30 5888 H 550.697 4.84832 -0.528175 0
M  V30 5889 H 549.702 4.71423 -2.82913 0
M  V30 5890 H 550.927 5.861 -3.43022 0
M  V30 5891 H 548.873 6.43756 -1.26153 0
M  V30 5892 H 548.79 6.97927 -2.90574 0
M  V30 5893 H 550.058 7.5669 -1.87191 0
M  V30 5894 N 554.287 1.06798 1.15896 0
M  V30 5895 C 555.703 0.792423 1.38538 0
M  V30 5896 C 555.903 -0.60592 1.92174 0
M  V30 5897 O 554.959 -1.36561 2.12385 0
M  V30 5898 C 556.272 1.86157 2.36149 0
M  V30 5899 C 557.82 1.88567 2.49823 0
M  V30 5900 C 558.295 2.9455 3.5072 0
M  V30 5901 N 559.786 2.93616 3.58251 0
M  V30 5902 C 560.521 3.72267 4.36125 0
M  V30 5903 N 560.017 4.60751 5.17379 0
M  V30 5904 N 561.81 3.60637 4.31158 0
M  V30 5905 H 553.961 1.96993 0.794198 0
M  V30 5906 H 556.224 0.853942 0.411688 0
M  V30 5907 H 555.93 2.86603 2.03843 0
M  V30 5908 H 555.804 1.71692 3.3586 0
M  V30 5909 H 558.191 0.887765 2.8143 0
M  V30 5910 H 558.272 2.0711 1.5013 0
M  V30 5911 H 557.916 3.94537 3.19849 0
M  V30 5912 H 557.846 2.73255 4.50155 0
M  V30 5913 H 560.337 2.29472 3.00252 0
M  V30 5914 H 560.65 5.17408 5.74028 0
M  V30 5915 H 558.995 4.64803 5.16704 0
M  V30 5916 H 562.186 2.90892 3.66742 0
M  V30 5917 H 562.359 4.22176 4.91601 0
M  V30 5918 N 555.766 -1.3263 0.851289 0
M  V30 5919 C 557.012 -1.9766 0.453694 0
M  V30 5920 C 557.345 -1.67225 -0.987396 0
M  V30 5921 O 556.62 -0.958693 -1.69232 0
M  V30 5922 C 556.903 -3.5344 0.68936 0
M  V30 5923 C 556.756 -3.93517 2.17862 0
M  V30 5924 C 558.075 -4.39866 0.143555 0
M  V30 5925 H 555.194 -0.717989 0.166314 0
M  V30 5926 H 557.836 -1.57068 1.06909 0
M  V30 5927 H 555.986 -3.88147 0.165546 0
M  V30 5928 H 557.658 -3.69006 2.76826 0
M  V30 5929 H 555.901 -3.42798 2.65841 0
M  V30 5930 H 556.572 -5.02065 2.29422 0
M  V30 5931 H 559.048 -4.11875 0.591451 0
M  V30 5932 H 557.924 -5.47858 0.338043 0
M  V30 5933 H 558.185 -4.31696 -0.953466 0
M  V30 5934 N 557.244 -0.608902 -1.45362 0
M  V30 5935 C 558.174 0.0964526 -2.33301 0
M  V30 5936 C 559.155 0.857444 -1.46908 0
M  V30 5937 O 560.34 0.827735 -1.75676 0
M  V30 5938 C 557.47 1.09354 -3.29635 0
M  V30 5939 C 556.424 0.445676 -4.25673 0
M  V30 5940 C 555.75 1.5511 -5.11708 0
M  V30 5941 C 557.05 -0.633972 -5.18438 0
M  V30 5942 H 558.744 -0.637829 -2.92527 0
M  V30 5943 H 556.29 -0.308178 -1.40664 0
M  V30 5944 H 558.243 1.59556 -3.90025 0
M  V30 5945 H 556.967 1.85843 -2.6857 0
M  V30 5946 H 555.626 -0.0354897 -3.66583 0
M  V30 5947 H 555.274 2.30631 -4.4701 0
M  V30 5948 H 554.974 1.12311 -5.76767 0
M  V30 5949 H 556.498 2.05537 -5.74967 0
M  V30 5950 H 557.912 -0.215974 -5.72893 0
M  V30 5951 H 556.309 -0.983789 -5.91981 0
M  V30 5952 H 557.379 -1.51005 -4.60788 0
M  V30 5953 N 558.722 1.53707 -0.348139 0
M  V30 5954 C 559.95 2.05406 0.248224 0
M  V30 5955 C 560.365 1.22282 1.43849 0
M  V30 5956 O 559.722 0.259244 1.80649 0
M  V30 5957 C 559.773 3.55446 0.658793 0
M  V30 5958 O 559.494 4.35417 -0.484149 0
M  V30 5959 C 560.995 4.23335 1.31539 0
M  V30 5960 H 558.215 0.669344 0.0471075 0
M  V30 5961 H 560.759 1.98257 -0.501456 0
M  V30 5962 H 558.914 3.62803 1.35841 0
M  V30 5963 H 559.328 5.24268 -0.155949 0
M  V30 5964 H 560.802 5.29692 1.55338 0
M  V30 5965 H 561.279 3.75967 2.27036 0
M  V30 5966 H 561.885 4.20184 0.657683 0
M  V30 5967 N 560.2 0.0768682 1.57412 0
M  V30 5968 C 561.132 -0.918248 2.10002 0
M  V30 5969 C 562.145 -1.25808 1.03325 0
M  V30 5970 O 563.334 -1.21438 1.30824 0
M  V30 5971 C 560.434 -2.23263 2.54964 0
M  V30 5972 C 559.607 -2.07088 3.8527 0
M  V30 5973 C 558.666 -3.21876 4.16272 0
M  V30 5974 O 557.692 -2.96643 4.8579 0
M  V30 5975 N 558.894 -4.4712 3.70221 0
M  V30 5976 H 561.659 -0.469209 2.96004 0
M  V30 5977 H 559.22 -0.108725 1.61535 0
M  V30 5978 H 561.212 -2.9897 2.72762 0
M  V30 5979 H 559.782 -2.59649 1.74072 0
M  V30 5980 H 559.002 -1.15818 3.76802 0
M  V30 5981 H 560.29 -1.93537 4.70554 0
M  V30 5982 H 559.688 -4.70506 3.1407 0
M  V30 5983 H 558.245 -5.19837 3.93209 0
M  V30 5984 N 561.678 -1.56367 -0.196722 0
M  V30 5985 C 562.906 -1.84639 -0.933608 0
M  V30 5986 C 563.321 -0.659164 -1.76919 0
M  V30 5987 O 562.678 0.372142 -1.78665 0
M  V30 5988 C 562.729 -3.11694 -1.83109 0
M  V30 5989 O 562.45 -4.25838 -1.02924 0
M  V30 5990 C 563.951 -3.53132 -2.67979 0
M  V30 5991 H 561.171 -0.613188 -0.272473 0
M  V30 5992 H 563.715 -2.03475 -0.204465 0
M  V30 5993 H 561.87 -2.94759 -2.51387 0
M  V30 5994 H 562.284 -4.98178 -1.64069 0
M  V30 5995 H 563.758 -4.45005 -3.26611 0
M  V30 5996 H 564.235 -2.76045 -3.41608 0
M  V30 5997 H 564.841 -3.72592 -2.05074 0
M  V30 5998 N 563.156 0.464375 -1.50603 0
M  V30 5999 C 564.381 1.24372 -1.65971 0
M  V30 6000 C 564.806 1.84901 -0.345453 0
M  V30 6001 O 564.164 1.67596 0.691457 0
M  V30 6002 C 564.212 2.32331 -2.7578 0
M  V30 6003 O 563.316 3.37146 -2.375 0
M  V30 6004 H 562.657 0.365604 -0.554283 0
M  V30 6005 H 565.187 0.55183 -1.97018 0
M  V30 6006 H 565.197 2.77539 -2.99059 0
M  V30 6007 H 563.872 1.87648 -3.71162 0
M  V30 6008 H 562.449 2.97602 -2.24694 0
M  V30 6009 N 564.634 1.40294 0.718013 0
M  V30 6010 C 565.859 1.41941 1.5122 0
M  V30 6011 C 566.284 0.0202371 1.88089 0
M  V30 6012 O 565.642 -0.971078 1.53101 0
M  V30 6013 C 565.69 2.3141 2.76554 0
M  V30 6014 O 564.794 1.75567 3.73162 0
M  V30 6015 H 564.135 0.482644 0.456016 0
M  V30 6016 H 566.665 1.84494 0.884478 0
M  V30 6017 H 566.675 2.46513 3.25108 0
M  V30 6018 H 565.35 3.33085 2.49053 0
M  V30 6019 H 563.927 1.69798 3.31999 0
M  V30 6020 N 566.112 -0.949982 1.2575 0
M  V30 6021 C 567.36 -1.6918 1.10555 0
M  V30 6022 C 567.681 -1.91773 -0.353298 0
M  V30 6023 O 566.951 -1.50814 -1.25027 0
M  V30 6024 H 565.531 -0.626952 0.406129 0
M  V30 6025 H 568.193 -1.1419 1.57945 0
M  V30 6026 H 567.289 -2.66915 1.61749 0
M  V30 6027 N 567.59 -1.07411 -1.15328 0
M  V30 6028 C 568.838 -0.796073 -1.85761 0
M  V30 6029 C 569.159 0.679864 -1.82764 0
M  V30 6030 O 568.429 1.49242 -1.269 0
M  V30 6031 H 567.009 -0.291495 -0.687779 0
M  V30 6032 H 569.671 -1.35799 -1.39802 0
M  V30 6033 H 568.767 -1.13114 -2.90881 0
M  V30 6034 N 569.068 1.32177 -0.85831 0
M  V30 6035 C 570.315 1.97125 -0.463484 0
M  V30 6036 C 570.643 1.67907 0.981705 0
M  V30 6037 O 569.898 0.961717 1.70439 0
M  V30 6038 C 570.197 3.51372 -0.653658 0
M  V30 6039 C 569.863 4.00584 -2.06987 0
M  V30 6040 C 568.525 4.13733 -2.4572 0
M  V30 6041 C 570.877 4.26624 -2.99402 0
M  V30 6042 C 568.205 4.50268 -3.76132 0
M  V30 6043 C 570.557 4.64618 -4.29316 0
M  V30 6044 C 569.221 4.75975 -4.67979 0
M  V30 6045 H 568.491 0.72133 -0.169601 0
M  V30 6046 H 571.138 1.57517 -1.08907 0
M  V30 6047 H 569.443 3.91761 0.0551328 0
M  V30 6048 H 571.14 3.99655 -0.328163 0
M  V30 6049 H 567.73 3.90837 -1.75911 0
M  V30 6050 H 571.914 4.1597 -2.70708 0
M  V30 6051 H 567.17 4.57256 -4.05865 0
M  V30 6052 H 571.344 4.83722 -5.00985 0
M  V30 6053 H 568.971 5.04041 -5.69076 0
M  V30 6054 N 570.547 0.616602 1.45037 0
M  V30 6055 C 571.787 0.118453 2.04056 0
M  V30 6056 C 572.151 -1.23104 1.47341 0
M  V30 6057 O 573.352 -1.82044 1.97771 0
M  V30 6058 C 571.623 0.0892842 3.57288 0
M  V30 6059 S 573.182 -0.346361 4.37431 0
M  V30 6060 H 570 0.0539728 0.708948 0
M  V30 6061 H 572.602 0.816731 1.77623 0
M  V30 6062 H 571.306 1.07481 3.96076 0
M  V30 6063 H 570.837 -0.630703 3.88311 0
M  V30 6064 H 572.852 -1.59389 4.69904 0
M  V30 6065 N 572.025 -1.5352 0.356285 0
M  V30 6066 C 573.273 -2.00719 -0.235837 0
M  V30 6067 C 573.594 -1.24551 -1.5004 0
M  V30 6068 O 572.864 -0.356185 -1.92635 0
M  V30 6069 H 571.444 -0.741542 -0.0901366 0
M  V30 6070 H 574.106 -1.88887 0.480378 0
M  V30 6071 H 573.202 -3.08551 -0.469357 0
M  V30 6072 N 573.503 -0.0852151 -1.57369 0
M  V30 6073 C 574.451 0.894856 -2.14698 0
M  V30 6074 C 575.445 1.29903 -1.08727 0
M  V30 6075 O 576.651 1.27471 -1.27088 0
M  V30 6076 H 573.026 0.306569 -0.686673 0
M  V30 6077 H 574.997 0.386542 -2.95886 0
M  V30 6078 C 573.746 2.14798 -2.73417 0
M  V30 6079 H 573.069 1.84585 -3.54638 0
M  V30 6080 H 574.509 2.81456 -3.1711 0
M  V30 6081 C 572.968 2.91546 -1.68828 0
M  V30 6082 O 573.498 3.85733 -1.12129 0
M  V30 6083 N 571.704 2.54901 -1.39549 0
M  V30 6084 H 571.251 1.7838 -1.85845 0
M  V30 6085 H 571.209 3.06553 -0.698054 0
M  V30 6086 N 574.981 1.5647 0.188427 0
M  V30 6087 C 576.258 1.71857 0.934058 0
M  V30 6088 C 576.638 0.641867 2.01105 0
M  V30 6089 O 575.986 -0.346098 2.25864 0
M  V30 6090 C 576.196 3.14431 1.5144 0
M  V30 6091 C 577.544 3.74869 1.99396 0
M  V30 6092 O 578.568 3.17601 1.61269 0
M  V30 6093 O 577.427 4.75387 2.69573 0
M  V30 6094 H 574.521 0.701186 0.438483 0
M  V30 6095 H 577.067 1.68768 0.177599 0
M  V30 6096 H 575.839 3.8427 0.738416 0
M  V30 6097 H 575.462 3.21775 2.33552 0
M  V30 6098 N 576.459 -0.456382 1.50847 0
M  V30 6099 C 577.707 -1.20497 1.62249 0
M  V30 6100 C 578.028 -1.92156 0.331839 0
M  V30 6101 O 577.298 -1.84751 -0.651443 0
M  V30 6102 H 575.878 -0.447775 0.597918 0
M  V30 6103 H 578.54 -0.525099 1.87693 0
M  V30 6104 H 577.636 -1.94492 2.44089 0
M  V30 6105 N 577.937 -1.40673 -0.710563 0
M  V30 6106 C 579.184 -1.39222 -1.47049 0
M  V30 6107 C 579.512 0.0037691 -1.945 0
M  V30 6108 O 578.767 0.989224 -1.68857 0
M  V30 6109 C 579.066 -2.33253 -2.70791 0
M  V30 6110 C 578.732 -3.80406 -2.42079 0
M  V30 6111 C 577.394 -4.20496 -2.33959 0
M  V30 6112 C 579.746 -4.73375 -2.18094 0
M  V30 6113 C 577.074 -5.51584 -1.99929 0
M  V30 6114 C 579.426 -6.04768 -1.85576 0
M  V30 6115 C 578.09 -6.43895 -1.75941 0
M  V30 6116 H 577.36 -0.509449 -0.538092 0
M  V30 6117 H 580.007 -1.73363 -0.81348 0
M  V30 6118 H 578.312 -1.92314 -3.41354 0
M  V30 6119 H 580.009 -2.29412 -3.28894 0
M  V30 6120 H 576.599 -3.48645 -2.49288 0
M  V30 6121 H 580.783 -4.43217 -2.23321 0
M  V30 6122 H 576.039 -5.80797 -1.91011 0
M  V30 6123 H 580.213 -6.76318 -1.66033 0
M  V30 6124 H 577.84 -7.45387 -1.4934 0
M  V30 6125 N 579.415 0.9433 -1.26252 0
M  V30 6126 C 580.348 2.04162 -1.01946 0
M  V30 6127 C 581.326 1.62507 0.0550808 0
M  V30 6128 O 582.51 1.883 -0.0869025 0
M  V30 6129 C 579.637 3.34313 -0.54335 0
M  V30 6130 C 578.683 3.94939 -1.61013 0
M  V30 6131 S 579.516 4.29484 -3.19849 0
M  V30 6132 C 580.672 5.62738 -2.74001 0
M  V30 6133 H 580.905 2.24466 -1.94942 0
M  V30 6134 H 578.438 1.08441 -1.09909 0
M  V30 6135 H 580.396 4.09576 -0.275315 0
M  V30 6136 H 579.057 3.11957 0.36629 0
M  V30 6137 H 578.25 4.88812 -1.22795 0
M  V30 6138 H 577.852 3.26202 -1.82943 0
M  V30 6139 H 580.144 6.41356 -2.18333 0
M  V30 6140 H 581.087 6.05839 -3.66558 0
M  V30 6141 H 581.495 5.22514 -2.13634 0
M  V30 6142 N 580.893 1.08022 1.14757 0
M  V30 6143 C 581.843 0.676345 2.17737 0
M  V30 6144 C 582.827 -0.302018 1.5804 0
M  V30 6145 O 584.019 -0.11466 1.76628 0
M  V30 6146 C 581.148 0.082984 3.432 0
M  V30 6147 C 580.234 1.0869 4.09936 0
M  V30 6148 N 580.625 2.26891 4.52055 0
M  V30 6149 C 578.923 0.921768 4.36371 0
M  V30 6150 C 579.624 2.90636 5.0389 0
M  V30 6151 N 578.6 2.18266 4.97856 0
M  V30 6152 H 582.402 1.5765 2.4804 0
M  V30 6153 H 579.916 0.954374 1.31398 0
M  V30 6154 H 581.913 -0.224289 4.16296 0
M  V30 6155 H 580.573 -0.812206 3.14378 0
M  V30 6156 H 581.584 2.6457 4.45223 0
M  V30 6157 H 578.261 0.0800499 4.17423 0
M  V30 6158 H 579.651 3.9104 5.46386 0
M  V30 6159 N 582.371 -1.3172 0.865308 0
M  V30 6160 C 583.304 -2.26687 0.262376 0
M  V30 6161 C 584.282 -1.50894 -0.605787 0
M  V30 6162 O 585.466 -1.79982 -0.56024 0
M  V30 6163 C 582.593 -3.3281 -0.628915 0
M  V30 6164 C 581.639 -4.26172 0.167278 0
M  V30 6165 S 582.472 -5.12797 1.54272 0
M  V30 6166 C 583.628 -6.22438 0.657427 0
M  V30 6167 H 583.861 -2.77478 1.0674 0
M  V30 6168 H 581.394 -1.39414 0.663555 0
M  V30 6169 H 583.352 -3.94426 -1.13747 0
M  V30 6170 H 582.013 -2.80782 -1.40785 0
M  V30 6171 H 581.206 -5.01392 -0.51203 0
M  V30 6172 H 580.808 -3.69029 0.607777 0
M  V30 6173 H 583.1 -6.77368 -0.133925 0
M  V30 6174 H 584.043 -6.9451 1.38061 0
M  V30 6175 H 584.451 -5.64043 0.227044 0
M  V30 6176 N 583.85 -0.624285 -1.44708 0
M  V30 6177 C 585.077 -0.132919 -2.06473 0
M  V30 6178 C 585.493 1.18967 -1.46602 0
M  V30 6179 O 584.85 1.72824 -0.586341 0
M  V30 6180 C 584.901 -0.00465418 -3.615 0
M  V30 6181 O 584.622 -1.27494 -4.19138 0
M  V30 6182 C 586.123 0.516213 -4.40284 0
M  V30 6183 H 583.343 -0.0765201 -0.666623 0
M  V30 6184 H 585.887 -0.856751 -1.85688 0
M  V30 6185 H 584.042 0.669583 -3.8157 0
M  V30 6186 H 584.456 -1.11536 -5.12504 0
M  V30 6187 H 585.93 0.554994 -5.49203 0
M  V30 6188 H 586.407 1.5419 -4.11245 0
M  V30 6189 H 587.013 -0.124542 -4.25118 0
M  V30 6190 N 585.328 1.53329 -0.364422 0
M  V30 6191 C 586.258 2.28627 0.474543 0
M  V30 6192 C 587.239 1.31009 1.08492 0
M  V30 6193 O 588.424 1.59878 1.10239 0
M  V30 6194 C 585.554 3.07465 1.61501 0
M  V30 6195 C 584.508 4.1276 1.13194 0
M  V30 6196 C 583.834 4.79674 2.36255 0
M  V30 6197 C 585.134 5.21847 0.217507 0
M  V30 6198 H 586.828 2.99005 -0.153656 0
M  V30 6199 H 584.374 1.43803 -0.0753406 0
M  V30 6200 H 586.327 3.58889 2.20855 0
M  V30 6201 H 585.051 2.34775 2.27042 0
M  V30 6202 H 583.71 3.62281 0.56109 0
M  V30 6203 H 583.358 4.03557 3.00251 0
M  V30 6204 H 583.058 5.50827 2.04606 0
M  V30 6205 H 584.582 5.33892 2.96297 0
M  V30 6206 H 585.996 5.6878 0.718493 0
M  V30 6207 H 584.393 6.00099 -0.00806408 0
M  V30 6208 H 585.463 4.7921 -0.740653 0
M  V30 6209 N 586.806 0.0935595 1.57322 0
M  V30 6210 C 587.769 -0.851426 2.12799 0
M  V30 6211 C 588.769 -1.21187 1.0569 0
M  V30 6212 O 589.959 -1.14156 1.31583 0
M  V30 6213 C 587.091 -2.14779 2.64731 0
M  V30 6214 H 588.284 -0.369733 2.97612 0
M  V30 6215 H 585.837 -0.155417 1.55525 0
M  V30 6216 H 586.572 -2.67437 1.83434 0
M  V30 6217 H 586.357 -1.89907 3.43042 0
M  V30 6218 H 587.847 -2.82383 3.07651 0
M  V30 6219 N 588.284 -1.56567 -0.180126 0
M  V30 6220 C 589.509 -1.85975 -0.918041 0
M  V30 6221 C 589.934 -0.678888 -1.75422 0
M  V30 6222 O 589.292 0.372168 -1.77439 0
M  V30 6223 C 589.34 -3.13731 -1.77779 0
M  V30 6224 O 588.444 -2.95335 -2.87838 0
M  V30 6225 H 587.785 -0.61196 -0.257683 0
M  V30 6226 H 590.315 -2.03798 -0.180923 0
M  V30 6227 H 590.325 -3.4491 -2.17948 0
M  V30 6228 H 589 -3.99293 -1.16352 0
M  V30 6229 H 587.577 -2.7549 -2.51316 0
M  V30 6230 N 589.762 0.448376 -1.51087 0
M  V30 6231 C 590.692 1.55102 -1.74544 0
M  V30 6232 C 591.673 1.59357 -0.594932 0
M  V30 6233 O 592.858 1.75261 -0.836491 0
M  V30 6234 C 589.988 2.93268 -1.86041 0
M  V30 6235 C 588.942 3.03877 -3.01402 0
M  V30 6236 C 588.268 4.43914 -2.98068 0
M  V30 6237 C 589.568 2.7898 -4.41551 0
M  V30 6238 H 591.262 1.35724 -2.66869 0
M  V30 6239 H 588.808 0.651498 -1.28419 0
M  V30 6240 H 590.761 3.70356 -2.01034 0
M  V30 6241 H 589.485 3.13853 -0.903548 0
M  V30 6242 H 588.144 2.29227 -2.86096 0
M  V30 6243 H 587.792 4.6145 -2.00182 0
M  V30 6244 H 587.492 4.51944 -3.75527 0
M  V30 6245 H 589.016 5.22991 -3.1514 0
M  V30 6246 H 590.43 3.45805 -4.57265 0
M  V30 6247 H 588.827 2.98431 -5.20633 0
M  V30 6248 H 589.897 1.74663 -4.5235 0
M  V30 6249 N 591.24 1.41047 0.703093 0
M  V30 6250 C 592.651 1.35657 1.28274 0
M  V30 6251 C 593.002 0.0360309 1.96167 0
M  V30 6252 O 592.127 -0.865833 1.98324 0
M  V30 6253 C 592.722 2.45707 2.33267 0
M  V30 6254 C 591.281 2.43738 2.86825 0
M  V30 6255 C 590.428 2.25941 1.60767 0
M  V30 6256 H 593.379 1.50672 0.49836 0
M  V30 6257 H 593.4 2.14333 3.14391 0
M  V30 6258 H 592.912 3.41805 1.83824 0
M  V30 6259 H 591.013 1.51375 3.40465 0
M  V30 6260 H 591.126 3.39779 3.37768 0
M  V30 6261 H 589.49 1.73681 1.86298 0
M  V30 6262 H 590.273 3.24054 1.1333 0
M  V30 6263 N 592.718 -0.936591 1.26751 0
M  V30 6264 C 593.965 -1.68331 1.12566 0
M  V30 6265 C 594.293 -1.91677 -0.330168 0
M  V30 6266 O 593.548 -1.49859 -1.2586 0
M  V30 6267 C 593.847 -3.06099 1.84494 0
M  V30 6268 C 593.513 -3.02493 3.34378 0
M  V30 6269 C 592.175 -3.01217 3.75262 0
M  V30 6270 C 594.527 -2.94453 4.30055 0
M  V30 6271 C 591.855 -2.89672 5.10203 0
M  V30 6272 C 594.207 -2.84449 5.65041 0
M  V30 6273 C 592.871 -2.81518 6.0523 0
M  V30 6274 H 592.141 -0.615965 0.411907 0
M  V30 6275 H 594.788 -1.09292 1.5725 0
M  V30 6276 H 593.093 -3.6879 1.32292 0
M  V30 6277 H 594.79 -3.62733 1.70955 0
M  V30 6278 H 591.38 -3.04269 3.01858 0
M  V30 6279 H 595.564 -2.94544 3.99447 0
M  V30 6280 H 590.82 -2.85783 5.40498 0
M  V30 6281 H 594.994 -2.77192 6.38856 0
M  V30 6282 H 592.621 -2.72329 7.09747 0
M  V30 6283 N 594.196 -1.08629 -1.14182 0
M  V30 6284 C 595.444 -0.815731 -1.84906 0
M  V30 6285 C 595.765 0.660441 -1.83475 0
M  V30 6286 O 595.035 1.47888 -1.28476 0
M  V30 6287 H 593.615 -0.298773 -0.684648 0
M  V30 6288 H 596.277 -1.37274 -1.38354 0
M  V30 6289 H 595.373 -1.16193 -2.89665 0
M  V30 6290 N 595.674 1.31259 -0.872281 0
M  V30 6291 C 596.922 1.96233 -0.483409 0
M  V30 6292 C 597.243 1.69276 0.968012 0
M  V30 6293 O 596.513 1.00943 1.67891 0
M  V30 6294 H 595.093 0.726025 -0.175774 0
M  V30 6295 H 597.755 1.60024 -1.11258 0
M  V30 6296 H 596.851 3.05403 -0.643075 0
M  V30 6297 N 597.152 0.631951 1.44375 0
M  V30 6298 C 598.398 0.13697 2.02337 0
M  V30 6299 C 598.731 -1.23826 1.49602 0
M  V30 6300 O 598.006 -1.8221 0.680415 0
M  V30 6301 C 598.289 0.124536 3.59885 0
M  V30 6302 C 598.142 1.53217 4.229 0
M  V30 6303 C 599.461 -0.550481 4.36644 0
M  V30 6304 H 596.58 0.051247 0.735216 0
M  V30 6305 H 599.222 0.808581 1.71936 0
M  V30 6306 H 597.372 -0.44737 3.85916 0
M  V30 6307 H 599.044 2.15303 4.07973 0
M  V30 6308 H 597.287 2.0858 3.80364 0
M  V30 6309 H 597.958 1.4755 5.31914 0
M  V30 6310 H 600.434 -0.0641154 4.16051 0
M  V30 6311 H 599.31 -0.528371 5.46351 0
M  V30 6312 H 599.571 -1.62097 4.11311 0
M  V30 6313 N 598.631 -1.53133 0.372548 0
M  V30 6314 C 599.879 -2.00958 -0.214534 0
M  V30 6315 C 600.2 -1.26135 -1.48711 0
M  V30 6316 O 599.47 -0.376597 -1.92246 0
M  V30 6317 H 598.05 -0.742456 -0.0822664 0
M  V30 6318 H 600.712 -1.88367 0.500385 0
M  V30 6319 H 599.808 -3.09031 -0.436605 0
M  V30 6320 N 600.109 -0.101901 -1.5727 0
M  V30 6321 C 601.072 0.840129 -2.13247 0
M  V30 6322 C 602.072 1.20625 -1.06331 0
M  V30 6323 O 603.262 1.13456 -1.32186 0
M  V30 6324 C 600.394 2.13372 -2.65867 0
M  V30 6325 H 601.587 0.353945 -2.97804 0
M  V30 6326 H 599.14 0.147167 -1.55606 0
M  V30 6327 H 599.875 2.66461 -1.84849 0
M  V30 6328 H 599.66 1.88085 -3.44044 0
M  V30 6329 H 601.15 2.80748 -3.09145 0
M  V30 6330 N 601.587 1.56661 0.17182 0
M  V30 6331 C 602.812 1.86459 0.908165 0
M  V30 6332 C 603.237 0.688181 1.75059 0
M  V30 6333 O 602.595 -0.362753 1.77634 0
M  V30 6334 C 602.643 3.14669 1.76112 0
M  V30 6335 O 601.747 2.96858 2.86268 0
M  V30 6336 H 601.088 0.613318 0.254434 0
M  V30 6337 H 603.618 2.03892 0.170113 0
M  V30 6338 H 603.628 3.46061 2.16115 0
M  V30 6339 H 602.303 3.99905 1.14233 0
M  V30 6340 H 600.88 2.76819 2.49852 0
M  V30 6341 N 603.065 -0.440357 1.51323 0
M  V30 6342 C 604.313 -1.18769 1.63518 0
M  V30 6343 C 604.634 -1.91793 0.352201 0
M  V30 6344 O 603.904 -1.85432 -0.631811 0
M  V30 6345 H 602.484 -0.441408 0.602634 0
M  V30 6346 H 605.146 -0.505162 1.8824 0
M  V30 6347 H 604.242 -1.91892 2.46138 0
M  V30 6348 N 604.543 -1.41418 -0.695603 0
M  V30 6349 C 605.476 -1.3768 -1.81988 0
M  V30 6350 C 606.454 -0.244061 -1.60758 0
M  V30 6351 O 607.638 -0.430965 -1.83507 0
M  V30 6352 C 604.765 -1.1476 -3.18666 0
M  V30 6353 C 603.811 -2.30752 -3.58686 0
M  V30 6354 S 604.644 -3.9323 -3.63498 0
M  V30 6355 C 605.8 -3.72613 -5.02902 0
M  V30 6356 H 606.033 -2.32822 -1.84882 0
M  V30 6357 H 603.566 -1.27942 -0.86431 0
M  V30 6358 H 605.524 -1.02223 -3.97569 0
M  V30 6359 H 604.185 -0.212385 -3.13381 0
M  V30 6360 H 603.378 -2.10409 -4.57978 0
M  V30 6361 H 602.98 -2.39696 -2.87092 0
M  V30 6362 H 605.272 -3.32317 -5.904 0
M  V30 6363 H 606.215 -4.71507 -5.28286 0
M  V30 6364 H 606.623 -3.0589 -4.74438 0
M  V30 6365 N 606.021 0.929856 -1.27246 0
M  V30 6366 C 607.269 1.674 -1.13233 0
M  V30 6367 C 607.59 1.92311 0.322744 0
M  V30 6368 O 606.86 1.52784 1.22612 0
M  V30 6369 H 605.44 0.620411 -0.416052 0
M  V30 6370 H 608.102 1.11663 -1.59741 0
M  V30 6371 H 607.198 2.64308 -1.65975 0
M  V30 6372 N 607.499 1.09233 1.13605 0
M  V30 6373 C 608.915 0.82163 1.36826 0
M  V30 6374 C 609.115 -0.565021 1.93416 0
M  V30 6375 O 608.171 -1.32026 2.15234 0
M  V30 6376 C 609.484 1.91124 2.32147 0
M  V30 6377 C 611.032 1.93824 2.45767 0
M  V30 6378 C 611.507 3.01923 3.44393 0
M  V30 6379 N 612.998 3.01149 3.51942 0
M  V30 6380 C 613.733 3.81434 4.2813 0
M  V30 6381 N 613.229 4.71621 5.07489 0
M  V30 6382 N 615.022 3.69702 4.23411 0
M  V30 6383 H 607.173 1.98633 0.752234 0
M  V30 6384 H 609.436 0.862482 0.393482 0
M  V30 6385 H 609.142 2.90862 1.97717 0
M  V30 6386 H 609.016 1.78777 3.32142 0
M  V30 6387 H 611.403 0.94726 2.79483 0
M  V30 6388 H 611.484 2.10248 1.45703 0
M  V30 6389 H 611.128 4.01232 3.11408 0
M  V30 6390 H 611.058 2.82742 4.44257 0
M  V30 6391 H 613.549 2.35789 2.95317 0
M  V30 6392 H 613.862 5.29468 5.62924 0
M  V30 6393 H 612.207 4.75658 5.06729 0
M  V30 6394 H 615.398 2.98606 3.60489 0
M  V30 6395 H 615.571 4.32509 4.82535 0
M  V30 6396 N 608.977 -1.30795 0.87923 0
M  V30 6397 C 610.207 -2.00237 0.50881 0
M  V30 6398 C 610.615 -1.66115 -0.905682 0
M  V30 6399 O 609.958 -0.89138 -1.60624 0
M  V30 6400 C 610.02 -3.54508 0.597003 0
M  V30 6401 C 609.684 -4.12131 1.97477 0
M  V30 6402 C 610.681 -4.28552 2.94346 0
M  V30 6403 C 608.366 -4.47644 2.2786 0
M  V30 6404 C 610.36 -4.79689 4.19735 0
M  V30 6405 C 608.047 -4.98481 3.53496 0
M  V30 6406 C 609.045 -5.14456 4.49248 0
M  V30 6407 O 608.733 -5.64199 5.72656 0
M  V30 6408 H 608.465 -0.647026 0.195788 0
M  V30 6409 H 611.019 -1.67785 1.1848 0
M  V30 6410 H 609.249 -3.86461 -0.135945 0
M  V30 6411 H 610.938 -4.05198 0.238684 0
M  V30 6412 H 611.704 -4.01424 2.72183 0
M  V30 6413 H 607.583 -4.34481 1.54102 0
M  V30 6414 H 611.127 -4.92073 4.9448 0
M  V30 6415 H 607.024 -5.25044 3.75498 0
M  V30 6416 H 607.792 -5.82551 5.74957 0
M  V30 6417 N 610.455 -0.639598 -1.44038 0
M  V30 6418 C 611.405 0.0823038 -2.27851 0
M  V30 6419 C 612.389 0.807991 -1.39141 0
M  V30 6420 O 613.581 0.692702 -1.62882 0
M  V30 6421 C 610.71 1.05742 -3.26609 0
M  V30 6422 C 609.796 0.330911 -4.22807 0
M  V30 6423 N 610.187 -0.645126 -5.01669 0
M  V30 6424 C 608.485 0.574214 -4.42288 0
M  V30 6425 C 609.186 -1.07513 -5.71678 0
M  V30 6426 N 608.162 -0.412164 -5.42035 0
M  V30 6427 H 611.964 -0.666861 -2.86234 0
M  V30 6428 H 609.478 -0.465777 -1.55577 0
M  V30 6429 H 611.475 1.58927 -3.85419 0
M  V30 6430 H 610.135 1.80679 -2.69787 0
M  V30 6431 H 611.146 -1.02329 -5.0769 0
M  V30 6432 H 607.823 1.30581 -3.96554 0
M  V30 6433 H 609.213 -1.88196 -6.45005 0
M  V30 6434 N 611.933 1.52934 -0.380664 0
M  V30 6435 C 613.181 2.01069 0.203874 0
M  V30 6436 C 613.502 1.26922 1.4804 0
M  V30 6437 O 612.772 0.386787 1.92044 0
M  V30 6438 H 611.352 0.742882 0.0783279 0
M  V30 6439 H 614.014 1.88099 -0.510368 0
M  V30 6440 H 613.11 3.09258 0.42021 0
M  V30 6441 N 613.412 0.11024 1.57214 0
M  V30 6442 C 614.359 -0.843195 2.14846 0
M  V30 6443 C 615.329 -1.26954 1.07107 0
M  V30 6444 O 616.514 -1.34861 1.34971 0
M  V30 6445 C 613.654 -2.09123 2.74521 0
M  V30 6446 C 612.767 -1.71404 3.96541 0
M  V30 6447 C 611.902 -2.91107 4.44331 0
M  V30 6448 C 610.941 -2.49586 5.58903 0
M  V30 6449 N 610.078 -3.62175 6.01477 0
M  V30 6450 H 614.918 -0.344886 2.95998 0
M  V30 6451 H 612.455 -0.15855 1.46243 0
M  V30 6452 H 614.413 -2.82234 3.07246 0
M  V30 6453 H 613.043 -2.56427 1.96074 0
M  V30 6454 H 612.095 -0.88201 3.70033 0
M  V30 6455 H 613.407 -1.36884 4.7965 0
M  V30 6456 H 612.561 -3.72454 4.78919 0
M  V30 6457 H 611.3 -3.28848 3.60153 0
M  V30 6458 H 610.305 -1.6667 5.23929 0
M  V30 6459 H 611.53 -2.12973 6.4484 0
M  V30 6460 H 609.476 -3.99605 5.20242 0
M  V30 6461 H 609.393 -3.3155 6.79419 0
M  V30 6462 H 610.661 -4.43987 6.407 0
M  V30 6463 N 614.89 -1.56749 -0.16351 0
M  V30 6464 C 616.137 -1.82434 -0.878866 0
M  V30 6465 C 616.465 -0.688557 -1.81904 0
M  V30 6466 O 615.72 0.323644 -1.93005 0
M  V30 6467 C 616.019 -3.14342 -1.70071 0
M  V30 6468 C 615.685 -4.41647 -0.908775 0
M  V30 6469 C 614.347 -4.76224 -0.690236 0
M  V30 6470 C 616.699 -5.19998 -0.353815 0
M  V30 6471 C 614.027 -5.86624 0.0942374 0
M  V30 6472 C 616.379 -6.3122 0.41761 0
M  V30 6473 C 615.043 -6.64358 0.646879 0
M  V30 6474 H 614.313 -0.667574 -0.3216 0
M  V30 6475 H 616.96 -1.90963 -0.14337 0
M  V30 6476 H 615.265 -3.0119 -2.50583 0
M  V30 6477 H 616.962 -3.31426 -2.25738 0
M  V30 6478 H 613.552 -4.1453 -1.08916 0
M  V30 6479 H 617.736 -4.93673 -0.509975 0
M  V30 6480 H 612.992 -6.10751 0.281529 0
M  V30 6481 H 617.166 -6.91133 0.854849 0
M  V30 6482 H 614.793 -7.49742 1.25662 0
M  V30 6483 N 616.368 0.432326 -1.51554 0
M  V30 6484 C 617.593 1.20824 -1.68571 0
M  V30 6485 C 618.018 1.84126 -0.384596 0
M  V30 6486 O 617.376 1.69025 0.655751 0
M  V30 6487 C 617.424 2.26429 -2.80646 0
M  V30 6488 O 616.528 3.32032 -2.44598 0
M  V30 6489 H 615.869 0.353765 -0.561913 0
M  V30 6490 H 618.399 0.509916 -1.98144 0
M  V30 6491 H 618.409 2.71133 -3.04878 0
M  V30 6492 H 617.084 1.79733 -3.75058 0
M  V30 6493 H 615.661 2.92769 -2.30956 0
M  V30 6494 N 617.846 1.41785 0.688094 0
M  V30 6495 C 619.093 1.41544 1.44816 0
M  V30 6496 C 619.421 0.0271746 1.94481 0
M  V30 6497 O 618.676 -0.962235 1.7041 0
M  V30 6498 C 618.975 2.37532 2.67046 0
M  V30 6499 C 618.641 3.84209 2.35996 0
M  V30 6500 C 617.303 4.24165 2.27239 0
M  V30 6501 C 619.655 4.76785 2.10536 0
M  V30 6502 C 616.983 5.54695 1.91128 0
M  V30 6503 C 619.335 6.07644 1.75931 0
M  V30 6504 C 617.999 6.46613 1.65675 0
M  V30 6505 H 617.269 0.517945 0.529919 0
M  V30 6506 H 619.916 1.74635 0.785797 0
M  V30 6507 H 618.221 1.9772 3.38251 0
M  V30 6508 H 619.918 2.34615 3.25203 0
M  V30 6509 H 616.508 3.52567 2.4371 0
M  V30 6510 H 620.692 4.46714 2.16242 0
M  V30 6511 H 615.948 5.83762 1.81746 0
M  V30 6512 H 620.122 6.78874 1.55252 0
M  V30 6513 H 617.749 7.47668 1.37463 0
M  V30 6514 N 619.324 -0.923095 1.27737 0
M  V30 6515 C 620.601 -1.64989 1.05062 0
M  V30 6516 C 620.981 -2.07018 -0.413124 0
M  V30 6517 O 620.329 -1.80797 -1.39731 0
M  V30 6518 C 620.539 -2.84847 2.01652 0
M  V30 6519 C 621.887 -3.56083 2.31279 0
M  V30 6520 O 622.911 -2.94981 1.99662 0
M  V30 6521 O 621.77 -4.66182 2.85196 0
M  V30 6522 H 618.864 -0.723357 0.400853 0
M  V30 6523 H 621.41 -0.973224 1.3902 0
M  V30 6524 H 620.182 -2.50814 3.00347 0
M  V30 6525 H 619.805 -3.60231 1.68284 0
M  V30 6526 N 620.802 -1.09834 -1.13024 0
M  V30 6527 C 622.03 -0.858902 -1.8823 0
M  V30 6528 C 622.445 0.590164 -1.79339 0
M  V30 6529 O 621.802 1.4065 -1.16292 0
M  V30 6530 C 621.853 -1.29066 -3.37675 0
M  V30 6531 O 621.574 -2.6829 -3.46341 0
M  V30 6532 C 623.075 -1.08421 -4.29837 0
M  V30 6533 H 620.295 -0.308713 -0.595766 0
M  V30 6534 H 622.839 -1.4614 -1.4305 0
M  V30 6535 H 620.994 -0.731961 -3.80422 0
M  V30 6536 H 621.408 -2.86598 -4.39274 0
M  V30 6537 H 622.882 -1.43553 -5.33007 0
M  V30 6538 H 623.359 -0.0223315 -4.39194 0
M  V30 6539 H 623.965 -1.62907 -3.92863 0
M  V30 6540 N 622.28 1.30327 -0.886154 0
M  V30 6541 C 623.527 1.96097 -0.505192 0
M  V30 6542 C 623.855 1.69952 0.945868 0
M  V30 6543 O 623.11 0.997653 1.68361 0
M  V30 6544 C 623.409 3.49906 -0.728042 0
M  V30 6545 C 623.075 3.96103 -2.15437 0
M  V30 6546 C 621.737 4.08428 -2.5444 0
M  V30 6547 C 624.089 4.20177 -3.08384 0
M  V30 6548 C 621.417 4.42189 -3.85598 0
M  V30 6549 C 623.769 4.55407 -4.39075 0
M  V30 6550 C 622.433 4.65941 -4.7797 0
M  V30 6551 H 621.703 0.71757 -0.184863 0
M  V30 6552 H 624.35 1.55171 -1.12223 0
M  V30 6553 H 622.655 3.9179 -0.027978 0
M  V30 6554 H 624.352 3.98869 -0.412862 0
M  V30 6555 H 620.942 3.87017 -1.84162 0
M  V30 6556 H 625.126 4.10134 -2.7947 0
M  V30 6557 H 620.382 4.48544 -4.15473 0
M  V30 6558 H 624.556 4.72986 -5.11133 0
M  V30 6559 H 622.183 4.91856 -5.79639 0
M  V30 6560 N 623.758 0.647228 1.43697 0
M  V30 6561 C 624.983 0.164083 2.0675 0
M  V30 6562 C 625.408 -1.15892 1.48158 0
M  V30 6563 O 624.766 -1.71459 0.589194 0
M  V30 6564 C 624.814 0.0800368 3.60511 0
M  V30 6565 O 623.918 -0.959453 4.01084 0
M  V30 6566 H 623.259 0.0921288 0.657578 0
M  V30 6567 H 625.789 0.88846 1.84303 0
M  V30 6568 H 625.799 -0.105263 4.07864 0
M  V30 6569 H 624.474 1.04586 4.02535 0
M  V30 6570 H 623.051 -0.747425 3.65333 0
M  V30 6571 N 625.236 -1.5273 0.388769 0
M  V30 6572 C 626.186 -2.23238 -0.463567 0
M  V30 6573 C 627.17 -1.23606 -1.03007 0
M  V30 6574 O 628.362 -1.48945 -0.956261 0
M  V30 6575 C 625.491 -3.04228 -1.5906 0
M  V30 6576 C 624.577 -4.11255 -1.03587 0
M  V30 6577 N 624.968 -5.0538 -0.206038 0
M  V30 6578 C 623.266 -4.26376 -1.30841 0
M  V30 6579 C 623.967 -5.81613 0.100359 0
M  V30 6580 N 622.943 -5.41264 -0.503447 0
M  V30 6581 H 626.745 -2.93367 0.176978 0
M  V30 6582 H 624.259 -1.61188 0.198046 0
M  V30 6583 H 626.256 -3.53277 -2.21362 0
M  V30 6584 H 624.916 -2.35634 -2.23398 0
M  V30 6585 H 625.927 -5.17663 0.156659 0
M  V30 6586 H 622.604 -3.69011 -1.95287 0
M  V30 6587 H 623.994 -6.67442 0.772676 0
M  V30 6588 N 626.714 -0.118576 -1.57153 0
M  V30 6589 C 627.664 0.842924 -2.11846 0
M  V30 6590 C 628.648 1.22845 -1.03914 0
M  V30 6591 O 629.84 1.19961 -1.30148 0
M  V30 6592 C 626.969 2.09312 -2.72109 0
M  V30 6593 C 626.055 1.73198 -3.87122 0
M  V30 6594 N 626.446 1.07758 -4.94188 0
M  V30 6595 C 624.744 2.02659 -3.97298 0
M  V30 6596 C 625.445 0.907741 -5.74574 0
M  V30 6597 N 624.421 1.4326 -5.24383 0
M  V30 6598 H 628.223 0.333416 -2.92003 0
M  V30 6599 H 625.737 0.0839073 -1.62183 0
M  V30 6600 H 627.734 2.79162 -3.09635 0
M  V30 6601 H 626.394 2.60807 -1.93416 0
M  V30 6602 H 627.405 0.741613 -5.12563 0
M  V30 6603 H 624.082 2.56204 -3.29645 0
M  V30 6604 H 625.472 0.394112 -6.70743 0
M  V30 6605 N 628.193 1.56834 0.155195 0
M  V30 6606 C 629.609 1.51315 0.50755 0
M  V30 6607 C 629.809 0.825614 1.83809 0
M  V30 6608 O 628.865 0.39271 2.49427 0
M  V30 6609 C 630.178 2.96074 0.52542 0
M  V30 6610 C 631.726 3.06968 0.611505 0
M  V30 6611 C 632.201 4.53218 0.660115 0
M  V30 6612 N 633.692 4.5753 0.722564 0
M  V30 6613 C 634.427 5.68056 0.781023 0
M  V30 6614 N 633.923 6.88173 0.799327 0
M  V30 6615 N 635.716 5.56068 0.821278 0
M  V30 6616 H 627.867 1.9993 -0.717063 0
M  V30 6617 H 630.13 0.911507 -0.260496 0
M  V30 6618 H 629.836 3.49599 -0.383875 0
M  V30 6619 H 629.71 3.51587 1.36624 0
M  V30 6620 H 632.097 2.53468 1.51122 0
M  V30 6621 H 632.178 2.54513 -0.256306 0
M  V30 6622 H 631.822 5.07354 -0.23541 0
M  V30 6623 H 631.752 5.03447 1.5443 0
M  V30 6624 H 634.243 3.71054 0.716049 0
M  V30 6625 H 634.556 7.6816 0.845553 0
M  V30 6626 H 632.901 6.90751 0.767337 0
M  V30 6627 H 636.092 4.61142 0.804091 0
M  V30 6628 H 636.265 6.42223 0.863372 0
M  V30 6629 N 629.671 -0.424282 1.51781 0
M  V30 6630 C 630.634 -1.49848 1.73431 0
M  V30 6631 C 631.634 -1.49016 0.604225 0
M  V30 6632 O 632.824 -1.50808 0.871935 0
M  V30 6633 C 629.956 -2.89332 1.80277 0
M  V30 6634 H 631.149 -1.3195 2.69312 0
M  V30 6635 H 628.702 -0.653809 1.41968 0
M  V30 6636 H 629.437 -3.12618 0.862568 0
M  V30 6637 H 629.222 -2.9134 2.62419 0
M  V30 6638 H 630.712 -3.67233 1.98821 0
M  V30 6639 N 631.149 -1.42148 -0.680565 0
M  V30 6640 C 632.389 -1.4379 -1.45271 0
M  V30 6641 C 632.753 -0.0504426 -1.91934 0
M  V30 6642 O 633.954 0.0583916 -2.68737 0
M  V30 6643 C 632.225 -2.42904 -2.62168 0
M  V30 6644 S 633.784 -2.63201 -3.51099 0
M  V30 6645 H 630.602 -0.509185 -0.496237 0
M  V30 6646 H 633.204 -1.78706 -0.792744 0
M  V30 6647 H 631.908 -3.4249 -2.26116 0
M  V30 6648 H 631.439 -2.09394 -3.33043 0
M  V30 6649 H 633.454 -1.91068 -4.57938 0
M  V30 6650 N 632.627 0.916307 -1.28225 0
M  V30 6651 C 633.557 2.0352 -1.14464 0
M  V30 6652 C 634.538 1.70045 -0.0430844 0
M  V30 6653 O 635.723 1.92954 -0.219619 0
M  V30 6654 C 632.853 3.37889 -0.803027 0
M  V30 6655 C 631.807 3.85516 -1.85908 0
M  V30 6656 C 631.133 5.1682 -1.37116 0
M  V30 6657 C 632.433 4.07655 -3.26519 0
M  V30 6658 H 634.127 2.1529 -2.08064 0
M  V30 6659 H 631.673 1.03446 -1.00174 0
M  V30 6660 H 633.626 4.15654 -0.693537 0
M  V30 6661 H 632.35 3.26164 0.168674 0
M  V30 6662 H 631.009 3.09953 -1.95767 0
M  V30 6663 H 630.657 5.01497 -0.38859 0
M  V30 6664 H 630.357 5.49657 -2.07728 0
M  V30 6665 H 631.881 5.97143 -1.27484 0
M  V30 6666 H 633.295 4.75953 -3.19596 0
M  V30 6667 H 631.692 4.51818 -3.94943 0
M  V30 6668 H 632.762 3.12553 -3.70727 0
M  V30 6669 N 634.105 1.10431 1.1244 0
M  V30 6670 C 635.035 0.775143 2.20258 0
M  V30 6671 C 636.016 -0.25186 1.68225 0
M  V30 6672 O 637.201 -0.117637 1.93843 0
M  V30 6673 C 634.331 0.206133 3.46688 0
M  V30 6674 C 633.285 1.16382 4.11873 0
M  V30 6675 C 632.611 0.456014 5.32752 0
M  V30 6676 C 633.911 2.5104 4.58013 0
M  V30 6677 H 635.605 1.67665 2.4805 0
M  V30 6678 H 633.151 0.807595 1.19222 0
M  V30 6679 H 635.104 -0.036291 4.21384 0
M  V30 6680 H 633.828 -0.730614 3.18323 0
M  V30 6681 H 632.487 1.39169 3.39157 0
M  V30 6682 H 632.135 -0.485203 5.00654 0
M  V30 6683 H 631.835 1.09466 5.77314 0
M  V30 6684 H 633.359 0.222135 6.10196 0
M  V30 6685 H 634.773 2.32401 5.24083 0
M  V30 6686 H 633.17 3.10789 5.13352 0
M  V30 6687 H 634.24 3.11039 3.71998 0
M  V30 6688 N 635.583 -1.29855 0.893053 0
M  V30 6689 C 636.999 -1.48366 0.588199 0
M  V30 6690 C 637.199 -1.81654 -0.872018 0
M  V30 6691 O 636.255 -1.909 -1.65268 0
M  V30 6692 C 637.568 -2.60136 1.5083 0
M  V30 6693 C 639.116 -2.74014 1.51279 0
M  V30 6694 C 639.591 -3.88905 2.41902 0
M  V30 6695 N 641.082 -3.96228 2.39911 0
M  V30 6696 C 641.817 -4.84458 3.06738 0
M  V30 6697 N 641.313 -5.77426 3.8282 0
M  V30 6698 N 643.106 -4.77894 2.95929 0
M  V30 6699 H 635.257 -1.06522 1.83757 0
M  V30 6700 H 637.52 -0.528495 0.787018 0
M  V30 6701 H 637.226 -2.42383 2.54839 0
M  V30 6702 H 637.1 -3.56793 1.22388 0
M  V30 6703 H 639.487 -2.91167 0.480179 0
M  V30 6704 H 639.568 -1.77952 1.83757 0
M  V30 6705 H 639.212 -3.72508 3.45253 0
M  V30 6706 H 639.142 -4.84322 2.06737 0
M  V30 6707 H 641.633 -3.29728 1.84629 0
M  V30 6708 H 641.946 -6.41529 4.30883 0
M  V30 6709 H 640.291 -5.77332 3.86927 0
M  V30 6710 H 643.482 -4.04248 2.36012 0
M  V30 6711 H 643.655 -5.46444 3.48286 0
M  V30 6712 N 637.061 -0.65484 -1.43351 0
M  V30 6713 C 638.286 -0.175046 -2.0666 0
M  V30 6714 C 638.711 1.15104 -1.4877 0
M  V30 6715 O 638.069 1.71144 -0.598279 0
M  V30 6716 C 638.117 -0.0991544 -3.60464 0
M  V30 6717 O 637.221 0.938169 -4.01587 0
M  V30 6718 H 636.562 -0.0956148 -0.65708 0
M  V30 6719 H 639.092 -0.898222 -1.83829 0
M  V30 6720 H 639.102 0.083632 -4.07914 0
M  V30 6721 H 637.777 -1.06719 -4.01975 0
M  V30 6722 H 636.354 0.72804 -3.65724 0
M  V30 6723 N 638.539 1.52521 -0.396863 0
M  V30 6724 C 639.95 1.86547 0.0754868 0
M  V30 6725 C 640.301 1.31621 1.45501 0
M  V30 6726 O 639.426 0.650563 2.0639 0
M  V30 6727 C 640.021 3.38495 0.143754 0
M  V30 6728 C 638.58 3.72205 0.560413 0
M  V30 6729 C 637.727 2.75954 -0.272856 0
M  V30 6730 H 640.678 1.46323 -0.614434 0
M  V30 6731 H 640.699 3.68153 0.961425 0
M  V30 6732 H 640.211 3.78442 -0.860415 0
M  V30 6733 H 638.312 3.3783 1.57167 0
M  V30 6734 H 638.425 4.78074 0.313314 0
M  V30 6735 H 636.789 2.53339 0.263 0
M  V30 6736 H 637.572 3.1874 -1.27515 0
M  V30 6737 N 640.017 0.126909 1.57088 0
M  V30 6738 C 641.265 -0.528123 1.95078 0
M  V30 6739 C 641.586 -1.66708 1.0116 0
M  V30 6740 O 640.856 -1.95777 0.0693527 0
M  V30 6741 H 639.436 -0.198087 0.720257 0
M  V30 6742 H 642.098 0.197703 1.93895 0
M  V30 6743 H 641.194 -0.917507 2.98309 0
M  V30 6744 N 641.495 -1.56914 -0.146875 0
M  V30 6745 C 642.428 -1.93425 -1.21087 0
M  V30 6746 C 643.406 -0.800106 -1.41552 0
M  V30 6747 O 644.59 -1.05572 -1.56162 0
M  V30 6748 C 641.717 -2.20639 -2.56975 0
M  V30 6749 C 640.763 -3.43279 -2.53104 0
M  V30 6750 S 641.596 -4.96836 -1.99786 0
M  V30 6751 C 642.752 -5.27172 -3.37403 0
M  V30 6752 H 642.985 -2.8337 -0.899378 0
M  V30 6753 H 640.518 -1.50322 -0.352494 0
M  V30 6754 H 642.476 -2.36998 -3.35175 0
M  V30 6755 H 641.137 -1.31357 -2.85314 0
M  V30 6756 H 640.33 -3.59599 -3.53136 0
M  V30 6757 H 639.932 -3.26163 -1.83012 0
M  V30 6758 H 642.224 -5.20647 -4.33513 0
M  V30 6759 H 643.167 -6.28626 -3.25937 0
M  V30 6760 H 643.575 -4.54687 -3.34544 0
M  V30 6761 N 642.974 0.416227 -1.52004 0
M  V30 6762 C 643.884 1.53147 -1.77717 0
M  V30 6763 C 644.9 1.609 -0.662368 0
M  V30 6764 O 646.076 1.77747 -0.946991 0
M  V30 6765 C 643.141 2.88948 -1.91598 0
M  V30 6766 C 642.202 2.9114 -3.15493 0
M  V30 6767 C 641.435 4.20464 -3.28703 0
M  V30 6768 O 641.658 5.13981 -2.47345 0
M  V30 6769 O 640.592 4.29368 -4.21813 0
M  V30 6770 H 644.418 1.34357 -2.72363 0
M  V30 6771 H 642.003 0.601373 -1.36762 0
M  V30 6772 H 643.885 3.69505 -2.02593 0
M  V30 6773 H 642.56 3.07821 -1.00141 0
M  V30 6774 H 641.467 2.09461 -3.09962 0
M  V30 6775 H 642.8 2.77216 -4.06709 0
M  V30 6776 N 644.452 1.42507 0.673017 0
M  V30 6777 C 645.399 1.46124 1.78651 0
M  V30 6778 C 646.369 0.313007 1.63124 0
M  V30 6779 O 647.554 0.517337 1.83653 0
M  V30 6780 C 644.694 1.3711 3.16694 0
M  V30 6781 C 643.807 2.61983 3.43495 0
M  V30 6782 C 642.942 2.45098 4.71275 0
M  V30 6783 C 641.981 3.65336 4.91117 0
M  V30 6784 N 641.118 3.47383 6.10139 0
M  V30 6785 H 645.958 2.4128 1.74895 0
M  V30 6786 H 643.495 1.19788 0.853766 0
M  V30 6787 H 645.453 1.29881 3.96468 0
M  V30 6788 H 644.083 0.45549 3.1957 0
M  V30 6789 H 643.135 2.79571 2.57961 0
M  V30 6790 H 644.447 3.51355 3.5405 0
M  V30 6791 H 643.601 2.35466 5.59143 0
M  V30 6792 H 642.34 1.53219 4.63007 0
M  V30 6793 H 641.345 3.754 4.0169 0
M  V30 6794 H 642.57 4.58199 5.01229 0
M  V30 6795 H 640.516 2.58222 6.0304 0
M  V30 6796 H 640.433 4.30344 6.21563 0
M  V30 6797 H 641.701 3.41565 7.00681 0
M  V30 6798 N 645.93 -0.909495 1.28709 0
M  V30 6799 C 646.86 -2.0291 1.15542 0
M  V30 6800 C 647.841 -1.7002 0.0521017 0
M  V30 6801 O 649.026 -1.92835 0.229849 0
M  V30 6802 C 646.156 -3.37458 0.820935 0
M  V30 6803 C 645.11 -3.84524 1.87949 0
M  V30 6804 C 644.436 -5.16086 1.39854 0
M  V30 6805 C 645.736 -4.05918 3.28676 0
M  V30 6806 H 647.43 -2.14183 2.09203 0
M  V30 6807 H 644.976 -1.02913 1.00722 0
M  V30 6808 H 646.929 -4.1528 0.715571 0
M  V30 6809 H 645.653 -3.26249 -0.151374 0
M  V30 6810 H 644.312 -3.08911 1.97408 0
M  V30 6811 H 643.96 -5.01284 0.41518 0
M  V30 6812 H 643.66 -5.48547 2.1064 0
M  V30 6813 H 645.184 -5.96459 1.30649 0
M  V30 6814 H 646.598 -4.74252 3.22115 0
M  V30 6815 H 644.995 -4.49717 3.97334 0
M  V30 6816 H 646.065 -3.10583 3.72379 0
M  V30 6817 N 647.408 -1.11026 -1.11852 0
M  V30 6818 C 648.356 -0.759643 -2.19846 0
M  V30 6819 C 649.35 0.246964 -1.6759 0
M  V30 6820 O 650.556 0.106693 -1.79684 0
M  V30 6821 H 646.931 -0.22775 -0.716683 0
M  V30 6822 H 648.902 -1.6792 -2.46669 0
M  V30 6823 C 647.651 -0.214364 -3.47039 0
M  V30 6824 H 646.974 -0.980175 -3.87599 0
M  V30 6825 H 648.414 -0.00717047 -4.23999 0
M  V30 6826 C 646.873 1.05436 -3.19976 0
M  V30 6827 O 647.403 2.13483 -3.40276 0
M  V30 6828 N 645.609 0.975436 -2.7374 0
M  V30 6829 H 645.156 0.0960853 -2.57421 0
M  V30 6830 H 645.114 1.82501 -2.5601 0
M  V30 6831 N 648.886 1.2938 -0.899927 0
M  V30 6832 C 649.849 2.25983 -0.382677 0
M  V30 6833 C 650.849 1.53366 0.483259 0
M  V30 6834 O 652.039 1.71798 0.28828 0
M  V30 6835 C 649.171 3.37878 0.452915 0
M  V30 6836 H 650.364 2.73252 -1.23586 0
M  V30 6837 H 647.917 1.40825 -0.678088 0
M  V30 6838 H 648.652 2.95949 1.32608 0
M  V30 6839 H 648.437 3.91742 -0.167562 0
M  V30 6840 H 649.927 4.09746 0.806107 0
M  V30 6841 N 650.364 0.662433 1.43002 0
M  V30 6842 C 651.294 -0.00979809 2.33498 0
M  V30 6843 C 652.275 -0.802329 1.49989 0
M  V30 6844 O 653.46 -0.761964 1.78627 0
M  V30 6845 C 650.59 -0.970446 3.33466 0
M  V30 6846 C 649.544 -0.287383 4.27034 0
M  V30 6847 C 648.87 -1.36012 5.17112 0
M  V30 6848 C 650.17 0.82595 5.15728 0
M  V30 6849 H 651.864 0.745959 2.89958 0
M  V30 6850 H 649.41 0.360172 1.39423 0
M  V30 6851 H 651.363 -1.44971 3.95679 0
M  V30 6852 H 650.087 -1.75748 2.75282 0
M  V30 6853 H 648.746 0.17152 3.66199 0
M  V30 6854 H 648.394 -2.13882 4.55262 0
M  V30 6855 H 648.094 -0.908276 5.80538 0
M  V30 6856 H 649.618 -1.84056 5.82199 0
M  V30 6857 H 651.032 0.42845 5.71697 0
M  V30 6858 H 649.429 1.20282 5.87922 0
M  V30 6859 H 650.499 1.68003 4.54866 0
M  V30 6860 N 651.842 -1.52309 0.404946 0
M  V30 6861 C 653.258 -1.59503 0.0556255 0
M  V30 6862 C 653.458 -1.41805 -1.43156 0
M  V30 6863 O 652.514 -1.2429 -2.19792 0
M  V30 6864 C 653.827 -2.95687 0.546801 0
M  V30 6865 C 655.375 -3.08909 0.504413 0
M  V30 6866 C 655.85 -4.47566 0.97203 0
M  V30 6867 N 657.341 -4.53795 0.928679 0
M  V30 6868 C 658.076 -5.59346 1.26174 0
M  V30 6869 N 657.572 -6.72469 1.66604 0
M  V30 6870 N 659.365 -5.49532 1.18198 0
M  V30 6871 H 651.516 -1.6206 1.37296 0
M  V30 6872 H 653.779 -0.762161 0.563751 0
M  V30 6873 H 653.485 -3.13905 1.58609 0
M  V30 6874 H 653.359 -3.77172 -0.0457905 0
M  V30 6875 H 655.746 -2.90378 -0.525819 0
M  V30 6876 H 655.827 -2.2934 1.13301 0
M  V30 6877 H 655.471 -4.6684 2.00057 0
M  V30 6878 H 655.401 -5.25625 0.320292 0
M  V30 6879 H 657.892 -3.72588 0.631369 0
M  V30 6880 H 658.205 -7.48993 1.9034 0
M  V30 6881 H 656.55 -6.73761 1.70504 0
M  V30 6882 H 659.741 -4.60038 0.865011 0
M  V30 6883 H 659.914 -6.31687 1.44485 0
M  V30 6884 N 653.32 -0.135238 -1.57019 0
M  V30 6885 C 654.55 0.525303 -1.9981 0
M  V30 6886 C 654.958 1.59724 -1.01415 0
M  V30 6887 O 654.301 1.837 -0.00130938 0
M  V30 6888 C 654.363 1.19578 -3.3903 0
M  V30 6889 C 654.027 0.269855 -4.56203 0
M  V30 6890 C 655.024 -0.497905 -5.1751 0
M  V30 6891 C 652.709 0.176188 -5.01991 0
M  V30 6892 C 654.703 -1.3469 -6.23007 0
M  V30 6893 C 652.39 -0.676422 -6.07345 0
M  V30 6894 C 653.388 -1.43658 -6.67721 0
M  V30 6895 O 653.076 -2.27501 -7.71037 0
M  V30 6896 H 652.808 0.142296 -0.660854 0
M  V30 6897 H 655.362 -0.223272 -2.04183 0
M  V30 6898 H 653.592 1.99176 -3.3146 0
M  V30 6899 H 655.281 1.75486 -3.66005 0
M  V30 6900 H 656.047 -0.435507 -4.83041 0
M  V30 6901 H 651.926 0.757583 -4.54733 0
M  V30 6902 H 655.47 -1.9407 -6.70062 0
M  V30 6903 H 651.367 -0.740154 -6.41243 0
M  V30 6904 H 652.135 -2.20619 -7.88206 0
M  V30 6905 N 654.798 1.5699 0.138552 0
M  V30 6906 C 656.209 1.73171 0.697754 0
M  V30 6907 C 656.56 0.750952 1.8126 0
M  V30 6908 O 655.685 -0.080549 2.1625 0
M  V30 6909 C 656.28 3.13996 1.27248 0
M  V30 6910 C 654.839 3.3175 1.77816 0
M  V30 6911 C 653.986 2.69084 0.669991 0
M  V30 6912 H 656.937 1.5846 -0.0871979 0
M  V30 6913 H 656.958 3.14463 2.14227 0
M  V30 6914 H 656.47 3.85354 0.460855 0
M  V30 6915 H 654.571 2.65403 2.61519 0
M  V30 6916 H 654.684 4.39768 1.90107 0
M  V30 6917 H 653.048 2.29782 1.09874 0
M  V30 6918 H 653.831 3.43053 -0.130329 0
M  V30 6919 N 656.276 -0.40816 1.52223 0
M  V30 6920 C 657.687 -0.986929 1.58482 0
M  V30 6921 C 658.038 -1.91521 0.425917 0
M  V30 6922 O 657.163 -2.11593 -0.453593 0
M  V30 6923 C 657.758 -1.7967 2.87235 0
M  V30 6924 C 656.317 -2.32549 2.9597 0
M  V30 6925 C 655.464 -1.12558 2.53428 0
M  V30 6926 H 658.415 -0.188362 1.57578 0
M  V30 6927 H 658.436 -2.65417 2.72642 0
M  V30 6928 H 657.948 -1.12082 3.71563 0
M  V30 6929 H 656.049 -3.03505 2.16137 0
M  V30 6930 H 656.162 -2.63348 4.00231 0
M  V30 6931 H 654.526 -1.47984 2.07299 0
M  V30 6932 H 655.309 -0.465351 3.40131 0
M  V30 6933 N 657.755 -1.42862 -0.66545 0
M  V30 6934 C 658.687 -1.43026 -1.79098 0
M  V30 6935 C 659.7 -0.32803 -1.59461 0
M  V30 6936 O 660.889 -0.591709 -1.68407 0
M  V30 6937 C 657.989 -1.21566 -3.16346 0
M  V30 6938 C 657.162 -2.44399 -3.62751 0
M  V30 6939 C 656.221 -2.18344 -4.78761 0
M  V30 6940 O 655.247 -2.91611 -4.88827 0
M  V30 6941 N 656.449 -1.1924 -5.68122 0
M  V30 6942 H 659.214 -2.40045 -1.79439 0
M  V30 6943 H 656.775 -1.37861 -0.848872 0
M  V30 6944 H 658.767 -1.02037 -3.91625 0
M  V30 6945 H 657.337 -0.330368 -3.10849 0
M  V30 6946 H 656.557 -2.79433 -2.78048 0
M  V30 6947 H 657.845 -3.26173 -3.90498 0
M  V30 6948 H 657.243 -0.586603 -5.6265 0
M  V30 6949 H 655.8 -1.05698 -6.43173 0
M  V30 6950 N 659.233 0.902656 -1.29189 0
M  V30 6951 C 660.458 1.69167 -1.19989 0
M  V30 6952 C 660.883 1.86607 0.236495 0
M  V30 6953 O 660.241 1.38425 1.17082 0
M  V30 6954 C 660.289 3.05532 -1.91527 0
M  V30 6955 O 659.393 3.93621 -1.2303 0
M  V30 6956 H 658.734 0.517584 -0.415936 0
M  V30 6957 H 661.264 1.12785 -1.70706 0
M  V30 6958 H 661.274 3.55693 -1.99866 0
M  V30 6959 H 659.949 2.92156 -2.96003 0
M  V30 6960 H 658.526 3.52055 -1.22928 0
M  V30 6961 N 660.711 1.11618 1.11262 0
M  V30 6962 C 662.122 0.881942 1.64556 0
M  V30 6963 C 662.473 -0.585442 1.87262 0
M  V30 6964 O 661.598 -1.44795 1.60821 0
M  V30 6965 C 662.193 1.59446 2.98935 0
M  V30 6966 C 660.752 1.40661 3.4913 0
M  V30 6967 C 659.899 1.63593 2.23903 0
M  V30 6968 H 662.85 1.27217 0.94877 0
M  V30 6969 H 662.871 1.04054 3.65996 0
M  V30 6970 H 662.383 2.66241 2.82378 0
M  V30 6971 H 660.484 0.360835 3.70849 0
M  V30 6972 H 660.597 2.15693 4.27801 0
M  V30 6973 H 658.961 1.05944 2.3162 0
M  V30 6974 H 659.744 2.71666 2.09886 0
M  V30 6975 N 662.189 -1.289 0.906776 0
M  V30 6976 C 663.605 -1.47733 0.603902 0
M  V30 6977 C 663.805 -1.82568 -0.852702 0
M  V30 6978 O 662.861 -1.92642 -1.63234 0
M  V30 6979 C 664.174 -2.58522 1.53581 0
M  V30 6980 C 665.722 -2.72394 1.54177 0
M  V30 6981 C 666.197 -3.86318 2.46013 0
M  V30 6982 N 667.688 -3.93661 2.441 0
M  V30 6983 C 668.423 -4.81177 3.11859 0
M  V30 6984 N 667.919 -5.73333 3.88923 0
M  V30 6985 N 669.712 -4.74728 3.00981 0
M  V30 6986 H 661.863 -1.04567 1.84877 0
M  V30 6987 H 664.126 -0.520118 0.792579 0
M  V30 6988 H 663.832 -2.39667 2.57396 0
M  V30 6989 H 663.706 -3.55475 1.26165 0
M  V30 6990 H 666.093 -2.90641 0.511034 0
M  V30 6991 H 666.174 -1.75993 1.85634 0
M  V30 6992 H 665.818 -3.68826 3.49185 0
M  V30 6993 H 665.748 -4.82102 2.11862 0
M  V30 6994 H 668.239 -3.27751 1.88115 0
M  V30 6995 H 668.552 -6.36923 4.37663 0
M  V30 6996 H 666.897 -5.73196 3.93029 0
M  V30 6997 H 670.088 -4.01722 2.40286 0
M  V30 6998 H 670.261 -5.42719 3.54062 0
M  V30 6999 N 663.667 -0.670007 -1.42649 0
M  V30 7000 C 665.083 -0.33911 -1.55956 0
M  V30 7001 C 665.283 1.1558 -1.65056 0
M  V30 7002 O 664.339 1.94111 -1.61485 0
M  V30 7003 C 665.652 -1.06522 -2.812 0
M  V30 7004 C 667.2 -1.04708 -2.94966 0
M  V30 7005 C 667.675 -1.75442 -4.23065 0
M  V30 7006 N 669.166 -1.72286 -4.29967 0
M  V30 7007 C 669.901 -2.23877 -5.27889 0
M  V30 7008 N 669.397 -2.83829 -6.31991 0
M  V30 7009 N 671.19 -2.14279 -5.19654 0
M  V30 7010 H 663.341 -1.6399 -1.34986 0
M  V30 7011 H 665.604 -0.690603 -0.649439 0
M  V30 7012 H 665.31 -2.12033 -2.80597 0
M  V30 7013 H 665.184 -0.627398 -3.71946 0
M  V30 7014 H 667.571 -0.000315966 -2.951 0
M  V30 7015 H 667.652 -1.52374 -2.05465 0
M  V30 7016 H 667.296 -2.80084 -4.23693 0
M  V30 7017 H 667.226 -1.25229 -5.11493 0
M  V30 7018 H 669.717 -1.28554 -3.55362 0
M  V30 7019 H 670.03 -3.20827 -7.03057 0
M  V30 7020 H 668.375 -2.87896 -6.32567 0
M  V30 7021 H 671.566 -1.67135 -4.37245 0
M  V30 7022 H 671.739 -2.54792 -5.95806 0
M  V30 7023 N 665.145 1.52092 -0.413018 0
M  V30 7024 C 666.075 2.30021 0.401567 0
M  V30 7025 C 667.056 1.34395 1.04269 0
M  V30 7026 O 668.241 1.63304 1.05097 0
M  V30 7027 C 665.371 3.12447 1.51638 0
M  V30 7028 C 664.325 4.16153 1.00005 0
M  V30 7029 C 663.651 4.86948 2.20875 0
M  V30 7030 C 664.951 5.22275 0.0513757 0
M  V30 7031 H 666.645 2.98365 -0.248704 0
M  V30 7032 H 664.191 1.4349 -0.121052 0
M  V30 7033 H 666.144 3.65733 2.09326 0
M  V30 7034 H 664.868 2.41879 2.19458 0
M  V30 7035 H 663.527 3.63882 0.445549 0
M  V30 7036 H 663.175 4.12905 2.8726 0
M  V30 7037 H 662.875 5.57057 1.86978 0
M  V30 7038 H 664.399 5.43048 2.79162 0
M  V30 7039 H 665.813 5.70778 0.537176 0
M  V30 7040 H 664.21 5.9977 -0.198977 0
M  V30 7041 H 665.28 4.76611 -0.892736 0
M  V30 7042 N 666.623 0.143563 1.56945 0
M  V30 7043 C 668.039 -0.212877 1.58174 0
M  V30 7044 C 668.239 -1.64926 1.15766 0
M  V30 7045 O 667.295 -2.37535 0.856361 0
M  V30 7046 C 668.608 0.0427573 3.0067 0
M  V30 7047 C 670.156 -0.0212221 3.12993 0
M  V30 7048 C 670.631 0.207036 4.57532 0
M  V30 7049 N 672.122 0.153845 4.62944 0
M  V30 7050 C 672.857 0.305018 5.72588 0
M  V30 7051 N 672.353 0.513722 6.90893 0
M  V30 7052 N 674.146 0.242862 5.61575 0
M  V30 7053 H 666.297 1.08148 1.82805 0
M  V30 7054 H 668.56 0.427831 0.84597 0
M  V30 7055 H 668.266 1.03672 3.36073 0
M  V30 7056 H 668.14 -0.678195 3.71053 0
M  V30 7057 H 670.527 -1.00574 2.77433 0
M  V30 7058 H 670.608 0.732004 2.45103 0
M  V30 7059 H 670.252 1.18863 4.93795 0
M  V30 7060 H 670.182 -0.566473 5.23544 0
M  V30 7061 H 672.673 -0.00294866 3.779 0
M  V30 7062 H 672.986 0.619273 7.70315 0
M  V30 7063 H 671.331 0.550001 6.9282 0
M  V30 7064 H 674.522 0.0806015 4.68031 0
M  V30 7065 H 674.695 0.364112 6.46976 0
M  V30 7066 N 668.101 -1.57061 -0.130224 0
M  V30 7067 C 669.034 -1.94698 -1.19029 0
M  V30 7068 C 670.012 -0.815074 -1.40696 0
M  V30 7069 O 671.196 -1.07223 -1.55034 0
M  V30 7070 C 668.323 -2.23352 -2.5462 0
M  V30 7071 C 667.369 -3.45945 -2.49448 0
M  V30 7072 S 668.202 -4.98927 -1.94505 0
M  V30 7073 C 669.358 -5.30721 -3.31792 0
M  V30 7074 H 669.591 -2.84308 -0.869272 0
M  V30 7075 H 667.124 -1.50688 -0.336531 0
M  V30 7076 H 669.082 -2.40539 -3.32643 0
M  V30 7077 H 667.743 -1.34376 -2.83905 0
M  V30 7078 H 666.936 -3.63324 -3.49302 0
M  V30 7079 H 666.538 -3.28086 -1.79543 0
M  V30 7080 H 668.83 -5.25215 -4.27966 0
M  V30 7081 H 669.773 -6.32048 -3.19251 0
M  V30 7082 H 670.181 -4.5821 -3.29703 0
M  V30 7083 N 669.579 0.400081 -1.52437 0
M  V30 7084 C 670.509 1.4947 -1.7939 0
M  V30 7085 C 671.49 1.57383 -0.645329 0
M  V30 7086 O 672.675 1.72511 -0.891826 0
M  V30 7087 C 669.805 2.87201 -1.95276 0
M  V30 7088 C 668.759 2.94134 -3.10917 0
M  V30 7089 C 668.085 4.34207 -3.1204 0
M  V30 7090 C 669.385 2.64791 -4.50203 0
M  V30 7091 H 671.079 1.27165 -2.71052 0
M  V30 7092 H 668.625 0.610312 -1.30427 0
M  V30 7093 H 670.578 3.63772 -2.12715 0
M  V30 7094 H 669.302 3.10819 -1.00294 0
M  V30 7095 H 667.961 2.20009 -2.93243 0
M  V30 7096 H 667.609 4.54848 -2.14761 0
M  V30 7097 H 667.309 4.39768 -3.89715 0
M  V30 7098 H 668.833 5.127 -3.31619 0
M  V30 7099 H 670.247 3.31083 -4.68035 0
M  V30 7100 H 668.644 2.81717 -5.29864 0
M  V30 7101 H 669.714 1.60184 -4.57678 0
M  V30 7102 N 671.057 1.43213 0.657864 0
M  V30 7103 C 671.987 1.50815 1.78262 0
M  V30 7104 C 672.968 0.363211 1.66177 0
M  V30 7105 O 674.153 0.579806 1.85343 0
M  V30 7106 C 671.283 1.42625 3.16663 0
M  V30 7107 C 670.237 2.5532 3.43505 0
M  V30 7108 C 669.563 2.32184 4.81658 0
M  V30 7109 C 670.863 3.97583 3.38711 0
M  V30 7110 H 672.557 2.44954 1.72157 0
M  V30 7111 H 670.103 1.17896 0.82683 0
M  V30 7112 H 672.056 1.46548 3.95097 0
M  V30 7113 H 670.78 0.449877 3.23487 0
M  V30 7114 H 669.439 2.50742 2.6744 0
M  V30 7115 H 669.087 1.32801 4.85153 0
M  V30 7116 H 668.787 3.07724 5.00579 0
M  V30 7117 H 670.311 2.37883 5.62356 0
M  V30 7118 H 671.725 4.03673 4.07089 0
M  V30 7119 H 670.122 4.73112 3.69168 0
M  V30 7120 H 671.192 4.23049 2.36976 0
M  V30 7121 N 672.536 -0.895792 1.29666 0
M  V30 7122 C 673.782 -1.64908 1.18039 0
M  V30 7123 C 674.115 -1.9236 -0.266682 0
M  V30 7124 O 673.39 -1.53682 -1.19214 0
M  V30 7125 C 673.673 -2.99574 1.99819 0
M  V30 7126 C 673.526 -2.79163 3.52687 0
M  V30 7127 C 674.845 -4.00358 1.82761 0
M  V30 7128 H 671.964 -0.598437 0.430165 0
M  V30 7129 H 674.606 -1.03736 1.59182 0
M  V30 7130 H 672.756 -3.51786 1.64859 0
M  V30 7131 H 674.428 -2.33821 3.9765 0
M  V30 7132 H 672.671 -2.13871 3.77414 0
M  V30 7133 H 673.342 -3.74871 4.05186 0
M  V30 7134 H 675.818 -3.57268 2.13304 0
M  V30 7135 H 674.694 -4.92514 2.42325 0
M  V30 7136 H 674.955 -4.35096 0.783839 0
M  V30 7137 N 674.014 -1.12206 -1.10668 0
M  V30 7138 C 674.977 -0.790867 -2.15123 0
M  V30 7139 C 675.977 0.193618 -1.5963 0
M  V30 7140 O 677.167 -0.0318728 -1.74171 0
M  V30 7141 C 674.299 -0.174797 -3.40452 0
M  V30 7142 H 675.492 -1.7163 -2.45933 0
M  V30 7143 H 673.045 -0.924993 -1.2599 0
M  V30 7144 H 673.78 0.760478 -3.15257 0
M  V30 7145 H 673.565 -0.88358 -3.82015 0
M  V30 7146 H 675.055 0.0405162 -4.1758 0
M  V30 7147 N 675.492 1.28418 -0.913599 0
M  V30 7148 C 676.425 2.25557 -0.346328 0
M  V30 7149 C 677.403 1.53038 0.549366 0
M  V30 7150 O 678.587 1.81937 0.493055 0
M  V30 7151 C 675.714 3.34915 0.504961 0
M  V30 7152 C 674.76 4.25257 -0.325334 0
M  V30 7153 S 675.593 5.06718 -1.73198 0
M  V30 7154 C 676.749 6.19569 -0.887988 0
M  V30 7155 H 676.982 2.73325 -1.16965 0
M  V30 7156 H 674.515 1.36855 -0.714841 0
M  V30 7157 H 676.473 3.98376 0.990301 0
M  V30 7158 H 675.134 2.85814 1.30267 0
M  V30 7159 H 674.327 5.02947 0.325589 0
M  V30 7160 H 673.929 3.66519 -0.744321 0
M  V30 7161 H 676.221 6.77398 -0.117568 0
M  V30 7162 H 677.164 6.88908 -1.63742 0
M  V30 7163 H 677.572 5.62812 -0.436228 0
M  V30 7164 N 676.97 0.677563 1.42291 0
M  V30 7165 C 677.88 0.000962654 2.346 0
M  V30 7166 C 678.896 -0.785833 1.55244 0
M  V30 7167 O 680.072 -0.727523 1.87801 0
M  V30 7168 C 677.137 -0.936746 3.33805 0
M  V30 7169 C 676.198 -0.144173 4.29058 0
M  V30 7170 C 675.431 -1.03722 5.23524 0
M  V30 7171 O 675.654 -2.27675 5.22992 0
M  V30 7172 O 674.588 -0.496542 5.99848 0
M  V30 7173 H 678.414 0.761397 2.94001 0
M  V30 7174 H 675.999 0.43781 1.42841 0
M  V30 7175 H 677.881 -1.47497 3.94744 0
M  V30 7176 H 676.556 -1.67698 2.76874 0
M  V30 7177 H 675.463 0.438224 3.71524 0
M  V30 7178 H 676.796 0.55701 4.89038 0
M  V30 7179 N 678.448 -1.51871 0.421078 0
M  V30 7180 C 679.411 -2.25914 -0.386712 0
M  V30 7181 C 680.411 -1.28733 -0.963555 0
M  V30 7182 O 681.601 -1.52579 -0.840556 0
M  V30 7183 C 678.733 -3.03853 -1.54551 0
M  V30 7184 H 679.926 -2.98754 0.261978 0
M  V30 7185 H 677.479 -1.5533 0.173862 0
M  V30 7186 H 678.214 -2.35392 -2.23072 0
M  V30 7187 H 677.999 -3.75215 -1.13824 0
M  V30 7188 H 679.489 -3.59984 -2.11663 0
M  V30 7189 N 679.926 -0.151884 -1.56866 0
M  V30 7190 C 680.858 0.817008 -2.14144 0
M  V30 7191 C 681.871 1.20735 -1.0921 0
M  V30 7192 O 683.06 1.15058 -1.36469 0
M  V30 7193 C 680.16 2.10844 -2.65326 0
M  V30 7194 C 679.333 1.88471 -3.94712 0
M  V30 7195 C 678.392 3.01649 -4.31155 0
M  V30 7196 O 677.418 2.73127 -4.9939 0
M  V30 7197 N 678.62 4.28947 -3.91132 0
M  V30 7198 H 681.385 0.327448 -2.97906 0
M  V30 7199 H 678.946 0.0315313 -1.61869 0
M  V30 7200 H 680.938 2.85616 -2.86715 0
M  V30 7201 H 679.508 2.51049 -1.86262 0
M  V30 7202 H 678.728 0.977088 -3.81899 0
M  V30 7203 H 680.016 1.70866 -4.79252 0
M  V30 7204 H 679.414 4.54986 -3.36161 0
M  V30 7205 H 677.971 5.00484 -4.17563 0
M  V30 7206 N 681.404 1.57128 0.121893 0
M  V30 7207 C 682.652 1.84335 0.828548 0
M  V30 7208 C 682.973 0.736632 1.80551 0
M  V30 7209 O 682.243 -0.23962 1.94429 0
M  V30 7210 H 680.823 0.680108 0.30897 0
M  V30 7211 H 683.485 1.9459 0.109906 0
M  V30 7212 H 682.581 2.80152 1.37554 0
M  V30 7213 N 682.882 -0.391992 1.52647 0
M  V30 7214 C 684.122 -1.1463 1.69232 0
M  V30 7215 C 684.486 -1.87312 0.421684 0
M  V30 7216 O 685.687 -2.64768 0.463852 0
M  V30 7217 C 683.958 -2.10088 2.89133 0
M  V30 7218 S 685.517 -2.93395 3.2629 0
M  V30 7219 H 682.335 -0.388076 0.59575 0
M  V30 7220 H 684.937 -0.431149 1.90687 0
M  V30 7221 H 683.641 -1.55408 3.79837 0
M  V30 7222 H 683.172 -2.86116 2.70003 0
M  V30 7223 H 685.187 -4.12193 2.76244 0
M  V30 7224 N 684.36 -1.4356 -0.65026 0
M  V30 7225 C 685.585 -1.48995 -1.44275 0
M  V30 7226 C 686.01 -0.109954 -1.87778 0
M  V30 7227 O 685.368 0.896926 -1.57559 0
M  V30 7228 C 685.416 -2.44341 -2.65198 0
M  V30 7229 O 684.52 -1.93172 -3.6436 0
M  V30 7230 H 683.861 -0.503852 -0.432469 0
M  V30 7231 H 686.391 -1.88504 -0.795446 0
M  V30 7232 H 686.401 -2.61743 -3.12977 0
M  V30 7233 H 685.076 -3.44588 -2.32877 0
M  V30 7234 H 683.653 -1.85445 -3.23519 0
M  V30 7235 N 685.838 0.888903 -1.30139 0
M  V30 7236 C 687.078 1.65456 -1.20015 0
M  V30 7237 C 687.442 1.90467 0.242148 0
M  V30 7238 O 688.643 2.6472 0.466561 0
M  V30 7239 C 686.914 2.96071 -2.00191 0
M  V30 7240 S 688.473 3.87055 -2.06721 0
M  V30 7241 H 685.291 0.567927 -0.427761 0
M  V30 7242 H 687.893 1.05539 -1.64565 0
M  V30 7243 H 686.597 2.7559 -3.04103 0
M  V30 7244 H 686.128 3.61023 -1.56288 0
M  V30 7245 H 688.143 4.81676 -1.19174 0
M  V30 7246 N 687.317 1.12792 1.10072 0
M  V30 7247 C 688.545 0.908506 1.85886 0
M  V30 7248 C 688.96 -0.542408 1.80841 0
M  V30 7249 O 688.317 -1.37517 1.1998 0
M  V30 7250 C 688.368 1.37973 3.34134 0
M  V30 7251 O 688.089 2.77378 3.39106 0
M  V30 7252 C 689.59 1.1978 4.26811 0
M  V30 7253 H 686.81 0.3244 0.587372 0
M  V30 7254 H 689.354 1.49882 1.39125 0
M  V30 7255 H 687.509 0.832566 3.78348 0
M  V30 7256 H 687.923 2.98144 4.31521 0
M  V30 7257 H 689.397 1.57635 5.29014 0
M  V30 7258 H 689.874 0.138768 4.38981 0
M  V30 7259 H 690.48 1.73266 3.88406 0
M  V30 7260 N 688.795 -1.27931 0.920396 0
M  V30 7261 C 689.725 -2.29487 0.431024 0
M  V30 7262 C 690.706 -1.62435 -0.504861 0
M  V30 7263 O 691.891 -1.89797 -0.411176 0
M  V30 7264 C 689.021 -3.45788 -0.323709 0
M  V30 7265 C 687.975 -4.24784 0.523658 0
M  V30 7266 C 687.301 -5.33488 -0.359809 0
M  V30 7267 C 688.601 -4.90874 1.78437 0
M  V30 7268 H 690.295 -2.70671 1.27975 0
M  V30 7269 H 687.841 -1.30121 0.616813 0
M  V30 7270 H 689.794 -4.15927 -0.676952 0
M  V30 7271 H 688.518 -3.03502 -1.2064 0
M  V30 7272 H 687.177 -3.56382 0.85951 0
M  V30 7273 H 686.825 -4.87445 -1.24124 0
M  V30 7274 H 686.525 -5.87247 0.203605 0
M  V30 7275 H 688.049 -6.06472 -0.708787 0
M  V30 7276 H 689.463 -5.53339 1.49963 0
M  V30 7277 H 687.86 -5.54659 2.29071 0
M  V30 7278 H 688.93 -4.14988 2.50824 0
M  V30 7279 N 690.273 -0.685099 -1.4193 0
M  V30 7280 C 691.203 -0.0273506 -2.33484 0
M  V30 7281 C 692.184 0.778366 -1.51246 0
M  V30 7282 O 693.369 0.733449 -1.79817 0
M  V30 7283 C 690.499 0.917272 -3.34968 0
M  V30 7284 C 689.453 0.21941 -4.27437 0
M  V30 7285 C 688.779 1.27768 -5.1921 0
M  V30 7286 C 690.079 -0.907894 -5.14349 0
M  V30 7287 H 691.773 -0.791994 -2.88735 0
M  V30 7288 H 689.319 -0.382308 -1.38832 0
M  V30 7289 H 691.272 1.38657 -3.97935 0
M  V30 7290 H 689.996 1.71346 -2.78043 0
M  V30 7291 H 688.655 -0.229757 -3.65879 0
M  V30 7292 H 688.303 2.06612 -4.58607 0
M  V30 7293 H 688.003 0.815803 -5.81909 0
M  V30 7294 H 689.527 1.7477 -5.85054 0
M  V30 7295 H 690.941 -0.519348 -5.70943 0
M  V30 7296 H 689.338 -1.2962 -5.85934 0
M  V30 7297 H 690.408 -1.75218 -4.52136 0
M  V30 7298 O 691.79 1.51061 -0.571204 0
M  V30 7299 H 692.481 1.93564 -0.0726397 0
M  V30 END ATOM
M  V30 BEGIN BOND
M  V30 END BOND
M  V30 END CTAB
M  END
$$$$
