drugbank_target|P18031 Tyrosine-protein phosphatase non-receptor type 1 (DB01734; DB01820; DB02014; DB02072; DB02259; DB02420; DB02436; DB02615; DB02620; DB02622; DB02651; DB02662; DB02784; DB02827; DB02977; DB03102; DB03154; DB03311; DB03483; DB03557; DB03661; DB03670; DB03714; DB03982; DB04001; DB04088; DB04142; DB04204; DB04285; DB04525; DB04800; DB05506; DB06333; DB06521; DB06829; DB06887; DB07130; DB07134; DB07197; DB07263; DB07289; DB07295; DB07298; DB07480; DB07651; DB07719; DB07730; DB08001; DB08003; DB08147; DB08371; DB08397; DB08549; DB08591; DB08593; DB08783)
 OpenBabel12092119353D

  0  0  0     0  0            999 V3000
M  V30 BEGIN CTAB
M  V30 COUNTS 6949 7039 0 0 0
M  V30 BEGIN ATOM
M  V30 1 H -0.908 1.98254 -0.117106 0
M  V30 2 N 0 1.576 0 0
M  V30 3 C 0.933 2.03868 1.02534 0
M  V30 4 C 1.911 0.928543 1.3348 0
M  V30 5 O 3.095 1.19667 1.45644 0
M  V30 6 C 0.222 2.43627 2.35294 0
M  V30 7 C -0.732 3.65373 2.2001 0
M  V30 8 S 0.101 5.13292 1.52614 0
M  V30 9 C 1.257 5.56322 2.86805 0
M  V30 10 H 1.49 2.90518 0.631377 0
M  V30 11 H -0.977 1.52953 0.210867 0
M  V30 12 H 0.981 2.67203 3.11629 0
M  V30 13 H -0.358 1.57376 2.7183 0
M  V30 14 H -1.165 3.90944 3.18086 0
M  V30 15 H -1.563 3.418 1.51819 0
M  V30 16 H 0.729 5.58782 3.83104 0
M  V30 17 H 1.672 6.56266 2.65933 0
M  V30 18 H 2.08 4.83886 2.90714 0
M  V30 19 N 1.4781 -0.272755 1.55222 0
M  V30 20 C 2.3881 -1.35918 1.91216 0
M  V30 21 C 3.4041 -1.54026 0.809436 0
M  V30 22 O 4.5801 -1.68148 1.10852 0
M  V30 23 C 1.6451 -2.69834 2.17693 0
M  V30 24 C 0.7061 -2.6047 3.41253 0
M  V30 25 C -0.0609 -3.88 3.66458 0
M  V30 26 O 0.1621 -4.88693 2.94169 0
M  V30 27 O -0.9039 -3.88189 4.59992 0
M  V30 28 H 2.9221 -1.0839 2.83699 0
M  V30 29 H 0.5071 -0.471301 1.41771 0
M  V30 30 H 2.3891 -3.49017 2.36147 0
M  V30 31 H 1.0641 -2.97148 1.28392 0
M  V30 32 H -0.0289 -1.79663 3.28134 0
M  V30 33 H 1.3041 -2.38106 4.30774 0
M  V30 34 N 2.9562 -1.48159 -0.537278 0
M  V30 35 C 3.8892 -1.567 -1.65893 0
M  V30 36 C 4.8672 -0.41787 -1.57139 0
M  V30 37 O 6.0512 -0.628461 -1.77715 0
M  V30 38 C 3.1782 -1.48818 -3.04255 0
M  V30 39 C 2.2242 -2.68482 -3.31391 0
M  V30 40 S 3.0572 -4.30516 -3.1846 0
M  V30 41 C 4.2132 -4.2522 -4.59281 0
M  V30 42 H 4.4462 -2.5159 -1.58397 0
M  V30 43 H 1.9792 -1.36602 -0.719672 0
M  V30 44 H 3.9372 -1.44958 -3.84054 0
M  V30 45 H 2.5982 -0.552777 -3.09198 0
M  V30 46 H 1.7912 -2.59085 -4.32309 0
M  V30 47 H 1.3932 -2.69567 -2.59248 0
M  V30 48 H 3.6852 -3.94703 -5.5065 0
M  V30 49 H 4.6282 -5.26292 -4.73732 0
M  V30 50 H 5.0362 -3.55791 -4.38261 0
M  V30 51 N 4.4343 0.785586 -1.36625 0
M  V30 52 C 5.3443 1.92964 -1.33425 0
M  V30 53 C 6.3603 1.72394 -0.235851 0
M  V30 54 O 7.5363 1.95866 -0.468878 0
M  V30 55 C 4.6013 3.27884 -1.12662 0
M  V30 56 C 3.6623 3.61204 -2.32013 0
M  V30 57 C 2.8953 4.89687 -2.12231 0
M  V30 58 O 3.1183 5.59704 -1.09945 0
M  V30 59 O 2.0523 5.21752 -3.00098 0
M  V30 60 H 5.8783 1.98613 -2.29753 0
M  V30 61 H 3.4633 0.926384 -1.17211 0
M  V30 62 H 5.3453 4.08614 -1.03016 0
M  V30 63 H 4.0203 3.23118 -0.193991 0
M  V30 64 H 2.9273 2.80765 -2.47228 0
M  V30 65 H 4.2603 3.70698 -3.23796 0
M  V30 66 N 5.9124 1.20967 1.01018 0
M  V30 67 C 6.8594 0.964281 2.09691 0
M  V30 68 C 7.8294 -0.107853 1.65749 0
M  V30 69 O 9.0144 0.0381987 1.90762 0
M  V30 70 C 6.1544 0.52943 3.41015 0
M  V30 71 C 5.2674 1.67043 3.98398 0
M  V30 72 C 4.4024 1.18525 5.17808 0
M  V30 73 C 3.4414 2.29892 5.67288 0
M  V30 74 N 2.5784 1.82546 6.77954 0
M  V30 75 H 7.4184 1.89463 2.30017 0
M  V30 76 H 4.9554 0.944289 1.1279 0
M  V30 77 H 6.9134 0.258588 4.16398 0
M  V30 78 H 5.5434 -0.363919 3.20742 0
M  V30 79 H 4.5954 2.05603 3.20049 0
M  V30 80 H 5.9074 2.50877 4.31117 0
M  V30 81 H 5.0614 0.870762 6.00419 0
M  V30 82 H 3.8004 0.316887 4.86669 0
M  V30 83 H 2.8054 2.6215 4.83278 0
M  V30 84 H 4.0304 3.17216 6.00459 0
M  V30 85 H 1.9764 0.980454 6.48632 0
M  V30 86 H 1.8934 2.59956 7.09901 0
M  V30 87 H 3.1614 1.54115 7.64113 0
M  V30 88 N 7.3905 -1.2043 1.01659 0
M  V30 89 C 8.3005 -2.2689 0.596484 0
M  V30 90 C 9.3165 -1.70107 -0.36599 0
M  V30 91 O 10.4925 -2.00117 -0.226942 0
M  V30 92 C 7.5575 -3.4665 -0.0586659 0
M  V30 93 C 6.6185 -4.18662 0.949751 0
M  V30 94 C 5.8515 -5.32705 0.32577 0
M  V30 95 O 6.0745 -5.63656 -0.874509 0
M  V30 96 O 5.0085 -5.92803 1.04249 0
M  V30 97 H 8.8345 -2.65041 1.4828 0
M  V30 98 H 6.4195 -1.27048 0.786082 0
M  V30 99 H 8.3015 -4.19256 -0.424564 0
M  V30 100 H 6.9765 -3.10375 -0.91918 0
M  V30 101 H 5.8835 -3.48229 1.36702 0
M  V30 102 H 7.2165 -4.58878 1.78023 0
M  V30 103 N 8.8686 -0.792821 -1.36206 0
M  V30 104 C 10.1156 -0.366786 -1.99151 0
M  V30 105 C 10.4436 1.06243 -1.62919 0
M  V30 106 O 9.6986 1.74927 -0.877442 0
M  V30 107 C 9.9976 -0.481501 -3.54142 0
M  V30 108 C 9.6636 -1.87202 -4.10203 0
M  V30 109 C 8.3256 -2.25248 -4.25226 0
M  V30 110 C 10.6776 -2.78237 -4.40719 0
M  V30 111 C 8.0056 -3.53723 -4.68078 0
M  V30 112 C 10.3576 -4.06144 -4.85005 0
M  V30 113 C 9.0216 -4.44207 -4.98234 0
M  V30 114 H 8.2916 -0.134217 -0.728743 0
M  V30 115 H 10.9386 -1.01094 -1.62641 0
M  V30 116 H 9.2436 0.246146 -3.91026 0
M  V30 117 H 10.9406 -0.132844 -4.0078 0
M  V30 118 H 7.5306 -1.56639 -3.98951 0
M  V30 119 H 11.7146 -2.50097 -4.28679 0
M  V30 120 H 6.9706 -3.8308 -4.76508 0
M  V30 121 H 11.1446 -4.76796 -5.07581 0
M  V30 122 H 8.7716 -5.43814 -5.31197 0
M  V30 123 N 10.3467 1.47872 -0.545128 0
M  V30 124 C 11.2567 2.33633 0.212746 0
M  V30 125 C 12.2727 1.4744 0.923983 0
M  V30 126 O 13.4487 1.80393 0.895572 0
M  V30 127 C 10.5137 3.23884 1.23693 0
M  V30 128 C 9.5747 4.25961 0.534417 0
M  V30 129 C 8.8077 5.11899 1.5098 0
M  V30 130 O 9.0307 5.00077 2.7437 0
M  V30 131 O 7.9647 5.92831 1.0409 0
M  V30 132 H 11.7907 2.99714 -0.490416 0
M  V30 133 H 9.3757 1.46235 -0.305871 0
M  V30 134 H 11.2577 3.79666 1.82843 0
M  V30 135 H 9.9327 2.60446 1.92222 0
M  V30 136 H 8.8397 3.73972 -0.0979679 0
M  V30 137 H 10.1727 4.92079 -0.109213 0
M  V30 138 N 11.8248 0.280983 1.55075 0
M  V30 139 C 12.7568 -0.637268 2.20163 0
M  V30 140 C 13.7698 -1.11298 1.18813 0
M  V30 141 O 14.9588 -1.03388 1.4551 0
M  V30 142 C 12.0588 -1.88199 2.81841 0
M  V30 143 C 11.2318 -1.55211 4.08936 0
M  V30 144 C 10.2908 -2.64991 4.54606 0
M  V30 145 O 9.3168 -2.30929 5.2025 0
M  V30 146 N 10.5188 -3.95161 4.25238 0
M  V30 147 H 13.2838 -0.0801694 2.99593 0
M  V30 148 H 10.8448 0.102329 1.61576 0
M  V30 149 H 12.8368 -2.60948 3.09335 0
M  V30 150 H 11.4068 -2.34799 2.06369 0
M  V30 151 H 10.6268 -0.658185 3.88666 0
M  V30 152 H 11.9148 -1.30681 4.91732 0
M  V30 153 H 11.3128 -4.25653 3.72607 0
M  V30 154 H 9.8698 -4.6427 4.5749 0
M  V30 155 N 13.3029 -1.57598 0.00835791 0
M  V30 156 C 14.5519 -1.90107 -0.673968 0
M  V30 157 C 14.8649 -0.884275 -1.7447 0
M  V30 158 O 16.0709 -1.09987 -2.48224 0
M  V30 159 C 14.5269 -3.37497 -1.24995 0
M  V30 160 C 14.1349 -4.47491 -0.2136 0
M  V30 161 C 15.8789 -3.79104 -1.90999 0
M  V30 162 C 13.7859 -5.85963 -0.80005 0
M  V30 163 H 12.7159 -0.709393 -0.255495 0
M  V30 164 H 15.3669 -1.83365 0.0702693 0
M  V30 165 H 13.7489 -3.39102 -2.04513 0
M  V30 166 H 14.9229 -4.57414 0.557596 0
M  V30 167 H 13.2379 -4.14956 0.346474 0
M  V30 168 H 15.8349 -4.79901 -2.35795 0
M  V30 169 H 16.1779 -3.1306 -2.74407 0
M  V30 170 H 16.7109 -3.79833 -1.18203 0
M  V30 171 H 13.4499 -6.555 -0.00456708 0
M  V30 172 H 12.9699 -5.79687 -1.54021 0
M  V30 173 H 14.6489 -6.33884 -1.29615 0
M  V30 174 N 14.781 0.264519 -1.55364 0
M  V30 175 C 16.058 1.01677 -1.67096 0
M  V30 176 C 16.438 2.03996 -0.543015 0
M  V30 177 O 15.786 2.23907 0.45585 0
M  V30 178 C 15.996 1.66596 -3.0667 0
M  V30 179 C 17.344 2.17442 -3.64697 0
M  V30 180 O 18.368 1.76568 -3.09358 0
M  V30 181 O 17.227 2.92439 -4.61673 0
M  V30 182 H 14.321 0.472161 -0.678965 0
M  V30 183 H 16.867 0.259703 -1.67701 0
M  V30 184 H 15.639 0.924962 -3.80211 0
M  V30 185 H 15.262 2.48968 -3.10001 0
M  V30 186 N 16.2591 1.48442 0.529413 0
M  V30 187 C 17.2061 1.63007 1.63394 0
M  V30 188 C 18.1761 0.47212 1.59249 0
M  V30 189 O 19.3611 0.695673 1.77666 0
M  V30 190 C 16.5011 1.6763 3.01653 0
M  V30 191 C 15.6141 2.94535 3.16027 0
M  V30 192 C 14.7491 2.90316 4.44849 0
M  V30 193 C 13.7881 4.11923 4.52754 0
M  V30 194 N 12.9251 4.05777 5.72965 0
M  V30 195 H 17.7651 2.5733 1.50285 0
M  V30 196 H 15.3021 1.27613 0.731656 0
M  V30 197 H 17.2601 1.68292 3.81751 0
M  V30 198 H 15.8901 0.76797 3.13532 0
M  V30 199 H 14.9421 3.03615 2.29177 0
M  V30 200 H 16.2541 3.84512 3.17729 0
M  V30 201 H 15.4081 2.89382 5.33238 0
M  V30 202 H 14.1471 1.98068 4.45668 0
M  V30 203 H 13.1521 4.13131 3.62771 0
M  V30 204 H 14.3771 5.0533 4.53672 0
M  V30 205 H 12.3231 3.16351 5.74681 0
M  V30 206 H 12.2401 4.8946 5.76164 0
M  V30 207 H 13.5081 4.08904 6.6364 0
M  V30 208 N 17.7372 -0.778329 1.37039 0
M  V30 209 C 18.9622 -1.57248 1.35233 0
M  V30 210 C 19.3872 -1.87999 -0.0615568 0
M  V30 211 O 18.7452 -1.48734 -1.03672 0
M  V30 212 C 18.7932 -2.86353 2.19167 0
M  V30 213 O 17.8972 -3.80442 1.59178 0
M  V30 214 H 17.2382 -0.476569 0.462362 0
M  V30 215 H 19.7682 -0.963853 1.80474 0
M  V30 216 H 19.7782 -3.35519 2.32145 0
M  V30 217 H 18.4532 -2.63299 3.21942 0
M  V30 218 H 17.0302 -3.39067 1.55203 0
M  V30 219 N 19.2153 -1.21501 -1.00376 0
M  V30 220 C 20.4633 -1.03095 -1.73827 0
M  V30 221 C 20.7843 0.436341 -1.90055 0
M  V30 222 O 20.0543 1.31466 -1.45236 0
M  V30 223 H 18.6343 -0.378487 -0.644016 0
M  V30 224 H 21.2963 -1.52831 -1.20949 0
M  V30 225 H 20.3923 -1.49991 -2.73695 0
M  V30 226 N 20.6934 1.19889 -1.02296 0
M  V30 227 C 21.9184 1.9393 -0.735237 0
M  V30 228 C 22.3434 1.74639 0.698782 0
M  V30 229 O 21.7014 1.04481 1.48167 0
M  V30 230 C 21.7494 3.43916 -1.08417 0
M  V30 231 O 20.8534 4.11917 -0.199446 0
M  V30 232 H 20.1944 0.605645 -0.272196 0
M  V30 233 H 22.7244 1.52137 -1.36804 0
M  V30 234 H 22.7344 3.9456 -1.03856 0
M  V30 235 H 21.4094 3.5728 -2.12894 0
M  V30 236 H 19.9864 3.71666 -0.303136 0
M  V30 237 N 22.1715 0.800033 1.35784 0
M  V30 238 C 23.4175 0.38701 1.99684 0
M  V30 239 C 23.7725 -1.03268 1.62338 0
M  V30 240 O 23.0655 -1.70543 0.87325 0
M  V30 241 C 23.2595 0.500276 3.53881 0
M  V30 242 C 23.0885 1.92942 4.06206 0
M  V30 243 C 21.8585 2.55637 4.35865 0
M  V30 244 C 24.0565 2.89307 4.25213 0
M  V30 245 N 22.0385 3.9003 4.74078 0
M  V30 246 C 23.4095 4.08556 4.66349 0
M  V30 247 C 25.4645 2.86225 4.07406 0
M  V30 248 C 24.1675 5.25146 4.91543 0
M  V30 249 C 26.1935 4.02011 4.33752 0
M  V30 250 C 25.5555 5.20007 4.75155 0
M  V30 251 H 21.6545 0.189252 0.758754 0
M  V30 252 H 24.2385 1.03988 1.64604 0
M  V30 253 H 22.4095 -0.122568 3.88207 0
M  V30 254 H 24.1415 0.0624733 4.04652 0
M  V30 255 H 20.8965 2.07039 4.25948 0
M  V30 256 H 21.3205 4.59205 4.97454 0
M  V30 257 H 25.9625 1.96154 3.74544 0
M  V30 258 H 23.6805 6.15794 5.23281 0
M  V30 259 H 27.2665 4.00999 4.21534 0
M  V30 260 H 26.1465 6.08113 4.95145 0
M  V30 261 N 23.6496 -1.47581 0.552962 0
M  V30 262 C 24.6126 -2.28439 -0.186605 0
M  V30 263 C 25.6126 -1.36706 -0.84665 0
M  V30 264 O 26.8026 -1.59378 -0.703164 0
M  V30 265 C 23.9346 -3.16264 -1.2724 0
M  V30 266 H 25.1276 -2.95294 0.523609 0
M  V30 267 H 22.6806 -1.532 0.309745 0
M  V30 268 H 23.4156 -2.54091 -2.01514 0
M  V30 269 H 23.2006 -3.83769 -0.803968 0
M  V30 270 H 24.6906 -3.77198 -1.79196 0
M  V30 271 N 25.1277 -0.289203 -1.54924 0
M  V30 272 C 26.0907 0.579144 -2.21762 0
M  V30 273 C 27.0907 1.07047 -1.1999 0
M  V30 274 O 28.2807 0.968384 -1.44803 0
M  V30 275 C 25.4127 1.80055 -2.8947 0
M  V30 276 H 26.6057 -0.00464908 -2.999 0
M  V30 277 H 24.1587 -0.0399306 -1.56249 0
M  V30 278 H 24.8937 2.42449 -2.15381 0
M  V30 279 H 24.6787 1.45602 -3.64064 0
M  V30 280 H 26.1687 2.41773 -3.40493 0
M  V30 281 N 26.6058 1.57591 -0.0167156 0
M  V30 282 C 27.8548 1.90461 0.663877 0
M  V30 283 C 28.1678 0.893515 1.73999 0
M  V30 284 O 29.3738 1.11302 2.47637 0
M  V30 285 C 27.8298 3.38155 1.23204 0
M  V30 286 C 27.4378 4.47597 0.189866 0
M  V30 287 C 29.1818 3.80111 1.88986 0
M  V30 288 C 27.0888 5.86379 0.768964 0
M  V30 289 H 26.0188 0.710738 0.251729 0
M  V30 290 H 28.6698 1.83326 -0.0799926 0
M  V30 291 H 27.0518 3.40182 2.02712 0
M  V30 292 H 28.2258 4.57112 -0.581846 0
M  V30 293 H 26.5408 4.14766 -0.368475 0
M  V30 294 H 29.1378 4.81145 2.33247 0
M  V30 295 H 29.4808 3.14511 2.72743 0
M  V30 296 H 30.0138 3.80454 1.16187 0
M  V30 297 H 26.7528 6.55493 -0.0301957 0
M  V30 298 H 26.2728 5.80496 1.50945 0
M  V30 299 H 27.9518 6.34563 1.26251 0
M  V30 300 N 28.0839 -0.256276 1.55502 0
M  V30 301 C 29.3139 -1.00196 1.80677 0
M  V30 302 C 29.7219 -1.79805 0.588797 0
M  V30 303 O 29.0649 -1.78055 -0.451883 0
M  V30 304 C 29.1269 -1.99515 2.99055 0
M  V30 305 C 28.7909 -1.38688 4.35448 0
M  V30 306 C 29.7879 -0.794079 5.138 0
M  V30 307 C 27.4729 -1.40906 4.82132 0
M  V30 308 C 29.4669 -0.231562 6.36979 0
M  V30 309 C 27.1539 -0.842684 6.05262 0
M  V30 310 C 28.1519 -0.254953 6.82524 0
M  V30 311 O 27.8399 0.3027 8.0333 0
M  V30 312 H 27.5719 -0.300919 0.60533 0
M  V30 313 H 30.1259 -0.287307 2.03381 0
M  V30 314 H 28.3559 -2.74785 2.72084 0
M  V30 315 H 30.0449 -2.60349 3.11405 0
M  V30 316 H 30.8109 -0.769519 4.78856 0
M  V30 317 H 26.6899 -1.85591 4.21992 0
M  V30 318 H 30.2339 0.227816 6.97228 0
M  V30 319 H 26.1309 -0.86454 6.39684 0
M  V30 320 H 26.8989 0.193662 8.18271 0
M  V30 321 N 29.562 -1.4872 -0.521534 0
M  V30 322 C 30.494 -1.59968 -1.64143 0
M  V30 323 C 31.507 -0.483463 -1.55456 0
M  V30 324 O 32.696 -0.75467 -1.61762 0
M  V30 325 C 29.796 -1.52127 -3.02838 0
M  V30 326 C 28.969 -2.78932 -3.36921 0
M  V30 327 C 28.028 -2.64428 -4.54933 0
M  V30 328 O 27.054 -3.38331 -4.57735 0
M  V30 329 N 28.256 -1.74606 -5.53618 0
M  V30 330 H 31.021 -2.56548 -1.54929 0
M  V30 331 H 28.582 -1.45551 -0.708988 0
M  V30 332 H 30.574 -1.40106 -3.79674 0
M  V30 333 H 29.144 -0.634868 -3.06085 0
M  V30 334 H 28.364 -3.05455 -2.4918 0
M  V30 335 H 29.652 -3.63041 -3.56481 0
M  V30 336 H 29.05 -1.13782 -5.54139 0
M  V30 337 H 27.607 -1.6852 -6.29638 0
M  V30 338 N 31.0401 0.771051 -1.3745 0
M  V30 339 C 32.3171 1.519 -1.23231 0
M  V30 340 C 32.6971 2.10383 0.173809 0
M  V30 341 O 32.0451 1.95583 1.18151 0
M  V30 342 C 32.2551 2.59933 -2.32886 0
M  V30 343 C 33.6031 3.27316 -2.70461 0
M  V30 344 O 34.6271 2.70228 -2.32068 0
M  V30 345 O 33.4861 4.30531 -3.36608 0
M  V30 346 H 30.5801 0.672803 -0.480901 0
M  V30 347 H 33.1261 0.807957 -1.49232 0
M  V30 348 H 31.8981 2.14842 -3.27045 0
M  V30 349 H 31.5211 3.38637 -2.08353 0
M  V30 350 N 32.5182 1.22032 0.997298 0
M  V30 351 C 33.7672 1.03637 1.73038 0
M  V30 352 C 34.0802 -0.429475 1.90827 0
M  V30 353 O 35.2862 -0.732995 2.61418 0
M  V30 354 C 33.7422 1.80582 3.11317 0
M  V30 355 C 33.3502 3.31387 3.01474 0
M  V30 356 C 35.0942 1.70621 3.88701 0
M  V30 357 C 33.0012 4.00791 4.3488 0
M  V30 358 H 31.9312 0.384179 0.648785 0
M  V30 359 H 34.5822 1.4584 1.11368 0
M  V30 360 H 32.9642 1.31175 3.73643 0
M  V30 361 H 34.1382 3.88155 2.4834 0
M  V30 362 H 32.4532 3.41976 2.37575 0
M  V30 363 H 35.0502 2.19799 4.87434 0
M  V30 364 H 35.3932 0.665823 4.10941 0
M  V30 365 H 35.9262 2.17547 3.33044 0
M  V30 366 H 32.6652 5.05064 4.1784 0
M  V30 367 H 32.1852 3.48811 4.87945 0
M  V30 368 H 33.8642 4.06139 5.03647 0
M  V30 369 N 33.9963 -1.19345 1.0293 0
M  V30 370 C 35.4123 -1.41069 0.746446 0
M  V30 371 C 35.6123 -1.90078 -0.668776 0
M  V30 372 O 34.6683 -2.0778 -1.4347 0
M  V30 373 C 35.9813 -2.42141 1.78292 0
M  V30 374 C 37.5293 -2.55887 1.80252 0
M  V30 375 C 38.0043 -3.60214 2.8286 0
M  V30 376 N 39.4953 -3.67711 2.81679 0
M  V30 377 C 40.2303 -4.48128 3.57727 0
M  V30 378 N 39.7263 -5.32248 4.43491 0
M  V30 379 N 41.5193 -4.42782 3.46267 0
M  V30 380 H 33.6703 -0.858536 1.94275 0
M  V30 381 H 35.9333 -0.439541 0.839945 0
M  V30 382 H 35.6393 -2.13155 2.79746 0
M  V30 383 H 35.5133 -3.41323 1.60557 0
M  V30 384 H 37.9003 -2.84196 0.794757 0
M  V30 385 H 37.9813 -1.56858 2.02062 0
M  V30 386 H 37.6253 -3.32647 3.83807 0
M  V30 387 H 37.5553 -4.58895 2.58307 0
M  V30 388 H 40.0463 -3.07634 2.19476 0
M  V30 389 H 40.3593 -5.90729 4.98256 0
M  V30 390 H 38.7043 -5.31707 4.47564 0
M  V30 391 H 41.8953 -3.76107 2.78677 0
M  V30 392 H 42.0683 -5.05215 4.05785 0
M  V30 393 N 35.4744 -0.807222 -1.35358 0
M  V30 394 C 36.4244 -0.190706 -2.27201 0
M  V30 395 C 37.4084 0.635838 -1.47804 0
M  V30 396 O 38.6004 0.492991 -1.69996 0
M  V30 397 C 35.7294 0.659337 -3.36909 0
M  V30 398 C 34.8154 -0.176971 -4.23731 0
M  V30 399 N 35.2064 -1.24029 -4.90357 0
M  V30 400 C 33.5044 0.0412953 -4.45981 0
M  V30 401 C 34.2054 -1.75092 -5.54723 0
M  V30 402 N 33.1814 -1.05727 -5.33219 0
M  V30 403 H 36.9834 -1.0043 -2.76208 0
M  V30 404 H 34.4974 -0.648445 -1.48892 0
M  V30 405 H 36.4944 1.11706 -4.01656 0
M  V30 406 H 35.1544 1.47127 -2.89454 0
M  V30 407 H 36.1654 -1.62295 -4.91814 0
M  V30 408 H 32.8424 0.82232 -4.09322 0
M  V30 409 H 34.2324 -2.63963 -6.17878 0
M  V30 410 N 36.9525 1.47285 -0.560781 0
M  V30 411 C 37.8625 2.33846 0.187954 0
M  V30 412 C 38.8785 1.48412 0.908293 0
M  V30 413 O 40.0545 1.81332 0.876388 0
M  V30 414 C 37.1195 3.25178 1.2025 0
M  V30 415 C 36.1805 4.26504 0.489208 0
M  V30 416 C 35.4135 5.13472 1.45542 0
M  V30 417 O 35.6365 5.02959 2.6905 0
M  V30 418 O 34.5705 5.93902 0.977963 0
M  V30 419 H 38.3965 2.99177 -0.522177 0
M  V30 420 H 35.9815 1.45903 -0.321364 0
M  V30 421 H 37.8635 3.81584 1.78805 0
M  V30 422 H 36.5385 2.6247 1.89449 0
M  V30 423 H 35.4455 3.73847 -0.137627 0
M  V30 424 H 36.7785 4.91935 -0.161399 0
M  V30 425 N 38.4306 0.297415 1.54768 0
M  V30 426 C 39.3936 -0.567375 2.22066 0
M  V30 427 C 40.3936 -1.06409 1.20556 0
M  V30 428 O 41.5836 -0.960691 1.45315 0
M  V30 429 C 38.7156 -1.78517 2.90421 0
M  V30 430 H 39.9086 0.0205534 2.99893 0
M  V30 431 H 37.4616 0.0482163 1.56226 0
M  V30 432 H 38.1966 -2.41303 2.16664 0
M  V30 433 H 37.9816 -1.43669 3.64831 0
M  V30 434 H 39.4716 -2.39964 3.41771 0
M  V30 435 N 39.9087 -1.5758 0.0250728 0
M  V30 436 C 41.1337 -1.96337 -0.668317 0
M  V30 437 C 41.5587 -0.901314 -1.651 0
M  V30 438 O 40.9167 0.138187 -1.80773 0
M  V30 439 C 40.9647 -3.34191 -1.35457 0
M  V30 440 O 40.0687 -3.30269 -2.46974 0
M  V30 441 H 39.4097 -0.640281 -0.175887 0
M  V30 442 H 41.9397 -2.0442 0.0857224 0
M  V30 443 H 41.9497 -3.70331 -1.71228 0
M  V30 444 H 40.6247 -4.11036 -0.634218 0
M  V30 445 H 39.2017 -3.05841 -2.13344 0
M  V30 446 N 41.3868 0.248026 -1.55636 0
M  V30 447 C 42.6638 0.998988 -1.68165 0
M  V30 448 C 43.0438 2.03409 -0.564621 0
M  V30 449 O 42.3918 2.24378 0.432076 0
M  V30 450 C 42.6018 1.63334 -3.0842 0
M  V30 451 C 43.9498 2.13562 -3.66983 0
M  V30 452 O 44.9738 1.73277 -3.11213 0
M  V30 453 O 43.8328 2.87526 -4.64749 0
M  V30 454 H 40.9268 0.464933 -0.683935 0
M  V30 455 H 43.4728 0.241902 -1.67967 0
M  V30 456 H 42.2448 0.884583 -3.8117 0
M  V30 457 H 41.8678 2.45666 -3.12624 0
M  V30 458 N 42.8649 1.48995 0.513639 0
M  V30 459 C 44.1119 1.57843 1.26854 0
M  V30 460 C 44.4399 0.259501 1.92761 0
M  V30 461 O 43.6949 -0.75159 1.80692 0
M  V30 462 C 43.9939 2.67756 2.36731 0
M  V30 463 C 43.6599 4.09669 1.88368 0
M  V30 464 C 42.3219 4.48291 1.74896 0
M  V30 465 C 44.6739 4.98537 1.52021 0
M  V30 466 C 42.0019 5.73568 1.23438 0
M  V30 467 C 44.3539 6.24319 1.0202 0
M  V30 468 C 43.0179 6.61783 0.871778 0
M  V30 469 H 42.2879 0.577587 0.464192 0
M  V30 470 H 44.9349 1.82778 0.571366 0
M  V30 471 H 43.2399 2.36743 3.12185 0
M  V30 472 H 44.9369 2.71813 2.9482 0
M  V30 473 H 41.5269 3.79176 1.99808 0
M  V30 474 H 45.7109 4.69363 1.61281 0
M  V30 475 H 40.9669 6.01304 1.10648 0
M  V30 476 H 45.1409 6.92566 0.729722 0
M  V30 477 H 42.7679 7.5874 0.470852 0
M  V30 478 N 44.343 -0.763751 1.37857 0
M  V30 479 C 45.754 -1.3405 1.29952 0
M  V30 480 C 46.105 -1.96138 -0.0492898 0
M  V30 481 O 45.23 -1.94372 -0.951239 0
M  V30 482 C 45.825 -2.43729 2.35333 0
M  V30 483 C 44.384 -2.97151 2.31037 0
M  V30 484 C 43.531 -1.70438 2.18738 0
M  V30 485 H 46.482 -0.563396 1.48363 0
M  V30 486 H 46.503 -3.23412 2.00462 0
M  V30 487 H 46.015 -1.9851 3.33489 0
M  V30 488 H 44.116 -3.46724 1.3643 0
M  V30 489 H 44.229 -3.52221 3.24772 0
M  V30 490 H 42.593 -1.93673 1.65418 0
M  V30 491 H 43.376 -1.27312 3.18821 0
M  V30 492 N 45.8211 -1.22559 -0.990812 0
M  V30 493 C 47.0611 -1.06302 -1.74583 0
M  V30 494 C 47.4251 0.394737 -1.87898 0
M  V30 495 O 48.6261 0.678214 -2.60103 0
M  V30 496 C 46.8971 -1.75699 -3.11231 0
M  V30 497 S 48.4561 -1.74882 -4.02445 0
M  V30 498 H 45.2741 -0.380639 -0.600529 0
M  V30 499 H 47.8761 -1.55532 -1.18449 0
M  V30 500 H 46.5801 -2.80923 -2.99183 0
M  V30 501 H 46.1111 -1.26708 -3.72436 0
M  V30 502 H 48.1261 -0.799997 -4.89709 0
M  V30 503 N 47.2992 1.18797 -1.03562 0
M  V30 504 C 48.7152 1.40671 -0.753917 0
M  V30 505 C 48.9152 1.9043 0.658686 0
M  V30 506 O 47.9712 2.08538 1.42366 0
M  V30 507 C 49.2842 2.41192 -1.79574 0
M  V30 508 C 50.8322 2.54928 -1.81606 0
M  V30 509 C 51.3072 3.58709 -2.84766 0
M  V30 510 N 52.7982 3.66212 -2.83625 0
M  V30 511 C 53.5332 4.46225 -3.60098 0
M  V30 512 N 53.0292 5.29888 -4.46308 0
M  V30 513 N 54.8222 4.40939 -3.4861 0
M  V30 514 H 46.9732 0.848221 -1.94728 0
M  V30 515 H 49.2362 0.435081 -0.842264 0
M  V30 516 H 48.9422 2.11669 -2.80872 0
M  V30 517 H 48.8162 3.40467 -1.62365 0
M  V30 518 H 51.2032 2.83771 -0.809817 0
M  V30 519 H 51.2842 1.55784 -2.02891 0
M  V30 520 H 50.9282 3.30607 -3.85566 0
M  V30 521 H 50.8582 4.57519 -2.60737 0
M  V30 522 H 53.3492 3.06466 -2.21105 0
M  V30 523 H 53.6622 5.88078 -5.01382 0
M  V30 524 H 52.0072 5.29326 -4.50377 0
M  V30 525 H 55.1982 3.74624 -2.80668 0
M  V30 526 H 55.3712 5.03056 -4.08459 0
M  V30 527 N 48.7773 0.814389 1.34928 0
M  V30 528 C 50.0233 0.399013 1.98836 0
M  V30 529 C 50.3563 -1.03314 1.64438 0
M  V30 530 O 49.6313 -1.71811 0.911659 0
M  V30 531 C 49.9143 0.591629 3.55207 0
M  V30 532 C 49.7673 2.06928 3.99376 0
M  V30 533 C 51.0863 0.022199 4.40094 0
M  V30 534 H 48.2053 0.146451 0.722303 0
M  V30 535 H 50.8473 1.02537 1.59957 0
M  V30 536 H 48.9973 0.0584441 3.88456 0
M  V30 537 H 50.6693 2.66544 3.76499 0
M  V30 538 H 48.9123 2.56287 3.49999 0
M  V30 539 H 49.5833 2.1549 5.08201 0
M  V30 540 H 52.0593 0.477643 4.13349 0
M  V30 541 H 50.9353 0.186832 5.48582 0
M  V30 542 H 51.1963 -1.07215 4.28902 0
M  V30 543 N 50.2554 -1.46986 0.568584 0
M  V30 544 C 51.2184 -2.28624 -0.162366 0
M  V30 545 C 52.2184 -1.37596 -0.832103 0
M  V30 546 O 53.4084 -1.60115 -0.68622 0
M  V30 547 C 50.5404 -3.17596 -1.23878 0
M  V30 548 H 51.7334 -2.94722 0.554899 0
M  V30 549 H 49.2864 -1.52863 0.325976 0
M  V30 550 H 50.0214 -2.56214 -1.98808 0
M  V30 551 H 49.8064 -3.846 -0.763219 0
M  V30 552 H 51.2964 -3.79078 -1.75185 0
M  V30 553 N 51.7335 -0.305618 -1.54608 0
M  V30 554 C 52.6805 0.568421 -2.23691 0
M  V30 555 C 53.6505 1.12592 -1.22116 0
M  V30 556 O 54.8355 1.16959 -1.50749 0
M  V30 557 C 51.9755 1.7322 -2.98477 0
M  V30 558 C 51.0885 1.20566 -4.14835 0
M  V30 559 C 50.2235 2.33368 -4.77193 0
M  V30 560 C 49.2625 1.7787 -5.85686 0
M  V30 561 N 48.3995 2.84263 -6.4198 0
M  V30 562 H 53.2395 -0.0272867 -2.97988 0
M  V30 563 H 50.7765 -0.0252363 -1.47078 0
M  V30 564 H 52.7345 2.41675 -3.40072 0
M  V30 565 H 51.3645 2.29947 -2.26548 0
M  V30 566 H 50.4165 0.413223 -3.78149 0
M  V30 567 H 51.7285 0.759417 -4.92985 0
M  V30 568 H 50.8825 3.09761 -5.21664 0
M  V30 569 H 49.6215 2.8132 -3.98385 0
M  V30 570 H 48.6265 0.99968 -5.40635 0
M  V30 571 H 49.8515 1.30816 -6.66381 0
M  V30 572 H 47.7975 3.31541 -5.66053 0
M  V30 573 H 47.7145 2.44149 -7.15491 0
M  V30 574 H 48.9825 3.6054 -6.91109 0
M  V30 575 N 53.2116 1.57565 -0.0334293 0
M  V30 576 C 54.1416 2.13511 0.945265 0
M  V30 577 C 55.1226 1.05231 1.33643 0
M  V30 578 O 56.3076 1.33084 1.41429 0
M  V30 579 C 53.4376 2.6657 2.22616 0
M  V30 580 C 52.3916 3.79676 1.97561 0
M  V30 581 C 51.7176 4.1918 3.31952 0
M  V30 582 C 53.0176 5.0557 1.31135 0
M  V30 583 H 54.7116 2.95538 0.479325 0
M  V30 584 H 52.2576 1.42166 0.229115 0
M  V30 585 H 54.2106 3.04344 2.91466 0
M  V30 586 H 52.9346 1.8171 2.71384 0
M  V30 587 H 51.5936 3.42347 1.31127 0
M  V30 588 H 51.2416 3.31296 3.78487 0
M  V30 589 H 50.9416 4.95402 3.15992 0
M  V30 590 H 52.4656 4.59541 4.02063 0
M  V30 591 H 53.8796 5.40903 1.89992 0
M  V30 592 H 52.2766 5.86818 1.25559 0
M  V30 593 H 53.3466 4.84062 0.284894 0
M  V30 594 N 54.6897 -0.239769 1.55765 0
M  V30 595 C 56.1007 -0.808263 1.68297 0
M  V30 596 C 56.4517 -1.85736 0.632181 0
M  V30 597 O 55.5767 -2.15277 -0.220204 0
M  V30 598 C 56.1717 -1.47284 3.05111 0
M  V30 599 C 54.7307 -1.98895 3.19559 0
M  V30 600 C 53.8777 -0.842575 2.64189 0
M  V30 601 H 56.8287 -0.0154422 1.58692 0
M  V30 602 H 56.8497 -2.34111 2.99954 0
M  V30 603 H 56.3617 -0.709053 3.81568 0
M  V30 604 H 54.4627 -2.78132 2.47938 0
M  V30 605 H 54.5757 -2.18143 4.26556 0
M  V30 606 H 52.9397 -1.24501 2.22197 0
M  V30 607 H 53.7227 -0.0917552 3.43177 0
M  V30 608 N 56.1678 -1.49265 -0.50573 0
M  V30 609 C 57.1148 -1.65585 -1.6078 0
M  V30 610 C 58.0848 -0.497396 -1.58478 0
M  V30 611 O 59.2698 -0.72385 -1.76536 0
M  V30 612 C 56.4098 -1.72408 -2.98948 0
M  V30 613 C 55.5228 -2.99525 -3.11301 0
M  V30 614 C 54.6578 -2.97356 -4.40174 0
M  V30 615 C 53.6968 -4.19074 -4.46143 0
M  V30 616 N 52.8338 -4.14841 -5.66437 0
M  V30 617 H 57.6738 -2.59688 -1.46172 0
M  V30 618 H 55.2108 -1.28761 -0.711261 0
M  V30 619 H 57.1688 -1.74344 -3.79025 0
M  V30 620 H 55.7988 -0.817753 -3.1227 0
M  V30 621 H 54.8508 -3.07222 -2.24318 0
M  V30 622 H 56.1628 -3.89518 -3.11572 0
M  V30 623 H 55.3168 -2.97829 -5.28567 0
M  V30 624 H 54.0558 -2.05133 -4.42461 0
M  V30 625 H 53.0608 -4.1885 -3.56153 0
M  V30 626 H 54.2858 -5.12483 -4.45575 0
M  V30 627 H 52.2318 -3.25453 -5.69575 0
M  V30 628 H 52.1488 -4.98564 -5.68304 0
M  V30 629 H 53.4168 -4.1941 -6.57051 0
M  V30 630 N 57.6459 0.756429 -1.3826 0
M  V30 631 C 58.5939 1.89149 -1.35372 0
M  V30 632 C 59.5879 1.67691 -0.24004 0
M  V30 633 O 60.7939 1.75294 -0.408919 0
M  V30 634 H 57.1689 0.622271 -0.422236 0
M  V30 635 H 59.1399 1.88701 -2.31159 0
M  V30 636 C 57.8889 3.26599 -1.19284 0
M  V30 637 H 57.2119 3.43695 -2.0424 0
M  V30 638 H 58.6519 4.06274 -1.21316 0
M  V30 639 C 57.1109 3.3675 0.100454 0
M  V30 640 O 57.6409 3.86951 1.07851 0
M  V30 641 N 55.8469 2.90179 0.15633 0
M  V30 642 H 55.3939 2.49517 -0.640253 0
M  V30 643 H 55.3519 2.97352 1.02123 0
M  V30 644 N 59.124 1.23083 0.984299 0
M  V30 645 C 60.071 1.00854 2.07598 0
M  V30 646 C 61.041 -0.0726709 1.65941 0
M  V30 647 O 62.226 0.0786535 1.90638 0
M  V30 648 C 59.366 0.601645 3.39815 0
M  V30 649 C 58.479 1.75456 3.94765 0
M  V30 650 C 57.614 1.29482 5.15177 0
M  V30 651 C 56.653 2.41873 5.62284 0
M  V30 652 N 55.79 1.96885 6.73929 0
M  V30 653 H 60.63 1.943 2.25946 0
M  V30 654 H 58.167 0.968001 1.10762 0
M  V30 655 H 60.125 0.346854 4.15756 0
M  V30 656 H 58.755 -0.295803 3.21442 0
M  V30 657 H 57.807 2.12346 3.15616 0
M  V30 658 H 59.119 2.59965 4.25699 0
M  V30 659 H 58.273 0.997923 5.98437 0
M  V30 660 H 57.012 0.420046 4.85888 0
M  V30 661 H 56.017 2.72342 4.77608 0
M  V30 662 H 57.242 3.29881 5.93595 0
M  V30 663 H 55.188 1.11782 6.46406 0
M  V30 664 H 55.105 2.74956 7.04227 0
M  V30 665 H 56.373 1.70289 7.60672 0
M  V30 666 N 60.6021 -1.18246 1.0419 0
M  V30 667 C 61.5501 -2.23968 0.627792 0
M  V30 668 C 62.5441 -1.65828 -0.346019 0
M  V30 669 O 63.7501 -1.78733 -0.213175 0
M  V30 670 H 60.1251 -0.728939 0.184802 0
M  V30 671 H 62.0961 -2.56202 1.52981 0
M  V30 672 C 60.8451 -3.47699 0.00796591 0
M  V30 673 H 60.1681 -3.92734 0.748347 0
M  V30 674 H 61.6081 -4.23294 -0.24455 0
M  V30 675 C 60.0671 -3.13153 -1.24246 0
M  V30 676 O 60.5971 -3.27003 -2.33307 0
M  V30 677 N 58.8031 -2.67467 -1.13622 0
M  V30 678 H 58.3501 -2.56396 -0.248734 0
M  V30 679 H 58.3081 -2.44724 -1.97377 0
M  V30 680 N 62.0802 -0.821533 -1.34494 0
M  V30 681 C 63.4962 -0.507117 -1.51329 0
M  V30 682 C 63.6962 0.968964 -1.76673 0
M  V30 683 O 62.7522 1.75348 -1.81685 0
M  V30 684 C 64.0652 -1.36544 -2.67911 0
M  V30 685 C 65.6132 -1.36242 -2.81793 0
M  V30 686 C 66.0882 -2.2052 -4.01416 0
M  V30 687 N 67.5792 -2.18136 -4.08621 0
M  V30 688 C 68.3142 -2.80095 -5.00334 0
M  V30 689 N 67.8102 -3.51039 -5.9728 0
M  V30 690 N 69.6032 -2.69656 -4.93196 0
M  V30 691 H 61.7542 -1.77729 -1.16302 0
M  V30 692 H 64.0172 -0.757291 -0.570276 0
M  V30 693 H 63.7232 -2.41361 -2.55808 0
M  V30 694 H 63.5972 -1.02917 -3.62888 0
M  V30 695 H 65.9842 -0.322041 -2.93338 0
M  V30 696 H 66.0652 -1.73866 -1.87628 0
M  V30 697 H 65.7092 -3.24607 -3.90631 0
M  V30 698 H 65.6392 -1.80247 -4.94791 0
M  V30 699 H 68.1302 -1.6653 -3.39229 0
M  V30 700 H 68.4432 -3.95565 -6.63889 0
M  V30 701 H 66.7882 -3.55145 -5.97409 0
M  V30 702 H 69.9792 -2.13808 -4.16418 0
M  V30 703 H 70.1522 -3.1823 -5.64476 0
M  V30 704 N 63.5583 1.46682 -0.576371 0
M  V30 705 C 64.5063 2.31953 0.17335 0
M  V30 706 C 65.5003 1.44098 0.89062 0
M  V30 707 O 66.7063 1.60759 0.809728 0
M  V30 708 H 63.0813 0.748273 0.0747727 0
M  V30 709 H 65.0523 2.93007 -0.564738 0
M  V30 710 C 63.8013 3.27142 1.17786 0
M  V30 711 H 63.1243 3.94719 0.635361 0
M  V30 712 H 64.5643 3.896 1.67296 0
M  V30 713 C 63.0233 2.52036 2.23561 0
M  V30 714 O 63.5533 2.27877 3.3081 0
M  V30 715 N 61.7593 2.12709 1.97998 0
M  V30 716 H 61.3063 2.32557 1.10792 0
M  V30 717 H 61.2643 1.62776 2.68982 0
M  V30 718 N 65.0364 0.313813 1.54444 0
M  V30 719 C 66.4524 -0.0391619 1.59552 0
M  V30 720 C 66.6524 -1.51322 1.33056 0
M  V30 721 O 65.7084 -2.26782 1.11022 0
M  V30 722 C 67.0214 0.370302 2.98411 0
M  V30 723 C 68.5694 0.320139 3.11358 0
M  V30 724 C 69.0444 0.704617 4.52547 0
M  V30 725 N 70.5354 0.657645 4.58508 0
M  V30 726 C 71.2704 0.927453 5.6585 0
M  V30 727 N 70.7664 1.26389 6.81174 0
M  V30 728 N 72.5594 0.853662 5.5558 0
M  V30 729 H 64.7104 1.27433 1.69925 0
M  V30 730 H 66.9734 0.517511 0.794284 0
M  V30 731 H 66.6794 1.39694 3.22767 0
M  V30 732 H 66.5534 -0.269619 3.76235 0
M  V30 733 H 68.9404 -0.697275 2.86744 0
M  V30 734 H 69.0214 0.99486 2.35661 0
M  V30 735 H 68.6654 1.7199 4.77893 0
M  V30 736 H 68.5954 0.00768843 5.26599 0
M  V30 737 H 71.0864 0.409067 3.75679 0
M  V30 738 H 71.3994 1.4554 7.58972 0
M  V30 739 H 69.7444 1.30206 6.82694 0
M  V30 740 H 72.9354 0.590383 4.64362 0
M  V30 741 H 73.1084 1.0673 6.3915 0
M  V30 742 N 66.5145 -1.57545 0.0417849 0
M  V30 743 C 67.7445 -1.96339 -0.642995 0
M  V30 744 C 68.1525 -0.917536 -1.65463 0
M  V30 745 O 67.4955 0.107747 -1.83384 0
M  V30 746 C 67.5575 -3.31333 -1.39494 0
M  V30 747 C 67.2215 -4.53796 -0.540204 0
M  V30 748 C 68.2185 -5.19553 0.189806 0
M  V30 749 C 65.9035 -5.0006 -0.473886 0
M  V30 750 C 67.8975 -6.29904 0.974674 0
M  V30 751 C 65.5845 -6.10289 0.314677 0
M  V30 752 C 66.5825 -6.75072 1.03765 0
M  V30 753 O 66.2705 -7.83183 1.81327 0
M  V30 754 H 66.0025 -0.651241 -0.181277 0
M  V30 755 H 68.5565 -2.05148 0.101665 0
M  V30 756 H 66.7865 -3.19052 -2.18502 0
M  V30 757 H 68.4755 -3.54942 -1.96904 0
M  V30 758 H 69.2415 -4.84774 0.147981 0
M  V30 759 H 65.1205 -4.49433 -1.0262 0
M  V30 760 H 68.6645 -6.80401 1.5395 0
M  V30 761 H 64.5615 -6.44506 0.358174 0
M  V30 762 H 65.3295 -7.99913 1.73438 0
M  V30 763 N 67.9926 0.231505 -1.5589 0
M  V30 764 C 69.4086 0.580748 -1.48659 0
M  V30 765 C 69.6086 1.87617 -0.73498 0
M  V30 766 O 68.6646 2.51046 -0.270586 0
M  V30 767 C 69.9776 0.669202 -2.93159 0
M  V30 768 C 71.5256 0.760499 -3.03621 0
M  V30 769 C 72.0006 0.880383 -4.49459 0
M  V30 770 N 73.4916 0.944861 -4.53461 0
M  V30 771 C 74.2266 1.05716 -5.63571 0
M  V30 772 N 73.7226 1.13403 -6.83456 0
M  V30 773 N 75.5156 1.09152 -5.514 0
M  V30 774 H 67.6666 -0.618695 -2.03189 0
M  V30 775 H 69.9296 -0.215728 -0.923128 0
M  V30 776 H 69.6356 -0.212904 -3.51055 0
M  V30 777 H 69.5096 1.5361 -3.44505 0
M  V30 778 H 71.8966 1.63305 -2.45796 0
M  V30 779 H 71.9776 -0.131864 -2.5546 0
M  V30 780 H 71.6216 0.0123284 -5.07899 0
M  V30 781 H 71.5516 1.78802 -4.95316 0
M  V30 782 H 74.0426 0.896176 -3.6712 0
M  V30 783 H 74.3556 1.21921 -7.63122 0
M  V30 784 H 72.7006 1.10333 -6.86186 0
M  V30 785 H 75.8916 1.02805 -4.56671 0
M  V30 786 H 76.0646 1.17558 -6.37247 0
M  V30 787 N 69.4707 1.49531 0.497807 0
M  V30 788 C 70.7477 1.49682 1.25915 0
M  V30 789 C 71.1277 0.226339 2.09883 0
M  V30 790 O 70.4757 -0.791189 2.14365 0
M  V30 791 C 70.6857 2.77755 2.11313 0
M  V30 792 C 72.0337 3.27371 2.70395 0
M  V30 793 O 73.0577 2.78894 2.21578 0
M  V30 794 O 71.9167 4.11808 3.59272 0
M  V30 795 H 69.0107 0.599228 0.56996 0
M  V30 796 H 71.5567 1.61798 0.511816 0
M  V30 797 H 70.3287 3.61713 1.49264 0
M  V30 798 H 69.9517 2.68515 2.93233 0
M  V30 799 N 70.9488 -0.749086 1.3866 0
M  V30 800 C 72.1948 -1.51056 1.35314 0
M  V30 801 C 72.5278 -1.94121 -0.0553751 0
M  V30 802 O 71.8028 -1.65763 -1.01749 0
M  V30 803 C 72.0858 -2.76003 2.31288 0
M  V30 804 C 71.9388 -2.39047 3.8102 0
M  V30 805 C 73.2578 -3.78046 2.2532 0
M  V30 806 H 70.3768 -0.547972 0.492844 0
M  V30 807 H 73.0188 -0.857628 1.69543 0
M  V30 808 H 71.1688 -3.31716 2.02229 0
M  V30 809 H 72.8408 -1.89074 4.20771 0
M  V30 810 H 71.0838 -1.71449 3.98482 0
M  V30 811 H 71.7548 -3.28462 4.4364 0
M  V30 812 H 74.2308 -3.31884 2.50983 0
M  V30 813 H 73.1068 -4.63159 2.94576 0
M  V30 814 H 73.3678 -4.23957 1.25352 0
M  V30 815 N 72.4269 -1.23603 -0.977757 0
M  V30 816 C 73.6519 -1.09735 -1.75991 0
M  V30 817 C 74.0769 0.346858 -1.84874 0
M  V30 818 O 73.4349 1.25093 -1.3123 0
M  V30 819 C 73.4829 -1.73051 -3.16363 0
M  V30 820 O 72.5869 -0.994452 -4.0023 0
M  V30 821 H 71.9279 -0.384476 -0.541364 0
M  V30 822 H 74.4579 -1.6371 -1.2272 0
M  V30 823 H 74.4679 -1.78398 -3.66931 0
M  V30 824 H 73.1429 -2.78137 -3.09213 0
M  V30 825 H 71.7199 -1.01812 -3.58732 0
M  V30 826 N 73.905 1.17692 -1.04816 0
M  V30 827 C 75.316 1.69501 -0.782698 0
M  V30 828 C 75.667 1.83456 0.695577 0
M  V30 829 O 74.792 1.51942 1.54086 0
M  V30 830 C 75.387 3.07874 -1.41419 0
M  V30 831 C 73.946 3.56864 -1.19686 0
M  V30 832 C 73.093 2.3322 -1.50012 0
M  V30 833 H 76.044 1.02262 -1.2136 0
M  V30 834 H 76.065 3.71528 -0.821428 0
M  V30 835 H 75.577 2.97685 -2.49009 0
M  V30 836 H 73.678 3.72337 -0.140043 0
M  V30 837 H 73.791 4.39851 -1.89916 0
M  V30 838 H 72.155 2.37501 -0.920071 0
M  V30 839 H 72.938 2.25644 -2.58727 0
M  V30 840 N 75.3831 0.828654 1.34056 0
M  V30 841 C 76.6301 0.419458 1.98108 0
M  V30 842 C 76.9581 -1.01886 1.65679 0
M  V30 843 O 76.2131 -1.72539 0.923512 0
M  V30 844 C 76.5121 0.575226 3.52741 0
M  V30 845 C 76.1781 1.98012 4.05095 0
M  V30 846 C 74.8401 2.36442 4.19104 0
M  V30 847 C 77.1921 2.89824 4.33188 0
M  V30 848 C 74.5201 3.66009 4.58535 0
M  V30 849 C 76.8721 4.1886 4.74066 0
M  V30 850 C 75.5361 4.5726 4.86281 0
M  V30 851 H 74.8061 0.153491 0.724929 0
M  V30 852 H 77.4531 1.05371 1.59904 0
M  V30 853 H 75.7581 -0.142385 3.91541 0
M  V30 854 H 77.4551 0.239057 4.00287 0
M  V30 855 H 74.0451 1.67162 3.94658 0
M  V30 856 H 78.2291 2.61375 4.21897 0
M  V30 857 H 73.4851 3.95579 4.66184 0
M  V30 858 H 77.6591 4.90086 4.94761 0
M  V30 859 H 75.2861 5.57707 5.16592 0
M  V30 860 N 76.8612 -1.46375 0.584142 0
M  V30 861 C 78.1382 -1.956 0.0033388 0
M  V30 862 C 78.5182 -1.52679 -1.45782 0
M  V30 863 O 77.8662 -0.77816 -2.14842 0
M  V30 864 C 78.0762 -3.48551 0.176891 0
M  V30 865 C 79.4242 -4.24576 0.0454609 0
M  V30 866 O 80.4482 -3.56043 0.105801 0
M  V30 867 O 79.3072 -5.46427 -0.0890376 0
M  V30 868 H 76.4012 -0.825547 -0.0490066 0
M  V30 869 H 78.9472 -1.56652 0.65256 0
M  V30 870 H 77.7192 -3.72683 1.1926 0
M  V30 871 H 77.3422 -3.94332 -0.508695 0
M  V30 872 N 78.3393 -0.321999 -1.54275 0
M  V30 873 C 79.2893 0.560185 -2.21011 0
M  V30 874 C 80.2733 1.08283 -1.19011 0
M  V30 875 O 81.4653 1.02011 -1.44647 0
M  V30 876 C 78.5943 1.72137 -2.97025 0
M  V30 877 C 77.6803 1.21369 -4.06363 0
M  V30 878 N 78.0713 0.425566 -5.04007 0
M  V30 879 C 76.3693 1.49255 -4.20284 0
M  V30 880 C 77.0703 0.152601 -5.815 0
M  V30 881 N 76.0463 0.738294 -5.38563 0
M  V30 882 H 79.8483 -0.049265 -2.93859 0
M  V30 883 H 77.3623 -0.127779 -1.61897 0
M  V30 884 H 79.3593 2.36512 -3.43319 0
M  V30 885 H 78.0193 2.33431 -2.25699 0
M  V30 886 H 79.0303 0.068551 -5.17855 0
M  V30 887 H 75.7073 2.11145 -3.60172 0
M  V30 888 H 77.0973 -0.481764 -6.70171 0
M  V30 889 N 79.8174 1.5752 -0.0501392 0
M  V30 890 C 81.0424 1.97376 0.636997 0
M  V30 891 C 81.4674 0.927466 1.63645 0
M  V30 892 O 80.8254 -0.10941 1.8097 0
M  V30 893 C 80.8734 3.36304 1.30123 0
M  V30 894 O 79.9774 3.34156 2.41689 0
M  V30 895 H 79.3184 0.642998 0.165679 0
M  V30 896 H 81.8484 2.04258 -0.118233 0
M  V30 897 H 81.8584 3.73008 1.65315 0
M  V30 898 H 80.5334 4.11993 0.568746 0
M  V30 899 H 79.1104 3.09196 2.08451 0
M  V30 900 N 81.2955 -0.223234 1.56011 0
M  V30 901 C 82.7115 -0.572856 1.48965 0
M  V30 902 C 82.9115 -1.87225 0.74492 0
M  V30 903 O 81.9675 -2.50899 0.283896 0
M  V30 904 C 83.2805 -0.653646 2.9351 0
M  V30 905 C 84.8285 -0.744386 3.0402 0
M  V30 906 C 85.3035 -0.856535 4.49919 0
M  V30 907 N 86.7945 -0.9208 4.53955 0
M  V30 908 C 87.5295 -1.02726 5.64123 0
M  V30 909 N 87.0255 -1.09777 6.84047 0
M  V30 910 N 88.8185 -1.06226 5.51971 0
M  V30 911 H 80.9695 0.629462 2.02858 0
M  V30 912 H 83.2325 0.220621 0.921971 0
M  V30 913 H 82.9385 0.231518 3.50937 0
M  V30 914 H 82.8125 -1.51781 3.45315 0
M  V30 915 H 85.1995 -1.61999 2.46658 0
M  V30 916 H 85.2805 0.14541 2.55386 0
M  V30 917 H 84.9245 0.0146069 5.07898 0
M  V30 918 H 84.8545 -1.76172 4.96257 0
M  V30 919 H 87.3455 -0.876694 3.6759 0
M  V30 920 H 87.6585 -1.17872 7.63758 0
M  V30 921 H 86.0035 -1.06693 6.86762 0
M  V30 922 H 89.1945 -1.00382 4.5721 0
M  V30 923 H 89.3675 -1.14177 6.37862 0
M  V30 924 N 82.7736 -1.49793 -0.48987 0
M  V30 925 C 84.0226 -1.59085 -1.23995 0
M  V30 926 C 84.3356 -0.287907 -1.9347 0
M  V30 927 O 85.5416 -0.259506 -2.70257 0
M  V30 928 C 83.9976 -2.80736 -2.252 0
M  V30 929 C 83.6056 -4.17833 -1.61614 0
M  V30 930 C 85.3496 -2.99364 -3.00967 0
M  V30 931 C 83.2566 -5.30693 -2.60996 0
M  V30 932 H 82.1866 -0.592372 -0.466488 0
M  V30 933 H 84.8376 -1.76197 -0.51252 0
M  V30 934 H 83.2196 -2.57142 -3.01154 0
M  V30 935 H 84.3936 -4.51608 -0.915774 0
M  V30 936 H 82.7086 -4.04656 -0.981977 0
M  V30 937 H 85.3056 -3.80851 -3.75308 0
M  V30 938 H 85.6486 -2.10356 -3.59244 0
M  V30 939 H 86.1816 -3.2305 -2.32128 0
M  V30 940 H 82.9206 -6.21796 -2.07485 0
M  V30 941 H 82.4406 -5.01359 -3.2924 0
M  V30 942 H 84.1196 -5.6049 -3.23202 0
M  V30 943 N 84.2517 0.741722 -1.39055 0
M  V30 944 C 85.1987 1.85566 -1.37237 0
M  V30 945 C 86.1687 1.64457 -0.233072 0
M  V30 946 O 87.3537 1.85957 -0.427147 0
M  V30 947 C 84.4937 3.23004 -1.215 0
M  V30 948 C 83.6067 3.55864 -2.44918 0
M  V30 949 C 82.7417 4.82669 -2.21821 0
M  V30 950 C 81.7807 5.08351 -3.40948 0
M  V30 951 N 80.9177 6.26356 -3.17211 0
M  V30 952 H 85.7577 1.86455 -2.32462 0
M  V30 953 H 83.2947 0.911176 -1.15482 0
M  V30 954 H 85.2527 4.02331 -1.10389 0
M  V30 955 H 83.8827 3.21411 -0.29908 0
M  V30 956 H 82.9347 2.7129 -2.66657 0
M  V30 957 H 84.2467 3.70765 -3.33668 0
M  V30 958 H 83.4007 5.69962 -2.07914 0
M  V30 959 H 82.1397 4.69929 -1.30454 0
M  V30 960 H 81.1447 4.19522 -3.55361 0
M  V30 961 H 82.3697 5.22981 -4.33207 0
M  V30 962 H 80.3157 6.14917 -2.28502 0
M  V30 963 H 80.2327 6.41813 -3.99515 0
M  V30 964 H 81.5007 7.16506 -3.06984 0
M  V30 965 N 85.7298 1.2412 0.971189 0
M  V30 966 C 86.6598 1.05508 2.08304 0
M  V30 967 C 87.6408 -0.0308864 1.70072 0
M  V30 968 O 88.8258 0.135521 1.93727 0
M  V30 969 C 85.9558 0.655365 3.4106 0
M  V30 970 C 84.9098 1.68971 3.93234 0
M  V30 971 C 84.2358 1.14516 5.22293 0
M  V30 972 C 85.5358 3.08487 4.21465 0
M  V30 973 H 87.2298 1.98507 2.24132 0
M  V30 974 H 84.7758 0.955821 1.07704 0
M  V30 975 H 86.7288 0.51217 4.18276 0
M  V30 976 H 85.4528 -0.31032 3.25122 0
M  V30 977 H 84.1118 1.82106 3.18171 0
M  V30 978 H 83.7598 0.170189 5.02712 0
M  V30 979 H 83.4598 1.83635 5.58168 0
M  V30 980 H 84.9838 1.01401 6.02121 0
M  V30 981 H 86.3978 2.98601 4.89398 0
M  V30 982 H 84.7948 3.74926 4.68562 0
M  V30 983 H 85.8648 3.56787 3.28376 0
M  V30 984 N 87.2079 -1.17134 1.05439 0
M  V30 985 C 88.1579 -2.1919 0.627675 0
M  V30 986 C 89.1419 -1.57328 -0.337147 0
M  V30 987 O 90.3339 -1.76329 -0.153976 0
M  V30 988 C 87.4629 -3.43299 0.00651435 0
M  V30 989 C 86.5489 -4.12255 0.995312 0
M  V30 990 N 86.9399 -4.56997 2.16765 0
M  V30 991 C 85.2379 -4.38316 0.824336 0
M  V30 992 C 85.9389 -5.10239 2.7934 0
M  V30 993 N 84.9149 -5.02595 2.07122 0
M  V30 994 H 88.7169 -2.5149 1.52086 0
M  V30 995 H 86.2309 -1.33491 0.924868 0
M  V30 996 H 88.2279 -4.15693 -0.316965 0
M  V30 997 H 86.8879 -3.1249 -0.882033 0
M  V30 998 H 87.8989 -4.51006 2.54587 0
M  V30 999 H 84.5759 -4.17498 -0.0129526 0
M  V30 1000 H 85.9659 -5.54961 3.78772 0
M  V30 1001 N 88.686 -0.835752 -1.33615 0
M  V30 1002 C 89.618 -0.224151 -2.28101 0
M  V30 1003 C 90.631 0.593331 -1.51603 0
M  V30 1004 O 91.82 0.420911 -1.73466 0
M  V30 1005 C 88.92 0.703309 -3.31522 0
M  V30 1006 C 88.093 -0.0741528 -4.37337 0
M  V30 1007 C 87.152 0.776176 -5.20444 0
M  V30 1008 O 86.178 0.216506 -5.68788 0
M  V30 1009 N 87.38 2.09401 -5.41416 0
M  V30 1010 H 90.145 -1.03598 -2.81225 0
M  V30 1011 H 87.706 -0.69392 -1.46275 0
M  V30 1012 H 89.698 1.27707 -3.84022 0
M  V30 1013 H 88.268 1.41585 -2.78698 0
M  V30 1014 H 87.488 -0.82928 -3.85378 0
M  V30 1015 H 88.776 -0.608863 -5.05144 0
M  V30 1016 H 88.174 2.57229 -5.03835 0
M  V30 1017 H 86.731 2.61633 -5.96985 0
M  V30 1018 N 90.1641 1.46063 -0.591896 0
M  V30 1019 C 91.0741 2.34192 0.13831 0
M  V30 1020 C 92.0901 1.50305 0.876608 0
M  V30 1021 O 93.2661 1.8315 0.837728 0
M  V30 1022 C 90.3311 3.27656 1.13326 0
M  V30 1023 C 89.3921 4.27445 0.39863 0
M  V30 1024 C 88.6251 5.16443 1.34618 0
M  V30 1025 O 88.8481 5.08553 2.58321 0
M  V30 1026 O 87.7821 5.95843 0.851768 0
M  V30 1027 H 91.6081 2.98002 -0.58552 0
M  V30 1028 H 89.1931 1.45188 -0.352239 0
M  V30 1029 H 91.0751 3.85291 1.70671 0
M  V30 1030 H 89.7501 2.6643 1.83839 0
M  V30 1031 H 88.6571 3.73471 -0.216895 0
M  V30 1032 H 89.9901 4.91482 -0.265709 0
M  V30 1033 N 91.6422 0.330177 1.54103 0
M  V30 1034 C 92.9192 -0.325007 1.92881 0
M  V30 1035 C 93.2992 -1.6934 1.26045 0
M  V30 1036 O 92.6472 -2.24855 0.406526 0
M  V30 1037 C 92.8572 -0.410634 3.46576 0
M  V30 1038 C 94.2052 -0.667801 4.19316 0
M  V30 1039 O 95.2292 -0.49329 3.52768 0
M  V30 1040 O 94.0882 -1.00491 5.37181 0
M  V30 1041 H 91.1822 -0.186873 0.80561 0
M  V30 1042 H 93.7282 0.380376 1.65382 0
M  V30 1043 H 92.5002 0.550164 3.87413 0
M  V30 1044 H 92.1232 -1.16333 3.802 0
M  V30 1045 N 93.1203 -1.57491 0.0584922 0
M  V30 1046 C 94.0683 -2.13148 -0.931168 0
M  V30 1047 C 95.0623 -1.06507 -1.31729 0
M  V30 1048 O 96.2683 -1.24906 -1.29609 0
M  V30 1049 H 92.6433 -0.68137 -0.31818 0
M  V30 1050 H 94.6143 -2.95187 -0.436707 0
M  V30 1051 C 93.3633 -2.69732 -2.19408 0
M  V30 1052 H 92.6863 -3.51454 -1.90578 0
M  V30 1053 H 94.1263 -3.12287 -2.86798 0
M  V30 1054 C 92.5853 -1.63855 -2.94369 0
M  V30 1055 O 93.1153 -1.05565 -3.87581 0
M  V30 1056 N 91.3213 -1.35202 -2.57233 0
M  V30 1057 H 90.8683 -1.82791 -1.81508 0
M  V30 1058 H 90.8263 -0.645922 -3.07693 0
M  V30 1059 N 94.5984 0.214957 -1.56127 0
M  V30 1060 C 95.8754 0.963093 -1.70247 0
M  V30 1061 C 96.2554 2.02166 -0.60764 0
M  V30 1062 O 95.6034 2.25244 0.384385 0
M  V30 1063 C 95.8134 1.56756 -3.11815 0
M  V30 1064 C 97.1614 2.0573 -3.7143 0
M  V30 1065 O 98.1854 1.66637 -3.14818 0
M  V30 1066 O 97.0444 2.77603 -4.70743 0
M  V30 1067 H 94.1384 0.450321 -0.693643 0
M  V30 1068 H 96.6844 0.206219 -1.68442 0
M  V30 1069 H 95.4564 0.803533 -3.82961 0
M  V30 1070 H 95.0794 2.3898 -3.17765 0
M  V30 1071 N 96.0765 1.50051 0.48192 0
M  V30 1072 C 97.3065 1.63999 1.2565 0
M  V30 1073 C 97.7145 0.318288 1.86504 0
M  V30 1074 O 97.0575 -0.708534 1.69486 0
M  V30 1075 C 97.1195 2.66504 2.4128 0
M  V30 1076 C 96.7835 4.10352 2.01148 0
M  V30 1077 C 97.7805 4.96562 1.54021 0
M  V30 1078 C 95.4655 4.56203 2.10199 0
M  V30 1079 C 97.4595 6.26668 1.16473 0
M  V30 1080 C 95.1465 5.86318 1.72264 0
M  V30 1081 C 96.1445 6.71375 1.25477 0
M  V30 1082 O 95.8325 7.99062 0.880626 0
M  V30 1083 H 95.5645 0.55456 0.386574 0
M  V30 1084 H 98.1185 1.96954 0.582944 0
M  V30 1085 H 96.3485 2.28769 3.11772 0
M  V30 1086 H 98.0375 2.69783 3.03268 0
M  V30 1087 H 98.8035 4.62358 1.46458 0
M  V30 1088 H 94.6825 3.90152 2.45566 0
M  V30 1089 H 98.2265 6.93011 0.798841 0
M  V30 1090 H 94.1235 6.20046 1.79482 0
M  V30 1091 H 94.8915 8.12239 1.01043 0
M  V30 1092 N 97.5546 -0.734337 1.39446 0
M  V30 1093 C 98.8036 -1.48937 1.36017 0
M  V30 1094 C 99.1166 -1.95557 -0.0409005 0
M  V30 1095 O 100.323 -2.70779 -0.19778 0
M  V30 1096 C 98.7786 -2.69125 2.38955 0
M  V30 1097 C 98.3866 -2.29452 3.8478 0
M  V30 1098 C 100.131 -3.46944 2.44603 0
M  V30 1099 C 98.0376 -3.46366 4.79358 0
M  V30 1100 H 96.9676 -0.559296 0.505672 0
M  V30 1101 H 99.6186 -0.800983 1.65095 0
M  V30 1102 H 98.0006 -3.40041 2.02948 0
M  V30 1103 H 99.1746 -1.66077 4.29831 0
M  V30 1104 H 97.4896 -1.64723 3.82433 0
M  V30 1105 H 100.087 -4.33907 3.12456 0
M  V30 1106 H 100.43 -3.89454 1.47076 0
M  V30 1107 H 100.963 -2.83056 2.79507 0
M  V30 1108 H 97.7016 -3.08905 5.78151 0
M  V30 1109 H 97.2216 -4.08719 4.38986 0
M  V30 1110 H 98.9006 -4.12691 4.98292 0
M  V30 1111 N 99.0327 -1.24633 -0.964593 0
M  V30 1112 C 99.9807 -1.03917 -2.08096 0
M  V30 1113 C 100.975 0.0268581 -1.69379 0
M  V30 1114 O 102.181 -0.127952 -1.79545 0
M  V30 1115 H 98.5557 -0.319044 -0.680966 0
M  V30 1116 H 100.527 -1.98581 -2.22729 0
M  V30 1117 C 99.2757 -0.663983 -3.41301 0
M  V30 1118 H 98.5987 -1.47605 -3.71555 0
M  V30 1119 H 100.039 -0.558663 -4.20303 0
M  V30 1120 C 98.4977 0.629169 -3.30973 0
M  V30 1121 O 99.0277 1.67404 -3.65156 0
M  V30 1122 N 97.2337 0.611057 -2.84103 0
M  V30 1123 H 96.7807 -0.239593 -2.56483 0
M  V30 1124 H 96.7387 1.47647 -2.77575 0
M  V30 1125 N 100.511 1.16574 -1.06058 0
M  V30 1126 C 101.474 2.19085 -0.673392 0
M  V30 1127 C 102.474 1.5835 0.279648 0
M  V30 1128 O 103.664 1.74088 0.0623488 0
M  V30 1129 C 100.796 3.40899 0.00954234 0
M  V30 1130 H 101.989 2.54853 -1.58081 0
M  V30 1131 H 99.5418 1.30808 -0.855516 0
M  V30 1132 H 100.277 3.10684 0.929826 0
M  V30 1133 H 100.062 3.86233 -0.67573 0
M  V30 1134 H 101.552 4.1675 0.266245 0
M  V30 1135 N 101.989 0.842826 1.3317 0
M  V30 1136 C 103.214 0.453129 2.02389 0
M  V30 1137 C 103.639 -0.939105 1.6298 0
M  V30 1138 O 102.997 -1.61472 0.8244 0
M  V30 1139 C 103.045 0.586094 3.55805 0
M  V30 1140 O 102.149 -0.386029 4.10589 0
M  V30 1141 H 101.49 0.183664 0.638094 0
M  V30 1142 H 104.02 1.13875 1.69981 0
M  V30 1143 H 104.03 0.469209 4.05293 0
M  V30 1144 H 102.705 1.6014 3.83833 0
M  V30 1145 H 101.282 -0.226371 3.72212 0
M  V30 1146 N 103.467 -1.45747 0.599634 0
M  V30 1147 C 104.397 -2.33235 -0.111306 0
M  V30 1148 C 105.378 -1.46359 -0.866781 0
M  V30 1149 O 106.563 -1.75146 -0.838904 0
M  V30 1150 C 103.693 -3.28932 -1.11451 0
M  V30 1151 C 102.647 -4.25381 -0.472772 0
M  V30 1152 C 101.973 -5.1071 -1.58365 0
M  V30 1153 C 103.273 -5.18831 0.600948 0
M  V30 1154 H 104.967 -2.92927 0.61919 0
M  V30 1155 H 102.513 -1.40857 0.299215 0
M  V30 1156 H 104.466 -3.89002 -1.62036 0
M  V30 1157 H 103.19 -2.67381 -1.8755 0
M  V30 1158 H 101.849 -3.66598 0.0121472 0
M  V30 1159 H 101.497 -4.45533 -2.33473 0
M  V30 1160 H 101.197 -5.7604 -1.15982 0
M  V30 1161 H 102.721 -5.73647 -2.09194 0
M  V30 1162 H 104.135 -5.73019 0.179491 0
M  V30 1163 H 102.532 -5.92595 0.946076 0
M  V30 1164 H 103.602 -4.6174 1.48068 0
M  V30 1165 N 104.945 -0.338344 -1.53925 0
M  V30 1166 C 106.194 0.260732 -2.00008 0
M  V30 1167 C 106.507 1.52073 -1.23017 0
M  V30 1168 O 107.713 2.19672 -1.5955 0
M  V30 1169 C 106.169 0.51515 -3.56194 0
M  V30 1170 C 105.777 -0.728645 -4.42035 0
M  V30 1171 C 107.521 1.07337 -4.10706 0
M  V30 1172 C 105.428 -0.445315 -5.89721 0
M  V30 1173 H 104.358 0.101205 -0.747177 0
M  V30 1174 H 107.009 -0.452866 -1.77824 0
M  V30 1175 H 105.391 1.28932 -3.74423 0
M  V30 1176 H 106.565 -1.50352 -4.35581 0
M  V30 1177 H 104.88 -1.20813 -3.98489 0
M  V30 1178 H 107.477 1.30022 -5.18651 0
M  V30 1179 H 107.82 2.0273 -3.63602 0
M  V30 1180 H 108.353 0.360034 -3.96167 0
M  V30 1181 H 105.092 -1.36883 -6.41049 0
M  V30 1182 H 104.612 0.291569 -5.99091 0
M  V30 1183 H 106.291 -0.0606218 -6.46972 0
M  V30 1184 N 106.423 1.57458 -0.0668435 0
M  V30 1185 C 107.37 2.12439 0.902122 0
M  V30 1186 C 108.34 1.03565 1.2986 0
M  V30 1187 O 109.525 1.312 1.38532 0
M  V30 1188 C 106.665 2.6865 2.16614 0
M  V30 1189 C 105.778 3.91663 1.82274 0
M  V30 1190 C 104.913 4.36134 3.0325 0
M  V30 1191 C 103.952 5.51808 2.64904 0
M  V30 1192 N 103.089 5.9126 3.78624 0
M  V30 1193 H 107.929 2.94934 0.426382 0
M  V30 1194 H 105.466 1.4575 0.198819 0
M  V30 1195 H 107.424 2.99346 2.90599 0
M  V30 1196 H 106.054 1.88928 2.61737 0
M  V30 1197 H 105.106 3.6746 0.983719 0
M  V30 1198 H 106.418 4.75693 1.50059 0
M  V30 1199 H 105.572 4.68465 3.85519 0
M  V30 1200 H 104.311 3.50948 3.38655 0
M  V30 1201 H 103.316 5.19133 1.81055 0
M  V30 1202 H 104.541 6.38722 2.30675 0
M  V30 1203 H 102.487 5.09024 4.138 0
M  V30 1204 H 102.404 6.70018 3.5016 0
M  V30 1205 H 103.672 6.28212 4.61486 0
M  V30 1206 N 107.901 -0.206675 1.56239 0
M  V30 1207 C 108.834 -1.28383 1.88661 0
M  V30 1208 C 109.812 -1.44504 0.745481 0
M  V30 1209 O 110.996 -1.60079 0.995336 0
M  V30 1210 C 108.123 -2.65211 2.10667 0
M  V30 1211 C 107.169 -2.66025 3.33366 0
M  V30 1212 S 108.002 -2.18609 4.88846 0
M  V30 1213 C 109.158 -3.57283 5.13906 0
M  V30 1214 H 109.391 -1.00691 2.7973 0
M  V30 1215 H 106.924 -0.409627 1.48867 0
M  V30 1216 H 108.882 -3.43979 2.24029 0
M  V30 1217 H 107.543 -2.90121 1.20369 0
M  V30 1218 H 106.736 -3.66607 3.45855 0
M  V30 1219 H 106.338 -1.95331 3.18938 0
M  V30 1220 H 108.63 -4.53074 5.03717 0
M  V30 1221 H 109.573 -3.49699 6.15724 0
M  V30 1222 H 109.981 -3.51659 4.41583 0
M  V30 1223 N 109.379 -1.50304 -0.473955 0
M  V30 1224 C 110.289 -1.7174 -1.5982 0
M  V30 1225 C 111.305 -0.600457 -1.63311 0
M  V30 1226 O 112.481 -0.878441 -1.81233 0
M  V30 1227 C 109.546 -1.80427 -2.96052 0
M  V30 1228 C 108.607 -3.04148 -3.02972 0
M  V30 1229 C 107.84 -3.12411 -4.32706 0
M  V30 1230 O 108.063 -2.27542 -5.23049 0
M  V30 1231 O 106.997 -4.05113 -4.45159 0
M  V30 1232 H 110.823 -2.67035 -1.44657 0
M  V30 1233 H 108.408 -1.34366 -0.653148 0
M  V30 1234 H 110.29 -1.88338 -3.7697 0
M  V30 1235 H 108.965 -0.883156 -3.11419 0
M  V30 1236 H 107.872 -3.0174 -2.21142 0
M  V30 1237 H 109.205 -3.95829 -2.92541 0
M  V30 1238 N 110.857 0.726932 -1.39834 0
M  V30 1239 C 111.767 1.87131 -1.41489 0
M  V30 1240 C 112.783 1.71239 -0.308757 0
M  V30 1241 O 113.959 1.93701 -0.551529 0
M  V30 1242 C 111.024 3.22811 -1.26468 0
M  V30 1243 C 110.085 3.51039 -2.47124 0
M  V30 1244 C 109.318 4.80245 -2.3281 0
M  V30 1245 O 109.541 5.54537 -1.33585 0
M  V30 1246 O 108.475 5.08554 -3.21957 0
M  V30 1247 H 112.301 1.8869 -2.3797 0
M  V30 1248 H 109.886 0.875837 -1.21035 0
M  V30 1249 H 111.768 4.03877 -1.20255 0
M  V30 1250 H 110.443 3.22005 -0.330862 0
M  V30 1251 H 109.35 2.70027 -2.58914 0
M  V30 1252 H 110.683 3.56632 -3.39227 0
M  V30 1253 N 112.336 1.25143 0.95797 0
M  V30 1254 C 113.299 1.05321 2.03569 0
M  V30 1255 C 114.299 0.007152 1.60798 0
M  V30 1256 O 115.489 0.24903 1.72411 0
M  V30 1257 C 112.621 0.598394 3.35607 0
M  V30 1258 H 113.814 2.00986 2.22586 0
M  V30 1259 H 111.367 1.07502 1.13459 0
M  V30 1260 H 112.102 -0.361014 3.22284 0
M  V30 1261 H 111.887 1.35351 3.67998 0
M  V30 1262 H 113.377 0.48104 4.1482 0
M  V30 1263 N 113.814 -1.1601 1.06675 0
M  V30 1264 C 114.746 -2.20115 0.638921 0
M  V30 1265 C 115.759 -1.59916 -0.305057 0
M  V30 1266 O 116.948 -1.78245 -0.0954446 0
M  V30 1267 C 114.048 -3.38798 -0.0830083 0
M  V30 1268 C 113.221 -4.2855 0.875426 0
M  V30 1269 C 112.28 -5.25849 0.192042 0
M  V30 1270 O 111.306 -5.63102 0.830921 0
M  V30 1271 N 112.508 -5.70648 -1.06493 0
M  V30 1272 H 115.273 -2.57439 1.53444 0
M  V30 1273 H 112.834 -1.31057 0.950557 0
M  V30 1274 H 114.826 -4.00936 -0.550685 0
M  V30 1275 H 113.396 -2.99947 -0.880386 0
M  V30 1276 H 112.616 -3.63617 1.52238 0
M  V30 1277 H 113.904 -4.85393 1.52548 0
M  V30 1278 H 113.302 -5.42482 -1.60405 0
M  V30 1279 H 111.859 -6.34859 -1.47641 0
M  V30 1280 N 115.292 -0.849877 -1.32721 0
M  V30 1281 C 116.708 -0.539102 -1.50219 0
M  V30 1282 C 116.908 0.931271 -1.78689 0
M  V30 1283 O 115.964 1.71455 -1.85363 0
M  V30 1284 C 117.277 -1.42196 -2.64954 0
M  V30 1285 C 118.825 -1.42189 -2.78839 0
M  V30 1286 C 119.3 -2.28985 -3.96648 0
M  V30 1287 N 120.791 -2.26754 -4.03902 0
M  V30 1288 C 121.526 -2.90644 -4.94281 0
M  V30 1289 N 121.022 -3.63629 -5.897 0
M  V30 1290 N 122.815 -2.80057 -4.87365 0
M  V30 1291 H 114.966 -1.80156 -1.12506 0
M  V30 1292 H 117.229 -0.769217 -0.554085 0
M  V30 1293 H 116.935 -2.46733 -2.50631 0
M  V30 1294 H 116.809 -1.10591 -3.60624 0
M  V30 1295 H 119.196 -0.38419 -2.92588 0
M  V30 1296 H 119.277 -1.77807 -1.83898 0
M  V30 1297 H 118.921 -3.32819 -3.83658 0
M  V30 1298 H 118.851 -1.90702 -4.90857 0
M  V30 1299 H 121.342 -1.73688 -3.3562 0
M  V30 1300 H 121.655 -4.09558 -6.55349 0
M  V30 1301 H 120 -3.67737 -5.89741 0
M  V30 1302 H 123.191 -2.22593 -4.11789 0
M  V30 1303 H 123.364 -3.30132 -5.57599 0
M  V30 1304 N 116.77 1.45427 -0.607355 0
M  V30 1305 C 117.995 2.07124 -0.107006 0
M  V30 1306 C 118.42 1.44906 1.19933 0
M  V30 1307 O 117.778 0.541687 1.73019 0
M  V30 1308 C 117.826 3.60595 0.0194119 0
M  V30 1309 O 116.93 3.98285 1.0697 0
M  V30 1310 H 116.271 0.659868 -0.0739597 0
M  V30 1311 H 118.801 1.86683 -0.837297 0
M  V30 1312 H 118.811 4.07419 0.2177 0
M  V30 1313 H 117.486 4.05266 -0.934453 0
M  V30 1314 H 116.063 3.63133 0.847889 0
M  V30 1315 N 118.248 0.346503 1.53744 0
M  V30 1316 C 119.478 -0.250047 2.05081 0
M  V30 1317 C 119.886 -1.44529 1.22098 0
M  V30 1318 O 119.229 -1.81992 0.249917 0
M  V30 1319 C 119.291 -0.725934 3.52094 0
M  V30 1320 C 118.955 0.350053 4.55657 0
M  V30 1321 C 119.952 1.19372 5.0601 0
M  V30 1322 C 117.637 0.504827 4.99757 0
M  V30 1323 C 119.631 2.17768 5.99046 0
M  V30 1324 C 117.318 1.49218 5.92602 0
M  V30 1325 C 118.316 2.32706 6.42135 0
M  V30 1326 O 118.004 3.2976 7.33153 0
M  V30 1327 H 117.736 -0.0515469 0.674032 0
M  V30 1328 H 120.29 0.497559 1.99282 0
M  V30 1329 H 118.52 -1.52483 3.55367 0
M  V30 1330 H 120.209 -1.24336 3.86388 0
M  V30 1331 H 120.975 1.08525 4.72702 0
M  V30 1332 H 116.854 -0.135178 4.60802 0
M  V30 1333 H 120.398 2.82971 6.37631 0
M  V30 1334 H 116.295 1.6012 6.25325 0
M  V30 1335 H 117.063 3.25265 7.51096 0
M  V30 1336 N 119.726 -1.57421 0.075193 0
M  V30 1337 C 120.975 -1.92794 -0.592731 0
M  V30 1338 C 121.288 -0.957478 -1.70563 0
M  V30 1339 O 122.494 -1.20417 -2.43335 0
M  V30 1340 C 120.95 -3.42495 -1.10569 0
M  V30 1341 C 120.558 -4.47994 -0.0236121 0
M  V30 1342 C 122.302 -3.86864 -1.74748 0
M  V30 1343 C 120.209 -5.88829 -0.550803 0
M  V30 1344 H 119.139 -0.719591 -0.225177 0
M  V30 1345 H 121.79 -1.82902 0.147978 0
M  V30 1346 H 120.172 -3.47471 -1.89947 0
M  V30 1347 H 121.346 -4.54637 0.751099 0
M  V30 1348 H 119.661 -4.13113 0.522159 0
M  V30 1349 H 122.258 -4.8947 -2.15229 0
M  V30 1350 H 122.601 -3.24417 -2.60882 0
M  V30 1351 H 123.134 -3.84504 -1.01986 0
M  V30 1352 H 119.873 -6.54929 0.273457 0
M  V30 1353 H 119.393 -5.85698 -1.29296 0
M  V30 1354 H 121.072 -6.38811 -1.02613 0
M  V30 1355 N 121.204 0.198386 -1.56346 0
M  V30 1356 C 122.134 1.24865 -1.9731 0
M  V30 1357 C 123.115 1.47651 -0.844576 0
M  V30 1358 O 124.3 1.59444 -1.10866 0
M  V30 1359 C 121.43 2.59358 -2.30977 0
M  V30 1360 C 120.384 2.5119 -3.46537 0
M  V30 1361 C 119.71 3.89926 -3.65871 0
M  V30 1362 C 121.01 2.03977 -4.80823 0
M  V30 1363 H 122.704 0.908252 -2.85291 0
M  V30 1364 H 120.25 0.435462 -1.37258 0
M  V30 1365 H 122.203 3.33011 -2.58228 0
M  V30 1366 H 120.927 2.95132 -1.39874 0
M  V30 1367 H 119.586 1.79993 -3.19371 0
M  V30 1368 H 119.234 4.23046 -2.72105 0
M  V30 1369 H 118.934 3.85336 -4.4361 0
M  V30 1370 H 120.458 4.65205 -3.95495 0
M  V30 1371 H 121.872 2.67386 -5.07127 0
M  V30 1372 H 120.269 2.10397 -5.62008 0
M  V30 1373 H 121.339 0.992861 -4.74626 0
M  V30 1374 N 122.682 1.50554 0.465978 0
M  V30 1375 C 123.91 1.65563 1.24083 0
M  V30 1376 C 124.325 0.341051 1.85694 0
M  V30 1377 O 123.682 -0.677543 1.69457 0
M  V30 1378 C 123.733 2.75051 2.34583 0
M  V30 1379 O 123.454 4.01413 1.75497 0
M  V30 1380 C 124.955 3.01078 3.25372 0
M  V30 1381 H 122.175 0.55638 0.375077 0
M  V30 1382 H 124.719 1.96807 0.555624 0
M  V30 1383 H 122.874 2.46486 2.9887 0
M  V30 1384 H 123.288 4.62002 2.48303 0
M  V30 1385 H 124.762 3.81339 3.99105 0
M  V30 1386 H 125.239 2.12349 3.84453 0
M  V30 1387 H 125.845 3.31194 2.66816 0
M  V30 1388 N 124.16 -0.719506 1.40217 0
M  V30 1389 C 125.092 -1.84428 1.36084 0
M  V30 1390 C 126.105 -1.60597 0.266913 0
M  V30 1391 O 127.294 -1.70544 0.526983 0
M  V30 1392 C 124.394 -3.20757 1.094 0
M  V30 1393 C 123.567 -3.71817 2.30372 0
M  V30 1394 C 122.626 -4.86748 1.99907 0
M  V30 1395 O 121.652 -4.99603 2.72737 0
M  V30 1396 N 122.854 -5.7226 0.974635 0
M  V30 1397 H 125.619 -1.88473 2.33019 0
M  V30 1398 H 123.18 -0.900885 1.3452 0
M  V30 1399 H 125.172 -3.95235 0.870116 0
M  V30 1400 H 123.742 -3.11884 0.211452 0
M  V30 1401 H 122.962 -2.88514 2.68614 0
M  V30 1402 H 124.25 -4.02666 3.11026 0
M  V30 1403 H 123.648 -5.6448 0.371368 0
M  V30 1404 H 122.205 -6.46739 0.810656 0
M  V30 1405 N 125.638 -1.25649 -0.95132 0
M  V30 1406 C 126.886 -1.10375 -1.69298 0
M  V30 1407 C 127.207 0.355339 -1.91735 0
M  V30 1408 O 126.477 1.25188 -1.50681 0
M  V30 1409 H 125.057 -0.405461 -0.627384 0
M  V30 1410 H 127.719 -1.57823 -1.14358 0
M  V30 1411 H 126.815 -1.61465 -2.67087 0
M  V30 1412 N 127.117 1.15442 -1.07289 0
M  V30 1413 C 128.528 1.67803 -0.818475 0
M  V30 1414 C 128.879 1.8489 0.656507 0
M  V30 1415 O 128.004 1.55176 1.50829 0
M  V30 1416 C 128.599 3.04805 -1.47917 0
M  V30 1417 C 127.158 3.54245 -1.27229 0
M  V30 1418 C 126.305 2.29986 -1.54925 0
M  V30 1419 H 129.256 0.996646 -1.23502 0
M  V30 1420 H 129.277 3.69702 -0.90005 0
M  V30 1421 H 128.789 2.92336 -2.55267 0
M  V30 1422 H 126.89 3.71956 -0.21899 0
M  V30 1423 H 127.003 4.35723 -1.99203 0
M  V30 1424 H 125.367 2.35496 -0.970242 0
M  V30 1425 H 126.15 2.20105 -2.63455 0
M  V30 1426 N 128.595 0.856903 1.32268 0
M  V30 1427 C 129.525 0.31858 2.31316 0
M  V30 1428 C 130.506 -0.583487 1.59779 0
M  V30 1429 O 131.691 -0.503259 1.87566 0
M  V30 1430 C 128.821 -0.491979 3.43798 0
M  V30 1431 C 127.775 0.315849 4.26833 0
M  V30 1432 C 127.101 -0.619586 5.31098 0
M  V30 1433 C 128.401 1.54282 4.98993 0
M  V30 1434 H 130.095 1.14621 2.76591 0
M  V30 1435 H 127.641 0.552613 1.32974 0
M  V30 1436 H 129.594 -0.879012 4.1213 0
M  V30 1437 H 128.318 -1.35299 2.97257 0
M  V30 1438 H 126.977 0.684664 3.6015 0
M  V30 1439 H 126.625 -1.47751 4.8081 0
M  V30 1440 H 126.325 -0.0830621 5.87541 0
M  V30 1441 H 127.849 -1.00375 6.02293 0
M  V30 1442 H 129.263 1.22796 5.59995 0
M  V30 1443 H 127.66 2.01745 5.65172 0
M  V30 1444 H 128.73 2.30285 4.26728 0
M  V30 1445 N 130.073 -1.45103 0.615059 0
M  V30 1446 C 131.484 -1.85654 0.197383 0
M  V30 1447 C 131.835 -1.51433 -1.24749 0
M  V30 1448 O 130.96 -0.944608 -1.94695 0
M  V30 1449 C 131.555 -3.36972 0.351448 0
M  V30 1450 C 130.114 -3.76398 -0.011593 0
M  V30 1451 C 129.261 -2.69024 0.672394 0
M  V30 1452 H 132.212 -1.35797 0.821263 0
M  V30 1453 H 132.233 -3.78239 -0.414227 0
M  V30 1454 H 131.745 -3.61847 1.40314 0
M  V30 1455 H 129.846 -3.5714 -1.06217 0
M  V30 1456 H 129.959 -4.77532 0.387265 0
M  V30 1457 H 128.323 -2.54465 0.109284 0
M  V30 1458 H 129.106 -2.96735 1.72636 0
M  V30 1459 N 131.551 -0.354651 -1.53558 0
M  V30 1460 C 132.499 0.512195 -2.26891 0
M  V30 1461 C 133.493 1.09263 -1.29452 0
M  V30 1462 O 134.699 1.03709 -1.47121 0
M  V30 1463 H 131.074 0.183878 -0.729173 0
M  V30 1464 H 133.045 -0.128202 -2.98124 0
M  V30 1465 C 131.794 1.64563 -3.06291 0
M  V30 1466 H 131.117 1.20829 -3.81104 0
M  V30 1467 H 132.557 2.22711 -3.60799 0
M  V30 1468 C 131.016 2.58158 -2.16462 0
M  V30 1469 O 131.546 3.60695 -1.76811 0
M  V30 1470 N 129.752 2.27096 -1.81317 0
M  V30 1471 H 129.299 1.43751 -2.1376 0
M  V30 1472 H 129.257 2.89975 -1.21498 0
M  V30 1473 N 133.029 1.57378 -0.0835403 0
M  V30 1474 C 134.257 1.98263 0.59157 0
M  V30 1475 C 134.672 0.962302 1.62435 0
M  V30 1476 O 134.029 -0.049581 1.82433 0
M  V30 1477 C 134.08 3.39214 1.24965 0
M  V30 1478 O 133.801 4.37339 0.258186 0
M  V30 1479 C 135.302 3.95038 2.01147 0
M  V30 1480 H 132.522 0.651773 0.159477 0
M  V30 1481 H 135.066 2.03878 -0.159415 0
M  V30 1482 H 133.221 3.34649 1.95164 0
M  V30 1483 H 133.635 5.19371 0.731734 0
M  V30 1484 H 135.109 4.95848 2.42567 0
M  V30 1485 H 135.586 3.32222 2.87272 0
M  V30 1486 H 136.192 4.0304 1.35789 0
M  V30 1487 N 134.507 -0.190092 1.56449 0
M  V30 1488 C 135.747 -0.916414 1.82705 0
M  V30 1489 C 136.111 -1.80235 0.661763 0
M  V30 1490 O 137.312 -2.56484 0.80433 0
M  V30 1491 C 135.583 -1.70691 3.14005 0
M  V30 1492 S 137.142 -2.48457 3.61683 0
M  V30 1493 H 133.96 -0.307281 0.64117 0
M  V30 1494 H 136.562 -0.179433 1.94675 0
M  V30 1495 H 135.266 -1.04677 3.96826 0
M  V30 1496 H 134.797 -2.48562 3.04927 0
M  V30 1497 H 136.812 -3.72756 3.27517 0
M  V30 1498 N 135.985 -1.50799 -0.457987 0
M  V30 1499 C 137.233 -1.62121 -1.2067 0
M  V30 1500 C 137.554 -0.329793 -1.92191 0
M  V30 1501 O 136.824 0.653409 -1.84682 0
M  V30 1502 H 135.404 -0.597441 -0.448411 0
M  V30 1503 H 138.066 -1.87637 -0.527096 0
M  V30 1504 H 137.162 -2.43882 -1.94751 0
M  V30 1505 N 137.463 0.71206 -1.40597 0
M  V30 1506 C 138.413 1.81783 -1.37619 0
M  V30 1507 C 139.397 1.58896 -0.253162 0
M  V30 1508 O 140.589 1.70009 -0.492547 0
M  V30 1509 C 137.718 3.19944 -1.24462 0
M  V30 1510 C 136.804 3.48582 -2.4156 0
M  V30 1511 N 137.195 3.48016 -3.67041 0
M  V30 1512 C 135.493 3.79056 -2.35016 0
M  V30 1513 C 136.194 3.75096 -4.44609 0
M  V30 1514 N 135.17 3.94022 -3.74497 0
M  V30 1515 H 138.972 1.79683 -2.32575 0
M  V30 1516 H 136.486 0.91134 -1.34419 0
M  V30 1517 H 138.483 3.99133 -1.20411 0
M  V30 1518 H 137.143 3.23267 -0.304762 0
M  V30 1519 H 138.154 3.28782 -4.00153 0
M  V30 1520 H 134.831 3.89848 -1.49415 0
M  V30 1521 H 136.221 3.80934 -5.53479 0
M  V30 1522 N 138.941 1.26152 0.944643 0
M  V30 1523 C 140.188 1.11492 1.69044 0
M  V30 1524 C 140.516 -0.342366 1.91463 0
M  V30 1525 O 139.771 -1.26812 1.49054 0
M  V30 1526 C 140.07 1.82541 3.07268 0
M  V30 1527 C 139.736 3.32445 3.04616 0
M  V30 1528 C 138.398 3.73337 3.036 0
M  V30 1529 C 140.75 4.28171 2.97185 0
M  V30 1530 C 138.078 5.08348 2.92915 0
M  V30 1531 C 140.43 5.63218 2.88041 0
M  V30 1532 C 139.094 6.03426 2.85366 0
M  V30 1533 H 138.364 0.407977 0.618576 0
M  V30 1534 H 141.011 1.56551 1.10291 0
M  V30 1535 H 139.316 1.29941 3.69625 0
M  V30 1536 H 141.013 1.68642 3.63815 0
M  V30 1537 H 137.603 2.99915 3.06185 0
M  V30 1538 H 141.787 3.97563 2.97081 0
M  V30 1539 H 137.043 5.38667 2.89219 0
M  V30 1540 H 141.217 6.37078 2.81254 0
M  V30 1541 H 138.844 7.07999 2.76842 0
M  V30 1542 N 140.419 -1.14872 1.07899 0
M  V30 1543 C 141.665 -1.86289 0.81657 0
M  V30 1544 C 142.02 -1.8107 -0.65049 0
M  V30 1545 O 141.313 -1.22684 -1.47171 0
M  V30 1546 C 141.507 -3.34223 1.26609 0
M  V30 1547 C 141.336 -3.53846 2.77531 0
M  V30 1548 C 140.106 -3.68995 3.45212 0
M  V30 1549 C 142.304 -3.51201 3.75716 0
M  V30 1550 N 140.286 -3.76725 4.84718 0
M  V30 1551 C 141.657 -3.65112 5.01092 0
M  V30 1552 C 143.712 -3.34507 3.68794 0
M  V30 1553 C 142.415 -3.64056 6.20368 0
M  V30 1554 C 144.441 -3.34752 4.8754 0
M  V30 1555 C 143.803 -3.49199 6.11751 0
M  V30 1556 H 139.902 -0.698579 0.351443 0
M  V30 1557 H 142.486 -1.37713 1.37634 0
M  V30 1558 H 140.657 -3.81402 0.73395 0
M  V30 1559 H 142.389 -3.93377 0.95062 0
M  V30 1560 H 139.144 -3.70006 2.95622 0
M  V30 1561 H 139.568 -3.8432 5.5734 0
M  V30 1562 H 144.21 -3.22253 2.73702 0
M  V30 1563 H 141.928 -3.75087 7.15776 0
M  V30 1564 H 145.514 -3.23055 4.83866 0
M  V30 1565 H 144.394 -3.49328 7.02097 0
M  V30 1566 N 141.898 -0.863906 -1.31812 0
M  V30 1567 C 142.808 -0.318461 -2.32428 0
M  V30 1568 C 143.824 0.568496 -1.64451 0
M  V30 1569 O 145 0.46666 -1.95919 0
M  V30 1570 C 142.065 0.476355 -3.43412 0
M  V30 1571 C 141.126 -0.43784 -4.27061 0
M  V30 1572 C 140.359 0.319138 -5.32745 0
M  V30 1573 O 140.582 1.54799 -5.48993 0
M  V30 1574 O 139.516 -0.319861 -6.01049 0
M  V30 1575 H 143.342 -1.15229 -2.80991 0
M  V30 1576 H 140.927 -0.627103 -1.35602 0
M  V30 1577 H 142.809 0.927156 -4.11074 0
M  V30 1578 H 141.484 1.28683 -2.97022 0
M  V30 1579 H 140.391 -0.937013 -3.62175 0
M  V30 1580 H 141.724 -1.21375 -4.77 0
M  V30 1581 N 143.376 1.44774 -0.622745 0
M  V30 1582 C 144.309 2.27792 0.136329 0
M  V30 1583 C 145.287 1.38041 0.859264 0
M  V30 1584 O 146.471 1.67478 0.86506 0
M  V30 1585 C 143.598 3.16776 1.19878 0
M  V30 1586 C 142.644 4.22575 0.57731 0
M  V30 1587 S 143.477 5.31825 -0.626294 0
M  V30 1588 C 144.633 6.24377 0.436378 0
M  V30 1589 H 144.866 2.91824 -0.567967 0
M  V30 1590 H 142.399 1.48838 -0.410677 0
M  V30 1591 H 144.357 3.68596 1.80686 0
M  V30 1592 H 143.018 2.5198 1.87523 0
M  V30 1593 H 142.211 4.84818 1.37721 0
M  V30 1594 H 141.813 3.73974 0.0440439 0
M  V30 1595 H 144.105 6.64689 1.31128 0
M  V30 1596 H 145.048 7.07941 -0.150271 0
M  V30 1597 H 145.456 5.59381 0.758513 0
M  V30 1598 N 144.854 0.36279 1.53368 0
M  V30 1599 C 146.1 -0.228113 2.01513 0
M  V30 1600 C 146.433 -1.48648 1.2497 0
M  V30 1601 O 145.708 -1.91459 0.342616 0
M  V30 1602 C 145.991 -0.522884 3.56284 0
M  V30 1603 C 145.844 0.74892 4.43521 0
M  V30 1604 C 147.163 -1.32461 4.19693 0
M  V30 1605 H 144.282 -0.0814343 0.732487 0
M  V30 1606 H 146.924 0.48713 1.83649 0
M  V30 1607 H 145.074 -1.1322 3.71636 0
M  V30 1608 H 146.746 1.38648 4.39971 0
M  V30 1609 H 144.989 1.36986 4.11603 0
M  V30 1610 H 145.66 0.497667 5.49752 0
M  V30 1611 H 148.136 -0.809203 4.08156 0
M  V30 1612 H 147.012 -1.49961 5.28018 0
M  V30 1613 H 147.273 -2.33232 3.75573 0
M  V30 1614 N 146.332 -1.57332 0.0918853 0
M  V30 1615 C 147.578 -1.95328 -0.567313 0
M  V30 1616 C 147.933 -0.972866 -1.65991 0
M  V30 1617 O 147.226 0.00166256 -1.916 0
M  V30 1618 C 147.42 -3.37689 -1.17051 0
M  V30 1619 C 147.249 -4.49489 -0.137875 0
M  V30 1620 C 146.019 -5.04498 0.284515 0
M  V30 1621 C 148.217 -5.10393 0.63271 0
M  V30 1622 N 146.199 -5.99853 1.30576 0
M  V30 1623 C 147.57 -6.01435 1.50587 0
M  V30 1624 C 149.625 -4.93143 0.68658 0
M  V30 1625 C 148.328 -6.77077 2.42815 0
M  V30 1626 C 150.354 -5.69445 1.59645 0
M  V30 1627 C 149.716 -6.60151 2.45725 0
M  V30 1628 H 145.815 -0.761467 -0.178023 0
M  V30 1629 H 148.399 -1.93924 0.173706 0
M  V30 1630 H 146.57 -3.39793 -1.88136 0
M  V30 1631 H 148.302 -3.62872 -1.79181 0
M  V30 1632 H 145.057 -4.73489 -0.102593 0
M  V30 1633 H 145.481 -6.52231 1.81449 0
M  V30 1634 H 150.123 -4.22785 0.035244 0
M  V30 1635 H 147.841 -7.46699 3.08975 0
M  V30 1636 H 151.427 -5.58112 1.64323 0
M  V30 1637 H 150.307 -7.18159 3.14987 0
M  V30 1638 N 147.81 0.181792 -1.56548 0
M  V30 1639 C 148.72 1.24538 -1.98815 0
M  V30 1640 C 149.736 1.49045 -0.897861 0
M  V30 1641 O 150.912 1.61399 -1.20467 0
M  V30 1642 C 147.977 2.56683 -2.33055 0
M  V30 1643 C 147.038 2.40131 -3.55859 0
M  V30 1644 C 146.271 3.65975 -3.88456 0
M  V30 1645 O 146.494 4.70711 -3.22161 0
M  V30 1646 O 145.428 3.6071 -4.81842 0
M  V30 1647 H 149.254 0.916647 -2.89536 0
M  V30 1648 H 146.839 0.387842 -1.44278 0
M  V30 1649 H 148.721 3.34655 -2.56094 0
M  V30 1650 H 147.396 2.89157 -1.45498 0
M  V30 1651 H 146.303 1.60226 -3.38051 0
M  V30 1652 H 147.636 2.12585 -4.43924 0
M  V30 1653 N 149.288 1.51039 0.449983 0
M  V30 1654 C 150.22 1.67617 1.56324 0
M  V30 1655 C 151.233 0.557083 1.52972 0
M  V30 1656 O 152.422 0.830989 1.57977 0
M  V30 1657 C 149.522 1.66402 2.95235 0
M  V30 1658 C 148.695 2.9469 3.23229 0
M  V30 1659 C 147.754 2.85832 4.41799 0
M  V30 1660 O 146.78 3.59785 4.41071 0
M  V30 1661 N 147.982 2.00821 5.44657 0
M  V30 1662 H 150.747 2.63648 1.42512 0
M  V30 1663 H 148.308 1.48767 0.638737 0
M  V30 1664 H 150.3 1.58062 3.72557 0
M  V30 1665 H 148.87 0.780182 3.02708 0
M  V30 1666 H 148.09 3.16996 2.34323 0
M  V30 1667 H 149.378 3.79636 3.38754 0
M  V30 1668 H 148.776 1.40091 5.48079 0
M  V30 1669 H 147.333 1.98368 6.20881 0
M  V30 1670 N 150.766 -0.704594 1.40972 0
M  V30 1671 C 151.713 -1.81862 1.42109 0
M  V30 1672 C 152.683 -1.63781 0.276593 0
M  V30 1673 O 153.868 -1.84759 0.4763 0
M  V30 1674 C 151.008 -3.19669 1.30022 0
M  V30 1675 C 150.121 -3.49246 2.54267 0
M  V30 1676 C 149.256 -4.76618 2.3454 0
M  V30 1677 C 148.295 -4.99133 3.54306 0
M  V30 1678 N 147.432 -6.17726 3.33706 0
M  V30 1679 H 152.272 -1.80226 2.37324 0
M  V30 1680 H 149.809 -0.880238 1.17857 0
M  V30 1681 H 151.767 -3.99263 1.21018 0
M  V30 1682 H 150.397 -3.20506 0.384192 0
M  V30 1683 H 149.449 -2.64125 2.73756 0
M  V30 1684 H 150.761 -3.61788 3.43381 0
M  V30 1685 H 149.915 -5.64249 2.22952 0
M  V30 1686 H 148.654 -4.66305 1.42867 0
M  V30 1687 H 147.659 -4.09953 3.66359 0
M  V30 1688 H 148.884 -5.11311 4.4692 0
M  V30 1689 H 146.83 -6.08642 2.44725 0
M  V30 1690 H 146.747 -6.30995 4.16391 0
M  V30 1691 H 148.015 -7.08115 3.25873 0
M  V30 1692 N 152.244 -1.26651 -0.937939 0
M  V30 1693 C 153.469 -1.15279 -1.72411 0
M  V30 1694 C 153.894 0.287866 -1.85884 0
M  V30 1695 O 153.252 1.20855 -1.35143 0
M  V30 1696 C 153.3 -1.83028 -3.10698 0
M  V30 1697 O 152.404 -1.12128 -3.96864 0
M  V30 1698 H 151.745 -0.401504 -0.528858 0
M  V30 1699 H 154.275 -1.67531 -1.1745 0
M  V30 1700 H 154.285 -1.89981 -3.6107 0
M  V30 1701 H 152.96 -2.87833 -3.00208 0
M  V30 1702 H 151.537 -1.13173 -3.55312 0
M  V30 1703 N 153.722 1.14298 -1.08507 0
M  V30 1704 C 155.138 1.37347 -0.812901 0
M  V30 1705 C 155.338 1.93052 0.577325 0
M  V30 1706 O 154.394 2.14389 1.33393 0
M  V30 1707 C 155.707 2.33359 -1.89642 0
M  V30 1708 C 157.255 2.46996 -1.92255 0
M  V30 1709 C 157.73 3.46309 -2.99724 0
M  V30 1710 N 159.221 3.53853 -2.98902 0
M  V30 1711 C 159.956 4.3055 -3.787 0
M  V30 1712 N 159.452 5.10482 -4.6838 0
M  V30 1713 N 161.245 4.25757 -3.66998 0
M  V30 1714 H 153.396 0.764867 -1.9815 0
M  V30 1715 H 155.659 0.398966 -0.859959 0
M  V30 1716 H 155.365 1.99565 -2.89597 0
M  V30 1717 H 155.239 3.33274 -1.76659 0
M  V30 1718 H 157.626 2.80081 -0.929445 0
M  V30 1719 H 157.707 1.47039 -2.09316 0
M  V30 1720 H 157.351 3.13957 -3.99241 0
M  V30 1721 H 157.281 4.46049 -2.79907 0
M  V30 1722 H 159.772 2.96812 -2.33904 0
M  V30 1723 H 160.085 5.66284 -5.25873 0
M  V30 1724 H 158.43 5.09747 -4.72422 0
M  V30 1725 H 161.621 3.62383 -2.96304 0
M  V30 1726 H 161.794 4.85279 -4.29427 0
M  V30 1727 N 155.201 0.870884 1.31352 0
M  V30 1728 C 156.449 0.48132 1.96285 0
M  V30 1729 C 156.77 -0.969813 1.69173 0
M  V30 1730 O 156.04 -1.67998 1.00764 0
M  V30 1731 H 154.62 0.175002 0.726212 0
M  V30 1732 H 157.282 1.11087 1.60143 0
M  V30 1733 H 156.378 0.639825 3.05471 0
M  V30 1734 N 156.679 -1.44442 0.630414 0
M  V30 1735 C 157.925 -2.02351 0.134816 0
M  V30 1736 C 158.258 -1.4947 -1.23986 0
M  V30 1737 O 157.533 -0.678475 -1.82283 0
M  V30 1738 C 157.816 -3.59898 0.120707 0
M  V30 1739 C 157.669 -4.23063 1.52767 0
M  V30 1740 C 158.988 -4.36585 -0.555127 0
M  V30 1741 H 156.107 -0.73527 0.0504646 0
M  V30 1742 H 158.749 -1.72022 0.806751 0
M  V30 1743 H 156.899 -3.85868 -0.451477 0
M  V30 1744 H 158.571 -4.08202 2.14869 0
M  V30 1745 H 156.814 -3.80586 2.08175 0
M  V30 1746 H 157.485 -5.32071 1.46984 0
M  V30 1747 H 159.961 -4.16044 -0.0685429 0
M  V30 1748 H 158.837 -5.46294 -0.534185 0
M  V30 1749 H 159.098 -4.11138 -1.62535 0
M  V30 1750 N 158.157 -0.370918 -1.53173 0
M  V30 1751 C 159.403 0.217423 -2.01631 0
M  V30 1752 C 159.736 1.47983 -1.25756 0
M  V30 1753 O 159.011 1.91274 -0.352764 0
M  V30 1754 C 159.294 0.503982 -3.56556 0
M  V30 1755 C 159.147 -0.77243 -4.43118 0
M  V30 1756 C 160.466 1.30234 -4.20389 0
M  V30 1757 H 157.585 0.0775486 -0.732909 0
M  V30 1758 H 160.227 -0.496863 -1.83388 0
M  V30 1759 H 158.377 1.11248 -3.72231 0
M  V30 1760 H 160.049 -1.4098 -4.39229 0
M  V30 1761 H 158.292 -1.39167 -4.10871 0
M  V30 1762 H 158.963 -0.526815 -5.4948 0
M  V30 1763 H 161.439 0.787546 -4.08579 0
M  V30 1764 H 160.315 1.47158 -5.28806 0
M  V30 1765 H 160.576 2.31237 -3.76805 0
M  V30 1766 N 159.635 1.57281 -0.100228 0
M  V30 1767 C 160.568 2.09976 0.893612 0
M  V30 1768 C 161.546 1.01155 1.27304 0
M  V30 1769 O 162.73 1.28687 1.37739 0
M  V30 1770 C 159.857 2.58098 2.19324 0
M  V30 1771 C 158.903 3.78626 1.96328 0
M  V30 1772 S 159.736 5.21959 1.19662 0
M  V30 1773 C 160.892 5.73435 2.50844 0
M  V30 1774 H 161.125 2.93946 0.44534 0
M  V30 1775 H 158.658 1.53985 0.113167 0
M  V30 1776 H 160.616 2.8648 2.94005 0
M  V30 1777 H 159.277 1.74344 2.61272 0
M  V30 1778 H 158.47 4.10382 2.92579 0
M  V30 1779 H 158.072 3.50763 1.29775 0
M  V30 1780 H 160.364 5.82015 3.46792 0
M  V30 1781 H 161.307 6.7185 2.23659 0
M  V30 1782 H 161.715 5.01395 2.59352 0
M  V30 1783 N 161.113 -0.173488 1.56642 0
M  V30 1784 C 162.043 -1.2171 1.99271 0
M  V30 1785 C 163.024 -1.46289 0.867959 0
M  V30 1786 O 164.209 -1.5766 1.13388 0
M  V30 1787 C 161.339 -2.55651 2.35074 0
M  V30 1788 C 160.293 -2.45645 3.50489 0
M  V30 1789 C 159.619 -3.84056 3.72028 0
M  V30 1790 C 160.919 -1.96302 4.84007 0
M  V30 1791 H 162.613 -0.86275 2.867 0
M  V30 1792 H 160.159 -0.413571 1.37933 0
M  V30 1793 H 162.112 -3.2886 2.63494 0
M  V30 1794 H 160.836 -2.92869 1.44552 0
M  V30 1795 H 159.495 -1.7489 3.22194 0
M  V30 1796 H 159.143 -4.18664 2.788 0
M  V30 1797 H 158.843 -3.7823 4.49684 0
M  V30 1798 H 160.367 -4.58854 4.02846 0
M  V30 1799 H 161.781 -2.59284 5.11317 0
M  V30 1800 H 160.178 -2.01429 5.65284 0
M  V30 1801 H 161.248 -0.917226 4.76146 0
M  V30 1802 N 162.591 -1.51276 -0.441967 0
M  V30 1803 C 163.539 -1.72823 -1.55676 0
M  V30 1804 C 164.533 -0.59445 -1.58627 0
M  V30 1805 O 165.739 -0.775715 -1.62427 0
M  V30 1806 H 162.114 -0.545983 -0.517113 0
M  V30 1807 H 164.085 -2.6628 -1.34675 0
M  V30 1808 C 162.834 -1.86619 -2.93375 0
M  V30 1809 H 162.157 -2.73264 -2.91834 0
M  V30 1810 H 163.597 -2.05709 -3.70756 0
M  V30 1811 C 162.056 -0.624842 -3.31055 0
M  V30 1812 O 162.586 0.222636 -4.01083 0
M  V30 1813 N 160.792 -0.470288 -2.86769 0
M  V30 1814 H 160.339 -1.161 -2.29953 0
M  V30 1815 H 160.297 0.359051 -3.12343 0
M  V30 1816 N 164.069 0.697108 -1.41344 0
M  V30 1817 C 165.485 1.00751 -1.2378 0
M  V30 1818 C 165.685 2.01105 -0.126066 0
M  V30 1819 O 164.741 2.47295 0.51004 0
M  V30 1820 C 166.054 1.53359 -2.58653 0
M  V30 1821 C 167.602 1.6525 -2.65822 0
M  V30 1822 C 168.077 2.2126 -4.01009 0
M  V30 1823 N 169.568 2.28622 -4.02847 0
M  V30 1824 C 170.303 2.72984 -5.04249 0
M  V30 1825 N 169.799 3.16962 -6.16041 0
M  V30 1826 N 171.592 2.72534 -4.91611 0
M  V30 1827 H 163.743 0.0322662 -2.12375 0
M  V30 1828 H 166.006 0.0768853 -0.944877 0
M  V30 1829 H 165.712 0.870773 -3.4075 0
M  V30 1830 H 165.586 2.51597 -2.81032 0
M  V30 1831 H 167.973 2.30644 -1.84086 0
M  V30 1832 H 168.054 0.655614 -2.47256 0
M  V30 1833 H 167.698 1.56482 -4.83193 0
M  V30 1834 H 167.628 3.21698 -4.16915 0
M  V30 1835 H 170.119 1.97585 -3.22131 0
M  V30 1836 H 170.432 3.49434 -6.89287 0
M  V30 1837 H 168.777 3.14875 -6.1958 0
M  V30 1838 H 171.968 2.37525 -4.0336 0
M  V30 1839 H 172.141 3.06789 -5.70775 0
M  V30 1840 N 165.547 1.27147 0.931209 0
M  V30 1841 C 166.793 1.13446 1.68101 0
M  V30 1842 C 167.126 -0.319628 1.91552 0
M  V30 1843 O 166.401 -1.23407 1.50336 0
M  V30 1844 C 166.684 1.91482 3.0497 0
M  V30 1845 C 166.537 3.44855 2.88782 0
M  V30 1846 C 167.856 1.71651 4.05246 0
M  V30 1847 H 164.975 0.413498 0.610072 0
M  V30 1848 H 167.617 1.56261 1.08086 0
M  V30 1849 H 165.767 1.55095 3.56199 0
M  V30 1850 H 167.439 3.9105 2.44698 0
M  V30 1851 H 165.682 3.71373 2.24198 0
M  V30 1852 H 166.353 3.94694 3.85902 0
M  V30 1853 H 168.829 2.0337 3.63015 0
M  V30 1854 H 167.705 2.28651 4.99009 0
M  V30 1855 H 167.966 0.663555 4.37092 0
M  V30 1856 N 167.025 -1.13721 1.09112 0
M  V30 1857 C 167.958 -2.18094 0.67158 0
M  V30 1858 C 168.936 -1.59414 -0.320299 0
M  V30 1859 O 170.12 -1.87183 -0.222444 0
M  V30 1860 C 167.247 -3.38698 -0.0111189 0
M  V30 1861 C 166.293 -4.15966 0.942055 0
M  V30 1862 S 167.126 -4.7604 2.45246 0
M  V30 1863 C 168.282 -5.99994 1.78208 0
M  V30 1864 H 168.515 -2.53344 1.55577 0
M  V30 1865 H 166.048 -1.24967 0.906789 0
M  V30 1866 H 168.006 -4.08559 -0.398716 0
M  V30 1867 H 166.667 -3.01756 -0.871905 0
M  V30 1868 H 165.86 -5.02318 0.411396 0
M  V30 1869 H 165.462 -3.51745 1.2709 0
M  V30 1870 H 167.754 -6.68441 1.10424 0
M  V30 1871 H 168.697 -6.57662 2.62463 0
M  V30 1872 H 169.105 -5.50432 1.25238 0
M  V30 1873 N 168.503 -0.877838 -1.30888 0
M  V30 1874 C 169.413 -0.343096 -2.32078 0
M  V30 1875 C 170.429 0.551022 -1.65045 0
M  V30 1876 O 171.605 0.445854 -1.96403 0
M  V30 1877 C 168.67 0.439905 -3.43898 0
M  V30 1878 C 167.731 -0.483111 -4.26573 0
M  V30 1879 C 166.964 0.262616 -5.33053 0
M  V30 1880 O 167.187 1.48967 -5.50604 0
M  V30 1881 O 166.121 -0.383593 -6.00676 0
M  V30 1882 H 169.947 -1.18203 -2.79753 0
M  V30 1883 H 167.532 -0.64145 -1.34929 0
M  V30 1884 H 169.414 0.883504 -4.12034 0
M  V30 1885 H 168.089 1.25526 -2.98371 0
M  V30 1886 H 166.996 -0.975374 -3.61161 0
M  V30 1887 H 168.329 -1.26427 -4.75686 0
M  V30 1888 N 169.982 1.44106 -0.638065 0
M  V30 1889 C 170.929 2.30715 0.062701 0
M  V30 1890 C 171.899 1.43882 0.829883 0
M  V30 1891 O 173.084 1.72775 0.809532 0
M  V30 1892 C 170.224 3.29258 1.03358 0
M  V30 1893 C 169.337 4.31192 0.26409 0
M  V30 1894 C 168.472 5.16825 1.22741 0
M  V30 1895 C 167.511 6.10462 0.447475 0
M  V30 1896 N 166.648 6.8877 1.36161 0
M  V30 1897 H 171.488 2.90096 -0.681781 0
M  V30 1898 H 169.025 1.42925 -0.347988 0
M  V30 1899 H 170.983 3.84886 1.60992 0
M  V30 1900 H 169.613 2.71562 1.74511 0
M  V30 1901 H 168.665 3.77981 -0.428295 0
M  V30 1902 H 169.977 4.97619 -0.343052 0
M  V30 1903 H 169.131 5.77004 1.87487 0
M  V30 1904 H 167.87 4.50488 1.86847 0
M  V30 1905 H 166.875 5.49386 -0.213433 0
M  V30 1906 H 168.1 6.78837 -0.188968 0
M  V30 1907 H 166.046 6.25096 1.98975 0
M  V30 1908 H 165.963 7.51663 0.808656 0
M  V30 1909 H 167.231 7.53467 1.99769 0
M  V30 1910 N 171.46 0.379036 1.52974 0
M  V30 1911 C 172.708 -0.206014 2.01047 0
M  V30 1912 C 173.029 -1.48175 1.26765 0
M  V30 1913 O 172.299 -1.92085 0.384743 0
M  V30 1914 H 170.879 -0.0791184 0.742798 0
M  V30 1915 H 173.541 0.508366 1.88153 0
M  V30 1916 H 172.637 -0.423501 3.09213 0
M  V30 1917 N 172.938 -1.57226 0.108567 0
M  V30 1918 C 174.163 -1.99604 -0.563303 0
M  V30 1919 C 174.588 -0.987563 -1.6009 0
M  V30 1920 O 173.946 0.0421687 -1.81251 0
M  V30 1921 C 173.994 -3.40902 -1.17552 0
M  V30 1922 O 173.098 -3.42896 -2.2912 0
M  V30 1923 H 172.439 -0.648704 -0.1417 0
M  V30 1924 H 174.969 -2.03679 0.193961 0
M  V30 1925 H 174.979 -3.78886 -1.51357 0
M  V30 1926 H 173.654 -4.1382 -0.415445 0
M  V30 1927 H 172.231 -3.1672 -1.96832 0
M  V30 1928 N 174.416 0.165178 -1.56732 0
M  V30 1929 C 175.346 1.20651 -1.99914 0
M  V30 1930 C 176.327 1.45827 -0.875705 0
M  V30 1931 O 177.512 1.57057 -1.14223 0
M  V30 1932 C 174.642 2.54401 -2.36427 0
M  V30 1933 C 173.596 2.43782 -3.51787 0
M  V30 1934 C 172.922 3.82078 -3.7406 0
M  V30 1935 C 174.222 1.93732 -4.85041 0
M  V30 1936 H 175.916 0.847534 -2.87154 0
M  V30 1937 H 173.462 0.40625 -1.38151 0
M  V30 1938 H 175.415 3.27458 -2.65234 0
M  V30 1939 H 174.139 2.92098 -1.46103 0
M  V30 1940 H 172.798 1.73178 -3.23117 0
M  V30 1941 H 172.446 4.17179 -2.81017 0
M  V30 1942 H 172.146 3.7584 -4.51684 0
M  V30 1943 H 173.67 4.56712 -4.05274 0
M  V30 1944 H 175.084 2.56569 -5.12684 0
M  V30 1945 H 173.481 1.98428 -5.66345 0
M  V30 1946 H 174.551 0.891962 -4.76626 0
M  V30 1947 N 175.894 1.51508 0.433938 0
M  V30 1948 C 176.841 1.73068 1.52696 0
M  V30 1949 C 177.811 0.572441 1.55924 0
M  V30 1950 O 178.996 0.807253 1.72882 0
M  V30 1951 C 176.136 1.86474 2.90381 0
M  V30 1952 C 175.249 3.14037 2.96656 0
M  V30 1953 C 174.384 3.18019 4.25485 0
M  V30 1954 C 173.423 4.39882 4.2564 0
M  V30 1955 N 172.56 4.41394 5.45999 0
M  V30 1956 H 177.4 2.66366 1.33615 0
M  V30 1957 H 174.937 1.32008 0.649018 0
M  V30 1958 H 176.895 1.92229 3.70275 0
M  V30 1959 H 175.525 0.965809 3.08013 0
M  V30 1960 H 174.577 3.17575 2.09404 0
M  V30 1961 H 175.889 4.0394 2.92633 0
M  V30 1962 H 175.043 3.22708 5.13755 0
M  V30 1963 H 173.782 2.2601 4.3217 0
M  V30 1964 H 172.787 4.35366 3.35763 0
M  V30 1965 H 174.012 5.33159 4.20617 0
M  V30 1966 H 171.958 3.52258 5.53399 0
M  V30 1967 H 171.875 5.25111 5.4387 0
M  V30 1968 H 173.143 4.50281 6.36292 0
M  V30 1969 N 177.372 -0.689602 1.41712 0
M  V30 1970 C 178.612 -1.46184 1.42862 0
M  V30 1971 C 178.976 -1.91962 0.0382204 0
M  V30 1972 O 180.177 -2.68694 -0.0755019 0
M  V30 1973 C 178.448 -2.6371 2.4123 0
M  V30 1974 S 180.007 -3.52768 2.6096 0
M  V30 1975 H 176.825 -0.49947 0.506015 0
M  V30 1976 H 179.427 -0.804107 1.78198 0
M  V30 1977 H 178.131 -2.28293 3.41044 0
M  V30 1978 H 177.662 -3.3437 2.07269 0
M  V30 1979 H 179.677 -4.59146 1.88148 0
M  V30 1980 N 178.85 -1.27639 -0.924453 0
M  V30 1981 C 179.813 -1.10681 -2.00705 0
M  V30 1982 C 180.813 -0.0497823 -1.60723 0
M  V30 1983 O 182.003 -0.294654 -1.7169 0
M  V30 1984 C 179.135 -0.687164 -3.33902 0
M  V30 1985 H 180.328 -2.06817 -2.17179 0
M  V30 1986 H 177.881 -1.10473 -1.10569 0
M  V30 1987 H 178.616 0.275439 -3.23128 0
M  V30 1988 H 178.401 -1.45061 -3.6428 0
M  V30 1989 H 179.891 -0.590853 -4.13399 0
M  V30 1990 N 180.328 1.1314 -1.09713 0
M  V30 1991 C 181.26 2.18343 -0.697056 0
M  V30 1992 C 182.273 1.60669 0.262551 0
M  V30 1993 O 183.462 1.78435 0.0481527 0
M  V30 1994 C 180.562 3.38899 -0.00684728 0
M  V30 1995 C 179.735 4.26078 -0.988741 0
M  V30 1996 C 178.794 5.25155 -0.331394 0
M  V30 1997 O 177.82 5.60701 -0.979926 0
M  V30 1998 N 179.022 5.73271 0.913261 0
M  V30 1999 H 181.787 2.5328 -1.60216 0
M  V30 2000 H 179.348 1.28491 -0.984971 0
M  V30 2001 H 181.34 4.02255 0.444191 0
M  V30 2002 H 179.91 3.02175 0.800551 0
M  V30 2003 H 179.13 3.59453 -1.61826 0
M  V30 2004 H 180.418 4.81178 -1.65364 0
M  V30 2005 H 179.816 5.46544 1.45966 0
M  V30 2006 H 178.373 6.3855 1.30757 0
M  V30 2007 N 181.806 0.884767 1.30421 0
M  V30 2008 C 183.036 0.517293 2.00019 0
M  V30 2009 C 183.444 -0.898632 1.66497 0
M  V30 2010 O 182.787 -1.60245 0.898181 0
M  V30 2011 C 182.849 0.612025 3.54252 0
M  V30 2012 C 182.513 1.99222 4.1129 0
M  V30 2013 C 183.51 2.9616 4.273 0
M  V30 2014 C 181.195 2.29755 4.46674 0
M  V30 2015 C 183.189 4.21764 4.77906 0
M  V30 2016 C 180.876 3.55606 4.96979 0
M  V30 2017 C 181.874 4.51425 5.12547 0
M  V30 2018 O 181.562 5.75043 5.61766 0
M  V30 2019 H 181.294 0.198529 0.64619 0
M  V30 2020 H 183.848 1.1919 1.67281 0
M  V30 2021 H 182.078 -0.119561 3.86515 0
M  V30 2022 H 183.767 0.255859 4.05093 0
M  V30 2023 H 184.533 2.73882 4.00267 0
M  V30 2024 H 180.412 1.55942 4.33824 0
M  V30 2025 H 183.956 4.96561 4.89972 0
M  V30 2026 H 179.853 3.7772 5.23448 0
M  V30 2027 H 180.621 5.77422 5.80109 0
M  V30 2028 N 183.284 -1.43765 0.645699 0
M  V30 2029 C 184.53 -2.02731 0.164844 0
M  V30 2030 C 184.885 -1.49983 -1.2051 0
M  V30 2031 O 184.178 -0.680208 -1.79119 0
M  V30 2032 C 184.372 -3.57238 0.107679 0
M  V30 2033 C 184.201 -4.24977 1.47054 0
M  V30 2034 C 182.971 -4.61356 2.06103 0
M  V30 2035 C 185.169 -4.54476 2.40741 0
M  V30 2036 N 183.151 -5.14132 3.35473 0
M  V30 2037 C 184.522 -5.08489 3.54737 0
M  V30 2038 C 186.577 -4.36438 2.39637 0
M  V30 2039 C 185.28 -5.46364 4.67845 0
M  V30 2040 C 187.306 -4.7537 3.5182 0
M  V30 2041 C 186.668 -5.2951 4.64541 0
M  V30 2042 H 182.767 -0.774976 0.104578 0
M  V30 2043 H 185.351 -1.75051 0.852367 0
M  V30 2044 H 183.522 -3.84498 -0.549165 0
M  V30 2045 H 185.254 -4.0288 -0.383351 0
M  V30 2046 H 182.009 -4.46151 1.58892 0
M  V30 2047 H 182.433 -5.4498 4.01654 0
M  V30 2048 H 187.075 -3.93861 1.53731 0
M  V30 2049 H 184.793 -5.87888 5.54448 0
M  V30 2050 H 188.379 -4.63115 3.52159 0
M  V30 2051 H 187.259 -5.59077 5.49911 0
M  V30 2052 N 184.763 -0.387143 -1.52771 0
M  V30 2053 C 186.174 0.0873634 -1.86495 0
M  V30 2054 C 186.525 1.46336 -1.30691 0
M  V30 2055 O 185.65 2.068 -0.637409 0
M  V30 2056 C 186.245 0.165305 -3.38396 0
M  V30 2057 C 184.804 0.584101 -3.7184 0
M  V30 2058 C 183.951 -0.255279 -2.76122 0
M  V30 2059 H 186.902 -0.605104 -1.46711 0
M  V30 2060 H 186.923 0.984848 -3.67534 0
M  V30 2061 H 186.435 -0.836301 -3.78982 0
M  V30 2062 H 184.536 1.59315 -3.36823 0
M  V30 2063 H 184.649 0.343749 -4.77865 0
M  V30 2064 H 183.013 0.279126 -2.53166 0
M  V30 2065 H 183.796 -1.25482 -3.19545 0
M  V30 2066 N 186.241 1.57166 -0.116904 0
M  V30 2067 C 187.173 2.12271 0.864507 0
M  V30 2068 C 188.186 1.06494 1.23138 0
M  V30 2069 O 189.375 1.33873 1.18069 0
M  V30 2070 C 186.475 2.60564 2.16702 0
M  V30 2071 C 185.648 3.90416 1.97216 0
M  V30 2072 C 184.707 4.24329 3.11178 0
M  V30 2073 O 183.733 4.93182 2.84184 0
M  V30 2074 N 184.935 3.8148 4.37554 0
M  V30 2075 H 187.7 2.97102 0.393726 0
M  V30 2076 H 185.261 1.61759 0.0675805 0
M  V30 2077 H 187.253 2.80282 2.91932 0
M  V30 2078 H 185.823 1.80623 2.55135 0
M  V30 2079 H 185.043 3.79627 1.06192 0
M  V30 2080 H 186.331 4.75327 1.81499 0
M  V30 2081 H 185.729 3.25943 4.62361 0
M  V30 2082 H 184.286 4.06311 5.09661 0
M  V30 2083 N 187.719 -0.156864 1.56817 0
M  V30 2084 C 188.666 -1.19394 1.97519 0
M  V30 2085 C 189.636 -1.4322 0.841265 0
M  V30 2086 O 190.821 -1.55719 1.10255 0
M  V30 2087 C 187.961 -2.52483 2.35258 0
M  V30 2088 C 187.074 -2.35914 3.61896 0
M  V30 2089 C 186.209 -3.61969 3.88782 0
M  V30 2090 C 185.248 -3.40395 5.08722 0
M  V30 2091 N 184.385 -4.58556 5.31668 0
M  V30 2092 H 189.225 -0.839845 2.85921 0
M  V30 2093 H 186.762 -0.403264 1.41464 0
M  V30 2094 H 188.72 -3.30071 2.55165 0
M  V30 2095 H 187.35 -2.85859 1.49949 0
M  V30 2096 H 186.402 -1.49429 3.49821 0
M  V30 2097 H 187.714 -2.15926 4.49641 0
M  V30 2098 H 186.868 -4.47989 4.09135 0
M  V30 2099 H 185.607 -3.84951 2.9944 0
M  V30 2100 H 184.612 -2.52763 4.88253 0
M  V30 2101 H 185.837 -3.18822 5.99608 0
M  V30 2102 H 183.783 -4.81729 4.45279 0
M  V30 2103 H 183.7 -4.41535 6.13664 0
M  V30 2104 H 184.968 -5.45817 5.5651 0
M  V30 2105 N 189.197 -1.51736 -0.425897 0
M  V30 2106 C 190.107 -1.76738 -1.54275 0
M  V30 2107 C 191.123 -0.65211 -1.61318 0
M  V30 2108 O 192.299 -0.935654 -1.78346 0
M  V30 2109 C 189.364 -1.89755 -2.90162 0
M  V30 2110 C 188.425 -3.13633 -2.93143 0
M  V30 2111 C 187.658 -3.2602 -4.22548 0
M  V30 2112 O 187.881 -2.44067 -5.15546 0
M  V30 2113 O 186.815 -4.19071 -4.32046 0
M  V30 2114 H 190.641 -2.71502 -1.36089 0
M  V30 2115 H 188.226 -1.36376 -0.610069 0
M  V30 2116 H 190.108 -2.00236 -3.70788 0
M  V30 2117 H 188.783 -0.981785 -3.08452 0
M  V30 2118 H 187.69 -3.08622 -2.11431 0
M  V30 2119 H 189.023 -4.04936 -2.798 0
M  V30 2120 N 190.675 0.682077 -1.42076 0
M  V30 2121 C 191.585 1.82535 -1.47371 0
M  V30 2122 C 192.601 1.7017 -0.363079 0
M  V30 2123 O 193.777 1.91848 -0.612875 0
M  V30 2124 C 190.842 3.18624 -1.36674 0
M  V30 2125 C 189.903 3.42999 -2.58167 0
M  V30 2126 C 189.136 4.72595 -2.4797 0
M  V30 2127 O 189.359 5.50006 -1.5116 0
M  V30 2128 O 188.293 4.98054 -3.37974 0
M  V30 2129 H 192.119 1.81023 -2.43853 0
M  V30 2130 H 189.704 0.836887 -1.2376 0
M  V30 2131 H 191.586 3.99847 -1.33043 0
M  V30 2132 H 190.261 3.20789 -0.433138 0
M  V30 2133 H 189.168 2.61653 -2.67373 0
M  V30 2134 H 190.501 3.45659 -3.50401 0
M  V30 2135 N 192.153 1.28127 0.917671 0
M  V30 2136 C 193.1 1.11717 2.0196 0
M  V30 2137 C 194.07 0.0153929 1.66093 0
M  V30 2138 O 195.255 0.179596 1.89953 0
M  V30 2139 C 192.395 0.780927 3.36148 0
M  V30 2140 C 191.508 1.96135 3.84909 0
M  V30 2141 C 190.643 1.56609 5.0759 0
M  V30 2142 C 189.682 2.71339 5.48673 0
M  V30 2143 N 188.819 2.32332 6.62545 0
M  V30 2144 H 193.659 2.06003 2.15329 0
M  V30 2145 H 191.196 1.02535 1.05475 0
M  V30 2146 H 193.154 0.56675 4.13333 0
M  V30 2147 H 191.784 -0.124998 3.22558 0
M  V30 2148 H 190.836 2.28777 3.03916 0
M  V30 2149 H 192.148 2.82165 4.1132 0
M  V30 2150 H 191.302 1.31374 5.92305 0
M  V30 2151 H 190.041 0.677014 4.82978 0
M  V30 2152 H 189.046 2.97276 4.62501 0
M  V30 2153 H 190.271 3.60882 5.75274 0
M  V30 2154 H 188.217 1.45889 6.39572 0
M  V30 2155 H 188.134 3.11899 6.88662 0
M  V30 2156 H 189.402 2.10371 7.50576 0
M  V30 2157 N 193.631 -1.12557 1.10312 0
M  V30 2158 C 194.541 -2.21841 0.763142 0
M  V30 2159 C 195.557 -1.72354 -0.238801 0
M  V30 2160 O 196.733 -2.01249 -0.0778746 0
M  V30 2161 C 193.798 -3.46131 0.198632 0
M  V30 2162 C 192.859 -4.10464 1.25769 0
M  V30 2163 C 192.092 -5.28821 0.72002 0
M  V30 2164 O 192.315 -5.6859 -0.453993 0
M  V30 2165 O 191.249 -5.83437 1.47935 0
M  V30 2166 H 195.075 -2.53312 1.67532 0
M  V30 2167 H 192.66 -1.20867 0.878157 0
M  V30 2168 H 194.542 -4.2125 -0.112401 0
M  V30 2169 H 193.217 -3.16338 -0.686419 0
M  V30 2170 H 192.124 -3.3713 1.62156 0
M  V30 2171 H 193.457 -4.44408 2.11571 0
M  V30 2172 N 195.109 -0.891671 -1.2995 0
M  V30 2173 C 196.042 -0.307994 -2.26112 0
M  V30 2174 C 197.02 0.575262 -1.52084 0
M  V30 2175 O 198.204 0.523864 -1.81074 0
M  V30 2176 C 195.331 0.561734 -3.34009 0
M  V30 2177 C 194.377 -0.253107 -4.25748 0
M  V30 2178 S 195.21 -1.64572 -5.09584 0
M  V30 2179 C 196.366 -0.782699 -6.20987 0
M  V30 2180 H 196.599 -1.12309 -2.75271 0
M  V30 2181 H 194.132 -0.691509 -1.38049 0
M  V30 2182 H 196.09 1.05777 -3.96638 0
M  V30 2183 H 194.751 1.35099 -2.83561 0
M  V30 2184 H 193.944 0.410908 -5.02322 0
M  V30 2185 H 193.546 -0.682004 -3.67729 0
M  V30 2186 H 195.838 -0.00257476 -6.775 0
M  V30 2187 H 196.781 -1.52026 -6.91588 0
M  V30 2188 H 197.189 -0.340638 -5.63471 0
M  V30 2189 N 196.587 1.43421 -0.653314 0
M  V30 2190 C 197.836 2.01032 -0.164076 0
M  V30 2191 C 198.149 1.52147 1.22926 0
M  V30 2192 O 199.355 2.02031 1.81371 0
M  V30 2193 C 197.811 3.59082 -0.24252 0
M  V30 2194 C 197.419 4.1696 -1.63855 0
M  V30 2195 C 199.163 4.24079 0.18911 0
M  V30 2196 C 197.07 5.67304 -1.67092 0
M  V30 2197 H 196 0.751798 -0.0575769 0
M  V30 2198 H 198.651 1.6439 -0.815362 0
M  V30 2199 H 197.033 3.93125 0.476276 0
M  V30 2200 H 198.207 3.94416 -2.38271 0
M  V30 2201 H 196.522 3.64335 -2.01616 0
M  V30 2202 H 199.119 5.34381 0.184775 0
M  V30 2203 H 199.462 3.98005 1.22056 0
M  V30 2204 H 199.995 3.94918 -0.477938 0
M  V30 2205 H 196.734 5.98145 -2.68146 0
M  V30 2206 H 196.254 5.91904 -0.970014 0
M  V30 2207 H 197.933 6.31344 -1.4147 0
M  V30 2208 N 198.065 0.39524 1.52563 0
M  V30 2209 C 199.312 -0.185044 2.01653 0
M  V30 2210 C 199.64 -1.46317 1.28146 0
M  V30 2211 O 198.895 -1.9213 0.372074 0
M  V30 2212 C 199.194 -0.493444 3.53977 0
M  V30 2213 C 198.86 0.69384 4.4553 0
M  V30 2214 C 197.522 1.01954 4.70275 0
M  V30 2215 C 199.874 1.48785 4.99512 0
M  V30 2216 C 197.202 2.14069 5.46252 0
M  V30 2217 C 199.554 2.59965 5.76716 0
M  V30 2218 C 198.218 2.93037 5.99738 0
M  V30 2219 H 197.488 -0.0677123 0.7379 0
M  V30 2220 H 200.135 0.533807 1.8391 0
M  V30 2221 H 198.44 -1.29369 3.69825 0
M  V30 2222 H 200.137 -0.955163 3.89458 0
M  V30 2223 H 196.727 0.429987 4.26438 0
M  V30 2224 H 200.911 1.24946 4.80315 0
M  V30 2225 H 196.167 2.40056 5.62302 0
M  V30 2226 H 200.341 3.21887 6.17545 0
M  V30 2227 H 197.968 3.8003 6.58393 0
M  V30 2228 N 199.544 -1.57102 0.125237 0
M  V30 2229 C 200.454 -2.19191 -0.8362 0
M  V30 2230 C 201.47 -1.16985 -1.28805 0
M  V30 2231 O 202.646 -1.49479 -1.34974 0
M  V30 2232 C 199.711 -2.78407 -2.06617 0
M  V30 2233 C 198.772 -3.9567 -1.66565 0
M  V30 2234 C 198.005 -4.52052 -2.83698 0
M  V30 2235 O 198.228 -4.07326 -3.99302 0
M  V30 2236 O 197.162 -5.42645 -2.60423 0
M  V30 2237 H 200.988 -3.01816 -0.337776 0
M  V30 2238 H 198.573 -1.4906 -0.100695 0
M  V30 2239 H 200.455 -3.16129 -2.7864 0
M  V30 2240 H 199.13 -1.9881 -2.55453 0
M  V30 2241 H 198.037 -3.62705 -0.916296 0
M  V30 2242 H 199.37 -4.76722 -1.22464 0
M  V30 2243 N 201.022 0.148545 -1.56898 0
M  V30 2244 C 202.299 0.890019 -1.74178 0
M  V30 2245 C 202.679 1.99407 -0.692839 0
M  V30 2246 O 202.027 2.26671 0.288505 0
M  V30 2247 C 202.237 1.43389 -3.18183 0
M  V30 2248 C 203.585 1.89791 -3.79822 0
M  V30 2249 O 204.609 1.53134 -3.21603 0
M  V30 2250 O 203.468 2.57387 -4.82093 0
M  V30 2251 H 200.562 0.420496 -0.712118 0
M  V30 2252 H 203.108 0.134591 -1.69165 0
M  V30 2253 H 201.88 0.640383 -3.86024 0
M  V30 2254 H 201.503 2.25287 -3.27615 0
M  V30 2255 N 202.5 1.5196 0.417844 0
M  V30 2256 C 203.728 1.69426 1.18753 0
M  V30 2257 C 204.143 0.399955 1.84515 0
M  V30 2258 O 203.5 -0.623288 1.71527 0
M  V30 2259 C 203.551 2.82375 2.25714 0
M  V30 2260 O 203.272 4.06793 1.62638 0
M  V30 2261 C 204.773 3.11277 3.15628 0
M  V30 2262 H 201.993 0.568031 0.357186 0
M  V30 2263 H 204.537 1.98475 0.49273 0
M  V30 2264 H 202.692 2.5587 2.90877 0
M  V30 2265 H 203.106 4.69667 2.3348 0
M  V30 2266 H 204.58 3.93843 3.86771 0
M  V30 2267 H 205.057 2.24473 3.77503 0
M  V30 2268 H 205.663 3.39515 2.56144 0
M  V30 2269 N 203.978 -0.674533 1.42435 0
M  V30 2270 C 204.926 -1.80934 1.46169 0
M  V30 2271 C 205.92 -1.66006 0.3374 0
M  V30 2272 O 207.126 -1.72611 0.510425 0
M  V30 2273 H 203.501 -0.596594 0.457798 0
M  V30 2274 H 205.472 -1.74903 2.41767 0
M  V30 2275 C 204.221 -3.19088 1.38123 0
M  V30 2276 H 203.544 -3.31203 2.23931 0
M  V30 2277 H 204.984 -3.9851 1.44797 0
M  V30 2278 C 203.443 -3.36763 0.0960517 0
M  V30 2279 O 203.973 -3.92581 -0.851073 0
M  V30 2280 N 202.179 -2.90597 0.0131186 0
M  V30 2281 H 201.726 -2.45359 0.784639 0
M  V30 2282 H 201.684 -3.028 -0.846133 0
M  V30 2283 N 205.456 -1.28612 -0.910864 0
M  V30 2284 C 206.386 -1.15326 -2.03032 0
M  V30 2285 C 207.367 -0.0502924 -1.70026 0
M  V30 2286 O 208.552 -0.227797 -1.92859 0
M  V30 2287 C 205.682 -0.817343 -3.37545 0
M  V30 2288 C 204.636 -1.8754 -3.84724 0
M  V30 2289 C 203.962 -1.39305 -5.16235 0
M  V30 2290 C 205.262 -3.28244 -4.06267 0
M  V30 2291 H 206.956 -2.08975 -2.14406 0
M  V30 2292 H 204.502 -1.00612 -1.03021 0
M  V30 2293 H 206.455 -0.711151 -4.15356 0
M  V30 2294 H 205.179 0.154846 -3.26233 0
M  V30 2295 H 203.838 -1.97079 -3.09121 0
M  V30 2296 H 203.486 -0.409846 -5.01328 0
M  V30 2297 H 203.186 -2.10057 -5.48771 0
M  V30 2298 H 204.71 -1.30014 -5.96598 0
M  V30 2299 H 206.124 -3.21611 -4.74594 0
M  V30 2300 H 204.521 -3.96855 -4.5014 0
M  V30 2301 H 205.591 -3.72048 -3.10979 0
M  V30 2302 N 206.934 1.1197 -1.10907 0
M  V30 2303 C 207.881 2.17846 -0.762345 0
M  V30 2304 C 208.851 1.63995 0.263599 0
M  V30 2305 O 210.036 1.90273 0.141773 0
M  V30 2306 C 207.176 3.44487 -0.205651 0
M  V30 2307 C 206.289 4.12369 -1.28748 0
M  V30 2308 C 205.424 5.26674 -0.691919 0
M  V30 2309 C 204.463 5.86431 -1.75399 0
M  V30 2310 N 203.6 6.92142 -1.17833 0
M  V30 2311 H 208.44 2.46851 -1.6694 0
M  V30 2312 H 205.977 1.21188 -0.833776 0
M  V30 2313 H 207.935 4.16981 0.135037 0
M  V30 2314 H 206.565 3.15884 0.664613 0
M  V30 2315 H 205.617 3.38003 -1.74522 0
M  V30 2316 H 206.929 4.52844 -2.09125 0
M  V30 2317 H 206.083 6.05953 -0.300963 0
M  V30 2318 H 204.822 4.8749 0.143232 0
M  V30 2319 H 203.827 5.05835 -2.15432 0
M  V30 2320 H 205.052 6.27685 -2.59208 0
M  V30 2321 H 202.998 6.54985 -0.364725 0
M  V30 2322 H 202.915 7.31242 -1.91887 0
M  V30 2323 H 204.183 7.75237 -0.81408 0
M  V30 2324 N 208.412 0.89855 1.29475 0
M  V30 2325 C 209.342 0.39201 2.30186 0
M  V30 2326 C 210.323 -0.532359 1.61555 0
M  V30 2327 O 211.508 -0.443331 1.89072 0
M  V30 2328 C 208.638 -0.382353 3.45189 0
M  V30 2329 C 207.592 0.451483 4.25612 0
M  V30 2330 C 206.918 -0.450307 5.328 0
M  V30 2331 C 208.218 1.70079 4.93832 0
M  V30 2332 H 209.912 1.23362 2.72804 0
M  V30 2333 H 207.458 0.594638 1.31149 0
M  V30 2334 H 209.411 -0.747451 4.14718 0
M  V30 2335 H 208.135 -1.25774 3.01411 0
M  V30 2336 H 206.794 0.798897 3.57789 0
M  V30 2337 H 206.442 -1.32379 4.85268 0
M  V30 2338 H 206.142 0.103902 5.87508 0
M  V30 2339 H 207.666 -0.811623 6.05182 0
M  V30 2340 H 209.08 1.40549 5.55805 0
M  V30 2341 H 207.477 2.19623 5.58467 0
M  V30 2342 H 208.547 2.43744 4.19186 0
M  V30 2343 N 209.89 -1.43072 0.660911 0
M  V30 2344 C 211.118 -2.06067 0.185422 0
M  V30 2345 C 211.533 -1.49582 -1.15198 0
M  V30 2346 O 210.89 -0.630134 -1.71276 0
M  V30 2347 C 210.941 -3.61371 0.0966523 0
M  V30 2348 O 210.662 -4.15758 1.38119 0
M  V30 2349 C 212.163 -4.41455 -0.403996 0
M  V30 2350 H 209.383 -0.664459 0.0934604 0
M  V30 2351 H 211.927 -1.83447 0.90373 0
M  V30 2352 H 210.082 -3.8315 -0.572259 0
M  V30 2353 H 210.496 -5.09499 1.24542 0
M  V30 2354 H 211.97 -5.50437 -0.415045 0
M  V30 2355 H 212.447 -4.15036 -1.43674 0
M  V30 2356 H 213.053 -4.24663 0.232691 0
M  V30 2357 N 211.368 -0.403325 -1.52352 0
M  V30 2358 C 212.298 0.416205 -2.29761 0
M  V30 2359 C 213.279 1.05123 -1.33728 0
M  V30 2360 O 214.464 1.06134 -1.62632 0
M  V30 2361 C 211.594 1.53624 -3.11475 0
M  V30 2362 C 210.548 1.02653 -4.15507 0
M  V30 2363 C 209.874 2.23971 -4.85532 0
M  V30 2364 C 211.174 0.08463 -5.22231 0
M  V30 2365 H 212.868 -0.229701 -2.98518 0
M  V30 2366 H 210.414 -0.111913 -1.43564 0
M  V30 2367 H 212.367 2.1165 -3.64393 0
M  V30 2368 H 211.091 2.20994 -2.40477 0
M  V30 2369 H 209.75 0.46871 -3.63591 0
M  V30 2370 H 209.398 2.89883 -4.11068 0
M  V30 2371 H 209.098 1.90521 -5.55856 0
M  V30 2372 H 210.622 2.82614 -5.41259 0
M  V30 2373 H 212.036 0.573509 -5.70424 0
M  V30 2374 H 210.433 -0.160783 -5.99885 0
M  V30 2375 H 211.503 -0.86237 -4.7717 0
M  V30 2376 N 212.846 1.57033 -0.133567 0
M  V30 2377 C 214.095 1.94861 0.520768 0
M  V30 2378 C 214.408 1.02012 1.66892 0
M  V30 2379 O 215.614 1.29365 2.38699 0
M  V30 2380 C 214.07 3.46362 0.977809 0
M  V30 2381 C 213.678 4.47773 -0.142674 0
M  V30 2382 C 215.422 3.93083 1.60269 0
M  V30 2383 C 213.329 5.90468 0.331883 0
M  V30 2384 H 212.259 0.727453 0.198315 0
M  V30 2385 H 214.91 1.82227 -0.215759 0
M  V30 2386 H 213.292 3.54282 1.7692 0
M  V30 2387 H 214.466 4.51536 -0.919317 0
M  V30 2388 H 212.781 4.10891 -0.675124 0
M  V30 2389 H 215.378 4.97121 1.96914 0
M  V30 2390 H 215.721 3.33876 2.48662 0
M  V30 2391 H 216.254 3.88025 0.876453 0
M  V30 2392 H 212.993 6.53463 -0.516341 0
M  V30 2393 H 212.513 5.90094 1.07469 0
M  V30 2394 H 214.192 6.42179 0.788332 0
M  V30 2395 N 214.325 -0.140222 1.56975 0
M  V30 2396 C 215.55 -0.870414 1.88251 0
M  V30 2397 C 215.975 -1.73637 0.723312 0
M  V30 2398 O 215.333 -1.78329 -0.32689 0
M  V30 2399 C 215.381 -1.69737 3.18154 0
M  V30 2400 O 214.485 -2.80229 3.02565 0
M  V30 2401 H 213.826 -0.242025 0.61832 0
M  V30 2402 H 216.356 -0.128999 2.04193 0
M  V30 2403 H 216.366 -2.09099 3.50345 0
M  V30 2404 H 215.041 -1.06152 4.02125 0
M  V30 2405 H 213.618 -2.44224 2.81796 0
M  V30 2406 N 215.803 -1.52179 -0.40978 0
M  V30 2407 C 216.713 -1.78364 -1.52392 0
M  V30 2408 C 217.729 -0.669183 -1.60617 0
M  V30 2409 O 218.905 -0.954518 -1.77344 0
M  V30 2410 C 215.97 -1.92822 -2.88133 0
M  V30 2411 C 215.031 -3.16725 -2.898 0
M  V30 2412 C 214.264 -3.30483 -4.19067 0
M  V30 2413 O 214.487 -2.49522 -5.12928 0
M  V30 2414 O 213.421 -4.2363 -4.27576 0
M  V30 2415 H 217.247 -2.72931 -1.33201 0
M  V30 2416 H 214.832 -1.37016 -0.59557 0
M  V30 2417 H 216.714 -2.04157 -3.68643 0
M  V30 2418 H 215.389 -1.01444 -3.07393 0
M  V30 2419 H 214.296 -3.10848 -2.08146 0
M  V30 2420 H 215.629 -4.07881 -2.75489 0
M  V30 2421 N 217.281 0.66697 -1.42791 0
M  V30 2422 C 218.558 1.4234 -1.34159 0
M  V30 2423 C 218.938 2.11093 0.0172729 0
M  V30 2424 O 218.286 2.03808 1.03318 0
M  V30 2425 C 218.496 2.41942 -2.51526 0
M  V30 2426 C 219.844 3.06353 -2.93995 0
M  V30 2427 O 220.868 2.52269 -2.51473 0
M  V30 2428 O 219.727 4.04376 -3.67617 0
M  V30 2429 H 216.821 0.635277 -0.529483 0
M  V30 2430 H 219.367 0.695034 -1.54814 0
M  V30 2431 H 218.139 1.89991 -3.42081 0
M  V30 2432 H 217.762 3.22249 -2.32898 0
M  V30 2433 N 218.759 1.29093 0.90403 0
M  V30 2434 C 220.008 1.16187 1.64874 0
M  V30 2435 C 220.321 -0.286742 1.93487 0
M  V30 2436 O 221.527 -0.537062 2.66135 0
M  V30 2437 C 219.983 2.03177 2.97064 0
M  V30 2438 C 219.591 3.52836 2.76062 0
M  V30 2439 C 221.335 1.98984 3.74974 0
M  V30 2440 C 219.242 4.31945 4.03952 0
M  V30 2441 H 218.172 0.431246 0.618501 0
M  V30 2442 H 220.823 1.53699 1.00243 0
M  V30 2443 H 219.205 1.5853 3.62883 0
M  V30 2444 H 220.379 4.05507 2.18863 0
M  V30 2445 H 218.694 3.58656 2.11553 0
M  V30 2446 H 221.291 2.55351 4.69787 0
M  V30 2447 H 221.634 0.968815 4.0487 0
M  V30 2448 H 222.167 2.41652 3.15989 0
M  V30 2449 H 218.906 5.34667 3.79225 0
M  V30 2450 H 218.426 3.84045 4.60727 0
M  V30 2451 H 220.105 4.42379 4.72133 0
M  V30 2452 N 220.237 -1.11381 1.11499 0
M  V30 2453 C 221.184 -2.17439 0.773887 0
M  V30 2454 C 222.154 -1.64132 -0.254899 0
M  V30 2455 O 223.339 -1.90345 -0.13168 0
M  V30 2456 C 220.479 -3.44373 0.223917 0
M  V30 2457 C 219.592 -4.1168 1.30934 0
M  V30 2458 C 218.727 -5.263 0.71984 0
M  V30 2459 C 217.766 -5.85493 1.78507 0
M  V30 2460 N 216.903 -6.91507 1.21502 0
M  V30 2461 H 221.743 -2.45962 1.68246 0
M  V30 2462 H 219.28 -1.20744 0.840191 0
M  V30 2463 H 221.238 -4.17047 -0.112921 0
M  V30 2464 H 219.868 -3.16232 -0.647851 0
M  V30 2465 H 218.92 -3.37073 1.76312 0
M  V30 2466 H 220.232 -4.51729 2.11524 0
M  V30 2467 H 219.386 -6.05785 0.333094 0
M  V30 2468 H 218.125 -4.87559 -0.117377 0
M  V30 2469 H 217.13 -5.04686 2.18111 0
M  V30 2470 H 218.355 -6.26301 2.62533 0
M  V30 2471 H 216.301 -6.54783 0.399455 0
M  V30 2472 H 216.218 -7.30214 1.95763 0
M  V30 2473 H 217.486 -7.74795 0.855181 0
M  V30 2474 N 221.715 -0.905404 -1.28997 0
M  V30 2475 C 222.94 -0.549175 -1.99997 0
M  V30 2476 C 223.365 0.860276 -1.67275 0
M  V30 2477 O 222.723 1.57355 -0.900502 0
M  V30 2478 C 222.771 -0.755185 -3.52604 0
M  V30 2479 O 221.875 0.189692 -4.11964 0
M  V30 2480 H 221.216 -0.213899 -0.628604 0
M  V30 2481 H 223.746 -1.21856 -1.64354 0
M  V30 2482 H 223.756 -0.662045 -4.02593 0
M  V30 2483 H 222.431 -1.78271 -3.75755 0
M  V30 2484 H 221.008 0.0485257 -3.72868 0
M  V30 2485 N 223.193 1.4272 -0.668489 0
M  V30 2486 C 224.423 2.05668 -0.196063 0
M  V30 2487 C 224.831 1.5028 1.14946 0
M  V30 2488 O 224.174 0.6348 1.72383 0
M  V30 2489 C 224.236 3.59469 -0.0468879 0
M  V30 2490 C 223.9 4.37518 -1.32012 0
M  V30 2491 C 224.897 4.68584 -2.25222 0
M  V30 2492 C 222.582 4.77266 -1.56596 0
M  V30 2493 C 224.576 5.38326 -3.41297 0
M  V30 2494 C 222.263 5.4675 -2.72962 0
M  V30 2495 C 223.261 5.77204 -3.65137 0
M  V30 2496 O 222.949 6.45264 -4.79468 0
M  V30 2497 H 222.681 0.669382 -0.0943599 0
M  V30 2498 H 225.235 1.83954 -0.913788 0
M  V30 2499 H 223.465 3.79817 0.726357 0
M  V30 2500 H 225.154 4.04071 0.384852 0
M  V30 2501 H 225.92 4.38382 -2.07477 0
M  V30 2502 H 221.799 4.52959 -0.857249 0
M  V30 2503 H 225.343 5.62014 -4.13263 0
M  V30 2504 H 221.24 5.76369 -2.90635 0
M  V30 2505 H 222.008 6.63753 -4.78931 0
M  V30 2506 N 224.671 0.411399 1.52136 0
M  V30 2507 C 225.901 -0.16284 2.05957 0
M  V30 2508 C 226.309 -1.3922 1.28119 0
M  V30 2509 O 225.652 -1.80768 0.326881 0
M  V30 2510 C 225.714 -0.575946 3.54856 0
M  V30 2511 C 225.378 0.542998 4.53763 0
M  V30 2512 C 226.375 1.40726 5.00492 0
M  V30 2513 C 224.06 0.716337 4.97166 0
M  V30 2514 C 226.054 2.4298 5.8927 0
M  V30 2515 C 223.741 1.74218 5.8574 0
M  V30 2516 C 224.739 2.59731 6.31687 0
M  V30 2517 O 224.427 3.60558 7.18507 0
M  V30 2518 H 224.159 -0.0229125 0.675612 0
M  V30 2519 H 226.713 0.581634 1.96993 0
M  V30 2520 H 224.943 -1.37274 3.61515 0
M  V30 2521 H 226.632 -1.07836 3.91313 0
M  V30 2522 H 227.398 1.28476 4.67674 0
M  V30 2523 H 223.277 0.0603857 4.6096 0
M  V30 2524 H 226.821 3.0976 6.25055 0
M  V30 2525 H 222.718 1.86498 6.17971 0
M  V30 2526 H 223.486 3.56829 7.36624 0
M  V30 2527 N 226.149 -1.5696 0.141893 0
M  V30 2528 C 227.377 -2.00322 -0.517579 0
M  V30 2529 C 227.792 -1.02193 -1.58752 0
M  V30 2530 O 227.149 -0.0181619 -1.82491 0
M  V30 2531 C 227.2 -3.43618 -1.12289 0
M  V30 2532 O 226.921 -4.37995 -0.0956929 0
M  V30 2533 C 228.422 -4.02231 -1.86347 0
M  V30 2534 H 225.642 -0.657243 -0.135177 0
M  V30 2535 H 228.186 -2.03146 0.234973 0
M  V30 2536 H 226.341 -3.41662 -1.82609 0
M  V30 2537 H 226.755 -5.21729 -0.538469 0
M  V30 2538 H 228.229 -5.04509 -2.23997 0
M  V30 2539 H 228.706 -3.42655 -2.74744 0
M  V30 2540 H 229.312 -4.07802 -1.20737 0
M  V30 2541 N 227.627 0.131896 -1.57047 0
M  V30 2542 C 228.873 0.843179 -1.84441 0
M  V30 2543 C 229.206 1.80129 -0.725749 0
M  V30 2544 O 228.481 1.92624 0.269469 0
M  V30 2545 C 228.764 1.60442 -3.22382 0
M  V30 2546 C 228.617 0.666782 -4.4483 0
M  V30 2547 C 229.936 2.56354 -3.5773 0
M  V30 2548 H 227.055 0.305081 -0.670891 0
M  V30 2549 H 229.697 0.107839 -1.89694 0
M  V30 2550 H 227.847 2.23128 -3.18035 0
M  V30 2551 H 229.519 0.0497646 -4.61273 0
M  V30 2552 H 227.762 -0.022609 -4.33794 0
M  V30 2553 H 228.433 1.23579 -5.37989 0
M  V30 2554 H 230.909 2.0378 -3.62785 0
M  V30 2555 H 229.785 3.06657 -4.5525 0
M  V30 2556 H 230.046 3.38419 -2.84473 0
M  V30 2557 N 229.106 1.52395 0.401703 0
M  V30 2558 C 230.522 1.41363 0.740864 0
M  V30 2559 C 230.722 0.523982 1.94568 0
M  V30 2560 O 229.778 -0.00741204 2.52499 0
M  V30 2561 C 231.091 2.84011 0.987847 0
M  V30 2562 C 232.639 2.93404 1.09011 0
M  V30 2563 C 233.114 4.37036 1.3698 0
M  V30 2564 N 234.605 4.40304 1.43829 0
M  V30 2565 C 235.34 5.48508 1.67112 0
M  V30 2566 N 234.836 6.66819 1.87949 0
M  V30 2567 N 236.629 5.36034 1.69187 0
M  V30 2568 H 228.78 2.08765 -0.391262 0
M  V30 2569 H 231.043 0.941265 -0.112798 0
M  V30 2570 H 230.749 3.51265 0.174835 0
M  V30 2571 H 230.623 3.25502 1.906 0
M  V30 2572 H 233.01 2.26325 1.8937 0
M  V30 2573 H 233.091 2.55359 0.15015 0
M  V30 2574 H 232.735 5.04676 0.571353 0
M  V30 2575 H 232.665 4.72623 2.3224 0
M  V30 2576 H 235.156 3.55024 1.29486 0
M  V30 2577 H 235.469 7.45063 2.05185 0
M  V30 2578 H 233.814 6.6987 1.85199 0
M  V30 2579 H 237.005 4.42579 1.52451 0
M  V30 2580 H 237.178 6.20434 1.86993 0
M  V30 2581 N 230.584 -0.659388 1.43143 0
M  V30 2582 C 231.516 -1.7849 1.43784 0
M  V30 2583 C 232.529 -1.5932 0.334787 0
M  V30 2584 O 233.718 -1.68155 0.598842 0
M  V30 2585 C 230.818 -3.15828 1.22906 0
M  V30 2586 C 229.991 -3.61711 2.45934 0
M  V30 2587 C 229.05 -4.77831 2.20371 0
M  V30 2588 O 228.076 -4.87586 2.93681 0
M  V30 2589 N 229.278 -5.67611 1.21647 0
M  V30 2590 H 232.043 -1.7842 2.40803 0
M  V30 2591 H 229.604 -0.84302 1.3822 0
M  V30 2592 H 231.596 -3.91189 1.03697 0
M  V30 2593 H 230.166 -3.10707 0.343542 0
M  V30 2594 H 229.386 -2.76861 2.80609 0
M  V30 2595 H 230.674 -3.89112 3.27825 0
M  V30 2596 H 230.072 -5.62397 0.610449 0
M  V30 2597 H 228.629 -6.42719 1.08423 0
M  V30 2598 N 232.062 -1.29571 -0.897171 0
M  V30 2599 C 232.992 -1.17473 -2.01798 0
M  V30 2600 C 233.973 -0.068323 -1.69963 0
M  V30 2601 O 235.158 -0.248239 -1.92607 0
M  V30 2602 C 232.288 -0.853099 -3.36659 0
M  V30 2603 C 231.242 -1.9161 -3.82713 0
M  V30 2604 C 230.568 -1.44773 -5.14728 0
M  V30 2605 C 231.868 -3.32535 -4.02763 0
M  V30 2606 H 233.562 -2.11237 -2.12177 0
M  V30 2607 H 231.108 -1.01699 -1.01948 0
M  V30 2608 H 233.061 -0.755165 -4.14578 0
M  V30 2609 H 231.785 0.120236 -3.26379 0
M  V30 2610 H 230.444 -2.00346 -3.07013 0
M  V30 2611 H 230.092 -0.462995 -5.00865 0
M  V30 2612 H 229.792 -2.15865 -5.46513 0
M  V30 2613 H 231.316 -1.36334 -5.95185 0
M  V30 2614 H 232.73 -3.26626 -4.71156 0
M  V30 2615 H 231.127 -4.01607 -4.45905 0
M  V30 2616 H 232.197 -3.75326 -3.07016 0
M  V30 2617 N 233.54 1.10788 -1.12088 0
M  V30 2618 C 234.45 2.20599 -0.798338 0
M  V30 2619 C 235.466 1.72712 0.21135 0
M  V30 2620 O 236.642 2.01348 0.0458477 0
M  V30 2621 C 233.707 3.45771 -0.253674 0
M  V30 2622 C 232.768 4.08411 -1.32283 0
M  V30 2623 C 232.001 5.27608 -0.80406 0
M  V30 2624 O 232.224 5.69241 0.363478 0
M  V30 2625 O 231.158 5.8101 -1.57198 0
M  V30 2626 H 234.984 2.50614 -1.7154 0
M  V30 2627 H 232.569 1.19454 -0.897275 0
M  V30 2628 H 234.451 4.21376 0.0453691 0
M  V30 2629 H 233.126 3.1739 0.636005 0
M  V30 2630 H 232.033 3.34507 -1.67499 0
M  V30 2631 H 233.366 4.40986 -2.18614 0
M  V30 2632 N 235.018 0.912232 1.28515 0
M  V30 2633 C 235.948 0.416403 2.29757 0
M  V30 2634 C 236.929 -0.515194 1.6211 0
M  V30 2635 O 238.114 -0.423253 1.89532 0
M  V30 2636 C 235.244 -0.34572 3.45575 0
M  V30 2637 C 234.198 0.496599 4.25109 0
M  V30 2638 C 233.524 -0.393771 5.33248 0
M  V30 2639 C 234.824 1.75307 4.92001 0
M  V30 2640 H 236.518 1.26249 2.7148 0
M  V30 2641 H 234.064 0.608515 1.30511 0
M  V30 2642 H 236.017 -0.703422 4.15488 0
M  V30 2643 H 234.741 -1.2257 3.02728 0
M  V30 2644 H 233.4 0.8368 3.56922 0
M  V30 2645 H 233.048 -1.27225 4.86644 0
M  V30 2646 H 232.748 0.166209 5.87365 0
M  V30 2647 H 234.272 -0.747389 6.06009 0
M  V30 2648 H 235.686 1.46437 5.54283 0
M  V30 2649 H 234.083 2.25534 5.56106 0
M  V30 2650 H 235.153 2.48176 4.16577 0
M  V30 2651 N 236.496 -1.42363 0.676048 0
M  V30 2652 C 237.406 -2.346 -0.00153389 0
M  V30 2653 C 238.422 -1.5516 -0.787485 0
M  V30 2654 O 239.598 -1.87723 -0.729521 0
M  V30 2655 C 236.663 -3.33705 -0.940298 0
M  V30 2656 C 235.724 -4.29042 -0.148739 0
M  V30 2657 C 234.957 -5.23413 -1.04279 0
M  V30 2658 O 235.18 -5.22749 -2.28232 0
M  V30 2659 O 234.114 -5.99795 -0.502925 0
M  V30 2660 H 237.94 -2.94082 0.758268 0
M  V30 2661 H 235.525 -1.42888 0.436289 0
M  V30 2662 H 237.407 -3.94586 -1.47917 0
M  V30 2663 H 236.082 -2.76695 -1.67993 0
M  V30 2664 H 234.989 -3.71571 0.43427 0
M  V30 2665 H 236.322 -4.89097 0.551805 0
M  V30 2666 N 237.974 -0.419461 -1.51915 0
M  V30 2667 C 238.922 0.415502 -2.28859 0
M  V30 2668 C 239.916 1.03674 -1.3397 0
M  V30 2669 O 241.122 0.973757 -1.51387 0
M  V30 2670 H 237.497 0.152786 -0.736315 0
M  V30 2671 H 239.468 -0.254531 -2.97312 0
M  V30 2672 C 238.217 1.51425 -3.12995 0
M  V30 2673 H 237.54 1.04556 -3.85886 0
M  V30 2674 H 238.98 2.07208 -3.6992 0
M  V30 2675 C 237.439 2.48745 -2.27217 0
M  V30 2676 O 237.969 3.52871 -1.9195 0
M  V30 2677 N 236.175 2.19202 -1.90785 0
M  V30 2678 H 235.722 1.34556 -2.19664 0
M  V30 2679 H 235.68 2.84561 -1.33687 0
M  V30 2680 N 239.452 1.56882 -0.150215 0
M  V30 2681 C 240.382 2.19935 0.784284 0
M  V30 2682 C 241.363 1.14854 1.25469 0
M  V30 2683 O 242.548 1.43209 1.31168 0
M  V30 2684 C 239.678 2.82349 2.02229 0
M  V30 2685 C 238.632 3.93285 1.68853 0
M  V30 2686 C 237.958 4.42649 2.99944 0
M  V30 2687 C 239.258 5.13904 0.932714 0
M  V30 2688 H 240.952 2.9828 0.258781 0
M  V30 2689 H 238.498 1.43473 0.123029 0
M  V30 2690 H 240.451 3.25126 2.68088 0
M  V30 2691 H 239.175 2.0134 2.57157 0
M  V30 2692 H 237.834 3.5113 1.05371 0
M  V30 2693 H 237.482 3.58458 3.52869 0
M  V30 2694 H 237.182 5.17476 2.78374 0
M  V30 2695 H 238.706 4.88099 3.66868 0
M  V30 2696 H 240.12 5.53506 1.49345 0
M  V30 2697 H 238.517 5.94515 0.81684 0
M  V30 2698 H 239.587 4.84842 -0.0749568 0
M  V30 2699 N 240.93 -0.123565 1.57115 0
M  V30 2700 C 242.158 -0.846461 1.88793 0
M  V30 2701 C 242.573 -1.73652 0.740976 0
M  V30 2702 O 241.93 -1.80207 -0.288393 0
M  V30 2703 C 241.981 -1.6837 3.19897 0
M  V30 2704 O 241.702 -0.829477 4.30176 0
M  V30 2705 C 243.203 -2.51214 3.65248 0
M  V30 2706 H 240.423 -0.243573 0.625231 0
M  V30 2707 H 242.967 -0.109324 2.04208 0
M  V30 2708 H 241.122 -2.37364 3.06165 0
M  V30 2709 H 241.536 -1.40651 5.0529 0
M  V30 2710 H 243.01 -3.05497 4.59756 0
M  V30 2711 H 243.487 -3.28359 2.9168 0
M  V30 2712 H 244.093 -1.8747 3.81752 0
M  V30 2713 N 242.408 -1.52605 -0.393616 0
M  V30 2714 C 243.636 -1.71294 -1.16043 0
M  V30 2715 C 244.051 -0.429259 -1.83855 0
M  V30 2716 O 243.408 0.595921 -1.72496 0
M  V30 2717 C 243.459 -2.8593 -2.21193 0
M  V30 2718 O 243.18 -4.09329 -1.56146 0
M  V30 2719 C 244.681 -3.16259 -3.10636 0
M  V30 2720 H 241.901 -0.573641 -0.348104 0
M  V30 2721 H 244.445 -1.99234 -0.461092 0
M  V30 2722 H 242.6 -2.60465 -2.86769 0
M  V30 2723 H 243.014 -4.73323 -2.25978 0
M  V30 2724 H 244.488 -3.99946 -3.80456 0
M  V30 2725 H 244.965 -2.3045 -3.73884 0
M  V30 2726 H 245.571 -3.43547 -2.50711 0
M  V30 2727 N 243.887 0.651787 -1.4349 0
M  V30 2728 C 244.819 1.77725 -1.44729 0
M  V30 2729 C 245.832 1.59141 -0.343231 0
M  V30 2730 O 247.021 1.67835 -0.607751 0
M  V30 2731 C 244.121 3.15172 -1.24579 0
M  V30 2732 C 243.294 3.60402 -2.47849 0
M  V30 2733 C 242.353 4.76656 -2.22902 0
M  V30 2734 O 241.379 4.86022 -2.96263 0
M  V30 2735 N 242.581 5.66958 -1.24656 0
M  V30 2736 H 245.346 1.77141 -2.41746 0
M  V30 2737 H 242.907 0.835678 -1.38665 0
M  V30 2738 H 244.899 3.90634 -1.0577 0
M  V30 2739 H 243.469 3.1052 -0.360015 0
M  V30 2740 H 242.689 2.75369 -2.82073 0
M  V30 2741 H 243.977 3.87368 -3.29884 0
M  V30 2742 H 243.375 5.62065 -0.640265 0
M  V30 2743 H 241.932 6.42135 -1.1183 0
M  V30 2744 N 245.365 1.30045 0.890287 0
M  V30 2745 C 246.275 1.17885 2.02831 0
M  V30 2746 C 247.291 0.0999609 1.73713 0
M  V30 2747 O 248.467 0.313867 1.98939 0
M  V30 2748 C 245.532 0.866079 3.35708 0
M  V30 2749 C 244.593 2.02979 3.78283 0
M  V30 2750 C 243.826 1.73184 5.0482 0
M  V30 2751 O 244.049 0.657237 5.66601 0
M  V30 2752 O 242.983 2.58267 5.43674 0
M  V30 2753 H 246.809 2.13474 2.16015 0
M  V30 2754 H 244.394 1.09587 1.01543 0
M  V30 2755 H 246.276 0.706623 4.15433 0
M  V30 2756 H 244.951 -0.0599443 3.23644 0
M  V30 2757 H 243.858 2.24454 2.99285 0
M  V30 2758 H 245.191 2.93734 3.94944 0
M  V30 2759 N 246.843 -1.10192 1.12674 0
M  V30 2760 C 248.071 -1.85983 0.906527 0
M  V30 2761 C 248.486 -1.80783 -0.544333 0
M  V30 2762 O 247.843 -1.19834 -1.37645 0
M  V30 2763 C 247.894 -3.34281 1.37618 0
M  V30 2764 O 247.615 -3.39401 2.77017 0
M  V30 2765 C 249.116 -4.26938 1.19325 0
M  V30 2766 H 246.336 -0.587716 0.323775 0
M  V30 2767 H 248.88 -1.39284 1.49734 0
M  V30 2768 H 247.035 -3.78436 0.828539 0
M  V30 2769 H 247.449 -4.31838 2.97684 0
M  V30 2770 H 248.923 -5.29181 1.57071 0
M  V30 2771 H 249.4 -4.38995 0.134097 0
M  V30 2772 H 250.006 -3.8859 1.72852 0
M  V30 2773 N 248.321 -0.919034 -1.28029 0
M  V30 2774 C 249.737 -0.617972 -1.4715 0
M  V30 2775 C 249.937 0.835242 -1.83374 0
M  V30 2776 O 248.993 1.61388 -1.94191 0
M  V30 2777 C 250.306 -1.56041 -2.57044 0
M  V30 2778 C 251.854 -1.56769 -2.7091 0
M  V30 2779 C 252.329 -2.49688 -3.83953 0
M  V30 2780 N 253.82 -2.47845 -3.91314 0
M  V30 2781 C 254.555 -3.16437 -4.78179 0
M  V30 2782 N 254.051 -3.94376 -5.69596 0
M  V30 2783 N 255.844 -3.05498 -4.71834 0
M  V30 2784 H 247.995 -1.85866 -1.02798 0
M  V30 2785 H 250.258 -0.797506 -0.512531 0
M  V30 2786 H 249.964 -2.59671 -2.372 0
M  V30 2787 H 249.838 -1.29551 -3.54255 0
M  V30 2788 H 252.225 -0.538745 -2.90141 0
M  V30 2789 H 252.306 -1.87305 -1.74214 0
M  V30 2790 H 251.95 -3.52688 -3.65477 0
M  V30 2791 H 251.88 -2.16453 -4.80058 0
M  V30 2792 H 254.371 -1.91234 -3.25941 0
M  V30 2793 H 254.684 -4.43721 -6.32718 0
M  V30 2794 H 253.029 -3.98481 -5.69419 0
M  V30 2795 H 256.22 -2.44108 -3.99411 0
M  V30 2796 H 256.393 -3.59225 -5.39316 0
M  V30 2797 N 249.799 1.42003 -0.683588 0
M  V30 2798 C 250.709 2.34597 -0.0109075 0
M  V30 2799 C 251.725 1.55576 0.779245 0
M  V30 2800 O 252.901 1.88107 0.719555 0
M  V30 2801 C 249.966 3.34199 0.922588 0
M  V30 2802 C 249.027 4.29115 0.125984 0
M  V30 2803 C 248.26 5.23959 1.01502 0
M  V30 2804 O 248.483 5.23952 2.25456 0
M  V30 2805 O 247.417 6.00053 0.47111 0
M  V30 2806 H 251.243 2.93675 -0.773853 0
M  V30 2807 H 248.828 1.42654 -0.443861 0
M  V30 2808 H 250.71 3.95365 1.45823 0
M  V30 2809 H 249.385 2.77582 1.66523 0
M  V30 2810 H 248.292 3.71335 -0.453969 0
M  V30 2811 H 249.625 4.88798 -0.577736 0
M  V30 2812 N 251.277 0.427512 1.51691 0
M  V30 2813 C 252.526 -0.143679 2.01188 0
M  V30 2814 C 252.839 -1.44642 1.31674 0
M  V30 2815 O 254.045 -2.09997 1.72086 0
M  V30 2816 C 252.501 -0.306602 3.58592 0
M  V30 2817 C 252.109 0.985125 4.37035 0
M  V30 2818 C 253.853 -0.832091 4.16265 0
M  V30 2819 C 251.76 0.788382 5.86122 0
M  V30 2820 H 250.69 -0.0574701 0.751807 0
M  V30 2821 H 253.341 0.555772 1.74881 0
M  V30 2822 H 251.723 -1.06882 3.81303 0
M  V30 2823 H 252.897 1.75492 4.26074 0
M  V30 2824 H 251.212 1.4384 3.90767 0
M  V30 2825 H 253.809 -0.995617 5.25349 0
M  V30 2826 H 254.152 -1.81186 3.74803 0
M  V30 2827 H 254.685 -0.128444 3.97593 0
M  V30 2828 H 251.424 1.74025 6.31978 0
M  V30 2829 H 250.944 0.0582143 5.99772 0
M  V30 2830 H 252.623 0.437722 6.45518 0
M  V30 2831 N 252.755 -1.56801 0.158532 0
M  V30 2832 C 253.685 -2.20347 -0.772609 0
M  V30 2833 C 254.666 -1.15518 -1.24859 0
M  V30 2834 O 255.851 -1.43902 -1.30406 0
M  V30 2835 C 252.981 -2.83417 -2.00729 0
M  V30 2836 C 251.935 -3.94174 -1.66765 0
M  V30 2837 C 251.261 -4.44233 -2.97592 0
M  V30 2838 C 252.561 -5.14392 -0.905447 0
M  V30 2839 H 254.255 -2.98413 -0.242959 0
M  V30 2840 H 251.801 -1.43537 -0.115419 0
M  V30 2841 H 253.754 -3.26543 -2.6636 0
M  V30 2842 H 252.478 -2.02701 -2.56086 0
M  V30 2843 H 251.137 -3.51684 -1.03508 0
M  V30 2844 H 250.785 -3.60325 -3.50963 0
M  V30 2845 H 250.485 -5.18945 -2.75626 0
M  V30 2846 H 252.009 -4.90037 -3.64274 0
M  V30 2847 H 253.423 -5.5429 -1.46408 0
M  V30 2848 H 251.82 -5.9494 -0.7853 0
M  V30 2849 H 252.89 -4.84795 0.100668 0
M  V30 2850 N 254.233 0.115231 -1.57178 0
M  V30 2851 C 255.183 1.14707 -1.97044 0
M  V30 2852 C 256.167 1.36866 -0.845957 0
M  V30 2853 O 257.359 1.37895 -1.10968 0
M  V30 2854 C 254.488 2.47266 -2.38148 0
M  V30 2855 C 253.574 2.28566 -3.57237 0
M  V30 2856 N 253.965 1.79685 -4.72807 0
M  V30 2857 C 252.263 2.59208 -3.62943 0
M  V30 2858 C 252.964 1.74781 -5.54821 0
M  V30 2859 N 251.94 2.19264 -4.97417 0
M  V30 2860 H 255.742 0.761754 -2.83857 0
M  V30 2861 H 253.256 0.322928 -1.59157 0
M  V30 2862 H 255.253 3.219 -2.64927 0
M  V30 2863 H 253.913 2.86552 -1.52702 0
M  V30 2864 H 254.924 1.49177 -4.9595 0
M  V30 2865 H 251.601 3.02154 -2.88113 0
M  V30 2866 H 252.991 1.38212 -6.57531 0
M  V30 2867 N 255.711 1.52812 0.385517 0
M  V30 2868 C 256.958 1.68026 1.1302 0
M  V30 2869 C 257.286 0.421934 1.89868 0
M  V30 2870 O 256.541 -0.595749 1.86412 0
M  V30 2871 C 256.84 2.86856 2.13187 0
M  V30 2872 C 256.506 4.24159 1.5297 0
M  V30 2873 C 255.168 4.61501 1.36274 0
M  V30 2874 C 257.52 5.09627 1.09223 0
M  V30 2875 C 254.848 5.81966 0.743837 0
M  V30 2876 C 257.2 6.30719 0.487411 0
M  V30 2877 C 255.864 6.6679 0.307777 0
M  V30 2878 H 255.134 0.614849 0.413571 0
M  V30 2879 H 257.781 1.86962 0.414405 0
M  V30 2880 H 256.086 2.6235 2.90998 0
M  V30 2881 H 257.783 2.95821 2.70722 0
M  V30 2882 H 254.373 3.94746 1.66954 0
M  V30 2883 H 258.557 4.81343 1.20922 0
M  V30 2884 H 253.813 6.08519 0.592891 0
M  V30 2885 H 257.987 6.96259 0.140143 0
M  V30 2886 H 255.614 7.60001 -0.173879 0
M  V30 2887 N 257.189 -0.644168 1.43834 0
M  V30 2888 C 258.139 -1.7501 1.46135 0
M  V30 2889 C 259.123 -1.57507 0.328685 0
M  V30 2890 O 260.315 -1.67465 0.5731 0
M  V30 2891 C 257.444 -3.13641 1.39585 0
M  V30 2892 C 256.53 -3.3666 2.57916 0
M  V30 2893 N 256.921 -3.30107 3.83227 0
M  V30 2894 C 255.219 -3.67411 2.52834 0
M  V30 2895 C 255.92 -3.53456 4.61999 0
M  V30 2896 N 254.896 -3.75705 3.9287 0
M  V30 2897 H 258.698 -1.68382 2.40883 0
M  V30 2898 H 256.212 -0.846169 1.38614 0
M  V30 2899 H 258.209 -3.92933 1.39317 0
M  V30 2900 H 256.869 -3.21444 0.45865 0
M  V30 2901 H 257.88 -3.09316 4.15384 0
M  V30 2902 H 254.557 -3.82275 1.67845 0
M  V30 2903 H 255.947 -3.54093 5.71024 0
M  V30 2904 N 258.668 -1.30515 -0.883378 0
M  V30 2905 C 259.898 -1.22182 -1.66599 0
M  V30 2906 C 260.306 0.217507 -1.87946 0
M  V30 2907 O 259.649 1.1554 -1.42815 0
M  V30 2908 C 259.711 -1.88146 -3.06335 0
M  V30 2909 C 259.375 -3.37476 -3.08154 0
M  V30 2910 C 260.372 -4.33443 -2.87094 0
M  V30 2911 C 258.057 -3.7895 -3.29701 0
M  V30 2912 C 260.051 -5.68858 -2.8754 0
M  V30 2913 C 257.738 -5.14482 -3.29776 0
M  V30 2914 C 258.736 -6.09246 -3.0872 0
M  V30 2915 O 258.424 -7.42302 -3.08615 0
M  V30 2916 H 258.156 -0.423898 -0.52658 0
M  V30 2917 H 260.71 -1.72703 -1.11188 0
M  V30 2918 H 258.94 -1.32157 -3.63416 0
M  V30 2919 H 260.629 -1.7391 -3.66756 0
M  V30 2920 H 261.395 -4.02733 -2.70243 0
M  V30 2921 H 257.274 -3.05631 -3.45124 0
M  V30 2922 H 260.818 -6.428 -2.71024 0
M  V30 2923 H 256.715 -5.44832 -3.46163 0
M  V30 2924 H 257.483 -7.5131 -3.24769 0
M  V30 2925 N 260.146 1.09593 -1.13257 0
M  V30 2926 C 261.374 1.855 -0.916378 0
M  V30 2927 C 261.789 1.81069 0.534738 0
M  V30 2928 O 261.146 1.20562 1.37007 0
M  V30 2929 C 261.197 3.33546 -1.39388 0
M  V30 2930 O 260.918 3.37927 -2.78813 0
M  V30 2931 C 262.419 4.26299 -1.21588 0
M  V30 2932 H 259.639 0.585991 -0.326887 0
M  V30 2933 H 262.183 1.38488 -1.5047 0
M  V30 2934 H 260.338 3.77992 -0.848597 0
M  V30 2935 H 260.752 4.30254 -2.9997 0
M  V30 2936 H 262.226 5.28341 -1.59876 0
M  V30 2937 H 262.703 4.38918 -0.157376 0
M  V30 2938 H 263.309 3.87668 -1.7491 0
M  V30 2939 N 261.624 0.925811 1.2754 0
M  V30 2940 C 262.852 0.581509 1.9856 0
M  V30 2941 C 263.267 -0.840041 1.69082 0
M  V30 2942 O 262.624 -1.55805 0.950312 0
M  V30 2943 C 262.675 0.795589 3.52637 0
M  V30 2944 O 262.396 2.16121 3.81082 0
M  V30 2945 C 263.897 0.459744 4.4091 0
M  V30 2946 H 261.117 0.220538 0.633722 0
M  V30 2947 H 263.661 1.24232 1.6244 0
M  V30 2948 H 261.816 0.18161 3.86974 0
M  V30 2949 H 262.23 2.2098 4.75676 0
M  V30 2950 H 263.704 0.660244 5.48037 0
M  V30 2951 H 264.181 -0.604625 4.35018 0
M  V30 2952 H 264.787 1.05178 4.12089 0
M  V30 2953 N 263.102 -1.41638 0.69111 0
M  V30 2954 C 264.348 -2.02104 0.229258 0
M  V30 2955 C 264.703 -1.53741 -1.15678 0
M  V30 2956 O 263.996 -0.736849 -1.76865 0
M  V30 2957 C 264.19 -3.56714 0.221277 0
M  V30 2958 C 264.019 -4.20083 1.605 0
M  V30 2959 C 262.789 -4.54566 2.20676 0
M  V30 2960 C 264.987 -4.46587 2.55078 0
M  V30 2961 N 262.969 -5.03199 3.5166 0
M  V30 2962 C 264.34 -4.96946 3.70735 0
M  V30 2963 C 266.395 -4.28593 2.53401 0
M  V30 2964 C 265.098 -5.31203 4.8499 0
M  V30 2965 C 267.124 -4.63936 3.66765 0
M  V30 2966 C 266.486 -5.14463 4.81152 0
M  V30 2967 H 262.585 -0.771256 0.12918 0
M  V30 2968 H 265.169 -1.72251 0.907626 0
M  V30 2969 H 263.34 -3.86051 -0.426562 0
M  V30 2970 H 265.072 -4.03896 -0.254983 0
M  V30 2971 H 261.827 -4.4087 1.73005 0
M  V30 2972 H 262.251 -5.31926 4.18789 0
M  V30 2973 H 266.893 -3.88771 1.66184 0
M  V30 2974 H 264.611 -5.69951 5.72871 0
M  V30 2975 H 268.197 -4.51677 3.66714 0
M  V30 2976 H 267.077 -5.41299 5.67419 0
M  V30 2977 N 264.58 -0.43555 -1.51462 0
M  V30 2978 C 265.991 0.0279871 -1.86679 0
M  V30 2979 C 266.342 1.42104 -1.35281 0
M  V30 2980 O 265.467 2.04667 -0.702878 0
M  V30 2981 C 266.062 0.0575626 -3.38751 0
M  V30 2982 C 264.621 0.465507 -3.7351 0
M  V30 2983 C 263.768 -0.342996 -2.75171 0
M  V30 2984 H 266.719 -0.651473 -1.44712 0
M  V30 2985 H 266.74 0.867421 -3.70481 0
M  V30 2986 H 266.252 -0.956448 -3.7613 0
M  V30 2987 H 264.353 1.48519 -3.41721 0
M  V30 2988 H 264.466 0.191546 -4.78717 0
M  V30 2989 H 262.83 0.198442 -2.53926 0
M  V30 2990 H 263.613 -1.35585 -3.15391 0
M  V30 2991 N 266.058 1.56714 -0.166846 0
M  V30 2992 C 267.335 1.88412 0.525373 0
M  V30 2993 C 267.715 1.07602 1.81618 0
M  V30 2994 O 267.063 0.168621 2.27877 0
M  V30 2995 C 267.273 3.40363 0.771613 0
M  V30 2996 C 268.621 4.10007 1.1036 0
M  V30 2997 O 269.645 3.45655 0.860304 0
M  V30 2998 O 268.504 5.2369 1.56239 0
M  V30 2999 H 265.598 0.781587 0.270278 0
M  V30 3000 H 268.144 1.68458 -0.204946 0
M  V30 3001 H 266.916 3.91046 -0.141093 0
M  V30 3002 H 266.539 3.65914 1.55541 0
M  V30 3003 N 267.536 -0.106894 1.57237 0
M  V30 3004 C 268.783 -0.812526 1.85484 0
M  V30 3005 C 269.111 -1.79304 0.753687 0
M  V30 3006 O 268.366 -1.94047 -0.253853 0
M  V30 3007 C 268.665 -1.58628 3.20268 0
M  V30 3008 C 268.331 -0.748967 4.44636 0
M  V30 3009 C 266.993 -0.518104 4.78403 0
M  V30 3010 C 269.345 -0.166122 5.20935 0
M  V30 3011 C 266.673 0.305659 5.85903 0
M  V30 3012 C 269.025 0.644899 6.29304 0
M  V30 3013 C 267.689 0.885965 6.61594 0
M  V30 3014 H 266.959 -0.297324 0.678734 0
M  V30 3015 H 269.606 -0.0744332 1.91355 0
M  V30 3016 H 267.911 -2.39562 3.10028 0
M  V30 3017 H 269.608 -2.13643 3.39349 0
M  V30 3018 H 266.198 -0.939006 4.18187 0
M  V30 3019 H 270.382 -0.33167 4.95191 0
M  V30 3020 H 265.638 0.501528 6.0934 0
M  V30 3021 H 269.812 1.10345 6.87602 0
M  V30 3022 H 267.439 1.52609 7.44725 0
M  V30 3023 N 269.014 -1.53014 -0.377408 0
M  V30 3024 C 270.262 -1.6829 -1.11906 0
M  V30 3025 C 270.583 -0.431206 -1.90173 0
M  V30 3026 O 269.853 0.554595 -1.87886 0
M  V30 3027 H 268.433 -0.620371 -0.416112 0
M  V30 3028 H 271.095 -1.90167 -0.426893 0
M  V30 3029 H 270.191 -2.53862 -1.8155 0
M  V30 3030 N 270.492 0.636531 -1.44174 0
M  V30 3031 C 271.738 1.39826 -1.4689 0
M  V30 3032 C 272.071 1.93947 -0.0990585 0
M  V30 3033 O 271.346 1.73325 0.882544 0
M  V30 3034 C 271.629 2.56751 -2.5249 0
M  V30 3035 C 271.482 2.08014 -3.98811 0
M  V30 3036 C 272.801 3.58946 -2.54649 0
M  V30 3037 H 269.92 0.507075 -0.53483 0
M  V30 3038 H 272.562 0.720188 -1.75822 0
M  V30 3039 H 270.712 3.14597 -2.2795 0
M  V30 3040 H 272.384 1.5504 -4.34466 0
M  V30 3041 H 270.627 1.39242 -4.10846 0
M  V30 3042 H 271.298 2.92169 -4.68339 0
M  V30 3043 H 273.774 3.1089 -2.76563 0
M  V30 3044 H 272.65 4.38286 -3.3045 0
M  V30 3045 H 272.911 4.12655 -1.58646 0
M  V30 3046 N 271.97 1.30982 0.876444 0
M  V30 3047 C 273.381 1.18277 1.44456 0
M  V30 3048 C 273.732 -0.213265 1.95037 0
M  V30 3049 O 272.857 -1.11057 1.85729 0
M  V30 3050 C 273.452 2.1411 2.62569 0
M  V30 3051 C 272.011 2.05358 3.15444 0
M  V30 3052 C 271.158 2.03706 1.88146 0
M  V30 3053 H 274.109 1.43127 0.685584 0
M  V30 3054 H 274.13 1.72692 3.39054 0
M  V30 3055 H 273.642 3.15706 2.25724 0
M  V30 3056 H 271.743 1.06934 3.56926 0
M  V30 3057 H 271.856 2.94156 3.78166 0
M  V30 3058 H 270.22 1.48629 2.06837 0
M  V30 3059 H 271.003 3.07047 1.53547 0
M  V30 3060 N 273.449 -1.08991 1.13837 0
M  V30 3061 C 274.359 -2.19301 0.833333 0
M  V30 3062 C 275.375 -1.73026 -0.183847 0
M  V30 3063 O 276.551 -2.01395 -0.0138092 0
M  V30 3064 C 273.616 -3.45323 0.308651 0
M  V30 3065 C 272.677 -4.06255 1.38764 0
M  V30 3066 C 271.91 -5.26262 0.887896 0
M  V30 3067 O 272.133 -5.69747 -0.27287 0
M  V30 3068 O 271.067 -5.78435 1.66421 0
M  V30 3069 H 274.893 -2.47854 1.75506 0
M  V30 3070 H 272.478 -1.18012 0.916166 0
M  V30 3071 H 274.36 -4.21394 0.0216739 0
M  V30 3072 H 273.035 -3.18362 -0.585431 0
M  V30 3073 H 271.942 -3.318 1.72799 0
M  V30 3074 H 273.275 -4.37452 2.25602 0
M  V30 3075 N 274.927 -0.932562 -1.27047 0
M  V30 3076 C 276.152 -0.591474 -1.98787 0
M  V30 3077 C 276.577 0.824601 -1.69062 0
M  V30 3078 O 275.935 1.5541 -0.933677 0
M  V30 3079 C 275.983 -0.829808 -3.50922 0
M  V30 3080 O 275.087 0.102266 -4.12273 0
M  V30 3081 H 274.428 -0.227185 -0.623926 0
M  V30 3082 H 276.958 -1.25314 -1.61733 0
M  V30 3083 H 276.968 -0.747292 -4.01098 0
M  V30 3084 H 275.643 -1.86201 -3.7189 0
M  V30 3085 H 274.22 -0.0305761 -3.72887 0
M  V30 3086 N 276.405 1.4127 -0.698611 0
M  V30 3087 C 277.816 1.84187 -0.305289 0
M  V30 3088 C 278.167 1.58449 1.15708 0
M  V30 3089 O 277.292 1.05651 1.88856 0
M  V30 3090 C 277.887 3.3435 -0.547314 0
M  V30 3091 C 276.446 3.75826 -0.207878 0
M  V30 3092 C 275.593 2.64647 -0.828099 0
M  V30 3093 H 278.544 1.30778 -0.89904 0
M  V30 3094 H 278.565 3.8001 0.192998 0
M  V30 3095 H 278.077 3.53051 -1.61172 0
M  V30 3096 H 276.178 3.62725 0.852143 0
M  V30 3097 H 276.291 4.74462 -0.665021 0
M  V30 3098 H 274.655 2.53395 -0.257458 0
M  V30 3099 H 275.438 2.86165 -1.89643 0
M  V30 3100 N 277.883 0.443576 1.51229 0
M  V30 3101 C 278.846 -0.353132 2.26463 0
M  V30 3102 C 279.846 -0.944338 1.3015 0
M  V30 3103 O 281.036 -0.817813 1.5381 0
M  V30 3104 C 278.168 -1.50023 3.06114 0
M  V30 3105 H 279.361 0.3063 2.98332 0
M  V30 3106 H 276.914 0.196902 1.55055 0
M  V30 3107 H 277.649 -2.19553 2.38677 0
M  V30 3108 H 277.434 -1.08241 3.76864 0
M  V30 3109 H 278.924 -2.06296 3.63087 0
M  V30 3110 N 279.361 -1.56624 0.175154 0
M  V30 3111 C 280.586 -2.01813 -0.478137 0
M  V30 3112 C 281.011 -1.05457 -1.55757 0
M  V30 3113 O 280.369 -0.0347439 -1.81267 0
M  V30 3114 C 280.417 -3.45581 -1.02987 0
M  V30 3115 O 279.521 -3.52305 -2.14371 0
M  V30 3116 H 278.862 -0.65413 -0.114059 0
M  V30 3117 H 281.392 -2.02673 0.280173 0
M  V30 3118 H 281.402 -3.84965 -1.35151 0
M  V30 3119 H 280.077 -4.1521 -0.239556 0
M  V30 3120 H 278.654 -3.24783 -1.83222 0
M  V30 3121 N 280.839 0.0985539 -1.57292 0
M  V30 3122 C 282.086 0.802678 -1.85912 0
M  V30 3123 C 282.414 1.78901 -0.763186 0
M  V30 3124 O 281.669 1.94178 0.243559 0
M  V30 3125 C 281.968 1.56927 -3.21105 0
M  V30 3126 C 281.634 0.725376 -4.45027 0
M  V30 3127 C 280.296 0.492726 -4.78671 0
M  V30 3128 C 282.648 0.138493 -5.21016 0
M  V30 3129 C 279.976 -0.336727 -5.85733 0
M  V30 3130 C 282.328 -0.678264 -6.28953 0
M  V30 3131 C 280.992 -0.921039 -6.61115 0
M  V30 3132 H 280.262 0.293721 -0.680301 0
M  V30 3133 H 282.909 0.0642841 -1.91392 0
M  V30 3134 H 281.214 2.37914 -3.11294 0
M  V30 3135 H 282.911 2.11841 -3.40477 0
M  V30 3136 H 279.501 0.916815 -4.18679 0
M  V30 3137 H 283.685 0.305404 -4.95359 0
M  V30 3138 H 278.941 -0.533836 -6.09065 0
M  V30 3139 H 283.115 -1.1399 -6.87007 0
M  V30 3140 H 280.742 -1.56556 -7.43905 0
M  V30 3141 N 282.317 1.53212 0.369288 0
M  V30 3142 C 283.247 1.82365 1.45826 0
M  V30 3143 C 284.228 0.676907 1.56051 0
M  V30 3144 O 285.413 0.926401 1.70679 0
M  V30 3145 C 282.543 2.01023 2.83208 0
M  V30 3146 C 281.497 3.1678 2.8781 0
M  V30 3147 C 280.823 3.20724 4.27832 0
M  V30 3148 C 282.123 4.55447 2.55667 0
M  V30 3149 H 283.817 2.73559 1.21678 0
M  V30 3150 H 281.363 1.3163 0.583911 0
M  V30 3151 H 283.316 2.20001 3.59413 0
M  V30 3152 H 282.04 1.06536 3.08736 0
M  V30 3153 H 280.699 2.97616 2.14056 0
M  V30 3154 H 280.347 2.23882 4.50429 0
M  V30 3155 H 280.047 3.98496 4.31827 0
M  V30 3156 H 281.571 3.41881 5.05915 0
M  V30 3157 H 282.985 4.74611 3.21586 0
M  V30 3158 H 281.382 5.35432 2.70984 0
M  V30 3159 H 282.452 4.60812 1.5093 0
M  V30 3160 N 283.795 -0.628877 1.44509 0
M  V30 3161 C 284.743 -1.76193 1.51852 0
M  V30 3162 C 285.737 -1.64849 0.390042 0
M  V30 3163 O 286.943 -1.709 0.565082 0
M  V30 3164 H 283.318 -0.581728 0.476547 0
M  V30 3165 H 285.289 -1.67123 2.47209 0
M  V30 3166 C 284.038 -3.14533 1.48204 0
M  V30 3167 H 283.361 -3.23911 2.34354 0
M  V30 3168 H 284.801 -3.93701 1.57402 0
M  V30 3169 C 283.26 -3.36287 0.203142 0
M  V30 3170 O 283.79 -3.9509 -0.725745 0
M  V30 3171 N 281.996 -2.90408 0.105563 0
M  V30 3172 H 281.543 -2.42739 0.862301 0
M  V30 3173 H 281.501 -3.05339 -0.749371 0
M  V30 3174 N 285.273 -1.31445 -0.869486 0
M  V30 3175 C 286.52 -1.21158 -1.62256 0
M  V30 3176 C 286.848 0.230155 -1.93133 0
M  V30 3177 O 286.103 1.17906 -1.56194 0
M  V30 3178 C 286.402 -2.00145 -2.96102 0
M  V30 3179 C 286.068 -3.4964 -2.84715 0
M  V30 3180 C 284.73 -3.90403 -2.81317 0
M  V30 3181 C 287.082 -4.44769 -2.71716 0
M  V30 3182 C 284.41 -5.24561 -2.62778 0
M  V30 3183 C 286.762 -5.79054 -2.54714 0
M  V30 3184 C 285.426 -6.19037 -2.49699 0
M  V30 3185 H 284.696 -0.443348 -0.593737 0
M  V30 3186 H 287.343 -1.62715 -1.00976 0
M  V30 3187 H 285.648 -1.5127 -3.6142 0
M  V30 3188 H 287.345 -1.89566 -3.53363 0
M  V30 3189 H 283.935 -3.17256 -2.88178 0
M  V30 3190 H 288.119 -4.14208 -2.73397 0
M  V30 3191 H 283.375 -5.54613 -2.57321 0
M  V30 3192 H 287.549 -6.52393 -2.43632 0
M  V30 3193 H 285.176 -7.22935 -2.35093 0
M  V30 3194 N 286.751 1.08385 -1.14413 0
M  V30 3195 C 287.681 2.17321 -0.854044 0
M  V30 3196 C 288.662 1.69024 0.191049 0
M  V30 3197 O 289.847 1.94141 0.0476779 0
M  V30 3198 C 286.977 3.45719 -0.330983 0
M  V30 3199 C 285.931 4.07409 -1.31155 0
M  V30 3200 C 285.257 5.30762 -0.64778 0
M  V30 3201 C 286.557 4.48665 -2.67388 0
M  V30 3202 H 288.251 2.41845 -1.76498 0
M  V30 3203 H 285.797 1.16233 -0.850051 0
M  V30 3204 H 287.75 4.21241 -0.115645 0
M  V30 3205 H 286.474 3.2075 0.615381 0
M  V30 3206 H 285.133 3.33919 -1.51306 0
M  V30 3207 H 284.781 5.02078 0.304398 0
M  V30 3208 H 284.481 5.72992 -1.30207 0
M  V30 3209 H 286.005 6.08998 -0.441972 0
M  V30 3210 H 287.419 5.15364 -2.51143 0
M  V30 3211 H 285.816 5.01814 -3.29093 0
M  V30 3212 H 286.886 3.60543 -3.24248 0
M  V30 3213 N 288.23 0.939286 1.26551 0
M  V30 3214 C 289.477 0.585847 1.9384 0
M  V30 3215 C 289.805 -0.874784 1.73718 0
M  V30 3216 O 289.06 -1.64092 1.06642 0
M  V30 3217 C 289.359 0.872106 3.46596 0
M  V30 3218 C 289.025 2.31632 3.86856 0
M  V30 3219 C 287.687 2.71111 3.97558 0
M  V30 3220 C 290.039 3.25494 4.07066 0
M  V30 3221 C 287.367 4.03553 4.25866 0
M  V30 3222 C 289.719 4.57531 4.36862 0
M  V30 3223 C 288.383 4.96828 4.45778 0
M  V30 3224 H 287.653 0.214377 0.709312 0
M  V30 3225 H 290.3 1.18544 1.50398 0
M  V30 3226 H 288.605 0.18996 3.91339 0
M  V30 3227 H 290.302 0.577442 3.96821 0
M  V30 3228 H 286.892 2.00008 3.79071 0
M  V30 3229 H 291.076 2.9619 3.98227 0
M  V30 3230 H 286.332 4.33665 4.30981 0
M  V30 3231 H 290.506 5.30254 4.51446 0
M  V30 3232 H 288.133 5.99482 4.67468 0
M  V30 3233 N 289.708 -1.40897 0.706093 0
M  V30 3234 C 290.655 -2.30751 0.0474474 0
M  V30 3235 C 291.625 -1.47678 -0.76029 0
M  V30 3236 O 292.81 -1.76441 -0.726177 0
M  V30 3237 C 289.95 -3.33815 -0.875309 0
M  V30 3238 C 289.063 -4.31961 -0.0580623 0
M  V30 3239 C 288.198 -5.22093 -0.979425 0
M  V30 3240 C 287.237 -6.11902 -0.155706 0
M  V30 3241 N 286.374 -6.94482 -1.03144 0
M  V30 3242 H 291.214 -2.86513 0.819413 0
M  V30 3243 H 288.751 -1.41102 0.415783 0
M  V30 3244 H 290.709 -3.92129 -1.42446 0
M  V30 3245 H 289.339 -2.79579 -1.61356 0
M  V30 3246 H 288.391 -3.75507 0.608147 0
M  V30 3247 H 289.703 -4.95415 0.580082 0
M  V30 3248 H 288.857 -5.85292 -1.59744 0
M  V30 3249 H 287.596 -4.5889 -1.65141 0
M  V30 3250 H 286.601 -5.47742 0.475309 0
M  V30 3251 H 287.826 -6.77162 0.512635 0
M  V30 3252 H 285.772 -6.33877 -1.68924 0
M  V30 3253 H 285.689 -7.54665 -0.449108 0
M  V30 3254 H 286.957 -7.6214 -1.63593 0
M  V30 3255 N 291.186 -0.45159 -1.50991 0
M  V30 3256 C 292.432 0.110237 -2.025 0
M  V30 3257 C 292.765 1.41109 -1.33424 0
M  V30 3258 O 292.04 1.89135 -0.453659 0
M  V30 3259 C 292.323 0.314271 -3.58726 0
M  V30 3260 C 292.176 -1.00623 -4.38401 0
M  V30 3261 C 293.495 1.07767 -4.26702 0
M  V30 3262 H 290.614 0.0385897 -0.735989 0
M  V30 3263 H 293.256 -0.593374 -1.80497 0
M  V30 3264 H 291.406 0.913601 -3.77605 0
M  V30 3265 H 293.078 -1.64064 -4.31139 0
M  V30 3266 H 291.321 -1.6075 -4.02917 0
M  V30 3267 H 291.992 -0.817341 -5.45915 0
M  V30 3268 H 294.468 0.56986 -4.12179 0
M  V30 3269 H 293.344 1.18921 -5.35863 0
M  V30 3270 H 293.605 2.10939 -3.88532 0
M  V30 3271 N 292.664 1.56529 -0.183458 0
M  V30 3272 C 294.08 1.58664 0.172554 0
M  V30 3273 C 294.28 1.19925 1.61926 0
M  V30 3274 O 293.336 0.916534 2.35278 0
M  V30 3275 C 294.649 3.00463 -0.119262 0
M  V30 3276 C 296.197 3.12945 -0.0584396 0
M  V30 3277 C 296.672 4.56857 -0.323408 0
M  V30 3278 N 298.163 4.62403 -0.271612 0
M  V30 3279 C 298.898 5.71626 -0.450639 0
M  V30 3280 N 298.394 6.89362 -0.689384 0
M  V30 3281 N 300.187 5.60775 -0.385701 0
M  V30 3282 H 292.338 1.79994 -1.12765 0
M  V30 3283 H 294.601 0.834808 -0.449222 0
M  V30 3284 H 294.307 3.33326 -1.12192 0
M  V30 3285 H 294.181 3.72659 0.583544 0
M  V30 3286 H 296.568 2.79902 0.934805 0
M  V30 3287 H 296.649 2.4316 -0.794144 0
M  V30 3288 H 296.293 4.9061 -1.31392 0
M  V30 3289 H 296.223 5.24816 0.43305 0
M  V30 3290 H 298.714 3.77785 -0.0932256 0
M  V30 3291 H 299.027 7.68489 -0.815113 0
M  V30 3292 H 297.372 6.91196 -0.726142 0
M  V30 3293 H 300.563 4.67674 -0.199687 0
M  V30 3294 H 300.736 6.4584 -0.528646 0
M  V30 3295 N 294.142 -0.090211 1.57342 0
M  V30 3296 C 295.052 -1.12735 2.05738 0
M  V30 3297 C 296.068 -1.43557 0.983231 0
M  V30 3298 O 297.244 -1.54101 1.29672 0
M  V30 3299 C 294.309 -2.42659 2.47624 0
M  V30 3300 C 293.37 -2.18975 3.69254 0
M  V30 3301 C 292.603 -3.42704 4.09133 0
M  V30 3302 O 292.826 -4.51127 3.49057 0
M  V30 3303 O 291.76 -3.32003 5.02053 0
M  V30 3304 H 295.586 -0.746279 2.94388 0
M  V30 3305 H 293.171 -0.303064 1.46294 0
M  V30 3306 H 295.053 -3.19155 2.7517 0
M  V30 3307 H 293.728 -2.80182 1.62109 0
M  V30 3308 H 292.635 -1.40244 3.46818 0
M  V30 3309 H 293.968 -1.86342 4.55563 0
M  V30 3310 N 295.62 -1.53406 -0.361157 0
M  V30 3311 C 296.845 -1.74024 -1.12829 0
M  V30 3312 C 297.27 -0.470069 -1.82132 0
M  V30 3313 O 296.628 0.57619 -1.719 0
M  V30 3314 C 296.676 -2.90903 -2.13091 0
M  V30 3315 O 295.78 -2.59821 -3.20261 0
M  V30 3316 H 295.121 -0.577804 -0.327168 0
M  V30 3317 H 297.651 -2.00307 -0.41693 0
M  V30 3318 H 297.661 -3.17194 -2.56616 0
M  V30 3319 H 296.336 -3.83034 -1.62042 0
M  V30 3320 H 294.913 -2.44362 -2.81677 0
M  V30 3321 N 297.098 0.621204 -1.44841 0
M  V30 3322 C 298.346 1.37783 -1.47852 0
M  V30 3323 C 298.667 1.94653 -0.116224 0
M  V30 3324 O 297.937 1.76367 0.852737 0
M  V30 3325 H 296.517 0.511453 -0.544449 0
M  V30 3326 H 299.179 0.730446 -1.80694 0
M  V30 3327 H 298.275 2.20414 -2.20961 0
M  V30 3328 N 298.576 1.31904 0.862503 0
M  V30 3329 C 299.801 1.25135 1.65397 0
M  V30 3330 C 300.226 -0.179 1.87246 0
M  V30 3331 O 299.584 -1.1277 1.4196 0
M  V30 3332 C 299.632 2.00832 2.99498 0
M  V30 3333 O 298.736 1.35075 3.89652 0
M  V30 3334 H 298.077 0.431655 0.504549 0
M  V30 3335 H 300.607 1.74094 1.07483 0
M  V30 3336 H 300.617 2.10709 3.49379 0
M  V30 3337 H 299.292 3.04847 2.82916 0
M  V30 3338 H 297.869 1.33696 3.48109 0
M  V30 3339 N 300.054 -1.07777 1.14986 0
M  V30 3340 C 300.984 -2.16865 0.865557 0
M  V30 3341 C 301.965 -1.69123 -0.182083 0
M  V30 3342 O 303.15 -1.94164 -0.0373815 0
M  V30 3343 C 300.28 -3.45539 0.349313 0
M  V30 3344 C 299.234 -4.06708 1.33313 0
M  V30 3345 C 298.56 -5.30411 0.675918 0
M  V30 3346 C 299.86 -4.47241 2.69764 0
M  V30 3347 H 301.554 -2.40905 1.77778 0
M  V30 3348 H 299.1 -1.15781 0.856203 0
M  V30 3349 H 301.053 -4.21174 0.137983 0
M  V30 3350 H 299.777 -3.21072 -0.598362 0
M  V30 3351 H 298.436 -3.33112 1.53075 0
M  V30 3352 H 298.084 -5.02232 -0.277767 0
M  V30 3353 H 297.784 -5.72293 1.33244 0
M  V30 3354 H 299.308 -6.08755 0.474262 0
M  V30 3355 H 300.722 -5.14025 2.53873 0
M  V30 3356 H 299.119 -5.00062 3.3175 0
M  V30 3357 H 300.189 -3.58818 3.26156 0
M  V30 3358 N 301.532 -0.945985 -1.26051 0
M  V30 3359 C 302.757 -0.612525 -1.98149 0
M  V30 3360 C 303.182 0.806623 -1.69927 0
M  V30 3361 O 302.54 1.54411 -0.950108 0
M  V30 3362 C 302.588 -0.866981 -3.50023 0
M  V30 3363 O 301.692 0.0585333 -4.12358 0
M  V30 3364 H 301.033 -0.23379 -0.621481 0
M  V30 3365 H 303.563 -1.27023 -1.60395 0
M  V30 3366 H 303.573 -0.789792 -4.00283 0
M  V30 3367 H 302.248 -1.90135 -3.69894 0
M  V30 3368 H 300.825 -0.0701241 -3.72834 0
M  V30 3369 N 303.011 1.40521 -0.713556 0
M  V30 3370 C 304.422 1.83853 -0.324807 0
M  V30 3371 C 304.773 1.59667 1.14021 0
M  V30 3372 O 303.898 1.07649 1.87725 0
M  V30 3373 C 304.493 3.33751 -0.582746 0
M  V30 3374 C 303.052 3.75584 -0.247727 0
M  V30 3375 C 302.199 2.63753 -0.856121 0
M  V30 3376 H 305.15 1.29817 -0.91286 0
M  V30 3377 H 305.171 3.80194 0.152682 0
M  V30 3378 H 304.683 3.51322 -1.64908 0
M  V30 3379 H 302.784 3.63608 0.813624 0
M  V30 3380 H 302.897 4.7373 -0.715307 0
M  V30 3381 H 301.261 2.53108 -0.28432 0
M  V30 3382 H 302.044 2.84137 -1.92668 0
M  V30 3383 N 304.489 0.459591 1.5075 0
M  V30 3384 C 305.399 -0.34613 2.32033 0
M  V30 3385 C 306.415 -1.00686 1.41909 0
M  V30 3386 O 307.591 -0.997361 1.7497 0
M  V30 3387 C 304.656 -1.42029 3.16273 0
M  V30 3388 C 303.717 -0.777362 4.22203 0
M  V30 3389 C 302.95 -1.80034 5.02418 0
M  V30 3390 O 303.173 -3.02544 4.83553 0
M  V30 3391 O 302.107 -1.37853 5.85901 0
M  V30 3392 H 305.933 0.318054 3.0203 0
M  V30 3393 H 303.518 0.221663 1.47746 0
M  V30 3394 H 305.4 -2.04275 3.68578 0
M  V30 3395 H 304.075 -2.06815 2.49016 0
M  V30 3396 H 302.982 -0.116256 3.73919 0
M  V30 3397 H 304.315 -0.172634 4.91897 0
M  V30 3398 N 305.967 -1.56429 0.191757 0
M  V30 3399 C 306.917 -2.15548 -0.743184 0
M  V30 3400 C 307.901 -1.09531 -1.17863 0
M  V30 3401 O 309.093 -1.35602 -1.13759 0
M  V30 3402 C 306.222 -2.81577 -1.96391 0
M  V30 3403 C 305.308 -3.9478 -1.54951 0
M  V30 3404 N 305.699 -4.98677 -0.845876 0
M  V30 3405 C 303.997 -4.06319 -1.83905 0
M  V30 3406 C 304.698 -5.78183 -0.638724 0
M  V30 3407 N 303.674 -5.30495 -1.18643 0
M  V30 3408 H 307.476 -2.9324 -0.196839 0
M  V30 3409 H 304.99 -1.62398 -0.0081603 0
M  V30 3410 H 306.987 -3.22321 -2.64415 0
M  V30 3411 H 305.647 -2.05371 -2.51501 0
M  V30 3412 H 306.658 -5.15464 -0.501704 0
M  V30 3413 H 303.335 -3.41238 -2.40548 0
M  V30 3414 H 304.725 -6.71851 -0.0807929 0
M  V30 3415 N 307.445 0.0818655 -1.57387 0
M  V30 3416 C 308.693 0.781368 -1.86384 0
M  V30 3417 C 309.014 1.78618 -0.782342 0
M  V30 3418 O 308.284 1.94976 0.190061 0
M  V30 3419 H 306.864 0.291562 -0.687751 0
M  V30 3420 H 309.526 0.060348 -1.94807 0
M  V30 3421 H 308.622 1.3038 -2.83562 0
M  V30 3422 N 308.923 1.53595 0.353017 0
M  V30 3423 C 310.334 1.61937 0.929153 0
M  V30 3424 C 310.685 0.494686 1.89861 0
M  V30 3425 O 309.81 -0.377017 2.1309 0
M  V30 3426 C 310.405 2.93526 1.69199 0
M  V30 3427 C 308.964 3.04161 2.21727 0
M  V30 3428 C 308.111 2.57322 1.03348 0
M  V30 3429 H 311.062 1.58155 0.131431 0
M  V30 3430 H 311.083 2.82034 2.55416 0
M  V30 3431 H 310.595 3.75362 0.986144 0
M  V30 3432 H 308.696 2.26938 2.95516 0
M  V30 3433 H 308.809 4.09465 2.48748 0
M  V30 3434 H 307.173 2.12499 1.40414 0
M  V30 3435 H 307.956 3.41588 0.342428 0
M  V30 3436 N 310.401 -0.613514 1.45168 0
M  V30 3437 C 311.647 -1.37471 1.49096 0
M  V30 3438 C 311.98 -1.93765 0.129901 0
M  V30 3439 O 311.255 -1.74707 -0.854858 0
M  V30 3440 C 311.538 -2.52701 2.56542 0
M  V30 3441 C 311.391 -2.01643 4.0207 0
M  V30 3442 C 312.71 -3.54849 2.60327 0
M  V30 3443 H 309.829 -0.498502 0.54283 0
M  V30 3444 H 312.471 -0.692125 1.76945 0
M  V30 3445 H 310.621 -3.10931 2.32926 0
M  V30 3446 H 312.293 -1.48108 4.36877 0
M  V30 3447 H 310.536 -1.32688 4.13009 0
M  V30 3448 H 311.207 -2.84681 4.72928 0
M  V30 3449 H 313.683 -3.0645 2.81474 0
M  V30 3450 H 312.559 -4.32973 3.37381 0
M  V30 3451 H 312.82 -4.10079 1.6519 0
M  V30 3452 N 311.879 -1.3236 -0.855495 0
M  V30 3453 C 313.125 -1.23054 -1.612 0
M  V30 3454 C 313.458 0.207404 -1.93089 0
M  V30 3455 O 312.733 1.14432 -1.57275 0
M  V30 3456 C 313.016 -2.08937 -2.93287 0
M  V30 3457 C 312.869 -3.61105 -2.68185 0
M  V30 3458 C 314.188 -1.94986 -3.94549 0
M  V30 3459 H 311.307 -0.448364 -0.584926 0
M  V30 3460 H 313.949 -1.62297 -0.987917 0
M  V30 3461 H 312.099 -1.75599 -3.46551 0
M  V30 3462 H 313.771 -4.04652 -2.21483 0
M  V30 3463 H 312.014 -3.83813 -2.02164 0
M  V30 3464 H 312.685 -4.16522 -3.62234 0
M  V30 3465 H 315.161 -2.24189 -3.5054 0
M  V30 3466 H 314.037 -2.57356 -4.84829 0
M  V30 3467 H 314.298 -0.917263 -4.3248 0
M  V30 3468 N 313.357 1.07166 -1.15556 0
M  V30 3469 C 314.603 1.80065 -0.932984 0
M  V30 3470 C 314.936 1.86586 0.53845 0
M  V30 3471 O 314.211 1.35098 1.39924 0
M  V30 3472 C 314.494 3.25022 -1.55025 0
M  V30 3473 C 314.347 3.26634 -3.09242 0
M  V30 3474 C 315.666 4.22341 -1.2376 0
M  V30 3475 H 312.785 0.653697 -0.340366 0
M  V30 3476 H 315.427 1.25389 -1.4275 0
M  V30 3477 H 313.577 3.71712 -1.12972 0
M  V30 3478 H 315.249 2.88173 -3.60214 0
M  V30 3479 H 313.492 2.65539 -3.43033 0
M  V30 3480 H 314.163 4.28854 -3.47546 0
M  V30 3481 H 316.639 3.8405 -1.60139 0
M  V30 3482 H 315.515 5.22053 -1.69564 0
M  V30 3483 H 315.776 4.41828 -0.154938 0
M  V30 3484 N 314.835 0.952656 1.25548 0
M  V30 3485 C 315.785 0.442033 2.23674 0
M  V30 3486 C 316.769 -0.467632 1.53955 0
M  V30 3487 O 317.961 -0.301006 1.74422 0
M  V30 3488 C 315.09 -0.280816 3.4215 0
M  V30 3489 C 314.176 0.646803 4.19139 0
M  V30 3490 N 314.567 1.77759 4.73535 0
M  V30 3491 C 312.865 0.454617 4.43677 0
M  V30 3492 C 313.566 2.35658 5.31827 0
M  V30 3493 N 312.542 1.64333 5.18166 0
M  V30 3494 H 316.344 1.30505 2.63336 0
M  V30 3495 H 313.858 0.809904 1.40763 0
M  V30 3496 H 315.855 -0.663747 4.11582 0
M  V30 3497 H 314.515 -1.14046 3.04012 0
M  V30 3498 H 315.526 2.15949 4.7073 0
M  V30 3499 H 312.203 -0.362312 4.15925 0
M  V30 3500 H 313.593 3.30998 5.84713 0
M  V30 3501 N 316.313 -1.40141 0.720998 0
M  V30 3502 C 317.553 -2.02644 0.267335 0
M  V30 3503 C 317.917 -1.55948 -1.12001 0
M  V30 3504 O 319.118 -2.10552 -1.67097 0
M  V30 3505 C 317.389 -3.55679 0.350281 0
M  V30 3506 S 318.948 -4.38793 -0.0256004 0
M  V30 3507 H 315.766 -0.703105 0.105664 0
M  V30 3508 H 318.368 -1.71175 0.944416 0
M  V30 3509 H 317.072 -3.87157 1.36153 0
M  V30 3510 H 316.603 -3.91883 -0.345096 0
M  V30 3511 H 318.618 -4.803 -1.24604 0
M  V30 3512 N 317.792 -0.46758 -1.50504 0
M  V30 3513 C 319.017 0.0886943 -2.0721 0
M  V30 3514 C 319.442 1.33057 -1.32956 0
M  V30 3515 O 318.8 1.77354 -0.376197 0
M  V30 3516 C 318.848 0.359202 -3.58806 0
M  V30 3517 O 317.952 1.44034 -3.8643 0
M  V30 3518 H 317.293 -0.0114349 -0.663902 0
M  V30 3519 H 319.823 -0.657613 -1.93744 0
M  V30 3520 H 319.833 0.600742 -4.03553 0
M  V30 3521 H 318.508 -0.548311 -4.1227 0
M  V30 3522 H 317.085 1.18638 -3.53524 0
M  V30 3523 N 319.27 1.56325 -0.20005 0
M  V30 3524 C 320.233 2.18084 0.705132 0
M  V30 3525 C 321.233 1.13666 1.1374 0
M  V30 3526 O 322.423 1.39023 1.04968 0
M  V30 3527 C 319.555 2.78689 1.96329 0
M  V30 3528 H 320.748 2.99435 0.167023 0
M  V30 3529 H 318.301 1.56221 0.0495725 0
M  V30 3530 H 319.036 2.0115 2.5438 0
M  V30 3531 H 318.821 3.55133 1.66202 0
M  V30 3532 H 320.311 3.26096 2.60866 0
M  V30 3533 N 320.748 -0.0735177 1.57428 0
M  V30 3534 C 321.996 -0.771472 1.86796 0
M  V30 3535 C 322.317 -1.78201 0.791804 0
M  V30 3536 O 321.587 -1.95074 -0.179718 0
M  V30 3537 H 320.167 -0.28791 0.689287 0
M  V30 3538 H 322.829 -0.0500161 1.94836 0
M  V30 3539 H 321.925 -1.28874 2.8425 0
M  V30 3540 N 322.226 -1.5378 -0.344866 0
M  V30 3541 C 323.475 -1.7018 -1.08267 0
M  V30 3542 C 323.788 -0.471 -1.89845 0
M  V30 3543 O 324.994 -0.515917 -2.66553 0
M  V30 3544 C 323.45 -3.00923 -1.97417 0
M  V30 3545 C 323.058 -4.31335 -1.21053 0
M  V30 3546 C 324.802 -3.26688 -2.71063 0
M  V30 3547 C 322.709 -5.53153 -2.09225 0
M  V30 3548 H 321.639 -0.634138 -0.407903 0
M  V30 3549 H 324.29 -1.8028 -0.342246 0
M  V30 3550 H 322.672 -2.84676 -2.75274 0
M  V30 3551 H 323.846 -4.58281 -0.481159 0
M  V30 3552 H 322.161 -4.12173 -0.591813 0
M  V30 3553 H 324.758 -4.1489 -3.37299 0
M  V30 3554 H 325.101 -2.43639 -3.37558 0
M  V30 3555 H 325.634 -3.43705 -2.0028 0
M  V30 3556 H 322.373 -6.38741 -1.47274 0
M  V30 3557 H 321.893 -5.30458 -2.79955 0
M  V30 3558 H 323.572 -5.88744 -2.68308 0
M  V30 3559 N 323.704 0.605807 -1.45491 0
M  V30 3560 C 324.952 1.36207 -1.49305 0
M  V30 3561 C 325.273 1.94519 -0.136863 0
M  V30 3562 O 324.543 1.77261 0.833983 0
M  V30 3563 H 323.123 0.50565 -0.549843 0
M  V30 3564 H 325.785 0.711239 -1.81459 0
M  V30 3565 H 324.881 2.18058 -2.23287 0
M  V30 3566 N 325.182 1.32811 0.848464 0
M  V30 3567 C 326.598 1.11937 1.13764 0
M  V30 3568 C 326.798 -0.0960789 2.01271 0
M  V30 3569 O 325.854 -0.779165 2.40178 0
M  V30 3570 C 327.167 2.402 1.809 0
M  V30 3571 C 328.715 2.46016 1.93508 0
M  V30 3572 C 329.19 3.74215 2.64059 0
M  V30 3573 N 330.681 3.75232 2.71579 0
M  V30 3574 C 331.416 4.71134 3.26833 0
M  V30 3575 N 330.912 5.77406 3.8285 0
M  V30 3576 N 332.705 4.58623 3.24995 0
M  V30 3577 H 324.856 2.1073 0.265855 0
M  V30 3578 H 327.119 0.930671 0.180431 0
M  V30 3579 H 326.825 3.29093 1.24058 0
M  V30 3580 H 326.699 2.51628 2.81004 0
M  V30 3581 H 329.086 1.57577 2.49506 0
M  V30 3582 H 329.167 2.38536 0.923811 0
M  V30 3583 H 328.811 4.63031 2.08722 0
M  V30 3584 H 328.741 3.78968 3.65637 0
M  V30 3585 H 331.232 2.98423 2.31845 0
M  V30 3586 H 331.545 6.46632 4.23187 0
M  V30 3587 H 329.89 5.81152 3.81165 0
M  V30 3588 H 333.081 3.74762 2.80484 0
M  V30 3589 H 333.254 5.33535 3.67756 0
M  V30 3590 N 326.66 -1.06551 1.16123 0
M  V30 3591 C 327.885 -1.83544 0.965735 0
M  V30 3592 C 328.31 -1.81843 -0.481102 0
M  V30 3593 O 327.668 -1.21732 -1.34354 0
M  V30 3594 C 327.716 -3.28169 1.49457 0
M  V30 3595 O 326.82 -4.0643 0.699157 0
M  V30 3596 H 326.161 -0.568026 0.343864 0
M  V30 3597 H 328.691 -1.34362 1.54299 0
M  V30 3598 H 328.701 -3.78992 1.51092 0
M  V30 3599 H 327.376 -3.28722 2.54784 0
M  V30 3600 H 325.953 -3.65216 0.7531 0
M  V30 3601 N 328.138 -0.959301 -1.25041 0
M  V30 3602 C 329.386 -0.615393 -1.92503 0
M  V30 3603 C 329.707 0.850969 -1.75452 0
M  V30 3604 O 328.977 1.60658 -1.12098 0
M  V30 3605 H 327.557 -0.224613 -0.712431 0
M  V30 3606 H 330.219 -1.21855 -1.5211 0
M  V30 3607 H 329.315 -0.848738 -3.00338 0
M  V30 3608 N 329.616 1.39756 -0.72842 0
M  V30 3609 C 330.844 2.04948 -0.283528 0
M  V30 3610 C 331.259 1.54908 1.0793 0
M  V30 3611 O 330.616 0.711135 1.68075 0
M  V30 3612 C 330.667 3.60498 -0.268957 0
M  V30 3613 O 330.388 4.08695 -1.57798 0
M  V30 3614 C 331.889 4.4288 0.192912 0
M  V30 3615 H 329.109 0.659243 -0.125056 0
M  V30 3616 H 331.653 1.78927 -0.990226 0
M  V30 3617 H 329.808 3.85444 0.388801 0
M  V30 3618 H 330.222 5.02977 -1.48709 0
M  V30 3619 H 331.696 5.51791 0.151952 0
M  V30 3620 H 332.173 4.21418 1.23708 0
M  V30 3621 H 332.779 4.23069 -0.435039 0
M  V30 3622 N 331.094 0.475555 1.50254 0
M  V30 3623 C 332.341 -0.0778919 2.0235 0
M  V30 3624 C 332.669 -1.39319 1.35722 0
M  V30 3625 O 331.924 -1.89888 0.473395 0
M  V30 3626 C 332.223 -0.305114 3.56095 0
M  V30 3627 C 331.889 0.92903 4.41225 0
M  V30 3628 C 330.551 1.26739 4.6421 0
M  V30 3629 C 332.903 1.75054 4.90923 0
M  V30 3630 C 330.231 2.42724 5.34137 0
M  V30 3631 C 332.583 2.9017 5.62125 0
M  V30 3632 C 331.247 3.24416 5.83362 0
M  V30 3633 H 330.517 -0.0285027 0.740452 0
M  V30 3634 H 333.164 0.630543 1.80821 0
M  V30 3635 H 331.469 -1.09584 3.76163 0
M  V30 3636 H 333.166 -0.747377 3.93974 0
M  V30 3637 H 329.756 0.655428 4.23559 0
M  V30 3638 H 333.94 1.50231 4.73016 0
M  V30 3639 H 329.196 2.69525 5.48786 0
M  V30 3640 H 333.37 3.54169 5.99614 0
M  V30 3641 H 330.997 4.14396 6.37323 0
M  V30 3642 N 332.573 -1.56217 0.208337 0
M  V30 3643 C 333.813 -1.99849 -0.428927 0
M  V30 3644 C 334.177 -1.09262 -1.57879 0
M  V30 3645 O 335.378 -1.42185 -2.28116 0
M  V30 3646 C 333.649 -3.46777 -0.864879 0
M  V30 3647 S 335.208 -4.12434 -1.49811 0
M  V30 3648 H 332.026 -0.697742 -0.136665 0
M  V30 3649 H 334.628 -1.92953 0.314519 0
M  V30 3650 H 333.332 -4.10396 -0.0181326 0
M  V30 3651 H 332.863 -3.57518 -1.64147 0
M  V30 3652 H 334.878 -4.10532 -2.78707 0
M  V30 3653 N 334.051 0.0651679 -1.57465 0
M  V30 3654 C 334.981 1.07693 -2.07182 0
M  V30 3655 C 335.962 1.39962 -0.966673 0
M  V30 3656 O 337.147 1.49475 -1.2398 0
M  V30 3657 C 334.277 2.3885 -2.52127 0
M  V30 3658 C 333.231 2.20917 -3.66579 0
M  V30 3659 C 332.557 3.57515 -3.97601 0
M  V30 3660 C 333.857 1.62493 -4.9638 0
M  V30 3661 H 335.551 0.663199 -2.91962 0
M  V30 3662 H 333.097 0.317569 -1.40455 0
M  V30 3663 H 335.05 3.09928 -2.85522 0
M  V30 3664 H 333.774 2.82215 -1.64384 0
M  V30 3665 H 332.433 1.52279 -3.33477 0
M  V30 3666 H 332.081 3.98463 -3.06979 0
M  V30 3667 H 331.781 3.46353 -4.74672 0
M  V30 3668 H 333.305 4.30013 -4.33499 0
M  V30 3669 H 334.719 2.23445 -5.27963 0
M  V30 3670 H 333.116 1.62009 -5.77818 0
M  V30 3671 H 334.186 0.587041 -4.81333 0
M  V30 3672 N 335.529 1.53961 0.336706 0
M  V30 3673 C 336.492 1.81724 1.39675 0
M  V30 3674 C 337.492 0.688532 1.45313 0
M  V30 3675 O 338.682 0.956829 1.45569 0
M  V30 3676 C 335.814 1.96543 2.78538 0
M  V30 3677 H 337.007 2.76424 1.16318 0
M  V30 3678 H 334.56 1.45478 0.571474 0
M  V30 3679 H 335.295 1.0401 3.07168 0
M  V30 3680 H 335.08 2.78665 2.75841 0
M  V30 3681 H 336.57 2.19516 3.5525 0
M  V30 3682 N 337.007 -0.598083 1.45811 0
M  V30 3683 C 338.284 -1.35777 1.40797 0
M  V30 3684 C 338.664 -2.10935 0.083462 0
M  V30 3685 O 338.012 -2.08505 -0.934763 0
M  V30 3686 C 338.222 -2.29666 2.62783 0
M  V30 3687 C 339.57 -2.91977 3.08277 0
M  V30 3688 O 340.594 -2.39984 2.63223 0
M  V30 3689 O 339.453 -3.86376 3.86491 0
M  V30 3690 H 336.547 -0.609291 0.55919 0
M  V30 3691 H 339.093 -0.620379 1.57954 0
M  V30 3692 H 337.865 -1.73454 3.50756 0
M  V30 3693 H 337.488 -3.1077 2.48008 0
M  V30 3694 N 338.485 -1.33259 -0.841409 0
M  V30 3695 C 339.713 -1.27605 -1.62864 0
M  V30 3696 C 340.128 0.153507 -1.88175 0
M  V30 3697 O 339.485 1.09485 -1.46011 0
M  V30 3698 C 339.536 -2.04596 -2.98031 0
M  V30 3699 O 339.257 -3.41975 -2.73834 0
M  V30 3700 C 340.758 -2.06122 -3.92465 0
M  V30 3701 H 337.978 -0.439718 -0.506842 0
M  V30 3702 H 340.522 -1.75591 -1.04824 0
M  V30 3703 H 338.677 -1.60299 -3.5268 0
M  V30 3704 H 339.091 -3.81549 -3.59889 0
M  V30 3705 H 340.565 -2.64451 -4.84531 0
M  V30 3706 H 341.042 -1.05083 -4.26444 0
M  V30 3707 H 341.648 -2.50427 -3.43753 0
M  V30 3708 N 339.963 1.05934 -1.16686 0
M  V30 3709 C 341.203 1.80382 -0.961345 0
M  V30 3710 C 341.567 1.85331 0.501643 0
M  V30 3711 O 342.768 2.55795 0.825986 0
M  V30 3712 C 341.039 3.20777 -1.57596 0
M  V30 3713 S 342.598 4.11795 -1.51559 0
M  V30 3714 H 339.416 0.621332 -0.345641 0
M  V30 3715 H 342.018 1.27157 -1.48497 0
M  V30 3716 H 340.722 3.14773 -2.63337 0
M  V30 3717 H 340.253 3.79078 -1.05182 0
M  V30 3718 H 342.268 4.93485 -0.518374 0
M  V30 3719 N 341.441 0.965919 1.2453 0
M  V30 3720 C 342.371 0.513476 2.27784 0
M  V30 3721 C 343.352 -0.445974 1.6415 0
M  V30 3722 O 344.537 -0.342485 1.91156 0
M  V30 3723 C 341.667 -0.198839 3.4673 0
M  V30 3724 C 340.621 0.676456 4.2262 0
M  V30 3725 C 339.947 -0.167248 5.34438 0
M  V30 3726 C 341.247 1.96017 4.84123 0
M  V30 3727 H 342.941 1.3765 2.65881 0
M  V30 3728 H 340.487 0.663321 1.27813 0
M  V30 3729 H 342.44 -0.526567 4.18097 0
M  V30 3730 H 341.164 -1.0962 3.07654 0
M  V30 3731 H 339.823 0.98743 3.53052 0
M  V30 3732 H 339.471 -1.0647 4.91603 0
M  V30 3733 H 339.171 0.415181 5.86131 0
M  V30 3734 H 340.695 -0.489688 6.08633 0
M  V30 3735 H 342.109 1.69814 5.47573 0
M  V30 3736 H 340.506 2.48918 5.4604 0
M  V30 3737 H 341.576 2.65622 4.05676 0
M  V30 3738 N 342.919 -1.39368 0.735821 0
M  V30 3739 C 343.849 -2.33234 0.111506 0
M  V30 3740 C 344.83 -1.53954 -0.723334 0
M  V30 3741 O 346.015 -1.82344 -0.668147 0
M  V30 3742 C 343.145 -3.38057 -0.795917 0
M  V30 3743 C 342.099 -4.2795 -0.065172 0
M  V30 3744 C 341.425 -5.23479 -1.08967 0
M  V30 3745 C 342.725 -5.10741 1.09273 0
M  V30 3746 H 344.419 -2.85692 0.895571 0
M  V30 3747 H 341.965 -1.37364 0.432109 0
M  V30 3748 H 343.918 -4.02675 -1.24221 0
M  V30 3749 H 342.642 -2.8404 -1.61211 0
M  V30 3750 H 341.301 -3.64813 0.361511 0
M  V30 3751 H 340.949 -4.65758 -1.89944 0
M  V30 3752 H 340.649 -5.84472 -0.605489 0
M  V30 3753 H 342.173 -5.90974 -1.53565 0
M  V30 3754 H 343.587 -5.68699 0.724841 0
M  V30 3755 H 341.984 -5.8088 1.50659 0
M  V30 3756 H 343.054 -4.45525 1.91404 0
M  V30 3757 N 344.397 -0.483516 -1.5 0
M  V30 3758 C 345.327 0.293829 -2.31644 0
M  V30 3759 C 346.308 0.978864 -1.39112 0
M  V30 3760 O 347.493 0.973644 -1.68029 0
M  V30 3761 C 344.623 1.36897 -3.19181 0
M  V30 3762 C 343.577 0.804833 -4.20365 0
M  V30 3763 C 342.903 1.9792 -4.96721 0
M  V30 3764 C 344.203 -0.192313 -5.21946 0
M  V30 3765 H 345.897 -0.387616 -2.9688 0
M  V30 3766 H 343.443 -0.187856 -1.42769 0
M  V30 3767 H 345.396 1.92037 -3.751 0
M  V30 3768 H 344.12 2.07936 -2.51853 0
M  V30 3769 H 342.779 0.275319 -3.65565 0
M  V30 3770 H 342.427 2.67686 -4.25856 0
M  V30 3771 H 342.127 1.60789 -5.65173 0
M  V30 3772 H 343.651 2.53526 -5.55479 0
M  V30 3773 H 345.065 0.270333 -5.72662 0
M  V30 3774 H 343.462 -0.478543 -5.98189 0
M  V30 3775 H 344.532 -1.11409 -4.71928 0
M  V30 3776 N 345.875 1.56104 -0.216619 0
M  V30 3777 C 346.808 2.16026 0.735395 0
M  V30 3778 C 347.786 1.1032 1.1945 0
M  V30 3779 O 348.97 1.38549 1.27814 0
M  V30 3780 C 346.097 2.73656 1.99575 0
M  V30 3781 C 345.143 3.92146 1.67702 0
M  V30 3782 S 345.976 5.29397 0.806145 0
M  V30 3783 C 347.132 5.90463 2.07617 0
M  V30 3784 H 347.365 2.96439 0.226072 0
M  V30 3785 H 344.898 1.544 -0.00136639 0
M  V30 3786 H 346.856 3.075 2.71945 0
M  V30 3787 H 345.517 1.93245 2.47619 0
M  V30 3788 H 344.71 4.30954 2.61332 0
M  V30 3789 H 344.312 3.59423 1.03398 0
M  V30 3790 H 346.604 6.06136 3.02664 0
M  V30 3791 H 347.547 6.86589 1.73207 0
M  V30 3792 H 347.955 5.19252 2.21445 0
M  V30 3793 N 347.353 -0.0568162 1.57498 0
M  V30 3794 C 348.63 -0.786954 1.79071 0
M  V30 3795 C 349.01 -1.95028 0.80792 0
M  V30 3796 O 348.358 -2.27968 -0.155858 0
M  V30 3797 C 348.568 -1.24594 3.26002 0
M  V30 3798 C 349.916 -1.67323 3.90241 0
M  V30 3799 O 350.94 -1.34124 3.29984 0
M  V30 3800 O 349.799 -2.28842 4.9628 0
M  V30 3801 H 346.893 -0.378262 0.735423 0
M  V30 3802 H 349.439 -0.035734 1.69662 0
M  V30 3803 H 348.211 -0.41423 3.89101 0
M  V30 3804 H 347.834 -2.05803 3.40192 0
M  V30 3805 N 348.832 -1.54138 -0.328536 0
M  V30 3806 C 349.779 -1.83176 -1.40411 0
M  V30 3807 C 350.749 -0.678494 -1.5161 0
M  V30 3808 O 351.934 -0.92443 -1.6691 0
M  V30 3809 C 349.074 -2.06035 -2.76846 0
M  V30 3810 C 348.187 -3.33727 -2.74318 0
M  V30 3811 C 347.322 -3.46574 -4.02567 0
M  V30 3812 C 346.361 -4.68159 -3.94327 0
M  V30 3813 N 345.498 -4.77959 -5.14296 0
M  V30 3814 H 350.338 -2.74938 -1.14948 0
M  V30 3815 H 347.875 -1.36166 -0.556538 0
M  V30 3816 H 349.833 -2.1728 -3.56153 0
M  V30 3817 H 348.463 -1.1757 -3.00628 0
M  V30 3818 H 347.515 -3.31246 -1.8703 0
M  V30 3819 H 348.827 -4.23139 -2.64111 0
M  V30 3820 H 347.981 -3.57333 -4.90304 0
M  V30 3821 H 346.72 -2.55245 -4.15574 0
M  V30 3822 H 345.725 -4.57461 -3.04974 0
M  V30 3823 H 346.95 -5.60868 -3.82889 0
M  V30 3824 H 344.896 -3.89544 -5.27818 0
M  V30 3825 H 344.813 -5.6133 -5.06404 0
M  V30 3826 H 346.081 -4.93044 -6.03761 0
M  V30 3827 N 350.31 0.590341 -1.46126 0
M  V30 3828 C 351.726 0.912917 -1.30912 0
M  V30 3829 C 351.926 1.99616 -0.274893 0
M  V30 3830 O 350.982 2.50397 0.325197 0
M  V30 3831 C 352.295 1.3375 -2.69317 0
M  V30 3832 C 353.843 1.45077 -2.77348 0
M  V30 3833 C 354.318 1.90904 -4.16317 0
M  V30 3834 N 355.809 1.9811 -4.18696 0
M  V30 3835 C 356.544 2.34828 -5.23109 0
M  V30 3836 N 356.04 2.70393 -6.37856 0
M  V30 3837 N 357.833 2.35317 -5.10473 0
M  V30 3838 H 349.984 -0.125358 -2.1203 0
M  V30 3839 H 352.247 0.00658481 -0.947977 0
M  V30 3840 H 351.953 0.615614 -3.4627 0
M  V30 3841 H 351.827 2.30058 -2.9892 0
M  V30 3842 H 354.214 2.16353 -2.00687 0
M  V30 3843 H 354.295 0.4704 -2.51438 0
M  V30 3844 H 353.939 1.20209 -4.9347 0
M  V30 3845 H 353.869 2.89886 -4.39629 0
M  V30 3846 H 356.36 1.73146 -3.359 0
M  V30 3847 H 356.673 2.97341 -7.13308 0
M  V30 3848 H 355.018 2.68048 -6.41229 0
M  V30 3849 H 358.209 2.0695 -4.19868 0
M  V30 3850 H 358.382 2.63605 -5.9196 0
M  V30 3851 N 351.788 1.33704 0.83433 0
M  V30 3852 C 352.735 1.24335 1.94447 0
M  V30 3853 C 353.705 0.120991 1.65659 0
M  V30 3854 O 354.89 0.300035 1.88426 0
M  V30 3855 C 352.03 0.993124 3.30501 0
M  V30 3856 C 351.143 2.20217 3.71657 0
M  V30 3857 C 350.278 1.88572 4.96602 0
M  V30 3858 C 349.317 3.05683 5.30306 0
M  V30 3859 N 348.454 2.73997 6.46429 0
M  V30 3860 H 353.294 2.1928 2.01792 0
M  V30 3861 H 350.831 1.09035 0.987404 0
M  V30 3862 H 352.789 0.828467 4.08892 0
M  V30 3863 H 351.419 0.0803902 3.227 0
M  V30 3864 H 350.471 2.47642 2.88752 0
M  V30 3865 H 351.783 3.07752 3.92543 0
M  V30 3866 H 350.937 1.68776 5.82752 0
M  V30 3867 H 349.676 0.982799 4.77695 0
M  V30 3868 H 348.681 3.26088 4.42659 0
M  V30 3869 H 349.906 3.96737 5.51159 0
M  V30 3870 H 347.852 1.86268 6.28999 0
M  V30 3871 H 347.769 3.55064 6.67432 0
M  V30 3872 H 349.037 2.57679 7.35678 0
M  V30 3873 N 353.266 -1.05314 1.17247 0
M  V30 3874 C 354.543 -1.75184 0.87005 0
M  V30 3875 C 354.923 -2.01481 -0.629965 0
M  V30 3876 O 354.271 -1.64988 -1.58086 0
M  V30 3877 C 354.481 -3.04594 1.70363 0
M  V30 3878 C 355.829 -3.78567 1.92281 0
M  V30 3879 O 356.853 -3.14461 1.67311 0
M  V30 3880 O 355.712 -4.93755 2.3424 0
M  V30 3881 H 352.806 -0.761729 0.322021 0
M  V30 3882 H 355.352 -1.11493 1.27935 0
M  V30 3883 H 354.124 -2.81201 2.72106 0
M  V30 3884 H 353.747 -3.76022 1.29202 0
M  V30 3885 N 354.744 -0.972509 -1.24016 0
M  V30 3886 C 356.155 -0.67517 -1.74064 0
M  V30 3887 C 356.506 0.808939 -1.78747 0
M  V30 3888 O 355.631 1.63286 -1.42009 0
M  V30 3889 C 356.226 -1.21889 -3.16115 0
M  V30 3890 C 354.785 -0.971358 -3.6365 0
M  V30 3891 C 353.932 -1.35134 -2.42145 0
M  V30 3892 H 356.883 -1.14727 -1.09651 0
M  V30 3893 H 356.904 -0.587489 -3.75937 0
M  V30 3894 H 356.416 -2.29906 -3.12674 0
M  V30 3895 H 354.517 0.0930686 -3.72484 0
M  V30 3896 H 354.63 -1.62039 -4.50866 0
M  V30 3897 H 352.994 -0.769751 -2.4279 0
M  V30 3898 H 353.777 -2.4411 -2.41381 0
M  V30 3899 N 356.222 1.38976 -0.743202 0
M  V30 3900 C 357.447 2.05161 -0.303936 0
M  V30 3901 C 357.872 1.55677 1.05576 0
M  V30 3902 O 357.23 0.704131 1.67068 0
M  V30 3903 C 357.278 3.59138 -0.324373 0
M  V30 3904 O 356.382 4.06668 0.685204 0
M  V30 3905 H 355.723 0.649815 -0.136518 0
M  V30 3906 H 358.253 1.77852 -1.01142 0
M  V30 3907 H 358.263 4.07639 -0.171618 0
M  V30 3908 H 356.938 3.94515 -1.31647 0
M  V30 3909 H 355.515 3.69561 0.497913 0
M  V30 3910 N 357.7 0.491464 1.49741 0
M  V30 3911 C 358.925 -0.0557177 2.07325 0
M  V30 3912 C 359.35 -1.30925 1.35056 0
M  V30 3913 O 358.708 -1.76733 0.404365 0
M  V30 3914 C 358.756 -0.302074 3.59333 0
M  V30 3915 O 357.86 -1.37868 3.88672 0
M  V30 3916 H 357.201 0.0219956 0.663636 0
M  V30 3917 H 359.731 0.688352 1.92673 0
M  V30 3918 H 359.741 -0.536464 4.04458 0
M  V30 3919 H 358.416 0.61383 4.11345 0
M  V30 3920 H 356.993 -1.12999 3.55367 0
M  V30 3921 N 359.178 -1.55987 0.224894 0
M  V30 3922 C 360.424 -1.98684 -0.406502 0
M  V30 3923 C 360.757 -1.11248 -1.59177 0
M  V30 3924 O 360.032 -0.170909 -1.93748 0
M  V30 3925 C 360.315 -3.50218 -0.837808 0
M  V30 3926 C 360.168 -4.48426 0.351332 0
M  V30 3927 C 361.487 -4.06243 -1.69278 0
M  V30 3928 H 358.606 -0.722337 -0.146283 0
M  V30 3929 H 361.248 -1.87255 0.321799 0
M  V30 3930 H 359.398 -3.60089 -1.45837 0
M  V30 3931 H 361.07 -4.50562 0.989526 0
M  V30 3932 H 359.313 -4.22159 0.998207 0
M  V30 3933 H 359.984 -5.52 0.00655905 0
M  V30 3934 H 362.46 -3.99337 -1.16914 0
M  V30 3935 H 361.336 -5.12581 -1.96346 0
M  V30 3936 H 361.597 -3.53332 -2.65723 0
M  V30 3937 N 360.656 0.0484629 -1.57525 0
M  V30 3938 C 361.933 0.777447 -1.79486 0
M  V30 3939 C 362.313 1.94597 -0.818251 0
M  V30 3940 O 361.661 2.28047 0.143767 0
M  V30 3941 C 361.871 1.22864 -3.26658 0
M  V30 3942 C 363.219 1.65251 -3.91123 0
M  V30 3943 O 364.243 1.32372 -3.3069 0
M  V30 3944 O 363.102 2.26207 -4.97486 0
M  V30 3945 H 360.196 0.374357 -0.737419 0
M  V30 3946 H 362.742 0.0267359 -1.69679 0
M  V30 3947 H 361.514 0.393589 -3.89316 0
M  V30 3948 H 361.137 2.03996 -3.41279 0
M  V30 3949 N 362.134 1.5431 0.320358 0
M  V30 3950 C 363.383 1.7188 1.05546 0
M  V30 3951 C 363.696 0.501143 1.89071 0
M  V30 3952 O 364.902 0.558258 2.65699 0
M  V30 3953 C 363.358 3.04025 1.92605 0
M  V30 3954 C 362.966 4.33207 1.14176 0
M  V30 3955 C 364.71 3.30959 2.65832 0
M  V30 3956 C 362.617 5.56412 2.00399 0
M  V30 3957 H 361.547 0.640547 0.397763 0
M  V30 3958 H 364.198 1.80802 0.313522 0
M  V30 3959 H 362.58 2.89019 2.7071 0
M  V30 3960 H 363.754 4.58989 0.40819 0
M  V30 3961 H 362.069 4.13062 0.526165 0
M  V30 3962 H 364.666 4.20203 3.30656 0
M  V30 3963 H 365.009 2.48979 3.33639 0
M  V30 3964 H 365.542 3.46847 1.94787 0
M  V30 3965 H 362.281 6.41004 1.37094 0
M  V30 3966 H 361.801 5.34844 2.7148 0
M  V30 3967 H 363.48 5.92938 2.58908 0
M  V30 3968 N 363.613 -0.582584 1.46437 0
M  V30 3969 C 364.56 -1.69164 1.5701 0
M  V30 3970 C 365.53 -1.60847 0.414403 0
M  V30 3971 O 366.715 -1.80058 0.631171 0
M  V30 3972 C 363.855 -3.075 1.56646 0
M  V30 3973 C 362.968 -3.2644 2.82951 0
M  V30 3974 C 362.103 -4.55026 2.7409 0
M  V30 3975 C 361.142 -4.6731 3.95333 0
M  V30 3976 N 360.279 -5.87221 3.84858 0
M  V30 3977 H 365.119 -1.59464 2.51744 0
M  V30 3978 H 362.656 -0.777186 1.24893 0
M  V30 3979 H 364.614 -3.8757 1.5442 0
M  V30 3980 H 363.244 -3.16096 0.654439 0
M  V30 3981 H 362.296 -2.39974 2.95155 0
M  V30 3982 H 363.608 -3.31385 3.72808 0
M  V30 3983 H 362.762 -5.43324 2.6997 0
M  V30 3984 H 361.501 -4.52519 1.81873 0
M  V30 3985 H 360.506 -3.77429 3.99784 0
M  V30 3986 H 361.731 -4.71595 4.88646 0
M  V30 3987 H 359.677 -5.85712 2.95427 0
M  V30 3988 H 359.594 -5.93435 4.6837 0
M  V30 3989 H 360.862 -6.7795 3.84713 0
M  V30 3990 N 365.091 -1.34144 -0.827227 0
M  V30 3991 C 366.038 -1.25364 -1.93785 0
M  V30 3992 C 367.008 -0.129774 -1.65592 0
M  V30 3993 O 368.193 -0.310024 -1.88264 0
M  V30 3994 C 365.333 -1.01064 -3.2997 0
M  V30 3995 C 364.446 -2.22185 -3.70484 0
M  V30 3996 C 363.581 -1.91203 -4.95595 0
M  V30 3997 C 362.62 -3.08491 -5.28677 0
M  V30 3998 N 361.757 -2.77421 -6.44967 0
M  V30 3999 H 366.597 -2.20347 -2.00627 0
M  V30 4000 H 364.134 -1.09558 -0.981608 0
M  V30 4001 H 366.092 -0.850139 -4.08446 0
M  V30 4002 H 364.722 -0.0975026 -3.22653 0
M  V30 4003 H 363.774 -2.4917 -2.87434 0
M  V30 4004 H 365.086 -3.0983 -3.90905 0
M  V30 4005 H 364.24 -1.71864 -5.81848 0
M  V30 4006 H 362.979 -1.00812 -4.77167 0
M  V30 4007 H 361.984 -3.28431 -4.40923 0
M  V30 4008 H 363.209 -3.99655 -5.49047 0
M  V30 4009 H 361.155 -1.89601 -6.28003 0
M  V30 4010 H 361.072 -3.58598 -6.6554 0
M  V30 4011 H 362.34 -2.61577 -7.34301 0
M  V30 4012 N 366.569 1.04691 -1.17803 0
M  V30 4013 C 367.815 1.78045 -0.970969 0
M  V30 4014 C 368.148 1.87686 0.498751 0
M  V30 4015 O 367.423 1.38035 1.37027 0
M  V30 4016 C 367.706 3.2166 -1.61884 0
M  V30 4017 C 367.559 3.20001 -3.161 0
M  V30 4018 C 368.878 4.1962 -1.3269 0
M  V30 4019 H 365.997 0.64633 -0.354155 0
M  V30 4020 H 368.639 1.22333 -1.45378 0
M  V30 4021 H 366.789 3.69232 -1.20831 0
M  V30 4022 H 368.461 2.80467 -3.66246 0
M  V30 4023 H 366.704 2.58203 -3.48588 0
M  V30 4024 H 367.375 4.21386 -3.56564 0
M  V30 4025 H 369.851 3.80567 -1.68249 0
M  V30 4026 H 368.727 5.18339 -1.80599 0
M  V30 4027 H 368.988 4.414 -0.248622 0
M  V30 4028 N 368.047 0.979072 1.23499 0
M  V30 4029 C 368.977 0.537606 2.27227 0
M  V30 4030 C 369.958 -0.428539 1.64613 0
M  V30 4031 O 371.143 -0.322191 1.91509 0
M  V30 4032 C 368.273 -0.162052 3.46922 0
M  V30 4033 C 367.227 0.721242 4.21879 0
M  V30 4034 C 366.553 -0.110555 5.34586 0
M  V30 4035 C 367.853 2.01141 4.82016 0
M  V30 4036 H 369.547 1.40462 2.64406 0
M  V30 4037 H 367.093 0.67684 1.27102 0
M  V30 4038 H 369.046 -0.482192 4.18632 0
M  V30 4039 H 367.77 -1.06351 3.08799 0
M  V30 4040 H 366.429 1.02482 3.51984 0
M  V30 4041 H 366.077 -1.0125 4.92704 0
M  V30 4042 H 365.777 0.477325 5.85658 0
M  V30 4043 H 367.301 -0.425107 6.09118 0
M  V30 4044 H 368.715 1.75612 5.45741 0
M  V30 4045 H 367.112 2.54695 5.43369 0
M  V30 4046 H 368.182 2.69909 4.02836 0
M  V30 4047 N 369.525 -1.3858 0.750561 0
M  V30 4048 C 370.455 -2.33102 0.136237 0
M  V30 4049 C 371.436 -1.54713 -0.706965 0
M  V30 4050 O 372.621 -1.83043 -0.648769 0
M  V30 4051 C 369.751 -3.38882 -0.760017 0
M  V30 4052 C 368.705 -4.27995 -0.0197785 0
M  V30 4053 C 368.031 -5.24605 -1.03408 0
M  V30 4054 C 369.331 -5.09554 1.14684 0
M  V30 4055 H 371.025 -2.84726 0.925822 0
M  V30 4056 H 368.571 -1.36898 0.446654 0
M  V30 4057 H 370.524 -4.0397 -1.19943 0
M  V30 4058 H 369.248 -2.85734 -1.58189 0
M  V30 4059 H 367.907 -3.64409 0.400184 0
M  V30 4060 H 367.555 -4.67746 -1.84994 0
M  V30 4061 H 367.255 -5.85081 -0.543464 0
M  V30 4062 H 368.779 -5.9257 -1.47288 0
M  V30 4063 H 370.193 -5.67899 0.785118 0
M  V30 4064 H 368.59 -5.7925 1.56812 0
M  V30 4065 H 369.66 -4.4347 1.96118 0
M  V30 4066 N 371.003 -0.499398 -1.49478 0
M  V30 4067 C 371.913 0.284489 -2.32869 0
M  V30 4068 C 372.929 0.968885 -1.44529 0
M  V30 4069 O 374.105 0.95062 -1.77553 0
M  V30 4070 C 371.17 1.33594 -3.19928 0
M  V30 4071 C 370.231 0.665149 -4.24116 0
M  V30 4072 C 369.464 1.6665 -5.07014 0
M  V30 4073 O 369.687 2.89618 -4.91404 0
M  V30 4074 O 368.621 1.22271 -5.8935 0
M  V30 4075 H 372.447 -0.39802 -3.01081 0
M  V30 4076 H 370.032 -0.260758 -1.47107 0
M  V30 4077 H 371.914 1.94431 -3.73864 0
M  V30 4078 H 370.589 2.0014 -2.54412 0
M  V30 4079 H 369.496 0.0170769 -3.74096 0
M  V30 4080 H 370.829 0.0421555 -4.92182 0
M  V30 4081 N 372.481 1.55866 -0.233164 0
M  V30 4082 C 373.414 2.16794 0.712442 0
M  V30 4083 C 374.392 1.1158 1.18273 0
M  V30 4084 O 375.576 1.39897 1.26337 0
M  V30 4085 C 372.703 2.75757 1.96661 0
M  V30 4086 C 371.749 3.93902 1.63533 0
M  V30 4087 S 372.582 5.30223 0.74995 0
M  V30 4088 C 373.738 5.92631 2.01343 0
M  V30 4089 H 373.971 2.96662 0.194617 0
M  V30 4090 H 371.504 1.5439 -0.0177425 0
M  V30 4091 H 373.462 3.10367 2.68668 0
M  V30 4092 H 372.123 1.9586 2.45556 0
M  V30 4093 H 371.316 4.33702 2.56747 0
M  V30 4094 H 370.918 3.60499 0.995804 0
M  V30 4095 H 373.21 6.09312 2.96219 0
M  V30 4096 H 374.153 6.88388 1.65915 0
M  V30 4097 H 374.561 5.21571 2.15925 0
M  V30 4098 N 373.959 -0.0401083 1.57549 0
M  V30 4099 C 375.375 -0.395556 1.54621 0
M  V30 4100 C 375.575 -1.77281 0.957799 0
M  V30 4101 O 374.631 -2.45888 0.574031 0
M  V30 4102 C 375.944 -0.307535 2.99123 0
M  V30 4103 C 377.492 -0.385425 3.10618 0
M  V30 4104 C 377.967 -0.326973 4.56831 0
M  V30 4105 N 379.458 -0.386102 4.61588 0
M  V30 4106 C 380.193 -0.363591 5.72246 0
M  V30 4107 N 379.689 -0.29402 6.92176 0
M  V30 4108 N 381.482 -0.412503 5.60584 0
M  V30 4109 H 373.633 0.861325 1.94152 0
M  V30 4110 H 375.896 0.326445 0.890021 0
M  V30 4111 H 375.602 0.638461 3.45856 0
M  V30 4112 H 375.476 -1.10552 3.60636 0
M  V30 4113 H 377.863 -1.32185 2.63839 0
M  V30 4114 H 377.944 0.44171 2.51957 0
M  V30 4115 H 377.588 0.605738 5.04275 0
M  V30 4116 H 377.518 -1.17207 5.13391 0
M  V30 4117 H 380.009 -0.442832 3.75296 0
M  V30 4118 H 380.322 -0.28164 7.72287 0
M  V30 4119 H 378.667 -0.260232 6.94513 0
M  V30 4120 H 381.858 -0.464769 4.65787 0
M  V30 4121 H 382.031 -0.391492 6.46816 0
M  V30 4122 N 375.437 -1.54477 -0.31217 0
M  V30 4123 C 376.384 -1.84655 -1.38461 0
M  V30 4124 C 377.354 -0.694536 -1.50882 0
M  V30 4125 O 378.539 -0.942081 -1.6592 0
M  V30 4126 C 375.679 -2.0896 -2.74645 0
M  V30 4127 C 374.792 -3.36618 -2.70763 0
M  V30 4128 C 373.927 -3.50824 -3.98868 0
M  V30 4129 C 372.966 -4.72315 -3.89339 0
M  V30 4130 N 372.103 -4.83387 -5.09197 0
M  V30 4131 H 376.943 -2.76142 -1.12026 0
M  V30 4132 H 374.48 -1.36748 -0.542065 0
M  V30 4133 H 376.438 -2.21045 -3.53829 0
M  V30 4134 H 375.068 -1.20752 -2.99364 0
M  V30 4135 H 374.12 -3.33211 -1.83506 0
M  V30 4136 H 375.432 -4.25917 -2.59608 0
M  V30 4137 H 374.586 -3.62513 -4.86486 0
M  V30 4138 H 373.325 -2.59638 -4.12843 0
M  V30 4139 H 372.33 -4.6067 -3.00105 0
M  V30 4140 H 373.555 -5.64897 -3.76919 0
M  V30 4141 H 371.501 -3.9512 -5.23657 0
M  V30 4142 H 371.418 -5.66669 -5.00422 0
M  V30 4143 H 372.686 -4.9942 -5.98498 0
M  V30 4144 N 376.915 0.57481 -1.46744 0
M  V30 4145 C 378.162 1.33272 -1.52462 0
M  V30 4146 C 378.49 1.93669 -0.179572 0
M  V30 4147 O 377.745 1.7743 0.825664 0
M  V30 4148 C 378.044 2.476 -2.57738 0
M  V30 4149 C 377.71 2.05146 -4.01529 0
M  V30 4150 C 376.372 1.93284 -4.40676 0
M  V30 4151 C 378.724 1.72506 -4.91824 0
M  V30 4152 C 376.052 1.47049 -5.67973 0
M  V30 4153 C 378.404 1.27748 -6.19567 0
M  V30 4154 C 377.068 1.14468 -6.57612 0
M  V30 4155 H 376.338 0.487678 -0.557899 0
M  V30 4156 H 378.985 0.646456 -1.80259 0
M  V30 4157 H 377.29 3.21708 -2.23632 0
M  V30 4158 H 378.987 3.05807 -2.5939 0
M  V30 4159 H 375.577 2.15316 -3.7059 0
M  V30 4160 H 379.761 1.80552 -4.62293 0
M  V30 4161 H 375.017 1.35417 -5.96215 0
M  V30 4162 H 379.191 1.01547 -6.88957 0
M  V30 4163 H 376.818 0.78419 -7.56145 0
M  V30 4164 N 378.394 1.34581 0.820102 0
M  V30 4165 C 379.81 1.14325 1.11364 0
M  V30 4166 C 380.01 -0.0533648 2.01429 0
M  V30 4167 O 379.066 -0.728044 2.41776 0
M  V30 4168 C 380.379 2.43983 1.75764 0
M  V30 4169 C 381.927 2.50065 1.88246 0
M  V30 4170 C 382.402 3.79732 2.56061 0
M  V30 4171 N 383.893 3.80908 2.63558 0
M  V30 4172 C 384.628 4.77961 3.16766 0
M  V30 4173 N 384.124 5.85397 3.70517 0
M  V30 4174 N 385.917 4.65413 3.15194 0
M  V30 4175 H 378.068 2.11246 0.221096 0
M  V30 4176 H 380.331 0.934289 0.160649 0
M  V30 4177 H 380.037 3.31651 1.1705 0
M  V30 4178 H 379.911 2.57531 2.75604 0
M  V30 4179 H 382.298 1.62834 2.46108 0
M  V30 4180 H 382.379 2.40442 0.873006 0
M  V30 4181 H 382.023 4.67354 1.98853 0
M  V30 4182 H 381.953 3.86639 3.57516 0
M  V30 4183 H 384.444 3.03274 2.25463 0
M  V30 4184 H 384.757 6.55463 4.09376 0
M  V30 4185 H 383.102 5.89107 3.68752 0
M  V30 4186 H 386.293 3.80627 2.72471 0
M  V30 4187 H 386.466 5.41216 3.56356 0
M  V30 4188 N 379.872 -1.04064 1.18357 0
M  V30 4189 C 380.805 -2.11618 0.854 0
M  V30 4190 C 381.783 -1.61555 -0.184043 0
M  V30 4191 O 382.967 -1.88395 -0.0630048 0
M  V30 4192 C 380.094 -3.37574 0.27597 0
M  V30 4193 C 379.14 -4.06485 1.2912 0
M  V30 4194 S 379.973 -4.53543 2.84709 0
M  V30 4195 C 381.129 -5.82732 2.28417 0
M  V30 4196 H 381.362 -2.39247 1.76488 0
M  V30 4197 H 378.895 -1.16832 1.00944 0
M  V30 4198 H 380.853 -4.10468 -0.051026 0
M  V30 4199 H 379.514 -3.0806 -0.613028 0
M  V30 4200 H 378.707 -4.97024 0.835633 0
M  V30 4201 H 378.309 -3.39708 1.56443 0
M  V30 4202 H 380.601 -6.56677 1.66677 0
M  V30 4203 H 381.544 -6.33052 3.17256 0
M  V30 4204 H 381.952 -5.37838 1.71436 0
M  V30 4205 N 381.35 -0.985608 -1.22978 0
M  V30 4206 C 382.598 -0.656087 -1.91154 0
M  V30 4207 C 382.919 0.813561 -1.77218 0
M  V30 4208 O 382.189 1.58244 -1.1548 0
M  V30 4209 H 380.769 -0.239674 -0.707506 0
M  V30 4210 H 383.431 -1.25054 -1.49491 0
M  V30 4211 H 382.527 -0.912253 -2.9847 0
M  V30 4212 N 382.828 1.3818 -0.7579 0
M  V30 4213 C 383.758 2.33027 -0.148597 0
M  V30 4214 C 384.739 1.55085 0.69875 0
M  V30 4215 O 385.924 1.83384 0.639053 0
M  V30 4216 C 383.054 3.3928 0.742034 0
M  V30 4217 C 382.008 4.28 -0.00291946 0
M  V30 4218 C 381.334 5.25146 1.00625 0
M  V30 4219 C 382.634 5.08938 -1.17385 0
M  V30 4220 H 384.328 2.84231 -0.940909 0
M  V30 4221 H 381.874 1.36659 -0.453908 0
M  V30 4222 H 383.827 4.046 1.17799 0
M  V30 4223 H 382.551 2.86569 1.56671 0
M  V30 4224 H 381.21 3.64192 -0.419504 0
M  V30 4225 H 380.858 4.68721 1.8251 0
M  V30 4226 H 380.558 5.85361 0.512428 0
M  V30 4227 H 382.082 5.93342 1.44143 0
M  V30 4228 H 383.496 5.67474 -0.815224 0
M  V30 4229 H 381.893 5.7841 -1.59882 0
M  V30 4230 H 382.963 4.42424 -1.98468 0
M  V30 4231 N 384.306 0.507319 1.49211 0
M  V30 4232 C 385.555 -0.0368315 2.01666 0
M  V30 4233 C 385.868 -1.37459 1.39156 0
M  V30 4234 O 387.074 -2.00579 1.82976 0
M  V30 4235 C 385.53 -0.116089 3.59713 0
M  V30 4236 C 385.138 1.2154 4.31198 0
M  V30 4237 C 386.882 -0.610268 4.2009 0
M  V30 4238 C 384.789 1.09796 5.81119 0
M  V30 4239 H 383.719 -0.0175376 0.753796 0
M  V30 4240 H 386.37 0.647691 1.71689 0
M  V30 4241 H 384.752 -0.8652 3.86433 0
M  V30 4242 H 385.926 1.9783 4.16173 0
M  V30 4243 H 384.241 1.64352 3.82593 0
M  V30 4244 H 386.838 -0.715742 5.29888 0
M  V30 4245 H 387.181 -1.61064 3.8388 0
M  V30 4246 H 387.714 0.0824916 3.97714 0
M  V30 4247 H 384.453 2.0728 6.21864 0
M  V30 4248 H 383.973 0.376058 5.9862 0
M  V30 4249 H 385.652 0.779281 6.4229 0
M  V30 4250 N 385.784 -1.5574 0.241426 0
M  V30 4251 C 386.716 -2.18469 -0.693091 0
M  V30 4252 C 387.729 -1.15942 -1.14286 0
M  V30 4253 O 388.918 -1.42832 -1.07058 0
M  V30 4254 C 386.018 -2.7696 -1.95311 0
M  V30 4255 C 385.191 -4.04853 -1.65568 0
M  V30 4256 C 384.25 -4.47715 -2.76474 0
M  V30 4257 O 383.276 -5.14205 -2.44094 0
M  V30 4258 N 384.478 -4.15044 -4.05855 0
M  V30 4259 H 387.243 -2.99292 -0.156388 0
M  V30 4260 H 384.804 -1.61784 0.0611752 0
M  V30 4261 H 386.796 -3.02594 -2.68736 0
M  V30 4262 H 385.366 -2.00326 -2.39975 0
M  V30 4263 H 384.586 -3.86865 -0.756886 0
M  V30 4264 H 385.874 -4.88246 -1.43153 0
M  V30 4265 H 385.272 -3.61654 -4.34998 0
M  V30 4266 H 383.829 -4.45526 -4.75762 0
M  V30 4267 N 387.262 0.0317525 -1.57568 0
M  V30 4268 C 388.49 0.734949 -1.93407 0
M  V30 4269 C 388.905 1.69036 -0.84096 0
M  V30 4270 O 388.262 1.81582 0.182836 0
M  V30 4271 C 388.313 1.49432 -3.29169 0
M  V30 4272 O 388.034 0.577261 -4.3428 0
M  V30 4273 C 389.535 2.29492 -3.79273 0
M  V30 4274 H 386.755 0.206706 -0.638368 0
M  V30 4275 H 389.299 -0.00992046 -2.04498 0
M  V30 4276 H 387.454 2.1911 -3.19483 0
M  V30 4277 H 387.868 1.10952 -5.1263 0
M  V30 4278 H 389.342 2.78172 -4.76785 0
M  V30 4279 H 389.819 3.10794 -3.10328 0
M  V30 4280 H 390.425 1.64894 -3.92033 0
M  V30 4281 N 388.74 1.54641 0.303973 0
M  V30 4282 C 389.703 1.84646 1.35789 0
M  V30 4283 C 390.703 0.7192 1.4382 0
M  V30 4284 O 391.893 0.987491 1.43507 0
M  V30 4285 C 389.025 2.02407 2.74307 0
M  V30 4286 H 390.218 2.78829 1.10429 0
M  V30 4287 H 387.771 1.46658 0.540487 0
M  V30 4288 H 388.506 1.10502 3.04893 0
M  V30 4289 H 388.291 2.84453 2.69868 0
M  V30 4290 H 389.781 2.27002 3.50514 0
M  V30 4291 N 390.218 -0.567019 1.47046 0
M  V30 4292 C 391.495 -1.3276 1.43646 0
M  V30 4293 C 391.875 -2.1071 0.128186 0
M  V30 4294 O 391.223 -2.10441 -0.890326 0
M  V30 4295 C 391.433 -2.2404 2.67595 0
M  V30 4296 C 392.781 -2.85372 3.14401 0
M  V30 4297 O 393.805 -2.34346 2.68254 0
M  V30 4298 O 392.664 -3.78091 3.946 0
M  V30 4299 H 389.758 -0.597293 0.571988 0
M  V30 4300 H 392.304 -0.586735 1.59234 0
M  V30 4301 H 391.076 -1.65975 3.54356 0
M  V30 4302 H 390.699 -3.05439 2.54544 0
M  V30 4303 N 391.696 -1.35014 -0.812953 0
M  V30 4304 C 392.628 -1.23262 -1.93233 0
M  V30 4305 C 393.641 -0.157371 -1.62038 0
M  V30 4306 O 394.83 -0.410096 -1.73725 0
M  V30 4307 C 391.93 -0.87392 -3.27438 0
M  V30 4308 C 391.103 -2.04622 -3.86586 0
M  V30 4309 C 390.162 -1.66432 -4.99186 0
M  V30 4310 O 389.188 -2.38222 -5.16951 0
M  V30 4311 N 390.39 -0.584248 -5.77552 0
M  V30 4312 H 393.155 -2.19699 -2.03844 0
M  V30 4313 H 390.716 -1.281 -0.99005 0
M  V30 4314 H 392.708 -0.600039 -4.00227 0
M  V30 4315 H 391.278 0.00057392 -3.126 0
M  V30 4316 H 390.498 -2.48427 -3.06068 0
M  V30 4317 H 391.786 -2.82999 -4.22835 0
M  V30 4318 H 391.184 0.0123526 -5.65699 0
M  V30 4319 H 389.741 -0.37013 -6.50748 0
M  V30 4320 N 393.175 1.03435 -1.18907 0
M  V30 4321 C 394.105 2.13503 -0.945448 0
M  V30 4322 C 395.086 1.69682 0.119189 0
M  V30 4323 O 396.271 1.94169 -0.034707 0
M  V30 4324 C 393.401 3.44004 -0.477316 0
M  V30 4325 C 392.355 4.0148 -1.48316 0
M  V30 4326 C 391.681 5.27537 -0.872311 0
M  V30 4327 C 392.981 4.36921 -2.86177 0
M  V30 4328 H 394.675 2.34141 -1.86597 0
M  V30 4329 H 392.221 1.12523 -0.898584 0
M  V30 4330 H 394.174 4.20372 -0.294204 0
M  V30 4331 H 392.898 3.23072 0.478786 0
M  V30 4332 H 391.557 3.27201 -1.65332 0
M  V30 4333 H 391.205 5.02917 0.0911752 0
M  V30 4334 H 390.905 5.66954 -1.54393 0
M  V30 4335 H 392.429 6.06576 -0.699871 0
M  V30 4336 H 393.843 5.04248 -2.72776 0
M  V30 4337 H 392.24 4.87405 -3.50081 0
M  V30 4338 H 393.31 3.46466 -3.39248 0
M  V30 4339 N 394.653 0.992116 1.22453 0
M  V30 4340 C 396.069 0.702713 1.43297 0
M  V30 4341 C 396.269 -0.726909 1.87932 0
M  V30 4342 O 395.325 -1.49792 2.0327 0
M  V30 4343 C 396.638 1.70762 2.47509 0
M  V30 4344 C 398.186 1.72298 2.61309 0
M  V30 4345 C 398.661 2.71649 3.68742 0
M  V30 4346 N 400.152 2.70239 3.76199 0
M  V30 4347 C 400.887 3.43778 4.58917 0
M  V30 4348 N 400.383 4.26914 5.45633 0
M  V30 4349 N 402.176 3.32487 4.5322 0
M  V30 4350 H 394.327 1.91543 0.917871 0
M  V30 4351 H 396.59 0.826031 0.465162 0
M  V30 4352 H 396.296 2.73059 2.21657 0
M  V30 4353 H 396.17 1.49985 3.46099 0
M  V30 4354 H 398.557 0.706989 2.86506 0
M  V30 4355 H 398.638 1.97143 1.62997 0
M  V30 4356 H 398.282 3.73397 3.44292 0
M  V30 4357 H 398.212 2.44074 4.66622 0
M  V30 4358 H 400.703 2.09912 3.14237 0
M  V30 4359 H 401.016 4.79855 6.05771 0
M  V30 4360 H 399.361 4.31002 5.45218 0
M  V30 4361 H 402.552 2.6698 3.84499 0
M  V30 4362 H 402.725 3.90058 5.17454 0
M  V30 4363 N 396.131 -1.37776 0.765217 0
M  V30 4364 C 397.378 -1.99849 0.326588 0
M  V30 4365 C 397.706 -1.60746 -1.09504 0
M  V30 4366 O 396.961 -0.84202 -1.76659 0
M  V30 4367 C 397.26 -3.5504 0.410053 0
M  V30 4368 C 396.926 -4.13891 1.78899 0
M  V30 4369 C 395.588 -4.29678 2.16635 0
M  V30 4370 C 397.94 -4.46236 2.69301 0
M  V30 4371 C 395.268 -4.7511 3.44221 0
M  V30 4372 C 397.62 -4.93089 3.9629 0
M  V30 4373 C 396.284 -5.07082 4.34078 0
M  V30 4374 H 395.554 -0.7313 0.119507 0
M  V30 4375 H 398.201 -1.64645 0.977968 0
M  V30 4376 H 396.506 -3.90451 -0.324878 0
M  V30 4377 H 398.203 -4.00966 0.0520699 0
M  V30 4378 H 394.793 -4.02026 1.48569 0
M  V30 4379 H 398.977 -4.3363 2.41409 0
M  V30 4380 H 394.233 -4.84129 3.73402 0
M  V30 4381 H 398.407 -5.17084 4.66472 0
M  V30 4382 H 396.034 -5.42046 5.33001 0
M  V30 4383 N 397.609 -0.515225 -1.4894 0
M  V30 4384 C 398.834 0.022727 -2.07388 0
M  V30 4385 C 399.259 1.2876 -1.37122 0
M  V30 4386 O 398.617 1.76067 -0.432431 0
M  V30 4387 C 398.665 0.244869 -3.59768 0
M  V30 4388 O 397.769 1.31667 -3.90817 0
M  V30 4389 H 397.11 -0.0325506 -0.663202 0
M  V30 4390 H 399.64 -0.718918 -1.91553 0
M  V30 4391 H 399.65 0.47205 -4.0526 0
M  V30 4392 H 398.325 -0.679194 -4.10317 0
M  V30 4393 H 396.902 1.07331 -3.5712 0
M  V30 4394 N 399.087 1.5561 -0.249682 0
M  V30 4395 C 400.317 2.03116 0.377803 0
M  V30 4396 C 400.725 1.12822 1.51881 0
M  V30 4397 O 400.068 0.13562 1.83199 0
M  V30 4398 C 400.13 3.46866 0.944693 0
M  V30 4399 C 399.794 4.56955 -0.0644259 0
M  V30 4400 C 400.791 5.12485 -0.874957 0
M  V30 4401 C 398.476 5.01936 -0.19132 0
M  V30 4402 C 400.47 6.11491 -1.79881 0
M  V30 4403 C 398.157 6.00773 -1.11868 0
M  V30 4404 C 399.155 6.5543 -1.92095 0
M  V30 4405 O 398.843 7.5234 -2.83267 0
M  V30 4406 H 398.575 0.669489 0.0935961 0
M  V30 4407 H 401.129 2.02004 -0.371966 0
M  V30 4408 H 399.359 3.45136 1.74407 0
M  V30 4409 H 401.048 3.77856 1.48255 0
M  V30 4410 H 401.814 4.78564 -0.787523 0
M  V30 4411 H 397.693 4.59055 0.423072 0
M  V30 4412 H 401.237 6.54078 -2.42543 0
M  V30 4413 H 397.134 6.34114 -1.20703 0
M  V30 4414 H 397.902 7.69966 -2.7766 0
M  V30 4415 N 400.565 -0.0233959 1.57583 0
M  V30 4416 C 401.495 -1.02162 2.09965 0
M  V30 4417 C 402.476 -1.3735 1.00344 0
M  V30 4418 O 403.661 -1.46135 1.27899 0
M  V30 4419 C 400.791 -2.32081 2.58371 0
M  V30 4420 C 399.745 -2.1112 3.72307 0
M  V30 4421 C 399.071 -3.46848 4.06941 0
M  V30 4422 C 400.371 -1.49276 5.00514 0
M  V30 4423 H 402.065 -0.585557 2.93618 0
M  V30 4424 H 399.611 -0.280218 1.41247 0
M  V30 4425 H 401.564 -3.02249 2.93639 0
M  V30 4426 H 400.288 -2.77758 1.71808 0
M  V30 4427 H 398.947 -1.43384 3.37397 0
M  V30 4428 H 398.595 -3.90184 3.17436 0
M  V30 4429 H 398.295 -3.33646 4.83688 0
M  V30 4430 H 399.819 -4.18369 4.44747 0
M  V30 4431 H 401.233 -2.09368 5.33702 0
M  V30 4432 H 399.63 -1.46632 5.8191 0
M  V30 4433 H 400.7 -0.459217 4.82721 0
M  V30 4434 N 402.043 -1.548 -0.295768 0
M  V30 4435 C 403.006 -1.85363 -1.34808 0
M  V30 4436 C 404.006 -0.726817 -1.43436 0
M  V30 4437 O 405.196 -0.995088 -1.42981 0
M  V30 4438 C 402.328 -2.03859 -2.73229 0
M  V30 4439 H 403.521 -2.7941 -1.08949 0
M  V30 4440 H 401.074 -1.46942 -0.532702 0
M  V30 4441 H 401.809 -1.12117 -3.04303 0
M  V30 4442 H 401.594 -2.8588 -2.68356 0
M  V30 4443 H 403.084 -2.28857 -3.49305 0
M  V30 4444 N 403.521 0.559213 -1.47345 0
M  V30 4445 C 404.767 1.31843 -1.54095 0
M  V30 4446 C 405.1 1.93149 -0.201726 0
M  V30 4447 O 404.375 1.77759 0.789428 0
M  V30 4448 C 404.658 2.43006 -2.65744 0
M  V30 4449 C 404.511 1.86581 -4.09277 0
M  V30 4450 C 405.83 3.44943 -2.73318 0
M  V30 4451 H 402.949 0.478012 -0.560957 0
M  V30 4452 H 405.591 0.625977 -1.79392 0
M  V30 4453 H 403.741 3.02072 -2.44305 0
M  V30 4454 H 405.413 1.31792 -4.42073 0
M  V30 4455 H 403.656 1.17268 -4.17649 0
M  V30 4456 H 404.327 2.66933 -4.83168 0
M  V30 4457 H 406.803 2.95793 -2.92653 0
M  V30 4458 H 405.679 4.20153 -3.53218 0
M  V30 4459 H 405.94 4.03665 -1.80296 0
M  V30 4460 N 404.999 1.35443 0.805782 0
M  V30 4461 C 406.248 1.28097 1.55801 0
M  V30 4462 C 406.561 -0.142428 1.95081 0
M  V30 4463 O 407.767 -0.33817 2.69386 0
M  V30 4464 C 406.223 2.24653 2.81174 0
M  V30 4465 C 405.831 3.72342 2.49129 0
M  V30 4466 C 407.575 2.2625 3.59181 0
M  V30 4467 C 405.482 4.60719 3.70799 0
M  V30 4468 H 404.412 0.475937 0.584808 0
M  V30 4469 H 407.063 1.60712 0.885661 0
M  V30 4470 H 405.445 1.85011 3.50124 0
M  V30 4471 H 406.619 4.20624 1.88181 0
M  V30 4472 H 404.934 3.73361 1.84366 0
M  V30 4473 H 407.531 2.89495 4.49552 0
M  V30 4474 H 407.874 1.26647 3.96568 0
M  V30 4475 H 408.407 2.64426 2.97193 0
M  V30 4476 H 405.146 5.61324 3.3852 0
M  V30 4477 H 404.666 4.17163 4.3097 0
M  V30 4478 H 406.345 4.76182 4.38018 0
M  V30 4479 N 406.477 -1.02803 1.19454 0
M  V30 4480 C 407.387 -2.14575 0.948408 0
M  V30 4481 C 408.403 -1.73757 -0.091871 0
M  V30 4482 O 409.579 -2.01185 0.0929654 0
M  V30 4483 C 406.644 -3.43202 0.491265 0
M  V30 4484 C 405.705 -3.98328 1.60103 0
M  V30 4485 C 404.938 -5.20816 1.16561 0
M  V30 4486 O 405.161 -5.70392 0.0295238 0
M  V30 4487 O 404.095 -5.68801 1.96849 0
M  V30 4488 H 407.921 -2.38202 1.88397 0
M  V30 4489 H 405.506 -1.12989 0.977433 0
M  V30 4490 H 407.388 -4.20687 0.245015 0
M  V30 4491 H 406.063 -3.21018 -0.415851 0
M  V30 4492 H 404.97 -3.22174 1.90144 0
M  V30 4493 H 406.303 -4.24879 2.48473 0
M  V30 4494 N 407.956 -0.998596 -1.21925 0
M  V30 4495 C 409.204 -0.676325 -1.90448 0
M  V30 4496 C 409.525 0.794719 -1.78071 0
M  V30 4497 O 408.795 1.5701 -1.17152 0
M  V30 4498 H 407.375 -0.247165 -0.704925 0
M  V30 4499 H 410.037 -1.26633 -1.48156 0
M  V30 4500 H 409.133 -0.943858 -2.97486 0
M  V30 4501 N 409.434 1.37368 -0.772513 0
M  V30 4502 C 410.397 2.28601 -0.165541 0
M  V30 4503 C 411.397 1.48062 0.627238 0
M  V30 4504 O 412.587 1.68268 0.450715 0
M  V30 4505 C 409.719 3.32023 0.772897 0
M  V30 4506 H 410.912 2.83787 -0.969787 0
M  V30 4507 H 408.465 1.46647 -0.540775 0
M  V30 4508 H 409.2 2.81962 1.60212 0
M  V30 4509 H 408.985 3.91555 0.206585 0
M  V30 4510 H 410.475 4.00197 1.19298 0
M  V30 4511 N 410.912 0.523116 1.48665 0
M  V30 4512 C 411.859 -0.243398 2.29513 0
M  V30 4513 C 412.829 -0.940139 1.36933 0
M  V30 4514 O 414.014 -0.942503 1.65896 0
M  V30 4515 C 411.154 -1.28855 3.20141 0
M  V30 4516 C 410.267 -0.60135 4.27794 0
M  V30 4517 C 409.402 -1.62884 5.05611 0
M  V30 4518 C 408.441 -0.924726 6.05075 0
M  V30 4519 N 407.578 -1.89744 6.75975 0
M  V30 4520 H 412.418 0.452234 2.94549 0
M  V30 4521 H 409.955 0.234858 1.45213 0
M  V30 4522 H 411.913 -1.90674 3.71079 0
M  V30 4523 H 410.543 -1.95266 2.57043 0
M  V30 4524 H 409.595 0.130623 3.80176 0
M  V30 4525 H 410.907 -0.0481585 4.98777 0
M  V30 4526 H 410.061 -2.32149 5.60528 0
M  V30 4527 H 408.8 -2.21592 4.34452 0
M  V30 4528 H 407.805 -0.217966 5.49368 0
M  V30 4529 H 409.03 -0.343851 6.78229 0
M  V30 4530 H 406.976 -2.47373 6.07571 0
M  V30 4531 H 406.893 -1.3955 7.43009 0
M  V30 4532 H 408.161 -2.58229 7.35485 0
M  V30 4533 N 412.39 -1.55475 0.257931 0
M  V30 4534 C 413.637 -1.99207 -0.363728 0
M  V30 4535 C 413.965 -1.1462 -1.57139 0
M  V30 4536 O 413.22 -0.199653 -1.94679 0
M  V30 4537 C 413.519 -3.48183 -0.806433 0
M  V30 4538 C 413.185 -4.49936 0.294684 0
M  V30 4539 C 411.847 -4.77481 0.597076 0
M  V30 4540 C 414.199 -5.10769 1.03751 0
M  V30 4541 C 411.527 -5.63132 1.64618 0
M  V30 4542 C 413.879 -5.97558 2.07622 0
M  V30 4543 C 412.543 -6.23432 2.38514 0
M  V30 4544 H 411.813 -0.728949 -0.133097 0
M  V30 4545 H 414.46 -1.8793 0.368059 0
M  V30 4546 H 412.765 -3.56848 -1.61761 0
M  V30 4547 H 414.462 -3.79415 -1.29789 0
M  V30 4548 H 411.052 -4.28572 0.0488649 0
M  V30 4549 H 415.236 -4.89527 0.817149 0
M  V30 4550 H 410.492 -5.8143 1.89074 0
M  V30 4551 H 414.666 -6.43735 2.65666 0
M  V30 4552 H 412.293 -6.89594 3.19943 0
M  V30 4553 N 413.868 0.0150385 -1.57593 0
M  V30 4554 C 415.117 0.702115 -1.89085 0
M  V30 4555 C 415.43 1.75764 -0.858277 0
M  V30 4556 O 416.636 2.49829 -1.0629 0
M  V30 4557 C 415.092 1.29992 -3.35604 0
M  V30 4558 C 414.7 0.280007 -4.47124 0
M  V30 4559 C 416.444 1.96606 -3.76227 0
M  V30 4560 C 414.351 0.886949 -5.84711 0
M  V30 4561 H 413.281 0.265997 -0.705522 0
M  V30 4562 H 415.932 -0.0430408 -1.8345 0
M  V30 4563 H 414.314 2.09525 -3.36029 0
M  V30 4564 H 415.488 -0.489631 -4.58191 0
M  V30 4565 H 413.803 -0.284835 -4.15425 0
M  V30 4566 H 416.4 2.42893 -4.76347 0
M  V30 4567 H 416.743 2.79024 -3.08952 0
M  V30 4568 H 417.276 1.23828 -3.78036 0
M  V30 4569 H 414.015 0.101876 -6.55421 0
M  V30 4570 H 413.535 1.6261 -5.77337 0
M  V30 4571 H 415.214 1.39011 -6.3189 0
M  V30 4572 N 415.346 1.54954 0.287554 0
M  V30 4573 C 416.279 1.81737 1.3801 0
M  V30 4574 C 417.257 0.669412 1.48181 0
M  V30 4575 O 418.441 0.910839 1.65033 0
M  V30 4576 C 415.568 1.96606 2.75796 0
M  V30 4577 C 414.614 3.19098 2.82982 0
M  V30 4578 S 415.447 4.7683 2.43707 0
M  V30 4579 C 416.603 4.94653 3.83496 0
M  V30 4580 H 416.836 2.74122 1.15085 0
M  V30 4581 H 414.369 1.46538 0.486403 0
M  V30 4582 H 416.327 2.05858 3.55152 0
M  V30 4583 H 414.988 1.05136 2.95982 0
M  V30 4584 H 414.181 3.26344 3.84077 0
M  V30 4585 H 413.783 3.08361 2.11635 0
M  V30 4586 H 416.075 4.79502 4.78628 0
M  V30 4587 H 417.018 5.96728 3.8121 0
M  V30 4588 H 417.426 4.2272 3.74123 0
M  V30 4589 N 416.824 -0.551391 1.4764 0
M  V30 4590 C 418.072 -1.30572 1.54258 0
M  V30 4591 C 418.393 -1.93877 0.208963 0
M  V30 4592 O 417.663 -1.80234 -0.767619 0
M  V30 4593 H 416.243 -0.484894 0.568231 0
M  V30 4594 H 418.905 -0.643402 1.83974 0
M  V30 4595 H 418.001 -2.09621 2.31226 0
M  V30 4596 N 418.302 -1.35869 -0.798587 0
M  V30 4597 C 419.579 -1.20145 -1.54352 0
M  V30 4598 C 419.959 0.216161 -2.0999 0
M  V30 4599 O 419.307 1.22068 -1.93162 0
M  V30 4600 C 419.517 -2.27602 -2.64572 0
M  V30 4601 C 420.865 -2.63811 -3.32699 0
M  V30 4602 O 421.889 -2.26576 -2.74849 0
M  V30 4603 O 420.748 -3.27866 -4.37226 0
M  V30 4604 H 417.842 -0.467248 -0.682355 0
M  V30 4605 H 420.388 -1.47574 -0.837859 0
M  V30 4606 H 419.16 -3.2265 -2.21388 0
M  V30 4607 H 418.783 -2.01488 -3.42766 0
M  V30 4608 N 419.78 1.02168 -1.19998 0
M  V30 4609 C 421.005 1.79833 -1.03319 0
M  V30 4610 C 421.43 1.83504 0.413281 0
M  V30 4611 O 420.788 1.26635 1.29743 0
M  V30 4612 C 420.836 3.22396 -1.61533 0
M  V30 4613 O 419.94 4.03555 -0.849519 0
M  V30 4614 H 419.281 0.554872 -0.364709 0
M  V30 4615 H 421.811 1.28542 -1.59179 0
M  V30 4616 H 421.821 3.73124 -1.65054 0
M  V30 4617 H 420.496 3.19039 -2.66809 0
M  V30 4618 H 419.073 3.62169 -0.888129 0
M  V30 4619 N 421.258 1.00505 1.21394 0
M  V30 4620 C 422.483 0.706367 1.95001 0
M  V30 4621 C 422.908 -0.72463 1.73582 0
M  V30 4622 O 422.266 -1.49702 1.0227 0
M  V30 4623 C 422.314 1.03299 3.45487 0
M  V30 4624 O 421.418 0.138275 4.12168 0
M  V30 4625 H 420.759 0.263175 0.609619 0
M  V30 4626 H 423.289 1.34531 1.54151 0
M  V30 4627 H 423.299 0.979872 3.96059 0
M  V30 4628 H 421.974 2.07567 3.60401 0
M  V30 4629 H 420.551 0.247928 3.72075 0
M  V30 4630 N 422.737 -1.36956 0.779787 0
M  V30 4631 C 423.983 -1.99787 0.348281 0
M  V30 4632 C 424.316 -1.61756 -1.07465 0
M  V30 4633 O 423.591 -0.867639 -1.74075 0
M  V30 4634 C 423.874 -3.56597 0.50104 0
M  V30 4635 C 423.727 -4.04513 1.96697 0
M  V30 4636 C 425.046 -4.40008 -0.0898097 0
M  V30 4637 H 422.165 -0.725796 0.128022 0
M  V30 4638 H 424.807 -1.62514 0.984331 0
M  V30 4639 H 422.957 -3.88479 -0.0404347 0
M  V30 4640 H 424.629 -3.83161 2.56876 0
M  V30 4641 H 422.872 -3.56408 2.47297 0
M  V30 4642 H 423.543 -5.1352 2.02486 0
M  V30 4643 H 426.019 -4.14431 0.372293 0
M  V30 4644 H 424.895 -5.4888 0.0471605 0
M  V30 4645 H 425.156 -4.26035 -1.18096 0
M  V30 4646 N 424.215 -0.530993 -1.48385 0
M  V30 4647 C 425.147 0.268353 -2.27624 0
M  V30 4648 C 426.16 0.903525 -1.35426 0
M  V30 4649 O 427.349 0.781796 -1.60469 0
M  V30 4650 C 424.449 1.39535 -3.08842 0
M  V30 4651 C 423.622 0.861913 -4.28824 0
M  V30 4652 C 422.681 1.87016 -4.91845 0
M  V30 4653 O 421.707 1.4267 -5.5103 0
M  V30 4654 N 422.909 3.20238 -4.84178 0
M  V30 4655 H 425.674 -0.41123 -2.96865 0
M  V30 4656 H 423.235 -0.365387 -1.57723 0
M  V30 4657 H 425.227 2.06803 -3.47871 0
M  V30 4658 H 423.797 1.97859 -2.42014 0
M  V30 4659 H 423.017 0.0132126 -3.94198 0
M  V30 4660 H 424.305 0.484415 -5.06489 0
M  V30 4661 H 423.703 3.58932 -4.37246 0
M  V30 4662 H 422.26 3.83136 -5.27305 0
M  V30 4663 N 425.693 1.55336 -0.266172 0
M  V30 4664 C 426.97 1.91372 0.404486 0
M  V30 4665 C 427.35 1.18935 1.74407 0
M  V30 4666 O 426.698 0.3132 2.26343 0
M  V30 4667 C 426.908 3.44581 0.553593 0
M  V30 4668 C 428.256 4.16196 0.840618 0
M  V30 4669 O 429.28 3.50426 0.638739 0
M  V30 4670 O 428.139 5.32567 1.22618 0
M  V30 4671 H 425.233 0.797194 0.220025 0
M  V30 4672 H 427.779 1.66813 -0.311664 0
M  V30 4673 H 426.551 3.89357 -0.389498 0
M  V30 4674 H 426.174 3.75065 1.31955 0
M  V30 4675 N 427.171 -0.0066808 1.57599 0
M  V30 4676 C 428.103 -1.02827 2.04839 0
M  V30 4677 C 429.116 -1.31108 0.965113 0
M  V30 4678 O 430.305 -1.28202 1.24203 0
M  V30 4679 C 427.405 -2.36464 2.42771 0
M  V30 4680 C 426.578 -2.27219 3.73751 0
M  V30 4681 C 425.637 -3.43489 3.98625 0
M  V30 4682 O 424.663 -3.21976 4.69382 0
M  V30 4683 N 425.865 -4.66116 3.46 0
M  V30 4684 H 428.63 -0.625455 2.93101 0
M  V30 4685 H 426.191 -0.194198 1.60731 0
M  V30 4686 H 428.183 -3.13008 2.56531 0
M  V30 4687 H 426.753 -2.68512 1.60063 0
M  V30 4688 H 425.973 -1.35629 3.70133 0
M  V30 4689 H 427.261 -2.18208 4.59633 0
M  V30 4690 H 426.659 -4.86493 2.88688 0
M  V30 4691 H 425.216 -5.39949 3.65101 0
M  V30 4692 N 428.649 -1.55105 -0.279332 0
M  V30 4693 C 429.895 -1.76597 -1.00921 0
M  V30 4694 C 430.25 -0.556831 -1.84166 0
M  V30 4695 O 429.543 0.450573 -1.86227 0
M  V30 4696 C 429.737 -3.0086 -1.92919 0
M  V30 4697 C 429.566 -4.33744 -1.18728 0
M  V30 4698 C 428.336 -4.9712 -0.905545 0
M  V30 4699 C 430.534 -5.11009 -0.580857 0
M  V30 4700 N 428.516 -6.13749 -0.136169 0
M  V30 4701 C 429.887 -6.19976 0.0546661 0
M  V30 4702 C 431.942 -4.95502 -0.488067 0
M  V30 4703 C 430.645 -7.15123 0.774028 0
M  V30 4704 C 432.671 -5.90999 0.217688 0
M  V30 4705 C 432.033 -6.9935 0.841975 0
M  V30 4706 H 428.132 -0.698553 -0.351493 0
M  V30 4707 H 430.716 -1.92595 -0.285531 0
M  V30 4708 H 428.887 -2.86249 -2.62519 0
M  V30 4709 H 430.619 -3.10784 -2.59221 0
M  V30 4710 H 427.374 -4.57903 -1.20921 0
M  V30 4711 H 427.798 -6.7659 0.235665 0
M  V30 4712 H 432.44 -4.11841 -0.956406 0
M  V30 4713 H 430.158 -7.9831 1.25407 0
M  V30 4714 H 433.744 -5.81078 0.289717 0
M  V30 4715 H 432.624 -7.71973 1.37939 0
M  V30 4716 N 430.127 0.543554 -1.4793 0
M  V30 4717 C 431.074 1.64942 -1.6144 0
M  V30 4718 C 432.044 1.59692 -0.456903 0
M  V30 4719 O 433.229 1.78321 -0.678688 0
M  V30 4720 C 430.369 3.03238 -1.64744 0
M  V30 4721 C 429.482 3.18823 -2.91506 0
M  V30 4722 C 428.617 4.47599 -2.86057 0
M  V30 4723 C 427.656 4.56664 -4.07584 0
M  V30 4724 N 426.793 5.76811 -4.00292 0
M  V30 4725 H 431.633 1.52733 -2.55884 0
M  V30 4726 H 429.17 0.7438 -1.2691 0
M  V30 4727 H 431.128 3.83339 -1.64641 0
M  V30 4728 H 429.758 3.1425 -0.738017 0
M  V30 4729 H 428.81 2.32064 -3.01414 0
M  V30 4730 H 430.122 3.21384 -3.81463 0
M  V30 4731 H 429.276 5.35975 -2.84281 0
M  V30 4732 H 428.015 4.47538 -1.93807 0
M  V30 4733 H 427.02 3.66697 -4.09651 0
M  V30 4734 H 428.245 4.58474 -5.00978 0
M  V30 4735 H 426.191 5.77673 -3.10853 0
M  V30 4736 H 426.108 5.80808 -4.8394 0
M  V30 4737 H 427.376 6.67512 -4.02553 0
M  V30 4738 N 431.605 1.3629 0.791371 0
M  V30 4739 C 432.515 1.32606 1.93527 0
M  V30 4740 C 433.531 0.228541 1.72493 0
M  V30 4741 O 434.707 0.460571 1.96063 0
M  V30 4742 C 431.772 1.11271 3.28359 0
M  V30 4743 C 430.833 2.3048 3.62185 0
M  V30 4744 C 430.066 2.10154 4.90583 0
M  V30 4745 O 430.289 1.07572 5.60165 0
M  V30 4746 O 429.223 2.97884 5.23019 0
M  V30 4747 H 433.049 2.28909 1.99585 0
M  V30 4748 H 430.634 1.16818 0.931344 0
M  V30 4749 H 432.516 1.01283 4.09047 0
M  V30 4750 H 431.191 0.180292 3.23198 0
M  V30 4751 H 430.098 2.46036 2.81811 0
M  V30 4752 H 431.431 3.22221 3.72068 0
M  V30 4753 N 433.083 -1.0153 1.20538 0
M  V30 4754 C 434.013 -2.11972 0.979295 0
M  V30 4755 C 434.994 -1.6985 -0.0921787 0
M  V30 4756 O 436.179 -1.94089 0.0655932 0
M  V30 4757 C 433.309 -3.43201 0.531984 0
M  V30 4758 C 432.263 -3.9907 1.54685 0
M  V30 4759 C 431.589 -5.26082 0.956127 0
M  V30 4760 C 432.889 -4.32313 2.93092 0
M  V30 4761 H 434.583 -2.31143 1.90298 0
M  V30 4762 H 432.129 -1.11079 0.916372 0
M  V30 4763 H 434.082 -4.1985 0.361044 0
M  V30 4764 H 432.806 -3.23792 -0.427327 0
M  V30 4765 H 431.465 -3.2453 1.70517 0
M  V30 4766 H 431.113 -5.02999 -0.0111538 0
M  V30 4767 H 430.813 -5.64426 1.63393 0
M  V30 4768 H 432.337 -6.05386 0.796284 0
M  V30 4769 H 433.751 -4.99845 2.80763 0
M  V30 4770 H 432.148 -4.81774 3.57791 0
M  V30 4771 H 433.218 -3.41025 3.44717 0
M  V30 4772 N 434.561 -1.01147 -1.20859 0
M  V30 4773 C 435.786 -0.716698 -1.94623 0
M  V30 4774 C 436.211 0.715415 -1.73964 0
M  V30 4775 O 435.569 1.49157 -1.03062 0
M  V30 4776 C 435.617 -1.0513 -3.44935 0
M  V30 4777 O 434.721 -0.160131 -4.12089 0
M  V30 4778 H 434.062 -0.266404 -0.608214 0
M  V30 4779 H 436.592 -1.35346 -1.53436 0
M  V30 4780 H 436.602 -1.00086 -3.95533 0
M  V30 4781 H 435.277 -2.09475 -3.59295 0
M  V30 4782 H 433.854 -0.267657 -3.71938 0
M  V30 4783 N 436.039 1.36541 -0.78704 0
M  V30 4784 C 436.989 2.27459 -0.156957 0
M  V30 4785 C 437.973 1.46843 0.657709 0
M  V30 4786 O 439.165 1.69245 0.518173 0
M  V30 4787 C 436.294 3.35893 0.709278 0
M  V30 4788 C 435.38 4.23947 -0.114049 0
M  V30 4789 N 435.771 4.92145 -1.16736 0
M  V30 4790 C 434.069 4.4587 0.107497 0
M  V30 4791 C 434.77 5.57261 -1.66837 0
M  V30 4792 N 433.746 5.3473 -0.977992 0
M  V30 4793 H 437.548 2.77669 -0.963185 0
M  V30 4794 H 435.062 1.49839 -0.62627 0
M  V30 4795 H 437.059 3.99953 1.17656 0
M  V30 4796 H 435.719 2.87238 1.51408 0
M  V30 4797 H 436.73 4.94169 -1.54976 0
M  V30 4798 H 433.407 4.08056 0.882994 0
M  V30 4799 H 434.797 6.21728 -2.54762 0
M  V30 4800 N 437.518 0.538854 1.48102 0
M  V30 4801 C 438.428 -0.222648 2.33541 0
M  V30 4802 C 439.444 -0.930225 1.47047 0
M  V30 4803 O 440.62 -0.903211 1.80011 0
M  V30 4804 C 437.685 -1.25064 3.23357 0
M  V30 4805 C 436.746 -0.552469 4.2573 0
M  V30 4806 C 435.979 -1.53149 5.11254 0
M  V30 4807 O 436.202 -2.76487 4.9891 0
M  V30 4808 O 435.136 -1.06602 5.92385 0
M  V30 4809 H 438.962 0.477707 2.99919 0
M  V30 4810 H 436.547 0.299669 1.46364 0
M  V30 4811 H 438.429 -1.8445 3.78888 0
M  V30 4812 H 437.104 -1.93325 2.59629 0
M  V30 4813 H 436.011 0.082114 3.7401 0
M  V30 4814 H 437.344 0.0883526 4.92121 0
M  V30 4815 N 438.996 -1.55193 0.274407 0
M  V30 4816 C 440.273 -1.91584 -0.394331 0
M  V30 4817 C 440.653 -1.19858 -1.73774 0
M  V30 4818 O 440.001 -0.3252 -2.26174 0
M  V30 4819 C 440.211 -3.4487 -0.535311 0
M  V30 4820 C 441.559 -4.16636 -0.818534 0
M  V30 4821 O 442.583 -3.5076 -0.620146 0
M  V30 4822 O 441.442 -5.33209 -1.19792 0
M  V30 4823 H 438.536 -0.798349 -0.215794 0
M  V30 4824 H 441.082 -1.66646 0.320507 0
M  V30 4825 H 439.854 -3.89145 0.410141 0
M  V30 4826 H 439.477 -3.75759 -1.29964 0
M  V30 4827 N 440.474 -0.00167713 -1.576 0
M  V30 4828 C 441.404 0.988091 -2.11563 0
M  V30 4829 C 442.385 1.35736 -1.02517 0
M  V30 4830 O 443.57 1.44082 -1.30208 0
M  V30 4831 C 440.7 2.27941 -2.62031 0
M  V30 4832 C 439.654 2.0517 -3.75619 0
M  V30 4833 C 438.98 3.4033 -4.12407 0
M  V30 4834 C 440.28 1.41294 -5.02825 0
M  V30 4835 H 441.974 0.538771 -2.94513 0
M  V30 4836 H 439.52 0.257712 -1.41675 0
M  V30 4837 H 441.473 2.97539 -2.9841 0
M  V30 4838 H 440.197 2.74989 -1.76205 0
M  V30 4839 H 438.856 1.37998 -3.39635 0
M  V30 4840 H 438.504 3.85085 -3.23603 0
M  V30 4841 H 438.204 3.25909 -4.88935 0
M  V30 4842 H 439.728 4.1124 -4.51347 0
M  V30 4843 H 441.142 2.00851 -5.36965 0
M  V30 4844 H 439.539 1.37356 -5.84169 0
M  V30 4845 H 440.609 0.382362 -4.8339 0
M  V30 4846 N 441.952 1.55251 0.271103 0
M  V30 4847 C 442.862 1.9136 1.35714 0
M  V30 4848 C 443.878 0.811075 1.5394 0
M  V30 4849 O 445.054 1.11031 1.6803 0
M  V30 4850 C 442.119 2.1798 2.69603 0
M  V30 4851 C 441.18 3.4153 2.60107 0
M  V30 4852 C 440.413 3.66871 3.8761 0
M  V30 4853 O 440.636 2.94689 4.8838 0
M  V30 4854 O 439.57 4.60405 3.87699 0
M  V30 4855 H 443.396 2.83815 1.08088 0
M  V30 4856 H 440.981 1.41821 0.469792 0
M  V30 4857 H 442.863 2.36518 3.48765 0
M  V30 4858 H 441.538 1.28708 2.97012 0
M  V30 4859 H 440.445 3.28325 1.79314 0
M  V30 4860 H 441.778 4.31027 2.37647 0
M  V30 4861 N 443.43 -0.535701 1.48216 0
M  V30 4862 C 444.841 -1.11769 1.49548 0
M  V30 4863 C 445.192 -1.94442 0.26207 0
M  V30 4864 O 444.317 -2.06987 -0.631287 0
M  V30 4865 C 444.912 -2.03367 2.70975 0
M  V30 4866 C 443.471 -2.56795 2.75196 0
M  V30 4867 C 442.618 -1.33631 2.42977 0
M  V30 4868 H 445.569 -0.321232 1.55415 0
M  V30 4869 H 445.59 -2.87569 2.49167 0
M  V30 4870 H 445.102 -1.43169 3.60727 0
M  V30 4871 H 443.203 -3.20731 1.89638 0
M  V30 4872 H 443.316 -2.9632 3.76472 0
M  V30 4873 H 441.68 -1.6502 1.94012 0
M  V30 4874 H 442.463 -0.75194 3.34964 0
M  V30 4875 N 444.908 -1.36708 -0.784132 0
M  V30 4876 C 446.319 -1.27947 -1.35965 0
M  V30 4877 C 446.67 0.0784013 -1.96043 0
M  V30 4878 O 445.795 0.979989 -1.92938 0
M  V30 4879 C 446.39 -2.31689 -2.47195 0
M  V30 4880 C 444.949 -2.26601 -3.00548 0
M  V30 4881 C 444.096 -2.16184 -1.73666 0
M  V30 4882 H 447.047 -1.4751 -0.585358 0
M  V30 4883 H 447.068 -1.95638 -3.26352 0
M  V30 4884 H 446.58 -3.30506 -2.03439 0
M  V30 4885 H 444.681 -1.31268 -3.48711 0
M  V30 4886 H 444.794 -3.19508 -3.57004 0
M  V30 4887 H 443.158 -1.62524 -1.96107 0
M  V30 4888 H 443.941 -3.16896 -1.32031 0
M  V30 4889 N 446.386 1.0089 -1.21074 0
M  V30 4890 C 447.797 1.56056 -1.02486 0
M  V30 4891 C 448.148 1.91728 0.416506 0
M  V30 4892 O 447.273 1.73066 1.29912 0
M  V30 4893 C 447.868 2.83563 -1.85411 0
M  V30 4894 C 446.427 3.3523 -1.71166 0
M  V30 4895 C 445.574 2.0846 -1.82865 0
M  V30 4896 H 448.525 0.831818 -1.35154 0
M  V30 4897 H 448.546 3.55286 -1.36205 0
M  V30 4898 H 448.058 2.57569 -2.9031 0
M  V30 4899 H 446.159 3.66167 -0.689361 0
M  V30 4900 H 446.272 4.06913 -2.52901 0
M  V30 4901 H 444.636 2.21275 -1.26132 0
M  V30 4902 H 445.419 1.84883 -2.89263 0
M  V30 4903 N 447.864 1.01787 1.20321 0
M  V30 4904 C 448.774 0.598898 2.26827 0
M  V30 4905 C 449.79 -0.36418 1.70146 0
M  V30 4906 O 450.966 -0.224812 2.00141 0
M  V30 4907 C 448.031 -0.0549769 3.46656 0
M  V30 4908 C 447.092 0.954205 4.18561 0
M  V30 4909 C 446.325 0.331439 5.3267 0
M  V30 4910 O 446.548 -0.86851 5.63749 0
M  V30 4911 O 445.482 1.0488 5.92692 0
M  V30 4912 H 449.308 1.48562 2.64883 0
M  V30 4913 H 446.893 0.787434 1.26964 0
M  V30 4914 H 448.775 -0.420102 4.19301 0
M  V30 4915 H 447.45 -0.915876 3.10473 0
M  V30 4916 H 446.357 1.37072 3.48083 0
M  V30 4917 H 447.69 1.78511 4.58688 0
M  V30 4918 N 449.342 -1.36122 0.79427 0
M  V30 4919 C 450.292 -2.27373 0.169017 0
M  V30 4920 C 451.276 -1.4719 -0.649913 0
M  V30 4921 O 452.468 -1.69518 -0.50919 0
M  V30 4922 C 449.597 -3.36264 -0.691455 0
M  V30 4923 C 448.683 -4.2388 0.13653 0
M  V30 4924 N 449.074 -4.91519 1.19345 0
M  V30 4925 C 447.372 -4.45921 -0.0838499 0
M  V30 4926 C 448.073 -5.56369 1.6979 0
M  V30 4927 N 447.049 -5.34204 1.00634 0
M  V30 4928 H 450.851 -2.77154 0.977897 0
M  V30 4929 H 448.365 -1.49504 0.634208 0
M  V30 4930 H 450.362 -4.00572 -1.15534 0
M  V30 4931 H 449.022 -2.88037 -1.49883 0
M  V30 4932 H 450.033 -4.9334 1.57594 0
M  V30 4933 H 446.71 -4.08518 -0.861341 0
M  V30 4934 H 448.1 -6.20368 2.58055 0
M  V30 4935 N 450.82 -0.546701 -1.47814 0
M  V30 4936 C 452.069 -0.0166497 -2.01693 0
M  V30 4937 C 452.382 1.33721 -1.42752 0
M  V30 4938 O 453.588 1.95658 -1.8823 0
M  V30 4939 C 452.044 0.0206769 -3.59894 0
M  V30 4940 C 451.652 -1.3293 -4.27824 0
M  V30 4941 C 453.396 0.498674 -4.21561 0
M  V30 4942 C 451.303 -1.25165 -5.78003 0
M  V30 4943 H 450.233 -0.0024541 -0.753996 0
M  V30 4944 H 452.884 -0.692984 -1.69912 0
M  V30 4945 H 451.266 0.76244 -3.88591 0
M  V30 4946 H 452.44 -2.08795 -4.10781 0
M  V30 4947 H 450.755 -1.74438 -3.78101 0
M  V30 4948 H 453.352 0.575 -5.31599 0
M  V30 4949 H 453.695 1.5083 -3.88016 0
M  V30 4950 H 454.228 -0.18791 -3.97356 0
M  V30 4951 H 450.967 -2.23695 -6.1615 0
M  V30 4952 H 450.487 -0.53464 -5.97412 0
M  V30 4953 H 452.166 -0.949299 -6.39998 0
M  V30 4954 N 452.299 1.55045 -0.282633 0
M  V30 4955 C 453.71 1.85473 0.213655 0
M  V30 4956 C 454.061 1.20465 1.54863 0
M  V30 4957 O 453.186 0.495676 2.10647 0
M  V30 4958 C 453.781 3.36496 0.394445 0
M  V30 4959 C 452.34 3.67022 0.834961 0
M  V30 4960 C 451.487 2.77218 -0.0674081 0
M  V30 4961 H 454.438 1.50478 -0.504202 0
M  V30 4962 H 454.459 3.60007 1.23186 0
M  V30 4963 H 453.971 3.83782 -0.577326 0
M  V30 4964 H 452.072 3.25241 1.81794 0
M  V30 4965 H 452.185 4.74433 0.667075 0
M  V30 4966 H 450.549 2.5069 0.450196 0
M  V30 4967 H 451.332 3.2732 -1.0352 0
M  V30 4968 N 453.777 0.010035 1.57597 0
M  V30 4969 C 455.188 -0.531426 1.78977 0
M  V30 4970 C 455.539 -1.73375 0.918454 0
M  V30 4971 O 454.664 -2.16047 0.123635 0
M  V30 4972 C 455.259 -0.97086 3.24592 0
M  V30 4973 C 453.818 -1.45756 3.47033 0
M  V30 4974 C 452.965 -0.413384 2.74201 0
M  V30 4975 H 455.916 0.236166 1.56933 0
M  V30 4976 H 455.937 -1.83633 3.33255 0
M  V30 4977 H 455.449 -0.0955893 3.87982 0
M  V30 4978 H 453.55 -2.35339 2.88871 0
M  V30 4979 H 453.663 -1.4781 4.55729 0
M  V30 4980 H 452.027 -0.877266 2.39115 0
M  V30 4981 H 452.81 0.453092 3.40297 0
M  V30 4982 N 455.255 -1.55392 -0.262866 0
M  V30 4983 C 456.666 -1.67079 -0.833158 0
M  V30 4984 C 457.017 -0.604539 -1.86654 0
M  V30 4985 O 456.142 0.252138 -2.14926 0
M  V30 4986 C 456.737 -3.02891 -1.51797 0
M  V30 4987 C 455.296 -3.16571 -2.03617 0
M  V30 4988 C 454.443 -2.62909 -0.881701 0
M  V30 4989 H 457.394 -1.58652 -0.0389986 0
M  V30 4990 H 457.415 -2.96445 -2.38538 0
M  V30 4991 H 456.927 -3.80473 -0.765619 0
M  V30 4992 H 455.028 -2.43782 -2.81782 0
M  V30 4993 H 455.141 -4.23271 -2.24452 0
M  V30 4994 H 453.505 -2.20324 -1.27786 0
M  V30 4995 H 454.288 -3.43003 -0.14269 0
M  V30 4996 N 456.733 0.527833 -1.48498 0
M  V30 4997 C 458.144 1.10975 -1.50138 0
M  V30 4998 C 458.495 1.943 -0.272378 0
M  V30 4999 O 457.62 2.07319 0.620301 0
M  V30 5000 C 458.215 2.01927 -2.72049 0
M  V30 5001 C 456.774 2.55332 -2.76554 0
M  V30 5002 C 455.921 1.32341 -2.43683 0
M  V30 5003 H 458.872 0.312986 -1.55583 0
M  V30 5004 H 458.893 2.86244 -2.50689 0
M  V30 5005 H 458.405 1.41254 -3.61481 0
M  V30 5006 H 456.506 3.19721 -1.91336 0
M  V30 5007 H 456.619 2.94319 -3.78038 0
M  V30 5008 H 454.983 1.63989 -1.94884 0
M  V30 5009 H 455.766 0.734165 -3.35358 0
M  V30 5010 N 458.211 1.37122 0.776871 0
M  V30 5011 C 459.627 1.1781 1.07671 0
M  V30 5012 C 459.827 0.0107454 2.01497 0
M  V30 5013 O 458.883 -0.650756 2.4397 0
M  V30 5014 C 460.196 2.49451 1.67913 0
M  V30 5015 C 461.744 2.55927 1.80195 0
M  V30 5016 C 462.219 3.87686 2.43851 0
M  V30 5017 N 463.71 3.891 2.51307 0
M  V30 5018 C 464.445 4.87797 3.014 0
M  V30 5019 N 463.941 5.96888 3.51705 0
M  V30 5020 N 465.734 4.75205 3.00227 0
M  V30 5021 H 457.885 2.11843 0.153778 0
M  V30 5022 H 460.148 0.938927 0.130844 0
M  V30 5023 H 459.854 3.35207 1.06439 0
M  V30 5024 H 459.728 2.66169 2.67271 0
M  V30 5025 H 462.115 1.70582 2.40803 0
M  V30 5026 H 462.196 2.43097 0.796069 0
M  V30 5027 H 461.84 4.73444 1.83884 0
M  V30 5028 H 461.77 3.97817 3.45035 0
M  V30 5029 H 464.261 3.10293 2.157 0
M  V30 5030 H 464.574 6.68155 3.88316 0
M  V30 5031 H 462.919 6.0054 3.49824 0
M  V30 5032 H 466.11 3.89103 2.60224 0
M  V30 5033 H 466.283 5.52279 3.38957 0
M  V30 5034 N 459.689 -1.00246 1.21608 0
M  V30 5035 C 461.1 -1.55511 1.03312 0
M  V30 5036 C 461.451 -1.91946 -0.406332 0
M  V30 5037 O 460.576 -1.73753 -1.28992 0
M  V30 5038 C 461.171 -2.82576 1.86913 0
M  V30 5039 C 459.73 -3.34318 1.72941 0
M  V30 5040 C 458.877 -2.07487 1.83968 0
M  V30 5041 H 461.828 -0.824638 1.35593 0
M  V30 5042 H 461.849 -3.54559 1.38087 0
M  V30 5043 H 461.361 -2.56026 2.91672 0
M  V30 5044 H 459.462 -3.65797 0.70877 0
M  V30 5045 H 459.575 -4.05566 2.55055 0
M  V30 5046 H 457.939 -2.20603 1.27304 0
M  V30 5047 H 458.722 -1.83346 2.9024 0
M  V30 5048 N 461.167 -1.02423 -1.1978 0
M  V30 5049 C 462.578 -0.748389 -1.71044 0
M  V30 5050 C 462.929 0.732398 -1.82017 0
M  V30 5051 O 462.054 1.57116 -1.48807 0
M  V30 5052 C 462.649 -1.35187 -3.1066 0
M  V30 5053 C 461.208 -1.12472 -3.59203 0
M  V30 5054 C 460.355 -1.45283 -2.36195 0
M  V30 5055 H 463.306 -1.19275 -1.04686 0
M  V30 5056 H 463.327 -0.746408 -3.73107 0
M  V30 5057 H 462.839 -2.4296 -3.02642 0
M  V30 5058 H 460.94 -0.0649983 -3.72543 0
M  V30 5059 H 461.053 -1.81016 -4.43588 0
M  V30 5060 H 459.417 -0.872034 -2.39307 0
M  V30 5061 H 460.2 -2.54129 -2.30811 0
M  V30 5062 N 462.645 1.35699 -0.801477 0
M  V30 5063 C 463.592 2.29876 -0.206294 0
M  V30 5064 C 464.562 1.52565 0.656752 0
M  V30 5065 O 465.747 1.81024 0.602906 0
M  V30 5066 C 462.887 3.39052 0.643272 0
M  V30 5067 C 462 4.31335 -0.239644 0
M  V30 5068 C 461.135 5.27599 0.61744 0
M  V30 5069 C 460.174 6.11521 -0.26619 0
M  V30 5070 N 459.311 6.99938 0.550571 0
M  V30 5071 H 464.151 2.80187 -1.01484 0
M  V30 5072 H 461.688 1.37902 -0.511997 0
M  V30 5073 H 463.646 4.0101 1.15094 0
M  V30 5074 H 462.276 2.9003 1.41713 0
M  V30 5075 H 461.328 3.70426 -0.865381 0
M  V30 5076 H 462.64 4.90243 -0.919985 0
M  V30 5077 H 461.794 5.94906 1.19045 0
M  V30 5078 H 460.533 4.69176 1.33137 0
M  V30 5079 H 459.538 5.43166 -0.851507 0
M  V30 5080 H 460.763 6.72022 -0.9779 0
M  V30 5081 H 458.709 6.44008 1.24856 0
M  V30 5082 H 458.626 7.55966 -0.071832 0
M  V30 5083 H 459.894 7.71599 1.10702 0
M  V30 5084 N 464.123 0.554532 1.47522 0
M  V30 5085 C 465.539 0.214107 1.58157 0
M  V30 5086 C 465.739 -1.28331 1.55349 0
M  V30 5087 O 464.795 -2.06329 1.45549 0
M  V30 5088 C 466.108 0.838391 2.88776 0
M  V30 5089 C 467.656 0.809374 3.02354 0
M  V30 5090 C 468.131 1.41268 4.35669 0
M  V30 5091 N 469.622 1.37574 4.42298 0
M  V30 5092 C 470.357 1.8122 5.4401 0
M  V30 5093 N 469.853 2.3271 6.52547 0
M  V30 5094 N 471.646 1.72307 5.35039 0
M  V30 5095 H 463.797 1.52744 1.4759 0
M  V30 5096 H 466.06 0.636812 0.702264 0
M  V30 5097 H 465.766 1.89065 2.96559 0
M  V30 5098 H 465.64 0.329847 3.75755 0
M  V30 5099 H 468.027 -0.234187 2.94169 0
M  V30 5100 H 468.108 1.35565 2.16924 0
M  V30 5101 H 467.752 2.45529 4.4461 0
M  V30 5102 H 467.682 0.841871 5.19827 0
M  V30 5103 H 470.173 0.999081 3.64454 0
M  V30 5104 H 470.486 2.63944 7.26329 0
M  V30 5105 H 468.831 2.36719 6.53444 0
M  V30 5106 H 472.022 1.3186 4.49144 0
M  V30 5107 H 472.195 2.06641 6.14169 0
M  V30 5108 N 465.601 -1.54893 0.290851 0
M  V30 5109 C 466.85 -1.99111 -0.322113 0
M  V30 5110 C 467.163 -1.18283 -1.55784 0
M  V30 5111 O 468.369 -1.5272 -2.24475 0
M  V30 5112 C 466.825 -3.54442 -0.624438 0
M  V30 5113 C 466.433 -4.44066 0.592373 0
M  V30 5114 C 468.177 -4.07211 -1.19916 0
M  V30 5115 C 466.084 -5.90812 0.263762 0
M  V30 5116 H 465.014 -0.743712 -0.124133 0
M  V30 5117 H 467.665 -1.79132 0.39797 0
M  V30 5118 H 466.047 -3.70281 -1.40384 0
M  V30 5119 H 467.221 -4.39999 1.36886 0
M  V30 5120 H 465.536 -4.02015 1.08502 0
M  V30 5121 H 468.133 -5.14407 -1.45909 0
M  V30 5122 H 468.476 -3.57196 -2.13815 0
M  V30 5123 H 469.009 -3.94873 -0.481687 0
M  V30 5124 H 465.748 -6.44955 1.17105 0
M  V30 5125 H 465.268 -5.97911 -0.475655 0
M  V30 5126 H 466.947 -6.46852 -0.138354 0
M  V30 5127 N 467.08 -0.0183926 -1.57589 0
M  V30 5128 C 468.01 0.965596 -2.12599 0
M  V30 5129 C 468.991 1.34641 -1.0395 0
M  V30 5130 O 470.176 1.42693 -1.31729 0
M  V30 5131 C 467.306 2.25149 -2.64434 0
M  V30 5132 C 466.26 2.01175 -3.77773 0
M  V30 5133 C 465.586 3.35937 -4.15994 0
M  V30 5134 C 466.886 1.35953 -5.04296 0
M  V30 5135 H 468.58 0.507504 -2.95067 0
M  V30 5136 H 466.126 0.242671 -1.41941 0
M  V30 5137 H 468.079 2.94357 -3.01549 0
M  V30 5138 H 466.803 2.73105 -1.79112 0
M  V30 5139 H 465.462 1.34388 -3.4108 0
M  V30 5140 H 465.11 3.81631 -3.27669 0
M  V30 5141 H 464.81 3.20705 -4.92364 0
M  V30 5142 H 466.334 4.0643 -4.55683 0
M  V30 5143 H 467.748 1.95144 -5.39065 0
M  V30 5144 H 466.145 1.31152 -5.85593 0
M  V30 5145 H 467.215 0.331071 -4.83768 0
M  V30 5146 N 468.558 1.5553 0.254621 0
M  V30 5147 C 469.468 1.92789 1.33677 0
M  V30 5148 C 470.484 0.827356 1.53071 0
M  V30 5149 O 471.66 1.12807 1.66843 0
M  V30 5150 C 468.725 2.20827 2.67275 0
M  V30 5151 C 467.786 3.4427 2.5647 0
M  V30 5152 C 467.019 3.70961 3.83697 0
M  V30 5153 O 467.242 2.99852 4.85227 0
M  V30 5154 O 466.176 4.64491 3.82794 0
M  V30 5155 H 470.002 2.84945 1.05071 0
M  V30 5156 H 467.587 1.42312 0.454723 0
M  V30 5157 H 469.469 2.40204 3.46237 0
M  V30 5158 H 468.144 1.31851 2.9563 0
M  V30 5159 H 467.051 3.30209 1.75821 0
M  V30 5160 H 468.384 4.33524 2.33062 0
M  V30 5161 N 470.036 -0.519951 1.48776 0
M  V30 5162 C 471.447 -1.10177 1.50725 0
M  V30 5163 C 471.798 -1.94153 0.282678 0
M  V30 5164 O 470.923 -2.07645 -0.609298 0
M  V30 5165 C 471.518 -2.00482 2.73116 0
M  V30 5166 C 470.077 -2.53862 2.77905 0
M  V30 5167 C 469.224 -1.31047 2.44381 0
M  V30 5168 H 472.175 -0.30473 1.55747 0
M  V30 5169 H 472.196 -2.8491 2.52203 0
M  V30 5170 H 471.708 -1.39335 3.62225 0
M  V30 5171 H 469.809 -3.18702 1.93029 0
M  V30 5172 H 469.922 -2.9231 3.79594 0
M  V30 5173 H 468.286 -1.62953 1.95751 0
M  V30 5174 H 469.069 -0.71637 3.35743 0
M  V30 5175 N 471.514 -1.37532 -0.769588 0
M  V30 5176 C 472.464 -1.29984 -1.87318 0
M  V30 5177 C 473.448 -0.187242 -1.59807 0
M  V30 5178 O 474.64 -0.421827 -1.719 0
M  V30 5179 C 471.769 -1.11126 -3.24817 0
M  V30 5180 C 470.855 -2.26939 -3.58273 0
M  V30 5181 N 471.246 -3.52336 -3.62895 0
M  V30 5182 C 469.544 -2.19141 -3.8845 0
M  V30 5183 C 470.245 -4.28719 -3.9316 0
M  V30 5184 N 469.221 -3.57884 -4.0917 0
M  V30 5185 H 473.023 -2.24946 -1.89147 0
M  V30 5186 H 470.537 -1.30535 -0.966143 0
M  V30 5187 H 472.534 -1.03803 -4.0377 0
M  V30 5188 H 471.194 -0.17083 -3.2425 0
M  V30 5189 H 472.205 -3.86216 -3.45048 0
M  V30 5190 H 468.882 -1.33167 -3.95693 0
M  V30 5191 H 470.272 -5.37254 -4.03494 0
M  V30 5192 N 472.992 0.995999 -1.22138 0
M  V30 5193 C 473.94 2.10673 -0.985876 0
M  V30 5194 C 474.934 1.69255 0.0699553 0
M  V30 5195 O 476.14 1.79812 -0.0822176 0
M  V30 5196 H 472.515 0.688865 -0.30161 0
M  V30 5197 H 474.486 2.27711 -1.92848 0
M  V30 5198 C 473.235 3.42881 -0.576909 0
M  V30 5199 H 472.558 3.75191 -1.38101 0
M  V30 5200 H 473.998 4.21589 -0.451518 0
M  V30 5201 C 472.457 3.29265 0.713196 0
M  V30 5202 O 472.987 3.60777 1.76643 0
M  V30 5203 N 471.193 2.82456 0.683162 0
M  V30 5204 H 470.74 2.5701 -0.174242 0
M  V30 5205 H 470.698 2.73727 1.54663 0
M  V30 5206 N 474.47 1.03057 1.19235 0
M  V30 5207 C 475.718 0.726581 1.88587 0
M  V30 5208 C 476.039 -0.747227 1.80115 0
M  V30 5209 O 475.309 -1.53849 1.21274 0
M  V30 5210 H 473.889 0.265768 0.698124 0
M  V30 5211 H 476.551 1.30516 1.44746 0
M  V30 5212 H 475.647 1.0224 2.94879 0
M  V30 5213 N 475.948 -1.35272 0.808662 0
M  V30 5214 C 476.895 -2.29764 0.218482 0
M  V30 5215 C 477.865 -1.52911 -0.648652 0
M  V30 5216 O 479.05 -1.81341 -0.593297 0
M  V30 5217 C 476.19 -3.39388 -0.625282 0
M  V30 5218 C 475.303 -4.31202 0.262516 0
M  V30 5219 C 474.438 -5.27919 -0.589451 0
M  V30 5220 C 473.477 -6.11371 0.298617 0
M  V30 5221 N 472.614 -7.0022 -0.513443 0
M  V30 5222 H 477.454 -2.79645 1.02968 0
M  V30 5223 H 474.991 -1.37629 0.519303 0
M  V30 5224 H 476.949 -4.01615 -1.12966 0
M  V30 5225 H 475.579 -2.90777 -1.40173 0
M  V30 5226 H 474.631 -3.69962 0.885013 0
M  V30 5227 H 475.943 -4.89748 0.945971 0
M  V30 5228 H 475.097 -5.95529 -1.15888 0
M  V30 5229 H 473.836 -4.69875 -1.30647 0
M  V30 5230 H 472.841 -5.42707 0.880301 0
M  V30 5231 H 474.066 -6.71494 1.01352 0
M  V30 5232 H 472.012 -6.44662 -1.21439 0
M  V30 5233 H 471.929 -7.55917 0.111922 0
M  V30 5234 H 473.197 -7.72175 -1.06608 0
M  V30 5235 N 477.426 -0.562348 -1.47226 0
M  V30 5236 C 478.666 -0.0426374 -2.04356 0
M  V30 5237 C 479.03 1.28487 -1.42671 0
M  V30 5238 O 480.231 1.89259 -1.90878 0
M  V30 5239 C 478.502 0.0433826 -3.57374 0
M  V30 5240 S 480.061 0.508472 -4.35844 0
M  V30 5241 H 476.879 -0.0276234 -0.710463 0
M  V30 5242 H 479.481 -0.750245 -1.80531 0
M  V30 5243 H 478.185 -0.927072 -3.99792 0
M  V30 5244 H 477.716 0.774387 -3.85703 0
M  V30 5245 H 479.731 1.76719 -4.63665 0
M  V30 5246 N 478.904 1.54736 -0.299062 0
M  V30 5247 C 480.32 1.59507 0.0543849 0
M  V30 5248 C 480.52 1.31606 1.52585 0
M  V30 5249 O 479.576 1.08853 2.27832 0
M  V30 5250 C 480.889 2.98751 -0.34181 0
M  V30 5251 C 482.437 3.1165 -0.290414 0
M  V30 5252 C 482.912 4.53199 -0.661402 0
M  V30 5253 N 484.403 4.59114 -0.613863 0
M  V30 5254 C 485.138 5.66709 -0.873417 0
M  V30 5255 N 484.634 6.82349 -1.19884 0
M  V30 5256 N 486.427 5.56369 -0.800608 0
M  V30 5257 H 478.578 1.71133 -1.25806 0
M  V30 5258 H 480.841 0.799186 -0.509908 0
M  V30 5259 H 480.547 3.24085 -1.36608 0
M  V30 5260 H 480.421 3.75961 0.305508 0
M  V30 5261 H 482.808 2.86066 0.724605 0
M  V30 5262 H 482.889 2.366 -0.972327 0
M  V30 5263 H 482.533 4.79513 -1.67422 0
M  V30 5264 H 482.463 5.26583 0.0425612 0
M  V30 5265 H 484.954 3.76053 -0.3732 0
M  V30 5266 H 485.267 7.60326 -1.38291 0
M  V30 5267 H 483.612 6.83906 -1.23685 0
M  V30 5268 H 486.803 4.64904 -0.546045 0
M  V30 5269 H 486.976 6.40139 -1.00626 0
M  V30 5270 N 480.382 0.0267497 1.57577 0
M  V30 5271 C 481.292 -0.971633 2.13533 0
M  V30 5272 C 482.308 -1.35868 1.08701 0
M  V30 5273 O 483.484 -1.44058 1.40746 0
M  V30 5274 C 480.549 -2.23622 2.64941 0
M  V30 5275 C 479.61 -1.90982 3.8448 0
M  V30 5276 C 478.843 -3.11411 4.33427 0
M  V30 5277 O 479.066 -4.23992 3.81558 0
M  V30 5278 O 478 -2.93848 5.25297 0
M  V30 5279 H 481.826 -0.525853 2.99113 0
M  V30 5280 H 479.411 -0.193712 1.48139 0
M  V30 5281 H 481.293 -2.97864 2.98086 0
M  V30 5282 H 479.968 -2.67386 1.82446 0
M  V30 5283 H 478.875 -1.14132 3.56265 0
M  V30 5284 H 480.208 -1.52036 4.6813 0
M  V30 5285 N 481.861 -1.55662 -0.24637 0
M  V30 5286 C 483.108 -1.77519 -0.974335 0
M  V30 5287 C 483.436 -0.591165 -1.85298 0
M  V30 5288 O 482.691 0.425497 -1.91018 0
M  V30 5289 C 482.99 -3.04885 -1.86494 0
M  V30 5290 C 482.656 -4.36209 -1.14161 0
M  V30 5291 C 481.318 -4.71896 -0.941701 0
M  V30 5292 C 483.67 -5.17391 -0.628957 0
M  V30 5293 C 480.998 -5.86299 -0.216852 0
M  V30 5294 C 483.35 -6.32546 0.0824273 0
M  V30 5295 C 482.014 -6.66853 0.293807 0
M  V30 5296 H 481.284 -0.649588 -0.356535 0
M  V30 5297 H 483.931 -1.89934 -0.244394 0
M  V30 5298 H 482.236 -2.87484 -2.66196 0
M  V30 5299 H 483.933 -3.18994 -2.42989 0
M  V30 5300 H 480.523 -4.08174 -1.30736 0
M  V30 5301 H 484.707 -4.90276 -0.770943 0
M  V30 5302 H 479.963 -6.11385 -0.0426124 0
M  V30 5303 H 484.137 -6.94693 0.487292 0
M  V30 5304 H 481.764 -7.55349 0.857428 0
M  V30 5305 N 483.339 0.512053 -1.4905 0
M  V30 5306 C 484.586 1.26686 -1.57978 0
M  V30 5307 C 484.914 1.92733 -0.261553 0
M  V30 5308 O 484.169 1.80772 0.749667 0
M  V30 5309 C 484.468 2.36446 -2.68008 0
M  V30 5310 C 484.134 1.87932 -4.09869 0
M  V30 5311 C 482.796 1.74419 -4.48477 0
M  V30 5312 C 485.148 1.5149 -4.98698 0
M  V30 5313 C 482.476 1.22827 -5.73699 0
M  V30 5314 C 484.828 1.01355 -6.24428 0
M  V30 5315 C 483.492 0.864735 -6.61875 0
M  V30 5316 H 482.762 0.463577 -0.578081 0
M  V30 5317 H 485.409 0.569421 -1.82838 0
M  V30 5318 H 483.714 3.11933 -2.37076 0
M  V30 5319 H 485.411 2.9453 -2.72127 0
M  V30 5320 H 482.001 1.99405 -3.79389 0
M  V30 5321 H 486.185 1.60782 -4.69535 0
M  V30 5322 H 481.441 1.10008 -6.01422 0
M  V30 5323 H 485.615 0.722351 -6.92644 0
M  V30 5324 H 483.242 0.462777 -7.5879 0
M  V30 5325 N 484.817 1.37938 0.762283 0
M  V30 5326 C 486.228 1.30094 1.33912 0
M  V30 5327 C 486.579 -0.0472026 1.96143 0
M  V30 5328 O 485.704 -0.94917 1.94473 0
M  V30 5329 C 486.299 2.35592 2.43478 0
M  V30 5330 C 484.858 2.31353 2.96905 0
M  V30 5331 C 484.005 2.18919 1.70205 0
M  V30 5332 H 486.956 1.48423 0.561816 0
M  V30 5333 H 486.977 2.00806 3.23199 0
M  V30 5334 H 486.489 3.33701 1.98155 0
M  V30 5335 H 484.59 1.36799 3.46579 0
M  V30 5336 H 484.703 3.25147 3.51875 0
M  V30 5337 H 483.067 1.65624 1.93496 0
M  V30 5338 H 483.85 3.18956 1.26973 0
M  V30 5339 N 486.295 -0.989507 1.22664 0
M  V30 5340 C 487.243 -2.10148 0.997035 0
M  V30 5341 C 488.237 -1.6929 -0.0609783 0
M  V30 5342 O 489.443 -1.79766 0.0917523 0
M  V30 5343 H 485.818 -0.687256 0.305259 0
M  V30 5344 H 487.789 -2.26685 1.94053 0
M  V30 5345 C 486.538 -3.4257 0.595085 0
M  V30 5346 H 485.861 -3.74453 1.40089 0
M  V30 5347 H 487.301 -4.21344 0.473869 0
M  V30 5348 C 485.76 -3.29638 -0.695725 0
M  V30 5349 O 486.29 -3.61709 -1.74727 0
M  V30 5350 N 484.496 -2.82814 -0.668173 0
M  V30 5351 H 484.043 -2.56914 0.18787 0
M  V30 5352 H 484.001 -2.74544 -1.5321 0
M  V30 5353 N 487.773 -1.03688 -1.18687 0
M  V30 5354 C 488.723 -0.595067 -2.20098 0
M  V30 5355 C 489.707 0.360465 -1.5681 0
M  V30 5356 O 490.899 0.180136 -1.76081 0
M  V30 5357 C 488.028 0.0444495 -3.43271 0
M  V30 5358 C 487.114 -0.934002 -4.13687 0
M  V30 5359 N 487.505 -2.09957 -4.60165 0
M  V30 5360 C 485.803 -0.759177 -4.39491 0
M  V30 5361 C 486.504 -2.71735 -5.1433 0
M  V30 5362 N 485.48 -1.99638 -5.05614 0
M  V30 5363 H 489.282 -1.48336 -2.5372 0
M  V30 5364 H 486.796 -0.904949 -1.3485 0
M  V30 5365 H 488.793 0.37864 -4.15177 0
M  V30 5366 H 487.453 0.928325 -3.11147 0
M  V30 5367 H 488.464 -2.47863 -4.54735 0
M  V30 5368 H 485.141 0.0749292 -4.17433 0
M  V30 5369 H 486.531 -3.70492 -5.60523 0
M  V30 5370 N 489.251 1.34841 -0.815825 0
M  V30 5371 C 490.183 2.28409 -0.190265 0
M  V30 5372 C 491.196 1.50705 0.615771 0
M  V30 5373 O 492.385 1.72822 0.446616 0
M  V30 5374 C 489.485 3.30441 0.752446 0
M  V30 5375 C 488.658 4.37399 -0.00922152 0
M  V30 5376 C 487.717 5.19234 0.853351 0
M  V30 5377 O 486.743 5.68404 0.300919 0
M  V30 5378 N 487.945 5.38248 2.17416 0
M  V30 5379 H 490.71 2.82732 -0.994114 0
M  V30 5380 H 488.271 1.47289 -0.672129 0
M  V30 5381 H 490.263 3.82084 1.33394 0
M  V30 5382 H 488.833 2.76565 1.45707 0
M  V30 5383 H 488.053 3.86567 -0.771979 0
M  V30 5384 H 489.341 5.05992 -0.533807 0
M  V30 5385 H 488.739 4.99961 2.6468 0
M  V30 5386 H 487.296 5.93035 2.70467 0
M  V30 5387 N 490.729 0.570148 1.46925 0
M  V30 5388 C 491.975 0.0593124 2.03314 0
M  V30 5389 C 492.33 -1.28139 1.43521 0
M  V30 5390 O 491.623 -1.82411 0.586245 0
M  V30 5391 C 491.817 -0.0780336 3.57315 0
M  V30 5392 C 491.646 1.2478 4.32042 0
M  V30 5393 C 490.416 1.81859 4.7144 0
M  V30 5394 C 492.614 2.16808 4.66368 0
M  V30 5395 N 490.596 3.08313 5.30864 0
M  V30 5396 C 491.967 3.27845 5.2623 0
M  V30 5397 C 494.022 2.16643 4.48297 0
M  V30 5398 C 492.725 4.38832 5.69929 0
M  V30 5399 C 494.751 3.26652 4.93004 0
M  V30 5400 C 494.113 4.36408 5.52926 0
M  V30 5401 H 490.212 0.0641804 0.779362 0
M  V30 5402 H 492.796 0.760285 1.79242 0
M  V30 5403 H 490.967 -0.748151 3.81126 0
M  V30 5404 H 492.699 -0.59211 4.00345 0
M  V30 5405 H 489.454 1.35502 4.53802 0
M  V30 5406 H 489.878 3.72802 5.65108 0
M  V30 5407 H 494.52 1.33065 4.01315 0
M  V30 5408 H 492.238 5.23162 6.15896 0
M  V30 5409 H 495.824 3.27627 4.80782 0
M  V30 5410 H 494.704 5.20127 5.86888 0
M  V30 5411 N 492.207 -1.54576 0.307264 0
M  V30 5412 C 493.453 -2.0056 -0.300612 0
M  V30 5413 C 493.786 -1.1953 -1.53057 0
M  V30 5414 O 493.061 -0.27337 -1.92569 0
M  V30 5415 C 493.344 -3.54167 -0.650987 0
M  V30 5416 C 493.197 -4.45933 0.588539 0
M  V30 5417 C 494.516 -4.14645 -1.47506 0
M  V30 5418 H 491.635 -0.729075 -0.107788 0
M  V30 5419 H 494.277 -1.85286 0.420606 0
M  V30 5420 H 492.427 -3.67313 -1.26544 0
M  V30 5421 H 494.099 -4.44683 1.22697 0
M  V30 5422 H 492.342 -4.16274 1.22058 0
M  V30 5423 H 493.013 -5.51189 0.299153 0
M  V30 5424 H 495.489 -4.04973 -0.955821 0
M  V30 5425 H 494.365 -5.22269 -1.68899 0
M  V30 5426 H 494.626 -3.66921 -2.4662 0
M  V30 5427 N 493.685 -0.035106 -1.57561 0
M  V30 5428 C 494.632 0.94474 -2.10578 0
M  V30 5429 C 495.602 1.3192 -1.00927 0
M  V30 5430 O 496.787 1.41147 -1.28382 0
M  V30 5431 C 493.927 2.21982 -2.64231 0
M  V30 5432 C 493.04 1.90128 -3.87911 0
M  V30 5433 C 492.175 3.11975 -4.29936 0
M  V30 5434 C 491.214 2.75968 -5.46359 0
M  V30 5435 N 490.351 3.90459 -5.83512 0
M  V30 5436 H 495.191 0.485717 -2.94015 0
M  V30 5437 H 492.728 0.228143 -1.4532 0
M  V30 5438 H 494.686 2.96572 -2.9343 0
M  V30 5439 H 493.316 2.6549 -1.83616 0
M  V30 5440 H 492.368 1.05755 -3.65404 0
M  V30 5441 H 493.68 1.59613 -4.72573 0
M  V30 5442 H 492.834 3.9488 -4.60603 0
M  V30 5443 H 491.573 3.45657 -3.44053 0
M  V30 5444 H 490.578 1.91478 -5.1538 0
M  V30 5445 H 491.803 2.43497 -6.33945 0
M  V30 5446 H 489.749 4.23971 -5.00584 0
M  V30 5447 H 489.666 3.63588 -6.62827 0
M  V30 5448 H 490.934 4.7405 -6.18787 0
M  V30 5449 N 495.163 1.55791 0.238111 0
M  V30 5450 C 496.073 1.94196 1.31625 0
M  V30 5451 C 497.089 0.843545 1.52185 0
M  V30 5452 O 498.265 1.1457 1.65637 0
M  V30 5453 C 495.33 2.2365 2.64918 0
M  V30 5454 C 494.391 3.46971 2.52804 0
M  V30 5455 C 493.624 3.7501 3.79741 0
M  V30 5456 O 493.847 3.04982 4.82019 0
M  V30 5457 O 492.781 4.68525 3.77846 0
M  V30 5458 H 496.607 2.86044 1.02043 0
M  V30 5459 H 494.192 1.42786 0.439603 0
M  V30 5460 H 496.074 2.43863 3.4367 0
M  V30 5461 H 494.749 1.34979 2.94215 0
M  V30 5462 H 493.656 3.32055 1.72309 0
M  V30 5463 H 494.989 4.35971 2.28451 0
M  V30 5464 N 496.642 -0.504142 1.49319 0
M  V30 5465 C 497.552 -1.63248 1.68486 0
M  V30 5466 C 498.568 -1.64488 0.567432 0
M  V30 5467 O 499.744 -1.82966 0.841749 0
M  V30 5468 C 496.809 -2.99627 1.74426 0
M  V30 5469 C 495.87 -3.09039 2.97982 0
M  V30 5470 C 495.103 -4.38913 3.0363 0
M  V30 5471 O 495.326 -5.27528 2.16958 0
M  V30 5472 O 494.26 -4.53231 3.96062 0
M  V30 5473 H 498.086 -1.50008 2.64067 0
M  V30 5474 H 495.671 -0.680086 1.33023 0
M  V30 5475 H 497.553 -3.80689 1.80705 0
M  V30 5476 H 496.228 -3.13136 0.820233 0
M  V30 5477 H 495.135 -2.27177 2.97223 0
M  V30 5478 H 496.468 -3.00456 3.89855 0
M  V30 5479 N 498.12 -1.38341 -0.754957 0
M  V30 5480 C 499.348 -1.37704 -1.54419 0
M  V30 5481 C 499.763 0.0335243 -1.8877 0
M  V30 5482 O 499.12 0.999773 -1.52679 0
M  V30 5483 C 499.171 -2.23136 -2.84416 0
M  V30 5484 O 498.892 -3.58697 -2.51531 0
M  V30 5485 C 500.393 -2.30664 -3.78562 0
M  V30 5486 H 497.613 -0.471061 -0.477852 0
M  V30 5487 H 500.157 -1.81902 -0.934446 0
M  V30 5488 H 498.312 -1.82403 -3.41772 0
M  V30 5489 H 498.726 -4.03665 -3.34896 0
M  V30 5490 H 500.2 -2.9473 -4.66732 0
M  V30 5491 H 500.677 -1.3199 -4.18898 0
M  V30 5492 H 501.283 -2.71781 -3.27131 0
M  V30 5493 N 499.598 0.982988 -1.23187 0
M  V30 5494 C 500.53 2.07729 -0.968572 0
M  V30 5495 C 501.543 1.62702 0.0564821 0
M  V30 5496 O 502.732 1.77603 -0.178733 0
M  V30 5497 C 499.832 3.36071 -0.436974 0
M  V30 5498 C 499.005 4.10081 -1.52159 0
M  V30 5499 C 498.064 5.16701 -0.99532 0
M  V30 5500 O 497.09 5.43727 -1.68373 0
M  V30 5501 N 498.292 5.80226 0.178192 0
M  V30 5502 H 501.057 2.30894 -1.9107 0
M  V30 5503 H 498.618 1.14949 -1.1401 0
M  V30 5504 H 500.61 4.04639 -0.0700051 0
M  V30 5505 H 499.18 3.09893 0.410509 0
M  V30 5506 H 498.4 3.36004 -2.06144 0
M  V30 5507 H 499.688 4.56295 -2.25105 0
M  V30 5508 H 499.086 5.60651 0.754096 0
M  V30 5509 H 497.643 6.49982 0.486449 0
M  V30 5510 N 501.076 1.04316 1.18135 0
M  V30 5511 C 501.986 0.646876 2.25505 0
M  V30 5512 C 503.002 -0.328008 1.7088 0
M  V30 5513 O 504.178 -0.182309 2.00573 0
M  V30 5514 C 501.243 0.0185664 3.46695 0
M  V30 5515 C 500.304 1.04277 4.16443 0
M  V30 5516 C 499.537 0.444352 5.31847 0
M  V30 5517 O 499.76 -0.748735 5.65465 0
M  V30 5518 O 498.694 1.17428 5.90334 0
M  V30 5519 H 502.52 1.54147 2.61672 0
M  V30 5520 H 500.105 0.814188 1.25265 0
M  V30 5521 H 501.987 -0.331068 4.20097 0
M  V30 5522 H 500.662 -0.849814 3.12346 0
M  V30 5523 H 499.569 1.44425 3.45098 0
M  V30 5524 H 500.902 1.882 4.54798 0
M  V30 5525 N 502.554 -1.34406 0.822964 0
M  V30 5526 C 503.831 -1.92733 0.333641 0
M  V30 5527 C 504.211 -1.75107 -1.17901 0
M  V30 5528 O 503.559 -1.12983 -1.98613 0
M  V30 5529 C 503.769 -3.40557 0.763023 0
M  V30 5530 C 505.117 -4.17709 0.761879 0
M  V30 5531 O 506.141 -3.49141 0.705606 0
M  V30 5532 O 505 -5.40082 0.835109 0
M  V30 5533 H 502.094 -0.821964 0.0911249 0
M  V30 5534 H 504.64 -1.4338 0.907757 0
M  V30 5535 H 503.412 -3.47187 1.8049 0
M  V30 5536 H 503.035 -3.97259 0.164605 0
M  V30 5537 N 504.032 -0.577932 -1.46621 0
M  V30 5538 C 504.979 0.158048 -2.30258 0
M  V30 5539 C 505.949 0.888669 -1.40328 0
M  V30 5540 O 507.134 0.880283 -1.6928 0
M  V30 5541 C 504.274 1.16884 -3.24703 0
M  V30 5542 C 503.387 0.442163 -4.29731 0
M  V30 5543 C 502.522 1.44007 -5.11308 0
M  V30 5544 C 501.561 0.69952 -6.0809 0
M  V30 5545 N 500.698 1.64525 -6.82551 0
M  V30 5546 H 505.538 -0.561242 -2.92667 0
M  V30 5547 H 503.075 -0.288591 -1.44241 0
M  V30 5548 H 505.033 1.7677 -3.779 0
M  V30 5549 H 503.663 1.85591 -2.64113 0
M  V30 5550 H 502.715 -0.271632 -3.79429 0
M  V30 5551 H 504.027 -0.136992 -4.98612 0
M  V30 5552 H 503.181 2.11186 -5.68758 0
M  V30 5553 H 501.92 2.05315 -4.42377 0
M  V30 5554 H 500.925 0.0139217 -5.49798 0
M  V30 5555 H 502.15 0.091894 -6.79038 0
M  V30 5556 H 500.096 2.24653 -6.16334 0
M  V30 5557 H 500.013 1.11878 -7.47676 0
M  V30 5558 H 501.281 2.30754 -7.44562 0
M  V30 5559 N 505.51 1.54411 -0.315457 0
M  V30 5560 C 506.787 1.92562 0.343398 0
M  V30 5561 C 507.167 1.24423 1.70535 0
M  V30 5562 O 506.515 0.385051 2.25232 0
M  V30 5563 C 506.725 3.46168 0.443687 0
M  V30 5564 C 508.073 4.18659 0.707783 0
M  V30 5565 O 509.097 3.52281 0.52693 0
M  V30 5566 O 507.956 5.36198 1.05612 0
M  V30 5567 H 505.05 0.80379 0.194552 0
M  V30 5568 H 507.596 1.65738 -0.364577 0
M  V30 5569 H 506.368 3.8792 -0.513172 0
M  V30 5570 H 505.991 3.79073 1.19956 0
M  V30 5571 N 506.988 0.0434614 1.5754 0
M  V30 5572 C 508.228 -0.636023 1.94253 0
M  V30 5573 C 508.592 -1.68461 0.921132 0
M  V30 5574 O 509.793 -2.41762 1.17494 0
M  V30 5575 C 508.064 -1.22357 3.35803 0
M  V30 5576 S 509.623 -1.92213 3.94461 0
M  V30 5577 H 506.441 -0.209041 0.679575 0
M  V30 5578 H 509.043 0.110556 1.95187 0
M  V30 5579 H 507.747 -0.448162 4.07946 0
M  V30 5580 H 507.278 -2.00713 3.38346 0
M  V30 5581 H 509.293 -3.20199 3.79061 0
M  V30 5582 N 508.466 -1.55915 -0.229846 0
M  V30 5583 C 509.877 -1.68809 -0.797531 0
M  V30 5584 C 510.228 -0.643995 -1.8533 0
M  V30 5585 O 509.353 0.206492 -2.15413 0
M  V30 5586 C 509.948 -3.06043 -1.45338 0
M  V30 5587 C 508.507 -3.20819 -1.96856 0
M  V30 5588 C 507.654 -2.6472 -0.825736 0
M  V30 5589 H 510.605 -1.58699 -0.00533733 0
M  V30 5590 H 510.626 -3.01438 -2.32196 0
M  V30 5591 H 510.138 -3.82012 -0.684743 0
M  V30 5592 H 508.239 -2.49704 -2.76548 0
M  V30 5593 H 508.352 -4.27937 -2.15423 0
M  V30 5594 H 506.716 -2.22985 -1.23084 0
M  V30 5595 H 507.499 -3.43229 -0.0699019 0
M  V30 5596 N 509.944 0.496216 -1.49584 0
M  V30 5597 C 511.193 1.24668 -1.58558 0
M  V30 5598 C 511.506 1.9359 -0.279703 0
M  V30 5599 O 512.712 2.70365 -0.248048 0
M  V30 5600 C 511.168 2.26388 -2.79779 0
M  V30 5601 C 510.776 1.63384 -4.17145 0
M  V30 5602 C 512.52 3.02233 -2.98086 0
M  V30 5603 C 510.427 2.63243 -5.29582 0
M  V30 5604 H 509.357 0.468995 -0.590389 0
M  V30 5605 H 512.008 0.519985 -1.75978 0
M  V30 5606 H 510.39 3.02241 -2.55863 0
M  V30 5607 H 511.564 0.93491 -4.51216 0
M  V30 5608 H 509.879 0.999121 -4.04236 0
M  V30 5609 H 512.476 3.76919 -3.79257 0
M  V30 5610 H 512.819 3.60132 -2.08831 0
M  V30 5611 H 513.352 2.33495 -3.22063 0
M  V30 5612 H 510.091 2.10119 -6.20911 0
M  V30 5613 H 509.611 3.31363 -4.99959 0
M  V30 5614 H 511.29 3.25575 -5.59115 0
M  V30 5615 N 511.423 1.38739 0.74761 0
M  V30 5616 C 512.37 1.36449 1.86146 0
M  V30 5617 C 513.34 0.226098 1.64554 0
M  V30 5618 O 514.525 0.41926 1.86137 0
M  V30 5619 C 511.665 1.2013 3.23516 0
M  V30 5620 C 510.778 2.43407 3.56899 0
M  V30 5621 C 509.913 2.19773 4.83605 0
M  V30 5622 C 508.952 3.3879 5.09792 0
M  V30 5623 N 508.089 3.14553 6.27695 0
M  V30 5624 H 512.929 2.3167 1.87438 0
M  V30 5625 H 510.466 1.15094 0.916063 0
M  V30 5626 H 512.424 1.08683 4.02795 0
M  V30 5627 H 511.054 0.285453 3.21535 0
M  V30 5628 H 510.106 2.65504 2.72418 0
M  V30 5629 H 511.418 3.32094 3.72176 0
M  V30 5630 H 510.572 2.05496 5.70838 0
M  V30 5631 H 509.311 1.28461 4.70478 0
M  V30 5632 H 508.316 3.53579 4.21025 0
M  V30 5633 H 509.541 4.30986 5.24812 0
M  V30 5634 H 507.487 2.25893 6.1588 0
M  V30 5635 H 507.404 3.96791 6.435 0
M  V30 5636 H 508.672 3.03943 7.17801 0
M  V30 5637 N 512.901 -0.976442 1.23707 0
M  V30 5638 C 513.811 -2.10359 1.03856 0
M  V30 5639 C 514.827 -1.73991 -0.0180919 0
M  V30 5640 O 516.003 -2.0061 0.178211 0
M  V30 5641 C 513.068 -3.40809 0.636387 0
M  V30 5642 C 512.129 -3.91179 1.76854 0
M  V30 5643 C 511.362 -5.15404 1.38546 0
M  V30 5644 O 511.585 -5.69754 0.27142 0
M  V30 5645 O 510.519 -5.5994 2.20797 0
M  V30 5646 H 514.345 -2.29997 1.98331 0
M  V30 5647 H 511.93 -1.08742 1.02448 0
M  V30 5648 H 513.812 -4.19269 0.423223 0
M  V30 5649 H 512.487 -3.22493 -0.279322 0
M  V30 5650 H 511.394 -3.13819 2.03638 0
M  V30 5651 H 512.727 -4.13958 2.6627 0
M  V30 5652 N 514.379 -1.04941 -1.1758 0
M  V30 5653 C 515.289 -0.658826 -2.25159 0
M  V30 5654 C 516.305 0.318941 -1.71052 0
M  V30 5655 O 517.481 0.171669 -2.00667 0
M  V30 5656 C 514.546 -0.0369522 -3.4668 0
M  V30 5657 C 513.607 -1.06484 -4.15884 0
M  V30 5658 C 512.84 -0.472551 -5.31604 0
M  V30 5659 O 513.063 0.718736 -5.65854 0
M  V30 5660 O 511.997 -1.20557 -5.89703 0
M  V30 5661 H 515.823 -1.55533 -2.60851 0
M  V30 5662 H 513.408 -0.820819 -1.24832 0
M  V30 5663 H 515.29 0.308784 -4.20267 0
M  V30 5664 H 513.965 0.833238 -3.12792 0
M  V30 5665 H 512.872 -1.46253 -3.44327 0
M  V30 5666 H 514.205 -1.9061 -4.53794 0
M  V30 5667 N 515.857 1.33968 -0.830081 0
M  V30 5668 C 516.804 2.29387 -0.255008 0
M  V30 5669 C 517.774 1.53923 0.624243 0
M  V30 5670 O 518.959 1.82262 0.564372 0
M  V30 5671 C 516.099 3.4034 0.571209 0
M  V30 5672 C 515.212 4.30729 -0.331083 0
M  V30 5673 C 514.347 5.2879 0.505389 0
M  V30 5674 C 513.386 6.10819 -0.395843 0
M  V30 5675 N 512.523 7.00948 0.401979 0
M  V30 5676 H 517.363 2.77972 -1.07404 0
M  V30 5677 H 514.9 1.36785 -0.541133 0
M  V30 5678 H 516.858 4.03361 1.06562 0
M  V30 5679 H 515.488 2.9297 1.35529 0
M  V30 5680 H 514.54 3.68507 -0.943759 0
M  V30 5681 H 515.852 4.88181 -1.02377 0
M  V30 5682 H 515.006 5.97297 1.06399 0
M  V30 5683 H 513.745 4.71894 1.23155 0
M  V30 5684 H 512.75 5.41238 -0.966529 0
M  V30 5685 H 513.975 6.69797 -1.12023 0
M  V30 5686 H 511.921 6.46512 1.11168 0
M  V30 5687 H 511.838 7.55643 -0.232167 0
M  V30 5688 H 513.106 7.73774 0.943102 0
M  V30 5689 N 517.335 0.585699 1.46312 0
M  V30 5690 C 518.583 0.072278 2.01971 0
M  V30 5691 C 518.904 -1.29345 1.45928 0
M  V30 5692 O 518.174 -1.84973 0.645109 0
M  V30 5693 H 516.754 0.023729 0.746623 0
M  V30 5694 H 519.416 0.762155 1.7938 0
M  V30 5695 H 518.512 0.00552767 3.121 0
M  V30 5696 N 518.813 -1.54241 0.323641 0
M  V30 5697 C 520.038 -2.05452 -0.283605 0
M  V30 5698 C 520.463 -1.19823 -1.44997 0
M  V30 5699 O 519.821 -0.207358 -1.8011 0
M  V30 5700 C 519.869 -3.53823 -0.695795 0
M  V30 5701 O 518.973 -3.71134 -1.79815 0
M  V30 5702 H 518.314 -0.662024 -0.0511917 0
M  V30 5703 H 520.844 -1.99079 0.472073 0
M  V30 5704 H 520.854 -3.96094 -0.978434 0
M  V30 5705 H 519.529 -4.15602 0.157287 0
M  V30 5706 H 518.106 -3.40768 -1.51431 0
M  V30 5707 N 520.291 -0.0518155 -1.57515 0
M  V30 5708 C 521.702 0.483787 -1.80323 0
M  V30 5709 C 522.053 1.70879 -0.964099 0
M  V30 5710 O 521.178 2.15643 -0.180872 0
M  V30 5711 C 521.773 0.884459 -3.27052 0
M  V30 5712 C 520.332 1.36504 -3.50776 0
M  V30 5713 C 519.479 0.340539 -2.75201 0
M  V30 5714 H 522.43 -0.277691 -1.56252 0
M  V30 5715 H 522.451 1.74733 -3.38007 0
M  V30 5716 H 521.963 -0.00731093 -3.88099 0
M  V30 5717 H 520.064 2.27598 -2.95009 0
M  V30 5718 H 520.177 1.35675 -4.59488 0
M  V30 5719 H 518.541 0.81356 -2.41357 0
M  V30 5720 H 519.324 -0.543156 -3.38976 0
M  V30 5721 N 521.769 1.56035 0.221574 0
M  V30 5722 C 522.699 1.95434 1.2778 0
M  V30 5723 C 523.68 0.822564 1.48889 0
M  V30 5724 O 524.865 1.08486 1.61072 0
M  V30 5725 C 521.995 2.27102 2.62759 0
M  V30 5726 C 520.949 3.4277 2.56306 0
M  V30 5727 C 520.275 3.60043 3.95314 0
M  V30 5728 C 521.575 4.77742 2.11093 0
M  V30 5729 H 523.269 2.83912 0.950504 0
M  V30 5730 H 520.815 1.36596 0.455791 0
M  V30 5731 H 522.768 2.53256 3.36807 0
M  V30 5732 H 521.492 1.35478 2.97176 0
M  V30 5733 H 520.151 3.16664 1.84715 0
M  V30 5734 H 519.799 2.65794 4.27039 0
M  V30 5735 H 519.499 4.37841 3.91879 0
M  V30 5736 H 521.023 3.88545 4.71025 0
M  V30 5737 H 522.437 5.03102 2.74885 0
M  V30 5738 H 520.834 5.58823 2.18716 0
M  V30 5739 H 521.904 4.731 1.06321 0
M  V30 5740 N 523.247 -0.488276 1.49845 0
M  V30 5741 C 524.195 -1.60917 1.67954 0
M  V30 5742 C 525.189 -1.6038 0.54539 0
M  V30 5743 O 526.395 -1.64736 0.7254 0
M  V30 5744 H 522.77 -0.533658 0.529824 0
M  V30 5745 H 524.741 -1.428 2.62013 0
M  V30 5746 C 523.49 -2.98975 1.77509 0
M  V30 5747 H 522.813 -3.00099 2.6416 0
M  V30 5748 H 524.253 -3.76906 1.9421 0
M  V30 5749 C 522.712 -3.3282 0.522745 0
M  V30 5750 O 523.242 -4.00208 -0.345866 0
M  V30 5751 N 521.448 -2.8808 0.381882 0
M  V30 5752 H 520.995 -2.33415 1.08974 0
M  V30 5753 H 520.953 -3.11091 -0.454929 0
M  V30 5754 N 524.725 -1.39134 -0.740242 0
M  V30 5755 C 525.688 -1.37217 -1.83587 0
M  V30 5756 C 526.688 -0.270221 -1.58513 0
M  V30 5757 O 527.878 -0.527843 -1.6601 0
M  V30 5758 C 525.01 -1.13959 -3.21288 0
M  V30 5759 H 526.203 -2.34705 -1.86691 0
M  V30 5760 H 523.756 -1.24622 -0.94335 0
M  V30 5761 H 524.491 -0.17131 -3.23847 0
M  V30 5762 H 524.276 -1.93754 -3.40884 0
M  V30 5763 H 525.766 -1.15346 -4.01354 0
M  V30 5764 N 526.204 0.969867 -1.24223 0
M  V30 5765 C 527.167 2.04564 -1.03373 0
M  V30 5766 C 528.167 1.60798 0.00819206 0
M  V30 5767 O 529.357 1.72641 -0.232567 0
M  V30 5768 C 526.489 3.36163 -0.566343 0
M  V30 5769 H 527.682 2.24494 -1.98853 0
M  V30 5770 H 525.235 1.1448 -1.06415 0
M  V30 5771 H 525.97 3.21925 0.391751 0
M  V30 5772 H 525.755 3.69273 -1.31834 0
M  V30 5773 H 527.245 4.1526 -0.441435 0
M  V30 5774 N 527.682 1.05563 1.17022 0
M  V30 5775 C 529.093 0.793475 1.69 0
M  V30 5776 C 529.444 -0.683882 1.83895 0
M  V30 5777 O 528.569 -1.53116 1.5292 0
M  V30 5778 C 529.164 1.43376 3.06967 0
M  V30 5779 C 527.723 1.21956 3.56095 0
M  V30 5780 C 526.87 1.51494 2.3226 0
M  V30 5781 H 529.821 1.22008 1.01487 0
M  V30 5782 H 529.842 0.845068 3.70997 0
M  V30 5783 H 529.354 2.50899 2.96093 0
M  V30 5784 H 527.455 0.163749 3.7224 0
M  V30 5785 H 527.568 1.92713 4.38633 0
M  V30 5786 H 525.932 0.935175 2.3691 0
M  V30 5787 H 526.715 2.60159 2.23992 0
M  V30 5788 N 529.16 -1.33526 0.837174 0
M  V30 5789 C 530.39 -2.01754 0.444848 0
M  V30 5790 C 530.798 -1.63149 -0.958072 0
M  V30 5791 O 530.141 -0.839827 -1.63379 0
M  V30 5792 C 530.203 -3.56228 0.483917 0
M  V30 5793 C 529.867 -4.18205 1.84265 0
M  V30 5794 C 530.864 -4.37699 2.80563 0
M  V30 5795 C 528.549 -4.54667 2.13503 0
M  V30 5796 C 530.543 -4.928 4.04261 0
M  V30 5797 C 528.23 -5.09475 3.37458 0
M  V30 5798 C 529.228 -5.28488 4.32654 0
M  V30 5799 O 528.916 -5.82132 5.54417 0
M  V30 5800 H 528.648 -0.652928 0.175104 0
M  V30 5801 H 531.202 -1.71469 1.13082 0
M  V30 5802 H 529.432 -3.85833 -0.258826 0
M  V30 5803 H 531.121 -4.05752 0.109653 0
M  V30 5804 H 531.887 -4.0988 2.59274 0
M  V30 5805 H 527.766 -4.39164 1.40201 0
M  V30 5806 H 531.31 -5.07555 4.78574 0
M  V30 5807 H 527.207 -5.36725 3.58604 0
M  V30 5808 H 527.975 -6.00548 5.56133 0
M  V30 5809 N 530.638 -0.59345 -1.46 0
M  V30 5810 C 531.886 -0.082988 -2.0193 0
M  V30 5811 C 532.207 1.28569 -1.46612 0
M  V30 5812 O 531.477 1.84629 -0.654909 0
M  V30 5813 H 530.057 -0.0276882 -0.746487 0
M  V30 5814 H 532.719 -0.771657 -1.78973 0
M  V30 5815 H 531.815 -0.022079 -3.12092 0
M  V30 5816 N 532.116 1.54067 -0.331816 0
M  V30 5817 C 533.365 1.99895 0.269209 0
M  V30 5818 C 533.678 1.22371 1.52593 0
M  V30 5819 O 534.884 1.58618 2.20347 0
M  V30 5820 C 533.34 3.55972 0.530244 0
M  V30 5821 C 532.948 4.4234 -0.709901 0
M  V30 5822 C 534.692 4.10247 1.09077 0
M  V30 5823 C 532.599 5.89905 -0.420312 0
M  V30 5824 H 531.529 0.746741 0.104371 0
M  V30 5825 H 534.18 1.78014 -0.445324 0
M  V30 5826 H 532.562 3.73873 1.30518 0
M  V30 5827 H 533.736 4.36215 -1.48504 0
M  V30 5828 H 532.051 3.98997 -1.19123 0
M  V30 5829 H 534.648 5.18095 1.32219 0
M  V30 5830 H 534.991 3.62739 2.0427 0
M  V30 5831 H 535.524 3.96011 0.376824 0
M  V30 5832 H 532.263 6.41623 -1.34164 0
M  V30 5833 H 531.783 5.98962 0.316962 0
M  V30 5834 H 533.462 6.46991 -0.0331956 0
M  V30 5835 N 533.594 0.0601682 1.57485 0
M  V30 5836 C 534.504 -0.926121 2.15546 0
M  V30 5837 C 535.52 -1.33532 1.11558 0
M  V30 5838 O 536.696 -1.4104 1.4377 0
M  V30 5839 C 533.761 -2.17952 2.69625 0
M  V30 5840 C 532.822 -1.82783 3.88444 0
M  V30 5841 C 532.055 -3.02148 4.39935 0
M  V30 5842 O 532.278 -4.15803 3.90466 0
M  V30 5843 O 531.212 -2.82639 5.31412 0
M  V30 5844 H 535.038 -0.462289 3.00161 0
M  V30 5845 H 532.623 -0.162246 1.48516 0
M  V30 5846 H 534.505 -2.91474 3.04337 0
M  V30 5847 H 533.18 -2.63456 1.88077 0
M  V30 5848 H 532.087 -1.06549 3.58606 0
M  V30 5849 H 533.42 -1.42072 4.7125 0
M  V30 5850 N 535.072 -1.5615 -0.213296 0
M  V30 5851 C 536.297 -1.83986 -0.957282 0
M  V30 5852 C 536.722 -0.641526 -1.76822 0
M  V30 5853 O 536.08 0.409722 -1.7661 0
M  V30 5854 C 536.128 -3.09889 -1.84393 0
M  V30 5855 O 535.232 -2.89163 -2.94038 0
M  V30 5856 H 534.573 -0.606357 -0.270605 0
M  V30 5857 H 537.103 -2.03369 -0.224111 0
M  V30 5858 H 537.113 -3.40209 -2.25215 0
M  V30 5859 H 535.788 -3.96735 -1.24795 0
M  V30 5860 H 534.365 -2.70097 -2.57103 0
M  V30 5861 N 536.55 0.480323 -1.50102 0
M  V30 5862 C 537.483 1.59789 -1.62919 0
M  V30 5863 C 538.461 1.55429 -0.477557 0
M  V30 5864 O 539.645 1.75186 -0.695851 0
M  V30 5865 C 536.772 2.98351 -1.60325 0
M  V30 5866 C 535.818 3.20899 -2.80938 0
M  V30 5867 S 536.651 3.01791 -4.4236 0
M  V30 5868 C 537.807 4.42712 -4.42444 0
M  V30 5869 H 538.04 1.48676 -2.57454 0
M  V30 5870 H 535.573 0.666996 -1.3925 0
M  V30 5871 H 537.531 3.7824 -1.59514 0
M  V30 5872 H 536.192 3.06862 -0.670419 0
M  V30 5873 H 535.385 4.22102 -2.75401 0
M  V30 5874 H 534.987 2.48768 -2.79268 0
M  V30 5875 H 537.279 5.3518 -4.15438 0
M  V30 5876 H 538.222 4.53294 -5.43995 0
M  V30 5877 H 538.63 4.24359 -3.72263 0
M  V30 5878 N 538.028 1.39524 0.732853 0
M  V30 5879 C 539.253 1.40329 1.52717 0
M  V30 5880 C 539.678 0.000286574 1.881 0
M  V30 5881 O 539.036 -0.987262 1.52062 0
M  V30 5882 C 539.084 2.28464 2.78992 0
M  V30 5883 O 538.188 1.716 3.75003 0
M  V30 5884 H 537.529 0.47778 0.461109 0
M  V30 5885 H 540.059 1.83546 0.903996 0
M  V30 5886 H 540.069 2.43051 3.27705 0
M  V30 5887 H 538.744 3.30425 2.52572 0
M  V30 5888 H 537.321 1.66267 3.33781 0
M  V30 5889 N 539.506 -0.963266 1.24736 0
M  V30 5890 C 540.438 -2.06162 1.0015 0
M  V30 5891 C 541.451 -1.62771 -0.0305905 0
M  V30 5892 O 542.64 -1.77296 0.206966 0
M  V30 5893 C 539.74 -3.35333 0.490385 0
M  V30 5894 C 538.913 -4.07609 1.58663 0
M  V30 5895 C 537.972 -5.15052 1.0774 0
M  V30 5896 O 536.998 -5.4098 1.77002 0
M  V30 5897 N 538.2 -5.80436 -0.0858605 0
M  V30 5898 H 540.965 -2.27825 1.94719 0
M  V30 5899 H 538.526 -1.13121 1.15825 0
M  V30 5900 H 540.518 -4.04477 0.134371 0
M  V30 5901 H 539.088 -3.10507 -0.361155 0
M  V30 5902 H 538.308 -3.32681 2.11463 0
M  V30 5903 H 539.596 -4.52656 2.32336 0
M  V30 5904 H 538.994 -5.6178 -0.664806 0
M  V30 5905 H 537.551 -6.50674 -0.382981 0
M  V30 5906 N 540.985 -1.06182 -1.16461 0
M  V30 5907 C 542.262 -0.691364 -1.82974 0
M  V30 5908 C 542.642 0.827377 -1.9421 0
M  V30 5909 O 541.99 1.73723 -1.48434 0
M  V30 5910 C 542.2 -1.39199 -3.20038 0
M  V30 5911 C 543.548 -1.53647 -3.95825 0
M  V30 5912 O 544.572 -1.35181 -3.29552 0
M  V30 5913 O 543.431 -1.83932 -5.14618 0
M  V30 5914 H 540.525 -0.244605 -0.789998 0
M  V30 5915 H 543.071 -1.16203 -1.23673 0
M  V30 5916 H 541.843 -2.42766 -3.06888 0
M  V30 5917 H 541.466 -0.911335 -3.87015 0
M  V30 5918 N 542.463 1.3308 -0.844243 0
M  V30 5919 C 543.691 2.01808 -0.456203 0
M  V30 5920 C 544.106 1.63498 0.944131 0
M  V30 5921 O 543.463 0.85102 1.61443 0
M  V30 5922 C 543.514 3.56922 -0.573513 0
M  V30 5923 O 543.235 3.93851 -1.91868 0
M  V30 5924 C 544.736 4.42922 -0.183125 0
M  V30 5925 H 541.956 0.646273 -0.180477 0
M  V30 5926 H 544.5 1.69891 -1.1383 0
M  V30 5927 H 542.655 3.87352 0.0607367 0
M  V30 5928 H 543.069 4.88564 -1.90802 0
M  V30 5929 H 544.543 5.51093 -0.316241 0
M  V30 5930 H 545.02 4.30386 0.875477 0
M  V30 5931 H 545.626 4.1786 -0.792027 0
M  V30 5932 N 543.941 0.601185 1.45683 0
M  V30 5933 C 544.851 -0.123395 2.34275 0
M  V30 5934 C 545.867 -0.86702 1.5086 0
M  V30 5935 O 547.043 -0.826049 1.8368 0
M  V30 5936 C 544.108 -1.11237 3.2837 0
M  V30 5937 C 543.169 -0.371405 4.2769 0
M  V30 5938 C 542.402 -1.31327 5.1729 0
M  V30 5939 O 542.625 -2.55078 5.10188 0
M  V30 5940 O 541.559 -0.813811 5.96373 0
M  V30 5941 H 545.385 0.604483 2.97623 0
M  V30 5942 H 542.97 0.361477 1.44961 0
M  V30 5943 H 544.852 -1.68214 3.8637 0
M  V30 5944 H 543.527 -1.82139 2.67595 0
M  V30 5945 H 542.434 0.24067 3.73325 0
M  V30 5946 H 543.767 0.296998 4.91303 0
M  V30 5947 N 545.419 -1.53889 0.339982 0
M  V30 5948 C 546.665 -2.01152 -0.258003 0
M  V30 5949 C 546.998 -1.22749 -1.50487 0
M  V30 5950 O 546.273 -0.314156 -1.91946 0
M  V30 5951 C 546.556 -3.55468 -0.575717 0
M  V30 5952 C 546.409 -4.44584 0.682996 0
M  V30 5953 C 547.728 -4.1768 -1.38677 0
M  V30 5954 H 544.847 -0.731198 -0.0922992 0
M  V30 5955 H 547.489 -1.84352 0.459814 0
M  V30 5956 H 545.639 -3.69914 -1.18725 0
M  V30 5957 H 547.311 -4.41981 1.32102 0
M  V30 5958 H 545.554 -4.13592 1.3086 0
M  V30 5959 H 546.225 -5.5043 0.416001 0
M  V30 5960 H 548.701 -4.0691 -0.869705 0
M  V30 5961 H 547.577 -5.25734 -1.57783 0
M  V30 5962 H 547.838 -3.72069 -2.38782 0
M  V30 5963 N 546.897 -0.0685191 -1.57451 0
M  V30 5964 C 548.313 0.288101 -1.56978 0
M  V30 5965 C 548.513 1.70262 -1.07765 0
M  V30 5966 O 547.569 2.4135 -0.742054 0
M  V30 5967 C 548.882 0.100745 -3.00531 0
M  V30 5968 C 550.43 0.170531 -3.12535 0
M  V30 5969 C 550.905 0.0114944 -4.57999 0
M  V30 5970 N 552.396 0.0672065 -4.63151 0
M  V30 5971 C 553.131 -0.0314813 -5.73391 0
M  V30 5972 N 552.627 -0.183503 -6.92557 0
M  V30 5973 N 554.42 0.0253489 -5.62094 0
M  V30 5974 H 546.571 -0.993026 -1.87757 0
M  V30 5975 H 548.834 -0.386981 -0.865419 0
M  V30 5976 H 548.54 -0.875197 -3.40636 0
M  V30 5977 H 548.414 0.854457 -3.67395 0
M  V30 5978 H 550.801 1.13696 -2.72318 0
M  V30 5979 H 550.882 -0.614229 -2.48316 0
M  V30 5980 H 550.526 -0.951684 -4.98904 0
M  V30 5981 H 550.456 0.815617 -5.20245 0
M  V30 5982 H 552.947 0.183246 -3.77455 0
M  V30 5983 H 553.26 -0.251041 -7.72392 0
M  V30 5984 H 551.605 -0.218822 -6.94655 0
M  V30 5985 H 554.796 0.142794 -4.67882 0
M  V30 5986 H 554.969 -0.0550166 -6.47977 0
M  V30 5987 N 548.375 1.56261 0.205012 0
M  V30 5988 C 549.6 1.84491 0.947512 0
M  V30 5989 C 550.025 0.650894 1.76479 0
M  V30 5990 O 549.383 -0.40035 1.76824 0
M  V30 5991 C 549.431 3.10863 1.82747 0
M  V30 5992 O 548.535 2.90719 2.925 0
M  V30 5993 H 547.876 0.607783 0.267386 0
M  V30 5994 H 550.406 2.03485 0.213323 0
M  V30 5995 H 550.416 3.41399 2.23407 0
M  V30 5996 H 549.091 3.97392 1.2269 0
M  V30 5997 H 547.668 2.71457 2.55667 0
M  V30 5998 N 549.853 -0.472356 1.50355 0
M  V30 5999 C 551.269 -0.806001 1.37753 0
M  V30 6000 C 551.469 -1.968 0.432649 0
M  V30 6001 O 550.525 -2.52189 -0.12519 0
M  V30 6002 C 551.838 -1.11926 2.79093 0
M  V30 6003 C 553.386 -1.22579 2.87999 0
M  V30 6004 C 553.861 -1.57218 4.3017 0
M  V30 6005 N 555.352 -1.64212 4.33115 0
M  V30 6006 C 556.087 -1.92517 5.40116 0
M  V30 6007 N 555.583 -2.1885 6.57325 0
M  V30 6008 N 557.376 -1.94008 5.27558 0
M  V30 6009 H 549.527 0.293451 2.10363 0
M  V30 6010 H 551.79 0.0687672 0.945503 0
M  V30 6011 H 551.496 -0.338504 3.50067 0
M  V30 6012 H 551.37 -2.05577 3.16256 0
M  V30 6013 H 553.757 -1.99722 2.17245 0
M  V30 6014 H 553.838 -0.269107 2.54381 0
M  V30 6015 H 553.482 -0.806154 5.01461 0
M  V30 6016 H 553.412 -2.54034 4.61275 0
M  V30 6017 H 555.903 -1.45906 3.48597 0
M  V30 6018 H 556.216 -2.39718 7.3468 0
M  V30 6019 H 554.561 -2.16245 6.60502 0
M  V30 6020 H 557.752 -1.72931 4.34986 0
M  V30 6021 H 557.925 -2.15731 6.11035 0
M  V30 6022 N 551.331 -1.39911 -0.725443 0
M  V30 6023 C 552.577 -1.37858 -1.48738 0
M  V30 6024 C 552.91 0.0224187 -1.94187 0
M  V30 6025 O 552.185 0.989204 -1.67466 0
M  V30 6026 C 552.468 -2.3594 -2.72038 0
M  V30 6027 C 552.321 -3.85023 -2.32546 0
M  V30 6028 C 553.64 -2.31704 -3.74167 0
M  V30 6029 H 550.759 -0.502074 -0.539528 0
M  V30 6030 H 553.401 -1.70974 -0.828728 0
M  V30 6031 H 551.551 -2.0783 -3.28236 0
M  V30 6032 H 553.223 -4.2392 -1.81905 0
M  V30 6033 H 551.466 -4.01334 -1.64661 0
M  V30 6034 H 552.137 -4.49152 -3.20884 0
M  V30 6035 H 554.613 -2.5658 -3.27576 0
M  V30 6036 H 553.489 -3.02395 -4.58092 0
M  V30 6037 H 553.75 -1.3253 -4.21768 0
M  V30 6038 N 552.809 0.956637 -1.25245 0
M  V30 6039 C 554.055 1.70352 -1.10036 0
M  V30 6040 C 554.388 1.90869 0.358156 0
M  V30 6041 O 553.663 1.47819 1.26411 0
M  V30 6042 C 553.946 3.08766 -1.85298 0
M  V30 6043 C 553.799 2.95672 -3.38966 0
M  V30 6044 C 555.118 4.08622 -1.63451 0
M  V30 6045 H 552.237 0.618279 -0.401123 0
M  V30 6046 H 554.879 1.11212 -1.54051 0
M  V30 6047 H 553.029 3.59252 -1.47887 0
M  V30 6048 H 554.701 2.52527 -3.86041 0
M  V30 6049 H 552.944 2.31634 -3.6678 0
M  V30 6050 H 553.615 3.93776 -3.86839 0
M  V30 6051 H 556.091 3.67038 -1.96015 0
M  V30 6052 H 554.967 5.03514 -2.18551 0
M  V30 6053 H 555.228 4.3834 -0.575357 0
M  V30 6054 N 554.287 1.06798 1.15896 0
M  V30 6055 C 555.535 0.786211 1.8618 0
M  V30 6056 C 555.856 -0.689547 1.82401 0
M  V30 6057 O 555.126 -1.49913 1.26107 0
M  V30 6058 H 553.706 0.287843 0.689315 0
M  V30 6059 H 556.368 1.35055 1.40521 0
M  V30 6060 H 555.464 1.1157 2.91477 0
M  V30 6061 N 555.766 -1.3263 0.851289 0
M  V30 6062 C 557.014 -1.96978 0.452128 0
M  V30 6063 C 557.335 -1.67715 -0.99482 0
M  V30 6064 O 556.605 -0.98259 -1.69476 0
M  V30 6065 H 555.185 -0.72873 0.164202 0
M  V30 6066 H 557.847 -1.61774 1.08698 0
M  V30 6067 H 556.943 -3.06387 0.594407 0
M  V30 6068 N 557.244 -0.608902 -1.45362 0
M  V30 6069 C 558.469 -0.10921 -2.07112 0
M  V30 6070 C 558.894 1.19779 -1.45033 0
M  V30 6071 O 558.252 1.72961 -0.543527 0
M  V30 6072 C 558.3 0.0155745 -3.60597 0
M  V30 6073 O 557.404 1.06546 -3.98399 0
M  V30 6074 H 556.745 -0.0746619 -0.659789 0
M  V30 6075 H 559.275 -0.839283 -1.86594 0
M  V30 6076 H 559.285 0.213364 -4.07442 0
M  V30 6077 H 557.96 -0.938765 -4.05167 0
M  V30 6078 H 556.537 0.844024 -3.63223 0
M  V30 6079 N 558.722 1.53707 -0.348139 0
M  V30 6080 C 559.652 2.28111 0.498766 0
M  V30 6081 C 560.633 1.29851 1.09876 0
M  V30 6082 O 561.818 1.587 1.11928 0
M  V30 6083 C 558.948 3.05735 1.64753 0
M  V30 6084 C 557.902 4.11537 1.17565 0
M  V30 6085 C 557.228 4.77142 2.4133 0
M  V30 6086 C 558.528 5.21587 0.272844 0
M  V30 6087 H 560.222 2.99152 -0.121934 0
M  V30 6088 H 557.768 1.43875 -0.0600842 0
M  V30 6089 H 559.721 3.56526 2.24649 0
M  V30 6090 H 558.445 2.32354 2.2952 0
M  V30 6091 H 557.104 3.61665 0.599483 0
M  V30 6092 H 556.752 4.0035 3.04514 0
M  V30 6093 H 556.452 5.48626 2.10436 0
M  V30 6094 H 557.976 5.30719 3.01943 0
M  V30 6095 H 559.39 5.67986 0.778779 0
M  V30 6096 H 557.787 6.00074 0.0555849 0
M  V30 6097 H 558.857 4.79969 -0.689785 0
M  V30 6098 N 560.2 0.0768682 1.57412 0
M  V30 6099 C 561.616 -0.279772 1.57129 0
M  V30 6100 C 561.816 -1.69688 1.08666 0
M  V30 6101 O 560.872 -2.40953 0.754843 0
M  V30 6102 C 562.185 -0.0848055 3.0058 0
M  V30 6103 C 563.733 -0.153954 3.12621 0
M  V30 6104 C 564.208 0.0127946 4.57998 0
M  V30 6105 N 565.699 -0.0426435 4.6318 0
M  V30 6106 C 566.434 0.0618892 5.73367 0
M  V30 6107 N 565.93 0.220229 6.9245 0
M  V30 6108 N 567.723 0.00446072 5.621 0
M  V30 6109 H 559.874 1.00297 1.87228 0
M  V30 6110 H 562.137 0.391565 0.863354 0
M  V30 6111 H 561.843 0.89325 3.40168 0
M  V30 6112 H 561.717 -0.834961 3.67843 0
M  V30 6113 H 564.104 -1.1225 2.72917 0
M  V30 6114 H 564.185 0.627389 2.47987 0
M  V30 6115 H 563.829 0.978128 4.98392 0
M  V30 6116 H 563.759 -0.788016 5.20671 0
M  V30 6117 H 566.25 -0.163226 3.77547 0
M  V30 6118 H 566.563 0.291999 7.72248 0
M  V30 6119 H 564.908 0.255658 6.9453 0
M  V30 6120 H 568.099 -0.117979 4.67951 0
M  V30 6121 H 568.272 0.0893796 6.47938 0
M  V30 6122 N 561.678 -1.56367 -0.196722 0
M  V30 6123 C 562.926 -1.80172 -0.915554 0
M  V30 6124 C 563.247 -0.649649 -1.8386 0
M  V30 6125 O 562.517 0.332111 -1.93064 0
M  V30 6126 H 561.097 -0.664592 -0.341067 0
M  V30 6127 H 563.759 -1.93844 -0.202622 0
M  V30 6128 H 562.855 -2.7327 -1.50764 0
M  V30 6129 N 563.156 0.464375 -1.50603 0
M  V30 6130 C 564.119 1.54393 -1.69397 0
M  V30 6131 C 565.119 1.50566 -0.564504 0
M  V30 6132 O 566.309 1.53066 -0.831645 0
M  V30 6133 C 563.441 2.9401 -1.72543 0
M  V30 6134 H 564.634 1.39044 -2.65719 0
M  V30 6135 H 562.187 0.69122 -1.40185 0
M  V30 6136 H 562.922 3.14795 -0.77938 0
M  V30 6137 H 562.707 2.98195 -2.54602 0
M  V30 6138 H 564.197 3.72375 -1.89015 0
M  V30 6139 N 564.634 1.40294 0.718013 0
M  V30 6140 C 565.566 1.36281 1.84283 0
M  V30 6141 C 566.579 0.268621 1.60569 0
M  V30 6142 O 567.768 0.528798 1.70487 0
M  V30 6143 C 564.868 1.09741 3.2064 0
M  V30 6144 C 564.041 2.30767 3.71571 0
M  V30 6145 C 563.1 2.00424 4.86535 0
M  V30 6146 O 562.126 2.73268 4.99313 0
M  V30 6147 N 563.328 0.980724 5.72156 0
M  V30 6148 H 566.093 2.3322 1.88225 0
M  V30 6149 H 563.654 1.34616 0.899453 0
M  V30 6150 H 565.646 0.874322 3.95143 0
M  V30 6151 H 564.216 0.214771 3.11861 0
M  V30 6152 H 563.436 2.68921 2.88228 0
M  V30 6153 H 564.724 3.11455 4.02335 0
M  V30 6154 H 564.122 0.377375 5.6444 0
M  V30 6155 H 562.679 0.817538 6.46653 0
M  V30 6156 N 566.112 -0.949982 1.2575 0
M  V30 6157 C 567.075 -2.02894 1.06615 0
M  V30 6158 C 568.075 -1.60791 0.0173905 0
M  V30 6159 O 569.265 -1.72249 0.260003 0
M  V30 6160 C 566.397 -3.35219 0.619751 0
M  V30 6161 H 567.59 -2.21302 2.02399 0
M  V30 6162 H 565.143 -1.12772 1.08223 0
M  V30 6163 H 565.878 -3.22508 -0.340486 0
M  V30 6164 H 565.663 -3.67129 1.37692 0
M  V30 6165 H 567.153 -4.14505 0.507443 0
M  V30 6166 N 567.59 -1.07411 -1.15328 0
M  V30 6167 C 568.553 -0.698914 -2.18284 0
M  V30 6168 C 569.553 0.261149 -1.58665 0
M  V30 6169 O 570.743 0.0420277 -1.74149 0
M  V30 6170 C 567.875 -0.0302427 -3.40887 0
M  V30 6171 H 569.068 -1.61045 -2.52991 0
M  V30 6172 H 566.621 -0.870724 -1.298 0
M  V30 6173 H 567.356 0.893505 -3.11748 0
M  V30 6174 H 567.141 -0.720759 -3.85419 0
M  V30 6175 H 568.631 0.21759 -4.17033 0
M  V30 6176 N 569.068 1.32177 -0.85831 0
M  V30 6177 C 570.293 2.01847 -0.476718 0
M  V30 6178 C 570.718 1.64065 0.920021 0
M  V30 6179 O 570.076 0.843189 1.60499 0
M  V30 6180 C 570.124 3.55097 -0.627578 0
M  V30 6181 O 569.228 4.11012 0.338086 0
M  V30 6182 H 568.569 0.635907 -0.191099 0
M  V30 6183 H 571.099 1.68641 -1.15851 0
M  V30 6184 H 571.109 4.04718 -0.516476 0
M  V30 6185 H 569.784 3.81938 -1.64609 0
M  V30 6186 H 568.361 3.72451 0.182917 0
M  V30 6187 N 570.547 0.616602 1.45037 0
M  V30 6188 C 571.958 0.199359 1.85633 0
M  V30 6189 C 572.309 -1.24588 1.51566 0
M  V30 6190 O 571.434 -1.94594 0.94668 0
M  V30 6191 C 572.029 0.355033 3.36935 0
M  V30 6192 C 570.588 -0.00758748 3.76399 0
M  V30 6193 C 569.735 0.675256 2.68953 0
M  V30 6194 H 572.686 0.822708 1.3571 0
M  V30 6195 H 572.707 -0.410201 3.78282 0
M  V30 6196 H 572.219 1.40699 3.61698 0
M  V30 6197 H 570.32 -1.05837 3.57252 0
M  V30 6198 H 570.433 0.392346 4.77491 0
M  V30 6199 H 568.797 0.111992 2.54454 0
M  V30 6200 H 569.58 1.72952 2.96551 0
M  V30 6201 N 572.025 -1.5352 0.356285 0
M  V30 6202 C 572.988 -2.24071 -0.482182 0
M  V30 6203 C 573.988 -1.24531 -1.01729 0
M  V30 6204 O 575.178 -1.48876 -0.904513 0
M  V30 6205 C 572.31 -2.97025 -1.67299 0
M  V30 6206 H 573.503 -2.99596 0.135031 0
M  V30 6207 H 571.056 -1.55928 0.107825 0
M  V30 6208 H 571.791 -2.25719 -2.32855 0
M  V30 6209 H 571.576 -3.7005 -1.29636 0
M  V30 6210 H 573.066 -3.50683 -2.26741 0
M  V30 6211 N 573.503 -0.0852151 -1.57369 0
M  V30 6212 C 574.45 0.877268 -2.13478 0
M  V30 6213 C 575.42 1.28642 -1.05073 0
M  V30 6214 O 576.605 1.36992 -1.32808 0
M  V30 6215 C 573.745 2.13464 -2.71159 0
M  V30 6216 C 572.858 1.77691 -3.93764 0
M  V30 6217 C 571.993 2.98139 -4.39643 0
M  V30 6218 C 571.032 2.58447 -5.54862 0
M  V30 6219 N 570.169 3.71698 -5.95639 0
M  V30 6220 H 575.009 0.391933 -2.95411 0
M  V30 6221 H 572.546 0.181796 -1.45972 0
M  V30 6222 H 574.504 2.87086 -3.02717 0
M  V30 6223 H 573.134 2.59514 -1.91969 0
M  V30 6224 H 572.186 0.940768 -3.68583 0
M  V30 6225 H 573.498 1.44497 -4.77412 0
M  V30 6226 H 572.652 3.80026 -4.72933 0
M  V30 6227 H 571.391 3.34536 -3.54876 0
M  V30 6228 H 570.396 1.74984 -5.21211 0
M  V30 6229 H 571.621 2.23205 -6.41371 0
M  V30 6230 H 569.567 4.07831 -5.13819 0
M  V30 6231 H 569.484 3.42317 -6.74059 0
M  V30 6232 H 570.752 4.54123 -6.33555 0
M  V30 6233 N 574.981 1.5647 0.188427 0
M  V30 6234 C 576.229 1.80655 0.905986 0
M  V30 6235 C 576.55 0.659391 1.83513 0
M  V30 6236 O 575.82 -0.321868 1.93238 0
M  V30 6237 H 574.4 0.666391 0.337538 0
M  V30 6238 H 577.062 1.93949 0.192339 0
M  V30 6239 H 576.158 2.74066 1.49313 0
M  V30 6240 N 576.459 -0.456382 1.50847 0
M  V30 6241 C 577.369 -1.57805 1.73594 0
M  V30 6242 C 578.385 -1.62599 0.619476 0
M  V30 6243 O 579.561 -1.80195 0.899532 0
M  V30 6244 C 576.626 -2.93926 1.8387 0
M  V30 6245 C 575.687 -2.99402 3.07663 0
M  V30 6246 C 574.92 -4.29031 3.1744 0
M  V30 6247 O 575.143 -5.20358 2.33631 0
M  V30 6248 O 574.077 -4.40401 4.10281 0
M  V30 6249 H 577.903 -1.41531 2.68705 0
M  V30 6250 H 575.488 -0.637422 1.3512 0
M  V30 6251 H 577.37 -3.74747 1.92725 0
M  V30 6252 H 576.045 -3.10368 0.91944 0
M  V30 6253 H 574.952 -2.17606 3.043 0
M  V30 6254 H 576.285 -2.87901 3.99216 0
M  V30 6255 N 577.937 -1.40673 -0.710563 0
M  V30 6256 C 579.348 -1.34975 -1.28991 0
M  V30 6257 C 579.699 -0.0256272 -1.96183 0
M  V30 6258 O 578.824 0.876339 -1.97862 0
M  V30 6259 C 579.419 -2.44467 -2.34567 0
M  V30 6260 C 577.978 -2.42213 -2.88114 0
M  V30 6261 C 577.125 -2.25085 -1.61963 0
M  V30 6262 H 580.076 -1.50406 -0.506343 0
M  V30 6263 H 580.097 -2.12663 -3.15523 0
M  V30 6264 H 579.609 -3.40825 -1.85634 0
M  V30 6265 H 577.71 -1.49568 -3.41263 0
M  V30 6266 H 577.823 -3.37983 -3.39565 0
M  V30 6267 H 576.187 -1.72691 -1.87216 0
M  V30 6268 H 576.97 -3.23449 -1.15047 0
M  V30 6269 N 579.415 0.9433 -1.26252 0
M  V30 6270 C 580.64 1.72898 -1.14547 0
M  V30 6271 C 581.065 1.85761 0.295743 0
M  V30 6272 O 580.423 1.3463 1.21427 0
M  V30 6273 C 580.471 3.11471 -1.8171 0
M  V30 6274 O 579.575 3.97336 -1.10445 0
M  V30 6275 H 578.916 0.530555 -0.399259 0
M  V30 6276 H 581.446 1.18159 -1.67032 0
M  V30 6277 H 581.456 3.61872 -1.88449 0
M  V30 6278 H 580.131 3.01425 -2.86558 0
M  V30 6279 H 578.708 3.55788 -1.11666 0
M  V30 6280 N 580.893 1.08022 1.14757 0
M  V30 6281 C 581.823 0.728248 2.21853 0
M  V30 6282 C 582.804 -0.287486 1.67653 0
M  V30 6283 O 583.989 -0.158727 1.9355 0
M  V30 6284 C 581.119 0.132549 3.47047 0
M  V30 6285 C 580.073 1.07619 4.14249 0
M  V30 6286 C 579.399 0.342907 5.33599 0
M  V30 6287 C 580.699 2.41268 4.63235 0
M  V30 6288 H 582.393 1.62365 2.51551 0
M  V30 6289 H 579.939 0.782125 1.20908 0
M  V30 6290 H 581.892 -0.125665 4.21213 0
M  V30 6291 H 580.616 -0.797971 3.16702 0
M  V30 6292 H 579.275 1.31944 3.42033 0
M  V30 6293 H 578.923 -0.59129 4.99513 0
M  V30 6294 H 578.623 0.971955 5.79506 0
M  V30 6295 H 580.147 0.0926538 6.1053 0
M  V30 6296 H 581.561 2.21232 5.28894 0
M  V30 6297 H 579.958 2.9983 5.19829 0
M  V30 6298 H 581.028 3.03079 3.78512 0
M  V30 6299 N 582.371 -1.3172 0.865308 0
M  V30 6300 C 583.782 -1.79104 0.527126 0
M  V30 6301 C 584.133 -1.7135 -0.955695 0
M  V30 6302 O 583.258 -1.27845 -1.74598 0
M  V30 6303 C 583.853 -3.25207 0.950061 0
M  V30 6304 C 582.412 -3.70504 0.663611 0
M  V30 6305 C 581.559 -2.52605 1.14395 0
M  V30 6306 H 584.51 -1.18868 1.05148 0
M  V30 6307 H 584.531 -3.79535 0.270805 0
M  V30 6308 H 584.043 -3.30818 2.02931 0
M  V30 6309 H 582.144 -3.70398 -0.404474 0
M  V30 6310 H 582.257 -4.62845 1.23737 0
M  V30 6311 H 580.621 -2.4838 0.563859 0
M  V30 6312 H 581.404 -2.60964 2.23053 0
M  V30 6313 N 583.85 -0.624285 -1.44708 0
M  V30 6314 C 584.76 0.0861083 -2.34442 0
M  V30 6315 C 585.776 0.84291 -1.5222 0
M  V30 6316 O 586.952 0.796723 -1.84971 0
M  V30 6317 C 584.017 1.05999 -3.30099 0
M  V30 6318 C 583.077 0.303316 -4.28227 0
M  V30 6319 C 582.311 1.23081 -5.19314 0
M  V30 6320 O 582.534 2.46929 -5.14181 0
M  V30 6321 O 581.468 0.71883 -5.97592 0
M  V30 6322 H 585.293 -0.651756 -2.96624 0
M  V30 6323 H 582.879 -0.384493 -1.44368 0
M  V30 6324 H 584.76 1.62046 -3.88997 0
M  V30 6325 H 583.436 1.77859 -2.70459 0
M  V30 6326 H 582.343 -0.300033 -3.72895 0
M  V30 6327 H 583.676 -0.375123 -4.90768 0
M  V30 6328 N 585.328 1.53329 -0.364422 0
M  V30 6329 C 586.275 2.25698 0.482607 0
M  V30 6330 C 587.245 1.26325 1.07848 0
M  V30 6331 O 588.43 1.55104 1.11119 0
M  V30 6332 C 585.57 3.04873 1.61699 0
M  V30 6333 C 584.683 4.19135 1.0464 0
M  V30 6334 C 583.818 4.85754 2.14979 0
M  V30 6335 C 582.857 5.9205 1.5538 0
M  V30 6336 N 581.994 6.52365 2.59547 0
M  V30 6337 H 586.834 2.97666 -0.141032 0
M  V30 6338 H 584.371 1.46875 -0.0813692 0
M  V30 6339 H 586.329 3.49051 2.28516 0
M  V30 6340 H 584.959 2.35162 2.2113 0
M  V30 6341 H 584.011 3.79451 0.268553 0
M  V30 6342 H 585.323 4.95525 0.570653 0
M  V30 6343 H 584.477 5.3311 2.89619 0
M  V30 6344 H 583.216 4.08834 2.65906 0
M  V30 6345 H 582.221 5.44058 0.792549 0
M  V30 6346 H 583.446 6.7089 1.0528 0
M  V30 6347 H 581.392 5.78298 3.09689 0
M  V30 6348 H 581.309 7.2429 2.16655 0
M  V30 6349 H 582.577 7.0437 3.33892 0
M  V30 6350 N 586.806 0.0935595 1.57322 0
M  V30 6351 C 588.083 -0.612692 1.85756 0
M  V30 6352 C 588.463 -1.86439 0.99013 0
M  V30 6353 O 587.811 -2.28416 0.0621362 0
M  V30 6354 C 588.021 -0.929547 3.36393 0
M  V30 6355 C 589.369 -1.29366 4.04413 0
M  V30 6356 O 590.393 -1.02061 3.41265 0
M  V30 6357 O 589.252 -1.80498 5.15832 0
M  V30 6358 H 586.346 -0.306444 0.768128 0
M  V30 6359 H 588.892 0.126141 1.69231 0
M  V30 6360 H 587.664 -0.0414766 3.91278 0
M  V30 6361 H 587.287 -1.72441 3.5826 0
M  V30 6362 N 588.284 -1.56567 -0.180126 0
M  V30 6363 C 589.194 -1.98947 -1.24327 0
M  V30 6364 C 590.21 -0.899446 -1.4895 0
M  V30 6365 O 591.386 -1.20639 -1.61271 0
M  V30 6366 C 588.451 -2.33328 -2.56435 0
M  V30 6367 C 587.512 -3.56114 -2.39752 0
M  V30 6368 C 586.745 -3.88845 -3.65561 0
M  V30 6369 O 586.968 -3.22662 -4.70368 0
M  V30 6370 O 585.902 -4.82226 -3.60197 0
M  V30 6371 H 589.728 -2.89634 -0.913565 0
M  V30 6372 H 587.313 -1.44319 -0.386306 0
M  V30 6373 H 589.195 -2.5645 -3.34382 0
M  V30 6374 H 587.87 -1.45806 -2.89002 0
M  V30 6375 H 586.777 -3.38221 -1.59866 0
M  V30 6376 H 588.11 -4.4415 -2.12113 0
M  V30 6377 N 589.762 0.448376 -1.51087 0
M  V30 6378 C 591.039 1.20926 -1.53741 0
M  V30 6379 C 591.419 2.09025 -0.295222 0
M  V30 6380 O 590.767 2.16851 0.720283 0
M  V30 6381 C 590.977 2.02067 -2.84552 0
M  V30 6382 C 592.325 2.59486 -3.36084 0
M  V30 6383 O 593.349 2.12289 -2.86028 0
M  V30 6384 O 592.208 3.45539 -4.23397 0
M  V30 6385 H 589.302 0.549951 -0.617643 0
M  V30 6386 H 591.848 0.458344 -1.63393 0
M  V30 6387 H 590.62 1.37291 -3.66425 0
M  V30 6388 H 590.243 2.84246 -2.78011 0
M  V30 6389 N 591.24 1.41047 0.703093 0
M  V30 6390 C 592.19 1.38774 1.80903 0
M  V30 6391 C 593.174 0.263275 1.58731 0
M  V30 6392 O 594.366 0.503362 1.69692 0
M  V30 6393 C 591.495 1.26497 3.19145 0
M  V30 6394 C 590.581 2.43775 3.47037 0
M  V30 6395 N 590.972 3.69249 3.45672 0
M  V30 6396 C 589.27 2.37425 3.77552 0
M  V30 6397 C 589.971 4.46989 3.72258 0
M  V30 6398 N 588.947 3.76998 3.91629 0
M  V30 6399 H 592.749 2.33714 1.78199 0
M  V30 6400 H 590.263 1.34996 0.902762 0
M  V30 6401 H 592.26 1.2295 3.98358 0
M  V30 6402 H 590.92 0.32534 3.23066 0
M  V30 6403 H 591.931 4.02239 3.26228 0
M  V30 6404 H 588.608 1.51895 3.88888 0
M  V30 6405 H 589.998 5.55894 3.77402 0
M  V30 6406 N 592.718 -0.936591 1.26751 0
M  V30 6407 C 593.681 -2.01752 1.08761 0
M  V30 6408 C 594.681 -1.60763 0.0344435 0
M  V30 6409 O 595.871 -1.71963 0.278258 0
M  V30 6410 C 593.003 -3.34543 0.655271 0
M  V30 6411 H 594.196 -2.19143 2.04735 0
M  V30 6412 H 591.749 -1.11618 1.09413 0
M  V30 6413 H 592.484 -3.22851 -0.30626 0
M  V30 6414 H 592.269 -3.65647 1.41578 0
M  V30 6415 H 593.759 -4.13944 0.551378 0
M  V30 6416 N 594.196 -1.08629 -1.14182 0
M  V30 6417 C 595.126 -0.740003 -2.21464 0
M  V30 6418 C 596.107 0.278591 -1.67803 0
M  V30 6419 O 597.292 0.148461 -1.93632 0
M  V30 6420 C 594.422 -0.150952 -3.46972 0
M  V30 6421 C 593.376 -1.09815 -4.13672 0
M  V30 6422 C 592.702 -0.3712 -5.3341 0
M  V30 6423 C 594.002 -2.43722 -4.61949 0
M  V30 6424 H 595.696 -1.63697 -2.50686 0
M  V30 6425 H 593.242 -0.788526 -1.20492 0
M  V30 6426 H 595.195 0.103325 -4.21273 0
M  V30 6427 H 593.919 0.781164 -3.1712 0
M  V30 6428 H 592.578 -1.33756 -3.41328 0
M  V30 6429 H 592.226 0.564792 -4.99819 0
M  V30 6430 H 591.926 -1.00267 -5.78982 0
M  V30 6431 H 593.45 -0.12503 -6.10472 0
M  V30 6432 H 594.864 -2.24034 -5.27714 0
M  V30 6433 H 593.261 -3.02582 -5.18232 0
M  V30 6434 H 594.331 -3.05082 -3.76899 0
M  V30 6435 N 595.674 1.31259 -0.872281 0
M  V30 6436 C 596.899 2.0133 -0.498099 0
M  V30 6437 C 597.324 1.65031 0.902568 0
M  V30 6438 O 596.682 0.860164 1.59596 0
M  V30 6439 C 596.73 3.54411 -0.665205 0
M  V30 6440 O 595.834 4.11347 0.294473 0
M  V30 6441 H 595.175 0.633844 -0.197832 0
M  V30 6442 H 597.705 1.67402 -1.17633 0
M  V30 6443 H 597.715 4.04147 -0.559373 0
M  V30 6444 H 596.39 3.80171 -1.68651 0
M  V30 6445 H 594.967 3.72624 0.143403 0
M  V30 6446 N 597.152 0.631951 1.44375 0
M  V30 6447 C 598.382 0.143658 2.061 0
M  V30 6448 C 598.79 -1.18733 1.47306 0
M  V30 6449 O 598.133 -1.73943 0.590724 0
M  V30 6450 C 598.195 -0.0446102 3.59472 0
M  V30 6451 C 597.859 1.20835 4.40736 0
M  V30 6452 C 598.856 2.13224 4.74164 0
M  V30 6453 C 596.541 1.44399 4.81097 0
M  V30 6454 C 598.535 3.27487 5.46838 0
M  V30 6455 C 596.222 2.58959 5.53519 0
M  V30 6456 C 597.22 3.50329 5.86309 0
M  V30 6457 O 596.908 4.62891 6.57257 0
M  V30 6458 H 596.64 0.0772939 0.671567 0
M  V30 6459 H 599.194 0.866677 1.8622 0
M  V30 6460 H 597.424 -0.822783 3.77845 0
M  V30 6461 H 599.113 -0.487561 4.02961 0
M  V30 6462 H 599.879 1.96253 4.4352 0
M  V30 6463 H 595.758 0.741696 4.54994 0
M  V30 6464 H 599.302 3.98826 5.72349 0
M  V30 6465 H 595.199 2.75873 5.83579 0
M  V30 6466 H 595.967 4.61883 6.75726 0
M  V30 6467 N 598.631 -1.53133 0.372548 0
M  V30 6468 C 599.877 -2.02336 -0.207823 0
M  V30 6469 C 600.232 -1.25477 -1.45853 0
M  V30 6470 O 599.525 -0.341971 -1.88524 0
M  V30 6471 C 599.719 -3.53206 -0.545938 0
M  V30 6472 C 599.548 -4.44674 0.670454 0
M  V30 6473 C 598.318 -4.91217 1.18465 0
M  V30 6474 C 600.516 -4.90772 1.53777 0
M  V30 6475 N 598.498 -5.66711 2.36034 0
M  V30 6476 C 599.869 -5.64678 2.56004 0
M  V30 6477 C 601.924 -4.72836 1.55983 0
M  V30 6478 C 600.627 -6.22555 3.60303 0
M  V30 6479 C 602.653 -5.31583 2.59179 0
M  V30 6480 C 602.015 -6.05381 3.6013 0
M  V30 6481 H 598.114 -0.781048 -0.0385783 0
M  V30 6482 H 600.698 -1.87665 0.518664 0
M  V30 6483 H 598.869 -3.68024 -1.24149 0
M  V30 6484 H 600.601 -3.89123 -1.112 0
M  V30 6485 H 597.356 -4.67652 0.748205 0
M  V30 6486 H 597.78 -6.09117 2.95475 0
M  V30 6487 H 602.422 -4.15299 0.792877 0
M  V30 6488 H 600.14 -6.79183 4.37876 0
M  V30 6489 H 603.726 -5.19595 2.61749 0
M  V30 6490 H 602.606 -6.50028 4.38672 0
M  V30 6491 N 600.109 -0.101901 -1.5727 0
M  V30 6492 C 601.056 0.854577 -2.14396 0
M  V30 6493 C 602.026 1.27521 -1.06432 0
M  V30 6494 O 603.211 1.35575 -1.34253 0
M  V30 6495 C 600.351 2.10576 -2.73408 0
M  V30 6496 C 599.464 1.73504 -3.95626 0
M  V30 6497 C 598.599 2.9346 -4.42781 0
M  V30 6498 C 597.638 2.52547 -5.57572 0
M  V30 6499 N 596.775 3.65359 -5.99547 0
M  V30 6500 H 601.615 0.360578 -2.9581 0
M  V30 6501 H 599.152 0.166303 -1.46157 0
M  V30 6502 H 601.11 2.83859 -3.05745 0
M  V30 6503 H 599.74 2.57463 -1.94711 0
M  V30 6504 H 598.792 0.901622 -3.6956 0
M  V30 6505 H 600.104 1.39426 -4.78917 0
M  V30 6506 H 599.258 3.74988 -4.76937 0
M  V30 6507 H 597.997 3.30753 -3.58404 0
M  V30 6508 H 597.002 1.69446 -5.23037 0
M  V30 6509 H 598.227 2.1639 -6.43702 0
M  V30 6510 H 596.173 4.02358 -5.18116 0
M  V30 6511 H 596.09 3.35148 -6.77652 0
M  V30 6512 H 597.358 4.47378 -6.38336 0
M  V30 6513 N 601.587 1.56661 0.17182 0
M  V30 6514 C 602.998 1.71652 0.734329 0
M  V30 6515 C 603.349 0.712335 1.82812 0
M  V30 6516 O 602.474 -0.126401 2.16031 0
M  V30 6517 C 603.069 3.11226 1.3388 0
M  V30 6518 C 601.628 3.27904 1.84813 0
M  V30 6519 C 600.775 2.67603 0.726917 0
M  V30 6520 H 603.726 1.5861 -0.0535665 0
M  V30 6521 H 603.747 3.09849 2.20849 0
M  V30 6522 H 603.259 3.8429 0.54249 0
M  V30 6523 H 601.36 2.59796 2.6709 0
M  V30 6524 H 601.473 4.35637 1.99392 0
M  V30 6525 H 599.837 2.274 1.14723 0
M  V30 6526 H 600.62 3.43252 -0.0575334 0
M  V30 6527 N 603.065 -0.440357 1.51323 0
M  V30 6528 C 604.312 -1.19004 1.63842 0
M  V30 6529 C 604.64 -1.91266 0.35321 0
M  V30 6530 O 603.895 -1.84143 -0.662565 0
M  V30 6531 C 604.194 -2.2339 2.78984 0
M  V30 6532 C 603.86 -1.68162 4.18369 0
M  V30 6533 C 602.522 -1.52823 4.56288 0
M  V30 6534 C 604.874 -1.27524 5.05358 0
M  V30 6535 C 602.202 -0.953157 5.78906 0
M  V30 6536 C 604.554 -0.714474 6.28552 0
M  V30 6537 C 603.218 -0.547961 6.65247 0
M  V30 6538 H 602.488 -0.435468 0.59954 0
M  V30 6539 H 605.135 -0.481538 1.85347 0
M  V30 6540 H 603.44 -3.00267 2.51688 0
M  V30 6541 H 605.137 -2.81211 2.85869 0
M  V30 6542 H 601.727 -1.81077 3.8847 0
M  V30 6543 H 605.911 -1.38197 4.76671 0
M  V30 6544 H 601.167 -0.811882 6.05986 0
M  V30 6545 H 605.341 -0.391059 6.95301 0
M  V30 6546 H 602.968 -0.100222 7.60134 0
M  V30 6547 N 604.543 -1.41418 -0.695603 0
M  V30 6548 C 605.473 -1.46035 -1.82197 0
M  V30 6549 C 606.454 -0.319025 -1.67082 0
M  V30 6550 O 607.639 -0.530462 -1.86815 0
M  V30 6551 C 604.769 -1.34179 -3.20333 0
M  V30 6552 C 603.723 -2.46123 -3.50154 0
M  V30 6553 C 603.049 -2.19332 -4.87645 0
M  V30 6554 C 604.349 -3.88463 -3.49133 0
M  V30 6555 H 606.043 -2.40303 -1.78591 0
M  V30 6556 H 603.589 -1.15663 -0.857797 0
M  V30 6557 H 605.542 -1.36021 -3.98844 0
M  V30 6558 H 604.266 -0.363952 -3.24566 0
M  V30 6559 H 602.925 -2.43563 -2.73994 0
M  V30 6560 H 602.573 -1.19891 -4.88503 0
M  V30 6561 H 602.273 -2.94344 -5.08562 0
M  V30 6562 H 603.797 -2.22889 -5.68465 0
M  V30 6563 H 605.211 -3.92738 -4.17648 0
M  V30 6564 H 603.608 -4.63158 -3.81582 0
M  V30 6565 H 604.678 -4.16617 -2.48109 0
M  V30 6566 N 606.021 0.929856 -1.27246 0
M  V30 6567 C 607.267 1.6798 -1.13625 0
M  V30 6568 C 607.6 1.91586 0.317589 0
M  V30 6569 O 606.875 1.50467 1.23247 0
M  V30 6570 C 607.158 3.04766 -1.91806 0
M  V30 6571 C 607.011 2.88415 -3.45162 0
M  V30 6572 C 608.33 4.05063 -1.72082 0
M  V30 6573 H 605.449 0.609632 -0.414147 0
M  V30 6574 H 608.091 1.0792 -1.56376 0
M  V30 6575 H 606.241 3.56034 -1.55474 0
M  V30 6576 H 607.913 2.44282 -3.91311 0
M  V30 6577 H 606.156 2.23802 -3.71611 0
M  V30 6578 H 606.827 3.85482 -3.95105 0
M  V30 6579 H 609.303 3.62798 -2.03757 0
M  V30 6580 H 608.179 4.98765 -2.29182 0
M  V30 6581 H 608.44 4.37021 -0.668206 0
M  V30 6582 N 607.499 1.09233 1.13605 0
M  V30 6583 C 608.447 0.724572 2.21027 0
M  V30 6584 C 609.441 -0.273595 1.67176 0
M  V30 6585 O 610.647 -0.135266 1.79491 0
M  V30 6586 H 607.022 0.216319 0.720215 0
M  V30 6587 H 608.993 1.63975 2.49309 0
M  V30 6588 C 607.742 0.159126 3.47336 0
M  V30 6589 H 607.065 0.918387 3.89109 0
M  V30 6590 H 608.505 -0.0602851 4.23957 0
M  V30 6591 C 606.964 -1.10514 3.18258 0
M  V30 6592 O 607.494 -2.18869 3.36837 0
M  V30 6593 N 605.7 -1.01886 2.72154 0
M  V30 6594 H 605.247 -0.137027 2.57235 0
M  V30 6595 H 605.205 -1.8655 2.53074 0
M  V30 6596 N 608.977 -1.30795 0.87923 0
M  V30 6597 C 609.91 -2.26396 0.286404 0
M  V30 6598 C 610.888 -1.51528 -0.589748 0
M  V30 6599 O 612.072 -1.80566 -0.541119 0
M  V30 6600 C 609.199 -3.33458 -0.593581 0
M  V30 6601 C 608.245 -4.2597 0.21247 0
M  V30 6602 S 609.078 -5.11132 1.59702 0
M  V30 6603 C 610.234 -6.21705 0.723408 0
M  V30 6604 H 610.467 -2.7633 1.09677 0
M  V30 6605 H 608 -1.38703 0.678305 0
M  V30 6606 H 609.958 -3.9561 -1.09557 0
M  V30 6607 H 608.619 -2.82259 -1.37799 0
M  V30 6608 H 607.812 -5.01907 -0.458822 0
M  V30 6609 H 607.414 -3.68363 0.646883 0
M  V30 6610 H 609.706 -6.77472 -0.0620739 0
M  V30 6611 H 610.649 -6.93007 1.4542 0
M  V30 6612 H 611.057 -5.63771 0.286855 0
M  V30 6613 N 610.455 -0.639598 -1.44038 0
M  V30 6614 C 611.695 -0.150902 -2.03842 0
M  V30 6615 C 612.059 1.20744 -1.49281 0
M  V30 6616 O 613.26 1.78875 -2.00642 0
M  V30 6617 C 611.531 -0.146114 -3.57101 0
M  V30 6618 S 613.09 0.276725 -4.37927 0
M  V30 6619 H 609.908 -0.0652447 -0.708 0
M  V30 6620 H 612.51 -0.844886 -1.76301 0
M  V30 6621 H 611.214 -1.13769 -3.94316 0
M  V30 6622 H 610.745 0.568846 -3.89266 0
M  V30 6623 H 612.76 1.51893 -4.7238 0
M  V30 6624 N 611.933 1.52934 -0.380664 0
M  V30 6625 C 613.179 2.01765 0.20458 0
M  V30 6626 C 613.512 1.26696 1.47179 0
M  V30 6627 O 612.787 0.364936 1.91046 0
M  V30 6628 C 613.07 3.56869 0.481269 0
M  V30 6629 C 612.923 4.42617 -0.800629 0
M  V30 6630 C 614.242 4.2121 1.27554 0
M  V30 6631 H 611.361 0.733388 0.0728803 0
M  V30 6632 H 614.003 1.83068 -0.50853 0
M  V30 6633 H 612.153 3.72932 1.08875 0
M  V30 6634 H 613.825 4.38323 -1.43773 0
M  V30 6635 H 612.068 4.09977 -1.4178 0
M  V30 6636 H 612.739 5.49134 -0.561791 0
M  V30 6637 H 615.215 4.09072 0.761514 0
M  V30 6638 H 614.091 5.29732 1.43788 0
M  V30 6639 H 614.352 3.78269 2.28833 0
M  V30 6640 N 613.412 0.11024 1.57214 0
M  V30 6641 C 614.375 -0.828808 2.1369 0
M  V30 6642 C 615.375 -1.20059 1.06969 0
M  V30 6643 O 616.565 -1.12754 1.32786 0
M  V30 6644 C 613.697 -2.11959 2.66994 0
M  V30 6645 H 614.89 -0.338146 2.97988 0
M  V30 6646 H 612.443 -0.138913 1.55681 0
M  V30 6647 H 613.178 -2.65476 1.8626 0
M  V30 6648 H 612.963 -1.86258 3.45037 0
M  V30 6649 H 614.453 -2.79105 3.10629 0
M  V30 6650 N 614.89 -1.56749 -0.16351 0
M  V30 6651 C 616.118 -1.86577 -0.894233 0
M  V30 6652 C 616.533 -0.696543 -1.75481 0
M  V30 6653 O 615.89 0.334161 -1.79415 0
M  V30 6654 C 615.941 -3.15508 -1.76456 0
M  V30 6655 O 615.662 -4.27926 -0.938685 0
M  V30 6656 C 617.163 -3.58737 -2.60428 0
M  V30 6657 H 614.383 -0.618829 -0.259405 0
M  V30 6658 H 616.927 -2.03863 -0.161259 0
M  V30 6659 H 615.082 -3.00025 -2.45079 0
M  V30 6660 H 615.496 -5.01546 -1.53465 0
M  V30 6661 H 616.97 -4.51832 -3.17099 0
M  V30 6662 H 617.447 -2.83229 -3.35675 0
M  V30 6663 H 618.053 -3.76858 -1.97125 0
M  V30 6664 N 616.368 0.432326 -1.51554 0
M  V30 6665 C 617.614 1.18309 -1.64714 0
M  V30 6666 C 617.947 1.90745 -0.364696 0
M  V30 6667 O 617.222 1.8381 0.635936 0
M  V30 6668 C 617.505 2.1961 -2.85383 0
M  V30 6669 C 617.358 1.51223 -4.23617 0
M  V30 6670 C 618.677 3.20538 -3.01569 0
M  V30 6671 H 615.796 0.428751 -0.599451 0
M  V30 6672 H 618.438 0.471689 -1.84052 0
M  V30 6673 H 616.588 2.8028 -2.69027 0
M  V30 6674 H 618.26 0.938516 -4.51652 0
M  V30 6675 H 616.503 0.814501 -4.26085 0
M  V30 6676 H 617.174 2.25024 -5.04052 0
M  V30 6677 H 619.65 2.69926 -3.16669 0
M  V30 6678 H 618.526 3.88706 -3.87555 0
M  V30 6679 H 618.787 3.86933 -2.13859 0
M  V30 6680 N 617.846 1.41785 0.688094 0
M  V30 6681 C 618.776 1.47 1.8142 0
M  V30 6682 C 619.757 0.327881 1.6691 0
M  V30 6683 O 620.942 0.540362 1.86531 0
M  V30 6684 C 618.072 1.35876 3.19617 0
M  V30 6685 C 617.026 2.47976 3.48844 0
M  V30 6686 C 616.352 2.21915 4.86475 0
M  V30 6687 C 617.652 3.90309 3.47068 0
M  V30 6688 H 619.346 2.41247 1.77314 0
M  V30 6689 H 616.892 1.16116 0.851651 0
M  V30 6690 H 618.845 1.38134 3.98117 0
M  V30 6691 H 617.569 0.38116 3.24368 0
M  V30 6692 H 616.228 2.45013 2.72698 0
M  V30 6693 H 615.876 1.2248 4.8786 0
M  V30 6694 H 615.576 2.97037 5.06994 0
M  V30 6695 H 617.1 2.25901 5.67275 0
M  V30 6696 H 618.514 3.94947 4.1556 0
M  V30 6697 H 616.911 4.65175 3.7912 0
M  V30 6698 H 617.981 4.17927 2.45896 0
M  V30 6699 N 619.324 -0.923095 1.27737 0
M  V30 6700 C 620.552 -1.70525 1.17171 0
M  V30 6701 C 620.967 -1.86847 -0.270881 0
M  V30 6702 O 620.324 -1.38879 -1.18401 0
M  V30 6703 C 620.375 -3.10242 1.85559 0
M  V30 6704 O 620.096 -2.94683 3.24182 0
M  V30 6705 C 621.597 -4.04586 1.81176 0
M  V30 6706 H 618.817 -0.533347 0.407163 0
M  V30 6707 H 621.361 -1.15599 1.68692 0
M  V30 6708 H 619.516 -3.62014 1.3793 0
M  V30 6709 H 619.93 -3.83045 3.58297 0
M  V30 6710 H 621.404 -5.00119 2.33633 0
M  V30 6711 H 621.881 -4.3218 0.782099 0
M  V30 6712 H 622.487 -3.58741 2.2844 0
M  V30 6713 N 620.802 -1.09834 -1.13024 0
M  V30 6714 C 621.765 -0.745058 -2.16752 0
M  V30 6715 C 622.765 0.227435 -1.59183 0
M  V30 6716 O 623.955 0.0050786 -1.74199 0
M  V30 6717 C 621.087 -0.102543 -3.40746 0
M  V30 6718 H 622.28 -1.66375 -2.49518 0
M  V30 6719 H 619.833 -0.898061 -1.27924 0
M  V30 6720 H 620.568 0.827177 -3.13573 0
M  V30 6721 H 620.353 -0.80235 -3.83803 0
M  V30 6722 H 621.843 0.129082 -4.174 0
M  V30 6723 N 622.28 1.30327 -0.886154 0
M  V30 6724 C 623.528 1.9571 -0.504195 0
M  V30 6725 C 623.849 1.70294 0.950003 0
M  V30 6726 O 623.119 1.02718 1.66811 0
M  V30 6727 H 621.699 0.72412 -0.183465 0
M  V30 6728 H 624.361 1.58835 -1.12949 0
M  V30 6729 H 623.457 3.04704 -0.675431 0
M  V30 6730 N 623.758 0.647228 1.43697 0
M  V30 6731 C 624.721 -0.0385101 2.29168 0
M  V30 6732 C 625.721 -0.756487 1.41894 0
M  V30 6733 O 626.911 -0.598641 1.63591 0
M  V30 6734 C 624.043 -1.06524 3.23829 0
M  V30 6735 H 625.236 0.713445 2.9129 0
M  V30 6736 H 622.789 0.408153 1.50877 0
M  V30 6737 H 623.524 -1.84664 2.66589 0
M  V30 6738 H 623.309 -0.554147 3.88164 0
M  V30 6739 H 624.799 -1.54432 3.87996 0
M  V30 6740 N 625.236 -1.5273 0.388769 0
M  V30 6741 C 626.466 -2.05693 -0.193397 0
M  V30 6742 C 626.874 -1.26038 -1.41107 0
M  V30 6743 O 626.217 -0.30001 -1.81234 0
M  V30 6744 C 626.279 -3.53962 -0.628561 0
M  V30 6745 C 625.943 -4.54519 0.475576 0
M  V30 6746 C 626.94 -5.02526 1.33281 0
M  V30 6747 C 624.625 -4.98174 0.642453 0
M  V30 6748 C 626.619 -5.92812 2.34205 0
M  V30 6749 C 624.306 -5.88262 1.65503 0
M  V30 6750 C 625.304 -6.35473 2.50325 0
M  V30 6751 O 624.992 -7.23781 3.49852 0
M  V30 6752 H 624.724 -0.675197 -0.0329395 0
M  V30 6753 H 627.278 -1.97835 0.552326 0
M  V30 6754 H 625.508 -3.59437 -1.42625 0
M  V30 6755 H 627.197 -3.89669 -1.13633 0
M  V30 6756 H 627.963 -4.6953 1.21519 0
M  V30 6757 H 623.842 -4.60999 -0.00805093 0
M  V30 6758 H 627.386 -6.29585 3.00447 0
M  V30 6759 H 623.283 -6.20672 1.77304 0
M  V30 6760 H 624.051 -7.4184 3.45855 0
M  V30 6761 N 626.714 -0.118576 -1.57153 0
M  V30 6762 C 627.644 0.828436 -2.1831 0
M  V30 6763 C 628.625 1.27758 -1.12303 0
M  V30 6764 O 629.81 1.34026 -1.40537 0
M  V30 6765 C 626.94 2.07876 -2.78217 0
M  V30 6766 C 625.894 1.76742 -3.89803 0
M  V30 6767 C 625.22 3.08801 -4.36516 0
M  V30 6768 C 626.52 1.03606 -5.11921 0
M  V30 6769 H 628.214 0.318824 -2.97698 0
M  V30 6770 H 625.76 0.151911 -1.43196 0
M  V30 6771 H 627.713 2.74584 -3.19659 0
M  V30 6772 H 626.437 2.61161 -1.96118 0
M  V30 6773 H 625.096 1.12424 -3.48936 0
M  V30 6774 H 624.744 3.6002 -3.51276 0
M  V30 6775 H 624.444 2.88743 -5.11763 0
M  V30 6776 H 625.968 3.76627 -4.80608 0
M  V30 6777 H 627.382 1.60467 -5.50385 0
M  V30 6778 H 625.779 0.936454 -5.92748 0
M  V30 6779 H 626.849 0.0227421 -4.84895 0
M  V30 6780 N 628.193 1.56834 0.155195 0
M  V30 6781 C 629.433 1.84701 0.875488 0
M  V30 6782 C 629.797 0.701747 1.78716 0
M  V30 6783 O 630.998 0.861263 2.54629 0
M  V30 6784 C 629.269 3.1773 1.63654 0
M  V30 6785 S 630.828 3.67128 2.40338 0
M  V30 6786 H 627.646 0.647856 0.292923 0
M  V30 6787 H 630.248 1.95026 0.136024 0
M  V30 6788 H 628.952 3.99059 0.958117 0
M  V30 6789 H 628.483 3.10388 2.41708 0
M  V30 6790 H 630.498 3.35739 3.65368 0
M  V30 6791 N 629.671 -0.424282 1.51781 0
M  V30 6792 C 630.901 -1.19297 1.68677 0
M  V30 6793 C 631.309 -1.85152 0.389258 0
M  V30 6794 O 630.652 -1.72067 -0.643311 0
M  V30 6795 C 630.714 -2.30929 2.75521 0
M  V30 6796 C 630.378 -1.85335 4.17732 0
M  V30 6797 C 631.375 -1.34951 5.0208 0
M  V30 6798 C 629.06 -1.92629 4.63896 0
M  V30 6799 C 631.054 -0.924636 6.30658 0
M  V30 6800 C 628.741 -1.49754 5.92467 0
M  V30 6801 C 629.739 -0.997543 6.75676 0
M  V30 6802 O 629.427 -0.57492 8.01842 0
M  V30 6803 H 629.159 -0.36512 0.568914 0
M  V30 6804 H 631.713 -0.507327 1.99036 0
M  V30 6805 H 629.943 -3.02811 2.40505 0
M  V30 6806 H 631.632 -2.92748 2.81165 0
M  V30 6807 H 632.398 -1.287 4.67612 0
M  V30 6808 H 628.277 -2.30491 3.99243 0
M  V30 6809 H 631.821 -0.533682 6.95556 0
M  V30 6810 H 627.718 -1.55679 6.26446 0
M  V30 6811 H 628.486 -0.699597 8.15505 0
M  V30 6812 N 631.149 -1.42148 -0.680565 0
M  V30 6813 C 632.565 -1.24947 -0.992995 0
M  V30 6814 C 632.765 -0.149527 -2.00944 0
M  V30 6815 O 631.821 0.481145 -2.47873 0
M  V30 6816 C 633.134 -2.60426 -1.5033 0
M  V30 6817 C 634.682 -2.67733 -1.62137 0
M  V30 6818 C 635.157 -4.03564 -2.16565 0
M  V30 6819 N 636.648 -4.05488 -2.23905 0
M  V30 6820 C 637.383 -5.07401 -2.67081 0
M  V30 6821 N 636.879 -6.19698 -3.09751 0
M  V30 6822 N 638.672 -4.94758 -2.66778 0
M  V30 6823 H 630.823 -2.12399 -0.0074788 0
M  V30 6824 H 633.086 -0.94571 -0.0658529 0
M  V30 6825 H 632.792 -3.41743 -0.830947 0
M  V30 6826 H 632.666 -2.83949 -2.483 0
M  V30 6827 H 635.053 -1.86765 -2.2848 0
M  V30 6828 H 635.134 -2.48004 -0.626713 0
M  V30 6829 H 634.778 -4.84987 -1.50833 0
M  V30 6830 H 634.708 -4.20641 -3.1681 0
M  V30 6831 H 637.199 -3.24415 -1.93812 0
M  V30 6832 H 637.512 -6.93318 -3.41365 0
M  V30 6833 H 635.857 -6.23212 -3.07623 0
M  V30 6834 H 639.048 -4.06105 -2.32801 0
M  V30 6835 H 639.221 -5.74317 -3.00107 0
M  V30 6836 N 632.627 0.916307 -1.28225 0
M  V30 6837 C 633.874 1.66518 -1.1523 0
M  V30 6838 C 634.202 1.92178 0.299632 0
M  V30 6839 O 633.457 1.51842 1.2346 0
M  V30 6840 C 633.756 3.03125 -1.8934 0
M  V30 6841 C 633.422 2.97135 -3.39148 0
M  V30 6842 C 632.084 2.95208 -3.80007 0
M  V30 6843 C 634.436 2.87574 -4.34685 0
M  V30 6844 C 631.764 2.81518 -5.14747 0
M  V30 6845 C 634.116 2.75424 -5.69495 0
M  V30 6846 C 632.78 2.71854 -6.09632 0
M  V30 6847 H 632.05 0.609334 -0.421655 0
M  V30 6848 H 634.697 1.06776 -1.58969 0
M  V30 6849 H 633.002 3.66639 -1.38143 0
M  V30 6850 H 634.699 3.59968 -1.76704 0
M  V30 6851 H 631.289 2.99428 -3.06661 0
M  V30 6852 H 635.473 2.88152 -4.04082 0
M  V30 6853 H 630.729 2.77148 -5.44976 0
M  V30 6854 H 634.903 2.66993 -6.43185 0
M  V30 6855 H 632.53 2.61003 -7.1399 0
M  V30 6856 N 634.105 1.10431 1.1244 0
M  V30 6857 C 635.035 0.775143 2.20258 0
M  V30 6858 C 636.016 -0.25186 1.68225 0
M  V30 6859 O 637.201 -0.117637 1.93843 0
M  V30 6860 C 634.331 0.206133 3.46688 0
M  V30 6861 C 633.285 1.16382 4.11873 0
M  V30 6862 C 632.611 0.456014 5.32752 0
M  V30 6863 C 633.911 2.5104 4.58013 0
M  V30 6864 H 635.605 1.67665 2.4805 0
M  V30 6865 H 633.151 0.807595 1.19222 0
M  V30 6866 H 635.104 -0.036291 4.21384 0
M  V30 6867 H 633.828 -0.730614 3.18323 0
M  V30 6868 H 632.487 1.39169 3.39157 0
M  V30 6869 H 632.135 -0.485203 5.00654 0
M  V30 6870 H 631.835 1.09466 5.77314 0
M  V30 6871 H 633.359 0.222135 6.10196 0
M  V30 6872 H 634.773 2.32401 5.24083 0
M  V30 6873 H 633.17 3.10789 5.13352 0
M  V30 6874 H 634.24 3.11039 3.71998 0
M  V30 6875 N 635.583 -1.29855 0.893053 0
M  V30 6876 C 636.83 -1.95826 0.515585 0
M  V30 6877 C 637.158 -1.70451 -0.936842 0
M  V30 6878 O 636.413 -1.00657 -1.67829 0
M  V30 6879 C 636.712 -3.49515 0.746588 0
M  V30 6880 C 636.378 -3.94955 2.17535 0
M  V30 6881 C 635.04 -4.07073 2.56603 0
M  V30 6882 C 637.392 -4.18536 3.10607 0
M  V30 6883 C 634.72 -4.40138 3.87938 0
M  V30 6884 C 637.072 -4.53073 4.41484 0
M  V30 6885 C 635.736 -4.634 4.80434 0
M  V30 6886 H 635.006 -0.71658 0.188666 0
M  V30 6887 H 637.653 -1.54574 1.13045 0
M  V30 6888 H 635.958 -3.9177 0.0487551 0
M  V30 6889 H 637.655 -3.98644 0.434009 0
M  V30 6890 H 634.245 -3.86035 1.86212 0
M  V30 6891 H 638.429 -4.08646 2.81641 0
M  V30 6892 H 633.685 -4.46335 4.17846 0
M  V30 6893 H 637.859 -4.70269 5.13634 0
M  V30 6894 H 635.486 -4.88775 5.82239 0
M  V30 6895 N 637.061 -0.65484 -1.43351 0
M  V30 6896 C 638.009 0.0476784 -2.32551 0
M  V30 6897 C 639.003 0.811403 -1.48703 0
M  V30 6898 O 640.209 0.721621 -1.64902 0
M  V30 6899 H 636.584 0.0342038 -0.751222 0
M  V30 6900 H 638.555 -0.722342 -2.89525 0
M  V30 6901 C 637.304 0.999251 -3.33032 0
M  V30 6902 H 636.627 0.421005 -3.97577 0
M  V30 6903 H 638.067 1.45986 -3.98076 0
M  V30 6904 C 636.526 2.09606 -2.63756 0
M  V30 6905 O 637.056 3.18004 -2.4543 0
M  V30 6906 N 635.262 1.86207 -2.23103 0
M  V30 6907 H 634.809 0.980555 -2.38208 0
M  V30 6908 H 634.767 2.59787 -1.77081 0
M  V30 6909 N 638.539 1.52521 -0.396863 0
M  V30 6910 C 639.764 2.06571 0.185258 0
M  V30 6911 C 640.189 1.26605 1.39115 0
M  V30 6912 O 639.547 0.293055 1.78916 0
M  V30 6913 C 639.595 3.5674 0.526189 0
M  V30 6914 O 638.699 3.7929 1.61903 0
M  V30 6915 H 638.04 0.663712 0.0195474 0
M  V30 6916 H 640.57 1.966 -0.566519 0
M  V30 6917 H 640.58 4.00311 0.788338 0
M  V30 6918 H 639.255 4.14379 -0.355397 0
M  V30 6919 H 637.832 3.47605 1.35 0
M  V30 6920 N 640.017 0.126909 1.57088 0
M  V30 6921 C 640.965 -0.837618 2.16995 0
M  V30 6922 C 641.959 -1.26974 1.12133 0
M  V30 6923 O 643.165 -1.24056 1.30423 0
M  V30 6924 H 639.54 -0.288256 0.694559 0
M  V30 6925 H 641.511 -0.307957 2.96807 0
M  V30 6926 C 640.26 -2.07474 2.79016 0
M  V30 6927 H 639.583 -1.75117 3.59408 0
M  V30 6928 H 641.023 -2.72949 3.24461 0
M  V30 6929 C 639.482 -2.86967 1.76498 0
M  V30 6930 O 640.012 -3.82625 1.22316 0
M  V30 6931 N 638.218 -2.51111 1.46258 0
M  V30 6932 H 637.765 -1.73389 1.90509 0
M  V30 6933 H 637.723 -3.04594 0.779085 0
M  V30 6934 N 641.495 -1.56914 -0.146875 0
M  V30 6935 C 642.723 -1.87515 -0.874394 0
M  V30 6936 C 643.138 -0.715116 -1.74733 0
M  V30 6937 O 642.495 0.315113 -1.79759 0
M  V30 6938 C 642.546 -3.17362 -1.731 0
M  V30 6939 O 642.267 -4.28897 -0.893245 0
M  V30 6940 C 643.768 -3.61479 -2.56609 0
M  V30 6941 H 640.988 -0.621546 -0.252827 0
M  V30 6942 H 643.532 -2.04023 -0.139627 0
M  V30 6943 H 641.687 -3.02608 -2.41883 0
M  V30 6944 H 642.101 -5.03146 -1.48137 0
M  V30 6945 H 643.575 -4.5517 -3.12289 0
M  V30 6946 H 644.052 -2.86773 -3.32653 0
M  V30 6947 H 644.658 -3.78927 -1.93117 0
M  V30 6948 O 643.012 0.29157 -1.58846 0
M  V30 6949 H 643.703 0.93804 -1.69471 0
M  V30 END ATOM
M  V30 BEGIN BOND
M  V30 END BOND
M  V30 END CTAB
M  END
$$$$
