drugbank_target|C0H4X5 Anamorsin homolog (DB11638)
 OpenBabel12092121123D

  0  0  0     0  0            999 V3000
M  V30 BEGIN CTAB
M  V30 COUNTS 4310 4345 0 0 0
M  V30 BEGIN ATOM
M  V30 1 H -0.908 1.98254 -0.117106 0
M  V30 2 N 0 1.576 0 0
M  V30 3 C 0.933 2.03868 1.02534 0
M  V30 4 C 1.911 0.928543 1.3348 0
M  V30 5 O 3.095 1.19667 1.45644 0
M  V30 6 C 0.222 2.43627 2.35294 0
M  V30 7 C -0.732 3.65373 2.2001 0
M  V30 8 S 0.101 5.13292 1.52614 0
M  V30 9 C 1.257 5.56322 2.86805 0
M  V30 10 H 1.49 2.90518 0.631377 0
M  V30 11 H -0.977 1.52953 0.210867 0
M  V30 12 H 0.981 2.67203 3.11629 0
M  V30 13 H -0.358 1.57376 2.7183 0
M  V30 14 H -1.165 3.90944 3.18086 0
M  V30 15 H -1.563 3.418 1.51819 0
M  V30 16 H 0.729 5.58782 3.83104 0
M  V30 17 H 1.672 6.56266 2.65933 0
M  V30 18 H 2.08 4.83886 2.90714 0
M  V30 19 N 1.4781 -0.272755 1.55222 0
M  V30 20 C 2.7271 -1.00211 1.75045 0
M  V30 21 C 3.0401 -1.87441 0.559046 0
M  V30 22 O 4.2461 -2.63856 0.639698 0
M  V30 23 C 2.7021 -1.83165 3.09804 0
M  V30 24 C 2.3101 -1.008 4.36513 0
M  V30 25 C 4.0541 -2.55529 3.38977 0
M  V30 26 C 1.9611 -1.83194 5.62311 0
M  V30 27 H 0.8911 -0.377878 0.652476 0
M  V30 28 H 3.5421 -0.257776 1.8168 0
M  V30 29 H 1.9241 -2.61694 2.97207 0
M  V30 30 H 3.0981 -0.266855 4.60027 0
M  V30 31 H 1.4131 -0.398897 4.14485 0
M  V30 32 H 4.0101 -3.17578 4.30172 0
M  V30 33 H 4.3531 -3.25825 2.59121 0
M  V30 34 H 4.8861 -1.84029 3.52673 0
M  V30 35 H 1.6251 -1.17318 6.44916 0
M  V30 36 H 1.1451 -2.54905 5.4294 0
M  V30 37 H 2.8241 -2.40552 6.00619 0
M  V30 38 N 2.9562 -1.48159 -0.537278 0
M  V30 39 C 4.2052 -1.5506 -1.28993 0
M  V30 40 C 4.5182 -0.226211 -1.94288 0
M  V30 41 O 5.7242 -0.173395 -2.70946 0
M  V30 42 C 4.1802 -2.73429 -2.34018 0
M  V30 43 C 3.7882 -4.1248 -1.74825 0
M  V30 44 C 5.5322 -2.89638 -3.10339 0
M  V30 45 C 3.4392 -5.22121 -2.77747 0
M  V30 46 H 2.3692 -0.577231 -0.485098 0
M  V30 47 H 5.0202 -1.74478 -0.568317 0
M  V30 48 H 3.4022 -2.47431 -3.09182 0
M  V30 49 H 4.5762 -4.48466 -1.05899 0
M  V30 50 H 2.8912 -4.01327 -1.11022 0
M  V30 51 H 5.4882 -3.68718 -3.87235 0
M  V30 52 H 5.8312 -1.9882 -3.65754 0
M  V30 53 H 6.3642 -3.15502 -2.42288 0
M  V30 54 H 3.1032 -6.1488 -2.27161 0
M  V30 55 H 2.6232 -4.90631 -3.45024 0
M  V30 56 H 4.3022 -5.49924 -3.4087 0
M  V30 57 N 4.4343 0.785586 -1.36625 0
M  V30 58 C 5.3823 1.91978 -1.31329 0
M  V30 59 C 6.3763 1.68162 -0.204416 0
M  V30 60 O 7.5823 1.76122 -0.371645 0
M  V30 61 H 3.9573 0.631087 -0.408942 0
M  V30 62 H 5.9283 1.93562 -2.27104 0
M  V30 63 C 4.6773 3.29055 -1.12329 0
M  V30 64 H 4.0003 3.4795 -1.96903 0
M  V30 65 H 5.4403 4.08756 -1.12671 0
M  V30 66 C 3.8993 3.36461 0.171861 0
M  V30 67 O 4.4293 3.84576 1.16035 0
M  V30 68 N 2.6353 2.89782 0.217846 0
M  V30 69 H 2.1823 2.50819 -0.587183 0
M  V30 70 H 2.1403 2.95119 1.08408 0
M  V30 71 N 5.9124 1.20967 1.01018 0
M  V30 72 C 7.1594 1.02374 1.74716 0
M  V30 73 C 7.4874 -0.443375 1.89379 0
M  V30 74 O 6.7424 -1.34535 1.42123 0
M  V30 75 C 7.0414 1.65997 3.16512 0
M  V30 76 C 6.7074 3.15831 3.2181 0
M  V30 77 C 5.3694 3.56719 3.22963 0
M  V30 78 C 7.7214 4.11816 3.19464 0
M  V30 79 C 5.0494 4.92107 3.19449 0
M  V30 80 C 7.4014 5.47158 3.17491 0
M  V30 81 C 6.0654 5.87451 3.16951 0
M  V30 82 H 5.3354 0.374614 0.639332 0
M  V30 83 H 7.9824 1.50485 1.18434 0
M  V30 84 H 6.2874 1.10166 3.75993 0
M  V30 85 H 7.9844 1.49119 3.72242 0
M  V30 86 H 4.5744 2.83263 3.21652 0
M  V30 87 H 8.7584 3.81257 3.17737 0
M  V30 88 H 4.0144 5.22579 3.17366 0
M  V30 89 H 8.1884 6.21274 3.14629 0
M  V30 90 H 5.8154 6.92329 3.13983 0
M  V30 91 N 7.3905 -1.2043 1.01659 0
M  V30 92 C 8.6365 -1.90079 0.706963 0
M  V30 93 C 8.9695 -1.78648 -0.761474 0
M  V30 94 O 8.2445 -1.17069 -1.55323 0
M  V30 95 C 8.5275 -3.41469 1.14327 0
M  V30 96 C 8.3805 -3.61833 2.67201 0
M  V30 97 C 9.6995 -4.34261 0.714529 0
M  V30 98 H 6.8185 -0.690254 0.2583 0
M  V30 99 H 9.4605 -1.41826 1.26433 0
M  V30 100 H 7.6105 -3.82696 0.669056 0
M  V30 101 H 9.2825 -3.2986 3.22475 0
M  V30 102 H 7.5255 -3.05304 3.08175 0
M  V30 103 H 8.1965 -4.67955 2.92783 0
M  V30 104 H 10.6725 -4.00682 1.12221 0
M  V30 105 H 9.5485 -5.38806 1.04784 0
M  V30 106 H 9.8095 -4.40431 -0.383799 0
M  V30 107 N 8.8686 -0.792821 -1.36206 0
M  V30 108 C 10.1166 -0.366062 -1.98757 0
M  V30 109 C 10.4376 1.0668 -1.63231 0
M  V30 110 O 9.7076 1.73587 -0.907978 0
M  V30 111 H 8.2876 -0.132364 -0.735179 0
M  V30 112 H 10.9496 -1.01562 -1.66347 0
M  V30 113 H 10.0456 -0.460638 -3.08682 0
M  V30 114 N 10.3467 1.47872 -0.545128 0
M  V30 115 C 11.2947 2.31533 0.222512 0
M  V30 116 C 12.2887 1.42177 0.920985 0
M  V30 117 O 13.4947 1.59005 0.843645 0
M  V30 118 H 9.8697 0.746519 0.0906278 0
M  V30 119 H 11.8407 2.94139 -0.50246 0
M  V30 120 C 10.5897 3.2457 1.24699 0
M  V30 121 H 9.9127 3.93283 0.718944 0
M  V30 122 H 11.3527 3.85963 1.75523 0
M  V30 123 C 9.8117 2.47237 2.28856 0
M  V30 124 O 10.3417 2.20808 3.35569 0
M  V30 125 N 8.5477 2.08461 2.02466 0
M  V30 126 H 8.0947 2.30155 1.157 0
M  V30 127 H 8.0527 1.57033 2.72375 0
M  V30 128 N 11.8248 0.280983 1.55075 0
M  V30 129 C 13.0528 -0.337293 2.04132 0
M  V30 130 C 13.4678 -1.4903 1.15912 0
M  V30 131 O 12.8248 -1.81606 0.180459 0
M  V30 132 C 12.8758 -0.812706 3.52246 0
M  V30 133 O 12.5968 0.294387 4.3711 0
M  V30 134 C 14.0978 -1.4982 4.17216 0
M  V30 135 H 11.3178 -0.0761638 0.666663 0
M  V30 136 H 13.8618 0.414787 2.00249 0
M  V30 137 H 12.0168 -1.51486 3.56554 0
M  V30 138 H 12.4308 -0.0721325 5.2445 0
M  V30 139 H 13.9048 -1.7822 5.22438 0
M  V30 140 H 14.3818 -2.43168 3.65741 0
M  V30 141 H 14.9878 -0.839742 4.16927 0
M  V30 142 N 13.3029 -1.57598 0.00835791 0
M  V30 143 C 14.2329 -2.1198 -0.979113 0
M  V30 144 C 15.2139 -1.03091 -1.35301 0
M  V30 145 O 16.3989 -1.30818 -1.43528 0
M  V30 146 C 13.5289 -2.62995 -2.26828 0
M  V30 147 C 12.4829 -3.76485 -2.03576 0
M  V30 148 C 11.8089 -4.13846 -3.38579 0
M  V30 149 C 13.1089 -5.0342 -1.39161 0
M  V30 150 H 14.8029 -2.94738 -0.526281 0
M  V30 151 H 12.3489 -1.41783 -0.251704 0
M  V30 152 H 14.3019 -2.99669 -2.96271 0
M  V30 153 H 13.0259 -1.7737 -2.7424 0
M  V30 154 H 11.6849 -3.40217 -1.36557 0
M  V30 155 H 11.3329 -3.25232 -3.83709 0
M  V30 156 H 11.0329 -4.90312 -3.23834 0
M  V30 157 H 12.5569 -4.53086 -4.09323 0
M  V30 158 H 13.9709 -5.37812 -1.98573 0
M  V30 159 H 12.3679 -5.84746 -1.34878 0
M  V30 160 H 13.4379 -4.83548 -0.361868 0
M  V30 161 N 14.781 0.264519 -1.55364 0
M  V30 162 C 16.03 0.992812 -1.75574 0
M  V30 163 C 16.343 1.87142 -0.568979 0
M  V30 164 O 17.549 2.63513 -0.653682 0
M  V30 165 C 16.005 1.81519 -3.10771 0
M  V30 166 C 15.613 0.984839 -4.37041 0
M  V30 167 C 17.357 2.53727 -3.40327 0
M  V30 168 C 15.264 1.80209 -5.63275 0
M  V30 169 H 14.194 0.374412 -0.65447 0
M  V30 170 H 16.845 0.248138 -1.81815 0
M  V30 171 H 15.227 2.60115 -2.98591 0
M  V30 172 H 16.401 0.242455 -4.60162 0
M  V30 173 H 14.716 0.37691 -4.14691 0
M  V30 174 H 17.313 3.15292 -4.3185 0
M  V30 175 H 17.656 3.24447 -2.60845 0
M  V30 176 H 18.189 1.82156 -3.53644 0
M  V30 177 H 14.928 1.13896 -6.45529 0
M  V30 178 H 14.448 2.52022 -5.44284 0
M  V30 179 H 16.127 2.37364 -6.01887 0
M  V30 180 N 16.2591 1.48442 0.529413 0
M  V30 181 C 17.5081 1.55742 1.28169 0
M  V30 182 C 17.8211 0.236511 1.94165 0
M  V30 183 O 19.0271 0.187761 2.7085 0
M  V30 184 C 17.4831 2.74667 2.32564 0
M  V30 185 C 17.0911 4.13402 1.72636 0
M  V30 186 C 18.8351 2.9128 3.08798 0
M  V30 187 C 16.7421 5.23587 2.74975 0
M  V30 188 H 15.6721 0.579796 0.48203 0
M  V30 189 H 18.3231 1.74776 0.559056 0
M  V30 190 H 16.7051 2.49067 3.07866 0
M  V30 191 H 17.8791 4.49022 1.03519 0
M  V30 192 H 16.1941 4.0191 1.08892 0
M  V30 193 H 18.7911 3.70767 3.85274 0
M  V30 194 H 19.1341 2.00757 3.64695 0
M  V30 195 H 19.6671 3.16782 2.40611 0
M  V30 196 H 16.4061 6.16076 2.23897 0
M  V30 197 H 15.9261 4.92454 3.42417 0
M  V30 198 H 17.6051 5.51724 3.37949 0
M  V30 199 N 17.7372 -0.778329 1.37039 0
M  V30 200 C 18.9842 -1.53665 1.31884 0
M  V30 201 C 19.3122 -1.9425 -0.0986303 0
M  V30 202 O 18.5672 -1.63832 -1.07041 0
M  V30 203 C 18.8662 -2.81845 2.19768 0
M  V30 204 C 18.5322 -2.60345 3.68146 0
M  V30 205 C 17.1942 -2.5419 4.08584 0
M  V30 206 C 19.5462 -2.40923 4.62175 0
M  V30 207 C 16.8742 -2.26594 5.41177 0
M  V30 208 C 19.2262 -2.14852 5.94997 0
M  V30 209 C 17.8902 -2.07137 6.34547 0
M  V30 210 H 17.1602 -0.562299 0.482598 0
M  V30 211 H 19.8072 -0.897069 1.69189 0
M  V30 212 H 18.1122 -3.50328 1.75436 0
M  V30 213 H 19.8092 -3.39692 2.13097 0
M  V30 214 H 16.3992 -2.65996 3.36072 0
M  V30 215 H 20.5832 -2.44673 4.31797 0
M  V30 216 H 15.8392 -2.19111 5.70789 0
M  V30 217 H 20.0132 -1.98822 6.67415 0
M  V30 218 H 17.6402 -1.85518 7.37216 0
M  V30 219 N 19.2153 -1.21501 -1.00376 0
M  V30 220 C 20.1633 -0.972442 -2.11297 0
M  V30 221 C 21.1573 0.080731 -1.69208 0
M  V30 222 O 22.3633 -0.0707666 -1.79861 0
M  V30 223 H 18.7383 -0.297218 -0.690772 0
M  V30 224 H 20.7093 -1.91394 -2.28934 0
M  V30 225 C 19.4583 -0.555065 -3.43241 0
M  V30 226 H 18.7813 -1.35709 -3.76062 0
M  V30 227 H 20.2213 -0.424664 -4.21868 0
M  V30 228 C 18.6803 0.734147 -3.28804 0
M  V30 229 O 19.2103 1.78937 -3.59645 0
M  V30 230 N 17.4163 0.701133 -2.82015 0
M  V30 231 H 16.9633 -0.157874 -2.57116 0
M  V30 232 H 16.9213 1.56403 -2.72737 0
M  V30 233 N 20.6934 1.19889 -1.02296 0
M  V30 234 C 21.6034 2.26571 -0.608508 0
M  V30 235 C 22.6194 1.70299 0.356964 0
M  V30 236 O 23.7954 2.00235 0.216326 0
M  V30 237 C 20.8604 3.46677 0.0402814 0
M  V30 238 C 19.9214 4.18153 -0.97194 0
M  V30 239 C 19.1544 5.32525 -0.354016 0
M  V30 240 O 19.3774 5.64112 0.844604 0
M  V30 241 O 18.3114 5.92242 -1.07391 0
M  V30 242 H 22.1374 2.64251 -1.49684 0
M  V30 243 H 19.7224 1.26629 -0.792809 0
M  V30 244 H 21.6044 4.19475 0.402324 0
M  V30 245 H 20.2794 3.10858 0.902707 0
M  V30 246 H 19.1864 3.47499 -1.38546 0
M  V30 247 H 20.5194 4.57927 -1.80454 0
M  V30 248 N 22.1715 0.800033 1.35784 0
M  V30 249 C 23.4485 0.30088 1.93272 0
M  V30 250 C 23.8285 -1.20857 1.73081 0
M  V30 251 O 23.1765 -2.00502 1.09596 0
M  V30 252 C 23.3865 0.70511 3.41803 0
M  V30 253 C 24.7345 0.690871 4.18942 0
M  V30 254 O 25.7585 0.646244 3.50289 0
M  V30 255 O 24.6175 0.74332 5.41421 0
M  V30 256 H 21.7115 0.0771605 0.823393 0
M  V30 257 H 24.2575 0.88329 1.449 0
M  V30 258 H 23.0295 1.74571 3.50201 0
M  V30 259 H 22.6525 0.0971541 3.97481 0
M  V30 260 N 23.6496 -1.47581 0.552962 0
M  V30 261 C 24.8986 -2.01684 0.0251995 0
M  V30 262 C 25.2116 -1.43317 -1.33115 0
M  V30 263 O 26.4176 -1.89057 -1.94858 0
M  V30 264 C 24.8736 -3.599 -0.00542052 0
M  V30 265 C 24.4816 -4.27257 1.34742 0
M  V30 266 C 26.2256 -4.21768 -0.4808 0
M  V30 267 C 24.1326 -5.77467 1.27614 0
M  V30 268 H 23.0626 -0.753979 0.00565033 0
M  V30 269 H 25.7136 -1.69616 0.70018 0
M  V30 270 H 24.0956 -3.88911 -0.745961 0
M  V30 271 H 25.2696 -4.09893 2.10534 0
M  V30 272 H 23.5846 -3.77358 1.76039 0
M  V30 273 H 26.1816 -5.31838 -0.55246 0
M  V30 274 H 26.5246 -3.88651 -1.49184 0
M  V30 275 H 27.0576 -3.97273 0.204752 0
M  V30 276 H 23.7966 -6.15196 2.26304 0
M  V30 277 H 23.3166 -5.9718 0.55996 0
M  V30 278 H 24.9956 -6.3959 0.976421 0
M  V30 279 N 25.1277 -0.289203 -1.54924 0
M  V30 280 C 26.5387 0.205791 -1.85562 0
M  V30 281 C 26.8897 1.54351 -1.2112 0
M  V30 282 O 26.0147 2.10435 -0.504601 0
M  V30 283 C 26.6097 0.380177 -3.3666 0
M  V30 284 C 25.1687 0.819395 -3.67373 0
M  V30 285 C 24.3157 -0.079159 -2.77187 0
M  V30 286 H 27.2667 -0.510577 -1.50262 0
M  V30 287 H 27.2877 1.21659 -3.60526 0
M  V30 288 H 26.7997 -0.593589 -3.83534 0
M  V30 289 H 24.9007 1.80413 -3.26009 0
M  V30 290 H 25.0137 0.646957 -4.74712 0
M  V30 291 H 23.3777 0.439565 -2.50878 0
M  V30 292 H 24.1607 -1.04906 -3.26878 0
M  V30 293 N 26.6058 1.57591 -0.0167156 0
M  V30 294 C 27.8458 1.93145 0.668902 0
M  V30 295 C 28.2098 0.892406 1.7 0
M  V30 296 O 29.4108 1.13373 2.43721 0
M  V30 297 C 27.6818 3.33678 1.28039 0
M  V30 298 S 29.2408 3.91142 1.9888 0
M  V30 299 H 26.0588 0.67593 0.220545 0
M  V30 300 H 28.6608 1.95347 -0.0774105 0
M  V30 301 H 27.3648 4.07126 0.517339 0
M  V30 302 H 26.8958 3.3489 2.06427 0
M  V30 303 H 28.9108 3.73571 3.26587 0
M  V30 304 N 28.0839 -0.256276 1.55502 0
M  V30 305 C 29.3609 -1.00789 1.67633 0
M  V30 306 C 29.7409 -2.03706 0.553826 0
M  V30 307 O 29.0889 -2.24145 -0.443969 0
M  V30 308 C 29.2989 -1.64968 3.07549 0
M  V30 309 C 30.6469 -2.15505 3.65845 0
M  V30 310 O 31.6709 -1.74925 3.1029 0
M  V30 311 O 30.5299 -2.89986 4.63217 0
M  V30 312 H 27.6239 -0.468553 0.681459 0
M  V30 313 H 30.1699 -0.250806 1.67836 0
M  V30 314 H 28.9419 -0.904785 3.80696 0
M  V30 315 H 28.5649 -2.47321 3.11317 0
M  V30 316 N 29.562 -1.4872 -0.521534 0
M  V30 317 C 30.492 -1.66771 -1.63431 0
M  V30 318 C 31.473 -0.516499 -1.62069 0
M  V30 319 O 32.658 -0.750013 -1.79132 0
M  V30 320 C 29.788 -1.71515 -3.01993 0
M  V30 321 C 28.742 -2.86222 -3.18216 0
M  V30 322 C 28.068 -2.76061 -4.57924 0
M  V30 323 C 29.368 -4.27419 -3.00184 0
M  V30 324 H 31.062 -2.59932 -1.48579 0
M  V30 325 H 28.608 -1.25089 -0.713358 0
M  V30 326 H 30.561 -1.82731 -3.7972 0
M  V30 327 H 29.285 -0.749393 -3.17886 0
M  V30 328 H 27.944 -2.74575 -2.42908 0
M  V30 329 H 27.592 -1.77437 -4.70665 0
M  V30 330 H 27.292 -3.53037 -4.69722 0
M  V30 331 H 28.816 -2.89256 -5.37739 0
M  V30 332 H 30.23 -4.39855 -3.67697 0
M  V30 333 H 28.627 -5.05458 -3.2347 0
M  V30 334 H 29.697 -4.43293 -1.96518 0
M  V30 335 N 31.0401 0.771051 -1.3745 0
M  V30 336 C 31.9701 1.89827 -1.3597 0
M  V30 337 C 32.9511 1.68562 -0.228216 0
M  V30 338 O 34.1361 1.8941 -0.428675 0
M  V30 339 C 31.2661 3.2712 -1.16662 0
M  V30 340 C 30.2201 3.6295 -2.2683 0
M  V30 341 C 29.5461 4.98791 -1.92644 0
M  V30 342 C 30.8461 3.69627 -3.69017 0
M  V30 343 H 32.5401 1.91323 -2.30295 0
M  V30 344 H 30.0861 0.919082 -1.10855 0
M  V30 345 H 32.0391 4.05615 -1.14256 0
M  V30 346 H 30.7631 3.26059 -0.187926 0
M  V30 347 H 29.4221 2.86763 -2.28392 0
M  V30 348 H 29.0701 4.94271 -0.933021 0
M  V30 349 H 28.7701 5.23733 -2.66416 0
M  V30 350 H 30.2941 5.79685 -1.91826 0
M  V30 351 H 31.7081 4.38273 -3.69581 0
M  V30 352 H 30.1051 4.06067 -4.41848 0
M  V30 353 H 31.1751 2.70273 -4.02592 0
M  V30 354 N 32.5182 1.22032 0.997298 0
M  V30 355 C 33.9342 0.979326 1.26021 0
M  V30 356 C 34.1342 -0.32972 1.98784 0
M  V30 357 O 33.1902 -1.05345 2.29475 0
M  V30 358 C 34.5032 2.17509 2.07631 0
M  V30 359 C 36.0512 2.21817 2.2083 0
M  V30 360 C 36.5262 3.40933 3.05825 0
M  V30 361 N 38.0172 3.41067 3.13412 0
M  V30 362 C 38.7522 4.29885 3.79455 0
M  V30 363 N 38.2482 5.28914 4.47462 0
M  V30 364 N 40.0412 4.17673 3.76173 0
M  V30 365 H 32.1922 2.06202 0.509352 0
M  V30 366 H 34.4552 0.90334 0.287541 0
M  V30 367 H 34.1612 3.12415 1.61524 0
M  V30 368 H 34.0352 2.17206 3.08385 0
M  V30 369 H 36.4222 1.27462 2.66153 0
M  V30 370 H 36.5032 2.2616 1.1952 0
M  V30 371 H 36.1472 4.35586 2.61203 0
M  V30 372 H 36.0772 3.33829 4.07266 0
M  V30 373 H 38.5682 2.69406 2.65007 0
M  V30 374 H 38.8812 5.92973 4.95583 0
M  V30 375 H 37.2262 5.32831 4.46224 0
M  V30 376 H 40.4172 3.39564 3.22202 0
M  V30 377 H 40.5902 4.87098 4.27363 0
M  V30 378 N 33.9963 -1.19345 1.0293 0
M  V30 379 C 34.9433 -2.2258 0.610464 0
M  V30 380 C 35.9133 -1.6179 -0.375946 0
M  V30 381 O 37.0983 -1.88844 -0.272511 0
M  V30 382 C 34.2383 -3.45085 -0.0321473 0
M  V30 383 C 33.3513 -4.20258 1.00035 0
M  V30 384 C 32.4863 -5.3019 0.32746 0
M  V30 385 C 31.5253 -5.97121 1.34584 0
M  V30 386 N 30.6623 -6.98615 0.698726 0
M  V30 387 H 35.5023 -2.57764 1.49538 0
M  V30 388 H 33.0393 -1.26644 0.748311 0
M  V30 389 H 34.9973 -4.15061 -0.421966 0
M  V30 390 H 33.6273 -3.10555 -0.88064 0
M  V30 391 H 32.6793 -3.49223 1.50823 0
M  V30 392 H 33.9913 -4.66175 1.77433 0
M  V30 393 H 33.1453 -6.06587 -0.11718 0
M  V30 394 H 31.8843 -4.85345 -0.478713 0
M  V30 395 H 30.8893 -5.19474 1.80074 0
M  V30 396 H 32.1143 -6.4405 2.15352 0
M  V30 397 H 30.0603 -6.55942 -0.0873471 0
M  V30 398 H 29.9773 -7.42724 1.41058 0
M  V30 399 H 31.2453 -7.79004 0.278102 0
M  V30 400 N 35.4744 -0.807222 -1.35358 0
M  V30 401 C 36.4214 -0.216037 -2.29787 0
M  V30 402 C 37.3914 0.650278 -1.52842 0
M  V30 403 O 38.5764 0.595227 -1.81278 0
M  V30 404 C 35.7164 0.628893 -3.39321 0
M  V30 405 C 34.8294 -0.257927 -4.31229 0
M  V30 406 C 33.9644 0.595069 -5.27856 0
M  V30 407 C 33.0034 -0.292111 -6.11403 0
M  V30 408 N 32.1404 0.520895 -7.00165 0
M  V30 409 H 36.9804 -1.02671 -2.79755 0
M  V30 410 H 34.5174 -0.517839 -1.37684 0
M  V30 411 H 36.4754 1.13393 -4.01494 0
M  V30 412 H 35.1054 1.40482 -2.90628 0
M  V30 413 H 34.1574 -0.881076 -3.70056 0
M  V30 414 H 35.4694 -0.940759 -4.89848 0
M  V30 415 H 34.6234 1.16522 -5.95405 0
M  V30 416 H 33.3624 1.31146 -4.69736 0
M  V30 417 H 32.3674 -0.874525 -5.428 0
M  V30 418 H 33.5924 -1.00638 -6.71602 0
M  V30 419 H 31.5384 1.22125 -6.44532 0
M  V30 420 H 31.4554 -0.103877 -7.55929 0
M  V30 421 H 32.7234 1.0743 -7.72062 0
M  V30 422 N 36.9525 1.47285 -0.560781 0
M  V30 423 C 38.1825 2.06555 -0.0429638 0
M  V30 424 C 38.5905 1.41339 1.25777 0
M  V30 425 O 37.9335 0.505182 1.76617 0
M  V30 426 C 37.9955 3.58827 0.219887 0
M  V30 427 C 37.6595 4.46105 -0.991944 0
M  V30 428 C 38.6565 4.84 -1.89843 0
M  V30 429 C 36.3415 4.87567 -1.20762 0
M  V30 430 C 38.3355 5.6216 -3.00425 0
M  V30 431 C 36.0225 5.65491 -2.31653 0
M  V30 432 C 37.0205 6.02699 -3.21315 0
M  V30 433 O 36.7085 6.79052 -4.30283 0
M  V30 434 H 36.4405 0.674537 -0.0444468 0
M  V30 435 H 38.9945 1.90225 -0.774818 0
M  V30 436 H 37.2245 3.73383 1.00609 0
M  V30 437 H 38.9135 4.00103 0.683522 0
M  V30 438 H 39.6795 4.52564 -1.74387 0
M  V30 439 H 35.5585 4.5807 -0.518893 0
M  V30 440 H 39.1025 5.9112 -3.70436 0
M  V30 441 H 34.9995 5.9634 -2.47081 0
M  V30 442 H 35.7675 6.9745 -4.28376 0
M  V30 443 N 38.4306 0.297415 1.54768 0
M  V30 444 C 39.3776 -0.580276 2.23386 0
M  V30 445 C 40.3476 -1.13238 1.21517 0
M  V30 446 O 41.5326 -1.17757 1.50126 0
M  V30 447 C 38.6726 -1.74801 2.97555 0
M  V30 448 C 37.7856 -1.22764 4.1419 0
M  V30 449 C 36.9206 -2.35895 4.75949 0
M  V30 450 C 35.9596 -1.80974 5.84735 0
M  V30 451 N 35.0966 -2.87664 6.40464 0
M  V30 452 H 39.9366 0.0114833 2.97998 0
M  V30 453 H 37.4736 0.0174361 1.4709 0
M  V30 454 H 39.4316 -2.43475 3.38786 0
M  V30 455 H 38.0616 -2.31145 2.25326 0
M  V30 456 H 37.1136 -0.433271 3.77924 0
M  V30 457 H 38.4256 -0.785551 4.92575 0
M  V30 458 H 37.5796 -3.12523 5.20014 0
M  V30 459 H 36.3186 -2.83429 3.96887 0
M  V30 460 H 35.3236 -1.02834 5.40097 0
M  V30 461 H 36.5486 -1.34348 6.65678 0
M  V30 462 H 34.4946 -3.34538 5.64287 0
M  V30 463 H 34.4116 -2.4794 7.14186 0
M  V30 464 H 35.6796 -3.642 6.89187 0
M  V30 465 N 39.9087 -1.5758 0.0250728 0
M  V30 466 C 40.8187 -2.1343 -0.973905 0
M  V30 467 C 41.8347 -1.08556 -1.35984 0
M  V30 468 O 43.0107 -1.40592 -1.44207 0
M  V30 469 C 40.0757 -2.64703 -2.23904 0
M  V30 470 C 39.1367 -3.84276 -1.91391 0
M  V30 471 C 38.3697 -4.33095 -3.11873 0
M  V30 472 O 38.5927 -3.81107 -4.24398 0
M  V30 473 O 37.5267 -5.24984 -2.94406 0
M  V30 474 H 41.3527 -2.99057 -0.529036 0
M  V30 475 H 38.9377 -1.48118 -0.195288 0
M  V30 476 H 40.8197 -2.97769 -2.98181 0
M  V30 477 H 39.4947 -1.82161 -2.6758 0
M  V30 478 H 38.4017 -3.56143 -1.14511 0
M  V30 479 H 39.7347 -4.67968 -1.52534 0
M  V30 480 N 41.3868 0.248026 -1.55636 0
M  V30 481 C 42.3168 1.31079 -1.93237 0
M  V30 482 C 43.2978 1.50264 -0.797174 0
M  V30 483 O 44.4828 1.62891 -1.05737 0
M  V30 484 C 41.6128 2.66575 -2.22609 0
M  V30 485 C 40.5668 2.62087 -3.3837 0
M  V30 486 C 39.8928 4.01369 -3.53281 0
M  V30 487 C 41.1928 2.19171 -4.7409 0
M  V30 488 H 42.8868 0.998556 -2.82257 0
M  V30 489 H 40.4328 0.47891 -1.35803 0
M  V30 490 H 42.3858 3.41057 -2.47503 0
M  V30 491 H 41.1098 2.99432 -1.30414 0
M  V30 492 H 39.7688 1.90063 -3.13483 0
M  V30 493 H 39.4168 4.31489 -2.58508 0
M  V30 494 H 39.1168 3.99254 -4.31127 0
M  V30 495 H 40.6408 4.77552 -3.80495 0
M  V30 496 H 42.0548 2.83384 -4.98363 0
M  V30 497 H 40.4518 2.2817 -5.5503 0
M  V30 498 H 41.5218 1.14336 -4.71227 0
M  V30 499 N 42.8649 1.48995 0.513639 0
M  V30 500 C 44.1119 1.57843 1.26854 0
M  V30 501 C 44.4399 0.259501 1.92761 0
M  V30 502 O 43.6949 -0.75159 1.80692 0
M  V30 503 C 43.9939 2.67756 2.36731 0
M  V30 504 C 43.6599 4.09669 1.88368 0
M  V30 505 C 42.3219 4.48291 1.74896 0
M  V30 506 C 44.6739 4.98537 1.52021 0
M  V30 507 C 42.0019 5.73568 1.23438 0
M  V30 508 C 44.3539 6.24319 1.0202 0
M  V30 509 C 43.0179 6.61783 0.871778 0
M  V30 510 H 42.2879 0.577587 0.464192 0
M  V30 511 H 44.9349 1.82778 0.571366 0
M  V30 512 H 43.2399 2.36743 3.12185 0
M  V30 513 H 44.9369 2.71813 2.9482 0
M  V30 514 H 41.5269 3.79176 1.99808 0
M  V30 515 H 45.7109 4.69363 1.61281 0
M  V30 516 H 40.9669 6.01304 1.10648 0
M  V30 517 H 45.1409 6.92566 0.729722 0
M  V30 518 H 42.7679 7.5874 0.470852 0
M  V30 519 N 44.343 -0.763751 1.37857 0
M  V30 520 C 45.589 -1.52483 1.33704 0
M  V30 521 C 45.922 -1.94051 -0.0759612 0
M  V30 522 O 45.197 -1.64675 -1.03501 0
M  V30 523 C 45.48 -2.78441 2.28348 0
M  V30 524 C 45.333 -2.43075 3.78463 0
M  V30 525 C 46.652 -3.80415 2.21298 0
M  V30 526 H 43.771 -0.553169 0.487005 0
M  V30 527 H 46.413 -0.875562 1.68624 0
M  V30 528 H 44.563 -3.33842 1.987 0
M  V30 529 H 46.235 -1.93527 4.18742 0
M  V30 530 H 44.478 -1.75666 3.96641 0
M  V30 531 H 45.149 -3.33149 4.40132 0
M  V30 532 H 47.625 -3.34527 2.47449 0
M  V30 533 H 46.501 -4.66257 2.89647 0
M  V30 534 H 46.762 -4.25262 1.20849 0
M  V30 535 N 45.8211 -1.22559 -0.990812 0
M  V30 536 C 47.2321 -1.04791 -1.54518 0
M  V30 537 C 47.5831 0.387998 -1.92325 0
M  V30 538 O 46.7081 1.27328 -1.74976 0
M  V30 539 C 47.3031 -1.896 -2.80779 0
M  V30 540 C 45.8621 -1.76124 -3.32652 0
M  V30 541 C 45.0091 -1.8594 -2.05722 0
M  V30 542 H 47.9601 -1.36374 -0.811662 0
M  V30 543 H 47.9811 -1.41464 -3.53225 0
M  V30 544 H 47.4931 -2.94101 -2.53231 0
M  V30 545 H 45.5941 -0.743643 -3.65104 0
M  V30 546 H 45.7071 -2.58913 -4.03114 0
M  V30 547 H 44.0711 -1.29403 -2.19379 0
M  V30 548 H 44.8541 -2.91976 -1.80568 0
M  V30 549 N 47.2992 1.18797 -1.03562 0
M  V30 550 C 48.5272 1.92599 -0.755869 0
M  V30 551 C 48.9422 1.75886 0.686271 0
M  V30 552 O 48.2992 1.08517 1.46732 0
M  V30 553 C 48.3502 3.44159 -1.10619 0
M  V30 554 O 48.0712 3.60341 -2.4917 0
M  V30 555 C 49.5722 4.3507 -0.850214 0
M  V30 556 H 46.7922 0.611587 -0.276048 0
M  V30 557 H 49.3362 1.50742 -1.38192 0
M  V30 558 H 47.4912 3.83823 -0.525194 0
M  V30 559 H 47.9052 4.54128 -2.62427 0
M  V30 560 H 49.3792 5.39989 -1.14523 0
M  V30 561 H 49.8562 4.38673 0.215176 0
M  V30 562 H 50.4622 4.01097 -1.41426 0
M  V30 563 N 48.7773 0.814389 1.34928 0
M  V30 564 C 50.0263 0.394871 1.97797 0
M  V30 565 C 50.3393 -1.04555 1.65311 0
M  V30 566 O 51.5453 -1.56856 2.21604 0
M  V30 567 C 50.0013 0.655103 3.53888 0
M  V30 568 C 49.6093 2.10858 3.95276 0
M  V30 569 C 51.3533 0.301329 4.23429 0
M  V30 570 C 49.2603 2.31415 5.44244 0
M  V30 571 H 48.1903 0.143913 0.740139 0
M  V30 572 H 50.8413 0.999544 1.53888 0
M  V30 573 H 49.2233 -0.0196253 3.95995 0
M  V30 574 H 50.3973 2.82176 3.64298 0
M  V30 575 H 48.7123 2.42297 3.38646 0
M  V30 576 H 51.3093 0.432869 5.32945 0
M  V30 577 H 51.6523 -0.75331 4.09428 0
M  V30 578 H 52.1853 0.930288 3.86769 0
M  V30 579 H 48.9243 3.35353 5.63222 0
M  V30 580 H 48.4443 1.6463 5.76764 0
M  V30 581 H 50.1233 2.13352 6.10811 0
M  V30 582 N 50.2554 -1.46986 0.568584 0
M  V30 583 C 51.4804 -2.07335 0.0520528 0
M  V30 584 C 51.9054 -1.41675 -1.23733 0
M  V30 585 O 51.2634 -0.495623 -1.74394 0
M  V30 586 C 51.3114 -3.60417 -0.11501 0
M  V30 587 O 50.4154 -3.95309 -1.17492 0
M  V30 588 H 49.7564 -0.661597 0.0564385 0
M  V30 589 H 52.2864 -1.88837 0.787507 0
M  V30 590 H 52.2964 -4.06698 -0.325644 0
M  V30 591 H 50.9714 -4.07601 0.826675 0
M  V30 592 H 49.5484 -3.60757 -0.943869 0
M  V30 593 N 51.7335 -0.305618 -1.54608 0
M  V30 594 C 52.9795 0.302746 -2.00528 0
M  V30 595 C 53.3125 1.53184 -1.19367 0
M  V30 596 O 52.5875 1.92598 -0.271321 0
M  V30 597 C 52.8705 0.654756 -3.54097 0
M  V30 598 C 52.7235 -0.583793 -4.45995 0
M  V30 599 C 54.0425 1.47947 -4.14487 0
M  V30 600 H 51.1615 0.108564 -0.72896 0
M  V30 601 H 53.8035 -0.418634 -1.85331 0
M  V30 602 H 51.9535 1.26935 -3.67178 0
M  V30 603 H 53.6255 -1.22224 -4.44814 0
M  V30 604 H 51.8685 -1.21615 -4.16404 0
M  V30 605 H 52.5395 -0.293287 -5.5122 0
M  V30 606 H 55.0155 0.96013 -4.04871 0
M  V30 607 H 53.8915 1.69454 -5.22088 0
M  V30 608 H 54.1525 2.47011 -3.66658 0
M  V30 609 N 53.2116 1.57565 -0.0334293 0
M  V30 610 C 54.1416 2.13511 0.945265 0
M  V30 611 C 55.1226 1.05231 1.33643 0
M  V30 612 O 56.3076 1.33084 1.41429 0
M  V30 613 C 53.4376 2.6657 2.22616 0
M  V30 614 C 52.3916 3.79676 1.97561 0
M  V30 615 C 51.7176 4.1918 3.31952 0
M  V30 616 C 53.0176 5.0557 1.31135 0
M  V30 617 H 54.7116 2.95538 0.479325 0
M  V30 618 H 52.2576 1.42166 0.229115 0
M  V30 619 H 54.2106 3.04344 2.91466 0
M  V30 620 H 52.9346 1.8171 2.71384 0
M  V30 621 H 51.5936 3.42347 1.31127 0
M  V30 622 H 51.2416 3.31296 3.78487 0
M  V30 623 H 50.9416 4.95402 3.15992 0
M  V30 624 H 52.4656 4.59541 4.02063 0
M  V30 625 H 53.8796 5.40903 1.89992 0
M  V30 626 H 52.2766 5.86818 1.25559 0
M  V30 627 H 53.3466 4.84062 0.284894 0
M  V30 628 N 54.6897 -0.239769 1.55765 0
M  V30 629 C 55.9667 -0.990056 1.68693 0
M  V30 630 C 56.3467 -2.03107 0.5754 0
M  V30 631 O 55.6947 -2.24604 -0.42017 0
M  V30 632 C 55.9047 -1.61696 3.09282 0
M  V30 633 C 57.2527 -2.11613 3.6811 0
M  V30 634 O 58.2767 -1.71624 3.12127 0
M  V30 635 O 57.1357 -2.85057 4.66267 0
M  V30 636 H 54.2297 -0.461299 0.686391 0
M  V30 637 H 56.7757 -0.232991 1.68093 0
M  V30 638 H 55.5477 -0.864357 3.81634 0
M  V30 639 H 55.1707 -2.44005 3.13923 0
M  V30 640 N 56.1678 -1.49265 -0.50573 0
M  V30 641 C 57.4148 -1.58513 -1.26015 0
M  V30 642 C 57.7428 -0.26972 -1.92621 0
M  V30 643 O 56.9978 0.741997 -1.81088 0
M  V30 644 C 57.2968 -2.69008 -2.35308 0
M  V30 645 C 56.9628 -4.10662 -1.86192 0
M  V30 646 C 55.6248 -4.49212 -1.72516 0
M  V30 647 C 57.9768 -4.99336 -1.49375 0
M  V30 648 C 55.3048 -5.74214 -1.20394 0
M  V30 649 C 57.6568 -6.24852 -0.987072 0
M  V30 650 C 56.3208 -6.62236 -0.836669 0
M  V30 651 H 55.5908 -0.580041 -0.461122 0
M  V30 652 H 58.2378 -1.83078 -0.561665 0
M  V30 653 H 56.5428 -2.38396 -3.10926 0
M  V30 654 H 58.2398 -2.73373 -2.93374 0
M  V30 655 H 54.8298 -3.8023 -1.97795 0
M  V30 656 H 59.0138 -4.70212 -1.5879 0
M  V30 657 H 54.2698 -6.01883 -1.07458 0
M  V30 658 H 58.4438 -6.92944 -0.692983 0
M  V30 659 H 56.0708 -7.58979 -0.430607 0
M  V30 660 N 57.6459 0.756429 -1.3826 0
M  V30 661 C 58.5929 1.87011 -1.35261 0
M  V30 662 C 59.5629 1.64695 -0.215616 0
M  V30 663 O 60.7479 1.864 -0.407399 0
M  V30 664 C 57.8879 3.24275 -1.18068 0
M  V30 665 C 57.0009 3.58442 -2.41129 0
M  V30 666 C 56.1359 4.84994 -2.16689 0
M  V30 667 C 55.1749 5.11939 -3.35537 0
M  V30 668 N 54.3119 6.29685 -3.10549 0
M  V30 669 H 59.1519 1.8891 -2.30472 0
M  V30 670 H 56.6889 0.923373 -1.14509 0
M  V30 671 H 58.6469 4.03479 -1.06116 0
M  V30 672 H 57.2769 3.21711 -0.264973 0
M  V30 673 H 56.3289 2.74103 -2.63764 0
M  V30 674 H 57.6409 3.74283 -3.29717 0
M  V30 675 H 56.7949 5.72135 -2.01857 0
M  V30 676 H 55.5339 4.71286 -1.25462 0
M  V30 677 H 54.5389 4.23268 -3.50891 0
M  V30 678 H 55.7639 5.27546 -4.27635 0
M  V30 679 H 53.7099 6.17306 -2.21967 0
M  V30 680 H 53.6269 6.46014 -3.92686 0
M  V30 681 H 54.8949 7.19722 -2.99367 0
M  V30 682 N 59.124 1.23083 0.984299 0
M  V30 683 C 60.071 1.00854 2.07598 0
M  V30 684 C 61.041 -0.0726709 1.65941 0
M  V30 685 O 62.226 0.0786535 1.90638 0
M  V30 686 C 59.366 0.601645 3.39815 0
M  V30 687 C 58.479 1.75456 3.94765 0
M  V30 688 C 57.614 1.29482 5.15177 0
M  V30 689 C 56.653 2.41873 5.62284 0
M  V30 690 N 55.79 1.96885 6.73929 0
M  V30 691 H 60.63 1.943 2.25946 0
M  V30 692 H 58.167 0.968001 1.10762 0
M  V30 693 H 60.125 0.346854 4.15756 0
M  V30 694 H 58.755 -0.295803 3.21442 0
M  V30 695 H 57.807 2.12346 3.15616 0
M  V30 696 H 59.119 2.59965 4.25699 0
M  V30 697 H 58.273 0.997923 5.98437 0
M  V30 698 H 57.012 0.420046 4.85888 0
M  V30 699 H 56.017 2.72342 4.77608 0
M  V30 700 H 57.242 3.29881 5.93595 0
M  V30 701 H 55.188 1.11782 6.46406 0
M  V30 702 H 55.105 2.74956 7.04227 0
M  V30 703 H 56.373 1.70289 7.60672 0
M  V30 704 N 60.6021 -1.18246 1.0419 0
M  V30 705 C 61.5491 -2.2192 0.634037 0
M  V30 706 C 62.5191 -1.62179 -0.358765 0
M  V30 707 O 63.7041 -1.89122 -0.252466 0
M  V30 708 C 60.8441 -3.451 0.00445535 0
M  V30 709 C 59.9571 -4.19174 1.04487 0
M  V30 710 C 59.0921 -5.29813 0.383676 0
M  V30 711 C 58.1311 -5.9566 1.4091 0
M  V30 712 N 57.2681 -6.97834 0.772784 0
M  V30 713 H 62.1081 -2.56164 1.52263 0
M  V30 714 H 59.6451 -1.25843 0.761701 0
M  V30 715 H 61.6031 -4.15485 -0.377919 0
M  V30 716 H 60.2331 -3.11472 -0.847652 0
M  V30 717 H 59.2851 -3.47604 1.54518 0
M  V30 718 H 60.5971 -4.64267 1.82368 0
M  V30 719 H 59.7511 -6.06677 -0.0528366 0
M  V30 720 H 58.4901 -4.85825 -0.427208 0
M  V30 721 H 57.4951 -5.17535 1.85574 0
M  V30 722 H 58.7201 -6.4173 2.22171 0
M  V30 723 H 56.6661 -6.55998 -0.0177708 0
M  V30 724 H 56.5831 -7.41186 1.48928 0
M  V30 725 H 57.8511 -7.78665 0.36071 0
M  V30 726 N 62.0802 -0.821533 -1.34494 0
M  V30 727 C 63.4962 -0.507117 -1.51329 0
M  V30 728 C 63.6962 0.968964 -1.76673 0
M  V30 729 O 62.7522 1.75348 -1.81685 0
M  V30 730 C 64.0652 -1.36544 -2.67911 0
M  V30 731 C 65.6132 -1.36242 -2.81793 0
M  V30 732 C 66.0882 -2.2052 -4.01416 0
M  V30 733 N 67.5792 -2.18136 -4.08621 0
M  V30 734 C 68.3142 -2.80095 -5.00334 0
M  V30 735 N 67.8102 -3.51039 -5.9728 0
M  V30 736 N 69.6032 -2.69656 -4.93196 0
M  V30 737 H 61.7542 -1.77729 -1.16302 0
M  V30 738 H 64.0172 -0.757291 -0.570276 0
M  V30 739 H 63.7232 -2.41361 -2.55808 0
M  V30 740 H 63.5972 -1.02917 -3.62888 0
M  V30 741 H 65.9842 -0.322041 -2.93338 0
M  V30 742 H 66.0652 -1.73866 -1.87628 0
M  V30 743 H 65.7092 -3.24607 -3.90631 0
M  V30 744 H 65.6392 -1.80247 -4.94791 0
M  V30 745 H 68.1302 -1.6653 -3.39229 0
M  V30 746 H 68.4432 -3.95565 -6.63889 0
M  V30 747 H 66.7882 -3.55145 -5.97409 0
M  V30 748 H 69.9792 -2.13808 -4.16418 0
M  V30 749 H 70.1522 -3.1823 -5.64476 0
M  V30 750 N 63.5583 1.46682 -0.576371 0
M  V30 751 C 64.4883 2.33028 0.148397 0
M  V30 752 C 65.4693 1.44961 0.889956 0
M  V30 753 O 66.6543 1.73789 0.866662 0
M  V30 754 C 63.7843 3.27117 1.1667 0
M  V30 755 C 62.7383 4.24575 0.540386 0
M  V30 756 C 62.0643 5.08126 1.6647 0
M  V30 757 C 63.3643 5.19722 -0.518331 0
M  V30 758 H 65.0583 2.93875 -0.572509 0
M  V30 759 H 62.6043 1.41315 -0.276768 0
M  V30 760 H 64.5573 3.86374 1.68204 0
M  V30 761 H 63.2813 2.64364 1.9178 0
M  V30 762 H 61.9403 3.66571 0.0461769 0
M  V30 763 H 61.5883 4.41762 2.40531 0
M  V30 764 H 61.2883 5.74122 1.25131 0
M  V30 765 H 62.8123 5.70246 2.18293 0
M  V30 766 H 64.2263 5.73232 -0.0883058 0
M  V30 767 H 62.6233 5.94026 -0.851679 0
M  V30 768 H 63.6933 4.64037 -1.40703 0
M  V30 769 N 65.0364 0.313813 1.54444 0
M  V30 770 C 66.2664 -0.293491 2.04505 0
M  V30 771 C 66.6744 -1.47086 1.19005 0
M  V30 772 O 66.0174 -1.82481 0.211257 0
M  V30 773 C 66.0794 -0.800455 3.50475 0
M  V30 774 C 65.7434 0.253322 4.56297 0
M  V30 775 C 66.7404 1.08612 5.08428 0
M  V30 776 C 64.4254 0.398708 5.00715 0
M  V30 777 C 66.4194 2.05013 6.0353 0
M  V30 778 C 64.1064 1.36614 5.95634 0
M  V30 779 C 65.1044 2.19033 6.46926 0
M  V30 780 O 64.7924 3.14134 7.39983 0
M  V30 781 H 64.5244 -0.0658325 0.672787 0
M  V30 782 H 67.0784 0.455177 2.00293 0
M  V30 783 H 65.3084 -1.59987 3.52053 0
M  V30 784 H 66.9974 -1.32504 3.83663 0
M  V30 785 H 67.7634 0.984736 4.74898 0
M  V30 786 H 63.6424 -0.23289 4.60411 0
M  V30 787 H 67.1864 2.69382 6.4349 0
M  V30 788 H 63.0834 1.4682 6.28581 0
M  V30 789 H 63.8514 3.0926 7.57826 0
M  V30 790 N 66.5145 -1.57545 0.0417849 0
M  V30 791 C 67.9305 -1.56467 -0.314704 0
M  V30 792 C 68.1305 -1.04859 -1.72066 0
M  V30 793 O 67.1865 -0.700983 -2.42575 0
M  V30 794 C 68.4995 -3.00317 -0.15174 0
M  V30 795 C 70.0475 -3.12201 -0.223553 0
M  V30 796 C 70.5225 -4.57913 -0.0892295 0
M  V30 797 N 72.0135 -4.6297 -0.145808 0
M  V30 798 C 72.7485 -5.73362 -0.0658459 0
M  V30 799 N 72.2445 -6.92769 0.0659282 0
M  V30 800 N 74.0375 -5.6197 -0.12075 0
M  V30 801 H 66.1885 -1.89416 0.961014 0
M  V30 802 H 68.4515 -0.871862 0.372237 0
M  V30 803 H 68.1575 -3.42073 0.817254 0
M  V30 804 H 68.0315 -3.65892 -0.916692 0
M  V30 805 H 70.4185 -2.70349 -1.18301 0
M  V30 806 H 70.4995 -2.49323 0.571994 0
M  V30 807 H 70.1435 -5.00448 0.866867 0
M  V30 808 H 70.0735 -5.18786 -0.903802 0
M  V30 809 H 72.5645 -3.7709 -0.247286 0
M  V30 810 H 72.8775 -7.72707 0.119905 0
M  V30 811 H 71.2225 -6.94927 0.100885 0
M  V30 812 H 74.4135 -4.67572 -0.222187 0
M  V30 813 H 74.5865 -6.47977 -0.0549735 0
M  V30 814 N 67.9926 0.231505 -1.5589 0
M  V30 815 C 68.9396 1.28682 -1.91598 0
M  V30 816 C 69.9096 1.47071 -0.771974 0
M  V30 817 O 71.0946 1.60802 -1.027 0
M  V30 818 C 68.2346 2.6342 -2.22944 0
M  V30 819 C 67.3476 2.52912 -3.50228 0
M  V30 820 C 66.4826 3.80106 -3.7107 0
M  V30 821 C 65.5216 3.64279 -4.91902 0
M  V30 822 N 64.6586 4.834 -5.09184 0
M  V30 823 H 69.4986 0.975305 -2.81588 0
M  V30 824 H 67.0356 0.470299 -1.39379 0
M  V30 825 H 68.9936 3.41869 -2.39126 0
M  V30 826 H 67.6236 2.92687 -1.36139 0
M  V30 827 H 66.6756 1.6595 -3.42294 0
M  V30 828 H 67.9876 2.37133 -4.38827 0
M  V30 829 H 67.1416 4.66999 -3.87295 0
M  V30 830 H 65.8806 3.98799 -2.80733 0
M  V30 831 H 64.8856 2.7577 -4.75637 0
M  V30 832 H 66.1106 3.47067 -5.83714 0
M  V30 833 H 64.0566 5.02425 -4.21788 0
M  V30 834 H 63.9736 4.70311 -5.91898 0
M  V30 835 H 65.2416 5.71747 -5.29835 0
M  V30 836 N 69.4707 1.49531 0.497807 0
M  V30 837 C 70.7007 1.62657 1.27382 0
M  V30 838 C 71.1087 0.298488 1.86831 0
M  V30 839 O 70.4517 -0.72647 1.68725 0
M  V30 840 C 70.5137 2.6393 2.44093 0
M  V30 841 C 70.1777 4.08195 2.05489 0
M  V30 842 C 71.1747 4.949 1.59279 0
M  V30 843 C 68.8597 4.53948 2.15026 0
M  V30 844 C 70.8537 6.25397 1.23113 0
M  V30 845 C 68.5407 5.84458 1.78473 0
M  V30 846 C 69.5387 6.70006 1.32591 0
M  V30 847 O 69.2267 7.98083 0.965327 0
M  V30 848 H 68.9587 0.550429 0.392434 0
M  V30 849 H 71.5127 1.96325 0.603801 0
M  V30 850 H 69.7427 2.25449 3.14181 0
M  V30 851 H 71.4317 2.66552 3.06113 0
M  V30 852 H 72.1977 4.60779 1.51354 0
M  V30 853 H 68.0767 3.87525 2.4969 0
M  V30 854 H 71.6207 6.92125 0.872299 0
M  V30 855 H 67.5177 6.18107 1.86048 0
M  V30 856 H 68.2857 8.11122 1.09652 0
M  V30 857 N 70.9488 -0.749086 1.3866 0
M  V30 858 C 71.8968 -1.88428 1.36373 0
M  V30 859 C 72.8908 -1.67561 0.248929 0
M  V30 860 O 74.0968 -1.75074 0.41821 0
M  V30 861 H 70.4718 -0.620023 0.42553 0
M  V30 862 H 72.4428 -1.87473 2.32156 0
M  V30 863 C 71.1918 -3.25961 1.21014 0
M  V30 864 H 70.5148 -3.42607 2.06059 0
M  V30 865 H 71.9548 -4.05625 1.23469 0
M  V30 866 C 70.4138 -3.36799 -0.0825941 0
M  V30 867 O 70.9438 -3.87517 -1.05797 0
M  V30 868 N 69.1498 -2.90258 -0.140939 0
M  V30 869 H 68.6968 -2.49174 0.653477 0
M  V30 870 H 68.6548 -2.97889 -1.00545 0
M  V30 871 N 72.4269 -1.23603 -0.977757 0
M  V30 872 C 73.3749 -1.01704 -2.09187 0
M  V30 873 C 74.3689 0.0448214 -1.69341 0
M  V30 874 O 75.5749 -0.108902 -1.7967 0
M  V30 875 H 71.9499 -0.311803 -0.684312 0
M  V30 876 H 73.9209 -1.96207 -2.24823 0
M  V30 877 C 72.6699 -0.627746 -3.41986 0
M  V30 878 H 71.9929 -1.43656 -3.73099 0
M  V30 879 H 73.4329 -0.514053 -4.20872 0
M  V30 880 C 71.8919 0.664238 -3.30287 0
M  V30 881 O 72.4219 1.71268 -3.6336 0
M  V30 882 N 70.6279 0.641156 -2.83439 0
M  V30 883 H 70.1749 -0.212376 -2.56723 0
M  V30 884 H 70.1329 1.50583 -2.75993 0
M  V30 885 N 73.905 1.17692 -1.04816 0
M  V30 886 C 75.154 1.87192 -0.751132 0
M  V30 887 C 75.467 1.8169 0.724441 0
M  V30 888 O 76.673 2.46625 1.13527 0
M  V30 889 C 75.129 3.35857 -1.29338 0
M  V30 890 C 74.737 3.4987 -2.79812 0
M  V30 891 C 76.481 4.10709 -1.07322 0
M  V30 892 C 74.388 4.92536 -3.27356 0
M  V30 893 H 73.318 0.701162 -0.277288 0
M  V30 894 H 75.969 1.32932 -1.26496 0
M  V30 895 H 74.351 3.89631 -0.707376 0
M  V30 896 H 75.525 3.06332 -3.44235 0
M  V30 897 H 73.84 2.88433 -3.00325 0
M  V30 898 H 76.437 5.15952 -1.4035 0
M  V30 899 H 76.78 4.16299 -0.0108001 0
M  V30 900 H 77.313 3.6313 -1.62423 0
M  V30 901 H 74.052 4.92119 -4.33012 0
M  V30 902 H 73.572 5.3676 -2.67673 0
M  V30 903 H 75.251 5.61288 -3.21815 0
M  V30 904 N 75.3831 0.828654 1.34056 0
M  V30 905 C 76.6301 0.419458 1.98108 0
M  V30 906 C 76.9581 -1.01886 1.65679 0
M  V30 907 O 76.2131 -1.72539 0.923512 0
M  V30 908 C 76.5121 0.575226 3.52741 0
M  V30 909 C 76.1781 1.98012 4.05095 0
M  V30 910 C 74.8401 2.36442 4.19104 0
M  V30 911 C 77.1921 2.89824 4.33188 0
M  V30 912 C 74.5201 3.66009 4.58535 0
M  V30 913 C 76.8721 4.1886 4.74066 0
M  V30 914 C 75.5361 4.5726 4.86281 0
M  V30 915 H 74.8061 0.153491 0.724929 0
M  V30 916 H 77.4531 1.05371 1.59904 0
M  V30 917 H 75.7581 -0.142385 3.91541 0
M  V30 918 H 77.4551 0.239057 4.00287 0
M  V30 919 H 74.0451 1.67162 3.94658 0
M  V30 920 H 78.2291 2.61375 4.21897 0
M  V30 921 H 73.4851 3.95579 4.66184 0
M  V30 922 H 77.6591 4.90086 4.94761 0
M  V30 923 H 75.2861 5.57707 5.16592 0
M  V30 924 N 76.8612 -1.46375 0.584142 0
M  V30 925 C 77.7912 -2.33103 -0.136037 0
M  V30 926 C 78.7722 -1.45431 -0.882255 0
M  V30 927 O 79.9572 -1.74246 -0.857434 0
M  V30 928 C 77.0872 -3.27731 -1.14933 0
M  V30 929 C 76.0412 -4.24855 -0.517862 0
M  V30 930 C 75.3672 -5.09001 -1.63773 0
M  V30 931 C 76.6672 -5.19439 0.545886 0
M  V30 932 H 78.3612 -2.93568 0.588086 0
M  V30 933 H 75.9072 -1.41166 0.284259 0
M  V30 934 H 77.8602 -3.87261 -1.66153 0
M  V30 935 H 76.5842 -2.65377 -1.90375 0
M  V30 936 H 75.2432 -3.6659 -0.0267361 0
M  V30 937 H 74.8912 -4.43031 -2.38185 0
M  V30 938 H 74.5912 -5.74777 -1.22085 0
M  V30 939 H 76.1152 -5.71396 -2.15266 0
M  V30 940 H 77.5292 -5.73177 0.118704 0
M  V30 941 H 75.9262 -5.93566 0.88317 0
M  V30 942 H 76.9962 -4.63285 1.43162 0
M  V30 943 N 78.3393 -0.321999 -1.54275 0
M  V30 944 C 79.5693 0.282642 -2.04658 0
M  V30 945 C 79.9773 1.46453 -1.19784 0
M  V30 946 O 79.3203 1.82367 -0.220932 0
M  V30 947 C 79.3823 0.781857 -3.50895 0
M  V30 948 C 79.0463 -0.277517 -4.56157 0
M  V30 949 C 80.0433 -1.11307 -5.07845 0
M  V30 950 C 77.7283 -0.425256 -5.00497 0
M  V30 951 C 79.7223 -2.08211 -6.02434 0
M  V30 952 C 77.4093 -1.39771 -5.94901 0
M  V30 953 C 78.4073 -2.2246 -6.45756 0
M  V30 954 O 78.0953 -3.18054 -7.38307 0
M  V30 955 H 77.8273 0.0622636 -0.673126 0
M  V30 956 H 80.3813 -0.465792 -2.00049 0
M  V30 957 H 78.6113 1.58118 -3.52896 0
M  V30 958 H 80.3003 1.30467 -3.84361 0
M  V30 959 H 81.0663 -1.00991 -4.74369 0
M  V30 960 H 76.9453 0.20847 -4.60528 0
M  V30 961 H 80.4893 -2.72791 -6.42052 0
M  V30 962 H 76.3863 -1.50152 -6.27794 0
M  V30 963 H 77.1543 -3.13275 -7.56175 0
M  V30 964 N 79.8174 1.5752 -0.0501392 0
M  V30 965 C 81.0454 1.96963 0.633492 0
M  V30 966 C 81.4604 0.927631 1.6444 0
M  V30 967 O 80.8174 -0.0882665 1.82286 0
M  V30 968 C 80.8684 3.36487 1.32132 0
M  V30 969 O 80.5894 4.36693 0.350894 0
M  V30 970 C 82.0904 3.90682 2.09481 0
M  V30 971 H 79.3104 0.648244 0.173266 0
M  V30 972 H 81.8544 2.0417 -0.116134 0
M  V30 973 H 80.0094 3.30434 2.02218 0
M  V30 974 H 80.4234 5.17702 0.841735 0
M  V30 975 H 81.8974 4.90591 2.5303 0
M  V30 976 H 82.3744 3.26053 2.94255 0
M  V30 977 H 82.9804 4.00069 1.44307 0
M  V30 978 N 81.2955 -0.223234 1.56011 0
M  V30 979 C 82.5255 -0.963413 1.82762 0
M  V30 980 C 82.9335 -1.78516 0.626804 0
M  V30 981 O 82.2765 -1.78974 -0.414014 0
M  V30 982 C 82.3385 -1.93126 3.0322 0
M  V30 983 C 82.0025 -1.2942 4.38291 0
M  V30 984 C 82.9995 -0.684916 5.15369 0
M  V30 985 C 80.6845 -1.30647 4.85012 0
M  V30 986 C 82.6785 -0.0963971 6.37327 0
M  V30 987 C 80.3655 -0.71411 6.06913 0
M  V30 988 C 81.3635 -0.110123 6.82911 0
M  V30 989 O 81.0515 0.47303 8.02507 0
M  V30 990 H 80.7835 -0.288011 0.611576 0
M  V30 991 H 83.3375 -0.244103 2.03944 0
M  V30 992 H 81.5675 -2.68952 2.77852 0
M  V30 993 H 83.2565 -2.53685 3.16857 0
M  V30 994 H 84.0225 -0.667774 4.80381 0
M  V30 995 H 79.9015 -1.76598 4.25833 0
M  V30 996 H 83.4455 0.375657 6.96588 0
M  V30 997 H 79.3425 -0.728659 6.41374 0
M  V30 998 H 80.1105 0.367186 8.17676 0
M  V30 999 N 82.7736 -1.49793 -0.48987 0
M  V30 1000 C 83.7206 -1.67281 -1.59014 0
M  V30 1001 C 84.6906 -0.514177 -1.57941 0
M  V30 1002 O 85.8756 -0.742533 -1.75759 0
M  V30 1003 C 83.0156 -1.75569 -2.97102 0
M  V30 1004 C 82.1286 -3.0281 -3.08107 0
M  V30 1005 C 81.2636 -3.02008 -4.36995 0
M  V30 1006 C 80.3026 -4.23782 -4.41673 0
M  V30 1007 N 79.4396 -4.20826 -5.62005 0
M  V30 1008 H 84.2796 -2.61224 -1.43409 0
M  V30 1009 H 81.8166 -1.29508 -0.697565 0
M  V30 1010 H 83.7746 -1.78354 -3.77155 0
M  V30 1011 H 82.4046 -0.850827 -3.11385 0
M  V30 1012 H 81.4566 -3.09584 -2.21047 0
M  V30 1013 H 82.7686 -3.92801 -3.07423 0
M  V30 1014 H 81.9226 -3.03418 -5.25378 0
M  V30 1015 H 80.6616 -2.09815 -4.4026 0
M  V30 1016 H 79.6666 -4.22604 -3.5169 0
M  V30 1017 H 80.8916 -5.17181 -4.40115 0
M  V30 1018 H 78.8376 -3.31476 -5.66091 0
M  V30 1019 H 78.7546 -5.04564 -5.62984 0
M  V30 1020 H 80.0226 -4.26355 -6.52565 0
M  V30 1021 N 84.2517 0.741722 -1.39055 0
M  V30 1022 C 85.1997 1.87702 -1.3737 0
M  V30 1023 C 86.1937 1.67427 -0.257812 0
M  V30 1024 O 87.3997 1.7485 -0.427489 0
M  V30 1025 H 83.7747 0.617757 -0.428812 0
M  V30 1026 H 85.7457 1.86239 -2.33147 0
M  V30 1027 C 84.4947 3.25315 -1.22741 0
M  V30 1028 H 83.8177 3.41509 -2.07873 0
M  V30 1029 H 85.2577 4.04964 -1.25618 0
M  V30 1030 C 83.7167 3.36838 0.0647316 0
M  V30 1031 O 84.2467 3.88073 1.03741 0
M  V30 1032 N 82.4527 2.90329 0.125544 0
M  V30 1033 H 81.9997 2.48823 -0.666682 0
M  V30 1034 H 81.9577 2.98418 0.989639 0
M  V30 1035 N 85.7298 1.2412 0.971189 0
M  V30 1036 C 86.9598 1.10415 1.7462 0
M  V30 1037 C 87.3678 -0.346462 1.86001 0
M  V30 1038 O 86.7108 -1.25104 1.34517 0
M  V30 1039 C 86.7728 1.66596 3.18568 0
M  V30 1040 C 86.4368 3.15446 3.3067 0
M  V30 1041 C 87.4338 4.12636 3.16271 0
M  V30 1042 C 85.1188 3.55337 3.55022 0
M  V30 1043 C 87.1128 5.47699 3.26044 0
M  V30 1044 C 84.7998 4.90542 3.64434 0
M  V30 1045 C 85.7978 5.86532 3.49956 0
M  V30 1046 O 85.4858 7.19279 3.59017 0
M  V30 1047 H 85.2178 0.386616 0.55453 0
M  V30 1048 H 87.7718 1.64633 1.22821 0
M  V30 1049 H 86.0018 1.06808 3.71657 0
M  V30 1050 H 87.6908 1.48232 3.77865 0
M  V30 1051 H 88.4568 3.8316 2.97344 0
M  V30 1052 H 84.3358 2.8113 3.65359 0
M  V30 1053 H 87.8798 6.22603 3.14661 0
M  V30 1054 H 83.7768 5.19691 3.82873 0
M  V30 1055 H 84.5448 7.27153 3.75754 0
M  V30 1056 N 87.2079 -1.17134 1.05439 0
M  V30 1057 C 88.4329 -1.91913 0.786396 0
M  V30 1058 C 88.8579 -1.7643 -0.652234 0
M  V30 1059 O 88.2159 -1.08372 -1.45345 0
M  V30 1060 C 88.2639 -3.40921 1.17497 0
M  V30 1061 O 87.3679 -4.11244 0.308589 0
M  V30 1062 H 86.7089 -0.598215 0.288158 0
M  V30 1063 H 89.2389 -1.48457 1.4079 0
M  V30 1064 H 89.2489 -3.91668 1.14281 0
M  V30 1065 H 87.9239 -3.5151 2.22292 0
M  V30 1066 H 86.5009 -3.70731 0.40157 0
M  V30 1067 N 88.686 -0.835752 -1.33615 0
M  V30 1068 C 89.933 -0.429959 -1.97883 0
M  V30 1069 C 90.261 1.01006 -1.66217 0
M  V30 1070 O 89.516 1.72047 -0.93265 0
M  V30 1071 C 89.815 -0.593925 -3.52431 0
M  V30 1072 C 89.481 -2.00158 -4.04039 0
M  V30 1073 C 88.143 -2.38662 -4.17844 0
M  V30 1074 C 90.495 -2.92117 -4.31644 0
M  V30 1075 C 87.823 -3.68435 -4.56588 0
M  V30 1076 C 90.175 -4.21368 -4.71838 0
M  V30 1077 C 88.839 -4.59833 -4.83849 0
M  V30 1078 H 88.109 -0.157333 -0.724104 0
M  V30 1079 H 90.756 -1.06217 -1.59343 0
M  V30 1080 H 89.061 0.121619 -3.91611 0
M  V30 1081 H 90.758 -0.260282 -4.00154 0
M  V30 1082 H 87.348 -1.69252 -3.93766 0
M  V30 1083 H 91.532 -2.63608 -4.20505 0
M  V30 1084 H 86.788 -3.98046 -4.64079 0
M  V30 1085 H 90.962 -4.92703 -4.92155 0
M  V30 1086 H 88.589 -5.60438 -5.13627 0
M  V30 1087 N 90.1641 1.46063 -0.591896 0
M  V30 1088 C 91.0941 2.33172 0.123673 0
M  V30 1089 C 92.0751 1.45897 0.87453 0
M  V30 1090 O 93.2601 1.74698 0.848181 0
M  V30 1091 C 90.3901 3.28336 1.13194 0
M  V30 1092 C 89.3441 4.25124 0.495324 0
M  V30 1093 C 88.6701 5.09863 1.61071 0
M  V30 1094 C 89.9701 5.19143 -0.573425 0
M  V30 1095 H 91.6641 2.93252 -0.603646 0
M  V30 1096 H 89.2101 1.41014 -0.291741 0
M  V30 1097 H 91.1631 3.88137 1.64097 0
M  V30 1098 H 89.8871 2.66383 1.88965 0
M  V30 1099 H 88.5461 3.66599 0.00729452 0
M  V30 1100 H 88.1941 4.44288 2.35832 0
M  V30 1101 H 87.8941 5.75417 1.19035 0
M  V30 1102 H 89.4181 5.72529 2.12233 0
M  V30 1103 H 90.8321 5.73106 -0.1491 0
M  V30 1104 H 89.2291 5.93089 -0.914636 0
M  V30 1105 H 90.2991 4.62519 -1.45617 0
M  V30 1106 N 91.6422 0.330177 1.54103 0
M  V30 1107 C 92.8882 -0.263542 2.01685 0
M  V30 1108 C 93.2432 -1.49258 1.21408 0
M  V30 1109 O 92.5362 -1.89395 0.289852 0
M  V30 1110 C 92.7302 -0.643134 3.51566 0
M  V30 1111 C 92.5592 0.547571 4.46354 0
M  V30 1112 C 91.3292 1.04873 4.94297 0
M  V30 1113 C 93.5272 1.40184 4.94826 0
M  V30 1114 N 91.5092 2.20316 5.73005 0
M  V30 1115 C 92.8802 2.40335 5.71524 0
M  V30 1116 C 94.9352 1.42884 4.76958 0
M  V30 1117 C 93.6382 3.42998 6.32254 0
M  V30 1118 C 95.6642 2.44421 5.38528 0
M  V30 1119 C 95.0262 3.43298 6.15082 0
M  V30 1120 H 91.1252 -0.0601026 0.779687 0
M  V30 1121 H 93.7092 0.466714 1.89023 0
M  V30 1122 H 91.8802 -1.34251 3.6446 0
M  V30 1123 H 93.6122 -1.21889 3.85908 0
M  V30 1124 H 90.3672 0.618956 4.69538 0
M  V30 1125 H 90.7912 2.78565 6.17034 0
M  V30 1126 H 95.4332 0.678049 4.17328 0
M  V30 1127 H 93.1512 4.1898 6.91 0
M  V30 1128 H 96.7372 2.4732 5.26616 0
M  V30 1129 H 95.6172 4.20579 6.61878 0
M  V30 1130 N 93.1203 -1.57491 0.0584922 0
M  V30 1131 C 94.0303 -2.15448 -0.928414 0
M  V30 1132 C 95.0463 -1.11416 -1.3365 0
M  V30 1133 O 96.2223 -1.4362 -1.41193 0
M  V30 1134 C 93.2873 -2.69393 -2.18239 0
M  V30 1135 C 92.3483 -3.88249 -1.83196 0
M  V30 1136 C 91.5813 -4.39613 -3.02616 0
M  V30 1137 O 91.8043 -3.90023 -4.16219 0
M  V30 1138 O 90.7383 -5.31111 -2.83204 0
M  V30 1139 H 94.5643 -3.00112 -0.465483 0
M  V30 1140 H 92.1493 -1.48499 -0.163826 0
M  V30 1141 H 94.0313 -3.04026 -2.91798 0
M  V30 1142 H 92.7063 -1.87796 -2.63656 0
M  V30 1143 H 91.6133 -3.58492 -1.06931 0
M  V30 1144 H 92.9463 -4.71098 -1.42573 0
M  V30 1145 N 94.5984 0.214957 -1.56127 0
M  V30 1146 C 95.5284 1.2695 -1.95974 0
M  V30 1147 C 96.5094 1.48539 -0.828868 0
M  V30 1148 O 97.6944 1.60611 -1.09168 0
M  V30 1149 C 94.8244 2.61794 -2.28214 0
M  V30 1150 C 93.7784 2.54851 -3.43853 0
M  V30 1151 C 93.1044 3.93785 -3.61715 0
M  V30 1152 C 94.4044 2.09065 -4.78632 0
M  V30 1153 H 96.0984 0.93846 -2.84312 0
M  V30 1154 H 93.6444 0.449996 -1.36788 0
M  V30 1155 H 95.5974 3.35731 -2.54682 0
M  V30 1156 H 94.3214 2.96599 -1.36736 0
M  V30 1157 H 92.9804 1.8337 -3.17444 0
M  V30 1158 H 92.6284 4.25908 -2.67602 0
M  V30 1159 H 92.3284 3.90019 -4.39498 0
M  V30 1160 H 93.8524 4.69374 -3.90539 0
M  V30 1161 H 95.2664 2.7275 -5.04262 0
M  V30 1162 H 93.6634 2.16346 -5.59745 0
M  V30 1163 H 94.7334 1.04315 -4.73547 0
M  V30 1164 N 96.0765 1.50051 0.48192 0
M  V30 1165 C 96.9865 1.7089 1.60728 0
M  V30 1166 C 98.0025 0.591788 1.63627 0
M  V30 1167 O 99.1785 0.868817 1.81696 0
M  V30 1168 C 96.2435 1.78855 2.97005 0
M  V30 1169 C 95.3045 3.02537 3.04581 0
M  V30 1170 C 94.5375 3.10112 4.34357 0
M  V30 1171 O 94.7605 2.24765 5.24249 0
M  V30 1172 O 93.6945 4.02747 4.47301 0
M  V30 1173 H 97.5205 2.66264 1.46072 0
M  V30 1174 H 95.1055 1.34018 0.660264 0
M  V30 1175 H 96.9875 1.86336 3.77964 0
M  V30 1176 H 95.6625 0.866628 3.11883 0
M  V30 1177 H 94.5695 3.00563 2.22739 0
M  V30 1178 H 95.9025 3.94272 2.94636 0
M  V30 1179 N 97.5546 -0.734337 1.39446 0
M  V30 1180 C 98.5026 -1.86971 1.38364 0
M  V30 1181 C 99.4966 -1.67288 0.266687 0
M  V30 1182 O 100.703 -1.74621 0.436755 0
M  V30 1183 H 97.0776 -0.615474 0.432082 0
M  V30 1184 H 99.0486 -1.85 2.34132 0
M  V30 1185 C 97.7976 -3.2466 1.24465 0
M  V30 1186 H 97.1206 -3.40402 2.09682 0
M  V30 1187 H 98.5606 -4.04292 1.27764 0
M  V30 1188 C 97.0196 -3.36867 -0.0468674 0
M  V30 1189 O 97.5496 -3.88618 -1.01681 0
M  V30 1190 N 95.7556 -2.90391 -0.110145 0
M  V30 1191 H 95.3026 -2.48466 0.679868 0
M  V30 1192 H 95.2606 -2.98939 -0.973799 0
M  V30 1193 N 99.0327 -1.24633 -0.964593 0
M  V30 1194 C 99.9807 -1.03917 -2.08096 0
M  V30 1195 C 100.975 0.0268581 -1.69379 0
M  V30 1196 O 102.181 -0.127952 -1.79545 0
M  V30 1197 H 98.5557 -0.319044 -0.680966 0
M  V30 1198 H 100.527 -1.98581 -2.22729 0
M  V30 1199 C 99.2757 -0.663983 -3.41301 0
M  V30 1200 H 98.5987 -1.47605 -3.71555 0
M  V30 1201 H 100.039 -0.558663 -4.20303 0
M  V30 1202 C 98.4977 0.629169 -3.30973 0
M  V30 1203 O 99.0277 1.67404 -3.65156 0
M  V30 1204 N 97.2337 0.611057 -2.84103 0
M  V30 1205 H 96.7807 -0.239593 -2.56483 0
M  V30 1206 H 96.7387 1.47647 -2.77575 0
M  V30 1207 N 100.511 1.16574 -1.06058 0
M  V30 1208 C 101.76 1.86385 -0.770944 0
M  V30 1209 C 102.073 1.82448 0.705129 0
M  V30 1210 O 103.279 2.47815 1.10905 0
M  V30 1211 C 101.735 3.34466 -1.32893 0
M  V30 1212 C 101.343 3.46883 -2.83507 0
M  V30 1213 C 103.087 4.09548 -1.11672 0
M  V30 1214 C 100.994 4.89036 -3.32562 0
M  V30 1215 H 99.9238 0.698181 -0.284709 0
M  V30 1216 H 102.575 1.31583 -1.27899 0
M  V30 1217 H 100.957 3.88859 -0.748662 0
M  V30 1218 H 102.131 3.02663 -3.47465 0
M  V30 1219 H 100.446 2.85232 -3.03368 0
M  V30 1220 H 103.043 5.14434 -1.45814 0
M  V30 1221 H 103.386 4.16264 -0.0549535 0
M  V30 1222 H 103.919 3.61387 -1.66265 0
M  V30 1223 H 100.658 4.87499 -4.38207 0
M  V30 1224 H 100.178 5.3389 -2.73351 0
M  V30 1225 H 101.857 5.57843 -3.2775 0
M  V30 1226 N 101.989 0.842826 1.3317 0
M  V30 1227 C 102.919 0.294028 2.31641 0
M  V30 1228 C 103.9 -0.600401 1.59151 0
M  V30 1229 O 105.085 -0.523124 1.87022 0
M  V30 1230 C 102.215 -0.528416 3.43257 0
M  V30 1231 C 101.169 0.27056 4.27144 0
M  V30 1232 C 100.495 -0.675881 5.30411 0
M  V30 1233 C 101.795 1.48981 5.00602 0
M  V30 1234 H 103.489 1.11681 2.77791 0
M  V30 1235 H 101.035 0.538478 1.33553 0
M  V30 1236 H 102.988 -0.922674 4.11175 0
M  V30 1237 H 101.712 -1.38445 2.95805 0
M  V30 1238 H 100.371 0.646427 3.60856 0
M  V30 1239 H 100.019 -1.52842 4.79216 0
M  V30 1240 H 99.7189 -0.145374 5.8742 0
M  V30 1241 H 101.243 -1.06757 6.01195 0
M  V30 1242 H 102.657 1.16849 5.61266 0
M  V30 1243 H 101.054 1.95739 5.6728 0
M  V30 1244 H 102.124 2.25746 4.29147 0
M  V30 1245 N 103.467 -1.45747 0.599634 0
M  V30 1246 C 104.417 -2.27538 -0.145107 0
M  V30 1247 C 105.401 -1.3686 -0.846055 0
M  V30 1248 O 106.593 -1.6091 -0.737357 0
M  V30 1249 C 103.722 -3.23569 -1.14708 0
M  V30 1250 C 102.808 -4.21734 -0.447383 0
M  V30 1251 N 103.199 -5.03257 0.506535 0
M  V30 1252 C 101.497 -4.40536 -0.695966 0
M  V30 1253 C 102.198 -5.74426 0.917068 0
M  V30 1254 N 101.174 -5.42966 0.26253 0
M  V30 1255 H 104.976 -2.87965 0.587672 0
M  V30 1256 H 102.49 -1.56803 0.422697 0
M  V30 1257 H 104.487 -3.8089 -1.69495 0
M  V30 1258 H 103.147 -2.64702 -1.8805 0
M  V30 1259 H 104.158 -5.10319 0.882899 0
M  V30 1260 H 100.835 -3.92802 -1.41467 0
M  V30 1261 H 102.225 -6.4995 1.70338 0
M  V30 1262 N 104.945 -0.338344 -1.53925 0
M  V30 1263 C 105.892 0.520845 -2.24846 0
M  V30 1264 C 106.862 1.09976 -1.24477 0
M  V30 1265 O 108.047 1.13735 -1.53196 0
M  V30 1266 C 105.187 1.6685 -3.02084 0
M  V30 1267 C 104.3 1.11739 -4.17299 0
M  V30 1268 C 103.435 2.23193 -4.82036 0
M  V30 1269 C 102.474 1.65407 -5.89328 0
M  V30 1270 N 101.611 2.70582 -6.47866 0
M  V30 1271 H 106.451 -0.0904881 -2.97863 0
M  V30 1272 H 103.988 -0.0564282 -1.46992 0
M  V30 1273 H 105.946 2.34407 -3.45122 0
M  V30 1274 H 104.576 2.2509 -2.31375 0
M  V30 1275 H 103.628 0.332919 -3.7894 0
M  V30 1276 H 104.94 0.654677 -4.94485 0
M  V30 1277 H 104.094 2.98626 -5.28117 0
M  V30 1278 H 102.833 2.72807 -4.04262 0
M  V30 1279 H 101.838 0.884779 -5.42634 0
M  V30 1280 H 103.063 1.16652 -6.69006 0
M  V30 1281 H 101.009 3.1946 -5.72959 0
M  V30 1282 H 100.926 2.28917 -7.20509 0
M  V30 1283 H 102.194 3.45799 -6.98601 0
M  V30 1284 N 106.423 1.57458 -0.0668435 0
M  V30 1285 C 107.669 1.93587 0.6043 0
M  V30 1286 C 108.002 0.946722 1.69561 0
M  V30 1287 O 107.277 -0.0248516 1.94484 0
M  V30 1288 C 107.56 3.40014 1.18585 0
M  V30 1289 C 107.413 4.49685 0.101529 0
M  V30 1290 C 108.732 3.87154 2.09284 0
M  V30 1291 H 105.851 0.703958 0.218202 0
M  V30 1292 H 108.493 1.89542 -0.131804 0
M  V30 1293 H 106.643 3.43592 1.81319 0
M  V30 1294 H 108.315 4.5823 -0.531279 0
M  V30 1295 H 106.558 4.30059 -0.568487 0
M  V30 1296 H 107.229 5.49266 0.54874 0
M  V30 1297 H 109.705 3.85551 1.56491 0
M  V30 1298 H 108.581 4.90231 2.46911 0
M  V30 1299 H 108.842 3.2481 2.99918 0
M  V30 1300 N 107.901 -0.206675 1.56239 0
M  V30 1301 C 108.833 -1.27997 1.9013 0
M  V30 1302 C 109.846 -1.42299 0.790883 0
M  V30 1303 O 111.035 -1.42931 1.06925 0
M  V30 1304 C 108.135 -2.65368 2.10792 0
M  V30 1305 C 107.308 -2.72824 3.41886 0
M  V30 1306 C 106.367 -3.9131 3.51799 0
M  V30 1307 O 105.393 -3.78953 4.24716 0
M  V30 1308 N 106.595 -5.06265 2.84035 0
M  V30 1309 H 109.36 -0.992444 2.82791 0
M  V30 1310 H 106.921 -0.396652 1.56966 0
M  V30 1311 H 108.913 -3.43039 2.14724 0
M  V30 1312 H 107.483 -2.86657 1.24685 0
M  V30 1313 H 106.703 -1.81515 3.49923 0
M  V30 1314 H 107.991 -2.74786 4.28217 0
M  V30 1315 H 107.389 -5.19203 2.246 0
M  V30 1316 H 105.946 -5.81925 2.93609 0
M  V30 1317 N 109.379 -1.50304 -0.473955 0
M  V30 1318 C 110.326 -1.68959 -1.57231 0
M  V30 1319 C 111.296 -0.530899 -1.57387 0
M  V30 1320 O 112.481 -0.761133 -1.74961 0
M  V30 1321 C 109.621 -1.7871 -2.95223 0
M  V30 1322 C 108.734 -3.06061 -3.04878 0
M  V30 1323 C 107.869 -3.06626 -4.33767 0
M  V30 1324 C 106.908 -4.28443 -4.37154 0
M  V30 1325 N 106.045 -4.26763 -5.5751 0
M  V30 1326 H 110.885 -2.6273 -1.40631 0
M  V30 1327 H 108.422 -1.30241 -0.683789 0
M  V30 1328 H 110.38 -1.82344 -3.75242 0
M  V30 1329 H 109.01 -0.883806 -3.10465 0
M  V30 1330 H 108.062 -3.11911 -2.17751 0
M  V30 1331 H 109.374 -3.96039 -3.0324 0
M  V30 1332 H 108.528 -3.08973 -5.22131 0
M  V30 1333 H 107.267 -2.14473 -4.3801 0
M  V30 1334 H 106.272 -4.2631 -3.47188 0
M  V30 1335 H 107.497 -5.2182 -4.34605 0
M  V30 1336 H 105.443 -3.37462 -5.62544 0
M  V30 1337 H 105.36 -5.10507 -5.57601 0
M  V30 1338 H 106.628 -4.33253 -6.48006 0
M  V30 1339 N 110.857 0.726932 -1.39834 0
M  V30 1340 C 112.097 1.4992 -1.38936 0
M  V30 1341 C 112.461 1.91996 0.0126883 0
M  V30 1342 O 113.662 2.68399 0.146715 0
M  V30 1343 C 111.933 2.70013 -2.34153 0
M  V30 1344 S 113.492 3.59563 -2.51515 0
M  V30 1345 H 110.31 0.51271 -0.492595 0
M  V30 1346 H 112.912 0.85107 -1.76003 0
M  V30 1347 H 111.616 2.37254 -3.34871 0
M  V30 1348 H 111.147 3.39748 -1.98331 0
M  V30 1349 H 113.162 4.63973 -1.75909 0
M  V30 1350 N 112.336 1.25143 0.95797 0
M  V30 1351 C 113.266 1.07711 2.07173 0
M  V30 1352 C 114.247 -0.0128462 1.70095 0
M  V30 1353 O 115.432 0.156061 1.93572 0
M  V30 1354 C 112.562 0.691503 3.40346 0
M  V30 1355 C 111.516 1.73132 3.9142 0
M  V30 1356 C 110.842 1.20049 5.21049 0
M  V30 1357 C 112.142 3.1294 4.1817 0
M  V30 1358 H 113.836 2.00873 2.22014 0
M  V30 1359 H 111.382 0.967191 1.06684 0
M  V30 1360 H 113.335 0.556505 4.17709 0
M  V30 1361 H 112.059 -0.275819 3.25433 0
M  V30 1362 H 110.718 1.8547 3.16222 0
M  V30 1363 H 110.366 0.223499 5.02503 0
M  V30 1364 H 110.066 1.89545 5.56189 0
M  V30 1365 H 111.59 1.07782 6.01012 0
M  V30 1366 H 113.004 3.03775 4.86203 0
M  V30 1367 H 111.401 3.79875 4.64559 0
M  V30 1368 H 112.471 3.6025 3.24573 0
M  V30 1369 N 113.814 -1.1601 1.06675 0
M  V30 1370 C 114.762 -2.22586 0.675157 0
M  V30 1371 C 115.756 -1.66525 -0.310766 0
M  V30 1372 O 116.962 -1.79145 -0.175215 0
M  V30 1373 H 113.337 -0.724855 0.200223 0
M  V30 1374 H 115.308 -2.52899 1.58381 0
M  V30 1375 C 114.057 -3.47604 0.0817162 0
M  V30 1376 H 113.38 -3.91058 0.831484 0
M  V30 1377 H 114.82 -4.23718 -0.154708 0
M  V30 1378 C 113.279 -3.15718 -1.17576 0
M  V30 1379 O 113.809 -3.31878 -2.26318 0
M  V30 1380 N 112.015 -2.69816 -1.07923 0
M  V30 1381 H 111.562 -2.56866 -0.194293 0
M  V30 1382 H 111.52 -2.48855 -1.92141 0
M  V30 1383 N 115.292 -0.849877 -1.32721 0
M  V30 1384 C 116.239 -0.289033 -2.28983 0
M  V30 1385 C 117.209 0.601324 -1.54833 0
M  V30 1386 O 118.394 0.537253 -1.8308 0
M  V30 1387 C 115.534 0.520623 -3.4115 0
M  V30 1388 C 114.647 -0.394989 -4.3019 0
M  V30 1389 C 113.782 0.426834 -5.29482 0
M  V30 1390 C 112.821 -0.486476 -6.10164 0
M  V30 1391 N 111.958 0.297879 -7.01468 0
M  V30 1392 H 116.798 -1.11519 -2.76347 0
M  V30 1393 H 114.335 -0.56138 -1.35967 0
M  V30 1394 H 116.293 1.00563 -4.04899 0
M  V30 1395 H 114.923 1.31165 -2.9495 0
M  V30 1396 H 113.975 -0.99836 -3.67065 0
M  V30 1397 H 115.287 -1.09612 -4.86607 0
M  V30 1398 H 114.441 0.975205 -5.98811 0
M  V30 1399 H 113.18 1.16136 -4.73671 0
M  V30 1400 H 112.185 -1.04677 -5.39743 0
M  V30 1401 H 113.41 -1.21953 -6.6806 0
M  V30 1402 H 111.356 1.01558 -6.48091 0
M  V30 1403 H 111.273 -0.344318 -7.55216 0
M  V30 1404 H 112.541 0.828131 -7.75089 0
M  V30 1405 N 116.77 1.45427 -0.607355 0
M  V30 1406 C 117.718 2.32269 0.12411 0
M  V30 1407 C 118.712 1.45955 0.859854 0
M  V30 1408 O 119.918 1.6244 0.775447 0
M  V30 1409 H 116.293 0.749691 0.0588839 0
M  V30 1410 H 118.264 2.91743 -0.626762 0
M  V30 1411 C 117.013 3.29567 1.1082 0
M  V30 1412 H 116.336 3.95978 0.551492 0
M  V30 1413 H 117.776 3.93061 1.58995 0
M  V30 1414 C 116.235 2.56722 2.18164 0
M  V30 1415 O 116.765 2.34842 3.25902 0
M  V30 1416 N 114.971 2.16861 1.93442 0
M  V30 1417 H 114.518 2.34855 1.05834 0
M  V30 1418 H 114.476 1.68444 2.65469 0
M  V30 1419 N 118.248 0.346503 1.53744 0
M  V30 1420 C 119.496 -0.248612 2.00565 0
M  V30 1421 C 119.817 -1.5083 1.23593 0
M  V30 1422 O 119.087 -1.92858 0.343912 0
M  V30 1423 H 117.667 -0.0948564 0.740953 0
M  V30 1424 H 120.329 0.468341 1.89189 0
M  V30 1425 H 119.425 -0.488994 3.08245 0
M  V30 1426 N 119.726 -1.57421 0.075193 0
M  V30 1427 C 120.975 -1.92794 -0.592731 0
M  V30 1428 C 121.288 -0.957478 -1.70563 0
M  V30 1429 O 122.494 -1.20417 -2.43335 0
M  V30 1430 C 120.95 -3.42495 -1.10569 0
M  V30 1431 C 120.558 -4.47994 -0.0236121 0
M  V30 1432 C 122.302 -3.86864 -1.74748 0
M  V30 1433 C 120.209 -5.88829 -0.550803 0
M  V30 1434 H 119.139 -0.719591 -0.225177 0
M  V30 1435 H 121.79 -1.82902 0.147978 0
M  V30 1436 H 120.172 -3.47471 -1.89947 0
M  V30 1437 H 121.346 -4.54637 0.751099 0
M  V30 1438 H 119.661 -4.13113 0.522159 0
M  V30 1439 H 122.258 -4.8947 -2.15229 0
M  V30 1440 H 122.601 -3.24417 -2.60882 0
M  V30 1441 H 123.134 -3.84504 -1.01986 0
M  V30 1442 H 119.873 -6.54929 0.273457 0
M  V30 1443 H 119.393 -5.85698 -1.29296 0
M  V30 1444 H 121.072 -6.38811 -1.02613 0
M  V30 1445 N 121.204 0.198386 -1.56346 0
M  V30 1446 C 122.134 1.24865 -1.9731 0
M  V30 1447 C 123.115 1.47651 -0.844576 0
M  V30 1448 O 124.3 1.59444 -1.10866 0
M  V30 1449 C 121.43 2.59358 -2.30977 0
M  V30 1450 C 120.384 2.5119 -3.46537 0
M  V30 1451 C 119.71 3.89926 -3.65871 0
M  V30 1452 C 121.01 2.03977 -4.80823 0
M  V30 1453 H 122.704 0.908252 -2.85291 0
M  V30 1454 H 120.25 0.435462 -1.37258 0
M  V30 1455 H 122.203 3.33011 -2.58228 0
M  V30 1456 H 120.927 2.95132 -1.39874 0
M  V30 1457 H 119.586 1.79993 -3.19371 0
M  V30 1458 H 119.234 4.23046 -2.72105 0
M  V30 1459 H 118.934 3.85336 -4.4361 0
M  V30 1460 H 120.458 4.65205 -3.95495 0
M  V30 1461 H 121.872 2.67386 -5.07127 0
M  V30 1462 H 120.269 2.10397 -5.62008 0
M  V30 1463 H 121.339 0.992861 -4.74626 0
M  V30 1464 N 122.682 1.50554 0.465978 0
M  V30 1465 C 123.629 1.6979 1.56333 0
M  V30 1466 C 124.599 0.539239 1.57103 0
M  V30 1467 O 125.784 0.770401 1.74555 0
M  V30 1468 C 122.924 1.80273 2.94271 0
M  V30 1469 C 122.037 3.07674 3.0325 0
M  V30 1470 C 121.172 3.08922 4.32135 0
M  V30 1471 C 120.211 4.30755 4.34875 0
M  V30 1472 N 119.348 4.29714 5.55239 0
M  V30 1473 H 124.188 2.63472 1.39235 0
M  V30 1474 H 121.725 1.30602 0.676873 0
M  V30 1475 H 123.683 1.84332 3.74269 0
M  V30 1476 H 122.313 0.900258 3.09992 0
M  V30 1477 H 121.365 3.13062 2.16094 0
M  V30 1478 H 122.677 3.97642 3.01135 0
M  V30 1479 H 121.831 3.11738 5.20485 0
M  V30 1480 H 120.57 2.16792 4.36866 0
M  V30 1481 H 119.575 4.28146 3.44922 0
M  V30 1482 H 120.8 5.24117 4.31831 0
M  V30 1483 H 118.746 3.4044 5.60746 0
M  V30 1484 H 118.663 5.13456 5.54886 0
M  V30 1485 H 119.931 4.36683 6.457 0
M  V30 1486 N 124.16 -0.719506 1.40217 0
M  V30 1487 C 125.09 -1.8465 1.42922 0
M  V30 1488 C 126.071 -1.67599 0.29062 0
M  V30 1489 O 127.256 -1.87688 0.498677 0
M  V30 1490 C 124.386 -3.22565 1.28722 0
M  V30 1491 C 123.34 -3.54281 2.40144 0
M  V30 1492 C 122.666 -4.91298 2.11023 0
M  V30 1493 C 123.966 -3.55676 3.82481 0
M  V30 1494 H 125.66 -1.82644 2.37237 0
M  V30 1495 H 123.206 -0.877305 1.1419 0
M  V30 1496 H 125.159 -4.01095 1.29232 0
M  V30 1497 H 123.883 -3.25137 0.308811 0
M  V30 1498 H 122.542 -2.78088 2.38877 0
M  V30 1499 H 122.19 -4.90468 1.11582 0
M  V30 1500 H 121.89 -5.13485 2.8567 0
M  V30 1501 H 123.414 -5.72166 2.13209 0
M  V30 1502 H 124.828 -4.24254 3.85592 0
M  V30 1503 H 123.225 -3.89388 4.56614 0
M  V30 1504 H 124.295 -2.55144 4.12346 0
M  V30 1505 N 125.638 -1.25649 -0.95132 0
M  V30 1506 C 126.887 -1.09988 -1.69073 0
M  V30 1507 C 127.2 0.358355 -1.92289 0
M  V30 1508 O 128.406 0.635466 -2.63958 0
M  V30 1509 C 126.862 -1.92012 -3.044 0
M  V30 1510 C 126.47 -3.42347 -2.88968 0
M  V30 1511 C 128.214 -1.8493 -3.82101 0
M  V30 1512 C 126.121 -4.16655 -4.19705 0
M  V30 1513 H 125.051 -0.407993 -0.63408 0
M  V30 1514 H 127.702 -1.49873 -1.05879 0
M  V30 1515 H 126.084 -1.44952 -3.68517 0
M  V30 1516 H 127.258 -3.97104 -2.33762 0
M  V30 1517 H 125.573 -3.50557 -2.24719 0
M  V30 1518 H 128.17 -2.37739 -4.78941 0
M  V30 1519 H 128.513 -0.817883 -4.08187 0
M  V30 1520 H 129.046 -2.29758 -3.2474 0
M  V30 1521 H 125.785 -5.20224 -3.98807 0
M  V30 1522 H 125.305 -3.66681 -4.74663 0
M  V30 1523 H 126.984 -4.24551 -4.88227 0
M  V30 1524 N 127.117 1.15442 -1.07289 0
M  V30 1525 C 128.366 1.85557 -0.790669 0
M  V30 1526 C 128.679 1.83186 0.685739 0
M  V30 1527 O 129.885 2.48977 1.0827 0
M  V30 1528 C 128.341 3.33038 -1.36433 0
M  V30 1529 C 127.949 3.43856 -2.8717 0
M  V30 1530 C 129.693 4.0834 -1.1601 0
M  V30 1531 C 127.6 4.85482 -3.3773 0
M  V30 1532 H 126.53 0.695122 -0.292098 0
M  V30 1533 H 129.181 1.30219 -1.29287 0
M  V30 1534 H 127.563 3.88043 -0.789864 0
M  V30 1535 H 128.737 2.98961 -3.50655 0
M  V30 1536 H 127.052 2.81998 -3.06376 0
M  V30 1537 H 129.649 5.12859 -1.51262 0
M  V30 1538 H 129.992 4.16182 -0.0991007 0
M  V30 1539 H 130.525 3.59603 -1.70089 0
M  V30 1540 H 127.264 4.82823 -4.43353 0
M  V30 1541 H 126.784 5.30961 -2.78999 0
M  V30 1542 H 128.463 5.54335 -3.33648 0
M  V30 1543 N 128.595 0.856903 1.32268 0
M  V30 1544 C 129.825 0.47475 2.01071 0
M  V30 1545 C 130.233 -0.933746 1.64553 0
M  V30 1546 O 129.576 -1.62114 0.863989 0
M  V30 1547 C 129.638 0.536746 3.55471 0
M  V30 1548 C 129.302 1.90453 4.15423 0
M  V30 1549 C 130.299 2.87029 4.33486 0
M  V30 1550 C 127.984 2.20229 4.51447 0
M  V30 1551 C 129.978 4.11532 4.86744 0
M  V30 1552 C 127.665 3.44984 5.0441 0
M  V30 1553 C 128.663 4.40452 5.22007 0
M  V30 1554 O 128.351 5.62998 5.73837 0
M  V30 1555 H 128.083 0.184778 0.650256 0
M  V30 1556 H 130.637 1.15615 1.69771 0
M  V30 1557 H 128.867 -0.20152 3.86175 0
M  V30 1558 H 130.556 0.169875 4.05544 0
M  V30 1559 H 131.322 2.6533 4.05986 0
M  V30 1560 H 127.201 1.46705 4.37034 0
M  V30 1561 H 130.745 4.86056 5.00395 0
M  V30 1562 H 126.642 3.66532 5.31342 0
M  V30 1563 H 127.41 5.64987 5.92226 0
M  V30 1564 N 130.073 -1.45103 0.615059 0
M  V30 1565 C 131.003 -2.33339 -0.0865619 0
M  V30 1566 C 131.984 -1.4727 -0.851209 0
M  V30 1567 O 133.169 -1.76026 -0.820281 0
M  V30 1568 C 130.299 -3.30095 -1.07956 0
M  V30 1569 C 129.253 -4.25858 -0.427628 0
M  V30 1570 C 128.579 -5.12361 -1.5294 0
M  V30 1571 C 129.879 -5.18165 0.655944 0
M  V30 1572 H 131.573 -2.92254 0.650224 0
M  V30 1573 H 129.119 -1.40532 0.314138 0
M  V30 1574 H 131.072 -3.90698 -1.57901 0
M  V30 1575 H 129.796 -2.69355 -1.84703 0
M  V30 1576 H 128.455 -3.66564 0.0510292 0
M  V30 1577 H 128.103 -4.47984 -2.28734 0
M  V30 1578 H 127.803 -5.77238 -1.09865 0
M  V30 1579 H 129.327 -5.75833 -2.03098 0
M  V30 1580 H 130.741 -5.72796 0.240257 0
M  V30 1581 H 129.138 -5.91559 1.00888 0
M  V30 1582 H 130.208 -4.60144 1.52957 0
M  V30 1583 N 131.551 -0.354651 -1.53558 0
M  V30 1584 C 132.499 0.512195 -2.26891 0
M  V30 1585 C 133.493 1.09263 -1.29452 0
M  V30 1586 O 134.699 1.03709 -1.47121 0
M  V30 1587 H 131.074 0.183878 -0.729173 0
M  V30 1588 H 133.045 -0.128202 -2.98124 0
M  V30 1589 C 131.794 1.64563 -3.06291 0
M  V30 1590 H 131.117 1.20829 -3.81104 0
M  V30 1591 H 132.557 2.22711 -3.60799 0
M  V30 1592 C 131.016 2.58158 -2.16462 0
M  V30 1593 O 131.546 3.60695 -1.76811 0
M  V30 1594 N 129.752 2.27096 -1.81317 0
M  V30 1595 H 129.299 1.43751 -2.1376 0
M  V30 1596 H 129.257 2.89975 -1.21498 0
M  V30 1597 N 133.029 1.57378 -0.0835403 0
M  V30 1598 C 133.976 2.13384 0.879539 0
M  V30 1599 C 134.946 1.04936 1.28754 0
M  V30 1600 O 136.131 1.32662 1.37133 0
M  V30 1601 C 133.271 2.70932 2.13752 0
M  V30 1602 C 132.384 3.93575 1.7811 0
M  V30 1603 C 131.519 4.39326 2.98607 0
M  V30 1604 C 130.558 5.54587 2.59037 0
M  V30 1605 N 129.695 5.95243 3.72331 0
M  V30 1606 H 134.535 2.9537 0.395076 0
M  V30 1607 H 132.072 1.45953 0.183349 0
M  V30 1608 H 134.03 3.02411 2.87408 0
M  V30 1609 H 132.66 1.91693 2.59718 0
M  V30 1610 H 131.712 3.68483 0.94469 0
M  V30 1611 H 133.024 4.77258 1.45005 0
M  V30 1612 H 132.178 4.72528 3.80529 0
M  V30 1613 H 130.917 3.5452 3.34913 0
M  V30 1614 H 129.922 5.21024 1.75539 0
M  V30 1615 H 131.147 6.41133 2.23887 0
M  V30 1616 H 129.093 5.13385 4.08378 0
M  V30 1617 H 129.01 6.73694 3.43034 0
M  V30 1618 H 130.278 6.33072 4.54797 0
M  V30 1619 N 134.507 -0.190092 1.56449 0
M  V30 1620 C 135.455 -1.25501 1.95837 0
M  V30 1621 C 136.449 -1.4685 0.844485 0
M  V30 1622 O 137.655 -1.47651 1.02952 0
M  V30 1623 H 134.03 -0.421447 0.622805 0
M  V30 1624 H 136.001 -0.895821 2.84636 0
M  V30 1625 C 134.75 -2.59124 2.31841 0
M  V30 1626 H 134.073 -2.43514 3.17082 0
M  V30 1627 H 135.513 -3.32371 2.6326 0
M  V30 1628 C 133.972 -3.16488 1.15486 0
M  V30 1629 O 134.502 -3.99365 0.432535 0
M  V30 1630 N 132.708 -2.75305 0.930349 0
M  V30 1631 H 132.255 -2.08013 1.51948 0
M  V30 1632 H 132.213 -3.14024 0.153634 0
M  V30 1633 N 135.985 -1.50799 -0.457987 0
M  V30 1634 C 137.262 -1.52968 -1.21902 0
M  V30 1635 C 137.642 -0.281906 -2.09209 0
M  V30 1636 O 136.99 0.734076 -2.16388 0
M  V30 1637 C 137.2 -2.8326 -2.03875 0
M  V30 1638 C 138.548 -3.34425 -2.6162 0
M  V30 1639 O 139.572 -2.8467 -2.14106 0
M  V30 1640 O 138.431 -4.21188 -3.48228 0
M  V30 1641 H 135.525 -0.614129 -0.553873 0
M  V30 1642 H 138.071 -1.63098 -0.468739 0
M  V30 1643 H 136.843 -3.65543 -1.39621 0
M  V30 1644 H 136.466 -2.76195 -2.8601 0
M  V30 1645 N 137.463 0.71206 -1.40597 0
M  V30 1646 C 138.709 1.47416 -1.39271 0
M  V30 1647 C 139.042 1.942 0.00388791 0
M  V30 1648 O 138.317 1.68403 0.973179 0
M  V30 1649 C 138.6 2.69774 -2.38525 0
M  V30 1650 C 138.453 2.28861 -3.87224 0
M  V30 1651 C 139.772 3.71939 -2.35264 0
M  V30 1652 H 136.891 0.534713 -0.5072 0
M  V30 1653 H 139.533 0.812375 -1.71757 0
M  V30 1654 H 137.683 3.26238 -2.10953 0
M  V30 1655 H 139.355 1.77852 -4.25636 0
M  V30 1656 H 137.598 1.60824 -4.02887 0
M  V30 1657 H 138.269 3.16584 -4.52193 0
M  V30 1658 H 140.745 3.25113 -2.59694 0
M  V30 1659 H 139.621 4.55186 -3.06753 0
M  V30 1660 H 139.882 4.20484 -1.36549 0
M  V30 1661 N 138.941 1.26152 0.944643 0
M  V30 1662 C 140.19 1.10883 1.68487 0
M  V30 1663 C 140.503 -0.348153 1.92477 0
M  V30 1664 O 141.709 -0.621459 2.64292 0
M  V30 1665 C 140.165 1.93624 3.03377 0
M  V30 1666 C 139.773 3.43875 2.87148 0
M  V30 1667 C 141.517 1.86954 3.81115 0
M  V30 1668 C 139.424 4.18875 4.1749 0
M  V30 1669 H 138.354 0.41135 0.631907 0
M  V30 1670 H 141.005 1.50433 1.05082 0
M  V30 1671 H 139.387 1.46904 3.67743 0
M  V30 1672 H 140.561 3.98338 2.31653 0
M  V30 1673 H 138.876 3.51744 2.22856 0
M  V30 1674 H 141.473 2.40275 4.77673 0
M  V30 1675 H 141.816 0.839518 4.07747 0
M  V30 1676 H 142.349 2.31477 3.23517 0
M  V30 1677 H 139.088 5.22332 3.96043 0
M  V30 1678 H 138.608 3.69193 4.72712 0
M  V30 1679 H 140.287 4.27134 4.85968 0
M  V30 1680 N 140.419 -1.14872 1.07899 0
M  V30 1681 C 141.647 -1.89661 0.82683 0
M  V30 1682 C 142.062 -1.78312 -0.620519 0
M  V30 1683 O 141.419 -1.13888 -1.42604 0
M  V30 1684 C 141.47 -3.39817 1.23316 0
M  V30 1685 O 141.191 -3.50845 2.62372 0
M  V30 1686 C 142.692 -4.31615 1.0111 0
M  V30 1687 H 139.912 -0.60092 0.298557 0
M  V30 1688 H 142.456 -1.4551 1.43691 0
M  V30 1689 H 140.611 -3.8161 0.667286 0
M  V30 1690 H 141.025 -4.44076 2.79101 0
M  V30 1691 H 142.499 -5.35367 1.34486 0
M  V30 1692 H 142.976 -4.39169 -0.0522168 0
M  V30 1693 H 143.582 -3.95572 1.56215 0
M  V30 1694 N 141.898 -0.863906 -1.31812 0
M  V30 1695 C 143.309 -0.52522 -1.7916 0
M  V30 1696 C 143.66 0.957518 -1.71248 0
M  V30 1697 O 142.785 1.74734 -1.27659 0
M  V30 1698 C 143.38 -0.9466 -3.25307 0
M  V30 1699 C 141.939 -0.659668 -3.70574 0
M  V30 1700 C 141.086 -1.14126 -2.52726 0
M  V30 1701 H 144.037 -1.05022 -1.1898 0
M  V30 1702 H 144.058 -0.266766 -3.79564 0
M  V30 1703 H 143.57 -2.02579 -3.31034 0
M  V30 1704 H 141.671 0.408416 -3.70355 0
M  V30 1705 H 141.784 -1.23245 -4.62977 0
M  V30 1706 H 140.148 -0.561216 -2.4844 0
M  V30 1707 H 140.931 -2.22775 -2.61201 0
M  V30 1708 N 143.376 1.44774 -0.622745 0
M  V30 1709 C 144.653 1.95522 -0.0551974 0
M  V30 1710 C 145.033 1.5649 1.41683 0
M  V30 1711 O 144.381 0.834848 2.12703 0
M  V30 1712 C 144.591 3.4796 -0.269242 0
M  V30 1713 C 145.939 4.24306 -0.158014 0
M  V30 1714 O 146.963 3.55637 -0.200162 0
M  V30 1715 O 145.822 5.46471 -0.0558693 0
M  V30 1716 H 142.916 0.826556 0.0271015 0
M  V30 1717 H 145.462 1.54866 -0.693864 0
M  V30 1718 H 144.234 3.6939 -1.29099 0
M  V30 1719 H 143.857 3.95543 0.403966 0
M  V30 1720 N 144.854 0.36279 1.53368 0
M  V30 1721 C 145.801 -0.485008 2.25646 0
M  V30 1722 C 146.771 -1.07982 1.2621 0
M  V30 1723 O 147.956 -1.11284 1.54986 0
M  V30 1724 C 145.096 -1.62023 3.04701 0
M  V30 1725 C 144.209 -1.05086 4.19024 0
M  V30 1726 C 143.344 -2.15496 4.85525 0
M  V30 1727 C 142.383 -1.5601 5.91884 0
M  V30 1728 N 141.52 -2.60241 6.52088 0
M  V30 1729 H 146.36 0.137864 2.97681 0
M  V30 1730 H 143.897 0.0798061 1.46883 0
M  V30 1731 H 145.855 -2.28887 3.48807 0
M  V30 1732 H 144.485 -2.2138 2.34927 0
M  V30 1733 H 143.537 -0.27259 3.79422 0
M  V30 1734 H 144.849 -0.575926 4.95464 0
M  V30 1735 H 144.003 -2.90186 5.32801 0
M  V30 1736 H 142.742 -2.66341 4.08551 0
M  V30 1737 H 141.747 -0.798338 5.43973 0
M  V30 1738 H 142.972 -1.05994 6.70777 0
M  V30 1739 H 140.918 -3.10304 5.77968 0
M  V30 1740 H 140.835 -2.17426 7.24059 0
M  V30 1741 H 142.103 -3.34641 7.04014 0
M  V30 1742 N 146.332 -1.57332 0.0918853 0
M  V30 1743 C 147.282 -2.10385 -0.87876 0
M  V30 1744 C 148.266 -1.01814 -1.24591 0
M  V30 1745 O 149.458 -1.28093 -1.22152 0
M  V30 1746 C 146.587 -2.68517 -2.13901 0
M  V30 1747 C 145.673 -3.84126 -1.79744 0
M  V30 1748 N 146.064 -4.92288 -1.1613 0
M  V30 1749 C 144.362 -3.93801 -2.09373 0
M  V30 1750 C 145.063 -5.7295 -1.00513 0
M  V30 1751 N 144.039 -5.21876 -1.5214 0
M  V30 1752 H 147.841 -2.91395 -0.38293 0
M  V30 1753 H 145.355 -1.62017 -0.111423 0
M  V30 1754 H 147.352 -3.04852 -2.84378 0
M  V30 1755 H 146.012 -1.88961 -2.64053 0
M  V30 1756 H 147.023 -5.1123 -0.828504 0
M  V30 1757 H 143.7 -3.25249 -2.61762 0
M  V30 1758 H 145.09 -6.69978 -0.507902 0
M  V30 1759 N 147.81 0.181792 -1.56548 0
M  V30 1760 C 148.72 1.24538 -1.98815 0
M  V30 1761 C 149.736 1.49045 -0.897861 0
M  V30 1762 O 150.912 1.61399 -1.20467 0
M  V30 1763 C 147.977 2.56683 -2.33055 0
M  V30 1764 C 147.038 2.40131 -3.55859 0
M  V30 1765 C 146.271 3.65975 -3.88456 0
M  V30 1766 O 146.494 4.70711 -3.22161 0
M  V30 1767 O 145.428 3.6071 -4.81842 0
M  V30 1768 H 149.254 0.916647 -2.89536 0
M  V30 1769 H 146.839 0.387842 -1.44278 0
M  V30 1770 H 148.721 3.34655 -2.56094 0
M  V30 1771 H 147.396 2.89157 -1.45498 0
M  V30 1772 H 146.303 1.60226 -3.38051 0
M  V30 1773 H 147.636 2.12585 -4.43924 0
M  V30 1774 N 149.288 1.51039 0.449983 0
M  V30 1775 C 150.236 1.71995 1.5659 0
M  V30 1776 C 151.23 0.586029 1.5894 0
M  V30 1777 O 152.436 0.76709 1.62837 0
M  V30 1778 H 148.811 0.543233 0.520001 0
M  V30 1779 H 150.782 2.65562 1.36085 0
M  V30 1780 C 149.531 1.8506 2.9436 0
M  V30 1781 H 148.854 2.71712 2.93279 0
M  V30 1782 H 150.294 2.0374 3.71842 0
M  V30 1783 C 148.753 0.607277 3.31382 0
M  V30 1784 O 149.283 -0.243903 4.00959 0
M  V30 1785 N 147.489 0.455073 2.87015 0
M  V30 1786 H 147.036 1.14879 2.30566 0
M  V30 1787 H 146.994 -0.375611 3.12148 0
M  V30 1788 N 150.766 -0.704594 1.40972 0
M  V30 1789 C 151.713 -1.81862 1.42109 0
M  V30 1790 C 152.683 -1.63781 0.276593 0
M  V30 1791 O 153.868 -1.84759 0.4763 0
M  V30 1792 C 151.008 -3.19669 1.30022 0
M  V30 1793 C 150.121 -3.49246 2.54267 0
M  V30 1794 C 149.256 -4.76618 2.3454 0
M  V30 1795 C 148.295 -4.99133 3.54306 0
M  V30 1796 N 147.432 -6.17726 3.33706 0
M  V30 1797 H 152.272 -1.80226 2.37324 0
M  V30 1798 H 149.809 -0.880238 1.17857 0
M  V30 1799 H 151.767 -3.99263 1.21018 0
M  V30 1800 H 150.397 -3.20506 0.384192 0
M  V30 1801 H 149.449 -2.64125 2.73756 0
M  V30 1802 H 150.761 -3.61788 3.43381 0
M  V30 1803 H 149.915 -5.64249 2.22952 0
M  V30 1804 H 148.654 -4.66305 1.42867 0
M  V30 1805 H 147.659 -4.09953 3.66359 0
M  V30 1806 H 148.884 -5.11311 4.4692 0
M  V30 1807 H 146.83 -6.08642 2.44725 0
M  V30 1808 H 146.747 -6.30995 4.16391 0
M  V30 1809 H 148.015 -7.08115 3.25873 0
M  V30 1810 N 152.244 -1.26651 -0.937939 0
M  V30 1811 C 153.192 -1.08308 -2.05845 0
M  V30 1812 C 154.186 -0.0090757 -1.69398 0
M  V30 1813 O 155.392 -0.166007 -1.79233 0
M  V30 1814 H 151.767 -0.333416 -0.674046 0
M  V30 1815 H 153.738 -2.03261 -2.18467 0
M  V30 1816 C 152.487 -0.736229 -3.39816 0
M  V30 1817 H 151.81 -1.55453 -3.6834 0
M  V30 1818 H 153.25 -0.64769 -4.19024 0
M  V30 1819 C 151.709 0.558824 -3.32233 0
M  V30 1820 O 152.239 1.59621 -3.68624 0
M  V30 1821 N 150.445 0.550657 -2.85335 0
M  V30 1822 H 149.992 -0.293943 -2.55917 0
M  V30 1823 H 149.95 1.41726 -2.80644 0
M  V30 1824 N 153.722 1.14298 -1.08507 0
M  V30 1825 C 154.67 2.21483 -0.710483 0
M  V30 1826 C 155.664 1.66998 0.284234 0
M  V30 1827 O 156.87 1.79401 0.146692 0
M  V30 1828 H 153.245 0.721578 -0.211729 0
M  V30 1829 H 155.216 2.50348 -1.62384 0
M  V30 1830 C 153.965 3.4743 -0.137007 0
M  V30 1831 H 153.288 3.89686 -0.893592 0
M  V30 1832 H 154.728 4.2391 0.0872789 0
M  V30 1833 C 153.187 3.17548 1.12538 0
M  V30 1834 O 153.717 3.35437 2.21009 0
M  V30 1835 N 151.923 2.71499 1.03617 0
M  V30 1836 H 151.47 2.57143 0.153403 0
M  V30 1837 H 151.428 2.51881 1.88158 0
M  V30 1838 N 155.201 0.870884 1.31352 0
M  V30 1839 C 156.149 0.316445 2.30437 0
M  V30 1840 C 157.143 -0.568965 1.59559 0
M  V30 1841 O 158.349 -0.454964 1.74155 0
M  V30 1842 H 154.724 0.0836521 0.747333 0
M  V30 1843 H 156.695 1.16606 2.74673 0
M  V30 1844 C 155.444 -0.46635 3.44558 0
M  V30 1845 H 154.767 0.205687 3.99271 0
M  V30 1846 H 156.207 -0.819614 4.16003 0
M  V30 1847 C 154.666 -1.65797 2.9328 0
M  V30 1848 O 155.196 -2.75728 2.92125 0
M  V30 1849 N 153.402 -1.49041 2.4947 0
M  V30 1850 H 152.949 -0.59612 2.50608 0
M  V30 1851 H 152.907 -2.28911 2.15516 0
M  V30 1852 N 156.679 -1.44442 0.630414 0
M  V30 1853 C 157.956 -1.9549 0.0655657 0
M  V30 1854 C 158.336 -1.5724 -1.40851 0
M  V30 1855 O 157.684 -0.846116 -2.12257 0
M  V30 1856 C 157.894 -3.47812 0.287691 0
M  V30 1857 C 159.242 -4.24216 0.180513 0
M  V30 1858 O 160.266 -3.55526 0.219019 0
M  V30 1859 O 159.125 -5.46434 0.0848493 0
M  V30 1860 H 156.219 -0.826688 -0.0227177 0
M  V30 1861 H 158.765 -1.54496 0.702068 0
M  V30 1862 H 157.537 -3.687 1.31056 0
M  V30 1863 H 157.16 -3.95751 -0.382984 0
M  V30 1864 N 158.157 -0.370918 -1.53173 0
M  V30 1865 C 159.406 0.218249 -2.00516 0
M  V30 1866 C 159.719 1.49429 -1.26215 0
M  V30 1867 O 160.925 2.16239 -1.64174 0
M  V30 1868 C 159.381 0.43948 -3.57207 0
M  V30 1869 C 158.989 -0.822244 -4.4039 0
M  V30 1870 C 160.733 0.986012 -4.1289 0
M  V30 1871 C 158.64 -0.570304 -5.88644 0
M  V30 1872 H 157.57 0.0853333 -0.749156 0
M  V30 1873 H 160.221 -0.490483 -1.76823 0
M  V30 1874 H 158.603 1.20961 -3.77074 0
M  V30 1875 H 159.777 -1.59557 -4.32294 0
M  V30 1876 H 158.092 -1.29238 -3.95836 0
M  V30 1877 H 160.689 1.18991 -5.21292 0
M  V30 1878 H 161.032 1.94972 -3.6782 0
M  V30 1879 H 161.565 0.27592 -3.96842 0
M  V30 1880 H 158.304 -1.50449 -6.38001 0
M  V30 1881 H 157.824 0.164427 -5.99575 0
M  V30 1882 H 159.503 -0.19784 -6.46697 0
M  V30 1883 N 159.635 1.57281 -0.100228 0
M  V30 1884 C 160.582 2.14305 0.856858 0
M  V30 1885 C 161.552 1.06296 1.27634 0
M  V30 1886 O 162.737 1.34109 1.35718 0
M  V30 1887 C 159.877 2.73184 2.10866 0
M  V30 1888 C 158.99 3.95442 1.73925 0
M  V30 1889 C 158.125 4.42468 2.93931 0
M  V30 1890 C 157.164 5.57303 2.5314 0
M  V30 1891 N 156.301 5.99158 3.65997 0
M  V30 1892 H 161.141 2.95772 0.363726 0
M  V30 1893 H 158.678 1.46139 0.167858 0
M  V30 1894 H 160.636 3.05442 2.84185 0
M  V30 1895 H 159.266 1.94437 2.57671 0
M  V30 1896 H 158.318 3.69464 0.905554 0
M  V30 1897 H 159.63 4.78769 1.39935 0
M  V30 1898 H 158.784 4.76537 3.75496 0
M  V30 1899 H 157.523 3.58052 3.31134 0
M  V30 1900 H 156.528 5.22857 1.70003 0
M  V30 1901 H 157.753 6.43471 2.17075 0
M  V30 1902 H 155.699 5.17687 4.02909 0
M  V30 1903 H 155.616 6.77295 3.35869 0
M  V30 1904 H 156.884 6.3786 4.48057 0
M  V30 1905 N 161.113 -0.173488 1.56642 0
M  V30 1906 C 162.359 -0.891784 1.8214 0
M  V30 1907 C 162.692 -1.8199 0.677736 0
M  V30 1908 O 161.967 -1.91842 -0.320446 0
M  V30 1909 C 162.25 -1.68933 3.18015 0
M  V30 1910 C 162.103 -0.784487 4.42906 0
M  V30 1911 C 163.422 -2.65748 3.50808 0
M  V30 1912 H 160.541 -0.322761 0.662567 0
M  V30 1913 H 163.183 -0.158095 1.89341 0
M  V30 1914 H 161.333 -2.31482 3.12007 0
M  V30 1915 H 163.005 -0.172046 4.60979 0
M  V30 1916 H 161.248 -0.0924117 4.33702 0
M  V30 1917 H 161.919 -1.37799 5.34524 0
M  V30 1918 H 164.395 -2.13327 3.57255 0
M  V30 1919 H 163.271 -3.18619 4.4696 0
M  V30 1920 H 163.532 -3.45842 2.75401 0
M  V30 1921 N 162.591 -1.51276 -0.441967 0
M  V30 1922 C 163.539 -1.72823 -1.55676 0
M  V30 1923 C 164.533 -0.59445 -1.58627 0
M  V30 1924 O 165.739 -0.775715 -1.62427 0
M  V30 1925 H 162.114 -0.545983 -0.517113 0
M  V30 1926 H 164.085 -2.6628 -1.34675 0
M  V30 1927 C 162.834 -1.86619 -2.93375 0
M  V30 1928 H 162.157 -2.73264 -2.91834 0
M  V30 1929 H 163.597 -2.05709 -3.70756 0
M  V30 1930 C 162.056 -0.624842 -3.31055 0
M  V30 1931 O 162.586 0.222636 -4.01083 0
M  V30 1932 N 160.792 -0.470288 -2.86769 0
M  V30 1933 H 160.339 -1.161 -2.29953 0
M  V30 1934 H 160.297 0.359051 -3.12343 0
M  V30 1935 N 164.069 0.697108 -1.41344 0
M  V30 1936 C 165.318 1.45279 -1.39918 0
M  V30 1937 C 165.631 1.95597 -0.0109624 0
M  V30 1938 O 166.837 2.71208 0.125919 0
M  V30 1939 C 165.293 2.62695 -2.46007 0
M  V30 1940 C 164.901 2.19169 -3.90729 0
M  V30 1941 C 166.645 3.40336 -2.53715 0
M  V30 1942 C 164.552 3.33535 -4.88373 0
M  V30 1943 H 163.482 0.545692 -0.520323 0
M  V30 1944 H 166.133 0.756929 -1.67161 0
M  V30 1945 H 164.515 3.34541 -2.11892 0
M  V30 1946 H 165.689 1.54623 -4.34083 0
M  V30 1947 H 164.004 1.54525 -3.86666 0
M  V30 1948 H 166.601 4.2547 -3.2385 0
M  V30 1949 H 166.944 3.85418 -1.5735 0
M  V30 1950 H 167.477 2.75546 -2.86913 0
M  V30 1951 H 164.216 2.93468 -5.86137 0
M  V30 1952 H 163.736 3.96936 -4.49668 0
M  V30 1953 H 165.415 3.99335 -5.09059 0
M  V30 1954 N 165.547 1.27147 0.931209 0
M  V30 1955 C 166.824 1.0401 1.65654 0
M  V30 1956 C 167.204 -0.426297 2.06751 0
M  V30 1957 O 166.552 -1.40879 1.79904 0
M  V30 1958 C 166.762 1.99834 2.86125 0
M  V30 1959 C 168.11 2.29007 3.57549 0
M  V30 1960 O 169.134 1.97779 2.96246 0
M  V30 1961 O 167.993 2.82222 4.67989 0
M  V30 1962 H 165.087 0.396239 0.725895 0
M  V30 1963 H 167.633 1.38397 0.982056 0
M  V30 1964 H 166.405 2.98744 2.52721 0
M  V30 1965 H 166.028 1.65987 3.61295 0
M  V30 1966 N 167.025 -1.13721 1.09112 0
M  V30 1967 C 167.957 -2.1871 0.685467 0
M  V30 1968 C 168.97 -1.60527 -0.271068 0
M  V30 1969 O 170.159 -1.78407 -0.0576148 0
M  V30 1970 C 167.259 -3.38898 -0.0111255 0
M  V30 1971 C 166.432 -4.26597 0.966131 0
M  V30 1972 C 165.491 -5.25324 0.303539 0
M  V30 1973 O 164.517 -5.61213 0.950177 0
M  V30 1974 N 165.719 -5.72779 -0.943651 0
M  V30 1975 H 168.484 -2.54126 1.58871 0
M  V30 1976 H 166.045 -1.29012 0.978143 0
M  V30 1977 H 168.037 -4.02014 -0.465517 0
M  V30 1978 H 166.607 -3.01747 -0.816565 0
M  V30 1979 H 165.827 -3.60306 1.59917 0
M  V30 1980 H 167.115 -4.82048 1.6281 0
M  V30 1981 H 166.513 -5.45762 -1.48862 0
M  V30 1982 H 165.07 -6.37847 -1.34142 0
M  V30 1983 N 168.503 -0.877838 -1.30888 0
M  V30 1984 C 169.45 -0.337538 -2.28318 0
M  V30 1985 C 170.42 0.568346 -1.56074 0
M  V30 1986 O 171.605 0.498298 -1.84178 0
M  V30 1987 C 168.745 0.448142 -3.42178 0
M  V30 1988 C 167.858 -0.48615 -4.29256 0
M  V30 1989 C 166.993 0.314427 -5.30269 0
M  V30 1990 C 166.032 -0.615791 -6.08995 0
M  V30 1991 N 165.169 0.14902 -7.01942 0
M  V30 1992 H 170.009 -1.17356 -2.73919 0
M  V30 1993 H 167.546 -0.590094 -1.34745 0
M  V30 1994 H 169.504 0.919517 -4.06941 0
M  V30 1995 H 168.134 1.24879 -2.97666 0
M  V30 1996 H 167.186 -1.076 -3.64865 0
M  V30 1997 H 168.498 -1.19909 -4.84173 0
M  V30 1998 H 167.652 0.847969 -6.00745 0
M  V30 1999 H 166.391 1.06062 -4.76027 0
M  V30 2000 H 165.396 -1.16102 -5.37401 0
M  V30 2001 H 166.621 -1.36097 -6.65323 0
M  V30 2002 H 164.567 0.877884 -6.50099 0
M  V30 2003 H 164.484 -0.504433 -7.54315 0
M  V30 2004 H 165.752 0.663537 -7.76671 0
M  V30 2005 N 169.982 1.44106 -0.638065 0
M  V30 2006 C 171.259 1.95453 -0.0759321 0
M  V30 2007 C 171.639 1.57984 1.40015 0
M  V30 2008 O 170.987 0.857361 2.11806 0
M  V30 2009 C 171.197 3.47655 -0.306132 0
M  V30 2010 C 172.545 4.24114 -0.203008 0
M  V30 2011 O 173.569 3.55405 -0.237871 0
M  V30 2012 O 172.428 5.46381 -0.113827 0
M  V30 2013 H 169.522 0.826797 0.0183332 0
M  V30 2014 H 172.068 1.54122 -0.710251 0
M  V30 2015 H 170.84 3.68 -1.3301 0
M  V30 2016 H 170.463 3.95949 0.361991 0
M  V30 2017 N 171.46 0.379036 1.52974 0
M  V30 2018 C 172.69 -0.20649 2.05566 0
M  V30 2019 C 173.098 -1.41906 1.25137 0
M  V30 2020 O 172.441 -1.81421 0.288464 0
M  V30 2021 C 172.503 -0.651086 3.53555 0
M  V30 2022 C 172.167 0.446626 4.54812 0
M  V30 2023 C 173.164 1.30079 5.03364 0
M  V30 2024 C 170.849 0.610719 4.98573 0
M  V30 2025 C 172.843 2.30426 5.94292 0
M  V30 2026 C 170.53 1.61754 5.89304 0
M  V30 2027 C 171.528 2.46274 6.37054 0
M  V30 2028 O 171.216 3.45237 7.25994 0
M  V30 2029 H 170.948 -0.0372381 0.674974 0
M  V30 2030 H 173.502 0.539718 1.98182 0
M  V30 2031 H 171.732 -1.44911 3.58522 0
M  V30 2032 H 173.421 -1.16112 3.88938 0
M  V30 2033 H 174.187 1.18527 4.70294 0
M  V30 2034 H 170.066 -0.0374044 4.60985 0
M  V30 2035 H 173.61 2.96432 6.31485 0
M  V30 2036 H 169.507 1.73348 6.21788 0
M  V30 2037 H 170.275 3.41124 7.44027 0
M  V30 2038 N 172.938 -1.57226 0.108567 0
M  V30 2039 C 174.178 -1.96717 -0.555155 0
M  V30 2040 C 174.542 -0.990003 -1.64508 0
M  V30 2041 O 175.743 -1.2739 -2.36696 0
M  V30 2042 C 174.014 -3.40575 -1.08367 0
M  V30 2043 S 175.573 -4.02072 -1.75737 0
M  V30 2044 H 172.391 -0.687638 -0.180762 0
M  V30 2045 H 174.993 -1.94563 0.191172 0
M  V30 2046 H 173.697 -4.0945 -0.279092 0
M  V30 2047 H 173.228 -3.46356 -1.86551 0
M  V30 2048 H 175.243 -3.91977 -3.04251 0
M  V30 2049 N 174.416 0.165178 -1.56732 0
M  V30 2050 C 175.326 1.22423 -2.00125 0
M  V30 2051 C 176.342 1.48084 -0.913619 0
M  V30 2052 O 177.518 1.60112 -1.22172 0
M  V30 2053 C 174.583 2.54197 -2.35764 0
M  V30 2054 C 173.644 2.36343 -3.58386 0
M  V30 2055 C 172.877 3.61834 -3.92316 0
M  V30 2056 O 173.1 4.67267 -3.27135 0
M  V30 2057 O 172.034 3.55579 -4.85641 0
M  V30 2058 H 175.86 0.885886 -2.90492 0
M  V30 2059 H 173.445 0.372518 -1.44681 0
M  V30 2060 H 175.327 3.3192 -2.59629 0
M  V30 2061 H 174.002 2.87598 -1.48557 0
M  V30 2062 H 172.909 1.56632 -3.39731 0
M  V30 2063 H 174.242 2.07865 -4.46154 0
M  V30 2064 N 175.894 1.51508 0.433938 0
M  V30 2065 C 176.842 1.73646 1.54757 0
M  V30 2066 C 177.836 0.602854 1.5831 0
M  V30 2067 O 179.042 0.784318 1.62014 0
M  V30 2068 H 175.417 0.548718 0.51421 0
M  V30 2069 H 177.388 2.66991 1.33261 0
M  V30 2070 C 176.137 1.88172 2.92381 0
M  V30 2071 H 175.46 2.74808 2.90381 0
M  V30 2072 H 176.9 2.07672 3.6966 0
M  V30 2073 C 175.359 0.64239 3.30719 0
M  V30 2074 O 175.889 -0.201362 4.01195 0
M  V30 2075 N 174.095 0.485489 2.86516 0
M  V30 2076 H 173.642 1.17318 2.29334 0
M  V30 2077 H 173.6 -0.342482 3.12529 0
M  V30 2078 N 177.372 -0.689602 1.41712 0
M  V30 2079 C 178.602 -1.47613 1.44548 0
M  V30 2080 C 179.01 -1.89132 0.0509034 0
M  V30 2081 O 178.353 -1.57741 -0.94146 0
M  V30 2082 C 178.415 -2.76596 2.2964 0
M  V30 2083 C 178.079 -2.57245 3.77722 0
M  V30 2084 C 179.076 -2.22804 4.69739 0
M  V30 2085 C 176.761 -2.727 4.2183 0
M  V30 2086 C 178.755 -2.04064 6.03851 0
M  V30 2087 C 176.442 -2.53576 5.56006 0
M  V30 2088 C 177.44 -2.1931 6.46832 0
M  V30 2089 O 177.128 -2.00359 7.78532 0
M  V30 2090 H 176.86 -0.461227 0.494212 0
M  V30 2091 H 179.414 -0.856045 1.86711 0
M  V30 2092 H 177.644 -3.41033 1.82301 0
M  V30 2093 H 179.333 -3.38424 2.24107 0
M  V30 2094 H 180.099 -2.10473 4.36951 0
M  V30 2095 H 175.978 -2.98353 3.51435 0
M  V30 2096 H 179.522 -1.77241 6.74708 0
M  V30 2097 H 175.419 -2.65499 5.88371 0
M  V30 2098 H 176.187 -2.15075 7.89737 0
M  V30 2099 N 178.85 -1.27639 -0.924453 0
M  V30 2100 C 180.099 -1.13549 -1.66702 0
M  V30 2101 C 180.412 0.317487 -1.93006 0
M  V30 2102 O 181.618 0.579333 -2.65247 0
M  V30 2103 C 180.074 -1.98426 -3.00259 0
M  V30 2104 C 179.682 -3.484 -2.81641 0
M  V30 2105 C 181.426 -1.92993 -3.78092 0
M  V30 2106 C 179.333 -4.25464 -4.10773 0
M  V30 2107 H 178.263 -0.421351 -0.625283 0
M  V30 2108 H 180.914 -1.52085 -1.02676 0
M  V30 2109 H 179.296 -1.52736 -3.6536 0
M  V30 2110 H 180.47 -4.01973 -2.25287 0
M  V30 2111 H 178.785 -3.55245 -2.17232 0
M  V30 2112 H 181.382 -2.47844 -4.7379 0
M  V30 2113 H 181.725 -0.904281 -4.0636 0
M  V30 2114 H 182.258 -2.36595 -3.19793 0
M  V30 2115 H 178.997 -5.28566 -3.87683 0
M  V30 2116 H 178.517 -3.76667 -4.66779 0
M  V30 2117 H 180.196 -4.34812 -4.79111 0
M  V30 2118 N 180.328 1.1314 -1.09713 0
M  V30 2119 C 181.276 2.20717 -0.733934 0
M  V30 2120 C 182.27 1.6729 0.266506 0
M  V30 2121 O 183.476 1.79547 0.127656 0
M  V30 2122 H 179.851 0.719292 -0.21937 0
M  V30 2123 H 181.822 2.48611 -1.6503 0
M  V30 2124 C 180.571 3.47265 -0.173849 0
M  V30 2125 H 179.894 3.88716 -0.934873 0
M  V30 2126 H 181.334 4.23979 0.0423126 0
M  V30 2127 C 179.793 3.18724 1.09164 0
M  V30 2128 O 180.323 3.37762 2.17439 0
M  V30 2129 N 178.529 2.72583 1.00732 0
M  V30 2130 H 178.076 2.57291 0.126121 0
M  V30 2131 H 178.034 2.53862 1.85476 0
M  V30 2132 N 181.806 0.884767 1.30421 0
M  V30 2133 C 183.083 0.423185 1.90967 0
M  V30 2134 C 183.463 -1.09605 1.80416 0
M  V30 2135 O 182.811 -1.93126 1.22125 0
M  V30 2136 C 183.021 0.921056 3.36627 0
M  V30 2137 C 184.369 0.955903 4.137 0
M  V30 2138 O 185.393 0.867706 3.4547 0
M  V30 2139 O 184.252 1.08614 5.35598 0
M  V30 2140 H 181.346 0.129369 0.816819 0
M  V30 2141 H 183.892 0.973653 1.3899 0
M  V30 2142 H 182.664 1.96489 3.3839 0
M  V30 2143 H 182.287 0.349741 3.96059 0
M  V30 2144 N 183.284 -1.43765 0.645699 0
M  V30 2145 C 184.533 -2.01116 0.153412 0
M  V30 2146 C 184.846 -1.51493 -1.23731 0
M  V30 2147 O 186.052 -2.01067 -1.8244 0
M  V30 2148 C 184.508 -3.59206 0.223473 0
M  V30 2149 C 184.116 -4.17823 1.61642 0
M  V30 2150 C 185.86 -4.23972 -0.211597 0
M  V30 2151 C 183.767 -5.68183 1.64081 0
M  V30 2152 H 182.697 -0.752093 0.0535891 0
M  V30 2153 H 185.348 -1.6482 0.806633 0
M  V30 2154 H 183.73 -3.92867 -0.497118 0
M  V30 2155 H 184.904 -3.95674 2.36176 0
M  V30 2156 H 183.219 -3.65399 1.99681 0
M  V30 2157 H 185.816 -5.34275 -0.213112 0
M  V30 2158 H 186.159 -3.97352 -1.24165 0
M  V30 2159 H 186.692 -3.95166 0.456988 0
M  V30 2160 H 183.431 -5.99559 2.64971 0
M  V30 2161 H 182.951 -5.9241 0.938611 0
M  V30 2162 H 184.63 -6.32085 1.3812 0
M  V30 2163 N 184.763 -0.387143 -1.52771 0
M  V30 2164 C 186.01 0.195735 -2.01552 0
M  V30 2165 C 186.338 1.46995 -1.27369 0
M  V30 2166 O 185.593 1.92325 -0.361879 0
M  V30 2167 C 185.892 0.512209 -3.53711 0
M  V30 2168 C 185.558 -0.670202 -4.45891 0
M  V30 2169 C 184.22 -0.994586 -4.70809 0
M  V30 2170 C 186.572 -1.46134 -5.00294 0
M  V30 2171 C 183.9 -2.11169 -5.4738 0
M  V30 2172 C 186.252 -2.56903 -5.78086 0
M  V30 2173 C 184.916 -2.89852 -6.01284 0
M  V30 2174 H 184.186 0.0716246 -0.73753 0
M  V30 2175 H 186.833 -0.524046 -1.8419 0
M  V30 2176 H 185.138 1.31329 -3.69134 0
M  V30 2177 H 186.835 0.975804 -3.88946 0
M  V30 2178 H 183.425 -0.407366 -4.2666 0
M  V30 2179 H 187.609 -1.22397 -4.80971 0
M  V30 2180 H 182.865 -2.3707 -5.63567 0
M  V30 2181 H 187.039 -3.18608 -6.19243 0
M  V30 2182 H 184.666 -3.76533 -6.60399 0
M  V30 2183 N 186.241 1.57166 -0.116904 0
M  V30 2184 C 187.188 2.15202 0.83408 0
M  V30 2185 C 188.158 1.07644 1.26499 0
M  V30 2186 O 189.343 1.35541 1.34288 0
M  V30 2187 C 186.483 2.75405 2.07957 0
M  V30 2188 C 185.596 3.97264 1.69721 0
M  V30 2189 C 184.731 4.45561 2.89221 0
M  V30 2190 C 183.77 5.59956 2.47215 0
M  V30 2191 N 182.907 6.03006 3.59622 0
M  V30 2192 H 187.747 2.96141 0.332335 0
M  V30 2193 H 185.284 1.46309 0.152349 0
M  V30 2194 H 187.242 3.08439 2.80929 0
M  V30 2195 H 185.872 1.97159 2.55594 0
M  V30 2196 H 184.924 3.70404 0.866316 0
M  V30 2197 H 186.236 4.80226 1.34849 0
M  V30 2198 H 185.39 4.80493 3.7042 0
M  V30 2199 H 184.129 3.61544 3.27318 0
M  V30 2200 H 183.134 5.2463 1.64448 0
M  V30 2201 H 184.359 6.45738 2.10238 0
M  V30 2202 H 182.305 5.21931 3.97396 0
M  V30 2203 H 182.222 6.80819 3.28667 0
M  V30 2204 H 183.49 6.42576 4.41267 0
M  V30 2205 N 187.719 -0.156864 1.56817 0
M  V30 2206 C 188.667 -1.21319 1.98455 0
M  V30 2207 C 189.661 -1.45025 0.875444 0
M  V30 2208 O 190.867 -1.45435 1.0606 0
M  V30 2209 H 187.242 -0.408142 0.631605 0
M  V30 2210 H 189.213 -0.835244 2.86472 0
M  V30 2211 C 187.962 -2.54148 2.37285 0
M  V30 2212 H 187.285 -2.36733 3.22176 0
M  V30 2213 H 188.725 -3.26712 2.70251 0
M  V30 2214 C 187.184 -3.13967 1.22173 0
M  V30 2215 O 187.714 -3.98357 0.517149 0
M  V30 2216 N 185.92 -2.7327 0.988536 0
M  V30 2217 H 185.467 -2.04744 1.56326 0
M  V30 2218 H 185.425 -3.13628 0.220209 0
M  V30 2219 N 189.197 -1.51736 -0.425897 0
M  V30 2220 C 190.446 -1.64201 -1.17136 0
M  V30 2221 C 190.759 -0.369705 -1.92074 0
M  V30 2222 O 191.965 -0.373898 -2.68913 0
M  V30 2223 C 190.421 -2.90035 -2.13091 0
M  V30 2224 C 190.029 -4.24312 -1.43747 0
M  V30 2225 C 191.773 -3.1186 -2.87999 0
M  V30 2226 C 189.68 -5.41285 -2.38253 0
M  V30 2227 H 188.61 -0.611624 -0.440944 0
M  V30 2228 H 191.261 -1.78212 -0.437328 0
M  V30 2229 H 189.643 -2.69684 -2.89977 0
M  V30 2230 H 190.817 -4.55086 -0.723408 0
M  V30 2231 H 189.132 -4.08456 -0.809465 0
M  V30 2232 H 191.729 -3.96427 -3.58817 0
M  V30 2233 H 192.072 -2.25403 -3.49999 0
M  V30 2234 H 192.605 -3.32605 -2.18217 0
M  V30 2235 H 189.344 -6.30037 -1.80925 0
M  V30 2236 H 188.864 -5.14872 -3.0768 0
M  V30 2237 H 190.543 -5.73694 -2.99139 0
M  V30 2238 N 190.675 0.682077 -1.42076 0
M  V30 2239 C 191.622 1.79578 -1.44984 0
M  V30 2240 C 192.592 1.6332 -0.302614 0
M  V30 2241 O 193.777 1.83978 -0.505633 0
M  V30 2242 C 190.917 3.1756 -1.35091 0
M  V30 2243 C 190.03 3.45156 -2.59791 0
M  V30 2244 C 189.165 4.72826 -2.42093 0
M  V30 2245 C 188.204 4.93433 -3.62202 0
M  V30 2246 N 187.341 6.12338 -3.43491 0
M  V30 2247 H 192.181 1.76427 -2.40161 0
M  V30 2248 H 189.718 0.861376 -1.19242 0
M  V30 2249 H 191.676 3.97287 -1.27354 0
M  V30 2250 H 190.306 3.19854 -0.435133 0
M  V30 2251 H 189.358 2.59736 -2.77923 0
M  V30 2252 H 190.67 3.5628 -3.49094 0
M  V30 2253 H 189.824 5.60631 -2.319 0
M  V30 2254 H 188.563 4.63973 -1.50268 0
M  V30 2255 H 187.568 4.04073 -3.72834 0
M  V30 2256 H 188.793 5.04136 -4.54998 0
M  V30 2257 H 186.739 6.04672 -2.54377 0
M  V30 2258 H 186.656 6.2429 -4.26377 0
M  V30 2259 H 187.924 7.02841 -3.37097 0
M  V30 2260 N 192.153 1.28127 0.917671 0
M  V30 2261 C 193.1 1.11717 2.0196 0
M  V30 2262 C 194.07 0.0153929 1.66093 0
M  V30 2263 O 195.255 0.179596 1.89953 0
M  V30 2264 C 192.395 0.780927 3.36148 0
M  V30 2265 C 191.508 1.96135 3.84909 0
M  V30 2266 C 190.643 1.56609 5.0759 0
M  V30 2267 C 189.682 2.71339 5.48673 0
M  V30 2268 N 188.819 2.32332 6.62545 0
M  V30 2269 H 193.659 2.06003 2.15329 0
M  V30 2270 H 191.196 1.02535 1.05475 0
M  V30 2271 H 193.154 0.56675 4.13333 0
M  V30 2272 H 191.784 -0.124998 3.22558 0
M  V30 2273 H 190.836 2.28777 3.03916 0
M  V30 2274 H 192.148 2.82165 4.1132 0
M  V30 2275 H 191.302 1.31374 5.92305 0
M  V30 2276 H 190.041 0.677014 4.82978 0
M  V30 2277 H 189.046 2.97276 4.62501 0
M  V30 2278 H 190.271 3.60882 5.75274 0
M  V30 2279 H 188.217 1.45889 6.39572 0
M  V30 2280 H 188.134 3.11899 6.88662 0
M  V30 2281 H 189.402 2.10371 7.50576 0
M  V30 2282 N 193.631 -1.12557 1.10312 0
M  V30 2283 C 194.541 -2.21841 0.763142 0
M  V30 2284 C 195.557 -1.72354 -0.238801 0
M  V30 2285 O 196.733 -2.01249 -0.0778746 0
M  V30 2286 C 193.798 -3.46131 0.198632 0
M  V30 2287 C 192.859 -4.10464 1.25769 0
M  V30 2288 C 192.092 -5.28821 0.72002 0
M  V30 2289 O 192.315 -5.6859 -0.453993 0
M  V30 2290 O 191.249 -5.83437 1.47935 0
M  V30 2291 H 195.075 -2.53312 1.67532 0
M  V30 2292 H 192.66 -1.20867 0.878157 0
M  V30 2293 H 194.542 -4.2125 -0.112401 0
M  V30 2294 H 193.217 -3.16338 -0.686419 0
M  V30 2295 H 192.124 -3.3713 1.62156 0
M  V30 2296 H 193.457 -4.44408 2.11571 0
M  V30 2297 N 195.109 -0.891671 -1.2995 0
M  V30 2298 C 196.349 -0.520296 -1.97667 0
M  V30 2299 C 196.713 0.914797 -1.68806 0
M  V30 2300 O 197.914 1.39263 -2.29911 0
M  V30 2301 C 196.185 -0.795222 -3.48441 0
M  V30 2302 S 197.744 -0.526953 -4.35624 0
M  V30 2303 H 194.562 -0.19333 -0.684211 0
M  V30 2304 H 197.164 -1.15238 -1.57926 0
M  V30 2305 H 195.868 -1.83805 -3.66938 0
M  V30 2306 H 195.399 -0.15095 -3.9311 0
M  V30 2307 H 197.414 0.631533 -4.92165 0
M  V30 2308 N 196.587 1.43421 -0.653314 0
M  V30 2309 C 197.517 2.33487 0.0246656 0
M  V30 2310 C 198.498 1.49475 0.811863 0
M  V30 2311 O 199.683 1.78139 0.773322 0
M  V30 2312 C 196.813 3.32841 0.99166 0
M  V30 2313 C 195.767 4.26842 0.314568 0
M  V30 2314 C 195.093 5.16236 1.39302 0
M  V30 2315 C 196.393 5.16243 -0.793095 0
M  V30 2316 H 198.087 2.90427 -0.727481 0
M  V30 2317 H 195.633 1.39649 -0.351287 0
M  V30 2318 H 197.586 3.94747 1.47487 0
M  V30 2319 H 196.31 2.74158 1.77497 0
M  V30 2320 H 194.969 3.663 -0.148199 0
M  V30 2321 H 194.617 4.53891 2.16776 0
M  V30 2322 H 194.317 5.79948 0.945223 0
M  V30 2323 H 195.841 5.81015 1.87759 0
M  V30 2324 H 197.255 5.71958 -0.392039 0
M  V30 2325 H 195.652 5.88676 -1.16536 0
M  V30 2326 H 196.722 4.55927 -1.65103 0
M  V30 2327 N 198.065 0.39524 1.52563 0
M  V30 2328 C 199.295 -0.184675 2.05773 0
M  V30 2329 C 199.703 -1.40571 1.26635 0
M  V30 2330 O 199.046 -1.81105 0.30769 0
M  V30 2331 C 199.108 -0.613551 3.54226 0
M  V30 2332 C 198.772 0.49484 4.54313 0
M  V30 2333 C 199.769 1.3541 5.01956 0
M  V30 2334 C 197.454 0.663565 4.97898 0
M  V30 2335 C 199.448 2.36716 5.91814 0
M  V30 2336 C 197.135 1.67996 5.87555 0
M  V30 2337 C 198.133 2.53017 6.34406 0
M  V30 2338 O 197.821 3.52917 7.22291 0
M  V30 2339 H 197.553 -0.030077 0.675331 0
M  V30 2340 H 200.107 0.560708 1.97599 0
M  V30 2341 H 198.337 -1.411 3.60038 0
M  V30 2342 H 200.026 -1.11981 3.90148 0
M  V30 2343 H 200.792 1.23509 4.6901 0
M  V30 2344 H 196.671 0.0114913 4.60999 0
M  V30 2345 H 200.215 3.03113 6.28306 0
M  V30 2346 H 196.112 1.79933 6.19915 0
M  V30 2347 H 196.88 3.48996 7.40367 0
M  V30 2348 N 199.544 -1.57102 0.125237 0
M  V30 2349 C 200.492 -2.16905 -0.839927 0
M  V30 2350 C 201.486 -1.11998 -1.27094 0
M  V30 2351 O 202.692 -1.3029 -1.24195 0
M  V30 2352 H 199.067 -0.694252 -0.288995 0
M  V30 2353 H 201.038 -2.96774 -0.311115 0
M  V30 2354 C 199.787 -2.78795 -2.07771 0
M  V30 2355 H 199.11 -3.59221 -1.755 0
M  V30 2356 H 200.55 -3.2417 -2.73295 0
M  V30 2357 C 199.009 -1.76193 -2.87155 0
M  V30 2358 O 199.539 -1.21909 -3.82755 0
M  V30 2359 N 197.745 -1.45991 -2.51267 0
M  V30 2360 H 197.292 -1.90325 -1.73592 0
M  V30 2361 H 197.25 -0.775844 -3.04677 0
M  V30 2362 N 201.022 0.148545 -1.56898 0
M  V30 2363 C 202.27 0.859717 -1.82902 0
M  V30 2364 C 202.591 1.81775 -0.70588 0
M  V30 2365 O 201.861 1.93994 0.272586 0
M  V30 2366 H 200.441 0.320469 -0.674766 0
M  V30 2367 H 203.103 0.142918 -1.94375 0
M  V30 2368 H 202.199 1.4229 -2.77777 0
M  V30 2369 N 202.5 1.5196 0.417844 0
M  V30 2370 C 203.747 1.65591 1.16559 0
M  V30 2371 C 204.075 0.381565 1.90721 0
M  V30 2372 O 203.33 -0.635156 1.85106 0
M  V30 2373 C 203.629 2.82269 2.19223 0
M  V30 2374 C 203.295 4.20819 1.61933 0
M  V30 2375 C 201.957 4.58506 1.46033 0
M  V30 2376 C 204.309 5.07196 1.20008 0
M  V30 2377 C 201.637 5.80257 0.867113 0
M  V30 2378 C 203.989 6.29544 0.621086 0
M  V30 2379 C 202.653 6.65987 0.449144 0
M  V30 2380 H 201.923 0.605939 0.42652 0
M  V30 2381 H 204.57 1.86041 0.45397 0
M  V30 2382 H 202.875 2.56118 2.96498 0
M  V30 2383 H 204.572 2.90012 2.76936 0
M  V30 2384 H 201.162 3.91116 1.7529 0
M  V30 2385 H 205.346 4.7867 1.31105 0
M  V30 2386 H 200.602 6.07124 0.721833 0
M  V30 2387 H 204.776 6.95805 0.287798 0
M  V30 2388 H 202.403 7.60199 -0.012632 0
M  V30 2389 N 203.978 -0.674533 1.42435 0
M  V30 2390 C 205.227 -1.43034 1.42212 0
M  V30 2391 C 205.54 -1.95555 0.0420788 0
M  V30 2392 O 206.746 -2.71374 -0.0827558 0
M  V30 2393 C 205.202 -2.58748 2.50155 0
M  V30 2394 C 204.81 -2.12925 3.94166 0
M  V30 2395 C 206.554 -3.36257 2.59098 0
M  V30 2396 C 204.461 -3.25723 4.93618 0
M  V30 2397 H 203.391 -0.537345 0.528939 0
M  V30 2398 H 206.042 -0.73024 1.68344 0
M  V30 2399 H 204.424 -3.31128 2.17188 0
M  V30 2400 H 205.598 -1.47697 4.36488 0
M  V30 2401 H 203.913 -1.48354 3.89076 0
M  V30 2402 H 206.51 -4.20264 3.30578 0
M  V30 2403 H 206.853 -3.82866 1.63461 0
M  V30 2404 H 207.386 -2.70947 2.9126 0
M  V30 2405 H 204.125 -2.84105 5.90732 0
M  V30 2406 H 203.645 -3.89732 4.55926 0
M  V30 2407 H 205.324 -3.91186 5.15347 0
M  V30 2408 N 205.456 -1.28612 -0.910864 0
M  V30 2409 C 206.404 -1.1265 -2.03501 0
M  V30 2410 C 207.398 -0.0450054 -1.6934 0
M  V30 2411 O 208.604 -0.203988 -1.7884 0
M  V30 2412 H 204.979 -0.347639 -0.666822 0
M  V30 2413 H 206.95 -2.07849 -2.14106 0
M  V30 2414 C 205.699 -0.808143 -3.38178 0
M  V30 2415 H 205.022 -1.63231 -3.6496 0
M  V30 2416 H 206.462 -0.736426 -4.17556 0
M  V30 2417 C 204.921 0.488226 -3.33344 0
M  V30 2418 O 205.451 1.51766 -3.71927 0
M  V30 2419 N 203.657 0.490009 -2.86439 0
M  V30 2420 H 203.204 -0.348161 -2.55236 0
M  V30 2421 H 203.162 1.35741 -2.83587 0
M  V30 2422 N 206.934 1.1197 -1.10907 0
M  V30 2423 C 208.183 1.82947 -0.849302 0
M  V30 2424 C 208.496 1.85275 0.627112 0
M  V30 2425 O 209.702 2.52296 1.00295 0
M  V30 2426 C 208.158 3.28529 -1.46959 0
M  V30 2427 C 207.766 3.34546 -2.97965 0
M  V30 2428 C 209.51 4.04443 -1.28942 0
M  V30 2429 C 207.417 4.74491 -3.53004 0
M  V30 2430 H 206.347 0.685477 -0.314065 0
M  V30 2431 H 208.998 1.2604 -1.33365 0
M  V30 2432 H 207.38 3.85333 -0.912917 0
M  V30 2433 H 208.554 2.87654 -3.59989 0
M  V30 2434 H 206.869 2.72108 -3.15192 0
M  V30 2435 H 209.466 5.07787 -1.67502 0
M  V30 2436 H 209.809 4.15656 -0.231456 0
M  V30 2437 H 210.342 3.5401 -1.81443 0
M  V30 2438 H 207.081 4.68474 -4.58489 0
M  V30 2439 H 206.601 5.21816 -2.9575 0
M  V30 2440 H 208.28 5.4344 -3.51115 0
M  V30 2441 N 208.412 0.89855 1.29475 0
M  V30 2442 C 209.658 0.524658 1.95896 0
M  V30 2443 C 209.991 -0.926468 1.70676 0
M  V30 2444 O 209.266 -1.65665 1.01908 0
M  V30 2445 C 209.549 0.81633 3.50725 0
M  V30 2446 C 209.402 2.31907 3.85408 0
M  V30 2447 C 210.721 0.302038 4.39062 0
M  V30 2448 H 207.84 0.19209 0.711527 0
M  V30 2449 H 210.482 1.12502 1.53112 0
M  V30 2450 H 208.632 0.305369 3.87298 0
M  V30 2451 H 210.304 2.89949 3.58786 0
M  V30 2452 H 208.547 2.78027 3.32992 0
M  V30 2453 H 209.218 2.47373 4.93468 0
M  V30 2454 H 211.694 0.739551 4.09475 0
M  V30 2455 H 210.57 0.535331 5.46283 0
M  V30 2456 H 210.831 -0.797216 4.34853 0
M  V30 2457 N 209.89 -1.43072 0.660911 0
M  V30 2458 C 210.838 -2.32569 -0.0378199 0
M  V30 2459 C 211.832 -1.49046 -0.805092 0
M  V30 2460 O 213.038 -1.65206 -0.714624 0
M  V30 2461 H 209.413 -0.75136 -0.031019 0
M  V30 2462 H 211.384 -2.89216 0.734609 0
M  V30 2463 C 210.133 -3.33453 -0.985124 0
M  V30 2464 H 209.456 -3.97752 -0.404147 0
M  V30 2465 H 210.896 -3.98691 -1.44297 0
M  V30 2466 C 209.355 -2.64642 -2.08486 0
M  V30 2467 O 209.885 -2.46776 -3.16961 0
M  V30 2468 N 208.091 -2.23891 -1.8526 0
M  V30 2469 H 207.638 -2.38621 -0.970449 0
M  V30 2470 H 207.596 -1.78181 -2.59034 0
M  V30 2471 N 211.368 -0.403325 -1.52352 0
M  V30 2472 C 212.278 0.432009 -2.30588 0
M  V30 2473 C 213.294 1.05884 -1.38075 0
M  V30 2474 O 214.47 1.06161 -1.71148 0
M  V30 2475 C 211.535 1.53669 -3.10784 0
M  V30 2476 C 210.596 0.933525 -4.19027 0
M  V30 2477 C 209.829 1.98557 -4.9539 0
M  V30 2478 O 210.052 3.20283 -4.71991 0
M  V30 2479 O 208.986 1.59504 -5.80381 0
M  V30 2480 H 212.812 -0.205739 -3.03002 0
M  V30 2481 H 210.397 -0.166675 -1.48467 0
M  V30 2482 H 212.279 2.17814 -3.60742 0
M  V30 2483 H 210.954 2.15915 -2.41169 0
M  V30 2484 H 209.861 0.254954 -3.7323 0
M  V30 2485 H 211.194 0.35508 -4.90918 0
M  V30 2486 N 212.846 1.57033 -0.133567 0
M  V30 2487 C 214.074 2.00044 0.528195 0
M  V30 2488 C 214.489 1.01349 1.59291 0
M  V30 2489 O 213.846 0.00848369 1.82498 0
M  V30 2490 C 213.897 3.43018 1.1411 0
M  V30 2491 O 213.618 4.37939 0.11892 0
M  V30 2492 C 215.119 4.01237 1.88477 0
M  V30 2493 H 212.339 0.656517 0.138661 0
M  V30 2494 H 214.883 2.03267 -0.224196 0
M  V30 2495 H 213.038 3.40688 1.84418 0
M  V30 2496 H 213.452 5.21436 0.56613 0
M  V30 2497 H 214.926 5.03314 2.26669 0
M  V30 2498 H 215.403 3.41193 2.76558 0
M  V30 2499 H 216.009 4.07156 1.22898 0
M  V30 2500 N 214.325 -0.140222 1.56975 0
M  V30 2501 C 215.55 -0.870414 1.88251 0
M  V30 2502 C 215.975 -1.73637 0.723312 0
M  V30 2503 O 215.333 -1.78329 -0.32689 0
M  V30 2504 C 215.381 -1.69737 3.18154 0
M  V30 2505 O 214.485 -2.80229 3.02565 0
M  V30 2506 H 213.826 -0.242025 0.61832 0
M  V30 2507 H 216.356 -0.128999 2.04193 0
M  V30 2508 H 216.366 -2.09099 3.50345 0
M  V30 2509 H 215.041 -1.06152 4.02125 0
M  V30 2510 H 213.618 -2.44224 2.81796 0
M  V30 2511 N 215.803 -1.52179 -0.40978 0
M  V30 2512 C 217.049 -1.66453 -1.15851 0
M  V30 2513 C 217.382 -0.392972 -1.90182 0
M  V30 2514 O 216.657 0.608579 -1.84734 0
M  V30 2515 C 216.94 -2.88612 -2.15349 0
M  V30 2516 C 216.793 -4.25815 -1.44918 0
M  V30 2517 C 218.112 -3.06294 -3.16026 0
M  V30 2518 H 215.231 -0.60575 -0.419805 0
M  V30 2519 H 217.873 -1.84732 -0.444314 0
M  V30 2520 H 216.023 -2.73158 -2.76255 0
M  V30 2521 H 217.695 -4.52995 -0.871365 0
M  V30 2522 H 215.938 -4.27247 -0.751159 0
M  V30 2523 H 216.609 -5.07337 -2.17516 0
M  V30 2524 H 219.085 -3.20641 -2.65195 0
M  V30 2525 H 217.961 -3.93283 -3.8291 0
M  V30 2526 H 218.222 -2.19579 -3.83715 0
M  V30 2527 N 217.281 0.66697 -1.42791 0
M  V30 2528 C 218.244 1.76211 -1.46568 0
M  V30 2529 C 219.244 1.56896 -0.352196 0
M  V30 2530 O 220.434 1.63044 -0.613364 0
M  V30 2531 C 217.566 3.14935 -1.30494 0
M  V30 2532 H 218.759 1.74247 -2.44086 0
M  V30 2533 H 216.312 0.877342 -1.29354 0
M  V30 2534 H 217.047 3.2252 -0.339301 0
M  V30 2535 H 216.832 3.30359 -2.11199 0
M  V30 2536 H 218.322 3.94821 -1.36038 0
M  V30 2537 N 218.759 1.29093 0.90403 0
M  V30 2538 C 219.669 1.15727 2.0407 0
M  V30 2539 C 220.685 0.0815308 1.73809 0
M  V30 2540 O 221.861 0.292749 1.99261 0
M  V30 2541 C 218.926 0.830424 3.36608 0
M  V30 2542 C 217.987 1.98955 3.80415 0
M  V30 2543 C 217.22 1.6782 5.06628 0
M  V30 2544 O 217.443 0.597105 5.67266 0
M  V30 2545 O 216.377 2.52486 5.46383 0
M  V30 2546 H 220.203 2.11171 2.18267 0
M  V30 2547 H 217.788 1.08504 1.027 0
M  V30 2548 H 219.67 0.662521 4.16159 0
M  V30 2549 H 218.345 -0.0942678 3.23563 0
M  V30 2550 H 217.252 2.21267 3.01648 0
M  V30 2551 H 218.585 2.89529 3.98037 0
M  V30 2552 N 220.237 -1.11381 1.11499 0
M  V30 2553 C 221.185 -2.19522 0.768956 0
M  V30 2554 C 222.179 -1.67693 -0.239857 0
M  V30 2555 O 223.385 -1.79727 -0.0990755 0
M  V30 2556 H 219.76 -0.715711 0.230786 0
M  V30 2557 H 221.731 -2.45954 1.68964 0
M  V30 2558 C 220.48 -3.46945 0.229073 0
M  V30 2559 H 219.803 -3.8718 0.996596 0
M  V30 2560 H 221.243 -4.23993 0.0251441 0
M  V30 2561 C 219.702 -3.2042 -1.04079 0
M  V30 2562 O 220.232 -3.41178 -2.12038 0
M  V30 2563 N 218.438 -2.74151 -0.963823 0
M  V30 2564 H 217.985 -2.57459 -0.0851722 0
M  V30 2565 H 217.943 -2.56781 -1.81414 0
M  V30 2566 N 221.715 -0.905404 -1.28997 0
M  V30 2567 C 222.963 -0.533192 -1.9494 0
M  V30 2568 C 223.284 0.924618 -1.71685 0
M  V30 2569 O 222.554 1.65268 -1.05183 0
M  V30 2570 H 221.134 -0.194194 -0.721317 0
M  V30 2571 H 223.796 -1.15294 -1.57141 0
M  V30 2572 H 222.892 -0.72059 -3.03667 0
M  V30 2573 N 223.193 1.4272 -0.668489 0
M  V30 2574 C 224.442 2.00846 -0.185389 0
M  V30 2575 C 224.755 1.53442 1.21305 0
M  V30 2576 O 225.961 2.03944 1.79218 0
M  V30 2577 C 224.417 3.58805 -0.280591 0
M  V30 2578 C 224.025 4.15198 -1.68268 0
M  V30 2579 C 225.769 4.24255 0.14412 0
M  V30 2580 C 223.676 5.655 -1.73099 0
M  V30 2581 H 222.606 0.751145 -0.0655475 0
M  V30 2582 H 225.257 1.63516 -0.832752 0
M  V30 2583 H 223.639 3.93608 0.434553 0
M  V30 2584 H 224.813 3.91866 -2.42441 0
M  V30 2585 H 223.128 3.62176 -2.05469 0
M  V30 2586 H 225.725 5.34547 0.128086 0
M  V30 2587 H 226.068 3.99277 1.17827 0
M  V30 2588 H 226.601 3.94389 -0.519798 0
M  V30 2589 H 223.34 5.95268 -2.74475 0
M  V30 2590 H 222.86 5.90842 -1.03274 0
M  V30 2591 H 224.539 6.29808 -1.48158 0
M  V30 2592 N 224.671 0.411399 1.52136 0
M  V30 2593 C 225.92 -0.165009 2.01024 0
M  V30 2594 C 226.233 -1.4603 1.30133 0
M  V30 2595 O 227.439 -2.1181 1.69849 0
M  V30 2596 C 225.895 -0.344618 3.58246 0
M  V30 2597 C 225.503 0.938716 4.38055 0
M  V30 2598 C 227.247 -0.876195 4.15359 0
M  V30 2599 C 225.154 0.726172 5.86925 0
M  V30 2600 H 224.084 -0.0654407 0.751155 0
M  V30 2601 H 226.735 0.537192 1.75461 0
M  V30 2602 H 225.117 -1.10921 3.80148 0
M  V30 2603 H 226.291 1.70963 4.27912 0
M  V30 2604 H 224.606 1.39688 3.92271 0
M  V30 2605 H 227.203 -1.05128 5.24263 0
M  V30 2606 H 227.546 -1.85152 3.7286 0
M  V30 2607 H 228.079 -0.170607 3.97434 0
M  V30 2608 H 224.818 1.67312 6.33788 0
M  V30 2609 H 224.338 -0.00540283 5.998 0
M  V30 2610 H 226.017 0.369231 6.45946 0
M  V30 2611 N 226.149 -1.5696 0.141893 0
M  V30 2612 C 227.079 -2.19516 -0.795936 0
M  V30 2613 C 228.06 -1.14187 -1.26077 0
M  V30 2614 O 229.245 -1.42511 -1.31925 0
M  V30 2615 C 226.375 -2.81272 -2.03723 0
M  V30 2616 C 225.329 -3.92384 -1.70936 0
M  V30 2617 C 224.655 -4.41052 -3.02287 0
M  V30 2618 C 225.955 -5.13403 -0.959954 0
M  V30 2619 H 227.649 -2.98138 -0.274596 0
M  V30 2620 H 225.195 -1.43406 -0.130636 0
M  V30 2621 H 227.148 -3.237 -2.69808 0
M  V30 2622 H 225.872 -1.99973 -2.58221 0
M  V30 2623 H 224.531 -3.50566 -1.07232 0
M  V30 2624 H 224.179 -3.56582 -3.54765 0
M  V30 2625 H 223.879 -5.15993 -2.81114 0
M  V30 2626 H 225.403 -4.86146 -3.69451 0
M  V30 2627 H 226.817 -5.52706 -1.52279 0
M  V30 2628 H 225.214 -5.94073 -0.848357 0
M  V30 2629 H 226.284 -4.84875 0.0492434 0
M  V30 2630 N 227.627 0.131896 -1.57047 0
M  V30 2631 C 228.575 1.18146 -2.0036 0
M  V30 2632 C 229.569 1.43614 -0.898406 0
M  V30 2633 O 230.775 1.43729 -1.08361 0
M  V30 2634 H 227.15 0.398042 -0.638018 0
M  V30 2635 H 229.121 0.789564 -2.87765 0
M  V30 2636 C 227.87 2.50341 -2.41298 0
M  V30 2637 H 227.193 2.31578 -3.25902 0
M  V30 2638 H 228.633 3.22371 -2.75414 0
M  V30 2639 C 227.092 3.11984 -1.27153 0
M  V30 2640 O 227.622 3.97484 -0.580459 0
M  V30 2641 N 225.828 2.71662 -1.03189 0
M  V30 2642 H 225.375 2.02231 -1.59564 0
M  V30 2643 H 225.333 3.13238 -0.270077 0
M  V30 2644 N 229.106 1.52395 0.401703 0
M  V30 2645 C 230.355 1.66044 1.14509 0
M  V30 2646 C 230.668 0.400216 1.91462 0
M  V30 2647 O 231.874 0.416632 2.68284 0
M  V30 2648 C 230.33 2.93388 2.0845 0
M  V30 2649 C 229.938 4.26545 1.36978 0
M  V30 2650 C 231.682 3.16402 2.83001 0
M  V30 2651 C 229.589 5.45007 2.29611 0
M  V30 2652 H 228.519 0.618562 0.431158 0
M  V30 2653 H 231.17 1.78886 0.40892 0
M  V30 2654 H 229.552 2.74263 2.8565 0
M  V30 2655 H 230.726 4.56179 0.650916 0
M  V30 2656 H 229.041 4.09692 0.74438 0
M  V30 2657 H 231.638 4.02085 3.52465 0
M  V30 2658 H 231.981 2.30943 3.46368 0
M  V30 2659 H 232.514 3.36034 2.12898 0
M  V30 2660 H 229.253 6.32835 1.70879 0
M  V30 2661 H 228.773 5.19702 2.9945 0
M  V30 2662 H 230.452 5.7838 2.89974 0
M  V30 2663 N 230.584 -0.659388 1.43143 0
M  V30 2664 C 231.812 -1.44723 1.47861 0
M  V30 2665 C 232.227 -1.88563 0.0945886 0
M  V30 2666 O 231.584 -1.59108 -0.893915 0
M  V30 2667 C 231.635 -2.68627 2.41913 0
M  V30 2668 O 231.356 -2.26623 3.74932 0
M  V30 2669 C 232.857 -3.62045 2.55809 0
M  V30 2670 H 230.077 -0.444801 0.502387 0
M  V30 2671 H 232.621 -0.808916 1.87821 0
M  V30 2672 H 230.776 -3.28613 2.05164 0
M  V30 2673 H 231.19 -3.06745 4.2545 0
M  V30 2674 H 232.664 -4.45666 3.25708 0
M  V30 2675 H 233.141 -4.08981 1.60099 0
M  V30 2676 H 233.747 -3.07944 2.93344 0
M  V30 2677 N 232.062 -1.29571 -0.897171 0
M  V30 2678 C 233.025 -1.14913 -1.98312 0
M  V30 2679 C 234.025 -0.0838629 -1.60581 0
M  V30 2680 O 235.215 -0.331006 -1.71026 0
M  V30 2681 C 232.347 -0.757835 -3.3237 0
M  V30 2682 H 233.54 -2.11377 -2.12743 0
M  V30 2683 H 231.093 -1.12793 -1.08201 0
M  V30 2684 H 231.828 0.206837 -3.2364 0
M  V30 2685 H 231.613 -1.52755 -3.61121 0
M  V30 2686 H 233.103 -0.678408 -4.12053 0
M  V30 2687 N 233.54 1.10788 -1.12088 0
M  V30 2688 C 234.45 2.20599 -0.798338 0
M  V30 2689 C 235.466 1.72712 0.21135 0
M  V30 2690 O 236.642 2.01348 0.0458477 0
M  V30 2691 C 233.707 3.45771 -0.253674 0
M  V30 2692 C 232.768 4.08411 -1.32283 0
M  V30 2693 C 232.001 5.27608 -0.80406 0
M  V30 2694 O 232.224 5.69241 0.363478 0
M  V30 2695 O 231.158 5.8101 -1.57198 0
M  V30 2696 H 234.984 2.50614 -1.7154 0
M  V30 2697 H 232.569 1.19454 -0.897275 0
M  V30 2698 H 234.451 4.21376 0.0453691 0
M  V30 2699 H 233.126 3.1739 0.636005 0
M  V30 2700 H 232.033 3.34507 -1.67499 0
M  V30 2701 H 233.366 4.40986 -2.18614 0
M  V30 2702 N 235.018 0.912232 1.28515 0
M  V30 2703 C 235.966 0.389597 2.29314 0
M  V30 2704 C 236.96 -0.517915 1.61289 0
M  V30 2705 O 238.166 -0.399328 1.75515 0
M  V30 2706 H 234.541 0.107386 0.744293 0
M  V30 2707 H 236.512 1.25286 2.70825 0
M  V30 2708 C 235.261 -0.356496 3.45868 0
M  V30 2709 H 234.584 0.332608 3.98414 0
M  V30 2710 H 236.024 -0.686851 4.184 0
M  V30 2711 C 234.483 -1.56383 2.98406 0
M  V30 2712 O 235.013 -2.66294 3.00749 0
M  V30 2713 N 233.219 -1.41029 2.54085 0
M  V30 2714 H 232.766 -0.516089 2.52377 0
M  V30 2715 H 232.724 -2.21939 2.22689 0
M  V30 2716 N 236.496 -1.42363 0.676048 0
M  V30 2717 C 237.907 -1.84649 0.275948 0
M  V30 2718 C 238.258 -1.56588 -1.18214 0
M  V30 2719 O 237.383 -1.02634 -1.90513 0
M  V30 2720 C 237.978 -3.35178 0.494053 0
M  V30 2721 C 236.537 -3.76109 0.148061 0
M  V30 2722 C 235.684 -2.65931 0.785891 0
M  V30 2723 H 238.635 -1.32192 0.878121 0
M  V30 2724 H 238.656 -3.79655 -0.25343 0
M  V30 2725 H 238.168 -3.55571 1.55535 0
M  V30 2726 H 236.269 -3.61323 -0.909742 0
M  V30 2727 H 236.382 -4.7546 0.589454 0
M  V30 2728 H 234.746 -2.53773 0.217113 0
M  V30 2729 H 235.529 -2.89146 1.85067 0
M  V30 2730 N 237.974 -0.419461 -1.51915 0
M  V30 2731 C 239.251 0.211999 -1.94448 0
M  V30 2732 C 239.631 1.61703 -1.35703 0
M  V30 2733 O 238.979 2.22102 -0.536931 0
M  V30 2734 C 239.189 0.207872 -3.4838 0
M  V30 2735 C 240.537 0.422192 -4.22496 0
M  V30 2736 O 241.561 0.286778 -3.55044 0
M  V30 2737 O 240.42 0.690009 -5.42126 0
M  V30 2738 H 237.514 0.139586 -0.815135 0
M  V30 2739 H 240.06 -0.476151 -1.62883 0
M  V30 2740 H 238.832 -0.775102 -3.83546 0
M  V30 2741 H 238.455 0.939688 -3.86336 0
M  V30 2742 N 239.452 1.56882 -0.150215 0
M  V30 2743 C 240.699 1.96228 0.500093 0
M  V30 2744 C 241.027 1.03522 1.64661 0
M  V30 2745 O 240.282 0.0650683 1.95592 0
M  V30 2746 C 240.581 3.41801 1.04437 0
M  V30 2747 C 240.247 4.50897 0.0159671 0
M  V30 2748 C 238.909 4.8046 -0.266731 0
M  V30 2749 C 241.261 5.16703 -0.683192 0
M  V30 2750 C 238.589 5.73135 -1.25434 0
M  V30 2751 C 240.941 6.10441 -1.65964 0
M  V30 2752 C 239.605 6.38382 -1.95 0
M  V30 2753 H 238.875 0.718048 0.182997 0
M  V30 2754 H 241.522 1.90019 -0.237724 0
M  V30 2755 H 239.827 3.44857 1.85959 0
M  V30 2756 H 241.524 3.69573 1.55618 0
M  V30 2757 H 238.114 4.27891 0.246485 0
M  V30 2758 H 242.298 4.93993 -0.477983 0
M  V30 2759 H 237.554 5.93074 -1.48571 0
M  V30 2760 H 241.728 6.60507 -2.20689 0
M  V30 2761 H 239.355 7.09996 -2.71679 0
M  V30 2762 N 240.93 -0.123565 1.57115 0
M  V30 2763 C 241.86 -1.15309 2.03042 0
M  V30 2764 C 242.841 -1.43454 0.914061 0
M  V30 2765 O 244.026 -1.53973 1.18347 0
M  V30 2766 C 241.156 -2.48043 2.43089 0
M  V30 2767 C 240.11 -2.3437 3.58127 0
M  V30 2768 C 239.436 -3.72026 3.84059 0
M  V30 2769 C 240.736 -1.80804 4.90007 0
M  V30 2770 H 242.43 -0.771102 2.893 0
M  V30 2771 H 239.976 -0.369479 1.39179 0
M  V30 2772 H 241.929 -3.20311 2.73823 0
M  V30 2773 H 240.653 -2.88122 1.53796 0
M  V30 2774 H 239.312 -1.64551 3.27595 0
M  V30 2775 H 238.96 -4.09582 2.91979 0
M  V30 2776 H 238.66 -3.63732 4.6149 0
M  V30 2777 H 240.184 -4.45806 4.1724 0
M  V30 2778 H 241.598 -2.42886 5.19307 0
M  V30 2779 H 239.995 -1.83343 5.71407 0
M  V30 2780 H 241.065 -0.76528 4.78823 0
M  V30 2781 N 242.408 -1.52605 -0.393616 0
M  V30 2782 C 243.633 -1.71592 -1.16495 0
M  V30 2783 C 244.058 -0.43133 -1.83088 0
M  V30 2784 O 243.416 0.612523 -1.7064 0
M  V30 2785 C 243.464 -2.86318 -2.19213 0
M  V30 2786 O 242.568 -2.52969 -3.257 0
M  V30 2787 H 241.909 -0.570734 -0.33935 0
M  V30 2788 H 244.439 -1.99377 -0.459324 0
M  V30 2789 H 244.449 -3.1168 -2.63286 0
M  V30 2790 H 243.124 -3.79511 -1.7013 0
M  V30 2791 H 241.701 -2.38332 -2.86797 0
M  V30 2792 N 243.887 0.651787 -1.4349 0
M  V30 2793 C 244.835 1.78586 -1.49029 0
M  V30 2794 C 245.829 1.65448 -0.363767 0
M  V30 2795 O 247.035 1.71777 -0.537821 0
M  V30 2796 H 243.41 0.589236 -0.467231 0
M  V30 2797 H 245.381 1.71035 -2.44519 0
M  V30 2798 C 244.13 3.16851 -1.43181 0
M  V30 2799 H 243.453 3.27598 -2.29171 0
M  V30 2800 H 244.893 3.96156 -1.51118 0
M  V30 2801 C 243.352 3.36568 -0.149616 0
M  V30 2802 O 243.882 3.93885 0.788509 0
M  V30 2803 N 242.088 2.90539 -0.0593484 0
M  V30 2804 H 241.635 2.4408 -0.823575 0
M  V30 2805 H 241.593 3.04108 0.797853 0
M  V30 2806 N 245.365 1.30045 0.890287 0
M  V30 2807 C 246.275 1.17885 2.02831 0
M  V30 2808 C 247.291 0.0999609 1.73713 0
M  V30 2809 O 248.467 0.313867 1.98939 0
M  V30 2810 C 245.532 0.866079 3.35708 0
M  V30 2811 C 244.593 2.02979 3.78283 0
M  V30 2812 C 243.826 1.73184 5.0482 0
M  V30 2813 O 244.049 0.657237 5.66601 0
M  V30 2814 O 242.983 2.58267 5.43674 0
M  V30 2815 H 246.809 2.13474 2.16015 0
M  V30 2816 H 244.394 1.09587 1.01543 0
M  V30 2817 H 246.276 0.706623 4.15433 0
M  V30 2818 H 244.951 -0.0599443 3.23644 0
M  V30 2819 H 243.858 2.24454 2.99285 0
M  V30 2820 H 245.191 2.93734 3.94944 0
M  V30 2821 N 246.843 -1.10192 1.12674 0
M  V30 2822 C 248.12 -1.78717 0.794965 0
M  V30 2823 C 248.5 -1.98628 -0.714853 0
M  V30 2824 O 247.848 -1.58135 -1.64941 0
M  V30 2825 C 248.058 -3.11546 1.5729 0
M  V30 2826 C 249.406 -3.86382 1.76052 0
M  V30 2827 O 250.43 -3.21274 1.53823 0
M  V30 2828 O 249.289 -5.03246 2.13087 0
M  V30 2829 H 246.383 -0.774702 0.289423 0
M  V30 2830 H 248.929 -1.16819 1.23091 0
M  V30 2831 H 247.701 -2.92489 2.59935 0
M  V30 2832 H 247.324 -3.81164 1.13137 0
M  V30 2833 N 248.321 -0.919034 -1.28029 0
M  V30 2834 C 249.269 -0.401753 -2.29104 0
M  V30 2835 C 250.263 0.509354 -1.61561 0
M  V30 2836 O 251.469 0.390014 -1.75724 0
M  V30 2837 H 247.844 -0.111331 -0.743713 0
M  V30 2838 H 249.815 -1.2672 -2.70156 0
M  V30 2839 C 248.564 0.338148 -3.46052 0
M  V30 2840 H 247.887 -0.353732 -3.98232 0
M  V30 2841 H 249.327 0.664653 -4.18758 0
M  V30 2842 C 247.786 1.54798 -2.99231 0
M  V30 2843 O 248.316 2.64696 -3.02157 0
M  V30 2844 N 246.522 1.3968 -2.54829 0
M  V30 2845 H 246.069 0.502698 -2.52647 0
M  V30 2846 H 246.027 2.20755 -2.23863 0
M  V30 2847 N 249.799 1.42003 -0.683588 0
M  V30 2848 C 251.076 1.95112 -0.138075 0
M  V30 2849 C 251.456 1.62359 1.34918 0
M  V30 2850 O 250.804 0.924311 2.08971 0
M  V30 2851 C 251.014 3.46505 -0.416581 0
M  V30 2852 C 252.362 4.23254 -0.337834 0
M  V30 2853 O 253.386 3.54468 -0.35082 0
M  V30 2854 O 252.245 5.45743 -0.287596 0
M  V30 2855 H 249.339 0.826961 -0.00797996 0
M  V30 2856 H 251.885 1.51784 -0.758924 0
M  V30 2857 H 250.657 3.63582 -1.4465 0
M  V30 2858 H 250.28 3.969 0.235839 0
M  V30 2859 N 251.277 0.427512 1.51691 0
M  V30 2860 C 252.523 -0.142439 2.02299 0
M  V30 2861 C 252.856 -1.43214 1.31162 0
M  V30 2862 O 252.131 -1.89833 0.423511 0
M  V30 2863 C 252.414 -0.371301 3.58181 0
M  V30 2864 C 252.267 0.936358 4.39946 0
M  V30 2865 C 253.586 -1.14542 4.24933 0
M  V30 2866 H 250.705 -0.0502937 0.735282 0
M  V30 2867 H 253.347 0.564584 1.81418 0
M  V30 2868 H 251.497 -0.973559 3.76104 0
M  V30 2869 H 253.169 1.57184 4.33694 0
M  V30 2870 H 251.412 1.5432 4.05423 0
M  V30 2871 H 252.083 0.730388 5.47147 0
M  V30 2872 H 254.559 -0.635362 4.11221 0
M  V30 2873 H 253.435 -1.27431 5.33903 0
M  V30 2874 H 253.696 -2.17093 3.85127 0
M  V30 2875 N 252.755 -1.56801 0.158532 0
M  V30 2876 C 253.98 -2.01295 -0.499516 0
M  V30 2877 C 254.405 -1.03799 -1.56867 0
M  V30 2878 O 253.763 -0.0155162 -1.81293 0
M  V30 2879 C 253.811 -3.44469 -1.06647 0
M  V30 2880 O 252.915 -3.50012 -2.18095 0
M  V30 2881 H 252.256 -0.652884 -0.12099 0
M  V30 2882 H 254.786 -2.02958 0.258661 0
M  V30 2883 H 254.796 -3.8351 -1.39227 0
M  V30 2884 H 253.471 -4.14932 -0.283581 0
M  V30 2885 H 252.048 -3.22822 -1.86656 0
M  V30 2886 N 254.233 0.115231 -1.57178 0
M  V30 2887 C 255.458 0.840354 -1.89612 0
M  V30 2888 C 255.883 1.72464 -0.750845 0
M  V30 2889 O 255.241 1.78826 0.298478 0
M  V30 2890 C 255.289 1.64654 -3.20814 0
M  V30 2891 O 254.393 2.7538 -3.06985 0
M  V30 2892 H 253.734 0.232158 -0.622092 0
M  V30 2893 H 256.264 0.0964977 -2.04372 0
M  V30 2894 H 256.274 2.03499 -3.53627 0
M  V30 2895 H 254.949 0.997416 -4.03763 0
M  V30 2896 H 253.526 2.3971 -2.85646 0
M  V30 2897 N 255.711 1.52812 0.385517 0
M  V30 2898 C 256.988 1.5861 1.14465 0
M  V30 2899 C 257.368 0.381402 2.07626 0
M  V30 2900 O 256.716 -0.629999 2.19643 0
M  V30 2901 C 256.926 2.92664 1.90128 0
M  V30 2902 C 258.274 3.46526 2.45367 0
M  V30 2903 O 259.298 2.94562 2.0028 0
M  V30 2904 O 258.157 4.37323 3.27736 0
M  V30 2905 H 255.251 0.639855 0.523941 0
M  V30 2906 H 257.797 1.65149 0.390389 0
M  V30 2907 H 256.569 3.71788 1.22022 0
M  V30 2908 H 256.192 2.89527 2.72507 0
M  V30 2909 N 257.189 -0.644168 1.43834 0
M  V30 2910 C 258.466 -1.40188 1.36406 0
M  V30 2911 C 258.846 -2.11094 0.0163124 0
M  V30 2912 O 258.194 -2.05426 -1.00062 0
M  V30 2913 C 258.404 -2.3791 2.55343 0
M  V30 2914 C 259.752 -3.01637 2.98832 0
M  V30 2915 O 260.776 -2.48237 2.55455 0
M  V30 2916 O 259.635 -3.98477 3.74003 0
M  V30 2917 H 256.729 -0.626773 0.539523 0
M  V30 2918 H 259.275 -0.670317 1.559 0
M  V30 2919 H 258.047 -1.84525 3.4506 0
M  V30 2920 H 257.67 -3.18503 2.37995 0
M  V30 2921 N 258.668 -1.30515 -0.883378 0
M  V30 2922 C 259.578 -1.18959 -2.02203 0
M  V30 2923 C 260.594 -0.109172 -1.73657 0
M  V30 2924 O 261.77 -0.324413 -1.9877 0
M  V30 2925 C 258.835 -0.883871 -3.35244 0
M  V30 2926 C 257.896 -2.04982 -3.77201 0
M  V30 2927 C 257.129 -1.75859 -5.03894 0
M  V30 2928 O 257.352 -0.687276 -5.66244 0
M  V30 2929 O 256.286 -2.61146 -5.42297 0
M  V30 2930 H 260.112 -2.14616 -2.1488 0
M  V30 2931 H 257.697 -1.10124 -1.0096 0
M  V30 2932 H 259.579 -0.728644 -4.15053 0
M  V30 2933 H 258.254 0.0427798 -3.23672 0
M  V30 2934 H 257.161 -2.26038 -2.9809 0
M  V30 2935 H 258.494 -2.95825 -3.93381 0
M  V30 2936 N 260.146 1.09593 -1.13257 0
M  V30 2937 C 261.423 1.78293 -0.804432 0
M  V30 2938 C 261.803 1.99004 0.70431 0
M  V30 2939 O 261.151 1.59007 1.641 0
M  V30 2940 C 261.361 3.10707 -1.5894 0
M  V30 2941 C 262.709 3.85443 -1.78099 0
M  V30 2942 O 263.733 3.20454 -1.55525 0
M  V30 2943 O 262.592 5.02108 -2.15753 0
M  V30 2944 H 259.686 0.773156 -0.293528 0
M  V30 2945 H 262.232 1.16164 -1.23709 0
M  V30 2946 H 261.004 2.91106 -2.61482 0
M  V30 2947 H 260.627 3.80558 -1.15157 0
M  V30 2948 N 261.624 0.925811 1.2754 0
M  V30 2949 C 262.554 0.440748 2.29303 0
M  V30 2950 C 263.535 -0.497971 1.62648 0
M  V30 2951 O 264.72 -0.403126 1.8997 0
M  V30 2952 C 261.85 -0.309048 3.45922 0
M  V30 2953 C 260.804 0.54166 4.24559 0
M  V30 2954 C 260.13 -0.337191 5.33636 0
M  V30 2955 C 261.43 1.80516 4.90114 0
M  V30 2956 H 263.124 1.29121 2.70126 0
M  V30 2957 H 260.67 0.622323 1.29858 0
M  V30 2958 H 262.623 -0.659315 4.1621 0
M  V30 2959 H 261.347 -1.19352 3.04011 0
M  V30 2960 H 260.006 0.874609 3.56014 0
M  V30 2961 H 259.654 -1.22056 4.87966 0
M  V30 2962 H 259.354 0.228497 5.87156 0
M  V30 2963 H 260.878 -0.683072 6.06767 0
M  V30 2964 H 262.292 1.52307 5.52698 0
M  V30 2965 H 260.689 2.3142 5.53683 0
M  V30 2966 H 261.759 2.52581 4.13921 0
M  V30 2967 N 263.102 -1.41638 0.69111 0
M  V30 2968 C 264.332 -2.0533 0.228758 0
M  V30 2969 C 264.74 -1.52089 -1.12541 0
M  V30 2970 O 264.083 -0.662145 -1.71351 0
M  V30 2971 C 264.145 -3.59349 0.10407 0
M  V30 2972 C 263.809 -4.35362 1.38956 0
M  V30 2973 C 264.806 -4.64942 2.32648 0
M  V30 2974 C 262.491 -4.74714 1.64169 0
M  V30 2975 C 264.485 -5.32828 3.49818 0
M  V30 2976 C 262.172 -5.42338 2.81625 0
M  V30 2977 C 263.17 -5.71322 3.74273 0
M  V30 2978 O 262.858 -6.37554 4.89673 0
M  V30 2979 H 262.59 -0.667796 0.104997 0
M  V30 2980 H 265.144 -1.82477 0.942938 0
M  V30 2981 H 263.374 -3.80924 -0.665839 0
M  V30 2982 H 265.063 -4.04633 -0.320519 0
M  V30 2983 H 265.829 -4.35025 2.14425 0
M  V30 2984 H 261.708 -4.51538 0.929202 0
M  V30 2985 H 265.252 -5.55368 4.22152 0
M  V30 2986 H 261.149 -5.71673 2.99768 0
M  V30 2987 H 261.917 -6.56049 4.8943 0
M  V30 2988 N 264.58 -0.43555 -1.51462 0
M  V30 2989 C 265.528 0.391205 -2.29287 0
M  V30 2990 C 266.522 1.02247 -1.35062 0
M  V30 2991 O 267.728 0.957646 -1.52411 0
M  V30 2992 H 264.103 0.144968 -0.737895 0
M  V30 2993 H 266.074 -0.286051 -2.97026 0
M  V30 2994 C 264.823 1.48096 -3.14583 0
M  V30 2995 H 264.146 1.00457 -3.86973 0
M  V30 2996 H 265.586 2.03273 -3.72097 0
M  V30 2997 C 264.045 2.46321 -2.29843 0
M  V30 2998 O 264.575 3.50815 -1.95682 0
M  V30 2999 N 262.781 2.17166 -1.931 0
M  V30 3000 H 262.328 1.32218 -2.21079 0
M  V30 3001 H 262.286 2.83127 -1.36698 0
M  V30 3002 N 266.058 1.56714 -0.166846 0
M  V30 3003 C 267.006 2.19056 0.782123 0
M  V30 3004 C 268 1.15328 1.24079 0
M  V30 3005 O 269.206 1.33537 1.20697 0
M  V30 3006 H 265.581 0.70167 0.270486 0
M  V30 3007 H 267.552 2.97494 0.232322 0
M  V30 3008 C 266.301 2.84206 2.00306 0
M  V30 3009 H 265.624 3.63748 1.65914 0
M  V30 3010 H 267.064 3.31302 2.64604 0
M  V30 3011 C 265.523 1.83744 2.82382 0
M  V30 3012 O 266.053 1.32014 3.79388 0
M  V30 3013 N 264.259 1.52601 2.47308 0
M  V30 3014 H 263.806 1.9486 1.68485 0
M  V30 3015 H 263.764 0.856351 3.02513 0
M  V30 3016 N 267.536 -0.106894 1.57237 0
M  V30 3017 C 268.446 -1.14911 2.0453 0
M  V30 3018 C 269.462 -1.44592 0.96795 0
M  V30 3019 O 270.638 -1.55468 1.2803 0
M  V30 3020 C 267.703 -2.45272 2.45036 0
M  V30 3021 C 266.764 -2.22879 3.66911 0
M  V30 3022 C 265.997 -3.47024 4.05475 0
M  V30 3023 O 266.22 -4.54804 3.44252 0
M  V30 3024 O 265.154 -3.3731 4.98504 0
M  V30 3025 H 268.98 -0.777461 2.9358 0
M  V30 3026 H 266.565 -0.318563 1.45964 0
M  V30 3027 H 268.447 -3.22055 2.71769 0
M  V30 3028 H 267.122 -2.81886 1.59129 0
M  V30 3029 H 266.029 -1.43915 3.45311 0
M  V30 3030 H 267.362 -1.91163 4.53561 0
M  V30 3031 N 269.014 -1.53014 -0.377408 0
M  V30 3032 C 270.291 -1.59215 -1.13622 0
M  V30 3033 C 270.671 -0.392407 -2.07421 0
M  V30 3034 O 270.019 0.618342 -2.19975 0
M  V30 3035 C 270.229 -2.93669 -1.88573 0
M  V30 3036 C 271.577 -3.47822 -2.43526 0
M  V30 3037 O 272.601 -2.9562 -1.98715 0
M  V30 3038 O 271.46 -4.39055 -3.25412 0
M  V30 3039 H 268.554 -0.642625 -0.52054 0
M  V30 3040 H 271.1 -1.65353 -0.381625 0
M  V30 3041 H 269.872 -3.7243 -1.20048 0
M  V30 3042 H 269.495 -2.90968 -2.70968 0
M  V30 3043 N 270.492 0.636531 -1.44174 0
M  V30 3044 C 271.769 1.39463 -1.37148 0
M  V30 3045 C 272.149 2.11082 -0.027507 0
M  V30 3046 O 271.497 2.05954 0.989716 0
M  V30 3047 C 271.707 2.36552 -2.56601 0
M  V30 3048 C 273.055 3.00048 -3.00427 0
M  V30 3049 O 274.079 2.46878 -2.56767 0
M  V30 3050 O 272.938 3.96488 -3.76111 0
M  V30 3051 H 270.032 0.623903 -0.542839 0
M  V30 3052 H 272.578 0.662039 -1.56253 0
M  V30 3053 H 271.35 1.82692 -3.46034 0
M  V30 3054 H 270.973 3.17236 -2.39681 0
M  V30 3055 N 271.97 1.30982 0.876444 0
M  V30 3056 C 272.917 1.18085 1.98304 0
M  V30 3057 C 273.887 0.0682263 1.6596 0
M  V30 3058 O 275.072 0.239937 1.89285 0
M  V30 3059 C 272.212 0.887475 3.33493 0
M  V30 3060 C 271.325 2.08281 3.78475 0
M  V30 3061 C 270.46 1.72678 5.0235 0
M  V30 3062 C 269.499 2.88657 5.39762 0
M  V30 3063 N 268.636 2.53292 6.54819 0
M  V30 3064 H 273.476 2.1275 2.08666 0
M  V30 3065 H 271.013 1.05839 1.02159 0
M  V30 3066 H 272.971 0.697961 4.1132 0
M  V30 3067 H 271.601 -0.022315 3.22792 0
M  V30 3068 H 270.653 2.3833 2.96484 0
M  V30 3069 H 271.965 2.95108 4.02135 0
M  V30 3070 H 271.119 1.50151 5.87826 0
M  V30 3071 H 269.858 0.830327 4.8058 0
M  V30 3072 H 268.863 3.1184 4.52809 0
M  V30 3073 H 270.088 3.79002 5.63502 0
M  V30 3074 H 268.034 1.66163 6.34607 0
M  V30 3075 H 267.951 3.3365 6.7839 0
M  V30 3076 H 269.219 2.34143 7.43503 0
M  V30 3077 N 273.449 -1.08991 1.13837 0
M  V30 3078 C 274.396 -2.15748 0.819835 0
M  V30 3079 C 275.366 -1.64636 -0.220026 0
M  V30 3080 O 276.551 -1.90582 -0.0912757 0
M  V30 3081 C 273.691 -3.4382 0.296913 0
M  V30 3082 C 272.804 -4.0881 1.39636 0
M  V30 3083 C 271.939 -5.24655 0.831314 0
M  V30 3084 C 270.978 -5.81575 1.90886 0
M  V30 3085 N 270.115 -6.88774 1.36142 0
M  V30 3086 H 274.955 -2.42338 1.73426 0
M  V30 3087 H 272.492 -1.18935 0.865613 0
M  V30 3088 H 274.45 -4.17193 -0.0244339 0
M  V30 3089 H 273.08 -3.17535 -0.580628 0
M  V30 3090 H 272.132 -3.33258 1.83422 0
M  V30 3091 H 273.444 -4.47141 2.21058 0
M  V30 3092 H 272.598 -6.04942 0.461515 0
M  V30 3093 H 271.337 -4.87698 -0.013932 0
M  V30 3094 H 270.342 -4.99946 2.28767 0
M  V30 3095 H 271.567 -6.20592 2.75758 0
M  V30 3096 H 269.513 -6.53788 0.538254 0
M  V30 3097 H 269.43 -7.25898 2.11208 0
M  V30 3098 H 270.698 -7.72806 1.01933 0
M  V30 3099 N 274.927 -0.932562 -1.27047 0
M  V30 3100 C 275.874 -0.434072 -2.26681 0
M  V30 3101 C 276.844 0.501639 -1.58344 0
M  V30 3102 O 278.029 0.419734 -1.86126 0
M  V30 3103 C 275.169 0.30261 -3.43771 0
M  V30 3104 C 274.282 -0.667774 -4.26808 0
M  V30 3105 C 273.417 0.0892393 -5.31125 0
M  V30 3106 C 272.456 -0.873532 -6.05835 0
M  V30 3107 N 271.593 -0.148832 -7.01942 0
M  V30 3108 H 276.433 -1.28868 -2.68695 0
M  V30 3109 H 273.97 -0.646713 -1.32121 0
M  V30 3110 H 275.928 0.746092 -4.10474 0
M  V30 3111 H 274.558 1.12142 -3.02695 0
M  V30 3112 H 273.61 -1.22978 -3.59973 0
M  V30 3113 H 274.922 -1.40337 -4.78651 0
M  V30 3114 H 274.076 0.592409 -6.03801 0
M  V30 3115 H 272.815 0.85777 -4.80097 0
M  V30 3116 H 271.82 -1.38791 -5.31994 0
M  V30 3117 H 273.045 -1.64193 -6.58952 0
M  V30 3118 H 270.991 0.601365 -6.53238 0
M  V30 3119 H 270.908 -0.82391 -7.51497 0
M  V30 3120 H 272.176 0.333527 -7.78786 0
M  V30 3121 N 276.405 1.4127 -0.698611 0
M  V30 3122 C 277.651 2.01478 -0.231207 0
M  V30 3123 C 277.984 1.55215 1.16713 0
M  V30 3124 O 277.259 0.764672 1.78838 0
M  V30 3125 C 277.542 3.58912 -0.292281 0
M  V30 3126 C 277.395 4.15293 -1.72778 0
M  V30 3127 C 278.714 4.38736 0.346194 0
M  V30 3128 H 275.833 0.732025 -0.0854878 0
M  V30 3129 H 278.475 1.67977 -0.887906 0
M  V30 3130 H 276.625 3.87582 0.26686 0
M  V30 3131 H 278.297 3.97486 -2.341 0
M  V30 3132 H 276.54 3.7022 -2.26096 0
M  V30 3133 H 277.211 5.24452 -1.72202 0
M  V30 3134 H 279.687 4.15897 -0.130035 0
M  V30 3135 H 278.563 5.48221 0.272932 0
M  V30 3136 H 278.824 4.18425 1.42734 0
M  V30 3137 N 277.883 0.443576 1.51229 0
M  V30 3138 C 279.129 -0.120975 2.02439 0
M  V30 3139 C 279.462 -1.41815 1.32674 0
M  V30 3140 O 278.737 -1.89373 0.443622 0
M  V30 3141 C 279.02 -0.333291 3.58554 0
M  V30 3142 C 278.873 0.982968 4.38928 0
M  V30 3143 C 280.192 -1.10028 4.26124 0
M  V30 3144 H 277.311 -0.0424923 0.735774 0
M  V30 3145 H 279.953 0.583794 1.80809 0
M  V30 3146 H 278.103 -0.933614 3.77115 0
M  V30 3147 H 279.775 1.61775 4.32003 0
M  V30 3148 H 278.018 1.58611 4.03763 0
M  V30 3149 H 278.689 0.788379 5.46341 0
M  V30 3150 H 281.165 -0.591711 4.11871 0
M  V30 3151 H 280.041 -1.21761 5.35225 0
M  V30 3152 H 280.302 -2.12996 3.87408 0
M  V30 3153 N 279.361 -1.56624 0.175154 0
M  V30 3154 C 280.309 -2.19468 -0.770495 0
M  V30 3155 C 281.303 -1.15985 -1.23466 0
M  V30 3156 O 282.509 -1.34176 -1.19987 0
M  V30 3157 H 278.884 -0.703095 -0.266761 0
M  V30 3158 H 280.855 -2.97613 -0.216542 0
M  V30 3159 C 279.604 -2.85264 -1.98796 0
M  V30 3160 H 278.927 -3.64623 -1.63983 0
M  V30 3161 H 280.367 -3.327 -2.62843 0
M  V30 3162 C 278.826 -1.85239 -2.81404 0
M  V30 3163 O 279.356 -1.34024 -3.78682 0
M  V30 3164 N 277.562 -1.53911 -2.46495 0
M  V30 3165 H 277.109 -1.95751 -1.67449 0
M  V30 3166 H 277.067 -0.872382 -3.02054 0
M  V30 3167 N 280.839 0.0985539 -1.57292 0
M  V30 3168 C 282.255 0.45267 -1.53046 0
M  V30 3169 C 282.455 1.80713 -0.891342 0
M  V30 3170 O 281.511 2.4785 -0.482375 0
M  V30 3171 C 282.824 0.418341 -2.97776 0
M  V30 3172 C 284.372 0.500443 -3.08973 0
M  V30 3173 C 284.847 0.496297 -4.55303 0
M  V30 3174 N 286.338 0.557151 -4.59837 0
M  V30 3175 C 287.073 0.575726 -5.70502 0
M  V30 3176 N 286.569 0.550714 -6.90608 0
M  V30 3177 N 288.362 0.620277 -5.58667 0
M  V30 3178 H 280.513 -0.788673 -1.97215 0
M  V30 3179 H 282.776 -0.293188 -0.901524 0
M  V30 3180 H 282.482 -0.509659 -3.47988 0
M  V30 3181 H 282.356 1.2386 -3.56284 0
M  V30 3182 H 284.743 1.41886 -2.58751 0
M  V30 3183 H 284.824 -0.347894 -2.53423 0
M  V30 3184 H 284.468 -0.418162 -5.06176 0
M  V30 3185 H 284.398 1.3618 -5.08687 0
M  V30 3186 H 286.889 0.581816 -3.73394 0
M  V30 3187 H 287.202 0.568075 -7.70709 0
M  V30 3188 H 285.547 0.517816 -6.93068 0
M  V30 3189 H 288.738 0.637322 -4.63741 0
M  V30 3190 H 288.911 0.631283 -6.44918 0
M  V30 3191 N 282.317 1.53212 0.369288 0
M  V30 3192 C 283.563 1.69466 1.11397 0
M  V30 3193 C 283.896 0.443257 1.89074 0
M  V30 3194 O 283.171 -0.559386 1.86282 0
M  V30 3195 C 283.454 2.9422 2.07621 0
M  V30 3196 C 283.307 4.29508 1.33577 0
M  V30 3197 C 284.626 3.14565 3.07794 0
M  V30 3198 H 281.745 0.616667 0.403597 0
M  V30 3199 H 284.387 1.85845 0.395179 0
M  V30 3200 H 282.537 2.80387 2.68916 0
M  V30 3201 H 284.209 4.55147 0.750955 0
M  V30 3202 H 282.452 4.29088 0.637618 0
M  V30 3203 H 283.123 5.12926 2.03989 0
M  V30 3204 H 285.599 3.2756 2.56601 0
M  V30 3205 H 284.475 4.03297 3.72348 0
M  V30 3206 H 284.736 2.29675 3.77759 0
M  V30 3207 N 283.795 -0.628877 1.44509 0
M  V30 3208 C 285.035 -1.39993 1.48934 0
M  V30 3209 C 285.399 -1.91627 0.119604 0
M  V30 3210 O 286.6 -2.68772 0.0385283 0
M  V30 3211 C 284.871 -2.53241 2.52198 0
M  V30 3212 S 286.43 -3.41383 2.75687 0
M  V30 3213 H 283.248 -0.477558 0.526744 0
M  V30 3214 H 285.85 -0.727804 1.81448 0
M  V30 3215 H 284.554 -2.13622 3.50419 0
M  V30 3216 H 284.085 -3.25278 2.21264 0
M  V30 3217 H 286.1 -4.50752 2.07453 0
M  V30 3218 N 285.273 -1.31445 -0.869486 0
M  V30 3219 C 286.55 -1.11795 -1.60503 0
M  V30 3220 C 286.93 0.327168 -2.08549 0
M  V30 3221 O 286.278 1.32135 -1.8642 0
M  V30 3222 C 286.488 -2.13258 -2.76265 0
M  V30 3223 C 287.836 -2.45805 -3.46215 0
M  V30 3224 O 288.86 -2.11688 -2.86473 0
M  V30 3225 O 287.719 -3.04228 -4.5399 0
M  V30 3226 H 284.813 -0.430421 -0.706163 0
M  V30 3227 H 287.359 -1.42925 -0.914907 0
M  V30 3228 H 286.131 -3.10461 -2.3818 0
M  V30 3229 H 285.754 -1.83035 -3.52964 0
M  V30 3230 N 286.751 1.08385 -1.14413 0
M  V30 3231 C 287.699 2.17406 -0.826888 0
M  V30 3232 C 288.693 1.6827 0.195312 0
M  V30 3233 O 289.899 1.79927 0.0513892 0
M  V30 3234 H 286.274 0.70934 -0.249681 0
M  V30 3235 H 288.245 2.41388 -1.75426 0
M  V30 3236 C 286.994 3.46215 -0.320979 0
M  V30 3237 H 286.317 3.84401 -1.0989 0
M  V30 3238 H 287.757 4.23777 -0.137549 0
M  V30 3239 C 286.216 3.23067 0.955472 0
M  V30 3240 O 286.746 3.4668 2.02918 0
M  V30 3241 N 284.952 2.7661 0.890798 0
M  V30 3242 H 284.499 2.57594 0.0168815 0
M  V30 3243 H 284.457 2.61501 1.74542 0
M  V30 3244 N 288.23 0.939286 1.26551 0
M  V30 3245 C 289.47 0.5933 1.956 0
M  V30 3246 C 289.834 -0.851515 1.72085 0
M  V30 3247 O 291.035 -1.30634 2.34921 0
M  V30 3248 C 289.306 0.923996 3.45249 0
M  V30 3249 S 290.865 0.688269 4.33369 0
M  V30 3250 H 287.683 0.218591 0.676564 0
M  V30 3251 H 290.285 1.2102 1.5354 0
M  V30 3252 H 288.989 1.97297 3.59864 0
M  V30 3253 H 288.52 0.296746 3.92279 0
M  V30 3254 H 290.535 -0.448434 4.9417 0
M  V30 3255 N 289.708 -1.40897 0.706093 0
M  V30 3256 C 290.936 -2.05373 0.250887 0
M  V30 3257 C 291.351 -1.53172 -1.10381 0
M  V30 3258 O 290.708 -0.684305 -1.69185 0
M  V30 3259 C 290.759 -3.6088 0.211571 0
M  V30 3260 O 290.48 -4.11153 1.51276 0
M  V30 3261 C 291.981 -4.42517 -0.263346 0
M  V30 3262 H 289.201 -0.66115 0.114552 0
M  V30 3263 H 291.745 -1.80479 0.961635 0
M  V30 3264 H 289.9 -3.84777 -0.450073 0
M  V30 3265 H 290.314 -5.05279 1.40689 0
M  V30 3266 H 291.788 -5.51479 -0.239718 0
M  V30 3267 H 292.265 -4.19396 -1.30397 0
M  V30 3268 H 292.871 -4.23708 0.367677 0
M  V30 3269 N 291.186 -0.45159 -1.50991 0
M  V30 3270 C 292.426 0.109066 -2.04109 0
M  V30 3271 C 292.79 1.38716 -1.32747 0
M  V30 3272 O 293.991 2.02896 -1.76314 0
M  V30 3273 C 292.262 0.308354 -3.56067 0
M  V30 3274 S 293.821 0.830369 -4.30872 0
M  V30 3275 H 290.639 0.0251531 -0.710555 0
M  V30 3276 H 293.241 -0.614264 -1.85599 0
M  V30 3277 H 291.945 -0.627962 -4.05567 0
M  V30 3278 H 291.476 1.05836 -3.78896 0
M  V30 3279 H 293.491 2.10626 -4.49279 0
M  V30 3280 N 292.664 1.56529 -0.183458 0
M  V30 3281 C 293.912 1.96855 0.457452 0
M  V30 3282 C 294.233 1.07104 1.62953 0
M  V30 3283 O 293.503 0.139887 1.954 0
M  V30 3284 H 292.083 0.72693 0.171992 0
M  V30 3285 H 294.745 1.93056 -0.267476 0
M  V30 3286 H 293.841 3.01423 0.809368 0
M  V30 3287 N 294.142 -0.090211 1.57342 0
M  V30 3288 C 295.089 -1.10909 2.02405 0
M  V30 3289 C 296.059 -1.39523 0.901252 0
M  V30 3290 O 297.244 -1.50903 1.1676 0
M  V30 3291 C 294.384 -2.42277 2.45755 0
M  V30 3292 C 293.497 -2.20352 3.71576 0
M  V30 3293 C 292.632 -3.45154 4.03785 0
M  V30 3294 C 291.671 -3.18512 5.22701 0
M  V30 3295 N 290.808 -4.35593 5.50639 0
M  V30 3296 H 295.648 -0.71782 2.89225 0
M  V30 3297 H 293.185 -0.342901 1.43048 0
M  V30 3298 H 295.143 -3.18951 2.68935 0
M  V30 3299 H 293.773 -2.79242 1.61938 0
M  V30 3300 H 292.825 -1.34458 3.55844 0
M  V30 3301 H 294.137 -1.96661 4.58395 0
M  V30 3302 H 293.291 -4.30233 4.27767 0
M  V30 3303 H 292.03 -3.71904 3.15498 0
M  V30 3304 H 291.035 -2.31827 4.98534 0
M  V30 3305 H 292.26 -2.93103 6.12591 0
M  V30 3306 H 290.206 -4.6241 4.6531 0
M  V30 3307 H 290.123 -4.1511 6.31838 0
M  V30 3308 H 291.391 -5.21723 5.7916 0
M  V30 3309 N 295.62 -1.53406 -0.361157 0
M  V30 3310 C 296.567 -1.80156 -1.44265 0
M  V30 3311 C 297.537 -0.646183 -1.53015 0
M  V30 3312 O 298.722 -0.888818 -1.68833 0
M  V30 3313 C 295.862 -2.00116 -2.81154 0
M  V30 3314 C 294.975 -3.27833 -2.81335 0
M  V30 3315 C 294.11 -3.37957 -4.09828 0
M  V30 3316 C 293.149 -4.59689 -4.04168 0
M  V30 3317 N 292.286 -4.66942 -5.24318 0
M  V30 3318 H 297.126 -2.72438 -1.20754 0
M  V30 3319 H 294.663 -1.34954 -0.585296 0
M  V30 3320 H 296.621 -2.09677 -3.60682 0
M  V30 3321 H 295.251 -1.11167 -3.03054 0
M  V30 3322 H 294.303 -3.27204 -1.94014 0
M  V30 3323 H 295.615 -4.17442 -2.73027 0
M  V30 3324 H 294.769 -3.46853 -4.97773 0
M  V30 3325 H 293.508 -2.46372 -4.20894 0
M  V30 3326 H 292.513 -4.50889 -3.14609 0
M  V30 3327 H 293.738 -5.5262 -3.947 0
M  V30 3328 H 291.684 -3.7826 -5.35962 0
M  V30 3329 H 291.601 -5.50462 -5.18197 0
M  V30 3330 H 292.869 -4.80127 -6.14084 0
M  V30 3331 N 297.098 0.621204 -1.44841 0
M  V30 3332 C 298.008 1.7612 -1.5498 0
M  V30 3333 C 299.024 1.68477 -0.434927 0
M  V30 3334 O 300.2 1.89076 -0.693693 0
M  V30 3335 C 297.265 3.1254 -1.50065 0
M  V30 3336 C 296.326 3.31741 -2.72482 0
M  V30 3337 C 295.559 4.61653 -2.67792 0
M  V30 3338 O 295.782 5.431 -1.74352 0
M  V30 3339 O 294.716 4.83271 -3.58794 0
M  V30 3340 H 298.542 1.70518 -2.51311 0
M  V30 3341 H 296.127 0.783643 -1.27198 0
M  V30 3342 H 298.009 3.93844 -1.49882 0
M  V30 3343 H 296.684 3.18663 -0.568806 0
M  V30 3344 H 295.591 2.50077 -2.7823 0
M  V30 3345 H 296.924 3.30486 -3.64746 0
M  V30 3346 N 298.576 1.31904 0.862503 0
M  V30 3347 C 299.523 1.20182 1.9704 0
M  V30 3348 C 300.493 0.0858247 1.65878 0
M  V30 3349 O 301.678 0.26 1.8902 0
M  V30 3350 C 298.818 0.922797 3.32533 0
M  V30 3351 C 297.931 2.12284 3.76244 0
M  V30 3352 C 297.066 1.77996 5.00491 0
M  V30 3353 C 296.105 2.94366 5.36671 0
M  V30 3354 N 295.242 2.60223 6.52095 0
M  V30 3355 H 300.082 2.14951 2.06398 0
M  V30 3356 H 297.619 1.06917 1.01031 0
M  V30 3357 H 299.577 0.741548 4.10557 0
M  V30 3358 H 298.207 0.0119227 3.22798 0
M  V30 3359 H 297.259 2.41461 2.9394 0
M  V30 3360 H 298.571 2.99357 3.98982 0
M  V30 3361 H 297.725 1.56377 5.862 0
M  V30 3362 H 296.464 0.881252 4.79672 0
M  V30 3363 H 295.469 3.16625 4.49476 0
M  V30 3364 H 296.694 3.84957 5.59451 0
M  V30 3365 H 294.64 1.72884 6.32809 0
M  V30 3366 H 294.557 3.40827 6.74814 0
M  V30 3367 H 295.825 2.42016 7.40978 0
M  V30 3368 N 300.054 -1.07777 1.14986 0
M  V30 3369 C 300.984 -2.16865 0.865557 0
M  V30 3370 C 301.965 -1.69123 -0.182083 0
M  V30 3371 O 303.15 -1.94164 -0.0373815 0
M  V30 3372 C 300.28 -3.45539 0.349313 0
M  V30 3373 C 299.234 -4.06708 1.33313 0
M  V30 3374 C 298.56 -5.30411 0.675918 0
M  V30 3375 C 299.86 -4.47241 2.69764 0
M  V30 3376 H 301.554 -2.40905 1.77778 0
M  V30 3377 H 299.1 -1.15781 0.856203 0
M  V30 3378 H 301.053 -4.21174 0.137983 0
M  V30 3379 H 299.777 -3.21072 -0.598362 0
M  V30 3380 H 298.436 -3.33112 1.53075 0
M  V30 3381 H 298.084 -5.02232 -0.277767 0
M  V30 3382 H 297.784 -5.72293 1.33244 0
M  V30 3383 H 299.308 -6.08755 0.474262 0
M  V30 3384 H 300.722 -5.14025 2.53873 0
M  V30 3385 H 299.119 -5.00062 3.3175 0
M  V30 3386 H 300.189 -3.58818 3.26156 0
M  V30 3387 N 301.532 -0.945985 -1.26051 0
M  V30 3388 C 302.462 -0.477172 -2.28572 0
M  V30 3389 C 303.443 0.472032 -1.63419 0
M  V30 3390 O 304.628 0.372853 -1.90587 0
M  V30 3391 C 301.758 0.253975 -3.4637 0
M  V30 3392 C 300.712 -0.609135 -4.23643 0
M  V30 3393 C 300.038 0.252252 -5.34105 0
M  V30 3394 C 301.338 -1.8829 -4.8718 0
M  V30 3395 H 303.032 -1.33402 -2.68038 0
M  V30 3396 H 300.578 -0.642904 -1.28852 0
M  V30 3397 H 302.531 0.593016 -4.17207 0
M  V30 3398 H 301.255 1.145 -3.05871 0
M  V30 3399 H 299.914 -0.931138 -3.54578 0
M  V30 3400 H 299.562 1.14278 -4.89846 0
M  V30 3401 H 299.262 -0.32188 -5.86718 0
M  V30 3402 H 300.786 0.586454 -6.07777 0
M  V30 3403 H 302.2 -1.61081 -5.50205 0
M  V30 3404 H 300.597 -2.40199 -5.49931 0
M  V30 3405 H 301.667 -2.59134 -4.09851 0
M  V30 3406 N 303.011 1.40521 -0.713556 0
M  V30 3407 C 303.959 2.32549 -0.0485227 0
M  V30 3408 C 304.953 1.51931 0.74922 0
M  V30 3409 O 306.159 1.67745 0.652816 0
M  V30 3410 H 302.534 0.751994 0.00311138 0
M  V30 3411 H 304.505 2.86291 -0.841443 0
M  V30 3412 C 303.254 3.36879 0.860687 0
M  V30 3413 H 302.577 3.98978 0.256246 0
M  V30 3414 H 304.017 4.03772 1.294 0
M  V30 3415 C 302.476 2.72197 1.9852 0
M  V30 3416 O 303.006 2.5837 3.07584 0
M  V30 3417 N 301.212 2.30612 1.76823 0
M  V30 3418 H 300.759 2.42059 0.881217 0
M  V30 3419 H 300.717 1.87672 2.52243 0
M  V30 3420 N 304.489 0.459591 1.5075 0
M  V30 3421 C 305.714 -0.0996819 2.0716 0
M  V30 3422 C 306.139 -1.33761 1.32249 0
M  V30 3423 O 305.497 -1.77551 0.366786 0
M  V30 3424 C 305.545 -0.378226 3.58611 0
M  V30 3425 O 304.649 -1.46081 3.85661 0
M  V30 3426 H 303.99 0.00791392 0.663953 0
M  V30 3427 H 306.52 0.647329 1.9409 0
M  V30 3428 H 306.53 -0.622135 4.03229 0
M  V30 3429 H 305.205 0.526439 4.12555 0
M  V30 3430 H 303.782 -1.20511 3.5289 0
M  V30 3431 N 305.967 -1.56429 0.191757 0
M  V30 3432 C 306.877 -2.22541 -0.742481 0
M  V30 3433 C 307.893 -1.22342 -1.23727 0
M  V30 3434 O 309.069 -1.55069 -1.28513 0
M  V30 3435 C 306.134 -2.8692 -1.94623 0
M  V30 3436 C 305.195 -4.02378 -1.49633 0
M  V30 3437 C 304.428 -4.63678 -2.6427 0
M  V30 3438 O 304.651 -4.23895 -3.81666 0
M  V30 3439 O 303.585 -5.53202 -2.37174 0
M  V30 3440 H 307.411 -3.02977 -0.209462 0
M  V30 3441 H 304.996 -1.49353 -0.0373832 0
M  V30 3442 H 306.878 -3.27663 -2.64982 0
M  V30 3443 H 305.553 -2.09466 -2.46791 0
M  V30 3444 H 304.46 -3.66265 -0.761636 0
M  V30 3445 H 305.793 -4.81487 -1.02134 0
M  V30 3446 N 307.445 0.0818655 -1.57387 0
M  V30 3447 C 308.393 1.11712 -2.04018 0
M  V30 3448 C 309.387 1.40683 -0.94364 0
M  V30 3449 O 310.593 1.40209 -1.12878 0
M  V30 3450 H 306.968 0.377542 -0.650358 0
M  V30 3451 H 308.939 0.697614 -2.90131 0
M  V30 3452 C 307.688 2.42537 -2.49141 0
M  V30 3453 H 307.011 2.21092 -3.33104 0
M  V30 3454 H 308.451 3.13446 -2.85531 0
M  V30 3455 C 306.91 3.0778 -1.37014 0
M  V30 3456 O 307.44 3.95436 -0.706621 0
M  V30 3457 N 305.646 2.68242 -1.11779 0
M  V30 3458 H 305.193 1.97052 -1.65917 0
M  V30 3459 H 305.151 3.1222 -0.369594 0
M  V30 3460 N 308.923 1.53595 0.353017 0
M  V30 3461 C 309.87 1.80919 1.43308 0
M  V30 3462 C 310.84 0.654288 1.5267 0
M  V30 3463 O 312.025 0.897759 1.6836 0
M  V30 3464 C 309.165 2.01605 2.80089 0
M  V30 3465 C 308.278 3.29321 2.79593 0
M  V30 3466 C 307.413 3.40125 4.0803 0
M  V30 3467 C 306.452 4.61826 4.01725 0
M  V30 3468 N 305.589 4.69716 5.21834 0
M  V30 3469 H 310.429 2.73074 1.19308 0
M  V30 3470 H 307.966 1.35263 0.578131 0
M  V30 3471 H 309.924 2.11586 3.59565 0
M  V30 3472 H 308.554 1.12772 3.0246 0
M  V30 3473 H 307.606 3.28229 1.92276 0
M  V30 3474 H 308.918 4.18884 2.70809 0
M  V30 3475 H 308.072 3.49488 4.95927 0
M  V30 3476 H 306.811 2.48601 4.19582 0
M  V30 3477 H 305.816 4.52552 3.12213 0
M  V30 3478 H 307.041 5.54705 3.91764 0
M  V30 3479 H 304.987 3.81097 5.33948 0
M  V30 3480 H 304.904 5.53202 5.1527 0
M  V30 3481 H 306.172 4.83376 6.11529 0
M  V30 3482 N 310.401 -0.613514 1.45168 0
M  V30 3483 C 311.647 -1.37471 1.49096 0
M  V30 3484 C 311.98 -1.93765 0.129901 0
M  V30 3485 O 311.255 -1.74707 -0.854858 0
M  V30 3486 C 311.538 -2.52701 2.56542 0
M  V30 3487 C 311.391 -2.01643 4.0207 0
M  V30 3488 C 312.71 -3.54849 2.60327 0
M  V30 3489 H 309.829 -0.498502 0.54283 0
M  V30 3490 H 312.471 -0.692125 1.76945 0
M  V30 3491 H 310.621 -3.10931 2.32926 0
M  V30 3492 H 312.293 -1.48108 4.36877 0
M  V30 3493 H 310.536 -1.32688 4.13009 0
M  V30 3494 H 311.207 -2.84681 4.72928 0
M  V30 3495 H 313.683 -3.0645 2.81474 0
M  V30 3496 H 312.559 -4.32973 3.37381 0
M  V30 3497 H 312.82 -4.10079 1.6519 0
M  V30 3498 N 311.879 -1.3236 -0.855495 0
M  V30 3499 C 312.809 -1.23833 -1.97958 0
M  V30 3500 C 313.79 -0.122361 -1.69659 0
M  V30 3501 O 314.975 -0.30939 -1.9172 0
M  V30 3502 C 312.105 -0.959772 -3.33775 0
M  V30 3503 C 311.059 -2.03689 -3.76424 0
M  V30 3504 C 310.385 -1.61075 -5.09862 0
M  V30 3505 C 311.685 -3.4518 -3.9198 0
M  V30 3506 H 313.379 -2.1788 -2.0535 0
M  V30 3507 H 310.925 -1.04891 -0.986605 0
M  V30 3508 H 312.878 -0.886678 -4.11966 0
M  V30 3509 H 311.602 0.0163404 -3.26596 0
M  V30 3510 H 310.261 -2.10012 -3.00484 0
M  V30 3511 H 309.909 -0.622107 -4.99138 0
M  V30 3512 H 309.609 -2.33143 -5.39368 0
M  V30 3513 H 311.133 -1.55201 -5.90546 0
M  V30 3514 H 312.547 -3.4145 -4.60526 0
M  V30 3515 H 310.944 -4.1559 -4.32903 0
M  V30 3516 H 312.014 -3.84903 -2.94919 0
M  V30 3517 N 313.357 1.07166 -1.15556 0
M  V30 3518 C 314.606 1.79181 -0.926132 0
M  V30 3519 C 314.919 1.87768 0.547967 0
M  V30 3520 O 316.125 2.56323 0.895036 0
M  V30 3521 C 314.581 3.22 -1.60761 0
M  V30 3522 C 314.189 3.21607 -3.11886 0
M  V30 3523 C 315.933 3.9861 -1.4598 0
M  V30 3524 C 313.84 4.59092 -3.72812 0
M  V30 3525 H 312.77 0.67154 -0.342856 0
M  V30 3526 H 315.421 1.2027 -1.3859 0
M  V30 3527 H 313.803 3.81115 -1.07553 0
M  V30 3528 H 314.977 2.72127 -3.71865 0
M  V30 3529 H 313.292 2.58495 -3.2645 0
M  V30 3530 H 315.889 5.00225 -1.88888 0
M  V30 3531 H 316.232 4.143 -0.407541 0
M  V30 3532 H 316.765 3.45996 -1.96295 0
M  V30 3533 H 313.504 4.48606 -4.77946 0
M  V30 3534 H 313.024 5.08803 -3.17616 0
M  V30 3535 H 314.703 5.28059 -3.73848 0
M  V30 3536 N 314.835 0.952656 1.25548 0
M  V30 3537 C 315.783 0.462354 2.27958 0
M  V30 3538 C 316.777 -0.46634 1.62855 0
M  V30 3539 O 317.983 -0.343287 1.76696 0
M  V30 3540 H 314.358 0.13101 0.7405 0
M  V30 3541 H 316.329 1.33839 2.66702 0
M  V30 3542 C 315.078 -0.24628 3.46827 0
M  V30 3543 H 314.401 0.459192 3.97154 0
M  V30 3544 H 315.841 -0.553393 4.20373 0
M  V30 3545 C 314.3 -1.4681 3.0323 0
M  V30 3546 O 314.83 -2.56591 3.09069 0
M  V30 3547 N 313.036 -1.32874 2.58443 0
M  V30 3548 H 312.583 -0.435536 2.53891 0
M  V30 3549 H 312.541 -2.14742 2.29637 0
M  V30 3550 N 316.313 -1.40141 0.720998 0
M  V30 3551 C 317.223 -2.34486 0.0731031 0
M  V30 3552 C 318.239 -1.57587 -0.737723 0
M  V30 3553 O 319.415 -1.89949 -0.669429 0
M  V30 3554 C 316.48 -3.36528 -0.833656 0
M  V30 3555 C 315.541 -4.29298 -0.0121673 0
M  V30 3556 C 314.774 -5.26466 -0.875742 0
M  V30 3557 O 314.997 -5.29745 -2.11485 0
M  V30 3558 O 313.931 -6.01092 -0.31185 0
M  V30 3559 H 317.757 -2.9152 0.851444 0
M  V30 3560 H 315.342 -1.41427 0.481527 0
M  V30 3561 H 317.224 -3.99093 -1.35289 0
M  V30 3562 H 315.899 -2.81899 -1.59105 0
M  V30 3563 H 314.806 -3.70001 0.552262 0
M  V30 3564 H 316.139 -4.87094 0.707129 0
M  V30 3565 N 317.792 -0.46758 -1.50504 0
M  V30 3566 C 318.739 0.328413 -2.28452 0
M  V30 3567 C 319.709 0.990313 -1.33349 0
M  V30 3568 O 320.894 1.00343 -1.62284 0
M  V30 3569 C 318.034 1.40648 -3.15138 0
M  V30 3570 C 317.147 0.759709 -4.25267 0
M  V30 3571 C 316.282 1.81537 -4.99217 0
M  V30 3572 C 315.321 1.14866 -6.01226 0
M  V30 3573 N 314.458 2.14702 -6.68467 0
M  V30 3574 H 319.298 -0.342603 -2.96024 0
M  V30 3575 H 316.835 -0.180801 -1.45985 0
M  V30 3576 H 318.793 2.04315 -3.63746 0
M  V30 3577 H 317.423 2.04671 -2.49619 0
M  V30 3578 H 316.475 0.0105671 -3.80399 0
M  V30 3579 H 317.787 0.233243 -4.98254 0
M  V30 3580 H 316.941 2.52793 -5.51526 0
M  V30 3581 H 315.68 2.37564 -4.25928 0
M  V30 3582 H 314.685 0.42171 -5.4818 0
M  V30 3583 H 315.91 0.595334 -6.76485 0
M  V30 3584 H 313.856 2.69752 -5.97972 0
M  V30 3585 H 313.773 1.6703 -7.37317 0
M  V30 3586 H 315.041 2.85348 -7.25394 0
M  V30 3587 N 319.27 1.56325 -0.20005 0
M  V30 3588 C 320.547 1.89484 0.48529 0
M  V30 3589 C 320.927 1.1143 1.79294 0
M  V30 3590 O 320.275 0.216919 2.27468 0
M  V30 3591 C 320.485 3.41923 0.699243 0
M  V30 3592 C 321.833 4.12256 1.01638 0
M  V30 3593 O 322.857 3.47402 0.786792 0
M  V30 3594 O 321.716 5.26887 1.45095 0
M  V30 3595 H 318.81 0.787144 0.253639 0
M  V30 3596 H 321.356 1.67985 -0.240633 0
M  V30 3597 H 320.128 3.90658 -0.224008 0
M  V30 3598 H 319.751 3.69131 1.47744 0
M  V30 3599 N 320.748 -0.0735177 1.57428 0
M  V30 3600 C 321.996 -0.771472 1.86796 0
M  V30 3601 C 322.317 -1.78201 0.791804 0
M  V30 3602 O 321.587 -1.95074 -0.179718 0
M  V30 3603 H 320.167 -0.28791 0.689287 0
M  V30 3604 H 322.829 -0.0500161 1.94836 0
M  V30 3605 H 321.925 -1.28874 2.8425 0
M  V30 3606 N 322.226 -1.5378 -0.344866 0
M  V30 3607 C 323.136 -1.84667 -1.4469 0
M  V30 3608 C 324.152 -0.736704 -1.57635 0
M  V30 3609 O 325.328 -1.02888 -1.73136 0
M  V30 3610 C 322.393 -2.04869 -2.79696 0
M  V30 3611 C 321.454 -3.28731 -2.76106 0
M  V30 3612 C 320.687 -3.4796 -4.04673 0
M  V30 3613 O 320.91 -2.71052 -5.01883 0
M  V30 3614 O 319.844 -4.41383 -4.09224 0
M  V30 3615 H 323.67 -2.78334 -1.21506 0
M  V30 3616 H 321.255 -1.39418 -0.536921 0
M  V30 3617 H 323.137 -2.19609 -3.59652 0
M  V30 3618 H 321.812 -1.14391 -3.02814 0
M  V30 3619 H 320.719 -3.19396 -1.94774 0
M  V30 3620 H 322.052 -4.19198 -2.57941 0
M  V30 3621 N 323.704 0.605807 -1.45491 0
M  V30 3622 C 324.934 1.38934 -1.52908 0
M  V30 3623 C 325.342 1.88513 -0.161086 0
M  V30 3624 O 324.685 1.62962 0.847891 0
M  V30 3625 C 324.747 2.62737 -2.45376 0
M  V30 3626 C 324.411 2.34785 -3.92078 0
M  V30 3627 C 325.408 1.95038 -4.8193 0
M  V30 3628 C 323.093 2.47642 -4.37011 0
M  V30 3629 C 325.087 1.68511 -6.14722 0
M  V30 3630 C 322.774 2.20728 -5.69844 0
M  V30 3631 C 323.772 1.81225 -6.58519 0
M  V30 3632 O 323.46 1.54627 -7.88889 0
M  V30 3633 H 323.192 0.431629 -0.520262 0
M  V30 3634 H 325.746 0.74573 -1.91384 0
M  V30 3635 H 323.976 3.29824 -2.01874 0
M  V30 3636 H 325.665 3.24783 -2.43456 0
M  V30 3637 H 326.431 1.84639 -4.48479 0
M  V30 3638 H 322.31 2.77356 -3.68232 0
M  V30 3639 H 325.854 1.37602 -6.83894 0
M  V30 3640 H 321.751 2.30744 -6.02849 0
M  V30 3641 H 322.519 1.68665 -8.00933 0
M  V30 3642 N 325.182 1.32811 0.848464 0
M  V30 3643 C 326.431 1.23075 1.59798 0
M  V30 3644 C 326.744 -0.204419 1.94529 0
M  V30 3645 O 327.95 -0.423701 2.68173 0
M  V30 3646 C 326.406 2.15594 2.88179 0
M  V30 3647 C 326.014 3.64228 2.60849 0
M  V30 3648 C 327.758 2.14709 3.66197 0
M  V30 3649 C 325.665 4.48689 3.85269 0
M  V30 3650 H 324.595 0.457091 0.599653 0
M  V30 3651 H 327.246 1.57813 0.936342 0
M  V30 3652 H 325.628 1.73778 3.55833 0
M  V30 3653 H 326.802 4.14424 2.01467 0
M  V30 3654 H 325.117 3.67306 1.96151 0
M  V30 3655 H 327.714 2.75046 4.58534 0
M  V30 3656 H 328.057 1.13966 4.00397 0
M  V30 3657 H 328.59 2.54837 3.05455 0
M  V30 3658 H 325.329 5.5027 3.56207 0
M  V30 3659 H 324.849 4.03241 4.44024 0
M  V30 3660 H 326.528 4.62006 4.52946 0
M  V30 3661 N 326.66 -1.06551 1.16123 0
M  V30 3662 C 327.888 -1.83005 0.965237 0
M  V30 3663 C 328.303 -1.82423 -0.486542 0
M  V30 3664 O 327.66 -1.24152 -1.33763 0
M  V30 3665 C 327.711 -3.29733 1.48183 0
M  V30 3666 O 327.432 -3.30416 2.87674 0
M  V30 3667 C 328.933 -4.22926 1.32848 0
M  V30 3668 H 326.153 -0.577118 0.342309 0
M  V30 3669 H 328.697 -1.3445 1.54089 0
M  V30 3670 H 326.852 -3.75609 0.948517 0
M  V30 3671 H 327.266 -4.22149 3.11272 0
M  V30 3672 H 328.74 -5.23916 1.73827 0
M  V30 3673 H 329.217 -4.38346 0.273692 0
M  V30 3674 H 329.823 -3.82894 1.85127 0
M  V30 3675 N 328.138 -0.959301 -1.25041 0
M  V30 3676 C 329.048 -0.489994 -2.29426 0
M  V30 3677 C 330.064 0.444944 -1.68215 0
M  V30 3678 O 331.24 0.320046 -1.98841 0
M  V30 3679 C 328.305 0.220309 -3.45999 0
M  V30 3680 C 327.366 -0.753418 -4.22637 0
M  V30 3681 C 326.599 -0.076918 -5.33645 0
M  V30 3682 O 326.822 1.13649 -5.58963 0
M  V30 3683 O 325.756 -0.764824 -5.97021 0
M  V30 3684 H 329.582 -1.35755 -2.71669 0
M  V30 3685 H 327.167 -0.725961 -1.30576 0
M  V30 3686 H 329.049 0.619677 -4.16819 0
M  V30 3687 H 327.724 1.06296 -3.0575 0
M  V30 3688 H 326.631 -1.20308 -3.54227 0
M  V30 3689 H 327.964 -1.56423 -4.66683 0
M  V30 3690 N 329.616 1.39756 -0.72842 0
M  V30 3691 C 330.564 2.32485 -0.0731849 0
M  V30 3692 C 331.558 1.52717 0.733063 0
M  V30 3693 O 332.764 1.68428 0.634988 0
M  V30 3694 H 329.139 0.751984 -0.00486469 0
M  V30 3695 H 331.11 2.85382 -0.871761 0
M  V30 3696 C 329.859 3.37773 0.824908 0
M  V30 3697 H 329.182 3.99227 0.213915 0
M  V30 3698 H 330.622 4.05121 1.25111 0
M  V30 3699 C 329.081 2.74287 1.95622 0
M  V30 3700 O 329.611 2.61618 3.04826 0
M  V30 3701 N 327.817 2.32475 1.74367 0
M  V30 3702 H 327.364 2.4298 0.855494 0
M  V30 3703 H 327.322 1.90337 2.50238 0
M  V30 3704 N 331.094 0.475555 1.50254 0
M  V30 3705 C 332.34 -0.0780073 2.0265 0
M  V30 3706 C 332.673 -1.38968 1.35652 0
M  V30 3707 O 331.948 -1.8839 0.483691 0
M  V30 3708 C 332.231 -0.257161 3.59181 0
M  V30 3709 C 332.084 1.07585 4.36744 0
M  V30 3710 C 333.403 -1.00965 4.28362 0
M  V30 3711 H 330.522 -0.0268758 0.73651 0
M  V30 3712 H 333.164 0.622015 1.7953 0
M  V30 3713 H 331.314 -0.853412 3.79011 0
M  V30 3714 H 332.986 1.70902 4.28474 0
M  V30 3715 H 331.229 1.6714 4.00308 0
M  V30 3716 H 331.9 0.904088 5.44546 0
M  V30 3717 H 334.376 -0.504214 4.13034 0
M  V30 3718 H 333.252 -1.10381 5.37687 0
M  V30 3719 H 333.513 -2.04731 3.91839 0
M  V30 3720 N 332.573 -1.56217 0.208337 0
M  V30 3721 C 333.819 -1.98242 -0.427552 0
M  V30 3722 C 334.152 -1.09554 -1.60348 0
M  V30 3723 O 333.427 -0.15035 -1.93918 0
M  V30 3724 C 333.71 -3.4931 -0.874907 0
M  V30 3725 C 333.563 -4.48773 0.303751 0
M  V30 3726 C 334.882 -4.04424 -1.73577 0
M  V30 3727 H 332.001 -0.720744 -0.153936 0
M  V30 3728 H 334.643 -1.87586 0.30192 0
M  V30 3729 H 332.793 -3.58522 -1.49648 0
M  V30 3730 H 334.465 -4.51586 0.941682 0
M  V30 3731 H 332.708 -4.23194 0.953375 0
M  V30 3732 H 333.379 -5.51976 -0.0519883 0
M  V30 3733 H 335.855 -3.98075 -1.21143 0
M  V30 3734 H 334.731 -5.1047 -2.01771 0
M  V30 3735 H 334.992 -3.50494 -2.69456 0
M  V30 3736 N 334.051 0.0651679 -1.57465 0
M  V30 3737 C 335.276 0.779605 -1.9219 0
M  V30 3738 C 335.701 1.69988 -0.805333 0
M  V30 3739 O 335.059 1.79685 0.241435 0
M  V30 3740 C 335.107 1.54364 -3.2589 0
M  V30 3741 O 334.211 2.65474 -3.1559 0
M  V30 3742 H 333.552 0.212249 -0.629163 0
M  V30 3743 H 336.082 0.0314294 -2.04576 0
M  V30 3744 H 336.092 1.92146 -3.59922 0
M  V30 3745 H 334.767 0.868457 -4.06732 0
M  V30 3746 H 333.344 2.30501 -2.93128 0
M  V30 3747 N 335.529 1.53961 0.336706 0
M  V30 3748 C 336.754 1.75797 1.10046 0
M  V30 3749 C 337.179 0.498985 1.81361 0
M  V30 3750 O 336.537 -0.548769 1.72795 0
M  V30 3751 C 336.585 2.94257 2.08436 0
M  V30 3752 O 335.689 2.64883 3.16087 0
M  V30 3753 H 335.03 0.582936 0.317934 0
M  V30 3754 H 337.56 2.00945 0.38501 0
M  V30 3755 H 337.57 3.21237 2.51537 0
M  V30 3756 H 336.245 3.85564 1.55927 0
M  V30 3757 H 334.822 2.48812 2.77753 0
M  V30 3758 N 337.007 -0.598083 1.45811 0
M  V30 3759 C 338.247 -1.36802 1.5187 0
M  V30 3760 C 338.611 -1.9133 0.160224 0
M  V30 3761 O 339.812 -2.6863 0.0955302 0
M  V30 3762 C 338.083 -2.47835 2.57513 0
M  V30 3763 S 339.642 -3.35458 2.82866 0
M  V30 3764 H 336.46 -0.466278 0.536755 0
M  V30 3765 H 339.062 -0.689152 1.82951 0
M  V30 3766 H 337.766 -2.06141 3.54872 0
M  V30 3767 H 337.297 -3.20512 2.28114 0
M  V30 3768 H 339.312 -4.46251 2.16967 0
M  V30 3769 N 338.485 -1.33259 -0.841409 0
M  V30 3770 C 339.733 -1.24326 -1.59334 0
M  V30 3771 C 340.054 0.191564 -1.94057 0
M  V30 3772 O 339.324 1.11967 -1.60749 0
M  V30 3773 H 337.904 -0.457174 -0.590763 0
M  V30 3774 H 340.566 -1.66947 -1.00571 0
M  V30 3775 H 339.662 -1.8352 -2.52442 0
M  V30 3776 N 339.963 1.05934 -1.16686 0
M  V30 3777 C 340.911 2.15603 -0.872817 0
M  V30 3778 C 341.905 1.68647 0.159576 0
M  V30 3779 O 343.111 1.79995 0.0132125 0
M  V30 3780 H 339.486 0.703885 -0.264671 0
M  V30 3781 H 341.457 2.37613 -1.80507 0
M  V30 3782 C 340.206 3.45457 -0.394344 0
M  V30 3783 H 339.529 3.81984 -1.18019 0
M  V30 3784 H 340.969 4.2339 -0.227408 0
M  V30 3785 C 339.428 3.25021 0.88673 0
M  V30 3786 O 339.958 3.50906 1.95519 0
M  V30 3787 N 338.164 2.78437 0.831925 0
M  V30 3788 H 337.711 2.57572 -0.0377619 0
M  V30 3789 H 337.669 2.65144 1.68956 0
M  V30 3790 N 341.441 0.965919 1.2453 0
M  V30 3791 C 342.681 0.634656 1.94297 0
M  V30 3792 C 343.045 -0.814822 1.73852 0
M  V30 3793 O 344.246 -1.25622 2.3764 0
M  V30 3794 C 342.517 0.99702 3.43212 0
M  V30 3795 S 344.076 0.780038 4.31811 0
M  V30 3796 H 340.894 0.232893 0.671775 0
M  V30 3797 H 343.496 1.24249 1.50938 0
M  V30 3798 H 342.2 2.04886 3.55598 0
M  V30 3799 H 341.731 0.379888 3.91562 0
M  V30 3800 H 343.746 -0.343512 4.9501 0
M  V30 3801 N 342.919 -1.39368 0.735821 0
M  V30 3802 C 344.149 -2.04498 0.293967 0
M  V30 3803 C 344.557 -1.55593 -1.07645 0
M  V30 3804 O 343.9 -0.716324 -1.69158 0
M  V30 3805 C 343.962 -3.58836 0.218342 0
M  V30 3806 C 343.626 -4.30721 1.52736 0
M  V30 3807 C 344.623 -4.57305 2.47322 0
M  V30 3808 C 342.308 -4.69251 1.79189 0
M  V30 3809 C 344.302 -5.21429 3.66593 0
M  V30 3810 C 341.989 -5.33104 2.98737 0
M  V30 3811 C 342.987 -5.59125 3.9226 0
M  V30 3812 O 342.675 -6.21653 5.09708 0
M  V30 3813 H 342.407 -0.664118 0.126189 0
M  V30 3814 H 344.961 -1.79385 1.00051 0
M  V30 3815 H 343.191 -3.8285 -0.544314 0
M  V30 3816 H 344.88 -4.05447 -0.191626 0
M  V30 3817 H 345.646 -4.27983 2.28156 0
M  V30 3818 H 341.525 -4.48354 1.07239 0
M  V30 3819 H 345.069 -5.41656 4.39607 0
M  V30 3820 H 340.966 -5.61846 3.17803 0
M  V30 3821 H 341.734 -6.40146 5.10054 0
M  V30 3822 N 344.397 -0.483516 -1.5 0
M  V30 3823 C 345.327 0.293829 -2.31644 0
M  V30 3824 C 346.308 0.978864 -1.39112 0
M  V30 3825 O 347.493 0.973644 -1.68029 0
M  V30 3826 C 344.623 1.36897 -3.19181 0
M  V30 3827 C 343.577 0.804833 -4.20365 0
M  V30 3828 C 342.903 1.9792 -4.96721 0
M  V30 3829 C 344.203 -0.192313 -5.21946 0
M  V30 3830 H 345.897 -0.387616 -2.9688 0
M  V30 3831 H 343.443 -0.187856 -1.42769 0
M  V30 3832 H 345.396 1.92037 -3.751 0
M  V30 3833 H 344.12 2.07936 -2.51853 0
M  V30 3834 H 342.779 0.275319 -3.65565 0
M  V30 3835 H 342.427 2.67686 -4.25856 0
M  V30 3836 H 342.127 1.60789 -5.65173 0
M  V30 3837 H 343.651 2.53526 -5.55479 0
M  V30 3838 H 345.065 0.270333 -5.72662 0
M  V30 3839 H 343.462 -0.478543 -5.98189 0
M  V30 3840 H 344.532 -1.11409 -4.71928 0
M  V30 3841 N 345.875 1.56104 -0.216619 0
M  V30 3842 C 347.123 1.97781 0.415593 0
M  V30 3843 C 347.444 1.10536 1.60645 0
M  V30 3844 O 346.714 0.181303 1.95059 0
M  V30 3845 H 345.294 0.730415 0.156534 0
M  V30 3846 H 347.956 1.92445 -0.308366 0
M  V30 3847 H 347.052 3.03072 0.74525 0
M  V30 3848 N 347.353 -0.0568162 1.57498 0
M  V30 3849 C 348.63 -0.786954 1.79071 0
M  V30 3850 C 349.01 -1.95028 0.80792 0
M  V30 3851 O 348.358 -2.27968 -0.155858 0
M  V30 3852 C 348.568 -1.24594 3.26002 0
M  V30 3853 C 349.916 -1.67323 3.90241 0
M  V30 3854 O 350.94 -1.34124 3.29984 0
M  V30 3855 O 349.799 -2.28842 4.9628 0
M  V30 3856 H 346.893 -0.378262 0.735423 0
M  V30 3857 H 349.439 -0.035734 1.69662 0
M  V30 3858 H 348.211 -0.41423 3.89101 0
M  V30 3859 H 347.834 -2.05803 3.40192 0
M  V30 3860 N 348.832 -1.54138 -0.328536 0
M  V30 3861 C 349.795 -1.82462 -1.38709 0
M  V30 3862 C 350.795 -0.696229 -1.44946 0
M  V30 3863 O 351.985 -0.964535 -1.4506 0
M  V30 3864 C 349.117 -1.98018 -2.77492 0
M  V30 3865 H 350.31 -2.77037 -1.14851 0
M  V30 3866 H 347.863 -1.45779 -0.563751 0
M  V30 3867 H 348.598 -1.05637 -3.06613 0
M  V30 3868 H 348.383 -2.80124 -2.74359 0
M  V30 3869 H 349.873 -2.21396 -3.54081 0
M  V30 3870 N 350.31 0.590341 -1.46126 0
M  V30 3871 C 351.557 1.34882 -1.5104 0
M  V30 3872 C 351.885 1.93849 -0.159021 0
M  V30 3873 O 351.14 1.76544 0.844436 0
M  V30 3874 C 351.439 2.5032 -2.55097 0
M  V30 3875 C 351.105 2.09394 -3.99331 0
M  V30 3876 C 349.767 1.97947 -4.38601 0
M  V30 3877 C 352.119 1.77712 -4.89967 0
M  V30 3878 C 349.447 1.53065 -5.66381 0
M  V30 3879 C 351.799 1.34312 -6.18177 0
M  V30 3880 C 350.463 1.21436 -6.56361 0
M  V30 3881 H 349.733 0.493568 -0.552695 0
M  V30 3882 H 352.38 0.665539 -1.79563 0
M  V30 3883 H 350.685 3.24062 -2.20207 0
M  V30 3884 H 352.382 3.08541 -2.56132 0
M  V30 3885 H 348.972 2.19235 -3.68285 0
M  V30 3886 H 353.156 1.85445 -4.60352 0
M  V30 3887 H 348.412 1.41733 -5.94745 0
M  V30 3888 H 352.586 1.08849 -6.87841 0
M  V30 3889 H 350.213 0.864345 -7.5527 0
M  V30 3890 N 351.788 1.33704 0.83433 0
M  V30 3891 C 353.204 1.13137 1.12571 0
M  V30 3892 C 353.404 -0.0747261 2.01361 0
M  V30 3893 O 352.46 -0.753647 2.4099 0
M  V30 3894 C 353.773 2.42105 1.78342 0
M  V30 3895 C 355.321 2.48054 1.90888 0
M  V30 3896 C 355.796 3.76995 2.60075 0
M  V30 3897 N 357.287 3.78092 2.67584 0
M  V30 3898 C 358.022 4.74574 3.21818 0
M  V30 3899 N 357.518 5.81434 3.76705 0
M  V30 3900 N 359.311 4.62044 3.20112 0
M  V30 3901 H 351.462 2.11 0.243489 0
M  V30 3902 H 353.725 0.932532 0.17055 0
M  V30 3903 H 353.431 3.30391 1.20561 0
M  V30 3904 H 353.305 2.54594 2.7832 0
M  V30 3905 H 355.692 1.60215 2.47821 0
M  V30 3906 H 355.773 2.39502 0.898459 0
M  V30 3907 H 355.417 4.65219 2.03799 0
M  V30 3908 H 355.347 3.82825 3.61597 0
M  V30 3909 H 357.838 3.00865 2.28667 0
M  V30 3910 H 358.151 6.51084 4.16305 0
M  V30 3911 H 356.496 5.85163 3.7498 0
M  V30 3912 H 359.687 3.77716 2.76493 0
M  V30 3913 H 359.86 5.37406 3.62076 0
M  V30 3914 N 353.266 -1.05314 1.17247 0
M  V30 3915 C 354.506 -1.79869 0.970898 0
M  V30 3916 C 354.87 -1.85594 -0.491808 0
M  V30 3917 O 356.071 -2.56229 -0.812409 0
M  V30 3918 C 354.342 -3.19937 1.59295 0
M  V30 3919 S 355.901 -4.10986 1.53741 0
M  V30 3920 H 352.719 -0.61949 0.348931 0
M  V30 3921 H 355.321 -1.26368 1.49169 0
M  V30 3922 H 354.025 -3.13372 2.65003 0
M  V30 3923 H 353.556 -3.78515 1.07191 0
M  V30 3924 H 355.571 -4.93203 0.544537 0
M  V30 3925 N 354.744 -0.972509 -1.24016 0
M  V30 3926 C 355.707 -0.511403 -2.23422 0
M  V30 3927 C 356.707 0.394679 -1.55881 0
M  V30 3928 O 357.897 0.189469 -1.73167 0
M  V30 3929 C 355.029 0.258769 -3.39916 0
M  V30 3930 H 356.222 -1.39024 -2.6573 0
M  V30 3931 H 353.775 -0.757585 -1.36713 0
M  V30 3932 H 354.51 1.1545 -3.03054 0
M  V30 3933 H 354.295 -0.391522 -3.9014 0
M  V30 3934 H 355.785 0.570244 -4.13688 0
M  V30 3935 N 356.222 1.38976 -0.743202 0
M  V30 3936 C 357.447 2.05161 -0.303936 0
M  V30 3937 C 357.872 1.55677 1.05576 0
M  V30 3938 O 357.23 0.704131 1.67068 0
M  V30 3939 C 357.278 3.59138 -0.324373 0
M  V30 3940 O 356.382 4.06668 0.685204 0
M  V30 3941 H 355.723 0.649815 -0.136518 0
M  V30 3942 H 358.253 1.77852 -1.01142 0
M  V30 3943 H 358.263 4.07639 -0.171618 0
M  V30 3944 H 356.938 3.94515 -1.31647 0
M  V30 3945 H 355.515 3.69561 0.497913 0
M  V30 3946 N 357.7 0.491464 1.49741 0
M  V30 3947 C 358.94 -0.0549118 2.04326 0
M  V30 3948 C 359.304 -1.35148 1.36378 0
M  V30 3949 O 360.505 -1.9815 1.81631 0
M  V30 3950 C 358.776 -0.213841 3.5676 0
M  V30 3951 S 360.335 -0.715839 4.32922 0
M  V30 3952 H 357.153 -0.00630513 0.710972 0
M  V30 3953 H 359.755 0.663257 1.83905 0
M  V30 3954 H 358.459 0.73527 4.0376 0
M  V30 3955 H 357.99 -0.957529 3.81569 0
M  V30 3956 H 360.005 -1.9864 4.54705 0
M  V30 3957 N 359.178 -1.55987 0.224894 0
M  V30 3958 C 360.589 -1.84553 -0.282345 0
M  V30 3959 C 360.94 -1.14634 -1.59227 0
M  V30 3960 O 360.065 -0.417155 -2.12341 0
M  V30 3961 C 360.66 -3.348 -0.519062 0
M  V30 3962 C 359.219 -3.63671 -0.970604 0
M  V30 3963 C 358.366 -2.77277 -0.0355261 0
M  V30 3964 H 361.317 -1.52245 0.448006 0
M  V30 3965 H 361.338 -3.55187 -1.36463 0
M  V30 3966 H 360.85 -3.8566 0.43449 0
M  V30 3967 H 358.951 -3.1827 -1.9374 0
M  V30 3968 H 359.064 -4.71631 -0.842698 0
M  V30 3969 H 357.428 -2.48846 -0.542927 0
M  V30 3970 H 358.211 -3.30937 0.913003 0
M  V30 3971 N 360.656 0.0484629 -1.57525 0
M  V30 3972 C 361.886 0.754326 -1.92337 0
M  V30 3973 C 362.294 1.70443 -0.82132 0
M  V30 3974 O 361.637 1.82466 0.21254 0
M  V30 3975 C 361.699 1.58231 -3.22805 0
M  V30 3976 C 361.363 0.799074 -4.4996 0
M  V30 3977 C 362.36 0.1079 -5.19788 0
M  V30 3978 C 360.045 0.759345 -4.96527 0
M  V30 3979 C 362.039 -0.612516 -6.3445 0
M  V30 3980 C 359.726 0.0351713 -6.1109 0
M  V30 3981 C 360.724 -0.649537 -6.79904 0
M  V30 3982 O 360.412 -1.36199 -7.92278 0
M  V30 3983 H 360.144 0.218257 -0.639797 0
M  V30 3984 H 362.698 0.0159295 -2.05394 0
M  V30 3985 H 360.928 2.36406 -3.06021 0
M  V30 3986 H 362.617 2.16898 -3.43089 0
M  V30 3987 H 363.383 0.129748 -4.84826 0
M  V30 3988 H 359.262 1.28177 -4.42822 0
M  V30 3989 H 362.806 -1.14751 -6.88097 0
M  V30 3990 H 358.703 0.0113314 -6.45499 0
M  V30 3991 H 359.471 -1.27366 -8.0853 0
M  V30 3992 N 362.134 1.5431 0.320358 0
M  V30 3993 C 363.081 1.83918 1.39438 0
M  V30 3994 C 364.051 0.686525 1.51248 0
M  V30 3995 O 365.236 0.933269 1.66417 0
M  V30 3996 C 362.376 2.075 2.75749 0
M  V30 3997 C 361.489 3.35177 2.72544 0
M  V30 3998 C 360.624 3.48704 4.00723 0
M  V30 3999 C 359.663 4.70244 3.91838 0
M  V30 4000 N 358.8 4.80679 5.11754 0
M  V30 4001 H 363.64 2.75544 1.13489 0
M  V30 4002 H 361.177 1.36459 0.549309 0
M  V30 4003 H 363.135 2.19166 3.54996 0
M  V30 4004 H 361.765 1.19163 3 0
M  V30 4005 H 360.817 3.32233 1.85271 0
M  V30 4006 H 362.129 4.24534 2.61863 0
M  V30 4007 H 361.283 3.59928 4.88402 0
M  V30 4008 H 360.022 2.57445 4.14214 0
M  V30 4009 H 359.027 4.59072 3.02544 0
M  V30 4010 H 360.252 5.6289 3.7991 0
M  V30 4011 H 358.198 3.92337 5.25745 0
M  V30 4012 H 358.115 5.64007 5.0342 0
M  V30 4013 H 359.383 4.96239 6.01138 0
M  V30 4014 N 363.613 -0.582584 1.46437 0
M  V30 4015 C 364.861 -1.33814 1.51453 0
M  V30 4016 C 365.182 -1.94277 0.167792 0
M  V30 4017 O 364.452 -1.78566 -0.805677 0
M  V30 4018 H 363.032 -0.496838 0.557818 0
M  V30 4019 H 365.694 -0.682281 1.82568 0
M  V30 4020 H 364.79 -2.14479 2.26728 0
M  V30 4021 N 365.091 -1.34144 -0.827227 0
M  V30 4022 C 366.021 -1.28005 -1.95287 0
M  V30 4023 C 367.002 -0.158321 -1.69362 0
M  V30 4024 O 368.187 -0.349987 -1.9102 0
M  V30 4025 C 365.317 -1.03036 -3.31664 0
M  V30 4026 C 364.271 -2.11628 -3.72019 0
M  V30 4027 C 363.597 -1.71854 -5.0633 0
M  V30 4028 C 364.897 -3.53417 -3.8457 0
M  V30 4029 H 366.591 -2.22187 -2.00682 0
M  V30 4030 H 364.137 -1.0696 -0.964135 0
M  V30 4031 H 366.09 -0.973863 -4.09993 0
M  V30 4032 H 364.814 -0.0529391 -3.26557 0
M  V30 4033 H 363.473 -2.16339 -2.95961 0
M  V30 4034 H 363.121 -0.727841 -4.97706 0
M  V30 4035 H 362.821 -2.44531 -5.34302 0
M  V30 4036 H 364.345 -1.67692 -5.87122 0
M  V30 4037 H 365.759 -3.51142 -4.5318 0
M  V30 4038 H 364.156 -4.24679 -4.2399 0
M  V30 4039 H 365.226 -3.91072 -2.86689 0
M  V30 4040 N 366.569 1.04691 -1.17803 0
M  V30 4041 C 367.98 1.59238 -0.974689 0
M  V30 4042 C 368.331 1.90306 0.477292 0
M  V30 4043 O 367.456 1.68846 1.35352 0
M  V30 4044 C 368.051 2.89318 -1.76296 0
M  V30 4045 C 366.61 3.40506 -1.60414 0
M  V30 4046 C 365.757 2.14172 -1.76141 0
M  V30 4047 H 368.708 0.874395 -1.32439 0
M  V30 4048 H 368.729 3.5944 -1.24833 0
M  V30 4049 H 368.241 2.66675 -2.81968 0
M  V30 4050 H 366.342 3.68175 -0.572519 0
M  V30 4051 H 366.455 4.14753 -2.39827 0
M  V30 4052 H 364.819 2.25176 -1.19028 0
M  V30 4053 H 365.602 1.93992 -2.83235 0
M  V30 4054 N 368.047 0.979072 1.23499 0
M  V30 4055 C 369.01 0.523244 2.23147 0
M  V30 4056 C 370.01 -0.386406 1.56088 0
M  V30 4057 O 371.2 -0.180283 1.73265 0
M  V30 4058 C 368.332 -0.240739 3.40049 0
M  V30 4059 H 369.525 1.40432 2.64989 0
M  V30 4060 H 367.078 0.764824 1.36309 0
M  V30 4061 H 367.813 -1.13841 3.03662 0
M  V30 4062 H 367.598 0.412207 3.89927 0
M  V30 4063 H 369.088 -0.548297 4.13985 0
M  V30 4064 N 369.525 -1.3858 0.750561 0
M  V30 4065 C 370.772 -2.00184 0.305373 0
M  V30 4066 C 371.1 -1.59575 -1.11203 0
M  V30 4067 O 370.355 -0.823236 -1.77542 0
M  V30 4068 C 370.654 -3.55455 0.372373 0
M  V30 4069 C 370.32 -4.15765 1.745 0
M  V30 4070 C 368.982 -4.31951 2.12065 0
M  V30 4071 C 371.334 -4.49067 2.64553 0
M  V30 4072 C 368.662 -4.78734 3.39162 0
M  V30 4073 C 371.014 -4.97265 3.91038 0
M  V30 4074 C 369.678 -5.11658 4.28676 0
M  V30 4075 H 368.948 -0.732526 0.111744 0
M  V30 4076 H 371.595 -1.65673 0.960451 0
M  V30 4077 H 369.9 -3.90084 -0.366272 0
M  V30 4078 H 371.597 -4.00999 0.00953918 0
M  V30 4079 H 368.187 -4.03579 1.44297 0
M  V30 4080 H 372.371 -4.36166 2.36796 0
M  V30 4081 H 367.627 -4.88062 3.68246 0
M  V30 4082 H 371.801 -5.22003 4.60962 0
M  V30 4083 H 369.428 -5.47668 5.27222 0
M  V30 4084 N 371.003 -0.499398 -1.49478 0
M  V30 4085 C 371.935 0.316575 -2.27003 0
M  V30 4086 C 372.948 0.932047 -1.33479 0
M  V30 4087 O 374.137 0.815658 -1.58774 0
M  V30 4088 C 371.237 1.46055 -3.05812 0
M  V30 4089 C 370.41 0.952679 -4.26899 0
M  V30 4090 C 369.469 1.97407 -4.87767 0
M  V30 4091 O 368.495 1.54326 -5.4788 0
M  V30 4092 N 369.697 3.30436 -4.77276 0
M  V30 4093 H 372.462 -0.348168 -2.97671 0
M  V30 4094 H 370.023 -0.33185 -1.58463 0
M  V30 4095 H 372.015 2.14135 -3.43407 0
M  V30 4096 H 370.585 2.02948 -2.37762 0
M  V30 4097 H 369.805 0.0968248 -3.94081 0
M  V30 4098 H 371.093 0.59174 -5.05347 0
M  V30 4099 H 370.491 3.68126 -4.29534 0
M  V30 4100 H 369.048 3.94235 -5.19059 0
M  V30 4101 N 372.481 1.55866 -0.233164 0
M  V30 4102 C 373.892 1.847 0.272554 0
M  V30 4103 C 374.243 1.15477 1.58617 0
M  V30 4104 O 373.368 0.42841 2.12117 0
M  V30 4105 C 373.963 3.35071 0.501299 0
M  V30 4106 C 372.522 3.6418 0.951304 0
M  V30 4107 C 371.669 2.77292 0.0208209 0
M  V30 4108 H 374.62 1.52005 -0.456074 0
M  V30 4109 H 374.641 3.55906 1.34577 0
M  V30 4110 H 374.153 3.85424 -0.454936 0
M  V30 4111 H 372.254 3.19293 1.92049 0
M  V30 4112 H 372.367 4.72071 0.817675 0
M  V30 4113 H 370.731 2.49131 0.529723 0
M  V30 4114 H 371.514 3.30448 -0.93054 0
M  V30 4115 N 373.959 -0.0401083 1.57549 0
M  V30 4116 C 375.207 -0.731677 1.8839 0
M  V30 4117 C 375.528 -1.76481 0.829425 0
M  V30 4118 O 374.798 -1.95411 -0.1383 0
M  V30 4119 H 373.378 -0.273225 0.695239 0
M  V30 4120 H 376.04 -0.00867725 1.94898 0
M  V30 4121 H 375.136 -1.22816 2.86919 0
M  V30 4122 N 375.437 -1.54477 -0.31217 0
M  V30 4123 C 376.347 -1.87695 -1.4074 0
M  V30 4124 C 377.363 -0.769975 -1.56036 0
M  V30 4125 O 378.539 -1.06537 -1.70915 0
M  V30 4126 C 375.604 -2.10755 -2.75287 0
M  V30 4127 C 374.665 -3.34514 -2.69071 0
M  V30 4128 C 373.898 -3.56465 -3.97201 0
M  V30 4129 O 374.121 -2.81637 -4.96021 0
M  V30 4130 O 373.055 -4.49964 -3.9977 0
M  V30 4131 H 376.881 -2.80849 -1.15574 0
M  V30 4132 H 374.466 -1.40526 -0.507228 0
M  V30 4133 H 376.348 -2.27188 -3.54913 0
M  V30 4134 H 375.023 -1.20788 -3.0032 0
M  V30 4135 H 373.93 -3.23456 -1.87955 0
M  V30 4136 H 375.263 -4.24575 -2.48992 0
M  V30 4137 N 376.915 0.57481 -1.46744 0
M  V30 4138 C 377.863 1.70435 -1.58286 0
M  V30 4139 C 378.857 1.63287 -0.450956 0
M  V30 4140 O 380.063 1.68685 -0.628121 0
M  V30 4141 H 376.438 0.56364 -0.497809 0
M  V30 4142 H 378.409 1.57833 -2.53242 0
M  V30 4143 C 377.158 3.08815 -1.59776 0
M  V30 4144 H 376.481 3.1499 -2.46214 0
M  V30 4145 H 377.921 3.87588 -1.71905 0
M  V30 4146 C 376.38 3.35301 -0.327812 0
M  V30 4147 O 376.91 3.97511 0.57861 0
M  V30 4148 N 375.116 2.89816 -0.213274 0
M  V30 4149 H 374.663 2.39371 -0.951798 0
M  V30 4150 H 374.621 3.0791 0.63553 0
M  V30 4151 N 378.394 1.34581 0.820102 0
M  V30 4152 C 379.64 1.27285 1.57881 0
M  V30 4153 C 379.973 -0.156137 1.93571 0
M  V30 4154 O 379.248 -1.10222 1.60254 0
M  V30 4155 C 379.531 2.16639 2.87645 0
M  V30 4156 C 379.384 3.68088 2.58517 0
M  V30 4157 C 380.703 2.05378 3.8924 0
M  V30 4158 H 377.822 0.463714 0.572833 0
M  V30 4159 H 380.464 1.64859 0.944539 0
M  V30 4160 H 378.614 1.84725 3.41773 0
M  V30 4161 H 380.286 4.10382 2.10676 0
M  V30 4162 H 378.529 3.89038 1.91917 0
M  V30 4163 H 379.2 4.2598 3.51063 0
M  V30 4164 H 381.676 2.33404 3.44473 0
M  V30 4165 H 380.552 2.7012 4.77835 0
M  V30 4166 H 380.813 1.0316 4.29896 0
M  V30 4167 N 379.872 -1.04064 1.18357 0
M  V30 4168 C 380.819 -2.12077 0.910603 0
M  V30 4169 C 381.789 -1.65421 -0.15 0
M  V30 4170 O 382.974 -1.90797 -0.0103614 0
M  V30 4171 C 380.114 -3.42252 0.442472 0
M  V30 4172 C 379.227 -4.0252 1.5685 0
M  V30 4173 C 378.362 -5.20657 1.05309 0
M  V30 4174 C 377.401 -5.72955 2.1538 0
M  V30 4175 N 376.538 -6.8238 1.65233 0
M  V30 4176 H 381.378 -2.34764 1.83548 0
M  V30 4177 H 378.915 -1.15157 0.915279 0
M  V30 4178 H 380.873 -4.16921 0.152534 0
M  V30 4179 H 379.503 -3.19712 -0.445428 0
M  V30 4180 H 378.555 -3.25178 1.97391 0
M  V30 4181 H 379.867 -4.37362 2.39824 0
M  V30 4182 H 379.021 -6.0244 0.717677 0
M  V30 4183 H 377.76 -4.87318 0.19293 0
M  V30 4184 H 376.765 -4.89793 2.49766 0
M  V30 4185 H 377.99 -6.08337 3.01832 0
M  V30 4186 H 375.936 -6.50917 0.815064 0
M  V30 4187 H 375.853 -7.16286 2.41805 0
M  V30 4188 H 377.121 -7.67788 1.34619 0
M  V30 4189 N 381.35 -0.985608 -1.22978 0
M  V30 4190 C 382.28 -0.549649 -2.26939 0
M  V30 4191 C 383.261 0.419803 -1.64838 0
M  V30 4192 O 384.446 0.31203 -1.91677 0
M  V30 4193 C 381.576 0.143652 -3.47003 0
M  V30 4194 C 380.53 -0.743606 -4.21491 0
M  V30 4195 C 379.856 0.0822027 -5.34637 0
M  V30 4196 C 381.156 -2.03694 -4.80943 0
M  V30 4197 H 382.85 -1.41862 -2.63658 0
M  V30 4198 H 380.396 -0.683571 -1.26741 0
M  V30 4199 H 382.349 0.459985 -4.18882 0
M  V30 4200 H 381.073 1.04711 -3.09359 0
M  V30 4201 H 379.732 -1.04347 -3.51436 0
M  V30 4202 H 379.38 0.986359 -4.93234 0
M  V30 4203 H 379.08 -0.508377 -5.85397 0
M  V30 4204 H 380.604 0.392797 -6.09335 0
M  V30 4205 H 382.018 -1.78504 -5.44802 0
M  V30 4206 H 380.415 -2.57573 -5.42011 0
M  V30 4207 H 381.485 -2.72042 -4.01399 0
M  V30 4208 N 382.828 1.3818 -0.7579 0
M  V30 4209 C 383.776 2.32277 -0.122482 0
M  V30 4210 C 384.77 1.54238 0.700505 0
M  V30 4211 O 385.976 1.69737 0.599119 0
M  V30 4212 H 382.351 0.751712 -0.0208143 0
M  V30 4213 H 384.322 2.83469 -0.932099 0
M  V30 4214 C 383.071 3.39447 0.753076 0
M  V30 4215 H 382.394 3.99591 0.129184 0
M  V30 4216 H 383.834 4.07684 1.16489 0
M  V30 4217 C 382.293 2.78375 1.8976 0
M  V30 4218 O 382.823 2.68025 2.99208 0
M  V30 4219 N 381.029 2.36121 1.69397 0
M  V30 4220 H 380.576 2.4474 0.803762 0
M  V30 4221 H 380.534 1.95602 2.46145 0
M  V30 4222 N 384.306 0.507319 1.49211 0
M  V30 4223 C 385.236 -0.256939 2.32082 0
M  V30 4224 C 386.217 -0.956609 1.40652 0
M  V30 4225 O 387.402 -0.946788 1.69557 0
M  V30 4226 C 384.532 -1.31802 3.21318 0
M  V30 4227 C 383.486 -0.737855 4.21592 0
M  V30 4228 C 382.812 -1.89992 4.99807 0
M  V30 4229 C 384.112 0.275325 5.21574 0
M  V30 4230 H 385.806 0.434798 2.96226 0
M  V30 4231 H 383.352 0.210546 1.42452 0
M  V30 4232 H 385.305 -1.86045 3.78107 0
M  V30 4233 H 384.029 -2.03903 2.5513 0
M  V30 4234 H 382.688 -0.217126 3.65956 0
M  V30 4235 H 382.336 -2.60877 4.30061 0
M  V30 4236 H 382.036 -1.51777 5.6766 0
M  V30 4237 H 383.56 -2.44657 5.59442 0
M  V30 4238 H 384.974 -0.179193 5.7302 0
M  V30 4239 H 383.371 0.573649 5.97352 0
M  V30 4240 H 384.441 1.18903 4.70096 0
M  V30 4241 N 385.784 -1.5574 0.241426 0
M  V30 4242 C 386.732 -2.22538 -0.676718 0
M  V30 4243 C 387.726 -1.21117 -1.18436 0
M  V30 4244 O 388.932 -1.39144 -1.14188 0
M  V30 4245 H 385.307 -0.713776 -0.236701 0
M  V30 4246 H 387.278 -2.98264 -0.0901187 0
M  V30 4247 C 386.027 -2.93439 -1.86518 0
M  V30 4248 H 385.35 -3.7125 -1.4837 0
M  V30 4249 H 386.79 -3.43549 -2.48495 0
M  V30 4250 C 385.249 -1.97008 -2.73294 0
M  V30 4251 O 385.779 -1.49965 -3.72657 0
M  V30 4252 N 383.985 -1.64227 -2.39745 0
M  V30 4253 H 383.532 -2.02677 -1.58996 0
M  V30 4254 H 383.49 -0.999708 -2.98083 0
M  V30 4255 N 387.262 0.0317525 -1.57568 0
M  V30 4256 C 388.21 1.05165 -2.07468 0
M  V30 4257 C 389.204 1.3761 -0.98792 0
M  V30 4258 O 390.41 1.36546 -1.17282 0
M  V30 4259 H 386.785 0.35666 -0.66204 0
M  V30 4260 H 388.756 0.604958 -2.92203 0
M  V30 4261 C 387.505 2.34488 -2.56731 0
M  V30 4262 H 386.828 2.10383 -3.39969 0
M  V30 4263 H 388.268 3.04203 -2.95358 0
M  V30 4264 C 386.727 3.03266 -1.46736 0
M  V30 4265 O 387.257 3.92988 -0.832069 0
M  V30 4266 N 385.463 2.6455 -1.20256 0
M  V30 4267 H 385.01 1.91674 -1.72102 0
M  V30 4268 H 384.968 3.10886 -0.468737 0
M  V30 4269 N 388.74 1.54641 0.303973 0
M  V30 4270 C 389.65 1.88439 1.39743 0
M  V30 4271 C 390.666 0.778239 1.55626 0
M  V30 4272 O 391.842 1.07442 1.70347 0
M  V30 4273 C 388.907 2.12212 2.74166 0
M  V30 4274 C 387.968 3.35936 2.67293 0
M  V30 4275 C 387.201 3.58566 3.95305 0
M  V30 4276 O 387.424 2.84263 4.9452 0
M  V30 4277 O 386.358 4.52078 3.97378 0
M  V30 4278 H 390.184 2.81458 1.14083 0
M  V30 4279 H 387.769 1.40793 0.499768 0
M  V30 4280 H 389.651 2.29067 3.53704 0
M  V30 4281 H 388.326 1.22379 2.99675 0
M  V30 4282 H 387.233 3.24448 1.86237 0
M  V30 4283 H 388.566 4.2589 2.46736 0
M  V30 4284 N 390.218 -0.567019 1.47046 0
M  V30 4285 C 391.443 -1.3551 1.57009 0
M  V30 4286 C 391.868 -1.86841 0.217259 0
M  V30 4287 O 391.226 -1.62435 -0.805268 0
M  V30 4288 C 391.274 -2.50777 2.5912 0
M  V30 4289 O 390.378 -3.52706 2.13711 0
M  V30 4290 H 389.719 -0.402919 0.52778 0
M  V30 4291 H 392.249 -0.686241 1.92748 0
M  V30 4292 H 392.259 -2.97481 2.79229 0
M  V30 4293 H 390.934 -2.12771 3.57353 0
M  V30 4294 H 389.511 -3.12374 2.03659 0
M  V30 4295 N 391.696 -1.35014 -0.812953 0
M  V30 4296 C 392.644 -1.27435 -1.94585 0
M  V30 4297 C 393.638 -0.170494 -1.6854 0
M  V30 4298 O 394.844 -0.336085 -1.76835 0
M  V30 4299 H 391.219 -0.396144 -0.639198 0
M  V30 4300 H 393.19 -2.23158 -1.98098 0
M  V30 4301 C 391.939 -1.05677 -3.31252 0
M  V30 4302 H 391.262 -1.89853 -3.51846 0
M  V30 4303 H 392.702 -1.04413 -4.10943 0
M  V30 4304 C 391.161 0.239615 -3.36047 0
M  V30 4305 O 391.691 1.23759 -3.8216 0
M  V30 4306 N 389.897 0.276186 -2.89285 0
M  V30 4307 H 389.444 -0.53653 -2.51951 0
M  V30 4308 H 389.402 1.14332 -2.92875 0
M  V30 4309 O 393.213 0.951708 -1.30479 0
M  V30 4310 H 393.904 1.58029 -1.12012 0
M  V30 END ATOM
M  V30 BEGIN BOND
M  V30 END BOND
M  V30 END CTAB
M  END
$$$$
