drugbank_target|P24425 Thymidine kinase (DB03280; DB04485)
 OpenBabel12092120023D

  0  0  0     0  0            999 V3000
M  V30 BEGIN CTAB
M  V30 COUNTS 5432 5488 0 0 0
M  V30 BEGIN ATOM
M  V30 1 H -0.908 1.98254 -0.117106 0
M  V30 2 N 0 1.576 0 0
M  V30 3 C 0.933 2.03868 1.02534 0
M  V30 4 C 1.911 0.928543 1.3348 0
M  V30 5 O 3.095 1.19667 1.45644 0
M  V30 6 C 0.222 2.43627 2.35294 0
M  V30 7 C -0.732 3.65373 2.2001 0
M  V30 8 S 0.101 5.13292 1.52614 0
M  V30 9 C 1.257 5.56322 2.86805 0
M  V30 10 H 1.49 2.90518 0.631377 0
M  V30 11 H -0.977 1.52953 0.210867 0
M  V30 12 H 0.981 2.67203 3.11629 0
M  V30 13 H -0.358 1.57376 2.7183 0
M  V30 14 H -1.165 3.90944 3.18086 0
M  V30 15 H -1.563 3.418 1.51819 0
M  V30 16 H 0.729 5.58782 3.83104 0
M  V30 17 H 1.672 6.56266 2.65933 0
M  V30 18 H 2.08 4.83886 2.90714 0
M  V30 19 N 1.4781 -0.272755 1.55222 0
M  V30 20 C 2.4411 -1.32041 1.87344 0
M  V30 21 C 3.4411 -1.42342 0.74803 0
M  V30 22 O 4.6311 -1.41488 1.0162 0
M  V30 23 C 1.7631 -2.70173 2.07893 0
M  V30 24 H 2.9561 -1.04789 2.80997 0
M  V30 25 H 0.5091 -0.51083 1.47717 0
M  V30 26 H 1.2441 -3.02605 1.16622 0
M  V30 27 H 1.0291 -2.64082 2.89833 0
M  V30 28 H 2.5191 -3.45869 2.34017 0
M  V30 29 N 2.9562 -1.48159 -0.537278 0
M  V30 30 C 3.9192 -1.61665 -1.62472 0
M  V30 31 C 4.9192 -0.490395 -1.5314 0
M  V30 32 O 6.1092 -0.755998 -1.5694 0
M  V30 33 C 3.2412 -1.57997 -3.02076 0
M  V30 34 H 4.4342 -2.58621 -1.51839 0
M  V30 35 H 1.9872 -1.36647 -0.758771 0
M  V30 36 H 2.7222 -0.624913 -3.18222 0
M  V30 37 H 2.5072 -2.39755 -3.10258 0
M  V30 38 H 3.9972 -1.70627 -3.81151 0
M  V30 39 N 4.4343 0.785586 -1.36625 0
M  V30 40 C 5.6743 1.55678 -1.32453 0
M  V30 41 C 6.0383 1.91769 0.0941089 0
M  V30 42 O 7.2393 2.67536 0.26042 0
M  V30 43 C 5.5103 2.79701 -2.22491 0
M  V30 44 S 7.0693 3.69907 -2.36038 0
M  V30 45 H 3.8873 0.533141 -0.470405 0
M  V30 46 H 6.4893 0.924953 -1.72235 0
M  V30 47 H 5.1933 2.51244 -3.24507 0
M  V30 48 H 4.7243 3.47854 -1.83742 0
M  V30 49 H 6.7393 4.71016 -1.56072 0
M  V30 50 N 5.9124 1.20967 1.01018 0
M  V30 51 C 7.1584 1.02526 1.74975 0
M  V30 52 C 7.4914 -0.4408 1.89131 0
M  V30 53 O 6.7664 -1.32718 1.42184 0
M  V30 54 C 7.0494 1.71699 3.1653 0
M  V30 55 C 6.9024 3.25791 3.10129 0
M  V30 56 C 8.2214 1.45531 4.15342 0
M  V30 57 H 5.3404 0.373863 0.635134 0
M  V30 58 H 7.9824 1.49071 1.17805 0
M  V30 59 H 6.1324 1.32128 3.65341 0
M  V30 60 H 7.8044 3.74697 2.69072 0
M  V30 61 H 6.0474 3.56363 2.47362 0
M  V30 62 H 6.7184 3.69353 4.10222 0
M  V30 63 H 9.1944 1.79872 3.75213 0
M  V30 64 H 8.0704 1.96453 5.1254 0
M  V30 65 H 8.3314 0.384237 4.40427 0
M  V30 66 N 7.3905 -1.2043 1.01659 0
M  V30 67 C 8.8015 -1.71517 0.737482 0
M  V30 68 C 9.1525 -1.81547 -0.743973 0
M  V30 69 O 8.2775 -1.47803 -1.58061 0
M  V30 70 C 8.8725 -3.11515 1.33206 0
M  V30 71 C 7.4315 -3.59912 1.10183 0
M  V30 72 C 6.5785 -2.37116 1.43776 0
M  V30 73 H 9.5295 -1.05444 1.18606 0
M  V30 74 H 9.5505 -3.73575 0.722636 0
M  V30 75 H 9.0625 -3.04182 2.41028 0
M  V30 76 H 7.1635 -3.72577 0.0412756 0
M  V30 77 H 7.2765 -4.44731 1.78188 0
M  V30 78 H 5.6405 -2.39857 0.856778 0
M  V30 79 H 6.4235 -2.32424 2.52654 0
M  V30 80 N 8.8686 -0.792821 -1.36206 0
M  V30 81 C 10.2796 -0.429513 -1.81692 0
M  V30 82 C 10.6306 1.04695 -1.65932 0
M  V30 83 O 9.7556 1.81256 -1.18218 0
M  V30 84 C 10.3506 -0.772831 -3.29868 0
M  V30 85 C 8.9096 -0.462307 -3.7355 0
M  V30 86 C 8.0566 -1.00569 -2.5842 0
M  V30 87 H 11.0076 -0.985672 -1.24379 0
M  V30 88 H 11.0286 -0.0651928 -3.80444 0
M  V30 89 H 10.5406 -1.84747 -3.41307 0
M  V30 90 H 8.6416 0.604158 -3.67669 0
M  V30 91 H 8.7546 -0.985299 -4.68859 0
M  V30 92 H 7.1186 -0.428734 -2.51066 0
M  V30 93 H 7.9016 -2.08616 -2.72643 0
M  V30 94 N 10.3467 1.47872 -0.545128 0
M  V30 95 C 11.5947 2.02093 -0.016553 0
M  V30 96 C 11.9157 1.42305 1.3332 0
M  V30 97 O 11.1857 0.593853 1.86682 0
M  V30 98 H 9.7657 0.746993 -0.00313038 0
M  V30 99 H 12.4277 1.81414 -0.712397 0
M  V30 100 H 11.5237 3.11996 0.0805422 0
M  V30 101 N 11.8248 0.280983 1.55075 0
M  V30 102 C 12.7348 -0.61388 2.26426 0
M  V30 103 C 13.7508 -1.16521 1.29224 0
M  V30 104 O 14.9268 -1.19426 1.62171 0
M  V30 105 C 11.9918 -1.7788 2.9759 0
M  V30 106 C 11.0528 -1.26355 4.10284 0
M  V30 107 C 10.2858 -2.37295 4.78045 0
M  V30 108 O 10.5088 -3.56777 4.45047 0
M  V30 109 O 9.4428 -2.05119 5.65871 0
M  V30 110 H 13.2688 -0.0356932 3.03679 0
M  V30 111 H 10.8538 0.0481686 1.49322 0
M  V30 112 H 12.7358 -2.45791 3.42293 0
M  V30 113 H 11.4108 -2.34397 2.23249 0
M  V30 114 H 10.3178 -0.550735 3.70024 0
M  V30 115 H 11.6508 -0.744065 4.86543 0
M  V30 116 N 13.3029 -1.57598 0.00835791 0
M  V30 117 C 14.2659 -2.07884 -0.965242 0
M  V30 118 C 15.2659 -0.989825 -1.26725 0
M  V30 119 O 16.4559 -1.25218 -1.21104 0
M  V30 120 C 13.5879 -2.52731 -2.28779 0
M  V30 121 H 14.7809 -2.95178 -0.530112 0
M  V30 122 H 12.3339 -1.54458 -0.239283 0
M  V30 123 H 13.0689 -1.68705 -2.76964 0
M  V30 124 H 12.8539 -3.32272 -2.08177 0
M  V30 125 H 14.3439 -2.91933 -2.98605 0
M  V30 126 N 14.781 0.264519 -1.55364 0
M  V30 127 C 16.192 0.834936 -1.6699 0
M  V30 128 C 16.543 1.86718 -0.602552 0
M  V30 129 O 15.668 2.14899 0.254425 0
M  V30 130 C 16.263 1.5212 -3.02729 0
M  V30 131 C 14.822 2.03954 -3.16354 0
M  V30 132 C 13.969 0.884498 -2.62815 0
M  V30 133 H 16.92 0.0406869 -1.58648 0
M  V30 134 H 16.941 2.38853 -2.96191 0
M  V30 135 H 16.453 0.769668 -3.80392 0
M  V30 136 H 14.554 2.82041 -2.43482 0
M  V30 137 H 14.667 2.24902 -4.23032 0
M  V30 138 H 13.031 1.2802 -2.20188 0
M  V30 139 H 13.814 0.14634 -3.42988 0
M  V30 140 N 16.2591 1.48442 0.529413 0
M  V30 141 C 17.6751 1.34575 0.858004 0
M  V30 142 C 17.8751 0.3572 1.98309 0
M  V30 143 O 16.9311 -0.221379 2.51528 0
M  V30 144 C 18.2441 2.74617 1.22499 0
M  V30 145 C 19.7921 2.83109 1.33484 0
M  V30 146 C 20.2671 4.23854 1.73526 0
M  V30 147 N 21.7581 4.2653 1.80628 0
M  V30 148 C 22.4931 5.32372 2.12997 0
M  V30 149 N 21.9891 6.48491 2.43786 0
M  V30 150 N 23.7821 5.19766 2.14008 0
M  V30 151 H 15.9331 2.1133 -0.212925 0
M  V30 152 H 18.1961 0.947439 -0.0326199 0
M  V30 153 H 17.9021 3.4852 0.471905 0
M  V30 154 H 17.7761 3.08177 2.17501 0
M  V30 155 H 20.1631 2.09462 2.0787 0
M  V30 156 H 20.2441 2.53168 0.366027 0
M  V30 157 H 19.8881 4.98018 0.997013 0
M  V30 158 H 19.8181 4.5124 2.71459 0
M  V30 159 H 22.3091 3.42772 1.59108 0
M  V30 160 H 22.6221 7.24993 2.67592 0
M  V30 161 H 20.9671 6.51765 2.41304 0
M  V30 162 H 24.1581 4.28066 1.89412 0
M  V30 163 H 24.3311 6.02354 2.38902 0
M  V30 164 N 17.7372 -0.778329 1.37039 0
M  V30 165 C 18.9622 -1.57248 1.35233 0
M  V30 166 C 19.3872 -1.87999 -0.0615568 0
M  V30 167 O 18.7452 -1.48734 -1.03672 0
M  V30 168 C 18.7932 -2.86353 2.19167 0
M  V30 169 O 17.8972 -3.80442 1.59178 0
M  V30 170 H 17.2382 -0.476569 0.462362 0
M  V30 171 H 19.7682 -0.963853 1.80474 0
M  V30 172 H 19.7782 -3.35519 2.32145 0
M  V30 173 H 18.4532 -2.63299 3.21942 0
M  V30 174 H 17.0302 -3.39067 1.55203 0
M  V30 175 N 19.2153 -1.21501 -1.00376 0
M  V30 176 C 20.1783 -0.976927 -2.07337 0
M  V30 177 C 21.1783 0.0525322 -1.60714 0
M  V30 178 O 22.3683 -0.184869 -1.73216 0
M  V30 179 C 19.5003 -0.473423 -3.37597 0
M  V30 180 H 20.6933 -1.92587 -2.29892 0
M  V30 181 H 18.2463 -1.03217 -1.17371 0
M  V30 182 H 18.9813 0.480379 -3.20722 0
M  V30 183 H 18.7663 -1.216 -3.72768 0
M  V30 184 H 20.2563 -0.32675 -4.1632 0
M  V30 185 N 20.6934 1.19889 -1.02296 0
M  V30 186 C 21.9184 1.9393 -0.735237 0
M  V30 187 C 22.3434 1.74639 0.698782 0
M  V30 188 O 21.7014 1.04481 1.48167 0
M  V30 189 C 21.7494 3.43916 -1.08417 0
M  V30 190 O 20.8534 4.11917 -0.199446 0
M  V30 191 H 20.1944 0.605645 -0.272196 0
M  V30 192 H 22.7244 1.52137 -1.36804 0
M  V30 193 H 22.7344 3.9456 -1.03856 0
M  V30 194 H 21.4094 3.5728 -2.12894 0
M  V30 195 H 19.9864 3.71666 -0.303136 0
M  V30 196 N 22.1715 0.800033 1.35784 0
M  V30 197 C 23.4195 0.376597 1.9856 0
M  V30 198 C 23.7405 -1.05812 1.63795 0
M  V30 199 O 23.0105 -1.73103 0.917171 0
M  V30 200 H 21.5905 0.136261 0.734467 0
M  V30 201 H 24.2525 1.02442 1.65806 0
M  V30 202 H 23.3485 0.477002 3.08433 0
M  V30 203 N 23.6496 -1.47581 0.552962 0
M  V30 204 C 24.8776 -2.06875 0.0320556 0
M  V30 205 C 25.2926 -1.40625 -1.25976 0
M  V30 206 O 24.6496 -0.501349 -1.75479 0
M  V30 207 C 24.7006 -3.61092 -0.17167 0
M  V30 208 O 24.4216 -4.24858 1.06899 0
M  V30 209 C 25.9226 -4.37242 -0.730344 0
M  V30 210 H 23.1426 -0.669561 0.043915 0
M  V30 211 H 25.6866 -1.89646 0.765163 0
M  V30 212 H 23.8416 -3.7785 -0.854894 0
M  V30 213 H 24.2556 -5.17334 0.864059 0
M  V30 214 H 25.7296 -5.45842 -0.822203 0
M  V30 215 H 26.2066 -4.03235 -1.74064 0
M  V30 216 H 26.8126 -4.25219 -0.0829543 0
M  V30 217 N 25.1277 -0.289203 -1.54924 0
M  V30 218 C 26.5387 0.205791 -1.85562 0
M  V30 219 C 26.8897 1.54351 -1.2112 0
M  V30 220 O 26.0147 2.10435 -0.504601 0
M  V30 221 C 26.6097 0.380177 -3.3666 0
M  V30 222 C 25.1687 0.819395 -3.67373 0
M  V30 223 C 24.3157 -0.079159 -2.77187 0
M  V30 224 H 27.2667 -0.510577 -1.50262 0
M  V30 225 H 27.2877 1.21659 -3.60526 0
M  V30 226 H 26.7997 -0.593589 -3.83534 0
M  V30 227 H 24.9007 1.80413 -3.26009 0
M  V30 228 H 25.0137 0.646957 -4.74712 0
M  V30 229 H 23.3777 0.439565 -2.50878 0
M  V30 230 H 24.1607 -1.04906 -3.26878 0
M  V30 231 N 26.6058 1.57591 -0.0167156 0
M  V30 232 C 27.8338 1.95575 0.675128 0
M  V30 233 C 28.2488 0.892542 1.6637 0
M  V30 234 O 27.6058 -0.126912 1.82058 0
M  V30 235 C 27.6568 3.33608 1.39239 0
M  V30 236 O 27.3778 4.3585 0.443444 0
M  V30 237 C 28.8788 3.86151 2.17721 0
M  V30 238 H 26.0988 0.644423 0.186978 0
M  V30 239 H 28.6428 2.0437 -0.0728 0
M  V30 240 H 26.7978 3.2607 2.09182 0
M  V30 241 H 27.2118 5.158 0.951358 0
M  V30 242 H 28.6858 4.85114 2.63379 0
M  V30 243 H 29.1628 3.19738 3.01105 0
M  V30 244 H 29.7688 3.96918 1.52761 0
M  V30 245 N 28.0839 -0.256276 1.55502 0
M  V30 246 C 29.4999 -0.604325 1.47716 0
M  V30 247 C 29.6999 -1.88763 0.705039 0
M  V30 248 O 28.7559 -2.51445 0.230613 0
M  V30 249 C 30.0689 -0.715756 2.92057 0
M  V30 250 C 31.6169 -0.808706 3.02372 0
M  V30 251 C 32.0919 -0.951777 4.48001 0
M  V30 252 N 33.5829 -1.01688 4.519 0
M  V30 253 C 34.3179 -1.14668 5.61817 0
M  V30 254 N 33.8139 -1.24261 6.81565 0
M  V30 255 N 35.6069 -1.1791 5.49594 0
M  V30 256 H 27.7579 0.586291 2.04148 0
M  V30 257 H 30.0209 0.201015 0.926443 0
M  V30 258 H 29.7269 0.157027 3.51349 0
M  V30 259 H 29.6009 -1.59071 3.42018 0
M  V30 260 H 31.9879 -1.67195 2.43166 0
M  V30 261 H 32.0689 0.0912063 2.55637 0
M  V30 262 H 31.7129 -0.0931291 5.07815 0
M  V30 263 H 31.6429 -1.86659 4.92408 0
M  V30 264 H 34.1339 -0.954468 3.65648 0
M  V30 265 H 34.4469 -1.34046 7.61086 0
M  V30 266 H 32.7919 -1.21236 6.84344 0
M  V30 267 H 35.9829 -1.10057 4.54978 0
M  V30 268 H 36.1559 -1.27681 6.35296 0
M  V30 269 N 29.562 -1.4872 -0.521534 0
M  V30 270 C 30.978 -1.35028 -0.850855 0
M  V30 271 C 31.178 -0.367712 -1.98116 0
M  V30 272 O 30.234 0.208037 -2.51642 0
M  V30 273 C 31.547 -2.75263 -1.21041 0
M  V30 274 C 33.095 -2.83813 -1.31981 0
M  V30 275 C 33.57 -4.24769 -1.71276 0
M  V30 276 N 35.061 -4.27482 -1.78363 0
M  V30 277 C 35.796 -5.33494 -2.1017 0
M  V30 278 N 35.292 -6.49775 -2.40343 0
M  V30 279 N 37.085 -5.20894 -2.11248 0
M  V30 280 H 29.236 -2.11214 0.22413 0
M  V30 281 H 31.499 -0.947252 0.0376439 0
M  V30 282 H 31.205 -3.48765 -0.453415 0
M  V30 283 H 31.079 -3.09327 -2.15863 0
M  V30 284 H 33.466 -2.10561 -2.06756 0
M  V30 285 H 33.547 -2.53358 -0.352596 0
M  V30 286 H 33.191 -4.9854 -0.970588 0
M  V30 287 H 33.121 -4.52673 -2.69062 0
M  V30 288 H 35.612 -3.43611 -1.57288 0
M  V30 289 H 35.925 -7.26402 -2.63743 0
M  V30 290 H 34.27 -6.53035 -2.37844 0
M  V30 291 H 37.461 -4.29065 -1.87139 0
M  V30 292 H 37.634 -6.03612 -2.35704 0
M  V30 293 N 31.0401 0.771051 -1.3745 0
M  V30 294 C 31.9721 1.89352 -1.29146 0
M  V30 295 C 32.9851 1.61477 -0.207124 0
M  V30 296 O 34.1741 1.72382 -0.463324 0
M  V30 297 C 31.2741 3.24596 -0.974195 0
M  V30 298 C 30.4471 3.80111 -2.16413 0
M  V30 299 C 29.5061 4.93832 -1.81703 0
M  V30 300 O 28.5321 5.09382 -2.54006 0
M  V30 301 N 29.7341 5.75483 -0.761573 0
M  V30 302 H 32.4991 1.96991 -2.25864 0
M  V30 303 H 30.0601 0.950191 -1.31084 0
M  V30 304 H 32.0521 3.98193 -0.722828 0
M  V30 305 H 30.6221 3.12454 -0.0955527 0
M  V30 306 H 29.8421 2.98284 -2.57721 0
M  V30 307 H 31.1301 4.13932 -2.95867 0
M  V30 308 H 30.5281 5.65469 -0.161609 0
M  V30 309 H 29.0851 6.49302 -0.570064 0
M  V30 310 N 32.5182 1.22032 0.997298 0
M  V30 311 C 33.7642 1.04376 1.73878 0
M  V30 312 C 34.0972 -0.420716 1.89588 0
M  V30 313 O 33.3722 -1.31202 1.43583 0
M  V30 314 C 33.6552 1.75047 3.14691 0
M  V30 315 C 33.5082 3.29062 3.06656 0
M  V30 316 C 34.8272 1.49928 4.13775 0
M  V30 317 H 31.9462 0.380578 0.631133 0
M  V30 318 H 34.5882 1.50312 1.16217 0
M  V30 319 H 32.7382 1.35996 3.63919 0
M  V30 320 H 34.4102 3.7753 2.65083 0
M  V30 321 H 32.6532 3.58967 2.43568 0
M  V30 322 H 33.3242 3.73683 4.06282 0
M  V30 323 H 35.8002 1.83842 3.73285 0
M  V30 324 H 34.6762 2.01878 5.10428 0
M  V30 325 H 34.9372 0.430929 4.39995 0
M  V30 326 N 33.9963 -1.19345 1.0293 0
M  V30 327 C 35.2243 -1.92997 0.745644 0
M  V30 328 C 35.6393 -1.75519 -0.695589 0
M  V30 329 O 34.9963 -1.07737 -1.47306 0
M  V30 330 C 35.0473 -3.44741 1.08792 0
M  V30 331 O 34.7683 -3.61658 2.47256 0
M  V30 332 C 36.2693 -4.35515 0.827129 0
M  V30 333 H 33.4893 -0.613042 0.272801 0
M  V30 334 H 36.0333 -1.51473 1.3739 0
M  V30 335 H 34.1883 -3.84097 0.504832 0
M  V30 336 H 34.6023 -4.55514 2.60015 0
M  V30 337 H 36.0763 -5.40589 1.11658 0
M  V30 338 H 36.5533 -4.38552 -0.238436 0
M  V30 339 H 37.1593 -4.01841 1.39297 0
M  V30 340 N 35.4744 -0.807222 -1.35358 0
M  V30 341 C 36.7234 -0.384376 -1.98004 0
M  V30 342 C 37.0364 1.0543 -1.64754 0
M  V30 343 O 38.2424 1.58029 -2.20769 0
M  V30 344 C 36.6984 -0.636326 -3.5423 0
M  V30 345 C 36.3064 -2.08759 -3.96388 0
M  V30 346 C 38.0504 -0.278869 -4.23583 0
M  V30 347 C 35.9574 -2.28525 -5.45463 0
M  V30 348 H 34.8874 -0.139986 -0.740891 0
M  V30 349 H 37.5384 -0.991369 -1.54415 0
M  V30 350 H 35.9204 0.0406256 -3.95979 0
M  V30 351 H 37.0944 -2.8024 -3.6579 0
M  V30 352 H 35.4094 -2.40497 -3.39926 0
M  V30 353 H 38.0064 -0.404599 -5.33167 0
M  V30 354 H 38.3494 0.775012 -4.09022 0
M  V30 355 H 38.8824 -0.909764 -3.87257 0
M  V30 356 H 35.6214 -3.32361 -5.64992 0
M  V30 357 H 35.1414 -1.61569 -5.77629 0
M  V30 358 H 36.8204 -2.10109 -6.11934 0
M  V30 359 N 36.9525 1.47285 -0.560781 0
M  V30 360 C 38.1985 2.02764 -0.0381184 0
M  V30 361 C 38.5315 1.43384 1.30976 0
M  V30 362 O 37.8065 0.590733 1.85312 0
M  V30 363 C 38.0895 3.60064 0.0511427 0
M  V30 364 C 37.9425 4.2987 -1.32408 0
M  V30 365 C 39.2615 4.33439 0.762795 0
M  V30 366 H 36.3805 0.736841 -0.0153264 0
M  V30 367 H 39.0225 1.75675 -0.723759 0
M  V30 368 H 37.1725 3.83274 0.635065 0
M  V30 369 H 38.8445 4.17989 -1.95148 0
M  V30 370 H 37.0875 3.90085 -1.8978 0
M  V30 371 H 37.7585 5.38478 -1.21431 0
M  V30 372 H 40.2345 4.15243 0.266965 0
M  V30 373 H 39.1105 5.43124 0.794221 0
M  V30 374 H 39.3715 4.02915 1.81966 0
M  V30 375 N 38.4306 0.297415 1.54768 0
M  V30 376 C 39.8466 -0.0560823 1.59501 0
M  V30 377 C 40.0466 -1.52725 1.31444 0
M  V30 378 O 39.1026 -2.27947 1.08611 0
M  V30 379 C 40.4156 0.338631 2.98787 0
M  V30 380 C 41.9636 0.287097 3.11681 0
M  V30 381 C 42.4386 0.656579 4.53269 0
M  V30 382 N 43.9296 0.608977 4.59179 0
M  V30 383 C 44.6646 0.867385 5.66802 0
M  V30 384 N 44.1606 1.19157 6.82476 0
M  V30 385 N 45.9536 0.794687 5.56454 0
M  V30 386 H 38.1046 1.25624 1.71267 0
M  V30 387 H 40.3676 0.509057 0.799728 0
M  V30 388 H 40.0736 1.36263 3.2423 0
M  V30 389 H 39.9476 -0.309508 3.75928 0
M  V30 390 H 42.3346 -0.727649 2.85988 0
M  V30 391 H 42.4156 0.969809 2.36703 0
M  V30 392 H 42.0596 1.66912 4.7969 0
M  V30 393 H 41.9896 -0.0481649 5.26578 0
M  V30 394 H 44.4806 0.369198 3.76092 0
M  V30 395 H 44.7936 1.37482 7.60473 0
M  V30 396 H 43.1386 1.22958 6.84037 0
M  V30 397 H 46.3296 0.541098 4.64962 0
M  V30 398 H 46.5026 0.999445 6.40246 0
M  V30 399 N 39.9087 -1.5758 0.0250728 0
M  V30 400 C 41.1577 -1.90811 -0.653767 0
M  V30 401 C 41.4707 -0.90273 -1.73523 0
M  V30 402 O 42.6767 -1.12614 -2.47043 0
M  V30 403 C 41.1327 -3.38804 -1.21409 0
M  V30 404 C 40.7407 -4.47692 -0.166126 0
M  V30 405 C 42.4847 -3.81108 -1.86967 0
M  V30 406 C 40.3917 -5.86779 -0.737856 0
M  V30 407 H 39.3217 -0.712063 -0.247956 0
M  V30 408 H 41.9727 -1.83281 0.0897137 0
M  V30 409 H 40.3547 -3.41252 -2.00905 0
M  V30 410 H 41.5287 -4.56797 0.606079 0
M  V30 411 H 39.8437 -4.14565 0.390466 0
M  V30 412 H 42.4407 -4.82375 -2.30692 0
M  V30 413 H 42.7837 -3.15953 -2.71071 0
M  V30 414 H 43.3167 -3.81065 -1.14167 0
M  V30 415 H 40.0557 -6.55468 0.0649577 0
M  V30 416 H 39.5757 -5.81288 -1.47864 0
M  V30 417 H 41.2547 -6.35223 -1.22884 0
M  V30 418 N 41.3868 0.248026 -1.55636 0
M  V30 419 C 42.6168 0.992367 -1.81206 0
M  V30 420 C 43.0248 1.7949 -0.598324 0
M  V30 421 O 42.3678 1.78292 0.442434 0
M  V30 422 C 42.4298 1.97926 -3.00109 0
M  V30 423 C 42.0938 1.36377 -4.36177 0
M  V30 424 C 43.0908 0.76682 -5.14214 0
M  V30 425 C 40.7758 1.38347 -4.82872 0
M  V30 426 C 42.7698 0.197778 -6.37093 0
M  V30 427 C 40.4568 0.810574 -6.057 0
M  V30 428 C 41.4548 0.218754 -6.8265 0
M  V30 429 O 41.1428 -0.345298 -8.03158 0
M  V30 430 H 40.8748 0.297704 -0.606917 0
M  V30 431 H 43.4288 0.276517 -2.0353 0
M  V30 432 H 41.6588 2.73339 -2.73538 0
M  V30 433 H 43.3478 2.58694 -3.12781 0
M  V30 434 H 44.1138 0.744114 -4.79258 0
M  V30 435 H 39.9928 1.8335 -4.2297 0
M  V30 436 H 43.5368 -0.264788 -6.97097 0
M  V30 437 H 39.4338 0.830604 -6.40134 0
M  V30 438 H 40.2018 -0.237055 -8.18157 0
M  V30 439 N 42.8649 1.48995 0.513639 0
M  V30 440 C 43.7949 1.67636 1.62544 0
M  V30 441 C 44.7759 0.525087 1.61793 0
M  V30 442 O 45.9609 0.759502 1.78732 0
M  V30 443 C 43.0909 1.73114 3.01079 0
M  V30 444 C 42.0449 2.87905 3.16693 0
M  V30 445 C 41.3709 2.78486 4.56453 0
M  V30 446 C 42.6709 4.29005 2.97913 0
M  V30 447 H 44.3649 2.60716 1.47198 0
M  V30 448 H 41.9109 1.25465 0.706714 0
M  V30 449 H 43.8639 1.84742 3.78746 0
M  V30 450 H 42.5879 0.766241 3.17484 0
M  V30 451 H 41.2469 2.75859 2.41448 0
M  V30 452 H 40.8949 1.7993 4.69717 0
M  V30 453 H 40.5949 3.55523 4.67843 0
M  V30 454 H 42.1189 2.92104 5.36197 0
M  V30 455 H 43.5329 4.41798 3.65359 0
M  V30 456 H 41.9299 5.07166 3.20785 0
M  V30 457 H 42.9999 4.44329 1.94165 0
M  V30 458 N 44.343 -0.763751 1.37857 0
M  V30 459 C 45.62 -1.51244 1.24035 0
M  V30 460 C 46 -2.10472 -0.162649 0
M  V30 461 O 45.348 -1.96206 -1.17112 0
M  V30 462 C 45.558 -2.58694 2.34261 0
M  V30 463 C 46.906 -3.25878 2.72193 0
M  V30 464 O 47.93 -2.68993 2.33497 0
M  V30 465 O 46.789 -4.2874 3.38887 0
M  V30 466 H 43.883 -0.670243 0.484462 0
M  V30 467 H 46.429 -0.800031 1.49658 0
M  V30 468 H 45.201 -2.13105 3.2818 0
M  V30 469 H 44.824 -3.37527 2.10146 0
M  V30 470 N 45.8211 -1.22559 -0.990812 0
M  V30 471 C 47.0691 -1.04933 -1.72724 0
M  V30 472 C 47.3901 0.416158 -1.90508 0
M  V30 473 O 46.6601 1.29918 -1.46622 0
M  V30 474 H 45.2401 -0.385296 -0.639965 0
M  V30 475 H 47.9021 -1.54105 -1.19322 0
M  V30 476 H 46.9981 -1.52886 -2.72089 0
M  V30 477 N 47.2992 1.18797 -1.03562 0
M  V30 478 C 48.5452 1.8893 -0.737113 0
M  V30 479 C 48.8782 1.79837 0.732956 0
M  V30 480 O 48.1532 1.19525 1.5344 0
M  V30 481 C 48.4362 3.39607 -1.19745 0
M  V30 482 C 48.2892 3.57537 -2.72924 0
M  V30 483 C 49.6082 4.33069 -0.783526 0
M  V30 484 H 46.7272 0.686057 -0.269249 0
M  V30 485 H 49.3692 1.39797 -1.28673 0
M  V30 486 H 47.5192 3.81583 -0.729855 0
M  V30 487 H 49.1912 3.24688 -3.27682 0
M  V30 488 H 47.4342 3.00363 -3.12993 0
M  V30 489 H 48.1052 4.63238 -3.00191 0
M  V30 490 H 50.5812 3.98846 -1.18581 0
M  V30 491 H 49.4572 5.3707 -1.13343 0
M  V30 492 H 49.7182 4.40986 0.313681 0
M  V30 493 N 48.7773 0.814389 1.34928 0
M  V30 494 C 50.0073 0.41054 2.0248 0
M  V30 495 C 50.4153 -0.985625 1.61499 0
M  V30 496 O 49.7583 -1.64781 0.811976 0
M  V30 497 C 49.8203 0.423384 3.56998 0
M  V30 498 C 49.4843 1.77141 4.21272 0
M  V30 499 C 50.4813 2.73093 4.42398 0
M  V30 500 C 48.1663 2.05755 4.58225 0
M  V30 501 C 50.1603 3.95838 4.9959 0
M  V30 502 C 47.8473 3.28762 5.1513 0
M  V30 503 C 48.8453 4.23621 5.35755 0
M  V30 504 O 48.5333 5.44456 5.91458 0
M  V30 505 H 48.2653 0.163997 0.655806 0
M  V30 506 H 50.8193 1.10155 1.73364 0
M  V30 507 H 49.0493 -0.324276 3.85338 0
M  V30 508 H 50.7383 0.0407683 4.0588 0
M  V30 509 H 51.5043 2.5228 4.14222 0
M  V30 510 H 47.3833 1.32727 4.4148 0
M  V30 511 H 50.9273 4.69891 5.15605 0
M  V30 512 H 46.8243 3.49443 5.42734 0
M  V30 513 H 47.5923 5.4586 6.09901 0
M  V30 514 N 50.2554 -1.46986 0.568584 0
M  V30 515 C 51.5034 -2.02041 0.0487022 0
M  V30 516 C 51.8244 -1.44408 -1.31039 0
M  V30 517 O 51.0944 -0.623477 -1.85714 0
M  V30 518 H 49.6744 -0.746849 0.015014 0
M  V30 519 H 52.3364 -1.80257 0.741168 0
M  V30 520 H 51.4324 -3.12085 -0.0308961 0
M  V30 521 N 51.7335 -0.305618 -1.54608 0
M  V30 522 C 52.9825 0.303098 -1.9941 0
M  V30 523 C 53.2955 1.54648 -1.19764 0
M  V30 524 O 54.5015 2.23007 -1.54855 0
M  V30 525 C 52.9575 0.590588 -3.55021 0
M  V30 526 C 52.5655 -0.634719 -4.43481 0
M  V30 527 C 54.3095 1.16025 -4.08336 0
M  V30 528 C 52.2165 -0.320126 -5.90533 0
M  V30 529 H 51.1465 0.117031 -0.744862 0
M  V30 530 H 53.7975 -0.415045 -1.78745 0
M  V30 531 H 52.1795 1.36845 -3.71604 0
M  V30 532 H 53.3535 -1.41079 -4.38672 0
M  V30 533 H 51.6685 -1.12333 -4.00962 0
M  V30 534 H 54.2655 1.40994 -5.15776 0
M  V30 535 H 54.6085 2.10397 -3.5922 0
M  V30 536 H 55.1415 0.443985 -3.95315 0
M  V30 537 H 51.8805 -1.23254 -6.43808 0
M  V30 538 H 51.4005 0.418579 -5.98338 0
M  V30 539 H 53.0795 0.0766241 -6.46955 0
M  V30 540 N 53.2116 1.57565 -0.0334293 0
M  V30 541 C 54.4596 1.91598 0.642999 0
M  V30 542 C 54.7806 0.910847 1.7242 0
M  V30 543 O 54.0506 -0.0469931 1.95844 0
M  V30 544 H 52.6306 0.707228 0.240496 0
M  V30 545 H 55.2926 1.94726 -0.0822488 0
M  V30 546 H 54.3886 2.92336 1.09298 0
M  V30 547 N 54.6897 -0.239769 1.55765 0
M  V30 548 C 55.6367 -1.29696 1.90913 0
M  V30 549 C 56.6067 -1.47478 0.764164 0
M  V30 550 O 57.7917 -1.61345 1.01845 0
M  V30 551 C 54.9317 -2.64598 2.21544 0
M  V30 552 C 54.0447 -2.54765 3.48882 0
M  V30 553 C 53.1797 -3.82069 3.69049 0
M  V30 554 C 52.2187 -3.66883 4.89963 0
M  V30 555 N 51.3557 -4.86094 5.06614 0
M  V30 556 H 56.1957 -0.990224 2.81067 0
M  V30 557 H 53.7327 -0.477684 1.39128 0
M  V30 558 H 55.6907 -3.43132 2.3731 0
M  V30 559 H 54.3207 -2.93405 1.34585 0
M  V30 560 H 53.3727 -1.67763 3.41409 0
M  V30 561 H 54.6847 -2.39457 4.37563 0
M  V30 562 H 53.8387 -4.69046 3.84812 0
M  V30 563 H 52.5777 -4.00282 2.78614 0
M  V30 564 H 51.5827 -2.78289 4.74168 0
M  V30 565 H 52.8077 -3.50157 5.81865 0
M  V30 566 H 50.7537 -5.04655 4.19117 0
M  V30 567 H 50.6707 -4.73443 5.89396 0
M  V30 568 H 51.9387 -5.74549 5.26795 0
M  V30 569 N 56.1678 -1.49265 -0.50573 0
M  V30 570 C 57.3928 -1.62478 -1.28902 0
M  V30 571 C 57.8178 -0.294332 -1.85783 0
M  V30 572 O 57.1758 0.737412 -1.65626 0
M  V30 573 C 57.2238 -2.69268 -2.39848 0
M  V30 574 O 56.3278 -2.28113 -3.43567 0
M  V30 575 H 55.6688 -0.54399 -0.380751 0
M  V30 576 H 58.1988 -1.95421 -0.605952 0
M  V30 577 H 58.2088 -2.91291 -2.85681 0
M  V30 578 H 56.8838 -3.65846 -1.97812 0
M  V30 579 H 55.4608 -2.16401 -3.03685 0
M  V30 580 N 57.6459 0.756429 -1.3826 0
M  V30 581 C 58.8739 1.54565 -1.3754 0
M  V30 582 C 59.2889 1.88767 0.0355331 0
M  V30 583 O 58.6459 1.52572 1.0014 0
M  V30 584 C 58.6969 2.84654 -2.22833 0
M  V30 585 O 58.4179 2.51912 -3.5843 0
M  V30 586 C 59.9189 3.78807 -2.30261 0
M  V30 587 H 57.1389 0.478353 -0.470553 0
M  V30 588 H 59.6829 0.936381 -1.81803 0
M  V30 589 H 57.8379 3.41965 -1.8204 0
M  V30 590 H 58.2519 3.35325 -4.03308 0
M  V30 591 H 59.7259 4.67045 -2.94233 0
M  V30 592 H 60.2029 4.19038 -1.31545 0
M  V30 593 H 60.8089 3.2742 -2.71433 0
M  V30 594 N 59.124 1.23083 0.984299 0
M  V30 595 C 60.352 1.08714 1.76037 0
M  V30 596 C 60.767 -0.361691 1.85303 0
M  V30 597 O 60.124 -1.25034 1.32939 0
M  V30 598 C 60.175 1.70206 3.18923 0
M  V30 599 O 59.896 3.09423 3.10144 0
M  V30 600 C 61.397 1.61227 4.12941 0
M  V30 601 H 58.617 0.380664 0.552572 0
M  V30 602 H 61.161 1.62853 1.23689 0
M  V30 603 H 59.316 1.20109 3.6831 0
M  V30 604 H 59.73 3.39188 4.00065 0
M  V30 605 H 61.204 2.08962 5.10919 0
M  V30 606 H 61.681 0.570375 4.35481 0
M  V30 607 H 62.287 2.10671 3.69456 0
M  V30 608 N 60.6021 -1.18246 1.0419 0
M  V30 609 C 61.8501 -1.87886 0.744543 0
M  V30 610 C 62.1711 -1.8082 -0.730006 0
M  V30 611 O 61.4411 -1.22736 -1.52685 0
M  V30 612 H 60.0211 -0.695556 0.272417 0
M  V30 613 H 62.6831 -1.43494 1.31892 0
M  V30 614 H 61.7791 -2.9389 1.05049 0
M  V30 615 N 62.0802 -0.821533 -1.34494 0
M  V30 616 C 63.4962 -0.507117 -1.51329 0
M  V30 617 C 63.6962 0.968964 -1.76673 0
M  V30 618 O 62.7522 1.75348 -1.81685 0
M  V30 619 C 64.0652 -1.36544 -2.67911 0
M  V30 620 C 65.6132 -1.36242 -2.81793 0
M  V30 621 C 66.0882 -2.2052 -4.01416 0
M  V30 622 N 67.5792 -2.18136 -4.08621 0
M  V30 623 C 68.3142 -2.80095 -5.00334 0
M  V30 624 N 67.8102 -3.51039 -5.9728 0
M  V30 625 N 69.6032 -2.69656 -4.93196 0
M  V30 626 H 61.7542 -1.77729 -1.16302 0
M  V30 627 H 64.0172 -0.757291 -0.570276 0
M  V30 628 H 63.7232 -2.41361 -2.55808 0
M  V30 629 H 63.5972 -1.02917 -3.62888 0
M  V30 630 H 65.9842 -0.322041 -2.93338 0
M  V30 631 H 66.0652 -1.73866 -1.87628 0
M  V30 632 H 65.7092 -3.24607 -3.90631 0
M  V30 633 H 65.6392 -1.80247 -4.94791 0
M  V30 634 H 68.1302 -1.6653 -3.39229 0
M  V30 635 H 68.4432 -3.95565 -6.63889 0
M  V30 636 H 66.7882 -3.55145 -5.97409 0
M  V30 637 H 69.9792 -2.13808 -4.16418 0
M  V30 638 H 70.1522 -3.1823 -5.64476 0
M  V30 639 N 63.5583 1.46682 -0.576371 0
M  V30 640 C 64.8043 2.02712 -0.0596221 0
M  V30 641 C 65.1373 1.44765 1.29448 0
M  V30 642 O 64.4123 0.610355 1.84675 0
M  V30 643 C 64.6953 3.60098 0.0129503 0
M  V30 644 C 64.5483 4.28441 -1.3696 0
M  V30 645 C 65.8673 4.34224 0.71678 0
M  V30 646 H 62.9863 0.736637 -0.0231407 0
M  V30 647 H 65.6283 1.74898 -0.742351 0
M  V30 648 H 63.7783 3.83926 0.594378 0
M  V30 649 H 65.4503 4.15896 -1.9957 0
M  V30 650 H 63.6933 3.8805 -1.93907 0
M  V30 651 H 64.3643 5.3716 -1.27135 0
M  V30 652 H 66.8403 4.15503 0.222908 0
M  V30 653 H 65.7163 5.43936 0.73657 0
M  V30 654 H 65.9773 4.04823 1.77682 0
M  V30 655 N 65.0364 0.313813 1.54444 0
M  V30 656 C 65.9694 -0.598866 2.20202 0
M  V30 657 C 66.9474 -1.12318 1.17573 0
M  V30 658 O 68.1314 -1.18899 1.46271 0
M  V30 659 C 65.2584 -1.82071 2.85601 0
M  V30 660 C 64.3044 -1.42851 4.01865 0
M  V30 661 S 65.1374 -0.473512 5.33402 0
M  V30 662 C 66.2934 -1.70286 6.0229 0
M  V30 663 H 66.5264 -0.0402532 2.97273 0
M  V30 664 H 64.0594 0.0979165 1.54089 0
M  V30 665 H 66.0174 -2.52184 3.23904 0
M  V30 666 H 64.6784 -2.3505 2.08351 0
M  V30 667 H 63.8714 -2.33871 4.46453 0
M  V30 668 H 63.4734 -0.807198 3.65185 0
M  V30 669 H 65.7654 -2.64168 6.23876 0
M  V30 670 H 66.7084 -1.29932 6.96077 0
M  V30 671 H 67.1164 -1.88541 5.32083 0
M  V30 672 N 66.5145 -1.57545 0.0417849 0
M  V30 673 C 67.4775 -2.09885 -0.92093 0
M  V30 674 C 68.4775 -1.01648 -1.24596 0
M  V30 675 O 69.6675 -1.27759 -1.1842 0
M  V30 676 C 66.7995 -2.57527 -2.23367 0
M  V30 677 H 67.9925 -2.96236 -0.467382 0
M  V30 678 H 65.5455 -1.5493 -0.206467 0
M  V30 679 H 66.2805 -1.74542 -2.73323 0
M  V30 680 H 66.0655 -3.36613 -2.01083 0
M  V30 681 H 67.5555 -2.98201 -2.92346 0
M  V30 682 N 67.9926 0.231505 -1.5589 0
M  V30 683 C 69.2176 0.978689 -1.82856 0
M  V30 684 C 69.6426 1.77559 -0.620846 0
M  V30 685 O 69.0006 1.76119 0.430305 0
M  V30 686 C 69.0486 1.87997 -3.07716 0
M  V30 687 O 68.1526 2.97393 -2.85712 0
M  V30 688 H 67.4936 0.277663 -0.603158 0
M  V30 689 H 70.0236 0.24783 -2.03093 0
M  V30 690 H 70.0336 2.2917 -3.37558 0
M  V30 691 H 68.7086 1.29417 -3.95252 0
M  V30 692 H 67.2856 2.60238 -2.67078 0
M  V30 693 N 69.4707 1.49531 0.497807 0
M  V30 694 C 70.4337 1.65916 1.58128 0
M  V30 695 C 71.4337 0.530825 1.51786 0
M  V30 696 O 72.6237 0.797342 1.54881 0
M  V30 697 C 69.7557 1.65951 2.9778 0
M  V30 698 H 70.9487 2.62556 1.44929 0
M  V30 699 H 68.5017 1.38611 0.722275 0
M  V30 700 H 69.2367 0.709065 3.16453 0
M  V30 701 H 69.0217 2.47897 3.03792 0
M  V30 702 H 70.5117 1.80673 3.76493 0
M  V30 703 N 70.9488 -0.749086 1.3866 0
M  V30 704 C 71.9118 -1.84457 1.36045 0
M  V30 705 C 72.9118 -1.58682 0.260122 0
M  V30 706 O 74.1018 -1.66343 0.517261 0
M  V30 707 C 71.2338 -3.22008 1.11911 0
M  V30 708 H 72.4268 -1.88182 2.33512 0
M  V30 709 H 69.9798 -0.951266 1.24019 0
M  V30 710 H 70.7148 -3.2395 0.150686 0
M  V30 711 H 70.4998 -3.42111 1.91579 0
M  V30 712 H 71.9898 -4.0208 1.12788 0
M  V30 713 N 72.4269 -1.23603 -0.977757 0
M  V30 714 C 73.6519 -1.09735 -1.75991 0
M  V30 715 C 74.0769 0.346858 -1.84874 0
M  V30 716 O 73.4349 1.25093 -1.3123 0
M  V30 717 C 73.4829 -1.73051 -3.16363 0
M  V30 718 O 72.5869 -0.994452 -4.0023 0
M  V30 719 H 71.9279 -0.384476 -0.541364 0
M  V30 720 H 74.4579 -1.6371 -1.2272 0
M  V30 721 H 74.4679 -1.78398 -3.66931 0
M  V30 722 H 73.1429 -2.78137 -3.09213 0
M  V30 723 H 71.7199 -1.01812 -3.58732 0
M  V30 724 N 73.905 1.17692 -1.04816 0
M  V30 725 C 75.153 1.87488 -0.754497 0
M  V30 726 C 75.474 1.81205 0.720407 0
M  V30 727 O 74.744 1.23544 1.52032 0
M  V30 728 H 73.324 0.694101 -0.276102 0
M  V30 729 H 75.986 1.42793 -1.32651 0
M  V30 730 H 75.082 2.93328 -1.06606 0
M  V30 731 N 75.3831 0.828654 1.34056 0
M  V30 732 C 76.6311 0.41863 1.97717 0
M  V30 733 C 76.9521 -1.02314 1.66002 0
M  V30 734 O 76.2221 -1.71119 0.953683 0
M  V30 735 H 74.8021 0.151809 0.731412 0
M  V30 736 H 77.4641 1.05936 1.63596 0
M  V30 737 H 76.5601 0.542318 3.07352 0
M  V30 738 N 76.8612 -1.46375 0.584142 0
M  V30 739 C 78.0862 -2.07268 0.0740405 0
M  V30 740 C 78.5112 -1.42979 -1.22223 0
M  V30 741 O 77.8692 -0.514092 -1.73859 0
M  V30 742 C 77.9172 -3.60518 -0.0767769 0
M  V30 743 O 77.0212 -3.96533 -1.13292 0
M  V30 744 H 76.3622 -0.660961 0.0634524 0
M  V30 745 H 78.8922 -1.87991 0.807492 0
M  V30 746 H 78.9022 -4.07021 -0.282489 0
M  V30 747 H 77.5772 -4.06702 0.86986 0
M  V30 748 H 76.1542 -3.61738 -0.905553 0
M  V30 749 N 78.3393 -0.321999 -1.54275 0
M  V30 750 C 79.7503 0.166384 -1.85957 0
M  V30 751 C 80.1013 1.51747 -1.24367 0
M  V30 752 O 79.2263 2.09317 -0.549124 0
M  V30 753 C 79.8213 0.308681 -3.37391 0
M  V30 754 C 78.3803 0.741286 -3.69028 0
M  V30 755 C 77.5273 -0.137937 -2.76957 0
M  V30 756 H 80.4783 -0.542335 -1.49146 0
M  V30 757 H 80.4993 1.13984 -3.63026 0
M  V30 758 H 80.0113 -0.674809 -3.82188 0
M  V30 759 H 78.1123 1.73458 -3.29762 0
M  V30 760 H 78.2253 0.546118 -4.75977 0
M  V30 761 H 76.5893 0.386251 -2.51754 0
M  V30 762 H 77.3723 -1.11816 -3.2458 0
M  V30 763 N 79.8174 1.5752 -0.0501392 0
M  V30 764 C 81.0454 1.96963 0.633492 0
M  V30 765 C 81.4604 0.927631 1.6444 0
M  V30 766 O 80.8174 -0.0882665 1.82286 0
M  V30 767 C 80.8684 3.36487 1.32132 0
M  V30 768 O 80.5894 4.36693 0.350894 0
M  V30 769 C 82.0904 3.90682 2.09481 0
M  V30 770 H 79.3104 0.648244 0.173266 0
M  V30 771 H 81.8544 2.0417 -0.116134 0
M  V30 772 H 80.0094 3.30434 2.02218 0
M  V30 773 H 80.4234 5.17702 0.841735 0
M  V30 774 H 81.8974 4.90591 2.5303 0
M  V30 775 H 82.3744 3.26053 2.94255 0
M  V30 776 H 82.9804 4.00069 1.44307 0
M  V30 777 N 81.2955 -0.223234 1.56011 0
M  V30 778 C 82.2255 -1.27988 1.95298 0
M  V30 779 C 83.2065 -1.48976 0.820979 0
M  V30 780 O 84.3915 -1.61188 1.08315 0
M  V30 781 C 81.5215 -2.63 2.26822 0
M  V30 782 C 80.4755 -2.56671 3.42497 0
M  V30 783 C 79.8015 -3.95697 3.59622 0
M  V30 784 C 81.1015 -2.11601 4.77517 0
M  V30 785 H 82.7955 -0.953525 2.8381 0
M  V30 786 H 80.3415 -0.457244 1.36548 0
M  V30 787 H 82.2945 -3.37077 2.52898 0
M  V30 788 H 81.0185 -2.9732 1.35161 0
M  V30 789 H 79.6775 -1.85051 3.16467 0
M  V30 790 H 79.3255 -4.27322 2.6534 0
M  V30 791 H 79.0255 -3.92345 4.37424 0
M  V30 792 H 80.5495 -4.71438 3.88044 0
M  V30 793 H 81.9635 -2.7542 5.02809 0
M  V30 794 H 80.3605 -2.19311 5.5859 0
M  V30 795 H 81.4305 -1.06824 4.72987 0
M  V30 796 N 82.7736 -1.49793 -0.48987 0
M  V30 797 C 84.0036 -1.6333 -1.26518 0
M  V30 798 C 84.4116 -0.308392 -1.8667 0
M  V30 799 O 83.7546 0.717512 -1.69108 0
M  V30 800 C 83.8166 -2.6522 -2.4269 0
M  V30 801 C 83.4806 -4.09279 -2.03321 0
M  V30 802 C 84.4776 -4.95738 -1.56652 0
M  V30 803 C 82.1626 -4.55082 -2.12616 0
M  V30 804 C 84.1566 -6.26041 -1.19795 0
M  V30 805 C 81.8436 -5.85396 -1.75371 0
M  V30 806 C 82.8416 -6.707 -1.29036 0
M  V30 807 O 82.5296 -7.98584 -0.92299 0
M  V30 808 H 82.2616 -0.552502 -0.389509 0
M  V30 809 H 84.8156 -1.96642 -0.593381 0
M  V30 810 H 83.0456 -2.27112 -3.12981 0
M  V30 811 H 84.7346 -2.68171 -3.04695 0
M  V30 812 H 85.5006 -4.61575 -1.48908 0
M  V30 813 H 81.3796 -3.88844 -2.47631 0
M  V30 814 H 84.9236 -6.92578 -0.835582 0
M  V30 815 H 80.8206 -6.19085 -1.82768 0
M  V30 816 H 81.5886 -8.11692 -1.05349 0
M  V30 817 N 84.2517 0.741722 -1.39055 0
M  V30 818 C 85.4987 1.50114 -1.35912 0
M  V30 819 C 85.8267 1.94443 0.0470937 0
M  V30 820 O 85.0817 1.66612 1.02659 0
M  V30 821 C 85.3807 2.7592 -2.27163 0
M  V30 822 C 85.0467 2.50493 -3.74919 0
M  V30 823 C 83.7087 2.43267 -4.1518 0
M  V30 824 C 86.0607 2.28585 -4.684 0
M  V30 825 C 83.3887 2.12166 -5.46994 0
M  V30 826 C 85.7407 1.99002 -6.00484 0
M  V30 827 C 84.4047 1.90241 -6.39816 0
M  V30 828 H 83.6747 0.549306 -0.497336 0
M  V30 829 H 86.3217 0.851896 -1.71508 0
M  V30 830 H 84.6267 3.45553 -1.84663 0
M  V30 831 H 86.3237 3.33923 -2.22028 0
M  V30 832 H 82.9137 2.56992 -3.43006 0
M  V30 833 H 87.0977 2.33139 -4.38132 0
M  V30 834 H 82.3537 2.03901 -5.76398 0
M  V30 835 H 86.5277 1.81057 -6.72452 0
M  V30 836 H 84.1547 1.65907 -7.41875 0
M  V30 837 N 85.7298 1.2412 0.971189 0
M  V30 838 C 87.1408 1.07236 1.52831 0
M  V30 839 C 87.4918 -0.357352 1.92918 0
M  V30 840 O 86.6168 -1.24528 1.76979 0
M  V30 841 C 87.2118 1.94043 2.77728 0
M  V30 842 C 85.7708 1.81394 3.29808 0
M  V30 843 C 84.9178 1.89189 2.02738 0
M  V30 844 H 87.8688 1.37648 0.789864 0
M  V30 845 H 87.8898 1.47066 3.5093 0
M  V30 846 H 87.4018 2.98093 2.4852 0
M  V30 847 H 85.5028 0.801634 3.63874 0
M  V30 848 H 85.6158 2.65294 3.98944 0
M  V30 849 H 83.9798 1.32877 2.17292 0
M  V30 850 H 84.7628 2.94812 1.759 0
M  V30 851 N 87.2079 -1.17134 1.05439 0
M  V30 852 C 88.1179 -2.24878 0.668365 0
M  V30 853 C 89.1339 -1.71186 -0.311687 0
M  V30 854 O 90.3099 -2.00738 -0.163161 0
M  V30 855 C 87.3749 -3.46662 0.051648 0
M  V30 856 C 86.4359 -4.15429 1.08246 0
M  V30 857 C 85.6689 -5.31399 0.495082 0
M  V30 858 O 85.8919 -5.66153 -0.694743 0
M  V30 859 O 84.8259 -5.89187 1.23056 0
M  V30 860 H 88.6519 -2.60189 1.56637 0
M  V30 861 H 86.2369 -1.24482 0.826104 0
M  V30 862 H 88.1189 -4.20394 -0.290966 0
M  V30 863 H 86.7939 -3.13142 -0.819971 0
M  V30 864 H 85.7009 -3.43704 1.47711 0
M  V30 865 H 87.0339 -4.52982 1.92532 0
M  V30 866 N 88.686 -0.835752 -1.33615 0
M  V30 867 C 90.097 -0.487099 -1.80234 0
M  V30 868 C 90.448 0.993627 -1.69179 0
M  V30 869 O 89.573 1.77403 -1.23924 0
M  V30 870 C 90.168 -0.877385 -3.27242 0
M  V30 871 C 88.727 -0.580915 -3.7189 0
M  V30 872 C 87.874 -1.0874 -2.5509 0
M  V30 873 H 90.825 -1.02474 -1.2118 0
M  V30 874 H 90.846 -0.186195 -3.80044 0
M  V30 875 H 90.358 -1.95512 -3.35256 0
M  V30 876 H 88.459 0.486881 -3.69405 0
M  V30 877 H 88.572 -1.13396 -4.65487 0
M  V30 878 H 86.936 -0.508392 -2.49575 0
M  V30 879 H 87.719 -2.17184 -2.65868 0
M  V30 880 N 90.1641 1.46063 -0.591896 0
M  V30 881 C 91.0971 2.27452 0.184617 0
M  V30 882 C 92.0751 1.36188 0.888351 0
M  V30 883 O 93.2591 1.65606 0.90039 0
M  V30 884 C 90.3861 3.14162 1.26571 0
M  V30 885 C 89.4321 4.21255 0.666814 0
M  V30 886 S 90.2651 5.33034 -0.513345 0
M  V30 887 C 91.4211 6.23311 0.56872 0
M  V30 888 H 91.6541 2.92963 -0.505939 0
M  V30 889 H 89.1871 1.49676 -0.379014 0
M  V30 890 H 91.1451 3.6468 1.88463 0
M  V30 891 H 89.8061 2.47946 1.92826 0
M  V30 892 H 88.9991 4.81788 1.47974 0
M  V30 893 H 88.6011 3.73797 0.123359 0
M  V30 894 H 90.8931 6.61758 1.45198 0
M  V30 895 H 91.8361 7.081 -7.23824e-05 0
M  V30 896 H 92.2441 5.57646 0.876996 0
M  V30 897 N 91.6422 0.330177 1.54103 0
M  V30 898 C 92.6052 -0.520144 2.2322 0
M  V30 899 C 93.6052 -1.03828 1.22786 0
M  V30 900 O 94.7952 -0.929652 1.4732 0
M  V30 901 C 91.9272 -1.72317 2.94142 0
M  V30 902 H 93.1202 0.0841605 2.99782 0
M  V30 903 H 90.6732 0.0813433 1.56088 0
M  V30 904 H 91.4082 -2.36653 2.21734 0
M  V30 905 H 91.1932 -1.35898 3.67796 0
M  V30 906 H 92.6832 -2.3266 3.46784 0
M  V30 907 N 93.1203 -1.57491 0.0584922 0
M  V30 908 C 94.3503 -1.9701 -0.622134 0
M  V30 909 C 94.7583 -0.935034 -1.6448 0
M  V30 910 O 94.1013 0.0882904 -1.83488 0
M  V30 911 C 94.1633 -3.32794 -1.35972 0
M  V30 912 C 93.8273 -4.54343 -0.492043 0
M  V30 913 C 94.8243 -5.19323 0.244901 0
M  V30 914 C 92.5093 -5.00534 -0.420821 0
M  V30 915 C 94.5033 -6.28835 1.04143 0
M  V30 916 C 92.1903 -6.09921 0.379389 0
M  V30 917 C 93.1883 -6.73933 1.10919 0
M  V30 918 O 92.8763 -7.81216 1.89623 0
M  V30 919 H 92.6083 -0.653127 -0.174359 0
M  V30 920 H 95.1623 -2.05029 0.123418 0
M  V30 921 H 93.3923 -3.21351 -2.15105 0
M  V30 922 H 95.0813 -3.5701 -1.93129 0
M  V30 923 H 95.8473 -4.8459 0.19939 0
M  V30 924 H 91.7263 -4.50496 -0.978474 0
M  V30 925 H 95.2703 -6.7873 1.61157 0
M  V30 926 H 91.1673 -6.44089 0.426512 0
M  V30 927 H 91.9353 -7.98029 1.81913 0
M  V30 928 N 94.5984 0.214957 -1.56127 0
M  V30 929 C 95.8444 0.935325 -1.80619 0
M  V30 930 C 96.1994 1.81706 -0.632507 0
M  V30 931 O 95.4924 1.87931 0.373182 0
M  V30 932 C 95.6864 1.80314 -3.0858 0
M  V30 933 C 95.5154 1.00691 -4.38282 0
M  V30 934 C 94.2854 0.699211 -5.00439 0
M  V30 935 C 96.4834 0.369057 -5.12974 0
M  V30 936 N 94.4654 -0.117734 -6.13787 0
M  V30 937 C 95.8364 -0.310981 -6.1922 0
M  V30 938 C 97.8914 0.282759 -4.97096 0
M  V30 939 C 96.5944 -1.06907 -7.11311 0
M  V30 940 C 98.6204 -0.461881 -5.89594 0
M  V30 941 C 97.9824 -1.13044 -6.9527 0
M  V30 942 H 94.0814 0.322307 -0.71249 0
M  V30 943 H 96.6654 0.205649 -1.93611 0
M  V30 944 H 94.8364 2.50458 -2.96859 0
M  V30 945 H 96.5684 2.46148 -3.21237 0
M  V30 946 H 93.3234 1.01884 -4.62511 0
M  V30 947 H 93.7474 -0.515235 -6.75037 0
M  V30 948 H 98.3894 0.785292 -4.15443 0
M  V30 949 H 96.1074 -1.5831 -7.92442 0
M  V30 950 H 99.6934 -0.529746 -5.79383 0
M  V30 951 H 98.5734 -1.69742 -7.65609 0
M  V30 952 N 96.0765 1.50051 0.48192 0
M  V30 953 C 97.4925 1.37237 0.814756 0
M  V30 954 C 97.6925 0.420109 1.97072 0
M  V30 955 O 96.7485 -0.141246 2.52105 0
M  V30 956 C 98.0615 2.78375 1.13701 0
M  V30 957 C 99.6095 2.87213 1.2441 0
M  V30 958 C 100.084 4.29161 1.59954 0
M  V30 959 N 101.575 4.32061 1.66967 0
M  V30 960 C 102.31 5.38879 1.95952 0
M  V30 961 N 101.806 6.55918 2.23031 0
M  V30 962 N 103.599 5.26312 1.97363 0
M  V30 963 H 95.7505 2.10546 -0.28005 0
M  V30 964 H 98.0135 0.945921 -0.0627454 0
M  V30 965 H 97.7195 3.49845 0.360787 0
M  V30 966 H 97.5935 3.14941 2.07586 0
M  V30 967 H 99.9805 2.15969 2.01101 0
M  V30 968 H 100.061 2.54204 0.285299 0
M  V30 969 H 99.7055 5.00938 0.838067 0
M  V30 970 H 99.6355 4.59648 2.56966 0
M  V30 971 H 102.126 3.47661 1.48123 0
M  V30 972 H 102.439 7.33139 2.44391 0
M  V30 973 H 100.784 6.59112 2.20447 0
M  V30 974 H 103.975 4.33876 1.75697 0
M  V30 975 H 104.148 6.09649 2.19618 0
M  V30 976 N 97.5546 -0.734337 1.39446 0
M  V30 977 C 98.7826 -1.52358 1.39981 0
M  V30 978 C 99.1976 -1.88799 -0.0054975 0
M  V30 979 O 98.5546 -1.54146 -0.976998 0
M  V30 980 C 98.6056 -2.81072 2.27333 0
M  V30 981 O 98.3266 -2.46178 3.62392 0
M  V30 982 C 99.8276 -3.75096 2.36259 0
M  V30 983 H 97.0476 -0.470806 0.478103 0
M  V30 984 H 99.5916 -0.907339 1.83269 0
M  V30 985 H 97.7466 -3.39026 1.87457 0
M  V30 986 H 98.1606 -3.28866 4.08592 0
M  V30 987 H 99.6346 -4.62305 3.01626 0
M  V30 988 H 100.112 -4.16892 1.38194 0
M  V30 989 H 100.718 -3.23061 2.76608 0
M  V30 990 N 99.0327 -1.24633 -0.964593 0
M  V30 991 C 99.9627 -1.06611 -2.07741 0
M  V30 992 C 100.944 0.0218666 -1.70086 0
M  V30 993 O 102.129 -0.145793 -1.93652 0
M  V30 994 C 99.2587 -0.673444 -3.40708 0
M  V30 995 C 98.2127 -1.71054 -3.92332 0
M  V30 996 C 97.5387 -1.17285 -5.21678 0
M  V30 997 C 98.8387 -3.10718 -4.19824 0
M  V30 998 H 100.533 -1.99693 -2.23076 0
M  V30 999 H 98.0787 -0.96152 -1.07195 0
M  V30 1000 H 100.032 -0.534345 -4.17998 0
M  V30 1001 H 98.7557 0.293073 -3.25282 0
M  V30 1002 H 97.4147 -1.83791 -3.17201 0
M  V30 1003 H 97.0627 -0.196847 -5.02615 0
M  V30 1004 H 96.7627 -1.86592 -5.57187 0
M  V30 1005 H 98.2867 -1.04593 -6.01575 0
M  V30 1006 H 99.7007 -3.01192 -4.87808 0
M  V30 1007 H 98.0977 -3.77406 -4.66567 0
M  V30 1008 H 99.1677 -3.58524 -3.26479 0
M  V30 1009 N 100.511 1.16574 -1.06058 0
M  V30 1010 C 101.758 1.87047 -0.775873 0
M  V30 1011 C 102.086 1.81562 0.697534 0
M  V30 1012 O 101.341 1.22445 1.52662 0
M  V30 1013 C 101.64 3.36195 -1.21275 0
M  V30 1014 C 101.306 3.6188 -2.68986 0
M  V30 1015 C 99.9678 3.68599 -3.09335 0
M  V30 1016 C 102.32 3.72648 -3.64394 0
M  V30 1017 C 99.6478 3.83584 -4.43937 0
M  V30 1018 C 102 3.89154 -4.98741 0
M  V30 1019 C 100.664 3.94114 -5.3873 0
M  V30 1020 H 99.9338 0.684452 -0.283912 0
M  V30 1021 H 102.581 1.37853 -1.32925 0
M  V30 1022 H 100.886 3.87505 -0.578528 0
M  V30 1023 H 102.583 3.89103 -0.969542 0
M  V30 1024 H 99.1728 3.57281 -2.36744 0
M  V30 1025 H 103.357 3.66769 -3.34356 0
M  V30 1026 H 98.6128 3.85677 -4.74409 0
M  V30 1027 H 102.787 3.96427 -5.72554 0
M  V30 1028 H 100.414 4.05478 -6.43033 0
M  V30 1029 N 101.989 0.842826 1.3317 0
M  V30 1030 C 102.899 0.281444 2.32906 0
M  V30 1031 C 103.915 -0.594587 1.63526 0
M  V30 1032 O 105.091 -0.49777 1.95152 0
M  V30 1033 C 102.156 -0.530929 3.42611 0
M  V30 1034 C 101.217 0.369843 4.27704 0
M  V30 1035 C 100.45 -0.403853 5.3217 0
M  V30 1036 O 100.673 -1.63513 5.46461 0
M  V30 1037 O 99.6069 0.224199 6.01482 0
M  V30 1038 H 103.433 1.10744 2.82789 0
M  V30 1039 H 101.018 0.60545 1.36582 0
M  V30 1040 H 102.9 -0.992437 4.09547 0
M  V30 1041 H 101.575 -1.33392 2.94938 0
M  V30 1042 H 100.482 0.879275 3.6362 0
M  V30 1043 H 101.815 1.13771 4.78871 0
M  V30 1044 N 103.467 -1.45747 0.599634 0
M  V30 1045 C 104.695 -2.06668 0.0978551 0
M  V30 1046 C 105.11 -1.44562 -1.21439 0
M  V30 1047 O 104.467 -0.556923 -1.73795 0
M  V30 1048 C 104.518 -3.61456 -0.0567044 0
M  V30 1049 O 104.239 -4.21242 1.20361 0
M  V30 1050 C 105.74 -4.39345 -0.590869 0
M  V30 1051 H 102.96 -0.667825 0.0651943 0
M  V30 1052 H 105.504 -1.87115 0.82511 0
M  V30 1053 H 103.659 -3.80378 -0.734251 0
M  V30 1054 H 104.073 -5.14323 1.02821 0
M  V30 1055 H 105.547 -5.48182 -0.648131 0
M  V30 1056 H 106.024 -4.08568 -1.61147 0
M  V30 1057 H 106.63 -4.25268 0.0523679 0
M  V30 1058 N 104.945 -0.338344 -1.53925 0
M  V30 1059 C 106.222 0.314774 -1.93051 0
M  V30 1060 C 106.602 1.68669 -1.26941 0
M  V30 1061 O 105.95 2.24636 -0.418445 0
M  V30 1062 C 106.16 0.392249 -3.46789 0
M  V30 1063 C 107.508 0.645554 -4.19664 0
M  V30 1064 O 108.532 0.474575 -3.53024 0
M  V30 1065 O 107.391 0.976408 -5.37707 0
M  V30 1066 H 104.485 0.182598 -0.80659 0
M  V30 1067 H 107.031 -0.389141 -1.65178 0
M  V30 1068 H 105.803 -0.570702 -3.87116 0
M  V30 1069 H 105.426 1.14316 -3.80812 0
M  V30 1070 N 106.423 1.57458 -0.0668435 0
M  V30 1071 C 107.669 1.93587 0.6043 0
M  V30 1072 C 108.002 0.946722 1.69561 0
M  V30 1073 O 107.277 -0.0248516 1.94484 0
M  V30 1074 C 107.56 3.40014 1.18585 0
M  V30 1075 C 107.413 4.49685 0.101529 0
M  V30 1076 C 108.732 3.87154 2.09284 0
M  V30 1077 H 105.851 0.703958 0.218202 0
M  V30 1078 H 108.493 1.89542 -0.131804 0
M  V30 1079 H 106.643 3.43592 1.81319 0
M  V30 1080 H 108.315 4.5823 -0.531279 0
M  V30 1081 H 106.558 4.30059 -0.568487 0
M  V30 1082 H 107.229 5.49266 0.54874 0
M  V30 1083 H 109.705 3.85551 1.56491 0
M  V30 1084 H 108.581 4.90231 2.46911 0
M  V30 1085 H 108.842 3.2481 2.99918 0
M  V30 1086 N 107.901 -0.206675 1.56239 0
M  V30 1087 C 109.15 -0.926964 1.79138 0
M  V30 1088 C 109.463 -1.84901 0.638043 0
M  V30 1089 O 110.669 -2.60906 0.751033 0
M  V30 1090 C 109.125 -1.6986 3.17294 0
M  V30 1091 C 108.733 -0.821956 4.40395 0
M  V30 1092 C 110.477 -2.40922 3.4951 0
M  V30 1093 C 108.384 -1.59179 5.69575 0
M  V30 1094 H 107.314 -0.349864 0.667915 0
M  V30 1095 H 109.965 -0.180487 1.8261 0
M  V30 1096 H 108.347 -2.48853 3.08039 0
M  V30 1097 H 109.521 -0.0715019 4.60745 0
M  V30 1098 H 107.836 -0.222741 4.15804 0
M  V30 1099 H 110.433 -2.99047 4.43255 0
M  V30 1100 H 110.776 -3.14542 2.72707 0
M  V30 1101 H 111.309 -1.68905 3.60161 0
M  V30 1102 H 108.048 -0.898589 6.49312 0
M  V30 1103 H 107.568 -2.31648 5.53262 0
M  V30 1104 H 109.247 -2.14862 6.10281 0
M  V30 1105 N 109.379 -1.50304 -0.473955 0
M  V30 1106 C 110.604 -1.65175 -1.25427 0
M  V30 1107 C 111.029 -0.333673 -1.85117 0
M  V30 1108 O 110.387 0.702114 -1.67153 0
M  V30 1109 C 110.435 -2.74295 -2.34082 0
M  V30 1110 O 109.539 -2.35349 -3.38651 0
M  V30 1111 H 108.88 -0.551944 -0.369126 0
M  V30 1112 H 111.41 -1.96662 -0.564364 0
M  V30 1113 H 111.42 -2.97285 -2.79438 0
M  V30 1114 H 110.095 -3.69959 -1.90008 0
M  V30 1115 H 108.672 -2.22794 -2.99027 0
M  V30 1116 N 110.857 0.726932 -1.39834 0
M  V30 1117 C 112.105 1.4837 -1.37225 0
M  V30 1118 C 112.426 1.94979 0.0284857 0
M  V30 1119 O 111.696 1.69555 0.981213 0
M  V30 1120 H 110.276 0.55043 -0.505011 0
M  V30 1121 H 112.938 0.862468 -1.74778 0
M  V30 1122 H 112.034 2.36198 -2.04003 0
M  V30 1123 N 112.336 1.25143 0.95797 0
M  V30 1124 C 113.585 1.0909 1.69654 0
M  V30 1125 C 113.898 -0.368548 1.92097 0
M  V30 1126 O 115.104 -0.649455 2.63618 0
M  V30 1127 C 113.56 1.90395 3.05414 0
M  V30 1128 C 113.168 3.4081 2.90779 0
M  V30 1129 C 114.912 1.82901 3.83076 0
M  V30 1130 C 112.819 4.14423 4.21909 0
M  V30 1131 H 111.749 0.404625 0.636235 0
M  V30 1132 H 114.4 1.4931 1.06672 0
M  V30 1133 H 112.782 1.42996 3.69281 0
M  V30 1134 H 113.956 3.95859 2.35865 0
M  V30 1135 H 112.271 3.49361 2.26575 0
M  V30 1136 H 114.868 2.35196 4.80195 0
M  V30 1137 H 115.211 0.796224 4.08615 0
M  V30 1138 H 115.744 2.28033 3.25954 0
M  V30 1139 H 112.483 5.18102 4.01561 0
M  V30 1140 H 112.003 3.64159 4.76601 0
M  V30 1141 H 113.682 4.21956 4.90471 0
M  V30 1142 N 113.814 -1.1601 1.06675 0
M  V30 1143 C 115.044 -1.90251 0.805497 0
M  V30 1144 C 115.452 -1.77891 -0.64431 0
M  V30 1145 O 114.795 -1.12383 -1.45313 0
M  V30 1146 C 114.857 -3.41419 1.12576 0
M  V30 1147 C 114.521 -3.77564 2.57477 0
M  V30 1148 C 115.518 -3.79161 3.55715 0
M  V30 1149 C 113.203 -4.08079 2.92877 0
M  V30 1150 C 115.197 -4.10767 4.8739 0
M  V30 1151 C 112.884 -4.39351 4.24751 0
M  V30 1152 C 113.882 -4.40675 5.21818 0
M  V30 1153 O 113.57 -4.71202 6.51325 0
M  V30 1154 H 113.302 -0.610018 0.291297 0
M  V30 1155 H 115.856 -1.47958 1.4247 0
M  V30 1156 H 114.086 -3.84079 0.449503 0
M  V30 1157 H 115.775 -3.9694 0.84814 0
M  V30 1158 H 116.541 -3.55693 3.29708 0
M  V30 1159 H 112.42 -4.06211 2.17976 0
M  V30 1160 H 115.964 -4.11715 5.63148 0
M  V30 1161 H 111.861 -4.62285 4.50514 0
M  V30 1162 H 112.629 -4.88996 6.56373 0
M  V30 1163 N 115.292 -0.849877 -1.32721 0
M  V30 1164 C 116.569 -0.372405 -1.92022 0
M  V30 1165 C 116.949 1.1435 -1.77447 0
M  V30 1166 O 116.297 1.96296 -1.16962 0
M  V30 1167 C 116.507 -0.831482 -3.3895 0
M  V30 1168 C 117.855 -0.845882 -4.16089 0
M  V30 1169 O 118.879 -0.775806 -3.47649 0
M  V30 1170 O 117.738 -0.943753 -5.38289 0
M  V30 1171 H 114.832 -0.107667 -0.819961 0
M  V30 1172 H 117.378 -0.93646 -1.41522 0
M  V30 1173 H 116.15 -1.87448 -3.4348 0
M  V30 1174 H 115.773 -0.24461 -3.96847 0
M  V30 1175 N 116.77 1.45427 -0.607355 0
M  V30 1176 C 117.998 2.06614 -0.108814 0
M  V30 1177 C 118.413 1.45204 1.2067 0
M  V30 1178 O 117.77 0.566132 1.73497 0
M  V30 1179 C 117.821 3.61481 0.0375347 0
M  V30 1180 O 117.542 4.20598 -1.22593 0
M  V30 1181 C 119.043 4.39652 0.567561 0
M  V30 1182 H 116.263 0.66747 -0.0687351 0
M  V30 1183 H 118.807 1.86675 -0.835022 0
M  V30 1184 H 116.962 3.80762 0.714068 0
M  V30 1185 H 117.376 5.1377 -1.05547 0
M  V30 1186 H 118.85 5.48518 0.61905 0
M  V30 1187 H 119.327 4.09417 1.58978 0
M  V30 1188 H 119.933 4.25234 -0.0749202 0
M  V30 1189 N 118.248 0.346503 1.53744 0
M  V30 1190 C 119.18 -0.543316 2.22667 0
M  V30 1191 C 120.193 -1.06159 1.23427 0
M  V30 1192 O 121.382 -0.971235 1.49764 0
M  V30 1193 C 118.482 -1.76076 2.89569 0
M  V30 1194 C 117.655 -1.37727 4.15151 0
M  V30 1195 C 116.714 -2.45471 4.65436 0
M  V30 1196 O 115.74 -2.08655 5.29577 0
M  V30 1197 N 116.942 -3.7677 4.41616 0
M  V30 1198 H 119.707 0.0469703 2.99663 0
M  V30 1199 H 117.268 0.170766 1.60997 0
M  V30 1200 H 119.26 -2.47593 3.20125 0
M  V30 1201 H 117.83 -2.25835 2.16142 0
M  V30 1202 H 117.05 -0.492746 3.91108 0
M  V30 1203 H 118.338 -1.09708 4.96832 0
M  V30 1204 H 117.736 -4.09467 3.90325 0
M  V30 1205 H 116.293 -4.44448 4.7677 0
M  V30 1206 N 119.726 -1.57421 0.075193 0
M  V30 1207 C 120.674 -2.14124 -0.908508 0
M  V30 1208 C 121.668 -1.07898 -1.30592 0
M  V30 1209 O 122.874 -1.26273 -1.28277 0
M  V30 1210 H 119.249 -0.684707 -0.310935 0
M  V30 1211 H 121.22 -2.95634 -0.405374 0
M  V30 1212 C 119.969 -2.72044 -2.16535 0
M  V30 1213 H 119.292 -3.53456 -1.86839 0
M  V30 1214 H 120.732 -3.15311 -2.83469 0
M  V30 1215 C 119.191 -1.66968 -2.92615 0
M  V30 1216 O 119.721 -1.0967 -3.86439 0
M  V30 1217 N 117.927 -1.37923 -2.55784 0
M  V30 1218 H 117.474 -1.84706 -1.79559 0
M  V30 1219 H 117.432 -0.67852 -3.06991 0
M  V30 1220 N 121.204 0.198386 -1.56346 0
M  V30 1221 C 122.62 0.549085 -1.49857 0
M  V30 1222 C 122.82 1.86016 -0.774611 0
M  V30 1223 O 121.876 2.50416 -0.323776 0
M  V30 1224 C 123.189 0.606868 -2.94512 0
M  V30 1225 C 124.737 0.695925 -3.05165 0
M  V30 1226 C 125.212 0.784848 -4.51225 0
M  V30 1227 N 126.703 0.848463 -4.55363 0
M  V30 1228 C 127.438 0.937378 -5.65686 0
M  V30 1229 N 126.934 0.9888 -6.85707 0
M  V30 1230 N 128.727 0.974312 -5.53592 0
M  V30 1231 H 120.878 -0.661655 -2.01831 0
M  V30 1232 H 123.141 -0.235261 -0.918344 0
M  V30 1233 H 122.847 -0.28732 -3.50524 0
M  V30 1234 H 122.721 1.46268 -3.47686 0
M  V30 1235 H 125.108 1.58055 -2.49204 0
M  V30 1236 H 125.189 -0.186022 -2.55123 0
M  V30 1237 H 124.833 -0.0954072 -5.0781 0
M  V30 1238 H 124.763 1.68255 -4.98997 0
M  V30 1239 H 127.254 0.818103 -3.68938 0
M  V30 1240 H 127.567 1.05707 -7.65536 0
M  V30 1241 H 125.912 0.957534 -6.88372 0
M  V30 1242 H 129.103 0.930954 -4.58749 0
M  V30 1243 H 129.276 1.04015 -6.39597 0
M  V30 1244 N 122.682 1.50554 0.465978 0
M  V30 1245 C 123.629 1.6979 1.56333 0
M  V30 1246 C 124.599 0.539239 1.57103 0
M  V30 1247 O 125.784 0.770401 1.74555 0
M  V30 1248 C 122.924 1.80273 2.94271 0
M  V30 1249 C 122.037 3.07674 3.0325 0
M  V30 1250 C 121.172 3.08922 4.32135 0
M  V30 1251 C 120.211 4.30755 4.34875 0
M  V30 1252 N 119.348 4.29714 5.55239 0
M  V30 1253 H 124.188 2.63472 1.39235 0
M  V30 1254 H 121.725 1.30602 0.676873 0
M  V30 1255 H 123.683 1.84332 3.74269 0
M  V30 1256 H 122.313 0.900258 3.09992 0
M  V30 1257 H 121.365 3.13062 2.16094 0
M  V30 1258 H 122.677 3.97642 3.01135 0
M  V30 1259 H 121.831 3.11738 5.20485 0
M  V30 1260 H 120.57 2.16792 4.36866 0
M  V30 1261 H 119.575 4.28146 3.44922 0
M  V30 1262 H 120.8 5.24117 4.31831 0
M  V30 1263 H 118.746 3.4044 5.60746 0
M  V30 1264 H 118.663 5.13456 5.54886 0
M  V30 1265 H 119.931 4.36683 6.457 0
M  V30 1266 N 124.16 -0.719506 1.40217 0
M  V30 1267 C 125.092 -1.84428 1.36084 0
M  V30 1268 C 126.105 -1.60597 0.266913 0
M  V30 1269 O 127.294 -1.70544 0.526983 0
M  V30 1270 C 124.394 -3.20757 1.094 0
M  V30 1271 C 123.567 -3.71817 2.30372 0
M  V30 1272 C 122.626 -4.86748 1.99907 0
M  V30 1273 O 121.652 -4.99603 2.72737 0
M  V30 1274 N 122.854 -5.7226 0.974635 0
M  V30 1275 H 125.619 -1.88473 2.33019 0
M  V30 1276 H 123.18 -0.900885 1.3452 0
M  V30 1277 H 125.172 -3.95235 0.870116 0
M  V30 1278 H 123.742 -3.11884 0.211452 0
M  V30 1279 H 122.962 -2.88514 2.68614 0
M  V30 1280 H 124.25 -4.02666 3.11026 0
M  V30 1281 H 123.648 -5.6448 0.371368 0
M  V30 1282 H 122.205 -6.46739 0.810656 0
M  V30 1283 N 125.638 -1.25649 -0.95132 0
M  V30 1284 C 126.57 -1.02112 -2.05197 0
M  V30 1285 C 127.583 0.0150571 -1.62793 0
M  V30 1286 O 128.772 -0.223874 -1.77091 0
M  V30 1287 C 125.872 -0.522361 -3.3485 0
M  V30 1288 C 125.045 -1.62546 -4.06076 0
M  V30 1289 C 124.104 -1.12649 -5.14001 0
M  V30 1290 O 123.13 -1.82156 -5.39266 0
M  V30 1291 N 124.332 0.03047 -5.80492 0
M  V30 1292 H 127.097 -1.96885 -2.25957 0
M  V30 1293 H 124.658 -1.16899 -1.1201 0
M  V30 1294 H 126.65 -0.172961 -4.0433 0
M  V30 1295 H 125.22 0.33151 -3.10837 0
M  V30 1296 H 124.44 -2.14628 -3.30649 0
M  V30 1297 H 125.728 -2.36644 -4.50419 0
M  V30 1298 H 125.126 0.611169 -5.62389 0
M  V30 1299 H 123.683 0.320875 -6.5101 0
M  V30 1300 N 127.117 1.15442 -1.07289 0
M  V30 1301 C 128.365 1.85845 -0.794096 0
M  V30 1302 C 128.686 1.82692 0.681809 0
M  V30 1303 O 127.956 1.26741 1.49377 0
M  V30 1304 H 126.536 0.688089 -0.290763 0
M  V30 1305 H 129.198 1.39947 -1.3565 0
M  V30 1306 H 128.294 2.91001 -1.12804 0
M  V30 1307 N 128.595 0.856903 1.32268 0
M  V30 1308 C 129.543 0.291987 2.3076 0
M  V30 1309 C 130.537 -0.585857 1.58947 0
M  V30 1310 O 131.743 -0.47341 1.73663 0
M  V30 1311 H 128.118 0.075721 0.748178 0
M  V30 1312 H 130.089 1.13687 2.75895 0
M  V30 1313 C 128.838 -0.502869 3.44044 0
M  V30 1314 H 128.161 0.163328 3.99466 0
M  V30 1315 H 129.601 -0.863691 4.1511 0
M  V30 1316 C 128.06 -1.68898 2.91505 0
M  V30 1317 O 128.59 -2.78811 2.89184 0
M  V30 1318 N 126.796 -1.51679 2.47875 0
M  V30 1319 H 126.343 -0.622666 2.49961 0
M  V30 1320 H 126.301 -2.31184 2.13076 0
M  V30 1321 N 130.073 -1.45103 0.615059 0
M  V30 1322 C 131.003 -2.33339 -0.0865619 0
M  V30 1323 C 131.984 -1.4727 -0.851209 0
M  V30 1324 O 133.169 -1.76026 -0.820281 0
M  V30 1325 C 130.299 -3.30095 -1.07956 0
M  V30 1326 C 129.253 -4.25858 -0.427628 0
M  V30 1327 C 128.579 -5.12361 -1.5294 0
M  V30 1328 C 129.879 -5.18165 0.655944 0
M  V30 1329 H 131.573 -2.92254 0.650224 0
M  V30 1330 H 129.119 -1.40532 0.314138 0
M  V30 1331 H 131.072 -3.90698 -1.57901 0
M  V30 1332 H 129.796 -2.69355 -1.84703 0
M  V30 1333 H 128.455 -3.66564 0.0510292 0
M  V30 1334 H 128.103 -4.47984 -2.28734 0
M  V30 1335 H 127.803 -5.77238 -1.09865 0
M  V30 1336 H 129.327 -5.75833 -2.03098 0
M  V30 1337 H 130.741 -5.72796 0.240257 0
M  V30 1338 H 129.138 -5.91559 1.00888 0
M  V30 1339 H 130.208 -4.60144 1.52957 0
M  V30 1340 N 131.551 -0.354651 -1.53558 0
M  V30 1341 C 132.514 0.484566 -2.24019 0
M  V30 1342 C 133.514 1.01861 -1.24422 0
M  V30 1343 O 134.704 0.906097 -1.4878 0
M  V30 1344 C 131.836 1.67615 -2.96847 0
M  V30 1345 H 133.029 -0.131843 -2.9961 0
M  V30 1346 H 130.582 -0.106165 -1.55939 0
M  V30 1347 H 131.317 2.33095 -2.25471 0
M  V30 1348 H 131.102 1.30029 -3.69912 0
M  V30 1349 H 132.592 2.27114 -3.50441 0
M  V30 1350 N 133.029 1.57378 -0.0835403 0
M  V30 1351 C 134.275 1.94217 0.583733 0
M  V30 1352 C 134.608 0.964653 1.68547 0
M  V30 1353 O 133.883 -0.00422258 1.945 0
M  V30 1354 C 134.166 3.41253 1.14972 0
M  V30 1355 C 134.019 4.49768 0.0538277 0
M  V30 1356 C 135.338 3.89352 2.05166 0
M  V30 1357 H 132.457 0.706233 0.210724 0
M  V30 1358 H 135.099 1.89392 -0.1519 0
M  V30 1359 H 133.249 3.45496 1.77665 0
M  V30 1360 H 134.921 4.57641 -0.579851 0
M  V30 1361 H 133.164 4.29432 -0.614068 0
M  V30 1362 H 133.835 5.49817 0.490452 0
M  V30 1363 H 136.311 3.87189 1.52393 0
M  V30 1364 H 135.187 4.92822 2.41698 0
M  V30 1365 H 135.448 3.27973 2.96456 0
M  V30 1366 N 134.507 -0.190092 1.56449 0
M  V30 1367 C 135.784 -0.935886 1.71757 0
M  V30 1368 C 136.164 -2.01173 0.639726 0
M  V30 1369 O 135.512 -2.25827 -0.348502 0
M  V30 1370 C 135.722 -1.51775 3.1427 0
M  V30 1371 C 137.07 -1.99794 3.74656 0
M  V30 1372 O 138.094 -1.61607 3.1743 0
M  V30 1373 O 136.953 -2.70079 4.751 0
M  V30 1374 H 134.047 -0.439229 0.700719 0
M  V30 1375 H 136.593 -0.179395 1.68749 0
M  V30 1376 H 135.365 -0.742505 3.84191 0
M  V30 1377 H 134.988 -2.33894 3.21527 0
M  V30 1378 N 135.985 -1.50799 -0.457987 0
M  V30 1379 C 137.262 -1.52968 -1.21902 0
M  V30 1380 C 137.642 -0.281906 -2.09209 0
M  V30 1381 O 136.99 0.734076 -2.16388 0
M  V30 1382 C 137.2 -2.8326 -2.03875 0
M  V30 1383 C 138.548 -3.34425 -2.6162 0
M  V30 1384 O 139.572 -2.8467 -2.14106 0
M  V30 1385 O 138.431 -4.21188 -3.48228 0
M  V30 1386 H 135.525 -0.614129 -0.553873 0
M  V30 1387 H 138.071 -1.63098 -0.468739 0
M  V30 1388 H 136.843 -3.65543 -1.39621 0
M  V30 1389 H 136.466 -2.76195 -2.8601 0
M  V30 1390 N 137.463 0.71206 -1.40597 0
M  V30 1391 C 138.426 1.80785 -1.40888 0
M  V30 1392 C 139.426 1.57937 -0.302103 0
M  V30 1393 O 140.616 1.64913 -0.561182 0
M  V30 1394 C 137.748 3.18927 -1.20409 0
M  V30 1395 H 138.941 1.81924 -2.38419 0
M  V30 1396 H 136.494 0.91805 -1.26497 0
M  V30 1397 H 137.229 3.23436 -0.236522 0
M  V30 1398 H 137.014 3.36911 -2.00582 0
M  V30 1399 H 138.504 3.98949 -1.23408 0
M  V30 1400 N 138.941 1.26152 0.944643 0
M  V30 1401 C 139.904 1.07474 2.0244 0
M  V30 1402 C 140.904 0.0242064 1.60782 0
M  V30 1403 O 142.094 0.267302 1.72137 0
M  V30 1404 C 139.226 0.633956 3.34953 0
M  V30 1405 H 140.419 2.03336 2.20442 0
M  V30 1406 H 137.972 1.087 1.12312 0
M  V30 1407 H 138.707 -0.326811 3.22649 0
M  V30 1408 H 138.492 1.39247 3.66542 0
M  V30 1409 H 139.982 0.52501 4.14287 0
M  V30 1410 N 140.419 -1.14872 1.07899 0
M  V30 1411 C 141.349 -2.2193 0.725887 0
M  V30 1412 C 142.33 -1.67622 -0.28927 0
M  V30 1413 O 143.515 -1.93533 -0.160787 0
M  V30 1414 C 140.645 -3.47061 0.128856 0
M  V30 1415 C 139.599 -4.14363 1.07178 0
M  V30 1416 C 138.925 -5.33636 0.337229 0
M  V30 1417 C 140.225 -4.63492 2.40775 0
M  V30 1418 H 141.919 -2.51724 1.62097 0
M  V30 1419 H 139.465 -1.20991 0.780838 0
M  V30 1420 H 141.418 -4.21199 -0.130147 0
M  V30 1421 H 140.142 -3.16617 -0.80134 0
M  V30 1422 H 138.801 -3.42173 1.3158 0
M  V30 1423 H 138.449 -4.99449 -0.596606 0
M  V30 1424 H 138.149 -5.79609 0.965788 0
M  V30 1425 H 139.673 -6.10539 0.0861567 0
M  V30 1426 H 141.087 -5.2913 2.20669 0
M  V30 1427 H 139.484 -5.20148 2.99276 0
M  V30 1428 H 140.554 -3.78834 3.02676 0
M  V30 1429 N 141.898 -0.863906 -1.31812 0
M  V30 1430 C 143.147 -0.46801 -1.96195 0
M  V30 1431 C 143.46 0.983474 -1.69077 0
M  V30 1432 O 144.666 1.48523 -2.27273 0
M  V30 1433 C 143.122 -0.785995 -3.51212 0
M  V30 1434 C 142.73 -2.25383 -3.87178 0
M  V30 1435 C 144.474 -0.458274 -4.22019 0
M  V30 1436 C 142.381 -2.51455 -5.3528 0
M  V30 1437 H 141.311 -0.171283 -0.734287 0
M  V30 1438 H 143.962 -1.05597 -1.50072 0
M  V30 1439 H 142.344 -0.127359 -3.95795 0
M  V30 1440 H 143.518 -2.95502 -3.53575 0
M  V30 1441 H 141.833 -2.54698 -3.2942 0
M  V30 1442 H 144.43 -0.630369 -5.30971 0
M  V30 1443 H 144.773 0.600834 -4.11941 0
M  V30 1444 H 145.306 -1.07319 -3.8305 0
M  V30 1445 H 142.045 -3.56025 -5.50387 0
M  V30 1446 H 141.565 -1.85923 -5.70257 0
M  V30 1447 H 143.244 -2.35874 -6.02472 0
M  V30 1448 N 143.376 1.44774 -0.622745 0
M  V30 1449 C 144.604 2.06487 -0.130722 0
M  V30 1450 C 145.019 1.46476 1.19123 0
M  V30 1451 O 144.376 0.584502 1.72887 0
M  V30 1452 C 144.427 3.615 -0.000807207 0
M  V30 1453 O 144.148 4.19274 -1.27048 0
M  V30 1454 C 145.649 4.40229 0.520898 0
M  V30 1455 H 142.869 0.666704 -0.0758106 0
M  V30 1456 H 145.413 1.85779 -0.854774 0
M  V30 1457 H 143.568 3.81498 0.673643 0
M  V30 1458 H 143.982 5.12622 -1.1099 0
M  V30 1459 H 145.456 5.49144 0.560838 0
M  V30 1460 H 145.933 4.1108 1.54627 0
M  V30 1461 H 146.539 4.25131 -0.120018 0
M  V30 1462 N 144.854 0.36279 1.53368 0
M  V30 1463 C 145.817 -0.472679 2.24273 0
M  V30 1464 C 146.817 -1.012 1.24961 0
M  V30 1465 O 148.007 -0.898194 1.49259 0
M  V30 1466 C 145.139 -1.66039 2.97731 0
M  V30 1467 H 146.332 0.14773 2.99536 0
M  V30 1468 H 143.885 0.114434 1.55881 0
M  V30 1469 H 144.62 -2.31896 2.26704 0
M  V30 1470 H 144.405 -1.28066 3.70596 0
M  V30 1471 H 145.895 -2.25252 3.51641 0
M  V30 1472 N 146.332 -1.57332 0.0918853 0
M  V30 1473 C 147.282 -2.10385 -0.87876 0
M  V30 1474 C 148.266 -1.01814 -1.24591 0
M  V30 1475 O 149.458 -1.28093 -1.22152 0
M  V30 1476 C 146.587 -2.68517 -2.13901 0
M  V30 1477 C 145.673 -3.84126 -1.79744 0
M  V30 1478 N 146.064 -4.92288 -1.1613 0
M  V30 1479 C 144.362 -3.93801 -2.09373 0
M  V30 1480 C 145.063 -5.7295 -1.00513 0
M  V30 1481 N 144.039 -5.21876 -1.5214 0
M  V30 1482 H 147.841 -2.91395 -0.38293 0
M  V30 1483 H 145.355 -1.62017 -0.111423 0
M  V30 1484 H 147.352 -3.04852 -2.84378 0
M  V30 1485 H 146.012 -1.88961 -2.64053 0
M  V30 1486 H 147.023 -5.1123 -0.828504 0
M  V30 1487 H 143.7 -3.25249 -2.61762 0
M  V30 1488 H 145.09 -6.69978 -0.507902 0
M  V30 1489 N 147.81 0.181792 -1.56548 0
M  V30 1490 C 149.04 0.914618 -1.85252 0
M  V30 1491 C 149.448 1.76791 -0.673914 0
M  V30 1492 O 148.791 1.80009 0.366416 0
M  V30 1493 C 148.853 1.85019 -3.08234 0
M  V30 1494 C 148.517 1.17754 -4.41569 0
M  V30 1495 C 149.514 0.548035 -5.17003 0
M  V30 1496 C 147.199 1.17742 -4.88305 0
M  V30 1497 C 149.193 -0.0726128 -6.37359 0
M  V30 1498 C 146.88 0.552946 -6.08593 0
M  V30 1499 C 147.878 -0.070978 -6.82963 0
M  V30 1500 O 147.566 -0.685635 -8.00971 0
M  V30 1501 H 147.298 0.271695 -0.618998 0
M  V30 1502 H 149.852 0.189944 -2.0452 0
M  V30 1503 H 148.082 2.61491 -2.84885 0
M  V30 1504 H 149.771 2.45195 -3.23472 0
M  V30 1505 H 150.537 0.540174 -4.81982 0
M  V30 1506 H 146.416 1.65246 -4.30366 0
M  V30 1507 H 149.96 -0.560213 -6.95347 0
M  V30 1508 H 145.857 0.558354 -6.43081 0
M  V30 1509 H 146.625 -0.58385 -8.16415 0
M  V30 1510 N 149.288 1.51039 0.449983 0
M  V30 1511 C 150.22 1.67617 1.56324 0
M  V30 1512 C 151.233 0.557083 1.52972 0
M  V30 1513 O 152.422 0.830989 1.57977 0
M  V30 1514 C 149.522 1.66402 2.95235 0
M  V30 1515 C 148.695 2.9469 3.23229 0
M  V30 1516 C 147.754 2.85832 4.41799 0
M  V30 1517 O 146.78 3.59785 4.41071 0
M  V30 1518 N 147.982 2.00821 5.44657 0
M  V30 1519 H 150.747 2.63648 1.42512 0
M  V30 1520 H 148.308 1.48767 0.638737 0
M  V30 1521 H 150.3 1.58062 3.72557 0
M  V30 1522 H 148.87 0.780182 3.02708 0
M  V30 1523 H 148.09 3.16996 2.34323 0
M  V30 1524 H 149.378 3.79636 3.38754 0
M  V30 1525 H 148.776 1.40091 5.48079 0
M  V30 1526 H 147.333 1.98368 6.20881 0
M  V30 1527 N 150.766 -0.704594 1.40972 0
M  V30 1528 C 151.991 -1.49858 1.43378 0
M  V30 1529 C 152.416 -1.88061 0.038184 0
M  V30 1530 O 151.774 -1.5402 -0.956425 0
M  V30 1531 C 151.822 -2.74333 2.34038 0
M  V30 1532 O 150.926 -3.7147 1.7912 0
M  V30 1533 H 150.267 -0.45139 0.486974 0
M  V30 1534 H 152.797 -0.866832 1.8533 0
M  V30 1535 H 152.807 -3.22741 2.49604 0
M  V30 1536 H 151.482 -2.45863 3.35446 0
M  V30 1537 H 150.059 -3.30363 1.72958 0
M  V30 1538 N 152.244 -1.26651 -0.937939 0
M  V30 1539 C 153.66 -1.03834 -1.21205 0
M  V30 1540 C 153.86 0.234502 -2.00131 0
M  V30 1541 O 152.916 0.942767 -2.3424 0
M  V30 1542 C 154.229 -2.27167 -1.97017 0
M  V30 1543 C 155.777 -2.32101 -2.09996 0
M  V30 1544 C 156.252 -3.55136 -2.8921 0
M  V30 1545 N 157.743 -3.55632 -2.96783 0
M  V30 1546 C 158.478 -4.475 -3.58512 0
M  V30 1547 N 157.974 -5.4966 -4.21717 0
M  V30 1548 N 159.767 -4.35145 -3.55816 0
M  V30 1549 H 151.918 -2.08398 -0.410391 0
M  V30 1550 H 154.181 -0.916031 -0.244114 0
M  V30 1551 H 153.887 -3.19765 -1.46434 0
M  V30 1552 H 153.761 -2.31672 -2.97671 0
M  V30 1553 H 156.148 -1.40015 -2.59769 0
M  V30 1554 H 156.229 -2.31605 -1.08594 0
M  V30 1555 H 155.873 -4.47553 -2.40123 0
M  V30 1556 H 155.803 -3.5288 -3.90875 0
M  V30 1557 H 158.294 -2.81743 -2.51852 0
M  V30 1558 H 158.607 -6.15943 -4.66727 0
M  V30 1559 H 156.952 -5.53514 -4.20294 0
M  V30 1560 H 160.143 -3.5455 -3.05634 0
M  V30 1561 H 160.316 -5.06934 -4.03636 0
M  V30 1562 N 153.722 1.14298 -1.08507 0
M  V30 1563 C 154.969 1.85359 -0.815373 0
M  V30 1564 C 155.297 1.83001 0.658865 0
M  V30 1565 O 154.552 1.25655 1.50031 0
M  V30 1566 C 154.851 3.33547 -1.28379 0
M  V30 1567 C 154.517 3.56093 -2.76602 0
M  V30 1568 C 153.179 3.61955 -3.17084 0
M  V30 1569 C 155.531 3.64834 -3.72217 0
M  V30 1570 C 152.859 3.74082 -4.51973 0
M  V30 1571 C 155.211 3.78487 -5.06883 0
M  V30 1572 C 153.875 3.82598 -5.46969 0
M  V30 1573 H 153.145 0.678276 -0.298366 0
M  V30 1574 H 155.792 1.35002 -1.35819 0
M  V30 1575 H 154.097 3.86191 -0.660593 0
M  V30 1576 H 155.794 3.86959 -1.05186 0
M  V30 1577 H 152.384 3.52179 -2.4427 0
M  V30 1578 H 156.568 3.59595 -3.42061 0
M  V30 1579 H 151.824 3.75527 -4.82483 0
M  V30 1580 H 155.998 3.84193 -5.80834 0
M  V30 1581 H 153.625 3.91747 -6.51489 0
M  V30 1582 N 155.201 0.870884 1.31352 0
M  V30 1583 C 156.429 0.49677 2.00848 0
M  V30 1584 C 156.844 -0.910998 1.65367 0
M  V30 1585 O 156.201 -1.59696 0.883374 0
M  V30 1586 C 156.252 0.645308 3.55694 0
M  V30 1587 O 155.973 1.99764 3.89905 0
M  V30 1588 C 157.474 0.272326 4.42463 0
M  V30 1589 H 154.694 0.193462 0.642506 0
M  V30 1590 H 157.238 1.1723 1.67563 0
M  V30 1591 H 155.393 0.0173176 3.87396 0
M  V30 1592 H 155.807 2.00607 4.84621 0
M  V30 1593 H 157.281 0.427208 5.50344 0
M  V30 1594 H 157.758 -0.788587 4.32062 0
M  V30 1595 H 158.364 0.876054 4.1618 0
M  V30 1596 N 156.679 -1.44442 0.630414 0
M  V30 1597 C 157.907 -2.06414 0.141671 0
M  V30 1598 C 158.322 -1.47105 -1.18345 0
M  V30 1599 O 157.679 -0.593662 -1.72574 0
M  V30 1600 C 157.73 -3.61494 0.0199784 0
M  V30 1601 O 157.451 -4.18594 1.29269 0
M  V30 1602 C 158.952 -4.40499 -0.497544 0
M  V30 1603 H 156.172 -0.666292 0.0793452 0
M  V30 1604 H 158.716 -1.85323 0.864614 0
M  V30 1605 H 156.871 -3.8185 -0.653402 0
M  V30 1606 H 157.285 -5.12026 1.13707 0
M  V30 1607 H 158.759 -5.49433 -0.531708 0
M  V30 1608 H 159.236 -4.11895 -1.52445 0
M  V30 1609 H 159.842 -4.25061 0.142562 0
M  V30 1610 N 158.157 -0.370918 -1.53173 0
M  V30 1611 C 159.568 0.107139 -1.86392 0
M  V30 1612 C 159.919 1.47714 -1.29132 0
M  V30 1613 O 159.044 2.07464 -0.615439 0
M  V30 1614 C 159.639 0.201187 -3.38202 0
M  V30 1615 C 158.198 0.623507 -3.712 0
M  V30 1616 C 157.345 -0.225978 -2.76378 0
M  V30 1617 H 160.296 -0.58951 -1.47345 0
M  V30 1618 H 160.317 1.02377 -3.66468 0
M  V30 1619 H 159.829 -0.796058 -3.79848 0
M  V30 1620 H 157.93 1.62879 -3.35114 0
M  V30 1621 H 158.043 0.394414 -4.77474 0
M  V30 1622 H 156.407 0.305962 -2.52856 0
M  V30 1623 H 157.19 -1.22086 -3.20858 0
M  V30 1624 N 159.635 1.57281 -0.100228 0
M  V30 1625 C 160.865 1.98591 0.569681 0
M  V30 1626 C 161.273 0.978315 1.61943 0
M  V30 1627 O 160.616 -0.0396108 1.83657 0
M  V30 1628 C 160.678 3.36282 1.271 0
M  V30 1629 C 160.342 4.55488 0.371409 0
M  V30 1630 C 161.339 5.18491 -0.382504 0
M  V30 1631 C 159.024 5.01474 0.287965 0
M  V30 1632 C 161.018 6.25852 -1.20779 0
M  V30 1633 C 158.705 6.08701 -0.540965 0
M  V30 1634 C 159.703 6.70755 -1.28749 0
M  V30 1635 O 159.391 7.75914 -2.10269 0
M  V30 1636 H 159.123 0.65752 0.156982 0
M  V30 1637 H 161.677 2.0463 -0.177734 0
M  V30 1638 H 159.907 3.26941 2.0651 0
M  V30 1639 H 161.596 3.62005 1.83595 0
M  V30 1640 H 162.362 4.83891 -0.3278 0
M  V30 1641 H 158.241 4.52932 0.858689 0
M  V30 1642 H 161.785 6.74218 -1.79096 0
M  V30 1643 H 157.682 6.42732 -0.597131 0
M  V30 1644 H 158.45 7.92925 -2.03007 0
M  V30 1645 N 161.113 -0.173488 1.56642 0
M  V30 1646 C 162.043 -1.2171 1.99271 0
M  V30 1647 C 163.024 -1.46289 0.867959 0
M  V30 1648 O 164.209 -1.5766 1.13388 0
M  V30 1649 C 161.339 -2.55651 2.35074 0
M  V30 1650 C 160.293 -2.45645 3.50489 0
M  V30 1651 C 159.619 -3.84056 3.72028 0
M  V30 1652 C 160.919 -1.96302 4.84007 0
M  V30 1653 H 162.613 -0.86275 2.867 0
M  V30 1654 H 160.159 -0.413571 1.37933 0
M  V30 1655 H 162.112 -3.2886 2.63494 0
M  V30 1656 H 160.836 -2.92869 1.44552 0
M  V30 1657 H 159.495 -1.7489 3.22194 0
M  V30 1658 H 159.143 -4.18664 2.788 0
M  V30 1659 H 158.843 -3.7823 4.49684 0
M  V30 1660 H 160.367 -4.58854 4.02846 0
M  V30 1661 H 161.781 -2.59284 5.11317 0
M  V30 1662 H 160.178 -2.01429 5.65284 0
M  V30 1663 H 161.248 -0.917226 4.76146 0
M  V30 1664 N 162.591 -1.51276 -0.441967 0
M  V30 1665 C 163.84 -1.6295 -1.18871 0
M  V30 1666 C 164.153 -0.349312 -1.92456 0
M  V30 1667 O 165.359 -0.345355 -2.69295 0
M  V30 1668 C 163.815 -2.87759 -2.16155 0
M  V30 1669 C 163.423 -4.22764 -1.48239 0
M  V30 1670 C 165.167 -3.08788 -2.91291 0
M  V30 1671 C 163.074 -5.38728 -2.4398 0
M  V30 1672 H 162.004 -0.606913 -0.447406 0
M  V30 1673 H 164.655 -1.77739 -0.456205 0
M  V30 1674 H 163.037 -2.66593 -2.92821 0
M  V30 1675 H 164.211 -4.54293 -0.771635 0
M  V30 1676 H 162.526 -4.07575 -0.852741 0
M  V30 1677 H 165.123 -3.92599 -3.63002 0
M  V30 1678 H 165.466 -2.21679 -3.5237 0
M  V30 1679 H 165.999 -3.30272 -2.21733 0
M  V30 1680 H 162.738 -6.28082 -1.87598 0
M  V30 1681 H 162.258 -5.1158 -3.13123 0
M  V30 1682 H 163.937 -5.70489 -3.05207 0
M  V30 1683 N 164.069 0.697108 -1.41344 0
M  V30 1684 C 164.999 1.82353 -1.45841 0
M  V30 1685 C 165.98 1.67115 -0.317247 0
M  V30 1686 O 167.165 1.86871 -0.528474 0
M  V30 1687 C 164.295 3.20476 -1.33838 0
M  V30 1688 C 163.249 3.50415 -2.4575 0
M  V30 1689 C 162.575 4.87878 -2.18813 0
M  V30 1690 C 163.875 3.49546 -3.88091 0
M  V30 1691 H 165.569 1.78846 -2.40113 0
M  V30 1692 H 163.115 0.859028 -1.15571 0
M  V30 1693 H 165.068 3.98988 -1.35596 0
M  V30 1694 H 163.792 3.24604 -0.360498 0
M  V30 1695 H 162.451 2.74253 -2.43271 0
M  V30 1696 H 162.099 4.8863 -1.19371 0
M  V30 1697 H 161.799 5.08875 -2.93803 0
M  V30 1698 H 163.323 5.68702 -2.22284 0
M  V30 1699 H 164.737 4.18066 -3.92293 0
M  V30 1700 H 163.134 3.82075 -4.62751 0
M  V30 1701 H 164.204 2.48552 -4.16353 0
M  V30 1702 N 165.547 1.27147 0.931209 0
M  V30 1703 C 166.497 1.06227 2.01742 0
M  V30 1704 C 167.481 -0.00859065 1.60898 0
M  V30 1705 O 168.673 0.209537 1.75755 0
M  V30 1706 C 165.802 0.707787 3.35924 0
M  V30 1707 C 164.888 1.81661 3.83223 0
M  V30 1708 N 165.279 3.05564 4.03069 0
M  V30 1709 C 163.577 1.70249 4.12227 0
M  V30 1710 C 164.278 3.77697 4.42403 0
M  V30 1711 N 163.254 3.0544 4.49675 0
M  V30 1712 H 167.056 2.00261 2.15111 0
M  V30 1713 H 164.57 1.1781 1.11779 0
M  V30 1714 H 166.567 0.539043 4.134 0
M  V30 1715 H 165.227 -0.224964 3.2392 0
M  V30 1716 H 166.238 3.41363 3.89476 0
M  V30 1717 H 162.915 0.840329 4.08956 0
M  V30 1718 H 164.305 4.84168 4.65866 0
M  V30 1719 N 167.025 -1.13721 1.09112 0
M  V30 1720 C 168.302 -1.81155 0.737706 0
M  V30 1721 C 168.682 -1.96253 -0.777683 0
M  V30 1722 O 168.03 -1.52807 -1.69889 0
M  V30 1723 C 168.24 -3.16392 1.47299 0
M  V30 1724 C 169.588 -3.91787 1.63671 0
M  V30 1725 O 170.612 -3.26005 1.43524 0
M  V30 1726 O 169.471 -5.0977 1.96969 0
M  V30 1727 H 166.565 -0.783518 0.26463 0
M  V30 1728 H 169.111 -1.20676 1.19312 0
M  V30 1729 H 167.883 -3.0061 2.50498 0
M  V30 1730 H 167.506 -3.8457 1.00953 0
M  V30 1731 N 168.503 -0.877838 -1.30888 0
M  V30 1732 C 169.453 -0.310872 -2.25871 0
M  V30 1733 C 170.437 0.556596 -1.50966 0
M  V30 1734 O 171.629 0.402187 -1.7237 0
M  V30 1735 C 168.758 0.479821 -3.3993 0
M  V30 1736 C 167.844 -0.401333 -4.22197 0
M  V30 1737 N 168.235 -1.49848 -4.83093 0
M  V30 1738 C 166.533 -0.195167 -4.45573 0
M  V30 1739 C 167.234 -2.0425 -5.44662 0
M  V30 1740 N 166.21 -1.33843 -5.26865 0
M  V30 1741 H 170.012 -1.1493 -2.70496 0
M  V30 1742 H 167.526 -0.726458 -1.45246 0
M  V30 1743 H 169.523 0.902582 -4.07012 0
M  V30 1744 H 168.183 1.31577 -2.96846 0
M  V30 1745 H 169.194 -1.88137 -4.82519 0
M  V30 1746 H 165.871 0.604192 -4.13105 0
M  V30 1747 H 167.261 -2.96345 -6.03017 0
M  V30 1748 N 169.982 1.44106 -0.638065 0
M  V30 1749 C 171.21 2.06336 -0.152615 0
M  V30 1750 C 171.625 1.47731 1.17563 0
M  V30 1751 O 170.982 0.602806 1.72257 0
M  V30 1752 C 171.033 3.61479 -0.0391491 0
M  V30 1753 O 170.754 4.17903 -1.31487 0
M  V30 1754 C 172.255 4.40757 0.474176 0
M  V30 1755 H 169.475 0.665862 -0.0828776 0
M  V30 1756 H 172.019 1.84862 -0.87443 0
M  V30 1757 H 170.174 3.82191 0.633142 0
M  V30 1758 H 170.588 5.11416 -1.16421 0
M  V30 1759 H 172.062 5.49707 0.502562 0
M  V30 1760 H 172.539 4.12697 1.50258 0
M  V30 1761 H 173.145 4.24979 -0.165102 0
M  V30 1762 N 171.46 0.379036 1.52974 0
M  V30 1763 C 172.7 -0.206325 2.03356 0
M  V30 1764 C 173.064 -1.44892 1.25977 0
M  V30 1765 O 174.265 -2.11078 1.66432 0
M  V30 1766 C 172.536 -0.477887 3.54191 0
M  V30 1767 S 174.095 -1.035 4.26419 0
M  V30 1768 H 170.913 -0.0590259 0.708546 0
M  V30 1769 H 173.515 0.525013 1.88319 0
M  V30 1770 H 172.219 0.433745 4.08101 0
M  V30 1771 H 171.75 -1.23793 3.73415 0
M  V30 1772 H 173.765 -2.31821 4.38718 0
M  V30 1773 N 172.938 -1.57226 0.108567 0
M  V30 1774 C 174.166 -1.99179 -0.559954 0
M  V30 1775 C 174.581 -0.988022 -1.60884 0
M  V30 1776 O 173.938 0.0205512 -1.82488 0
M  V30 1777 C 173.989 -3.41159 -1.19552 0
M  V30 1778 O 173.71 -4.37694 -0.188577 0
M  V30 1779 C 175.211 -3.98188 -1.94837 0
M  V30 1780 H 172.431 -0.654228 -0.149088 0
M  V30 1781 H 174.975 -2.03598 0.19183 0
M  V30 1782 H 173.13 -3.37711 -1.89815 0
M  V30 1783 H 173.544 -5.20469 -0.649014 0
M  V30 1784 H 175.018 -4.99644 -2.34648 0
M  V30 1785 H 175.495 -3.3675 -2.81951 0
M  V30 1786 H 176.101 -4.0515 -1.2936 0
M  V30 1787 N 174.416 0.165178 -1.56732 0
M  V30 1788 C 175.346 1.20651 -1.99914 0
M  V30 1789 C 176.327 1.45827 -0.875705 0
M  V30 1790 O 177.512 1.57057 -1.14223 0
M  V30 1791 C 174.642 2.54401 -2.36427 0
M  V30 1792 C 173.596 2.43782 -3.51787 0
M  V30 1793 C 172.922 3.82078 -3.7406 0
M  V30 1794 C 174.222 1.93732 -4.85041 0
M  V30 1795 H 175.916 0.847534 -2.87154 0
M  V30 1796 H 173.462 0.40625 -1.38151 0
M  V30 1797 H 175.415 3.27458 -2.65234 0
M  V30 1798 H 174.139 2.92098 -1.46103 0
M  V30 1799 H 172.798 1.73178 -3.23117 0
M  V30 1800 H 172.446 4.17179 -2.81017 0
M  V30 1801 H 172.146 3.7584 -4.51684 0
M  V30 1802 H 173.67 4.56712 -4.05274 0
M  V30 1803 H 175.084 2.56569 -5.12684 0
M  V30 1804 H 173.481 1.98428 -5.66345 0
M  V30 1805 H 174.551 0.891962 -4.76626 0
M  V30 1806 N 175.894 1.51508 0.433938 0
M  V30 1807 C 177.141 1.64345 1.18309 0
M  V30 1808 C 177.469 0.361315 1.91115 0
M  V30 1809 O 176.724 -0.654753 1.84422 0
M  V30 1810 C 177.023 2.79928 2.22205 0
M  V30 1811 C 176.689 4.19078 1.66387 0
M  V30 1812 C 175.351 4.56932 1.50887 0
M  V30 1813 C 177.703 5.05894 1.25381 0
M  V30 1814 C 175.031 5.79305 0.928608 0
M  V30 1815 C 177.383 6.2885 0.687823 0
M  V30 1816 C 176.047 6.65473 0.519755 0
M  V30 1817 H 175.317 0.601381 0.432923 0
M  V30 1818 H 177.964 1.85549 0.473676 0
M  V30 1819 H 176.269 2.52959 2.99197 0
M  V30 1820 H 177.966 2.87059 2.79997 0
M  V30 1821 H 174.556 3.89234 1.79428 0
M  V30 1822 H 178.74 4.77253 1.36175 0
M  V30 1823 H 173.996 6.06324 0.786186 0
M  V30 1824 H 178.17 6.95461 0.361581 0
M  V30 1825 H 175.797 7.6017 0.0679979 0
M  V30 1826 N 177.372 -0.689602 1.41712 0
M  V30 1827 C 178.62 -1.4468 1.4111 0
M  V30 1828 C 178.941 -1.94986 0.0232196 0
M  V30 1829 O 178.211 -1.72097 -0.935913 0
M  V30 1830 H 176.791 -0.536847 0.519427 0
M  V30 1831 H 179.453 -0.815825 1.77004 0
M  V30 1832 H 178.549 -2.30706 2.10193 0
M  V30 1833 N 178.85 -1.27639 -0.924453 0
M  V30 1834 C 180.098 -1.13941 -1.66918 0
M  V30 1835 C 180.419 0.314589 -1.92446 0
M  V30 1836 O 179.689 1.21964 -1.53303 0
M  V30 1837 H 178.269 -0.418678 -0.618642 0
M  V30 1838 H 180.931 -1.60213 -1.10985 0
M  V30 1839 H 180.027 -1.67094 -2.63602 0
M  V30 1840 N 180.328 1.1314 -1.09713 0
M  V30 1841 C 181.276 2.20717 -0.733934 0
M  V30 1842 C 182.27 1.6729 0.266506 0
M  V30 1843 O 183.476 1.79547 0.127656 0
M  V30 1844 H 179.851 0.719292 -0.21937 0
M  V30 1845 H 181.822 2.48611 -1.6503 0
M  V30 1846 C 180.571 3.47265 -0.173849 0
M  V30 1847 H 179.894 3.88716 -0.934873 0
M  V30 1848 H 181.334 4.23979 0.0423126 0
M  V30 1849 C 179.793 3.18724 1.09164 0
M  V30 1850 O 180.323 3.37762 2.17439 0
M  V30 1851 N 178.529 2.72583 1.00732 0
M  V30 1852 H 178.076 2.57291 0.126121 0
M  V30 1853 H 178.034 2.53862 1.85476 0
M  V30 1854 N 181.806 0.884767 1.30421 0
M  V30 1855 C 183.031 0.517288 2.00845 0
M  V30 1856 C 183.456 -0.886779 1.65885 0
M  V30 1857 O 182.814 -1.58768 0.875354 0
M  V30 1858 C 182.862 0.698994 3.5376 0
M  V30 1859 O 181.966 -0.255208 4.1161 0
M  V30 1860 H 181.307 0.203872 0.631927 0
M  V30 1861 H 183.837 1.19225 1.66272 0
M  V30 1862 H 183.847 0.597912 4.03595 0
M  V30 1863 H 182.522 1.72271 3.78544 0
M  V30 1864 H 181.099 -0.10784 3.72744 0
M  V30 1865 N 183.284 -1.43765 0.645699 0
M  V30 1866 C 184.214 -2.33471 -0.0370477 0
M  V30 1867 C 185.195 -1.49042 -0.819779 0
M  V30 1868 O 186.38 -1.77726 -0.782758 0
M  V30 1869 C 183.51 -3.32311 -1.0093 0
M  V30 1870 C 182.464 -4.2667 -0.337201 0
M  V30 1871 C 181.79 -5.1549 -1.42037 0
M  V30 1872 C 183.09 -5.16657 0.765706 0
M  V30 1873 H 184.784 -2.90809 0.712069 0
M  V30 1874 H 182.33 -1.39834 0.343876 0
M  V30 1875 H 184.283 -3.9396 -1.49578 0
M  V30 1876 H 183.007 -2.73213 -1.78948 0
M  V30 1877 H 181.666 -3.66374 0.128771 0
M  V30 1878 H 181.314 -4.52735 -2.1918 0
M  V30 1879 H 181.014 -5.79438 -0.975966 0
M  V30 1880 H 182.538 -5.80012 -1.90838 0
M  V30 1881 H 183.952 -5.72158 0.361702 0
M  V30 1882 H 182.349 -5.89286 1.13413 0
M  V30 1883 H 183.419 -4.56796 1.62683 0
M  V30 1884 N 184.763 -0.387143 -1.52771 0
M  V30 1885 C 185.695 0.484089 -2.2403 0
M  V30 1886 C 186.708 1.02849 -1.26198 0
M  V30 1887 O 187.897 0.931186 -1.52286 0
M  V30 1888 C 184.997 1.68337 -2.94136 0
M  V30 1889 C 184.17 1.26672 -4.18656 0
M  V30 1890 C 183.229 2.33045 -4.7178 0
M  V30 1891 O 182.255 1.94541 -5.34923 0
M  V30 1892 N 183.457 3.64929 -4.5145 0
M  V30 1893 H 186.222 -0.126404 -2.99433 0
M  V30 1894 H 183.783 -0.213392 -1.60488 0
M  V30 1895 H 185.775 2.39019 -3.26577 0
M  V30 1896 H 184.345 2.20025 -2.22053 0
M  V30 1897 H 183.565 0.388878 -3.92277 0
M  V30 1898 H 184.853 0.964964 -4.99566 0
M  V30 1899 H 184.251 3.98974 -4.01044 0
M  V30 1900 H 182.808 4.31651 -4.88386 0
M  V30 1901 N 186.241 1.57166 -0.116904 0
M  V30 1902 C 187.657 1.5779 0.239693 0
M  V30 1903 C 187.857 1.1295 1.66867 0
M  V30 1904 O 186.913 0.81592 2.38954 0
M  V30 1905 C 188.226 3.00699 0.00828202 0
M  V30 1906 C 189.774 3.12912 0.0743438 0
M  V30 1907 C 190.249 4.57817 -0.129348 0
M  V30 1908 N 191.74 4.63139 -0.075247 0
M  V30 1909 C 192.475 5.73023 -0.207788 0
M  V30 1910 N 191.971 6.91665 -0.396382 0
M  V30 1911 N 193.764 5.61906 -0.14751 0
M  V30 1912 H 185.915 1.84615 -1.05029 0
M  V30 1913 H 188.178 0.85311 -0.41341 0
M  V30 1914 H 187.884 3.37784 -0.979531 0
M  V30 1915 H 187.758 3.69848 0.741077 0
M  V30 1916 H 190.145 2.75686 1.05268 0
M  V30 1917 H 190.226 2.4631 -0.690297 0
M  V30 1918 H 189.87 4.95742 -1.10465 0
M  V30 1919 H 189.8 5.22507 0.655253 0
M  V30 1920 H 192.291 3.7784 0.0670898 0
M  V30 1921 H 192.604 7.71255 -0.488437 0
M  V30 1922 H 190.949 6.93654 -0.432329 0
M  V30 1923 H 194.14 4.681 -0.00115036 0
M  V30 1924 H 194.313 6.47501 -0.254247 0
M  V30 1925 N 187.719 -0.156864 1.56817 0
M  V30 1926 C 188.967 -0.869404 1.82444 0
M  V30 1927 C 189.288 -1.82147 0.69623 0
M  V30 1928 O 188.558 -1.93847 -0.28287 0
M  V30 1929 H 187.138 -0.324043 0.673056 0
M  V30 1930 H 189.8 -0.153224 1.94297 0
M  V30 1931 H 188.896 -1.43761 2.77019 0
M  V30 1932 N 189.197 -1.51736 -0.425897 0
M  V30 1933 C 190.425 -1.68794 -1.1965 0
M  V30 1934 C 190.84 -0.390164 -1.84725 0
M  V30 1935 O 190.197 0.632376 -1.71194 0
M  V30 1936 C 190.248 -2.81174 -2.27208 0
M  V30 1937 O 189.969 -4.05925 -1.64793 0
M  V30 1938 C 191.47 -3.09599 -3.17275 0
M  V30 1939 H 188.69 -0.566128 -0.360194 0
M  V30 1940 H 191.234 -1.98211 -0.503249 0
M  V30 1941 H 189.389 -2.54324 -2.9223 0
M  V30 1942 H 189.803 -4.68423 -2.35967 0
M  V30 1943 H 191.277 -3.91786 -3.88854 0
M  V30 1944 H 191.754 -2.22468 -3.78688 0
M  V30 1945 H 192.36 -3.38151 -2.57941 0
M  V30 1946 N 190.675 0.682077 -1.42076 0
M  V30 1947 C 191.607 1.80755 -1.40926 0
M  V30 1948 C 192.62 1.59833 -0.309398 0
M  V30 1949 O 193.809 1.69087 -0.572014 0
M  V30 1950 C 190.909 3.17744 -1.17865 0
M  V30 1951 C 190.082 3.65578 -2.40149 0
M  V30 1952 C 189.141 4.81277 -2.12742 0
M  V30 1953 O 188.167 4.92197 -2.85887 0
M  V30 1954 N 189.369 5.69474 -1.12602 0
M  V30 1955 H 192.134 1.82229 -2.37935 0
M  V30 1956 H 189.695 0.864903 -1.36861 0
M  V30 1957 H 191.687 3.9279 -0.9746 0
M  V30 1958 H 190.257 3.11214 -0.294068 0
M  V30 1959 H 189.477 2.81291 -2.76169 0
M  V30 1960 H 190.765 3.94278 -3.21593 0
M  V30 1961 H 190.163 5.63297 -0.520899 0
M  V30 1962 H 188.72 6.44363 -0.981842 0
M  V30 1963 N 192.153 1.28127 0.917671 0
M  V30 1964 C 193.564 1.13622 1.48145 0
M  V30 1965 C 193.915 -0.275207 1.9426 0
M  V30 1966 O 193.04 -1.1691 1.82102 0
M  V30 1967 C 193.635 2.05648 2.69248 0
M  V30 1968 C 192.194 1.95219 3.21818 0
M  V30 1969 C 191.341 1.97618 1.94532 0
M  V30 1970 H 194.292 1.40874 0.730772 0
M  V30 1971 H 194.313 1.61818 3.44377 0
M  V30 1972 H 193.825 3.08365 2.35653 0
M  V30 1973 H 191.926 0.955244 3.60147 0
M  V30 1974 H 192.039 2.81976 3.87333 0
M  V30 1975 H 190.403 1.41973 2.11461 0
M  V30 1976 H 191.186 3.02007 1.63238 0
M  V30 1977 N 193.631 -1.12557 1.10312 0
M  V30 1978 C 194.908 -1.80363 0.756878 0
M  V30 1979 C 195.288 -1.97067 -0.756824 0
M  V30 1980 O 194.636 -1.54601 -1.68259 0
M  V30 1981 C 194.846 -3.14812 1.50647 0
M  V30 1982 C 196.194 -3.90029 1.67817 0
M  V30 1983 O 197.218 -3.24464 1.46974 0
M  V30 1984 O 196.077 -5.07652 2.02365 0
M  V30 1985 H 193.171 -0.780667 0.272926 0
M  V30 1986 H 195.717 -1.19404 1.20586 0
M  V30 1987 H 194.489 -2.97936 2.53672 0
M  V30 1988 H 194.112 -3.83478 1.05026 0
M  V30 1989 N 195.109 -0.891671 -1.2995 0
M  V30 1990 C 196.039 -0.379797 -2.30391 0
M  V30 1991 C 197.02 0.540919 -1.6127 0
M  V30 1992 O 198.205 0.453352 -1.88834 0
M  V30 1993 C 195.335 0.400654 -3.44981 0
M  V30 1994 C 194.289 -0.428905 -4.25846 0
M  V30 1995 C 193.615 0.478557 -5.32554 0
M  V30 1996 C 194.915 -1.67458 -4.94727 0
M  V30 1997 H 196.609 -1.21914 -2.73454 0
M  V30 1998 H 194.155 -0.587675 -1.31462 0
M  V30 1999 H 196.108 0.769434 -4.14316 0
M  V30 2000 H 194.832 1.27371 -3.0074 0
M  V30 2001 H 193.491 -0.779911 -3.58208 0
M  V30 2002 H 193.139 1.34951 -4.84559 0
M  V30 2003 H 192.839 -0.0727433 -5.87555 0
M  V30 2004 H 194.363 0.843705 -6.04743 0
M  V30 2005 H 195.777 -1.376 -5.56542 0
M  V30 2006 H 194.174 -2.16659 -5.59624 0
M  V30 2007 H 195.244 -2.41518 -4.20473 0
M  V30 2008 N 196.587 1.43421 -0.653314 0
M  V30 2009 C 197.815 2.06163 -0.174491 0
M  V30 2010 C 198.23 1.48969 1.1599 0
M  V30 2011 O 197.587 0.621042 1.71608 0
M  V30 2012 C 197.638 3.61417 -0.0774865 0
M  V30 2013 O 197.359 4.16485 -1.35912 0
M  V30 2014 C 198.86 4.41235 0.427402 0
M  V30 2015 H 196.08 0.664946 -0.0899353 0
M  V30 2016 H 198.624 1.83924 -0.893988 0
M  V30 2017 H 196.779 3.82841 0.59257 0
M  V30 2018 H 197.193 5.10153 -1.21839 0
M  V30 2019 H 198.667 5.5021 0.44423 0
M  V30 2020 H 199.144 4.14268 1.45873 0
M  V30 2021 H 199.75 4.2478 -0.210167 0
M  V30 2022 N 198.065 0.39524 1.52563 0
M  V30 2023 C 198.995 -0.428384 2.29537 0
M  V30 2024 C 199.976 -1.05831 1.33169 0
M  V30 2025 O 201.161 -1.06995 1.62067 0
M  V30 2026 C 198.291 -1.55274 3.10656 0
M  V30 2027 C 197.245 -1.04855 4.14957 0
M  V30 2028 C 196.571 -2.26543 4.84337 0
M  V30 2029 C 197.871 -0.112324 5.22179 0
M  V30 2030 H 199.565 0.213867 2.98635 0
M  V30 2031 H 197.111 0.104298 1.43622 0
M  V30 2032 H 199.064 -2.1358 3.63265 0
M  V30 2033 H 197.788 -2.22266 2.39302 0
M  V30 2034 H 196.447 -0.487985 3.63338 0
M  V30 2035 H 196.095 -2.92059 4.09525 0
M  V30 2036 H 195.795 -1.93466 5.54837 0
M  V30 2037 H 197.319 -2.85481 5.39753 0
M  V30 2038 H 198.733 -0.603752 5.70112 0
M  V30 2039 H 197.13 0.128968 5.99961 0
M  V30 2040 H 198.2 0.837052 4.77621 0
M  V30 2041 N 199.544 -1.57102 0.125237 0
M  V30 2042 C 200.79 -1.95697 -0.532035 0
M  V30 2043 C 201.123 -1.009 -1.6593 0
M  V30 2044 O 200.398 -0.047347 -1.94442 0
M  V30 2045 C 200.681 -3.44181 -1.05884 0
M  V30 2046 C 200.534 -4.49752 0.0654392 0
M  V30 2047 C 201.853 -3.94655 -1.9477 0
M  V30 2048 H 198.972 -0.711571 -0.191925 0
M  V30 2049 H 201.614 -1.88923 0.20206 0
M  V30 2050 H 199.764 -3.50085 -1.68442 0
M  V30 2051 H 201.436 -4.55943 0.700982 0
M  V30 2052 H 199.679 -4.27653 0.727709 0
M  V30 2053 H 200.35 -5.50924 -0.344505 0
M  V30 2054 H 202.826 -3.91094 -1.42074 0
M  V30 2055 H 201.702 -4.99057 -2.28546 0
M  V30 2056 H 201.963 -3.35718 -2.87656 0
M  V30 2057 N 201.022 0.148545 -1.56898 0
M  V30 2058 C 202.269 0.861418 -1.83264 0
M  V30 2059 C 202.597 1.81239 -0.705883 0
M  V30 2060 O 201.852 1.93305 0.305212 0
M  V30 2061 C 202.151 1.67064 -3.1595 0
M  V30 2062 C 201.817 0.866591 -4.42494 0
M  V30 2063 C 200.479 0.644762 -4.76861 0
M  V30 2064 C 202.831 0.30418 -5.20312 0
M  V30 2065 C 200.159 -0.15021 -5.86508 0
M  V30 2066 C 202.511 -0.477824 -6.30793 0
M  V30 2067 C 201.175 -0.710244 -6.63711 0
M  V30 2068 H 200.445 0.315215 -0.670612 0
M  V30 2069 H 203.092 0.125142 -1.91091 0
M  V30 2070 H 201.397 2.47698 -3.03567 0
M  V30 2071 H 203.094 2.22566 -3.33565 0
M  V30 2072 H 199.684 1.04955 -4.15551 0
M  V30 2073 H 203.868 0.462844 -4.94137 0
M  V30 2074 H 199.124 -0.339796 -6.10455 0
M  V30 2075 H 203.298 -0.92076 -6.90286 0
M  V30 2076 H 200.925 -1.3281 -7.48509 0
M  V30 2077 N 202.5 1.5196 0.417844 0
M  V30 2078 C 203.777 1.56146 1.17803 0
M  V30 2079 C 204.157 0.337275 2.08388 0
M  V30 2080 O 203.505 -0.676447 2.18258 0
M  V30 2081 C 203.715 2.88566 1.96293 0
M  V30 2082 C 205.063 3.41244 2.52662 0
M  V30 2083 O 206.087 2.90247 2.06483 0
M  V30 2084 O 204.946 4.30273 3.36938 0
M  V30 2085 H 202.04 0.628598 0.537395 0
M  V30 2086 H 204.586 1.64283 0.425331 0
M  V30 2087 H 203.358 3.69116 1.2988 0
M  V30 2088 H 202.981 2.83681 2.78587 0
M  V30 2089 N 203.978 -0.674533 1.42435 0
M  V30 2090 C 205.394 -0.98769 1.25367 0
M  V30 2091 C 205.594 -2.00879 0.158044 0
M  V30 2092 O 204.65 -2.48075 -0.470633 0
M  V30 2093 C 205.963 -1.49224 2.6106 0
M  V30 2094 C 207.511 -1.61 2.68417 0
M  V30 2095 C 207.986 -2.14852 4.04478 0
M  V30 2096 N 209.477 -2.22185 4.06434 0
M  V30 2097 C 210.212 -2.64928 5.08528 0
M  V30 2098 N 209.708 -3.07121 6.21006 0
M  V30 2099 N 211.501 -2.64679 4.95885 0
M  V30 2100 H 203.652 0.00152503 2.124 0
M  V30 2101 H 205.915 -0.0618434 0.945981 0
M  V30 2102 H 205.621 -0.816453 3.42092 0
M  V30 2103 H 205.495 -2.47094 2.84999 0
M  V30 2104 H 207.882 -2.27686 1.87732 0
M  V30 2105 H 207.963 -0.616195 2.48267 0
M  V30 2106 H 207.607 -1.48775 4.85622 0
M  V30 2107 H 207.537 -3.15024 4.2198 0
M  V30 2108 H 210.028 -1.92435 3.25234 0
M  V30 2109 H 210.341 -3.38423 6.94759 0
M  V30 2110 H 208.686 -3.04978 6.24511 0
M  V30 2111 H 211.877 -2.31078 4.07088 0
M  V30 2112 H 212.05 -2.9767 5.75584 0
M  V30 2113 N 205.456 -1.28612 -0.910864 0
M  V30 2114 C 206.406 -1.09423 -2.00026 0
M  V30 2115 C 207.39 -0.0170079 -1.60891 0
M  V30 2116 O 208.582 -0.237472 -1.754 0
M  V30 2117 C 205.711 -0.76114 -3.34756 0
M  V30 2118 C 204.797 -1.87735 -3.80285 0
M  V30 2119 N 205.188 -3.11938 -3.98156 0
M  V30 2120 C 203.486 -1.76786 -4.09467 0
M  V30 2121 C 204.187 -3.84687 -4.36338 0
M  V30 2122 N 203.163 -3.12555 -4.44759 0
M  V30 2123 H 206.965 -2.03658 -2.11898 0
M  V30 2124 H 204.479 -1.19573 -1.09891 0
M  V30 2125 H 206.476 -0.604743 -4.12491 0
M  V30 2126 H 205.136 0.173403 -3.24237 0
M  V30 2127 H 206.147 -3.47516 -3.83996 0
M  V30 2128 H 202.824 -0.905284 -4.07567 0
M  V30 2129 H 204.214 -4.91518 -4.58104 0
M  V30 2130 N 206.934 1.1197 -1.10907 0
M  V30 2131 C 208.345 1.65114 -0.871446 0
M  V30 2132 C 208.696 1.86885 0.597353 0
M  V30 2133 O 207.821 1.59896 1.45816 0
M  V30 2134 C 208.416 2.99944 -1.5754 0
M  V30 2135 C 206.975 3.50018 -1.38435 0
M  V30 2136 C 206.122 2.24941 -1.62164 0
M  V30 2137 H 209.073 0.956851 -1.2661 0
M  V30 2138 H 209.094 3.66651 -1.01721 0
M  V30 2139 H 208.606 2.84067 -2.64438 0
M  V30 2140 H 206.707 3.71071 -0.337214 0
M  V30 2141 H 206.82 4.29165 -2.12965 0
M  V30 2142 H 205.184 2.3229 -1.04467 0
M  V30 2143 H 205.967 2.11612 -2.70324 0
M  V30 2144 N 208.412 0.89855 1.29475 0
M  V30 2145 C 209.658 0.524658 1.95896 0
M  V30 2146 C 209.991 -0.926468 1.70676 0
M  V30 2147 O 209.266 -1.65665 1.01908 0
M  V30 2148 C 209.549 0.81633 3.50725 0
M  V30 2149 C 209.402 2.31907 3.85408 0
M  V30 2150 C 210.721 0.302038 4.39062 0
M  V30 2151 H 207.84 0.19209 0.711527 0
M  V30 2152 H 210.482 1.12502 1.53112 0
M  V30 2153 H 208.632 0.305369 3.87298 0
M  V30 2154 H 210.304 2.89949 3.58786 0
M  V30 2155 H 208.547 2.78027 3.32992 0
M  V30 2156 H 209.218 2.47373 4.93468 0
M  V30 2157 H 211.694 0.739551 4.09475 0
M  V30 2158 H 210.57 0.535331 5.46283 0
M  V30 2159 H 210.831 -0.797216 4.34853 0
M  V30 2160 N 209.89 -1.43072 0.660911 0
M  V30 2161 C 210.853 -2.29194 -0.0166406 0
M  V30 2162 C 211.853 -1.42609 -0.742912 0
M  V30 2163 O 213.043 -1.64155 -0.583004 0
M  V30 2164 C 210.175 -3.24831 -1.0343 0
M  V30 2165 H 211.368 -2.90596 0.741208 0
M  V30 2166 H 208.921 -1.5048 0.422532 0
M  V30 2167 H 209.656 -2.68339 -1.82111 0
M  V30 2168 H 209.441 -3.88676 -0.517082 0
M  V30 2169 H 210.931 -3.89451 -1.50723 0
M  V30 2170 N 211.368 -0.403325 -1.52352 0
M  V30 2171 C 212.593 0.176499 -2.06648 0
M  V30 2172 C 213.018 1.38577 -1.27193 0
M  V30 2173 O 212.376 1.7879 -0.300637 0
M  V30 2174 C 212.424 0.511061 -3.5696 0
M  V30 2175 O 211.528 1.60294 -3.79973 0
M  V30 2176 H 210.869 0.0167337 -0.663789 0
M  V30 2177 H 213.399 -0.574848 -1.96359 0
M  V30 2178 H 213.409 0.771362 -4.00642 0
M  V30 2179 H 212.084 -0.37296 -4.14224 0
M  V30 2180 H 210.661 1.33526 -3.48174 0
M  V30 2181 N 212.846 1.57033 -0.133567 0
M  V30 2182 C 214.074 2.00044 0.528195 0
M  V30 2183 C 214.489 1.01349 1.59291 0
M  V30 2184 O 213.846 0.00848369 1.82498 0
M  V30 2185 C 213.897 3.43018 1.1411 0
M  V30 2186 O 213.618 4.37939 0.11892 0
M  V30 2187 C 215.119 4.01237 1.88477 0
M  V30 2188 H 212.339 0.656517 0.138661 0
M  V30 2189 H 214.883 2.03267 -0.224196 0
M  V30 2190 H 213.038 3.40688 1.84418 0
M  V30 2191 H 213.452 5.21436 0.56613 0
M  V30 2192 H 214.926 5.03314 2.26669 0
M  V30 2193 H 215.403 3.41193 2.76558 0
M  V30 2194 H 216.009 4.07156 1.22898 0
M  V30 2195 N 214.325 -0.140222 1.56975 0
M  V30 2196 C 215.571 -0.852949 1.83991 0
M  V30 2197 C 215.904 -1.80512 0.716187 0
M  V30 2198 O 215.179 -1.92479 -0.279681 0
M  V30 2199 C 215.462 -1.6215 3.21527 0
M  V30 2200 C 215.315 -0.690363 4.4447 0
M  V30 2201 C 216.634 -2.58247 3.56366 0
M  V30 2202 H 213.753 -0.308634 0.669264 0
M  V30 2203 H 216.395 -0.117898 1.89634 0
M  V30 2204 H 214.545 -2.24812 3.16847 0
M  V30 2205 H 216.217 -0.0742264 4.6124 0
M  V30 2206 H 214.46 -0.000396433 4.338 0
M  V30 2207 H 215.131 -1.2643 5.37326 0
M  V30 2208 H 217.607 -2.05701 3.61699 0
M  V30 2209 H 216.483 -3.09067 4.53617 0
M  V30 2210 H 216.744 -3.39923 2.82674 0
M  V30 2211 N 215.803 -1.52179 -0.40978 0
M  V30 2212 C 217.043 -1.67882 -1.16597 0
M  V30 2213 C 217.407 -0.399795 -1.87791 0
M  V30 2214 O 218.608 -0.43292 -2.65291 0
M  V30 2215 C 216.879 -2.86662 -2.13448 0
M  V30 2216 S 218.438 -3.22843 -2.97183 0
M  V30 2217 H 215.256 -0.59118 -0.395002 0
M  V30 2218 H 217.858 -1.9017 -0.453373 0
M  V30 2219 H 216.562 -3.77998 -1.59831 0
M  V30 2220 H 216.093 -2.66645 -2.89247 0
M  V30 2221 H 218.108 -2.71415 -4.15389 0
M  V30 2222 N 217.281 0.66697 -1.42791 0
M  V30 2223 C 218.528 1.42699 -1.43678 0
M  V30 2224 C 218.856 1.94419 -0.0560425 0
M  V30 2225 O 218.111 1.7182 0.936831 0
M  V30 2226 C 218.41 2.6349 -2.4147 0
M  V30 2227 C 218.076 2.30267 -3.8767 0
M  V30 2228 C 216.738 2.20918 -4.27491 0
M  V30 2229 C 219.09 2.03435 -4.79858 0
M  V30 2230 C 216.418 1.82873 -5.57471 0
M  V30 2231 C 218.77 1.66892 -6.10188 0
M  V30 2232 C 217.434 1.56058 -6.49001 0
M  V30 2233 H 216.704 0.522171 -0.525755 0
M  V30 2234 H 219.351 0.759785 -1.75783 0
M  V30 2235 H 217.656 3.35279 -2.0272 0
M  V30 2236 H 219.353 3.21684 -2.39417 0
M  V30 2237 H 215.943 2.38449 -3.56146 0
M  V30 2238 H 220.127 2.09586 -4.49875 0
M  V30 2239 H 215.383 1.7306 -5.86396 0
M  V30 2240 H 219.557 1.45157 -6.81104 0
M  V30 2241 H 217.184 1.26348 -7.49627 0
M  V30 2242 N 218.759 1.29093 0.90403 0
M  V30 2243 C 220.17 1.15186 1.46932 0
M  V30 2244 C 220.521 -0.254587 1.94541 0
M  V30 2245 O 219.646 -1.14972 1.83332 0
M  V30 2246 C 220.241 2.08492 2.67051 0
M  V30 2247 C 218.8 1.98621 3.19729 0
M  V30 2248 C 217.947 1.9967 1.92425 0
M  V30 2249 H 220.898 1.41641 0.715789 0
M  V30 2250 H 220.919 1.65461 3.42641 0
M  V30 2251 H 220.431 3.10847 2.3237 0
M  V30 2252 H 218.532 0.993389 3.59114 0
M  V30 2253 H 218.645 2.86068 3.8432 0
M  V30 2254 H 217.009 1.44208 2.09943 0
M  V30 2255 H 217.792 3.03721 1.60026 0
M  V30 2256 N 220.237 -1.11381 1.11499 0
M  V30 2257 C 221.2 -2.15622 0.777153 0
M  V30 2258 C 222.2 -1.59504 -0.203779 0
M  V30 2259 O 223.39 -1.74188 0.020782 0
M  V30 2260 C 220.522 -3.40556 0.153116 0
M  V30 2261 H 221.715 -2.47021 1.70061 0
M  V30 2262 H 219.268 -1.26577 0.916952 0
M  V30 2263 H 220.003 -3.14767 -0.780536 0
M  V30 2264 H 219.788 -3.8257 0.859238 0
M  V30 2265 H 221.278 -4.17546 -0.0671044 0
M  V30 2266 N 221.715 -0.905404 -1.28997 0
M  V30 2267 C 222.678 -0.392253 -2.25819 0
M  V30 2268 C 223.678 0.476753 -1.5357 0
M  V30 2269 O 224.868 0.280994 -1.71919 0
M  V30 2270 C 222 0.438588 -3.38067 0
M  V30 2271 H 223.193 -1.24743 -2.72725 0
M  V30 2272 H 220.746 -0.684051 -1.40536 0
M  V30 2273 H 221.481 1.31352 -2.96508 0
M  V30 2274 H 221.266 -0.184167 -3.91667 0
M  V30 2275 H 222.756 0.78873 -4.10084 0
M  V30 2276 N 223.193 1.4272 -0.668489 0
M  V30 2277 C 224.609 1.55992 -0.33745 0
M  V30 2278 C 224.809 1.64933 1.15756 0
M  V30 2279 O 223.865 1.61278 1.94282 0
M  V30 2280 C 225.178 2.81314 -1.06222 0
M  V30 2281 C 226.726 2.95078 -1.04394 0
M  V30 2282 C 227.201 4.23252 -1.74991 0
M  V30 2283 N 228.692 4.3015 -1.71829 0
M  V30 2284 C 229.427 5.28127 -2.23315 0
M  V30 2285 N 228.923 6.32293 -2.83156 0
M  V30 2286 N 230.716 5.19882 -2.13726 0
M  V30 2287 H 222.867 1.3516 -1.63846 0
M  V30 2288 H 225.13 0.650174 -0.689912 0
M  V30 2289 H 224.836 2.80823 -2.11734 0
M  V30 2290 H 224.71 3.72012 -0.62344 0
M  V30 2291 H 227.097 2.951 0.0028244 0
M  V30 2292 H 227.178 2.05627 -1.52155 0
M  V30 2293 H 226.822 4.2399 -2.79633 0
M  V30 2294 H 226.752 5.11626 -1.24685 0
M  V30 2295 H 229.243 3.55499 -1.28175 0
M  V30 2296 H 229.556 7.03398 -3.20079 0
M  V30 2297 H 227.901 6.32873 -2.87223 0
M  V30 2298 H 231.092 4.37423 -1.66669 0
M  V30 2299 H 231.265 5.96077 -2.54158 0
M  V30 2300 N 224.671 0.411399 1.52136 0
M  V30 2301 C 225.901 -0.16284 2.05957 0
M  V30 2302 C 226.309 -1.3922 1.28119 0
M  V30 2303 O 225.652 -1.80768 0.326881 0
M  V30 2304 C 225.714 -0.575946 3.54856 0
M  V30 2305 C 225.378 0.542998 4.53763 0
M  V30 2306 C 226.375 1.40726 5.00492 0
M  V30 2307 C 224.06 0.716337 4.97166 0
M  V30 2308 C 226.054 2.4298 5.8927 0
M  V30 2309 C 223.741 1.74218 5.8574 0
M  V30 2310 C 224.739 2.59731 6.31687 0
M  V30 2311 O 224.427 3.60558 7.18507 0
M  V30 2312 H 224.159 -0.0229125 0.675612 0
M  V30 2313 H 226.713 0.581634 1.96993 0
M  V30 2314 H 224.943 -1.37274 3.61515 0
M  V30 2315 H 226.632 -1.07836 3.91313 0
M  V30 2316 H 227.398 1.28476 4.67674 0
M  V30 2317 H 223.277 0.0603857 4.6096 0
M  V30 2318 H 226.821 3.0976 6.25055 0
M  V30 2319 H 222.718 1.86498 6.17971 0
M  V30 2320 H 223.486 3.56829 7.36624 0
M  V30 2321 N 226.149 -1.5696 0.141893 0
M  V30 2322 C 227.079 -2.19516 -0.795936 0
M  V30 2323 C 228.06 -1.14187 -1.26077 0
M  V30 2324 O 229.245 -1.42511 -1.31925 0
M  V30 2325 C 226.375 -2.81272 -2.03723 0
M  V30 2326 C 225.329 -3.92384 -1.70936 0
M  V30 2327 C 224.655 -4.41052 -3.02287 0
M  V30 2328 C 225.955 -5.13403 -0.959954 0
M  V30 2329 H 227.649 -2.98138 -0.274596 0
M  V30 2330 H 225.195 -1.43406 -0.130636 0
M  V30 2331 H 227.148 -3.237 -2.69808 0
M  V30 2332 H 225.872 -1.99973 -2.58221 0
M  V30 2333 H 224.531 -3.50566 -1.07232 0
M  V30 2334 H 224.179 -3.56582 -3.54765 0
M  V30 2335 H 223.879 -5.15993 -2.81114 0
M  V30 2336 H 225.403 -4.86146 -3.69451 0
M  V30 2337 H 226.817 -5.52706 -1.52279 0
M  V30 2338 H 225.214 -5.94073 -0.848357 0
M  V30 2339 H 226.284 -4.84875 0.0492434 0
M  V30 2340 N 227.627 0.131896 -1.57047 0
M  V30 2341 C 228.557 1.16384 -2.02428 0
M  V30 2342 C 229.538 1.43936 -0.90644 0
M  V30 2343 O 230.723 1.54599 -1.17528 0
M  V30 2344 C 227.853 2.49328 -2.4177 0
M  V30 2345 C 226.807 2.36266 -3.56879 0
M  V30 2346 C 226.133 3.74057 -3.8208 0
M  V30 2347 C 227.433 1.834 -4.89042 0
M  V30 2348 H 229.127 0.786433 -2.88887 0
M  V30 2349 H 226.673 0.376855 -1.38981 0
M  V30 2350 H 228.626 3.21759 -2.7212 0
M  V30 2351 H 227.35 2.88934 -1.52266 0
M  V30 2352 H 226.009 1.66286 -3.26718 0
M  V30 2353 H 225.657 4.11125 -2.89803 0
M  V30 2354 H 225.357 3.66174 -4.59554 0
M  V30 2355 H 226.881 4.48012 -4.1487 0
M  V30 2356 H 228.295 2.45636 -5.18011 0
M  V30 2357 H 226.692 1.8637 -5.70426 0
M  V30 2358 H 227.762 0.790662 -4.7841 0
M  V30 2359 N 229.106 1.52395 0.401703 0
M  V30 2360 C 230.354 1.66488 1.14569 0
M  V30 2361 C 230.675 0.400897 1.90835 0
M  V30 2362 O 229.945 -0.584415 1.8698 0
M  V30 2363 H 228.525 0.613672 0.425929 0
M  V30 2364 H 231.187 1.89464 0.457093 0
M  V30 2365 H 230.283 2.50942 1.85566 0
M  V30 2366 N 230.584 -0.659388 1.43143 0
M  V30 2367 C 231.861 -1.41627 1.34912 0
M  V30 2368 C 232.241 -2.11099 -0.00607785 0
M  V30 2369 O 231.589 -2.04353 -1.02236 0
M  V30 2370 C 231.799 -2.40604 2.52805 0
M  V30 2371 C 233.147 -3.04789 2.95616 0
M  V30 2372 O 234.171 -2.50932 2.52807 0
M  V30 2373 O 233.03 -4.02421 3.69756 0
M  V30 2374 H 230.124 -0.63246 0.532844 0
M  V30 2375 H 232.67 -0.686814 1.5518 0
M  V30 2376 H 231.442 -1.88174 3.43083 0
M  V30 2377 H 231.065 -3.21009 2.34604 0
M  V30 2378 N 232.062 -1.29571 -0.897171 0
M  V30 2379 C 232.995 -1.0924 -2.00354 0
M  V30 2380 C 233.973 -0.00354011 -1.626 0
M  V30 2381 O 235.157 -0.15473 -1.87864 0
M  V30 2382 C 232.284 -0.66352 -3.32137 0
M  V30 2383 C 231.33 -1.75146 -3.88878 0
M  V30 2384 S 232.163 -3.35124 -4.17674 0
M  V30 2385 C 233.319 -2.9411 -5.52494 0
M  V30 2386 H 233.552 -2.02907 -2.17292 0
M  V30 2387 H 231.085 -1.13746 -1.04408 0
M  V30 2388 H 233.043 -0.422791 -4.08317 0
M  V30 2389 H 231.704 0.253588 -3.13075 0
M  V30 2390 H 230.897 -1.40337 -4.84068 0
M  V30 2391 H 230.499 -1.94584 -3.19395 0
M  V30 2392 H 232.791 -2.41312 -6.33068 0
M  V30 2393 H 233.734 -3.88161 -5.9223 0
M  V30 2394 H 234.142 -2.32332 -5.14473 0
M  V30 2395 N 233.54 1.10788 -1.12088 0
M  V30 2396 C 234.765 1.87002 -0.896949 0
M  V30 2397 C 235.19 1.79933 0.548261 0
M  V30 2398 O 234.548 1.16662 1.38779 0
M  V30 2399 C 234.596 3.3349 -1.37174 0
M  V30 2400 O 233.7 4.08745 -0.547831 0
M  V30 2401 H 233.041 0.580397 -0.322545 0
M  V30 2402 H 235.571 1.39996 -1.49206 0
M  V30 2403 H 235.581 3.84339 -1.36922 0
M  V30 2404 H 234.256 3.37951 -2.42408 0
M  V30 2405 H 232.833 3.6776 -0.617034 0
M  V30 2406 N 235.018 0.912232 1.28515 0
M  V30 2407 C 235.951 0.343928 2.25593 0
M  V30 2408 C 236.929 -0.550994 1.5298 0
M  V30 2409 O 238.113 -0.494991 1.81885 0
M  V30 2410 C 235.24 -0.508525 3.34861 0
M  V30 2411 C 234.286 0.320808 4.25292 0
M  V30 2412 S 235.119 1.72658 5.06902 0
M  V30 2413 C 236.275 0.881394 6.19663 0
M  V30 2414 H 236.508 1.16674 2.73449 0
M  V30 2415 H 234.041 0.713384 1.36931 0
M  V30 2416 H 235.999 -0.994539 3.9827 0
M  V30 2417 H 234.66 -1.30571 2.85675 0
M  V30 2418 H 233.853 -0.330941 5.02912 0
M  V30 2419 H 233.455 0.74042 3.66598 0
M  V30 2420 H 235.747 0.110359 6.7741 0
M  V30 2421 H 236.69 1.63009 6.89082 0
M  V30 2422 H 237.098 0.430239 5.62858 0
M  V30 2423 N 236.496 -1.42363 0.676048 0
M  V30 2424 C 237.736 -2.03392 0.20273 0
M  V30 2425 C 238.1 -1.52306 -1.16906 0
M  V30 2426 O 239.301 -2.05129 -1.73711 0
M  V30 2427 C 237.572 -3.56614 0.236947 0
M  V30 2428 S 239.131 -4.38489 -0.165186 0
M  V30 2429 H 235.949 -0.70611 0.0832418 0
M  V30 2430 H 238.551 -1.74093 0.88948 0
M  V30 2431 H 237.255 -3.91293 1.23767 0
M  V30 2432 H 236.786 -3.90587 -0.469596 0
M  V30 2433 H 238.801 -4.76093 -1.39822 0
M  V30 2434 N 237.974 -0.419461 -1.51915 0
M  V30 2435 C 238.937 0.389116 -2.25873 0
M  V30 2436 C 239.937 0.964924 -1.28631 0
M  V30 2437 O 241.127 0.842179 -1.52489 0
M  V30 2438 C 238.259 1.54874 -3.03689 0
M  V30 2439 H 239.452 -0.258799 -2.98781 0
M  V30 2440 H 237.005 -0.172209 -1.55348 0
M  V30 2441 H 237.74 2.23323 -2.35154 0
M  V30 2442 H 237.525 1.14223 -3.75094 0
M  V30 2443 H 239.015 2.12046 -3.59759 0
M  V30 2444 N 239.452 1.56882 -0.150215 0
M  V30 2445 C 240.382 2.19935 0.784284 0
M  V30 2446 C 241.363 1.14854 1.25469 0
M  V30 2447 O 242.548 1.43209 1.31168 0
M  V30 2448 C 239.678 2.82349 2.02229 0
M  V30 2449 C 238.632 3.93285 1.68853 0
M  V30 2450 C 237.958 4.42649 2.99944 0
M  V30 2451 C 239.258 5.13904 0.932714 0
M  V30 2452 H 240.952 2.9828 0.258781 0
M  V30 2453 H 238.498 1.43473 0.123029 0
M  V30 2454 H 240.451 3.25126 2.68088 0
M  V30 2455 H 239.175 2.0134 2.57157 0
M  V30 2456 H 237.834 3.5113 1.05371 0
M  V30 2457 H 237.482 3.58458 3.52869 0
M  V30 2458 H 237.182 5.17476 2.78374 0
M  V30 2459 H 238.706 4.88099 3.66868 0
M  V30 2460 H 240.12 5.53506 1.49345 0
M  V30 2461 H 238.517 5.94515 0.81684 0
M  V30 2462 H 239.587 4.84842 -0.0749568 0
M  V30 2463 N 240.93 -0.123565 1.57115 0
M  V30 2464 C 241.863 -1.18202 1.95201 0
M  V30 2465 C 242.841 -1.40349 0.821031 0
M  V30 2466 O 244.025 -1.54578 1.07879 0
M  V30 2467 C 241.152 -2.53671 2.24429 0
M  V30 2468 C 240.198 -2.4798 3.46999 0
M  V30 2469 S 241.031 -1.92389 4.99747 0
M  V30 2470 C 242.187 -3.2954 5.32123 0
M  V30 2471 H 242.42 -0.857212 2.84674 0
M  V30 2472 H 239.953 -0.33014 1.50829 0
M  V30 2473 H 241.911 -3.3162 2.41947 0
M  V30 2474 H 240.572 -2.83332 1.35579 0
M  V30 2475 H 239.765 -3.47758 3.64801 0
M  V30 2476 H 239.367 -1.7815 3.28844 0
M  V30 2477 H 241.659 -4.25736 5.27025 0
M  V30 2478 H 242.602 -3.16569 6.33395 0
M  V30 2479 H 243.01 -3.27758 4.59603 0
M  V30 2480 N 242.408 -1.52605 -0.393616 0
M  V30 2481 C 243.371 -1.76415 -1.46323 0
M  V30 2482 C 244.371 -0.634126 -1.47768 0
M  V30 2483 O 245.561 -0.902142 -1.4902 0
M  V30 2484 C 242.693 -1.8607 -2.85641 0
M  V30 2485 H 243.886 -2.71916 -1.26498 0
M  V30 2486 H 241.439 -1.43257 -0.625073 0
M  V30 2487 H 242.174 -0.925378 -3.10817 0
M  V30 2488 H 241.959 -2.68235 -2.85993 0
M  V30 2489 H 243.449 -2.06179 -3.63153 0
M  V30 2490 N 243.887 0.651787 -1.4349 0
M  V30 2491 C 244.82 1.77668 -1.43211 0
M  V30 2492 C 245.798 1.59931 -0.29338 0
M  V30 2493 O 246.982 1.82095 -0.487191 0
M  V30 2494 C 244.109 3.14986 -1.24505 0
M  V30 2495 C 243.155 3.51421 -2.41673 0
M  V30 2496 S 243.988 3.51234 -4.04222 0
M  V30 2497 C 245.144 4.91206 -3.87902 0
M  V30 2498 H 245.377 1.77635 -2.38397 0
M  V30 2499 H 242.91 0.824558 -1.30539 0
M  V30 2500 H 244.868 3.94237 -1.144 0
M  V30 2501 H 243.529 3.1258 -0.308651 0
M  V30 2502 H 242.722 4.51291 -2.24393 0
M  V30 2503 H 242.324 2.79585 -2.48411 0
M  V30 2504 H 244.616 5.79902 -3.50315 0
M  V30 2505 H 245.559 5.13537 -4.8753 0
M  V30 2506 H 245.967 4.64808 -3.20334 0
M  V30 2507 N 245.365 1.30045 0.890287 0
M  V30 2508 C 246.611 1.18737 1.64406 0
M  V30 2509 C 246.944 -0.258525 1.92472 0
M  V30 2510 O 246.219 -1.18562 1.54186 0
M  V30 2511 C 246.502 2.01087 2.98724 0
M  V30 2512 C 246.355 3.53867 2.77665 0
M  V30 2513 C 247.674 1.84457 3.9958 0
M  V30 2514 H 244.793 0.432698 0.596608 0
M  V30 2515 H 247.435 1.5962 1.0306 0
M  V30 2516 H 245.585 1.66349 3.51084 0
M  V30 2517 H 247.257 3.98637 2.32133 0
M  V30 2518 H 245.5 3.78318 2.12269 0
M  V30 2519 H 246.171 4.06772 3.7315 0
M  V30 2520 H 248.647 2.14817 3.56361 0
M  V30 2521 H 247.523 2.44411 4.91482 0
M  V30 2522 H 247.784 0.802276 4.3476 0
M  V30 2523 N 246.843 -1.10192 1.12674 0
M  V30 2524 C 247.806 -2.14786 0.799979 0
M  V30 2525 C 248.806 -1.59711 -0.18685 0
M  V30 2526 O 249.996 -1.74156 0.0392558 0
M  V30 2527 C 247.128 -3.40374 0.189228 0
M  V30 2528 H 248.321 -2.45203 1.72671 0
M  V30 2529 H 245.874 -1.25597 0.930326 0
M  V30 2530 H 246.609 -3.15577 -0.747107 0
M  V30 2531 H 246.394 -3.81637 0.899766 0
M  V30 2532 H 247.884 -4.17594 -0.0228143 0
M  V30 2533 N 248.321 -0.919034 -1.28029 0
M  V30 2534 C 249.549 -0.570971 -1.98866 0
M  V30 2535 C 249.964 0.848996 -1.68634 0
M  V30 2536 O 249.321 1.56307 -0.942036 0
M  V30 2537 C 249.372 -0.776876 -3.53054 0
M  V30 2538 O 249.093 -2.14097 -3.82222 0
M  V30 2539 C 250.594 -0.436356 -4.41147 0
M  V30 2540 H 247.814 -0.217175 -0.634883 0
M  V30 2541 H 250.358 -1.23368 -1.63097 0
M  V30 2542 H 248.513 -0.161085 -3.87065 0
M  V30 2543 H 248.927 -2.18455 -4.76841 0
M  V30 2544 H 250.401 -0.63117 -5.4838 0
M  V30 2545 H 250.878 0.627686 -4.34692 0
M  V30 2546 H 251.484 -1.02991 -4.12641 0
M  V30 2547 N 249.799 1.42003 -0.683588 0
M  V30 2548 C 250.729 2.33487 -0.024866 0
M  V30 2549 C 251.71 1.51163 0.779975 0
M  V30 2550 O 252.895 1.79739 0.735362 0
M  V30 2551 C 250.025 3.3487 0.920836 0
M  V30 2552 C 248.979 4.27414 0.223958 0
M  V30 2553 C 248.305 5.19074 1.2832 0
M  V30 2554 C 249.605 5.14445 -0.90242 0
M  V30 2555 H 251.299 2.88819 -0.788921 0
M  V30 2556 H 248.845 1.38873 -0.38083 0
M  V30 2557 H 250.798 3.97787 1.39081 0
M  V30 2558 H 249.522 2.77861 1.71642 0
M  V30 2559 H 248.181 3.65904 -0.225864 0
M  V30 2560 H 247.829 4.58387 2.071 0
M  V30 2561 H 247.529 5.81822 0.821995 0
M  V30 2562 H 249.053 5.84867 1.75392 0
M  V30 2563 H 250.467 5.70998 -0.513272 0
M  V30 2564 H 248.864 5.86072 -1.28997 0
M  V30 2565 H 249.934 4.52322 -1.74737 0
M  V30 2566 N 251.277 0.427512 1.51691 0
M  V30 2567 C 252.688 -0.0378867 1.86662 0
M  V30 2568 C 253.039 -1.42819 1.34525 0
M  V30 2569 O 252.164 -2.05037 0.692014 0
M  V30 2570 C 252.759 -0.0755266 3.38716 0
M  V30 2571 C 251.318 -0.485309 3.73258 0
M  V30 2572 C 250.465 0.328399 2.75349 0
M  V30 2573 H 253.416 0.64379 1.45055 0
M  V30 2574 H 253.437 -0.887056 3.70016 0
M  V30 2575 H 252.949 0.936487 3.76632 0
M  V30 2576 H 251.05 -1.50329 3.40928 0
M  V30 2577 H 251.163 -0.21693 4.78609 0
M  V30 2578 H 249.527 -0.211905 2.53817 0
M  V30 2579 H 250.31 1.3391 3.16106 0
M  V30 2580 N 252.755 -1.56801 0.158532 0
M  V30 2581 C 254.171 -1.5837 -0.197774 0
M  V30 2582 C 254.371 -1.17334 -1.63814 0
M  V30 2583 O 253.427 -0.878988 -2.36707 0
M  V30 2584 C 254.74 -3.00615 0.0714459 0
M  V30 2585 C 256.288 -3.12999 0.00864533 0
M  V30 2586 C 256.763 -4.57313 0.250685 0
M  V30 2587 N 258.254 -4.62777 0.198014 0
M  V30 2588 C 258.989 -5.72271 0.359642 0
M  V30 2589 N 258.485 -6.90371 0.579625 0
M  V30 2590 N 260.278 -5.61318 0.296438 0
M  V30 2591 H 252.429 -1.81765 1.09887 0
M  V30 2592 H 254.692 -0.841849 0.435884 0
M  V30 2593 H 254.398 -3.35068 1.06874 0
M  V30 2594 H 254.272 -3.71683 -0.642757 0
M  V30 2595 H 256.659 -2.7838 -0.979217 0
M  V30 2596 H 256.74 -2.44393 0.755359 0
M  V30 2597 H 256.384 -4.92639 1.2357 0
M  V30 2598 H 256.314 -5.24061 -0.516489 0
M  V30 2599 H 258.805 -3.77885 0.0331115 0
M  V30 2600 H 259.118 -7.69689 0.69275 0
M  V30 2601 H 257.463 -6.92264 0.616087 0
M  V30 2602 H 260.654 -4.67932 0.125258 0
M  V30 2603 H 260.827 -6.46599 0.425831 0
M  V30 2604 N 254.233 0.115231 -1.57178 0
M  V30 2605 C 255.143 1.15994 -2.03918 0
M  V30 2606 C 256.159 1.45103 -0.960268 0
M  V30 2607 O 257.335 1.56144 -1.27204 0
M  V30 2608 C 254.4 2.46568 -2.43732 0
M  V30 2609 C 253.461 2.24822 -3.65723 0
M  V30 2610 C 252.694 3.4917 -4.03629 0
M  V30 2611 O 252.917 4.56623 -3.41835 0
M  V30 2612 O 251.851 3.39949 -4.96708 0
M  V30 2613 H 255.677 0.793019 -2.93164 0
M  V30 2614 H 253.262 0.3263 -1.45793 0
M  V30 2615 H 255.144 3.23492 -2.70057 0
M  V30 2616 H 253.819 2.82726 -1.57631 0
M  V30 2617 H 252.726 1.45744 -3.44542 0
M  V30 2618 H 254.059 1.93566 -4.52541 0
M  V30 2619 N 255.711 1.52812 0.385517 0
M  V30 2620 C 257.122 1.5993 0.963293 0
M  V30 2621 C 257.473 0.454302 1.90868 0
M  V30 2622 O 256.598 -0.422132 2.12243 0
M  V30 2623 C 257.193 2.89871 1.75387 0
M  V30 2624 C 255.752 2.99389 2.28129 0
M  V30 2625 C 254.899 2.55071 1.08783 0
M  V30 2626 H 257.85 1.5784 0.164948 0
M  V30 2627 H 257.871 2.76553 2.61341 0
M  V30 2628 H 257.383 3.73186 1.06554 0
M  V30 2629 H 255.484 2.20619 3.00263 0
M  V30 2630 H 255.597 4.04096 2.57377 0
M  V30 2631 H 253.961 2.09473 1.4489 0
M  V30 2632 H 254.744 3.40785 0.414807 0
M  V30 2633 N 257.189 -0.644168 1.43834 0
M  V30 2634 C 258.121 -1.76955 1.45669 0
M  V30 2635 C 259.134 -1.58956 0.351666 0
M  V30 2636 O 260.323 -1.6751 0.616644 0
M  V30 2637 C 257.423 -3.14507 1.26248 0
M  V30 2638 C 256.596 -3.59083 2.49757 0
M  V30 2639 C 255.655 -4.75467 2.25427 0
M  V30 2640 O 254.681 -4.84444 2.98836 0
M  V30 2641 N 255.883 -5.66289 1.27661 0
M  V30 2642 H 258.648 -1.75856 2.42682 0
M  V30 2643 H 256.209 -0.828312 1.39106 0
M  V30 2644 H 258.201 -3.90067 1.0784 0
M  V30 2645 H 256.771 -3.10325 0.376478 0
M  V30 2646 H 255.991 -2.7387 2.8353 0
M  V30 2647 H 257.279 -3.85613 3.31934 0
M  V30 2648 H 256.677 -5.61718 0.670064 0
M  V30 2649 H 255.234 -6.41533 1.15234 0
M  V30 2650 N 258.668 -1.30515 -0.883378 0
M  V30 2651 C 259.916 -1.19194 -1.63209 0
M  V30 2652 C 260.237 0.253205 -1.93349 0
M  V30 2653 O 259.507 1.17025 -1.57105 0
M  V30 2654 H 258.087 -0.438148 -0.605009 0
M  V30 2655 H 260.749 -1.63663 -1.05832 0
M  V30 2656 H 259.845 -1.75396 -2.58153 0
M  V30 2657 N 260.146 1.09593 -1.13257 0
M  V30 2658 C 261.394 1.81375 -0.891492 0
M  V30 2659 C 261.715 1.86049 0.584009 0
M  V30 2660 O 260.985 1.34481 1.42449 0
M  V30 2661 H 259.565 0.671708 -0.326828 0
M  V30 2662 H 262.227 1.3256 -1.42877 0
M  V30 2663 H 261.323 2.84612 -1.28071 0
M  V30 2664 N 261.624 0.925811 1.2754 0
M  V30 2665 C 262.572 0.413897 2.28888 0
M  V30 2666 C 263.566 -0.500779 1.61829 0
M  V30 2667 O 264.772 -0.38069 1.75928 0
M  V30 2668 H 261.147 0.115274 0.743112 0
M  V30 2669 H 263.118 1.28151 2.69481 0
M  V30 2670 C 261.867 -0.319792 3.46226 0
M  V30 2671 H 261.19 0.374846 3.98039 0
M  V30 2672 H 262.63 -0.642435 4.19105 0
M  V30 2673 C 261.089 -1.53209 3.00048 0
M  V30 2674 O 261.619 -2.6309 3.03557 0
M  V30 2675 N 259.825 -1.38326 2.55566 0
M  V30 2676 H 259.372 -0.489292 2.5291 0
M  V30 2677 H 259.33 -2.19564 2.25031 0
M  V30 2678 N 263.102 -1.41638 0.69111 0
M  V30 2679 C 264.351 -2.00526 0.217318 0
M  V30 2680 C 264.664 -1.55353 -1.18848 0
M  V30 2681 O 265.87 -2.06769 -1.75951 0
M  V30 2682 C 264.326 -3.58313 0.337639 0
M  V30 2683 C 263.934 -4.12469 1.74852 0
M  V30 2684 C 265.678 -4.24431 -0.0766066 0
M  V30 2685 C 263.585 -5.62675 1.82074 0
M  V30 2686 H 262.515 -0.750008 0.0774893 0
M  V30 2687 H 265.166 -1.6217 0.858661 0
M  V30 2688 H 263.548 -3.9425 -0.371879 0
M  V30 2689 H 264.722 -3.8796 2.48644 0
M  V30 2690 H 263.037 -3.58861 2.11205 0
M  V30 2691 H 265.634 -5.34683 -0.0430284 0
M  V30 2692 H 265.977 -4.01101 -1.1146 0
M  V30 2693 H 266.51 -3.93512 0.582476 0
M  V30 2694 H 263.249 -5.90826 2.83911 0
M  V30 2695 H 262.769 -5.89124 1.12661 0
M  V30 2696 H 264.448 -6.27371 1.58159 0
M  V30 2697 N 264.58 -0.43555 -1.51462 0
M  V30 2698 C 265.826 0.131709 -2.02372 0
M  V30 2699 C 266.159 1.42516 -1.3192 0
M  V30 2700 O 265.434 1.89606 -0.433573 0
M  V30 2701 C 265.717 0.352301 -3.58373 0
M  V30 2702 C 265.57 -0.959676 -4.39443 0
M  V30 2703 C 266.889 1.12286 -4.25535 0
M  V30 2704 H 264.008 0.0463936 -0.735538 0
M  V30 2705 H 266.65 -0.574197 -1.81116 0
M  V30 2706 H 264.8 0.9536 -3.76615 0
M  V30 2707 H 266.472 -1.59482 -4.32855 0
M  V30 2708 H 264.715 -1.56468 -4.04599 0
M  V30 2709 H 265.386 -0.759394 -5.46752 0
M  V30 2710 H 267.862 0.613545 -4.11552 0
M  V30 2711 H 266.738 1.24598 -5.34571 0
M  V30 2712 H 266.999 2.15048 -3.86273 0
M  V30 2713 N 266.058 1.56714 -0.166846 0
M  V30 2714 C 267.304 1.97039 0.479962 0
M  V30 2715 C 267.637 1.05264 1.63197 0
M  V30 2716 O 266.912 0.0988833 1.94248 0
M  V30 2717 C 267.195 3.46867 0.967212 0
M  V30 2718 C 267.048 4.49421 -0.18466 0
M  V30 2719 C 268.367 3.9968 1.84238 0
M  V30 2720 H 265.486 0.71641 0.172992 0
M  V30 2721 H 268.128 1.8832 -0.252079 0
M  V30 2722 H 266.278 3.54428 1.59101 0
M  V30 2723 H 267.95 4.53924 -0.821621 0
M  V30 2724 H 266.193 4.25573 -0.840837 0
M  V30 2725 H 266.864 5.51644 0.198317 0
M  V30 2726 H 269.34 3.94723 1.31655 0
M  V30 2727 H 268.216 5.04941 2.15234 0
M  V30 2728 H 268.477 3.43226 2.78654 0
M  V30 2729 N 267.536 -0.106894 1.57237 0
M  V30 2730 C 268.764 -0.826389 1.8968 0
M  V30 2731 C 269.179 -1.72856 0.759353 0
M  V30 2732 O 268.536 -1.80503 -0.269263 0
M  V30 2733 C 268.587 -1.64967 3.21665 0
M  V30 2734 O 268.308 -0.783804 4.31031 0
M  V30 2735 C 269.809 -2.47326 3.67892 0
M  V30 2736 H 267.029 -0.236927 0.627779 0
M  V30 2737 H 269.573 -0.0876593 2.04312 0
M  V30 2738 H 267.728 -2.34103 3.08666 0
M  V30 2739 H 268.142 -1.35284 5.06753 0
M  V30 2740 H 269.616 -3.00604 4.6297 0
M  V30 2741 H 270.093 -3.25247 2.95146 0
M  V30 2742 H 270.699 -1.83411 3.83719 0
M  V30 2743 N 269.014 -1.53014 -0.377408 0
M  V30 2744 C 270.242 -1.72515 -1.14219 0
M  V30 2745 C 270.657 -0.448735 -1.8339 0
M  V30 2746 O 270.014 0.577592 -1.73119 0
M  V30 2747 C 270.065 -2.8826 -2.18148 0
M  V30 2748 O 269.786 -4.10962 -1.51795 0
M  V30 2749 C 271.287 -3.19536 -3.07264 0
M  V30 2750 H 268.507 -0.577301 -0.342001 0
M  V30 2751 H 271.051 -1.99712 -0.439935 0
M  V30 2752 H 269.206 -2.63492 -2.83991 0
M  V30 2753 H 269.62 -4.75693 -2.20945 0
M  V30 2754 H 271.094 -4.03959 -3.76193 0
M  V30 2755 H 271.571 -2.34403 -3.71419 0
M  V30 2756 H 272.177 -3.46186 -2.47053 0
M  V30 2757 N 270.492 0.636531 -1.44174 0
M  V30 2758 C 271.422 1.76003 -1.53444 0
M  V30 2759 C 272.403 1.65619 -0.387841 0
M  V30 2760 O 273.588 1.84461 -0.607257 0
M  V30 2761 C 270.718 3.14511 -1.4731 0
M  V30 2762 C 269.672 3.39677 -2.60391 0
M  V30 2763 C 268.998 4.78159 -2.39308 0
M  V30 2764 C 270.298 3.32772 -4.02567 0
M  V30 2765 H 271.992 1.68501 -2.47483 0
M  V30 2766 H 269.538 0.809237 -1.19111 0
M  V30 2767 H 271.491 3.92878 -1.52397 0
M  V30 2768 H 270.215 3.22783 -0.49785 0
M  V30 2769 H 268.874 2.63688 -2.54684 0
M  V30 2770 H 268.522 4.83128 -1.39988 0
M  V30 2771 H 268.222 4.95956 -3.15122 0
M  V30 2772 H 269.746 5.58762 -2.46205 0
M  V30 2773 H 271.16 4.01051 -4.09672 0
M  V30 2774 H 269.557 3.62104 -4.7854 0
M  V30 2775 H 270.627 2.30669 -4.2652 0
M  V30 2776 N 271.97 1.30982 0.876444 0
M  V30 2777 C 272.918 1.18006 2.00443 0
M  V30 2778 C 273.912 0.0898871 1.69161 0
M  V30 2779 O 275.118 0.251333 1.78237 0
M  V30 2780 H 271.493 0.365196 0.65737 0
M  V30 2781 H 273.464 2.13453 2.0852 0
M  V30 2782 C 272.213 0.897521 3.35916 0
M  V30 2783 H 271.536 1.7285 3.60504 0
M  V30 2784 H 272.976 0.846874 4.15456 0
M  V30 2785 C 271.435 -0.399674 3.34521 0
M  V30 2786 O 271.965 -1.41852 3.7582 0
M  V30 2787 N 270.171 -0.413893 2.87637 0
M  V30 2788 H 269.718 0.41571 2.54224 0
M  V30 2789 H 269.676 -1.28175 2.87086 0
M  V30 2790 N 273.449 -1.08991 1.13837 0
M  V30 2791 C 274.695 -1.81526 0.90422 0
M  V30 2792 C 275.028 -1.85706 -0.568066 0
M  V30 2793 O 274.303 -1.32855 -1.42056 0
M  V30 2794 C 274.586 -3.27447 1.49835 0
M  V30 2795 C 274.439 -3.31512 3.04006 0
M  V30 2796 C 275.758 -4.24256 1.17025 0
M  V30 2797 H 272.877 -0.659029 0.329923 0
M  V30 2798 H 275.519 -1.27644 1.40737 0
M  V30 2799 H 273.669 -3.73462 1.07044 0
M  V30 2800 H 275.341 -2.93867 3.55584 0
M  V30 2801 H 273.584 -2.70963 3.38765 0
M  V30 2802 H 274.255 -4.34329 3.40679 0
M  V30 2803 H 276.731 -3.86549 1.54009 0
M  V30 2804 H 275.607 -5.24684 1.61237 0
M  V30 2805 H 275.868 -4.42019 0.0846274 0
M  V30 2806 N 274.927 -0.932562 -1.27047 0
M  V30 2807 C 275.837 -0.441219 -2.30414 0
M  V30 2808 C 276.853 0.480525 -1.67233 0
M  V30 2809 O 278.029 0.362151 -1.98117 0
M  V30 2810 C 275.094 0.293651 -3.45454 0
M  V30 2811 C 274.155 -0.663601 -4.2414 0
M  V30 2812 C 273.388 0.0362932 -5.33688 0
M  V30 2813 O 273.611 1.2548 -5.56427 0
M  V30 2814 O 272.545 -0.638015 -5.98509 0
M  V30 2815 H 276.371 -1.29962 -2.74488 0
M  V30 2816 H 273.956 -0.6981 -1.32087 0
M  V30 2817 H 275.838 0.707951 -4.15411 0
M  V30 2818 H 274.513 1.12758 -3.03426 0
M  V30 2819 H 273.42 -1.12768 -3.56699 0
M  V30 2820 H 274.753 -1.46489 -4.69896 0
M  V30 2821 N 276.405 1.4127 -0.698611 0
M  V30 2822 C 277.315 2.34573 -0.0357891 0
M  V30 2823 C 278.331 1.56393 0.762701 0
M  V30 2824 O 279.507 1.8886 0.699564 0
M  V30 2825 C 276.572 3.35159 0.887089 0
M  V30 2826 C 275.633 4.29225 0.0804634 0
M  V30 2827 C 274.866 5.25006 0.959387 0
M  V30 2828 O 275.089 5.26314 2.19886 0
M  V30 2829 O 274.023 6.00519 0.407439 0
M  V30 2830 H 277.849 2.92838 -0.804957 0
M  V30 2831 H 275.434 1.42175 -0.458966 0
M  V30 2832 H 277.316 3.9689 1.41621 0
M  V30 2833 H 275.991 2.79333 1.6357 0
M  V30 2834 H 274.898 3.70833 -0.493328 0
M  V30 2835 H 276.231 4.88157 -0.629547 0
M  V30 2836 N 277.883 0.443576 1.51229 0
M  V30 2837 C 278.833 -0.382787 2.24764 0
M  V30 2838 C 279.817 -0.984836 1.27239 0
M  V30 2839 O 281.009 -0.901943 1.52296 0
M  V30 2840 C 278.138 -1.47989 3.09765 0
M  V30 2841 C 277.224 -0.886931 4.14722 0
M  V30 2842 N 277.615 -0.0237103 5.05794 0
M  V30 2843 C 275.913 -1.15385 4.30816 0
M  V30 2844 C 276.614 0.309971 5.80874 0
M  V30 2845 N 275.59 -0.307989 5.42727 0
M  V30 2846 H 279.392 0.282624 2.92538 0
M  V30 2847 H 276.906 0.256027 1.60369 0
M  V30 2848 H 278.903 -2.08482 3.61027 0
M  V30 2849 H 277.563 -2.14758 2.43535 0
M  V30 2850 H 278.574 0.34318 5.16762 0
M  V30 2851 H 275.251 -1.81857 3.75812 0
M  V30 2852 H 276.641 1.01279 6.64223 0
M  V30 2853 N 279.361 -1.56624 0.175154 0
M  V30 2854 C 280.61 -1.96173 -0.468921 0
M  V30 2855 C 280.923 -1.06401 -1.64128 0
M  V30 2856 O 282.129 -1.35648 -2.35185 0
M  V30 2857 C 280.585 -3.48833 -0.885633 0
M  V30 2858 C 280.193 -4.47237 0.261343 0
M  V30 2859 C 281.937 -3.97194 -1.49791 0
M  V30 2860 C 279.844 -5.9114 -0.175214 0
M  V30 2861 H 278.774 -0.732455 -0.178958 0
M  V30 2862 H 281.425 -1.81591 0.263997 0
M  V30 2863 H 279.807 -3.58848 -1.67464 0
M  V30 2864 H 280.981 -4.4894 1.03871 0
M  V30 2865 H 279.296 -4.08956 0.783827 0
M  V30 2866 H 281.893 -5.02167 -1.83665 0
M  V30 2867 H 282.236 -3.40351 -2.39722 0
M  V30 2868 H 282.769 -3.90212 -0.773267 0
M  V30 2869 H 279.508 -6.51865 0.689414 0
M  V30 2870 H 279.028 -5.92735 -0.91786 0
M  V30 2871 H 280.707 -6.44044 -0.617792 0
M  V30 2872 N 280.839 0.0985539 -1.57292 0
M  V30 2873 C 282.255 0.45267 -1.53046 0
M  V30 2874 C 282.455 1.80713 -0.891342 0
M  V30 2875 O 281.511 2.4785 -0.482375 0
M  V30 2876 C 282.824 0.418341 -2.97776 0
M  V30 2877 C 284.372 0.500443 -3.08973 0
M  V30 2878 C 284.847 0.496297 -4.55303 0
M  V30 2879 N 286.338 0.557151 -4.59837 0
M  V30 2880 C 287.073 0.575726 -5.70502 0
M  V30 2881 N 286.569 0.550714 -6.90608 0
M  V30 2882 N 288.362 0.620277 -5.58667 0
M  V30 2883 H 280.513 -0.788673 -1.97215 0
M  V30 2884 H 282.776 -0.293188 -0.901524 0
M  V30 2885 H 282.482 -0.509659 -3.47988 0
M  V30 2886 H 282.356 1.2386 -3.56284 0
M  V30 2887 H 284.743 1.41886 -2.58751 0
M  V30 2888 H 284.824 -0.347894 -2.53423 0
M  V30 2889 H 284.468 -0.418162 -5.06176 0
M  V30 2890 H 284.398 1.3618 -5.08687 0
M  V30 2891 H 286.889 0.581816 -3.73394 0
M  V30 2892 H 287.202 0.568075 -7.70709 0
M  V30 2893 H 285.547 0.517816 -6.93068 0
M  V30 2894 H 288.738 0.637322 -4.63741 0
M  V30 2895 H 288.911 0.631283 -6.44918 0
M  V30 2896 N 282.317 1.53212 0.369288 0
M  V30 2897 C 283.733 1.42902 0.710712 0
M  V30 2898 C 283.933 0.565135 1.93413 0
M  V30 2899 O 282.989 0.0461484 2.52458 0
M  V30 2900 C 284.302 2.86042 0.927382 0
M  V30 2901 C 285.85 2.9565 1.02762 0
M  V30 2902 C 286.325 4.39843 1.27679 0
M  V30 2903 N 287.816 4.43256 1.34457 0
M  V30 2904 C 288.551 5.51929 1.55439 0
M  V30 2905 N 288.047 6.70655 1.73762 0
M  V30 2906 N 289.84 5.39502 1.57779 0
M  V30 2907 H 281.991 2.07888 -0.435457 0
M  V30 2908 H 284.254 0.938661 -0.132739 0
M  V30 2909 H 283.96 3.51557 0.100287 0
M  V30 2910 H 283.834 3.29472 1.83653 0
M  V30 2911 H 286.221 2.30291 1.84527 0
M  V30 2912 H 286.302 2.5562 0.0959504 0
M  V30 2913 H 285.946 5.05774 0.464175 0
M  V30 2914 H 285.876 4.77443 2.22162 0
M  V30 2915 H 288.367 3.5769 1.21926 0
M  V30 2916 H 288.68 7.49248 1.89335 0
M  V30 2917 H 287.025 6.73648 1.70948 0
M  V30 2918 H 290.216 4.45713 1.43029 0
M  V30 2919 H 290.389 6.2426 1.7379 0
M  V30 2920 N 283.795 -0.628877 1.44509 0
M  V30 2921 C 284.725 -1.75187 1.54376 0
M  V30 2922 C 285.706 -1.65411 0.396618 0
M  V30 2923 O 286.891 -1.84137 0.617031 0
M  V30 2924 C 284.021 -3.13725 1.48976 0
M  V30 2925 C 282.975 -3.38291 2.62189 0
M  V30 2926 C 282.301 -4.76883 2.41841 0
M  V30 2927 C 283.601 -3.30632 4.04326 0
M  V30 2928 H 285.295 -1.67187 2.48373 0
M  V30 2929 H 282.841 -0.802909 1.19538 0
M  V30 2930 H 284.794 -3.92064 1.54478 0
M  V30 2931 H 283.518 -3.22515 0.514961 0
M  V30 2932 H 282.177 -2.62334 2.56079 0
M  V30 2933 H 281.825 -4.82378 1.42548 0
M  V30 2934 H 281.525 -4.94278 3.17747 0
M  V30 2935 H 283.049 -5.57449 2.49165 0
M  V30 2936 H 284.463 -3.98873 4.11793 0
M  V30 2937 H 282.86 -3.59561 4.80454 0
M  V30 2938 H 283.93 -2.28404 4.27738 0
M  V30 2939 N 285.273 -1.31445 -0.869486 0
M  V30 2940 C 286.689 -1.10113 -1.15531 0
M  V30 2941 C 286.889 0.128087 -2.01092 0
M  V30 2942 O 285.945 0.817276 -2.38908 0
M  V30 2943 C 287.258 -2.37291 -1.84698 0
M  V30 2944 C 288.806 -2.42906 -1.97397 0
M  V30 2945 C 289.281 -3.69967 -2.69979 0
M  V30 2946 N 290.772 -3.70864 -2.77514 0
M  V30 2947 C 291.507 -4.65875 -3.34287 0
M  V30 2948 N 291.003 -5.71242 -3.91988 0
M  V30 2949 N 292.796 -4.53394 -3.3225 0
M  V30 2950 H 284.947 -2.1028 -0.299347 0
M  V30 2951 H 287.21 -0.927683 -0.195214 0
M  V30 2952 H 286.916 -3.27078 -1.29278 0
M  V30 2953 H 286.79 -2.47125 -2.84972 0
M  V30 2954 H 289.177 -1.53588 -2.51982 0
M  V30 2955 H 289.258 -2.37036 -0.961643 0
M  V30 2956 H 288.902 -4.59652 -2.16062 0
M  V30 2957 H 288.832 -3.73103 -3.7162 0
M  V30 2958 H 291.323 -2.94697 -2.36563 0
M  V30 2959 H 291.636 -6.39817 -4.33421 0
M  V30 2960 H 289.981 -5.75015 -3.90362 0
M  V30 2961 H 293.172 -3.70252 -2.8641 0
M  V30 2962 H 293.345 -5.27617 -3.76197 0
M  V30 2963 N 286.751 1.08385 -1.14413 0
M  V30 2964 C 287.979 1.84517 -0.936001 0
M  V30 2965 C 288.394 1.81626 0.515503 0
M  V30 2966 O 287.751 1.22008 1.35721 0
M  V30 2967 C 287.802 3.32049 -1.42918 0
M  V30 2968 O 287.523 3.34951 -2.82381 0
M  V30 2969 C 289.024 4.24986 -1.26103 0
M  V30 2970 H 286.244 0.582491 -0.333084 0
M  V30 2971 H 288.788 1.36885 -1.5193 0
M  V30 2972 H 286.943 3.7707 -0.888641 0
M  V30 2973 H 287.357 4.27048 -3.04517 0
M  V30 2974 H 288.831 5.26615 -1.6547 0
M  V30 2975 H 289.308 4.38726 -0.20392 0
M  V30 2976 H 289.914 3.85791 -1.79012 0
M  V30 2977 N 288.23 0.939286 1.26551 0
M  V30 2978 C 289.646 0.641304 1.46149 0
M  V30 2979 C 289.846 -0.805964 1.84679 0
M  V30 2980 O 288.902 -1.58278 1.96734 0
M  V30 2981 C 290.215 1.6011 2.54529 0
M  V30 2982 C 291.763 1.6106 2.68382 0
M  V30 2983 C 292.238 2.55765 3.79932 0
M  V30 2984 N 293.729 2.5404 3.87322 0
M  V30 2985 C 294.464 3.24004 4.73085 0
M  V30 2986 N 293.96 4.03388 5.63249 0
M  V30 2987 N 295.753 3.12965 4.66914 0
M  V30 2988 H 287.904 1.87478 0.998285 0
M  V30 2989 H 290.167 0.805559 0.499779 0
M  V30 2990 H 289.873 2.63412 2.33039 0
M  V30 2991 H 289.747 1.35171 3.52149 0
M  V30 2992 H 292.134 0.584835 2.89247 0
M  V30 2993 H 292.215 1.90053 1.71212 0
M  V30 2994 H 291.859 3.58458 3.5982 0
M  V30 2995 H 291.789 2.24063 4.76554 0
M  V30 2996 H 294.28 1.96396 3.22858 0
M  V30 2997 H 294.593 4.5373 6.25579 0
M  V30 2998 H 292.938 4.07489 5.63008 0
M  V30 2999 H 296.129 2.50432 3.95476 0
M  V30 3000 H 296.302 3.67759 5.33533 0
M  V30 3001 N 289.708 -1.40897 0.706093 0
M  V30 3002 C 290.671 -2.29131 0.0562841 0
M  V30 3003 C 291.671 -1.44901 -0.697166 0
M  V30 3004 O 292.861 -1.65926 -0.530484 0
M  V30 3005 C 289.993 -3.27957 -0.93043 0
M  V30 3006 H 291.186 -2.88091 0.833284 0
M  V30 3007 H 288.739 -1.4906 0.470192 0
M  V30 3008 H 289.474 -2.73997 -1.73482 0
M  V30 3009 H 289.259 -3.90124 -0.393166 0
M  V30 3010 H 290.749 -3.94049 -1.38256 0
M  V30 3011 N 291.186 -0.45159 -1.50991 0
M  V30 3012 C 292.602 -0.104647 -1.59257 0
M  V30 3013 C 292.802 1.38728 -1.4614 0
M  V30 3014 O 291.858 2.15866 -1.30989 0
M  V30 3015 C 293.171 -0.637468 -2.93865 0
M  V30 3016 C 294.719 -0.599166 -3.07212 0
M  V30 3017 C 295.194 -1.1092 -4.44366 0
M  V30 3018 N 296.685 -1.06778 -4.50725 0
M  V30 3019 C 297.42 -1.43314 -5.55201 0
M  V30 3020 N 296.916 -1.87204 -6.67028 0
M  V30 3021 N 298.709 -1.3504 -5.45638 0
M  V30 3022 H 290.86 -1.42214 -1.57762 0
M  V30 3023 H 293.123 -0.586921 -0.744465 0
M  V30 3024 H 292.829 -1.68187 -3.08879 0
M  V30 3025 H 292.703 -0.0702139 -3.77135 0
M  V30 3026 H 295.09 0.436277 -2.91857 0
M  V30 3027 H 295.171 -1.20299 -2.25747 0
M  V30 3028 H 294.815 -2.14318 -4.60467 0
M  V30 3029 H 294.745 -0.481773 -5.24392 0
M  V30 3030 H 297.236 -0.745643 -3.70471 0
M  V30 3031 H 297.549 -2.13282 -7.42786 0
M  V30 3032 H 295.894 -1.91142 -6.68199 0
M  V30 3033 H 299.085 -1.00607 -4.57161 0
M  V30 3034 H 299.258 -1.63841 -6.26945 0
M  V30 3035 N 292.664 1.56529 -0.183458 0
M  V30 3036 C 293.913 1.96419 0.458511 0
M  V30 3037 C 294.226 1.0727 1.63562 0
M  V30 3038 O 295.432 1.36893 2.34462 0
M  V30 3039 C 293.888 3.49298 0.867122 0
M  V30 3040 C 293.496 4.47092 -0.285057 0
M  V30 3041 C 295.24 3.97983 1.47683 0
M  V30 3042 C 293.147 5.91225 0.143862 0
M  V30 3043 H 292.077 0.733394 0.175071 0
M  V30 3044 H 294.728 1.81448 -0.273624 0
M  V30 3045 H 293.11 3.59731 1.65559 0
M  V30 3046 H 294.284 4.48383 -1.0625 0
M  V30 3047 H 292.599 4.08535 -0.805503 0
M  V30 3048 H 295.196 5.03134 1.80999 0
M  V30 3049 H 295.539 3.41618 2.37914 0
M  V30 3050 H 296.072 3.90617 0.752562 0
M  V30 3051 H 292.811 6.5149 -0.723974 0
M  V30 3052 H 292.331 5.93214 0.886413 0
M  V30 3053 H 294.01 6.44362 0.583628 0
M  V30 3054 N 294.142 -0.090211 1.57342 0
M  V30 3055 C 295.39 -0.791241 1.85967 0
M  V30 3056 C 295.711 -1.7903 0.772859 0
M  V30 3057 O 294.981 -1.94872 -0.200398 0
M  V30 3058 H 293.561 -0.295205 0.686195 0
M  V30 3059 H 296.223 -0.0706782 1.94772 0
M  V30 3060 H 295.319 -1.31882 2.82867 0
M  V30 3061 N 295.62 -1.53406 -0.361157 0
M  V30 3062 C 296.53 -1.83122 -1.4664 0
M  V30 3063 C 297.546 -0.719943 -1.58407 0
M  V30 3064 O 298.722 -1.01046 -1.74218 0
M  V30 3065 C 295.787 -2.01891 -2.81853 0
M  V30 3066 C 294.848 -3.25784 -2.79577 0
M  V30 3067 C 294.081 -3.43648 -4.0834 0
M  V30 3068 O 294.304 -2.65714 -5.0473 0
M  V30 3069 O 293.238 -4.37018 -4.13883 0
M  V30 3070 H 297.064 -2.7703 -1.24451 0
M  V30 3071 H 294.649 -1.38841 -0.551678 0
M  V30 3072 H 296.531 -2.15782 -3.61962 0
M  V30 3073 H 295.206 -1.11173 -3.0401 0
M  V30 3074 H 294.113 -3.17312 -1.98151 0
M  V30 3075 H 295.446 -4.16439 -2.62373 0
M  V30 3076 N 297.098 0.621204 -1.44841 0
M  V30 3077 C 298.03 1.74615 -1.48466 0
M  V30 3078 C 299.043 1.58377 -0.37691 0
M  V30 3079 O 300.232 1.66508 -0.643215 0
M  V30 3080 C 297.332 3.12459 -1.31236 0
M  V30 3081 C 296.505 3.55064 -2.55438 0
M  V30 3082 C 295.564 4.71821 -2.32963 0
M  V30 3083 O 294.59 4.79628 -3.06505 0
M  V30 3084 N 295.792 5.64186 -1.36654 0
M  V30 3085 H 298.557 1.71973 -2.45449 0
M  V30 3086 H 296.118 0.806077 -1.40407 0
M  V30 3087 H 298.11 3.88302 -1.14032 0
M  V30 3088 H 296.68 3.09686 -0.4258 0
M  V30 3089 H 295.9 2.69324 -2.87851 0
M  V30 3090 H 297.188 3.80284 -3.38026 0
M  V30 3091 H 296.586 5.6058 -0.759344 0
M  V30 3092 H 295.143 6.39618 -1.25425 0
M  V30 3093 N 298.576 1.31904 0.862503 0
M  V30 3094 C 299.825 1.21373 1.61094 0
M  V30 3095 C 300.138 -0.22504 1.94301 0
M  V30 3096 O 301.344 -0.452121 2.67709 0
M  V30 3097 C 299.8 2.12525 2.9045 0
M  V30 3098 C 299.408 3.61441 2.64697 0
M  V30 3099 C 301.152 2.10813 3.68454 0
M  V30 3100 C 299.059 4.44578 3.90006 0
M  V30 3101 H 297.989 0.450705 0.604468 0
M  V30 3102 H 300.64 1.56811 0.953027 0
M  V30 3103 H 299.022 1.69994 3.57656 0
M  V30 3104 H 300.196 4.12264 2.05851 0
M  V30 3105 H 298.511 3.65205 2.00036 0
M  V30 3106 H 301.108 2.70167 4.61426 0
M  V30 3107 H 301.451 1.09713 4.01583 0
M  V30 3108 H 301.984 2.51583 3.08141 0
M  V30 3109 H 298.723 5.46461 3.62023 0
M  V30 3110 H 298.243 3.98508 4.48276 0
M  V30 3111 H 299.922 4.57176 4.5782 0
M  V30 3112 N 300.054 -1.07777 1.14986 0
M  V30 3113 C 301.331 -1.7699 0.832695 0
M  V30 3114 C 301.711 -2.001 -0.672561 0
M  V30 3115 O 301.059 -1.61598 -1.6155 0
M  V30 3116 C 301.269 -3.08139 1.63863 0
M  V30 3117 C 302.617 -3.8256 1.84208 0
M  V30 3118 O 303.641 -3.17939 1.60603 0
M  V30 3119 O 302.5 -4.98612 2.23714 0
M  V30 3120 H 299.594 -0.768389 0.305791 0
M  V30 3121 H 302.14 -1.14182 1.25541 0
M  V30 3122 H 300.912 -2.86909 2.6608 0
M  V30 3123 H 300.535 -3.78678 1.21197 0
M  V30 3124 N 301.532 -0.945985 -1.26051 0
M  V30 3125 C 302.781 -0.591836 -1.92822 0
M  V30 3126 C 303.094 0.873956 -1.7499 0
M  V30 3127 O 304.3 1.33769 -2.36259 0
M  V30 3128 C 302.756 -1.00776 -3.45503 0
M  V30 3129 C 302.364 -2.4955 -3.7206 0
M  V30 3130 C 304.108 -0.725735 -4.1825 0
M  V30 3131 C 302.015 -2.84988 -5.18205 0
M  V30 3132 H 300.945 -0.217635 -0.721908 0
M  V30 3133 H 303.596 -1.14927 -1.43052 0
M  V30 3134 H 301.978 -0.378812 -3.94184 0
M  V30 3135 H 303.152 -3.1739 -3.34066 0
M  V30 3136 H 301.467 -2.75133 -3.12555 0
M  V30 3137 H 304.064 -0.966771 -5.25887 0
M  V30 3138 H 304.407 0.337639 -4.14929 0
M  V30 3139 H 304.94 -1.31463 -3.7545 0
M  V30 3140 H 301.679 -3.90307 -5.26631 0
M  V30 3141 H 301.199 -2.21813 -5.57278 0
M  V30 3142 H 302.878 -2.73712 -5.86252 0
M  V30 3143 N 303.011 1.40521 -0.713556 0
M  V30 3144 C 304.239 2.05237 -0.261775 0
M  V30 3145 C 304.654 1.53755 1.09567 0
M  V30 3146 O 304.011 0.693268 1.6882 0
M  V30 3147 C 304.062 3.60763 -0.230706 0
M  V30 3148 O 303.783 4.10345 -1.53455 0
M  V30 3149 C 305.284 4.42651 0.239874 0
M  V30 3150 H 302.504 0.660533 -0.118057 0
M  V30 3151 H 305.048 1.79967 -0.971192 0
M  V30 3152 H 303.203 3.8501 0.429661 0
M  V30 3153 H 303.617 5.04526 -1.43366 0
M  V30 3154 H 305.091 5.51599 0.210468 0
M  V30 3155 H 305.568 4.20082 1.28171 0
M  V30 3156 H 306.174 4.23507 -0.390142 0
M  V30 3157 N 304.489 0.459591 1.5075 0
M  V30 3158 C 305.419 -0.330644 2.31147 0
M  V30 3159 C 306.4 -1.00087 1.37538 0
M  V30 3160 O 307.585 -1.00025 1.66459 0
M  V30 3161 C 304.715 -1.41958 3.16962 0
M  V30 3162 C 303.669 -0.871608 4.19031 0
M  V30 3163 C 302.995 -2.05797 4.9351 0
M  V30 3164 C 304.295 0.109251 5.22186 0
M  V30 3165 H 305.989 0.340336 2.97459 0
M  V30 3166 H 303.535 0.165119 1.4305 0
M  V30 3167 H 305.488 -1.9798 3.71997 0
M  V30 3168 H 304.212 -2.11917 2.48513 0
M  V30 3169 H 302.871 -0.333442 3.6508 0
M  V30 3170 H 302.519 -2.74427 4.21544 0
M  V30 3171 H 302.219 -1.6976 5.62544 0
M  V30 3172 H 303.743 -2.62331 5.51375 0
M  V30 3173 H 305.157 -0.361405 5.7216 0
M  V30 3174 H 303.554 0.383316 5.98875 0
M  V30 3175 H 304.624 1.03887 4.73641 0
M  V30 3176 N 305.967 -1.56429 0.191757 0
M  V30 3177 C 307.216 -1.9666 -0.448088 0
M  V30 3178 C 307.529 -1.08136 -1.62991 0
M  V30 3179 O 308.735 -1.38135 -2.33733 0
M  V30 3180 C 307.191 -3.49753 -0.848585 0
M  V30 3181 C 306.799 -4.46935 0.308764 0
M  V30 3182 C 308.543 -3.9876 -1.4557 0
M  V30 3183 C 306.45 -5.91293 -0.112506 0
M  V30 3184 H 305.38 -0.734312 -0.171179 0
M  V30 3185 H 308.031 -1.81301 0.283242 0
M  V30 3186 H 306.413 -3.60604 -1.63649 0
M  V30 3187 H 307.587 -4.47813 1.08627 0
M  V30 3188 H 305.902 -4.08102 0.827158 0
M  V30 3189 H 308.499 -5.04086 -1.78328 0
M  V30 3190 H 308.842 -3.42875 -2.36099 0
M  V30 3191 H 309.375 -3.9101 -0.731836 0
M  V30 3192 H 306.114 -6.51097 0.758514 0
M  V30 3193 H 305.634 -5.93676 -0.854941 0
M  V30 3194 H 307.313 -6.44663 -0.549448 0
M  V30 3195 N 307.445 0.0818655 -1.57387 0
M  V30 3196 C 308.408 1.08265 -2.02018 0
M  V30 3197 C 309.408 1.32183 -0.915664 0
M  V30 3198 O 310.598 1.28073 -1.18081 0
M  V30 3199 C 307.73 2.42871 -2.39221 0
M  V30 3200 H 308.923 0.698204 -2.91659 0
M  V30 3201 H 306.476 0.327303 -1.52835 0
M  V30 3202 H 307.211 2.86167 -1.52575 0
M  V30 3203 H 306.996 2.26855 -3.19811 0
M  V30 3204 H 308.486 3.14826 -2.74362 0
M  V30 3205 N 308.923 1.53595 0.353017 0
M  V30 3206 C 310.151 1.74311 1.1146 0
M  V30 3207 C 310.566 0.477854 1.82653 0
M  V30 3208 O 309.923 -0.549977 1.74016 0
M  V30 3209 C 309.974 2.91694 2.13534 0
M  V30 3210 O 309.695 4.13325 1.45238 0
M  V30 3211 C 311.196 3.24384 3.02142 0
M  V30 3212 H 308.416 0.582669 0.332773 0
M  V30 3213 H 310.96 2.00386 0.408107 0
M  V30 3214 H 309.115 2.67977 2.79763 0
M  V30 3215 H 309.529 4.79148 2.13349 0
M  V30 3216 H 311.003 4.09893 3.69718 0
M  V30 3217 H 311.48 2.40282 3.67643 0
M  V30 3218 H 312.086 3.50073 2.41514 0
M  V30 3219 N 310.401 -0.613514 1.45168 0
M  V30 3220 C 311.331 -1.7354 1.56225 0
M  V30 3221 C 312.312 -1.64981 0.41414 0
M  V30 3222 O 313.497 -1.83472 0.636526 0
M  V30 3223 C 310.627 -3.12128 1.52295 0
M  V30 3224 C 309.581 -3.35491 2.65762 0
M  V30 3225 C 308.907 -4.74291 2.46885 0
M  V30 3226 C 310.207 -3.26325 4.0781 0
M  V30 3227 H 311.901 -1.64543 2.50132 0
M  V30 3228 H 309.447 -0.790185 1.20383 0
M  V30 3229 H 311.4 -3.90404 1.58628 0
M  V30 3230 H 310.124 -3.2195 0.549139 0
M  V30 3231 H 308.783 -2.59603 2.58847 0
M  V30 3232 H 308.431 -4.80839 1.47657 0
M  V30 3233 H 308.131 -4.9088 3.22972 0
M  V30 3234 H 309.655 -5.54775 2.55063 0
M  V30 3235 H 311.069 -3.94483 4.16 0
M  V30 3236 H 309.466 -3.54445 4.8424 0
M  V30 3237 H 310.536 -2.23855 4.30136 0
M  V30 3238 N 311.879 -1.3236 -0.855495 0
M  V30 3239 C 313.295 -1.11332 -1.14356 0
M  V30 3240 C 313.495 0.106751 -2.01217 0
M  V30 3241 O 312.551 0.791891 -2.39761 0
M  V30 3242 C 313.864 -2.39237 -1.82171 0
M  V30 3243 C 315.412 -2.44986 -1.9481 0
M  V30 3244 C 315.887 -3.7281 -2.66039 0
M  V30 3245 N 317.378 -3.73787 -2.73565 0
M  V30 3246 C 318.113 -4.69394 -3.29327 0
M  V30 3247 N 317.609 -5.75367 -3.85907 0
M  V30 3248 N 319.402 -4.56893 -3.27423 0
M  V30 3249 H 311.553 -2.10586 -0.277027 0
M  V30 3250 H 313.816 -0.929701 -0.185364 0
M  V30 3251 H 313.522 -3.28431 -1.25802 0
M  V30 3252 H 313.396 -2.50134 -2.82335 0
M  V30 3253 H 315.783 -1.56252 -2.50338 0
M  V30 3254 H 315.864 -2.38043 -0.936448 0
M  V30 3255 H 315.508 -4.61918 -2.11174 0
M  V30 3256 H 315.438 -3.77024 -3.67642 0
M  V30 3257 H 317.929 -2.97189 -2.33424 0
M  V30 3258 H 318.242 -6.44378 -4.26611 0
M  V30 3259 H 316.587 -5.79123 -3.84242 0
M  V30 3260 H 319.778 -3.73269 -2.82467 0
M  V30 3261 H 319.951 -5.31577 -3.7058 0
M  V30 3262 N 313.357 1.07166 -1.15556 0
M  V30 3263 C 314.305 2.16517 -0.8499 0
M  V30 3264 C 315.299 1.68468 0.177454 0
M  V30 3265 O 316.505 1.79971 0.0323026 0
M  V30 3266 H 312.88 0.706652 -0.25719 0
M  V30 3267 H 314.851 2.39514 -1.77976 0
M  V30 3268 C 313.6 3.45855 -0.357682 0
M  V30 3269 H 312.923 3.83214 -1.13961 0
M  V30 3270 H 314.363 4.23607 -0.182489 0
M  V30 3271 C 312.822 3.24062 0.921152 0
M  V30 3272 O 313.352 3.48813 1.9923 0
M  V30 3273 N 311.558 2.77539 0.86141 0
M  V30 3274 H 311.105 2.57598 -0.0104408 0
M  V30 3275 H 311.063 2.63337 1.71758 0
M  V30 3276 N 314.835 0.952656 1.25548 0
M  V30 3277 C 316.081 0.607272 1.93494 0
M  V30 3278 C 316.414 -0.853245 1.74452 0
M  V30 3279 O 315.689 -1.61194 1.08843 0
M  V30 3280 C 315.972 0.96435 3.46947 0
M  V30 3281 C 315.825 2.48045 3.75225 0
M  V30 3282 C 317.144 0.487987 4.37386 0
M  V30 3283 H 314.263 0.222096 0.702739 0
M  V30 3284 H 316.905 1.18895 1.48203 0
M  V30 3285 H 315.055 0.469361 3.85654 0
M  V30 3286 H 316.727 3.04905 3.46166 0
M  V30 3287 H 314.97 2.919 3.209 0
M  V30 3288 H 315.641 2.6808 4.82532 0
M  V30 3289 H 318.117 0.912558 4.0597 0
M  V30 3290 H 316.993 0.766547 5.43521 0
M  V30 3291 H 317.254 -0.612063 4.37843 0
M  V30 3292 N 316.313 -1.40141 0.720998 0
M  V30 3293 C 317.543 -2.04798 0.27226 0
M  V30 3294 C 317.951 -1.54442 -1.09289 0
M  V30 3295 O 317.294 -0.698342 -1.69908 0
M  V30 3296 C 317.356 -3.59048 0.18027 0
M  V30 3297 C 317.02 -4.32317 1.48159 0
M  V30 3298 C 318.017 -4.59902 2.42458 0
M  V30 3299 C 315.702 -4.71125 1.74202 0
M  V30 3300 C 317.696 -5.25288 3.61042 0
M  V30 3301 C 315.383 -5.36242 2.93066 0
M  V30 3302 C 316.381 -5.63254 3.86308 0
M  V30 3303 O 316.069 -6.27024 5.03086 0
M  V30 3304 H 315.801 -0.665419 0.119139 0
M  V30 3305 H 318.355 -1.80436 0.981432 0
M  V30 3306 H 316.585 -3.82251 -0.58489 0
M  V30 3307 H 318.274 -4.05221 -0.234618 0
M  V30 3308 H 319.04 -4.30379 2.23604 0
M  V30 3309 H 314.919 -4.49466 1.02477 0
M  V30 3310 H 318.463 -5.46289 4.33837 0
M  V30 3311 H 314.36 -5.65185 3.11826 0
M  V30 3312 H 315.128 -6.4552 5.03235 0
M  V30 3313 N 317.792 -0.46758 -1.50504 0
M  V30 3314 C 319.039 0.0886219 -2.02306 0
M  V30 3315 C 319.367 1.40037 -1.34981 0
M  V30 3316 O 318.622 1.90136 -0.463318 0
M  V30 3317 C 318.921 0.323995 -3.55928 0
M  V30 3318 C 318.587 -0.905618 -4.41712 0
M  V30 3319 C 317.249 -1.24275 -4.64875 0
M  V30 3320 C 319.601 -1.72448 -4.91845 0
M  V30 3321 C 316.929 -2.39888 -5.35417 0
M  V30 3322 C 319.281 -2.87185 -5.63656 0
M  V30 3323 C 317.945 -3.21317 -5.85074 0
M  V30 3324 H 317.215 0.0324291 -0.74029 0
M  V30 3325 H 319.862 -0.620945 -1.81153 0
M  V30 3326 H 318.167 1.11577 -3.75577 0
M  V30 3327 H 319.864 0.76826 -3.93572 0
M  V30 3328 H 316.454 -0.632956 -4.239 0
M  V30 3329 H 320.638 -1.4772 -4.73806 0
M  V30 3330 H 315.894 -2.66611 -5.50208 0
M  V30 3331 H 320.068 -3.50985 -6.01484 0
M  V30 3332 H 317.695 -4.1101 -6.39511 0
M  V30 3333 N 319.27 1.56325 -0.20005 0
M  V30 3334 C 320.203 2.15234 0.758267 0
M  V30 3335 C 321.181 1.09046 1.20614 0
M  V30 3336 O 322.365 1.37186 1.29276 0
M  V30 3337 C 319.492 2.71524 2.02466 0
M  V30 3338 C 318.538 3.90345 1.71852 0
M  V30 3339 S 319.371 5.28513 0.862249 0
M  V30 3340 C 320.527 5.88227 2.13868 0
M  V30 3341 H 320.76 2.96183 0.2575 0
M  V30 3342 H 318.293 1.54393 0.0150099 0
M  V30 3343 H 320.251 3.04598 2.75191 0
M  V30 3344 H 318.912 1.90607 2.49655 0
M  V30 3345 H 318.105 4.28158 2.65888 0
M  V30 3346 H 317.707 3.58306 1.07205 0
M  V30 3347 H 319.999 6.02891 3.09076 0
M  V30 3348 H 320.942 6.84714 1.80479 0
M  V30 3349 H 321.35 5.16874 2.2694 0
M  V30 3350 N 320.748 -0.0735177 1.57428 0
M  V30 3351 C 321.678 -1.0879 2.06608 0
M  V30 3352 C 322.659 -1.40473 0.959237 0
M  V30 3353 O 323.844 -1.5013 1.23185 0
M  V30 3354 C 320.974 -2.40183 2.50857 0
M  V30 3355 C 319.928 -2.22858 3.65402 0
M  V30 3356 C 319.254 -3.59619 3.957 0
M  V30 3357 C 320.554 -1.65123 4.95511 0
M  V30 3358 H 322.248 -0.678673 2.91607 0
M  V30 3359 H 319.794 -0.325013 1.40284 0
M  V30 3360 H 321.747 -3.11437 2.83874 0
M  V30 3361 H 320.471 -2.83083 1.62885 0
M  V30 3362 H 319.13 -1.54045 3.32664 0
M  V30 3363 H 318.778 -4.00086 3.04861 0
M  V30 3364 H 318.478 -3.48866 4.72828 0
M  V30 3365 H 320.002 -4.32306 4.31212 0
M  V30 3366 H 321.416 -2.26241 5.26771 0
M  V30 3367 H 319.813 -1.65071 5.7695 0
M  V30 3368 H 320.883 -0.612559 4.81015 0
M  V30 3369 N 322.226 -1.5378 -0.344866 0
M  V30 3370 C 323.472 -1.71216 -1.08687 0
M  V30 3371 C 323.805 -0.473281 -1.88345 0
M  V30 3372 O 323.08 0.52968 -1.87149 0
M  V30 3373 C 323.363 -2.97486 -2.02914 0
M  V30 3374 C 323.216 -4.31579 -1.26727 0
M  V30 3375 C 324.535 -3.19422 -3.0275 0
M  V30 3376 H 321.654 -0.62301 -0.393735 0
M  V30 3377 H 324.296 -1.8645 -0.365563 0
M  V30 3378 H 322.446 -2.84629 -2.64421 0
M  V30 3379 H 324.118 -4.56284 -0.67845 0
M  V30 3380 H 322.361 -4.30049 -0.569273 0
M  V30 3381 H 323.032 -5.16106 -1.95803 0
M  V30 3382 H 325.508 -3.316 -2.51357 0
M  V30 3383 H 324.384 -4.09169 -3.65885 0
M  V30 3384 H 324.645 -2.35656 -3.74057 0
M  V30 3385 N 323.704 0.605807 -1.45491 0
M  V30 3386 C 324.652 1.73754 -1.54636 0
M  V30 3387 C 325.646 1.64207 -0.416219 0
M  V30 3388 O 326.852 1.69979 -0.592199 0
M  V30 3389 H 323.227 0.574073 -0.485741 0
M  V30 3390 H 325.198 1.63169 -2.49837 0
M  V30 3391 C 323.947 3.12135 -1.53189 0
M  V30 3392 H 323.27 3.20141 -2.39478 0
M  V30 3393 H 324.71 3.91147 -1.63645 0
M  V30 3394 C 323.169 3.35921 -0.256616 0
M  V30 3395 O 323.699 3.96194 0.662798 0
M  V30 3396 N 321.905 2.90204 -0.151751 0
M  V30 3397 H 321.452 2.41336 -0.90081 0
M  V30 3398 H 321.41 3.06492 0.700699 0
M  V30 3399 N 325.182 1.32811 0.848464 0
M  V30 3400 C 326.41 1.26739 1.63538 0
M  V30 3401 C 326.825 -0.163484 1.88091 0
M  V30 3402 O 326.182 -1.10258 1.45429 0
M  V30 3403 C 326.233 2.03013 2.99112 0
M  V30 3404 O 325.954 3.40518 2.75643 0
M  V30 3405 C 327.455 2.04038 3.93552 0
M  V30 3406 H 324.675 0.437024 0.509167 0
M  V30 3407 H 327.219 1.75033 1.05753 0
M  V30 3408 H 325.374 1.58426 3.53525 0
M  V30 3409 H 325.788 3.79635 3.61908 0
M  V30 3410 H 327.262 2.61877 4.85926 0
M  V30 3411 H 327.739 1.0282 4.26995 0
M  V30 3412 H 328.345 2.486 3.45077 0
M  V30 3413 N 326.66 -1.06551 1.16123 0
M  V30 3414 C 327.9 -1.80889 0.951766 0
M  V30 3415 C 328.264 -1.85062 -0.511465 0
M  V30 3416 O 329.465 -2.55353 -0.83954 0
M  V30 3417 C 327.736 -3.21609 1.55893 0
M  V30 3418 S 329.295 -4.12593 1.49373 0
M  V30 3419 H 326.113 -0.623156 0.342341 0
M  V30 3420 H 328.715 -1.27943 1.47821 0
M  V30 3421 H 327.419 -3.16165 2.61664 0
M  V30 3422 H 326.95 -3.79631 1.0317 0
M  V30 3423 H 328.965 -4.93753 0.492196 0
M  V30 3424 N 328.138 -0.959301 -1.25041 0
M  V30 3425 C 329.088 -0.453888 -2.23436 0
M  V30 3426 C 330.072 0.459461 -1.542 0
M  V30 3427 O 331.264 0.291752 -1.74579 0
M  V30 3428 C 328.393 0.262667 -3.42294 0
M  V30 3429 C 327.479 -0.669022 -4.1879 0
M  V30 3430 N 327.87 -1.80267 -4.72586 0
M  V30 3431 C 326.168 -0.47814 -4.4343 0
M  V30 3432 C 326.869 -2.38475 -5.3057 0
M  V30 3433 N 325.845 -1.67078 -5.17287 0
M  V30 3434 H 329.647 -1.319 -2.6264 0
M  V30 3435 H 327.161 -0.817358 -1.40332 0
M  V30 3436 H 329.158 0.641911 -4.11929 0
M  V30 3437 H 327.818 1.12432 -3.04613 0
M  V30 3438 H 328.829 -2.18442 -4.69578 0
M  V30 3439 H 325.506 0.340249 -4.16111 0
M  V30 3440 H 326.896 -3.34094 -5.8295 0
M  V30 3441 N 329.616 1.39756 -0.72842 0
M  V30 3442 C 330.863 2.00645 -0.273487 0
M  V30 3443 C 331.191 1.57786 1.13727 0
M  V30 3444 O 330.446 0.794886 1.7883 0
M  V30 3445 C 330.745 3.56002 -0.315776 0
M  V30 3446 C 330.411 4.18489 -1.67863 0
M  V30 3447 C 329.073 4.3527 -2.05166 0
M  V30 3448 C 331.425 4.53219 -2.57375 0
M  V30 3449 C 328.753 4.84069 -3.31503 0
M  V30 3450 C 331.105 5.03423 -3.83077 0
M  V30 3451 C 329.769 5.18413 -4.20481 0
M  V30 3452 H 329.039 0.734211 -0.100076 0
M  V30 3453 H 331.686 1.6718 -0.933972 0
M  V30 3454 H 329.991 3.89452 0.428285 0
M  V30 3455 H 331.688 4.00963 0.0542575 0
M  V30 3456 H 328.278 4.05824 -1.37858 0
M  V30 3457 H 332.462 4.39878 -2.29827 0
M  V30 3458 H 327.718 4.93859 -3.60435 0
M  V30 3459 H 331.892 5.2927 -4.52599 0
M  V30 3460 H 329.519 5.55987 -5.18443 0
M  V30 3461 N 331.094 0.475555 1.50254 0
M  V30 3462 C 332.024 -0.30611 2.31485 0
M  V30 3463 C 333.005 -0.986228 1.38591 0
M  V30 3464 O 334.19 -0.982541 1.67511 0
M  V30 3465 C 331.32 -1.38588 3.1845 0
M  V30 3466 C 330.274 -0.827115 4.19932 0
M  V30 3467 C 329.6 -2.00551 4.95665 0
M  V30 3468 C 330.9 0.16463 5.2204 0
M  V30 3469 H 332.594 0.371866 2.97082 0
M  V30 3470 H 330.14 0.180282 1.42867 0
M  V30 3471 H 332.093 -1.94023 3.74076 0
M  V30 3472 H 330.817 -2.09269 2.50747 0
M  V30 3473 H 329.476 -0.294702 3.65414 0
M  V30 3474 H 329.124 -2.6994 4.2443 0
M  V30 3475 H 328.824 -1.63784 5.64313 0
M  V30 3476 H 330.348 -2.56468 5.54127 0
M  V30 3477 H 331.762 -0.300699 5.72511 0
M  V30 3478 H 330.159 0.446813 5.98434 0
M  V30 3479 H 331.229 1.08905 4.72512 0
M  V30 3480 N 332.573 -1.56217 0.208337 0
M  V30 3481 C 333.989 -1.58919 -0.14729 0
M  V30 3482 C 334.189 -1.22486 -1.59998 0
M  V30 3483 O 333.245 -0.953849 -2.3379 0
M  V30 3484 C 334.558 -3.00236 0.167048 0
M  V30 3485 C 336.106 -3.12813 0.108219 0
M  V30 3486 C 336.581 -4.56284 0.396049 0
M  V30 3487 N 338.072 -4.61912 0.345142 0
M  V30 3488 C 338.807 -5.70837 0.541523 0
M  V30 3489 N 338.303 -6.88178 0.798968 0
M  V30 3490 N 340.096 -5.60091 0.474867 0
M  V30 3491 H 332.247 -1.78177 1.15614 0
M  V30 3492 H 334.51 -0.827555 0.462446 0
M  V30 3493 H 334.216 -3.31499 1.1748 0
M  V30 3494 H 334.09 -3.7354 -0.524184 0
M  V30 3495 H 336.477 -2.81354 -0.890157 0
M  V30 3496 H 336.558 -2.41866 0.832729 0
M  V30 3497 H 336.202 -4.88458 1.3918 0
M  V30 3498 H 336.132 -5.25439 -0.349502 0
M  V30 3499 H 338.623 -3.77589 0.153316 0
M  V30 3500 H 338.936 -7.67095 0.93727 0
M  V30 3501 H 337.281 -6.89953 0.836013 0
M  V30 3502 H 340.472 -4.67297 0.274064 0
M  V30 3503 H 340.645 -6.44917 0.631326 0
M  V30 3504 N 334.051 0.0651679 -1.57465 0
M  V30 3505 C 335.276 0.779605 -1.9219 0
M  V30 3506 C 335.701 1.69988 -0.805333 0
M  V30 3507 O 335.059 1.79685 0.241435 0
M  V30 3508 C 335.107 1.54364 -3.2589 0
M  V30 3509 O 334.211 2.65474 -3.1559 0
M  V30 3510 H 333.552 0.212249 -0.629163 0
M  V30 3511 H 336.082 0.0314294 -2.04576 0
M  V30 3512 H 336.092 1.92146 -3.59922 0
M  V30 3513 H 334.767 0.868457 -4.06732 0
M  V30 3514 H 333.344 2.30501 -2.93128 0
M  V30 3515 N 335.529 1.53961 0.336706 0
M  V30 3516 C 336.777 1.71197 1.07405 0
M  V30 3517 C 337.098 0.481475 1.88962 0
M  V30 3518 O 336.368 -0.504585 1.8929 0
M  V30 3519 H 334.948 0.631185 0.399517 0
M  V30 3520 H 337.61 1.91232 0.376323 0
M  V30 3521 H 336.706 2.58587 1.74755 0
M  V30 3522 N 337.007 -0.598083 1.45811 0
M  V30 3523 C 338.423 -0.919847 1.30426 0
M  V30 3524 C 338.623 -1.99759 0.264303 0
M  V30 3525 O 337.679 -2.50221 -0.338472 0
M  V30 3526 C 338.992 -1.35176 2.68603 0
M  V30 3527 C 340.54 -1.46546 2.76574 0
M  V30 3528 C 341.015 -1.9311 4.15298 0
M  V30 3529 N 342.506 -2.00328 4.1764 0
M  V30 3530 C 343.241 -2.37599 5.21856 0
M  V30 3531 N 342.737 -2.73771 6.36413 0
M  V30 3532 N 344.53 -2.38021 5.09218 0
M  V30 3533 H 336.681 0.114111 2.12093 0
M  V30 3534 H 338.944 -0.0116121 0.947929 0
M  V30 3535 H 338.65 -0.633969 3.45939 0
M  V30 3536 H 338.524 -2.3164 2.97696 0
M  V30 3537 H 340.911 -2.17415 1.99537 0
M  V30 3538 H 340.992 -0.483727 2.51185 0
M  V30 3539 H 340.636 -1.22824 4.92825 0
M  V30 3540 H 340.566 -2.92213 4.38086 0
M  V30 3541 H 343.057 -1.74925 3.34977 0
M  V30 3542 H 343.37 -3.0112 7.11721 0
M  V30 3543 H 341.715 -2.71445 6.39799 0
M  V30 3544 H 344.906 -2.09174 4.18765 0
M  V30 3545 H 345.079 -2.66741 5.90554 0
M  V30 3546 N 338.485 -1.33259 -0.841409 0
M  V30 3547 C 339.731 -1.24757 -1.59886 0
M  V30 3548 C 340.064 0.186913 -1.93298 0
M  V30 3549 O 339.339 1.12757 -1.5848 0
M  V30 3550 C 339.622 -2.12036 -2.91055 0
M  V30 3551 C 339.475 -3.63929 -2.6434 0
M  V30 3552 C 340.794 -1.9916 -3.92458 0
M  V30 3553 H 337.913 -0.454542 -0.580138 0
M  V30 3554 H 340.555 -1.63335 -0.970647 0
M  V30 3555 H 338.705 -1.79265 -3.44669 0
M  V30 3556 H 340.377 -4.06978 -2.17178 0
M  V30 3557 H 338.62 -3.85935 -1.98082 0
M  V30 3558 H 339.291 -4.20341 -3.57796 0
M  V30 3559 H 341.767 -2.27895 -3.48143 0
M  V30 3560 H 340.643 -2.62484 -4.82072 0
M  V30 3561 H 340.904 -0.963082 -4.31482 0
M  V30 3562 N 339.963 1.05934 -1.16686 0
M  V30 3563 C 341.209 1.79211 -0.962023 0
M  V30 3564 C 341.564 1.85667 0.504545 0
M  V30 3565 O 340.857 1.33991 1.36956 0
M  V30 3566 C 341.051 3.23105 -1.52767 0
M  V30 3567 C 340.88 3.30673 -3.04771 0
M  V30 3568 C 339.65 3.40395 -3.73442 0
M  V30 3569 C 341.848 3.20234 -4.02436 0
M  V30 3570 N 339.83 3.37015 -5.13122 0
M  V30 3571 C 341.201 3.24138 -5.28521 0
M  V30 3572 C 343.256 3.04143 -3.9421 0
M  V30 3573 C 341.959 3.13607 -6.47336 0
M  V30 3574 C 343.985 2.94951 -5.12599 0
M  V30 3575 C 343.347 2.99481 -6.37566 0
M  V30 3576 H 339.446 0.668442 -0.405844 0
M  V30 3577 H 342.03 1.26341 -1.48142 0
M  V30 3578 H 340.201 3.74364 -1.03471 0
M  V30 3579 H 341.933 3.84579 -1.26021 0
M  V30 3580 H 338.688 3.45344 -3.2409 0
M  V30 3581 H 339.112 3.38815 -5.86117 0
M  V30 3582 H 343.754 2.99484 -2.98445 0
M  V30 3583 H 341.472 3.17022 -7.43319 0
M  V30 3584 H 345.058 2.83583 -5.08008 0
M  V30 3585 H 343.938 2.92431 -7.27636 0
M  V30 3586 N 341.441 0.965919 1.2453 0
M  V30 3587 C 342.857 0.67216 1.44756 0
M  V30 3588 C 343.057 -0.766609 1.86347 0
M  V30 3589 O 342.113 -1.5407 2.00047 0
M  V30 3590 C 343.426 1.65473 2.51076 0
M  V30 3591 C 344.974 1.66716 2.64905 0
M  V30 3592 C 345.449 2.63766 3.74421 0
M  V30 3593 N 346.94 2.62198 3.81846 0
M  V30 3594 C 347.675 3.33966 4.66106 0
M  V30 3595 N 347.171 4.15245 5.54566 0
M  V30 3596 N 348.964 3.22799 4.60171 0
M  V30 3597 H 341.115 1.89553 0.958293 0
M  V30 3598 H 343.378 0.815979 0.482579 0
M  V30 3599 H 343.084 2.68296 2.27399 0
M  V30 3600 H 342.958 1.4261 3.49202 0
M  V30 3601 H 345.345 0.646057 2.87941 0
M  V30 3602 H 345.426 1.93642 1.67142 0
M  V30 3603 H 345.07 3.6601 3.52135 0
M  V30 3604 H 345 2.34121 4.71694 0
M  V30 3605 H 347.491 2.032 3.18619 0
M  V30 3606 H 347.804 4.66898 6.15814 0
M  V30 3607 H 346.149 4.1934 5.54237 0
M  V30 3608 H 349.34 2.58764 3.90075 0
M  V30 3609 H 349.513 3.78994 5.25612 0
M  V30 3610 N 342.919 -1.39368 0.735821 0
M  V30 3611 C 344.196 -1.94465 0.210395 0
M  V30 3612 C 344.576 -1.67254 -1.28799 0
M  V30 3613 O 343.924 -1.00123 -2.05396 0
M  V30 3614 C 344.134 -3.4472 0.544897 0
M  V30 3615 C 345.482 -4.21708 0.494689 0
M  V30 3616 O 346.506 -3.52922 0.482136 0
M  V30 3617 O 345.365 -5.44299 0.489947 0
M  V30 3618 H 342.459 -0.826096 0.0386666 0
M  V30 3619 H 345.005 -1.48863 0.814735 0
M  V30 3620 H 343.777 -3.57963 1.58045 0
M  V30 3621 H 343.4 -3.97502 -0.08837 0
M  V30 3622 N 344.397 -0.483516 -1.5 0
M  V30 3623 C 345.645 0.067027 -2.01989 0
M  V30 3624 C 345.966 1.3909 -1.36671 0
M  V30 3625 O 345.236 1.88978 -0.516152 0
M  V30 3626 H 343.816 0.0277606 -0.746484 0
M  V30 3627 H 346.478 -0.636773 -1.84204 0
M  V30 3628 H 345.574 0.209484 -3.11396 0
M  V30 3629 N 345.875 1.56104 -0.216619 0
M  V30 3630 C 347.121 1.99219 0.410301 0
M  V30 3631 C 347.476 1.10169 1.57735 0
M  V30 3632 O 346.769 0.150598 1.91007 0
M  V30 3633 C 346.963 3.45923 0.898464 0
M  V30 3634 C 346.792 4.49163 -0.219748 0
M  V30 3635 C 345.562 5.00642 -0.684516 0
M  V30 3636 C 347.76 5.03751 -1.03629 0
M  V30 3637 N 345.742 5.87579 -1.7783 0
M  V30 3638 C 347.113 5.87566 -1.97904 0
M  V30 3639 C 349.168 4.86128 -1.07629 0
M  V30 3640 C 347.871 6.5564 -2.95851 0
M  V30 3641 C 349.897 5.54958 -2.04392 0
M  V30 3642 C 349.259 6.38536 -2.97407 0
M  V30 3643 H 345.358 0.773206 0.11695 0
M  V30 3644 H 347.942 1.9193 -0.327258 0
M  V30 3645 H 346.113 3.53669 1.6054 0
M  V30 3646 H 347.845 3.75963 1.49779 0
M  V30 3647 H 344.6 4.72807 -0.27399 0
M  V30 3648 H 345.024 6.3575 -2.32705 0
M  V30 3649 H 349.666 4.21168 -0.371099 0
M  V30 3650 H 347.384 7.19785 -3.67335 0
M  V30 3651 H 350.97 5.43289 -2.08154 0
M  V30 3652 H 349.85 6.90858 -3.71059 0
M  V30 3653 N 347.353 -0.0568162 1.57498 0
M  V30 3654 C 348.601 -0.751617 1.87604 0
M  V30 3655 C 348.922 -1.77351 0.81066 0
M  V30 3656 O 348.192 -1.95254 -0.159018 0
M  V30 3657 H 346.772 -0.280583 0.692302 0
M  V30 3658 H 349.434 -0.0293483 1.94878 0
M  V30 3659 H 348.53 -1.25852 2.856 0
M  V30 3660 N 348.832 -1.54138 -0.328536 0
M  V30 3661 C 349.742 -1.86192 -1.42723 0
M  V30 3662 C 350.758 -0.753382 -1.56844 0
M  V30 3663 O 351.934 -1.04718 -1.72035 0
M  V30 3664 C 348.999 -2.07824 -2.77507 0
M  V30 3665 C 348.06 -3.31641 -2.72603 0
M  V30 3666 C 347.293 -3.52232 -4.00959 0
M  V30 3667 O 347.516 -2.7636 -4.9898 0
M  V30 3668 O 346.45 -4.45699 -4.0452 0
M  V30 3669 H 350.276 -2.79608 -1.18547 0
M  V30 3670 H 347.861 -1.3998 -0.522104 0
M  V30 3671 H 349.743 -2.23411 -3.57303 0
M  V30 3672 H 348.418 -1.17596 -3.01584 0
M  V30 3673 H 347.325 -3.21444 -1.91376 0
M  V30 3674 H 348.658 -4.2191 -2.53481 0
M  V30 3675 N 350.31 0.590341 -1.46126 0
M  V30 3676 C 351.24 1.71032 -1.58966 0
M  V30 3677 C 352.221 1.64302 -0.440335 0
M  V30 3678 O 353.406 1.82436 -0.665634 0
M  V30 3679 C 350.536 3.09665 -1.57241 0
M  V30 3680 C 349.49 3.31221 -2.71066 0
M  V30 3681 C 348.816 4.70303 -2.54399 0
M  V30 3682 C 350.116 3.19796 -4.1295 0
M  V30 3683 H 351.81 1.60543 -2.52718 0
M  V30 3684 H 349.356 0.770933 -1.21625 0
M  V30 3685 H 351.309 3.87831 -1.64819 0
M  V30 3686 H 350.033 3.21036 -0.600289 0
M  V30 3687 H 348.692 2.55452 -2.62944 0
M  V30 3688 H 348.34 4.78429 -1.55288 0
M  V30 3689 H 348.04 4.85679 -3.30741 0
M  V30 3690 H 349.564 5.50647 -2.63857 0
M  V30 3691 H 350.978 3.87815 -4.22223 0
M  V30 3692 H 349.375 3.46696 -4.89818 0
M  V30 3693 H 350.445 2.16983 -4.33643 0
M  V30 3694 N 351.788 1.33704 0.83433 0
M  V30 3695 C 353.199 1.22813 1.4062 0
M  V30 3696 C 353.55 -0.151107 1.95617 0
M  V30 3697 O 352.675 -1.05092 1.89168 0
M  V30 3698 C 353.27 2.22355 2.55624 0
M  V30 3699 C 351.829 2.1529 3.08751 0
M  V30 3700 C 350.976 2.09589 1.8157 0
M  V30 3701 H 353.927 1.45236 0.639702 0
M  V30 3702 H 353.948 1.83391 3.33389 0
M  V30 3703 H 353.46 3.22728 2.15566 0
M  V30 3704 H 351.561 1.18235 3.53343 0
M  V30 3705 H 351.674 3.06038 3.68616 0
M  V30 3706 H 350.038 1.55134 2.02004 0
M  V30 3707 H 350.821 3.11777 1.43701 0
M  V30 3708 N 353.266 -1.05314 1.17247 0
M  V30 3709 C 354.494 -1.81971 0.984593 0
M  V30 3710 C 354.909 -1.82929 -0.467166 0
M  V30 3711 O 354.266 -1.25564 -1.32438 0
M  V30 3712 C 354.317 -3.28143 1.51672 0
M  V30 3713 O 354.038 -3.27347 2.91163 0
M  V30 3714 C 355.539 -4.21493 1.37326 0
M  V30 3715 H 352.759 -0.573455 0.348411 0
M  V30 3716 H 355.303 -1.32808 1.55506 0
M  V30 3717 H 353.458 -3.74582 0.988302 0
M  V30 3718 H 353.872 -4.18824 3.15732 0
M  V30 3719 H 355.346 -5.22043 1.79375 0
M  V30 3720 H 355.823 -4.38031 0.320169 0
M  V30 3721 H 356.429 -3.80909 1.89178 0
M  V30 3722 N 354.744 -0.972509 -1.24016 0
M  V30 3723 C 355.969 -0.654417 -1.96805 0
M  V30 3724 C 356.394 0.770398 -1.716 0
M  V30 3725 O 355.752 1.52361 -0.982647 0
M  V30 3726 C 355.8 -0.941031 -3.48105 0
M  V30 3727 O 354.904 -0.0289472 -4.1239 0
M  V30 3728 H 354.245 -0.24692 -0.616382 0
M  V30 3729 H 356.775 -1.30396 -1.57664 0
M  V30 3730 H 356.785 -0.87452 -3.98517 0
M  V30 3731 H 355.46 -1.97939 -3.65777 0
M  V30 3732 H 354.037 -0.149192 -3.72601 0
M  V30 3733 N 356.222 1.38976 -0.743202 0
M  V30 3734 C 357.462 2.02193 -0.29954 0
M  V30 3735 C 357.826 1.5771 1.09506 0
M  V30 3736 O 359.027 2.13184 1.63726 0
M  V30 3737 C 357.298 3.55077 -0.406822 0
M  V30 3738 S 358.857 4.38778 -0.0442109 0
M  V30 3739 H 355.675 0.701335 -0.116836 0
M  V30 3740 H 358.277 1.69651 -0.971529 0
M  V30 3741 H 356.981 3.84942 -1.42295 0
M  V30 3742 H 356.512 3.92383 0.282707 0
M  V30 3743 H 358.527 4.82222 1.16947 0
M  V30 3744 N 357.7 0.491464 1.49741 0
M  V30 3745 C 358.948 -0.0563141 2.02022 0
M  V30 3746 C 359.269 -1.38363 1.37407 0
M  V30 3747 O 358.539 -1.88702 0.526166 0
M  V30 3748 H 357.119 -0.0238014 0.746621 0
M  V30 3749 H 359.781 0.646533 1.83864 0
M  V30 3750 H 358.877 -0.192967 3.11503 0
M  V30 3751 N 359.178 -1.55987 0.224894 0
M  V30 3752 C 360.141 -2.19178 -0.670348 0
M  V30 3753 C 361.141 -1.15461 -1.11917 0
M  V30 3754 O 362.331 -1.40675 -1.02743 0
M  V30 3755 C 359.463 -2.81777 -1.9187 0
M  V30 3756 H 360.656 -2.99662 -0.119364 0
M  V30 3757 H 358.209 -1.5628 -0.0247128 0
M  V30 3758 H 358.944 -2.05172 -2.51147 0
M  V30 3759 H 358.729 -3.57732 -1.60531 0
M  V30 3760 H 360.219 -3.30205 -2.55645 0
M  V30 3761 N 360.656 0.0484629 -1.57525 0
M  V30 3762 C 361.886 0.754326 -1.92337 0
M  V30 3763 C 362.294 1.70443 -0.82132 0
M  V30 3764 O 361.637 1.82466 0.21254 0
M  V30 3765 C 361.699 1.58231 -3.22805 0
M  V30 3766 C 361.363 0.799074 -4.4996 0
M  V30 3767 C 362.36 0.1079 -5.19788 0
M  V30 3768 C 360.045 0.759345 -4.96527 0
M  V30 3769 C 362.039 -0.612516 -6.3445 0
M  V30 3770 C 359.726 0.0351713 -6.1109 0
M  V30 3771 C 360.724 -0.649537 -6.79904 0
M  V30 3772 O 360.412 -1.36199 -7.92278 0
M  V30 3773 H 360.144 0.218257 -0.639797 0
M  V30 3774 H 362.698 0.0159295 -2.05394 0
M  V30 3775 H 360.928 2.36406 -3.06021 0
M  V30 3776 H 362.617 2.16898 -3.43089 0
M  V30 3777 H 363.383 0.129748 -4.84826 0
M  V30 3778 H 359.262 1.28177 -4.42822 0
M  V30 3779 H 362.806 -1.14751 -6.88097 0
M  V30 3780 H 358.703 0.0113314 -6.45499 0
M  V30 3781 H 359.471 -1.27366 -8.0853 0
M  V30 3782 N 362.134 1.5431 0.320358 0
M  V30 3783 C 363.081 1.83918 1.39438 0
M  V30 3784 C 364.051 0.686525 1.51248 0
M  V30 3785 O 365.236 0.933269 1.66417 0
M  V30 3786 C 362.376 2.075 2.75749 0
M  V30 3787 C 361.489 3.35177 2.72544 0
M  V30 3788 C 360.624 3.48704 4.00723 0
M  V30 3789 C 359.663 4.70244 3.91838 0
M  V30 3790 N 358.8 4.80679 5.11754 0
M  V30 3791 H 363.64 2.75544 1.13489 0
M  V30 3792 H 361.177 1.36459 0.549309 0
M  V30 3793 H 363.135 2.19166 3.54996 0
M  V30 3794 H 361.765 1.19163 3 0
M  V30 3795 H 360.817 3.32233 1.85271 0
M  V30 3796 H 362.129 4.24534 2.61863 0
M  V30 3797 H 361.283 3.59928 4.88402 0
M  V30 3798 H 360.022 2.57445 4.14214 0
M  V30 3799 H 359.027 4.59072 3.02544 0
M  V30 3800 H 360.252 5.6289 3.7991 0
M  V30 3801 H 358.198 3.92337 5.25745 0
M  V30 3802 H 358.115 5.64007 5.0342 0
M  V30 3803 H 359.383 4.96239 6.01138 0
M  V30 3804 N 363.613 -0.582584 1.46437 0
M  V30 3805 C 364.563 -1.68654 1.53426 0
M  V30 3806 C 365.547 -1.55971 0.395194 0
M  V30 3807 O 366.739 -1.64884 0.643612 0
M  V30 3808 C 363.868 -3.07439 1.52762 0
M  V30 3809 C 362.954 -3.25418 2.71963 0
M  V30 3810 N 363.345 -3.13556 3.96883 0
M  V30 3811 C 361.643 -3.56357 2.68189 0
M  V30 3812 C 362.344 -3.33543 4.76575 0
M  V30 3813 N 361.32 -3.58704 4.08451 0
M  V30 3814 H 365.122 -1.58014 2.47808 0
M  V30 3815 H 362.636 -0.786617 1.42078 0
M  V30 3816 H 364.633 -3.86671 1.55857 0
M  V30 3817 H 363.293 -3.1921 0.594573 0
M  V30 3818 H 364.304 -2.9142 4.28129 0
M  V30 3819 H 360.981 -3.74812 1.83908 0
M  V30 3820 H 362.371 -3.29555 5.85528 0
M  V30 3821 N 365.091 -1.34144 -0.827227 0
M  V30 3822 C 366.507 -1.13732 -1.11969 0
M  V30 3823 C 366.707 0.0640463 -2.01398 0
M  V30 3824 O 365.763 0.740856 -2.41387 0
M  V30 3825 C 367.076 -2.43047 -1.77055 0
M  V30 3826 C 368.624 -2.49063 -1.89569 0
M  V30 3827 C 369.099 -3.78369 -2.58072 0
M  V30 3828 N 370.59 -3.79505 -2.65575 0
M  V30 3829 C 371.325 -4.76274 -3.19297 0
M  V30 3830 N 370.821 -5.83424 -3.73616 0
M  V30 3831 N 372.614 -4.63735 -3.17658 0
M  V30 3832 H 364.765 -2.11126 -0.232296 0
M  V30 3833 H 367.028 -0.933424 -0.165602 0
M  V30 3834 H 366.734 -3.31025 -1.18807 0
M  V30 3835 H 366.608 -2.56066 -2.76966 0
M  V30 3836 H 368.995 -1.61527 -2.46968 0
M  V30 3837 H 369.076 -2.39975 -0.885745 0
M  V30 3838 H 368.72 -4.66293 -2.01329 0
M  V30 3839 H 368.65 -3.84737 -3.59562 0
M  V30 3840 H 371.141 -3.02074 -2.27068 0
M  V30 3841 H 371.454 -6.53282 -4.12846 0
M  V30 3842 H 369.799 -5.87143 -3.71871 0
M  V30 3843 H 372.99 -3.79177 -2.74486 0
M  V30 3844 H 373.163 -5.39318 -3.59221 0
M  V30 3845 N 366.569 1.04691 -1.17803 0
M  V30 3846 C 367.532 2.10724 -0.901545 0
M  V30 3847 C 368.532 1.6042 0.110437 0
M  V30 3848 O 369.722 1.7377 -0.122303 0
M  V30 3849 C 366.854 3.39084 -0.351409 0
M  V30 3850 H 368.047 2.36686 -1.84174 0
M  V30 3851 H 365.6 1.21015 -0.98919 0
M  V30 3852 H 366.335 3.18782 0.59569 0
M  V30 3853 H 366.12 3.76909 -1.08083 0
M  V30 3854 H 367.61 4.17227 -0.176451 0
M  V30 3855 N 368.047 0.979072 1.23499 0
M  V30 3856 C 369.275 0.665202 1.95915 0
M  V30 3857 C 369.69 -0.767571 1.72493 0
M  V30 3858 O 369.047 -1.51635 1.01554 0
M  V30 3859 C 369.098 0.944438 3.48945 0
M  V30 3860 O 368.819 2.3209 3.71572 0
M  V30 3861 C 370.32 0.646336 4.38563 0
M  V30 3862 H 367.54 0.247218 0.623798 0
M  V30 3863 H 370.084 1.31009 1.57025 0
M  V30 3864 H 368.239 0.345575 3.85856 0
M  V30 3865 H 368.653 2.40957 4.65876 0
M  V30 3866 H 370.127 0.892091 5.44744 0
M  V30 3867 H 370.604 -0.419575 4.37191 0
M  V30 3868 H 371.21 1.22562 4.07258 0
M  V30 3869 N 369.525 -1.3858 0.750561 0
M  V30 3870 C 370.457 -2.29057 0.0810714 0
M  V30 3871 C 371.47 -1.47596 -0.686973 0
M  V30 3872 O 372.659 -1.70495 -0.528563 0
M  V30 3873 C 369.759 -3.26475 -0.909247 0
M  V30 3874 C 368.932 -4.36945 -0.199478 0
M  V30 3875 C 367.991 -5.14572 -1.10011 0
M  V30 3876 O 367.017 -5.66321 -0.57177 0
M  V30 3877 N 368.219 -5.27262 -2.42849 0
M  V30 3878 H 370.984 -2.87153 0.858087 0
M  V30 3879 H 368.545 -1.50328 0.60109 0
M  V30 3880 H 370.537 -3.75285 -1.51471 0
M  V30 3881 H 369.107 -2.69298 -1.58736 0
M  V30 3882 H 368.327 -3.8981 0.586664 0
M  V30 3883 H 369.615 -5.07963 0.291783 0
M  V30 3884 H 369.013 -4.86763 -2.88233 0
M  V30 3885 H 367.57 -5.79456 -2.98453 0
M  V30 3886 N 371.003 -0.499398 -1.49478 0
M  V30 3887 C 371.936 0.326491 -2.25852 0
M  V30 3888 C 372.914 0.971776 -1.30366 0
M  V30 3889 O 374.098 1.00219 -1.59651 0
M  V30 3890 C 371.225 1.45969 -3.05632 0
M  V30 3891 C 370.271 0.928938 -4.16261 0
M  V30 3892 S 371.104 -0.179012 -5.35201 0
M  V30 3893 C 372.26 0.957389 -6.18534 0
M  V30 3894 H 372.493 -0.321746 -2.95554 0
M  V30 3895 H 370.026 -0.284674 -1.51753 0
M  V30 3896 H 371.984 2.109 -3.52181 0
M  V30 3897 H 370.645 2.07953 -2.35402 0
M  V30 3898 H 369.838 1.77813 -4.71592 0
M  V30 3899 H 369.44 0.356869 -3.72293 0
M  V30 3900 H 371.732 1.86296 -6.51383 0
M  V30 3901 H 372.675 0.442733 -7.06715 0
M  V30 3902 H 373.083 1.224 -5.5107 0
M  V30 3903 N 372.481 1.55866 -0.233164 0
M  V30 3904 C 373.758 1.90471 0.444988 0
M  V30 3905 C 374.138 1.15209 1.7689 0
M  V30 3906 O 373.486 0.265119 2.26957 0
M  V30 3907 C 373.696 3.4333 0.626559 0
M  V30 3908 C 375.044 4.14319 0.92871 0
M  V30 3909 O 376.068 3.48993 0.712926 0
M  V30 3910 O 374.927 5.29846 1.33887 0
M  V30 3911 H 372.021 0.792347 0.236885 0
M  V30 3912 H 374.567 1.67437 -0.276211 0
M  V30 3913 H 373.339 3.90095 -0.306822 0
M  V30 3914 H 372.962 3.72181 1.39881 0
M  V30 3915 N 373.959 -0.0401083 1.57549 0
M  V30 3916 C 374.922 -1.02871 2.04817 0
M  V30 3917 C 375.922 -1.29708 0.950388 0
M  V30 3918 O 377.112 -1.24897 1.21435 0
M  V30 3919 C 374.244 -2.36443 2.45576 0
M  V30 3920 H 375.437 -0.620631 2.93408 0
M  V30 3921 H 372.99 -0.286667 1.53649 0
M  V30 3922 H 373.725 -2.82021 1.60108 0
M  V30 3923 H 373.51 -2.18296 3.25713 0
M  V30 3924 H 375 -3.07441 2.82612 0
M  V30 3925 N 375.437 -1.54477 -0.31217 0
M  V30 3926 C 376.684 -1.73227 -1.04875 0
M  V30 3927 C 377.012 -0.512042 -1.87639 0
M  V30 3928 O 376.267 0.506131 -1.89042 0
M  V30 3929 C 376.566 -2.967 -1.99258 0
M  V30 3930 C 376.232 -4.30974 -1.32559 0
M  V30 3931 C 374.894 -4.67477 -1.141 0
M  V30 3932 C 377.246 -5.14258 -0.847835 0
M  V30 3933 C 374.574 -5.84852 -0.465326 0
M  V30 3934 C 376.926 -6.32327 -0.185931 0
M  V30 3935 C 375.59 -6.67499 0.0107077 0
M  V30 3936 H 374.86 -0.633881 -0.383765 0
M  V30 3937 H 377.507 -1.88727 -0.324731 0
M  V30 3938 H 375.812 -2.75935 -2.7815 0
M  V30 3939 H 377.509 -3.08401 -2.563 0
M  V30 3940 H 374.099 -4.02262 -1.4793 0
M  V30 3941 H 378.283 -4.86565 -0.978192 0
M  V30 3942 H 373.539 -6.10654 -0.301883 0
M  V30 3943 H 377.713 -6.96135 0.192211 0
M  V30 3944 H 375.34 -7.58306 0.536287 0
M  V30 3945 N 376.915 0.57481 -1.46744 0
M  V30 3946 C 377.847 1.69804 -1.53946 0
M  V30 3947 C 378.86 1.57098 -0.427106 0
M  V30 3948 O 380.049 1.64378 -0.695863 0
M  V30 3949 C 377.149 3.08125 -1.4111 0
M  V30 3950 C 376.322 3.46757 -2.66605 0
M  V30 3951 C 375.381 4.6417 -2.47855 0
M  V30 3952 O 374.407 4.69634 -3.21609 0
M  V30 3953 N 375.609 5.59553 -1.54534 0
M  V30 3954 H 378.374 1.64077 -2.50796 0
M  V30 3955 H 375.935 0.761 -1.429 0
M  V30 3956 H 377.927 3.84478 -1.26328 0
M  V30 3957 H 376.497 3.08175 -0.524109 0
M  V30 3958 H 375.717 2.6003 -2.96274 0
M  V30 3959 H 377.005 3.69337 -3.49954 0
M  V30 3960 H 376.403 5.57881 -0.937304 0
M  V30 3961 H 374.96 6.35304 -1.45711 0
M  V30 3962 N 378.394 1.34581 0.820102 0
M  V30 3963 C 379.304 1.28471 1.96297 0
M  V30 3964 C 380.32 0.191902 1.72939 0
M  V30 3965 O 381.496 0.418879 1.96996 0
M  V30 3966 C 378.561 1.04281 3.30645 0
M  V30 3967 C 377.622 2.22745 3.66992 0
M  V30 3968 C 376.855 1.997 4.9493 0
M  V30 3969 O 377.078 0.956656 5.6232 0
M  V30 3970 O 376.012 2.86723 5.2922 0
M  V30 3971 H 379.838 2.24624 2.04396 0
M  V30 3972 H 377.423 1.14816 0.955913 0
M  V30 3973 H 379.305 0.925841 4.11104 0
M  V30 3974 H 377.98 0.111697 3.23507 0
M  V30 3975 H 376.887 2.40003 2.86966 0
M  V30 3976 H 378.22 3.14257 3.78819 0
M  V30 3977 N 379.872 -1.04064 1.18357 0
M  V30 3978 C 381.288 -1.2947 0.933258 0
M  V30 3979 C 381.488 -1.97466 -0.401169 0
M  V30 3980 O 380.544 -2.25528 -1.13549 0
M  V30 3981 C 381.857 -2.15337 2.09882 0
M  V30 3982 C 383.405 -2.28683 2.13712 0
M  V30 3983 C 383.88 -3.17917 3.29686 0
M  V30 3984 N 385.371 -3.25504 3.29547 0
M  V30 3985 C 386.106 -3.94706 4.15926 0
M  V30 3986 N 385.602 -4.66239 5.12439 0
M  V30 3987 N 387.395 -3.90986 4.0384 0
M  V30 3988 H 379.546 -0.583359 2.04232 0
M  V30 3989 H 381.809 -0.319921 0.892387 0
M  V30 3990 H 381.515 -1.72682 3.06389 0
M  V30 3991 H 381.389 -3.16015 2.05947 0
M  V30 3992 H 383.776 -2.70575 1.17784 0
M  V30 3993 H 383.857 -1.27596 2.21705 0
M  V30 3994 H 383.501 -2.76736 4.25887 0
M  V30 3995 H 383.431 -4.19036 3.1893 0
M  V30 3996 H 385.922 -2.74547 2.59677 0
M  V30 3997 H 386.235 -5.16638 5.74722 0
M  V30 3998 H 384.58 -4.65143 5.16398 0
M  V30 3999 H 387.771 -3.34234 3.27727 0
M  V30 4000 H 387.944 -4.44646 4.71375 0
M  V30 4001 N 381.35 -0.985608 -1.22978 0
M  V30 4002 C 382.596 -0.65836 -1.91816 0
M  V30 4003 C 382.929 0.806692 -1.76653 0
M  V30 4004 O 382.204 1.58252 -1.13078 0
M  V30 4005 C 382.487 -1.056 -3.44268 0
M  V30 4006 C 382.34 -2.57906 -3.68516 0
M  V30 4007 C 383.659 -0.603781 -4.35939 0
M  V30 4008 H 380.778 -0.24065 -0.696604 0
M  V30 4009 H 383.42 -1.22783 -1.44998 0
M  V30 4010 H 381.57 -0.571445 -3.84274 0
M  V30 4011 H 383.242 -3.13976 -3.3796 0
M  V30 4012 H 381.485 -3.00305 -3.13048 0
M  V30 4013 H 382.156 -2.80779 -4.75255 0
M  V30 4014 H 384.632 -1.01987 -4.03408 0
M  V30 4015 H 383.508 -0.910383 -5.41298 0
M  V30 4016 H 383.769 0.495761 -4.39312 0
M  V30 4017 N 382.828 1.3818 -0.7579 0
M  V30 4018 C 384.053 2.04827 -0.325679 0
M  V30 4019 C 384.478 1.56788 1.03919 0
M  V30 4020 O 383.836 0.721811 1.66312 0
M  V30 4021 C 383.884 3.58774 -0.362447 0
M  V30 4022 O 382.988 4.07372 0.642033 0
M  V30 4023 H 382.329 0.64833 -0.143402 0
M  V30 4024 H 384.859 1.7677 -1.03023 0
M  V30 4025 H 384.869 4.07434 -0.214844 0
M  V30 4026 H 383.544 3.93096 -1.35824 0
M  V30 4027 H 382.121 3.70068 0.458688 0
M  V30 4028 N 384.306 0.507319 1.49211 0
M  V30 4029 C 385.717 0.0611118 1.866 0
M  V30 4030 C 386.068 -1.35488 1.41907 0
M  V30 4031 O 385.193 -2.0108 0.799726 0
M  V30 4032 C 385.788 0.104125 3.3864 0
M  V30 4033 C 384.347 -0.28677 3.75306 0
M  V30 4034 C 383.494 0.473893 2.73221 0
M  V30 4035 H 386.445 0.719775 1.41439 0
M  V30 4036 H 386.466 -0.689672 3.74198 0
M  V30 4037 H 385.978 1.13482 3.71138 0
M  V30 4038 H 384.079 -1.32046 3.48417 0
M  V30 4039 H 384.192 0.0370745 4.79086 0
M  V30 4040 H 382.556 -0.0770644 2.54583 0
M  V30 4041 H 383.339 1.50478 3.08563 0
M  V30 4042 N 385.784 -1.5574 0.241426 0
M  V30 4043 C 386.694 -2.2479 -0.671305 0
M  V30 4044 C 387.71 -1.26217 -1.19772 0
M  V30 4045 O 388.886 -1.59079 -1.23514 0
M  V30 4046 C 385.951 -2.92966 -1.85396 0
M  V30 4047 C 385.012 -4.06935 -1.36756 0
M  V30 4048 C 384.245 -4.71851 -2.49384 0
M  V30 4049 O 384.468 -4.35823 -3.67987 0
M  V30 4050 O 383.402 -5.60467 -2.19454 0
M  V30 4051 H 387.228 -3.0349 -0.112966 0
M  V30 4052 H 384.813 -1.49397 0.0101513 0
M  V30 4053 H 386.695 -3.35927 -2.54423 0
M  V30 4054 H 385.37 -2.17211 -2.40002 0
M  V30 4055 H 384.277 -3.68503 -0.644726 0
M  V30 4056 H 385.61 -4.84492 -0.867647 0
M  V30 4057 N 387.262 0.0317525 -1.57568 0
M  V30 4058 C 388.192 1.03274 -2.0942 0
M  V30 4059 C 389.173 1.3788 -0.996143 0
M  V30 4060 O 390.358 1.46811 -1.27122 0
M  V30 4061 C 387.488 2.33448 -2.57137 0
M  V30 4062 C 386.442 2.13091 -3.71182 0
M  V30 4063 C 385.768 3.49001 -4.05095 0
M  V30 4064 C 387.068 1.51928 -4.99715 0
M  V30 4065 H 388.762 0.60112 -2.93303 0
M  V30 4066 H 386.308 0.287705 -1.41097 0
M  V30 4067 H 388.261 3.03802 -2.92032 0
M  V30 4068 H 386.985 2.78665 -1.70333 0
M  V30 4069 H 385.644 1.45171 -3.36632 0
M  V30 4070 H 385.292 3.91862 -3.15362 0
M  V30 4071 H 384.992 3.36207 -4.81911 0
M  V30 4072 H 386.516 4.20721 -4.42522 0
M  V30 4073 H 387.93 2.12196 -5.32584 0
M  V30 4074 H 386.327 1.49716 -5.81124 0
M  V30 4075 H 387.397 0.484811 -4.8247 0
M  V30 4076 N 388.74 1.54641 0.303973 0
M  V30 4077 C 389.988 1.73437 1.0375 0
M  V30 4078 C 390.309 0.521449 1.87899 0
M  V30 4079 O 389.579 -0.46432 1.90318 0
M  V30 4080 H 388.159 0.639518 0.386039 0
M  V30 4081 H 390.821 1.91988 0.335675 0
M  V30 4082 H 389.917 2.62235 1.69231 0
M  V30 4083 N 390.218 -0.567019 1.47046 0
M  V30 4084 C 391.495 -1.3276 1.43646 0
M  V30 4085 C 391.875 -2.1071 0.128186 0
M  V30 4086 O 391.223 -2.10441 -0.890326 0
M  V30 4087 C 391.433 -2.2404 2.67595 0
M  V30 4088 C 392.781 -2.85372 3.14401 0
M  V30 4089 O 393.805 -2.34346 2.68254 0
M  V30 4090 O 392.664 -3.78091 3.946 0
M  V30 4091 H 389.758 -0.597293 0.571988 0
M  V30 4092 H 392.304 -0.586735 1.59234 0
M  V30 4093 H 391.076 -1.65975 3.54356 0
M  V30 4094 H 390.699 -3.05439 2.54544 0
M  V30 4095 N 391.696 -1.35014 -0.812953 0
M  V30 4096 C 392.924 -1.31031 -1.6012 0
M  V30 4097 C 393.339 0.113558 -1.88458 0
M  V30 4098 O 392.696 1.06363 -1.48301 0
M  V30 4099 C 392.747 -2.10872 -2.93624 0
M  V30 4100 O 392.468 -3.47706 -2.66518 0
M  V30 4101 C 393.969 -2.14401 -3.88004 0
M  V30 4102 H 391.189 -0.45037 -0.497401 0
M  V30 4103 H 393.733 -1.77775 -1.01076 0
M  V30 4104 H 391.888 -1.67744 -3.492 0
M  V30 4105 H 392.302 -3.89097 -3.51715 0
M  V30 4106 H 393.776 -2.74669 -4.78812 0
M  V30 4107 H 394.253 -1.14105 -4.24119 0
M  V30 4108 H 394.859 -2.57662 -3.38364 0
M  V30 4109 N 393.175 1.03435 -1.18907 0
M  V30 4110 C 394.105 2.13503 -0.945448 0
M  V30 4111 C 395.086 1.69682 0.119189 0
M  V30 4112 O 396.271 1.94169 -0.034707 0
M  V30 4113 C 393.401 3.44004 -0.477316 0
M  V30 4114 C 392.355 4.0148 -1.48316 0
M  V30 4115 C 391.681 5.27537 -0.872311 0
M  V30 4116 C 392.981 4.36921 -2.86177 0
M  V30 4117 H 394.675 2.34141 -1.86597 0
M  V30 4118 H 392.221 1.12523 -0.898584 0
M  V30 4119 H 394.174 4.20372 -0.294204 0
M  V30 4120 H 392.898 3.23072 0.478786 0
M  V30 4121 H 391.557 3.27201 -1.65332 0
M  V30 4122 H 391.205 5.02917 0.0911752 0
M  V30 4123 H 390.905 5.66954 -1.54393 0
M  V30 4124 H 392.429 6.06576 -0.699871 0
M  V30 4125 H 393.843 5.04248 -2.72776 0
M  V30 4126 H 392.24 4.87405 -3.50081 0
M  V30 4127 H 393.31 3.46466 -3.39248 0
M  V30 4128 N 394.653 0.992116 1.22453 0
M  V30 4129 C 395.9 0.667534 1.91181 0
M  V30 4130 C 396.228 -0.800317 1.77271 0
M  V30 4131 O 395.483 -1.59421 1.13505 0
M  V30 4132 C 395.782 1.01832 3.42586 0
M  V30 4133 C 395.448 2.47831 3.76684 0
M  V30 4134 C 394.11 2.87729 3.85701 0
M  V30 4135 C 396.462 3.42466 3.92895 0
M  V30 4136 C 393.79 4.21252 4.08367 0
M  V30 4137 C 396.142 4.75648 4.17064 0
M  V30 4138 C 394.806 5.15288 4.24305 0
M  V30 4139 H 394.076 0.244268 0.699581 0
M  V30 4140 H 396.723 1.24816 1.45235 0
M  V30 4141 H 395.028 0.355769 3.90181 0
M  V30 4142 H 396.725 0.745228 3.94014 0
M  V30 4143 H 393.315 2.15905 3.70247 0
M  V30 4144 H 397.499 3.12814 3.85307 0
M  V30 4145 H 392.755 4.51554 4.122 0
M  V30 4146 H 396.929 5.48924 4.2855 0
M  V30 4147 H 394.556 6.18769 4.41621 0
M  V30 4148 N 396.131 -1.37776 0.765217 0
M  V30 4149 C 397.094 -2.28686 0.153416 0
M  V30 4150 C 398.094 -1.47727 -0.635081 0
M  V30 4151 O 399.284 -1.68027 -0.459632 0
M  V30 4152 C 396.416 -3.31608 -0.790495 0
M  V30 4153 H 397.609 -2.84297 0.954723 0
M  V30 4154 H 395.162 -1.46932 0.53299 0
M  V30 4155 H 395.897 -2.81109 -1.61705 0
M  V30 4156 H 395.682 -3.9144 -0.227348 0
M  V30 4157 H 397.172 -3.99559 -1.21419 0
M  V30 4158 N 397.609 -0.515225 -1.4894 0
M  V30 4159 C 398.539 0.244628 -2.32215 0
M  V30 4160 C 399.52 0.949136 -1.41157 0
M  V30 4161 O 400.705 0.937783 -1.70057 0
M  V30 4162 C 397.835 1.30096 -3.22013 0
M  V30 4163 C 396.789 0.715486 -4.21977 0
M  V30 4164 C 396.115 1.87339 -5.00808 0
M  V30 4165 C 397.415 -0.302982 -5.2142 0
M  V30 4166 H 399.109 -0.450501 -2.95991 0
M  V30 4167 H 396.655 -0.218098 -1.42339 0
M  V30 4168 H 398.608 1.84037 -3.79089 0
M  V30 4169 H 397.332 2.02547 -2.56207 0
M  V30 4170 H 395.991 0.197715 -3.66066 0
M  V30 4171 H 395.639 2.58592 -4.31438 0
M  V30 4172 H 395.339 1.48764 -5.68457 0
M  V30 4173 H 396.863 2.41686 -5.60732 0
M  V30 4174 H 398.277 0.148802 -5.73107 0
M  V30 4175 H 396.674 -0.60532 -5.97039 0
M  V30 4176 H 397.744 -1.21395 -4.69459 0
M  V30 4177 N 399.087 1.5561 -0.249682 0
M  V30 4178 C 400.334 1.99011 0.374287 0
M  V30 4179 C 400.662 1.13785 1.57744 0
M  V30 4180 O 399.917 0.189326 1.94782 0
M  V30 4181 C 400.216 3.4775 0.824887 0
M  V30 4182 C 399.882 4.50086 -0.270819 0
M  V30 4183 C 398.544 4.77791 -0.571746 0
M  V30 4184 C 400.896 5.11312 -1.01041 0
M  V30 4185 C 398.224 5.63997 -1.61629 0
M  V30 4186 C 400.576 5.98651 -2.0445 0
M  V30 4187 C 399.24 6.24688 -2.35204 0
M  V30 4188 H 398.51 0.728233 0.136961 0
M  V30 4189 H 401.157 1.88122 -0.358087 0
M  V30 4190 H 399.462 3.55985 1.63651 0
M  V30 4191 H 401.159 3.78721 1.31799 0
M  V30 4192 H 397.749 4.28592 -0.026136 0
M  V30 4193 H 401.933 4.89953 -0.791177 0
M  V30 4194 H 397.189 5.82425 -1.85988 0
M  V30 4195 H 401.363 6.45135 -2.62248 0
M  V30 4196 H 398.99 6.91281 -3.16282 0
M  V30 4197 N 400.565 -0.0233959 1.57583 0
M  V30 4198 C 401.512 -1.02224 2.06927 0
M  V30 4199 C 402.482 -1.35575 0.959617 0
M  V30 4200 O 403.667 -1.45815 1.23055 0
M  V30 4201 C 400.807 -2.31636 2.5581 0
M  V30 4202 C 399.92 -2.04394 3.80588 0
M  V30 4203 C 399.055 -3.27717 4.18061 0
M  V30 4204 C 398.094 -2.96056 5.3574 0
M  V30 4205 N 397.231 -4.11847 5.68618 0
M  V30 4206 H 402.071 -0.594504 2.9201 0
M  V30 4207 H 399.608 -0.281921 1.44373 0
M  V30 4208 H 401.566 -3.07258 2.82221 0
M  V30 4209 H 400.196 -2.72122 1.73636 0
M  V30 4210 H 399.248 -1.19244 3.61227 0
M  V30 4211 H 400.56 -1.77042 4.66323 0
M  V30 4212 H 399.714 -4.11702 4.4563 0
M  V30 4213 H 398.453 -3.58188 3.30988 0
M  V30 4214 H 397.458 -2.10474 5.07918 0
M  V30 4215 H 398.683 -2.66857 6.24471 0
M  V30 4216 H 396.629 -4.42258 4.84504 0
M  V30 4217 H 396.546 -3.87938 6.48876 0
M  V30 4218 H 397.814 -4.96689 6.00766 0
M  V30 4219 N 402.043 -1.548 -0.295768 0
M  V30 4220 C 403.271 -1.78327 -1.04914 0
M  V30 4221 C 403.686 -0.545316 -1.80753 0
M  V30 4222 O 403.043 0.485013 -1.75937 0
M  V30 4223 C 403.094 -2.99418 -2.02561 0
M  V30 4224 O 402.815 -4.18431 -1.29798 0
M  V30 4225 C 404.316 -3.35375 -2.89895 0
M  V30 4226 H 401.536 -0.594618 -0.310918 0
M  V30 4227 H 404.08 -2.01763 -0.333454 0
M  V30 4228 H 402.235 -2.78175 -2.69624 0
M  V30 4229 H 402.649 -4.86736 -1.95419 0
M  V30 4230 H 404.123 -4.23332 -3.54251 0
M  V30 4231 H 404.6 -2.53761 -3.58472 0
M  V30 4232 H 405.206 -3.58796 -2.28355 0
M  V30 4233 N 403.521 0.559213 -1.47345 0
M  V30 4234 C 404.453 1.68161 -1.55738 0
M  V30 4235 C 405.466 1.56636 -0.443744 0
M  V30 4236 O 406.655 1.6363 -0.713258 0
M  V30 4237 C 403.755 3.06611 -1.4437 0
M  V30 4238 C 402.928 3.4391 -2.70268 0
M  V30 4239 C 401.987 4.61515 -2.52765 0
M  V30 4240 O 401.013 4.66197 -3.26572 0
M  V30 4241 N 402.215 5.57883 -1.6046 0
M  V30 4242 H 404.98 1.61408 -2.52522 0
M  V30 4243 H 402.541 0.7458 -1.43699 0
M  V30 4244 H 404.533 3.83117 -1.30398 0
M  V30 4245 H 403.103 3.07602 -0.556766 0
M  V30 4246 H 402.323 2.56873 -2.99015 0
M  V30 4247 H 403.611 3.65605 -3.53851 0
M  V30 4248 H 403.009 5.56855 -0.996422 0
M  V30 4249 H 401.566 6.33723 -1.52441 0
M  V30 4250 N 404.999 1.35443 0.805782 0
M  V30 4251 C 405.909 1.30546 1.94923 0
M  V30 4252 C 406.925 0.210233 1.72725 0
M  V30 4253 O 408.101 0.43975 1.9654 0
M  V30 4254 C 405.166 1.07782 3.29521 0
M  V30 4255 C 404.227 2.26625 3.64609 0
M  V30 4256 C 403.46 2.04938 4.92784 0
M  V30 4257 O 403.683 1.01624 5.61274 0
M  V30 4258 O 402.617 2.9232 5.26149 0
M  V30 4259 H 406.443 2.26779 2.02002 0
M  V30 4260 H 404.028 1.15823 0.943682 0
M  V30 4261 H 405.91 0.969392 4.10098 0
M  V30 4262 H 404.585 0.146003 3.23371 0
M  V30 4263 H 403.492 2.43033 2.84404 0
M  V30 4264 H 404.825 3.18257 3.75464 0
M  V30 4265 N 406.477 -1.02803 1.19454 0
M  V30 4266 C 407.407 -2.12999 0.956758 0
M  V30 4267 C 408.388 -1.69743 -0.110188 0
M  V30 4268 O 409.573 -1.94148 0.0450038 0
M  V30 4269 C 406.703 -3.43746 0.495553 0
M  V30 4270 C 405.657 -4.00688 1.50443 0
M  V30 4271 C 404.983 -5.27067 0.900275 0
M  V30 4272 C 406.283 -4.35397 2.8849 0
M  V30 4273 H 407.977 -2.33148 1.87836 0
M  V30 4274 H 405.523 -1.12045 0.904539 0
M  V30 4275 H 407.476 -4.2021 0.316493 0
M  V30 4276 H 406.2 -3.23321 -0.461646 0
M  V30 4277 H 404.859 -3.2632 1.67065 0
M  V30 4278 H 404.507 -5.02959 -0.064503 0
M  V30 4279 H 404.207 -5.66127 1.57397 0
M  V30 4280 H 405.731 -6.06196 0.73203 0
M  V30 4281 H 407.145 -5.02795 2.75446 0
M  V30 4282 H 405.542 -4.85541 3.52661 0
M  V30 4283 H 406.612 -3.44662 3.41081 0
M  V30 4284 N 407.956 -0.998596 -1.21925 0
M  V30 4285 C 408.886 -0.573688 -2.26343 0
M  V30 4286 C 409.867 0.402296 -1.65274 0
M  V30 4287 O 411.052 0.291683 -1.91997 0
M  V30 4288 C 408.182 0.106839 -3.47136 0
M  V30 4289 C 407.136 -0.788269 -4.20678 0
M  V30 4290 C 406.462 0.0254927 -5.34694 0
M  V30 4291 C 407.762 -2.08784 -4.78755 0
M  V30 4292 H 409.456 -1.44651 -2.62138 0
M  V30 4293 H 407.002 -0.696975 -1.26009 0
M  V30 4294 H 408.955 0.415531 -4.19346 0
M  V30 4295 H 407.679 1.01424 -3.10452 0
M  V30 4296 H 406.338 -1.08069 -3.50309 0
M  V30 4297 H 405.986 0.933989 -4.94253 0
M  V30 4298 H 405.686 -0.570437 -5.84825 0
M  V30 4299 H 407.21 0.328147 -6.09718 0
M  V30 4300 H 408.624 -1.84272 -5.42878 0
M  V30 4301 H 407.021 -2.63307 -5.39249 0
M  V30 4302 H 408.091 -2.76284 -3.98491 0
M  V30 4303 N 409.434 1.37368 -0.772513 0
M  V30 4304 C 410.711 1.93839 -0.26188 0
M  V30 4305 C 411.091 1.7061 1.24319 0
M  V30 4306 O 410.439 1.05534 2.02669 0
M  V30 4307 C 410.649 3.43154 -0.636102 0
M  V30 4308 C 411.997 4.20249 -0.606324 0
M  V30 4309 O 413.021 3.5152 -0.575538 0
M  V30 4310 O 411.88 5.42809 -0.634086 0
M  V30 4311 H 408.974 0.82478 -0.0605555 0
M  V30 4312 H 411.52 1.4665 -0.853917 0
M  V30 4313 H 410.292 3.53647 -1.6748 0
M  V30 4314 H 409.915 3.97596 -0.0170516 0
M  V30 4315 N 410.912 0.523116 1.48665 0
M  V30 4316 C 412.189 -0.0775449 1.95446 0
M  V30 4317 C 412.569 -1.5197 1.4652 0
M  V30 4318 O 411.917 -2.17876 0.688657 0
M  V30 4319 C 412.127 0.0326135 3.48985 0
M  V30 4320 C 413.475 -0.130141 4.24401 0
M  V30 4321 O 414.499 -0.0415142 3.56176 0
M  V30 4322 O 413.358 -0.31491 5.45592 0
M  V30 4323 H 410.452 -0.0831012 0.822814 0
M  V30 4324 H 412.998 0.587227 1.59216 0
M  V30 4325 H 411.77 1.03748 3.77296 0
M  V30 4326 H 411.393 -0.671317 3.91892 0
M  V30 4327 N 412.39 -1.55475 0.257931 0
M  V30 4328 C 413.806 -1.59307 -0.0966563 0
M  V30 4329 C 414.006 -1.27514 -1.5602 0
M  V30 4330 O 413.062 -1.02774 -2.30637 0
M  V30 4331 C 414.375 -2.99552 0.262481 0
M  V30 4332 C 415.923 -3.1231 0.207683 0
M  V30 4333 C 416.398 -4.54793 0.541012 0
M  V30 4334 N 417.889 -4.6058 0.491921 0
M  V30 4335 C 418.624 -5.68825 0.722857 0
M  V30 4336 N 418.12 -6.85287 1.0175 0
M  V30 4337 N 419.913 -5.58296 0.652815 0
M  V30 4338 H 412.064 -1.74409 1.21224 0
M  V30 4339 H 414.327 -0.812424 0.48854 0
M  V30 4340 H 414.033 -3.27593 1.27967 0
M  V30 4341 H 413.907 -3.75019 -0.40508 0
M  V30 4342 H 416.294 -2.84044 -0.800195 0
M  V30 4343 H 416.375 -2.39095 0.909255 0
M  V30 4344 H 416.019 -4.83783 1.5465 0
M  V30 4345 H 415.949 -5.26285 -0.18216 0
M  V30 4346 H 418.44 -3.7691 0.273366 0
M  V30 4347 H 418.753 -7.63725 1.18084 0
M  V30 4348 H 417.098 -6.86945 1.05509 0
M  V30 4349 H 420.289 -4.66189 0.422592 0
M  V30 4350 H 420.462 -6.42582 0.836182 0
M  V30 4351 N 413.868 0.0150385 -1.57593 0
M  V30 4352 C 415.116 0.701613 -1.8953 0
M  V30 4353 C 415.437 1.75139 -0.857396 0
M  V30 4354 O 414.707 1.95607 0.107194 0
M  V30 4355 H 413.287 0.26213 -0.699498 0
M  V30 4356 H 415.949 -0.0223304 -1.94887 0
M  V30 4357 H 415.045 1.18236 -2.88837 0
M  V30 4358 N 415.346 1.54954 0.287554 0
M  V30 4359 C 416.592 1.75132 1.02257 0
M  V30 4360 C 416.925 0.542858 1.86458 0
M  V30 4361 O 416.2 -0.459856 1.88986 0
M  V30 4362 C 416.483 3.04812 1.91733 0
M  V30 4363 C 416.336 4.35985 1.10622 0
M  V30 4364 C 417.655 3.30438 2.90687 0
M  V30 4365 H 414.774 0.637194 0.370341 0
M  V30 4366 H 417.416 1.87678 0.296111 0
M  V30 4367 H 415.566 2.94247 2.53675 0
M  V30 4368 H 417.238 4.58487 0.508636 0
M  V30 4369 H 415.481 4.31865 0.409271 0
M  V30 4370 H 416.152 5.23017 1.76513 0
M  V30 4371 H 418.628 3.40701 2.38877 0
M  V30 4372 H 417.504 4.22467 3.50447 0
M  V30 4373 H 417.765 2.49377 3.65053 0
M  V30 4374 N 416.824 -0.551391 1.4764 0
M  V30 4375 C 418.073 -1.30467 1.53822 0
M  V30 4376 C 418.386 -1.94495 0.207661 0
M  V30 4377 O 419.592 -2.71099 0.147533 0
M  V30 4378 C 418.048 -2.36616 2.71184 0
M  V30 4379 C 417.656 -1.78754 4.10793 0
M  V30 4380 C 419.4 -3.13088 2.86663 0
M  V30 4381 C 417.307 -2.82717 5.19447 0
M  V30 4382 H 416.237 -0.490584 0.572576 0
M  V30 4383 H 418.888 -0.58494 1.73927 0
M  V30 4384 H 417.27 -3.11529 2.4447 0
M  V30 4385 H 418.444 -1.10173 4.47435 0
M  V30 4386 H 416.759 -1.14846 4.00249 0
M  V30 4387 H 419.356 -3.90736 3.65007 0
M  V30 4388 H 419.699 -3.67635 1.95321 0
M  V30 4389 H 420.232 -2.45288 3.13175 0
M  V30 4390 H 416.971 -2.33018 6.12685 0
M  V30 4391 H 416.491 -3.4969 4.87316 0
M  V30 4392 H 418.17 -3.46102 5.46646 0
M  V30 4393 N 418.302 -1.35869 -0.798587 0
M  V30 4394 C 419.232 -1.32118 -1.92528 0
M  V30 4395 C 420.213 -0.194209 -1.68988 0
M  V30 4396 O 421.398 -0.390426 -1.90235 0
M  V30 4397 C 418.528 -1.10047 -3.29404 0
M  V30 4398 C 417.482 -2.19471 -3.67446 0
M  V30 4399 C 416.808 -1.82555 -5.02571 0
M  V30 4400 C 418.108 -3.61495 -3.76987 0
M  V30 4401 H 419.802 -2.26394 -1.95924 0
M  V30 4402 H 417.348 -1.08981 -0.94123 0
M  V30 4403 H 419.301 -1.06061 -4.07835 0
M  V30 4404 H 418.025 -0.122195 -3.26371 0
M  V30 4405 H 416.684 -2.22568 -2.91306 0
M  V30 4406 H 416.332 -0.833249 -4.9605 0
M  V30 4407 H 416.032 -2.5581 -5.28995 0
M  V30 4408 H 417.556 -1.80108 -5.83432 0
M  V30 4409 H 418.97 -3.60676 -4.4563 0
M  V30 4410 H 417.367 -4.33577 -4.14887 0
M  V30 4411 H 418.437 -3.97065 -2.78329 0
M  V30 4412 N 419.78 1.02168 -1.19998 0
M  V30 4413 C 420.69 2.14069 -0.959774 0
M  V30 4414 C 421.706 1.73804 0.082655 0
M  V30 4415 O 422.882 2.01133 -0.103633 0
M  V30 4416 C 419.947 3.42936 -0.509459 0
M  V30 4417 C 419.008 3.97474 -1.62213 0
M  V30 4418 C 418.241 5.2019 -1.19321 0
M  V30 4419 O 418.464 5.70369 -0.0597726 0
M  V30 4420 O 417.398 5.67749 -1.99863 0
M  V30 4421 H 421.224 2.37199 -1.89658 0
M  V30 4422 H 418.809 1.12469 -0.983411 0
M  V30 4423 H 420.691 4.20551 -0.267322 0
M  V30 4424 H 419.366 3.21234 0.398821 0
M  V30 4425 H 418.273 3.21161 -1.9185 0
M  V30 4426 H 419.606 4.23555 -2.50723 0
M  V30 4427 N 421.258 1.00505 1.21394 0
M  V30 4428 C 422.504 0.688793 1.90745 0
M  V30 4429 C 422.837 -0.778486 1.77914 0
M  V30 4430 O 422.112 -1.56433 1.15581 0
M  V30 4431 C 422.395 1.11063 3.42545 0
M  V30 4432 C 422.248 2.63737 3.64367 0
M  V30 4433 C 423.567 0.673059 4.34923 0
M  V30 4434 H 420.686 0.251702 0.692687 0
M  V30 4435 H 423.328 1.25074 1.43026 0
M  V30 4436 H 421.478 0.632508 3.83317 0
M  V30 4437 H 423.15 3.19313 3.32922 0
M  V30 4438 H 421.393 3.05248 3.08231 0
M  V30 4439 H 422.064 2.88305 4.70727 0
M  V30 4440 H 424.54 1.08392 4.01734 0
M  V30 4441 H 423.416 0.996383 5.39781 0
M  V30 4442 H 423.677 -0.425808 4.40045 0
M  V30 4443 N 422.737 -1.36956 0.779787 0
M  V30 4444 C 423.687 -2.27539 0.144892 0
M  V30 4445 C 424.671 -1.46493 -0.665488 0
M  V30 4446 O 425.863 -1.68968 -0.527141 0
M  V30 4447 C 422.992 -3.35512 -0.727082 0
M  V30 4448 C 422.078 -4.24001 0.0915642 0
M  V30 4449 N 422.469 -4.92757 1.14125 0
M  V30 4450 C 420.767 -4.45807 -0.131141 0
M  V30 4451 C 421.468 -5.58138 1.6388 0
M  V30 4452 N 420.444 -5.35241 0.94962 0
M  V30 4453 H 424.246 -2.78176 0.948446 0
M  V30 4454 H 421.76 -1.50169 0.618315 0
M  V30 4455 H 423.757 -3.99324 -1.19776 0
M  V30 4456 H 422.417 -2.86431 -1.52929 0
M  V30 4457 H 423.428 -4.94984 1.52353 0
M  V30 4458 H 420.105 -4.07582 -0.904621 0
M  V30 4459 H 421.495 -6.23071 2.51461 0
M  V30 4460 N 424.215 -0.530993 -1.48385 0
M  V30 4461 C 425.178 0.220497 -2.28137 0
M  V30 4462 C 426.178 0.866851 -1.35434 0
M  V30 4463 O 427.368 0.726746 -1.58316 0
M  V30 4464 C 424.5 1.31921 -3.1434 0
M  V30 4465 H 425.693 -0.479714 -2.96038 0
M  V30 4466 H 423.246 -0.286968 -1.53643 0
M  V30 4467 H 423.981 2.05264 -2.51072 0
M  V30 4468 H 423.766 0.86085 -3.82533 0
M  V30 4469 H 425.256 1.84776 -3.74497 0
M  V30 4470 N 425.693 1.55336 -0.266172 0
M  V30 4471 C 426.939 2.00423 0.346714 0
M  V30 4472 C 427.294 1.15132 1.54151 0
M  V30 4473 O 426.587 0.211289 1.90431 0
M  V30 4474 C 426.781 3.48606 0.787957 0
M  V30 4475 C 426.61 4.48236 -0.362535 0
M  V30 4476 C 425.38 4.98211 -0.843445 0
M  V30 4477 C 427.578 5.00199 -1.19603 0
M  V30 4478 N 425.56 5.81625 -1.96434 0
M  V30 4479 C 426.931 5.80973 -2.16497 0
M  V30 4480 C 428.986 4.82458 -1.2304 0
M  V30 4481 C 427.689 6.45896 -3.1656 0
M  V30 4482 C 429.715 5.48174 -2.21944 0
M  V30 4483 C 429.077 6.28751 -3.17571 0
M  V30 4484 H 425.176 0.776535 0.0922914 0
M  V30 4485 H 427.76 1.90792 -0.388154 0
M  V30 4486 H 425.931 3.58597 1.49207 0
M  V30 4487 H 427.663 3.80538 1.37742 0
M  V30 4488 H 424.418 4.71696 -0.424271 0
M  V30 4489 H 424.842 6.28025 -2.52813 0
M  V30 4490 H 429.484 4.19774 -0.504903 0
M  V30 4491 H 427.202 7.07734 -3.90048 0
M  V30 4492 H 430.788 5.36392 -2.25333 0
M  V30 4493 H 429.668 6.78703 -3.92851 0
M  V30 4494 N 427.171 -0.0066808 1.57599 0
M  V30 4495 C 428.134 -0.985035 2.06953 0
M  V30 4496 C 429.134 -1.27663 0.977687 0
M  V30 4497 O 430.324 -1.22293 1.24057 0
M  V30 4498 C 427.456 -2.3118 2.50536 0
M  V30 4499 H 428.649 -0.558255 2.94658 0
M  V30 4500 H 426.202 -0.254011 1.54222 0
M  V30 4501 H 426.937 -2.78561 1.66054 0
M  V30 4502 H 426.722 -2.11338 3.3027 0
M  V30 4503 H 428.212 -3.01377 2.8907 0
M  V30 4504 N 428.649 -1.55105 -0.279332 0
M  V30 4505 C 429.579 -1.90557 -1.34945 0
M  V30 4506 C 430.56 -0.766738 -1.51839 0
M  V30 4507 O 431.745 -1.02434 -1.64988 0
M  V30 4508 C 428.875 -2.17193 -2.71006 0
M  V30 4509 C 427.829 -3.33021 -2.68851 0
M  V30 4510 C 427.155 -3.45123 -4.08405 0
M  V30 4511 C 428.455 -4.69578 -2.28678 0
M  V30 4512 H 430.149 -2.80188 -1.05522 0
M  V30 4513 H 427.695 -1.34811 -0.506173 0
M  V30 4514 H 429.648 -2.40581 -3.45975 0
M  V30 4515 H 428.372 -1.24355 -3.01999 0
M  V30 4516 H 427.031 -3.0959 -1.9634 0
M  V30 4517 H 426.679 -2.49762 -4.3661 0
M  V30 4518 H 426.379 -4.22995 -4.07859 0
M  V30 4519 H 427.903 -3.70796 -4.85121 0
M  V30 4520 H 429.317 -4.92553 -2.93368 0
M  V30 4521 H 427.714 -5.5032 -2.39306 0
M  V30 4522 H 428.784 -4.68828 -1.23807 0
M  V30 4523 N 430.127 0.543554 -1.4793 0
M  V30 4524 C 431.404 1.30458 -1.4574 0
M  V30 4525 C 431.784 2.1048 -0.161692 0
M  V30 4526 O 431.132 2.11831 0.856734 0
M  V30 4527 C 431.342 2.19754 -2.71126 0
M  V30 4528 C 432.69 2.80334 -3.18901 0
M  V30 4529 O 433.714 2.30049 -2.71948 0
M  V30 4530 O 432.573 3.71766 -4.00565 0
M  V30 4531 H 429.667 0.588117 -0.581418 0
M  V30 4532 H 432.213 0.561328 -1.60147 0
M  V30 4533 H 430.985 1.60316 -3.56952 0
M  V30 4534 H 430.608 3.01351 -2.59371 0
M  V30 4535 N 431.605 1.3629 0.791371 0
M  V30 4536 C 432.568 1.30309 1.88553 0
M  V30 4537 C 433.568 0.211204 1.59407 0
M  V30 4538 O 434.758 0.465865 1.67855 0
M  V30 4539 C 431.89 1.01956 3.25297 0
M  V30 4540 H 433.083 2.27614 1.95273 0
M  V30 4541 H 430.636 1.21035 0.988953 0
M  V30 4542 H 431.371 0.050998 3.2426 0
M  V30 4543 H 431.156 1.80968 3.4784 0
M  V30 4544 H 432.646 1.0037 4.05359 0
M  V30 4545 N 433.083 -1.0153 1.20538 0
M  V30 4546 C 434.013 -2.11972 0.979295 0
M  V30 4547 C 434.994 -1.6985 -0.0921787 0
M  V30 4548 O 436.179 -1.94089 0.0655932 0
M  V30 4549 C 433.309 -3.43201 0.531984 0
M  V30 4550 C 432.263 -3.9907 1.54685 0
M  V30 4551 C 431.589 -5.26082 0.956127 0
M  V30 4552 C 432.889 -4.32313 2.93092 0
M  V30 4553 H 434.583 -2.31143 1.90298 0
M  V30 4554 H 432.129 -1.11079 0.916372 0
M  V30 4555 H 434.082 -4.1985 0.361044 0
M  V30 4556 H 432.806 -3.23792 -0.427327 0
M  V30 4557 H 431.465 -3.2453 1.70517 0
M  V30 4558 H 431.113 -5.02999 -0.0111538 0
M  V30 4559 H 430.813 -5.64426 1.63393 0
M  V30 4560 H 432.337 -6.05386 0.796284 0
M  V30 4561 H 433.751 -4.99845 2.80763 0
M  V30 4562 H 432.148 -4.81774 3.57791 0
M  V30 4563 H 433.218 -3.41025 3.44717 0
M  V30 4564 N 434.561 -1.01147 -1.20859 0
M  V30 4565 C 435.494 -0.522108 -2.22147 0
M  V30 4566 C 436.472 0.427686 -1.56874 0
M  V30 4567 O 437.656 0.34889 -1.85243 0
M  V30 4568 C 434.783 0.240819 -3.37843 0
M  V30 4569 C 433.829 -0.657752 -4.21398 0
M  V30 4570 S 434.662 -2.12393 -4.91578 0
M  V30 4571 C 435.818 -1.37102 -6.10699 0
M  V30 4572 H 436.051 -1.38035 -2.63313 0
M  V30 4573 H 433.584 -0.819941 -1.30829 0
M  V30 4574 H 435.542 0.674908 -4.04914 0
M  V30 4575 H 434.203 1.07457 -2.95147 0
M  V30 4576 H 433.396 -0.0697456 -5.03952 0
M  V30 4577 H 432.998 -1.0294 -3.59555 0
M  V30 4578 H 435.29 -0.648315 -6.74391 0
M  V30 4579 H 436.233 -2.17252 -6.73949 0
M  V30 4580 H 436.641 -0.876154 -5.57659 0
M  V30 4581 N 436.039 1.36541 -0.78704 0
M  V30 4582 C 436.969 2.32659 -0.197992 0
M  V30 4583 C 437.95 1.56533 0.665697 0
M  V30 4584 O 439.135 1.84698 0.60001 0
M  V30 4585 C 436.265 3.40778 0.669901 0
M  V30 4586 C 435.219 4.27897 -0.0937039 0
M  V30 4587 C 434.545 5.27163 0.894629 0
M  V30 4588 C 435.845 5.06334 -1.28154 0
M  V30 4589 H 437.539 2.82171 -1.00099 0
M  V30 4590 H 435.085 1.35665 -0.482793 0
M  V30 4591 H 437.038 4.07008 1.09191 0
M  V30 4592 H 435.762 2.89827 1.50558 0
M  V30 4593 H 434.421 3.6322 -0.49666 0
M  V30 4594 H 434.069 4.72486 1.72527 0
M  V30 4595 H 433.769 5.86317 0.388149 0
M  V30 4596 H 435.293 5.96266 1.31525 0
M  V30 4597 H 436.707 5.65617 -0.93541 0
M  V30 4598 H 435.104 5.74888 -1.72115 0
M  V30 4599 H 436.174 4.38114 -2.07807 0
M  V30 4600 N 437.518 0.538854 1.48102 0
M  V30 4601 C 438.465 -0.219042 2.29758 0
M  V30 4602 C 439.435 -0.925562 1.37922 0
M  V30 4603 O 440.62 -0.924855 1.66886 0
M  V30 4604 C 437.76 -1.25452 3.2149 0
M  V30 4605 C 436.873 -0.555943 4.28408 0
M  V30 4606 C 436.008 -1.57512 5.0731 0
M  V30 4607 C 435.047 -0.860498 6.06021 0
M  V30 4608 N 434.184 -1.82564 6.77949 0
M  V30 4609 H 439.024 0.483449 2.94052 0
M  V30 4610 H 436.561 0.250247 1.44956 0
M  V30 4611 H 438.519 -1.86727 3.7308 0
M  V30 4612 H 437.149 -1.92528 2.591 0
M  V30 4613 H 436.201 0.170938 3.80016 0
M  V30 4614 H 437.513 0.00474616 4.988 0
M  V30 4615 H 436.667 -2.26191 5.62959 0
M  V30 4616 H 435.406 -2.16972 4.36778 0
M  V30 4617 H 434.411 -0.159686 5.49568 0
M  V30 4618 H 435.636 -0.271897 6.78555 0
M  V30 4619 H 433.582 -2.40915 6.10161 0
M  V30 4620 H 433.499 -1.31662 7.44447 0
M  V30 4621 H 434.767 -2.50414 7.38182 0
M  V30 4622 N 438.996 -1.55193 0.274407 0
M  V30 4623 C 439.926 -2.25471 -0.607032 0
M  V30 4624 C 440.907 -1.24461 -1.15946 0
M  V30 4625 O 442.092 -1.53179 -1.19373 0
M  V30 4626 C 439.222 -2.97526 -1.79153 0
M  V30 4627 C 438.176 -4.05459 -1.37067 0
M  V30 4628 C 437.502 -4.65084 -2.6382 0
M  V30 4629 C 438.802 -5.19691 -0.521389 0
M  V30 4630 H 440.496 -2.99393 -0.0209343 0
M  V30 4631 H 438.042 -1.43997 -0.00862866 0
M  V30 4632 H 439.995 -3.45402 -2.41404 0
M  V30 4633 H 438.719 -2.21138 -2.40344 0
M  V30 4634 H 437.378 -3.58393 -0.771355 0
M  V30 4635 H 437.026 -3.85365 -3.23268 0
M  V30 4636 H 436.726 -5.37961 -2.36372 0
M  V30 4637 H 438.25 -5.15708 -3.26921 0
M  V30 4638 H 439.664 -5.63623 -1.04889 0
M  V30 4639 H 438.061 -5.99126 -0.341825 0
M  V30 4640 H 439.131 -4.82713 0.46 0
M  V30 4641 N 440.474 -0.00167713 -1.576 0
M  V30 4642 C 441.89 0.354422 -1.55615 0
M  V30 4643 C 442.09 1.74679 -1.00447 0
M  V30 4644 O 441.146 2.4428 -0.639022 0
M  V30 4645 C 442.459 0.22812 -2.99833 0
M  V30 4646 C 444.007 0.302934 -3.11531 0
M  V30 4647 C 444.482 0.205737 -4.57538 0
M  V30 4648 N 445.973 0.263584 -4.62449 0
M  V30 4649 C 446.708 0.211742 -5.73009 0
M  V30 4650 N 446.204 0.110399 -6.92712 0
M  V30 4651 N 447.997 0.263729 -5.61481 0
M  V30 4652 H 440.148 -0.912498 -1.918 0
M  V30 4653 H 442.411 -0.349928 -0.881053 0
M  V30 4654 H 442.117 -0.729934 -3.44042 0
M  V30 4655 H 441.991 1.00951 -3.6344 0
M  V30 4656 H 444.378 1.25143 -2.67251 0
M  V30 4657 H 444.459 -0.508357 -2.50698 0
M  V30 4658 H 444.103 -0.739225 -5.02492 0
M  V30 4659 H 444.033 1.03554 -5.16318 0
M  V30 4660 H 446.524 0.343173 -3.76339 0
M  V30 4661 H 446.837 0.0767828 -7.72762 0
M  V30 4662 H 445.182 0.0760025 -6.94958 0
M  V30 4663 H 448.373 0.34111 -4.66855 0
M  V30 4664 H 448.546 0.219862 -6.47627 0
M  V30 4665 N 441.952 1.55251 0.271103 0
M  V30 4666 C 442.9 1.89054 1.35504 0
M  V30 4667 C 443.894 0.767064 1.51038 0
M  V30 4668 O 445.1 0.951429 1.528 0
M  V30 4669 H 441.475 0.600072 0.45323 0
M  V30 4670 H 443.446 2.79598 1.04247 0
M  V30 4671 C 442.195 2.18068 2.70817 0
M  V30 4672 H 441.518 3.04005 2.59656 0
M  V30 4673 H 442.958 2.4564 3.45597 0
M  V30 4674 C 441.417 0.988901 3.2206 0
M  V30 4675 O 441.947 0.224501 4.01072 0
M  V30 4676 N 440.153 0.786085 2.79766 0
M  V30 4677 H 439.7 1.40937 2.15626 0
M  V30 4678 H 439.658 -0.00969349 3.14399 0
M  V30 4679 N 443.43 -0.535701 1.48216 0
M  V30 4680 C 444.36 -1.65014 1.65204 0
M  V30 4681 C 445.341 -1.62554 0.501011 0
M  V30 4682 O 446.526 -1.7984 0.732886 0
M  V30 4683 C 443.656 -3.03616 1.68626 0
M  V30 4684 C 442.61 -3.20932 2.83172 0
M  V30 4685 C 441.936 -4.60537 2.71679 0
M  V30 4686 C 443.236 -3.04249 4.24535 0
M  V30 4687 H 444.93 -1.51053 2.58502 0
M  V30 4688 H 442.476 -0.725262 1.24402 0
M  V30 4689 H 444.429 -3.81446 1.79099 0
M  V30 4690 H 443.153 -3.18587 0.719026 0
M  V30 4691 H 441.812 -2.45517 2.72244 0
M  V30 4692 H 441.46 -4.72336 1.72937 0
M  V30 4693 H 441.16 -4.73069 3.48538 0
M  V30 4694 H 442.684 -5.40475 2.84112 0
M  V30 4695 H 444.098 -3.71877 4.36326 0
M  V30 4696 H 442.495 -3.28278 5.02348 0
M  V30 4697 H 443.565 -2.00739 4.41397 0
M  V30 4698 N 444.908 -1.36708 -0.784132 0
M  V30 4699 C 445.856 -1.31533 -1.91838 0
M  V30 4700 C 446.85 -0.206205 -1.6814 0
M  V30 4701 O 448.056 -0.373519 -1.76082 0
M  V30 4702 H 444.431 -0.409613 -0.630651 0
M  V30 4703 H 446.402 -2.2731 -1.9332 0
M  V30 4704 C 445.151 -1.12679 -3.28936 0
M  V30 4705 H 444.474 -1.97274 -3.4774 0
M  V30 4706 H 445.914 -1.13106 -4.08636 0
M  V30 4707 C 444.373 0.168281 -3.36479 0
M  V30 4708 O 444.903 1.15625 -3.84699 0
M  V30 4709 N 443.109 0.214762 -2.89805 0
M  V30 4710 H 442.656 -0.589852 -2.50756 0
M  V30 4711 H 442.614 1.08094 -2.95234 0
M  V30 4712 N 446.386 1.0089 -1.21074 0
M  V30 4713 C 447.632 1.74866 -1.02712 0
M  V30 4714 C 447.965 1.89178 0.438787 0
M  V30 4715 O 447.24 1.42325 1.32567 0
M  V30 4716 C 447.523 3.16347 -1.72036 0
M  V30 4717 C 447.376 3.09782 -3.26121 0
M  V30 4718 C 448.695 4.15187 -1.45973 0
M  V30 4719 H 445.814 0.634736 -0.374539 0
M  V30 4720 H 448.456 1.17646 -1.49196 0
M  V30 4721 H 446.606 3.65201 -1.32517 0
M  V30 4722 H 448.278 2.68673 -3.74983 0
M  V30 4723 H 446.521 2.46982 -3.56626 0
M  V30 4724 H 447.192 4.09829 -3.6979 0
M  V30 4725 H 449.668 3.75022 -1.80272 0
M  V30 4726 H 448.544 5.12331 -1.96999 0
M  V30 4727 H 448.805 4.40386 -0.388924 0
M  V30 4728 N 447.864 1.01787 1.20321 0
M  V30 4729 C 449.111 0.707936 1.89722 0
M  V30 4730 C 449.439 -0.762535 1.78929 0
M  V30 4731 O 448.694 -1.56977 1.16861 0
M  V30 4732 C 448.993 1.09076 3.40349 0
M  V30 4733 C 448.659 2.55765 3.71342 0
M  V30 4734 C 447.321 2.95845 3.79511 0
M  V30 4735 C 449.673 3.50723 3.85542 0
M  V30 4736 C 447.001 4.2982 3.99339 0
M  V30 4737 C 449.353 4.84387 4.06881 0
M  V30 4738 C 448.017 5.24172 4.1328 0
M  V30 4739 H 447.287 0.259052 0.694243 0
M  V30 4740 H 449.934 1.27868 1.42555 0
M  V30 4741 H 448.239 0.438453 3.89339 0
M  V30 4742 H 449.936 0.828636 3.92345 0
M  V30 4743 H 446.526 2.2371 3.65584 0
M  V30 4744 H 450.71 3.20916 3.78585 0
M  V30 4745 H 445.966 4.60196 4.02529 0
M  V30 4746 H 450.14 5.57891 4.1681 0
M  V30 4747 H 447.767 6.27997 4.28396 0
M  V30 4748 N 449.342 -1.36122 0.79427 0
M  V30 4749 C 450.567 -2.03891 0.379871 0
M  V30 4750 C 450.992 -1.59488 -0.997251 0
M  V30 4751 O 450.35 -0.765652 -1.64339 0
M  V30 4752 C 450.398 -3.57687 0.457442 0
M  V30 4753 O 449.502 -4.08931 -0.5338 0
M  V30 4754 H 448.843 -0.6443 0.160541 0
M  V30 4755 H 451.373 -1.73976 1.07673 0
M  V30 4756 H 451.383 -4.06721 0.322792 0
M  V30 4757 H 450.058 -3.89357 1.46199 0
M  V30 4758 H 448.635 -3.71154 -0.360409 0
M  V30 4759 N 450.82 -0.546701 -1.47814 0
M  V30 4760 C 451.783 0.196287 -2.28358 0
M  V30 4761 C 452.783 0.852437 -1.36346 0
M  V30 4762 O 453.973 0.709913 -1.59078 0
M  V30 4763 C 451.105 1.28579 -3.15722 0
M  V30 4764 H 452.298 -0.511086 -2.95513 0
M  V30 4765 H 449.851 -0.303248 -1.5333 0
M  V30 4766 H 450.586 2.0259 -2.53235 0
M  V30 4767 H 450.371 0.820229 -3.83425 0
M  V30 4768 H 451.861 1.80793 -3.76435 0
M  V30 4769 N 452.299 1.55045 -0.282633 0
M  V30 4770 C 453.576 1.9179 0.384166 0
M  V30 4771 C 453.956 1.20778 1.73136 0
M  V30 4772 O 453.304 0.33719 2.25998 0
M  V30 4773 C 453.514 3.45149 0.517014 0
M  V30 4774 C 454.862 4.17064 0.796427 0
M  V30 4775 O 455.886 3.51084 0.601535 0
M  V30 4776 O 454.745 5.33837 1.16962 0
M  V30 4777 H 451.839 0.799483 0.211558 0
M  V30 4778 H 454.385 1.66474 -0.32934 0
M  V30 4779 H 453.157 3.88922 -0.430772 0
M  V30 4780 H 452.78 3.76443 1.2797 0
M  V30 4781 N 453.777 0.010035 1.57597 0
M  V30 4782 C 454.707 -0.976857 2.12084 0
M  V30 4783 C 455.688 -1.35191 1.03235 0
M  V30 4784 O 456.873 -1.43389 1.3097 0
M  V30 4785 C 454.003 -2.26548 2.63236 0
M  V30 4786 C 452.957 -2.03175 3.76701 0
M  V30 4787 C 452.283 -3.38138 4.14206 0
M  V30 4788 C 453.583 -1.38625 5.03568 0
M  V30 4789 H 455.277 -0.523145 2.94794 0
M  V30 4790 H 452.823 -0.250195 1.4181 0
M  V30 4791 H 454.776 -2.95952 2.99984 0
M  V30 4792 H 453.5 -2.74051 1.77661 0
M  V30 4793 H 452.159 -1.36195 3.40362 0
M  V30 4794 H 451.807 -3.83363 3.25641 0
M  V30 4795 H 451.507 -3.23312 4.90656 0
M  V30 4796 H 453.031 -4.08841 4.53521 0
M  V30 4797 H 454.445 -1.98 5.38023 0
M  V30 4798 H 452.842 -1.34256 5.84889 0
M  V30 4799 H 453.912 -0.356722 4.83586 0
M  V30 4800 N 455.255 -1.55392 -0.262866 0
M  V30 4801 C 456.48 -1.80847 -1.01533 0
M  V30 4802 C 456.905 -0.584946 -1.78774 0
M  V30 4803 O 456.263 0.465701 -1.75217 0
M  V30 4804 C 456.311 -3.03866 -1.94159 0
M  V30 4805 O 455.415 -2.79662 -3.03089 0
M  V30 4806 H 454.756 -0.597441 -0.289759 0
M  V30 4807 H 457.286 -2.02553 -0.288698 0
M  V30 4808 H 457.296 -3.32872 -2.35924 0
M  V30 4809 H 455.971 -3.92564 -1.37354 0
M  V30 4810 H 454.548 -2.61781 -2.65566 0
M  V30 4811 N 456.733 0.527833 -1.48498 0
M  V30 4812 C 457.981 1.28101 -1.56316 0
M  V30 4813 C 458.302 1.9352 -0.239781 0
M  V30 4814 O 457.572 1.81433 0.738849 0
M  V30 4815 H 456.152 0.475793 -0.575873 0
M  V30 4816 H 458.814 0.614052 -1.84974 0
M  V30 4817 H 457.91 2.05916 -2.34532 0
M  V30 4818 N 458.211 1.37122 0.776871 0
M  V30 4819 C 459.439 1.3523 1.5659 0
M  V30 4820 C 459.854 -0.0635518 1.88693 0
M  V30 4821 O 459.211 -1.02394 1.51069 0
M  V30 4822 C 459.262 2.18583 2.8793 0
M  V30 4823 O 458.983 3.5465 2.57206 0
M  V30 4824 C 460.484 2.24612 3.82183 0
M  V30 4825 H 457.704 0.4634 0.485285 0
M  V30 4826 H 460.248 1.80392 0.963266 0
M  V30 4827 H 458.403 1.76943 3.4463 0
M  V30 4828 H 458.817 3.98286 3.41275 0
M  V30 4829 H 460.291 2.87267 4.71361 0
M  V30 4830 H 460.768 1.25309 4.20944 0
M  V30 4831 H 461.374 2.66543 3.31414 0
M  V30 4832 N 459.689 -1.00246 1.21608 0
M  V30 4833 C 461.1 -1.55511 1.03312 0
M  V30 4834 C 461.451 -1.91946 -0.406332 0
M  V30 4835 O 460.576 -1.73753 -1.28992 0
M  V30 4836 C 461.171 -2.82576 1.86913 0
M  V30 4837 C 459.73 -3.34318 1.72941 0
M  V30 4838 C 458.877 -2.07487 1.83968 0
M  V30 4839 H 461.828 -0.824638 1.35593 0
M  V30 4840 H 461.849 -3.54559 1.38087 0
M  V30 4841 H 461.361 -2.56026 2.91672 0
M  V30 4842 H 459.462 -3.65797 0.70877 0
M  V30 4843 H 459.575 -4.05566 2.55055 0
M  V30 4844 H 457.939 -2.20603 1.27304 0
M  V30 4845 H 458.722 -1.83346 2.9024 0
M  V30 4846 N 461.167 -1.02423 -1.1978 0
M  V30 4847 C 462.583 -0.740459 -1.41384 0
M  V30 4848 C 462.783 0.676827 -1.89793 0
M  V30 4849 O 461.839 1.4435 -2.0717 0
M  V30 4850 C 463.152 -1.77264 -2.42895 0
M  V30 4851 C 464.7 -1.79165 -2.56649 0
M  V30 4852 C 465.175 -2.8133 -3.6141 0
M  V30 4853 N 466.666 -2.80118 -3.68901 0
M  V30 4854 C 467.401 -3.55824 -4.49641 0
M  V30 4855 N 466.897 -4.41231 -5.34123 0
M  V30 4856 N 468.69 -3.44387 -4.44246 0
M  V30 4857 H 460.841 -1.9391 -0.866764 0
M  V30 4858 H 463.104 -0.838074 -0.443098 0
M  V30 4859 H 462.81 -2.7884 -2.14339 0
M  V30 4860 H 462.684 -1.59108 -3.42001 0
M  V30 4861 H 465.071 -0.782702 -2.84531 0
M  V30 4862 H 465.152 -2.01396 -1.57713 0
M  V30 4863 H 464.796 -3.82394 -3.34271 0
M  V30 4864 H 464.726 -2.56359 -4.59986 0
M  V30 4865 H 467.217 -2.1817 -3.08562 0
M  V30 4866 H 467.53 -4.95747 -5.92836 0
M  V30 4867 H 465.875 -4.45306 -5.33599 0
M  V30 4868 H 469.066 -2.7708 -3.77285 0
M  V30 4869 H 469.239 -4.0364 -5.06931 0
M  V30 4870 N 462.645 1.35699 -0.801477 0
M  V30 4871 C 463.577 2.28598 -0.166028 0
M  V30 4872 C 464.59 1.50044 0.631721 0
M  V30 4873 O 465.779 1.72339 0.464921 0
M  V30 4874 C 462.879 3.29625 0.787451 0
M  V30 4875 C 462.052 4.37384 0.037171 0
M  V30 4876 C 461.111 5.183 0.908375 0
M  V30 4877 O 460.137 5.68053 0.361189 0
M  V30 4878 N 461.339 5.35912 2.23112 0
M  V30 4879 H 464.104 2.83771 -0.964071 0
M  V30 4880 H 461.665 1.47994 -0.656469 0
M  V30 4881 H 463.657 3.80648 1.37439 0
M  V30 4882 H 462.227 2.75004 1.48632 0
M  V30 4883 H 461.447 3.87364 -0.730935 0
M  V30 4884 H 462.735 5.0653 -0.480109 0
M  V30 4885 H 462.133 4.97125 2.69968 0
M  V30 4886 H 460.69 5.90133 2.76741 0
M  V30 4887 N 464.123 0.554532 1.47522 0
M  V30 4888 C 465.363 0.0317994 2.04375 0
M  V30 4889 C 465.727 -1.29242 1.41988 0
M  V30 4890 O 466.928 -1.90269 1.89872 0
M  V30 4891 C 465.199 -0.0623344 3.57346 0
M  V30 4892 S 466.758 -0.531578 4.35568 0
M  V30 4893 H 463.576 0.0238553 0.7106 0
M  V30 4894 H 466.178 0.74066 1.80927 0
M  V30 4895 H 464.882 0.905857 4.00278 0
M  V30 4896 H 464.413 -0.794831 3.85287 0
M  V30 4897 H 466.428 -1.79175 4.62721 0
M  V30 4898 N 465.601 -1.54893 0.290851 0
M  V30 4899 C 466.564 -2.21824 -0.576784 0
M  V30 4900 C 467.564 -1.20104 -1.06919 0
M  V30 4901 O 468.754 -1.44906 -0.966843 0
M  V30 4902 C 465.886 -2.89662 -1.79747 0
M  V30 4903 H 467.079 -2.99899 0.00784051 0
M  V30 4904 H 464.632 -1.56245 0.0415934 0
M  V30 4905 H 465.367 -2.15639 -2.42219 0
M  V30 4906 H 465.152 -3.64219 -1.45214 0
M  V30 4907 H 466.642 -3.4075 -2.4141 0
M  V30 4908 N 467.08 -0.0183926 -1.57589 0
M  V30 4909 C 468.043 0.951986 -2.08494 0
M  V30 4910 C 469.043 1.26092 -0.997874 0
M  V30 4911 O 470.233 1.20304 -1.25987 0
M  V30 4912 C 467.365 2.27165 -2.54182 0
M  V30 4913 H 468.558 0.511307 -2.95509 0
M  V30 4914 H 466.111 0.229444 -1.54607 0
M  V30 4915 H 466.846 2.75884 -1.70465 0
M  V30 4916 H 466.631 2.06057 -3.33591 0
M  V30 4917 H 468.121 2.9674 -2.93828 0
M  V30 4918 N 468.558 1.5553 0.254621 0
M  V30 4919 C 469.804 1.77262 0.985193 0
M  V30 4920 C 470.137 0.582286 1.85265 0
M  V30 4921 O 469.412 -0.419666 1.89919 0
M  V30 4922 C 469.695 3.0881 1.85225 0
M  V30 4923 C 469.548 4.38233 1.0135 0
M  V30 4924 C 470.867 3.3653 2.83612 0
M  V30 4925 H 467.986 0.644906 0.356742 0
M  V30 4926 H 470.628 1.88264 0.256236 0
M  V30 4927 H 468.778 2.99562 2.47376 0
M  V30 4928 H 470.45 4.59463 0.411269 0
M  V30 4929 H 468.693 4.32636 0.317574 0
M  V30 4930 H 469.364 5.26644 1.65379 0
M  V30 4931 H 471.84 3.45691 2.31596 0
M  V30 4932 H 470.716 4.29805 3.41407 0
M  V30 4933 H 470.977 2.57064 3.59681 0
M  V30 4934 N 470.036 -0.519951 1.48776 0
M  V30 4935 C 471.282 -1.27711 1.57536 0
M  V30 4936 C 471.615 -1.92547 0.252866 0
M  V30 4937 O 470.89 -1.7979 -0.742021 0
M  V30 4938 C 471.173 -2.35875 2.72094 0
M  V30 4939 C 471.026 -1.75664 4.1408 0
M  V30 4940 C 472.345 -3.37575 2.82367 0
M  V30 4941 H 469.464 -0.462971 0.573434 0
M  V30 4942 H 472.106 -0.578194 1.80989 0
M  V30 4943 H 470.256 -2.95488 2.52228 0
M  V30 4944 H 471.928 -1.20025 4.45412 0
M  V30 4945 H 470.171 -1.06154 4.20611 0
M  V30 4946 H 470.842 -2.54029 4.90075 0
M  V30 4947 H 473.318 -2.87929 3.00393 0
M  V30 4948 H 472.194 -4.1064 3.64233 0
M  V30 4949 H 472.455 -3.98743 1.90936 0
M  V30 4950 N 471.514 -1.37532 -0.769588 0
M  V30 4951 C 472.424 -1.35668 -1.91393 0
M  V30 4952 C 473.44 -0.255954 -1.72107 0
M  V30 4953 O 474.616 -0.491704 -1.95305 0
M  V30 4954 C 471.681 -1.16481 -3.26547 0
M  V30 4955 C 470.742 -2.36212 -3.58472 0
M  V30 4956 C 469.975 -2.17932 -4.87177 0
M  V30 4957 O 470.198 -1.1647 -5.58382 0
M  V30 4958 O 469.132 -3.06167 -5.18214 0
M  V30 4959 H 472.958 -2.32055 -1.95918 0
M  V30 4960 H 470.543 -1.18284 -0.912641 0
M  V30 4961 H 472.425 -1.07778 -4.07384 0
M  V30 4962 H 471.1 -0.231687 -3.2287 0
M  V30 4963 H 470.007 -2.50488 -2.77861 0
M  V30 4964 H 471.34 -3.281 -3.66894 0
M  V30 4965 N 472.992 0.995999 -1.22138 0
M  V30 4966 C 474.217 1.77601 -1.0711 0
M  V30 4967 C 474.642 1.84339 0.374264 0
M  V30 4968 O 474 1.29359 1.27028 0
M  V30 4969 C 474.048 3.18897 -1.68336 0
M  V30 4970 O 473.152 4.01663 -0.934928 0
M  V30 4971 H 472.493 0.547011 -0.376397 0
M  V30 4972 H 475.023 1.25137 -1.6187 0
M  V30 4973 H 475.033 3.69539 -1.72931 0
M  V30 4974 H 473.708 3.13308 -2.73516 0
M  V30 4975 H 472.285 3.60204 -0.964751 0
M  V30 4976 N 474.47 1.03057 1.19235 0
M  V30 4977 C 475.4 0.633497 2.24742 0
M  V30 4978 C 476.381 -0.358335 1.66283 0
M  V30 4979 O 477.566 -0.240676 1.92703 0
M  V30 4980 C 474.696 -0.0147648 3.47297 0
M  V30 4981 C 473.65 0.899527 4.18441 0
M  V30 4982 C 472.976 0.116281 5.34574 0
M  V30 4983 C 474.276 2.21404 4.73051 0
M  V30 4984 H 475.97 1.5155 2.58211 0
M  V30 4985 H 473.516 0.73014 1.24117 0
M  V30 4986 H 475.469 -0.304202 4.20301 0
M  V30 4987 H 474.193 -0.931577 3.13032 0
M  V30 4988 H 472.852 1.17319 3.47321 0
M  V30 4989 H 472.5 -0.802619 4.96555 0
M  V30 4990 H 472.2 0.725293 5.83107 0
M  V30 4991 H 473.724 -0.166376 6.10373 0
M  V30 4992 H 475.138 1.98601 5.37802 0
M  V30 4993 H 473.535 2.77512 5.32078 0
M  V30 4994 H 474.605 2.86752 3.91026 0
M  V30 4995 N 475.948 -1.35272 0.808662 0
M  V30 4996 C 476.878 -2.32315 0.234981 0
M  V30 4997 C 477.859 -1.57572 -0.64071 0
M  V30 4998 O 479.044 -1.8563 -0.570551 0
M  V30 4999 C 476.174 -3.41801 -0.615601 0
M  V30 5000 C 475.128 -4.27694 0.161767 0
M  V30 5001 C 474.454 -5.28519 -0.810649 0
M  V30 5002 C 475.754 -5.04231 1.36193 0
M  V30 5003 H 477.448 -2.80543 1.04575 0
M  V30 5004 H 474.994 -1.3488 0.504315 0
M  V30 5005 H 476.947 -4.08693 -1.02702 0
M  V30 5006 H 475.671 -2.92186 -1.45928 0
M  V30 5007 H 474.33 -3.62384 0.554382 0
M  V30 5008 H 473.978 -4.75171 -1.64988 0
M  V30 5009 H 473.678 -5.8686 -0.294822 0
M  V30 5010 H 475.202 -5.98283 -1.22023 0
M  V30 5011 H 476.616 -5.64058 1.02528 0
M  V30 5012 H 475.013 -5.72077 1.81239 0
M  V30 5013 H 476.083 -4.34753 2.14751 0
M  V30 5014 N 477.426 -0.562348 -1.47226 0
M  V30 5015 C 478.837 -0.130325 -1.86245 0
M  V30 5016 C 479.188 1.30128 -1.46838 0
M  V30 5017 O 478.313 1.97974 -0.873805 0
M  V30 5018 C 478.908 -0.229738 -3.3802 0
M  V30 5019 C 477.467 0.14728 -3.76112 0
M  V30 5020 C 476.614 -0.574971 -2.71274 0
M  V30 5021 H 479.565 -0.771773 -1.3867 0
M  V30 5022 H 479.586 0.550316 -3.76499 0
M  V30 5023 H 479.098 -1.27178 -3.66671 0
M  V30 5024 H 477.199 1.19023 -3.53078 0
M  V30 5025 H 477.312 -0.214858 -4.78618 0
M  V30 5026 H 475.676 -0.0174756 -2.54694 0
M  V30 5027 H 476.459 -1.61827 -3.02766 0
M  V30 5028 N 478.904 1.54736 -0.299062 0
M  V30 5029 C 479.834 2.26409 0.571085 0
M  V30 5030 C 480.815 1.2629 1.13951 0
M  V30 5031 O 482 1.55059 1.16921 0
M  V30 5032 C 479.13 3.00338 1.74396 0
M  V30 5033 C 478.084 4.07588 1.30599 0
M  V30 5034 C 477.41 4.69222 2.56387 0
M  V30 5035 C 478.71 5.20455 0.438645 0
M  V30 5036 H 480.404 2.99388 -0.0266991 0
M  V30 5037 H 477.95 1.43993 -0.0142812 0
M  V30 5038 H 479.903 3.49198 2.35878 0
M  V30 5039 H 478.627 2.24934 2.36796 0
M  V30 5040 H 477.286 3.59575 0.71424 0
M  V30 5041 H 476.934 3.9046 3.17097 0
M  V30 5042 H 476.634 5.41653 2.27784 0
M  V30 5043 H 478.158 5.20844 3.18675 0
M  V30 5044 H 479.572 5.65221 0.959085 0
M  V30 5045 H 477.969 5.99594 0.246466 0
M  V30 5046 H 479.039 4.8192 -0.536738 0
M  V30 5047 N 480.382 0.0267497 1.57577 0
M  V30 5048 C 481.315 -0.99059 2.05579 0
M  V30 5049 C 482.293 -1.31884 0.951065 0
M  V30 5050 O 483.477 -1.43592 1.22121 0
M  V30 5051 C 480.604 -2.31125 2.47586 0
M  V30 5052 C 479.65 -2.13777 3.69055 0
M  V30 5053 S 480.483 -1.4388 5.15809 0
M  V30 5054 C 481.639 -2.77321 5.6111 0
M  V30 5055 H 481.872 -0.581976 2.91548 0
M  V30 5056 H 479.405 -0.184876 1.53289 0
M  V30 5057 H 481.363 -3.07049 2.72454 0
M  V30 5058 H 480.024 -2.6912 1.61967 0
M  V30 5059 H 479.217 -3.11405 3.96287 0
M  V30 5060 H 478.819 -1.45996 3.44327 0
M  V30 5061 H 481.111 -3.73565 5.65204 0
M  V30 5062 H 482.054 -2.54756 6.60685 0
M  V30 5063 H 482.462 -2.82459 4.88751 0
M  V30 5064 N 481.861 -1.55662 -0.24637 0
M  V30 5065 C 483.086 -1.81914 -0.996093 0
M  V30 5066 C 483.511 -0.603875 -1.78143 0
M  V30 5067 O 482.869 0.447091 -1.75701 0
M  V30 5068 C 482.917 -3.05908 -1.90925 0
M  V30 5069 O 482.021 -2.82861 -3.00105 0
M  V30 5070 H 481.362 -0.600481 -0.283406 0
M  V30 5071 H 483.892 -2.02848 -0.267199 0
M  V30 5072 H 483.902 -3.35356 -2.3238 0
M  V30 5073 H 482.577 -3.93999 -1.33183 0
M  V30 5074 H 481.154 -2.64583 -2.62775 0
M  V30 5075 N 483.339 0.512053 -1.4905 0
M  V30 5076 C 484.564 1.2959 -1.6193 0
M  V30 5077 C 484.989 1.85906 -0.286454 0
M  V30 5078 O 484.347 1.65312 0.744426 0
M  V30 5079 C 484.395 2.40987 -2.68249 0
M  V30 5080 O 483.499 3.44531 -2.26654 0
M  V30 5081 H 482.84 0.383053 -0.542371 0
M  V30 5082 H 485.37 0.614231 -1.95162 0
M  V30 5083 H 485.38 2.86913 -2.90078 0
M  V30 5084 H 484.055 1.99361 -3.65004 0
M  V30 5085 H 482.632 3.046 -2.15112 0
M  V30 5086 N 484.817 1.37938 0.762283 0
M  V30 5087 C 486.045 1.36883 1.55147 0
M  V30 5088 C 486.46 -0.0435348 1.8875 0
M  V30 5089 O 485.817 -1.00786 1.52146 0
M  V30 5090 C 485.868 2.21624 2.85596 0
M  V30 5091 O 485.589 3.57358 2.5343 0
M  V30 5092 C 487.09 2.28653 3.7978 0
M  V30 5093 H 484.31 0.468521 0.480343 0
M  V30 5094 H 486.854 1.81404 0.944079 0
M  V30 5095 H 485.009 1.80588 3.42734 0
M  V30 5096 H 485.423 4.01883 3.37032 0
M  V30 5097 H 486.897 2.9225 4.68288 0
M  V30 5098 H 487.374 1.29767 4.19592 0
M  V30 5099 H 487.98 2.70043 3.28568 0
M  V30 5100 N 486.295 -0.989507 1.22664 0
M  V30 5101 C 487.225 -2.09847 1.02404 0
M  V30 5102 C 488.206 -1.70007 -0.0561303 0
M  V30 5103 O 489.391 -1.93906 0.106748 0
M  V30 5104 C 486.521 -3.41996 0.604663 0
M  V30 5105 C 485.475 -3.95699 1.63115 0
M  V30 5106 C 484.801 -5.23936 1.0675 0
M  V30 5107 C 486.101 -4.25999 3.02196 0
M  V30 5108 H 487.795 -2.27054 1.95158 0
M  V30 5109 H 485.341 -1.09111 0.939727 0
M  V30 5110 H 487.294 -4.1899 0.45002 0
M  V30 5111 H 486.018 -3.24626 -0.35855 0
M  V30 5112 H 484.677 -3.2084 1.77362 0
M  V30 5113 H 484.325 -5.02909 0.0955422 0
M  V30 5114 H 484.025 -5.60833 1.75328 0
M  V30 5115 H 485.549 -6.0356 0.924516 0
M  V30 5116 H 486.963 -4.93777 2.91303 0
M  V30 5117 H 485.36 -4.74076 3.67929 0
M  V30 5118 H 486.43 -3.33636 3.51873 0
M  V30 5119 N 487.773 -1.03688 -1.18687 0
M  V30 5120 C 488.998 -0.757819 -1.93059 0
M  V30 5121 C 489.423 0.678353 -1.75442 0
M  V30 5122 O 488.781 1.46938 -1.06203 0
M  V30 5123 C 488.829 -1.12423 -3.42627 0
M  V30 5124 O 487.933 -0.247505 -4.11657 0
M  V30 5125 H 487.274 -0.279245 -0.602427 0
M  V30 5126 H 489.804 -1.3857 -1.5053 0
M  V30 5127 H 489.814 -1.08454 -3.93322 0
M  V30 5128 H 488.489 -2.17049 -3.54771 0
M  V30 5129 H 487.066 -0.34649 -3.71287 0
M  V30 5130 N 489.251 1.34841 -0.815825 0
M  V30 5131 C 490.528 1.92908 -0.323416 0
M  V30 5132 C 490.908 1.74479 1.18828 0
M  V30 5133 O 490.256 1.11928 1.99209 0
M  V30 5134 C 490.466 3.40957 -0.744952 0
M  V30 5135 C 491.814 4.18107 -0.739716 0
M  V30 5136 O 492.838 3.49511 -0.68708 0
M  V30 5137 O 491.697 5.40517 -0.806456 0
M  V30 5138 H 488.791 0.822436 -0.0867646 0
M  V30 5139 H 491.337 1.4386 -0.90014 0
M  V30 5140 H 490.109 3.4814 -1.78646 0
M  V30 5141 H 489.732 3.97341 -0.143535 0
M  V30 5142 N 490.729 0.570148 1.46925 0
M  V30 5143 C 491.976 0.0509529 2.02436 0
M  V30 5144 C 492.304 -1.30405 1.44308 0
M  V30 5145 O 491.559 -1.86493 0.593198 0
M  V30 5146 C 491.858 -0.0780336 3.57315 0
M  V30 5147 C 491.524 1.20775 4.34424 0
M  V30 5148 C 490.186 1.56004 4.5521 0
M  V30 5149 C 492.538 2.0592 4.78797 0
M  V30 5150 C 489.866 2.76201 5.17619 0
M  V30 5151 C 492.218 3.25332 5.42533 0
M  V30 5152 C 490.882 3.60859 5.61549 0
M  V30 5153 H 490.152 0.018645 0.740765 0
M  V30 5154 H 492.799 0.744262 1.76445 0
M  V30 5155 H 491.104 -0.854394 3.82371 0
M  V30 5156 H 492.801 -0.495312 3.97929 0
M  V30 5157 H 489.391 0.923469 4.18533 0
M  V30 5158 H 493.575 1.80008 4.62505 0
M  V30 5159 H 488.831 3.0388 5.30535 0
M  V30 5160 H 493.005 3.91586 5.75876 0
M  V30 5161 H 490.632 4.54088 6.09678 0
M  V30 5162 N 492.207 -1.54576 0.307264 0
M  V30 5163 C 493.484 -1.92377 -0.353605 0
M  V30 5164 C 493.864 -1.23517 -1.71192 0
M  V30 5165 O 493.212 -0.373101 -2.25433 0
M  V30 5166 C 493.422 -3.45928 -0.462039 0
M  V30 5167 C 494.77 -4.18278 -0.729975 0
M  V30 5168 O 495.794 -3.51997 -0.545605 0
M  V30 5169 O 494.653 -5.3563 -1.08454 0
M  V30 5170 H 491.747 -0.802747 -0.198812 0
M  V30 5171 H 494.293 -1.65929 0.355783 0
M  V30 5172 H 493.065 -3.88187 0.492592 0
M  V30 5173 H 492.688 -3.78431 -1.21965 0
M  V30 5174 N 493.685 -0.035106 -1.57561 0
M  V30 5175 C 494.91 0.655802 -1.96759 0
M  V30 5176 C 495.335 1.64523 -0.911809 0
M  V30 5177 O 494.693 1.80857 0.126673 0
M  V30 5178 C 494.741 1.33326 -3.35047 0
M  V30 5179 O 493.845 2.44866 -3.31835 0
M  V30 5180 H 493.186 0.171807 -0.641388 0
M  V30 5181 H 495.716 -0.0987369 -2.04362 0
M  V30 5182 H 495.726 1.68867 -3.71413 0
M  V30 5183 H 494.401 0.608033 -4.11431 0
M  V30 5184 H 492.978 2.11392 -3.07193 0
M  V30 5185 N 495.163 1.55791 0.238111 0
M  V30 5186 C 496.126 1.90239 1.27835 0
M  V30 5187 C 497.126 0.779552 1.4064 0
M  V30 5188 O 498.316 1.04747 1.3919 0
M  V30 5189 C 495.448 2.13859 2.65475 0
M  V30 5190 H 496.641 2.83262 0.985034 0
M  V30 5191 H 494.194 1.48818 0.477799 0
M  V30 5192 H 494.929 1.23334 2.99932 0
M  V30 5193 H 494.714 2.95643 2.57561 0
M  V30 5194 H 496.204 2.41664 3.40571 0
M  V30 5195 N 496.642 -0.504142 1.49319 0
M  V30 5196 C 497.867 -1.28729 1.62615 0
M  V30 5197 C 498.292 -1.85752 0.296309 0
M  V30 5198 O 497.65 -1.65704 -0.735649 0
M  V30 5199 C 497.698 -2.39561 2.69524 0
M  V30 5200 O 496.802 -3.43324 2.28478 0
M  V30 5201 H 496.143 -0.380172 0.544395 0
M  V30 5202 H 498.673 -0.603872 1.95485 0
M  V30 5203 H 498.683 -2.8537 2.91595 0
M  V30 5204 H 497.358 -1.97423 3.66056 0
M  V30 5205 H 495.935 -3.03455 2.16725 0
M  V30 5206 N 498.12 -1.38341 -0.754957 0
M  V30 5207 C 499.083 -1.35262 -1.85032 0
M  V30 5208 C 500.083 -0.253393 -1.58791 0
M  V30 5209 O 501.273 -0.510205 -1.66561 0
M  V30 5210 C 498.405 -1.10544 -3.22479 0
M  V30 5211 H 499.598 -2.32712 -1.8917 0
M  V30 5212 H 497.151 -1.23614 -0.956515 0
M  V30 5213 H 497.886 -0.136952 -3.24011 0
M  V30 5214 H 497.671 -1.90127 -3.4292 0
M  V30 5215 H 499.161 -1.11082 -4.02555 0
M  V30 5216 N 499.598 0.982988 -1.23187 0
M  V30 5217 C 500.528 2.09301 -1.03515 0
M  V30 5218 C 501.509 1.70035 0.0471136 0
M  V30 5219 O 502.694 1.93847 -0.117029 0
M  V30 5220 C 499.824 3.4167 -0.622791 0
M  V30 5221 C 498.778 3.94828 -1.65211 0
M  V30 5222 C 498.104 5.23362 -1.09527 0
M  V30 5223 C 499.404 4.2439 -3.04451 0
M  V30 5224 H 501.098 2.26016 -1.96359 0
M  V30 5225 H 498.644 1.08611 -0.945501 0
M  V30 5226 H 500.597 4.18746 -0.472233 0
M  V30 5227 H 499.321 3.24811 0.341329 0
M  V30 5228 H 497.98 3.19895 -1.79061 0
M  V30 5229 H 497.628 5.02852 -0.122211 0
M  V30 5230 H 497.328 5.59895 -1.783 0
M  V30 5231 H 498.852 6.03062 -0.956511 0
M  V30 5232 H 500.266 4.92225 -2.93917 0
M  V30 5233 H 498.663 4.72118 -3.70438 0
M  V30 5234 H 499.733 3.31765 -3.53638 0
M  V30 5235 N 501.076 1.04316 1.18135 0
M  V30 5236 C 501.986 0.646876 2.25505 0
M  V30 5237 C 503.002 -0.328008 1.7088 0
M  V30 5238 O 504.178 -0.182309 2.00573 0
M  V30 5239 C 501.243 0.0185664 3.46695 0
M  V30 5240 C 500.304 1.04277 4.16443 0
M  V30 5241 C 499.537 0.444352 5.31847 0
M  V30 5242 O 499.76 -0.748735 5.65465 0
M  V30 5243 O 498.694 1.17428 5.90334 0
M  V30 5244 H 502.52 1.54147 2.61672 0
M  V30 5245 H 500.105 0.814188 1.25265 0
M  V30 5246 H 501.987 -0.331068 4.20097 0
M  V30 5247 H 500.662 -0.849814 3.12346 0
M  V30 5248 H 499.569 1.44425 3.45098 0
M  V30 5249 H 500.902 1.882 4.54798 0
M  V30 5250 N 502.554 -1.34406 0.822964 0
M  V30 5251 C 503.97 -1.51275 0.508727 0
M  V30 5252 C 504.17 -1.76776 -0.967083 0
M  V30 5253 O 503.226 -1.81871 -1.75155 0
M  V30 5254 C 504.539 -2.67765 1.36829 0
M  V30 5255 C 506.087 -2.81647 1.36542 0
M  V30 5256 C 506.562 -4.01181 2.20947 0
M  V30 5257 N 508.053 -4.08388 2.18571 0
M  V30 5258 C 508.788 -5.00036 2.80627 0
M  V30 5259 N 508.284 -5.96906 3.51674 0
M  V30 5260 N 510.077 -4.92908 2.70181 0
M  V30 5261 H 502.228 -1.16113 1.77852 0
M  V30 5262 H 504.491 -0.56947 0.757897 0
M  V30 5263 H 504.197 -2.55551 2.41633 0
M  V30 5264 H 504.071 -3.62779 1.03303 0
M  V30 5265 H 506.458 -2.93303 0.325163 0
M  V30 5266 H 506.539 -1.87443 1.74066 0
M  V30 5267 H 506.183 -3.90286 3.25022 0
M  V30 5268 H 506.113 -4.94599 1.80774 0
M  V30 5269 H 508.604 -3.39051 1.66891 0
M  V30 5270 H 508.917 -6.63468 3.96271 0
M  V30 5271 H 507.262 -5.9703 3.5578 0
M  V30 5272 H 510.453 -4.1619 2.14251 0
M  V30 5273 H 510.626 -5.64137 3.18831 0
M  V30 5274 N 504.032 -0.577932 -1.46621 0
M  V30 5275 C 504.995 0.147805 -2.28723 0
M  V30 5276 C 505.995 0.823325 -1.38123 0
M  V30 5277 O 507.185 0.676011 -1.60548 0
M  V30 5278 C 504.317 1.21853 -3.18378 0
M  V30 5279 H 505.51 -0.573654 -2.94362 0
M  V30 5280 H 503.063 -0.335703 -1.52652 0
M  V30 5281 H 503.798 1.97173 -2.57475 0
M  V30 5282 H 503.583 0.738714 -3.85078 0
M  V30 5283 H 505.073 1.72768 -3.80186 0
M  V30 5284 N 505.51 1.54411 -0.315457 0
M  V30 5285 C 506.473 2.22713 0.54142 0
M  V30 5286 C 507.473 1.2179 1.04995 0
M  V30 5287 O 508.663 1.46426 0.943667 0
M  V30 5288 C 505.795 2.92485 1.75116 0
M  V30 5289 H 506.988 2.99849 -0.0555508 0
M  V30 5290 H 504.541 1.56159 -0.0664453 0
M  V30 5291 H 505.276 2.19466 2.38758 0
M  V30 5292 H 505.061 3.66483 1.39401 0
M  V30 5293 H 506.551 3.44548 2.35959 0
M  V30 5294 N 506.988 0.0434614 1.5754 0
M  V30 5295 C 508.404 -0.313039 1.565 0
M  V30 5296 C 508.604 -1.71954 1.05043 0
M  V30 5297 O 507.66 -2.425 0.703564 0
M  V30 5298 C 508.973 -0.148544 3.00333 0
M  V30 5299 C 510.521 -0.220231 3.12224 0
M  V30 5300 C 510.996 -0.0843565 4.57922 0
M  V30 5301 N 512.487 -0.140881 4.62986 0
M  V30 5302 C 513.222 -0.0597443 5.73369 0
M  V30 5303 N 512.718 0.0733004 6.92761 0
M  V30 5304 N 514.511 -0.11477 5.61983 0
M  V30 5305 H 506.662 0.96303 1.89313 0
M  V30 5306 H 508.925 0.373164 0.871466 0
M  V30 5307 H 508.631 0.820894 3.41986 0
M  V30 5308 H 508.505 -0.912798 3.65989 0
M  V30 5309 H 510.892 -1.18014 2.70475 0
M  V30 5310 H 510.973 0.574646 2.49262 0
M  V30 5311 H 510.617 0.872192 5.00355 0
M  V30 5312 H 510.547 -0.898281 5.18882 0
M  V30 5313 H 513.038 -0.243273 3.77116 0
M  V30 5314 H 513.351 0.128128 7.72694 0
M  V30 5315 H 511.696 0.10828 6.94916 0
M  V30 5316 H 514.887 -0.217212 4.67596 0
M  V30 5317 H 515.06 -0.0480779 6.47982 0
M  V30 5318 N 508.466 -1.55915 -0.229846 0
M  V30 5319 C 509.694 -1.82617 -0.972562 0
M  V30 5320 C 510.109 -0.621488 -1.78278 0
M  V30 5321 O 509.466 0.409956 -1.77836 0
M  V30 5322 C 509.517 -3.0774 -1.89679 0
M  V30 5323 O 509.238 -4.23559 -1.11934 0
M  V30 5324 C 510.739 -3.47368 -2.75409 0
M  V30 5325 H 507.959 -0.60727 -0.285419 0
M  V30 5326 H 510.503 -2.02996 -0.247579 0
M  V30 5327 H 508.658 -2.89361 -2.57583 0
M  V30 5328 H 509.072 -4.94586 -1.74599 0
M  V30 5329 H 510.546 -4.37977 -3.35977 0
M  V30 5330 H 511.023 -2.68737 -3.47386 0
M  V30 5331 H 511.629 -3.68158 -2.12931 0
M  V30 5332 N 509.944 0.496216 -1.49584 0
M  V30 5333 C 511.191 1.25003 -1.59312 0
M  V30 5334 C 511.519 1.92445 -0.28198 0
M  V30 5335 O 510.774 1.81557 0.730452 0
M  V30 5336 C 511.073 2.3359 -2.705 0
M  V30 5337 C 510.739 1.83574 -4.11839 0
M  V30 5338 C 509.401 1.69653 -4.50302 0
M  V30 5339 C 511.753 1.46193 -5.00277 0
M  V30 5340 C 509.081 1.16736 -5.74969 0
M  V30 5341 C 511.433 0.947265 -6.25468 0
M  V30 5342 C 510.097 0.794485 -6.62755 0
M  V30 5343 H 509.367 0.45742 -0.582965 0
M  V30 5344 H 512.014 0.549996 -1.83432 0
M  V30 5345 H 510.319 3.09401 -2.40371 0
M  V30 5346 H 512.016 2.91627 -2.75235 0
M  V30 5347 H 508.606 1.9537 -3.81482 0
M  V30 5348 H 512.79 1.55793 -4.71214 0
M  V30 5349 H 508.046 1.03623 -6.02555 0
M  V30 5350 H 512.22 0.648846 -6.93371 0
M  V30 5351 H 509.847 0.382271 -7.59238 0
M  V30 5352 N 511.423 1.38739 0.74761 0
M  V30 5353 C 512.371 1.36573 1.88283 0
M  V30 5354 C 513.365 0.250712 1.67534 0
M  V30 5355 O 514.571 0.420073 1.7503 0
M  V30 5356 H 510.946 0.42619 0.619569 0
M  V30 5357 H 512.917 2.32356 1.87226 0
M  V30 5358 C 511.666 1.21361 3.25832 0
M  V30 5359 H 510.989 2.06424 3.42388 0
M  V30 5360 H 512.429 1.23901 4.05493 0
M  V30 5361 C 510.888 -0.0790099 3.36807 0
M  V30 5362 O 511.418 -1.05385 3.8763 0
M  V30 5363 N 509.624 -0.13785 2.90273 0
M  V30 5364 H 509.171 0.656128 2.49104 0
M  V30 5365 H 509.129 -1.00228 2.97996 0
M  V30 5366 N 512.901 -0.976442 1.23707 0
M  V30 5367 C 513.864 -2.0511 1.02287 0
M  V30 5368 C 514.864 -1.60791 -0.0167195 0
M  V30 5369 O 516.054 -1.72761 0.223408 0
M  V30 5370 C 513.186 -3.36458 0.548507 0
M  V30 5371 H 514.379 -2.25545 1.9766 0
M  V30 5372 H 511.932 -1.15042 1.05806 0
M  V30 5373 H 512.667 -3.21713 -0.408818 0
M  V30 5374 H 512.452 -3.69967 1.29874 0
M  V30 5375 H 513.942 -4.15489 0.419406 0
M  V30 5376 N 514.379 -1.04941 -1.1758 0
M  V30 5377 C 515.289 -0.658826 -2.25159 0
M  V30 5378 C 516.305 0.318941 -1.71052 0
M  V30 5379 O 517.481 0.171669 -2.00667 0
M  V30 5380 C 514.546 -0.0369522 -3.4668 0
M  V30 5381 C 513.607 -1.06484 -4.15884 0
M  V30 5382 C 512.84 -0.472551 -5.31604 0
M  V30 5383 O 513.063 0.718736 -5.65854 0
M  V30 5384 O 511.997 -1.20557 -5.89703 0
M  V30 5385 H 515.823 -1.55533 -2.60851 0
M  V30 5386 H 513.408 -0.820819 -1.24832 0
M  V30 5387 H 515.29 0.308784 -4.20267 0
M  V30 5388 H 513.965 0.833238 -3.12792 0
M  V30 5389 H 512.872 -1.46253 -3.44327 0
M  V30 5390 H 514.205 -1.9061 -4.53794 0
M  V30 5391 N 515.857 1.33968 -0.830081 0
M  V30 5392 C 516.79 2.27303 -0.202182 0
M  V30 5393 C 517.768 1.49235 0.645581 0
M  V30 5394 O 518.952 1.78433 0.607762 0
M  V30 5395 C 516.079 3.31025 0.716932 0
M  V30 5396 C 515.125 4.26466 -0.0542271 0
M  V30 5397 S 515.958 5.16707 -1.40622 0
M  V30 5398 C 517.114 6.23962 -0.492167 0
M  V30 5399 H 517.347 2.8021 -0.99346 0
M  V30 5400 H 514.88 1.41124 -0.626359 0
M  V30 5401 H 516.838 3.91271 1.24165 0
M  V30 5402 H 515.499 2.76951 1.4818 0
M  V30 5403 H 514.692 4.99858 0.644785 0
M  V30 5404 H 514.294 3.7051 -0.509722 0
M  V30 5405 H 516.586 6.76774 0.31347 0
M  V30 5406 H 517.529 6.97927 -1.19599 0
M  V30 5407 H 517.937 5.64447 -0.0774176 0
M  V30 5408 N 517.335 0.585699 1.46312 0
M  V30 5409 C 518.583 0.072278 2.01971 0
M  V30 5410 C 518.904 -1.29345 1.45928 0
M  V30 5411 O 518.174 -1.84973 0.645109 0
M  V30 5412 H 516.754 0.023729 0.746623 0
M  V30 5413 H 519.416 0.762155 1.7938 0
M  V30 5414 H 518.512 0.00552767 3.121 0
M  V30 5415 N 518.813 -1.54241 0.323641 0
M  V30 5416 C 520.059 -2.00867 -0.279323 0
M  V30 5417 C 520.392 -1.21146 -1.5178 0
M  V30 5418 O 519.667 -0.29378 -1.92269 0
M  V30 5419 C 519.95 -3.54837 -0.613387 0
M  V30 5420 C 519.803 -4.45284 0.635803 0
M  V30 5421 C 521.122 -4.16186 -1.43099 0
M  V30 5422 H 518.241 -0.730177 -0.100049 0
M  V30 5423 H 520.883 -1.84829 0.440235 0
M  V30 5424 H 519.033 -3.68634 -1.22641 0
M  V30 5425 H 520.705 -4.43357 1.27406 0
M  V30 5426 H 518.948 -4.14956 1.26466 0
M  V30 5427 H 519.619 -5.5084 0.357597 0
M  V30 5428 H 522.095 -4.05964 -0.912814 0
M  V30 5429 H 520.971 -5.24031 -1.6335 0
M  V30 5430 H 521.232 -3.69516 -2.42715 0
M  V30 5431 O 520.33 -0.191128 -1.60365 0
M  V30 5432 H 521.021 0.395023 -1.89629 0
M  V30 END ATOM
M  V30 BEGIN BOND
M  V30 END BOND
M  V30 END CTAB
M  END
$$$$
