drugbank_target|P28248 Deoxycytidine triphosphate deaminase (DB02333; DB03258)
 OpenBabel12092119553D

  0  0  0     0  0            999 V3000
M  V30 BEGIN CTAB
M  V30 COUNTS 2991 3022 0 0 0
M  V30 BEGIN ATOM
M  V30 1 H -0.908 1.98254 -0.117106 0
M  V30 2 N 0 1.576 0 0
M  V30 3 C 0.933 2.03868 1.02534 0
M  V30 4 C 1.911 0.928543 1.3348 0
M  V30 5 O 3.095 1.19667 1.45644 0
M  V30 6 C 0.222 2.43627 2.35294 0
M  V30 7 C -0.732 3.65373 2.2001 0
M  V30 8 S 0.101 5.13292 1.52614 0
M  V30 9 C 1.257 5.56322 2.86805 0
M  V30 10 H 1.49 2.90518 0.631377 0
M  V30 11 H -0.977 1.52953 0.210867 0
M  V30 12 H 0.981 2.67203 3.11629 0
M  V30 13 H -0.358 1.57376 2.7183 0
M  V30 14 H -1.165 3.90944 3.18086 0
M  V30 15 H -1.563 3.418 1.51819 0
M  V30 16 H 0.729 5.58782 3.83104 0
M  V30 17 H 1.672 6.56266 2.65933 0
M  V30 18 H 2.08 4.83886 2.90714 0
M  V30 19 N 1.4781 -0.272755 1.55222 0
M  V30 20 C 2.8941 -0.619959 1.47067 0
M  V30 21 C 3.0941 -1.895 0.684978 0
M  V30 22 O 2.1501 -2.51675 0.203931 0
M  V30 23 C 3.4631 -0.746693 2.91282 0
M  V30 24 C 5.0111 -0.840731 3.01497 0
M  V30 25 C 5.4861 -0.99924 4.46967 0
M  V30 26 N 6.9771 -1.06476 4.50796 0
M  V30 27 C 7.7121 -1.20621 5.6057 0
M  V30 28 N 7.2081 -1.31483 6.80209 0
M  V30 29 N 9.0011 -1.23733 5.48312 0
M  V30 30 H 1.1521 0.564606 2.04758 0
M  V30 31 H 3.4151 0.191177 0.928523 0
M  V30 32 H 3.1211 0.119753 3.51496 0
M  V30 33 H 2.9951 -1.6269 3.40311 0
M  V30 34 H 5.3821 -1.69764 2.41379 0
M  V30 35 H 5.4631 0.0640874 2.5572 0
M  V30 36 H 5.1071 -0.146984 5.07687 0
M  V30 37 H 5.0371 -1.91871 4.90401 0
M  V30 38 H 7.5281 -0.993196 3.64615 0
M  V30 39 H 7.8411 -1.42111 7.59621 0
M  V30 40 H 6.1861 -1.28487 6.8302 0
M  V30 41 H 9.3771 -1.14877 4.53785 0
M  V30 42 H 9.5501 -1.34412 6.33906 0
M  V30 43 N 2.9562 -1.48159 -0.537278 0
M  V30 44 C 3.8862 -1.65029 -1.6519 0
M  V30 45 C 4.8672 -0.499281 -1.62607 0
M  V30 46 O 6.0522 -0.730972 -1.79918 0
M  V30 47 C 3.1822 -1.68303 -3.03795 0
M  V30 48 C 2.1362 -2.8283 -3.21234 0
M  V30 49 C 1.4622 -2.71189 -4.60826 0
M  V30 50 C 2.7622 -4.24211 -3.04701 0
M  V30 51 H 4.4562 -2.58341 -1.51328 0
M  V30 52 H 2.0022 -1.24325 -0.726585 0
M  V30 53 H 3.9552 -1.78693 -3.81637 0
M  V30 54 H 2.6792 -0.715635 -3.18663 0
M  V30 55 H 1.3382 -2.71983 -2.45807 0
M  V30 56 H 0.9862 -1.72435 -4.7252 0
M  V30 57 H 0.6862 -3.48035 -4.7344 0
M  V30 58 H 2.2102 -2.83537 -5.40777 0
M  V30 59 H 3.6242 -4.3593 -3.72341 0
M  V30 60 H 2.0212 -5.01998 -3.28813 0
M  V30 61 H 3.0912 -4.41184 -2.01209 0
M  V30 62 N 4.4343 0.785586 -1.36625 0
M  V30 63 C 5.6743 1.55678 -1.32453 0
M  V30 64 C 6.0383 1.91769 0.0941089 0
M  V30 65 O 7.2393 2.67536 0.26042 0
M  V30 66 C 5.5103 2.79701 -2.22491 0
M  V30 67 S 7.0693 3.69907 -2.36038 0
M  V30 68 H 3.8873 0.533141 -0.470405 0
M  V30 69 H 6.4893 0.924953 -1.72235 0
M  V30 70 H 5.1933 2.51244 -3.24507 0
M  V30 71 H 4.7243 3.47854 -1.83742 0
M  V30 72 H 6.7393 4.71016 -1.56072 0
M  V30 73 N 5.9124 1.20967 1.01018 0
M  V30 74 C 7.1894 0.93264 1.71934 0
M  V30 75 C 7.5694 -0.55692 2.03621 0
M  V30 76 O 6.9174 -1.52035 1.7058 0
M  V30 77 C 7.1274 1.81233 2.98254 0
M  V30 78 C 8.4754 2.05804 3.71389 0
M  V30 79 O 9.4994 1.78539 3.08225 0
M  V30 80 O 8.3584 2.51888 4.84989 0
M  V30 81 H 5.4524 0.349272 0.749625 0
M  V30 82 H 7.9984 1.31871 1.06808 0
M  V30 83 H 6.7704 2.82067 2.71208 0
M  V30 84 H 6.3934 1.42674 3.7112 0
M  V30 85 N 7.3905 -1.2043 1.01659 0
M  V30 86 C 8.8065 -1.41852 0.731442 0
M  V30 87 C 9.0065 -1.89358 -0.688898 0
M  V30 88 O 8.0625 -2.06247 -1.45666 0
M  V30 89 C 9.3755 -2.44019 1.75714 0
M  V30 90 C 10.9235 -2.57785 1.77527 0
M  V30 91 C 11.3985 -3.63194 2.79023 0
M  V30 92 N 12.8895 -3.70678 2.77763 0
M  V30 93 C 13.6245 -4.51897 3.52954 0
M  V30 94 N 13.1205 -5.36921 4.37821 0
M  V30 95 N 14.9135 -4.4643 3.41551 0
M  V30 96 H 7.0645 -0.879093 1.93354 0
M  V30 97 H 9.3275 -0.448425 0.835236 0
M  V30 98 H 9.0335 -2.1611 2.77469 0
M  V30 99 H 8.9075 -3.43007 1.56927 0
M  V30 100 H 11.2945 -2.85023 0.764569 0
M  V30 101 H 11.3755 -1.58992 2.00387 0
M  V30 102 H 11.0195 -3.36699 3.80258 0
M  V30 103 H 10.9495 -4.61609 2.53425 0
M  V30 104 H 13.4405 -3.09944 2.16201 0
M  V30 105 H 13.7535 -5.95981 4.91962 0
M  V30 106 H 12.0985 -5.36424 4.41899 0
M  V30 107 H 15.2895 -3.79042 2.74672 0
M  V30 108 H 15.4625 -5.09491 4.00404 0
M  V30 109 N 8.8686 -0.792821 -1.36206 0
M  V30 110 C 10.1456 -0.290627 -1.93429 0
M  V30 111 C 10.5256 1.21773 -1.72437 0
M  V30 112 O 9.8736 2.0108 -1.08531 0
M  V30 113 C 10.0836 -0.686973 -3.42172 0
M  V30 114 C 11.4316 -0.668643 -4.19302 0
M  V30 115 O 12.4556 -0.627658 -3.50626 0
M  V30 116 O 11.3146 -0.714597 -5.41808 0
M  V30 117 H 8.4086 -0.0727927 -0.82379 0
M  V30 118 H 10.9546 -0.875593 -1.45367 0
M  V30 119 H 9.7266 -1.72711 -3.51122 0
M  V30 120 H 9.3496 -0.0760733 -3.97527 0
M  V30 121 N 10.3467 1.47872 -0.545128 0
M  V30 122 C 11.5957 2.01695 -0.0145033 0
M  V30 123 C 11.9087 1.42609 1.33873 0
M  V30 124 O 13.1147 1.88021 1.95858 0
M  V30 125 C 11.5707 3.59892 0.0245068 0
M  V30 126 C 11.1787 4.27966 -1.32475 0
M  V30 127 C 12.9227 4.21507 0.50316 0
M  V30 128 C 10.8297 5.78136 -1.2455 0
M  V30 129 H 9.7597 0.753998 -0.00165172 0
M  V30 130 H 12.4107 1.69985 -0.691175 0
M  V30 131 H 10.7927 3.88509 0.766575 0
M  V30 132 H 11.9667 4.11003 -2.08357 0
M  V30 133 H 10.2817 3.78286 -1.74036 0
M  V30 134 H 12.8787 5.31538 0.580656 0
M  V30 135 H 13.2217 3.87855 1.51243 0
M  V30 136 H 13.7547 3.97376 -0.183681 0
M  V30 137 H 10.4937 6.16388 -2.23039 0
M  V30 138 H 10.0137 5.97469 -0.528282 0
M  V30 139 H 11.6927 6.40099 -0.942488 0
M  V30 140 N 11.8248 0.280983 1.55075 0
M  V30 141 C 12.7348 -0.61388 2.26426 0
M  V30 142 C 13.7508 -1.16521 1.29224 0
M  V30 143 O 14.9268 -1.19426 1.62171 0
M  V30 144 C 11.9918 -1.7788 2.9759 0
M  V30 145 C 11.0528 -1.26355 4.10284 0
M  V30 146 C 10.2858 -2.37295 4.78045 0
M  V30 147 O 10.5088 -3.56777 4.45047 0
M  V30 148 O 9.4428 -2.05119 5.65871 0
M  V30 149 H 13.2688 -0.0356932 3.03679 0
M  V30 150 H 10.8538 0.0481686 1.49322 0
M  V30 151 H 12.7358 -2.45791 3.42293 0
M  V30 152 H 11.4108 -2.34397 2.23249 0
M  V30 153 H 10.3178 -0.550735 3.70024 0
M  V30 154 H 11.6508 -0.744065 4.86543 0
M  V30 155 N 13.3029 -1.57598 0.00835791 0
M  V30 156 C 14.2659 -2.07884 -0.965242 0
M  V30 157 C 15.2659 -0.989825 -1.26725 0
M  V30 158 O 16.4559 -1.25218 -1.21104 0
M  V30 159 C 13.5879 -2.52731 -2.28779 0
M  V30 160 H 14.7809 -2.95178 -0.530112 0
M  V30 161 H 12.3339 -1.54458 -0.239283 0
M  V30 162 H 13.0689 -1.68705 -2.76964 0
M  V30 163 H 12.8539 -3.32272 -2.08177 0
M  V30 164 H 14.3439 -2.91933 -2.98605 0
M  V30 165 N 14.781 0.264519 -1.55364 0
M  V30 166 C 16.027 0.992314 -1.77552 0
M  V30 167 C 16.382 1.83626 -0.574379 0
M  V30 168 O 15.675 1.86648 0.432782 0
M  V30 169 C 15.869 1.9004 -3.02687 0
M  V30 170 C 15.698 1.14583 -4.34857 0
M  V30 171 C 14.468 0.858068 -4.97961 0
M  V30 172 C 16.666 0.532069 -5.1154 0
M  V30 173 N 14.648 0.0775974 -6.13851 0
M  V30 174 C 16.019 -0.113823 -6.19896 0
M  V30 175 C 18.074 0.440763 -4.95945 0
M  V30 176 C 16.777 -0.842231 -7.14352 0
M  V30 177 C 18.803 -0.274072 -5.90765 0
M  V30 178 C 18.165 -0.90867 -6.98515 0
M  V30 179 H 14.264 0.344811 -0.701875 0
M  V30 180 H 16.848 0.267141 -1.92859 0
M  V30 181 H 15.019 2.59775 -2.88741 0
M  V30 182 H 16.751 2.56243 -3.13243 0
M  V30 183 H 13.506 1.16547 -4.59036 0
M  V30 184 H 13.93 -0.300216 -6.76334 0
M  V30 185 H 18.572 0.917064 -4.12735 0
M  V30 186 H 16.29 -1.33019 -7.97077 0
M  V30 187 H 19.876 -0.345151 -5.80775 0
M  V30 188 H 18.756 -1.45299 -7.70622 0
M  V30 189 N 16.2591 1.48442 0.529413 0
M  V30 190 C 17.1891 1.65902 1.64313 0
M  V30 191 C 18.1701 0.507897 1.6234 0
M  V30 192 O 19.3551 0.740503 1.79528 0
M  V30 193 C 16.4851 1.69911 3.02898 0
M  V30 194 C 15.4391 2.8453 3.19729 0
M  V30 195 C 14.7651 2.73629 4.59381 0
M  V30 196 C 16.0651 4.25821 3.02447 0
M  V30 197 H 17.7591 2.5914 1.49955 0
M  V30 198 H 15.3051 1.24709 0.719982 0
M  V30 199 H 17.2581 1.80715 3.80684 0
M  V30 200 H 15.9821 0.732524 3.18279 0
M  V30 201 H 14.6411 2.73283 2.44361 0
M  V30 202 H 14.2891 1.74938 4.71599 0
M  V30 203 H 13.9891 3.50541 4.71588 0
M  V30 204 H 15.5131 2.86401 5.39265 0
M  V30 205 H 16.9271 4.37898 3.70024 0
M  V30 206 H 15.3241 5.03735 3.26146 0
M  V30 207 H 16.3941 4.42244 1.98867 0
M  V30 208 N 17.7372 -0.778329 1.37039 0
M  V30 209 C 19.0142 -1.52551 1.22424 0
M  V30 210 C 19.3942 -2.10288 -0.184964 0
M  V30 211 O 18.7422 -1.94953 -1.19187 0
M  V30 212 C 18.9522 -2.61164 2.31504 0
M  V30 213 C 20.3002 -3.28746 2.68721 0
M  V30 214 O 21.3242 -2.71455 2.30631 0
M  V30 215 O 20.1832 -4.3231 3.3432 0
M  V30 216 H 17.2772 -0.675343 0.477326 0
M  V30 217 H 19.8232 -0.815859 1.48801 0
M  V30 218 H 18.5952 -2.16574 3.25901 0
M  V30 219 H 18.2182 -3.39737 2.06554 0
M  V30 220 N 19.2153 -1.21501 -1.00376 0
M  V30 221 C 20.1253 -0.991447 -2.12621 0
M  V30 222 C 21.1413 0.0568446 -1.73907 0
M  V30 223 O 22.3173 -0.13348 -2.00957 0
M  V30 224 C 19.3823 -0.560312 -3.42142 0
M  V30 225 C 18.4433 -1.68096 -3.95022 0
M  V30 226 C 17.6763 -1.2703 -5.18362 0
M  V30 227 O 17.8993 -0.144438 -5.70217 0
M  V30 228 O 16.8333 -2.08269 -5.64719 0
M  V30 229 H 20.6593 -1.93158 -2.34358 0
M  V30 230 H 18.2443 -0.999999 -1.10997 0
M  V30 231 H 20.1263 -0.329724 -4.20108 0
M  V30 232 H 18.8013 0.351089 -3.2179 0
M  V30 233 H 17.7083 -1.96597 -3.18278 0
M  V30 234 H 19.0413 -2.56983 -4.19786 0
M  V30 235 N 20.6934 1.19889 -1.02296 0
M  V30 236 C 21.9414 1.89046 -0.714558 0
M  V30 237 C 22.2624 1.79636 0.758681 0
M  V30 238 O 21.5324 1.20292 1.54618 0
M  V30 239 H 20.1124 0.699802 -0.261317 0
M  V30 240 H 22.7744 1.45574 -1.29592 0
M  V30 241 H 21.8704 2.95524 -1.0036 0
M  V30 242 N 22.1715 0.800033 1.35784 0
M  V30 243 C 23.5875 0.482977 1.52117 0
M  V30 244 C 23.7875 -0.996948 1.75109 0
M  V30 245 O 22.8435 -1.78216 1.78872 0
M  V30 246 C 24.1565 1.32264 2.70049 0
M  V30 247 C 25.7045 1.31742 2.83924 0
M  V30 248 C 26.1795 2.14106 4.04874 0
M  V30 249 N 27.6705 2.11607 4.12039 0
M  V30 250 C 28.4055 2.72099 5.04727 0
M  V30 251 N 27.9015 3.41492 6.02789 0
M  V30 252 N 29.6945 2.61776 4.97423 0
M  V30 253 H 21.8455 1.75856 1.19115 0
M  V30 254 H 24.1085 0.748122 0.582252 0
M  V30 255 H 23.8145 2.37261 2.59616 0
M  V30 256 H 23.6885 0.971303 3.6448 0
M  V30 257 H 26.0755 0.275333 2.93813 0
M  V30 258 H 26.1565 1.70859 1.9037 0
M  V30 259 H 25.8005 3.18351 3.95746 0
M  V30 260 H 25.7305 1.72353 4.97596 0
M  V30 261 H 28.2215 1.61112 3.41835 0
M  V30 262 H 28.5345 3.84953 6.70098 0
M  V30 263 H 26.8795 3.45596 6.02983 0
M  V30 264 H 30.0705 2.07157 4.19766 0
M  V30 265 H 30.2435 3.0921 5.69468 0
M  V30 266 N 23.6496 -1.47581 0.552962 0
M  V30 267 C 24.5796 -2.32762 -0.185451 0
M  V30 268 C 25.5606 -1.43527 -0.912905 0
M  V30 269 O 26.7456 -1.72388 -0.894201 0
M  V30 270 C 23.8756 -3.25219 -1.21859 0
M  V30 271 C 22.8296 -4.23661 -0.607864 0
M  V30 272 C 22.1556 -5.05413 -1.74533 0
M  V30 273 C 23.4556 -5.20481 0.435582 0
M  V30 274 H 25.1496 -2.94749 0.525684 0
M  V30 275 H 22.6956 -1.41738 0.254251 0
M  V30 276 H 24.6486 -3.8365 -1.7433 0
M  V30 277 H 23.3726 -2.61279 -1.95961 0
M  V30 278 H 22.0316 -3.66451 -0.104489 0
M  V30 279 H 21.6796 -4.3788 -2.47529 0
M  V30 280 H 21.3796 -5.72059 -1.34249 0
M  V30 281 H 22.9036 -5.66701 -2.27338 0
M  V30 282 H 24.3176 -5.733 -0.00290157 0
M  V30 283 H 22.7146 -5.95305 0.757067 0
M  V30 284 H 23.7846 -4.66217 1.33303 0
M  V30 285 N 25.1277 -0.289203 -1.54924 0
M  V30 286 C 26.3527 0.329299 -2.04769 0
M  V30 287 C 26.7777 1.4763 -1.16564 0
M  V30 288 O 26.1357 1.80527 -0.167186 0
M  V30 289 C 26.1837 0.774438 -3.52186 0
M  V30 290 O 25.2877 1.88038 -3.67036 0
M  V30 291 H 24.6287 0.0659259 -0.660719 0
M  V30 292 H 27.1587 -0.42761 -2.00082 0
M  V30 293 H 27.1687 1.06642 -3.93816 0
M  V30 294 H 25.8437 -0.0646707 -4.1585 0
M  V30 295 H 24.4207 1.58985 -3.3731 0
M  V30 296 N 26.6058 1.57591 -0.0167156 0
M  V30 297 C 27.8548 1.90461 0.663877 0
M  V30 298 C 28.1678 0.893515 1.73999 0
M  V30 299 O 29.3738 1.11302 2.47637 0
M  V30 300 C 27.8298 3.38155 1.23204 0
M  V30 301 C 27.4378 4.47597 0.189866 0
M  V30 302 C 29.1818 3.80111 1.88986 0
M  V30 303 C 27.0888 5.86379 0.768964 0
M  V30 304 H 26.0188 0.710738 0.251729 0
M  V30 305 H 28.6698 1.83326 -0.0799926 0
M  V30 306 H 27.0518 3.40182 2.02712 0
M  V30 307 H 28.2258 4.57112 -0.581846 0
M  V30 308 H 26.5408 4.14766 -0.368475 0
M  V30 309 H 29.1378 4.81145 2.33247 0
M  V30 310 H 29.4808 3.14511 2.72743 0
M  V30 311 H 30.0138 3.80454 1.16187 0
M  V30 312 H 26.7528 6.55493 -0.0301957 0
M  V30 313 H 26.2728 5.80496 1.50945 0
M  V30 314 H 27.9518 6.34563 1.26251 0
M  V30 315 N 28.0839 -0.256276 1.55502 0
M  V30 316 C 29.0319 -1.33694 1.90338 0
M  V30 317 C 30.0259 -1.50299 0.781441 0
M  V30 318 O 31.2319 -1.51885 0.965966 0
M  V30 319 H 27.6069 -0.447483 0.60437 0
M  V30 320 H 29.5779 -1.01574 2.8058 0
M  V30 321 C 28.3269 -2.68724 2.20642 0
M  V30 322 H 27.6499 -2.56743 3.06469 0
M  V30 323 H 29.0899 -3.43237 2.48926 0
M  V30 324 C 27.5489 -3.21101 1.01959 0
M  V30 325 O 28.0789 -4.0084 0.262762 0
M  V30 326 N 26.2849 -2.79003 0.812746 0
M  V30 327 H 25.8319 -2.14271 1.42989 0
M  V30 328 H 25.7899 -3.14393 0.0203076 0
M  V30 329 N 29.562 -1.4872 -0.521534 0
M  V30 330 C 30.973 -1.50607 -1.10337 0
M  V30 331 C 31.324 -0.280612 -1.94183 0
M  V30 332 O 30.449 0.611507 -2.0758 0
M  V30 333 C 31.044 -2.72903 -2.00772 0
M  V30 334 C 29.603 -2.77634 -2.54158 0
M  V30 335 C 28.75 -2.44241 -1.31307 0
M  V30 336 H 31.701 -1.55714 -0.306388 0
M  V30 337 H 31.722 -2.519 -2.85178 0
M  V30 338 H 31.234 -3.62077 -1.39721 0
M  V30 339 H 29.335 -1.92689 -3.18907 0
M  V30 340 H 29.448 -3.79283 -2.92714 0
M  V30 341 H 27.812 -1.95577 -1.63161 0
M  V30 342 H 28.595 -3.35666 -0.719943 0
M  V30 343 N 31.0401 0.771051 -1.3745 0
M  V30 344 C 32.4561 1.07171 -1.18265 0
M  V30 345 C 32.6561 2.01491 -0.019287 0
M  V30 346 O 31.7121 2.44244 0.640408 0
M  V30 347 C 33.0251 1.66854 -2.50161 0
M  V30 348 C 34.5731 1.79109 -2.56689 0
M  V30 349 C 35.0481 2.42205 -3.88717 0
M  V30 350 N 36.5391 2.49655 -3.90162 0
M  V30 351 C 37.2741 2.9933 -4.8907 0
M  V30 352 N 36.7701 3.49172 -5.98374 0
M  V30 353 N 38.5631 2.9821 -4.76474 0
M  V30 354 H 30.7141 0.144796 -2.11906 0
M  V30 355 H 32.9771 0.126863 -0.939473 0
M  V30 356 H 32.6831 1.05017 -3.35655 0
M  V30 357 H 32.5571 2.6614 -2.673 0
M  V30 358 H 34.9441 2.40077 -1.71601 0
M  V30 359 H 35.0251 0.785757 -2.43433 0
M  V30 360 H 34.6691 1.81875 -4.74219 0
M  V30 361 H 34.5991 3.43345 -3.99276 0
M  V30 362 H 37.0901 2.14383 -3.11205 0
M  V30 363 H 37.4031 3.8548 -6.69795 0
M  V30 364 H 35.7481 3.47275 -6.02018 0
M  V30 365 H 38.9391 2.58572 -3.90203 0
M  V30 366 H 39.1121 3.36613 -5.53711 0
M  V30 367 N 32.5182 1.22032 0.997298 0
M  V30 368 C 33.9292 1.0397 1.55071 0
M  V30 369 C 34.2802 -0.398192 1.92117 0
M  V30 370 O 33.4052 -1.28254 1.74298 0
M  V30 371 C 34.0002 1.88109 2.81781 0
M  V30 372 C 32.5592 1.74357 3.33581 0
M  V30 373 C 31.7062 1.84846 2.06706 0
M  V30 374 H 34.6572 1.35941 0.818883 0
M  V30 375 H 34.6782 1.39589 3.53971 0
M  V30 376 H 34.1902 2.92754 2.54787 0
M  V30 377 H 32.2912 0.72427 3.65493 0
M  V30 378 H 32.4042 2.56772 4.04481 0
M  V30 379 H 30.7682 1.28238 2.20062 0
M  V30 380 H 31.5512 2.91014 1.82114 0
M  V30 381 N 33.9963 -1.19345 1.0293 0
M  V30 382 C 35.4073 -1.70725 0.755633 0
M  V30 383 C 35.7583 -1.82326 -0.724676 0
M  V30 384 O 34.8833 -1.49471 -1.56484 0
M  V30 385 C 35.4783 -3.10084 1.36503 0
M  V30 386 C 34.0373 -3.58723 1.13994 0
M  V30 387 C 33.1843 -2.35577 1.46283 0
M  V30 388 H 36.1353 -1.0418 1.19718 0
M  V30 389 H 36.1563 -3.72787 0.762217 0
M  V30 390 H 35.6683 -3.01609 2.44241 0
M  V30 391 H 33.7693 -3.72512 0.0807901 0
M  V30 392 H 33.8823 -4.42816 1.82894 0
M  V30 393 H 32.2463 -2.38935 0.88217 0
M  V30 394 H 33.0293 -2.29731 2.55105 0
M  V30 395 N 35.4744 -0.807222 -1.35358 0
M  V30 396 C 36.7204 -0.388463 -1.99045 0
M  V30 397 C 37.0534 1.04184 -1.63888 0
M  V30 398 O 36.3284 1.72292 -0.902535 0
M  V30 399 C 36.6114 -0.572783 -3.55515 0
M  V30 400 C 36.4644 -2.04807 -4.00468 0
M  V30 401 C 37.7834 0.00114064 -4.401 0
M  V30 402 H 34.9024 -0.142619 -0.723069 0
M  V30 403 H 37.5444 -1.01687 -1.60498 0
M  V30 404 H 35.6944 -0.0378425 -3.88482 0
M  V30 405 H 37.3664 -2.64544 -3.77908 0
M  V30 406 H 35.6094 -2.54427 -3.51353 0
M  V30 407 H 36.2804 -2.12792 -5.09337 0
M  V30 408 H 38.7564 -0.455716 -4.13597 0
M  V30 409 H 37.6324 -0.157737 -5.48673 0
M  V30 410 H 37.8934 1.09488 -4.28328 0
M  V30 411 N 36.9525 1.47285 -0.560781 0
M  V30 412 C 37.8625 2.33846 0.187954 0
M  V30 413 C 38.8785 1.48412 0.908293 0
M  V30 414 O 40.0545 1.81332 0.876388 0
M  V30 415 C 37.1195 3.25178 1.2025 0
M  V30 416 C 36.1805 4.26504 0.489208 0
M  V30 417 C 35.4135 5.13472 1.45542 0
M  V30 418 O 35.6365 5.02959 2.6905 0
M  V30 419 O 34.5705 5.93902 0.977963 0
M  V30 420 H 38.3965 2.99177 -0.522177 0
M  V30 421 H 35.9815 1.45903 -0.321364 0
M  V30 422 H 37.8635 3.81584 1.78805 0
M  V30 423 H 36.5385 2.6247 1.89449 0
M  V30 424 H 35.4455 3.73847 -0.137627 0
M  V30 425 H 36.7785 4.91935 -0.161399 0
M  V30 426 N 38.4306 0.297415 1.54768 0
M  V30 427 C 39.8466 -0.0560823 1.59501 0
M  V30 428 C 40.0466 -1.52725 1.31444 0
M  V30 429 O 39.1026 -2.27947 1.08611 0
M  V30 430 C 40.4156 0.338631 2.98787 0
M  V30 431 C 41.9636 0.287097 3.11681 0
M  V30 432 C 42.4386 0.656579 4.53269 0
M  V30 433 N 43.9296 0.608977 4.59179 0
M  V30 434 C 44.6646 0.867385 5.66802 0
M  V30 435 N 44.1606 1.19157 6.82476 0
M  V30 436 N 45.9536 0.794687 5.56454 0
M  V30 437 H 38.1046 1.25624 1.71267 0
M  V30 438 H 40.3676 0.509057 0.799728 0
M  V30 439 H 40.0736 1.36263 3.2423 0
M  V30 440 H 39.9476 -0.309508 3.75928 0
M  V30 441 H 42.3346 -0.727649 2.85988 0
M  V30 442 H 42.4156 0.969809 2.36703 0
M  V30 443 H 42.0596 1.66912 4.7969 0
M  V30 444 H 41.9896 -0.0481649 5.26578 0
M  V30 445 H 44.4806 0.369198 3.76092 0
M  V30 446 H 44.7936 1.37482 7.60473 0
M  V30 447 H 43.1386 1.22958 6.84037 0
M  V30 448 H 46.3296 0.541098 4.64962 0
M  V30 449 H 46.5026 0.999445 6.40246 0
M  V30 450 N 39.9087 -1.5758 0.0250728 0
M  V30 451 C 41.1577 -1.90811 -0.653767 0
M  V30 452 C 41.4707 -0.90273 -1.73523 0
M  V30 453 O 42.6767 -1.12614 -2.47043 0
M  V30 454 C 41.1327 -3.38804 -1.21409 0
M  V30 455 C 40.7407 -4.47692 -0.166126 0
M  V30 456 C 42.4847 -3.81108 -1.86967 0
M  V30 457 C 40.3917 -5.86779 -0.737856 0
M  V30 458 H 39.3217 -0.712063 -0.247956 0
M  V30 459 H 41.9727 -1.83281 0.0897137 0
M  V30 460 H 40.3547 -3.41252 -2.00905 0
M  V30 461 H 41.5287 -4.56797 0.606079 0
M  V30 462 H 39.8437 -4.14565 0.390466 0
M  V30 463 H 42.4407 -4.82375 -2.30692 0
M  V30 464 H 42.7837 -3.15953 -2.71071 0
M  V30 465 H 43.3167 -3.81065 -1.14167 0
M  V30 466 H 40.0557 -6.55468 0.0649577 0
M  V30 467 H 39.5757 -5.81288 -1.47864 0
M  V30 468 H 41.2547 -6.35223 -1.22884 0
M  V30 469 N 41.3868 0.248026 -1.55636 0
M  V30 470 C 42.3348 1.32683 -1.91045 0
M  V30 471 C 43.3288 1.49883 -0.789401 0
M  V30 472 O 44.5348 1.51371 -0.974007 0
M  V30 473 H 40.9098 0.444272 -0.606734 0
M  V30 474 H 42.8808 1.00085 -2.81115 0
M  V30 475 C 41.6298 2.6755 -2.22064 0
M  V30 476 H 40.9528 2.55114 -3.07826 0
M  V30 477 H 42.3928 3.41912 -2.50743 0
M  V30 478 C 40.8518 3.20556 -1.0366 0
M  V30 479 O 41.3818 4.00695 -0.284016 0
M  V30 480 N 39.5878 2.78568 -0.82753 0
M  V30 481 H 39.1348 2.1351 -1.44123 0
M  V30 482 H 39.0928 3.14378 -0.0369803 0
M  V30 483 N 42.8649 1.48995 0.513639 0
M  V30 484 C 44.1129 1.57531 1.26604 0
M  V30 485 C 44.4339 0.258236 1.93283 0
M  V30 486 O 43.7039 -0.721502 1.8213 0
M  V30 487 H 42.2839 0.580387 0.470276 0
M  V30 488 H 44.9459 1.85552 0.596373 0
M  V30 489 H 44.0419 2.36486 2.03669 0
M  V30 490 N 44.343 -0.763751 1.37857 0
M  V30 491 C 45.306 -1.85889 1.34081 0
M  V30 492 C 46.306 -1.58949 0.243277 0
M  V30 493 O 47.496 -1.66882 0.499589 0
M  V30 494 C 44.628 -3.23176 1.08489 0
M  V30 495 H 45.821 -1.90648 2.31502 0
M  V30 496 H 43.374 -0.964367 1.23003 0
M  V30 497 H 44.109 -3.24091 0.116318 0
M  V30 498 H 43.894 -3.44124 1.8794 0
M  V30 499 H 45.384 -4.03254 1.08517 0
M  V30 500 N 45.8211 -1.22559 -0.990812 0
M  V30 501 C 47.0491 -1.07779 -1.76611 0
M  V30 502 C 47.4641 0.371513 -1.85109 0
M  V30 503 O 46.8211 1.25737 -1.32274 0
M  V30 504 C 46.8721 -1.68512 -3.19822 0
M  V30 505 O 46.5931 -3.07774 -3.1178 0
M  V30 506 C 48.0941 -1.59035 -4.13791 0
M  V30 507 H 45.3141 -0.377729 -0.554583 0
M  V30 508 H 47.8581 -1.62195 -1.24551 0
M  V30 509 H 46.0131 -1.18154 -3.68942 0
M  V30 510 H 46.4271 -3.37062 -4.01858 0
M  V30 511 H 47.9011 -2.0625 -5.1202 0
M  V30 512 H 48.3781 -0.547273 -4.35777 0
M  V30 513 H 48.9841 -2.08709 -3.70568 0
M  V30 514 N 47.2992 1.18797 -1.03562 0
M  V30 515 C 48.5452 1.8893 -0.737113 0
M  V30 516 C 48.8782 1.79837 0.732956 0
M  V30 517 O 48.1532 1.19525 1.5344 0
M  V30 518 C 48.4362 3.39607 -1.19745 0
M  V30 519 C 48.2892 3.57537 -2.72924 0
M  V30 520 C 49.6082 4.33069 -0.783526 0
M  V30 521 H 46.7272 0.686057 -0.269249 0
M  V30 522 H 49.3692 1.39797 -1.28673 0
M  V30 523 H 47.5192 3.81583 -0.729855 0
M  V30 524 H 49.1912 3.24688 -3.27682 0
M  V30 525 H 47.4342 3.00363 -3.12993 0
M  V30 526 H 48.1052 4.63238 -3.00191 0
M  V30 527 H 50.5812 3.98846 -1.18581 0
M  V30 528 H 49.4572 5.3707 -1.13343 0
M  V30 529 H 49.7182 4.40986 0.313681 0
M  V30 530 N 48.7773 0.814389 1.34928 0
M  V30 531 C 50.0543 0.321363 1.92942 0
M  V30 532 C 50.4343 -1.19014 1.74353 0
M  V30 533 O 49.7823 -1.99328 1.11716 0
M  V30 534 C 49.9923 0.741323 3.41036 0
M  V30 535 C 51.3403 0.735266 4.18185 0
M  V30 536 O 52.3643 0.68336 3.49584 0
M  V30 537 O 51.2233 0.800703 5.40602 0
M  V30 538 H 48.3173 0.0858893 0.822528 0
M  V30 539 H 50.8633 0.898609 1.43955 0
M  V30 540 H 49.6353 1.78276 3.4833 0
M  V30 541 H 49.2583 0.139307 3.97356 0
M  V30 542 N 50.2554 -1.46986 0.568584 0
M  V30 543 C 51.5014 -2.02741 0.0488709 0
M  V30 544 C 51.8344 -1.44077 -1.30214 0
M  V30 545 O 51.1094 -0.600552 -1.84996 0
M  V30 546 C 51.3924 -3.60086 -0.032047 0
M  V30 547 C 51.2454 -4.29162 1.34686 0
M  V30 548 C 52.5644 -4.33838 -0.739798 0
M  V30 549 H 49.6834 -0.736749 0.0192338 0
M  V30 550 H 52.3254 -1.75289 0.733065 0
M  V30 551 H 50.4754 -3.83606 -0.61473 0
M  V30 552 H 52.1474 -4.16948 1.97362 0
M  V30 553 H 50.3904 -3.89073 1.91846 0
M  V30 554 H 51.0614 -5.37826 1.24285 0
M  V30 555 H 53.5374 -4.15378 -0.244939 0
M  V30 556 H 52.4134 -5.43537 -0.765406 0
M  V30 557 H 52.6744 -4.03875 -1.79827 0
M  V30 558 N 51.7335 -0.305618 -1.54608 0
M  V30 559 C 53.1495 0.0476228 -1.59529 0
M  V30 560 C 53.3495 1.52025 -1.32252 0
M  V30 561 O 52.4055 2.27368 -1.09818 0
M  V30 562 C 53.7185 -0.354471 -2.98603 0
M  V30 563 C 55.2665 -0.303622 -3.11524 0
M  V30 564 C 55.7415 -0.680608 -4.52915 0
M  V30 565 N 57.2325 -0.63332 -4.5885 0
M  V30 566 C 57.9675 -0.897432 -5.66334 0
M  V30 567 N 57.4635 -1.22775 -6.81834 0
M  V30 568 N 59.2565 -0.824186 -5.56025 0
M  V30 569 H 51.4075 -1.2653 -1.70599 0
M  V30 570 H 53.6705 -0.513291 -0.797017 0
M  V30 571 H 53.3765 -1.3798 -3.23503 0
M  V30 572 H 53.2505 0.289568 -3.76087 0
M  V30 573 H 55.6375 0.712472 -2.8637 0
M  V30 574 H 55.7185 -0.982348 -2.36185 0
M  V30 575 H 55.3625 -1.69453 -4.78799 0
M  V30 576 H 55.2925 0.0202385 -5.26596 0
M  V30 577 H 57.7835 -0.389138 -3.75891 0
M  V30 578 H 58.0965 -1.41513 -7.59733 0
M  V30 579 H 56.4415 -1.26583 -6.83375 0
M  V30 580 H 59.6325 -0.565748 -4.64669 0
M  V30 581 H 59.8055 -1.03338 -6.39707 0
M  V30 582 N 53.2116 1.57565 -0.0334293 0
M  V30 583 C 54.1416 2.13511 0.945265 0
M  V30 584 C 55.1226 1.05231 1.33643 0
M  V30 585 O 56.3076 1.33084 1.41429 0
M  V30 586 C 53.4376 2.6657 2.22616 0
M  V30 587 C 52.3916 3.79676 1.97561 0
M  V30 588 C 51.7176 4.1918 3.31952 0
M  V30 589 C 53.0176 5.0557 1.31135 0
M  V30 590 H 54.7116 2.95538 0.479325 0
M  V30 591 H 52.2576 1.42166 0.229115 0
M  V30 592 H 54.2106 3.04344 2.91466 0
M  V30 593 H 52.9346 1.8171 2.71384 0
M  V30 594 H 51.5936 3.42347 1.31127 0
M  V30 595 H 51.2416 3.31296 3.78487 0
M  V30 596 H 50.9416 4.95402 3.15992 0
M  V30 597 H 52.4656 4.59541 4.02063 0
M  V30 598 H 53.8796 5.40903 1.89992 0
M  V30 599 H 52.2766 5.86818 1.25559 0
M  V30 600 H 53.3466 4.84062 0.284894 0
M  V30 601 N 54.6897 -0.239769 1.55765 0
M  V30 602 C 55.9377 -0.964892 1.77579 0
M  V30 603 C 56.2587 -1.85582 0.598699 0
M  V30 604 O 55.5287 -1.92075 -0.385226 0
M  V30 605 H 54.1087 -0.359265 0.654933 0
M  V30 606 H 56.7707 -0.256001 1.93211 0
M  V30 607 H 55.8667 -1.58243 2.69009 0
M  V30 608 N 56.1678 -1.49265 -0.50573 0
M  V30 609 C 57.1158 -1.66065 -1.62866 0
M  V30 610 C 58.1098 -0.526636 -1.61006 0
M  V30 611 O 59.3158 -0.706126 -1.65571 0
M  V30 612 H 55.6908 -0.52356 -0.539805 0
M  V30 613 H 57.6618 -2.60329 -1.45848 0
M  V30 614 C 56.4108 -1.74008 -3.01026 0
M  V30 615 H 55.7338 -2.6064 -3.03161 0
M  V30 616 H 57.1738 -1.89798 -3.79147 0
M  V30 617 C 55.6328 -0.483868 -3.33407 0
M  V30 618 O 56.1628 0.392548 -3.99777 0
M  V30 619 N 54.3688 -0.348236 -2.88506 0
M  V30 620 H 53.9158 -1.06242 -2.34671 0
M  V30 621 H 53.8738 0.491204 -3.10539 0
M  V30 622 N 57.6459 0.756429 -1.3826 0
M  V30 623 C 58.5929 1.87011 -1.35261 0
M  V30 624 C 59.5629 1.64695 -0.215616 0
M  V30 625 O 60.7479 1.864 -0.407399 0
M  V30 626 C 57.8879 3.24275 -1.18068 0
M  V30 627 C 57.0009 3.58442 -2.41129 0
M  V30 628 C 56.1359 4.84994 -2.16689 0
M  V30 629 C 55.1749 5.11939 -3.35537 0
M  V30 630 N 54.3119 6.29685 -3.10549 0
M  V30 631 H 59.1519 1.8891 -2.30472 0
M  V30 632 H 56.6889 0.923373 -1.14509 0
M  V30 633 H 58.6469 4.03479 -1.06116 0
M  V30 634 H 57.2769 3.21711 -0.264973 0
M  V30 635 H 56.3289 2.74103 -2.63764 0
M  V30 636 H 57.6409 3.74283 -3.29717 0
M  V30 637 H 56.7949 5.72135 -2.01857 0
M  V30 638 H 55.5339 4.71286 -1.25462 0
M  V30 639 H 54.5389 4.23268 -3.50891 0
M  V30 640 H 55.7639 5.27546 -4.27635 0
M  V30 641 H 53.7099 6.17306 -2.21967 0
M  V30 642 H 53.6269 6.46014 -3.92686 0
M  V30 643 H 54.8949 7.19722 -2.99367 0
M  V30 644 N 59.124 1.23083 0.984299 0
M  V30 645 C 60.371 1.06057 1.72505 0
M  V30 646 C 60.699 -0.403105 1.90277 0
M  V30 647 O 59.954 -1.3149 1.44944 0
M  V30 648 C 60.253 1.72673 3.1292 0
M  V30 649 C 59.919 3.22586 3.15038 0
M  V30 650 C 58.581 3.63489 3.15324 0
M  V30 651 C 60.933 4.185 3.10657 0
M  V30 652 C 58.261 4.98772 3.08939 0
M  V30 653 C 60.613 5.53769 3.05814 0
M  V30 654 C 59.277 5.94041 3.04419 0
M  V30 655 H 58.547 0.388091 0.631242 0
M  V30 656 H 61.194 1.52963 1.15215 0
M  V30 657 H 59.499 1.18116 3.73572 0
M  V30 658 H 61.196 1.56982 3.68996 0
M  V30 659 H 57.786 2.90022 3.15571 0
M  V30 660 H 61.97 3.87911 3.09579 0
M  V30 661 H 57.226 5.29193 3.0621 0
M  V30 662 H 61.4 6.27808 3.0138 0
M  V30 663 H 59.027 6.98833 2.99227 0
M  V30 664 N 60.6021 -1.18246 1.0419 0
M  V30 665 C 62.0181 -1.40269 0.761366 0
M  V30 666 C 62.2181 -1.90777 -0.648578 0
M  V30 667 O 61.2741 -2.0929 -1.41258 0
M  V30 668 C 62.5871 -2.40237 1.8085 0
M  V30 669 C 64.1351 -2.53961 1.82955 0
M  V30 670 C 64.6101 -3.57194 2.86664 0
M  V30 671 N 66.1011 -3.64702 2.85563 0
M  V30 672 C 66.8361 -4.44309 3.6246 0
M  V30 673 N 66.3321 -5.27514 4.49111 0
M  V30 674 N 68.1251 -4.39084 3.50944 0
M  V30 675 H 60.2761 -0.837882 1.95175 0
M  V30 676 H 62.5391 -0.430608 0.84456 0
M  V30 677 H 62.2451 -2.10176 2.81991 0
M  V30 678 H 62.1191 -3.39601 1.64168 0
M  V30 679 H 64.5061 -2.83338 0.824855 0
M  V30 680 H 64.5871 -1.54706 2.03715 0
M  V30 681 H 64.2311 -3.28558 3.87314 0
M  V30 682 H 64.1611 -4.5613 2.6316 0
M  V30 683 H 66.6521 -3.05289 2.22727 0
M  V30 684 H 66.9651 -5.85411 5.04493 0
M  V30 685 H 65.3101 -5.2693 4.53178 0
M  V30 686 H 68.5011 -3.7313 2.82651 0
M  V30 687 H 68.6741 -5.00883 4.11121 0
M  V30 688 N 62.0802 -0.821533 -1.34494 0
M  V30 689 C 63.3082 -0.421884 -2.02553 0
M  V30 690 C 63.7232 0.971745 -1.61872 0
M  V30 691 O 63.0802 1.62864 -0.823496 0
M  V30 692 C 63.1312 -0.51285 -3.57844 0
M  V30 693 O 62.8522 -1.85155 -3.97051 0
M  V30 694 C 64.3532 -0.107921 -4.43169 0
M  V30 695 H 61.5732 -0.169482 -0.649243 0
M  V30 696 H 64.1172 -1.1093 -1.71798 0
M  V30 697 H 62.2722 0.126474 -3.87193 0
M  V30 698 H 62.6862 -1.82482 -4.91732 0
M  V30 699 H 64.1602 -0.222657 -5.51551 0
M  V30 700 H 64.6372 0.948401 -4.28838 0
M  V30 701 H 65.2432 -0.720989 -4.19144 0
M  V30 702 N 63.5583 1.46682 -0.576371 0
M  V30 703 C 64.8053 2.02412 -0.0595339 0
M  V30 704 C 65.1333 1.44859 1.29793 0
M  V30 705 O 64.3883 0.601099 1.8624 0
M  V30 706 C 64.6873 3.57345 0.062886 0
M  V30 707 C 64.3533 4.33908 -1.22616 0
M  V30 708 C 63.0153 4.54544 -1.57933 0
M  V30 709 C 65.3673 4.77919 -2.07948 0
M  V30 710 C 62.6953 5.16444 -2.78393 0
M  V30 711 C 65.0473 5.41149 -3.27629 0
M  V30 712 C 63.7113 5.60014 -3.63236 0
M  V30 713 H 62.9813 0.74068 -0.021785 0
M  V30 714 H 65.6283 1.76128 -0.751735 0
M  V30 715 H 63.9333 3.82729 0.838178 0
M  V30 716 H 65.6303 3.98136 0.478439 0
M  V30 717 H 62.2203 4.18138 -0.941202 0
M  V30 718 H 66.4043 4.61738 -1.81967 0
M  V30 719 H 61.6603 5.29242 -3.06126 0
M  V30 720 H 65.8343 5.74211 -3.94023 0
M  V30 721 H 63.4613 6.07748 -4.56669 0
M  V30 722 N 65.0364 0.313813 1.54444 0
M  V30 723 C 66.4524 -0.0391619 1.59552 0
M  V30 724 C 66.6524 -1.51322 1.33056 0
M  V30 725 O 65.7084 -2.26782 1.11022 0
M  V30 726 C 67.0214 0.370302 2.98411 0
M  V30 727 C 68.5694 0.320139 3.11358 0
M  V30 728 C 69.0444 0.704617 4.52547 0
M  V30 729 N 70.5354 0.657645 4.58508 0
M  V30 730 C 71.2704 0.927453 5.6585 0
M  V30 731 N 70.7664 1.26389 6.81174 0
M  V30 732 N 72.5594 0.853662 5.5558 0
M  V30 733 H 64.7104 1.27433 1.69925 0
M  V30 734 H 66.9734 0.517511 0.794284 0
M  V30 735 H 66.6794 1.39694 3.22767 0
M  V30 736 H 66.5534 -0.269619 3.76235 0
M  V30 737 H 68.9404 -0.697275 2.86744 0
M  V30 738 H 69.0214 0.99486 2.35661 0
M  V30 739 H 68.6654 1.7199 4.77893 0
M  V30 740 H 68.5954 0.00768843 5.26599 0
M  V30 741 H 71.0864 0.409067 3.75679 0
M  V30 742 H 71.3994 1.4554 7.58972 0
M  V30 743 H 69.7444 1.30206 6.82694 0
M  V30 744 H 72.9354 0.590383 4.64362 0
M  V30 745 H 73.1084 1.0673 6.3915 0
M  V30 746 N 66.5145 -1.57545 0.0417849 0
M  V30 747 C 67.7625 -1.91937 -0.632829 0
M  V30 748 C 68.0835 -0.919978 -1.71934 0
M  V30 749 O 67.3535 0.0366064 -1.95866 0
M  V30 750 H 65.9335 -0.708493 -0.236742 0
M  V30 751 H 68.5955 -1.9468 0.0925745 0
M  V30 752 H 67.6915 -2.92912 -1.07746 0
M  V30 753 N 67.9926 0.231505 -1.5589 0
M  V30 754 C 68.9426 1.29007 -1.87993 0
M  V30 755 C 69.9266 1.42764 -0.742102 0
M  V30 756 O 71.1186 1.45747 -1.00433 0
M  V30 757 C 68.2476 2.6425 -2.1915 0
M  V30 758 C 67.3336 2.54435 -3.39299 0
M  V30 759 N 67.7246 2.14262 -4.58176 0
M  V30 760 C 66.0226 2.85416 -3.42715 0
M  V30 761 C 66.7236 2.15455 -5.40328 0
M  V30 762 N 65.6996 2.55558 -4.79783 0
M  V30 763 H 69.5016 0.970213 -2.77424 0
M  V30 764 H 67.0156 0.440097 -1.56323 0
M  V30 765 H 69.0126 3.40665 -2.40319 0
M  V30 766 H 67.6726 2.9709 -1.31025 0
M  V30 767 H 68.6836 1.85554 -4.83518 0
M  V30 768 H 65.3606 3.22693 -2.64906 0
M  V30 769 H 66.7506 1.86605 -6.45467 0
M  V30 770 N 69.4707 1.49531 0.497807 0
M  V30 771 C 70.6987 1.62893 1.27567 0
M  V30 772 C 71.1137 0.301585 1.86376 0
M  V30 773 O 70.4707 -0.713335 1.67982 0
M  V30 774 C 70.5217 2.70013 2.40364 0
M  V30 775 O 70.2427 3.976 1.83972 0
M  V30 776 C 71.7437 2.94109 3.31685 0
M  V30 777 H 68.9637 0.548298 0.386794 0
M  V30 778 H 71.5077 1.95584 0.597245 0
M  V30 779 H 69.6627 2.40092 3.04031 0
M  V30 780 H 70.0767 4.56631 2.58047 0
M  V30 781 H 71.5507 3.72788 4.07104 0
M  V30 782 H 72.0277 2.04147 3.88871 0
M  V30 783 H 72.6337 3.2546 2.73781 0
M  V30 784 N 70.9488 -0.749086 1.3866 0
M  V30 785 C 71.9118 -1.84457 1.36045 0
M  V30 786 C 72.9118 -1.58682 0.260122 0
M  V30 787 O 74.1018 -1.66343 0.517261 0
M  V30 788 C 71.2338 -3.22008 1.11911 0
M  V30 789 H 72.4268 -1.88182 2.33512 0
M  V30 790 H 69.9798 -0.951266 1.24019 0
M  V30 791 H 70.7148 -3.2395 0.150686 0
M  V30 792 H 70.4998 -3.42111 1.91579 0
M  V30 793 H 71.9898 -4.0208 1.12788 0
M  V30 794 N 72.4269 -1.23603 -0.977757 0
M  V30 795 C 73.3899 -1.02069 -2.05218 0
M  V30 796 C 74.3899 0.0184305 -1.60789 0
M  V30 797 O 75.5799 -0.221569 -1.72785 0
M  V30 798 C 72.7119 -0.544926 -3.36517 0
M  V30 799 H 73.9049 -1.9742 -2.25755 0
M  V30 800 H 71.4579 -1.05684 -1.15155 0
M  V30 801 H 72.1929 0.412241 -3.21669 0
M  V30 802 H 71.9779 -1.2948 -3.70105 0
M  V30 803 H 73.4679 -0.414985 -4.15533 0
M  V30 804 N 73.905 1.17692 -1.04816 0
M  V30 805 C 75.152 1.87859 -0.75599 0
M  V30 806 C 75.48 1.80812 0.716752 0
M  V30 807 O 74.735 1.20819 1.53952 0
M  V30 808 C 75.034 3.37462 -1.17703 0
M  V30 809 C 74.7 3.64713 -2.65133 0
M  V30 810 C 73.362 3.71859 -3.05408 0
M  V30 811 C 75.714 3.76492 -3.60421 0
M  V30 812 C 73.042 3.88271 -4.39843 0
M  V30 813 C 75.394 3.94421 -4.94585 0
M  V30 814 C 74.058 3.99806 -5.3452 0
M  V30 815 H 73.328 0.687425 -0.276636 0
M  V30 816 H 75.975 1.39255 -1.31455 0
M  V30 817 H 74.28 3.88097 -0.537395 0
M  V30 818 H 75.977 3.90109 -0.928218 0
M  V30 819 H 72.567 3.59772 -2.32942 0
M  V30 820 H 76.751 3.70295 -3.30447 0
M  V30 821 H 72.007 3.90687 -4.70291 0
M  V30 822 H 76.181 4.02477 -5.68318 0
M  V30 823 H 73.808 4.12276 -6.38696 0
M  V30 824 N 75.3831 0.828654 1.34056 0
M  V30 825 C 76.6321 0.415828 1.97367 0
M  V30 826 C 76.9451 -1.02796 1.6641 0
M  V30 827 O 78.1511 -1.54497 2.23255 0
M  V30 828 C 76.6071 0.692601 3.53173 0
M  V30 829 C 76.2151 2.15038 3.93017 0
M  V30 830 C 77.9591 0.346222 4.23086 0
M  V30 831 C 75.8661 2.37174 5.41758 0
M  V30 832 H 74.7961 0.151755 0.738571 0
M  V30 833 H 77.4471 1.01581 1.52819 0
M  V30 834 H 75.8291 0.0223764 3.95994 0
M  V30 835 H 77.0031 2.86024 3.61285 0
M  V30 836 H 75.3181 2.45875 3.36057 0
M  V30 837 H 77.9151 0.48937 5.32456 0
M  V30 838 H 78.2581 -0.709842 4.10204 0
M  V30 839 H 78.7911 0.971258 3.85761 0
M  V30 840 H 75.5301 3.41308 5.59633 0
M  V30 841 H 75.0501 1.70738 5.74986 0
M  V30 842 H 76.7291 2.19818 6.08514 0
M  V30 843 N 76.8612 -1.46375 0.584142 0
M  V30 844 C 78.1382 -1.956 0.0033388 0
M  V30 845 C 78.5182 -1.52679 -1.45782 0
M  V30 846 O 77.8662 -0.77816 -2.14842 0
M  V30 847 C 78.0762 -3.48551 0.176891 0
M  V30 848 C 79.4242 -4.24576 0.0454609 0
M  V30 849 O 80.4482 -3.56043 0.105801 0
M  V30 850 O 79.3072 -5.46427 -0.0890376 0
M  V30 851 H 76.4012 -0.825547 -0.0490066 0
M  V30 852 H 78.9472 -1.56652 0.65256 0
M  V30 853 H 77.7192 -3.72683 1.1926 0
M  V30 854 H 77.3422 -3.94332 -0.508695 0
M  V30 855 N 78.3393 -0.321999 -1.54275 0
M  V30 856 C 79.2693 0.537411 -2.27231 0
M  V30 857 C 80.2503 1.12064 -1.27968 0
M  V30 858 O 81.4353 1.14606 -1.56777 0
M  V30 859 C 78.5653 1.69919 -3.02894 0
M  V30 860 C 77.5193 1.24534 -4.09482 0
M  V30 861 C 76.8453 2.49394 -4.72977 0
M  V30 862 C 78.1453 0.361335 -5.21049 0
M  V30 863 H 79.8393 -0.0711406 -2.99315 0
M  V30 864 H 77.3853 -0.0356555 -1.43956 0
M  V30 865 H 79.3383 2.30668 -3.52662 0
M  V30 866 H 78.0623 2.33431 -2.28424 0
M  V30 867 H 76.7213 0.660782 -3.60596 0
M  V30 868 H 76.3693 3.11265 -3.95124 0
M  V30 869 H 76.0693 2.19718 -5.44975 0
M  V30 870 H 77.5933 3.10908 -5.25517 0
M  V30 871 H 79.0073 0.875072 -5.66582 0
M  V30 872 H 77.4043 0.157428 -5.99893 0
M  V30 873 H 78.4743 -0.60822 -4.8107 0
M  V30 874 N 79.8174 1.5752 -0.0501392 0
M  V30 875 C 81.0424 1.97376 0.636997 0
M  V30 876 C 81.4674 0.927466 1.63645 0
M  V30 877 O 80.8254 -0.10941 1.8097 0
M  V30 878 C 80.8734 3.36304 1.30123 0
M  V30 879 O 79.9774 3.34156 2.41689 0
M  V30 880 H 79.3184 0.642998 0.165679 0
M  V30 881 H 81.8484 2.04258 -0.118233 0
M  V30 882 H 81.8584 3.73008 1.65315 0
M  V30 883 H 80.5334 4.11993 0.568746 0
M  V30 884 H 79.1104 3.09196 2.08451 0
M  V30 885 N 81.2955 -0.223234 1.56011 0
M  V30 886 C 82.5435 -0.946003 1.78592 0
M  V30 887 C 82.8645 -1.84936 0.618349 0
M  V30 888 O 82.1345 -1.92473 -0.364833 0
M  V30 889 H 80.7145 -0.352298 0.658707 0
M  V30 890 H 83.3765 -0.235494 1.93472 0
M  V30 891 H 82.4725 -1.55381 2.70672 0
M  V30 892 N 82.7736 -1.49793 -0.48987 0
M  V30 893 C 84.1846 -1.52914 -1.07118 0
M  V30 894 C 84.5356 -0.321738 -1.93544 0
M  V30 895 O 83.6606 0.567338 -2.08831 0
M  V30 896 C 84.2556 -2.771 -1.94938 0
M  V30 897 C 82.8146 -2.82963 -2.48212 0
M  V30 898 C 81.9616 -2.46972 -1.26096 0
M  V30 899 H 84.9126 -1.56329 -0.273289 0
M  V30 900 H 84.9336 -2.57892 -2.79771 0
M  V30 901 H 84.4456 -3.64959 -1.32009 0
M  V30 902 H 82.5466 -1.99411 -3.14748 0
M  V30 903 H 82.6596 -3.85406 -2.84603 0
M  V30 904 H 81.0236 -1.98994 -1.58976 0
M  V30 905 H 81.8066 -3.37118 -0.648581 0
M  V30 906 N 84.2517 0.741722 -1.39055 0
M  V30 907 C 85.1987 1.85566 -1.37237 0
M  V30 908 C 86.1687 1.64457 -0.233072 0
M  V30 909 O 87.3537 1.85957 -0.427147 0
M  V30 910 C 84.4937 3.23004 -1.215 0
M  V30 911 C 83.6067 3.55864 -2.44918 0
M  V30 912 C 82.7417 4.82669 -2.21821 0
M  V30 913 C 81.7807 5.08351 -3.40948 0
M  V30 914 N 80.9177 6.26356 -3.17211 0
M  V30 915 H 85.7577 1.86455 -2.32462 0
M  V30 916 H 83.2947 0.911176 -1.15482 0
M  V30 917 H 85.2527 4.02331 -1.10389 0
M  V30 918 H 83.8827 3.21411 -0.29908 0
M  V30 919 H 82.9347 2.7129 -2.66657 0
M  V30 920 H 84.2467 3.70765 -3.33668 0
M  V30 921 H 83.4007 5.69962 -2.07914 0
M  V30 922 H 82.1397 4.69929 -1.30454 0
M  V30 923 H 81.1447 4.19522 -3.55361 0
M  V30 924 H 82.3697 5.22981 -4.33207 0
M  V30 925 H 80.3157 6.14917 -2.28502 0
M  V30 926 H 80.2327 6.41813 -3.99515 0
M  V30 927 H 81.5007 7.16506 -3.06984 0
M  V30 928 N 85.7298 1.2412 0.971189 0
M  V30 929 C 87.0068 0.986867 1.6888 0
M  V30 930 C 87.3868 -0.491857 2.0529 0
M  V30 931 O 86.7348 -1.46531 1.75331 0
M  V30 932 C 86.9448 1.9063 2.92338 0
M  V30 933 C 88.2928 2.17515 3.64654 0
M  V30 934 O 89.3168 1.88254 3.02388 0
M  V30 935 O 88.1758 2.6719 4.7673 0
M  V30 936 H 85.2698 0.372944 0.738134 0
M  V30 937 H 87.8158 1.35203 1.02559 0
M  V30 938 H 86.5878 2.90552 2.62097 0
M  V30 939 H 86.2108 1.54408 3.66393 0
M  V30 940 N 87.2079 -1.17134 1.05439 0
M  V30 941 C 88.1179 -2.24878 0.668365 0
M  V30 942 C 89.1339 -1.71186 -0.311687 0
M  V30 943 O 90.3099 -2.00738 -0.163161 0
M  V30 944 C 87.3749 -3.46662 0.051648 0
M  V30 945 C 86.4359 -4.15429 1.08246 0
M  V30 946 C 85.6689 -5.31399 0.495082 0
M  V30 947 O 85.8919 -5.66153 -0.694743 0
M  V30 948 O 84.8259 -5.89187 1.23056 0
M  V30 949 H 88.6519 -2.60189 1.56637 0
M  V30 950 H 86.2369 -1.24482 0.826104 0
M  V30 951 H 88.1189 -4.20394 -0.290966 0
M  V30 952 H 86.7939 -3.13142 -0.819971 0
M  V30 953 H 85.7009 -3.43704 1.47711 0
M  V30 954 H 87.0339 -4.52982 1.92532 0
M  V30 955 N 88.686 -0.835752 -1.33615 0
M  V30 956 C 89.932 -0.430596 -1.98176 0
M  V30 957 C 90.265 1.00684 -1.66061 0
M  V30 958 O 89.54 1.70339 -0.938877 0
M  V30 959 C 89.823 -0.648065 -3.5422 0
M  V30 960 C 89.676 -2.13255 -3.96033 0
M  V30 961 C 90.995 -0.0922113 -4.40003 0
M  V30 962 H 88.114 -0.157924 -0.719881 0
M  V30 963 H 90.756 -1.05069 -1.58305 0
M  V30 964 H 88.906 -0.120237 -3.88314 0
M  V30 965 H 90.578 -2.725 -3.72211 0
M  V30 966 H 88.821 -2.61823 -3.45878 0
M  V30 967 H 89.492 -2.23547 -5.04708 0
M  V30 968 H 91.968 -0.543343 -4.12537 0
M  V30 969 H 90.844 -0.274083 -5.48215 0
M  V30 970 H 91.105 1.00378 -4.30554 0
M  V30 971 N 90.1641 1.46063 -0.591896 0
M  V30 972 C 91.3891 2.07226 -0.0850314 0
M  V30 973 C 91.8141 1.43625 1.21463 0
M  V30 974 O 91.1721 0.523305 1.73583 0
M  V30 975 C 91.2201 3.60554 0.0576567 0
M  V30 976 O 90.3241 3.97128 1.11188 0
M  V30 977 H 89.6651 0.660615 -0.0669568 0
M  V30 978 H 92.1951 1.8756 -0.81745 0
M  V30 979 H 92.2051 4.07165 0.2609 0
M  V30 980 H 90.8801 4.06235 -0.891416 0
M  V30 981 H 89.4571 3.62213 0.886356 0
M  V30 982 N 91.6422 0.330177 1.54103 0
M  V30 983 C 92.6052 -0.520144 2.2322 0
M  V30 984 C 93.6052 -1.03828 1.22786 0
M  V30 985 O 94.7952 -0.929652 1.4732 0
M  V30 986 C 91.9272 -1.72317 2.94142 0
M  V30 987 H 93.1202 0.0841605 2.99782 0
M  V30 988 H 90.6732 0.0813433 1.56088 0
M  V30 989 H 91.4082 -2.36653 2.21734 0
M  V30 990 H 91.1932 -1.35898 3.67796 0
M  V30 991 H 92.6832 -2.3266 3.46784 0
M  V30 992 N 93.1203 -1.57491 0.0584922 0
M  V30 993 C 94.0833 -2.1085 -0.898617 0
M  V30 994 C 95.0833 -1.02964 -1.23511 0
M  V30 995 O 96.2733 -1.29007 -1.17059 0
M  V30 996 C 93.4053 -2.59881 -2.20623 0
M  V30 997 H 94.5983 -2.96715 -0.435936 0
M  V30 998 H 92.1513 -1.55141 -0.190023 0
M  V30 999 H 92.8863 -1.77431 -2.71457 0
M  V30 1000 H 92.6713 -3.38727 -1.97501 0
M  V30 1001 H 94.1613 -3.01285 -2.89166 0
M  V30 1002 N 94.5984 0.214957 -1.56127 0
M  V30 1003 C 95.5284 1.2695 -1.95974 0
M  V30 1004 C 96.5094 1.48539 -0.828868 0
M  V30 1005 O 97.6944 1.60611 -1.09168 0
M  V30 1006 C 94.8244 2.61794 -2.28214 0
M  V30 1007 C 93.7784 2.54851 -3.43853 0
M  V30 1008 C 93.1044 3.93785 -3.61715 0
M  V30 1009 C 94.4044 2.09065 -4.78632 0
M  V30 1010 H 96.0984 0.93846 -2.84312 0
M  V30 1011 H 93.6444 0.449996 -1.36788 0
M  V30 1012 H 95.5974 3.35731 -2.54682 0
M  V30 1013 H 94.3214 2.96599 -1.36736 0
M  V30 1014 H 92.9804 1.8337 -3.17444 0
M  V30 1015 H 92.6284 4.25908 -2.67602 0
M  V30 1016 H 92.3284 3.90019 -4.39498 0
M  V30 1017 H 93.8524 4.69374 -3.90539 0
M  V30 1018 H 95.2664 2.7275 -5.04262 0
M  V30 1019 H 93.6634 2.16346 -5.59745 0
M  V30 1020 H 94.7334 1.04315 -4.73547 0
M  V30 1021 N 96.0765 1.50051 0.48192 0
M  V30 1022 C 97.3535 1.51009 1.2432 0
M  V30 1023 C 97.7335 0.248587 2.09631 0
M  V30 1024 O 97.0815 -0.768409 2.15192 0
M  V30 1025 C 97.2915 2.79981 2.08355 0
M  V30 1026 C 98.6395 3.3022 2.66908 0
M  V30 1027 O 99.6635 2.81228 2.18607 0
M  V30 1028 O 98.5225 4.15595 3.54884 0
M  V30 1029 H 95.6165 0.605239 0.563573 0
M  V30 1030 H 98.1625 1.62332 0.494627 0
M  V30 1031 H 96.9345 3.63275 1.45419 0
M  V30 1032 H 96.5575 2.7161 2.90368 0
M  V30 1033 N 97.5546 -0.734337 1.39446 0
M  V30 1034 C 98.9706 -1.03997 1.21065 0
M  V30 1035 C 99.1706 -2.01369 0.0727019 0
M  V30 1036 O 98.2266 -2.45856 -0.575426 0
M  V30 1037 C 99.5396 -1.60163 2.54496 0
M  V30 1038 C 101.088 -1.7224 2.61347 0
M  V30 1039 C 101.563 -2.31814 3.95002 0
M  V30 1040 N 103.054 -2.39223 3.96644 0
M  V30 1041 C 103.789 -2.86258 4.96834 0
M  V30 1042 N 103.285 -3.33184 6.07421 0
M  V30 1043 N 105.078 -2.85473 4.84213 0
M  V30 1044 H 97.2286 -0.0885624 2.12215 0
M  V30 1045 H 99.4916 -0.10191 0.942506 0
M  V30 1046 H 99.1976 -0.960811 3.38321 0
M  V30 1047 H 99.0716 -2.5896 2.74262 0
M  V30 1048 H 101.459 -2.35443 1.77906 0
M  V30 1049 H 101.54 -0.720939 2.4543 0
M  V30 1050 H 101.184 -1.69238 4.78875 0
M  V30 1051 H 101.114 -3.32638 4.08239 0
M  V30 1052 H 103.605 -2.06057 3.16779 0
M  V30 1053 H 103.918 -3.67586 6.7978 0
M  V30 1054 H 102.263 -3.31191 6.11013 0
M  V30 1055 H 105.454 -2.48136 3.96921 0
M  V30 1056 H 105.627 -3.21814 5.62441 0
M  V30 1057 N 99.0327 -1.24633 -0.964593 0
M  V30 1058 C 100.279 -1.08949 -1.71049 0
M  V30 1059 C 100.612 0.370302 -1.90637 0
M  V30 1060 O 99.8867 1.27349 -1.47011 0
M  V30 1061 C 100.17 -1.83329 -3.0994 0
M  V30 1062 C 100.023 -3.37077 -2.97824 0
M  V30 1063 C 101.342 -1.60846 -4.09654 0
M  V30 1064 H 98.4607 -0.397178 -0.620821 0
M  V30 1065 H 101.103 -1.5334 -1.12191 0
M  V30 1066 H 99.2527 -1.45597 -3.60186 0
M  V30 1067 H 100.925 -3.84425 -2.5498 0
M  V30 1068 H 99.1677 -3.65298 -2.33965 0
M  V30 1069 H 99.8387 -3.84324 -3.96231 0
M  V30 1070 H 102.315 -1.93674 -3.68279 0
M  V30 1071 H 101.191 -2.1534 -5.04896 0
M  V30 1072 H 101.452 -0.547434 -4.38698 0
M  V30 1073 N 100.511 1.16574 -1.06058 0
M  V30 1074 C 101.444 2.19798 -0.61352 0
M  V30 1075 C 102.422 1.58509 0.362453 0
M  V30 1076 O 103.606 1.86527 0.271994 0
M  V30 1077 C 100.733 3.3855 0.100915 0
M  V30 1078 C 99.7788 4.18317 -0.831438 0
M  V30 1079 S 100.612 4.82375 -2.32539 0
M  V30 1080 C 101.768 6.04508 -1.62238 0
M  V30 1081 H 102.001 2.5738 -1.48805 0
M  V30 1082 H 99.5338 1.27327 -0.873338 0
M  V30 1083 H 101.492 4.07358 0.506898 0
M  V30 1084 H 100.153 2.99338 0.951604 0
M  V30 1085 H 99.3458 5.03232 -0.278071 0
M  V30 1086 H 98.9478 3.5499 -1.17719 0
M  V30 1087 H 101.24 6.71133 -0.926622 0
M  V30 1088 H 102.183 6.64389 -2.44934 0
M  V30 1089 H 102.591 5.53559 -1.106 0
M  V30 1090 N 101.989 0.842826 1.3317 0
M  V30 1091 C 103.214 0.453129 2.02389 0
M  V30 1092 C 103.639 -0.939105 1.6298 0
M  V30 1093 O 102.997 -1.61472 0.8244 0
M  V30 1094 C 103.045 0.586094 3.55805 0
M  V30 1095 O 102.149 -0.386029 4.10589 0
M  V30 1096 H 101.49 0.183664 0.638094 0
M  V30 1097 H 104.02 1.13875 1.69981 0
M  V30 1098 H 104.03 0.469209 4.05293 0
M  V30 1099 H 102.705 1.6014 3.83833 0
M  V30 1100 H 101.282 -0.226371 3.72212 0
M  V30 1101 N 103.467 -1.45747 0.599634 0
M  V30 1102 C 104.744 -1.95585 0.0240846 0
M  V30 1103 C 105.124 -1.54217 -1.44154 0
M  V30 1104 O 104.472 -0.800903 -2.14004 0
M  V30 1105 C 104.682 -3.48344 0.21385 0
M  V30 1106 C 106.03 -4.24504 0.0904902 0
M  V30 1107 O 107.054 -3.55911 0.143558 0
M  V30 1108 O 105.913 -5.46491 -0.0310766 0
M  V30 1109 H 103.007 -0.82602 -0.0402478 0
M  V30 1110 H 105.553 -1.55951 0.669139 0
M  V30 1111 H 104.325 -3.71397 1.23206 0
M  V30 1112 H 103.948 -3.9485 -0.466842 0
M  V30 1113 N 104.945 -0.338344 -1.53925 0
M  V30 1114 C 105.855 0.529421 -2.28548 0
M  V30 1115 C 106.871 1.11645 -1.3346 0
M  V30 1116 O 108.047 1.13325 -1.66492 0
M  V30 1117 C 105.112 1.66713 -3.03987 0
M  V30 1118 C 104.173 1.11041 -4.14691 0
M  V30 1119 C 103.406 2.19389 -4.86522 0
M  V30 1120 O 103.629 3.40013 -4.57982 0
M  V30 1121 O 102.563 1.83976 -5.73094 0
M  V30 1122 H 106.389 -0.0770399 -3.03602 0
M  V30 1123 H 103.974 -0.103555 -1.49041 0
M  V30 1124 H 105.856 2.32918 -3.5118 0
M  V30 1125 H 104.531 2.25949 -2.31794 0
M  V30 1126 H 103.438 0.413024 -3.71813 0
M  V30 1127 H 104.771 0.562975 -4.8897 0
M  V30 1128 N 106.423 1.57458 -0.0668435 0
M  V30 1129 C 107.672 1.92477 0.602947 0
M  V30 1130 C 107.985 0.948419 1.71068 0
M  V30 1131 O 109.191 1.19124 2.43971 0
M  V30 1132 C 107.647 3.41903 1.12383 0
M  V30 1133 C 107.255 4.47975 0.04737 0
M  V30 1134 C 108.999 3.85931 1.76797 0
M  V30 1135 C 106.906 5.88529 0.582022 0
M  V30 1136 H 105.836 0.718387 0.22899 0
M  V30 1137 H 108.487 1.82978 -0.138276 0
M  V30 1138 H 106.869 3.46459 1.91787 0
M  V30 1139 H 108.043 4.55029 -0.726978 0
M  V30 1140 H 106.358 4.13384 -0.500243 0
M  V30 1141 H 108.955 4.88322 2.17821 0
M  V30 1142 H 109.298 3.23029 2.62599 0
M  V30 1143 H 109.831 3.83958 1.04024 0
M  V30 1144 H 106.57 6.55065 -0.238721 0
M  V30 1145 H 106.09 5.85004 1.324 0
M  V30 1146 H 107.769 6.38258 1.05999 0
M  V30 1147 N 107.901 -0.206675 1.56239 0
M  V30 1148 C 109.147 -0.930218 1.80208 0
M  V30 1149 C 109.48 -1.83387 0.638981 0
M  V30 1150 O 108.755 -1.91119 -0.361066 0
M  V30 1151 C 109.038 -1.75641 3.1436 0
M  V30 1152 C 108.891 -0.878257 4.41142 0
M  V30 1153 C 110.21 -2.73129 3.45092 0
M  V30 1154 H 107.329 -0.336742 0.655571 0
M  V30 1155 H 109.971 -0.198222 1.88963 0
M  V30 1156 H 108.121 -2.38048 3.07027 0
M  V30 1157 H 109.793 -0.269787 4.6051 0
M  V30 1158 H 108.036 -0.184385 4.33408 0
M  V30 1159 H 108.707 -1.49106 5.3148 0
M  V30 1160 H 111.183 -2.20856 3.52649 0
M  V30 1161 H 110.059 -3.28028 4.40101 0
M  V30 1162 H 110.32 -3.51606 2.68003 0
M  V30 1163 N 109.379 -1.50304 -0.473955 0
M  V30 1164 C 110.309 -1.71886 -1.58042 0
M  V30 1165 C 111.29 -0.567799 -1.60344 0
M  V30 1166 O 112.475 -0.806623 -1.76656 0
M  V30 1167 C 109.605 -1.81036 -2.96384 0
M  V30 1168 C 108.559 -2.962 -3.08949 0
M  V30 1169 C 107.885 -2.9049 -4.48909 0
M  V30 1170 C 109.185 -4.36752 -2.86434 0
M  V30 1171 H 110.879 -2.64527 -1.40234 0
M  V30 1172 H 108.425 -1.27295 -0.673201 0
M  V30 1173 H 110.378 -1.94719 -3.73714 0
M  V30 1174 H 109.102 -0.850147 -3.15341 0
M  V30 1175 H 107.761 -2.82164 -2.3405 0
M  V30 1176 H 107.409 -1.92321 -4.64781 0
M  V30 1177 H 107.109 -3.67802 -4.58253 0
M  V30 1178 H 108.633 -3.06218 -5.28264 0
M  V30 1179 H 110.047 -4.5133 -3.53517 0
M  V30 1180 H 108.444 -5.15493 -3.07225 0
M  V30 1181 H 109.514 -4.49321 -1.82316 0
M  V30 1182 N 110.857 0.726932 -1.39834 0
M  V30 1183 C 112.134 1.47902 -1.28001 0
M  V30 1184 C 112.514 2.1083 0.106789 0
M  V30 1185 O 111.862 1.99242 1.11869 0
M  V30 1186 C 112.072 2.52392 -2.41038 0
M  V30 1187 C 113.42 3.18546 -2.80737 0
M  V30 1188 O 114.444 2.62708 -2.40547 0
M  V30 1189 O 113.303 4.19604 -3.50135 0
M  V30 1190 H 110.397 0.657163 -0.502062 0
M  V30 1191 H 112.943 0.760071 -1.51727 0
M  V30 1192 H 111.715 2.04329 -3.33715 0
M  V30 1193 H 111.338 3.31837 -2.19021 0
M  V30 1194 N 112.336 1.25143 0.95797 0
M  V30 1195 C 113.246 1.06968 2.08794 0
M  V30 1196 C 114.262 0.00773911 1.73998 0
M  V30 1197 O 115.438 0.207972 2.00323 0
M  V30 1198 C 112.503 0.68691 3.39827 0
M  V30 1199 C 111.564 1.82641 3.88511 0
M  V30 1200 C 110.797 1.46181 5.1329 0
M  V30 1201 O 111.02 0.355971 5.69288 0
M  V30 1202 O 109.954 2.29085 5.566 0
M  V30 1203 H 113.78 2.01723 2.27027 0
M  V30 1204 H 111.365 1.04051 1.07209 0
M  V30 1205 H 113.247 0.485417 4.18595 0
M  V30 1206 H 111.922 -0.231417 3.22872 0
M  V30 1207 H 110.829 2.08274 3.10762 0
M  V30 1208 H 112.162 2.72386 4.09959 0
M  V30 1209 N 113.814 -1.1601 1.06675 0
M  V30 1210 C 115.062 -1.86264 0.784229 0
M  V30 1211 C 115.383 -1.82328 -0.691488 0
M  V30 1212 O 114.653 -1.25947 -1.50047 0
M  V30 1213 H 113.233 -0.689621 0.28711 0
M  V30 1214 H 115.895 -1.40664 1.34906 0
M  V30 1215 H 114.991 -2.91595 1.11259 0
M  V30 1216 N 115.292 -0.849877 -1.32721 0
M  V30 1217 C 116.202 -0.293791 -2.32753 0
M  V30 1218 C 117.218 0.585906 -1.63839 0
M  V30 1219 O 118.394 0.487413 -1.95413 0
M  V30 1220 C 115.459 0.512752 -3.42887 0
M  V30 1221 C 114.52 -0.39252 -4.27502 0
M  V30 1222 C 113.753 0.375625 -5.32377 0
M  V30 1223 O 113.976 1.60613 -5.4732 0
M  V30 1224 O 112.91 -0.256094 -6.01355 0
M  V30 1225 H 116.736 -1.12242 -2.82197 0
M  V30 1226 H 114.321 -0.612685 -1.36259 0
M  V30 1227 H 116.203 0.970704 -4.10067 0
M  V30 1228 H 114.878 1.31826 -2.95641 0
M  V30 1229 H 113.785 -0.898547 -3.63149 0
M  V30 1230 H 115.118 -1.16309 -4.7826 0
M  V30 1231 N 116.77 1.45427 -0.607355 0
M  V30 1232 C 117.733 2.28974 0.101693 0
M  V30 1233 C 118.733 1.39754 0.795329 0
M  V30 1234 O 119.923 1.61878 0.643527 0
M  V30 1235 C 117.055 3.20768 1.15414 0
M  V30 1236 H 118.248 2.93147 -0.632844 0
M  V30 1237 H 115.801 1.51945 -0.366391 0
M  V30 1238 H 116.536 2.61395 1.91945 0
M  V30 1239 H 116.321 3.86489 0.66098 0
M  V30 1240 H 117.811 3.83589 1.65073 0
M  V30 1241 N 118.248 0.346503 1.53744 0
M  V30 1242 C 119.495 -0.249104 2.00962 0
M  V30 1243 C 119.823 -1.5032 1.23426 0
M  V30 1244 O 119.078 -1.93217 0.310761 0
M  V30 1245 C 119.377 -0.605809 3.52228 0
M  V30 1246 C 119.043 0.551747 4.47512 0
M  V30 1247 C 117.705 0.86941 4.73281 0
M  V30 1248 C 120.057 1.32818 5.03993 0
M  V30 1249 C 117.385 1.96582 5.52786 0
M  V30 1250 C 119.737 2.41486 5.84694 0
M  V30 1251 C 118.401 2.73808 6.08757 0
M  V30 1252 H 117.671 -0.0911538 0.735372 0
M  V30 1253 H 120.318 0.475027 1.85515 0
M  V30 1254 H 118.623 -1.4107 3.65522 0
M  V30 1255 H 120.32 -1.07858 3.86222 0
M  V30 1256 H 116.91 0.294102 4.2759 0
M  V30 1257 H 121.094 1.09602 4.84047 0
M  V30 1258 H 116.35 2.22045 5.69654 0
M  V30 1259 H 120.524 3.02078 6.27473 0
M  V30 1260 H 118.151 3.58892 6.7015 0
M  V30 1261 N 119.726 -1.57421 0.075193 0
M  V30 1262 C 120.956 -1.97659 -0.601203 0
M  V30 1263 C 121.364 -0.952427 -1.63479 0
M  V30 1264 O 120.707 0.0688241 -1.83571 0
M  V30 1265 C 120.769 -3.34218 -1.32434 0
M  V30 1266 C 120.433 -4.5484 -0.443826 0
M  V30 1267 C 121.43 -5.19034 0.299969 0
M  V30 1268 C 119.115 -5.00952 -0.367709 0
M  V30 1269 C 121.109 -6.27695 1.10807 0
M  V30 1270 C 118.796 -6.09484 0.444058 0
M  V30 1271 C 119.794 -6.72719 1.18061 0
M  V30 1272 O 119.482 -7.79161 1.97898 0
M  V30 1273 H 119.214 -0.65494 -0.167422 0
M  V30 1274 H 121.768 -2.04886 0.145157 0
M  V30 1275 H 119.998 -3.23615 -2.11685 0
M  V30 1276 H 121.687 -3.59038 -1.89331 0
M  V30 1277 H 122.453 -4.84351 0.250776 0
M  V30 1278 H 118.332 -4.51509 -0.930638 0
M  V30 1279 H 121.876 -6.76982 1.68347 0
M  V30 1280 H 117.773 -6.43601 0.494803 0
M  V30 1281 H 118.541 -7.96055 1.90367 0
M  V30 1282 N 121.204 0.198386 -1.56346 0
M  V30 1283 C 122.134 1.24865 -1.9731 0
M  V30 1284 C 123.115 1.47651 -0.844576 0
M  V30 1285 O 124.3 1.59444 -1.10866 0
M  V30 1286 C 121.43 2.59358 -2.30977 0
M  V30 1287 C 120.384 2.5119 -3.46537 0
M  V30 1288 C 119.71 3.89926 -3.65871 0
M  V30 1289 C 121.01 2.03977 -4.80823 0
M  V30 1290 H 122.704 0.908252 -2.85291 0
M  V30 1291 H 120.25 0.435462 -1.37258 0
M  V30 1292 H 122.203 3.33011 -2.58228 0
M  V30 1293 H 120.927 2.95132 -1.39874 0
M  V30 1294 H 119.586 1.79993 -3.19371 0
M  V30 1295 H 119.234 4.23046 -2.72105 0
M  V30 1296 H 118.934 3.85336 -4.4361 0
M  V30 1297 H 120.458 4.65205 -3.95495 0
M  V30 1298 H 121.872 2.67386 -5.07127 0
M  V30 1299 H 120.269 2.10397 -5.62008 0
M  V30 1300 H 121.339 0.992861 -4.74626 0
M  V30 1301 N 122.682 1.50554 0.465978 0
M  V30 1302 C 123.632 1.66177 1.56106 0
M  V30 1303 C 124.616 0.516265 1.52393 0
M  V30 1304 O 125.808 0.770906 1.5933 0
M  V30 1305 C 122.937 1.76396 2.94515 0
M  V30 1306 C 122.023 2.9664 3.03093 0
M  V30 1307 N 122.414 4.20245 2.81474 0
M  V30 1308 C 120.712 2.95304 3.34233 0
M  V30 1309 C 121.413 5.01259 2.95151 0
M  V30 1310 N 120.389 4.35318 3.25576 0
M  V30 1311 H 124.191 2.59434 1.38099 0
M  V30 1312 H 121.705 1.47808 0.6728 0
M  V30 1313 H 123.702 1.85694 3.73261 0
M  V30 1314 H 122.362 0.843017 3.13565 0
M  V30 1315 H 123.373 4.4966 2.56956 0
M  V30 1316 H 120.05 2.12729 3.59239 0
M  V30 1317 H 121.44 6.09564 2.82632 0
M  V30 1318 N 124.16 -0.719506 1.40217 0
M  V30 1319 C 125.571 -1.29848 1.34151 0
M  V30 1320 C 125.922 -1.96196 0.0131349 0
M  V30 1321 O 125.047 -1.973 -0.88892 0
M  V30 1322 C 125.642 -2.36118 2.42968 0
M  V30 1323 C 124.201 -2.8965 2.40374 0
M  V30 1324 C 123.348 -1.63393 2.24049 0
M  V30 1325 H 126.299 -0.51591 1.5008 0
M  V30 1326 H 126.32 -3.16871 2.10649 0
M  V30 1327 H 125.832 -1.878 3.39636 0
M  V30 1328 H 123.933 -3.42208 1.47392 0
M  V30 1329 H 124.046 -3.4171 3.35814 0
M  V30 1330 H 122.41 -1.88312 1.71495 0
M  V30 1331 H 123.193 -1.17104 3.2271 0
M  V30 1332 N 125.638 -1.25649 -0.95132 0
M  V30 1333 C 126.886 -1.10375 -1.69298 0
M  V30 1334 C 127.207 0.355339 -1.91735 0
M  V30 1335 O 126.477 1.25188 -1.50681 0
M  V30 1336 H 125.057 -0.405461 -0.627384 0
M  V30 1337 H 127.719 -1.57823 -1.14358 0
M  V30 1338 H 126.815 -1.61465 -2.67087 0
M  V30 1339 N 127.117 1.15442 -1.07289 0
M  V30 1340 C 128.027 2.23786 -0.704057 0
M  V30 1341 C 129.043 1.7166 0.284413 0
M  V30 1342 O 130.219 2.00972 0.131205 0
M  V30 1343 C 127.284 3.46535 -0.106792 0
M  V30 1344 C 126.345 4.13654 -1.14842 0
M  V30 1345 C 125.578 5.30544 -0.57956 0
M  V30 1346 O 125.801 5.67187 0.604585 0
M  V30 1347 O 124.735 5.87154 -1.32414 0
M  V30 1348 H 128.561 2.57664 -1.60757 0
M  V30 1349 H 126.146 1.23152 -0.845803 0
M  V30 1350 H 128.028 4.20804 0.224048 0
M  V30 1351 H 126.703 3.14407 0.770049 0
M  V30 1352 H 125.61 3.4131 -1.5316 0
M  V30 1353 H 126.943 4.49861 -1.99714 0
M  V30 1354 N 128.595 0.856903 1.32268 0
M  V30 1355 C 129.525 0.31858 2.31316 0
M  V30 1356 C 130.506 -0.583487 1.59779 0
M  V30 1357 O 131.691 -0.503259 1.87566 0
M  V30 1358 C 128.821 -0.491979 3.43798 0
M  V30 1359 C 127.775 0.315849 4.26833 0
M  V30 1360 C 127.101 -0.619586 5.31098 0
M  V30 1361 C 128.401 1.54282 4.98993 0
M  V30 1362 H 130.095 1.14621 2.76591 0
M  V30 1363 H 127.641 0.552613 1.32974 0
M  V30 1364 H 129.594 -0.879012 4.1213 0
M  V30 1365 H 128.318 -1.35299 2.97257 0
M  V30 1366 H 126.977 0.684664 3.6015 0
M  V30 1367 H 126.625 -1.47751 4.8081 0
M  V30 1368 H 126.325 -0.0830621 5.87541 0
M  V30 1369 H 127.849 -1.00375 6.02293 0
M  V30 1370 H 129.263 1.22796 5.59995 0
M  V30 1371 H 127.66 2.01745 5.65172 0
M  V30 1372 H 128.73 2.30285 4.26728 0
M  V30 1373 N 130.073 -1.45103 0.615059 0
M  V30 1374 C 131.036 -2.29025 -0.0895485 0
M  V30 1375 C 132.036 -1.40174 -0.787906 0
M  V30 1376 O 133.226 -1.62217 -0.634933 0
M  V30 1377 C 130.358 -3.21376 -1.13711 0
M  V30 1378 H 131.551 -2.92807 0.648382 0
M  V30 1379 H 129.104 -1.51749 0.374444 0
M  V30 1380 H 129.839 -2.6241 -1.90556 0
M  V30 1381 H 129.624 -3.86834 -0.640475 0
M  V30 1382 H 131.114 -3.84459 -1.63036 0
M  V30 1383 N 131.551 -0.354651 -1.53558 0
M  V30 1384 C 132.481 0.489091 -2.2832 0
M  V30 1385 C 133.462 1.09324 -1.30316 0
M  V30 1386 O 134.647 1.11255 -1.59173 0
M  V30 1387 C 131.777 1.63456 -3.0643 0
M  V30 1388 C 130.731 1.1582 -4.12031 0
M  V30 1389 C 130.057 2.39305 -4.7816 0
M  V30 1390 C 131.357 0.250731 -5.21698 0
M  V30 1391 H 133.051 -0.134614 -2.99097 0
M  V30 1392 H 130.597 -0.0661826 -1.43848 0
M  V30 1393 H 132.55 2.23136 -3.57475 0
M  V30 1394 H 131.274 2.28533 -2.33325 0
M  V30 1395 H 129.933 0.584146 -3.61916 0
M  V30 1396 H 129.581 3.02814 -4.01637 0
M  V30 1397 H 129.281 2.08109 -5.49513 0
M  V30 1398 H 130.805 2.99691 -5.31994 0
M  V30 1399 H 132.219 0.754695 -5.68311 0
M  V30 1400 H 130.616 0.0301468 -6.00092 0
M  V30 1401 H 131.686 -0.710125 -4.79672 0
M  V30 1402 N 133.029 1.57378 -0.0835403 0
M  V30 1403 C 133.992 2.12252 0.864959 0
M  V30 1404 C 134.992 1.04916 1.21858 0
M  V30 1405 O 136.182 1.30853 1.14991 0
M  V30 1406 C 133.314 2.63358 2.16461 0
M  V30 1407 H 134.507 2.97371 0.388676 0
M  V30 1408 H 132.06 1.55423 0.165317 0
M  V30 1409 H 132.795 1.81727 2.686 0
M  V30 1410 H 132.58 3.41826 1.92087 0
M  V30 1411 H 134.07 3.05847 2.84337 0
M  V30 1412 N 134.507 -0.190092 1.56449 0
M  V30 1413 C 135.753 -0.911052 1.81184 0
M  V30 1414 C 136.086 -1.82699 0.658396 0
M  V30 1415 O 135.361 -1.91491 -0.340775 0
M  V30 1416 C 135.644 -1.72297 3.16205 0
M  V30 1417 C 135.497 -0.831419 4.42049 0
M  V30 1418 C 136.816 -2.69454 3.47969 0
M  V30 1419 H 133.935 -0.32977 0.659106 0
M  V30 1420 H 136.577 -0.178169 1.89163 0
M  V30 1421 H 134.727 -2.34778 3.09534 0
M  V30 1422 H 136.399 -0.220929 4.60771 0
M  V30 1423 H 134.642 -0.138406 4.33579 0
M  V30 1424 H 135.313 -1.43461 5.33032 0
M  V30 1425 H 137.789 -2.17104 3.54972 0
M  V30 1426 H 136.665 -3.23342 4.43555 0
M  V30 1427 H 136.926 -3.48744 2.71717 0
M  V30 1428 N 135.985 -1.50799 -0.457987 0
M  V30 1429 C 137.213 -1.66218 -1.23203 0
M  V30 1430 C 137.628 -0.350894 -1.85511 0
M  V30 1431 O 136.985 0.668546 -1.69814 0
M  V30 1432 C 137.036 -2.76291 -2.33121 0
M  V30 1433 O 136.757 -4.02338 -1.73366 0
M  V30 1434 C 138.258 -3.028 -3.2377 0
M  V30 1435 H 135.478 -0.558361 -0.372121 0
M  V30 1436 H 138.022 -1.97099 -0.545179 0
M  V30 1437 H 136.177 -2.48068 -2.97558 0
M  V30 1438 H 136.591 -4.63312 -2.4585 0
M  V30 1439 H 138.065 -3.8345 -3.97077 0
M  V30 1440 H 138.542 -2.14385 -3.83322 0
M  V30 1441 H 139.148 -3.32604 -2.65056 0
M  V30 1442 N 137.463 0.71206 -1.40597 0
M  V30 1443 C 138.393 1.83889 -1.43899 0
M  V30 1444 C 139.374 1.67442 -0.299504 0
M  V30 1445 O 140.559 1.87421 -0.508624 0
M  V30 1446 C 137.689 3.21877 -1.30431 0
M  V30 1447 C 136.643 3.53002 -2.42019 0
M  V30 1448 C 135.969 4.90172 -2.13626 0
M  V30 1449 C 137.269 3.53643 -3.84362 0
M  V30 1450 H 138.963 1.81383 -2.38203 0
M  V30 1451 H 136.509 0.871237 -1.14654 0
M  V30 1452 H 138.462 4.00404 -1.31357 0
M  V30 1453 H 137.186 3.24968 -0.326049 0
M  V30 1454 H 135.845 2.76818 -2.40349 0
M  V30 1455 H 135.493 4.89869 -1.14182 0
M  V30 1456 H 135.193 5.11962 -2.88389 0
M  V30 1457 H 136.717 5.71028 -2.1624 0
M  V30 1458 H 138.131 4.22203 -3.87837 0
M  V30 1459 H 136.528 3.86961 -4.58673 0
M  V30 1460 H 137.598 2.52954 -4.13693 0
M  V30 1461 N 138.941 1.26152 0.944643 0
M  V30 1462 C 139.851 1.09176 2.07648 0
M  V30 1463 C 140.867 0.0261935 1.7398 0
M  V30 1464 O 142.043 0.229208 2.00091 0
M  V30 1465 C 139.108 0.722915 3.39079 0
M  V30 1466 C 138.169 1.86752 3.86552 0
M  V30 1467 C 137.402 1.51617 5.11711 0
M  V30 1468 O 137.625 0.416331 5.68879 0
M  V30 1469 O 136.559 2.34975 5.54139 0
M  V30 1470 H 140.385 2.0412 2.24875 0
M  V30 1471 H 137.97 1.05182 1.061 0
M  V30 1472 H 139.852 0.529787 4.18056 0
M  V30 1473 H 138.527 -0.197159 3.23099 0
M  V30 1474 H 137.434 2.11558 3.08535 0
M  V30 1475 H 138.767 2.76719 4.07047 0
M  V30 1476 N 140.419 -1.14872 1.07899 0
M  V30 1477 C 141.644 -1.90202 0.826926 0
M  V30 1478 C 142.069 -1.77774 -0.614664 0
M  V30 1479 O 141.427 -1.11431 -1.43013 0
M  V30 1480 C 141.475 -3.38352 1.24702 0
M  V30 1481 O 140.579 -4.10497 0.39575 0
M  V30 1482 H 139.92 -0.591968 0.300782 0
M  V30 1483 H 142.45 -1.45437 1.43907 0
M  V30 1484 H 142.46 -3.89156 1.22563 0
M  V30 1485 H 141.135 -3.46715 2.29698 0
M  V30 1486 H 139.712 -3.69796 0.480117 0
M  V30 1487 N 141.898 -0.863906 -1.31812 0
M  V30 1488 C 143.144 -0.472535 -1.97218 0
M  V30 1489 C 143.477 0.971394 -1.68159 0
M  V30 1490 O 142.752 1.68309 -0.974798 0
M  V30 1491 C 143.035 -0.723054 -3.52766 0
M  V30 1492 C 142.888 -2.21608 -3.91421 0
M  V30 1493 C 144.207 -0.185522 -4.39709 0
M  V30 1494 H 141.326 -0.173158 -0.71637 0
M  V30 1495 H 143.968 -1.08403 -1.56041 0
M  V30 1496 H 142.118 -0.202577 -3.87971 0
M  V30 1497 H 143.79 -2.80334 -3.66347 0
M  V30 1498 H 142.033 -2.691 -3.40246 0
M  V30 1499 H 142.704 -2.34203 -4.99853 0
M  V30 1500 H 145.18 -0.630726 -4.11292 0
M  V30 1501 H 144.056 -0.390306 -5.47511 0
M  V30 1502 H 144.317 0.912229 -4.32586 0
M  V30 1503 N 143.376 1.44774 -0.622745 0
M  V30 1504 C 144.604 2.06487 -0.130722 0
M  V30 1505 C 145.019 1.46476 1.19123 0
M  V30 1506 O 144.376 0.584502 1.72887 0
M  V30 1507 C 144.427 3.615 -0.000807207 0
M  V30 1508 O 144.148 4.19274 -1.27048 0
M  V30 1509 C 145.649 4.40229 0.520898 0
M  V30 1510 H 142.869 0.666704 -0.0758106 0
M  V30 1511 H 145.413 1.85779 -0.854774 0
M  V30 1512 H 143.568 3.81498 0.673643 0
M  V30 1513 H 143.982 5.12622 -1.1099 0
M  V30 1514 H 145.456 5.49144 0.560838 0
M  V30 1515 H 145.933 4.1108 1.54627 0
M  V30 1516 H 146.539 4.25131 -0.120018 0
M  V30 1517 N 144.854 0.36279 1.53368 0
M  V30 1518 C 145.784 -0.476976 2.28576 0
M  V30 1519 C 146.765 -1.08631 1.30894 0
M  V30 1520 O 147.95 -1.10409 1.59761 0
M  V30 1521 C 145.08 -1.61828 3.07293 0
M  V30 1522 C 144.034 -1.13633 4.1264 0
M  V30 1523 C 143.36 -2.36766 4.79423 0
M  V30 1524 C 144.66 -0.223061 5.21823 0
M  V30 1525 H 146.354 0.150474 2.99022 0
M  V30 1526 H 143.9 0.0738103 1.43811 0
M  V30 1527 H 145.853 -2.21237 3.58653 0
M  V30 1528 H 144.577 -2.27292 2.34533 0
M  V30 1529 H 143.236 -0.564945 3.62221 0
M  V30 1530 H 142.884 -3.0068 4.03238 0
M  V30 1531 H 142.584 -2.05192 5.50609 0
M  V30 1532 H 144.108 -2.96865 5.33576 0
M  V30 1533 H 145.522 -0.724545 5.68703 0
M  V30 1534 H 143.919 0.001678 6.001 0
M  V30 1535 H 144.989 0.735553 4.79289 0
M  V30 1536 N 146.332 -1.57332 0.0918853 0
M  V30 1537 C 147.743 -1.81496 -0.437739 0
M  V30 1538 C 148.094 -1.00727 -1.6837 0
M  V30 1539 O 147.219 -0.235694 -2.15113 0
M  V30 1540 C 147.814 -3.29197 -0.800939 0
M  V30 1541 C 146.373 -3.54136 -1.27532 0
M  V30 1542 C 145.52 -2.75979 -0.270392 0
M  V30 1543 H 148.471 -1.55494 0.317366 0
M  V30 1544 H 148.492 -3.42344 -1.66074 0
M  V30 1545 H 148.004 -3.87955 0.106078 0
M  V30 1546 H 146.105 -3.00705 -2.20016 0
M  V30 1547 H 146.218 -4.62792 -1.23938 0
M  V30 1548 H 144.582 -2.43349 -0.751872 0
M  V30 1549 H 145.365 -3.37484 0.629248 0
M  V30 1550 N 147.81 0.181792 -1.56548 0
M  V30 1551 C 148.773 1.20894 -1.94724 0
M  V30 1552 C 149.773 1.37738 -0.829747 0
M  V30 1553 O 150.963 1.35323 -1.09697 0
M  V30 1554 C 148.095 2.57593 -2.23291 0
M  V30 1555 H 149.288 0.882275 -2.86629 0
M  V30 1556 H 146.841 0.423838 -1.50444 0
M  V30 1557 H 147.576 2.95291 -1.34067 0
M  V30 1558 H 147.361 2.46735 -3.04736 0
M  V30 1559 H 148.851 3.31637 -2.53785 0
M  V30 1560 N 149.288 1.51039 0.449983 0
M  V30 1561 C 150.565 1.53612 1.21089 0
M  V30 1562 C 150.945 0.292997 2.09057 0
M  V30 1563 O 150.293 -0.72259 2.16774 0
M  V30 1564 C 150.503 2.84337 2.0237 0
M  V30 1565 C 151.851 3.35807 2.59843 0
M  V30 1566 O 152.875 2.85802 2.12593 0
M  V30 1567 O 151.734 4.23029 3.45989 0
M  V30 1568 H 148.828 0.617057 0.550608 0
M  V30 1569 H 151.374 1.63344 0.460082 0
M  V30 1570 H 150.146 3.66278 1.37681 0
M  V30 1571 H 149.769 2.77708 2.84542 0
M  V30 1572 N 150.766 -0.704594 1.40972 0
M  V30 1573 C 151.696 -1.83124 1.44872 0
M  V30 1574 C 152.677 -1.67281 0.30838 0
M  V30 1575 O 153.862 -1.87149 0.518556 0
M  V30 1576 C 150.992 -3.21181 1.32136 0
M  V30 1577 C 149.946 -3.51714 2.43888 0
M  V30 1578 C 149.272 -4.89032 2.16222 0
M  V30 1579 C 150.572 -3.516 3.86232 0
M  V30 1580 H 152.266 -1.80117 2.39161 0
M  V30 1581 H 149.812 -0.865145 1.15114 0
M  V30 1582 H 151.765 -3.99702 1.33479 0
M  V30 1583 H 150.489 -3.24791 0.343279 0
M  V30 1584 H 149.148 -2.75539 2.41813 0
M  V30 1585 H 148.796 -4.89256 1.16778 0
M  V30 1586 H 148.496 -5.10426 2.911 0
M  V30 1587 H 150.02 -5.69873 2.19265 0
M  V30 1588 H 151.434 -4.2014 3.9007 0
M  V30 1589 H 149.831 -3.84523 4.60719 0
M  V30 1590 H 150.901 -2.50757 4.15029 0
M  V30 1591 N 152.244 -1.26651 -0.937939 0
M  V30 1592 C 153.49 -1.12553 -1.687 0
M  V30 1593 C 153.823 0.329782 -1.91379 0
M  V30 1594 O 153.098 1.24202 -1.4968 0
M  V30 1595 C 153.381 -1.89862 -3.05981 0
M  V30 1596 C 153.234 -3.43318 -2.90607 0
M  V30 1597 C 154.553 -1.69499 -4.0615 0
M  V30 1598 H 151.672 -0.410257 -0.612257 0
M  V30 1599 H 154.314 -1.55685 -1.08913 0
M  V30 1600 H 152.464 -1.53204 -3.57017 0
M  V30 1601 H 154.136 -3.89747 -2.46769 0
M  V30 1602 H 152.379 -3.70179 -2.26164 0
M  V30 1603 H 153.05 -3.92642 -3.8799 0
M  V30 1604 H 155.526 -2.01442 -3.64088 0
M  V30 1605 H 154.402 -2.26002 -5.00214 0
M  V30 1606 H 154.663 -0.640365 -4.37438 0
M  V30 1607 N 153.722 1.14298 -1.08507 0
M  V30 1608 C 154.97 1.84993 -0.813763 0
M  V30 1609 C 155.291 1.83405 0.662393 0
M  V30 1610 O 154.561 1.28319 1.48024 0
M  V30 1611 H 153.141 0.684966 -0.298045 0
M  V30 1612 H 155.803 1.385 -1.37126 0
M  V30 1613 H 154.899 2.89788 -1.15884 0
M  V30 1614 N 155.201 0.870884 1.31352 0
M  V30 1615 C 156.447 0.492314 1.97352 0
M  V30 1616 C 156.802 -0.945174 1.67583 0
M  V30 1617 O 156.095 -1.65674 0.962423 0
M  V30 1618 C 156.289 0.687157 3.50732 0
M  V30 1619 C 156.118 2.14203 3.95407 0
M  V30 1620 C 154.888 2.78382 4.21701 0
M  V30 1621 C 157.086 3.1144 4.09279 0
M  V30 1622 N 155.068 4.14611 4.52737 0
M  V30 1623 C 156.439 4.32702 4.44037 0
M  V30 1624 C 158.494 3.07418 3.91661 0
M  V30 1625 C 157.197 5.50463 4.63015 0
M  V30 1626 C 159.223 4.24438 4.11833 0
M  V30 1627 C 158.585 5.44463 4.46923 0
M  V30 1628 H 154.684 0.229206 0.747655 0
M  V30 1629 H 157.268 1.12568 1.5886 0
M  V30 1630 H 155.439 0.083384 3.8831 0
M  V30 1631 H 157.171 0.276883 4.03752 0
M  V30 1632 H 153.926 2.29326 4.14375 0
M  V30 1633 H 154.35 4.84928 4.72413 0
M  V30 1634 H 158.992 2.15732 3.6362 0
M  V30 1635 H 156.71 6.42666 4.89904 0
M  V30 1636 H 160.296 4.2278 3.99685 0
M  V30 1637 H 159.176 6.33504 4.62214 0
M  V30 1638 N 156.679 -1.44442 0.630414 0
M  V30 1639 C 157.609 -2.33418 -0.0618083 0
M  V30 1640 C 158.59 -1.48165 -0.835541 0
M  V30 1641 O 159.775 -1.76886 -0.801564 0
M  V30 1642 C 156.905 -3.31222 -1.04449 0
M  V30 1643 C 155.859 -4.26288 -0.382436 0
M  V30 1644 C 155.185 -5.13954 -1.47497 0
M  V30 1645 C 156.485 -5.1744 0.710865 0
M  V30 1646 H 158.179 -2.91548 0.681184 0
M  V30 1647 H 155.725 -1.40191 0.329026 0
M  V30 1648 H 157.678 -3.92351 -1.53748 0
M  V30 1649 H 156.402 -2.71299 -1.81836 0
M  V30 1650 H 155.061 -3.6649 0.0899054 0
M  V30 1651 H 154.709 -4.50385 -2.2397 0
M  V30 1652 H 154.409 -5.7837 -1.03737 0
M  V30 1653 H 155.933 -5.77955 -1.96979 0
M  V30 1654 H 157.347 -5.72509 0.300996 0
M  V30 1655 H 155.744 -5.90455 1.07156 0
M  V30 1656 H 156.814 -4.58496 1.57829 0
M  V30 1657 N 158.157 -0.370918 -1.53173 0
M  V30 1658 C 159.434 0.273754 -1.93675 0
M  V30 1659 C 159.814 1.65938 -1.3049 0
M  V30 1660 O 159.162 2.23698 -0.465999 0
M  V30 1661 C 159.372 0.318602 -3.47543 0
M  V30 1662 C 160.72 0.556392 -4.20939 0
M  V30 1663 O 161.744 0.399587 -3.53952 0
M  V30 1664 O 160.603 0.862133 -5.39657 0
M  V30 1665 H 157.697 0.165448 -0.810281 0
M  V30 1666 H 160.243 -0.42409 -1.64315 0
M  V30 1667 H 159.015 -0.652687 -3.85818 0
M  V30 1668 H 158.638 1.06212 -3.83151 0
M  V30 1669 N 159.635 1.57281 -0.100228 0
M  V30 1670 C 160.883 1.94153 0.561157 0
M  V30 1671 C 161.204 0.983157 1.68401 0
M  V30 1672 O 160.474 0.0361132 1.95867 0
M  V30 1673 H 159.054 0.716791 0.210283 0
M  V30 1674 H 161.716 1.94202 -0.164765 0
M  V30 1675 H 160.812 2.96709 0.968008 0
M  V30 1676 N 161.113 -0.173488 1.56642 0
M  V30 1677 C 162.529 -0.525174 1.50712 0
M  V30 1678 C 162.729 -1.8476 0.804107 0
M  V30 1679 O 161.785 -2.49869 0.363574 0
M  V30 1680 C 163.098 -0.559937 2.95441 0
M  V30 1681 C 164.646 -0.647288 3.06234 0
M  V30 1682 C 165.121 -0.712963 4.52417 0
M  V30 1683 N 166.612 -0.775911 4.56655 0
M  V30 1684 C 167.347 -0.847264 5.67106 0
M  V30 1685 N 166.843 -0.879585 6.87194 0
M  V30 1686 N 168.636 -0.886117 5.55071 0
M  V30 1687 H 160.787 0.693681 2.00753 0
M  V30 1688 H 163.05 0.249841 0.914485 0
M  V30 1689 H 162.756 0.343049 3.50023 0
M  V30 1690 H 162.63 -1.40718 3.49969 0
M  V30 1691 H 165.017 -1.5407 2.51687 0
M  V30 1692 H 165.098 0.226586 2.54794 0
M  V30 1693 H 164.742 0.176183 5.07594 0
M  V30 1694 H 164.672 -1.60295 5.0161 0
M  V30 1695 H 167.163 -0.759304 3.70193 0
M  V30 1696 H 167.476 -0.935144 7.67121 0
M  V30 1697 H 165.821 -0.847898 6.89808 0
M  V30 1698 H 169.012 -0.857853 4.60172 0
M  V30 1699 H 169.185 -0.938263 6.41171 0
M  V30 1700 N 162.591 -1.51276 -0.441967 0
M  V30 1701 C 163.816 -1.67799 -1.21895 0
M  V30 1702 C 164.241 -0.372864 -1.84367 0
M  V30 1703 O 163.599 0.666501 -1.68604 0
M  V30 1704 C 163.647 -2.79199 -2.28211 0
M  V30 1705 O 162.751 -2.42479 -3.33583 0
M  V30 1706 H 162.092 -0.559649 -0.357336 0
M  V30 1707 H 164.622 -1.97815 -0.522522 0
M  V30 1708 H 164.632 -3.03146 -2.73069 0
M  V30 1709 H 163.307 -3.73906 -1.82118 0
M  V30 1710 H 161.884 -2.29087 -2.94234 0
M  V30 1711 N 164.069 0.697108 -1.41344 0
M  V30 1712 C 165.294 1.49096 -1.44171 0
M  V30 1713 C 165.719 1.88038 -0.0481568 0
M  V30 1714 O 165.077 1.54525 0.948243 0
M  V30 1715 C 165.125 2.73088 -2.3549 0
M  V30 1716 O 164.229 3.70514 -1.81088 0
M  V30 1717 H 163.57 0.448801 -0.489361 0
M  V30 1718 H 166.1 0.856992 -1.85787 0
M  V30 1719 H 166.11 3.21413 -2.51312 0
M  V30 1720 H 164.785 2.44081 -3.36745 0
M  V30 1721 H 163.362 3.29441 -1.74708 0
M  V30 1722 N 165.547 1.27147 0.931209 0
M  V30 1723 C 166.477 1.12081 2.04842 0
M  V30 1724 C 167.458 0.0232364 1.70084 0
M  V30 1725 O 168.643 0.197085 1.93197 0
M  V30 1726 C 165.773 0.76354 3.38803 0
M  V30 1727 C 164.727 1.81396 3.87659 0
M  V30 1728 C 164.053 1.31075 5.18385 0
M  V30 1729 C 165.353 3.21739 4.11438 0
M  V30 1730 H 167.047 2.05537 2.17703 0
M  V30 1731 H 164.593 0.989603 1.04608 0
M  V30 1732 H 166.546 0.644982 4.16435 0
M  V30 1733 H 165.27 -0.206727 3.25945 0
M  V30 1734 H 163.929 1.92136 3.12217 0
M  V30 1735 H 163.577 0.330037 5.01916 0
M  V30 1736 H 163.277 2.013 5.52044 0
M  V30 1737 H 164.801 1.20506 5.98591 0
M  V30 1738 H 166.215 3.14019 4.79651 0
M  V30 1739 H 164.612 3.89644 4.56397 0
M  V30 1740 H 165.682 3.67054 3.16859 0
M  V30 1741 N 167.025 -1.13721 1.09112 0
M  V30 1742 C 167.988 -2.17222 0.731241 0
M  V30 1743 C 168.988 -1.59035 -0.237566 0
M  V30 1744 O 170.178 -1.74192 -0.0161704 0
M  V30 1745 C 167.31 -3.40804 0.0808443 0
M  V30 1746 H 168.503 -2.50573 1.64783 0
M  V30 1747 H 166.056 -1.28493 0.889897 0
M  V30 1748 H 166.791 -3.1304 -0.847127 0
M  V30 1749 H 166.576 -3.84306 0.777896 0
M  V30 1750 H 168.066 -4.1731 -0.155657 0
M  V30 1751 N 168.503 -0.877838 -1.30888 0
M  V30 1752 C 169.919 -0.570844 -1.49042 0
M  V30 1753 C 170.119 0.893159 -1.80624 0
M  V30 1754 O 169.175 1.67485 -1.88958 0
M  V30 1755 C 170.488 -1.47784 -2.61878 0
M  V30 1756 C 172.036 -1.48071 -2.75761 0
M  V30 1757 C 172.511 -2.37347 -3.91702 0
M  V30 1758 N 174.002 -2.35271 -3.99001 0
M  V30 1759 C 174.737 -3.01063 -4.88004 0
M  V30 1760 N 174.233 -3.76055 -5.81854 0
M  V30 1761 N 176.026 -2.90332 -4.81315 0
M  V30 1762 H 168.177 -1.82502 -1.0866 0
M  V30 1763 H 170.44 -0.780797 -0.537644 0
M  V30 1764 H 170.146 -2.51993 -2.45341 0
M  V30 1765 H 170.02 -1.18215 -3.58197 0
M  V30 1766 H 172.407 -0.446166 -2.91708 0
M  V30 1767 H 172.488 -1.81668 -1.80085 0
M  V30 1768 H 172.132 -3.40883 -3.76512 0
M  V30 1769 H 172.062 -2.01071 -4.86701 0
M  V30 1770 H 174.553 -1.80768 -3.3186 0
M  V30 1771 H 174.866 -4.23366 -6.46514 0
M  V30 1772 H 173.211 -3.80163 -5.81808 0
M  V30 1773 H 176.402 -2.31278 -4.06974 0
M  V30 1774 H 176.575 -3.41885 -5.50471 0
M  V30 1775 N 169.982 1.44106 -0.638065 0
M  V30 1776 C 170.912 2.33448 0.0494287 0
M  V30 1777 C 171.893 1.48606 0.827672 0
M  V30 1778 O 173.078 1.77308 0.792173 0
M  V30 1779 C 170.208 3.31771 1.02691 0
M  V30 1780 C 169.162 4.26485 0.359823 0
M  V30 1781 C 168.488 5.14729 1.44769 0
M  V30 1782 C 169.788 5.17056 -0.738296 0
M  V30 1783 H 171.482 2.91183 -0.696636 0
M  V30 1784 H 169.028 1.40014 -0.336456 0
M  V30 1785 H 170.981 3.93161 1.51666 0
M  V30 1786 H 169.705 2.7226 1.80395 0
M  V30 1787 H 168.364 3.66437 -0.10934 0
M  V30 1788 H 168.012 4.51566 2.21578 0
M  V30 1789 H 167.712 5.78913 1.00668 0
M  V30 1790 H 169.236 5.78991 1.93911 0
M  V30 1791 H 170.65 5.72342 -0.331354 0
M  V30 1792 H 169.047 5.89879 -1.10286 0
M  V30 1793 H 170.117 4.57652 -1.60258 0
M  V30 1794 N 171.46 0.379036 1.52974 0
M  V30 1795 C 172.708 -0.206014 2.01047 0
M  V30 1796 C 173.029 -1.48175 1.26765 0
M  V30 1797 O 172.299 -1.92085 0.384743 0
M  V30 1798 H 170.879 -0.0791184 0.742798 0
M  V30 1799 H 173.541 0.508366 1.88153 0
M  V30 1800 H 172.637 -0.423501 3.09213 0
M  V30 1801 N 172.938 -1.57226 0.108567 0
M  V30 1802 C 173.868 -2.17778 -0.84232 0
M  V30 1803 C 174.849 -1.11487 -1.2847 0
M  V30 1804 O 176.034 -1.39681 -1.34918 0
M  V30 1805 C 173.164 -2.76888 -2.09644 0
M  V30 1806 C 172.118 -3.88669 -1.79221 0
M  V30 1807 C 171.444 -4.34541 -3.11574 0
M  V30 1808 C 172.744 -5.11251 -1.06864 0
M  V30 1809 H 174.438 -2.97489 -0.337774 0
M  V30 1810 H 171.984 -1.43097 -0.161025 0
M  V30 1811 H 173.937 -3.17904 -2.76614 0
M  V30 1812 H 172.661 -1.94451 -2.62405 0
M  V30 1813 H 171.32 -3.48213 -1.14644 0
M  V30 1814 H 170.968 -3.48977 -3.62249 0
M  V30 1815 H 170.668 -5.09914 -2.91996 0
M  V30 1816 H 172.192 -4.782 -3.7968 0
M  V30 1817 H 173.606 -5.49352 -1.63968 0
M  V30 1818 H 172.003 -5.9214 -0.974178 0
M  V30 1819 H 173.073 -4.8487 -0.0536168 0
M  V30 1820 N 174.416 0.165178 -1.56732 0
M  V30 1821 C 175.349 1.23336 -1.91998 0
M  V30 1822 C 176.327 1.42476 -0.783531 0
M  V30 1823 O 177.511 1.57384 -1.03743 0
M  V30 1824 C 174.638 2.59533 -2.17625 0
M  V30 1825 C 173.684 2.57093 -3.40302 0
M  V30 1826 S 174.517 2.05571 -4.9447 0
M  V30 1827 C 175.673 3.43532 -5.23198 0
M  V30 1828 H 175.906 0.932387 -2.82301 0
M  V30 1829 H 173.439 0.370013 -1.49901 0
M  V30 1830 H 175.397 3.37918 -2.3307 0
M  V30 1831 H 174.058 2.86827 -1.28019 0
M  V30 1832 H 173.251 3.57308 -3.55453 0
M  V30 1833 H 172.853 1.86806 -3.24005 0
M  V30 1834 H 175.145 4.39559 -5.15552 0
M  V30 1835 H 176.088 3.33251 -6.2478 0
M  V30 1836 H 176.496 3.39828 -4.50752 0
M  V30 1837 N 175.894 1.51508 0.433938 0
M  V30 1838 C 177.14 1.64588 1.18484 0
M  V30 1839 C 177.473 0.362666 1.90784 0
M  V30 1840 O 176.748 -0.637892 1.83742 0
M  V30 1841 C 177.031 2.85149 2.19913 0
M  V30 1842 C 176.884 4.23456 1.51674 0
M  V30 1843 C 178.203 3.01227 3.20858 0
M  V30 1844 H 175.322 0.598994 0.429389 0
M  V30 1845 H 177.964 1.84002 0.473647 0
M  V30 1846 H 176.114 2.68729 2.80566 0
M  V30 1847 H 177.786 4.51552 0.943322 0
M  V30 1848 H 176.029 4.25998 0.819035 0
M  V30 1849 H 176.7 5.03812 2.2556 0
M  V30 1850 H 179.176 3.16382 2.70263 0
M  V30 1851 H 178.052 3.87141 3.89118 0
M  V30 1852 H 178.313 2.13447 3.8716 0
M  V30 1853 N 177.372 -0.689602 1.41712 0
M  V30 1854 C 178.322 -1.79571 1.40493 0
M  V30 1855 C 179.306 -1.58473 0.278409 0
M  V30 1856 O 180.498 -1.69204 0.519532 0
M  V30 1857 C 177.627 -3.17923 1.29536 0
M  V30 1858 C 176.713 -3.44695 2.47075 0
M  V30 1859 N 177.104 -3.42132 3.72531 0
M  V30 1860 C 175.402 -3.75269 2.41017 0
M  V30 1861 C 176.103 -3.67976 4.50521 0
M  V30 1862 N 175.079 -3.88014 3.80718 0
M  V30 1863 H 178.881 -1.75961 2.35404 0
M  V30 1864 H 176.395 -0.889839 1.35851 0
M  V30 1865 H 178.392 -3.97167 1.26745 0
M  V30 1866 H 177.052 -3.22741 0.356153 0
M  V30 1867 H 178.063 -3.22375 4.05333 0
M  V30 1868 H 174.74 -3.87421 1.55599 0
M  V30 1869 H 176.13 -3.7208 5.59469 0
M  V30 1870 N 178.85 -1.27639 -0.924453 0
M  V30 1871 C 180.096 -1.14336 -1.67497 0
M  V30 1872 C 180.429 0.309465 -1.91718 0
M  V30 1873 O 179.704 1.22608 -1.50989 0
M  V30 1874 C 179.987 -1.93096 -3.0395 0
M  V30 1875 C 179.84 -3.46381 -2.8695 0
M  V30 1876 C 181.159 -1.73798 -4.0433 0
M  V30 1877 H 178.278 -0.416728 -0.607871 0
M  V30 1878 H 180.92 -1.56832 -1.07256 0
M  V30 1879 H 179.07 -1.56982 -3.55372 0
M  V30 1880 H 180.742 -3.92343 -2.42621 0
M  V30 1881 H 178.985 -3.72557 -2.22225 0
M  V30 1882 H 179.656 -3.96735 -3.83804 0
M  V30 1883 H 182.132 -2.05293 -3.61931 0
M  V30 1884 H 181.008 -2.31294 -4.97789 0
M  V30 1885 H 181.269 -0.686725 -4.36734 0
M  V30 1886 N 180.328 1.1314 -1.09713 0
M  V30 1887 C 181.556 1.88321 -0.856898 0
M  V30 1888 C 181.971 1.79276 0.592073 0
M  V30 1889 O 181.328 1.16142 1.40774 0
M  V30 1890 C 181.379 3.37812 -1.28706 0
M  V30 1891 O 181.1 3.46627 -2.67921 0
M  V30 1892 C 182.601 4.29952 -1.07964 0
M  V30 1893 H 179.821 0.596094 -0.308079 0
M  V30 1894 H 182.365 1.43205 -1.45988 0
M  V30 1895 H 180.52 3.805 -0.727912 0
M  V30 1896 H 180.934 4.39579 -2.8613 0
M  V30 1897 H 182.408 5.33159 -1.42986 0
M  V30 1898 H 182.885 4.39196 -0.0176577 0
M  V30 1899 H 183.491 3.93036 -1.62489 0
M  V30 1900 N 181.806 0.884767 1.30421 0
M  V30 1901 C 182.769 0.356277 2.26414 0
M  V30 1902 C 183.769 -0.501124 1.52792 0
M  V30 1903 O 184.959 -0.30831 1.7145 0
M  V30 1904 C 182.091 -0.492316 3.37326 0
M  V30 1905 H 183.284 1.20389 2.74675 0
M  V30 1906 H 180.837 0.661607 1.41607 0
M  V30 1907 H 181.572 -1.36052 2.94381 0
M  V30 1908 H 181.357 0.121832 3.91911 0
M  V30 1909 H 182.847 -0.853871 4.08777 0
M  V30 1910 N 183.284 -1.43765 0.645699 0
M  V30 1911 C 184.234 -2.27884 -0.0726442 0
M  V30 1912 C 185.218 -1.39483 -0.802086 0
M  V30 1913 O 186.41 -1.63174 -0.685791 0
M  V30 1914 C 183.539 -3.27055 -1.04356 0
M  V30 1915 C 182.625 -4.22944 -0.312985 0
M  V30 1916 N 183.016 -5.01391 0.666386 0
M  V30 1917 C 181.314 -4.42528 -0.55546 0
M  V30 1918 C 182.015 -5.71217 1.09935 0
M  V30 1919 N 180.991 -5.41856 0.435137 0
M  V30 1920 H 184.793 -2.85949 0.678988 0
M  V30 1921 H 182.307 -1.55378 0.472368 0
M  V30 1922 H 184.304 -3.86089 -1.57292 0
M  V30 1923 H 182.964 -2.70551 -1.79534 0
M  V30 1924 H 183.975 -5.07252 1.04481 0
M  V30 1925 H 180.652 -3.97104 -1.28899 0
M  V30 1926 H 182.042 -6.44202 1.90929 0
M  V30 1927 N 184.763 -0.387143 -1.52771 0
M  V30 1928 C 186.179 -0.037007 -1.59557 0
M  V30 1929 C 186.379 1.44801 -1.40124 0
M  V30 1930 O 185.435 2.21227 -1.21716 0
M  V30 1931 C 186.748 -0.512256 -2.96305 0
M  V30 1932 C 188.296 -0.468328 -3.09476 0
M  V30 1933 C 188.771 -0.919731 -4.4867 0
M  V30 1934 N 190.262 -0.875656 -4.54848 0
M  V30 1935 C 190.997 -1.19637 -5.6078 0
M  V30 1936 N 190.493 -1.58745 -6.74368 0
M  V30 1937 N 192.286 -1.11776 -5.50874 0
M  V30 1938 H 184.437 -1.35395 -1.63652 0
M  V30 1939 H 186.7 -0.554818 -0.768688 0
M  V30 1940 H 186.406 -1.54935 -3.15734 0
M  V30 1941 H 186.28 0.089805 -3.77093 0
M  V30 1942 H 188.667 0.559671 -2.89744 0
M  V30 1943 H 188.748 -1.10616 -2.30646 0
M  V30 1944 H 188.392 -1.94595 -4.69143 0
M  V30 1945 H 188.322 -0.258927 -5.25963 0
M  V30 1946 H 190.813 -0.587843 -3.733 0
M  V30 1947 H 191.126 -1.81586 -7.51163 0
M  V30 1948 H 189.471 -1.6263 -6.75705 0
M  V30 1949 H 192.662 -0.811264 -4.61016 0
M  V30 1950 H 192.835 -1.37103 -6.3333 0
M  V30 1951 N 186.241 1.57166 -0.116904 0
M  V30 1952 C 187.49 1.94298 0.541407 0
M  V30 1953 C 187.803 1.00236 1.67964 0
M  V30 1954 O 189.009 1.26826 2.40057 0
M  V30 1955 C 187.465 3.45306 1.01449 0
M  V30 1956 C 187.073 4.47899 -0.0951738 0
M  V30 1957 C 188.817 3.91361 1.6443 0
M  V30 1958 C 186.724 5.90083 0.394491 0
M  V30 1959 H 185.654 0.725308 0.206019 0
M  V30 1960 H 188.305 1.82446 -0.196419 0
M  V30 1961 H 186.687 3.52385 1.80667 0
M  V30 1962 H 187.861 4.52486 -0.871374 0
M  V30 1963 H 186.176 4.11583 -0.631505 0
M  V30 1964 H 188.773 4.95004 2.02176 0
M  V30 1965 H 189.116 3.3122 2.52189 0
M  V30 1966 H 189.649 3.87073 0.917559 0
M  V30 1967 H 186.388 6.53974 -0.447004 0
M  V30 1968 H 185.908 5.88921 1.13722 0
M  V30 1969 H 187.587 6.41307 0.856399 0
M  V30 1970 N 187.719 -0.156864 1.56817 0
M  V30 1971 C 188.996 -0.899244 1.73704 0
M  V30 1972 C 189.376 -1.99771 0.682254 0
M  V30 1973 O 188.724 -2.26515 -0.300522 0
M  V30 1974 C 188.934 -1.45075 3.17418 0
M  V30 1975 C 190.282 -1.91802 3.7881 0
M  V30 1976 O 191.306 -1.54838 3.20786 0
M  V30 1977 O 190.165 -2.5994 4.80722 0
M  V30 1978 H 187.259 -0.424267 0.709878 0
M  V30 1979 H 189.805 -0.143561 1.69092 0
M  V30 1980 H 188.577 -0.660846 3.85679 0
M  V30 1981 H 188.2 -2.27021 3.26416 0
M  V30 1982 N 189.197 -1.51736 -0.425897 0
M  V30 1983 C 190.608 -1.5732 -1.00536 0
M  V30 1984 C 190.959 -0.403537 -1.92005 0
M  V30 1985 O 190.084 0.478256 -2.11049 0
M  V30 1986 C 190.679 -2.85119 -1.8301 0
M  V30 1987 C 189.238 -2.93236 -2.35987 0
M  V30 1988 C 188.385 -2.52098 -1.15508 0
M  V30 1989 H 191.336 -1.57348 -0.206739 0
M  V30 1990 H 191.357 -2.69526 -2.68581 0
M  V30 1991 H 190.869 -3.7023 -1.16411 0
M  V30 1992 H 188.97 -2.12581 -3.06007 0
M  V30 1993 H 189.083 -3.9713 -2.68001 0
M  V30 1994 H 187.447 -2.05558 -1.50393 0
M  V30 1995 H 188.23 -3.39565 -0.505014 0
M  V30 1996 N 190.675 0.682077 -1.42076 0
M  V30 1997 C 191.923 1.4393 -1.41876 0
M  V30 1998 C 192.244 1.94971 -0.0335599 0
M  V30 1999 O 191.514 1.72591 0.926773 0
M  V30 2000 H 190.094 0.534085 -0.522267 0
M  V30 2001 H 192.756 0.806427 -1.77434 0
M  V30 2002 H 191.852 2.29588 -2.11414 0
M  V30 2003 N 192.153 1.28127 0.917671 0
M  V30 2004 C 193.399 1.16232 1.66918 0
M  V30 2005 C 193.754 -0.28701 1.90247 0
M  V30 2006 O 193.047 -1.20586 1.48895 0
M  V30 2007 C 193.241 1.89018 3.03327 0
M  V30 2008 C 193.07 3.4088 2.9331 0
M  V30 2009 C 191.84 4.10214 2.95047 0
M  V30 2010 C 194.038 4.36689 2.71675 0
M  V30 2011 N 192.02 5.48571 2.75577 0
M  V30 2012 C 193.391 5.62382 2.6101 0
M  V30 2013 C 195.446 4.26661 2.56641 0
M  V30 2014 C 194.149 6.79189 2.36843 0
M  V30 2015 C 196.175 5.432 2.33853 0
M  V30 2016 C 195.537 6.67855 2.23939 0
M  V30 2017 H 191.636 0.48024 0.617166 0
M  V30 2018 H 194.22 1.61727 1.08409 0
M  V30 2019 H 192.391 1.45963 3.59929 0
M  V30 2020 H 194.123 1.69541 3.67475 0
M  V30 2021 H 190.878 3.61762 3.05655 0
M  V30 2022 H 191.302 6.21287 2.68945 0
M  V30 2023 H 195.944 3.30998 2.63059 0
M  V30 2024 H 193.662 7.74926 2.29164 0
M  V30 2025 H 197.248 5.37328 2.23091 0
M  V30 2026 H 196.128 7.56511 2.06546 0
M  V30 2027 N 193.631 -1.12557 1.10312 0
M  V30 2028 C 194.856 -1.88405 0.867085 0
M  V30 2029 C 195.281 -1.79038 -0.576817 0
M  V30 2030 O 194.639 -1.14439 -1.40618 0
M  V30 2031 C 194.687 -3.3563 1.31851 0
M  V30 2032 O 193.791 -4.09565 0.482734 0
M  V30 2033 H 193.132 -0.585455 0.313271 0
M  V30 2034 H 195.662 -1.42352 1.4696 0
M  V30 2035 H 195.672 -3.86469 1.3079 0
M  V30 2036 H 194.347 -3.41765 2.37001 0
M  V30 2037 H 192.924 -3.68695 0.558448 0
M  V30 2038 N 195.109 -0.891671 -1.2995 0
M  V30 2039 C 196.357 -0.512486 -1.95494 0
M  V30 2040 C 196.678 0.942776 -1.70695 0
M  V30 2041 O 195.948 1.66374 -1.03424 0
M  V30 2042 H 194.528 -0.186533 -0.723336 0
M  V30 2043 H 197.19 -1.13621 -1.58355 0
M  V30 2044 H 196.286 -0.688342 -3.04415 0
M  V30 2045 N 196.587 1.43421 -0.653314 0
M  V30 2046 C 197.827 2.03689 -0.170346 0
M  V30 2047 C 198.191 1.50427 1.19314 0
M  V30 2048 O 199.392 2.0234 1.76952 0
M  V30 2049 C 197.663 3.56946 -0.180183 0
M  V30 2050 S 199.222 4.38171 0.234925 0
M  V30 2051 H 196.04 0.707345 -0.0719976 0
M  V30 2052 H 198.642 1.75486 -0.86167 0
M  V30 2053 H 197.346 3.93212 -1.17526 0
M  V30 2054 H 196.877 3.89791 0.531675 0
M  V30 2055 H 198.892 4.73808 1.47378 0
M  V30 2056 N 198.065 0.39524 1.52563 0
M  V30 2057 C 199.314 -0.186321 2.00838 0
M  V30 2058 C 199.627 -1.47402 1.28577 0
M  V30 2059 O 200.833 -2.13599 1.67593 0
M  V30 2060 C 199.289 -0.382595 3.57861 0
M  V30 2061 C 198.897 0.892202 4.39026 0
M  V30 2062 C 200.641 -0.9202 4.14406 0
M  V30 2063 C 198.548 0.66388 5.87662 0
M  V30 2064 H 197.478 -0.0734041 0.750418 0
M  V30 2065 H 200.129 0.518552 1.76021 0
M  V30 2066 H 198.511 -1.14946 3.7895 0
M  V30 2067 H 199.685 1.66414 4.29701 0
M  V30 2068 H 198 1.35519 3.9373 0
M  V30 2069 H 200.597 -1.10683 5.23119 0
M  V30 2070 H 200.94 -1.89096 3.70875 0
M  V30 2071 H 201.473 -0.212751 3.97231 0
M  V30 2072 H 198.212 1.6058 6.35527 0
M  V30 2073 H 197.732 -0.0690193 5.9976 0
M  V30 2074 H 199.411 0.300699 6.46301 0
M  V30 2075 N 199.544 -1.57102 0.125237 0
M  V30 2076 C 200.79 -1.95697 -0.532035 0
M  V30 2077 C 201.123 -1.009 -1.6593 0
M  V30 2078 O 200.398 -0.047347 -1.94442 0
M  V30 2079 C 200.681 -3.44181 -1.05884 0
M  V30 2080 C 200.534 -4.49752 0.0654392 0
M  V30 2081 C 201.853 -3.94655 -1.9477 0
M  V30 2082 H 198.972 -0.711571 -0.191925 0
M  V30 2083 H 201.614 -1.88923 0.20206 0
M  V30 2084 H 199.764 -3.50085 -1.68442 0
M  V30 2085 H 201.436 -4.55943 0.700982 0
M  V30 2086 H 199.679 -4.27653 0.727709 0
M  V30 2087 H 200.35 -5.50924 -0.344505 0
M  V30 2088 H 202.826 -3.91094 -1.42074 0
M  V30 2089 H 201.702 -4.99057 -2.28546 0
M  V30 2090 H 201.963 -3.35718 -2.87656 0
M  V30 2091 N 201.022 0.148545 -1.56898 0
M  V30 2092 C 201.952 1.18524 -2.01182 0
M  V30 2093 C 202.933 1.4489 -0.891123 0
M  V30 2094 O 204.118 1.55836 -1.15882 0
M  V30 2095 C 201.248 2.51879 -2.39112 0
M  V30 2096 C 200.202 2.40038 -3.54353 0
M  V30 2097 C 199.528 3.78089 -3.78091 0
M  V30 2098 C 200.828 1.88577 -4.87069 0
M  V30 2099 H 202.522 0.817029 -2.88036 0
M  V30 2100 H 200.068 0.391575 -1.38574 0
M  V30 2101 H 202.021 3.24627 -2.68692 0
M  V30 2102 H 200.745 2.90532 -1.49193 0
M  V30 2103 H 199.404 1.69742 -3.24936 0
M  V30 2104 H 199.052 4.14175 -2.85426 0
M  V30 2105 H 198.752 3.71028 -4.55645 0
M  V30 2106 H 200.276 4.52387 -4.10095 0
M  V30 2107 H 201.69 2.51117 -5.15377 0
M  V30 2108 H 200.087 1.9241 -5.68417 0
M  V30 2109 H 201.157 0.84136 -4.77545 0
M  V30 2110 N 202.5 1.5196 0.417844 0
M  V30 2111 C 203.41 1.77554 1.53336 0
M  V30 2112 C 204.426 0.660655 1.6097 0
M  V30 2113 O 205.602 0.945099 1.77848 0
M  V30 2114 C 202.667 1.91291 2.89152 0
M  V30 2115 C 201.728 3.15183 2.91475 0
M  V30 2116 C 200.961 3.28256 4.20813 0
M  V30 2117 O 201.184 2.46798 5.14244 0
M  V30 2118 O 200.118 4.21356 4.29817 0
M  V30 2119 H 203.944 2.7222 1.34647 0
M  V30 2120 H 201.529 1.36698 0.602828 0
M  V30 2121 H 203.411 2.02199 3.69721 0
M  V30 2122 H 202.086 0.998129 3.07927 0
M  V30 2123 H 200.993 3.09739 2.09791 0
M  V30 2124 H 202.326 4.06414 2.77648 0
M  V30 2125 N 203.978 -0.674533 1.42435 0
M  V30 2126 C 205.225 -1.43459 1.42919 0
M  V30 2127 C 205.553 -1.94446 0.0457312 0
M  V30 2128 O 204.808 -1.7132 -0.94593 0
M  V30 2129 C 205.107 -2.64767 2.40069 0
M  V30 2130 C 204.773 -2.3232 3.86443 0
M  V30 2131 C 203.435 -2.23182 4.26314 0
M  V30 2132 C 205.787 -2.05977 4.78773 0
M  V30 2133 C 203.115 -1.85827 5.56494 0
M  V30 2134 C 205.467 -1.70125 6.09295 0
M  V30 2135 C 204.131 -1.59498 6.48164 0
M  V30 2136 H 203.401 -0.524952 0.522978 0
M  V30 2137 H 206.048 -0.769097 1.75377 0
M  V30 2138 H 204.353 -3.36349 2.00939 0
M  V30 2139 H 206.05 -3.22949 2.37707 0
M  V30 2140 H 202.64 -2.40334 3.54877 0
M  V30 2141 H 206.824 -2.11969 4.48757 0
M  V30 2142 H 202.08 -1.76168 5.8547 0
M  V30 2143 H 206.254 -1.48767 6.80324 0
M  V30 2144 H 203.881 -1.30322 7.48946 0
M  V30 2145 N 205.456 -1.28612 -0.910864 0
M  V30 2146 C 206.686 -1.1862 -1.69153 0
M  V30 2147 C 207.094 0.257324 -1.87442 0
M  V30 2148 O 206.437 1.18543 -1.40332 0
M  V30 2149 C 206.499 -1.81606 -3.10257 0
M  V30 2150 C 206.163 -3.30864 -3.15243 0
M  V30 2151 C 207.16 -4.27256 -2.96223 0
M  V30 2152 C 204.845 -3.71871 -3.37664 0
M  V30 2153 C 206.839 -5.62631 -2.99541 0
M  V30 2154 C 204.526 -5.07371 -3.40614 0
M  V30 2155 C 205.524 -6.02561 -3.21573 0
M  V30 2156 O 205.212 -7.35589 -3.2429 0
M  V30 2157 H 204.944 -0.412633 -0.535453 0
M  V30 2158 H 207.498 -1.70306 -1.14827 0
M  V30 2159 H 205.728 -1.24418 -3.66138 0
M  V30 2160 H 207.417 -1.66092 -3.70362 0
M  V30 2161 H 208.183 -3.9691 -2.78725 0
M  V30 2162 H 204.062 -2.98241 -3.5153 0
M  V30 2163 H 207.606 -6.36907 -2.84597 0
M  V30 2164 H 203.503 -5.37366 -3.57642 0
M  V30 2165 H 204.271 -7.44252 -3.40633 0
M  V30 2166 N 206.934 1.1197 -1.10907 0
M  V30 2167 C 207.882 2.19927 -0.757303 0
M  V30 2168 C 208.876 1.67564 0.248747 0
M  V30 2169 O 210.082 1.79672 0.108605 0
M  V30 2170 H 206.457 0.716925 -0.226987 0
M  V30 2171 H 208.428 2.46847 -1.67658 0
M  V30 2172 C 207.177 3.47061 -0.210671 0
M  V30 2173 H 206.5 3.87703 -0.976049 0
M  V30 2174 H 207.94 4.24 -0.0026584 0
M  V30 2175 C 206.399 3.19864 1.05777 0
M  V30 2176 O 206.929 3.40049 2.13845 0
M  V30 2177 N 205.135 2.73636 0.978349 0
M  V30 2178 H 204.682 2.5741 0.0988246 0
M  V30 2179 H 204.64 2.55815 1.82773 0
M  V30 2180 N 208.412 0.89855 1.29475 0
M  V30 2181 C 209.637 0.538561 2.00285 0
M  V30 2182 C 210.062 -0.869135 1.66816 0
M  V30 2183 O 209.42 -1.57831 0.892145 0
M  V30 2184 C 209.468 0.736475 3.52999 0
M  V30 2185 O 208.572 -0.211537 4.11857 0
M  V30 2186 H 207.913 0.210563 0.62973 0
M  V30 2187 H 210.443 1.20982 1.64998 0
M  V30 2188 H 210.453 0.640685 4.02938 0
M  V30 2189 H 209.128 1.76276 3.76696 0
M  V30 2190 H 207.705 -0.0682991 3.72837 0
M  V30 2191 N 209.89 -1.43072 0.660911 0
M  V30 2192 C 211.138 -2.01323 0.177094 0
M  V30 2193 C 211.459 -1.5245 -1.2159 0
M  V30 2194 O 210.729 -0.740322 -1.81373 0
M  V30 2195 H 209.309 -0.744382 0.0624804 0
M  V30 2196 H 211.971 -1.75179 0.854305 0
M  V30 2197 H 211.067 -3.11649 0.167641 0
M  V30 2198 N 211.368 -0.403325 -1.52352 0
M  V30 2199 C 212.315 0.425011 -2.26853 0
M  V30 2200 C 213.285 1.04598 -1.29029 0
M  V30 2201 O 214.47 1.07135 -1.57882 0
M  V30 2202 C 211.61 1.53888 -3.08889 0
M  V30 2203 C 210.723 0.939396 -4.21663 0
M  V30 2204 C 209.858 2.02547 -4.91068 0
M  V30 2205 C 208.897 1.40263 -5.95813 0
M  V30 2206 N 208.034 2.4286 -6.58759 0
M  V30 2207 H 212.874 -0.21674 -2.97211 0
M  V30 2208 H 210.411 -0.118722 -1.4662 0
M  V30 2209 H 212.369 2.19558 -3.54753 0
M  V30 2210 H 210.999 2.15074 -2.40714 0
M  V30 2211 H 210.051 0.171898 -3.80011 0
M  V30 2212 H 211.363 0.44436 -4.96817 0
M  V30 2213 H 210.517 2.75958 -5.40308 0
M  V30 2214 H 209.256 2.55415 -4.15469 0
M  V30 2215 H 208.261 0.653833 -5.45898 0
M  V30 2216 H 209.486 0.881719 -6.73352 0
M  V30 2217 H 207.432 2.94871 -5.85992 0
M  V30 2218 H 207.349 1.98152 -7.2957 0
M  V30 2219 H 208.617 3.15858 -7.12639 0
M  V30 2220 N 212.846 1.57033 -0.133567 0
M  V30 2221 C 213.776 2.1909 0.807567 0
M  V30 2222 C 214.757 1.13517 1.26681 0
M  V30 2223 O 215.942 1.41809 1.32679 0
M  V30 2224 C 213.072 2.80188 2.05212 0
M  V30 2225 C 212.026 3.91471 1.73015 0
M  V30 2226 C 211.352 4.39443 3.04622 0
M  V30 2227 C 212.652 5.12886 0.987168 0
M  V30 2228 H 214.346 2.97988 0.290403 0
M  V30 2229 H 211.892 1.43335 0.138239 0
M  V30 2230 H 213.845 3.22264 2.71521 0
M  V30 2231 H 212.569 1.98601 2.59278 0
M  V30 2232 H 211.228 3.49993 1.0909 0
M  V30 2233 H 210.876 3.54695 3.56651 0
M  V30 2234 H 210.576 5.14495 2.83847 0
M  V30 2235 H 212.1 4.8418 3.72024 0
M  V30 2236 H 213.514 5.51891 1.55208 0
M  V30 2237 H 211.911 5.93615 0.87985 0
M  V30 2238 H 212.981 4.84894 -0.0235286 0
M  V30 2239 N 214.325 -0.140222 1.56975 0
M  V30 2240 C 215.736 -0.699596 1.73097 0
M  V30 2241 C 216.087 -1.8134 0.749022 0
M  V30 2242 O 215.212 -2.16241 -0.0828503 0
M  V30 2243 C 215.807 -1.27582 3.1386 0
M  V30 2244 C 214.366 -1.78169 3.31561 0
M  V30 2245 C 213.513 -0.672855 2.69013 0
M  V30 2246 H 216.464 0.0855115 1.58469 0
M  V30 2247 H 216.485 -2.14561 3.14235 0
M  V30 2248 H 215.997 -0.464955 3.85305 0
M  V30 2249 H 214.098 -2.61801 2.65124 0
M  V30 2250 H 214.211 -1.90574 4.39566 0
M  V30 2251 H 212.575 -1.10118 2.29665 0
M  V30 2252 H 213.358 0.126679 3.43066 0
M  V30 2253 N 215.803 -1.52179 -0.40978 0
M  V30 2254 C 216.733 -1.78435 -1.5061 0
M  V30 2255 C 217.714 -0.635295 -1.57791 0
M  V30 2256 O 218.899 -0.880823 -1.73076 0
M  V30 2257 C 216.029 -1.93444 -2.88439 0
M  V30 2258 C 214.983 -3.09038 -2.96108 0
M  V30 2259 C 214.309 -3.09268 -4.36185 0
M  V30 2260 C 215.609 -4.48508 -2.67652 0
M  V30 2261 H 217.303 -2.70237 -1.28889 0
M  V30 2262 H 214.849 -1.30036 -0.618605 0
M  V30 2263 H 216.802 -2.10394 -3.65119 0
M  V30 2264 H 215.526 -0.983129 -3.11452 0
M  V30 2265 H 214.185 -2.91837 -2.21872 0
M  V30 2266 H 213.833 -2.11861 -4.56206 0
M  V30 2267 H 213.533 -3.86907 -4.42241 0
M  V30 2268 H 215.057 -3.28348 -5.14801 0
M  V30 2269 H 216.471 -4.65918 -3.34056 0
M  V30 2270 H 214.868 -5.28059 -2.85085 0
M  V30 2271 H 215.938 -4.56649 -1.63095 0
M  V30 2272 N 217.281 0.66697 -1.42791 0
M  V30 2273 C 218.244 1.76211 -1.46568 0
M  V30 2274 C 219.244 1.56896 -0.352196 0
M  V30 2275 O 220.434 1.63044 -0.613364 0
M  V30 2276 C 217.566 3.14935 -1.30494 0
M  V30 2277 H 218.759 1.74247 -2.44086 0
M  V30 2278 H 216.312 0.877342 -1.29354 0
M  V30 2279 H 217.047 3.2252 -0.339301 0
M  V30 2280 H 216.832 3.30359 -2.11199 0
M  V30 2281 H 218.322 3.94821 -1.36038 0
M  V30 2282 N 218.759 1.29093 0.90403 0
M  V30 2283 C 219.689 1.16401 2.02418 0
M  V30 2284 C 220.67 0.0593085 1.69997 0
M  V30 2285 O 221.855 0.238021 1.92736 0
M  V30 2286 C 218.985 0.835233 3.37107 0
M  V30 2287 C 217.939 1.89578 3.83724 0
M  V30 2288 C 217.265 1.42041 5.15489 0
M  V30 2289 C 218.565 3.30394 4.04521 0
M  V30 2290 H 220.259 2.10109 2.13295 0
M  V30 2291 H 217.805 1.01157 1.02486 0
M  V30 2292 H 219.758 0.733169 4.14973 0
M  V30 2293 H 218.482 -0.137543 3.2631 0
M  V30 2294 H 217.141 1.98715 3.08071 0
M  V30 2295 H 216.789 0.436426 5.01103 0
M  V30 2296 H 216.489 2.12964 5.4765 0
M  V30 2297 H 218.013 1.33176 5.959 0
M  V30 2298 H 219.427 3.24123 4.72882 0
M  V30 2299 H 217.824 3.99237 4.48029 0
M  V30 2300 H 218.894 3.73692 3.09002 0
M  V30 2301 N 220.237 -1.11381 1.11499 0
M  V30 2302 C 221.653 -1.35143 0.849031 0
M  V30 2303 C 221.853 -1.94515 -0.525938 0
M  V30 2304 O 220.909 -2.1785 -1.27662 0
M  V30 2305 C 222.222 -2.28249 1.95762 0
M  V30 2306 C 223.77 -2.41812 1.98736 0
M  V30 2307 C 224.245 -3.3824 3.088 0
M  V30 2308 N 225.736 -3.45803 3.08179 0
M  V30 2309 C 226.471 -4.20358 3.89982 0
M  V30 2310 N 225.967 -4.97884 4.8175 0
M  V30 2311 N 227.76 -4.15877 3.78157 0
M  V30 2312 H 219.911 -0.712062 2.00109 0
M  V30 2313 H 222.174 -0.376025 0.870235 0
M  V30 2314 H 221.88 -1.91817 2.94787 0
M  V30 2315 H 221.754 -3.28473 1.85433 0
M  V30 2316 H 224.141 -2.77518 1.00338 0
M  V30 2317 H 224.222 -1.41437 2.13141 0
M  V30 2318 H 223.866 -3.03261 4.07425 0
M  V30 2319 H 223.796 -4.38471 2.91635 0
M  V30 2320 H 226.287 -2.90506 2.41691 0
M  V30 2321 H 226.6 -5.52142 5.40702 0
M  V30 2322 H 224.945 -4.97043 4.85771 0
M  V30 2323 H 228.136 -3.544 3.05808 0
M  V30 2324 H 228.309 -4.73723 4.42143 0
M  V30 2325 N 221.715 -0.905404 -1.28997 0
M  V30 2326 C 223.126 -0.581953 -1.77398 0
M  V30 2327 C 223.477 0.902552 -1.74208 0
M  V30 2328 O 222.602 1.70584 -1.33154 0
M  V30 2329 C 223.197 -1.04961 -3.22131 0
M  V30 2330 C 221.756 -0.777229 -3.68288 0
M  V30 2331 C 220.903 -1.22109 -2.48967 0
M  V30 2332 H 223.854 -1.08754 -1.15578 0
M  V30 2333 H 223.875 -0.387387 -3.78523 0
M  V30 2334 H 223.387 -2.13008 -3.24421 0
M  V30 2335 H 221.488 0.290383 -3.71467 0
M  V30 2336 H 221.601 -1.37911 -4.58822 0
M  V30 2337 H 219.965 -0.639971 -2.46529 0
M  V30 2338 H 220.748 -2.30972 -2.53982 0
M  V30 2339 N 223.193 1.4272 -0.668489 0
M  V30 2340 C 224.441 2.01226 -0.187769 0
M  V30 2341 C 224.762 1.53092 1.2078 0
M  V30 2342 O 224.032 0.74993 1.80977 0
M  V30 2343 H 222.612 0.744041 -0.0664272 0
M  V30 2344 H 225.274 1.74723 -0.863583 0
M  V30 2345 H 224.37 3.11556 -0.184166 0
M  V30 2346 N 224.671 0.411399 1.52136 0
M  V30 2347 C 225.604 -0.457614 2.23565 0
M  V30 2348 C 226.582 -1.04613 1.24478 0
M  V30 2349 O 227.766 -1.09356 1.53536 0
M  V30 2350 C 224.893 -1.6354 2.96602 0
M  V30 2351 C 223.939 -1.17005 4.10137 0
M  V30 2352 S 224.772 -0.13333 5.35334 0
M  V30 2353 C 225.928 -1.31638 6.119 0
M  V30 2354 H 226.161 0.148883 2.96927 0
M  V30 2355 H 223.694 0.195713 1.53155 0
M  V30 2356 H 225.652 -2.31074 3.39286 0
M  V30 2357 H 224.313 -2.21324 2.22878 0
M  V30 2358 H 223.506 -2.05005 4.60422 0
M  V30 2359 H 223.108 -0.573319 3.6958 0
M  V30 2360 H 225.4 -2.23957 6.39413 0
M  V30 2361 H 226.343 -0.854014 7.02931 0
M  V30 2362 H 226.751 -1.54321 5.42997 0
M  V30 2363 N 226.149 -1.5696 0.141893 0
M  V30 2364 C 227.079 -2.19516 -0.795936 0
M  V30 2365 C 228.06 -1.14187 -1.26077 0
M  V30 2366 O 229.245 -1.42511 -1.31925 0
M  V30 2367 C 226.375 -2.81272 -2.03723 0
M  V30 2368 C 225.329 -3.92384 -1.70936 0
M  V30 2369 C 224.655 -4.41052 -3.02287 0
M  V30 2370 C 225.955 -5.13403 -0.959954 0
M  V30 2371 H 227.649 -2.98138 -0.274596 0
M  V30 2372 H 225.195 -1.43406 -0.130636 0
M  V30 2373 H 227.148 -3.237 -2.69808 0
M  V30 2374 H 225.872 -1.99973 -2.58221 0
M  V30 2375 H 224.531 -3.50566 -1.07232 0
M  V30 2376 H 224.179 -3.56582 -3.54765 0
M  V30 2377 H 223.879 -5.15993 -2.81114 0
M  V30 2378 H 225.403 -4.86146 -3.69451 0
M  V30 2379 H 226.817 -5.52706 -1.52279 0
M  V30 2380 H 225.214 -5.94073 -0.848357 0
M  V30 2381 H 226.284 -4.84875 0.0492434 0
M  V30 2382 N 227.627 0.131896 -1.57047 0
M  V30 2383 C 228.876 0.84044 -1.83356 0
M  V30 2384 C 229.189 1.81646 -0.725535 0
M  V30 2385 O 230.395 2.57025 -0.874659 0
M  V30 2386 C 228.851 1.54528 -3.25037 0
M  V30 2387 C 228.459 0.610902 -4.43815 0
M  V30 2388 C 230.203 2.23972 -3.60606 0
M  V30 2389 C 228.11 1.31823 -5.76521 0
M  V30 2390 H 227.04 0.317599 -0.683847 0
M  V30 2391 H 229.691 0.0931561 -1.83263 0
M  V30 2392 H 228.073 2.33873 -3.19561 0
M  V30 2393 H 229.247 -0.148407 -4.60561 0
M  V30 2394 H 227.562 0.0241016 -4.16393 0
M  V30 2395 H 230.159 2.77558 -4.57018 0
M  V30 2396 H 230.502 3.01173 -2.87403 0
M  V30 2397 H 231.035 1.51529 -3.6781 0
M  V30 2398 H 227.774 0.587771 -6.52859 0
M  V30 2399 H 227.294 2.04987 -5.63685 0
M  V30 2400 H 228.973 1.855 -6.19838 0
M  V30 2401 N 229.106 1.52395 0.401703 0
M  V30 2402 C 230.354 1.66488 1.14569 0
M  V30 2403 C 230.675 0.400897 1.90835 0
M  V30 2404 O 229.945 -0.584415 1.8698 0
M  V30 2405 H 228.525 0.613672 0.425929 0
M  V30 2406 H 231.187 1.89464 0.457093 0
M  V30 2407 H 230.283 2.50942 1.85566 0
M  V30 2408 N 230.584 -0.659388 1.43143 0
M  V30 2409 C 231.547 -1.75432 1.47501 0
M  V30 2410 C 232.547 -1.56707 0.360512 0
M  V30 2411 O 233.737 -1.62717 0.622002 0
M  V30 2412 C 230.869 -3.14239 1.32162 0
M  V30 2413 H 232.062 -1.7295 2.45006 0
M  V30 2414 H 229.615 -0.870469 1.29817 0
M  V30 2415 H 230.35 -3.22336 0.356401 0
M  V30 2416 H 230.135 -3.29235 2.12948 0
M  V30 2417 H 231.625 -3.94094 1.3813 0
M  V30 2418 N 232.062 -1.29571 -0.897171 0
M  V30 2419 C 232.992 -1.17473 -2.01798 0
M  V30 2420 C 233.973 -0.068323 -1.69963 0
M  V30 2421 O 235.158 -0.248239 -1.92607 0
M  V30 2422 C 232.288 -0.853099 -3.36659 0
M  V30 2423 C 231.242 -1.9161 -3.82713 0
M  V30 2424 C 230.568 -1.44773 -5.14728 0
M  V30 2425 C 231.868 -3.32535 -4.02763 0
M  V30 2426 H 233.562 -2.11237 -2.12177 0
M  V30 2427 H 231.108 -1.01699 -1.01948 0
M  V30 2428 H 233.061 -0.755165 -4.14578 0
M  V30 2429 H 231.785 0.120236 -3.26379 0
M  V30 2430 H 230.444 -2.00346 -3.07013 0
M  V30 2431 H 230.092 -0.462995 -5.00865 0
M  V30 2432 H 229.792 -2.15865 -5.46513 0
M  V30 2433 H 231.316 -1.36334 -5.95185 0
M  V30 2434 H 232.73 -3.26626 -4.71156 0
M  V30 2435 H 231.127 -4.01607 -4.45905 0
M  V30 2436 H 232.197 -3.75326 -3.07016 0
M  V30 2437 N 233.54 1.10788 -1.12088 0
M  V30 2438 C 234.765 1.87002 -0.896949 0
M  V30 2439 C 235.19 1.79933 0.548261 0
M  V30 2440 O 234.548 1.16662 1.38779 0
M  V30 2441 C 234.596 3.3349 -1.37174 0
M  V30 2442 O 233.7 4.08745 -0.547831 0
M  V30 2443 H 233.041 0.580397 -0.322545 0
M  V30 2444 H 235.571 1.39996 -1.49206 0
M  V30 2445 H 235.581 3.84339 -1.36922 0
M  V30 2446 H 234.256 3.37951 -2.42408 0
M  V30 2447 H 232.833 3.6776 -0.617034 0
M  V30 2448 N 235.018 0.912232 1.28515 0
M  V30 2449 C 236.265 0.544599 1.95039 0
M  V30 2450 C 236.593 -0.911435 1.71823 0
M  V30 2451 O 235.848 -1.66317 1.03137 0
M  V30 2452 C 236.147 0.798392 3.48368 0
M  V30 2453 C 235.813 2.23374 3.91682 0
M  V30 2454 C 234.475 2.62617 4.03219 0
M  V30 2455 C 236.827 3.16786 4.13879 0
M  V30 2456 C 234.155 3.94429 4.3433 0
M  V30 2457 C 236.507 4.48161 4.46469 0
M  V30 2458 C 235.171 4.8726 4.56217 0
M  V30 2459 H 234.441 0.199283 0.7137 0
M  V30 2460 H 237.088 1.15327 1.52879 0
M  V30 2461 H 235.393 0.106908 3.91654 0
M  V30 2462 H 237.09 0.493141 3.97956 0
M  V30 2463 H 233.68 1.91922 3.83228 0
M  V30 2464 H 237.864 2.87677 4.0442 0
M  V30 2465 H 233.12 4.24426 4.40082 0
M  V30 2466 H 237.294 5.20559 4.62592 0
M  V30 2467 H 234.921 5.89431 4.80078 0
M  V30 2468 N 236.496 -1.42363 0.676048 0
M  V30 2469 C 237.406 -2.346 -0.00153389 0
M  V30 2470 C 238.422 -1.5516 -0.787485 0
M  V30 2471 O 239.598 -1.87723 -0.729521 0
M  V30 2472 C 236.663 -3.33705 -0.940298 0
M  V30 2473 C 235.724 -4.29042 -0.148739 0
M  V30 2474 C 234.957 -5.23413 -1.04279 0
M  V30 2475 O 235.18 -5.22749 -2.28232 0
M  V30 2476 O 234.114 -5.99795 -0.502925 0
M  V30 2477 H 237.94 -2.94082 0.758268 0
M  V30 2478 H 235.525 -1.42888 0.436289 0
M  V30 2479 H 237.407 -3.94586 -1.47917 0
M  V30 2480 H 236.082 -2.76695 -1.67993 0
M  V30 2481 H 234.989 -3.71571 0.43427 0
M  V30 2482 H 236.322 -4.89097 0.551805 0
M  V30 2483 N 237.974 -0.419461 -1.51915 0
M  V30 2484 C 239.385 0.0477853 -1.86639 0
M  V30 2485 C 239.736 1.43531 -1.33766 0
M  V30 2486 O 238.861 2.05401 -0.68113 0
M  V30 2487 C 239.456 0.0934885 -3.38671 0
M  V30 2488 C 238.015 0.505097 -3.72996 0
M  V30 2489 C 237.162 -0.313792 -2.75519 0
M  V30 2490 H 240.113 -0.636088 -1.45395 0
M  V30 2491 H 240.134 0.906667 -3.6954 0
M  V30 2492 H 239.646 -0.916501 -3.77123 0
M  V30 2493 H 237.747 1.52135 -3.40126 0
M  V30 2494 H 237.86 0.242309 -4.78487 0
M  V30 2495 H 236.224 0.225363 -2.53701 0
M  V30 2496 H 237.007 -1.32232 -3.16812 0
M  V30 2497 N 239.452 1.56882 -0.150215 0
M  V30 2498 C 240.382 2.19935 0.784284 0
M  V30 2499 C 241.363 1.14854 1.25469 0
M  V30 2500 O 242.548 1.43209 1.31168 0
M  V30 2501 C 239.678 2.82349 2.02229 0
M  V30 2502 C 238.632 3.93285 1.68853 0
M  V30 2503 C 237.958 4.42649 2.99944 0
M  V30 2504 C 239.258 5.13904 0.932714 0
M  V30 2505 H 240.952 2.9828 0.258781 0
M  V30 2506 H 238.498 1.43473 0.123029 0
M  V30 2507 H 240.451 3.25126 2.68088 0
M  V30 2508 H 239.175 2.0134 2.57157 0
M  V30 2509 H 237.834 3.5113 1.05371 0
M  V30 2510 H 237.482 3.58458 3.52869 0
M  V30 2511 H 237.182 5.17476 2.78374 0
M  V30 2512 H 238.706 4.88099 3.66868 0
M  V30 2513 H 240.12 5.53506 1.49345 0
M  V30 2514 H 238.517 5.94515 0.81684 0
M  V30 2515 H 239.587 4.84842 -0.0749568 0
M  V30 2516 N 240.93 -0.123565 1.57115 0
M  V30 2517 C 242.155 -0.850398 1.89164 0
M  V30 2518 C 242.58 -1.7286 0.741688 0
M  V30 2519 O 241.938 -1.78665 -0.307958 0
M  V30 2520 C 241.986 -1.66353 3.19936 0
M  V30 2521 O 241.09 -2.77004 3.0552 0
M  V30 2522 H 240.431 -0.235454 0.620852 0
M  V30 2523 H 242.961 -0.107335 2.04318 0
M  V30 2524 H 242.971 -2.05372 3.52543 0
M  V30 2525 H 241.646 -1.01881 4.03228 0
M  V30 2526 H 240.223 -2.41221 2.84371 0
M  V30 2527 N 242.408 -1.52605 -0.393616 0
M  V30 2528 C 243.656 -1.67093 -1.13685 0
M  V30 2529 C 243.977 -0.411011 -1.90619 0
M  V30 2530 O 243.247 0.574491 -1.87287 0
M  V30 2531 H 241.827 -0.615923 -0.422668 0
M  V30 2532 H 244.489 -1.89704 -0.447039 0
M  V30 2533 H 243.585 -2.51922 -1.84232 0
M  V30 2534 N 243.887 0.651787 -1.4349 0
M  V30 2535 C 245.298 1.233 -1.40193 0
M  V30 2536 C 245.649 1.9591 -0.106727 0
M  V30 2537 O 244.774 2.01316 0.793773 0
M  V30 2538 C 245.369 2.24257 -2.53957 0
M  V30 2539 C 243.928 2.77852 -2.5392 0
M  V30 2540 C 243.075 1.52517 -2.3159 0
M  V30 2541 H 246.026 0.443717 -1.52371 0
M  V30 2542 H 246.047 3.0646 -2.25528 0
M  V30 2543 H 245.559 1.71382 -3.4821 0
M  V30 2544 H 243.66 3.34786 -1.63551 0
M  V30 2545 H 243.773 3.25299 -3.51735 0
M  V30 2546 H 242.137 1.79915 -1.80285 0
M  V30 2547 H 242.92 1.01574 -3.27929 0
M  V30 2548 N 245.365 1.30045 0.890287 0
M  V30 2549 C 246.328 1.15963 1.977 0
M  V30 2550 C 247.328 0.0923777 1.60534 0
M  V30 2551 O 248.518 0.340071 1.70848 0
M  V30 2552 C 245.65 0.775451 3.31963 0
M  V30 2553 H 246.843 2.12502 2.11619 0
M  V30 2554 H 244.396 1.13366 1.07601 0
M  V30 2555 H 245.131 -0.189671 3.23745 0
M  V30 2556 H 244.916 1.54668 3.60306 0
M  V30 2557 H 246.406 0.700251 4.11687 0
M  V30 2558 N 246.843 -1.10192 1.12674 0
M  V30 2559 C 248.089 -1.82475 0.884915 0
M  V30 2560 C 248.422 -1.85093 -0.58773 0
M  V30 2561 O 247.697 -1.3134 -1.43457 0
M  V30 2562 C 247.98 -3.29018 1.46353 0
M  V30 2563 C 247.833 -3.34718 3.00473 0
M  V30 2564 C 249.152 -4.25473 1.12519 0
M  V30 2565 H 246.271 -0.662492 0.322915 0
M  V30 2566 H 248.913 -1.2913 1.39375 0
M  V30 2567 H 247.063 -3.74576 1.03077 0
M  V30 2568 H 248.735 -2.97622 3.52447 0
M  V30 2569 H 246.978 -2.74541 3.35872 0
M  V30 2570 H 247.649 -4.37918 3.36053 0
M  V30 2571 H 250.125 -3.88161 1.499 0
M  V30 2572 H 249.001 -5.26365 1.55663 0
M  V30 2573 H 249.262 -4.42084 0.0377407 0
M  V30 2574 N 248.321 -0.919034 -1.28029 0
M  V30 2575 C 249.737 -0.617972 -1.4715 0
M  V30 2576 C 249.937 0.835242 -1.83374 0
M  V30 2577 O 248.993 1.61388 -1.94191 0
M  V30 2578 C 250.306 -1.56041 -2.57044 0
M  V30 2579 C 251.854 -1.56769 -2.7091 0
M  V30 2580 C 252.329 -2.49688 -3.83953 0
M  V30 2581 N 253.82 -2.47845 -3.91314 0
M  V30 2582 C 254.555 -3.16437 -4.78179 0
M  V30 2583 N 254.051 -3.94376 -5.69596 0
M  V30 2584 N 255.844 -3.05498 -4.71834 0
M  V30 2585 H 247.995 -1.85866 -1.02798 0
M  V30 2586 H 250.258 -0.797506 -0.512531 0
M  V30 2587 H 249.964 -2.59671 -2.372 0
M  V30 2588 H 249.838 -1.29551 -3.54255 0
M  V30 2589 H 252.225 -0.538745 -2.90141 0
M  V30 2590 H 252.306 -1.87305 -1.74214 0
M  V30 2591 H 251.95 -3.52688 -3.65477 0
M  V30 2592 H 251.88 -2.16453 -4.80058 0
M  V30 2593 H 254.371 -1.91234 -3.25941 0
M  V30 2594 H 254.684 -4.43721 -6.32718 0
M  V30 2595 H 253.029 -3.98481 -5.69419 0
M  V30 2596 H 256.22 -2.44108 -3.99411 0
M  V30 2597 H 256.393 -3.59225 -5.39316 0
M  V30 2598 N 249.799 1.42003 -0.683588 0
M  V30 2599 C 251.21 1.84501 -0.285736 0
M  V30 2600 C 251.561 1.57213 1.17382 0
M  V30 2601 O 250.686 1.03642 1.89966 0
M  V30 2602 C 251.281 3.34912 -0.511821 0
M  V30 2603 C 249.84 3.76025 -0.168005 0
M  V30 2604 C 248.987 2.6551 -0.799983 0
M  V30 2605 H 251.938 1.31724 -0.885119 0
M  V30 2606 H 251.959 3.79784 0.233292 0
M  V30 2607 H 251.471 3.54741 -1.57418 0
M  V30 2608 H 249.572 3.61801 0.890567 0
M  V30 2609 H 249.685 4.75141 -0.614661 0
M  V30 2610 H 248.049 2.53654 -0.230568 0
M  V30 2611 H 248.832 2.8816 -1.86597 0
M  V30 2612 N 251.277 0.427512 1.51691 0
M  V30 2613 C 252.507 -0.140986 2.06118 0
M  V30 2614 C 252.915 -1.37854 1.29588 0
M  V30 2615 O 252.258 -1.80411 0.346036 0
M  V30 2616 C 252.32 -0.538276 3.55447 0
M  V30 2617 C 251.984 0.591095 4.53161 0
M  V30 2618 C 252.981 1.46027 4.98971 0
M  V30 2619 C 250.666 0.769028 4.96378 0
M  V30 2620 C 252.66 2.49216 5.8666 0
M  V30 2621 C 250.347 1.80421 5.83859 0
M  V30 2622 C 251.345 2.66417 6.28897 0
M  V30 2623 O 251.033 3.68159 7.14643 0
M  V30 2624 H 250.765 -0.0157455 0.675817 0
M  V30 2625 H 253.319 0.602495 1.96365 0
M  V30 2626 H 251.549 -1.33432 3.6295 0
M  V30 2627 H 253.238 -1.0368 3.92435 0
M  V30 2628 H 254.004 1.33429 4.66285 0
M  V30 2629 H 249.883 0.109273 4.6087 0
M  V30 2630 H 253.427 3.16372 6.21735 0
M  V30 2631 H 249.324 1.93042 6.15959 0
M  V30 2632 H 250.092 3.64622 7.32798 0
M  V30 2633 N 252.755 -1.56801 0.158532 0
M  V30 2634 C 253.703 -2.18638 -0.793729 0
M  V30 2635 C 254.697 -1.14669 -1.24689 0
M  V30 2636 O 255.903 -1.32895 -1.21403 0
M  V30 2637 H 252.278 -0.700226 -0.274204 0
M  V30 2638 H 254.249 -2.97367 -0.248095 0
M  V30 2639 C 252.998 -2.83139 -2.0181 0
M  V30 2640 H 252.321 -3.62863 -1.67841 0
M  V30 2641 H 253.761 -3.29894 -2.66357 0
M  V30 2642 C 252.22 -1.82244 -2.83353 0
M  V30 2643 O 252.75 -1.3 -3.80083 0
M  V30 2644 N 250.956 -1.51288 -2.48114 0
M  V30 2645 H 250.503 -1.93964 -1.69516 0
M  V30 2646 H 250.461 -0.840296 -3.02963 0
M  V30 2647 N 254.233 0.115231 -1.57178 0
M  V30 2648 C 255.649 0.468877 -1.52557 0
M  V30 2649 C 255.849 1.81649 -0.872125 0
M  V30 2650 O 254.905 2.48347 -0.45606 0
M  V30 2651 C 256.218 0.4499 -2.97315 0
M  V30 2652 C 257.766 0.533185 -3.08425 0
M  V30 2653 C 258.241 0.54456 -4.54751 0
M  V30 2654 N 259.732 0.605892 -4.5922 0
M  V30 2655 C 260.467 0.636203 -5.6986 0
M  V30 2656 N 259.963 0.623931 -6.89985 0
M  V30 2657 N 261.756 0.679496 -5.57978 0
M  V30 2658 H 253.907 -0.767712 -1.9804 0
M  V30 2659 H 256.17 -0.283609 -0.904583 0
M  V30 2660 H 255.876 -0.472721 -3.48509 0
M  V30 2661 H 255.75 1.27632 -3.5495 0
M  V30 2662 H 258.137 1.44623 -2.57232 0
M  V30 2663 H 258.218 -0.320995 -2.53778 0
M  V30 2664 H 257.862 -0.364452 -5.06591 0
M  V30 2665 H 257.792 1.41568 -5.07214 0
M  V30 2666 H 260.283 0.621386 -3.72756 0
M  V30 2667 H 260.596 0.649787 -7.70063 0
M  V30 2668 H 258.941 0.591296 -6.9248 0
M  V30 2669 H 262.132 0.686472 -4.63039 0
M  V30 2670 H 262.305 0.69965 -6.44212 0
M  V30 2671 N 255.711 1.52812 0.385517 0
M  V30 2672 C 257.127 1.4214 0.725829 0
M  V30 2673 C 257.327 0.544589 1.94001 0
M  V30 2674 O 256.383 0.0193693 2.52493 0
M  V30 2675 C 257.696 2.85042 0.957668 0
M  V30 2676 C 259.244 2.94543 1.05892 0
M  V30 2677 C 259.719 4.38464 1.32337 0
M  V30 2678 N 261.21 4.41804 1.39151 0
M  V30 2679 C 261.945 5.5025 1.61285 0
M  V30 2680 N 261.441 6.68775 1.80866 0
M  V30 2681 N 263.234 5.37798 1.63492 0
M  V30 2682 H 255.385 2.08338 -0.413383 0
M  V30 2683 H 257.648 0.940016 -0.122775 0
M  V30 2684 H 257.354 3.51431 0.137568 0
M  V30 2685 H 257.228 3.27505 1.87137 0
M  V30 2686 H 259.615 2.28321 1.86959 0
M  V30 2687 H 259.696 2.55504 0.123057 0
M  V30 2688 H 259.34 5.05254 0.517793 0
M  V30 2689 H 259.27 4.75059 2.27214 0
M  V30 2690 H 261.761 3.56377 1.25713 0
M  V30 2691 H 262.074 7.47197 1.97271 0
M  V30 2692 H 260.419 6.71797 1.78083 0
M  V30 2693 H 263.61 4.44171 1.47749 0
M  V30 2694 H 263.783 6.22382 1.80402 0
M  V30 2695 N 257.189 -0.644168 1.43834 0
M  V30 2696 C 258.099 -1.78563 1.52159 0
M  V30 2697 C 259.115 -1.69147 0.408069 0
M  V30 2698 O 260.291 -1.90156 0.663524 0
M  V30 2699 C 257.356 -3.14888 1.45073 0
M  V30 2700 C 256.417 -3.36034 2.6717 0
M  V30 2701 C 255.65 -4.65855 2.60413 0
M  V30 2702 O 255.873 -5.45805 1.65689 0
M  V30 2703 O 254.807 -4.88918 3.5106 0
M  V30 2704 H 258.633 -1.74494 2.48567 0
M  V30 2705 H 256.218 -0.80378 1.25935 0
M  V30 2706 H 258.1 -3.96179 1.43597 0
M  V30 2707 H 256.775 -3.19528 0.518037 0
M  V30 2708 H 255.682 -2.54472 2.74217 0
M  V30 2709 H 257.015 -3.36247 3.59442 0
M  V30 2710 N 258.668 -1.30515 -0.883378 0
M  V30 2711 C 259.945 -1.10086 -1.6168 0
M  V30 2712 C 260.325 0.349269 -2.08191 0
M  V30 2713 O 259.673 1.34105 -1.85008 0
M  V30 2714 C 259.883 -2.10315 -2.78511 0
M  V30 2715 C 261.231 -2.42119 -3.48803 0
M  V30 2716 O 262.255 -2.08638 -2.88702 0
M  V30 2717 O 261.114 -2.99396 -4.57192 0
M  V30 2718 H 258.208 -0.422907 -0.710689 0
M  V30 2719 H 260.754 -1.41947 -0.930015 0
M  V30 2720 H 259.526 -3.07917 -2.41459 0
M  V30 2721 H 259.149 -1.79282 -3.54886 0
M  V30 2722 N 260.146 1.09593 -1.13257 0
M  V30 2723 C 261.109 2.14359 -0.811358 0
M  V30 2724 C 262.109 1.59808 0.178377 0
M  V30 2725 O 263.299 1.74132 -0.0484911 0
M  V30 2726 C 260.431 3.40269 -0.207276 0
M  V30 2727 H 261.624 2.44284 -1.73969 0
M  V30 2728 H 259.177 1.25102 -0.936973 0
M  V30 2729 H 259.912 3.15969 0.73036 0
M  V30 2730 H 259.697 3.81154 -0.919992 0
M  V30 2731 H 261.187 4.176 0.000667944 0
M  V30 2732 N 261.624 0.925811 1.2754 0
M  V30 2733 C 262.571 0.422045 2.26908 0
M  V30 2734 C 263.541 -0.510029 1.58076 0
M  V30 2735 O 264.726 -0.429599 1.85901 0
M  V30 2736 C 261.866 -0.320837 3.43605 0
M  V30 2737 C 260.979 0.64513 4.27156 0
M  V30 2738 C 260.114 -0.117405 5.3107 0
M  V30 2739 C 259.153 0.841391 6.0629 0
M  V30 2740 N 258.29 0.111604 7.02011 0
M  V30 2741 H 263.13 1.27441 2.69375 0
M  V30 2742 H 260.667 0.639697 1.32462 0
M  V30 2743 H 262.625 -0.76785 4.10073 0
M  V30 2744 H 261.255 -1.13745 3.02096 0
M  V30 2745 H 260.307 1.21067 3.6062 0
M  V30 2746 H 261.619 1.37797 4.79389 0
M  V30 2747 H 260.773 -0.624422 6.03478 0
M  V30 2748 H 259.512 -0.883219 4.79636 0
M  V30 2749 H 258.517 1.35967 5.32722 0
M  V30 2750 H 259.742 1.60696 6.59813 0
M  V30 2751 H 257.688 -0.635999 6.5291 0
M  V30 2752 H 257.605 0.784044 7.51923 0
M  V30 2753 H 258.873 -0.374823 7.78598 0
M  V30 2754 N 263.102 -1.41638 0.69111 0
M  V30 2755 C 264.332 -2.0533 0.228758 0
M  V30 2756 C 264.74 -1.52089 -1.12541 0
M  V30 2757 O 264.083 -0.662145 -1.71351 0
M  V30 2758 C 264.145 -3.59349 0.10407 0
M  V30 2759 C 263.809 -4.35362 1.38956 0
M  V30 2760 C 264.806 -4.64942 2.32648 0
M  V30 2761 C 262.491 -4.74714 1.64169 0
M  V30 2762 C 264.485 -5.32828 3.49818 0
M  V30 2763 C 262.172 -5.42338 2.81625 0
M  V30 2764 C 263.17 -5.71322 3.74273 0
M  V30 2765 O 262.858 -6.37554 4.89673 0
M  V30 2766 H 262.59 -0.667796 0.104997 0
M  V30 2767 H 265.144 -1.82477 0.942938 0
M  V30 2768 H 263.374 -3.80924 -0.665839 0
M  V30 2769 H 265.063 -4.04633 -0.320519 0
M  V30 2770 H 265.829 -4.35025 2.14425 0
M  V30 2771 H 261.708 -4.51538 0.929202 0
M  V30 2772 H 265.252 -5.55368 4.22152 0
M  V30 2773 H 261.149 -5.71673 2.99768 0
M  V30 2774 H 261.917 -6.56049 4.8943 0
M  V30 2775 N 264.58 -0.43555 -1.51462 0
M  V30 2776 C 265.996 -0.0877501 -1.59359 0
M  V30 2777 C 266.196 1.4027 -1.4466 0
M  V30 2778 O 265.252 2.17243 -1.28693 0
M  V30 2779 C 266.565 -0.606264 -2.94525 0
M  V30 2780 C 268.113 -0.566548 -3.0783 0
M  V30 2781 C 268.588 -1.06201 -4.45517 0
M  V30 2782 N 270.079 -1.01992 -4.51832 0
M  V30 2783 C 270.814 -1.37417 -5.5669 0
M  V30 2784 N 270.31 -1.80119 -6.68976 0
M  V30 2785 N 272.103 -1.29245 -5.47039 0
M  V30 2786 H 264.254 -1.40533 -1.59261 0
M  V30 2787 H 266.517 -0.578992 -0.750648 0
M  V30 2788 H 266.223 -1.64901 -3.10645 0
M  V30 2789 H 266.097 -0.0302097 -3.77188 0
M  V30 2790 H 268.484 0.467208 -2.91378 0
M  V30 2791 H 268.565 -1.17898 -2.2701 0
M  V30 2792 H 268.209 -2.09422 -4.62715 0
M  V30 2793 H 268.139 -0.426127 -5.24873 0
M  V30 2794 H 270.63 -0.706308 -3.71241 0
M  V30 2795 H 270.943 -2.05392 -7.45006 0
M  V30 2796 H 269.288 -1.84044 -6.70189 0
M  V30 2797 H 272.479 -0.957522 -4.58202 0
M  V30 2798 H 272.652 -1.57182 -6.28648 0
M  V30 2799 N 266.058 1.56714 -0.166846 0
M  V30 2800 C 267.006 2.19056 0.782123 0
M  V30 2801 C 268 1.15328 1.24079 0
M  V30 2802 O 269.206 1.33537 1.20697 0
M  V30 2803 H 265.581 0.70167 0.270486 0
M  V30 2804 H 267.552 2.97494 0.232322 0
M  V30 2805 C 266.301 2.84206 2.00306 0
M  V30 2806 H 265.624 3.63748 1.65914 0
M  V30 2807 H 267.064 3.31302 2.64604 0
M  V30 2808 C 265.523 1.83744 2.82382 0
M  V30 2809 O 266.053 1.32014 3.79388 0
M  V30 2810 N 264.259 1.52601 2.47308 0
M  V30 2811 H 263.806 1.9486 1.68485 0
M  V30 2812 H 263.764 0.856351 3.02513 0
M  V30 2813 N 267.536 -0.106894 1.57237 0
M  V30 2814 C 268.468 -1.15646 1.97885 0
M  V30 2815 C 269.481 -1.36981 0.879779 0
M  V30 2816 O 270.67 -1.35841 1.15799 0
M  V30 2817 C 267.77 -2.51425 2.27241 0
M  V30 2818 C 266.943 -2.50529 3.58545 0
M  V30 2819 C 266.002 -3.68145 3.75973 0
M  V30 2820 O 265.028 -3.51176 4.47956 0
M  V30 2821 N 266.23 -4.87177 3.15656 0
M  V30 2822 H 268.995 -0.81059 2.8853 0
M  V30 2823 H 266.556 -0.296024 1.59171 0
M  V30 2824 H 268.548 -3.28689 2.36105 0
M  V30 2825 H 267.118 -2.78147 1.42663 0
M  V30 2826 H 266.338 -1.58894 3.60758 0
M  V30 2827 H 267.626 -2.46997 4.44826 0
M  V30 2828 H 267.024 -5.03868 2.57165 0
M  V30 2829 H 265.581 -5.62075 3.30023 0
M  V30 2830 N 269.014 -1.53014 -0.377408 0
M  V30 2831 C 269.946 -1.74884 -1.48149 0
M  V30 2832 C 270.959 -0.629433 -1.5014 0
M  V30 2833 O 272.148 -0.905416 -1.53833 0
M  V30 2834 C 269.248 -1.80299 -2.86959 0
M  V30 2835 C 268.421 -3.09776 -3.08801 0
M  V30 2836 C 267.48 -3.06586 -4.27658 0
M  V30 2837 O 266.506 -3.80419 -4.23403 0
M  V30 2838 N 267.708 -2.26578 -5.34455 0
M  V30 2839 H 270.473 -2.70147 -1.29771 0
M  V30 2840 H 268.034 -1.51646 -0.56703 0
M  V30 2841 H 270.026 -1.75657 -3.64591 0
M  V30 2842 H 268.596 -0.92372 -2.98641 0
M  V30 2843 H 267.816 -3.27815 -2.18931 0
M  V30 2844 H 269.104 -3.95366 -3.20255 0
M  V30 2845 H 268.502 -1.66081 -5.40771 0
M  V30 2846 H 267.059 -2.27766 -6.10709 0
M  V30 2847 N 270.492 0.636531 -1.44174 0
M  V30 2848 C 271.74 1.39343 -1.46383 0
M  V30 2849 C 272.061 1.94766 -0.0955715 0
M  V30 2850 O 271.331 1.75452 0.871395 0
M  V30 2851 H 269.911 0.517199 -0.538994 0
M  V30 2852 H 272.573 0.74957 -1.7991 0
M  V30 2853 H 271.669 2.22746 -2.18611 0
M  V30 2854 N 271.97 1.30982 0.876444 0
M  V30 2855 C 272.933 1.18054 1.96459 0
M  V30 2856 C 273.933 0.109399 1.60427 0
M  V30 2857 O 275.123 0.358173 1.70478 0
M  V30 2858 C 272.255 0.810616 3.31122 0
M  V30 2859 H 273.448 2.14735 2.09354 0
M  V30 2860 H 271.001 1.145 1.06392 0
M  V30 2861 H 271.736 -0.155322 3.23928 0
M  V30 2862 H 271.521 1.58481 3.58645 0
M  V30 2863 H 273.011 0.743876 4.10921 0
M  V30 2864 N 273.449 -1.08991 1.13837 0
M  V30 2865 C 274.695 -1.81526 0.90422 0
M  V30 2866 C 275.028 -1.85706 -0.568066 0
M  V30 2867 O 274.303 -1.32855 -1.42056 0
M  V30 2868 C 274.586 -3.27447 1.49835 0
M  V30 2869 C 274.439 -3.31512 3.04006 0
M  V30 2870 C 275.758 -4.24256 1.17025 0
M  V30 2871 H 272.877 -0.659029 0.329923 0
M  V30 2872 H 275.519 -1.27644 1.40737 0
M  V30 2873 H 273.669 -3.73462 1.07044 0
M  V30 2874 H 275.341 -2.93867 3.55584 0
M  V30 2875 H 273.584 -2.70963 3.38765 0
M  V30 2876 H 274.255 -4.34329 3.40679 0
M  V30 2877 H 276.731 -3.86549 1.54009 0
M  V30 2878 H 275.607 -5.24684 1.61237 0
M  V30 2879 H 275.868 -4.42019 0.0846274 0
M  V30 2880 N 274.927 -0.932562 -1.27047 0
M  V30 2881 C 275.89 -0.440064 -2.24936 0
M  V30 2882 C 276.89 0.444071 -1.54547 0
M  V30 2883 O 278.08 0.244465 -1.72476 0
M  V30 2884 C 275.212 0.36678 -3.38921 0
M  V30 2885 H 276.405 -1.305 -2.70018 0
M  V30 2886 H 273.958 -0.713707 -1.39054 0
M  V30 2887 H 274.693 1.25033 -2.99228 0
M  V30 2888 H 274.478 -0.267204 -3.91188 0
M  V30 2889 H 275.968 0.701567 -4.11665 0
M  V30 2890 N 276.405 1.4127 -0.698611 0
M  V30 2891 C 277.63 2.06024 -0.238512 0
M  V30 2892 C 278.055 1.5224 1.10475 0
M  V30 2893 O 277.413 0.650623 1.69223 0
M  V30 2894 C 277.461 3.59988 -0.209952 0
M  V30 2895 O 276.565 4.04282 0.814235 0
M  V30 2896 H 275.906 0.653829 -0.115775 0
M  V30 2897 H 278.436 1.8098 -0.954326 0
M  V30 2898 H 278.446 4.07979 -0.0418436 0
M  V30 2899 H 277.121 3.98503 -1.1903 0
M  V30 2900 H 275.698 3.6779 0.615234 0
M  V30 2901 N 277.883 0.443576 1.51229 0
M  V30 2902 C 279.299 0.0962001 1.5931 0
M  V30 2903 C 279.499 -1.39501 1.45402 0
M  V30 2904 O 278.555 -2.16557 1.29843 0
M  V30 2905 C 279.868 0.621875 2.94199 0
M  V30 2906 C 281.416 0.582865 3.07525 0
M  V30 2907 C 281.891 1.08562 4.44948 0
M  V30 2908 N 283.382 1.04387 4.51284 0
M  V30 2909 C 284.117 1.40368 5.55954 0
M  V30 2910 N 283.613 1.83664 6.68011 0
M  V30 2911 N 285.406 1.32145 5.46346 0
M  V30 2912 H 277.557 1.41376 1.58514 0
M  V30 2913 H 279.82 0.582965 0.747567 0
M  V30 2914 H 279.526 1.66546 3.09767 0
M  V30 2915 H 279.4 0.0502125 3.77167 0
M  V30 2916 H 281.787 -0.451749 2.91622 0
M  V30 2917 H 281.868 1.191 2.26382 0
M  V30 2918 H 281.512 2.11873 4.61598 0
M  V30 2919 H 281.442 0.453956 5.2464 0
M  V30 2920 H 283.933 0.725986 3.70861 0
M  V30 2921 H 284.246 2.0934 7.43906 0
M  V30 2922 H 282.591 1.87596 6.69203 0
M  V30 2923 H 285.782 0.981808 4.57688 0
M  V30 2924 H 285.955 1.60514 6.27805 0
M  V30 2925 N 279.361 -1.56624 0.175154 0
M  V30 2926 C 280.61 -1.96173 -0.468921 0
M  V30 2927 C 280.923 -1.06401 -1.64128 0
M  V30 2928 O 282.129 -1.35648 -2.35185 0
M  V30 2929 C 280.585 -3.48833 -0.885633 0
M  V30 2930 C 280.193 -4.47237 0.261343 0
M  V30 2931 C 281.937 -3.97194 -1.49791 0
M  V30 2932 C 279.844 -5.9114 -0.175214 0
M  V30 2933 H 278.774 -0.732455 -0.178958 0
M  V30 2934 H 281.425 -1.81591 0.263997 0
M  V30 2935 H 279.807 -3.58848 -1.67464 0
M  V30 2936 H 280.981 -4.4894 1.03871 0
M  V30 2937 H 279.296 -4.08956 0.783827 0
M  V30 2938 H 281.893 -5.02167 -1.83665 0
M  V30 2939 H 282.236 -3.40351 -2.39722 0
M  V30 2940 H 282.769 -3.90212 -0.773267 0
M  V30 2941 H 279.508 -6.51865 0.689414 0
M  V30 2942 H 279.028 -5.92735 -0.91786 0
M  V30 2943 H 280.707 -6.44044 -0.617792 0
M  V30 2944 N 280.839 0.0985539 -1.57292 0
M  V30 2945 C 282.116 0.834155 -1.76921 0
M  V30 2946 C 282.496 1.97101 -0.755928 0
M  V30 2947 O 281.844 2.27474 0.216245 0
M  V30 2948 C 282.054 1.33194 -3.22584 0
M  V30 2949 C 283.402 1.77611 -3.85668 0
M  V30 2950 O 284.426 1.42825 -3.26312 0
M  V30 2951 O 283.285 2.4192 -4.90038 0
M  V30 2952 H 280.379 0.397628 -0.725135 0
M  V30 2953 H 282.925 0.0807044 -1.69508 0
M  V30 2954 H 281.697 0.517248 -3.87866 0
M  V30 2955 H 281.32 2.1475 -3.34616 0
M  V30 2956 N 282.317 1.53212 0.369288 0
M  V30 2957 C 283.264 1.79388 1.45219 0
M  V30 2958 C 284.234 0.638059 1.53356 0
M  V30 2959 O 285.419 0.879852 1.69302 0
M  V30 2960 C 282.559 1.98623 2.82211 0
M  V30 2961 C 281.672 3.26337 2.8307 0
M  V30 2962 C 280.807 3.35779 4.11614 0
M  V30 2963 C 279.846 4.5754 4.06601 0
M  V30 2964 N 278.983 4.64155 5.26787 0
M  V30 2965 H 283.823 2.71794 1.22198 0
M  V30 2966 H 281.36 1.34642 0.592444 0
M  V30 2967 H 283.318 2.07761 3.61789 0
M  V30 2968 H 281.948 1.09558 3.03639 0
M  V30 2969 H 281 3.26171 1.95747 0
M  V30 2970 H 282.312 4.15988 2.75237 0
M  V30 2971 H 281.466 3.44208 4.99606 0
M  V30 2972 H 280.205 2.44137 4.22195 0
M  V30 2973 H 279.21 4.49215 3.16996 0
M  V30 2974 H 280.435 5.50519 3.97625 0
M  V30 2975 H 278.381 3.75413 5.3796 0
M  V30 2976 H 278.298 5.47706 5.21109 0
M  V30 2977 H 279.566 4.76863 6.16621 0
M  V30 2978 N 283.795 -0.628877 1.44509 0
M  V30 2979 C 285.072 -1.38733 1.37886 0
M  V30 2980 C 285.452 -2.11065 0.0387008 0
M  V30 2981 O 284.8 -2.06476 -0.97878 0
M  V30 2982 C 285.01 -2.35188 2.57852 0
M  V30 2983 C 286.358 -2.9845 3.02014 0
M  V30 2984 O 287.382 -2.45513 2.58073 0
M  V30 2985 O 286.241 -3.94487 3.78209 0
M  V30 2986 H 283.335 -0.621015 0.54614 0
M  V30 2987 H 285.881 -0.653744 1.56602 0
M  V30 2988 H 284.653 -1.80855 3.46998 0
M  V30 2989 H 284.276 -3.1596 2.4136 0
M  V30 2990 O 285.312 -1.41833 -0.772381 0
M  V30 2991 H 286.003 -1.31768 -1.41975 0
M  V30 END ATOM
M  V30 BEGIN BOND
M  V30 END BOND
M  V30 END CTAB
M  END
$$$$
